
*** ChampSim Multicore Out-of-Order Simulator ***

Warmup Instructions: 10000000
Simulation Instructions: 10000000
Number of CPUs: 1
LLC sets: 2048
LLC ways: 16
Off-chip DRAM Size: 4096 MB Channels: 1 Width: 64-bit Data Rate: 6400 MT/s
CPU 0 runs /media/ashish/Windows1/Ashish/traces/public/602.gcc_s-2375B.champsimtrace.xz
.xz
ITLB has LRU replacement policy
DTLB has LRU replacement policy
STLB has LRU replacement policy
FDIP Prefetcher at L1I
L1I has LRU replacement policy
L1D has LRU replacement policy
Initialize SRRIP state for L2C
Initialize DRRIP state for LLC
Heartbeat CPU 0 instructions: 10000000 cycles: 3544620 heartbeat IPC: 2.82118 cumulative IPC: 2.82118 (Simulation time: 0 hr 5 min 19 sec) 

Warmup complete CPU 0 instructions: 10000004 cycles: 3544621 (Simulation time: 0 hr 5 min 19 sec) 

10004887 0 3561436 3561444 3561444 3561448 3561457 3561463
10224323 4254322 4254323 4254331 4254331 4254335 4254338 4254354
10249057 4341010 4341011 4341019 4341019 4341023 4341065 4341081
10262462 4384664 4384665 4384673 4384673 4384677 4384678 4384694
10317300 0 4558247 4558255 4558255 4558259 4558260 4558266
10352105 4665387 4665388 4665396 4665396 4665400 4665583 4665589
10352120 4665690 4665690 4665882 4665882 4665887 4665904 4665920
10352147 4665921 4665922 4666141 4666141 4666145 4666146 4666152
10352323 4666588 4666589 4666597 4666597 4666601 4666628 4666634
10353751 0 4673628 4673636 4673636 4673640 4673659 4673665
10354017 0 4675760 4675768 4675768 4675772 4675773 4675779
10354059 0 4676089 4676097 4676097 4676101 4676110 4676116
10354089 4676162 4676162 4676170 4676170 4676175 4676343 4676359
10354138 4676936 4676937 4677159 4677159 4677163 4677164 4677180
10354190 4677689 4677689 4677811 4677811 4677816 4677885 4677891
10354390 4681621 4681621 4681837 4681837 4681843 4681845 4681861
10354396 4681862 4681863 4681871 4681871 4681875 4681960 4681966
10354455 4682667 4682668 4682890 4682890 4682894 4682895 4682901
10354532 0 4683027 4683035 4683061 4683066 4683341 4683348
10354761 0 4683861 4683869 4683906 4683911 4683917 4683933
10354841 4684358 4684359 4684367 4684367 4684371 4684495 4684501
10354868 4684625 4684625 4684725 4684725 4684731 4684736 4685183
10354976 4686191 4686192 4686200 4686200 4686204 4686205 4686211
10355551 4690881 4690882 4690889 4690889 4690894 4691003 4691019
10355578 4691631 4691631 4691639 4691639 4691644 4691753 4691769
10356149 0 4695263 4695266 4695269 4695274 4695283 4695289
10356251 4695466 4695466 4695474 4695474 4695479 4695595 4695611
10356341 0 4695718 4695726 4695726 4695730 4695766 4695772
10356383 0 4695793 4695801 4695801 4695806 4695904 4695910
10356462 4696345 4696346 4696354 4696354 4696358 4696454 4696461
10357192 4698958 4698959 4698967 4698967 4698971 4698972 4698993
10357267 0 4699261 4699269 4699269 4699273 4699274 4699280
10357591 0 4700544 4700551 4700659 4700665 4700737 4700743
10357874 4701765 4701766 4701773 4701773 4701778 4701927 4701943
10357901 4701837 4701837 4701845 4701845 4701850 4702166 4702182
10358731 4704458 4704459 4704467 4704467 4704471 4704873 4704880
10359059 4706242 4706243 4706248 4706249 4706253 4706259 4706276
10359253 4708709 4708710 4708831 4708831 4708836 4708945 4708961
10359294 0 4709360 4709368 4709368 4709372 4709392 4709398
10359332 0 4709405 4709413 4709413 4709417 4709481 4709487
10359371 0 4709508 4709516 4709516 4709520 4709632 4709638
10359430 0 4709641 4709649 4709649 4709653 4709792 4709798
10359839 4710984 4710984 4710992 4710992 4710997 4711321 4711337
10360018 4711807 4711807 4711815 4711815 4711820 4711980 4711996
10366011 4728569 4728570 4728577 4728577 4728582 4728855 4728871
10367182 4733424 4733425 4733433 4733433 4733437 4733438 4733454
10367325 4734224 4734225 4734233 4734233 4734237 4734266 4734272
10367710 4735500 4735500 4735508 4735508 4735513 4735521 4735521
10368008 4736273 4736273 4736492 4736492 4736496 4736514 4736520
10368113 0 4737310 4737315 4737318 4737323 4737340 4737347
10368223 4737462 4737463 4737470 4737470 4737475 4737703 4737719
10368481 0 4738272 4738285 4738285 4738290 4738736 4738742
10368524 4738281 4738281 4738333 4738335 4738345 4738751 4738798
10368840 4740081 4740082 4740089 4740089 4740094 4740207 4740223
10368846 0 4740112 4740120 4740120 4740124 4740224 4740230
10369371 4741414 4741415 4741422 4741620 4741629 4741813 4741829
10369379 4741581 4741582 4741590 4741620 4741631 4741832 4741838
10369388 4741711 4741712 4741720 4741720 4741724 4741860 4741866
10369566 4742139 4742140 4742147 4742147 4742152 4742605 4742621
10369583 4742437 4742437 4742621 4742621 4742627 4742665 4742671
10369604 4742672 4742672 4742859 4742859 4742864 4742878 4742884
10369669 4742900 4742901 4742999 4743000 4743008 4743067 4743083
10369712 4743241 4743242 4743250 4743250 4743254 4743296 4743312
10369727 4743337 4743338 4743346 4743346 4743350 4743392 4743408
10369780 0 4743750 4743778 4743778 4743783 4743789 4743850
10369811 0 4743817 4743825 4743825 4743829 4743833 4743850
10369997 4745088 4745088 4745145 4745145 4745151 4745156 4745611
10370033 4745851 4745852 4746066 4746066 4746071 4746077 4746308
10370048 4746351 4746352 4746360 4746360 4746364 4746365 4746596
10370197 4749868 4749869 4749877 4749877 4749881 4749899 4749915
10370224 4750137 4750138 4750145 4750145 4750150 4750259 4750275
10372375 0 4757506 4757514 4757514 4757518 4757596 4757602
10372440 0 4757630 4757635 4757635 4757640 4757725 4757731
10372990 0 4759013 4759019 4759020 4759025 4759255 4759261
10373645 0 4761528 4761536 4761536 4761540 4761611 4761617
10379442 0 4779963 4779971 4779971 4779975 4780085 4780091
10379659 0 4780636 4780644 4780644 4780648 4780753 4780759
10379882 4781165 4781165 4781173 4781173 4781178 4781221 4781228
10380180 0 4782274 4782279 4782282 4782287 4782323 4782330
10380285 0 4782709 4782714 4782717 4782722 4782743 4782751
10380424 4783019 4783019 4783027 4783027 4783032 4783038 4783054
10380433 4783033 4783034 4783041 4783041 4783046 4783152 4783168
10380734 4783685 4783685 4783693 4783693 4783698 4784041 4784041
10380745 0 4783733 4783747 4783747 4783751 4784044 4784050
10381050 4785187 4785188 4785195 4785195 4785200 4785371 4785387
10381782 0 4787519 4787527 4787527 4787531 4787739 4787745
10381818 4787624 4787625 4787632 4787632 4787637 4787882 4787898
10382229 4788641 4788641 4788695 4788696 4788704 4788779 4788840
10382362 0 4788921 4788973 4788973 4788977 4789061 4789067
10382410 4789097 4789098 4789150 4789150 4789154 4789209 4789225
10382471 4789489 4789490 4789539 4789539 4789543 4789544 4789560
10384307 0 4795038 4795043 4795084 4795089 4795137 4795143
10384393 4795400 4795401 4795452 4795452 4795457 4795563 4795579
10384429 4795789 4795790 4795797 4795797 4795802 4795915 4795931
10384446 0 4796059 4796067 4796067 4796071 4796072 4796078
10384467 0 4796068 4796076 4796076 4796081 4796100 4796106
10384594 4796469 4796470 4796478 4796478 4796482 4796529 4796545
10384609 4796549 4796550 4796555 4796556 4796561 4796607 4796623
10384806 0 4797194 4797202 4797202 4797206 4797207 4797219
10384913 0 4797973 4797987 4797987 4797991 4797999 4798015
10384962 0 4797990 4797997 4797998 4798007 4798101 4798122
10385008 4798134 4798135 4798140 4798140 4798145 4798149 4798165
10385023 4798173 4798173 4798181 4798181 4798186 4798192 4798208
10385167 4798727 4798728 4798736 4798736 4798740 4798817 4798833
10389928 0 4815337 4815345 4815345 4815349 4815456 4815462
10397644 0 4839985 4839991 4839993 4839998 4840142 4840149
10399363 4845730 4845731 4845736 4845737 4845742 4845849 4845865
10399633 0 4846280 4846287 4846288 4846297 4846702 4846723
10406358 0 4869729 4869737 4869737 4869741 4869815 4869821
10406439 0 4870094 4870099 4870102 4870107 4870124 4870131
10406922 4871185 4871185 4871192 4871192 4871198 4871465 4871481
10406990 4871488 4871488 4871496 4871496 4871501 4871536 4871563
10407257 0 4872422 4872430 4872430 4872434 4872442 4872448
10409030 0 4877122 4877127 4877127 4877132 4877498 4877504
10409169 0 4877805 4877809 4877812 4877818 4878281 4878287
10409190 0 4877815 4877823 4877823 4877828 4878309 4878315
10409427 0 4878696 4878703 4878703 4878709 4878976 4878997
10409683 4880161 4880161 4880408 4880408 4880413 4880434 4880440
10409688 0 4880442 4880450 4880450 4880454 4880462 4880478
10409786 4880767 4880767 4880775 4880775 4880780 4880786 4880802
10409916 4881367 4881368 4881376 4881376 4881380 4881440 4881456
10409919 4881378 4881379 4881387 4881387 4881391 4881474 4881490
10410131 4882661 4882661 4882669 4882669 4882674 4882680 4882686
10410139 0 4882688 4882696 4882696 4882701 4882722 4882728
10410144 0 4882692 4882700 4882700 4882704 4882736 4882752
10410169 0 4882760 4882767 4882767 4882772 4882837 4882843
10418575 4908312 4908313 4908320 4908320 4908325 4908536 4908552
10431364 0 4946829 4946837 4946837 4946841 4946946 4946952
10431381 0 4946950 4946955 4946955 4946959 4947002 4947008
10431935 4948449 4948449 4948457 4948457 4948462 4948571 4948587
10433519 0 4953567 4953575 4953575 4953579 4953655 4953661
10434636 0 4957010 4957024 4957024 4957028 4957114 4957130
10434926 0 4957654 4957662 4957662 4957667 4957825 4957831
10434931 0 4957658 4957666 4957666 4957670 4957839 4957855
10435197 4958527 4958528 4958536 4958536 4958540 4958599 4958615
10435200 4958616 4958617 4958625 4958625 4958629 4958647 4958663
10435466 0 4959388 4959396 4959396 4959401 4959431 4959437
10435471 0 4959439 4959447 4959447 4959451 4959459 4959475
10436165 4962470 4962471 4962478 4962556 4962563 4962789 4962805
10436477 0 4963832 4963840 4964036 4964059 4964086 4964101
10436814 4965682 4965682 4965690 4965690 4965695 4965891 4965907
10436829 4965790 4965791 4966010 4966013 4966017 4966018 4966024
10436893 4966225 4966225 4966232 4966232 4966236 4966237 4966253
10437062 4967086 4967087 4967095 4967095 4967099 4967100 4967106
10437114 0 4967462 4967514 4967675 4967682 4967731 4967737
10437196 0 4968416 4968468 4968660 4968664 4968679 4968685
10437523 4969215 4969215 4969222 4969222 4969227 4969245 4969261
10438278 0 4973060 4973109 4973110 4973117 4973171 4973177
10438292 4973066 4973067 4973140 4973141 4973147 4973234 4973250
10438683 4975496 4975497 4975502 4975502 4975509 4975554 4975570
10438812 4976940 4976941 4977163 4977163 4977167 4977168 4977175
10438978 4977973 4977974 4977982 4977982 4977986 4977987 4978003
10439103 4978877 4978878 4979098 4979098 4979104 4979155 4979161
10439188 4979163 4979164 4979212 4979212 4979217 4979324 4979340
10439218 4979450 4979450 4979564 4979564 4979569 4979587 4979593
10439267 4979950 4979950 4979999 4979999 4980003 4980089 4980105
10439293 4980370 4980371 4980490 4980490 4980494 4980495 4980501
10439355 0 4980902 4980942 4980942 4980947 4980993 4980999
10439447 4981375 4981375 4981383 4981422 4981428 4981525 4981531
10439607 0 4981588 4981666 4981666 4981670 4981671 4981687
10439647 0 4981690 4981698 4981698 4981702 4981771 4981778
10439682 0 4981776 4981780 4981821 4981826 4981846 4981862
10439880 4982638 4982638 4982645 4982645 4982651 4982697 4982713
10440185 4984372 4984372 4984380 4984380 4984385 4984563 4984579
10440218 4984615 4984615 4984623 4984623 4984627 4984780 4984796
10440247 4984826 4984827 4984835 4984835 4984839 4984929 4984935
10440284 4984942 4984943 4984951 4984951 4984955 4985044 4985060
10440400 4985564 4985565 4985784 4985784 4985788 4985789 4985795
10440438 4985950 4985950 4985958 4985958 4985963 4986072 4986088
10441256 0 4988813 4988821 4988821 4988825 4988847 4988853
10441503 0 4989364 4989369 4989369 4989373 4989530 4989536
10445236 4999818 4999819 4999827 4999827 4999831 4999994 5000010
10445510 0 5000287 5000295 5000295 5000299 5000377 5000393
10446853 5003701 5003701 5003709 5003709 5003714 5003933 5003949
10447235 0 5005245 5005253 5005253 5005257 5005274 5005280
10448446 0 5008812 5008820 5008820 5008824 5008978 5008984
10448656 5009668 5009668 5009676 5009676 5009681 5009725 5009741
10448785 0 5009847 5009869 5009869 5009873 5010137 5010143
10449076 0 5010997 5011017 5011017 5011023 5011110 5011116
10449191 0 5011129 5011134 5011142 5011148 5011386 5011392
10449240 5011262 5011262 5011284 5011284 5011288 5011508 5011524
10449580 0 5011591 5011613 5011613 5011617 5012026 5012042
10449620 0 5011610 5011613 5011614 5011624 5012109 5012125
10449703 5011769 5011769 5011777 5011777 5011782 5012331 5012347
10449863 5012356 5012356 5012358 5012360 5012368 5012806 5012822
10449872 5012378 5012379 5012386 5012386 5012391 5012926 5012942
10449900 0 5012716 5012724 5012724 5012728 5013002 5013008
10449937 5012772 5012773 5012781 5012781 5012785 5013108 5013124
10450053 0 5013268 5013273 5013276 5013280 5013674 5013680
10454972 5027640 5027641 5027649 5027649 5027653 5027715 5027731
10458184 5037045 5037045 5037053 5037053 5037058 5037194 5037210
10459444 5040353 5040353 5040361 5040361 5040366 5040475 5040491
10459641 0 5041183 5041191 5041191 5041195 5041243 5041249
10459678 5041193 5041194 5041202 5041202 5041206 5041349 5041365
10460888 0 5045188 5045196 5045196 5045200 5045308 5045314
10460946 5045268 5045269 5045491 5045491 5045498 5045502 5045508
10461479 0 5046977 5046979 5047024 5047028 5047082 5047088
10461495 0 5047032 5047038 5047038 5047044 5047124 5047130
10461861 0 5047696 5047702 5047702 5047708 5047838 5047844
10462191 0 5048268 5048274 5048275 5048280 5048393 5048399
10462207 0 5048369 5048375 5048375 5048381 5048435 5048441
10462751 0 5049904 5049910 5049911 5049916 5049935 5049941
10463279 0 5050948 5050954 5050955 5050960 5051058 5051064
10463885 0 5051885 5051891 5051892 5051897 5051995 5052001
10464329 0 5052757 5052763 5052764 5052769 5052867 5052873
10464345 0 5052843 5052849 5052849 5052855 5052909 5052915
10490011 0 5131854 5131862 5131862 5131866 5131867 5131873
10490133 0 5132312 5132320 5132320 5132324 5132365 5132371
10490523 5133472 5133473 5133480 5133480 5133485 5133560 5133560
10512182 0 5205983 5205991 5205991 5205995 5206001 5206007
10524381 5245021 5245021 5245072 5245072 5245078 5245153 5245184
10524449 5245279 5245279 5245287 5245287 5245292 5245404 5245421
10527142 0 5252638 5252652 5252652 5252657 5252976 5252982
10527147 0 5252642 5252651 5252652 5252658 5252990 5253006
10527598 0 5253621 5253629 5253629 5253634 5253710 5253716
10527603 0 5253625 5253633 5253633 5253637 5253724 5253740
10534437 0 5273399 5273407 5273407 5273411 5273412 5273418
10538034 5285657 5285657 5285665 5285665 5285670 5285671 5285687
10540727 0 5293688 5293702 5293702 5293707 5293760 5293766
10564528 0 5367876 5367884 5367884 5367889 5367895 5367901
10592087 5464014 5464014 5464022 5464022 5464027 5464100 5464107
10598292 5487400 5487401 5487409 5487409 5487413 5487421 5487427
10599118 5493284 5493285 5493293 5493293 5493297 5493315 5493331
10599139 5493637 5493638 5493646 5493646 5493650 5493668 5493684
10599153 0 5493689 5493694 5493695 5493700 5493770 5493776
10599160 5493818 5493819 5493827 5493827 5493831 5493849 5493865
10599174 0 5493870 5493875 5493876 5493881 5493951 5493957
10599202 5494195 5494196 5494204 5494204 5494208 5494226 5494242
10599216 0 5494247 5494252 5494253 5494258 5494328 5494334
10599237 0 5494428 5494433 5494434 5494439 5494509 5494515
10599244 5494517 5494517 5494525 5494525 5494530 5494544 5494560
10599849 5498153 5498154 5498431 5498431 5498435 5498436 5498442
10599982 5500042 5500043 5500051 5500051 5500055 5500056 5500062
10600055 0 5500407 5500415 5500415 5500419 5500470 5500476
10600226 0 5500817 5500825 5500825 5500829 5500865 5500871
10600342 0 5501126 5501134 5501134 5501139 5501175 5501181
10600397 0 5501283 5501291 5501291 5501295 5501331 5501337
10600739 0 5501991 5501999 5501999 5502003 5502054 5502060
10604513 5507701 5507701 5507709 5507709 5507713 5507719 5507735
10604519 0 5507788 5507796 5507796 5507800 5507801 5507807
10605703 5516596 5516597 5516605 5516605 5516609 5516610 5516616
10605764 0 5517010 5517018 5517018 5517022 5517098 5517104
10605788 5517130 5517131 5517139 5517139 5517143 5517147 5517153
10617046 5556776 5556777 5556785 5556785 5556789 5556790 5556796
10617279 0 5557485 5557493 5557493 5557497 5557498 5557504
10617372 5557586 5557587 5557592 5557595 5557599 5557748 5557764
10617380 5557698 5557698 5557750 5557750 5557755 5557958 5557974
10617405 5558155 5558156 5558316 5558316 5558320 5558321 5558337
10626684 5592058 5592059 5592067 5592067 5592071 5592123 5592139
10626701 5592994 5592995 5593003 5593003 5593007 5593008 5593014
10626733 5593482 5593483 5593702 5593702 5593706 5593707 5593713
10627041 5594411 5594411 5594595 5594595 5594599 5594730 5594736
10627258 5598179 5598180 5598188 5598188 5598192 5598193 5598209
10629290 5606247 5606247 5606255 5606255 5606260 5606266 5606272
10631969 5610709 5610710 5610929 5610929 5610933 5610934 5610940
10632120 5611588 5611588 5611810 5611810 5611815 5611901 5611907
10637137 0 5624369 5624377 5624377 5624381 5624525 5624531
10637494 0 5625345 5625350 5625353 5625357 5625515 5625521
10637693 5625583 5625584 5625592 5625592 5625596 5626581 5626598
10639725 0 5634129 5634137 5634448 5634661 5636003 5636009
10642566 0 5638078 5638086 5638086 5638091 5638186 5638192
10648139 5652383 5652383 5652386 5652386 5652396 5653367 5653384
10657830 5678667 5678668 5678676 5678676 5678680 5678681 5678687
10659480 5682114 5682114 5682122 5682122 5682127 5682236 5682252
10659505 5682780 5682781 5682885 5682885 5682889 5682903 5682919
10659540 5683746 5683747 5683755 5683755 5683759 5683764 5683770
10659650 0 5685939 5685945 5685946 5685951 5686008 5686014
10659760 0 5686625 5686631 5686632 5686637 5686694 5686700
10660229 5689192 5689193 5689201 5689201 5689205 5689206 5689212
10660248 5689282 5689283 5689288 5689291 5689295 5689347 5689363
10660283 5689370 5689371 5689377 5689379 5689383 5689505 5689521
10660406 0 5690246 5690254 5690254 5690258 5690259 5690265
10660598 0 5691387 5691395 5691395 5691399 5691400 5691406
10660652 5691627 5691628 5691634 5691636 5691640 5691706 5691722
10660705 0 5691959 5691967 5691967 5691971 5691972 5691978
10660992 0 5693343 5693347 5693349 5693354 5693512 5693518
10661102 0 5693798 5693806 5693806 5693810 5693997 5694003
10661291 0 5694881 5694889 5694889 5694893 5694894 5694900
10661707 5696925 5696925 5696933 5696933 5696937 5696938 5696955
10661937 5698010 5698010 5698018 5698018 5698022 5698035 5698042
10662283 0 5699834 5699842 5699842 5699846 5699847 5699853
10662792 0 5702463 5702467 5702469 5702474 5702664 5702670
10662899 0 5703151 5703159 5703159 5703163 5703164 5703170
10666811 5722415 5722416 5722801 5722801 5722805 5722806 5722822
10666879 5725122 5725122 5725244 5725244 5725249 5725255 5725261
10666990 5726199 5726200 5726208 5726208 5726212 5726220 5726236
10667007 5726401 5726402 5726524 5726524 5726528 5726529 5726535
10667066 0 5726841 5726846 5726849 5726853 5726861 5726867
10667136 0 5728055 5728060 5728063 5728067 5728075 5728081
10667172 0 5728309 5728314 5728317 5728321 5728322 5728328
10667237 0 5728660 5728668 5728668 5728672 5728726 5728732
10667388 0 5730635 5730643 5730643 5730648 5730654 5730660
10667456 0 5730748 5730753 5730756 5730760 5730830 5730836
10667492 0 5730865 5730873 5730873 5730877 5730938 5730944
10667662 0 5731350 5731358 5731358 5731363 5731392 5731398
10670202 0 5738428 5738436 5738436 5738440 5738606 5738612
10673761 0 5748948 5748956 5748956 5748960 5749223 5749229
10675099 0 5753637 5753642 5753645 5753650 5753702 5753708
10680823 5770103 5770104 5770112 5770112 5770116 5770139 5770155
10681010 0 5770413 5770419 5770419 5770424 5770637 5770643
10714057 5859870 5859871 5859879 5859879 5859883 5859947 5859963
10724670 5890806 5890807 5890815 5890815 5890819 5890820 5890826
10724693 0 5891004 5891278 5891278 5891291 5891332 5891338
10725633 5892664 5892665 5892768 5892769 5892774 5892912 5892919
10725781 5893615 5893616 5893668 5893668 5893672 5893674 5893690
10725909 0 5894425 5894433 5894433 5894437 5894470 5894476
10726279 5895552 5895552 5895560 5895560 5895565 5895712 5895728
10726399 5896287 5896288 5896296 5896296 5896300 5896406 5896413
10726760 5897752 5897752 5897760 5897760 5897765 5897874 5897890
10726887 5898637 5898638 5898646 5898646 5898650 5898655 5898655
10727228 5900428 5900429 5900437 5900437 5900441 5900519 5900519
10734011 0 5928658 5928666 5928666 5928670 5928671 5928677
10734268 0 5929720 5929728 5929728 5929732 5929839 5929845
10736214 5936587 5936587 5936595 5936595 5936600 5936822 5936838
10738015 0 5943107 5943115 5943115 5943119 5943180 5943186
10738039 5943182 5943182 5943190 5943190 5943195 5943341 5943357
10738556 5945190 5945190 5945198 5945198 5945203 5945317 5945333
10744375 5968022 5968023 5968031 5968031 5968035 5968036 5968052
10748477 0 5983780 5983785 5983788 5983793 5983802 5983808
10820366 0 6277330 6277338 6277338 6277342 6277343 6277349
10880905 6529756 6529757 6529765 6529765 6529769 6529770 6529786
10931855 6738791 6738792 6738844 6738844 6738848 6738849 6738865
10932146 0 6739871 6739878 6739878 6739883 6739943 6739949
10933493 0 6742642 6742648 6742649 6742654 6742686 6742692
10979080 0 6884288 6884296 6884296 6884300 6884301 6884307
10979547 0 6885750 6885827 6885827 6885832 6886339 6886345
10979554 6885756 6885757 6885809 6885827 6885833 6886360 6886376
10979861 6886762 6886763 6886771 6886771 6886775 6887058 6887064
10979877 6886859 6886859 6886995 6886995 6887000 6887155 6887161
10979915 6887005 6887006 6887014 6887014 6887018 6887331 6887337
10979928 6887065 6887066 6887285 6887285 6887289 6887339 6887345
10979941 6887156 6887157 6887285 6887285 6887291 6887423 6887429
10979964 0 6887346 6887348 6887348 6887353 6887507 6887513
10979977 0 6887431 6887439 6887439 6887443 6887556 6887563
10979990 0 6887444 6887452 6887452 6887456 6887598 6887605
10980003 0 6887509 6887514 6887517 6887521 6887613 6887619
10980039 0 6887614 6887615 6887615 6887620 6887711 6887717
10980077 0 6887713 6887721 6887721 6887725 6887826 6887832
10980090 0 6887793 6887798 6887801 6887805 6887834 6887840
10980103 0 6887829 6887837 6887837 6887841 6887858 6887865
10980151 0 6887939 6887947 6887947 6887951 6888040 6888046
10980177 0 6888048 6888053 6888056 6888060 6888068 6888074
10980374 0 6888771 6888779 6888779 6888783 6888784 6888790
10980387 0 6888792 6888797 6888800 6888804 6888835 6888842
10980609 0 6889488 6889493 6889496 6889500 6889557 6889564
10997694 6948643 6948644 6948652 6948652 6948656 6948691 6948697
10997941 0 6949648 6949700 6949700 6949704 6949754 6949760
10998476 0 6951298 6951347 6951347 6951351 6951387 6951393
10998650 0 6952272 6952321 6952321 6952325 6952345 6952351
10998711 0 6952359 6952428 6952429 6952439 6952505 6952511
10998730 0 6952399 6952641 6952641 6952647 6952652 6952718
10998818 6952728 6952729 6952947 6952947 6952952 6953006 6953012
10999075 6953864 6953864 6953869 6953869 6953874 6954066 6954082
10999481 6955414 6955414 6955419 6955636 6955641 6955750 6955766
10999527 6955452 6955452 6955460 6955636 6955648 6955797 6955813
10999684 6956150 6956151 6956157 6956157 6956163 6956271 6956287
10999960 0 6957174 6957202 6957218 6957228 6957246 6957257
11000010 0 6957287 6957295 6957297 6957305 6957370 6957386
11000111 0 6957391 6957443 6957443 6957448 6957610 6957616
11000182 6957650 6957651 6957659 6957834 6957846 6957876 6957876
11000270 0 6958136 6958188 6958246 6958252 6958465 6958471
11000304 6958381 6958381 6958430 6958430 6958434 6958593 6958599
11000548 6959689 6959690 6959698 6959698 6959702 6959743 6959750
11000580 0 6959738 6959771 6959771 6959780 6959784 6959790
11000611 0 6959829 6959881 6959881 6959886 6959922 6959928
11000945 0 6961398 6961447 6961447 6961451 6961466 6961472
11000987 6961648 6961649 6961701 6961701 6961705 6961738 6961738
11001033 6961921 6961921 6961929 6961929 6961934 6962039 6962045
11001254 0 6963336 6963344 6963344 6963349 6963463 6963469
11001299 0 6963510 6963517 6963517 6963522 6963604 6963610
11001371 6964170 6964170 6964392 6964392 6964397 6964506 6964522
11001376 6964537 6964538 6964760 6964760 6964764 6964765 6964771
11001587 6965620 6965621 6965622 6965622 6965628 6965648 6965655
11001609 6965656 6965657 6965665 6965665 6965669 6965691 6965691
11001631 6965694 6965695 6965698 6965701 6965707 6965734 6965734
11001642 6965703 6965703 6965755 6965755 6965760 6965852 6965868
11001743 0 6966133 6966141 6966141 6966145 6966253 6966259
11001773 6966142 6966143 6966149 6966149 6966155 6966372 6966388
11001815 0 6966255 6966263 6966263 6966267 6966523 6966529
11002006 0 6966809 6966817 6966817 6966821 6966918 6966934
11001987 0 6966800 6966804 6966807 6966813 6966964 6966970
11002094 0 6966939 6966943 6966946 6966951 6967311 6967317
11002757 6968664 6968664 6968669 6968672 6968677 6968851 6968867
11003903 6972007 6972008 6972016 6972016 6972020 6972064 6972071
11003966 0 6972087 6972095 6972095 6972100 6972159 6972165
11004365 6973648 6973649 6973657 6973657 6973661 6973742 6973758
11004599 6974302 6974302 6974308 6974310 6974315 6974420 6974436
11004610 0 6974369 6974374 6974374 6974379 6974438 6974444
11004654 0 6974485 6974492 6974492 6974497 6974579 6974585
11004687 6974585 6974585 6974590 6974593 6974598 6974702 6974718
11004726 6974775 6974775 6974783 6974783 6974788 6974901 6974917
11004929 0 6975706 6975714 6975714 6975718 6975747 6975753
11004946 6975754 6975755 6975763 6975763 6975767 6975768 6975784
11004951 0 6975790 6975794 6975794 6975798 6975818 6975824
11005324 0 6977117 6977121 6977124 6977130 6977155 6977161
11006094 6978757 6978757 6978762 6978765 6978770 6979012 6979028
11008024 6984819 6984819 6984824 6984827 6984832 6984965 6984981
11008686 0 6987689 6987696 6987696 6987701 6987721 6987727
11025528 0 7038240 7038245 7038248 7038252 7038406 7038412
11025675 0 7038797 7038802 7038805 7038809 7038860 7038866
11034828 7065593 7065594 7065602 7065602 7065606 7065687 7065703
11034851 0 7065705 7065713 7065713 7065718 7065830 7065836
11035122 0 7066605 7066612 7066612 7066617 7066642 7066648
11037750 7074801 7074802 7074810 7074810 7074814 7074815 7074831
11038908 0 7078243 7078251 7078251 7078255 7078263 7078270
11038915 0 7078252 7078260 7078260 7078264 7078272 7078278
11039016 7078624 7078625 7078964 7078964 7078968 7078969 7078985
11039047 7078834 7078834 7078883 7078964 7078973 7079055 7079071
11039059 7078975 7078975 7078980 7078983 7078988 7079140 7079156
11039093 7079157 7079158 7079728 7079728 7079732 7079733 7079749
11039124 7079751 7079751 7079759 7079759 7079764 7079840 7079856
11039156 7079906 7079906 7079914 7079914 7079919 7079974 7079990
11039216 0 7080284 7080289 7080302 7080307 7080320 7080326
11039295 0 7080415 7080423 7080423 7080427 7080697 7080703
11039566 7081735 7081736 7081744 7081744 7081748 7081781 7081787
11081934 0 7156839 7156847 7156847 7156851 7156875 7156881
11089294 7183022 7183023 7183072 7183072 7183077 7183179 7183185
11089302 0 7183073 7183150 7183150 7183155 7183221 7183227
11089423 0 7183408 7183457 7183457 7183461 7183757 7183763
11090039 0 7185010 7185018 7185018 7185022 7185480 7185486
11090107 0 7185488 7185496 7185496 7185500 7185886 7185892
11090209 0 7185949 7185957 7185957 7185961 7186223 7186229
11090320 0 7186304 7186312 7186312 7186316 7186496 7186502
11090406 0 7186577 7186585 7186585 7186589 7186663 7186669
11090448 0 7186674 7186679 7186679 7186684 7186792 7186798
11090642 0 7187235 7187243 7187243 7187247 7187347 7187353
11090709 0 7187453 7187456 7187459 7187464 7187601 7187607
11090817 0 7188055 7188063 7188063 7188067 7188085 7188091
11091179 0 7189627 7189635 7189635 7189639 7189640 7189646
11091583 0 7190940 7190947 7190947 7190952 7190971 7190977
11092209 0 7193348 7193356 7193356 7193360 7193361 7193367
11092424 0 7194204 7194212 7194212 7194216 7194280 7194286
11093306 0 7197431 7197439 7197439 7197443 7197444 7197450
11093522 0 7198569 7198577 7198577 7198581 7198582 7198588
11096504 0 7209116 7209123 7209123 7209128 7209147 7209153
11096865 7210532 7210532 7210564 7210564 7210569 7210683 7210699
11096945 0 7210757 7210765 7210765 7210769 7210770 7210776
11097486 0 7212762 7212767 7212770 7212775 7212981 7212987
11097572 0 7212989 7212997 7212997 7213001 7213171 7213177
11098747 0 7216903 7216910 7216910 7216915 7217008 7217014
11100688 0 7223267 7223275 7223275 7223280 7223435 7223441
11104345 0 7235761 7235769 7235769 7235773 7235853 7235859
11108643 7251918 7251918 7251926 7251926 7251931 7252040 7252056
11108703 0 7252370 7252377 7252377 7252382 7252438 7252444
11112690 0 7255615 7255621 7255621 7255626 7255699 7255705
11141786 7332501 7332501 7332550 7332550 7332555 7332697 7332703
11142028 0 7333299 7333307 7333307 7333312 7333456 7333462
11142192 0 7333914 7334136 7334136 7334140 7334173 7334179
11145744 0 7343673 7343681 7343681 7343685 7343916 7343922
11145974 0 7344390 7344398 7344398 7344402 7344421 7344427
11146099 0 7344714 7344722 7344722 7344726 7344727 7344733
11146541 0 7345888 7345896 7345896 7345901 7346032 7346038
11148739 0 7351577 7351585 7351585 7351589 7351604 7351610
11148837 0 7351783 7351791 7351791 7351795 7351814 7351820
11170076 0 7414766 7414774 7414774 7414778 7414809 7414815
11175141 0 7427613 7427621 7427621 7427625 7427867 7427873
11176624 0 7431042 7431050 7431050 7431054 7431542 7431548
11240239 0 7609405 7609413 7609413 7609417 7609517 7609523
11240558 0 7610115 7610123 7610123 7610127 7610231 7610237
11714617 0 8976007 8976013 8976013 8976017 8976042 8976048
11714644 0 8976053 8976099 8976099 8976103 8976123 8976129
11714878 8976330 8976331 8976339 8976339 8976343 8976602 8976608
11714887 8976605 8976606 8976658 8976658 8976662 8976680 8976696
11715549 8978750 8978750 8978799 8978802 8978807 8978893 8978909
11715555 8978961 8978962 8978970 8978970 8978974 8978975 8978981
11715571 8979293 8979294 8979346 8979346 8979350 8979368 8979384
11715888 0 8979558 8979566 8979566 8979570 8979700 8979706
11715964 0 8980033 8980038 8980041 8980045 8980119 8980125
11716131 0 8981000 8981005 8981008 8981012 8981021 8981027
11718248 8987959 8987959 8988033 8988033 8988038 8988146 8988162
11718325 0 8988175 8988183 8988183 8988187 8988295 8988301
11720744 0 8996646 8996654 8996654 8996658 8996659 8996665
11722282 0 9004287 9004295 9004295 9004299 9004373 9004379
11722323 0 9004378 9004385 9004385 9004390 9004508 9004514
11732654 0 9026473 9026481 9026485 9026490 9026616 9026622
11732729 0 9026752 9026760 9026760 9026764 9026858 9026864
11732884 0 9027271 9027279 9027279 9027283 9027431 9027437
11752952 0 9094197 9094205 9094205 9094210 9094280 9094286
11759189 0 9110880 9110888 9110888 9110892 9111040 9111046
11759531 0 9111873 9111880 9111880 9111885 9112071 9112077
11779952 0 9167390 9167395 9167395 9167402 9167449 9167465
12018110 9790541 9790542 9790549 9790549 9790554 9790752 9790768
Cycle: 10000000 FTQ IN: 12096794 FTQ occupancy: 8.93879 DECODE IN: 12096784 DECODE occupancy: 22.7521 ROB IN: 12096784 ROB occupancy: 163.278 ROB OUT: 12096784
12351742 0 10648978 10648986 10648986 10648990 10648991 10648997
12352230 10653660 10653661 10653880 10653880 10653884 10653885 10653891
12353168 10660235 10660236 10660239 10660242 10660248 10660322 10660329
12354127 0 10666080 10666088 10666088 10666092 10666093 10666099
12354784 0 10670257 10670265 10670265 10670269 10670270 10670276
12355763 0 10675442 10675450 10675450 10675454 10675455 10675461
12356386 0 10679054 10679062 10679062 10679066 10679067 10679073
12356770 0 10681563 10681568 10681571 10681575 10681584 10681590
12356950 0 10682712 10682719 10682719 10682724 10682823 10682830
12357817 0 10688090 10688098 10688098 10688102 10688103 10688109
12358309 0 10690781 10690789 10690789 10690793 10690794 10690800
12358338 0 10690959 10690967 10690967 10690971 10690972 10690978
12358859 0 10693745 10693753 10693753 10693757 10693758 10693764
12358869 0 10693831 10693839 10693839 10693843 10693852 10693858
12362660 0 10714413 10714421 10714421 10714425 10714445 10714451
12367355 0 10739107 10739115 10739115 10739119 10739120 10739126
12368971 0 10747140 10747148 10747148 10747152 10747217 10747223
12370470 0 10755319 10755325 10755325 10755331 10755554 10755561
12421332 0 11023512 11023520 11023520 11023524 11023586 11023592
12421618 0 11024281 11024339 11024339 11024344 11024419 11024425
12421988 11025264 11025265 11025273 11025273 11025277 11025591 11025597
12422009 11025363 11025364 11025416 11025496 11025502 11025876 11025892
12422013 11025367 11025368 11025496 11025496 11025503 11025894 11025910
12422017 0 11025502 11025507 11025510 11025514 11025911 11025917
12422044 11025585 11025585 11025591 11025591 11025596 11025980 11025996
12422076 11025859 11025859 11025867 11025867 11025872 11026046 11026046
12422096 0 11025903 11025911 11025911 11025916 11026160 11026166
12422136 0 11025958 11025966 11025966 11025970 11026192 11026198
12422473 11027196 11027197 11027475 11027475 11027482 11027735 11027741
12422491 0 11027327 11027327 11027475 11027491 11027827 11027833
12422688 0 11028027 11028032 11028035 11028040 11028377 11028383
12422704 0 11028031 11028037 11028037 11028043 11028419 11028425
12464207 11101523 11101523 11101528 11101531 11101536 11101660 11101676
12472025 11128743 11128743 11129060 11129060 11129066 11129086 11129092
12472565 11130494 11130495 11130503 11130666 11130672 11130752 11130758
12472661 11131491 11131492 11131500 11131500 11131504 11131505 11131511
12473067 11132173 11132173 11132181 11132181 11132186 11132233 11132239
12473275 11133234 11133235 11133457 11133457 11133461 11133462 11133468
12473805 11134419 11134420 11134426 11134426 11134432 11134472 11134488
12473808 11134422 11134423 11134431 11134431 11134435 11134489 11134495
12473850 11134489 11134490 11134498 11134498 11134502 11134542 11134548
12473910 0 11134582 11134590 11134665 11134672 11134755 11134761
12474030 0 11134847 11134855 11134855 11134859 11134921 11134927
12474072 0 11134893 11134901 11134901 11134905 11134959 11134965
12474114 0 11134931 11134939 11134939 11134943 11134997 11135003
12474174 0 11134999 11135007 11135007 11135011 11135108 11135114
12474294 0 11135239 11135247 11135247 11135251 11135276 11135282
12474336 0 11135277 11135285 11135285 11135289 11135314 11135320
12474378 0 11135315 11135323 11135323 11135327 11135352 11135358
12474642 0 11135634 11135642 11135642 11135646 11135709 11135715
12474702 0 11135715 11135723 11135723 11135727 11135820 11135826
12487730 0 11153879 11153887 11153887 11153891 11153918 11153934
12488305 11154627 11154628 11154635 11154635 11154640 11154761 11154777
12491724 0 11159678 11159686 11159686 11159690 11159747 11159753
12502023 0 11177258 11177266 11177266 11177270 11177319 11177325
12502552 0 11178283 11178291 11178291 11178295 11178296 11178302
12509611 0 11190931 11190939 11190939 11190943 11190944 11190950
12515061 11199611 11199612 11199620 11199620 11199624 11199625 11199631
12515088 11200104 11200105 11200224 11200224 11200228 11200229 11200235
12520932 11235289 11235290 11235298 11235298 11235302 11235303 11235309
12567023 11393583 11393584 11393592 11393592 11393596 11393629 11393645
12567108 11395559 11395560 11395568 11395568 11395572 11395573 11395579
12567215 11396274 11396275 11396283 11396283 11396287 11396361 11396367
12567298 11396747 11396747 11396932 11396932 11396936 11396955 11396961
12568164 11399872 11399872 11399879 11399879 11399885 11399998 11400014
12568169 0 11400016 11400024 11400024 11400028 11400029 11400035
12568478 11401205 11401205 11401212 11401212 11401218 11401332 11401348
12568739 0 11402362 11402370 11402370 11402374 11402380 11402386
12568873 11402688 11402688 11402695 11402695 11402701 11402863 11402879
12568878 0 11402881 11402889 11402889 11402893 11402894 11402900
12569294 11404216 11404216 11404223 11404223 11404229 11404340 11404356
12569512 11405607 11405608 11405830 11405830 11405834 11405835 11405841
12569815 11407914 11407915 11407923 11407923 11407927 11407986 11407992
12569905 0 11408481 11408489 11408489 11408493 11408499 11408505
12570012 0 11408859 11408867 11408867 11408871 11408872 11408878
12570095 0 11409197 11409205 11409205 11409209 11409210 11409216
12570389 0 11409988 11409993 11409996 11410000 11410265 11410271
12570617 11410619 11410619 11410626 11410626 11410632 11410741 11410757
12571059 0 11412260 11412268 11412268 11412272 11412277 11412283
12571205 11412473 11412473 11412480 11412480 11412486 11412597 11412613
12572743 0 11418880 11418888 11418888 11418892 11419110 11419116
12573648 0 11422631 11422639 11422639 11422643 11422676 11422682
12573880 0 11423627 11423635 11423635 11423640 11423955 11423961
12575253 0 11428106 11428114 11428114 11428118 11428235 11428251
12576418 0 11431290 11431298 11431298 11431302 11431390 11431396
12581910 0 11448443 11448451 11448451 11448455 11448567 11448573
12584084 0 11456932 11456940 11456940 11456944 11456945 11456951
12589046 0 11471196 11471204 11471204 11471208 11471312 11471318
12607470 0 11525274 11525282 11525282 11525286 11525287 11525293
12639367 0 11621767 11621775 11621775 11621779 11621780 11621796
12647166 0 11640369 11640377 11640377 11640381 11640382 11640388
12647271 11640496 11640497 11640503 11640503 11640509 11640586 11640602
12647641 0 11642187 11642195 11642195 11642199 11642306 11642312
12664844 11700514 11700515 11700523 11700523 11700527 11700528 11700534
12706613 0 11829479 11829487 11829487 11829491 11829635 11829651
12739362 0 11939754 11939762 11939762 11939766 11939767 11939773
12760186 0 11995448 11995453 11995456 11995460 11995469 11995475
12792412 0 12090405 12090413 12090413 12090417 12090448 12090464
12980238 0 12622934 12622942 12622942 12622946 12622947 12622953
12982678 12633178 12633179 12633187 12633187 12633191 12633192 12633198
12982732 0 12633541 12633549 12633549 12633553 12633714 12633720
12982773 0 12633726 12633733 12633771 12633776 12633848 12633854
12993327 0 12656748 12656756 12656756 12656760 12656781 12656787
12993486 0 12657023 12657031 12657031 12657035 12657136 12657142
12995432 12662431 12662431 12662648 12662648 12662653 12662662 12662893
12996802 0 12669450 12669458 12669458 12669462 12669463 12669469
12999852 0 12677885 12677893 12677893 12677897 12677898 12677904
13015045 12712599 12712600 12712605 12712644 12712651 12712715 12712731
13015070 12712715 12712715 12712936 12712936 12712943 12713058 12713064
13015113 12713065 12713066 12713074 12713074 12713078 12713096 12713102
13015466 12714030 12714031 12714253 12714253 12714257 12714258 12714264
13015494 12714517 12714518 12714740 12714740 12714744 12714791 12714807
13015497 12714808 12714809 12714817 12714817 12714821 12714822 12714828
13016550 12718962 12718963 12718971 12718971 12718975 12718976 12718982
13017480 0 12721148 12721155 12721155 12721161 12721394 12721400
13017852 0 12721947 12721955 12721955 12721959 12721964 12721970
13017880 12721979 12721980 12721988 12721988 12721992 12722038 12722054
13017883 0 12721984 12721992 12721992 12721996 12722055 12722061
13018205 12722667 12722668 12722670 12722670 12722677 12722680 12722688
13019382 0 12725324 12725332 12725332 12725336 12725785 12725791
13019460 0 12725759 12725764 12725767 12725772 12726130 12726136
13019573 12726330 12726331 12726339 12726339 12726343 12726393 12726409
13019576 0 12726342 12726350 12726350 12726354 12726410 12726416
13020210 12727613 12727614 12727616 12727616 12727623 12727626 12727643
13020895 0 12729772 12729780 12729780 12729784 12729785 12729792
13021523 12731217 12731218 12731223 12731226 12731230 12731272 12731288
13021526 0 12731240 12731248 12731248 12731252 12731289 12731295
13023492 12737064 12737065 12737070 12737073 12737077 12737119 12737135
13023495 0 12737137 12737145 12737145 12737149 12737150 12737156
13025101 0 12742083 12742090 12742090 12742096 12742261 12742267
13025120 0 12742314 12742322 12742322 12742326 12742327 12742333
13038739 12776280 12776281 12776289 12776289 12776293 12776336 12776352
13040625 12780850 12780851 12780859 12780859 12780863 12780908 12780924
13040628 0 12780871 12780879 12780879 12780883 12780925 12780931
13053588 0 12814818 12814826 12814826 12814830 12814884 12814890
13088372 0 12902172 12902180 12902180 12902184 12902198 12902204
13100678 12934022 12934023 12934031 12934031 12934035 12934036 12934052
13103335 0 12939282 12939290 12939290 12939294 12939295 12939301
13122692 0 12987898 12987906 12987906 12987910 12987941 12987947
13145055 0 13046035 13046043 13046043 13046047 13046048 13046054
13171459 13113495 13113496 13113504 13113504 13113508 13113509 13113525
13218686 0 13228322 13228330 13228330 13228334 13228340 13228346
13331873 13516916 13516917 13516925 13516925 13516929 13516930 13516946
13424711 13755094 13755094 13755099 13755099 13755104 13755213 13755229
13939653 15082274 15082274 15082393 15082393 15082397 15082449 15082465
13939657 15082281 15082282 15082290 15082393 15082398 15082466 15082472
13939676 0 15082474 15082479 15082479 15082484 15082515 15082521
13939819 15082868 15082868 15082876 15082876 15082881 15082970 15082987
13939871 15083286 15083286 15083444 15083444 15083450 15083507 15083513
13940073 15084752 15084753 15084761 15084761 15084765 15084871 15084877
13940550 15087243 15087244 15087252 15087252 15087256 15087257 15087263
13940695 15087728 15087728 15087735 15087735 15087741 15087793 15087809
13941441 0 15089462 15089470 15089470 15089474 15089479 15089485
13944085 0 15097651 15097658 15097658 15097663 15097687 15097693
13946065 0 15102234 15102242 15102242 15102246 15102247 15102253
13946783 0 15103262 15103270 15103270 15103274 15103281 15103287
13949130 0 15108143 15108151 15108151 15108155 15108162 15108168
13961459 0 15133036 15133044 15133044 15133048 15133135 15133141
13965036 0 15139755 15139763 15139763 15139767 15139776 15139782
13994720 0 15206298 15206306 15206306 15206310 15206330 15206336
14021568 0 15262187 15262195 15262195 15262200 15262268 15262274
14111648 15441723 15441724 15441732 15441732 15441736 15441789 15441789
14213877 0 15637147 15637155 15637155 15637159 15637160 15637166
14450515 0 16098145 16098153 16098153 16098157 16098177 16098183
14517389 0 16240297 16240304 16240304 16240309 16240339 16240345
14595690 0 16396264 16396272 16396272 16396276 16396277 16396283
14595709 0 16396343 16396348 16396351 16396355 16396356 16396362
14724284 16655282 16655282 16655287 16655290 16655295 16655419 16655435
14724288 16655760 16655761 16655769 16655769 16655773 16655774 16655780
14724491 16656362 16656363 16656371 16656371 16656375 16656414 16656420
14724539 16656489 16656490 16656498 16656498 16656502 16656543 16656549
14724614 16657638 16657638 16657645 16657645 16657649 16657658 16657664
14724633 16657902 16657903 16657911 16657911 16657915 16657967 16657973
14724937 16660946 16660947 16660955 16660955 16660959 16660982 16660988
14724969 16661210 16661210 16661260 16661260 16661264 16661316 16661332
14725293 0 16664780 16664788 16664788 16664792 16664812 16664818
14725353 0 16665119 16665125 16665125 16665130 16665166 16665172
14725409 16665468 16665469 16665477 16665477 16665481 16665540 16665556
14725487 0 16666031 16666039 16666039 16666043 16666044 16666050
14725692 16667148 16667149 16667157 16667157 16667161 16667213 16667229
14725763 16667434 16667435 16667443 16667443 16667447 16667520 16667536
14725828 16667777 16667778 16667786 16667786 16667790 16667876 16667892
14725878 0 16668203 16668211 16668211 16668215 16668216 16668222
14725916 0 16668331 16668337 16668337 16668342 16668378 16668384
14726268 0 16670341 16670349 16670349 16670353 16670354 16670360
14726332 0 16670579 16670587 16670587 16670591 16670661 16670667
14726392 0 16670886 16670892 16670892 16670897 16670933 16670939
14726448 16671121 16671122 16671130 16671130 16671134 16671193 16671209
14726808 0 16672871 16672873 16672878 16672883 16672937 16672943
14726924 16673383 16673384 16673392 16673392 16673396 16673455 16673471
14727296 0 16675549 16675553 16675553 16675560 16675644 16675650
14727328 16675661 16675661 16675667 16675667 16675672 16675727 16675743
14733006 0 16700636 16700644 16700644 16700648 16700649 16700655
14733402 16702497 16702498 16702506 16702506 16702510 16702564 16702580
14733429 0 16702550 16702558 16702558 16702562 16702630 16702636
14733525 16702734 16702735 16702743 16702743 16702747 16702925 16702941
14733988 0 16704505 16704509 16704511 16704517 16704648 16704654
14734043 16704666 16704667 16704675 16704675 16704679 16704901 16704917
14734513 16706858 16706859 16706867 16706867 16706871 16706928 16706944
14735475 0 16711162 16711170 16711170 16711174 16711175 16711181
14735605 0 16711672 16711676 16711676 16711683 16711792 16711798
14737138 0 16718400 16718408 16718408 16718412 16718421 16718427
14739175 16727028 16727028 16727036 16727036 16727041 16727133 16727149
14741704 0 16738672 16738680 16738680 16738684 16738693 16738699
14746458 0 16759185 16759193 16759193 16759197 16759206 16759212
14746896 0 16760159 16760211 16760211 16760215 16760216 16760222
14747087 16760445 16760445 16760453 16760453 16760458 16760656 16760672
14747496 16761956 16761956 16761964 16761964 16761969 16762233 16762249
14754847 16792878 16792878 16792886 16792886 16792891 16792983 16792999
14767785 0 16846955 16846963 16846963 16846967 16846979 16846985
14791940 0 16948191 16948199 16948199 16948203 16948219 16948225
14814280 0 17038391 17038398 17038398 17038402 17038411 17038417
14835992 0 17131294 17131302 17131302 17131306 17131322 17131328
14836279 0 17131541 17131549 17131549 17131553 17131554 17131560
14874056 17284111 17284111 17284119 17284119 17284124 17284216 17284232
14948896 17601105 17601105 17601113 17601113 17601118 17601299 17601315
14948977 17601774 17601775 17601780 17601780 17601784 17601836 17601852
15065038 18176009 18176010 18176232 18176232 18176236 18176254 18176260
15065040 18176261 18176262 18176484 18176484 18176488 18176496 18176502
15104242 18272671 18272671 18272676 18272679 18272684 18272735 18272751
15104246 18272701 18272702 18272710 18272710 18272714 18272802 18272808
15104406 18273666 18273667 18273889 18273889 18273893 18273933 18273939
15106246 18281876 18281877 18281885 18281885 18281889 18281946 18281962
15106297 0 18282246 18282254 18282254 18282258 18282259 18282265
15106342 18282463 18282464 18282472 18282472 18282476 18282528 18282544
15106393 0 18282598 18282605 18282605 18282610 18282675 18282681
15106489 18282893 18282894 18282902 18282902 18282906 18282949 18282965
15106540 0 18283213 18283221 18283221 18283225 18283226 18283232
15106722 18284050 18284051 18284059 18284059 18284063 18284120 18284136
15106773 0 18284389 18284397 18284397 18284401 18284402 18284408
15107941 18288421 18288422 18288430 18288430 18288434 18288487 18288503
15108206 0 18289631 18289639 18289639 18289643 18289644 18289650
15108299 0 18289939 18289946 18289946 18289951 18289971 18289977
15108414 18290593 18290594 18290602 18290602 18290606 18290616 18290622
15110487 0 18298576 18298580 18298583 18298589 18298640 18298646
15110662 0 18299344 18299351 18299351 18299357 18299400 18299406
15110765 0 18299903 18299911 18299911 18299915 18299916 18299922
15111848 18304045 18304046 18304054 18304054 18304058 18304114 18304130
15112298 0 18305885 18305893 18305893 18305897 18305898 18305904
15112444 18306347 18306348 18306356 18306356 18306360 18306413 18306429
15114439 0 18313812 18313816 18313819 18313825 18313876 18313882
15117485 0 18323833 18323837 18323839 18323845 18323901 18323907
15118295 18326986 18326987 18326995 18326995 18326999 18327054 18327070
15118336 0 18327156 18327164 18327164 18327168 18327188 18327194
15130238 18367526 18367527 18367535 18367535 18367539 18367596 18367612
15141392 18406855 18406856 18406864 18406864 18406868 18406920 18406936
15167296 18496993 18496993 18497001 18497001 18497006 18497024 18497040
15168008 0 18499921 18499928 18499928 18499933 18499955 18499971
15168125 0 18500109 18500115 18500115 18500120 18500153 18500169
15168451 0 18500500 18500508 18500508 18500512 18500651 18500657
15168753 18501665 18501665 18501673 18501673 18501678 18501787 18501803
15168790 0 18502025 18502033 18502033 18502037 18502056 18502072
15168916 0 18502378 18502384 18502384 18502389 18502403 18502419
15171075 0 18506836 18506843 18506843 18506848 18506866 18506882
15171218 0 18507445 18507451 18507451 18507456 18507470 18507486
15172856 0 18511297 18511349 18511349 18511353 18511424 18511430
15173168 18512194 18512195 18512203 18512203 18512207 18512447 18512453
15173202 18513147 18513147 18513197 18513197 18513202 18513253 18513269
15173254 0 18513524 18513532 18513567 18513573 18513619 18513625
15173294 0 18513704 18513712 18513712 18513716 18513811 18513817
15173325 18513719 18513719 18513771 18513771 18513776 18513949 18513965
15173633 18514666 18514667 18514716 18514719 18514723 18514745 18514752
15216596 0 18595892 18595944 18595944 18595948 18596072 18596078
15219257 0 18604656 18604663 18604663 18604668 18605510 18605516
15223320 0 18620181 18620230 18620230 18620234 18620569 18620575
15223506 0 18620739 18620744 18620744 18620749 18621594 18621600
15223644 0 18621603 18621610 18621610 18621615 18621658 18621664
15223839 0 18622008 18622016 18622016 18622021 18622251 18622257
15224311 18623779 18623780 18623788 18623788 18623792 18624042 18624058
15224636 0 18625488 18625537 18625537 18625541 18625549 18625555
15224959 0 18626887 18626893 18626939 18626943 18626963 18626969
15228486 0 18638439 18638447 18638447 18638451 18638471 18638477
15238353 0 18671784 18671789 18671792 18671796 18671859 18671865
15245387 0 18692356 18692364 18692364 18692369 18692432 18692438
15266021 0 18753722 18753727 18753730 18753734 18753804 18753810
15294949 0 18845458 18845466 18845466 18845470 18845490 18845496
15310485 0 18897288 18897296 18897296 18897300 18897301 18897307
15444259 0 19312074 19312078 19312078 19312083 19312236 19312242
15487836 0 19442039 19442047 19442047 19442051 19442052 19442058
15487853 19442059 19442060 19442068 19442094 19442100 19442157 19442173
15491897 0 19454725 19454731 19454731 19454736 19454762 19454768
15491914 19454835 19454836 19454844 19454844 19454848 19454890 19454906
15525634 19559011 19559012 19559020 19559020 19559024 19559066 19559082
15529720 0 19571533 19571539 19571539 19571544 19571570 19571576
15561576 0 19668912 19668920 19668920 19668925 19668945 19668951
15561606 19668952 19668953 19668961 19668961 19668965 19669022 19669038
15562616 0 19671548 19671556 19671556 19671561 19671616 19671622
15565652 19680642 19680643 19680651 19680651 19680655 19680697 19680713
15605555 19788040 19788041 19788263 19788263 19788267 19788268 19788274
15605559 19788275 19788276 19788826 19788826 19788830 19788852 19788858
15605594 19789479 19789480 19789702 19789702 19789706 19789707 19789713
15605803 19790077 19790078 19790085 19790085 19790090 19790203 19790219
15617479 19819362 19819362 19819369 19819408 19819416 19819528 19819544
15624940 19824137 19824138 19824146 19824146 19824150 19824159 19824165
15624942 19824159 19824160 19824529 19824529 19824533 19824534 19824550
15624966 0 19824596 19824602 19824602 19824608 19824671 19824677
15628732 19834183 19834184 19834192 19834192 19834196 19834214 19834230
15628835 19835240 19835241 19835249 19835249 19835351 19835369 19835385
15629313 19840916 19840917 19840920 19840923 19840929 19840951 19840967
15630795 19851645 19851646 19851652 19851652 19851658 19851711 19851727
15631399 0 19854251 19854256 19854259 19854263 19854264 19854270
15650690 0 19972700 19972705 19972708 19972712 19972713 19972719
Cycle: 20000000 FTQ IN: 3558078 FTQ occupancy: 1.1605 DECODE IN: 3558088 DECODE occupancy: 3.10449 ROB IN: 3558088 ROB occupancy: 51.5904 ROB OUT: 3558042
15698166 20217358 20217359 20217367 20217367 20217371 20217372 20217378
15698612 0 20220983 20220991 20220991 20220995 20220996 20221062
15698664 20221570 20221570 20221792 20221792 20221797 20221872 20221888
15699066 20226154 20226155 20226163 20226163 20226167 20226284 20226300
15699079 20226325 20226326 20226333 20226333 20226338 20226447 20226463
15699091 20226714 20226715 20226723 20226723 20226727 20226813 20226829
15699093 20226830 20226831 20226839 20226839 20226843 20226844 20226850
15699498 20230744 20230745 20230862 20230862 20230867 20230875 20230881
15699613 20231759 20231760 20231767 20231767 20231772 20231885 20231901
15699751 0 20232224 20232232 20232232 20232236 20232354 20232360
15700038 20233330 20233331 20233338 20233338 20233343 20233452 20233468
15700053 20233609 20233610 20233829 20233829 20233833 20233834 20233840
15700124 20234497 20234497 20234549 20234549 20234554 20234693 20234709
15700202 20235080 20235081 20235300 20235300 20235304 20235312 20235328
15700233 0 20235334 20235341 20235341 20235346 20235517 20235524
15700495 20236264 20236265 20236273 20236273 20236277 20236278 20236409
15700731 0 20237275 20237284 20237284 20237288 20237294 20237300
15701029 20238125 20238126 20238131 20238131 20238136 20238325 20238341
15701639 0 20240945 20240953 20240953 20240957 20240961 20240967
15701692 0 20241201 20241209 20241209 20241213 20241221 20241227
15702327 20243473 20243474 20243480 20243480 20243486 20243954 20243970
15702342 0 20243972 20243977 20243980 20243984 20244092 20244098
15702413 20244106 20244106 20244114 20244114 20244119 20244336 20244352
15702552 20244578 20244578 20244586 20244796 20244803 20244916 20244932
15702762 0 20245955 20245959 20245962 20245968 20246099 20246106
15703024 20246356 20246356 20246362 20246362 20246369 20246481 20246497
15704871 0 20253161 20253166 20253169 20253173 20253194 20253200
15704942 20253202 20253202 20253210 20253210 20253215 20253419 20253435
15705081 20253525 20253525 20253533 20253533 20253538 20253667 20253683
15705303 0 20254748 20254755 20254755 20254760 20254983 20254990
15705498 0 20255439 20255447 20255447 20255451 20255468 20255474
15705678 20256468 20256469 20256477 20256477 20256481 20256482 20256498
15706032 20258040 20258040 20258092 20258092 20258097 20258103 20258109
15706121 20258822 20258822 20258871 20259044 20259049 20259055 20259091
15706163 20259993 20259993 20260212 20260215 20260220 20260301 20260317
15706183 0 20260355 20260404 20260404 20260411 20260478 20260484
15706259 20260710 20260711 20260719 20260719 20260723 20260724 20260740
15706547 0 20263110 20263118 20263322 20263329 20263353 20263359
15706636 0 20263541 20263546 20263549 20263554 20263599 20263615
15706678 20263656 20263656 20263661 20263664 20263669 20263758 20263769
15706782 20264063 20264064 20264072 20264072 20264076 20264077 20264308
15706893 0 20265955 20265963 20265963 20265967 20265968 20265974
15707297 20267769 20267769 20267775 20267775 20267782 20267836 20267852
15707586 0 20269191 20269199 20269199 20269203 20269207 20269213
15707692 20270104 20270105 20270112 20270112 20270117 20270226 20270242
15708019 0 20271288 20271296 20271296 20271301 20271307 20271313
15708108 0 20271317 20271322 20271325 20271330 20271461 20271477
15708150 20271346 20271346 20271352 20271354 20271359 20271588 20271604
15708170 0 20271606 20271611 20271614 20271619 20271725 20271731
15708291 0 20271990 20271998 20271998 20272002 20272224 20272230
15708624 0 20272677 20272682 20272685 20272690 20272861 20272877
15708770 20273260 20273261 20273268 20273268 20273273 20273280 20273298
15708867 20273738 20273738 20273746 20273746 20273751 20273860 20273876
15708876 20273901 20273902 20273910 20273910 20273914 20274000 20274016
15708922 0 20274271 20274279 20274279 20274283 20274291 20274297
15709005 20274349 20274349 20274357 20274357 20274362 20274514 20274530
15709264 0 20275637 20275645 20275645 20275649 20275650 20275656
15709418 0 20276452 20276457 20276460 20276464 20276473 20276479
15710176 0 20279104 20279112 20279112 20279116 20279162 20279168
15710387 20279358 20279359 20279363 20279363 20279369 20279703 20279719
15710442 0 20279735 20279740 20279743 20279747 20279911 20279927
15710732 20280719 20280720 20280728 20280728 20280732 20281257 20281273
15710868 20281328 20281329 20281337 20281440 20281444 20281516 20281532
15710891 0 20281555 20281563 20281758 20281763 20281815 20281821
15711850 0 20285088 20285094 20285096 20285101 20285117 20285133
15711882 20285135 20285135 20285140 20285143 20285148 20285270 20285286
15711915 0 20285407 20285415 20285415 20285420 20285526 20285532
15712104 0 20286338 20286346 20286346 20286350 20286351 20286357
15712508 20287292 20287292 20287298 20287298 20287305 20287311 20287327
15712603 20287955 20287955 20287963 20287963 20287968 20288036 20288042
15712672 20289288 20289289 20289296 20289296 20289301 20289410 20289426
15712679 20289451 20289452 20289460 20289460 20289464 20289465 20289471
15713066 20291205 20291206 20291428 20291428 20291432 20291433 20291439
15713106 0 20291494 20291552 20291552 20291556 20291578 20291584
15713203 20292178 20292179 20292398 20292398 20292402 20292403 20292409
15713236 20292555 20292556 20292778 20292778 20292782 20292783 20292789
15713537 20293772 20293773 20293781 20293781 20293785 20294238 20294244
15713579 20294260 20294261 20294470 20294470 20294476 20294512 20294518
15713644 0 20294773 20294780 20294780 20294785 20294900 20294906
15713897 20296183 20296184 20296192 20296192 20296196 20296282 20296298
15714524 0 20298128 20298136 20298136 20298140 20298247 20298253
15714982 20299319 20299319 20299327 20299327 20299332 20299509 20299525
15715037 0 20299785 20299793 20299793 20299797 20299805 20299811
15716134 0 20303570 20303578 20303578 20303583 20303589 20303595
15716223 0 20303601 20303606 20303609 20303614 20303743 20303759
15716254 20303830 20303831 20304053 20304053 20304057 20304058 20304064
15716704 20306038 20306039 20306047 20306047 20306051 20306137 20306153
15716814 0 20306220 20306225 20306228 20306233 20306422 20306438
15716845 0 20306521 20306529 20306529 20306533 20306577 20306583
15716927 0 20307240 20307248 20307248 20307253 20307259 20307265
15717513 0 20308162 20308168 20308168 20308175 20308891 20308908
15717918 20310088 20310089 20310097 20310097 20310101 20310102 20310108
15718138 20310719 20310720 20310725 20310728 20310732 20310839 20310845
15718234 20311028 20311028 20311034 20311036 20311041 20311088 20311094
15718240 0 20311096 20311104 20311104 20311108 20311130 20311136
15718643 0 20312375 20312383 20312383 20312388 20312471 20312477
15718853 0 20313115 20313123 20313123 20313127 20313234 20313240
15719312 20314229 20314230 20314237 20314237 20314242 20314552 20314568
15719700 0 20316094 20316102 20316102 20316106 20316107 20316113
15719854 0 20316216 20316221 20316224 20316228 20316452 20316459
15720612 0 20318010 20318018 20318018 20318022 20318480 20318486
15721168 20319756 20319757 20319765 20319765 20319769 20320481 20320497
15722334 0 20323086 20323092 20323094 20323128 20323875 20323891
15722365 0 20323104 20323112 20323112 20323239 20323983 20323989
15723135 0 20325474 20325482 20325482 20325487 20326266 20326272
15723494 0 20327249 20327257 20327257 20327261 20327262 20327268
15723810 0 20328234 20328239 20328242 20328247 20328320 20328326
15723816 0 20328238 20328246 20328246 20328250 20328348 20328354
15724794 20330809 20330809 20330817 20330817 20330822 20331190 20331206
15729124 20343649 20343650 20343657 20343657 20343662 20343853 20343869
15729512 0 20345246 20345254 20345254 20345258 20345259 20345265
15744904 0 20394375 20394383 20394383 20394387 20394388 20394394
15745697 0 20396698 20396706 20396706 20396710 20396717 20396723
15746772 20400460 20400460 20400468 20400468 20400473 20400597 20400613
15747135 0 20402059 20402063 20402066 20402072 20402203 20402210
15747505 0 20403548 20403553 20403556 20403561 20403630 20403636
15747721 20404350 20404350 20404358 20404358 20404363 20404438 20404454
15748469 0 20406779 20406787 20406787 20406791 20406830 20406836
15753159 20422607 20422608 20422613 20422616 20422620 20422906 20422922
15754293 20426122 20426122 20426127 20426130 20426135 20426216 20426232
15754328 20426396 20426396 20426404 20426404 20426409 20426618 20426634
15754438 0 20426823 20426831 20426831 20426835 20427148 20427154
15755590 20429248 20429248 20429256 20429256 20429261 20429336 20429352
15760804 0 20446194 20446202 20446202 20446206 20446527 20446533
15761704 20448835 20448836 20448844 20448844 20448848 20449386 20449402
15762738 20451878 20451879 20451881 20451881 20451888 20452554 20452570
15768923 20473834 20473834 20473842 20473842 20473847 20473899 20473915
15769146 0 20474788 20474796 20474796 20474800 20474913 20474919
15769547 0 20476754 20476762 20476762 20476766 20476875 20476881
15770298 20477300 20477301 20477309 20477309 20477313 20477468 20477484
15772180 0 20483009 20483014 20483017 20483021 20483128 20483134
15777837 0 20500735 20500741 20500743 20500747 20500877 20500883
15778299 0 20502249 20502257 20502257 20502261 20502289 20502295
15778363 20502464 20502465 20502473 20502473 20502477 20502533 20502549
15778391 20502670 20502671 20502678 20502678 20502683 20502792 20502808
15781452 0 20513252 20513257 20513260 20513264 20513491 20513497
15783503 20519471 20519471 20519475 20519475 20519482 20519587 20519603
15784405 20522170 20522171 20522178 20522178 20522183 20522392 20522408
15784533 0 20522508 20522516 20522516 20522520 20522761 20522767
15785770 0 20526752 20526757 20526760 20526765 20526972 20526978
15795584 20557399 20557400 20557407 20557407 20557412 20557559 20557575
15795828 20557561 20557561 20557567 20557569 20557574 20558126 20558142
15796564 0 20560253 20560261 20560261 20560265 20560695 20560701
15796662 20560610 20560611 20560618 20560618 20560623 20560942 20560958
15796676 0 20560813 20560821 20560821 20560825 20561061 20561067
15797304 0 20562987 20562995 20562995 20562999 20563140 20563146
15806253 20590262 20590262 20590268 20590268 20590275 20590277 20590293
15806299 20590310 20590311 20590530 20590530 20590534 20590535 20590541
15806390 20590578 20590579 20590587 20590587 20590591 20590592 20590623
15806852 20592355 20592355 20592363 20592363 20592368 20592474 20592480
15808646 0 20596649 20596651 20596651 20596656 20596662 20596679
15809109 0 20597737 20597745 20597745 20597750 20597976 20597982
15814094 0 20614250 20614258 20614258 20614262 20614263 20614279
15816596 0 20622521 20622529 20622529 20622533 20622634 20622640
15816866 0 20623031 20623039 20623039 20623043 20623044 20623060
15817404 0 20624392 20624400 20624400 20624405 20624630 20624636
15818892 0 20627710 20627718 20627718 20627722 20628516 20628522
15819162 0 20628527 20628535 20628535 20628540 20628810 20628826
15821028 0 20633851 20633855 20633858 20633863 20634176 20634182
15822177 20637665 20637666 20637673 20637673 20637678 20637945 20637961
15823571 20642511 20642512 20642517 20642520 20642524 20642872 20642888
15824499 0 20644280 20644284 20644287 20644293 20644460 20644467
15827984 20656288 20656289 20656297 20656297 20656301 20656590 20656606
15831846 20668895 20668896 20668903 20668903 20668908 20669021 20669037
15834785 20678808 20678809 20678816 20678816 20678821 20678969 20678985
15836072 0 20682423 20682431 20682431 20682435 20682992 20682999
15841830 0 20699349 20699357 20699357 20699362 20699403 20699419
15842167 0 20700143 20700151 20700151 20700156 20700365 20700371
15846181 0 20712127 20712135 20712135 20712140 20712246 20712252
15848198 0 20718055 20718063 20718063 20718067 20718507 20718513
15860233 0 20755700 20755708 20755708 20755713 20755719 20755725
15862490 0 20761953 20761961 20761961 20761966 20761972 20761978
15867475 0 20777941 20777949 20777949 20777953 20778202 20778219
15877880 0 20808978 20808982 20808985 20808991 20809224 20809231
15918043 20931683 20931683 20931691 20931691 20931696 20932080 20932096
15918240 20932877 20932878 20933100 20933100 20933104 20933105 20933390
15919294 0 20936415 20936420 20936423 20936428 20936606 20936612
15919383 0 20936490 20936496 20936498 20936503 20936760 20936776
15920320 20939526 20939527 20939534 20939534 20939539 20939740 20939756
15920863 0 20941150 20941158 20941158 20941162 20941185 20941194
15925609 20955182 20955182 20955188 20955190 20955195 20955359 20955375
15926773 20958489 20958489 20958495 20958497 20958502 20958750 20958766
15926808 20958883 20958883 20958891 20958891 20958896 20959105 20959121
15926852 0 20959021 20959026 20959029 20959033 20959193 20959209
15928926 0 20964962 20964970 20964970 20964975 20965753 20965759
15929789 0 20967861 20967865 20967868 20967873 20968221 20968227
15936394 20987818 20987819 20988036 20988036 20988041 20988049 20988055
15936692 20989561 20989562 20989570 20989570 20989574 20989593 20989599
15938244 0 20994117 20994120 20994123 20994129 20994148 20994154
15940338 21000522 21000522 21000528 21000528 21000535 21000547 21000563
15940434 0 21000633 21000641 21000641 21000646 21000652 21000683
15940994 0 21001908 21001916 21001916 21001920 21002113 21002119
15941031 21002123 21002124 21002132 21002132 21002136 21002288 21002304
15942970 0 21007261 21007269 21007269 21007274 21007277 21007293
15943531 0 21008321 21008326 21008326 21008330 21008764 21008770
15959965 0 21053771 21053779 21053779 21053783 21053797 21053803
15970618 21087024 21087024 21087029 21087032 21087037 21087293 21087309
15970667 21087460 21087460 21087466 21087466 21087470 21087593 21087599
15970705 21087599 21087599 21087605 21087605 21087611 21087612 21087628
15970717 21087616 21087617 21087624 21087820 21087825 21087934 21087950
15977727 0 21109551 21109559 21109559 21109563 21110027 21110033
15978634 21111330 21111331 21111339 21111605 21111751 21112570 21112586
15990412 0 21147420 21147428 21147428 21147432 21148208 21148214
16005621 21195726 21195727 21195733 21195733 21195738 21195847 21195863
16010458 0 21209784 21209792 21209792 21209797 21209882 21209888
16018248 0 21233424 21233432 21233432 21233436 21233470 21233476
16022122 0 21244839 21244847 21244847 21244851 21244855 21244876
16040713 0 21300658 21300666 21300666 21300670 21300983 21300989
16049504 0 21324610 21324618 21324618 21324622 21325221 21325227
16059493 21355347 21355347 21355355 21355355 21355360 21355695 21355711
16067515 0 21379182 21379190 21379190 21379194 21379415 21379421
16077535 0 21409844 21409849 21409852 21409856 21409857 21409863
16138223 0 21585617 21585625 21585625 21585629 21585683 21585689
16174344 21695631 21695632 21695639 21695639 21695644 21695851 21695867
16255111 0 21938432 21938440 21938440 21938445 21938480 21938486
16255170 21938457 21938458 21938466 21938466 21938470 21938666 21938682
16255175 21938487 21938488 21938496 21938496 21938500 21938700 21938716
16264089 0 21962977 21962985 21962985 21962990 21963229 21963235
16273067 0 21988486 21988494 21988494 21988499 21988534 21988540
16295383 0 22054057 22054065 22054065 22054069 22054371 22054377
16298429 0 22062856 22062864 22062864 22062869 22062956 22062962
16298493 22062921 22062922 22062930 22062930 22062934 22063176 22063192
16346797 0 22211714 22211722 22211722 22211726 22212232 22212239
16378791 0 22304980 22304988 22304988 22304992 22305046 22305082
16398359 0 22365390 22365398 22365398 22365402 22365497 22365503
16815025 0 23636814 23636822 23636822 23636827 23636868 23636874
16857144 0 23761293 23761301 23761301 23761305 23761306 23761322
16871393 0 23807831 23807839 23807839 23807843 23807985 23808003
16886478 23839127 23839127 23839179 23839179 23839184 23839293 23839309
16886539 23840272 23840273 23840281 23840281 23840285 23840286 23840292
16886563 23841236 23841236 23841244 23841244 23841249 23841255 23841271
16886593 23841940 23841941 23841948 23841948 23841953 23842009 23842015
16886687 23843212 23843212 23843434 23843434 23843438 23843490 23843506
16886703 0 23843604 23843612 23843612 23843616 23843617 23843623
16886797 23843925 23843925 23843930 23843933 23843938 23844047 23844063
16886862 23844585 23844586 23844635 23844638 23844642 23844650 23844656
16886873 23844894 23844895 23844953 23844953 23844957 23844978 23844984
16886882 23845014 23845015 23845237 23845237 23845241 23845242 23845258
16886952 23845845 23845846 23845854 23845854 23845858 23845859 23845876
16887979 0 23849552 23849560 23849560 23849564 23849565 23849571
16888269 23850148 23850148 23850156 23850156 23850161 23850360 23850376
16888323 23850764 23850764 23850772 23850772 23850777 23850885 23850901
16888368 23851003 23851004 23851012 23851012 23851016 23851020 23851036
16889925 0 23855795 23855803 23855803 23855808 23855865 23855871
16890269 23856703 23856703 23856711 23856711 23856716 23856923 23856939
16892213 0 23863704 23863712 23863712 23863716 23863739 23863745
16892344 0 23864436 23864444 23864444 23864448 23864449 23864455
16892403 0 23865000 23865008 23865008 23865013 23865021 23865027
16892444 23865042 23865043 23865051 23865051 23865055 23865098 23865105
16892603 23865554 23865555 23865563 23865563 23865568 23865711 23865717
16892634 23865885 23865886 23866105 23866105 23866109 23866110 23866116
16892714 23866380 23866381 23866603 23866603 23866607 23866625 23866641
16892720 23866642 23866643 23866651 23866651 23866655 23866656 23866662
16892747 23866664 23866665 23866673 23866673 23866677 23866696 23866712
16893488 23873450 23873451 23873670 23873670 23873674 23873811 23873818
16893571 23874705 23874705 23874710 23874713 23874718 23874793 23874809
16893678 23875876 23875877 23875885 23875885 23875889 23875890 23875896
16893732 23875956 23875956 23875964 23875964 23875969 23876088 23876104
16894000 0 23876834 23876842 23876842 23876847 23877000 23877006
16894029 23876996 23876997 23877004 23877004 23877009 23877143 23877159
16894047 23877163 23877164 23877171 23877171 23877176 23877289 23877305
16894063 23877429 23877430 23877652 23877652 23877656 23877657 23877663
16894083 0 23877696 23877704 23877704 23877708 23877709 23877715
16894187 23879117 23879118 23879123 23879126 23879130 23879206 23879222
16894206 23879561 23879562 23879570 23879570 23879574 23879575 23879581
16894823 23882018 23882018 23882140 23882140 23882145 23882212 23882218
16894993 0 23884690 23884698 23884698 23884703 23884709 23884715
16895039 23884863 23884864 23884985 23884985 23884990 23885099 23885115
16895053 23885510 23885511 23885733 23885733 23885737 23885738 23885744
16895214 23886918 23886919 23887157 23887157 23887162 23887204 23887210
16895512 0 23890183 23890405 23890405 23890409 23890410 23890525
16895668 23891556 23891557 23891778 23891778 23891783 23891892 23891908
16895678 23892421 23892422 23892430 23892430 23892434 23892435 23892441
16896050 23896237 23896238 23896360 23896360 23896364 23896473 23896489
16896077 0 23896375 23896383 23896383 23896387 23896614 23896620
16896166 23896803 23896804 23897026 23897026 23897030 23897031 23897037
16896320 23897671 23897672 23897680 23897680 23897684 23897905 23897921
16896331 0 23897797 23897803 23897804 23897809 23897958 23897964
16896401 23898059 23898059 23898067 23898067 23898072 23898182 23898198
16896404 0 23898115 23898123 23898123 23898127 23898199 23898205
16896420 23898201 23898202 23898210 23898210 23898214 23898317 23898333
16896495 23898553 23898553 23898558 23898561 23898566 23898675 23898691
16896525 23898707 23898708 23898716 23898716 23898720 23898937 23898953
16896557 23898957 23898958 23899080 23899080 23899084 23899147 23899153
16897424 0 23904378 23904386 23904386 23904390 23904396 23904402
16897527 23904580 23904581 23904635 23904792 23904800 23905147 23905163
16897688 23905762 23905763 23905770 23905770 23905775 23905929 23905945
16897801 23906412 23906413 23906420 23906420 23906425 23906581 23906597
16898294 23908813 23908814 23908821 23908923 23908931 23909160 23909176
16898390 23909691 23909692 23909914 23909914 23909918 23909919 23909925
16898457 23911677 23911678 23911686 23911686 23911690 23911691 23911707
16898518 23912405 23912405 23912414 23912428 23912438 23912439 23912455
16898694 23913695 23913696 23913704 23913704 23913708 23913710 23913716
16898805 23914205 23914206 23914328 23914328 23914332 23914333 23914349
16898827 23914353 23914354 23914362 23914362 23914366 23914475 23914491
16898852 23915044 23915044 23915052 23915052 23915057 23915166 23915182
16899125 23917313 23917313 23917319 23917319 23917326 23917328 23917344
16899321 0 23917796 23917801 23917804 23917809 23917815 23917821
16899886 0 23919836 23919844 23919844 23919848 23919872 23919888
16899933 23920052 23920052 23920060 23920060 23920065 23920179 23920195
16900025 23920708 23920709 23920717 23920722 23920728 23920838 23920854
16900107 23922213 23922214 23922266 23922266 23922270 23922271 23922287
16900132 0 23922462 23922470 23922470 23922474 23922516 23922522
16900182 0 23922772 23922780 23922780 23922784 23922826 23922832
16900347 0 23923308 23923314 23923315 23923320 23923469 23923475
16900417 23923512 23923512 23923517 23923520 23923525 23923634 23923650
16900420 0 23923551 23923559 23923559 23923563 23923651 23923657
16900446 0 23923659 23923664 23923667 23923672 23923788 23923794
16900511 23923956 23923956 23923964 23923964 23923969 23924107 23924123
16900556 23924256 23924256 23924264 23924264 23924269 23924381 23924397
16900575 23924260 23924261 23924269 23924269 23924273 23924509 23924525
16900586 0 23924537 23924545 23924545 23924549 23924576 23924582
16900732 23924904 23924905 23924912 23924912 23924917 23925135 23925151
16900811 23925375 23925375 23925383 23925383 23925388 23925521 23925537
16900815 23925418 23925419 23925427 23925427 23925431 23925538 23925544
16900831 23925540 23925541 23925549 23925549 23925553 23925656 23925672
16901015 23928224 23928225 23928347 23928347 23928351 23928352 23928359
16901042 23928595 23928595 23928714 23928714 23928719 23928726 23928732
16901125 23929300 23929301 23929309 23929309 23929313 23929314 23929320
16901131 23929321 23929322 23929544 23929544 23929548 23929570 23929576
16901195 23929808 23929809 23929817 23929817 23929821 23929863 23929879
16901330 23931539 23931540 23931548 23931548 23931552 23931553 23931584
16901336 23931585 23931586 23931808 23931808 23931812 23931888 23931904
16901360 23931985 23931986 23931994 23931994 23931998 23931999 23932130
16901425 23932327 23932328 23932336 23932336 23932340 23932416 23932432
16901479 23932978 23932979 23932987 23932987 23932991 23933067 23933083
16901508 0 23933397 23933405 23933405 23933409 23933432 23933438
16901521 23933467 23933468 23933476 23933476 23933480 23933481 23933498
16901538 0 23933621 23933628 23933628 23933633 23933669 23933675
16901551 23933678 23933679 23933687 23933687 23933691 23933696 23933712
16901573 23933745 23933745 23933753 23933753 23933758 23933763 23933779
16901692 23934393 23934394 23934402 23934402 23934406 23934482 23934498
16901837 23937616 23937617 23937839 23937839 23937843 23937844 23937850
16901840 0 23937852 23937910 23937910 23937914 23937922 23937928
16901993 23939679 23939680 23939829 23939829 23939833 23939869 23939875
16902003 23939874 23939875 23939949 23939949 23939953 23939959 23939975
16902011 0 23939880 23940099 23940099 23940103 23940122 23940128
16902023 23939979 23939980 23940202 23940202 23940206 23940227 23940243
16902071 23940723 23940724 23940946 23940946 23940950 23940951 23940957
16902102 23941014 23941015 23941022 23941022 23941027 23941132 23941148
16902164 0 23941378 23941383 23941383 23941387 23941414 23941420
16902520 0 23943333 23943555 23943555 23943559 23943576 23943582
16902575 23943615 23943615 23943621 23943621 23943626 23943697 23943713
16902596 23943765 23943766 23943988 23943988 23943992 23944350 23944356
16902599 0 23944351 23944359 23944359 23944363 23944371 23944377
16902902 23945592 23945593 23945601 23945601 23945605 23945695 23945701
16902929 23945717 23945718 23945726 23945726 23945730 23945735 23945741
16902974 23946019 23946020 23946028 23946028 23946032 23946090 23946096
16902983 23946097 23946098 23946320 23946320 23946324 23946342 23946358
16903003 23946361 23946362 23946630 23946630 23946634 23946637 23946643
16903050 23946956 23946957 23946965 23946965 23946969 23946982 23947044
16903060 23946970 23946971 23947225 23947225 23947229 23947235 23947251
16903148 0 23948918 23948926 23948926 23948930 23948931 23949016
16903151 23948920 23948921 23949143 23949143 23949147 23949148 23949154
16903227 0 23949812 23949820 23949820 23949824 23949825 23949831
16903269 23949926 23949927 23950004 23950004 23950008 23950009 23950015
16903301 0 23950377 23950383 23950383 23950387 23950428 23950434
16903311 23950383 23950384 23950392 23950392 23950396 23950435 23950442
16903331 23950436 23950437 23950445 23950445 23950449 23950505 23950521
16903339 0 23950444 23950452 23950452 23950456 23950524 23950530
16903358 23950456 23950456 23950464 23950464 23950469 23950607 23950623
16903528 23951519 23951519 23951524 23951741 23951746 23951855 23951871
16903579 23952103 23952103 23952169 23952169 23952174 23952263 23952269
16903619 23952347 23952348 23952370 23952564 23952569 23952597 23952603
16903852 23953893 23953894 23953902 23953902 23953906 23953907 23953923
16903925 0 23954153 23954161 23954161 23954165 23954166 23954172
16904084 0 23954492 23954500 23954500 23954504 23954513 23954519
16904171 23954924 23954925 23954932 23954932 23954936 23954937 23954953
16905012 23957446 23957447 23957455 23957455 23957459 23957686 23957692
16905043 0 23957687 23957709 23957709 23957713 23957753 23957759
16905897 0 23960528 23960547 23960547 23960551 23960695 23960702
16905980 23960754 23960754 23960762 23960762 23960766 23960836 23960852
16906615 0 23962718 23962723 23962723 23962728 23962781 23962787
16907232 0 23964517 23964539 23964539 23964544 23964646 23964652
16907462 0 23964828 23964836 23964836 23964840 23964993 23964999
16907921 23965993 23965993 23966001 23966001 23966006 23966062 23966078
16908810 23968733 23968733 23968741 23968741 23968746 23969135 23969151
16908934 23969499 23969500 23969508 23969508 23969512 23969850 23969866
16909628 23971893 23971893 23971900 23971900 23971905 23972020 23972036
16909981 23972866 23972867 23972874 23972874 23972879 23973184 23973200
16910683 0 23975528 23975536 23975536 23975540 23975556 23975562
16911614 0 23978477 23978482 23978485 23978490 23978496 23978502
16913025 23983012 23983013 23983020 23983020 23983025 23983243 23983259
16913108 0 23983501 23983509 23983509 23983513 23983620 23983626
16913335 0 23984468 23984490 23984490 23984495 23984520 23984526
16913418 0 23984710 23984718 23984718 23984722 23984775 23984781
16913424 0 23984713 23984741 23984741 23984748 23984803 23984809
16913629 23985072 23985073 23985095 23985095 23985099 23985328 23985344
16913801 0 23985700 23985702 23985703 23985709 23985953 23985959
16913814 23985865 23985866 23985874 23985874 23985878 23985951 23985967
16913831 0 23985953 23985960 23985960 23985965 23986083 23986089
16913866 23985970 23985970 23985971 23985973 23985979 23986081 23986093
16914286 0 23987512 23987520 23987520 23987524 23987525 23987531
16914304 0 23987536 23987542 23987544 23987548 23987588 23987594
16914364 0 23987640 23987648 23987648 23987652 23987804 23987810
16914660 0 23988694 23988702 23988713 23988718 23988785 23988791
16914963 0 23989504 23989512 23989512 23989517 23989538 23989544
16915035 0 23989724 23989726 23989726 23989731 23989773 23989779
16915064 0 23989816 23989844 23989844 23989848 23989881 23989887
16915212 0 23990242 23990264 23990264 23990268 23990273 23990279
16915288 0 23990312 23990317 23990320 23990325 23990405 23990411
16915362 0 23990532 23990540 23990540 23990544 23990656 23990662
16915372 23990538 23990539 23990547 23990547 23990551 23990663 23990663
16915400 0 23990666 23990674 23990674 23990678 23990740 23990746
16915589 23991189 23991189 23991194 23991197 23991202 23991311 23991327
16916091 23992264 23992265 23992272 23992272 23992277 23992581 23992597
16917916 0 23998706 23998712 23998714 23998718 23998744 23998750
16918374 0 24000476 24000498 24000498 24000502 24000509 24000515
16918387 0 24000480 24000487 24000498 24000504 24000562 24000568
16918543 24002383 24002383 24002388 24002405 24002410 24002569 24002585
16918636 0 24002945 24002952 24002952 24002957 24002997 24003003
16918960 0 24003808 24003827 24003827 24003831 24004185 24004192
16919073 24004508 24004509 24004531 24004531 24004535 24004536 24004552
16919087 24004602 24004602 24004607 24004610 24004615 24004690 24004706
[...]

LLC AVERAGE MISS LATENCY: 145.609 cycles
LLC RQ	ACCESS:      40692	FORWARD:          0	MERGED:          0	TO_CACHE:      40692
LLC WQ	ACCESS:      15986	FORWARD:          0	MERGED:          0	TO_CACHE:      15986
LLC PQ	ACCESS:      46586	FORWARD:          0	MERGED:          0	TO_CACHE:      46586

LLC Dense regions hint to LLC: 0

RAW hits: 91549
Loads Generated: 2697670
Loads sent to L1D: 2606120
Stores Generated: 1373990
Stores sent to L1D: 1373990
Major fault: 0 Minor fault: 2374
Allocated PAGES: 2374

stream: 
stream:times selected: 902854
stream:pref_filled: 92833
stream:pref_useful: 41383
stream:pref_late: 1909
stream:misses: 11674
stream:misses_by_poll: 0

CS: 
CS:times selected: 118053
CS:pref_filled: 41134
CS:pref_useful: 34631
CS:pref_late: 267
CS:misses: 3177
CS:misses_by_poll: 43

CPLX: 
CPLX:times selected: 781016
CPLX:pref_filled: 26573
CPLX:pref_useful: 8583
CPLX:pref_late: 392
CPLX:misses: 55656
CPLX:misses_by_poll: 30

NL_L1: 
NL:times selected: 21982
NL:pref_filled: 2132
NL:pref_useful: 1072
NL:pref_late: 80
NL:misses: 1679
NL:misses_by_poll: 0

total selections: 1823905
total_filled: 81839
total_useful: 44722
total_late: 2784
total_polluted: 73
total_misses_after_warmup: 78692
conflicts: 895455

test: 249897

DRAM Statistics
 CHANNEL 0
 RQ ROW_BUFFER_HIT:       2192  ROW_BUFFER_MISS:       6674
 DBUS_CONGESTED:          3
 WQ ROW_BUFFER_HIT:        213  ROW_BUFFER_MISS:       1653  FULL:          0

 AVG_CONGESTED_CYCLE: 4

CPU 0 Branch Prediction Accuracy: 96.8365% MPKI: 6.7804 Average ROB Occupancy at Mispredict: 43.049
Branch types
NOT_BRANCH: 7856196 78.562%
BRANCH_DIRECT_JUMP: 200426 2.00426%
BRANCH_INDIRECT: 34470 0.3447%
BRANCH_CONDITIONAL: 1575700 15.757%
BRANCH_DIRECT_CALL: 161414 1.61414%
BRANCH_INDIRECT_CALL: 4941 0.04941%
BRANCH_RETURN: 166350 1.6635%
BRANCH_OTHER: 0 0%

DRAM PAGES: 1048576
Allocated PAGES: 2374
Average_ROB_Occupancy: 64.5106
Average_Decode_Occupancy: 2.51071
Average_FTQ_Occupancy: 0.968056
Indirect max targets: 12 Average targets: 2.7625
Branch_type:  BRANCH_DIRECT_JUMP:  Count Percentage: 9.40539 19.9755 4.13681 6.80621 9.17045 4.11349 4.23158 42.1605 
Branch_type:  BRANCH_INDIRECT:  Count Percentage: 11.0393 19.3484 6.06362 15.4829 1.41104 2.01577 1.33841 43.3005 
Branch_type:  BRANCH_CONDITIONAL:  Count Percentage: 21.0794 17.2002 5.18835 7.04796 6.85909 3.92651 2.93426 35.7643 
Branch_type:  BRANCH_DIRECT_CALL:  Count Percentage: 9.80166 12.985 8.87337 8.04071 8.65452 6.19542 5.03372 40.4156 
Branch_type:  BRANCH_INDIRECT_CALL:  Count Percentage: 6.52775 33.0359 0.0172692 1.16279 0 12.2151 8.82455 38.2167 
Branch_type:  BRANCH_RETURN:  Count Percentage: 14.7201 15.6393 3.44293 4.12646 5.59417 5.05854 1.72751 49.691 
Branch_type:  BRANCH_DIRECT_JUMP:  Total Count: 37912 80519 16675 27435 36965 16581 17057 169944 
Branch_type:  BRANCH_INDIRECT:  Total Count: 7448 13054 4091 10446 952 1360 903 29214 
Branch_type:  BRANCH_CONDITIONAL:  Total Count: 659796 538374 162398 220605 214693 122902 91844 1119441 
Branch_type:  BRANCH_DIRECT_CALL:  Total Count: 33007 43727 29881 27077 29144 20863 16951 136099 
Branch_type:  BRANCH_INDIRECT_CALL:  Total Count: 1134 5739 3 202 0 2122 1533 6639 
Branch_type:  BRANCH_RETURN:  Total Count: 52353 55622 12245 14676 19896 17991 6144 176729 
Number of unique branch instructions: 12001
Upper 32 bits: 
0
Unique upper 32 bits: 1
Unique upper 36 bits: 1
Unique upper 40 bits: 1
Unique upper 44 bits: 8
Unique upper 48 bits: 55
Offset_2 3438
Offset_3 2606
Offset_4 613
Offset_5 1207
Offset_6 1060
Offset_7 1024
Offset_8 833
Offset_9 742
Offset_10 434
Offset_11 273
Offset_12 272
Offset_13 218
Offset_14 216
Offset_15 188
Offset_16 126
Offset_17 46
Offset_18 55
Offset_19 197
Offset_20 249
Offset_21 577
Offset_22 403
Offset_23 530
decode_dispatch_called: 3925173 12.986
Dispatch_width: 0 1780244 45.3545 5.88976
Dispatch_width: 1 184014 4.68805 0.608792
Dispatch_width: 2 223582 5.69611 0.739698
Dispatch_width: 3 180953 4.61006 0.598665
Dispatch_width: 4 186304 4.74639 0.616368
Dispatch_width: 5 140045 3.56787 0.463325
Dispatch_width: 6 1230031 31.337 4.06943
Empty_decode_cycles: 26300926 87.014
ROB_full_cycles: 459109 1.51892
Starvation_cycles_per_kilo_instr: 1426.85
Starvation_cycles_per_kilo_instr_3: 1410.53
Starvation_cycles_per_kilo_instr_0: 1381.1
Branch_type_1  (2,2)  (3,78)  (4,138)  (5,249)  (6,166)  (7,169)  (8,156)  (9,164)  (10,78)  (11,55)  (12,30)  (13,13)  (14,18)  (15,7)  (16,3)  (17,1)  (18,4)  (19,1)  (20,3)  (21,25)  (22,14)  (23,19) 
Branch_type_2  (3,55)  (4,2)  (5,16)  (6,15)  (7,23)  (8,39)  (9,37)  (10,27)  (11,16)  (12,10)  (13,6)  (14,2)  (15,4)  (16,3)  (22,4)  (23,3) 
Branch_type_3  (2,3436)  (3,2473)  (4,470)  (5,936)  (6,849)  (7,795)  (8,560)  (9,465)  (10,242)  (11,111)  (12,99)  (13,61)  (14,28)  (15,12)  (16,5)  (17,2)  (18,4) 
Branch_type_4  (4,1)  (5,3)  (6,7)  (7,18)  (8,49)  (9,45)  (10,44)  (11,46)  (12,78)  (13,90)  (14,106)  (15,89)  (16,69)  (17,25)  (18,21)  (19,120)  (20,166)  (21,466)  (22,249)  (23,394) 
Branch_type_5  (9,1)  (10,2)  (12,1)  (14,1)  (15,13)  (16,9)  (18,3)  (19,2)  (20,6)  (21,3)  (22,6)  (23,8) 
Branch_type_6  (4,2)  (5,3)  (6,23)  (7,19)  (8,29)  (9,30)  (10,41)  (11,45)  (12,54)  (13,48)  (14,61)  (15,63)  (16,37)  (17,18)  (18,23)  (19,74)  (20,74)  (21,83)  (22,130)  (23,106) 
4028f0: 100a54 100a57 100a63 100eb5 100ec4 100fed 100ff0 100ff8 100ffb 101120 101667 10166a 10166d 140df5 140df8 140e0f 14401b 14401e 15596e 155be3 155fe2 
406cd0: 14449d 1444b3 144572 1445bd 1445e0 1445eb 144797 1447a6 14e369 14f1f6 14fa45 150432 150659 15512d 155172 155961 155b56 155c01 155dd3 165a1c 165a31 165aca 
40ce00: 146d3a 14d3f3 14e413 14e416 14e43d 14e4c5 14e775 14e777 14e81d 14e895 14e8ad 14eaed 14eaef 14ebd0 14ebec 14f16e 14f64c 14f693 14fd6a 150e77 150e7c 150e81 155635 155799 19dd28 
40cf40: 146cc0 14d03c 14d0c1 14d204 14d3dd 14e06f 14e303 14e306 14e383 14e385 14e388 14e38b 14e38e 14e3c9 14e3cd 14e579 14ee5e 14f5ed 14f5f0 14f5f4 14f9f4 14fa5e 14fa61 14fa64 14fa66 14fa69 14fae9 14fb6c 150d80 1550c9 155115 155119 1557e4 155836 155970 155973 155976 155979 15597b 156488 1564a6 1564c0 1564c8 17de0d 17de10 19dd04 
40d030: 146d43 14d1bb 14d1bd 14d2ec 14d4a7 14e49f 14e4a5 14e5bf 14e5c4 14ee24 14ef09 14f93d 14f940 14f945 14fb5b 14fc1e 14fce4 14fce8 14fcec 14fcf1 14fcf5 14fcfe 150e73 153e4e 1553d6 155594 155598 15559c 1555a1 1555a5 1555bb 1555c0 1555c6 1555cb 1555f2 1555f7 17de2c 17de31 19dd91 
40d2a0: 144329 14d0da 14dee6 14e28a 14e291 14f65b 14f760 14f7d6 14fd8c 15068f 150694 15069a 15070d 150712 150765 15076a 150770 1507a5 1507ab 150ede 150ee3 150f8a 156444 156462 17e181 
40d3f0: 122bd7 144317 14d0b3 14d158 14d183 14d253 14d384 14d411 14debf 14dee3 14def5 14dff1 14e26f 14e494 14e6f1 14e6fe 14e704 14e823 14e82c 14e834 14ee67 14eecf 14f670 14f673 14f75a 14f7d0 14f90a 14fd81 14fd87 14fd8a 150717 1507b0 150f9b 15511e 155122 155140 155646 155787 155b79 155b94 15638e 156441 17e17c 
40d580: 122be0 12d5a5 12d5c4 12e798 12e7e5 12e847 12e919 142f30 142f36 142f3d 144a01 146d20 14d370 14d3f5 14d3fc 14d40d 14e6e4 14e6e9 14f716 14f71e 14f787 14f78f 14f8bf 14f8c6 14f8cc 14fbf3 14fd7c 150f8f 155706 15589a 155b91 17e0b1 17e0b5 17e0d8 17e0dd 17e110 17e115 19dd48 19dd4d 19dd52 
5017c0: 14061d 140623 14062a 140689 1411ed 14126c 14134e 14160e 1417f9 142360 142a0f 142aa6 142b2c 142c44 142fcf 1432f1 143387 14339f 1433af 14342d 14343d 1438ff 143931 
8bc920: 1dffc9 1e01c1 1e100e 1e1fc3 1e3574 1e381c 1e3daa 1e4449 1e4538 1e50a7 1e8471 1ec2ab 1ed90a 1edefc 1edff5 1ef6c6 1f0861 1f1c18 1f1c52 1f1cb6 1f1e9d 1f1ecd 1f3795 1f3cbd 1f3e87 1f8457 
8bcb90: 1e1f0b 1e1f8c 1e2319 1e232d 1e2365 1e2430 1e2450 1e2b3f 1e2b65 1e2fe4 1e3159 1e35bc 1e43e7 1e83df 1ec299 1ecbf7 1ecc2d 1ed4e5 1ed76a 1ed7d8 1ed8de 1eee72 1f18d8 1f30ad 1f3958 1f3a34 1f7ec6 1f7f30 1f7fc5 1f803f 1f811b 
8fc3e0: 100ece 101400 12d9be 12e0d5 12e5c1 12edb6 12ee3f 12f7e8 12fffc 130124 130142 130170 13019c 1301de 14110b 141632 14166d 141684 1416be 14173d 141bd7 141ce8 14221a 1422ee 143949 143bc5 143bd8 143be0 15594d 163b0a 17e1b1 17e1d5 17e4db 17e4f4 193d20 193d23 193d41 194588 22eb4c 23f157 23f502 23f7f0 2510fb 2511db 25121c 251252 251295 25129f 25137d 251381 2513b7 2525ad 2527f6 252804 252d93 2531a4 253705 
8fe230: 101369 12370e 123740 129b42 12d7a7 12db72 12db89 12ed6f 12eddd 12edf2 141105 141244 141e9b 14462d 1551f6 155a99 155d81 164c3c 16645f 17df50 
900170: 12d462 12d6f9 1409df 140d1b 140d21 140d42 140d48 140e19 1416ae 1416f2 14206a 142201 142287 1423ca 142db8 1439e2 143a66 143ab5 143b0c 155a82 17e22a 17e577 
901420: 131a19 131a1e 1416a4 1416e5 14205f 1421f5 14227d 1423c0 142a00 142daf 143b01 17e279 17e513 17e518 199905 19990a 199936 199a03 199a08 199a0d 199aac 199ab1 240545 2405fd 
ada690: 101322 101326 101acb 101b42 122336 12270d 1227ca 122928 127ab3 127aba 12ecf8 12f204 1408b6 144884 14d051 14d216 14d220 14d3e1 14e2fa 14fb64 150b55 150b98 153b70 153bd7 153c4c 15483b 154a49 1553f9 155400 1810c3 2365e6 240ec9 2cd11a 2cd1b6 
ada700: 1012ff 12d20b 12d212 12d22d 140aee 14cd75 153b6b 153c3c 153c40 153c45 153c49 153c89 153c91 153c95 155100 181105 181132 190c19 190c1f 190de8 
b32240: 10143a 101440 1014e9 101b10 101b16 101b28 101b2c 122384 1227ae 1227b0 1227b2 1228d8 1228db 1228dd 122a1a 122a1c 122a1e 1278d5 127b6d 127b6f 127b72 127b74 127d2f 12d2a8 140aa0 140ab9 140abb 140abf 140ac2 140ac4 140b8c 1448f6 146c2c 146c38 146c3b 14d1cf 14d1d1 14d1d6 14d20a 14d210 14d4a9 14e5dc 14e5e1 14e5e5 14ef10 14f94a 14fc29 14fd0d 14fd12 1506e6 1506f2 150f36 150ffe 151504 153e35 153e38 153e3a 153e3c 153e3e 153e41 153e43 153e45 153e47 153e4a 153e4c 1548d6 154aba 15558f 155592 1555e5 1555ec 1558c8 1558ce 17de38 17de3f 17e01c 181129 190c8e 190c90 190e24 20d784 2cd1ed 
b3a9f0: 10131b 101336 101339 12d203 14d352 14d447 14e31b 14f9f1 1511b2 151484 15562d 155633 17dde4 17de03 180b45 18111f 190cca 23ef79 24103e 24104f 2cca0b 
Unique trigger count: 
1 11671
2 1036
3 254
4 86
5 59
6 36
7 16
8 12
9 12
10 9
11 10
12 7
13 2
14 3
15 1
16 1
17 1
18 5
19 1
20 2
21 2
22 2
23 1
24 1
25 2
26 1
31 1
34 1
39 1
40 1
43 1
46 1
57 1
82 1
BTB PER SET UNIQUE ADDR: 2 3 3 6 3 1 6 1 8 3 5 4 9 3 1 6 2 5 3 3 5 8 3 2 5 5 6 2 5 5 6 3 4 1 3 6 5 1 3 8 6 0 4 2 3 4 5 5 4 1 6 4 4 2 6 3 7 7 4 3 9 5 4 3 3 3 4 6 5 3 4 3 6 6 5 3 4 5 5 6 1 4 7 3 4 1 4 3 7 1 4 5 3 8 6 4 5 5 6 4 8 3 6 7 3 6 4 6 3 5 4 6 4 5 7 6 3 1 5 2 4 5 1 3 4 3 3 4 4 5 7 7 4 4 2 6 9 6 7 4 3 5 5 1 10 2 3 3 4 10 5 6 3 2 4 7 6 7 8 5 5 6 6 4 8 6 6 5 5 5 6 3 4 4 10 3 3 6 4 6 7 6 3 5 5 9 3 3 6 7 1 7 0 4 5 3 6 2 6 2 3 4 3 5 3 3 4 4 2 6 3 2 4 8 5 5 3 4 6 3 5 6 3 6 5 3 4 2 2 4 5 7 7 7 5 5 13 1 6 7 2 6 6 5 6 3 3 8 3 8 3 9 3 3 6 4 3 3 6 6 6 7 4 5 3 3 6 10 4 3 4 11 3 5 3 6 9 2 9 5 3 7 7 3 6 7 4 4 5 6 5 5 7 5 5 5 3 1 7 4 2 3 4 4 2 5 1 2 5 5 4 7 6 4 6 7 5 4 6 2 2 3 8 2 5 5 4 3 0 8 6 2 3 4 2 7 6 3 3 6 4 8 3 2 5 6 3 6 5 6 4 4 8 3 2 7 8 6 4 4 4 6 6 4 6 7 8 4 5 7 4 6 7 3 3 10 9 3 7 6 6 5 11 11 2 4 5 5 8 3 4 6 7 3 4 6 5 2 7 3 3 3 6 5 7 3 2 6 4 5 4 2 4 3 4 3 4 1 6 4 3 6 3 3 4 3 2 3 4 3 1 3 3 4 4 2 3 5 2 3 5 9 6 4 4 1 7 3 4 3 3 5 4 5 5 4 6 6 5 4 1 4 7 3 4 3 6 4 2 6 6 4 7 6 4 3 5 5 5 2 5 4 7 6 4 5 4 5 8 7 4 5 3 4 8 6 4 1 5 6 5 8 7 3 0 6 4 2 4 7 4 5 4 5 3 2 3 4 5 2 5 4 7 4 2 4 3 4 4 1 4 5 7 2 8 4 5 3 7 3 3 2 6 4 1 6 5 3 4 3 3 3 6 1 4 1 5 5 2 7 3 5 1 6 7 5 3 9 6 4 5 3 5 4 4 8 4 3 3 4 6 7 1 2 8 4 2 3 6 6 5 4 4 3 5 4 3 4 2 2 2 6 2 5 2 3 7 3 1 3 3 1 2 4 4 6 4 5 2 4 9 4 4 3 5 0 1 5 5 4 2 3 4 2 5 8 7 1 6 7 4 3 6 3 5 6 2 3 3 6 5 4 0 8 6 2 3 4 4 8 6 5 4 2 5 3 3 2 7 2 4 3 6 6 3 8 4 7 6 4 4 5 5 3 6 8 5 2 3 4 1 9 5 1 3 2 8 10 5 4 4 4 8 8 4 4 6 3 3 9 4 5 7 4 5 3 4 4 6 3 7 6 6 4 5 5 8 10 1 3 3 3 5 5 3 6 3 3 4 2 1 3 3 4 4 5 5 6 3 5 4 3 4 5 4 5 6 1 3 3 1 2 5 2 3 2 5 7 1 6 3 4 8 5 6 2 6 3 3 4 4 4 4 4 5 4 3 5 6 7 6 4 5 4 2 5 7 5 8 3 3 7 6 6 6 9 6 3 2 2 2 1 9 7 6 7 5 5 3 5 4 2 2 4 5 7 4 7 2 5 2 5 4 2 2 2 7 4 6 7 5 3 3 4 4 2 5 2 6 3 5 2 6 8 6 5 1 2 3 4 4 6 3 3 6 7 6 7 4 2 7 5 6 4 5 8 5 6 8 6 5 4 8 6 5 5 6 3 5 3 4 3 6 7 6 6 4 6 9 6 4 4 3 4 6 5 6 4 4 4 4 7 10 2 3 6 5 3 2 5 4 4 8 5 3 2 7 5 10 4 4 3 12 5 6 3 5 9 8 6 9 2 7 4 9 0 8 5 5 5 5 7 5 3 5 7 5 8 7 4 5 8 7 2 9 6 2 7 6 4 3 6 7 9 6 5 8 3 3 5 0 11 6 5 7 5 4 7 7 3 2 6 8 1 4 4 7 5 7 4 5 7 4 5 7 3 3 4 7 10 6 4 3 4 8 4 6 4 7 6 3 6 4 3 6 2 6 5 5 1 5 1 8 7 4 3 2 5 5 7 6 6 2 7 9 3 4 3 10 3 7 3 4 4 6 2 6 4 6 6 4 8 3 4 5 10 3 4 6 5 3 6 2 1 6 5 4 2 7 3 7 5 1 8 5 6 7 7 6 4 7 4 4 3 2 5 6 5 6 6 4 8 7 7 1 6 4 2 5 4 5 4 5 5 8 7 5 2 3 11 2 8 5 4 8 5 7 3 2 2 9 2 4 5 7 5 1 8 9 2 2 7 5 7 3 3 7 8 10 3 3 3 1 4 5 4 8 2 5 4 2 5 5 2 3 2 2 4 5 4 3 4 3 4 5 6 4 9 2 6 3 3 5 3 5 3 4 2 3 6 6 1 2 4 2 2 2 4 4 5 1 4 1 6 4 5 0 6 5 4 1 6 3 3 3 4 6 6 3 3 3 5 5 2 1 2 3 6 3 1 4 2 3 4 2 6 7 3 2 2 4 6 4 7 2 4 4 3 3 5 6 2 8 5 5 5 4 6 7 2 4 6 3 3 5 2 8 5 6 10 3 3 5 3 6 2 6 3 5 4 2 1 3 4 3 3 0 3 1 5 3 3 6 5 2 4 4 2 5 1 5 1 3 0 5 3 4 3 5 4 4 4 4 5 5 8 2 5 4 6 6 3 5 3 5 4 3 5 5 6 4 4 4 4 1 6 4 5 5 5 2 3 1 4 3 7 2 3 3 2 2 2 3 2 4 5 5 3 3 6 3 5 5 3 5 6 1 3 6 1 3 6 5 3 4 4 3 6 5 1 10 5 4 2 0 2 3 4 5 6 2 4 1 5 4 3 3 2 2 5 2 3 5 6 7 1 2 3 6 4 5 7 2 4 9 2 6 3 6 3 7 4 0 5 5 6 6 4 3 9 7 10 2 7 1 11 10 7 8 4 1 6 7 6 5 3 5 4 8 7 5 4 3 9 4 5 3 4 2 3 7 8 4 7 2 5 4 7 3 4 4 0 3 6 4 3 3 7 6 10 7 6 7 6 3 7 5 7 5 2 9 3 6 5 7 8 5 3 6 4 9 4 4 8 7 4 4 4 9 6 4 2 9 4 6 6 7 7 5 5 10 4 8 5 4 5 5 3 6 7 4 4 4 5 3 8 1 1 2 3 2 2 3 8 1 3 3 5 4 4 1 3 1 4 2 10 3 5 4 7 4 1 3 3 2 4 5 3 5 4 2 4 9 2 7 4 3 3 2 1 3 4 3 5 6 5 3 5 3 4 2 3 3 2 3 4 1 10 6 5 4 3 3 4 4 7 7 6 3 6 5 3 3 4 1 5 4 5 6 8 6 5 5 2 0 3 6 4 6 0 5 3 10 2 7 4 4 5 6 5 9 3 5 5 6 5 3 2 2 4 6 3 3 3 4 6 6 2 8 4 4 3 6 4 2 4 4 3 5 2 7 3 3 3 4 5 4 4 5 4 3 3 2 0 3 3 3 4 4 4 6 2 4 2 4 7 2 5 8 2 2 9 2 2 4 0 4 5 4 4 3 2 3 5 6 1 5 3 2 7 7 2 6 7 2 4 8 2 5 2 1 1 3 2 3 2 2 1 2 5 4 4 6 2 1 2 1 4 5 5 6 1 4 3 3 6 0 4 7 2 6 5 3 2 1 2 1 3 2 2 6 5 3 3 2 8 0 2 2 5 1 3 4 4 3 5 5 3 2 4 4 3 2 5 4 2 11 6 1 5 3 5 5 4 6 3 5 7 4 4 4 4 6 7 5 4 1 2 5 5 6 3 6 5 5 6 4 2 4 9 5 2 3 1 1 4 6 2 3 6 5 6 5 3 4 7 0 6 4 5 2 3 4 3 7 3 6 4 4 3 4 6 7 2 3 6 4 4 3 3 4 3 6 4 4 1 4 5 5 6 3 5 3 4 3 11 0 3 6 8 5 3 6 2 5 6 3 4 9 6 5 5 3 1 5 1 2 6 2 2 6 4 8 1 1 6 3 2 3 4 1 3 2 8 5 7 2 2 3 4 2 5 5 4 3 3 3 3 0 2 3 4 7 7 3 3 1 5 7 5 4 4 3 4 6 3 6 2 11 3 5 4 5 7 4 8 3 4 6 4 4 3 6 7 2 5 6 1 2 5 4 4 8 4 0 3 2 4 4 4 5 7 2 3 6 3 2 3 2 6 3 6 6 8 5 3 1 5 1 8 8 8 5 5 6 2 1 2 7 3 4 5 5 6 7 4 4 3 7 8 4 7 3 6 4 4 4 4 3 3 6 6 2 4 3 5 1 4 
BTB PER SET COUNT: 11 5 3 14 7 5 510 3 13 539 7 5 28 7 6 9 3 6 19 13 9 20 7 4 12 21 9 73 907 6 26 7 391 1 3 8 6 1 4 1467 172 0 489 140 13 6 40 16 6 2 134 6 1048 2 10 6 43 10 4 7 14 3344 15 3 2372 6 12 19 34 217 11 4 12 125 11 255 10 1690 247 9 3 4 12 9 7 1 93 3 69 1 4 20 10 44 8 4 92 9 106 4 81 67 11 12 7 24 4 8 3 7 10 29 12 41 10 1984 3 1 21 2 173 17 1 3 9 7 3 4 9 513 20 145 11 10 7 105 43 9 24 7 4 8 10 1 18 3 343 58 52 24 5 124 7 15 24 52 345 2325 12 11 10 8 12 49 2313 8 232 7 8 12 14 3 11 5 37 3 14 14 8 7 27 15 105 16 7 84 6 6 9 73 1 8 0 9 120 3 23 2 67 19 110 56 13 1953 7 3 1384 215 23 19 15 3 9 14 659 29 5 7 8 19 6 88 4 463 12 11 11 1324 4 10 22 15 146 27 8 8 71 58 11 34 775 10 13 65 215 5 3 15 4 43 9 111 3 32 16 575 3 3315 45 763 341 26 14 63 4 4 15 146 297 39 11 92 22 20 20 11 27 2 77 39 5 14 26 9 176 43 72 184 13 12 24 21 18 22 12 562 16 2 1212 53 2 2074 19 18 2 13 1 14 22 27 180 14 16 24 29 25 9 379 18 2 2 4 98 3 12 10 100 5 0 13 33 2 140 7 6 83 38 26 18 7 6 207 6 6 9 66 165 19 1067 80 265 150 102 3 2 19 65 19 7 14 98 58 11 7 11 1773 5439 34 16 18 200 9 21 16 20 41 81 12 32 26 50 10 1544 48 2 8 443 14 75 8 82 8 32 70 280 1881 7 4 129 5 9 2360 12 96 49 21 269 22 20 52 6 2 4860 72 537 6 4 1 439 16 199 9 36 53 7 4 560 7 23 25 2 6 5 9 10 103 10 18 7 4 10 21 396 1102 7 1 45 9 30 109 40 2009 711 132 170 29 19 11 8 11 1 6 616 1942 5 979 33 7 3 35 112 180 61 104 82 3 36 14 79 109 153 4 244 13 13 123 28 26 167 4300 4 17 13 8 23 19 8 1 243 7 8 15 17 3 0 9 354 653 141 20 11 19 6 10 13 3 59 2179 6 2 5 4 212 72 4 4 3 132 3857 1 12 60 7 76 48 4 9 3 154 16 3 11 322 315 5 21 4575 3 26 196 4 23 35 2 63 1 10 5 9 29 8 12 1 11 15 9 3 297 15 105 23 6 16 125 5 11 4 6 3 8 8 11 1 59 74 4 3 4 8 6 24 5 19 17 69 796 3 4 6 2 2 11 2 5 6 4 248 3 1 4 6 1 9 505 10 691 4 5 3 7 228 16 24 3 5 0 1 9 9 9 490 4 8 37 20 23 8 658 43 21 9 14 86 35 8 1409 4 10 8 10 9 12 0 13 57 3 5 10 11 14 51 217 722 16 19 11 10 2 8 2 9 2633 18 2239 289 325 11 35 21 9 75 75 328 3 25 3019 10 28 29 7 1 23 23 1 8526 2 79 272 14 121 4 45 47 55 36 23 12 25 2396 13 7 42 17 10 7 6 44 5 75 5 14 44 279 8 33 89 69 43 2 3 4 22 6 37 3 12 11 4 10 2 1 4 3 1420 45 6 27 13 4 14 747 4 129 19 4 8 9 1 6 3 26 2 8 9 5 236 188 12 3 34 7 32 148 134 39 2 18 6 12 5 216 17 25 6 8 6 5 99 9 12 31 13 11 34 7 7131 56 199 114 4 3 556 18 13 10 58 55 8 2 61 4 1 3779 35 515 9 26 9 14 840 13 2 2 68 80 64 26 47 10 5 4 6 27 24 3 7 24 23 30 16 2058 3 29 115 112 2 6 58 167 21 5 7 26 489 156 8 1 73 12 4 8 95 4 105 1014 594 20 14 7 2 43 214 7 20 6 32 26 39 541 59 50 6 564 7 84 23 99 64 352 4 5 5 58 17 14 41 12 6 13 7 31 13 3 7 19 10 8 4 10 5 18 17 2249 41 3 12 6 12 4 25 5 4 9 10 4 2 8 10 19 16 857 5 25 12 10 7 3057 166 97 28 704 9 17 6 23 0 15 10 5 7 13 15 6 6 17 356 703 2945 78 8 24 97 252 2 20 1839 3 1691 76 522 3 141 15 17 9 13 70 9 5 8 0 3936 101 1505 1345 18 2296 86 2925 14 2 902 18 5 75 5 13 20 62 8 8 12 5 5 14 3 96 6 41 333 987 15 3 4 16 36 3949 5 744 6 7 52 17 13 14 2 104 11 5 75 10 1 596 12 59 23 6 7 5 7137 93 82 4 272 29 339 18 5 16 36 186 14 21 7 2221 30 252 226 14 2643 6 20 6 132 10 1579 5 569 11 5 3 235 2 1 8 11 15 7 21 3 10 7 3 12 56 46 2850 13 15 12 11 7 274 3 2 5 427 35 69 12 4 12 11 1163 1 12 53 2 155 10 9 5 9 6 33 38 7 2 64 43 82 69 8 74 29 9 86 6 6 5 785 2034 20 5 32 23 1 15 635 2 3 87 41 145 28 33 846 48 171 3 2000 74 8 234 21 165 17 2 76 4 15 6 94 9 7 21 34 17 82 4 3 30 43 5 11 6 10 82 41 1799 10 3 30 6 8 15 13 16 4 20 110 1 3 11 2 5 2 5 1220 1703 4 58 1 11858 13 11 0 8 6 828 1 87 6 9 3 15 20 225 119 3 3 171 217 4 1 82 4 16 5 3 6 2 8 529 2 75 247 29 2 5 6 14 4 18 5 18 720 3 3 1997 11 2 29 21790 263 217 6 251 12 2 49 37 3 3 38 5 65 232 359 1411 7 4 7 3 15 7 23 3 6 11 3 11 68 6 5 9 0 3 1 30 4 152 34 12 3 216 108 5 60 1 101 3 8 0 11 8 5 7 70 24644 78 65 6 100 331 148 4 182 44 4080 124 20 342 262 55 16 49 15 21 9 26 12 640 9 1 18 21 9 881 113 3 5 3 26 4 117 2 4 129 97 3 4 74 3 95 246 20 310 4102 118 44 15 20 19 9 549 1 24 16 7 27 66 57 128 6 20 47 9 10 1 75 17 6 6 0 318 4 9 7 173 7 6 1 19 6 19 11 6 11 13 4 167 8 464 50 1 5 20 470 5 19 29 16 21 1687 2 45 4 30 100 92 7 0 15 7 62 776 4 3 111 8 13 4 378 1 35 24177 12 177 4 1 16 19 10 26 11 50 5 44 3054 693 14 3 2150 69 40 264 88 2 6 11 23 5 752 13 11 7 20 19 9 7 0 137 7 5 22 9 952 21832 33 16 8 79 20 18 11 12 3521 13 2 133 19 22 17 629 10 10 3 10 905 25 64 6 1358 10 10 20 2183 138 14 8 160 19 13 6 56 128 23 38 11 24 10 28 24 14 6 24 3 226 390 65 11 49 34 13 548 38 1 59 67 34 4 4771 26 3 5 6 10 46 6 8 3 877 6 2 19 1589 166 9 116 6 1 4 4 3 9 198 12 10 9 2 6 13 2 11 4 18 4 3 1 7 6 3 5 6 8 4 11 3 18 2 5 1093 2 206 4 1 120 15 2316 6 5 85 5 42 26 31 777 102 15 6 3 715 16 1 6 5 16 7 8 10 5 5 6 0 5 11 863 10 0 11 25 502 2 7 5 9 518 12 10 1050 9 5 24 2313 10 3 4 2 29 20 4 3 4 4 10 12 2 6539 4 6 102 13 181 27 44 11 15 7 2 27 3 15 24 1189 36 13 238 96 22 6 4 531 0 19 7153 43 21 4 138 8 2 6 5 14 82 32 13 439 651 2 34 18 5 16 0 30 27 8 70 226 10 13 209 10 3 260 10 26 225 1017 3 51 31 80 1035 33 2 55 375 2 1 54 25 164 2 5 1 2 211 4 106 7 6 1 2 9 10 18 33 239 1 88 3 5 31 0 4 24 2 12 173 8 2 19 4 38 8 4 2 9 125 6 13 4 189 0 2 2 7 1 5 77 104 5 8 7 3 7 39 5 3 2 69 4 14 17 547 4 5 16 39 11 4 65 4 12 22 11 9 5 4 11 32 6 4 1 2 11 6 70 6 9 6 11 171 4 4 7 29 5 166 992 1 4 13 313 2 9 12 9 33 110 6 5 532 0 9 7 28 12 15 6 11 38 24 17 16 4 5 1296 17 11 9 12 419 11 6 5 4 1130 3 22 15 33 1 13 9 24 557 3 38 3 12 1167 76 0 3 31 16 23 4 1261 73 96 45 3 4 972 23 9 8 121 1 5302 1 2 11 82 482 21 31 31 1 1 32 44 3 5 12 1 7 2 222 7 42 54 2 148 11 3 5 48 10 9 16 184 13 0 3 8 65 7 12 3 3 3 6 22 15 5 7 32 8 16 11 57 2 410 3 21 14 801 11 4 11 8 4 16 11 45 9 216 10 8 692 10 1 2 8 24 6 12 5 0 5 165 5 4 4 5 41 3 10 30 5 2 24 2 6 7 103 11 295 5 4 9 8 1 33 11 9 9 13 8 2 1 2 22 4 14 1953 13 268 8 4 6 6 158 15 4 15 33 10 123 148 32 48 356 9 1952 8 2 12 5 67 1 4 
