
*** ChampSim Multicore Out-of-Order Simulator ***

Warmup Instructions: 10000000
Simulation Instructions: 10000000
Number of CPUs: 1
LLC sets: 2048
LLC ways: 16
Off-chip DRAM Size: 4096 MB Channels: 1 Width: 64-bit Data Rate: 6400 MT/s
CPU 0 runs /media/ashish/Windows1/Ashish/traces/public/spec_gcc_001.champsimtrace.xz
.xz
ITLB has LRU replacement policy
DTLB has LRU replacement policy
STLB has LRU replacement policy
FDIP Prefetcher at L1I
L1I has LRU replacement policy
L1D has LRU replacement policy
Initialize SRRIP state for L2C
Initialize DRRIP state for LLC
Heartbeat CPU 0 instructions: 10000003 cycles: 2811002 heartbeat IPC: 3.55745 cumulative IPC: 3.55745 (Simulation time: 0 hr 4 min 33 sec) 

Warmup complete CPU 0 instructions: 10000003 cycles: 2811002 (Simulation time: 0 hr 4 min 33 sec) 

Cycle: 10000000 FTQ IN: 15664129 FTQ occupancy: 9.64039 DECODE IN: 15664129 DECODE occupancy: 25.5679 ROB IN: 15664129 ROB occupancy: 198.003 ROB OUT: 15663897
Heartbeat CPU 0 instructions: 20000002 cycles: 16138973 heartbeat IPC: 0.750302 cumulative IPC: 0.750302 (Simulation time: 0 hr 7 min 0 sec) 
Finished CPU 0 instructions: 10000003 cycles: 13327972 cumulative IPC: 0.750302 (Simulation time: 0 hr 7 min 0 sec) 

ChampSim completed all CPUs

Region of Interest Statistics

CPU 0 cumulative IPC: 0.750302 instructions: 10000003 cycles: 13327972
 Fetch stage stalled: 75.9325  Sim cycles: 13327972 fetch stall cycle: 10120268
 Empty decode stage: 45.2705  Sim cycles: 13327972 fetch stall cycle: 6033642
ITLB TOTAL     ACCESS:    1350072  HIT:    1331606  MISS:      18466  HIT %:    98.6322  MISS %:    1.36778   MPKI: 1.8466
ITLB LOAD TRANSLATION INSTRUCTION	ACCESS:    1324635  HIT:    1306169  MISS:      18466  HIT %:     98.606  MISS %:    1.39404  MPKI: 1.8466
ITLB TRANSLATION FROM L1D PREFETCHER INSTRUCTION	ACCESS:      25437  HIT:      25437  MISS:          0  HIT %:        100  MISS %:          0  MPKI: 0

ITLB AVERAGE MISS LATENCY: 12.349 cycles
ITLB RQ	ACCESS:    1654238	FORWARD:          0	MERGED:     289574	TO_CACHE:    1364664

DTLB TOTAL     ACCESS:    1915273  HIT:    1864436  MISS:      50837  HIT %:    97.3457  MISS %:     2.6543   MPKI: 5.0837
DTLB LOAD TRANSLATION DATA	ACCESS:    1915273  HIT:    1864436  MISS:      50837  HIT %:    97.3457  MISS %:     2.6543  MPKI: 5.0837

DTLB AVERAGE MISS LATENCY: 13.6204 cycles
DTLB RQ	ACCESS:    2442552	FORWARD:          0	MERGED:     524105	TO_CACHE:    1918447

STLB TOTAL     ACCESS:     160283  HIT:     158429  MISS:       1854  HIT %:    98.8433  MISS %:     1.1567   MPKI: 0.1854
STLB LOAD TRANSLATION INSTRUCTION	ACCESS:      18466  HIT:      17733  MISS:        733  HIT %:    96.0305  MISS %:    3.96946  MPKI: 0.0733
STLB LOAD TRANSLATION DATA	ACCESS:      50837  HIT:      49719  MISS:       1118  HIT %:    97.8008  MISS %:    2.19919  MPKI: 0.1118
STLB TRANSLATION FROM L1D PREFETCHER DATA	ACCESS:      90980  HIT:      90977  MISS:          3  HIT %:    99.9967  MISS %: 0.00329743  MPKI: 0.0003

STLB AVERAGE MISS LATENCY: 158.875 cycles
STLB RQ	ACCESS:     181119	FORWARD:          0	MERGED:      20742	TO_CACHE:     160377

STLB Hit, L1D data hit: 0
STLB Hit, L2C data hit: 0
STLB Hit, LLC data hit: 0
STLB Hit, LLC data miss: 0
STLB STLB hints to L2: 0
L1D TOTAL     ACCESS:    2538700  HIT:    2453079  MISS:      85621  HIT %:    96.6274  MISS %:    3.37263   MPKI: 8.5621
L1D LOAD DATA	ACCESS:    1399189  HIT:    1356888  MISS:      42301  HIT %:    96.9767  MISS %:    3.02325  MPKI: 4.2301
L1D RFO DATA	ACCESS:    1030070  HIT:    1013033  MISS:      17037  HIT %:     98.346  MISS %:    1.65397  MPKI: 1.7037
L1D PREFETCH DATA	ACCESS:     109441  HIT:      83158  MISS:      26283  HIT %:    75.9843  MISS %:    24.0157  MPKI: 2.6283

L1D PREFETCH  REQUESTED:     223698  ISSUED:     223698  USEFUL:      10416  USELESS:      16622
L1D USEFUL LOAD PREFETCHES:      10416 PREFETCH ISSUED TO LOWER LEVEL:      27101  ACCURACY: 38.434
 TIMELY PREFETCHES:      10416 LATE PREFETCHES: 768 DROPPED PREFETCHES: 93
L1D AVERAGE MISS LATENCY: 91135.7 cycles
L1D RQ	ACCESS:    2059222	FORWARD:          0	MERGED:     629600	TO_CACHE:    1401436
L1D WQ	ACCESS:    1093843	FORWARD:      28252	MERGED:      52727	TO_CACHE:    1041116
L1D PQ	ACCESS:     111882	FORWARD:          0	MERGED:          0	TO_CACHE:     111816

L1D UNIQUE REGIONS ACCESSED: 0
L1D REGIONS CONFLICTS: 0
L1D Cross Page Prefetch Requests: 1644
L1D Same Page Prefetch Requests: 251664
L1D ROI Sum of L1D PQ occupancy: 1451074
L1D PREFETCHES PUSHED FROM L2C: 0
L1I TOTAL     ACCESS:    1632550  HIT:    1515541  MISS:     117009  HIT %:    92.8327  MISS %:    7.16725   MPKI: 11.7009
L1I LOAD INSTRUCTION	ACCESS:    1478016  HIT:    1361007  MISS:     117009  HIT %:    92.0834  MISS %:    7.91663  MPKI: 11.7009
L1I PREFETCH INSTRUCTION	ACCESS:     154534  HIT:     154534  MISS:          0  HIT %:        100  MISS %:          0  MPKI: 0

L1I PREFETCH  REQUESTED:     229548  ISSUED:     229548  USEFUL:          0  USELESS:          0
L1I USEFUL LOAD PREFETCHES:          0 PREFETCH ISSUED TO LOWER LEVEL:          0  ACCURACY: -nan
 TIMELY PREFETCHES:          0 LATE PREFETCHES: 0 DROPPED PREFETCHES: 0
L1I AVERAGE MISS LATENCY: 31.3645 cycles
L1I RQ	ACCESS:    2070483	FORWARD:          0	MERGED:     582172	TO_CACHE:    1488311
L1I PQ	ACCESS:     229548	FORWARD:          0	MERGED:      63621	TO_CACHE:     165927

L1BTB TOTAL     ACCESS:    1511017  HIT:     996743  MISS:     514274  HIT %:     65.965  MISS %:     34.035   MPKI: 51.4274
L1BTB BRANCH_DIRECT_JUMP	ACCESS:     139226 HIT:      75804 MISS:      63422 AVERAGE STALL: 58.0607 AVERAGE FETCH STALL: 46.704 AVERAGE FETCH QUEUE STALL: 5.75887 AVERAGE DECODE STALL: 4.7525 AVERAGE EXECUTE STALL: 5.59501e+15
L1BTB BRANCH_INDIRECT	ACCESS:      15596 HIT:       4223 MISS:      11373 AVERAGE STALL: 70.9622 AVERAGE FETCH STALL: 7.71076 AVERAGE FETCH QUEUE STALL: 5.68696 AVERAGE DECODE STALL: 7.61237 AVERAGE EXECUTE STALL: 49.0215
L1BTB BRANCH_CONDITIONAL	ACCESS:     931047 HIT:     682220 MISS:     248827 AVERAGE STALL: 55.7517 AVERAGE FETCH STALL: 45.8069 AVERAGE FETCH QUEUE STALL: 4.40596 AVERAGE DECODE STALL: 4.73003 AVERAGE EXECUTE STALL: 1.77287e+15
L1BTB BRANCH_DIRECT_CALL	ACCESS:     198095 HIT:      92170 MISS:     105925 AVERAGE STALL: 68.8779 AVERAGE FETCH STALL: 57.8096 AVERAGE FETCH QUEUE STALL: 5.37368 AVERAGE DECODE STALL: 4.85642 AVERAGE EXECUTE STALL: 2.90729e+15
L1BTB BRANCH_INDIRECT_CALL	ACCESS:      14472 HIT:       8270 MISS:       6202 AVERAGE STALL: 99.8246 AVERAGE FETCH STALL: 16.4254 AVERAGE FETCH QUEUE STALL: 8.8821 AVERAGE DECODE STALL: 8.36364 AVERAGE EXECUTE STALL: 65.4922
L1BTB BRANCH_RETURN	ACCESS:     212581 HIT:     134056 MISS:      78525 AVERAGE STALL: 62.274 AVERAGE FETCH STALL: 49.8201 AVERAGE FETCH QUEUE STALL: 6.85335 AVERAGE DECODE STALL: 4.86493 AVERAGE EXECUTE STALL: 8.89857e+15
L1BTB BRANCH_OTHER ACCESS:          0 HIT:          0 MISS:          0 AVERAGE STALL: -nan AVERAGE FETCH STALL: -nan AVERAGE FETCH QUEUE STALL: -nan AVERAGE DECODE STALL: -nan AVERAGE EXECUTE STALL: -nan
L1BTB TOTAL ROB OCCUPANCY AT BTB MISS: 4.70929

L2BTB TOTAL     ACCESS:     507304  HIT:     468035  MISS:      39269  HIT %:    92.2593  MISS %:    7.74072   MPKI: 3.9269
L2BTB BRANCH_DIRECT_JUMP	ACCESS:      63422 HIT:      58383 MISS:       5039 AVERAGE STALL: 58.0607 AVERAGE FETCH STALL: 46.704 AVERAGE FETCH QUEUE STALL: 5.75887 AVERAGE DECODE STALL: 4.7525 AVERAGE EXECUTE STALL: 5.59501e+15
L2BTB BRANCH_INDIRECT	ACCESS:       4596 HIT:       2137 MISS:       2459 AVERAGE STALL: 70.9622 AVERAGE FETCH STALL: 7.71076 AVERAGE FETCH QUEUE STALL: 5.68696 AVERAGE DECODE STALL: 7.61237 AVERAGE EXECUTE STALL: 49.0215
L2BTB BRANCH_CONDITIONAL	ACCESS:     248827 HIT:     231382 MISS:      17445 AVERAGE STALL: 55.7517 AVERAGE FETCH STALL: 45.8069 AVERAGE FETCH QUEUE STALL: 4.40596 AVERAGE DECODE STALL: 4.73003 AVERAGE EXECUTE STALL: 1.77287e+15
L2BTB BRANCH_DIRECT_CALL	ACCESS:     105925 HIT:      96105 MISS:       9820 AVERAGE STALL: 68.8779 AVERAGE FETCH STALL: 57.8096 AVERAGE FETCH QUEUE STALL: 5.37368 AVERAGE DECODE STALL: 4.85642 AVERAGE EXECUTE STALL: 2.90729e+15
L2BTB BRANCH_INDIRECT_CALL	ACCESS:       6010 HIT:       4589 MISS:       1421 AVERAGE STALL: 99.8246 AVERAGE FETCH STALL: 16.4254 AVERAGE FETCH QUEUE STALL: 8.8821 AVERAGE DECODE STALL: 8.36364 AVERAGE EXECUTE STALL: 65.4922
L2BTB BRANCH_RETURN	ACCESS:      78524 HIT:      75439 MISS:       3085 AVERAGE STALL: 62.274 AVERAGE FETCH STALL: 49.8201 AVERAGE FETCH QUEUE STALL: 6.85335 AVERAGE DECODE STALL: 4.86493 AVERAGE EXECUTE STALL: 8.89857e+15
L2BTB BRANCH_OTHER ACCESS:          0 HIT:          0 MISS:          0 AVERAGE STALL: -nan AVERAGE FETCH STALL: -nan AVERAGE FETCH QUEUE STALL: -nan AVERAGE DECODE STALL: -nan AVERAGE EXECUTE STALL: -nan
L2BTB TOTAL ROB OCCUPANCY AT BTB MISS: 61.6737

L2C TOTAL     ACCESS:     260509  HIT:     214396  MISS:      46113  HIT %:    82.2989  MISS %:    17.7011   MPKI: 4.6113
L2C LOAD INSTRUCTION	ACCESS:     117009  HIT:      93524  MISS:      23485  HIT %:    79.9289  MISS %:    20.0711  MPKI: 2.3485
L2C LOAD TRANSLATION INSTRUCTION	ACCESS:        791  HIT:        451  MISS:        340  HIT %:    57.0164  MISS %:    42.9836  MPKI: 0.034
L2C LOAD DATA	ACCESS:      41529  HIT:      36945  MISS:       4584  HIT %:    88.9619  MISS %:    11.0381  MPKI: 0.4584
L2C RFO DATA	ACCESS:      16986  HIT:      10313  MISS:       6673  HIT %:    60.7147  MISS %:    39.2853  MPKI: 0.6673
L2C PREFETCH DATA	ACCESS:      48349  HIT:      38815  MISS:       9534  HIT %:    80.2809  MISS %:    19.7191  MPKI: 0.9534
L2C WRITEBACK DATA	ACCESS:      34136  HIT:      33655  MISS:        481  HIT %:    98.5909  MISS %:    1.40907  MPKI: 0.0481
L2C LOAD TRANSLATION DATA	ACCESS:       1575  HIT:        568  MISS:       1007  HIT %:    36.0635  MISS %:    63.9365  MPKI: 0.1007
L2C TRANSLATION FROM L1D PREFETCHER DATA	ACCESS:        134  HIT:        125  MISS:          9  HIT %:    93.2836  MISS %:    6.71642  MPKI: 0.0009

L2C PREFETCH  REQUESTED:      26440  ISSUED:      26440  USEFUL:       1588  USELESS:       7803
L2C USEFUL LOAD PREFETCHES:       1588 PREFETCH ISSUED TO LOWER LEVEL:       9601  ACCURACY: 16.5399
 TIMELY PREFETCHES:       1588 LATE PREFETCHES: 67 DROPPED PREFETCHES: 0
L2C AVERAGE MISS LATENCY: 94.1766 cycles
L2C RQ	ACCESS:     178029	FORWARD:          0	MERGED:          0	TO_CACHE:     178024
L2C WQ	ACCESS:      34136	FORWARD:          7	MERGED:          0	TO_CACHE:      34136
L2C PQ	ACCESS:      53541	FORWARD:          0	MERGED:       4743	TO_CACHE:      48796

L2C Dense regions hint from L2: 0
PSCL5 TOTAL     ACCESS:       3896  HIT:       1948  MISS:       1948  HIT %:         50  MISS %:         50   MPKI: 0.1948
PSCL5 LOAD TRANSLATION INSTRUCTION	ACCESS:       3702  HIT:       1851  MISS:       1851  HIT %:         50  MISS %:         50  MPKI: 0.1851
PSCL5 TRANSLATION FROM L1D PREFETCHER INSTRUCTION	ACCESS:        194  HIT:         97  MISS:         97  HIT %:         50  MISS %:         50  MPKI: 0.0097


PSCL4 TOTAL     ACCESS:       2053  HIT:       1026  MISS:       1027  HIT %:    49.9756  MISS %:    50.0244   MPKI: 0.1027
PSCL4 LOAD TRANSLATION INSTRUCTION	ACCESS:       1090  HIT:        998  MISS:         92  HIT %:    91.5596  MISS %:    8.44037  MPKI: 0.0092
PSCL4 TRANSLATION FROM L1D PREFETCHER INSTRUCTION	ACCESS:         28  HIT:         28  MISS:          0  HIT %:        100  MISS %:          0  MPKI: 0
PSCL4 LOAD TRANSLATION DATA	ACCESS:        907  HIT:          0  MISS:        907  HIT %:          0  MISS %:        100  MPKI: 0.0907
PSCL4 TRANSLATION FROM L1D PREFETCHER DATA	ACCESS:         28  HIT:          0  MISS:         28  HIT %:          0  MISS %:        100  MPKI: 0.0028


PSCL3 TOTAL     ACCESS:       3893  HIT:       1945  MISS:       1948  HIT %:    49.9615  MISS %:    50.0385   MPKI: 0.1948
PSCL3 LOAD TRANSLATION INSTRUCTION	ACCESS:       2626  HIT:       1848  MISS:        778  HIT %:    70.3732  MISS %:    29.6268  MPKI: 0.0778
PSCL3 TRANSLATION FROM L1D PREFETCHER INSTRUCTION	ACCESS:        125  HIT:         97  MISS:         28  HIT %:       77.6  MISS %:       22.4  MPKI: 0.0028
PSCL3 LOAD TRANSLATION DATA	ACCESS:       1073  HIT:          0  MISS:       1073  HIT %:          0  MISS %:        100  MPKI: 0.1073
PSCL3 TRANSLATION FROM L1D PREFETCHER DATA	ACCESS:         69  HIT:          0  MISS:         69  HIT %:          0  MISS %:        100  MPKI: 0.0069


PSCL2 TOTAL     ACCESS:       3205  HIT:       1294  MISS:       1911  HIT %:    40.3744  MISS %:    59.6256   MPKI: 0.1911
PSCL2 LOAD TRANSLATION INSTRUCTION	ACCESS:       1990  HIT:       1234  MISS:        756  HIT %:    62.0101  MISS %:    37.9899  MPKI: 0.0756
PSCL2 TRANSLATION FROM L1D PREFETCHER INSTRUCTION	ACCESS:         60  HIT:         60  MISS:          0  HIT %:        100  MISS %:          0  MPKI: 0
PSCL2 LOAD TRANSLATION DATA	ACCESS:       1095  HIT:          0  MISS:       1095  HIT %:          0  MISS %:        100  MPKI: 0.1095
PSCL2 TRANSLATION FROM L1D PREFETCHER DATA	ACCESS:         60  HIT:          0  MISS:         60  HIT %:          0  MISS %:        100  MPKI: 0.006


LLC TOTAL     ACCESS:      56303  HIT:      36453  MISS:      19850  HIT %:    64.7443  MISS %:    35.2557   MPKI: 1.985
LLC LOAD INSTRUCTION	ACCESS:      23485  HIT:      14689  MISS:       8796  HIT %:    62.5463  MISS %:    37.4537  MPKI: 0.8796
LLC LOAD TRANSLATION INSTRUCTION	ACCESS:        340  HIT:        241  MISS:         99  HIT %:    70.8824  MISS %:    29.1176  MPKI: 0.0099
LLC LOAD DATA	ACCESS:       4519  HIT:       2321  MISS:       2198  HIT %:    51.3609  MISS %:    48.6391  MPKI: 0.2198
LLC RFO DATA	ACCESS:       6670  HIT:       3672  MISS:       2998  HIT %:    55.0525  MISS %:    44.9475  MPKI: 0.2998
LLC PREFETCH DATA	ACCESS:       9601  HIT:       4808  MISS:       4793  HIT %:    50.0781  MISS %:    49.9219  MPKI: 0.4793
LLC WRITEBACK DATA	ACCESS:      10672  HIT:      10249  MISS:        423  HIT %:    96.0364  MISS %:    3.96364  MPKI: 0.0423
LLC LOAD TRANSLATION DATA	ACCESS:       1007  HIT:        464  MISS:        543  HIT %:    46.0775  MISS %:    53.9225  MPKI: 0.0543
LLC TRANSLATION FROM L1D PREFETCHER DATA	ACCESS:          9  HIT:          9  MISS:          0  HIT %:        100  MISS %:          0  MPKI: 0

LLC AVERAGE MISS LATENCY: 148.925 cycles
LLC RQ	ACCESS:      36031	FORWARD:          0	MERGED:          0	TO_CACHE:      36030
LLC WQ	ACCESS:      10672	FORWARD:          1	MERGED:          0	TO_CACHE:      10672
LLC PQ	ACCESS:       9601	FORWARD:          0	MERGED:          0	TO_CACHE:       9601

LLC Dense regions hint to LLC: 0

RAW hits: 345100
Loads Generated: 2404323
Loads sent to L1D: 2059222
Stores Generated: 1093847
Stores sent to L1D: 1093843
Major fault: 0 Minor fault: 3483
Allocated PAGES: 3483

stream: 
stream:times selected: 344621
stream:pref_filled: 32279
stream:pref_useful: 11377
stream:pref_late: 490
stream:misses: 1933
stream:misses_by_poll: 0

CS: 
CS:times selected: 62240
CS:pref_filled: 17865
CS:pref_useful: 14932
CS:pref_late: 246
CS:misses: 1705
CS:misses_by_poll: 3

CPLX: 
CPLX:times selected: 280623
CPLX:pref_filled: 10922
CPLX:pref_useful: 1727
CPLX:pref_late: 61
CPLX:misses: 10631
CPLX:misses_by_poll: 5

NL_L1: 
NL:times selected: 5482
NL:pref_filled: 667
NL:pref_useful: 274
NL:pref_late: 23
NL:misses: 351
NL:misses_by_poll: 0

total selections: 692966
total_filled: 26283
total_useful: 10416
total_late: 1011
total_polluted: 8
total_misses_after_warmup: 44547
conflicts: 941568

test: 103128

DRAM Statistics
 CHANNEL 0
 RQ ROW_BUFFER_HIT:       4895  ROW_BUFFER_MISS:      14532
 DBUS_CONGESTED:         14
 WQ ROW_BUFFER_HIT:        635  ROW_BUFFER_MISS:       2166  FULL:          0

 AVG_CONGESTED_CYCLE: 3

CPU 0 Branch Prediction Accuracy: 91.729% MPKI: 19.7523 Average ROB Occupancy at Mispredict: 77.8463
Branch types
NOT_BRANCH: 7611455 76.1145%
BRANCH_DIRECT_JUMP: 139226 1.39226%
BRANCH_INDIRECT: 15596 0.15596%
BRANCH_CONDITIONAL: 1808160 18.0816%
BRANCH_DIRECT_CALL: 198095 1.98095%
BRANCH_INDIRECT_CALL: 14472 0.14472%
BRANCH_RETURN: 212581 2.12581%
BRANCH_OTHER: 0 0%

DRAM PAGES: 1048576
Allocated PAGES: 3483
Average_ROB_Occupancy: 130.066
Average_Decode_Occupancy: 11.0259
Average_FTQ_Occupancy: 4.23335
Indirect max targets: 113 Average targets: 2.93939
Branch_type:  BRANCH_DIRECT_JUMP:  Count Percentage: 10.2997 7.06839 5.61135 6.7036 7.76781 5.11632 3.01628 54.4165 
Branch_type:  BRANCH_INDIRECT:  Count Percentage: 17.4035 3.89724 0 6.77808 20.0287 0.196421 5.94251 45.7536 
Branch_type:  BRANCH_CONDITIONAL:  Count Percentage: 26.3164 8.72478 4.21623 6.69153 5.85684 4.39666 3.03417 40.7634 
Branch_type:  BRANCH_DIRECT_CALL:  Count Percentage: 4.96625 7.67591 6.15787 10.1188 6.49967 5.96417 4.72968 53.8877 
Branch_type:  BRANCH_INDIRECT_CALL:  Count Percentage: 19.1184 5.99847 9.46502 7.60968 4.97663 4.11174 4.80575 43.9143 
Branch_type:  BRANCH_RETURN:  Count Percentage: 11.8533 6.97386 3.28419 5.5744 8.30474 5.00459 2.77922 56.2257 
Branch_type:  BRANCH_DIRECT_JUMP:  Total Count: 29025 19919 15813 18891 21890 14418 8500 153348 
Branch_type:  BRANCH_INDIRECT:  Total Count: 5582 1250 0 2174 6424 63 1906 14675 
Branch_type:  BRANCH_CONDITIONAL:  Total Count: 939132 311354 150461 238795 209008 156900 108278 1454688 
Branch_type:  BRANCH_DIRECT_CALL:  Total Count: 18075 27937 22412 36828 23656 21707 17214 196128 
Branch_type:  BRANCH_INDIRECT_CALL:  Total Count: 5482 1720 2714 2182 1427 1179 1378 12592 
Branch_type:  BRANCH_RETURN:  Total Count: 47533 27966 13170 22354 33303 20069 11145 225472 
Number of unique branch instructions: 56296
Upper 32 bits: 
0
ffff0000
Unique upper 32 bits: 2
Unique upper 36 bits: 2
Unique upper 40 bits: 2
Unique upper 44 bits: 14
Unique upper 48 bits: 142
Offset_0 1
Offset_3 26279
Offset_4 1278
Offset_5 3474
Offset_6 3623
Offset_7 3418
Offset_8 3768
Offset_9 3790
Offset_10 3287
Offset_11 2347
Offset_12 1565
Offset_13 987
Offset_14 526
Offset_15 551
Offset_16 636
Offset_17 791
Offset_18 946
Offset_19 870
Offset_20 1840
Offset_21 3895
Offset_22 3977
Offset_23 1223
Offset_24 27
decode_dispatch_called: 4828978 36.2319
Dispatch_width: 0 2541790 52.6362 19.0711
Dispatch_width: 1 215556 4.4638 1.61732
Dispatch_width: 2 242786 5.02769 1.82163
Dispatch_width: 3 178070 3.68753 1.33606
Dispatch_width: 4 515577 10.6767 3.86838
Dispatch_width: 5 109118 2.25965 0.818714
Dispatch_width: 6 1026081 21.2484 7.6987
Empty_decode_cycles: 8498994 63.7681
ROB_full_cycles: 1229749 9.22683
Starvation_cycles_per_kilo_instr: 553.607
Starvation_cycles_per_kilo_instr_3: 522.372
Starvation_cycles_per_kilo_instr_0: 490.552
Branch_type_1  (4,127)  (5,358)  (6,500)  (7,504)  (8,770)  (9,936)  (10,890)  (11,686)  (12,406)  (13,216)  (14,79)  (15,40)  (16,20)  (17,25)  (18,17)  (19,26)  (20,29)  (21,64)  (22,60)  (23,39) 
Branch_type_2  (3,9)  (4,4)  (5,5)  (6,18)  (7,16)  (8,28)  (9,28)  (10,31)  (11,25)  (12,23)  (13,9)  (14,2)  (15,5)  (16,2)  (17,4)  (19,1)  (20,7)  (21,14)  (22,5)  (23,3) 
Branch_type_3  (0,1)  (3,26270)  (4,1143)  (5,3086)  (6,3064)  (7,2801)  (8,2791)  (9,2529)  (10,1964)  (11,1221)  (12,744)  (13,390)  (14,123)  (15,46)  (16,28)  (17,37)  (18,21) 
Branch_type_4  (6,2)  (7,24)  (8,75)  (9,133)  (10,222)  (11,242)  (12,218)  (13,207)  (14,168)  (15,254)  (16,325)  (17,418)  (18,522)  (19,505)  (20,1278)  (21,2778)  (22,2875)  (23,841)  (24,11) 
Branch_type_5  (7,2)  (9,1)  (10,1)  (11,3)  (12,4)  (13,6)  (14,17)  (15,13)  (16,14)  (17,22)  (18,39)  (19,20)  (20,41)  (21,111)  (22,107)  (23,27)  (24,7) 
Branch_type_6  (4,4)  (5,25)  (6,39)  (7,71)  (8,104)  (9,163)  (10,179)  (11,170)  (12,170)  (13,159)  (14,137)  (15,193)  (16,247)  (17,285)  (18,347)  (19,318)  (20,485)  (21,928)  (22,930)  (23,313)  (24,9) 
66b5c0: 18346a 1a2835 1a6086 1a9e39 1ab0cd 1d63d6 1e757c 1ee9f2 20a5d8 20f730 20f77b 20f780 2104a6 21105c 21105e 21604c 216095 216097 216099 2160ae 2160b0 2160b2 229a17 229a19 229a1b 2321a6 2443dd 244487 24457d 2466c4 246712 250944 253854 254466 264b33 270393 271599 27161c 274c00 2770db 278a13 278a44 278a46 2792b2 2792e4 2792e6 28611d 
66b670: 183054 19d919 1a929a 1a9e23 1e73d4 1eeaf5 20a5be 210f22 210f28 2115bc 2160e7 21617c 216187 216192 2161b1 2161b8 2161bf 229a53 229a5a 229a61 232e33 2443cc 244471 24456d 24679b 24a037 25081a 253cb5 263b99 26f8f6 26f907 270f88 274be8 
68a290: 17278a 1afff1 1ba675 1bd1b4 1bd205 1bd219 1bd225 1c12ab 1c1757 1c1944 1c19cc 1c1ae9 1c1b2c 1c1caf 1c1cc1 1c1dcd 1ea997 1ea9ab 1ee31b 1ee497 1eeb69 1ef149 
6d7250: 1b60f0 1cbdfc 1cc547 1cc736 1cd30d 1cd502 1cd726 1d440a 1d440e 1e15f6 1e17e3 20fa02 20fb1c 21008f 21ada8 22365b 23fcbd 244364 244548 246a92 2494a7 24fc8d 2513d3 2530de 2535ca 253e52 255ea7 256c78 256d7f 256e1c 256e87 25716c 257a0e 258ee2 25911c 25916f 2727f9 2757ea 27741b 2785da 284c0c 285d8a 
6f42d0: 144bd1 1644b7 1674e8 1676a8 16776d 1686c9 168732 169d59 169dc1 171272 1716bd 171a9a 171b3d 171bca 171bd3 171e5d 181be2 181f83 1820b8 182d18 18d682 18ee8a 1904a3 1904a9 1904b0 1904b9 1904c4 195037 19503c 195061 19506b 196b5d 19942a 19942f 199436 199920 199926 19992d 1a0001 1a02c6 1a28c0 1a584d 1bd1cc 1bf47a 1c0a38 1c3085 1e3fb5 1e43a3 1e7d50 1ef60b 1f01e5 1f0e1e 205f2f 206218 2187fe 21ab0a 22ea1d 237a2b 23915b 263ea4 26b966 26b972 26b977 293d94 293d9a 296d89 2a572d 2a7caf 2a7cef 2a7f40 2a8186 2a8593 2a9496 2ae319 2b32d6 2bf8d3 2bf99b 2c0675 2c067b 2c0a02 2c0a10 
6f8eb0: 17234a 1a2a9b 1a2c47 1a30b2 1bfa50 1bfa56 1bfa5c 1c200d 1ca12b 1d988a 1eebcb 1fc612 20962e 209632 2106dd 210715 210eb9 210f76 217ade 21aff8 21b042 21c337 226c46 228ad8 228c28 22916a 2293b8 22dfc2 23ee82 246780 246793 24a191 24a253 24a255 253e06 259d3f 259e66 259e6d 25cd7a 262336 26f882 273c91 273c97 2749ca 2782a8 278a70 284d45 284ef9 2c2eee 
6f9640: 172348 1816c4 1a2ccf 1a2cd2 1bfa48 1bfa4e 1bfa54 1bfa5a 1c200a 1ca129 1d9888 1eebc9 1fc610 20962c 209630 2106db 210713 210eb1 217adc 21aced 21c335 226c44 228ad6 228c26 229168 2293b6 22c7d7 22dfbf 23ee80 24677d 24678e 24a18f 24a226 253e00 259d3c 259e63 259e6a 25cd5e 262334 26f880 273c8f 273c95 2749c8 2782a6 278a6e 278ab5 284d41 284ef3 2c2eec 
6fcc70: 168d38 168d4d 170543 1718ad 171db3 1a5a4f 1bf358 1bf368 1c01a2 1e3f39 1e79de 1ea9f4 1eb1fd 22ace7 22ad55 2331d1 23921d 239247 239291 264025 264035 28cd98 
6fe150: 101b15 163ce6 165674 17164e 1718be 172862 18dc8f 19e917 19f40e 19ff3f 1a00b9 1a1af4 1a90da 1c33a7 1c3aef 1c7c16 1c7dfe 1ca190 1d97f4 1d98c9 1eb83e 1ebd3c 1ebdb2 218e3b 21fae6 25d37a 29f5bf 
7015d0: 101b23 101b49 156033 165750 165f62 16607b 1685cb 168b63 168c47 168cd2 168d43 168d58 171660 171db8 17edbe 181bdc 1907bc 194fe0 194fe4 194ffa 19d62a 1c079a 1c0a57 1c0c9b 1c3b0d 1c3ba2 1c66b2 1c66b6 1c6708 1c7306 1d9836 1de32f 1de416 1e2088 1eb251 1eb297 1f014a 1f015a 1f0160 1f0168 1f0170 1f0194 216987 2181f4 2181f8 218cb5 224c4f 22ad3d 22ad42 232a43 237e58 23807e 23844d 238520 238cc6 239210 239255 23925d 23929f 2392a7 25d3a3 26576b 265771 266ab6 266c83 266cae 266cf4 26718e 2672c5 26755c 2916c4 29189a 29f5d9 29fa69 2a8d85 2aa7c7 2ad364 2ad370 2aea0c 2b329d 
70aec0: 101a0a 165d27 1688ca 1688d2 171211 171219 1a02bd 1c2c42 1c8985 1de148 1eabbd 1ee184 21aaf7 22ea0a 26785e 2ac6fc 2b32d0 2b32d3 2c0d35 2c1036 
7666c0: 103608 1036b3 154d32 158bfb 15a04d 15b4d8 1688db 168bc9 1d9a5f 1d9abe 1d9b33 1dba57 1e750d 1e78a0 1e78cc 1e7df6 1e7e0b 1e967c 1eb8cf 1eb94c 1ee055 21857e 26afaa 26e89b 26e946 26e9e3 2916f6 2a948c 2a94aa 2aa762 
766910: 1053a4 119c81 119f32 11a0c5 12dadf 12dc05 134553 158fa7 159b8c 159bbe 159e82 15a05b 15a318 15a677 15a9b4 1c876d 1e1ef6 1e208d 1e209a 1e226a 1e2bac 21d56f 26afd8 26c93e 26ed0c 2917b7 2c615a 2c615f 2c6163 2c6167 2c6185 2c618f 2c6193 2c61f6 2c61fa 2c6288 2c62c9 2c62da 2c62de 2c62e3 2c62e7 2c62ff 2c6341 2c6345 2c646d 2c64c2 2c64cb 2c64cf 2c64d9 2c6585 2c658e 2c6592 2c6c13 2c6c6d 
766af0: 1035f9 1036ab 10536f 10565a 158be2 158c2d 159e6a 15a040 15a069 15a09e 15a30d 15a40a 15b4d2 15eb86 160084 16285a 1e1f06 1e227a 1e7e06 1e7e92 1e8180 1e969f 1e96f4 1eb8cf 1eb94c 26aa86 26ad92 26adcc 26b469 26b6ca 26e5ea 26e892 26e8fc 26e930 26ecfd 2917ab 292aa2 2a9486 2a94a5 
766b20: 1003f4 103c70 10537f 1055c0 10563d 154a86 154b90 158c11 159862 159e5f 159e75 159f66 15a078 15a323 15a3e8 15a400 15a681 15a90c 15a9a6 1e1ec2 1e1f14 1e1f2a 1e203b 1e204d 1e2054 1e2059 1e207b 1e213e 1e216b 1e21be 1e22ff 1e235d 1e2bb0 1e2cfc 1e8186 26aa91 26ad9e 26add8 26b6c0 26c8c2 26c930 26ecf1 26ed18 2916b6 2916db 2916ec 291701 29179d 291998 291aa5 292aaf 2c6cdb 
771150: 17187d 171928 1727bb 1977cb 1bbf5c 1c3399 1c7157 1c8465 1ca1a0 1de163 1de25d 1e3fd8 1eb894 1eb8ba 1ef24f 21d7c1 233618 23cd43 263fb7 2a3ea4 2a41d0 
776f00: 10fddc 10ff98 1108b7 110b4b 111600 112884 11323b 12a26f 12a2aa 12a811 12b0e5 12b187 12c81b 12c8d9 1918df 19196b 1919b7 1919d9 191ae1 1975f4 197a20 2c4ff3 2c504f 2c50c2 2c51a8 2c52ac 2c52d1 2c54cd 2c5661 2c56b5 2c585d 2c5b6d 2c5c83 2c5deb 2c5f31 2c6182 2c62cf 2c6452 2c64b3 2c6582 2c6649 2c66ea 2c6709 2c670c 2c67cf 2c68a1 2c68db 2c6999 2c6aeb 2c6b1d 2c6b4f 2c6ba1 2c6c1b 2c6c77 2c6cca 2c6e11 2c6ea5 
776fa0: 10f56c 10f834 1100b4 1100ce 113223 12a91a 12a933 12b171 12b716 12bee8 1919c5 191a8f 191ec5 191ee3 193f13 194067 197508 2a47d6 2c6284 2c62c6 2c62fb 2c633c 2c6469 2c64a8 2c685f 2c6c69 2c6c73 2c6cef 
78f3f0: 172639 1726ae 18dc4c 1911b4 19156d 1a5db9 1a9e45 1aa280 1e3f2f 1e772d 1ebd78 22ab1a 24f859 252513 256c33 270639 271721 27710f 27721d 27a724 296201 2a0d3e 2a0dcf 
793dd0: 163c94 163c9c 1815a4 1815b8 18cef4 18dae0 18daf4 18db02 19b134 19b20d 19b21b 19b21e 19b2ee 19b303 19c0ed 1b94b4 1b94bc 1b983c 1b9845 1ba165 1ba1f9 1ba211 1ba4f5 1cbb3c 1cbc18 1cbc22 1cbc30 1cbd29 1cbdd1 1d92a1 1d92ad 1d92b8 1d92c5 1d93cd 1d94fe 1d950b 1e4531 1ea29c 1ea319 1ea8c8 1ea8f4 1f976d 1f9902 2087bc 2087c4 2087cc 208810 20890e 20898c 208a9c 2093dc 2312fc 231899 232314 23f970 23fb89 23fbf8 23fc44 23fc4c 24d484 24d4bd 24d4de 24d4e4 24d698 24d6b0 24d6e4 24d6ec 24d7ac 25a8a0 25a8a8 25aded 25adf9 25ae00 2618e0 2618f4 26eff4 26effc 26f056 26f05a 26f05d 26f134 26f140 26f180 26f188 26f190 26f198 26f1a0 26f1a5 26f1aa 26f1b0 26f1b8 26f1d5 26f1dc 26f1e2 26f1e8 26f1f0 26f1f8 26f200 27b2a8 27b2c1 288404 29474d 294752 294814 294829 29482d 296196 2a0b66 2a0b6e 2aed99 2aee75 
793ec4: 16451f 16f61b 17087f 172774 181b6d 183491 18d744 1917b0 1917b8 1917cd 19ddd0 19dfd8 1a0e4c 1a0e54 1a2855 1a6091 1a999e 1ab1f2 1b9836 1bc37c 1c2a60 1c5da8 1ca330 1cb5a3 1cd219 1ce172 1d1095 1d3b2f 1d68e5 1d993c 1d9944 1d9954 1da05e 1e1dd6 1e414f 1e75c1 1ea445 1ea44b 1eb674 1eb804 1ebfc5 1edab8 1edb04 1ee934 1ef1b1 1fc650 20a613 20dfd2 2122a5 215cc2 21679e 223ee5 223f15 22c0a2 22c8a1 22cd0d 22cd28 232933 234b29 240b97 240c07 240cd8 243a2e 2445e2 247d8a 24f838 2502cc 25095e 250b9c 2512dc 251f6b 25317e 257a49 2580ab 2586af 259070 259dde 25b97c 25d2e7 260083 261ee0 262448 264d2e 270398 2703ad 270612 27069c 271050 271864 272e9c 274b17 276788 2770e5 2771f1 278a67 279306 2793b5 2797a4 279c1c 27a74a 286127 2872d7 28b560 28ccfb 296246 29de06 2a0cf1 2a3e95 2a4ce4 2a592f 2aec6b 2b1b68 
7a85b0: 16eb5c 1733fa 183460 19ad87 19ad8c 1a2805 1a2811 1a2814 1a281a 1a2820 1ab196 1ab1a1 1ab1a4 1ab1aa 1af923 1bd542 1c8482 1e190b 1e3fed 1e7572 1edcc6 1eea63 20f737 20f762 20f7b4 20f7c2 223cd2 2274c0 227d6a 23b560 23fad4 249d26 273d55 273e3d 29f541 2aec59 
7a9ab0: 1cda6f 1d4b91 1d4bd1 1d7bb3 1d7bb7 1e15fe 1e17f9 1ec67a 1ecbfe 2100a7 215675 2165d8 227cc1 227cdf 244557 24ef84 25143c 2530e7 25351d 253997 2539a4 2539d9 25482b 255916 255cc7 255eb8 2561a1 256c87 257172 259570 2599ab 26f0f0 2727ab 272805 277435 277488 27756e 2785e7 278723 285c59 285cad 285ceb 285e35 2c2733 
7b1920: 1d5f2b 1d7c0b 1ec685 20a6c2 20a6ed 20c3b4 20c3b8 20c3bf 210338 2152ea 215671 21658d 22451b 242131 24403c 244164 24457f 24481d 24da4c 24e762 250503 252382 25245c 254921 254e88 254fa2 255227 25522b 255aa0 255acc 255ccb 25898d 259553 25956c 2595b2 259749 25975a 259811 26f2f8 26fea3 26fea7 26feec 27014c 27109e 271d9b 271da3 271ea1 271f54 2721d5 2759f3 275a61 275b79 27872d 27887a 27c62e 27c635 27c7be 2819c9 2819cd 2846ef 285455 285756 28575d 285aee 285b86 28609d 
7b1f70: 1b61d4 20e000 2102e9 211f74 223714 243ce2 24f43f 24f4a0 2504c2 253702 2550f1 257699 257bba 259276 275809 27580c 275899 2786ac 2786bd 2786ca 27c656 284459 2850f6 285235 285268 
7b2230: 208e44 210209 210212 212a89 212a8d 2149b7 2153d4 25021c 250cd7 250dbb 250e6f 253923 253b4b 254821 25509f 255928 255cc1 259448 259546 26f33a 27869b 2786b5 2786cf 
7b3cb0: 1411be 1411c6 1412c5 1412cf 144baa 144bbb 144bc5 169d3a 169d44 169e1a 169e24 17340d 176675 176681 17668e 17ab29 17da96 17daa0 181ba6 181e97 1820e1 182e69 18d679 18d687 19dfc6 1b57e0 1bd0b9 1bd11c 1bd142 1c1286 1c2ba4 1ed0e2 1ed48a 1ed560 1ed69f 1ed6bb 1edcc0 1edccd 1edd33 1ef94b 1ef98d 205ed2 20c9c6 2117f7 212263 2166a3 229073 22b387 22c19b 232140 236fea 23ed6e 243f34 24413f 244381 249cae 255ec7 255f41 273c83 273c89 280189 2810c9 282e4d 286207 29c17d 2a55b1 2a7cca 2a7d3d 2a8059 2a8074 2a823d 2bba27 2bba4d 2bf3f2 2bfc16 2bfe19 2bff6e 2bff78 2c00a7 2c00c2 2c3065 2c3281 2c32c2 2c42f3 2c436f 
7eb970: 17375c 18725c 187288 1872a7 1872b8 18cee3 190ce7 19d95a 1a9cf9 1af7b7 1af7c8 1af7d4 1bc47c 1bc5ae 1bcef1 1bcf12 1bcf19 1bcf20 1bcf27 1cbfa1 1cbffd 1cd916 1d185a 1ed858 1efdc4 208dce 208dfc 209566 209680 209b57 209bcd 209bd6 20a4ce 20fa7a 210718 2111f0 21635e 2163d9 217025 217090 217101 21acc4 21accb 21acd5 21acdc 21ace2 21ace8 21d1e2 2269b6 226a26 226bfe 2288a6 228e86 22c194 22c1a2 22c1a9 23198a 23e296 23f418 23f93c 2498bc 249bc2 249c06 2596bb 25b069 25b36d 25e3f5 25e3fa 25e3ff 25e404 25e409 25e40e 25e413 25ed94 26259b 262604 26f3ee 26f44d 26f50a 271492 2714ee 271690 2716b2 271e23 272b23 272b78 272c30 285d53 28730c 287313 2a3dc3 2bcce4 2bcd22 2bcd34 2bf95e 2bf970 2c2543 2c30a9 2c30d7 
7eb9f0: 100110 166205 166451 173258 18192b 1830d6 1830dc 1871d9 18733a 187401 18763c 187a8d 187ad0 187b20 18ce3a 19cc6e 19cc76 19ccaa 19ccb4 19ccbe 19d1c1 19df92 19eff2 19f1eb 19fb5d 1a1b0d 1a28db 1a2b12 1a2ddc 1a7ef2 1a7f81 1a7f84 1a7f93 1a8197 1a9250 1a9255 1a925b 1aa270 1aa345 1aa35b 1aa381 1aa3f9 1aa4ca 1aa504 1aa660 1aa69d 1aa8dd 1aa9aa 1aaa99 1aaf3c 1aaf47 1aaf50 1aaf57 1ab42a 1ab431 1ab798 1af7e6 1af9d5 1afac8 1b4e8d 1bcb66 1bcb6c 1be57b 1be597 1bfa37 1bfa43 1bfc72 1c1fcf 1c56ba 1c58ae 1c5d14 1c7bf9 1c7ca4 1c7ca8 1c7cad 1ca124 1cd863 1cdb1d 1ce0b8 1d0890 1d61ff 1e462e 1e4d26 1e73f4 1eaa2b 1ed0c3 1ee231 1ee96a 1ef2f3 1fcada 1fcaf5 209628 209634 209a78 209b61 209e8d 20a6e4 20a6f6 20a702 20e308 210710 210e5a 210e5f 210e6e 210ead 211381 211875 2129d2 214339 216697 2166b4 2173a0 2173ae 21741c 217865 2178b0 2178b3 2178b6 2178fb 217ad7 21acc0 21c2bd 21c318 21c32f 226ce8 226cef 228ad1 228c21 229163 229215 229219 229281 2293b1 22bb64 22def5 22e626 22e784 235184 23b344 23b34a 23b399 23b3a2 23b3a9 246515 2465e1 246c2a 24a056 24d537 24d644 24dc18 24e024 24ef4e 24f7fa 24f800 24fbbf 24fbc9 24fbce 250645 2513a8 2513ae 251732 253070 253076 2534a2 2534a8 253cac 253d75 253d7d 253d92 253da8 254012 2543fe 259cd2 259e4c 25b07f 25bc5a 25cd6b 25edb7 25f07e 260010 260017 26002e 260154 26015b 261bbd 263b90 26f873 26f87b 2700da 270f31 2710b7 2714e3 271d28 2727c4 2749c2 27a76c 27a76f 282055 28207c 2962b8 2962d0 29f483 29f4b7 29f57d 29f580 2a3d61 2a3dae 2cd248 2cd2ec 
7ec180: 1725a0 1725a6 1725c5 17325d 18305a 1874de 187a8a 187b11 187b15 187b19 187b1d 187b65 187b6c 187b70 19ac21 19adbe 19adc3 19fb57 19fee2 1afa11 1b4e7d 1bcb75 1bcb98 1bfa3d 1c1fe3 1c5323 1c58b2 1c6d40 1c7bd1 1c7bd8 1c7bdc 1c7be1 1c7be5 1c7bea 1c7bf0 1c7bfd 1d63f3 1d64b2 1e4635 1e4639 1e4d2d 1e73a9 1eb123 1eb12c 1eec71 1ef2ac 1ef947 209638 210245 210e55 210e64 210e69 210e8f 210e94 210e99 210e9e 210ea3 210ea8 214345 214351 214356 214363 21611f 216127 2166cb 21720f 21786a 217e98 222566 2268bb 2268eb 2293a4 2293aa 22c16e 23316d 23b35b 23f1ae 24e02d 24e035 24e041 24fbc3 251212 256c08 257139 257956 257960 2579c2 263b8b 264be7 27452b 2745ca 279322 27a82f 284bb3 284bbc 284bc4 284bcc 285d35 285d6f 285d7b 285e12 296749 29f562 2a0ce8 2a3dcc 2a3dd0 
80d320: 21bc85 21bc89 21bc8d 21bc91 25b146 25b14a 25b14e 25b152 25e033 25e09b 25f94a 25f94e 25f952 25f956 25fae2 25fae6 25faea 25faef 25fc6e 25fc76 
8224c0: 20894c 210515 210544 2106e9 210731 21089b 210990 210a67 210b17 210b52 210bfd 210d5c 210d6a 210d6d 211011 211031 211126 21114a 2111a3 21123e 211291 211294 2113bf 211462 211489 211795 
899ff0: 1733da 19164c 191651 1a5dea 1a5df0 1d691e 1d6923 226d77 243dae 243f77 243fc9 24ee71 24f866 24f881 24f898 252bf0 2561a8 2717b6 272160 27426a 27426f 277445 277498 2c3053 
8a3420: 172963 1729cd 172aa1 1cc705 1cd68f 1ce138 1d4403 2179c6 21c5f4 21c71e 228d94 22904d 22906e 22a80e 22b667 24f9dd 24fa1c 256d8d 256f3b 271d0d 2720ed 
8db300: 1fc633 1fc638 250930 250935 25093a 257a2c 257a31 257a36 257a3b 270669 2757cc 2757d4 2757d9 2757de 2789f3 2789f8 2789fd 278a02 278a07 279293 279298 27929d 2792a2 2792a7 28629c 
8eb550: 1bd506 2229c0 222aff 222c03 23ae9e 23afb6 23afd7 23b013 23b0dd 23b119 23b322 23b8dc 23b951 23ba33 23ba68 23bb57 23c05f 23c08b 23c6d4 23c86e 23d671 23dcd2 23ddec 23e2c3 23e841 
919170: 1cdb8d 1cdb95 246525 246533 2465d3 2465f3 246609 24681d 24975b 249769 249861 2498fc 249a44 249a5d 249b96 249ba1 249ba7 249bab 24a1c3 2c2f23 
97de30: 169cc9 16fd6a 170663 1721a2 1911c5 1911c7 1d9803 21bc94 25f8b8 25f959 25f9d9 25fadf 25fb78 25fdfd 25fe0c 25ffbd 25ffc2 2a81a2 2a8643 2a864d 2ae993 2ae9be 
9804f0: 170755 172567 183020 1835df 18d6a2 191043 1915a1 19d94c 1a9cdb 1aa30a 1aad7c 1ab1e5 1af9f5 1c5d0d 1e1bcf 1ed6de 1ee921 1ef1a3 1ef5d9 21c2c3 261b99 26232b 
9862b0: 1815a0 1815b4 18dadc 18daf0 18dafe 1b94b0 1c2a63 1e4087 1ea298 1ea8f0 2093d8 22cb3c 22cb7a 22e288 23e4f7 23ee52 2618dc 2618f0 27457c 2745f5 
9beda0: 26fc08 26fc5a 26fc71 26fcad 26fd57 26ff0c 26ff18 26ff24 271c14 271cf9 2727b1 27280c 272816 272840 2728de 2728e7 272941 272a89 27404e 274057 27406b 274181 274252 2744fb 27455d 2745a3 2745db 27495e 2785f2 2786d5 278c73 278ce5 278d9c 278f5b 278f75 278fb6 27904f 27906b 2790dc 2791c4 
9f24d0: 16fd12 16fd1b 16fd79 16fe2e 1819b9 187917 1bfe97 1bff3c 1bffba 1bffd3 1c001d 1c00ff 1cd698 1cda19 1ce069 1d6914 1ebf9d 1ec09a 1ec0b5 1ef673 1ef793 20e1bb 2179a9 2179d9 217a2d 217b17 2273f6 228c5f 229402 22a439 239d76 23af25 23b26e 23bae8 23f59c 249fd7 26f8b6 273bfd 2742f2 274548 2745e5 284fe5 2860c7 296642 
9f25b0: 1bfc2a 1bff34 1bffed 1c0007 1ead9b 20a12a 20a247 2106f9 2109d5 210aac 210c28 210da6 21b084 21c73d 228af2 250a99 250aba 250ad3 2536b3 255a2e 255a48 273b49 
9f88d0: 16983f 16fd86 16fd8a 16fda7 17056e 18382a 19118b 19152d 191537 191584 191672 191675 1bfa6e 1ce04a 1ce052 1ce057 1d0fe5 1d4c1c 1d619c 1ebf53 2273bc 2273e1 2273e9 2273ef 227401 229697 22970f 22a70e 22a725 22a77e 22abc1 22abd2 22abd5 22b92d 23b457 23dbcb 2507b1 2507b5 2507bc 278c24 278ed0 2791fa 2791fd 29650b 296514 29651b 
9f9090: 101d17 10215c 1d7bbb 1d7bc0 20c327 20c3a7 212b27 214458 2149ab 2149af 2149b3 21519b 2151a8 2151ac 2151b0 2151e1 2153b2 2154cf 215534 215538 21553c 215551 2155f1 2156ed 21574c 215779 21577d 215781 243cb2 243cbc 243e45 24f607 24f66b 24f66f 250217 250274 250278 250303 250307 25056d 253b9e 254c84 254d24 255007 2552c6 2552cb 2552d0 255ccf 25622b 2569b1 2576d7 2577c7 2587bb 2587bf 2587c3 2587c7 2587cb 2587cf 2587d3 2587d7 2587de 2588d6 2588da 2588de 2588e4 27216d 272237 272434 272a23 272a31 277b28 277da2 278220 27838f 284455 2844c9 2844d8 284601 2846bd 284a0e 284a1a 284a1e 284a22 284a26 284a7c 284a80 284b42 284b48 284b7d 284b81 28506e 285080 28511b 28512f 28518a 2851c0 2851f5 28527f 285292 2855c0 285625 
9f96c0: 1d0a63 1d0b5d 1d1431 1f30a0 1f30a3 1f6f33 1f7466 1f822e 1f8233 214a01 214a4b 233861 2421b5 244082 24e6d4 24e7b4 24e7b7 24e8ae 24e9e8 24e9eb 251ba3 252305 252308 25259c 254a8d 29fc04 29fc15 2a1b3d 2a1b40 2a4de8 2ada4f 2ada53 2bdcee 2bdcf1 
a01880: 17ee84 209c0a 212408 21240e 212644 21264b 212652 2126ca 2126d1 2126d8 212913 21291a 212921 2129b2 212a2a 212a31 212a38 215346 21543e 24f560 250469 25046c 25049f 2504a3 250548 250554 250598 25059b 2505a1 2505b3 2505b7 2710a5 271194 280736 
a056c0: 183bba 1880fc 188148 1d146d 1d18d2 1d18d5 1d1a45 1d1a52 1d6870 1f047a 1f0481 1f05b0 1f32ac 1f32fb 1f33d4 1f3707 1f3738 1f373b 1f37ac 1f37c1 1f37d3 1f3d80 1f3dcd 1f3dd7 1f4b59 1f4bfb 1f4ca9 1f5422 1f7593 20a6fa 20a706 211c90 23521f 2352c2 2352d5 235351 23546a 23554b 235558 2421f1 24e901 24e995 24ea03 24ef49 2523ff 2560a2 25623d 256265 256c93 256f1f 25737f 25981e 25982b 272287 2722f7 274c55 274d3a 276ed1 282d8b 284b3a 284b71 284de6 2a4e55 2bdb7c 2be321 
a096d0: 1d0b25 1d0b39 1d0b97 1d0b9b 1d0cb3 1d1765 1d17c3 1f0cb9 20bdc4 23529f 235426 235433 235440 244456 24e99c 24ee76 252409 25268c 25604b 256098 256e47 256e4b 256f2f 256f72 284de4 285149 285978 
a70b10: 1817e0 181816 18337e 183381 190f14 19ceb7 1bd1ae 1c1892 1c1896 1c189a 1c1b3a 1e1d91 209e4c 20a239 20a23f 21053c 21060c 21081a 210a4d 210a74 210ac0 210b6b 210c0a 21448e 21476e 2147e5 2147e7 232fd3 232fde 232fe9 23afdb 23b0cf 23b1ae 23b1da 23b211 249e3e 24fa8a 252d0f 253fb4 2543e0 2546dd 25b645 25b99a 25b9d2 25b9d6 25c97b 25caaa 25e487 25ffac 2711b8 278f1e 278f24 283c05 
a70e50: 16448f 1660d3 1660f4 182b73 182c8a 1836e3 1873ae 18744a 18749e 1878f4 19bfdd 19fcca 1a869b 1a95dc 1ab20b 1ba3e1 1ba3ec 1c1e53 1c502c 1c5519 1c5578 1c55e2 1c55fa 1c6e08 1c8753 1cd9c0 1cd9e8 1cd9ec 1cda07 1cda0b 1eaefa 1eaefe 1eaf8d 1fc9f0 210634 210c93 2178f3 221285 2236b1 223730 2247b4 227cab 22a408 22a687 22a942 22a96f 22b012 2327bc 239ff9 23a004 23a023 23a0f9 23b2dc 23bb29 23d08e 23d60b 23ef0e 24662e 246632 24664a 246995 246a0c 246a8c 246aab 246ab0 246aca 246ad1 246b12 246b83 246b8a 246bb6 246bf1 24948a 2494b6 2494ef 249523 249773 2497b1 249959 249f86 24efb0 24f56b 24f57f 24f583 24fcd2 24fd05 252d36 252d5c 252fdc 253d02 253f8f 255473 255b3b 25a87f 25befb 25beff 25e253 25e25a 25e9eb 25ea68 25ea70 25ea74 25eb14 25eb6f 25ebae 25fbd7 2601ea 260202 26445d 2666a7 2666ad 2666b4 26f009 26fabf 26fb05 26fc5d 26fc76 26fcb2 271cfd 27281a 272946 273fce 273fd7 27406f 274078 27407d 2740c1 274962 2785ec 278ceb 278d7a 278dd5 278f61 278f6c 278f7b 278fbb 27902b 279055 279063 279071 27907d 2790e0 2791c8 2a0e21 2ac8a3 
a73680: 1837d6 18cccb 18cccf 18ccd3 18cd28 18cd2c 190f21 19fdde 1afa6e 1c1b31 1c1e57 1c55ea 1c55f0 1c8789 1d61af 1e1dda 1eb33a 21063f 214606 21b30f 21b32c 224dca 232e88 232ebf 23a61d 23b0d5 24d79f 24fcf4 24fe95 2501e3 258efc 258f19 25a889 25a899 25c72b 25c746 25e453 25e47d 25eabc 25eafc 25eb7c 25f70e 25fa5e 25fa62 25fa7f 25fa83 25fa87 25fbd3 25fc04 25fc08 2643e4 26fc64 2740d4 277573 2778bd 278cf2 278cf6 278f82 278f87 278fc1 278fc4 2823ae 2823b1 
a73d90: 18185c 182b67 182c7b 18308e 1831ce 183282 183637 187332 18cd30 190e62 190ef3 190f0b 19bd22 19bf41 19bfe5 19c06a 19d252 19d255 19d928 19e8a4 19f120 19fb68 19fbc9 19fc10 19fcda 19fd3a 19fdc8 19fdd8 1a7ee7 1a9cbc 1a9ef9 1a9f03 1a9f4d 1a9f80 1a9f83 1afb20 1b963b 1b963f 1b9643 1ba273 1ba3f6 1c18a8 1c1948 1c1d9a 1c1e3f 1c1ed2 1c1ed8 1c1ef2 1c5472 1c5475 1c55ca 1c55d3 1c55d6 1c55f4 1c560a 1c878c 1cd6bc 1cd775 1cd9f0 1cda8a 1cdaf5 1cdb4b 1cedb0 1d4a97 1d4c50 1e1c62 1ea99b 1ea9b2 1eb34c 1ee31f 1ee49b 1ef5a7 1ef5b2 1ef5ec 1fcaeb 1fcb07 2094e5 209e61 2109a7 21124f 211255 211262 211280 211312 2113d6 211497 2114e8 2114fb 211508 21211f 2129de 214689 21469f 2146a6 214764 21476a 2147d9 214805 214834 2148fd 2178f9 21ab57 224df0 224f87 228916 22bbc1 22c538 22ea64 232e98 232ea5 232eb2 23a0dc 23b0aa 23b33c 23b9f2 23d608 23fc79 23fcba 241acd 2464d8 246502 2465a8 2465d0 249ebf 249f23 24d85f 24ee84 24ef9e 24f00a 24fc5c 24fc68 24ffbd 25014d 250159 250be8 250ccb 250daf 250e63 25140b 251418 2516d4 2521c0 25352e 253d08 253ddb 253df2 253e8a 25400e 254368 2546c8 2556c3 255784 2557e8 255840 255b20 255eb0 255eb3 255efc 255eff 2561b7 256ccb 256d6b 257020 259d26 25a886 25a893 25a896 25b1c2 25b28f 25b2ce 25bf12 25bf18 25c063 25c455 25c728 25c73c 25c743 25cdca 25cf33 25e1a4 25e478 25e57e 25ea62 25eab5 25eb0b 25eb0e 25eb75 25fa66 25fbdc 26019d 261be7 262149 2643d5 26facb 26faef 26faf3 26fb1b 26fb33 26fc0b 26fc7e 26fc85 26fcb7 26fcca 26fd6a 26fd7f 271105 27112b 27114b 271157 27286e 272873 272923 272929 27294d 27295e 2740d7 2742d4 274967 27496c 275586 27744d 277450 2774a0 2774a3 2774f2 277579 277913 278caa 278cb2 2790ed 2790f3 2791d5 2791db 282067 28208f 2822da 2822de 283c00 
a742a0: 1815e7 181609 181617 181785 181908 1821d7 1821da 1821dd 1821e0 1821e3 183028 183069 18306e 187328 187b77 18d69c 190e34 190e37 190e3a 19ccae 19d1aa 19d906 19d93e 19fb4f 19fb52 1a00fd 1a7ed5 1a7ed8 1a85c1 1a9bf5 1a9bf8 1a9bfb 1a9bfe 1a9cb0 1a9cd7 1a9da0 1aa40c 1aa411 1aa416 1aa41b 1aaf41 1aaf53 1af9fa 1bc598 1bd86d 1bd871 1bd875 1c52fc 1c52ff 1c5302 1c5305 1c5308 1c5318 1cd847 1cd960 1cdb21 1d6159 1d61f5 1d63e8 1e1bd2 1e1bd8 1eb11a 1eb12f 1eb132 1ed7b4 1ed7b7 1fc61e 209504 20952f 209533 209eb6 20a252 210701 2108f6 2108fb 210eb5 2112de 2114be 2114e1 2114ee 211519 211533 211546 21154d 212105 214359 21435e 21465f 214683 214800 214827 21482f 21485b 2148f9 214902 2160ea 217877 217c4f 217c52 217e8d 21883e 223644 223647 228864 22ad79 22bb5f 22c14f 232e1a 232e22 23ea4f 23eacb 23eace 23ead1 23eefe 246519 24651c 24651f 2465e5 2465e8 2465eb 2467a3 246c2e 246c31 246c34 247d1a 247d1e 247d21 249e29 24a015 24a01c 24a062 24d85b 24e038 24eb08 24fbd1 24fbdb 24ff31 250151 25015f 2502ba 250823 252cac 2534fe 253ca1 253cc8 253d89 253d9f 253dac 253e03 2556ad 255b6e 256c0b 256c0e 257126 257346 258fa7 258faa 258fae 259d4e 259e5b 25bbcb 25bc62 25c05b 25c9c0 25c9c5 25cd59 25cdd9 25e194 25e61a 25e929 25e92c 25e92f 25ec13 25ee1a 25ee1e 25ee22 25ee26 25ee2a 25ee2e 25ee32 25ee36 25ee54 25eeaf 25eeb2 25eeb5 25eeb8 25eebb 25ef3d 25ef40 25ef43 25ef46 25ef66 25efcd 25efd0 25efd3 25efd6 25f05c 25f05f 25f062 25f065 25f068 25f087 25f08a 25f882 25fb42 25fe21 260003 260144 260467 2604cc 261bd1 261bd4 261bd7 262345 26f2e9 26f2ec 26f8ed 26f921 26f924 26f92c 26f92f 26f937 26f93a 26f942 26f945 26f94b 26fb16 26fb2e 26fbcb 26fbce 26fc1f 270fc7 270fcf 270fd7 2710be 2710c1 2710c4 2710c7 2710ca 2710ce 271541 2774a6 2774aa 2774b5 277576 278a8c 278a8f 278a97 278a9a 278b39 278b3c 278b8f 278b92 278eab 278eae 278f2c 27c7b0 283c42 285d2a 29dd7f 2c2ddb 2c2de1 
a74680: 1836be 19fb85 1bd4af 1bd4b1 1c16bf 1c16c3 1c16c6 1c1955 1c1b3c 1c1b3e 1c1e0c 1c1e10 1c1e14 1c1e2b 1c5340 1c537f 1c5381 1c54c4 1c569b 1c569d 1c6e27 1c6e4e 1c6ed8 1c78ab 1c7f9a 1c7fc3 1c82ec 1c82ef 1cd906 1ea97f 1ea987 1ef423 211864 212107 21ab82 22bb80 22ea43 23af99 23b175 23cb8a 23cc17 23e024 23e026 23e04f 23eccc 2466cb 24d75d 24d911 24d913 253e3f 25a69c 25a86d 25b189 25b257 25b310 25c5c9 25c78b 25e974 25e9b2 25ef23 25ef25 25efb3 25efb5 25f002 25f004 25ff03 25ff06 25ff09 25ff9f 27c7a8 282469 285acf 
a74700: 1cbddc 1ed7d1 2336c5 2336cb 2336d1 24d410 259d57 25a72d 25a743 25a74e 25a7e5 25a7f0 25a7fb 25a806 25a821 25a837 25a842 25a84d 25aba4 25abaf 25abba 25abc5 25abd0 25c4e7 261eb4 261ec7 29d39c 29d447 29d4c4 29d623 29d66d 
a752f0: 1815ec 18161a 18309a 190eab 19fc44 1a83f6 1a83fb 1afa29 1c533e 1cda2a 1e1c11 1e1c25 1e1d99 1e1dab 1eb3a2 1eb3a5 2108f9 210abb 21ab7a 22bb7e 22ea37 23b076 23b117 23f251 23f354 249e79 25a9ea 25aa47 25aab0 25bab1 25c05e 25c618 25e972 25f8b2 25fb73 25fe35 25fe7b 25febb 26050c 26fc26 2727f3 2727f6 274982 274989 278c12 278c15 278f30 27c7ac 
a759a0: 1830ba 18343c 183440 183444 183448 183471 183474 1874db 190fe2 190fe4 190fe6 19d965 19fc90 19fc92 1a0209 1a9d03 1a9db6 1a9e3b 1a9e3d 1a9e3f 1a9e41 1ab1c2 1afab1 1c2176 1c217b 1c217e 1c5390 1c5392 1c5394 1c53d6 1c53d8 1c5d9f 1cd893 1cd8e8 1cda2c 1d61e3 1d62c9 1d6470 1d6472 1e1dc5 1e1dca 1eea4a 1eea4d 1ef310 1ef313 1fc623 210540 210612 210618 210975 210abd 210ac3 2111e4 211316 21133d 212173 2143e2 2143e5 21604e 2178a3 217ed5 217ed7 21884a 21b31a 21b322 21b32f 2235e7 2236f1 2236f3 22ada1 22bc80 22c5d1 22c5ec 232192 23219c 23e90e 23eb76 23eb79 23eb7c 23ecdc 23ecdf 23ece2 23ef48 23fc5f 23fc62 23fc65 240028 24002b 24002e 240bfc 2466cd 24675e 246762 249e6d 249e6f 24a096 24d434 24d437 24d43a 24d43d 24d440 24d467 24d921 24fd32 24fd39 2502c7 250948 252d1c 2534ee 253d14 253d6a 253e30 253eb2 253ec1 253ed5 2543e4 254478 2546e2 255684 256cf8 256cfb 256fd9 256fec 257162 25733e 2575d2 259069 25906b 25abe0 25ac2e 25ac9d 25aca0 25aca3 25aca6 25acbe 25acc3 25ad41 25ad44 25ad47 25ad4a 25ad61 25b8d6 25b8da 25b8de 25b8e2 25b8e6 25b8ea 25b8ee 25b8f2 25bc54 25bdd7 25cb34 25cb37 25ce44 25ce46 25e2a6 25ebc9 25ebcb 25ebd3 25f8bd 25fb7a 25ff00 25ff66 2601d0 26020e 260508 26234f 26fc6b 2720a7 278a5e 278aff 278b02 278b08 278b0b 278b0f 278b12 278ee9 278eec 278ef1 278ef4 278f8a 2792fe 2852ec 285a7b 285d4c 285f43 29ddff 2c2bda 2c2d12 
a7d110: 183821 18cd18 19bee1 19bf22 1ab776 1bcd28 1bdb21 1bdb38 1bdb4f 1bdb66 1bdb7d 2214ca 2214d0 227632 227636 231868 23af37 23af3f 23b568 23b9dc 23bb1c 23ce97 23dcfe 23e612 23f65b 23f75a 23f8a4 25a5ea 25a75b 25a813 25a85a 25b129 25b12d 25b131 25b135 25e7be 25e829 25e85a 2600ed 2a5f9b 2c3017 2c301a 2c3433 2c34b3 
a7d180: 1821c7 1823a7 18271e 182b57 182c6a 183086 1832ae 19b8f7 19be05 19bf2d 1aa5fd 1aac60 1bcb9e 1bd6b6 1bdba9 1bdbbb 1bdbcd 1bdbdf 1bdbf1 209518 209f0e 209f26 2115dd 211601 21162e 211637 21163f 211647 21164f 21166a 211673 21169f 2119d1 211e42 211eba 21261e 2129f2 214a25 2153f0 217c48 218359 218360 21bc9b 21d186 21dfcc 21f8b1 21f8cc 221448 22b51b 22b525 232258 239c0d 23af08 23af14 23b16d 23b430 23b469 23b98a 23ba9b 23dc45 23e4c5 23e5ac 23e670 23f5bc 23f5f3 23f891 25b387 25c4b3 25d1a2 25d1ae 25d228 25d234 25db8f 25dbc3 25e3c9 25e3d0 25e3d7 25ee0a 25ee9f 25ef2d 25efbd 25f04b 263ec4 263ed7 263efd 263f4f 264050 2640ea 26f2e6 26f3da 26f53d 26f91e 26f929 26f934 26f93f 26fbc8 271ff9 272053 272961 272a79 272c63 278a89 278a94 278b36 278b8c 278ea7 2a5dc2 2a5dcb 2a5fc7 2bf5c0 2bf6a8 2c2b6c 2c2b75 2c2ca4 2c2cad 
a7d240: 18334c 183477 183479 18347b 18347d 18347f 183481 1aaf8f 1ab141 1ab164 1ab166 2104e1 2104e6 2160a7 2160a9 2160bf 2160c1 25a5fe 25acb6 25ad58 25b8f7 25b8f9 25b8fb 25b8fd 25b8ff 25b901 25b903 25b905 
a7d2a0: 18302e 183034 18303a 183040 183046 18304c 183290 1aa31e 1aa32b 1aa331 1aa350 1aaf5f 1bd9ae 1bd9b5 2115a1 2115a7 2161a0 2161a5 2161ca 2161cf 229a49 23f1b8 247d30 247d36 25edb4 25edc4 25edca 25edd0 25edd6 25eddc 25ede2 25ede8 25eed2 25ef60 25efec 25f091 263b5e 263b64 263b6a 263b70 26f90d 26f913 2c2b84 2c2c0b 2c2cbc 2c2d43 
a7e810: 1821d4 18224f 1822d3 182a91 1c12b8 1c138d 1c1559 1eb0ba 263bbf 263bc2 265a49 265a4c 265bb9 29fa22 29fa25 29fa4f 29fa9a 29faa3 29fe0b 29fe0e 29fea8 29feab 29ff92 29ff95 2a0072 2c09ca 2c09d4 
a86c20: 17ee63 1d08c3 1d0913 1d098f 1f23ab 1f32b1 1f3300 1f5c73 1f78eb 1f7911 1f794b 1f7985 1fcab9 208ce7 20a2ea 20a3ef 21236a 231bde 243f07 244093 24db06 24db67 24e9f4 2521d9 2521f8 25230d 25252b 25529f 256ae2 278745 27c4e1 28202d 282d76 2a1c9d 2a1ca2 2a1e22 2ae422 
a8cf20: 183ba3 1d0a95 1d0b50 1d0b55 1d0b6e 1d0cb9 1d14a3 1d1790 1d1c38 1d1c3d 1f05ad 1f210a 1f4741 1f498b 1f5cbe 1f771a 235228 23542f 235450 235463 235496 2356c0 24e906 24ee2a 252207 25220c 256a1f 256cb1 256cbb 28055e 281905 2a4e6a 2be326 
a95620: 17006e 17ab2f 17daa6 18ee14 1904c7 19506e 196b63 198315 198345 199432 1e819c 1e96ba 1ebf23 1ec00c 1f100e 22e155 22e36c 23f228 26b97a 293d9d 2a7d0c 2a8c71 2a94ca 
a96e50: 170074 179ee8 179f30 17a08e 17a3f6 17ab32 17daa9 17db8f 17dbaf 1eb913 1ebf21 1ebf34 1ec00a 1ec00e 22c718 22cd62 22da94 23f22c 245096 26b97e 293da1 
a96ef0: 170076 179edb 179f23 17a085 17a3ed 17ab13 17da8c 17db88 17dba8 1eb90b 1ebf1d 1ebf1e 1ec002 1ec006 22c715 22cd58 22cd69 22ce24 22d704 22dabc 23f226 24507e 26b94f 293d8f 
aee270: 170bef 1728ac 18385e 187282 19d996 19da01 1a9fdf 1aa0cd 1aa129 1aa4f7 1aa8d1 1c5e62 1d16d9 1d1878 1ecfc8 1ecff1 1ed965 1ed9c7 20b285 210e4f 21616a 2161a8 23363c 23eabc 24eafe 24ee0a 24f487 24f4b1 24f4c1 24f679 250421 252213 2595c5 2595d2 259818 259826 25e5a2 25e629 25e68b 25ec83 25ffef 26f8e1 2820b3 287302 28b219 2962d3 29631b 2a4bce 
aee3d0: 101d3c 101d4a 1e19a1 1eea8a 2099be 209a9c 209af4 209e76 21132b 21185d 212706 21272b 212930 21535f 215597 2235cd 223608 250689 26faab 271d5b 271f9e 272a4b 2bb9da 
aee520: 10217e 19df7a 1cee3b 1da2ae 1e7a18 1eaa21 1eb6ea 205a22 20661d 209e9e 209ee7 209f19 209f33 211394 211888 212663 2129c6 212a49 215453 24698f 246a06 25044f 263edf 264157 2710aa 271199 2712d0 271d35 27203c 2bb9e6 2bb9fa 
aee5ac: 1644d2 17dc8d 17dc92 17dcc0 17ee46 17ee68 19d66b 1c057d 1c0cbf 1f98f2 1fa29a 206479 2087d8 209f55 20f65d 20f6a5 20f6c9 20f6ee 212375 23fad2 23fc58 24d428 2645e8 264ef0 264f00 26ff85 26ff99 27b28e 27b29a 27f0b7 2a1b4f 
aee770: 16f378 181e8d 18218b 182e62 1cda84 1cdb45 206dd0 209a7e 209b68 2182fa 218307 22b4c3 22b4d0 237b6b 243e2c 2440c1 244315 244334 2464d2 2465a2 246b0c 246bb0 26f4d7 270096 281f19 
aee7a0: 155688 166eb9 166ffa 167226 16722a 1672bc 1674dd 1674e4 16776a 1679b4 182d98 182de7 1839a6 1839d2 183b19 183b2e 183bd2 187d2a 18ee87 198034 198264 1afe64 1c03f7 1c0400 1f133a 1f1469 2186fa 22cd3e 22d24a 22d251 22dc01 22dc06 23483e 234843 238576 2a571f 2a572a 2c09ff 2c0a0d 2c0d56 2c0d5f 2c1058 2c107b 
aef3c0: 183a67 183b0d 183bd6 1b5823 1cecc2 1cecf9 1ced23 1f0cbe 1fa812 1ff98f 1ff996 21197a 21284b 212864 23548a 23549f 2354a4 2355d9 235612 29fd66 2be2f6 
af1720: 1d0c94 1d609b 1d7b66 1d7b70 1d7bb0 1d7bbe 1d7be3 20a681 20c3b1 20c3b7 20e1fa 21020d 210216 210331 210351 21037b 2103c1 212a99 212aa1 212aa6 212b95 212ba1 212ba6 214946 214b22 214c23 214c29 214c6b 214dd1 2151e7 2153a3 2153ad 2153be 2154bb 2154c7 2154ee 2154f3 215522 215527 21552c 215531 215567 2155b3 215756 224609 224687 22468a 22468f 224731 22478e 228156 22819c 2281da 22a67b 22a6a8 22a6b3 243cc0 243ce7 243d41 243e48 24e453 24f60e 24f62b 24f642 25020f 25030b 2505ac 2505d7 250628 250632 251db8 25393d 253b91 253b9b 253bc2 254833 25483b 254c9b 254d18 254d35 255049 25543c 255a6a 255ac7 255cc5 2569b8 2576b6 2576e5 257727 2577ce 257c84 2587e2 25889c 258b7d 258bd3 2592d7 25954c 259566 25956b 259574 26f36e 27005b 272a37 272be8 2759f0 275e14 277e71 27825a 278727 27872c 278731 278879 2788b7 284464 2845af 284604 2846aa 2846b0 2846b6 2846c1 284a30 284a45 284b4d 284b89 285072 285190 2851c6 285298 2853ad 2854bf 2855c6 28562b 286097 28609c 2860a1 2860a7 2860ad 
af1820: 1d65cb 1d7c06 20c3cb 20dfe1 210359 214c59 214ef2 215702 215794 224695 224794 224821 2281d0 22a6ae 243d49 243e50 24e464 24f64c 250637 254d71 256ad1 257895 2587e8 2588a4 27006b 272c7a 277dcc 277f0b 278385 284654 2847e7 284a85 284b53 284b8f 2851ba 2851cd 28529e 285632 
af18a0: 1d6098 1d7b64 1d7bad 20a67e 20e1f3 20e2fd 210239 21034e 2103be 214995 2149a1 214b68 214b9b 215271 21539c 2245d8 224681 228199 2281d7 22a720 243e42 24f46f 2505a7 2505d4 250623 250b4b 251da3 253b8c 253b98 253bbf 254c98 255040 25509c 255592 255c5f 2576b3 2576ce 257701 2577bd 2577cb 2587f4 258899 2592d4 2599fe 2759ed 275e11 278257 278734 2845ac 284716 284f78 284f7e 284f84 2853aa 285f1a 285f20 285f26 
af1a00: 187341 190fa5 19dabd 19df13 1a85d4 1a8d2f 1c1736 1c178b 1c17f7 1c185b 1c1aae 1c1b03 1c1b8b 1c5344 1c5482 1c5592 1cd86a 1cd965 1ead12 20a138 20a1ae 2108a4 2109e8 210d21 212141 246558 24962c 249e42 249f05 249f3e 24a078 24a132 24a196 2572be 25734c 25cb81 25cc13 25e1e3 260489 271c28 27408d 274475 279190 2822f9 286191 2c2e90 2c2ef3 
af3450: 1821f5 19be0f 19bf6b 19bf78 19c5da 19c5e3 19f236 1aa2b1 1d0932 1d0944 1d175c 1d1798 1d187b 1d3075 1eb35b 1eb3a7 208cad 209b7b 209fb9 20b810 20b827 21531b 215403 21621e 2162bf 23c9bb 23d68c 23f577 23f619 23fc9d 24f968 250477 25065b 250771 2507d2 2507da 250a8b 250ad6 25221f 2536a4 2536c5 253738 253ff4 2559c3 26265e 26f0f6 26f102 274174 2742c8 
af88c0: 183ba7 183bab 1d0b42 1d0b4b 1d0b59 23522c 235233 23542a 235437 23543b 235444 235454 235458 23545f 235467 23549a 23549e 2355f9 2356c4 2be2cd 2be2d2 2be32a 2be32e 
afc8a0: 1012a7 181916 19ded9 1da27f 1e79e6 1eaa1b 1eaa87 1f005d 216940 216950 2650ab 265149 2652a3 26552c 265668 265670 2659d2 265ff1 2666ed 266bb2 2671cc 2671e1 2672a3 267383 2676cb 2676ea 267732 26790e 2bf3a0 
afe370: 166049 16fd52 16fe24 16fe3f 16feaf 170520 17071a 1727c6 182cd0 1838dc 187d23 190df1 19117a 191183 19119b 191230 19123c 19f413 19ff5f 19ff98 1a0013 1a00e2 1a01fc 1a5a8e 1a7a52 1a91a7 1ab453 1bf9cf 1c1834 1c1c55 1c3b07 1c3b16 1c558d 1c5848 1c8041 1ebd6a 1ef269 2186ba 218768 228839 22a8cd 22a95a 22abcf 22b716 22b81f 22e59b 22e63c 22e8f8 264bc3 266ab1 266e3a 267678 29f5ab 2a5896 2a77d2 2aeace 2bf901 
b094d0: 19f04a 19f055 1a9bf2 1aa337 1aa33f 1aa353 1aaf2d 1aaf31 1d091d 1d305d 1ed785 1ed79b 1ed7b1 1fc614 20a5c1 20b29a 2115ab 2115ae 2160f9 2179b3 217a8b 21acd1 23e85b 23ef4a 23f930 23f935 23fcb1 246c55 25081d 250820 250842 2543fb 256c13 256c16 256c19 259cdf 26f74e 26f84d 26f97a 27062e 270f95 270fa0 270fab 270fb6 273c9f 278b9f 278eb6 27a754 27a757 285d4f 285d63 285ee0 287291 
b0a9e0: 101a7b 1733b9 173735 1bfca6 1ce100 1fcac4 1fcac9 208e6f 2175c7 223d09 223d28 226b68 226cbf 2273f2 228ec1 228ed2 239fc1 241f35 2441df 244355 249f0c 24f9f5 2522e3 2524c4 252bdb 252c38 255ba2 255baa 255c49 275b33 27660a 27664c 276fb5 276fbf 277005 27700f 278def 279111 282045 
b13d20: 11bbd4 12159d 1318d6 133be8 155669 1559b4 15600d 156089 1564f1 193f45 193f48 1974eb 197775 2c574b 2c66ec 2c67d1 2c67d5 2c67e4 2c6b51 2c6b55 
b18530: 117560 117572 11770c 1179d0 1191d6 1191dc 1195b6 119a04 119a11 119a19 11a220 11a232 11a23a 11a242 11bb5d 11bbd0 11bbda 11d24e 11db3e 11db46 11db4e 131389 1315a7 1315ad 13181d 13182a 131832 1318c8 131ac7 1325d0 1325e2 1325ea 1325f9 132607 132939 133ba0 133bbc 133bc4 133bdd 133be4 1361f4 193f77 
b33298: 17085d 172377 17237d 172628 172731 172733 172736 17273d 17276d 172977 172a92 173225 173311 17331b 17331d 181771 181779 1819c5 1833b3 1833b5 183465 183468 18346d 1871ba 1871c0 1871c6 187297 1873e8 1874d4 1874d6 1874d9 18753a 18753f 19abe6 19ad82 19ad87 19ad8c 19bedb 19d21f 19d221 19d223 19d321 19d96c 19f05b 19f0a6 19f0e6 19f15f 19f161 19f166 19f1b1 19fc8c 19fc8e 19ffde 1a27f1 1a2a51 1a2c09 1a2cb6 1a2dbe 1a2dc0 1a2dc2 1a2dc4 1a2dc6 1a2dc8 1a2dca 1a2e67 1a2e69 1a2eaf 1a2eb1 1a5d8d 1a6001 1a605a 1a6076 1a6088 1a7f7f 1a800f 1a802c 1a8034 1a824a 1a9943 1a9974 1a998b 1a9994 1a9e43 1a9ea0 1a9ea7 1aa3f4 1aa4eb 1aa4ee 1aa4f0 1aa4f4 1aa549 1aa54b 1aa71e 1aa720 1aa9a4 1aa9cb 1aaa02 1aaf93 1aaf96 1aaf98 1aaf9a 1aaf9d 1aafa3 1ab0d7 1ab0da 1ab0dd 1ab0e1 1ab0fc 1ab10c 1ab123 1ab138 1ab154 1ab159 1ab15f 1ab179 1ab17e 1ab186 1ab188 1ab1bf 1ab1c6 1ab1d0 1ab1d2 1af90b 1af912 1af928 1af92e 1af935 1b4ea6 1b4f14 1b4f17 1b4f89 1b4f94 1b4f98 1bc49a 1bc532 1bcffd 1bd000 1bd003 1bd006 1bd009 1bd4b4 1bd519 1bd522 1bd544 1bd8b6 1bd8e1 1bd8e5 1bd8f5 1bd8fa 1bfb52 1bfb54 1bfb56 1bfb58 1bfb5a 1bfb5d 1bfb5f 1bfb62 1bfb64 1bfb66 1bfb68 1bfcb1 1c20fa 1c20fc 1c2181 1c5d8a 1c5d93 1c5d9c 1c6e4c 1c8474 1c8479 1c8488 1c848d 1c8492 1c84b4 1c84b7 1c84bb 1c84bd 1c84bf 1c84c1 1c84c3 1ca328 1ca32a 1ca32c 1cbde4 1cda2e 1cda3a 1ce14d 1ce16d 1d0637 1d0639 1d0640 1d0642 1d064a 1d06a4 1d06a7 1d06ab 1d06ad 1d06b4 1d06bd 1d06ee 1d0969 1d096e 1d0984 1d099b 1d1848 1d186b 1d1876 1d310a 1d310f 1d61da 1d61de 1d61e0 1d6233 1d6260 1d629d 1d62a1 1d63cc 1d646e 1d6645 1d68df 1d9906 1d990c 1d9921 1d9927 1e14bb 1e14bd 1e14c0 1e3ff2 1e4d1f 1e4d22 1e7577 1e757a 1e75b5 1ecfeb 1ed7e6 1ed7eb 1edaa3 1edaef 1ee2e9 1eea3a 1eea42 1eea45 1eea47 1eea68 1eead2 1eec66 1eec69 1eec6c 1eec6e 1eeeed 1eef9b 1eefa1 1eefa3 1eefa6 1eefa9 1eefb8 1eefbd 1ef2fa 1ef308 1ef30b 1ef30d 1ef55c 1ef55e 1ef560 1ef562 1f100c 1fc642 1fc644 1fc647 2088dc 2088df 2089d4 2089e4 209a83 209b6d 20a5db 20a614 20fb03 2102de 2104b5 2104c5 2104cd 2104cf 2104d1 2104d3 2104d5 2104d7 2104d9 2104dc 210964 210966 210969 21096c 210978 21097a 211038 21103a 21103d 21103f 211041 211043 211046 21104a 21104d 21104f 211051 211053 211055 211058 21105a 2111ab 2111ad 2111b0 2111b2 2111b4 2111b6 2111b9 2111bb 2111f3 2111f6 211e52 2143e7 2143e9 2143eb 2143ed 2143f0 21496e 214972 214b94 215ce3 216052 216057 21605d 21608a 21608f 2160ab 2160c7 21613c 216412 21641b 216449 216459 2164f7 21672b 21677f 216781 216783 216789 21678e 216790 21727c 217401 217458 21745a 21745d 217919 21791b 21791d 2179c0 217a98 217b3b 217b3d 217b3f 217ed3 21ad4b 21ad4d 21ad50 21ad54 21ad58 21ad5c 21ad60 21ad64 21ad68 21ad6a 21c38d 21c38f 21c392 21c394 21c396 21c518 2269dd 226b57 226d39 226d3b 226d3d 226d3f 22891f 228b7f 228b81 228b83 228c99 228c9b 228c9d 228d7b 228ed6 228ef7 228ef9 228efe 2291ed 2291ef 2291f6 2292cb 229425 229427 229429 22942b 22942d 229a21 229a25 22bc82 22c13d 22c140 22c5ce 22c5e0 22c5e3 22c5e6 22c5e9 22c7dd 22c7df 22dff4 22dff6 22e15d 22e752 22e75a 2354d8 23b549 23b554 23b563 23e90a 23ea4c 23eb4d 23eb52 23eb61 23eb66 23eb6e 23eb72 23ec8c 23ecc6 23ece7 23ee98 23ee9a 23f272 23f2aa 23f2b0 23f2f1 23f2f5 23f30e 23f312 23f317 23f31c 23fc68 240039 240045 240068 24006a 24006f 240bfa 2423ad 2423db 2445d9 245195 2466b9 2466bb 2466bf 2466c1 246754 246c68 24a0a0 24a0e1 24a0e3 24a24c 24a24e 24d423 24d458 24d463 24d46b 24d46c 24d46f 24d6a3 24d908 24d91f 24d949 24d94b 24d95d 24d962 24e1ca 24e1f1 24e250 24e359 24f261 24f82b 24f82f 24f831 24f973 24fd3b 24fd3d 2508a7 2508a9 25094c 250951 250956 2512d1 252ba4 252c08 252d0c 25316c 253174 253502 253506 25384f 253e32 253e34 253eb5 253ec7 253edb 253edd 25445a 254469 25446e 25447f 254481 256c74 256cf1 256cf6 256d01 256d07 256d0b 256d7a 256e36 25733a 25733c 257340 257342 257a3e 257a40 257a42 2580a3 259987 259db3 259db8 259dba 259dbe 259dc0 259dc3 259dc5 259dca 259dcc 259dcf 259dd3 259dd5 25abe9 25abed 25abf2 25abf7 25ac03 25ac32 25acbb 25acc8 25ad5d 25ad66 25b86f 25b874 25b879 25b899 25b89f 25b8a4 25b8a7 25b8aa 25b8b0 25b8b3 25b8b6 25b8bc 25b8c0 25b8c4 25b8ca 25b8d0 25b910 25b923 25b935 25b939 25b940 25b944 25b94b 25b96b 25b96f 25b972 25b974 25bde3 25ce56 25ce58 25ce60 25e835 25f8aa 25fb6a 25ff34 25ff3c 2600e2 260149 26014d 260515 261ed2 261ed4 26243e 262440 2625bd 263ba8 264b05 264b09 264b11 264b15 264b1d 264b21 264b29 264b2e 264b35 264c1f 26f8d5 26f8d7 26f8d9 26fa3d 27038f 27065f 27068d 270f7a 270f7c 27103e 2711f7 27152f 27158d 27158f 271591 271595 2715be 2715e5 27160c 271823 27185e 271dd6 271f3e 271f50 2729ae 273d5b 273d61 273d63 273d66 273d6f 274515 274589 2745b7 274604 27497c 274a8a 274a8c 274b0c 275b52 276638 27671a 27677f 276fd5 277031 2770b1 2770d7 2771e5 2775f9 278251 2785a2 2785a4 278a0c 278a18 278a1b 278a20 278a31 278a35 278a3d 278a42 278a49 278a51 278b25 278b27 278b2a 278b2c 278cfe 278e22 278f12 278fce 2792ac 2792b7 2792ba 2792d1 2792d5 2792dd 2792e2 2792e9 2792f1 2793ac 2793af 279c11 27a73d 27a787 27a88d 27a88f 27a891 27a945 27a947 27b9fe 27ba02 27ba04 27ba23 27ba37 284c45 284c49 284c7d 284c7f 284c81 284c94 284c96 284caa 284cae 284d50 285d48 285f46 285f4e 285f50 285f52 285f88 286107 286110 286116 28614c 2861db 2872d1 28b583 296329 296a94 296a96 296a99 29f499 29f49f 29f546 29f66c 29f66f 2a0cda 2a3d5f 2a3e8d 2a4a5d 2a4c9d 2a4ca2 2aebf0 2aebf5 2aebfc 2aec01 2aec43 2aec54 2aec5e 2aec63 2c2bc4 2c2bc6 2c2bc8 2c2bca 2c2bcc 2c2bce 2c2bd0 2c2bd2 2c2bd4 2c2bd6 2c2bd8 2c2cfc 2c2cfe 2c2d00 2c2d02 2c2d04 2c2d06 2c2d08 2c2d0a 2c2d0c 2c2d0e 2c2d10 2c2e32 2c2e34 2c3471 2c3475 2c3481 2c3486 2c34f1 2c34f5 2c3501 2c3506 2cd322 
b36240: 100536 10053a 172596 183182 183187 18ceeb 18d63e 190ccf 19ad43 19cc74 19cc7b 19ccb9 19d962 19f420 19fb8b 1a7f88 1a819c 1a9324 1a9544 1a9d00 1aa34b 1aa400 1aa509 1aa65e 1aa6c8 1aaaa0 1aaf4b 1ab05c 1ab42e 1ab436 1ab79e 1af7cd 1bd54c 1bd9d3 1be39e 1be3b3 1be3c7 1c2ba9 1c58b8 1c5912 1c5917 1c5d1f 1c65cf 1c65d5 1c65fd 1c6601 1c6605 1c6609 1c660d 1c6611 1c6d38 1c6d3c 1c6fe2 1c6fe7 1c6feb 1c6ff1 1c6ff5 1c6ff9 1c6ffd 1c7965 1c7b95 1c7b99 1c7d35 1da1c9 1db700 1db8ab 1dc54a 1e3d65 1e3d6b 1e3da9 1ed0e5 1ed564 1ed6a2 1ed799 1ed7aa 1ed860 1edd37 1ee22a 1eedd5 1efe2a 20ff6f 210103 21030a 215b47 21610e 2183df 218add 21ea9b 21f8c1 2206f7 221148 22115c 221163 22bbf1 22d567 22df05 22e58c 22e62d 231939 23194f 232b63 232efb 2336f9 23f23f 23f37d 249cb3 24f15b 2534a6 259cdd 25b072 25b376 25cb5a 25cb60 25ed9c 261bc6 26f435 26f4aa 26f863 270f37 271505 272aad 28018d 29f579 29f58a 29f58e 2a3dc9 2a495b 2aec48 2bba51 2bff7b 2cce0f 
b36750: 17127b 1a294e 1a304c 1a9371 1b55d9 1bd6bf 1be400 1c128b 1c1e74 1c2022 1c7bf6 1c7f40 1c7ffd 1c80a3 1ca5e8 1db8a7 1edcc4 1edd40 1ef950 209ee3 2128f6 2183db 21e629 21e635 21e648 21e677 21fafd 21fb03 2205e9 2205ed 2205f1 2205f5 2205f9 2206a8 2206ac 2206ea 2206ee 2206f2 22144d 22bbd2 22e6ca 2330d5 23a19d 23a6e1 23b39e 23b3a6 23b3ed 23e89d 23e91a 23e91f 23ea72 23ea78 23ea80 23ea88 23ea8c 23ee4f 267b10 271e2b 271e7f 282e51 29f593 2bba2a 2cab86 2cca20 2cd9d3 
Unique trigger count: 
1 51901
2 5860
3 1144
4 338
5 179
6 97
7 59
8 49
9 40
10 26
11 20
12 18
13 18
14 16
15 8
16 6
17 9
18 6
19 5
20 5
21 4
22 5
23 5
24 2
25 4
26 1
27 3
28 2
29 1
30 1
31 3
33 2
34 2
36 1
37 1
38 1
39 2
40 1
42 2
43 1
44 3
46 2
47 2
48 2
49 3
52 1
53 2
54 1
57 3
63 1
65 2
66 1
72 1
80 1
81 1
85 1
99 1
101 1
106 1
111 1
112 1
115 1
131 1
137 1
145 1
189 1
209 1
238 1
262 1
788 1
BTB PER SET UNIQUE ADDR: 22 15 27 21 27 22 22 12 20 27 21 15 23 23 29 28 26 16 23 21 23 20 13 13 18 24 23 16 21 15 18 27 20 25 19 14 29 14 25 19 19 22 21 19 24 17 24 21 19 19 24 24 20 23 27 13 14 26 18 21 24 25 24 26 26 17 23 16 25 23 19 12 26 16 20 21 21 13 18 21 13 12 24 18 16 15 17 24 18 15 20 11 14 19 17 16 18 18 22 16 22 23 21 21 18 18 17 20 20 19 9 23 14 21 22 27 17 15 25 22 20 19 15 24 29 19 19 14 27 19 12 17 14 16 20 17 12 14 26 15 19 15 24 19 21 27 30 18 24 15 17 18 16 22 23 16 14 15 15 25 25 24 17 18 17 14 19 22 25 18 26 19 24 19 19 21 24 23 15 16 14 22 17 23 22 17 19 23 21 18 22 16 25 13 20 17 24 25 28 21 17 16 24 19 26 16 25 17 21 19 28 19 14 20 22 29 20 18 20 23 26 16 25 24 25 18 26 17 23 18 21 20 25 15 18 14 15 20 15 28 21 13 16 19 21 26 15 20 27 19 30 19 20 19 20 23 13 20 21 22 21 18 16 23 20 10 12 24 23 20 27 20 18 22 12 25 20 14 19 18 17 13 24 25 18 20 30 12 19 19 20 22 24 26 25 22 19 21 25 21 27 29 25 18 20 19 27 16 25 18 25 19 27 20 14 25 24 22 19 24 34 19 20 19 17 18 27 22 25 24 21 24 19 18 24 19 20 17 23 26 19 27 23 19 17 21 31 16 19 26 15 17 17 19 23 27 20 26 26 18 26 20 14 18 21 25 19 25 28 17 22 24 27 14 25 17 17 32 20 21 27 12 24 21 25 18 18 26 15 19 21 18 21 14 9 19 23 18 17 21 20 19 11 15 19 20 16 18 13 13 14 21 19 12 28 18 23 22 26 17 25 21 29 20 15 17 16 18 20 17 14 14 19 18 18 21 21 20 17 20 14 18 23 18 20 19 22 24 21 23 15 32 17 18 18 16 17 21 17 24 19 19 20 19 30 16 29 14 20 20 19 23 18 21 27 18 28 19 29 17 17 21 23 27 24 21 19 14 20 23 24 20 28 27 17 22 16 24 21 21 22 12 19 20 20 21 21 20 23 15 20 25 12 24 15 17 21 22 16 23 22 19 20 22 18 22 18 21 21 28 19 18 17 22 22 17 25 21 16 17 15 22 19 22 17 25 18 16 26 25 22 23 19 22 14 26 16 14 22 20 20 30 23 17 16 10 17 20 21 19 19 23 28 29 23 22 12 22 15 25 22 21 18 21 29 13 20 22 11 32 13 22 18 16 28 19 19 13 20 14 26 25 23 22 21 23 18 24 9 20 14 14 18 19 26 17 16 6 21 21 14 17 15 13 17 20 14 16 20 21 21 24 24 20 24 14 13 17 27 20 17 18 15 21 20 18 17 17 17 19 25 19 17 25 29 19 17 17 22 24 28 14 17 18 20 23 18 21 16 19 19 18 15 22 12 26 22 13 17 20 24 22 15 23 17 23 27 22 17 17 19 16 13 20 17 19 28 14 21 24 14 27 24 25 13 27 22 23 16 16 25 18 14 22 19 31 18 19 18 21 28 19 25 17 15 28 17 24 26 18 25 12 20 27 16 20 18 21 20 20 21 22 22 18 24 23 16 19 18 12 14 21 26 19 16 21 21 18 18 23 18 18 19 19 23 19 17 19 12 17 28 20 19 20 16 25 16 25 18 14 21 16 17 20 21 21 21 22 21 22 20 14 21 19 21 21 35 19 25 18 16 16 20 24 17 22 23 24 17 26 22 27 20 28 15 21 23 17 22 23 18 22 18 17 17 22 31 18 23 24 19 23 17 27 22 23 12 27 14 16 18 14 19 22 14 17 16 20 19 18 20 17 17 15 17 27 21 24 22 26 16 26 17 18 19 23 20 23 26 21 16 23 19 23 14 20 13 25 17 20 18 20 25 13 22 24 15 20 22 19 19 22 25 21 21 22 25 18 22 20 22 19 26 22 25 20 18 11 25 22 22 20 20 20 20 22 23 21 23 18 17 24 13 16 33 23 25 20 14 15 15 20 16 19 19 19 24 15 19 25 16 23 17 16 14 22 31 20 22 19 17 23 16 17 15 16 18 21 17 21 18 12 19 13 21 20 24 16 14 12 16 18 13 26 25 14 20 19 18 31 22 23 17 23 17 17 22 24 26 19 27 16 11 18 21 28 26 26 21 16 15 26 13 25 15 18 21 17 22 25 20 19 16 20 23 20 14 14 15 22 18 26 17 11 23 14 18 15 17 20 21 20 19 25 23 29 16 18 15 17 26 23 15 19 18 22 17 21 19 23 16 23 21 25 27 23 16 14 23 13 22 22 17 19 21 16 16 19 22 19 21 24 17 12 22 16 17 27 20 15 18 21 24 15 23 19 22 10 31 21 13 19 20 23 18 26 23 27 20 17 23 22 21 19 25 21 20 25 21 15 25 13 22 25 13 23 22 30 30 17 20 16 21 22 19 16 18 17 18 12 19 14 13 25 24 22 23 19 13 17 27 16 18 20 21 22 26 20 20 23 19 19 15 20 17 22 18 19 17 15 26 15 19 20 15 21 19 25 16 24 21 21 14 15 9 20 14 20 16 8 19 23 17 19 27 18 22 24 17 25 17 20 30 15 18 21 23 23 21 18 19 30 20 11 17 12 18 21 18 13 21 24 13 21 23 17 18 22 22 23 20 28 25 22 16 20 23 17 22 20 14 30 18 12 20 18 11 27 20 17 13 24 27 18 27 17 29 20 26 22 23 23 16 12 24 16 22 22 28 18 21 20 21 16 28 17 18 21 27 18 25 20 24 12 21 19 17 19 17 27 18 13 25 14 23 22 18 20 28 28 19 25 20 22 15 21 20 22 21 17 20 17 29 14 22 23 19 20 22 24 22 15 15 17 22 21 18 25 10 18 23 15 15 22 24 27 18 23 13 12 14 32 20 18 26 24 15 17 15 16 23 29 20 19 26 17 26 27 20 20 24 22 20 22 19 19 11 17 25 16 11 19 12 23 16 15 19 22 20 14 21 16 15 22 22 11 14 16 30 21 29 16 25 25 18 13 24 23 20 14 16 18 21 21 23 24 26 10 21 17 21 18 15 21 20 17 16 26 17 25 15 22 21 22 22 22 18 15 18 23 14 15 17 21 10 24 23 19 25 19 26 19 22 14 21 20 16 16 15 19 21 18 20 20 23 23 22 21 17 25 19 24 18 18 26 12 21 20 21 24 23 11 20 12 20 15 15 17 22 22 20 21 20 23 18 21 29 23 21 21 28 22 19 26 14 14 22 16 23 25 17 18 19 19 17 18 14 27 15 21 19 18 22 26 18 28 22 22 25 24 17 22 20 26 18 21 32 25 26 21 17 25 20 28 26 21 23 22 19 15 21 23 28 18 21 19 20 25 15 15 19 26 15 9 15 16 18 25 18 19 18 16 23 16 19 17 17 22 15 21 15 18 24 25 16 20 17 12 32 22 15 28 15 18 19 15 23 22 15 20 20 16 20 18 18 36 15 19 26 12 18 14 16 21 22 13 20 23 28 19 22 22 20 25 9 18 19 19 25 18 15 23 24 22 17 18 20 18 18 24 19 27 20 21 13 18 22 17 29 16 16 20 15 14 19 15 21 18 19 14 27 23 17 16 11 21 12 24 15 23 21 13 28 19 19 23 23 18 19 16 22 14 22 17 23 18 25 21 17 21 15 23 18 23 15 25 23 13 21 23 18 17 15 17 15 23 21 12 23 19 15 29 22 22 16 18 23 19 15 21 24 24 22 22 19 15 19 14 18 21 23 20 20 23 17 19 22 17 20 16 16 24 14 25 18 26 21 23 21 20 24 22 16 16 23 18 22 15 25 22 21 18 17 25 25 19 19 26 21 16 15 20 17 28 17 15 20 17 28 16 26 16 13 26 22 13 19 21 18 21 18 22 21 13 15 17 20 23 19 19 22 19 16 17 21 17 10 21 22 14 22 17 18 13 18 20 18 17 21 15 18 19 13 18 16 16 19 14 20 18 21 14 8 19 22 19 14 15 22 15 20 10 15 18 19 18 19 16 15 14 16 22 19 23 15 22 19 24 15 15 19 23 19 23 12 16 12 24 20 22 17 17 19 12 16 23 10 19 20 18 19 12 21 16 23 14 16 15 15 19 15 20 23 25 18 16 16 17 17 16 13 15 11 20 24 10 17 22 15 16 24 23 19 16 12 20 15 16 17 21 20 17 24 19 18 19 14 16 22 11 12 22 10 18 12 21 13 21 26 17 21 25 17 23 16 18 16 17 17 14 16 14 30 15 15 25 16 16 16 20 22 14 21 20 17 20 14 22 21 17 23 15 16 17 15 28 19 13 22 15 15 21 16 24 22 13 20 22 19 18 21 22 13 22 17 20 22 17 17 19 12 34 18 32 18 17 15 15 23 17 26 18 20 19 19 13 19 15 16 12 21 29 15 14 19 17 30 20 25 17 18 23 12 12 17 16 18 24 14 15 19 20 15 20 16 17 24 21 17 16 22 16 21 23 25 14 22 19 14 20 15 17 11 19 21 15 15 15 
BTB PER SET COUNT: 61 46 115 60 105 157 82 22 213 92 91 57 143 80 239 88 79 59 127 95 64 83 30 29 44 84 81 75 85 35 66 85 254 113 80 56 230 48 128 47 94 73 52 60 68 72 76 121 68 60 80 71 65 57 90 33 54 91 66 86 67 78 105 92 116 99 99 44 129 109 25 60 196 36 142 85 79 42 81 330 42 28 92 53 52 61 61 64 58 41 52 22 45 48 87 81 82 57 112 41 59 85 88 41 115 46 57 100 89 97 28 77 50 62 137 119 56 47 126 75 67 65 49 99 101 67 36 54 131 39 27 53 48 43 51 47 35 35 133 78 63 49 135 50 71 107 103 66 175 57 102 52 44 92 105 57 68 60 34 99 101 63 77 63 66 48 42 111 56 98 300 83 67 77 72 86 65 64 45 50 36 68 48 49 60 71 44 56 73 69 44 39 89 54 46 24 62 89 278 56 38 63 66 45 79 51 123 58 93 80 151 45 75 55 95 108 79 38 73 59 85 60 56 173 85 65 145 49 68 117 71 143 50 82 48 50 55 59 37 57 74 36 41 52 88 133 43 60 77 75 99 238 97 49 91 78 72 44 74 147 107 45 3818 73 114 54 37 67 78 71 100 67 76 73 68 85 51 36 60 47 78 27 123 149 54 42 163 33 79 131 93 55 79 111 78 84 66 140 86 72 158 104 100 47 75 46 186 94 60 50 81 108 76 60 73 118 60 55 40 104 118 49 57 68 71 60 77 40 137 113 60 56 73 57 92 193 81 37 71 97 42 138 93 53 148 46 150 57 60 127 44 61 73 78 65 67 141 98 114 66 146 113 43 81 85 103 72 80 108 32 84 82 89 33 167 55 50 72 71 88 235 25 138 97 124 64 106 84 53 97 69 46 116 35 28 82 49 124 71 84 45 110 42 75 39 49 64 84 19 131 60 312 74 71 140 40 48 144 114 61 83 137 124 76 49 63 119 33 107 55 39 34 74 64 53 39 117 93 60 69 57 48 57 77 42 73 305 190 285 87 34 101 218 77 70 45 75 67 40 226 58 24 53 86 139 57 145 59 71 59 61 83 69 90 83 65 208 55 81 54 77 84 151 69 84 99 30 45 45 134 77 65 160 102 100 60 57 62 78 54 139 59 41 139 50 50 50 65 91 43 66 105 50 61 31 73 48 104 58 62 81 52 77 100 79 44 69 93 56 107 145 97 55 102 67 51 164 65 70 75 34 87 59 95 58 133 49 75 134 137 1828 99 67 157 28 102 176 37 86 110 71 118 122 51 81 48 38 103 71 109 100 48 92 115 113 45 64 101 38 136 93 67 140 98 130 71 59 86 68 126 35 74 58 102 182 82 134 71 89 48 127 132 80 103 105 73 64 83 18 46 31 43 60 75 81 54 50 26 74 205 30 41 42 37 105 49 64 40 56 200 39 66 62 61 107 48 21 66 108 35 34 79 39 53 97 63 59 109 73 49 122 30 86 82 196 82 66 81 128 154 127 30 38 29 60 47 65 79 35 77 74 73 44 80 49 99 73 47 41 99 66 82 143 1428 76 77 107 79 48 56 65 49 101 58 48 65 130 32 133 95 35 138 116 117 29 147 180 91 68 56 103 133 69 115 79 110 72 383 69 51 96 52 101 45 62 208 37 105 63 92 157 34 86 98 40 88 41 71 73 84 168 67 68 49 95 94 65 80 66 26 30 61 83 82 40 61 75 80 90 59 171 57 81 127 133 57 65 76 35 55 123 57 43 79 42 63 43 116 61 49 81 49 45 36 36 75 64 76 68 72 49 45 281 55 74 85 163 69 80 98 92 37 112 74 83 151 94 105 84 141 57 152 1356 160 89 69 82 38 370 62 121 102 57 95 55 88 196 65 84 90 99 107 55 160 84 1832 33 134 40 37 74 21 65 65 51 73 72 101 74 68 113 479 93 74 49 110 128 118 160 106 67 142 69 292 84 90 70 56 123 94 123 208 40 88 32 80 55 63 75 74 147 78 101 56 49 102 34 104 84 83 78 121 112 287 67 114 71 42 62 57 86 52 140 104 118 106 59 20 50 130 114 55 57 153 51 51 74 152 84 40 39 161 30 58 188 112 137 78 26 123 47 92 44 56 57 84 94 36 73 93 53 71 53 91 102 67 63 45 45 68 79 121 35 38 43 46 85 242 40 56 52 70 64 51 129 96 83 32 28 59 62 74 23 134 74 49 100 62 55 104 251 89 66 56 74 42 56 53 146 72 128 56 57 49 63 63 106 89 50 28 29 99 41 120 44 73 97 77 143 125 84 54 48 195 60 113 50 40 104 83 66 62 41 35 79 51 72 54 40 89 92 71 88 164 130 561 369 94 24 75 120 45 35 151 64 89 83 89 86 118 71 98 117 130 73 274 38 47 96 106 122 44 890 47 156 38 62 55 108 91 96 120 91 54 84 47 75 124 88 75 123 67 81 58 94 59 143 44 214 356 38 62 58 64 115 110 158 102 143 54 94 70 87 40 48 98 110 82 100 27 105 70 72 60 69 78 108 142 109 67 49 62 90 76 217 85 69 72 79 29 81 39 35 66 191 108 93 82 45 65 129 51 83 86 83 97 82 60 54 84 49 73 41 56 55 70 53 48 88 43 102 52 50 42 69 44 64 62 63 69 46 68 37 80 30 37 49 117 33 19 144 88 32 55 141 125 37 170 44 80 40 83 134 71 69 59 271 88 113 74 80 87 88 30 47 28 75 91 55 38 65 86 34 78 76 54 49 109 67 1557 53 115 74 98 56 95 194 80 89 63 36 113 69 50 110 72 35 144 82 69 72 83 111 122 110 45 103 51 112 65 72 78 144 60 54 49 72 68 97 87 90 66 83 71 99 88 60 44 184 47 331 98 79 39 55 178 36 106 46 116 53 64 87 45 61 184 112 94 105 125 79 101 79 75 50 93 43 50 92 79 81 111 157 33 128 96 63 73 76 65 79 51 44 60 81 83 37 91 45 42 61 59 29 94 244 93 52 231 55 39 61 166 71 57 87 311 90 40 37 25 61 97 97 50 348 40 133 86 169 65 165 103 71 92 64 66 34 61 74 75 67 80 93 59 53 47 92 211 137 615 134 71 37 78 483 22 52 86 217 44 115 79 75 130 116 31 77 71 43 34 33 80 91 88 107 75 97 46 169 71 56 59 92 94 104 51 64 96 51 87 34 81 64 136 81 82 69 71 42 66 49 51 63 109 15 985 160 66 60 90 244 79 235 42 197 80 69 164 44 34 68 37 61 65 84 77 63 65 39 599 243 170 45 73 72 44 90 69 92 98 99 84 56 93 149 37 76 75 82 161 57 85 55 87 53 75 106 54 52 76 67 71 67 93 74 51 85 52 281 88 68 52 83 71 54 45 38 126 42 77 50 59 52 95 70 126 88 71 177 108 126 149 129 90 107 76 100 48 88 117 757 74 88 116 100 69 93 59 49 44 120 84 112 41 125 57 198 53 42 45 36 113 52 49 32 42 60 77 41 37 52 48 50 43 39 50 64 107 27 57 45 67 65 79 44 111 45 33 157 145 42 91 68 79 63 61 85 93 45 168 109 148 183 59 71 145 59 88 114 49 57 37 38 56 91 19 50 65 87 61 36 80 67 64 25 62 49 51 67 46 25 60 76 61 54 32 52 67 53 90 47 79 51 70 33 60 62 38 166 42 32 36 69 103 45 41 115 62 53 74 82 138 56 52 29 122 62 77 30 94 88 30 91 67 41 68 48 63 50 78 129 69 67 45 268 55 148 46 107 82 40 60 57 70 75 124 125 44 98 72 38 68 85 139 64 85 94 38 67 73 30 86 99 69 39 67 73 45 47 89 85 81 76 62 167 22 106 67 86 81 49 43 60 143 63 155 314 113 63 67 50 66 30 126 86 269 162 71 63 182 106 56 43 49 288 45 884 23 163 81 351 51 115 138 74 152 62 157 50 53 38 91 91 110 67 81 82 44 149 38 124 178 40 160 133 16 51 61 68 48 55 98 91 31 33 61 56 91 28 70 163 61 40 76 91 54 21 59 55 47 55 67 90 70 115 69 26 73 45 49 66 59 287 167 71 51 135 28 65 69 65 38 11 45 61 160 38 39 55 71 42 24 35 81 81 44 93 381 84 37 57 52 27 119 479 78 57 91 44 35 82 110 58 1147 23 85 46 63 98 73 52 83 84 27 73 72 19 85 113 55 96 39 96 48 64 107 64 37 89 52 28 29 105 64 58 48 48 66 27 42 22 53 76 52 73 24 42 69 28 68 68 65 83 42 287 54 48 48 48 71 74 40 91 44 28 86 55 59 52 15 39 91 18 69 43 59 45 57 85 110 50 93 41 77 37 49 60 76 40 32 42 20 133 35 53 68 49 47 44 60 63 54 95 45 58 77 28 87 134 40 201 22 53 57 76 175 94 66 99 48 40 101 41 133 69 46 65 50 82 31 50 65 46 95 30 126 83 90 103 72 42 169 68 165 141 67 61 35 77 52 108 155 91 272 62 507 46 37 95 28 57 94 112 69 58 114 116 72 59 62 40 92 40 29 42 55 47 52 44 73 39 130 29 89 41 41 342 68 62 54 61 41 46 61 185 29 85 72 57 36 55 60 22 75 71 35 24 50 
