
*** ChampSim Multicore Out-of-Order Simulator ***

Warmup Instructions: 50000000
Simulation Instructions: 50000000
Number of CPUs: 1
LLC sets: 2048
LLC ways: 16
Off-chip DRAM Size: 4096 MB Channels: 1 Width: 64-bit Data Rate: 6400 MT/s
CPU 0 runs ./micro_traces/srv163.trace.gz
.gz
ITLB has LRU replacement policy
DTLB has LRU replacement policy
STLB has LRU replacement policy
L1I has LRU replacement policy
L1D has LRU replacement policy
Initialize SRRIP state for L2C
Initialize DRRIP state for LLC
Heartbeat_Variant_0 : 1329 0.324463 per_variant_size: 0 1329 0 0 0 0 0 0 0 
Heartbeat_Variant_1 : 1223 0.298584 per_variant_size: 0 598 625 0 0 0 0 0 0 
Heartbeat_Variant_2 : 1320 0.322266 per_variant_size: 0 545 370 221 184 0 0 0 0 
Heartbeat_Variant_3 : 0 0 per_variant_size: 0 0 0 0 0 0 0 0 0 
Heartbeat_Variant_0_evicts 0 : 5813 1 : 260 2 : 277 3 : 0 
Heartbeat_Variant_1_evicts 0 : 275 1 : 0 2 : 420 3 : 0 
Heartbeat_Variant_2_evicts 0 : 258 1 : 436 2 : 0 3 : 0 
Heartbeat_Variant_3_evicts 0 : 0 1 : 0 2 : 0 3 : 0 
Heartbeat CPU 0 instructions: 10000001 cycles: 2798644 heartbeat IPC: 3.57316 cumulative IPC: 3.57316 (Simulation time: 0 hr 1 min 23 sec) 
Heartbeat_Variant_0 : 1356 0.331055 per_variant_size: 0 1356 0 0 0 0 0 0 0 
Heartbeat_Variant_1 : 1238 0.302246 per_variant_size: 0 578 660 0 0 0 0 0 0 
Heartbeat_Variant_2 : 1336 0.326172 per_variant_size: 0 520 387 230 199 0 0 0 0 
Heartbeat_Variant_3 : 0 0 per_variant_size: 0 0 0 0 0 0 0 0 0 
Heartbeat_Variant_0_evicts 0 : 5760 1 : 105 2 : 86 3 : 0 
Heartbeat_Variant_1_evicts 0 : 102 1 : 0 2 : 289 3 : 0 
Heartbeat_Variant_2_evicts 0 : 79 1 : 289 2 : 0 3 : 0 
Heartbeat_Variant_3_evicts 0 : 0 1 : 0 2 : 0 3 : 0 
Heartbeat CPU 0 instructions: 20000001 cycles: 5595632 heartbeat IPC: 3.57527 cumulative IPC: 3.57422 (Simulation time: 0 hr 2 min 37 sec) 
Heartbeat_Variant_0 : 1384 0.337891 per_variant_size: 0 1384 0 0 0 0 0 0 0 
Heartbeat_Variant_1 : 1303 0.318115 per_variant_size: 0 565 738 0 0 0 0 0 0 
Heartbeat_Variant_2 : 1338 0.32666 per_variant_size: 0 477 375 258 228 0 0 0 0 
Heartbeat_Variant_3 : 0 0 per_variant_size: 0 0 0 0 0 0 0 0 0 
Heartbeat_Variant_0_evicts 0 : 5873 1 : 382 2 : 377 3 : 0 
Heartbeat_Variant_1_evicts 0 : 387 1 : 0 2 : 542 3 : 0 
Heartbeat_Variant_2_evicts 0 : 372 1 : 515 2 : 0 3 : 0 
Heartbeat_Variant_3_evicts 0 : 0 1 : 0 2 : 0 3 : 0 
Heartbeat CPU 0 instructions: 30000003 cycles: 8391708 heartbeat IPC: 3.57644 cumulative IPC: 3.57496 (Simulation time: 0 hr 3 min 52 sec) 
Heartbeat_Variant_0 : 1382 0.337402 per_variant_size: 0 1382 0 0 0 0 0 0 0 
Heartbeat_Variant_1 : 1304 0.318359 per_variant_size: 0 555 749 0 0 0 0 0 0 
Heartbeat_Variant_2 : 1344 0.328125 per_variant_size: 0 486 373 261 224 0 0 0 0 
Heartbeat_Variant_3 : 0 0 per_variant_size: 0 0 0 0 0 0 0 0 0 
Heartbeat_Variant_0_evicts 0 : 5555 1 : 39 2 : 33 3 : 0 
Heartbeat_Variant_1_evicts 0 : 39 1 : 0 2 : 223 3 : 0 
Heartbeat_Variant_2_evicts 0 : 36 1 : 223 2 : 0 3 : 0 
Heartbeat_Variant_3_evicts 0 : 0 1 : 0 2 : 0 3 : 0 
Heartbeat CPU 0 instructions: 40000002 cycles: 11188471 heartbeat IPC: 3.57556 cumulative IPC: 3.57511 (Simulation time: 0 hr 5 min 8 sec) 
Heartbeat_Variant_0 : 1393 0.340088 per_variant_size: 0 1393 0 0 0 0 0 0 0 
Heartbeat_Variant_1 : 1297 0.31665 per_variant_size: 0 538 759 0 0 0 0 0 0 
Heartbeat_Variant_2 : 1353 0.330322 per_variant_size: 0 482 380 261 230 0 0 0 0 
Heartbeat_Variant_3 : 0 0 per_variant_size: 0 0 0 0 0 0 0 0 0 
Heartbeat_Variant_0_evicts 0 : 5727 1 : 154 2 : 136 3 : 0 
Heartbeat_Variant_1_evicts 0 : 142 1 : 0 2 : 337 3 : 0 
Heartbeat_Variant_2_evicts 0 : 139 1 : 338 2 : 0 3 : 0 
Heartbeat_Variant_3_evicts 0 : 0 1 : 0 2 : 0 3 : 0 
Heartbeat CPU 0 instructions: 50000001 cycles: 13985229 heartbeat IPC: 3.57557 cumulative IPC: 3.5752 (Simulation time: 0 hr 6 min 26 sec) 

Warmup complete CPU 0 instructions: 50000001 cycles: 13985229 (Simulation time: 0 hr 6 min 26 sec) 

Cycle: 20000000 FTQ IN: 55610674 FTQ occupancy: 16.0212 DECODE IN: 55610656 DECODE occupancy: 9.53466 ROB IN: 55610656 ROB occupancy: 260.648 ROB OUT: 55610460
Heartbeat_Variant_0 : 1393 0.340088 per_variant_size: 0 1393 0 0 0 0 0 0 0 
Heartbeat_Variant_1 : 1303 0.318115 per_variant_size: 0 556 747 0 0 0 0 0 0 
Heartbeat_Variant_2 : 1349 0.329346 per_variant_size: 0 480 369 276 224 0 0 0 0 
Heartbeat_Variant_3 : 0 0 per_variant_size: 0 0 0 0 0 0 0 0 0 
Heartbeat_Variant_0_evicts 0 : 5594 1 : 42 2 : 38 3 : 0 
Heartbeat_Variant_1_evicts 0 : 45 1 : 0 2 : 241 3 : 0 
Heartbeat_Variant_2_evicts 0 : 35 1 : 239 2 : 0 3 : 0 
Heartbeat_Variant_3_evicts 0 : 0 1 : 0 2 : 0 3 : 0 
Heartbeat CPU 0 instructions: 60000002 cycles: 24680277 heartbeat IPC: 0.935012 cumulative IPC: 0.935012 (Simulation time: 0 hr 7 min 40 sec) 
Cycle: 30000000 FTQ IN: 9406709 FTQ occupancy: 15.4049 DECODE IN: 9406709 DECODE occupancy: 5.05283 ROB IN: 9406709 ROB occupancy: 57.5197 ROB OUT: 9406792
Heartbeat_Variant_0 : 1396 0.34082 per_variant_size: 0 1396 0 0 0 0 0 0 0 
Heartbeat_Variant_1 : 1304 0.318359 per_variant_size: 0 569 735 0 0 0 0 0 0 
Heartbeat_Variant_2 : 1351 0.329834 per_variant_size: 0 492 359 267 233 0 0 0 0 
Heartbeat_Variant_3 : 0 0 per_variant_size: 0 0 0 0 0 0 0 0 0 
Heartbeat_Variant_0_evicts 0 : 5731 1 : 85 2 : 70 3 : 0 
Heartbeat_Variant_1_evicts 0 : 78 1 : 0 2 : 273 3 : 0 
Heartbeat_Variant_2_evicts 0 : 75 1 : 268 2 : 0 3 : 0 
Heartbeat_Variant_3_evicts 0 : 0 1 : 0 2 : 0 3 : 0 
Heartbeat CPU 0 instructions: 70000001 cycles: 35450403 heartbeat IPC: 0.928494 cumulative IPC: 0.931742 (Simulation time: 0 hr 8 min 53 sec) 
Cycle: 40000000 FTQ IN: 9235996 FTQ occupancy: 15.3827 DECODE IN: 9236014 DECODE occupancy: 5.03588 ROB IN: 9236014 ROB occupancy: 59.2035 ROB OUT: 9236092
Heartbeat_Variant_0 : 1397 0.341064 per_variant_size: 0 1397 0 0 0 0 0 0 0 
Heartbeat_Variant_1 : 1311 0.320068 per_variant_size: 0 574 737 0 0 0 0 0 0 
Heartbeat_Variant_2 : 1345 0.328369 per_variant_size: 0 473 380 266 226 0 0 0 0 
Heartbeat_Variant_3 : 0 0 per_variant_size: 0 0 0 0 0 0 0 0 0 
Heartbeat_Variant_0_evicts 0 : 5662 1 : 82 2 : 76 3 : 0 
Heartbeat_Variant_1_evicts 0 : 78 1 : 0 2 : 264 3 : 0 
Heartbeat_Variant_2_evicts 0 : 80 1 : 254 2 : 0 3 : 0 
Heartbeat_Variant_3_evicts 0 : 0 1 : 0 2 : 0 3 : 0 
Heartbeat CPU 0 instructions: 80000003 cycles: 46114596 heartbeat IPC: 0.937718 cumulative IPC: 0.933725 (Simulation time: 0 hr 10 min 7 sec) 
Cycle: 50000000 FTQ IN: 9390707 FTQ occupancy: 15.4065 DECODE IN: 9390689 DECODE occupancy: 5.05738 ROB IN: 9390677 ROB occupancy: 57.4052 ROB OUT: 9390384
Heartbeat_Variant_0 : 1397 0.341064 per_variant_size: 0 1397 0 0 0 0 0 0 0 
Heartbeat_Variant_1 : 1313 0.320557 per_variant_size: 0 584 729 0 0 0 0 0 0 
Heartbeat_Variant_2 : 1345 0.328369 per_variant_size: 0 467 388 263 227 0 0 0 0 
Heartbeat_Variant_3 : 0 0 per_variant_size: 0 0 0 0 0 0 0 0 0 
Heartbeat_Variant_0_evicts 0 : 5464 1 : 27 2 : 27 3 : 0 
Heartbeat_Variant_1_evicts 0 : 27 1 : 0 2 : 220 3 : 0 
Heartbeat_Variant_2_evicts 0 : 27 1 : 219 2 : 0 3 : 0 
Heartbeat_Variant_3_evicts 0 : 0 1 : 0 2 : 0 3 : 0 
Heartbeat CPU 0 instructions: 90000002 cycles: 56929680 heartbeat IPC: 0.924634 cumulative IPC: 0.931436 (Simulation time: 0 hr 11 min 19 sec) 
Cycle: 60000000 FTQ IN: 9222604 FTQ occupancy: 15.4308 DECODE IN: 9222604 DECODE occupancy: 5.04579 ROB IN: 9222604 ROB occupancy: 59.1481 ROB OUT: 9222890
Heartbeat_Variant_0 : 1400 0.341797 per_variant_size: 0 1400 0 0 0 0 0 0 0 
Heartbeat_Variant_1 : 1311 0.320068 per_variant_size: 0 573 738 0 0 0 0 0 0 
Heartbeat_Variant_2 : 1349 0.329346 per_variant_size: 0 468 396 258 227 0 0 0 0 
Heartbeat_Variant_3 : 0 0 per_variant_size: 0 0 0 0 0 0 0 0 0 
Heartbeat_Variant_0_evicts 0 : 5696 1 : 111 2 : 102 3 : 0 
Heartbeat_Variant_1_evicts 0 : 94 1 : 0 2 : 310 3 : 0 
Heartbeat_Variant_2_evicts 0 : 116 1 : 298 2 : 0 3 : 0 
Heartbeat_Variant_3_evicts 0 : 0 1 : 0 2 : 0 3 : 0 
Heartbeat CPU 0 instructions: 100000003 cycles: 67632812 heartbeat IPC: 0.934306 cumulative IPC: 0.932008 (Simulation time: 0 hr 12 min 23 sec) 
Finished CPU 0 instructions: 50000002 cycles: 53647583 cumulative IPC: 0.932008 (Simulation time: 0 hr 12 min 23 sec) 

ChampSim completed all CPUs

Region of Interest Statistics

CPU 0 cumulative IPC: 0.932008 instructions: 50000002 cycles: 53647583
 Fetch stage stalled: 21.9609  Sim cycles: 53647583 fetch stall cycle: 11781478
 Empty decode stage: 68.1637  Sim cycles: 53647583 fetch stall cycle: 36568156
ITLB TOTAL     ACCESS:    7296016  HIT:    6799539  MISS:     496477  HIT %:    93.1952  MISS %:    6.80477   MPKI: 9.92954
ITLB LOAD TRANSLATION INSTRUCTION	ACCESS:    7296016  HIT:    6799539  MISS:     496477  HIT %:    93.1952  MISS %:    6.80477  MPKI: 9.92954

ITLB AVERAGE MISS LATENCY: 9.03914 cycles
ITLB RQ	ACCESS:    8365445	FORWARD:          0	MERGED:     867631	TO_CACHE:    7497814

DTLB TOTAL     ACCESS:   10201231  HIT:    9723412  MISS:     477819  HIT %:    95.3161  MISS %:    4.68393   MPKI: 9.55638
DTLB LOAD TRANSLATION DATA	ACCESS:   10201231  HIT:    9723412  MISS:     477819  HIT %:    95.3161  MISS %:    4.68393  MPKI: 9.55638

DTLB AVERAGE MISS LATENCY: 9.2744 cycles
DTLB RQ	ACCESS:   14346966	FORWARD:          0	MERGED:    4115306	TO_CACHE:   10231660

STLB TOTAL     ACCESS:    1229667  HIT:    1227777  MISS:       1890  HIT %:    99.8463  MISS %:     0.1537   MPKI: 0.0378
STLB LOAD TRANSLATION INSTRUCTION	ACCESS:     496477  HIT:     496259  MISS:        218  HIT %:    99.9561  MISS %:  0.0439094  MPKI: 0.00436
STLB LOAD TRANSLATION DATA	ACCESS:     477775  HIT:     476124  MISS:       1651  HIT %:    99.6544  MISS %:    0.34556  MPKI: 0.03302
STLB TRANSLATION FROM L1D PREFETCHER DATA	ACCESS:     255415  HIT:     255394  MISS:         21  HIT %:    99.9918  MISS %: 0.00822191  MPKI: 0.00042

STLB AVERAGE MISS LATENCY: 70.237 cycles
STLB RQ	ACCESS:    1346639	FORWARD:          0	MERGED:     116927	TO_CACHE:    1229712

STLB Hit, L1D data hit: 0
STLB Hit, L2C data hit: 0
STLB Hit, LLC data hit: 0
STLB Hit, LLC data miss: 0
STLB STLB hints to L2: 0
L1D TOTAL     ACCESS:   14135967  HIT:   13019950  MISS:    1116017  HIT %:    92.1051  MISS %:    7.89488   MPKI: 22.3203
L1D LOAD DATA	ACCESS:    7494878  HIT:    6759770  MISS:     735108  HIT %:    90.1919  MISS %:    9.80814  MPKI: 14.7022
L1D RFO DATA	ACCESS:    6309790  HIT:    6023653  MISS:     286137  HIT %:    95.4652  MISS %:    4.53481  MPKI: 5.72274
L1D PREFETCH DATA	ACCESS:     331299  HIT:     236527  MISS:      94772  HIT %:    71.3938  MISS %:    28.6062  MPKI: 1.89544

L1D PREFETCH  REQUESTED:     744752  ISSUED:     744752  USEFUL:      34886  USELESS:      68058
L1D USEFUL LOAD PREFETCHES:      34886 PREFETCH ISSUED TO LOWER LEVEL:     103062  ACCURACY: 33.8495
 TIMELY PREFETCHES:      34886 LATE PREFETCHES: 8171 DROPPED PREFETCHES: 9
L1D AVERAGE MISS LATENCY: 308172 cycles
L1D RQ	ACCESS:   11337132	FORWARD:          0	MERGED:    3650344	TO_CACHE:    7526967
L1D WQ	ACCESS:    6949899	FORWARD:     159887	MERGED:     129900	TO_CACHE:    6819999
L1D PQ	ACCESS:     372409	FORWARD:          0	MERGED:          0	TO_CACHE:     372343

L1D UNIQUE REGIONS ACCESSED: 0
L1D REGIONS CONFLICTS: 0
L1D Cross Page Prefetch Requests: 6755
L1D Same Page Prefetch Requests: 747679
L1D ROI Sum of L1D PQ occupancy: 4724069
L1D PREFETCHES PUSHED FROM L2C: 0
L1I TOTAL     ACCESS:    7867513  HIT:    5096036  MISS:    2771477  HIT %:    64.7732  MISS %:    35.2268   MPKI: 55.4295
L1I LOAD INSTRUCTION	ACCESS:    7867513  HIT:    5096036  MISS:    2771477  HIT %:    64.7732  MISS %:    35.2268  MPKI: 55.4295

L1I AVERAGE MISS LATENCY: 16.9802 cycles
L1I RQ	ACCESS:   15757991	FORWARD:          0	MERGED:    7392546	TO_CACHE:    8365445

L1BTB TOTAL     ACCESS:    5671442  HIT:    2033296  MISS:    3638146  HIT %:    35.8515  MISS %:    64.1485   MPKI: 72.7629
L1BTB BRANCH_DIRECT_JUMP	ACCESS:     547552  HIT:     143677  MISS:     403875	AVERAGE STALL: 21.3812
L1BTB BRANCH_INDIRECT	ACCESS:     182353  HIT:      65576  MISS:     116777	AVERAGE STALL: 49.8888
L1BTB BRANCH_CONDITIONAL	ACCESS:    2697908  HIT:    1402924  MISS:    1294984	AVERAGE STALL: 27.1686
L1BTB BRANCH_DIRECT_CALL	ACCESS:     949026  HIT:     106962  MISS:     842064	AVERAGE STALL: 31.2571
L1BTB BRANCH_INDIRECT_CALL	ACCESS:     172786  HIT:      21966  MISS:     150820	AVERAGE STALL: 66.7752
L1BTB BRANCH_RETURN	ACCESS:    1121817  HIT:     292191  MISS:     829626	AVERAGE STALL: 33.3426
L1BTB BRANCH_OTHER ACCESS:          0  HIT:          0  MISS:          0	AVERAGE STALL: -nan
L1BTB TOTAL ROB OCCUPANCY AT BTB MISS: 0.659706

L2BTB TOTAL     ACCESS:    3612862  HIT:    3548100  MISS:      64762  HIT %:    98.2075  MISS %:    1.79254   MPKI: 1.29524
L2BTB BRANCH_DIRECT_JUMP	ACCESS:     399772  HIT:     396056  MISS:       3716	AVERAGE STALL: 21.3812
L2BTB BRANCH_INDIRECT	ACCESS:     106483  HIT:     103793  MISS:       2690	AVERAGE STALL: 49.8888
L2BTB BRANCH_CONDITIONAL	ACCESS:    1294984  HIT:    1290754  MISS:       4230	AVERAGE STALL: 27.1686
L2BTB BRANCH_DIRECT_CALL	ACCESS:     842064  HIT:     840672  MISS:       1392	AVERAGE STALL: 31.2571
L2BTB BRANCH_INDIRECT_CALL	ACCESS:     141347  HIT:     131246  MISS:      10101	AVERAGE STALL: 66.7752
L2BTB BRANCH_RETURN	ACCESS:     828212  HIT:     785579  MISS:      42633	AVERAGE STALL: 33.3426
L2BTB BRANCH_OTHER ACCESS:          0  HIT:          0  MISS:          0	AVERAGE STALL: -nan
L2BTB TOTAL ROB OCCUPANCY AT BTB MISS: 37.0604

L2C TOTAL     ACCESS:    4499241  HIT:    4035723  MISS:     463518  HIT %:    89.6979  MISS %:    10.3021   MPKI: 9.27036
L2C LOAD INSTRUCTION	ACCESS:    2771477  HIT:    2512648  MISS:     258829  HIT %:     90.661  MISS %:    9.33903  MPKI: 5.17658
L2C LOAD TRANSLATION INSTRUCTION	ACCESS:        241  HIT:         58  MISS:        183  HIT %:    24.0664  MISS %:    75.9336  MPKI: 0.00366
L2C LOAD DATA	ACCESS:     726927  HIT:     651733  MISS:      75194  HIT %:    89.6559  MISS %:    10.3441  MPKI: 1.50388
L2C RFO DATA	ACCESS:     286004  HIT:     239640  MISS:      46364  HIT %:     83.789  MISS %:     16.211  MPKI: 0.92728
L2C PREFETCH DATA	ACCESS:     191452  HIT:     121827  MISS:      69625  HIT %:    63.6332  MISS %:    36.3668  MPKI: 1.3925
L2C WRITEBACK DATA	ACCESS:     521392  HIT:     509295  MISS:      12097  HIT %:    97.6799  MISS %:    2.32014  MPKI: 0.24194
L2C LOAD TRANSLATION DATA	ACCESS:       1701  HIT:        491  MISS:       1210  HIT %:    28.8654  MISS %:    71.1346  MPKI: 0.0242
L2C TRANSLATION FROM L1D PREFETCHER DATA	ACCESS:         47  HIT:         31  MISS:         16  HIT %:    65.9574  MISS %:    34.0426  MPKI: 0.00032

L2C PREFETCH  REQUESTED:      95701  ISSUED:      95701  USEFUL:       8239  USELESS:      61755
L2C USEFUL LOAD PREFETCHES:       8239 PREFETCH ISSUED TO LOWER LEVEL:      69981  ACCURACY: 11.7732
 TIMELY PREFETCHES:       8239 LATE PREFETCHES: 356 DROPPED PREFETCHES: 0
L2C AVERAGE MISS LATENCY: 38.4124 cycles
L2C RQ	ACCESS:    3786423	FORWARD:          0	MERGED:          0	TO_CACHE:    3786399
L2C WQ	ACCESS:     521392	FORWARD:         24	MERGED:          0	TO_CACHE:     521392
L2C PQ	ACCESS:     198763	FORWARD:          0	MERGED:       3993	TO_CACHE:     194770

L2C Dense regions hint from L2: 0
PSCL5 TOTAL     ACCESS:       3806  HIT:       1903  MISS:       1903  HIT %:         50  MISS %:         50   MPKI: 0.03806
PSCL5 LOAD TRANSLATION INSTRUCTION	ACCESS:       3718  HIT:       1859  MISS:       1859  HIT %:         50  MISS %:         50  MPKI: 0.03718
PSCL5 TRANSLATION FROM L1D PREFETCHER INSTRUCTION	ACCESS:         88  HIT:         44  MISS:         44  HIT %:         50  MISS %:         50  MPKI: 0.00088


PSCL4 TOTAL     ACCESS:       3719  HIT:       1857  MISS:       1862  HIT %:    49.9328  MISS %:    50.0672   MPKI: 0.03724
PSCL4 LOAD TRANSLATION INSTRUCTION	ACCESS:       1819  HIT:       1814  MISS:          5  HIT %:    99.7251  MISS %:   0.274876  MPKI: 0.0001
PSCL4 TRANSLATION FROM L1D PREFETCHER INSTRUCTION	ACCESS:         43  HIT:         43  MISS:          0  HIT %:        100  MISS %:          0  MPKI: 0
PSCL4 LOAD TRANSLATION DATA	ACCESS:       1814  HIT:          0  MISS:       1814  HIT %:          0  MISS %:        100  MPKI: 0.03628
PSCL4 TRANSLATION FROM L1D PREFETCHER DATA	ACCESS:         43  HIT:          0  MISS:         43  HIT %:          0  MISS %:        100  MPKI: 0.00086


PSCL3 TOTAL     ACCESS:       3775  HIT:       1885  MISS:       1890  HIT %:    49.9338  MISS %:    50.0662   MPKI: 0.0378
PSCL3 LOAD TRANSLATION INSTRUCTION	ACCESS:       1847  HIT:       1842  MISS:          5  HIT %:    99.7293  MISS %:   0.270709  MPKI: 0.0001
PSCL3 TRANSLATION FROM L1D PREFETCHER INSTRUCTION	ACCESS:         43  HIT:         43  MISS:          0  HIT %:        100  MISS %:          0  MPKI: 0
PSCL3 LOAD TRANSLATION DATA	ACCESS:       1842  HIT:          0  MISS:       1842  HIT %:          0  MISS %:        100  MPKI: 0.03684
PSCL3 TRANSLATION FROM L1D PREFETCHER DATA	ACCESS:         43  HIT:          0  MISS:         43  HIT %:          0  MISS %:        100  MPKI: 0.00086


PSCL2 TOTAL     ACCESS:       3730  HIT:       1827  MISS:       1903  HIT %:    48.9812  MISS %:    51.0188   MPKI: 0.03806
PSCL2 LOAD TRANSLATION INSTRUCTION	ACCESS:       2003  HIT:       1784  MISS:        219  HIT %:    89.0664  MISS %:    10.9336  MPKI: 0.00438
PSCL2 TRANSLATION FROM L1D PREFETCHER INSTRUCTION	ACCESS:         43  HIT:         43  MISS:          0  HIT %:        100  MISS %:          0  MPKI: 0
PSCL2 LOAD TRANSLATION DATA	ACCESS:       1641  HIT:          0  MISS:       1641  HIT %:          0  MISS %:        100  MPKI: 0.03282
PSCL2 TRANSLATION FROM L1D PREFETCHER DATA	ACCESS:         43  HIT:          0  MISS:         43  HIT %:          0  MISS %:        100  MPKI: 0.00086


LLC TOTAL     ACCESS:     520362  HIT:     492933  MISS:      27429  HIT %:    94.7289  MISS %:    5.27114   MPKI: 0.54858
LLC LOAD INSTRUCTION	ACCESS:     258829  HIT:     258168  MISS:        661  HIT %:    99.7446  MISS %:   0.255381  MPKI: 0.01322
LLC LOAD TRANSLATION INSTRUCTION	ACCESS:        183  HIT:        155  MISS:         28  HIT %:    84.6995  MISS %:    15.3005  MPKI: 0.00056
LLC LOAD DATA	ACCESS:      74845  HIT:      71356  MISS:       3489  HIT %:    95.3384  MISS %:    4.66163  MPKI: 0.06978
LLC RFO DATA	ACCESS:      46351  HIT:      33344  MISS:      13007  HIT %:     71.938  MISS %:     28.062  MPKI: 0.26014
LLC PREFETCH DATA	ACCESS:      69981  HIT:      60122  MISS:       9859  HIT %:    85.9119  MISS %:    14.0881  MPKI: 0.19718
LLC WRITEBACK DATA	ACCESS:      68947  HIT:      68641  MISS:        306  HIT %:    99.5562  MISS %:   0.443819  MPKI: 0.00612
LLC LOAD TRANSLATION DATA	ACCESS:       1210  HIT:       1132  MISS:         78  HIT %:    93.5537  MISS %:    6.44628  MPKI: 0.00156
LLC TRANSLATION FROM L1D PREFETCHER DATA	ACCESS:         16  HIT:         15  MISS:          1  HIT %:      93.75  MISS %:       6.25  MPKI: 2e-05

LLC AVERAGE MISS LATENCY: 154.255 cycles
LLC RQ	ACCESS:     381440	FORWARD:          0	MERGED:          0	TO_CACHE:     381434
LLC WQ	ACCESS:      68947	FORWARD:          6	MERGED:          0	TO_CACHE:      68947
LLC PQ	ACCESS:      69981	FORWARD:          0	MERGED:          0	TO_CACHE:      69981

LLC Dense regions hint to LLC: 0

RAW hits: 1293137
Loads Generated: 12630270
Loads sent to L1D: 11337132
Stores Generated: 6949886
Stores sent to L1D: 6949899
Major fault: 0 Minor fault: 2589
Allocated PAGES: 2589

stream: 
stream:times selected: 1176289
stream:pref_filled: 121330
stream:pref_useful: 24992
stream:pref_late: 6356
stream:misses: 7038
stream:misses_by_poll: 0

CS: 
CS:times selected: 177805
CS:pref_filled: 59808
CS:pref_useful: 36393
CS:pref_late: 6980
CS:misses: 16300
CS:misses_by_poll: 3

CPLX: 
CPLX:times selected: 997427
CPLX:pref_filled: 21757
CPLX:pref_useful: 5446
CPLX:pref_late: 3072
CPLX:misses: 92987
CPLX:misses_by_poll: 1

NL_L1: 
NL:times selected: 19715
NL:pref_filled: 618
NL:pref_useful: 313
NL:pref_late: 338
NL:misses: 1416
NL:misses_by_poll: 0

total selections: 2371236
total_filled: 94772
total_useful: 34886
total_late: 17893
total_polluted: 4
total_misses_after_warmup: 767194
conflicts: 5958711

test: 116018

DRAM Statistics
 CHANNEL 0
 RQ ROW_BUFFER_HIT:      10153  ROW_BUFFER_MISS:      16969
 DBUS_CONGESTED:          4
 WQ ROW_BUFFER_HIT:       1252  ROW_BUFFER_MISS:      11568  FULL:          0

 AVG_CONGESTED_CYCLE: 6

CPU 0 Branch Prediction Accuracy: 99.8272% MPKI: 0.31622 Average ROB Occupancy at Mispredict: 78.5225
Branch types
NOT_BRANCH: 40848037 81.6961%
BRANCH_DIRECT_JUMP: 547552 1.0951%
BRANCH_INDIRECT: 182353 0.364706%
BRANCH_CONDITIONAL: 6178093 12.3562%
BRANCH_DIRECT_CALL: 949026 1.89805%
BRANCH_INDIRECT_CALL: 172786 0.345572%
BRANCH_RETURN: 1121817 2.24363%
BRANCH_OTHER: 0 0%

DRAM PAGES: 1048576
Allocated PAGES: 2589
Average_ROB_Occupancy: 58.9809
Average_Decode_Occupancy: 5.0402
Average_FTQ_Occupancy: 15.386
Indirect max targets: 14 Average targets: 1.17778
Branch_type:  BRANCH_DIRECT_JUMP:  Count Percentage: 4.12616 5.68841 3.63391 2.28158 8.16701 6.32443 1.45656 68.3219 
Branch_type:  BRANCH_INDIRECT:  Count Percentage: 11.7649 3.39008 2.49566 13.3009 3.3547 2.81794 0.939129 61.9367 
Branch_type:  BRANCH_CONDITIONAL:  Count Percentage: 25.784 2.25495 2.06737 3.01979 3.25032 4.63142 3.73058 55.2615 
Branch_type:  BRANCH_DIRECT_CALL:  Count Percentage: 0.386717 1.80401 0.716854 1.46601 5.2319 2.60505 1.0282 86.7613 
Branch_type:  BRANCH_INDIRECT_CALL:  Count Percentage: 9.53175 0 2.98761 0.000869923 1.36056 1.70998 0.992872 83.4164 
Branch_type:  BRANCH_RETURN:  Count Percentage: 7.49508 2.02348 2.23353 3.08556 3.44563 5.11457 3.61051 72.9916 
Branch_type:  BRANCH_DIRECT_JUMP:  Total Count: 45172 62275 39783 24978 89410 69238 15946 747968 
Branch_type:  BRANCH_INDIRECT:  Total Count: 42894 12360 9099 48494 12231 10274 3424 225817 
Branch_type:  BRANCH_CONDITIONAL:  Total Count: 3184467 278498 255331 372960 401432 572005 460747 6825091 
Branch_type:  BRANCH_DIRECT_CALL:  Total Count: 7327 34180 13582 27776 99127 49357 19481 1643837 
Branch_type:  BRANCH_INDIRECT_CALL:  Total Count: 32871 0 10303 3 4692 5897 3424 287668 
Branch_type:  BRANCH_RETURN:  Total Count: 167920 45334 50040 69129 77196 114587 80890 1635306 
Number of unique branch instructions: 10811
Upper 32 bits: 
aaaa
ffff
ffff0000
Unique upper 32 bits: 3
Unique upper 36 bits: 3
Unique upper 40 bits: 5
Unique upper 44 bits: 32
Unique upper 48 bits: 158
Variant_0 : 1400 0.341797
Variant_1 : 1311 0.320068
Variant_2 : 1349 0.329346
Variant_3 : 0 0
Offset_3 4470
Offset_4 255
Offset_5 484
Offset_6 541
Offset_7 643
Offset_8 577
Offset_9 523
Offset_10 426
Offset_11 360
Offset_12 327
Offset_13 240
Offset_14 247
Offset_15 194
Offset_16 233
Offset_17 169
Offset_18 149
Offset_19 257
Offset_20 143
Offset_21 235
Offset_22 413
Offset_23 241
Offset_24 351
Offset_25 117
Offset_47 94
Offset_64 2
decode_dispatch_called: 29311358 54.6369
Dispatch_width: 0 17232909 58.7926 32.1224
Dispatch_width: 1 2185722 7.45691 4.07422
Dispatch_width: 2 1194860 4.07644 2.22724
Dispatch_width: 3 1097237 3.74339 2.04527
Dispatch_width: 4 1116890 3.81043 2.0819
Dispatch_width: 5 1237477 4.22183 2.30668
Dispatch_width: 6 5246263 17.8984 9.77912
Empty_decode_cycles: 24336225 45.3631
ROB_full_cycles: 520664 0.970526
Starvation_cycles_per_kilo_instr: 478.807
Starvation_cycles_per_kilo_instr_3: 455.263
Starvation_cycles_per_kilo_instr_0: 410.485
Branch_type_1  (3,1)  (4,9)  (5,39)  (6,74)  (7,126)  (8,148)  (9,136)  (10,110)  (11,78)  (12,55)  (13,11)  (14,2)  (15,3)  (16,4)  (18,1)  (19,5)  (20,2)  (21,1)  (22,3)  (23,2)  (24,10)  (25,12) 
Branch_type_2  (3,1)  (4,1)  (5,1)  (8,4)  (9,4)  (10,1)  (12,1)  (13,1)  (14,1)  (16,3)  (17,2)  (20,2)  (21,2)  (23,5)  (24,1)  (47,43) 
Branch_type_3  (3,4468)  (4,245)  (5,440)  (6,451)  (7,487)  (8,360)  (9,288)  (10,172)  (11,146)  (12,62)  (13,10)  (64,2) 
Branch_type_4  (6,3)  (7,8)  (8,25)  (9,56)  (10,68)  (11,70)  (12,117)  (13,102)  (14,112)  (15,92)  (16,102)  (17,79)  (18,65)  (19,125)  (20,73)  (21,124)  (22,219)  (23,136)  (24,206)  (25,101) 
Branch_type_5  (8,3)  (9,1)  (10,4)  (11,5)  (12,3)  (13,14)  (14,16)  (15,11)  (16,22)  (17,11)  (18,23)  (19,14)  (20,11)  (21,13)  (22,43)  (23,26)  (24,38) 
Branch_type_6  (5,4)  (6,13)  (7,22)  (8,37)  (9,38)  (10,71)  (11,61)  (12,89)  (13,102)  (14,116)  (15,88)  (16,102)  (17,77)  (18,60)  (19,113)  (20,55)  (21,95)  (22,148)  (23,72)  (24,96)  (25,4)  (47,51) 
Unique trigger count: 
Variant_0_evicts_0 : 0
Variant_0_evicts_1 : 0
Variant_0_evicts_2 : 0
Variant_0_evicts_3 : 0
Variant_1_evicts_0 : 0
Variant_1_evicts_1 : 0
Variant_1_evicts_2 : 0
Variant_1_evicts_3 : 0
Variant_2_evicts_0 : 0
Variant_2_evicts_1 : 0
Variant_2_evicts_2 : 0
Variant_2_evicts_3 : 0
Variant_3_evicts_0 : 0
Variant_3_evicts_1 : 0
Variant_3_evicts_2 : 0
Variant_3_evicts_3 : 0
BTB PER SET UNIQUE ADDR: 12 15 9 16 13 15 11 13 15 11 13 16 16 14 13 11 12 11 12 14 10 11 14 14 13 16 12 8 16 11 11 16 14 7 10 15 10 17 8 13 8 5 9 19 6 12 11 11 14 11 14 12 13 18 15 6 13 12 10 10 10 17 9 15 13 17 13 10 10 11 11 14 16 12 9 6 8 13 10 20 16 9 10 14 13 15 13 7 9 19 5 8 12 11 7 14 11 8 14 16 19 21 17 11 16 13 13 15 8 5 8 16 15 13 10 7 16 10 10 8 13 12 11 16 14 15 5 13 17 11 7 18 16 15 12 9 9 10 12 19 7 19 11 11 11 10 9 8 6 14 14 16 12 9 8 18 14 14 13 9 11 13 16 16 11 15 11 9 12 11 15 8 10 9 12 8 15 12 12 17 10 14 15 18 17 16 4 12 14 13 15 10 10 11 16 13 8 14 8 13 8 14 11 10 10 9 14 13 10 11 11 17 13 16 9 14 15 18 14 19 10 15 8 12 10 11 20 11 8 15 9 8 12 15 15 14 12 15 11 9 19 9 15 16 13 16 13 12 16 12 14 12 11 11 17 13 10 8 11 15 12 15 6 13 13 11 14 11 9 14 11 13 11 9 9 11 9 14 13 13 10 15 6 11 14 8 12 18 20 16 12 7 14 16 10 14 16 12 15 12 11 9 11 22 8 16 15 12 19 11 12 16 9 17 13 9 15 13 14 18 10 15 13 11 12 14 12 11 13 11 14 17 10 13 9 13 9 8 8 20 15 17 11 18 10 19 15 13 14 11 15 15 11 11 12 19 13 12 12 10 14 18 5 16 13 12 8 12 12 11 15 8 10 13 11 13 15 14 14 16 17 14 8 11 12 13 12 17 13 10 16 15 11 16 13 11 15 10 15 13 13 17 7 13 19 13 16 19 12 15 14 11 11 12 11 10 15 12 15 18 11 15 7 13 16 8 13 11 7 12 12 11 11 12 11 15 17 11 11 9 13 9 11 14 22 9 10 12 14 15 16 10 18 11 14 17 18 15 12 16 9 14 15 10 21 11 9 8 13 14 13 16 11 14 12 21 11 16 9 14 18 14 14 16 8 17 16 15 16 14 9 13 9 11 11 13 16 19 12 13 12 11 12 15 10 9 13 12 16 14 13 18 15 14 17 12 12 21 10 9 10 11 15 8 12 18 23 11 6 18 19 15 16 14 11 15 13 10 8 12 17 8 14 12 19 17 12 15 11 9 21 14 15 12 11 13 13 10 18 14 11 17 11 11 13 17 13 17 17 12 12 13 15 17 12 17 22 16 8 11 17 11 9 11 15 15 16 11 18 19 10 13 13 13 18 11 10 15 10 8 14 14 8 11 12 18 19 7 14 13 14 12 12 10 6 14 12 15 12 11 16 19 10 13 12 17 10 20 9 14 14 16 19 11 15 13 14 22 10 15 9 14 8 16 13 12 10 18 21 9 8 18 10 10 12 18 10 13 12 10 14 10 13 13 13 15 14 14 11 11 13 12 9 14 17 13 11 20 14 19 11 15 12 10 20 15 12 14 11 14 13 14 15 9 9 14 10 18 15 13 9 12 12 17 8 14 12 7 16 11 11 14 7 10 10 10 18 12 12 12 16 9 11 17 6 10 16 15 11 8 14 9 15 11 9 14 13 16 15 14 10 10 15 8 23 20 13 15 11 9 12 14 12 15 12 14 16 10 11 9 12 11 9 12 20 17 12 12 15 22 12 10 8 8 6 9 12 10 17 14 8 14 13 10 12 8 9 10 12 9 10 8 17 10 16 16 10 12 14 11 20 14 21 15 20 8 13 10 14 11 11 14 12 20 9 14 18 12 7 12 12 19 8 14 14 13 12 12 13 11 13 18 13 14 7 18 9 10 12 12 16 14 11 14 11 16 11 14 12 8 11 14 10 14 11 21 12 9 12 17 13 9 12 10 18 12 16 11 16 12 13 14 16 11 13 7 10 10 12 11 17 9 13 16 13 12 17 10 15 13 18 16 12 11 13 11 16 12 12 10 15 10 16 14 8 11 8 14 12 14 7 15 10 11 17 15 21 16 15 11 14 12 15 13 14 11 8 15 13 10 15 17 19 15 15 20 14 12 12 16 8 13 10 13 14 15 12 13 9 12 18 13 8 11 9 14 9 14 15 13 11 15 12 17 17 10 18 17 9 19 15 14 15 12 18 12 17 11 17 18 13 16 12 15 12 20 16 11 16 17 12 11 12 14 13 11 11 14 17 13 18 14 12 14 16 13 12 17 9 16 9 13 12 6 10 12 8 9 10 12 12 13 16 8 
BTB PER SET COUNT: 14 19 1934 19 614 21 1010 286 802 14 15 1362 27 28 13 18 1128 1872 16 19 11 12 752 15 23 24 15 11 20 12 14 444 23 8 14 499 10 28 8 552 9 5 10 581 1477 17 14 11 136 11 15 482 18 23 277 6 18 24 21 11 11 41 29 17 22 34 16 13 17 15 1488 377 30 17 14 6 13 974 14 28 265 12 12 533 18 45 15 11 12 24 5 810 21 101 8 20 729 13 17 26 34 179 23 13 24 16 23 21 965 5 11 28 382 19 15 1090 18 20 1484 15 1005 14 13 20 16 121 6 17 34 969 8 5946 23 30 110 9 1006 19 12 37 12 29 13 13 12 12 11 727 6 25 20 267 1051 14 9 29 23 18 22 9 14 21 27 25 1486 26 16 11 24 1667 26 8 13 11 16 15 17 14 15 26 252 147 870 20 495 20 6 19 944 27 20 10 10 16 20 14 12 498 12 23 9 118 1005 15 11 12 19 76 15 12 14 188 15 224 14 956 24 26 1487 33 17 25 15 12 20 28 32 17 8 20 15 11 16 20 771 206 17 25 170 17 27 12 23 513 16 460 814 20 275 20 19 16 12 15 39 13 14 16 12 17 1005 19 6 146 17 15 21 13 2035 18 11 17 12 11 263 11 11 15 16 967 11 26 12 17 23 9 13 812 28 25 24 12 20 18 13 22 1483 15 18 272 12 9 14 35 8 81 171 17 215 962 14 19 10 25 794 77 19 18 19 28 11 2962 17 23 15 19 18 19 15 12 18 26 17 13 10 23 14 965 11 29 15 2322 18 27 13 29 17 23 16 22 26 120 20 15 13 33 20 15 404 21 22 24 7 19 15 14 9 23 17 14 18 12 16 18 1006 20 28 24 17 48 422 15 14 16 14 14 16 25 21 11 26 22 13 383 22 51 22 17 19 15 14 21 13 15 31 18 22 30 14 27 16 11 16 18 12 18 23 14188 19 27 11 26 8 16 26 8 22 15 11 20 63 17 18 23 490 24 22 257 11 13 14 11 17 20 641 9 140 18 18 22 140 12 33 12 17 1490 32 26 20 20 37 37 19 13 26 17 9 10 13 25 19 27 12 23 15 24 17 26 12 18 26 28 17 24 692 95 23 19 21 92 674 15 4008 25 12 17 740 25 16 16 12 11 14 48 11 9 15 12 22 19 15 29 21 501 22 17 27 39 13 69 11 18 21 8 14 34 37 229 7 37 27 29 22 23 19 20 14 13 9 422 35 9 15 16 26 18 12 20 19 667 34 20 541 21 18 14 24 10 33 23 13 25 15 15 18 28 156 26 24 69 18 24 18 21 2478 20 33 24 9 18 24 14 18 4211 24 19 720 14 34 33 17 19 14 15 36 17 1867 417 252 8 16 23 8 14 14 29 34 10 14 20 27 1433 19 10 7 23 13 22 13 54 17 25 10 19 21 38 13 31 12 18 15 24 28 166 19 19 21 41 14 440 13 15 8 19 14 78 734 31 292 9 12 23 11 12 18 521 10 121 851 1005 125 12 19 21 6796 19 17 492 1488 21 16 16 1001 14 31 500 18 46 26 30 13 24 710 23 36 20 12 18 89 22 18 24 19 13 797 26 10 2399 31 16 755 15 1490 21 10 21 18 10 52 16 379 24 1013 11 12 131 161 14 16 17 281 12 16 1497 7 14 26 15 255 8 172 14532 21 14 11 15 972 22 413 16 39 13 508 9 257 31 19 19 22 16 1487 24 13 1760 14 18 29 1482 13 9 18 11 9 378 716 30 17 1415 23 37 74 14 8 8 9 12 18 10 20 17 1416 24 835 11 17 8 14 12 14 14 14 13 18 13 150 22 11 19 20 12 34 19 34 21 546 11 16 13 22 21 14 3794 22 26 18 750 31 85 7 87 22 29 10 18 24 22 16 18 18 17 16 44 22 15 524 27 10 942 55 12 21 1007 11 23 1385 20 17 18 15 11 19 1127 20 18 699 24 20 20 19 18 285 13 16 17 72 16 32 14 22 15 497 39 25 15 24 8 14 10 2154 15 25 9 111 23 354 435 23 12 19 402 34 259 88 17 16 14 18 15 23 13 24 15 43 46 9 12 9 24 17 106 484 501 19 13 25 277 26 131 31 37 22 16 19 1276 20 15 9 25 16 21 51 23 38 20 68 70 24 18 501 22 8 26 11 16 21 21 17 16 9 14 411 646 47 1487 12 19 74 19 17 19 13 28 31 24 38 16 458 19 57 25 82 18 21 23 1165 16 22 18 32 22 22 23 14 892 14 1451 29 14 29 27 17 19 16 911 17 20 12 1490 27 19 27 894 16 26 30 15 30 33 10 1014 9 449 18 7 15 13 13 10 13 15 13 70 23 11 
To predecode: 0
Predecoding something: 0
Predecode request dropped: 0
sizeofblock_0 0
sizeofblock_1 32799
sizeofblock_2 43232
sizeofblock_3 42520
sizeofblock_4 21834
sizeofblock_5 0
sizeofblock_6 0
sizeofblock_7 0
sizeofblock_8 0
Variant_0 Correct: 1615390 Incorrect: 0 Accuracy: 1
Variant_1 Correct: 2092490 Incorrect: 0 Accuracy: 1
Variant_2 Correct: 3654380 Incorrect: 0 Accuracy: 1
Variant_3 Correct: 0 Incorrect: 0 Accuracy: -nan
