
*** ChampSim Multicore Out-of-Order Simulator ***

Warmup Instructions: 50000000
Simulation Instructions: 50000000
Number of CPUs: 1
LLC sets: 2048
LLC ways: 16
Off-chip DRAM Size: 4096 MB Channels: 1 Width: 64-bit Data Rate: 6400 MT/s
CPU 0 runs ./micro_traces/srv17.trace.gz
.gz
ITLB has LRU replacement policy
DTLB has LRU replacement policy
STLB has LRU replacement policy
FDIP Prefetcher at L1I
L1I has LRU replacement policy
L1D has LRU replacement policy
Initialize SRRIP state for L2C
Initialize DRRIP state for LLC
Heartbeat_Variant_0 : 1296 0.316406 per_variant_size: 0 1296 0 0 0 0 0 0 0 
Heartbeat_Variant_1 : 1048 0.255859 per_variant_size: 0 328 720 0 0 0 0 0 0 
Heartbeat_Variant_2 : 962 0.234863 per_variant_size: 0 252 185 153 372 0 0 0 0 
Heartbeat_Variant_3 : 0 0 per_variant_size: 0 0 0 0 0 0 0 0 0 
Heartbeat_Variant_0_evicts 0 : 5688 1 : 1 2 : 0 3 : 0 
Heartbeat_Variant_1_evicts 0 : 1 1 : 0 2 : 199 3 : 0 
Heartbeat_Variant_2_evicts 0 : 1 1 : 199 2 : 0 3 : 0 
Heartbeat_Variant_3_evicts 0 : 0 1 : 0 2 : 0 3 : 0 
Heartbeat CPU 0 instructions: 10000000 cycles: 2798563 heartbeat IPC: 3.57326 cumulative IPC: 3.57326 (Simulation time: 0 hr 1 min 57 sec) 
Heartbeat_Variant_0 : 1337 0.326416 per_variant_size: 0 1337 0 0 0 0 0 0 0 
Heartbeat_Variant_1 : 1090 0.266113 per_variant_size: 0 332 758 0 0 0 0 0 0 
Heartbeat_Variant_2 : 1002 0.244629 per_variant_size: 0 255 192 159 396 0 0 0 0 
Heartbeat_Variant_3 : 0 0 per_variant_size: 0 0 0 0 0 0 0 0 0 
Heartbeat_Variant_0_evicts 0 : 5548 1 : 2 2 : 0 3 : 0 
Heartbeat_Variant_1_evicts 0 : 0 1 : 0 2 : 192 3 : 0 
Heartbeat_Variant_2_evicts 0 : 2 1 : 192 2 : 0 3 : 0 
Heartbeat_Variant_3_evicts 0 : 0 1 : 0 2 : 0 3 : 0 
Heartbeat CPU 0 instructions: 20000000 cycles: 5596088 heartbeat IPC: 3.57459 cumulative IPC: 3.57393 (Simulation time: 0 hr 3 min 44 sec) 
Heartbeat_Variant_0 : 1382 0.337402 per_variant_size: 0 1382 0 0 0 0 0 0 0 
Heartbeat_Variant_1 : 1133 0.276611 per_variant_size: 0 329 804 0 0 0 0 0 0 
Heartbeat_Variant_2 : 1034 0.252441 per_variant_size: 0 249 201 165 419 0 0 0 0 
Heartbeat_Variant_3 : 0 0 per_variant_size: 0 0 0 0 0 0 0 0 0 
Heartbeat_Variant_0_evicts 0 : 5565 1 : 7 2 : 1 3 : 0 
Heartbeat_Variant_1_evicts 0 : 3 1 : 0 2 : 198 3 : 0 
Heartbeat_Variant_2_evicts 0 : 6 1 : 197 2 : 0 3 : 0 
Heartbeat_Variant_3_evicts 0 : 0 1 : 0 2 : 0 3 : 0 
Heartbeat CPU 0 instructions: 30000002 cycles: 8394190 heartbeat IPC: 3.57385 cumulative IPC: 3.5739 (Simulation time: 0 hr 5 min 51 sec) 
Heartbeat_Variant_0 : 1383 0.337646 per_variant_size: 0 1383 0 0 0 0 0 0 0 
Heartbeat_Variant_1 : 1135 0.2771 per_variant_size: 0 326 809 0 0 0 0 0 0 
Heartbeat_Variant_2 : 1034 0.252441 per_variant_size: 0 248 201 183 402 0 0 0 0 
Heartbeat_Variant_3 : 0 0 per_variant_size: 0 0 0 0 0 0 0 0 0 
Heartbeat_Variant_0_evicts 0 : 5641 1 : 0 2 : 1 3 : 0 
Heartbeat_Variant_1_evicts 0 : 0 1 : 0 2 : 197 3 : 0 
Heartbeat_Variant_2_evicts 0 : 0 1 : 197 2 : 0 3 : 0 
Heartbeat_Variant_3_evicts 0 : 0 1 : 0 2 : 0 3 : 0 
Heartbeat CPU 0 instructions: 40000003 cycles: 11192338 heartbeat IPC: 3.57379 cumulative IPC: 3.57387 (Simulation time: 0 hr 7 min 50 sec) 
Heartbeat_Variant_0 : 1399 0.341553 per_variant_size: 0 1399 0 0 0 0 0 0 0 
Heartbeat_Variant_1 : 1167 0.284912 per_variant_size: 0 323 844 0 0 0 0 0 0 
Heartbeat_Variant_2 : 1047 0.255615 per_variant_size: 0 251 201 169 426 0 0 0 0 
Heartbeat_Variant_3 : 0 0 per_variant_size: 0 0 0 0 0 0 0 0 0 
Heartbeat_Variant_0_evicts 0 : 5500 1 : 2 2 : 2 3 : 0 
Heartbeat_Variant_1_evicts 0 : 3 1 : 0 2 : 196 3 : 0 
Heartbeat_Variant_2_evicts 0 : 2 1 : 196 2 : 0 3 : 0 
Heartbeat_Variant_3_evicts 0 : 0 1 : 0 2 : 0 3 : 0 
Heartbeat CPU 0 instructions: 50000003 cycles: 13989903 heartbeat IPC: 3.57454 cumulative IPC: 3.57401 (Simulation time: 0 hr 9 min 50 sec) 

Warmup complete CPU 0 instructions: 50000003 cycles: 13989903 (Simulation time: 0 hr 9 min 50 sec) 

Cycle: 20000000 FTQ IN: 58313187 FTQ occupancy: 19.8721 DECODE IN: 58313151 DECODE occupancy: 51.98 ROB IN: 58313151 ROB occupancy: 314.634 ROB OUT: 58312984
Heartbeat_Variant_0 : 1399 0.341553 per_variant_size: 0 1399 0 0 0 0 0 0 0 
Heartbeat_Variant_1 : 1167 0.284912 per_variant_size: 0 328 839 0 0 0 0 0 0 
Heartbeat_Variant_2 : 1048 0.255859 per_variant_size: 0 250 203 180 415 0 0 0 0 
Heartbeat_Variant_3 : 0 0 per_variant_size: 0 0 0 0 0 0 0 0 0 
Heartbeat_Variant_0_evicts 0 : 5505 1 : 0 2 : 0 3 : 0 
Heartbeat_Variant_1_evicts 0 : 0 1 : 0 2 : 194 3 : 0 
Heartbeat_Variant_2_evicts 0 : 0 1 : 195 2 : 0 3 : 0 
Heartbeat_Variant_3_evicts 0 : 0 1 : 0 2 : 0 3 : 0 
Heartbeat CPU 0 instructions: 60000002 cycles: 21220651 heartbeat IPC: 1.38298 cumulative IPC: 1.38298 (Simulation time: 0 hr 11 min 54 sec) 
Heartbeat_Variant_0 : 1409 0.343994 per_variant_size: 0 1409 0 0 0 0 0 0 0 
Heartbeat_Variant_1 : 1175 0.286865 per_variant_size: 0 338 837 0 0 0 0 0 0 
Heartbeat_Variant_2 : 1054 0.257324 per_variant_size: 0 256 203 162 433 0 0 0 0 
Heartbeat_Variant_3 : 0 0 per_variant_size: 0 0 0 0 0 0 0 0 0 
Heartbeat_Variant_0_evicts 0 : 5557 1 : 1 2 : 1 3 : 0 
Heartbeat_Variant_1_evicts 0 : 1 1 : 0 2 : 195 3 : 0 
Heartbeat_Variant_2_evicts 0 : 1 1 : 196 2 : 0 3 : 0 
Heartbeat_Variant_3_evicts 0 : 0 1 : 0 2 : 0 3 : 0 
Heartbeat CPU 0 instructions: 70000003 cycles: 28533670 heartbeat IPC: 1.36742 cumulative IPC: 1.37516 (Simulation time: 0 hr 14 min 6 sec) 
Cycle: 30000000 FTQ IN: 13658148 FTQ occupancy: 12.7402 DECODE IN: 13658147 DECODE occupancy: 33.1344 ROB IN: 13658147 ROB occupancy: 234.866 ROB OUT: 13658295
Heartbeat_Variant_0 : 1418 0.346191 per_variant_size: 0 1418 0 0 0 0 0 0 0 
Heartbeat_Variant_1 : 1191 0.290771 per_variant_size: 0 338 853 0 0 0 0 0 0 
Heartbeat_Variant_2 : 1061 0.259033 per_variant_size: 0 262 197 184 418 0 0 0 0 
Heartbeat_Variant_3 : 0 0 per_variant_size: 0 0 0 0 0 0 0 0 0 
Heartbeat_Variant_0_evicts 0 : 5678 1 : 2 2 : 0 3 : 0 
Heartbeat_Variant_1_evicts 0 : 2 1 : 0 2 : 200 3 : 0 
Heartbeat_Variant_2_evicts 0 : 1 1 : 200 2 : 0 3 : 0 
Heartbeat_Variant_3_evicts 0 : 0 1 : 0 2 : 0 3 : 0 
Heartbeat CPU 0 instructions: 80000000 cycles: 35783847 heartbeat IPC: 1.37928 cumulative IPC: 1.37653 (Simulation time: 0 hr 16 min 24 sec) 
Cycle: 40000000 FTQ IN: 13665885 FTQ occupancy: 12.7164 DECODE IN: 13665799 DECODE occupancy: 32.942 ROB IN: 13665739 ROB occupancy: 233.136 ROB OUT: 13665410
Heartbeat_Variant_0 : 1442 0.352051 per_variant_size: 0 1442 0 0 0 0 0 0 0 
Heartbeat_Variant_1 : 1217 0.297119 per_variant_size: 0 338 879 0 0 0 0 0 0 
Heartbeat_Variant_2 : 1079 0.263428 per_variant_size: 0 258 206 173 442 0 0 0 0 
Heartbeat_Variant_3 : 0 0 per_variant_size: 0 0 0 0 0 0 0 0 0 
Heartbeat_Variant_0_evicts 0 : 5584 1 : 2 2 : 2 3 : 0 
Heartbeat_Variant_1_evicts 0 : 3 1 : 0 2 : 199 3 : 0 
Heartbeat_Variant_2_evicts 0 : 4 1 : 198 2 : 0 3 : 0 
Heartbeat_Variant_3_evicts 0 : 0 1 : 0 2 : 0 3 : 0 
Heartbeat CPU 0 instructions: 90000002 cycles: 43153963 heartbeat IPC: 1.35683 cumulative IPC: 1.37155 (Simulation time: 0 hr 18 min 43 sec) 
Cycle: 50000000 FTQ IN: 13880082 FTQ occupancy: 12.7118 DECODE IN: 13880091 DECODE occupancy: 33.2486 ROB IN: 13880091 ROB occupancy: 235.48 ROB OUT: 13880088
Heartbeat_Variant_0 : 1445 0.352783 per_variant_size: 0 1445 0 0 0 0 0 0 0 
Heartbeat_Variant_1 : 1222 0.29834 per_variant_size: 0 339 883 0 0 0 0 0 0 
Heartbeat_Variant_2 : 1082 0.26416 per_variant_size: 0 260 204 168 450 0 0 0 0 
Heartbeat_Variant_3 : 0 0 per_variant_size: 0 0 0 0 0 0 0 0 0 
Heartbeat_Variant_0_evicts 0 : 5681 1 : 3 2 : 1 3 : 0 
Heartbeat_Variant_1_evicts 0 : 3 1 : 0 2 : 199 3 : 0 
Heartbeat_Variant_2_evicts 0 : 0 1 : 200 2 : 0 3 : 0 
Heartbeat_Variant_3_evicts 0 : 0 1 : 0 2 : 0 3 : 0 
Heartbeat CPU 0 instructions: 100000003 cycles: 50349188 heartbeat IPC: 1.38981 cumulative IPC: 1.37516 (Simulation time: 0 hr 20 min 47 sec) 
Finished CPU 0 instructions: 50000000 cycles: 36359285 cumulative IPC: 1.37516 (Simulation time: 0 hr 20 min 47 sec) 

ChampSim completed all CPUs

Region of Interest Statistics

CPU 0 cumulative IPC: 1.37516 instructions: 50000000 cycles: 36359285
 Fetch stage stalled: 54.5734  Sim cycles: 36359285 fetch stall cycle: 19842489
 Empty decode stage: 36.0501  Sim cycles: 36359285 fetch stall cycle: 13107575
ITLB TOTAL     ACCESS:    5862282  HIT:    5366821  MISS:     495461  HIT %:    91.5483  MISS %:    8.45167   MPKI: 9.90922
ITLB LOAD TRANSLATION INSTRUCTION	ACCESS:    5739334  HIT:    5243873  MISS:     495461  HIT %:    91.3673  MISS %:    8.63273  MPKI: 9.90922
ITLB TRANSLATION FROM L1D PREFETCHER INSTRUCTION	ACCESS:     122948  HIT:     122948  MISS:          0  HIT %:        100  MISS %:          0  MPKI: 0

ITLB AVERAGE MISS LATENCY: 9.06655 cycles
ITLB RQ	ACCESS:    8000207	FORWARD:          0	MERGED:    1689463	TO_CACHE:    6310744

DTLB TOTAL     ACCESS:    8982362  HIT:    8510845  MISS:     471517  HIT %:    94.7506  MISS %:    5.24937   MPKI: 9.43034
DTLB LOAD TRANSLATION DATA	ACCESS:    8982362  HIT:    8510845  MISS:     471517  HIT %:    94.7506  MISS %:    5.24937  MPKI: 9.43034

DTLB AVERAGE MISS LATENCY: 9.35071 cycles
DTLB RQ	ACCESS:   13381411	FORWARD:          0	MERGED:    4360127	TO_CACHE:    9021284

STLB TOTAL     ACCESS:    1212523  HIT:    1210168  MISS:       2355  HIT %:    99.8058  MISS %:   0.194223   MPKI: 0.0471
STLB LOAD TRANSLATION INSTRUCTION	ACCESS:     495461  HIT:     495081  MISS:        380  HIT %:    99.9233  MISS %:  0.0766962  MPKI: 0.0076
STLB LOAD TRANSLATION DATA	ACCESS:     471517  HIT:     469564  MISS:       1953  HIT %:    99.5858  MISS %:   0.414195  MPKI: 0.03906
STLB TRANSLATION FROM L1D PREFETCHER DATA	ACCESS:     245545  HIT:     245523  MISS:         22  HIT %:     99.991  MISS %: 0.00895966  MPKI: 0.00044

STLB AVERAGE MISS LATENCY: 70.3231 cycles
STLB RQ	ACCESS:    1329914	FORWARD:          0	MERGED:     117334	TO_CACHE:    1212580

STLB Hit, L1D data hit: 0
STLB Hit, L2C data hit: 0
STLB Hit, LLC data hit: 0
STLB Hit, LLC data miss: 0
STLB STLB hints to L2: 0
L1D TOTAL     ACCESS:   13130952  HIT:   12015873  MISS:    1115079  HIT %:     91.508  MISS %:    8.49199   MPKI: 22.3016
L1D LOAD DATA	ACCESS:    6585960  HIT:    5848487  MISS:     737473  HIT %:    88.8023  MISS %:    11.1977  MPKI: 14.7495
L1D RFO DATA	ACCESS:    6218916  HIT:    5933741  MISS:     285175  HIT %:    95.4144  MISS %:    4.58561  MPKI: 5.7035
L1D PREFETCH DATA	ACCESS:     326076  HIT:     233645  MISS:      92431  HIT %:    71.6535  MISS %:    28.3465  MPKI: 1.84862

L1D PREFETCH  REQUESTED:     726187  ISSUED:     726187  USEFUL:      31534  USELESS:      67972
L1D USEFUL LOAD PREFETCHES:      31534 PREFETCH ISSUED TO LOWER LEVEL:      99620  ACCURACY: 31.6543
 TIMELY PREFETCHES:      31534 LATE PREFETCHES: 7123 DROPPED PREFETCHES: 14
L1D AVERAGE MISS LATENCY: 203754 cycles
L1D RQ	ACCESS:   10692138	FORWARD:          0	MERGED:    3905673	TO_CACHE:    6622250
L1D WQ	ACCESS:    6955247	FORWARD:     164530	MERGED:     196086	TO_CACHE:    6759161
L1D PQ	ACCESS:     363251	FORWARD:          0	MERGED:          0	TO_CACHE:     362936

L1D UNIQUE REGIONS ACCESSED: 0
L1D REGIONS CONFLICTS: 0
L1D Cross Page Prefetch Requests: 5799
L1D Same Page Prefetch Requests: 737987
L1D ROI Sum of L1D PQ occupancy: 4603840
L1D PREFETCHES PUSHED FROM L2C: 0
L1I TOTAL     ACCESS:    7171030  HIT:    4398943  MISS:    2772087  HIT %:    61.3433  MISS %:    38.6567   MPKI: 55.4417
L1I LOAD INSTRUCTION	ACCESS:    6507103  HIT:    3735016  MISS:    2772087  HIT %:    57.3991  MISS %:    42.6009  MPKI: 55.4417
L1I PREFETCH INSTRUCTION	ACCESS:     663927  HIT:     663927  MISS:          0  HIT %:        100  MISS %:          0  MPKI: 0

L1I PREFETCH  REQUESTED:    1598169  ISSUED:    1598169  USEFUL:          0  USELESS:          0
L1I USEFUL LOAD PREFETCHES:          0 PREFETCH ISSUED TO LOWER LEVEL:          0  ACCURACY: -nan
 TIMELY PREFETCHES:          0 LATE PREFETCHES: 0 DROPPED PREFETCHES: 0
L1I AVERAGE MISS LATENCY: 17.2436 cycles
L1I RQ	ACCESS:    9500036	FORWARD:          0	MERGED:    2670534	TO_CACHE:    6829502
L1I PQ	ACCESS:    1598169	FORWARD:          0	MERGED:     427464	TO_CACHE:    1170705

L1BTB TOTAL     ACCESS:    5673877  HIT:    2034633  MISS:    3639244  HIT %:    35.8597  MISS %:    64.1403   MPKI: 72.7849
L1BTB BRANCH_DIRECT_JUMP	ACCESS:     548886  HIT:     144016  MISS:     404870	AVERAGE STALL: 49.5057
L1BTB BRANCH_INDIRECT	ACCESS:     183185  HIT:      66078  MISS:     117107	AVERAGE STALL: 106.476
L1BTB BRANCH_CONDITIONAL	ACCESS:    2707257  HIT:    1410517  MISS:    1296740	AVERAGE STALL: 61.3234
L1BTB BRANCH_DIRECT_CALL	ACCESS:     945683  HIT:     104012  MISS:     841671	AVERAGE STALL: 68.9191
L1BTB BRANCH_INDIRECT_CALL	ACCESS:     171595  HIT:      20824  MISS:     150771	AVERAGE STALL: 129.676
L1BTB BRANCH_RETURN	ACCESS:    1117271  HIT:     289186  MISS:     828085	AVERAGE STALL: 48.9687
L1BTB BRANCH_OTHER ACCESS:          0  HIT:          0  MISS:          0	AVERAGE STALL: -nan
L1BTB TOTAL ROB OCCUPANCY AT BTB MISS: 3.02203

L2BTB TOTAL     ACCESS:    3613808  HIT:    3541781  MISS:      72027  HIT %:    98.0069  MISS %:    1.99311   MPKI: 1.44054
L2BTB BRANCH_DIRECT_JUMP	ACCESS:     400704  HIT:     397542  MISS:       3162	AVERAGE STALL: 49.5057
L2BTB BRANCH_INDIRECT	ACCESS:     106797  HIT:     104148  MISS:       2649	AVERAGE STALL: 106.476
L2BTB BRANCH_CONDITIONAL	ACCESS:    1296740  HIT:    1287225  MISS:       9515	AVERAGE STALL: 61.3234
L2BTB BRANCH_DIRECT_CALL	ACCESS:     841671  HIT:     840746  MISS:        925	AVERAGE STALL: 68.9191
L2BTB BRANCH_INDIRECT_CALL	ACCESS:     141225  HIT:     131123  MISS:      10102	AVERAGE STALL: 129.676
L2BTB BRANCH_RETURN	ACCESS:     826671  HIT:     780997  MISS:      45674	AVERAGE STALL: 48.9687
L2BTB BRANCH_OTHER ACCESS:          0  HIT:          0  MISS:          0	AVERAGE STALL: -nan
L2BTB TOTAL ROB OCCUPANCY AT BTB MISS: 152.691

L2C TOTAL     ACCESS:    4502178  HIT:    4028977  MISS:     473201  HIT %:    89.4895  MISS %:    10.5105   MPKI: 9.46402
L2C LOAD INSTRUCTION	ACCESS:    2772086  HIT:    2509539  MISS:     262547  HIT %:    90.5289  MISS %:     9.4711  MPKI: 5.25094
L2C LOAD TRANSLATION INSTRUCTION	ACCESS:        425  HIT:        114  MISS:        311  HIT %:    26.8235  MISS %:    73.1765  MPKI: 0.00622
L2C LOAD DATA	ACCESS:     730310  HIT:     653377  MISS:      76933  HIT %:    89.4657  MISS %:    10.5343  MPKI: 1.53866
L2C RFO DATA	ACCESS:     285069  HIT:     237637  MISS:      47432  HIT %:    83.3612  MISS %:    16.6388  MPKI: 0.94864
L2C PREFETCH DATA	ACCESS:     186975  HIT:     115619  MISS:      71356  HIT %:    61.8366  MISS %:    38.1634  MPKI: 1.42712
L2C WRITEBACK DATA	ACCESS:     525233  HIT:     512048  MISS:      13185  HIT %:    97.4897  MISS %:    2.51031  MPKI: 0.2637
L2C LOAD TRANSLATION DATA	ACCESS:       2026  HIT:        606  MISS:       1420  HIT %:    29.9112  MISS %:    70.0888  MPKI: 0.0284
L2C TRANSLATION FROM L1D PREFETCHER DATA	ACCESS:         54  HIT:         37  MISS:         17  HIT %:    68.5185  MISS %:    31.4815  MPKI: 0.00034

L2C PREFETCH  REQUESTED:      94954  ISSUED:      94954  USEFUL:       8116  USELESS:      63632
L2C USEFUL LOAD PREFETCHES:       8116 PREFETCH ISSUED TO LOWER LEVEL:      71609  ACCURACY: 11.3338
 TIMELY PREFETCHES:       8116 LATE PREFETCHES: 253 DROPPED PREFETCHES: 0
L2C AVERAGE MISS LATENCY: 38.6251 cycles
L2C RQ	ACCESS:    3790050	FORWARD:          0	MERGED:          0	TO_CACHE:    3789971
L2C WQ	ACCESS:     525233	FORWARD:         79	MERGED:          0	TO_CACHE:     525233
L2C PQ	ACCESS:     194574	FORWARD:          0	MERGED:       3623	TO_CACHE:     190951

L2C Dense regions hint from L2: 0
PSCL5 TOTAL     ACCESS:       4746  HIT:       2373  MISS:       2373  HIT %:         50  MISS %:         50   MPKI: 0.04746
PSCL5 LOAD TRANSLATION INSTRUCTION	ACCESS:       4638  HIT:       2319  MISS:       2319  HIT %:         50  MISS %:         50  MPKI: 0.04638
PSCL5 TRANSLATION FROM L1D PREFETCHER INSTRUCTION	ACCESS:        108  HIT:         54  MISS:         54  HIT %:         50  MISS %:         50  MPKI: 0.00108


PSCL4 TOTAL     ACCESS:       4459  HIT:       2228  MISS:       2231  HIT %:    49.9664  MISS %:    50.0336   MPKI: 0.04462
PSCL4 LOAD TRANSLATION INSTRUCTION	ACCESS:       3433  HIT:       2174  MISS:       1259  HIT %:    63.3265  MISS %:    36.6735  MPKI: 0.02518
PSCL4 TRANSLATION FROM L1D PREFETCHER INSTRUCTION	ACCESS:         86  HIT:         54  MISS:         32  HIT %:    62.7907  MISS %:    37.2093  MPKI: 0.00064
PSCL4 LOAD TRANSLATION DATA	ACCESS:        918  HIT:          0  MISS:        918  HIT %:          0  MISS %:        100  MPKI: 0.01836
PSCL4 TRANSLATION FROM L1D PREFETCHER DATA	ACCESS:         22  HIT:          0  MISS:         22  HIT %:          0  MISS %:        100  MPKI: 0.00044


PSCL3 TOTAL     ACCESS:       4588  HIT:       2288  MISS:       2300  HIT %:    49.8692  MISS %:    50.1308   MPKI: 0.046
PSCL3 LOAD TRANSLATION INSTRUCTION	ACCESS:       4304  HIT:       2239  MISS:       2065  HIT %:    52.0214  MISS %:    47.9786  MPKI: 0.0413
PSCL3 TRANSLATION FROM L1D PREFETCHER INSTRUCTION	ACCESS:         98  HIT:         49  MISS:         49  HIT %:         50  MISS %:         50  MPKI: 0.00098
PSCL3 LOAD TRANSLATION DATA	ACCESS:        186  HIT:          0  MISS:        186  HIT %:          0  MISS %:        100  MPKI: 0.00372


PSCL2 TOTAL     ACCESS:       4627  HIT:       2254  MISS:       2373  HIT %:    48.7141  MISS %:    51.2859   MPKI: 0.04746
PSCL2 LOAD TRANSLATION INSTRUCTION	ACCESS:       2581  HIT:       2200  MISS:        381  HIT %:    85.2383  MISS %:    14.7617  MPKI: 0.00762
PSCL2 TRANSLATION FROM L1D PREFETCHER INSTRUCTION	ACCESS:         54  HIT:         54  MISS:          0  HIT %:        100  MISS %:          0  MPKI: 0
PSCL2 LOAD TRANSLATION DATA	ACCESS:       1938  HIT:          0  MISS:       1938  HIT %:          0  MISS %:        100  MPKI: 0.03876
PSCL2 TRANSLATION FROM L1D PREFETCHER DATA	ACCESS:         54  HIT:          0  MISS:         54  HIT %:          0  MISS %:        100  MPKI: 0.00108


LLC TOTAL     ACCESS:     531501  HIT:     502652  MISS:      28849  HIT %:    94.5722  MISS %:    5.42784   MPKI: 0.57698
LLC LOAD INSTRUCTION	ACCESS:     262547  HIT:     261386  MISS:       1161  HIT %:    99.5578  MISS %:   0.442207  MPKI: 0.02322
LLC LOAD TRANSLATION INSTRUCTION	ACCESS:        311  HIT:        287  MISS:         24  HIT %:     92.283  MISS %:    7.71704  MPKI: 0.00048
LLC LOAD DATA	ACCESS:      76698  HIT:      73069  MISS:       3629  HIT %:    95.2685  MISS %:    4.73154  MPKI: 0.07258
LLC RFO DATA	ACCESS:      47408  HIT:      34097  MISS:      13311  HIT %:    71.9225  MISS %:    28.0775  MPKI: 0.26622
LLC PREFETCH DATA	ACCESS:      71608  HIT:      61349  MISS:      10259  HIT %:    85.6734  MISS %:    14.3266  MPKI: 0.20518
LLC WRITEBACK DATA	ACCESS:      71492  HIT:      71112  MISS:        380  HIT %:    99.4685  MISS %:   0.531528  MPKI: 0.0076
LLC LOAD TRANSLATION DATA	ACCESS:       1420  HIT:       1335  MISS:         85  HIT %:    94.0141  MISS %:    5.98592  MPKI: 0.0017
LLC TRANSLATION FROM L1D PREFETCHER DATA	ACCESS:         17  HIT:         17  MISS:          0  HIT %:        100  MISS %:          0  MPKI: 0

LLC AVERAGE MISS LATENCY: 153.666 cycles
LLC RQ	ACCESS:     388407	FORWARD:          0	MERGED:          0	TO_CACHE:     388401
LLC WQ	ACCESS:      71492	FORWARD:          7	MERGED:          0	TO_CACHE:      71492
LLC PQ	ACCESS:      71609	FORWARD:          0	MERGED:          0	TO_CACHE:      71608

LLC Dense regions hint to LLC: 0

RAW hits: 1945608
Loads Generated: 12637746
Loads sent to L1D: 10692138
Stores Generated: 6955235
Stores sent to L1D: 6955247
Major fault: 0 Minor fault: 2552
Allocated PAGES: 2552

stream: 
stream:times selected: 1173738
stream:pref_filled: 120480
stream:pref_useful: 23426
stream:pref_late: 6387
stream:misses: 6709
stream:misses_by_poll: 0

CS: 
CS:times selected: 174028
CS:pref_filled: 58717
CS:pref_useful: 34240
CS:pref_late: 6076
CS:misses: 14944
CS:misses_by_poll: 6

CPLX: 
CPLX:times selected: 998333
CPLX:pref_filled: 18900
CPLX:pref_useful: 3998
CPLX:pref_late: 2900
CPLX:misses: 88036
CPLX:misses_by_poll: 2

NL_L1: 
NL:times selected: 19223
NL:pref_filled: 517
NL:pref_useful: 198
NL:pref_late: 185
NL:misses: 1038
NL:misses_by_poll: 0

total selections: 2365322
total_filled: 92431
total_useful: 31534
total_late: 16747
total_polluted: 8
total_misses_after_warmup: 773763
conflicts: 5554274

test: 112277

DRAM Statistics
 CHANNEL 0
 RQ ROW_BUFFER_HIT:      10468  ROW_BUFFER_MISS:      17995
 DBUS_CONGESTED:         12
 WQ ROW_BUFFER_HIT:       1434  ROW_BUFFER_MISS:      11885  FULL:          0

 AVG_CONGESTED_CYCLE: 6

CPU 0 Branch Prediction Accuracy: 99.8161% MPKI: 0.33636 Average ROB Occupancy at Mispredict: 180.68
Branch types
NOT_BRANCH: 40854613 81.7092%
BRANCH_DIRECT_JUMP: 548886 1.09777%
BRANCH_INDIRECT: 183185 0.36637%
BRANCH_CONDITIONAL: 6178577 12.3572%
BRANCH_DIRECT_CALL: 945683 1.89137%
BRANCH_INDIRECT_CALL: 171595 0.34319%
BRANCH_RETURN: 1117271 2.23454%
BRANCH_OTHER: 0 0%

DRAM PAGES: 1048576
Allocated PAGES: 2552
Average_ROB_Occupancy: 235.897
Average_Decode_Occupancy: 33.1064
Average_FTQ_Occupancy: 12.6917
Indirect max targets: 14 Average targets: 1.15878
Branch_type:  BRANCH_DIRECT_JUMP:  Count Percentage: 2.90445 7.06577 3.67387 9.84561 1.96611 6.3021 0.992401 67.2497 
Branch_type:  BRANCH_INDIRECT:  Count Percentage: 11.7648 3.43858 3.74614 0 1.33894 9.67141 19.2161 50.8241 
Branch_type:  BRANCH_CONDITIONAL:  Count Percentage: 21.694 6.34181 1.8039 8.48604 1.39315 5.44797 1.89696 52.9362 
Branch_type:  BRANCH_DIRECT_CALL:  Count Percentage: 0.766559 1.30145 1.42966 4.67873 2.44874 2.56093 0.886311 85.9276 
Branch_type:  BRANCH_INDIRECT_CALL:  Count Percentage: 9.57241 0.5703 3.00041 4.85527 0 2.26634 1.28514 78.4501 
Branch_type:  BRANCH_RETURN:  Count Percentage: 4.28475 4.27485 1.27147 8.89613 2.1287 7.12889 3.0691 68.9461 
Branch_type:  BRANCH_DIRECT_JUMP:  Total Count: 31860 77507 40300 108000 21567 69130 10886 737686 
Branch_type:  BRANCH_INDIRECT:  Total Count: 43072 12589 13715 0 4902 35408 70352 186072 
Branch_type:  BRANCH_CONDITIONAL:  Total Count: 2679373 783263 222795 1048092 172065 672867 234289 6538030 
Branch_type:  BRANCH_DIRECT_CALL:  Total Count: 14486 24594 27017 88416 46275 48395 16749 1623812 
Branch_type:  BRANCH_INDIRECT_CALL:  Total Count: 32848 1957 10296 16661 0 7777 4410 269204 
Branch_type:  BRANCH_RETURN:  Total Count: 95709 95488 28401 198714 47549 159239 68555 1540059 
Number of unique branch instructions: 10248
Upper 32 bits: 
aaaa
ffff
ffff0000
Unique upper 32 bits: 3
Unique upper 36 bits: 3
Unique upper 40 bits: 5
Unique upper 44 bits: 32
Unique upper 48 bits: 153
Variant_0 : 1445 0.352783
Variant_1 : 1222 0.29834
Variant_2 : 1082 0.26416
Variant_3 : 0 0
Offset_3 4259
Offset_4 250
Offset_5 460
Offset_6 516
Offset_7 611
Offset_8 533
Offset_9 479
Offset_10 397
Offset_11 337
Offset_12 299
Offset_13 221
Offset_14 240
Offset_15 195
Offset_16 224
Offset_17 155
Offset_18 134
Offset_19 243
Offset_20 141
Offset_21 235
Offset_22 405
Offset_23 241
Offset_24 336
Offset_25 92
Offset_47 84
Offset_64 1
decode_dispatch_called: 25193604 69.2907
Dispatch_width: 0 13463268 53.4392 37.0284
Dispatch_width: 1 940300 3.7323 2.58613
Dispatch_width: 2 801868 3.18282 2.2054
Dispatch_width: 3 490234 1.94587 1.3483
Dispatch_width: 4 5421616 21.5198 14.9112
Dispatch_width: 5 159125 0.631609 0.437646
Dispatch_width: 6 3917193 15.5484 10.7736
Empty_decode_cycles: 11165681 30.7093
ROB_full_cycles: 8522597 23.4399
Starvation_cycles_per_kilo_instr: 239.195
Starvation_cycles_per_kilo_instr_3: 183.388
Starvation_cycles_per_kilo_instr_0: 161.064
Branch_type_1  (3,1)  (4,7)  (5,36)  (6,71)  (7,121)  (8,130)  (9,126)  (10,103)  (11,76)  (12,51)  (13,8)  (14,2)  (15,3)  (16,4)  (18,1)  (19,4)  (20,2)  (21,1)  (22,3)  (23,2)  (24,10)  (25,12) 
Branch_type_2  (3,1)  (4,1)  (5,1)  (8,3)  (9,3)  (12,1)  (13,1)  (14,1)  (16,3)  (17,2)  (20,2)  (21,2)  (23,5)  (24,1)  (47,39) 
Branch_type_3  (3,4257)  (4,242)  (5,419)  (6,429)  (7,459)  (8,339)  (9,261)  (10,160)  (11,137)  (12,58)  (13,7)  (64,1) 
Branch_type_4  (6,4)  (7,8)  (8,26)  (9,52)  (10,63)  (11,63)  (12,105)  (13,94)  (14,108)  (15,93)  (16,101)  (17,71)  (18,62)  (19,119)  (20,72)  (21,124)  (22,216)  (23,136)  (24,197)  (25,76) 
Branch_type_5  (8,2)  (9,1)  (10,4)  (11,5)  (12,3)  (13,14)  (14,16)  (15,11)  (16,20)  (17,11)  (18,16)  (19,12)  (20,11)  (21,13)  (22,42)  (23,26)  (24,36) 
Branch_type_6  (5,4)  (6,12)  (7,23)  (8,33)  (9,36)  (10,67)  (11,56)  (12,81)  (13,97)  (14,113)  (15,88)  (16,96)  (17,71)  (18,55)  (19,108)  (20,54)  (21,95)  (22,144)  (23,72)  (24,92)  (25,4)  (47,45) 
Unique trigger count: 
Variant_0_evicts_0 : 0
Variant_0_evicts_1 : 0
Variant_0_evicts_2 : 0
Variant_0_evicts_3 : 0
Variant_1_evicts_0 : 0
Variant_1_evicts_1 : 0
Variant_1_evicts_2 : 0
Variant_1_evicts_3 : 0
Variant_2_evicts_0 : 0
Variant_2_evicts_1 : 0
Variant_2_evicts_2 : 0
Variant_2_evicts_3 : 0
Variant_3_evicts_0 : 0
Variant_3_evicts_1 : 0
Variant_3_evicts_2 : 0
Variant_3_evicts_3 : 0
BTB PER SET UNIQUE ADDR: 12 13 10 9 13 10 9 17 11 13 13 9 12 12 12 13 11 11 11 15 15 11 13 13 12 14 13 13 12 12 14 14 15 14 9 18 13 12 15 12 9 12 16 11 14 18 13 9 11 10 15 13 13 16 12 14 14 12 11 13 12 13 15 11 12 11 12 16 11 15 10 12 14 15 15 15 12 12 12 11 14 12 12 18 14 14 13 13 15 14 19 16 13 17 17 14 16 11 16 13 15 18 10 14 17 17 10 12 14 14 13 12 8 13 15 10 11 10 14 13 14 10 10 18 16 22 18 15 15 16 12 13 10 9 13 15 12 18 11 15 7 14 11 11 14 11 10 7 12 20 11 13 13 17 15 12 13 12 12 14 15 14 11 13 11 12 15 12 13 15 17 18 15 9 10 10 15 13 7 10 13 15 9 12 9 14 15 11 15 17 14 15 15 15 11 11 18 9 14 10 11 18 17 12 16 15 13 13 11 13 10 17 12 12 15 15 13 14 14 14 15 16 12 10 14 10 14 15 14 16 14 14 16 14 9 9 12 14 16 14 20 16 14 17 14 13 11 14 15 11 9 12 12 16 8 14 14 15 17 11 20 16 15 10 16 10 15 13 15 14 14 15 17 10 18 16 12 13 9 8 8 12 10 15 11 15 10 15 10 10 19 14 11 14 12 15 12 16 13 10 12 11 14 13 13 11 13 11 14 13 14 15 11 14 10 16 12 12 11 12 17 9 15 13 13 12 9 9 12 13 12 10 15 13 15 12 12 15 11 13 12 14 12 13 12 10 14 14 13 17 13 11 10 17 17 11 11 11 9 15 15 14 13 16 19 20 19 17 10 9 13 11 18 14 11 15 10 10 14 9 11 13 11 11 14 15 14 16 15 13 12 12 18 15 18 8 15 17 16 20 13 14 12 10 12 13 10 16 11 13 18 14 17 12 15 12 12 11 11 16 14 16 17 14 10 9 12 13 16 17 16 15 12 15 14 17 15 14 14 11 15 8 13 18 10 12 12 11 14 11 18 10 12 16 13 12 13 11 9 14 12 14 12 14 15 14 15 16 13 15 17 13 11 15 12 15 16 12 17 16 14 11 14 14 12 12 13 15 13 13 15 13 13 10 11 12 9 10 12 13 9 11 9 15 13 16 13 13 11 13 17 11 
BTB PER SET COUNT: 18 13 13 987 14 10 9 17 14 15 2466 10 14 192 14 513 13 12 11 989 15 11 14 16 13 18 2092 994 12 13 2471 994 997 996 12 22 14 14 20 17 9 1975 1060 11 1099 767 20 65 14 10 17 69 15 23 16 15 15 13 12 18 14 15 17 12 15 989 12 16 11 16 11 432 15 1491 18 1007 14 15 28 15 24 15 18 18 15 16 18 2400 17 15 1196 2468 13 22 20 14 1004 13 18 225 17 1487 10 20 106 20 498 22 14 15 13 685 8 14 17 14 11 10 18 13 14 10 12 20 22 2778 108 16 2383 436 12 17 512 10 15 1977 13 23 12 253 7 14 15 11 19 7851 11 7 15 22 37 14 997 18 1779 12 1481 13 12 999 16 20 13 995 11 1487 2033 15 15 16 17 794 1162 9 11 12 513 998 9 11 17 21 9 14 9 14 19 57 21 999 14 2468 507 18 14 11 19 988 14 12 11 2474 21 12 16 17 503 13 1987 13 10 20 14 12 21 15 13 14 781 14 17 16 13 10 14 11 19 1000 15 17 69 15 19 14 9 11 12 19 2697 998 21 1006 15 18 16 13 11 20 16 1969 11 408 16 293 10 15 17 17 18 11 2960 2845 2965 13 1488 10 70 13 16 14 986 17 2148 1362 19 17 13 14 9 9 29 528 10 17 11 16 10 994 10 16 1985 992 11 15 12 1486 12 30 993 1478 12 11 16 644 17 15 14 13 20 15 5410 2957 1017 15 13 19 18 14 12 12 17 10 764 22997 16 12 9 10 14 13 12 12 15 18 17 26 16 23 11 17 13 754 995 15 13 10 23 20 1494 24 14 12 11 27 20 12 418 20 11 17 15 129 13 16 194 3461 22 19 10 10 2960 257 24 17 12 15 10 12 17 9 11 17 14 12 1491 17 507 16 17 19 12 12 377 15 26 8 147 1001 21 23 15 159 13 14 12 27 12 996 11 19 18 14 24 15 694 13 12 12 16 139 14 16 2476 14724 10 9 12 15 17 18 2534 1495 12 19 995 19 17 17 14 11 19 8 17 1669 13 14 1166 13 1004 17 22 10 391 19 14 14 13 11 1780 1972 440 17 14 15 2047 16 1199 31 13 15 1489 17 22 602 20 17 3446 13 20 2270 1976 11 19 14 12 12 16 16 13 17 18 14 13 24 11 12 2948 10 14 14 11 11 9 16 17 18 14 13 11 13 19 11 
To predecode: 0
Predecoding something: 0
Predecode request dropped: 0
sizeofblock_0 0
sizeofblock_1 19708
sizeofblock_2 19653
sizeofblock_3 61790
sizeofblock_4 48545
sizeofblock_5 0
sizeofblock_6 0
sizeofblock_7 0
sizeofblock_8 0
Variant_0 Correct: 1619227 Incorrect: 0 Accuracy: 1
Variant_1 Correct: 2097003 Incorrect: 0 Accuracy: 1
Variant_2 Correct: 3638428 Incorrect: 1970 Accuracy: 0.999459
Variant_3 Correct: 0 Incorrect: 0 Accuracy: -nan
