
*** ChampSim Multicore Out-of-Order Simulator ***

Warmup Instructions: 50000000
Simulation Instructions: 50000000
Number of CPUs: 1
LLC sets: 2048
LLC ways: 16
Off-chip DRAM Size: 4096 MB Channels: 1 Width: 64-bit Data Rate: 6400 MT/s
CPU 0 runs ./micro_traces/srv189.trace.gz
.gz
ITLB has LRU replacement policy
DTLB has LRU replacement policy
STLB has LRU replacement policy
FDIP Prefetcher at L1I
L1I has LRU replacement policy
L1D has LRU replacement policy
Initialize SRRIP state for L2C
Initialize DRRIP state for LLC
Heartbeat_Variant_0 : 1334 0.325684 per_variant_size: 0 1334 0 0 0 0 0 0 0 
Heartbeat_Variant_1 : 2430 0.593262 per_variant_size: 0 312 2118 0 0 0 0 0 0 
Heartbeat_Variant_2 : 0 0 per_variant_size: 0 0 0 0 0 0 0 0 0 
Heartbeat_Variant_3 : 0 0 per_variant_size: 0 0 0 0 0 0 0 0 0 
Heartbeat_Variant_0_evicts 0 : 5704 1 : 26 2 : 0 3 : 0 
Heartbeat_Variant_1_evicts 0 : 29 1 : 0 2 : 0 3 : 0 
Heartbeat_Variant_2_evicts 0 : 0 1 : 0 2 : 0 3 : 0 
Heartbeat_Variant_3_evicts 0 : 0 1 : 0 2 : 0 3 : 0 
Heartbeat CPU 0 instructions: 10000001 cycles: 2798494 heartbeat IPC: 3.57335 cumulative IPC: 3.57335 (Simulation time: 0 hr 1 min 41 sec) 
Heartbeat_Variant_0 : 1335 0.325928 per_variant_size: 0 1335 0 0 0 0 0 0 0 
Heartbeat_Variant_1 : 2439 0.595459 per_variant_size: 0 307 2132 0 0 0 0 0 0 
Heartbeat_Variant_2 : 0 0 per_variant_size: 0 0 0 0 0 0 0 0 0 
Heartbeat_Variant_3 : 0 0 per_variant_size: 0 0 0 0 0 0 0 0 0 
Heartbeat_Variant_0_evicts 0 : 5660 1 : 3 2 : 0 3 : 0 
Heartbeat_Variant_1_evicts 0 : 3 1 : 0 2 : 0 3 : 0 
Heartbeat_Variant_2_evicts 0 : 0 1 : 0 2 : 0 3 : 0 
Heartbeat_Variant_3_evicts 0 : 0 1 : 0 2 : 0 3 : 0 
Heartbeat CPU 0 instructions: 20000001 cycles: 5595347 heartbeat IPC: 3.57545 cumulative IPC: 3.5744 (Simulation time: 0 hr 3 min 21 sec) 
Heartbeat_Variant_0 : 1379 0.33667 per_variant_size: 0 1379 0 0 0 0 0 0 0 
Heartbeat_Variant_1 : 2514 0.61377 per_variant_size: 0 282 2232 0 0 0 0 0 0 
Heartbeat_Variant_2 : 0 0 per_variant_size: 0 0 0 0 0 0 0 0 0 
Heartbeat_Variant_3 : 0 0 per_variant_size: 0 0 0 0 0 0 0 0 0 
Heartbeat_Variant_0_evicts 0 : 5634 1 : 45 2 : 0 3 : 0 
Heartbeat_Variant_1_evicts 0 : 42 1 : 0 2 : 0 3 : 0 
Heartbeat_Variant_2_evicts 0 : 0 1 : 0 2 : 0 3 : 0 
Heartbeat_Variant_3_evicts 0 : 0 1 : 0 2 : 0 3 : 0 
Heartbeat CPU 0 instructions: 30000002 cycles: 8392848 heartbeat IPC: 3.57462 cumulative IPC: 3.57447 (Simulation time: 0 hr 5 min 1 sec) 
Heartbeat_Variant_0 : 1379 0.33667 per_variant_size: 0 1379 0 0 0 0 0 0 0 
Heartbeat_Variant_1 : 2514 0.61377 per_variant_size: 0 282 2232 0 0 0 0 0 0 
Heartbeat_Variant_2 : 0 0 per_variant_size: 0 0 0 0 0 0 0 0 0 
Heartbeat_Variant_3 : 0 0 per_variant_size: 0 0 0 0 0 0 0 0 0 
Heartbeat_Variant_0_evicts 0 : 5504 1 : 0 2 : 0 3 : 0 
Heartbeat_Variant_1_evicts 0 : 0 1 : 0 2 : 0 3 : 0 
Heartbeat_Variant_2_evicts 0 : 0 1 : 0 2 : 0 3 : 0 
Heartbeat_Variant_3_evicts 0 : 0 1 : 0 2 : 0 3 : 0 
Heartbeat CPU 0 instructions: 40000001 cycles: 11189024 heartbeat IPC: 3.57631 cumulative IPC: 3.57493 (Simulation time: 0 hr 6 min 41 sec) 
Heartbeat_Variant_0 : 1380 0.336914 per_variant_size: 0 1380 0 0 0 0 0 0 0 
Heartbeat_Variant_1 : 2524 0.616211 per_variant_size: 0 295 2229 0 0 0 0 0 0 
Heartbeat_Variant_2 : 0 0 per_variant_size: 0 0 0 0 0 0 0 0 0 
Heartbeat_Variant_3 : 0 0 per_variant_size: 0 0 0 0 0 0 0 0 0 
Heartbeat_Variant_0_evicts 0 : 5548 1 : 9 2 : 0 3 : 0 
Heartbeat_Variant_1_evicts 0 : 11 1 : 0 2 : 0 3 : 0 
Heartbeat_Variant_2_evicts 0 : 0 1 : 0 2 : 0 3 : 0 
Heartbeat_Variant_3_evicts 0 : 0 1 : 0 2 : 0 3 : 0 
Heartbeat CPU 0 instructions: 50000002 cycles: 13985552 heartbeat IPC: 3.57586 cumulative IPC: 3.57512 (Simulation time: 0 hr 8 min 20 sec) 

Warmup complete CPU 0 instructions: 50000002 cycles: 13985552 (Simulation time: 0 hr 8 min 20 sec) 

Cycle: 20000000 FTQ IN: 58436330 FTQ occupancy: 20.5436 DECODE IN: 58436209 DECODE occupancy: 53.3601 ROB IN: 58436149 ROB occupancy: 318.423 ROB OUT: 58435797
Heartbeat_Variant_0 : 1380 0.336914 per_variant_size: 0 1380 0 0 0 0 0 0 0 
Heartbeat_Variant_1 : 2524 0.616211 per_variant_size: 0 299 2225 0 0 0 0 0 0 
Heartbeat_Variant_2 : 0 0 per_variant_size: 0 0 0 0 0 0 0 0 0 
Heartbeat_Variant_3 : 0 0 per_variant_size: 0 0 0 0 0 0 0 0 0 
Heartbeat_Variant_0_evicts 0 : 5543 1 : 0 2 : 0 3 : 0 
Heartbeat_Variant_1_evicts 0 : 0 1 : 0 2 : 0 3 : 0 
Heartbeat_Variant_2_evicts 0 : 0 1 : 0 2 : 0 3 : 0 
Heartbeat_Variant_3_evicts 0 : 0 1 : 0 2 : 0 3 : 0 
Heartbeat CPU 0 instructions: 60000000 cycles: 21103312 heartbeat IPC: 1.40494 cumulative IPC: 1.40494 (Simulation time: 0 hr 10 min 18 sec) 
Heartbeat_Variant_0 : 1395 0.340576 per_variant_size: 0 1395 0 0 0 0 0 0 0 
Heartbeat_Variant_1 : 2555 0.623779 per_variant_size: 0 274 2281 0 0 0 0 0 0 
Heartbeat_Variant_2 : 0 0 per_variant_size: 0 0 0 0 0 0 0 0 0 
Heartbeat_Variant_3 : 0 0 per_variant_size: 0 0 0 0 0 0 0 0 0 
Heartbeat_Variant_0_evicts 0 : 5593 1 : 22 2 : 0 3 : 0 
Heartbeat_Variant_1_evicts 0 : 24 1 : 0 2 : 0 3 : 0 
Heartbeat_Variant_2_evicts 0 : 0 1 : 0 2 : 0 3 : 0 
Heartbeat_Variant_3_evicts 0 : 0 1 : 0 2 : 0 3 : 0 
Heartbeat CPU 0 instructions: 70000002 cycles: 28343412 heartbeat IPC: 1.3812 cumulative IPC: 1.39297 (Simulation time: 0 hr 12 min 19 sec) 
Cycle: 30000000 FTQ IN: 13871264 FTQ occupancy: 14.9227 DECODE IN: 13871380 DECODE occupancy: 37.6832 ROB IN: 13871422 ROB occupancy: 246.413 ROB OUT: 13871691
Heartbeat_Variant_0 : 1394 0.340332 per_variant_size: 0 1394 0 0 0 0 0 0 0 
Heartbeat_Variant_1 : 2557 0.624268 per_variant_size: 0 278 2279 0 0 0 0 0 0 
Heartbeat_Variant_2 : 0 0 per_variant_size: 0 0 0 0 0 0 0 0 0 
Heartbeat_Variant_3 : 0 0 per_variant_size: 0 0 0 0 0 0 0 0 0 
Heartbeat_Variant_0_evicts 0 : 5629 1 : 2 2 : 0 3 : 0 
Heartbeat_Variant_1_evicts 0 : 3 1 : 0 2 : 0 3 : 0 
Heartbeat_Variant_2_evicts 0 : 0 1 : 0 2 : 0 3 : 0 
Heartbeat_Variant_3_evicts 0 : 0 1 : 0 2 : 0 3 : 0 
Heartbeat CPU 0 instructions: 80000001 cycles: 35455530 heartbeat IPC: 1.40605 cumulative IPC: 1.3973 (Simulation time: 0 hr 14 min 16 sec) 
Cycle: 40000000 FTQ IN: 13957883 FTQ occupancy: 15.01 DECODE IN: 13957839 DECODE occupancy: 37.9569 ROB IN: 13957854 ROB occupancy: 248.282 ROB OUT: 13957840
Heartbeat_Variant_0 : 1393 0.340088 per_variant_size: 0 1393 0 0 0 0 0 0 0 
Heartbeat_Variant_1 : 2562 0.625488 per_variant_size: 0 289 2273 0 0 0 0 0 0 
Heartbeat_Variant_2 : 0 0 per_variant_size: 0 0 0 0 0 0 0 0 0 
Heartbeat_Variant_3 : 0 0 per_variant_size: 0 0 0 0 0 0 0 0 0 
Heartbeat_Variant_0_evicts 0 : 5602 1 : 2 2 : 0 3 : 0 
Heartbeat_Variant_1_evicts 0 : 4 1 : 0 2 : 0 3 : 0 
Heartbeat_Variant_2_evicts 0 : 0 1 : 0 2 : 0 3 : 0 
Heartbeat_Variant_3_evicts 0 : 0 1 : 0 2 : 0 3 : 0 
Heartbeat CPU 0 instructions: 90000000 cycles: 42659630 heartbeat IPC: 1.3881 cumulative IPC: 1.39499 (Simulation time: 0 hr 16 min 13 sec) 
Heartbeat_Variant_0 : 1394 0.340332 per_variant_size: 0 1394 0 0 0 0 0 0 0 
Heartbeat_Variant_1 : 2574 0.628418 per_variant_size: 0 295 2279 0 0 0 0 0 0 
Heartbeat_Variant_2 : 0 0 per_variant_size: 0 0 0 0 0 0 0 0 0 
Heartbeat_Variant_3 : 0 0 per_variant_size: 0 0 0 0 0 0 0 0 0 
Heartbeat_Variant_0_evicts 0 : 5678 1 : 16 2 : 0 3 : 0 
Heartbeat_Variant_1_evicts 0 : 20 1 : 0 2 : 0 3 : 0 
Heartbeat_Variant_2_evicts 0 : 0 1 : 0 2 : 0 3 : 0 
Heartbeat_Variant_3_evicts 0 : 0 1 : 0 2 : 0 3 : 0 
Heartbeat CPU 0 instructions: 100000003 cycles: 49772979 heartbeat IPC: 1.40581 cumulative IPC: 1.39714 (Simulation time: 0 hr 18 min 19 sec) 
Finished CPU 0 instructions: 50000001 cycles: 35787427 cumulative IPC: 1.39714 (Simulation time: 0 hr 18 min 19 sec) 

ChampSim completed all CPUs

Region of Interest Statistics

CPU 0 cumulative IPC: 1.39714 instructions: 50000001 cycles: 35787427
 Fetch stage stalled: 45.8854  Sim cycles: 35787427 fetch stall cycle: 16421218
 Empty decode stage: 26.089  Sim cycles: 35787427 fetch stall cycle: 9336585
ITLB TOTAL     ACCESS:    5837067  HIT:    5343876  MISS:     493191  HIT %:    91.5507  MISS %:    8.44929   MPKI: 9.86382
ITLB LOAD TRANSLATION INSTRUCTION	ACCESS:    5696487  HIT:    5203296  MISS:     493191  HIT %:    91.3422  MISS %:    8.65781  MPKI: 9.86382
ITLB TRANSLATION FROM L1D PREFETCHER INSTRUCTION	ACCESS:     140580  HIT:     140580  MISS:          0  HIT %:        100  MISS %:          0  MPKI: 0

ITLB AVERAGE MISS LATENCY: 9.05046 cycles
ITLB RQ	ACCESS:    7925323	FORWARD:          0	MERGED:    1610168	TO_CACHE:    6315155

DTLB TOTAL     ACCESS:    8955016  HIT:    8484464  MISS:     470552  HIT %:    94.7454  MISS %:    5.25462   MPKI: 9.41104
DTLB LOAD TRANSLATION DATA	ACCESS:    8955016  HIT:    8484464  MISS:     470552  HIT %:    94.7454  MISS %:    5.25462  MPKI: 9.41104

DTLB AVERAGE MISS LATENCY: 9.31988 cycles
DTLB RQ	ACCESS:   13328741	FORWARD:          0	MERGED:    4336745	TO_CACHE:    8991996

STLB TOTAL     ACCESS:    1212566  HIT:    1210581  MISS:       1985  HIT %:    99.8363  MISS %:   0.163702   MPKI: 0.0397
STLB LOAD TRANSLATION INSTRUCTION	ACCESS:     493191  HIT:     492975  MISS:        216  HIT %:    99.9562  MISS %:  0.0437964  MPKI: 0.00432
STLB LOAD TRANSLATION DATA	ACCESS:     470552  HIT:     468818  MISS:       1734  HIT %:    99.6315  MISS %:   0.368503  MPKI: 0.03468
STLB TRANSLATION FROM L1D PREFETCHER DATA	ACCESS:     248823  HIT:     248788  MISS:         35  HIT %:    99.9859  MISS %:  0.0140662  MPKI: 0.0007

STLB AVERAGE MISS LATENCY: 73.6997 cycles
STLB RQ	ACCESS:    1333343	FORWARD:          0	MERGED:     120736	TO_CACHE:    1212607

STLB Hit, L1D data hit: 0
STLB Hit, L2C data hit: 0
STLB Hit, LLC data hit: 0
STLB Hit, LLC data miss: 0
STLB STLB hints to L2: 0
L1D TOTAL     ACCESS:   13078884  HIT:   11964840  MISS:    1114044  HIT %:    91.4821  MISS %:    8.51788   MPKI: 22.2809
L1D LOAD DATA	ACCESS:    6545350  HIT:    5810400  MISS:     734950  HIT %:    88.7714  MISS %:    11.2286  MPKI: 14.699
L1D RFO DATA	ACCESS:    6204532  HIT:    5919041  MISS:     285491  HIT %:    95.3987  MISS %:    4.60133  MPKI: 5.70982
L1D PREFETCH DATA	ACCESS:     329002  HIT:     235399  MISS:      93603  HIT %:    71.5494  MISS %:    28.4506  MPKI: 1.87206

L1D PREFETCH  REQUESTED:     739576  ISSUED:     739576  USEFUL:      33623  USELESS:      68192
L1D USEFUL LOAD PREFETCHES:      33623 PREFETCH ISSUED TO LOWER LEVEL:     101871  ACCURACY: 33.0055
 TIMELY PREFETCHES:      33623 LATE PREFETCHES: 8217 DROPPED PREFETCHES: 13
L1D AVERAGE MISS LATENCY: 234889 cycles
L1D RQ	ACCESS:   10685255	FORWARD:          0	MERGED:    3938158	TO_CACHE:    6581565
L1D WQ	ACCESS:    6945323	FORWARD:     165908	MERGED:     198147	TO_CACHE:    6747176
L1D PQ	ACCESS:     369976	FORWARD:          0	MERGED:          0	TO_CACHE:     369600

L1D UNIQUE REGIONS ACCESSED: 0
L1D REGIONS CONFLICTS: 0
L1D Cross Page Prefetch Requests: 7085
L1D Same Page Prefetch Requests: 752353
L1D ROI Sum of L1D PQ occupancy: 4685589
L1D PREFETCHES PUSHED FROM L2C: 0
L1I TOTAL     ACCESS:    7102121  HIT:    4341370  MISS:    2760751  HIT %:    61.1278  MISS %:    38.8722   MPKI: 55.215
L1I LOAD INSTRUCTION	ACCESS:    6443074  HIT:    3682323  MISS:    2760751  HIT %:    57.1516  MISS %:    42.8484  MPKI: 55.215
L1I PREFETCH INSTRUCTION	ACCESS:     659047  HIT:     659047  MISS:          0  HIT %:        100  MISS %:          0  MPKI: 0

L1I PREFETCH  REQUESTED:    1611503  ISSUED:    1611503  USEFUL:          0  USELESS:          0
L1I USEFUL LOAD PREFETCHES:          0 PREFETCH ISSUED TO LOWER LEVEL:          0  ACCURACY: -nan
 TIMELY PREFETCHES:          0 LATE PREFETCHES: 0 DROPPED PREFETCHES: 0
L1I AVERAGE MISS LATENCY: 17.5302 cycles
L1I RQ	ACCESS:    9562790	FORWARD:          0	MERGED:    2817337	TO_CACHE:    6745453
L1I PQ	ACCESS:    1611503	FORWARD:          0	MERGED:     431633	TO_CACHE:    1179870

L1BTB TOTAL     ACCESS:    5672284  HIT:    2046398  MISS:    3625886  HIT %:    36.0771  MISS %:    63.9229   MPKI: 72.5177
L1BTB BRANCH_DIRECT_JUMP	ACCESS:     548977 HIT:     145258 MISS:     403719 AVERAGE STALL: 55.9585 AVERAGE FETCH STALL: 15.2057 AVERAGE FETCH QUEUE STALL: 18.1782 AVERAGE DECODE STALL: 21.6535 AVERAGE EXECUTE STALL: 1.78799e+15
L1BTB BRANCH_INDIRECT	ACCESS:     183386 HIT:      66225 MISS:     117161 AVERAGE STALL: 113.533 AVERAGE FETCH STALL: 11.5442 AVERAGE FETCH QUEUE STALL: 20.636 AVERAGE DECODE STALL: 13.7491 AVERAGE EXECUTE STALL: 66.6421
L1BTB BRANCH_CONDITIONAL	ACCESS:    2711693 HIT:    1419577 MISS:    1292116 AVERAGE STALL: 64.8134 AVERAGE FETCH STALL: 23.5704 AVERAGE FETCH QUEUE STALL: 24.2491 AVERAGE DECODE STALL: 16.5002 AVERAGE EXECUTE STALL: 4.02065e+15
L1BTB BRANCH_DIRECT_CALL	ACCESS:     943070 HIT:     104845 MISS:     838225 AVERAGE STALL: 90.8291 AVERAGE FETCH STALL: 24.2706 AVERAGE FETCH QUEUE STALL: 39.7834 AVERAGE DECODE STALL: 26.2155 AVERAGE EXECUTE STALL: 1.0271e+16
L1BTB BRANCH_INDIRECT_CALL	ACCESS:     171046 HIT:      20775 MISS:     150271 AVERAGE STALL: 137.232 AVERAGE FETCH STALL: 12.2006 AVERAGE FETCH QUEUE STALL: 16.8911 AVERAGE DECODE STALL: 11.3023 AVERAGE EXECUTE STALL: 96.3511
L1BTB BRANCH_RETURN	ACCESS:    1114112 HIT:     289718 MISS:     824394 AVERAGE STALL: 48.0735 AVERAGE FETCH STALL: 16.5227 AVERAGE FETCH QUEUE STALL: 4.98449 AVERAGE DECODE STALL: 5.77104 AVERAGE EXECUTE STALL: 4.28436e+14
L1BTB BRANCH_OTHER ACCESS:          0 HIT:          0 MISS:          0 AVERAGE STALL: -nan AVERAGE FETCH STALL: -nan AVERAGE FETCH QUEUE STALL: -nan AVERAGE DECODE STALL: -nan AVERAGE EXECUTE STALL: -nan
L1BTB TOTAL ROB OCCUPANCY AT BTB MISS: 2.80945

L2BTB TOTAL     ACCESS:    3600441  HIT:    3533426  MISS:      67015  HIT %:    98.1387  MISS %:     1.8613   MPKI: 1.3403
L2BTB BRANCH_DIRECT_JUMP	ACCESS:     399527 HIT:     393388 MISS:       6139 AVERAGE STALL: 55.9585 AVERAGE FETCH STALL: 15.2057 AVERAGE FETCH QUEUE STALL: 18.1782 AVERAGE DECODE STALL: 21.6535 AVERAGE EXECUTE STALL: 1.78799e+15
L2BTB BRANCH_INDIRECT	ACCESS:     106876 HIT:     104220 MISS:       2656 AVERAGE STALL: 113.533 AVERAGE FETCH STALL: 11.5442 AVERAGE FETCH QUEUE STALL: 20.636 AVERAGE DECODE STALL: 13.7491 AVERAGE EXECUTE STALL: 66.6421
L2BTB BRANCH_CONDITIONAL	ACCESS:    1292116 HIT:    1287480 MISS:       4636 AVERAGE STALL: 64.8134 AVERAGE FETCH STALL: 23.5704 AVERAGE FETCH QUEUE STALL: 24.2491 AVERAGE DECODE STALL: 16.5002 AVERAGE EXECUTE STALL: 4.02065e+15
L2BTB BRANCH_DIRECT_CALL	ACCESS:     838225 HIT:     836415 MISS:       1810 AVERAGE STALL: 90.8291 AVERAGE FETCH STALL: 24.2706 AVERAGE FETCH QUEUE STALL: 39.7834 AVERAGE DECODE STALL: 26.2155 AVERAGE EXECUTE STALL: 1.0271e+16
L2BTB BRANCH_INDIRECT_CALL	ACCESS:     140703 HIT:     130602 MISS:      10101 AVERAGE STALL: 137.232 AVERAGE FETCH STALL: 12.2006 AVERAGE FETCH QUEUE STALL: 16.8911 AVERAGE DECODE STALL: 11.3023 AVERAGE EXECUTE STALL: 96.3511
L2BTB BRANCH_RETURN	ACCESS:     822994 HIT:     781321 MISS:      41673 AVERAGE STALL: 48.0735 AVERAGE FETCH STALL: 16.5227 AVERAGE FETCH QUEUE STALL: 4.98449 AVERAGE DECODE STALL: 5.77104 AVERAGE EXECUTE STALL: 4.28436e+14
L2BTB BRANCH_OTHER ACCESS:          0 HIT:          0 MISS:          0 AVERAGE STALL: -nan AVERAGE FETCH STALL: -nan AVERAGE FETCH QUEUE STALL: -nan AVERAGE DECODE STALL: -nan AVERAGE EXECUTE STALL: -nan
L2BTB TOTAL ROB OCCUPANCY AT BTB MISS: 152.007

L2C TOTAL     ACCESS:    4480771  HIT:    3981775  MISS:     498996  HIT %:    88.8636  MISS %:    11.1364   MPKI: 9.97992
L2C LOAD INSTRUCTION	ACCESS:    2760751  HIT:    2474904  MISS:     285847  HIT %:     89.646  MISS %:     10.354  MPKI: 5.71694
L2C LOAD TRANSLATION INSTRUCTION	ACCESS:        245  HIT:         60  MISS:        185  HIT %:    24.4898  MISS %:    75.5102  MPKI: 0.0037
L2C LOAD DATA	ACCESS:     726708  HIT:     654414  MISS:      72294  HIT %:    90.0519  MISS %:    9.94815  MPKI: 1.44588
L2C RFO DATA	ACCESS:     285403  HIT:     231081  MISS:      54322  HIT %:    80.9666  MISS %:    19.0334  MPKI: 1.08644
L2C PREFETCH DATA	ACCESS:     185309  HIT:     115182  MISS:      70127  HIT %:    62.1567  MISS %:    37.8433  MPKI: 1.40254
L2C WRITEBACK DATA	ACCESS:     520491  HIT:     505640  MISS:      14851  HIT %:    97.1467  MISS %:    2.85327  MPKI: 0.29702
L2C LOAD TRANSLATION DATA	ACCESS:       1799  HIT:        448  MISS:       1351  HIT %:    24.9027  MISS %:    75.0973  MPKI: 0.02702
L2C TRANSLATION FROM L1D PREFETCHER DATA	ACCESS:         65  HIT:         46  MISS:         19  HIT %:    70.7692  MISS %:    29.2308  MPKI: 0.00038

L2C PREFETCH  REQUESTED:      91018  ISSUED:      91018  USEFUL:       8064  USELESS:      62651
L2C USEFUL LOAD PREFETCHES:       8064 PREFETCH ISSUED TO LOWER LEVEL:      70660  ACCURACY: 11.4124
 TIMELY PREFETCHES:       8064 LATE PREFETCHES: 533 DROPPED PREFETCHES: 0
L2C AVERAGE MISS LATENCY: 37.6608 cycles
L2C RQ	ACCESS:    3775033	FORWARD:          0	MERGED:          0	TO_CACHE:    3774971
L2C WQ	ACCESS:     520492	FORWARD:         62	MERGED:          0	TO_CACHE:     520492
L2C PQ	ACCESS:     192889	FORWARD:          0	MERGED:       3120	TO_CACHE:     189769

L2C Dense regions hint from L2: 0
PSCL5 TOTAL     ACCESS:       4006  HIT:       2003  MISS:       2003  HIT %:         50  MISS %:         50   MPKI: 0.04006
PSCL5 LOAD TRANSLATION INSTRUCTION	ACCESS:       3876  HIT:       1938  MISS:       1938  HIT %:         50  MISS %:         50  MPKI: 0.03876
PSCL5 TRANSLATION FROM L1D PREFETCHER INSTRUCTION	ACCESS:        130  HIT:         65  MISS:         65  HIT %:         50  MISS %:         50  MPKI: 0.0013


PSCL4 TOTAL     ACCESS:       3909  HIT:       1951  MISS:       1958  HIT %:    49.9105  MISS %:    50.0895   MPKI: 0.03916
PSCL4 LOAD TRANSLATION INSTRUCTION	ACCESS:       3464  HIT:       1887  MISS:       1577  HIT %:    54.4746  MISS %:    45.5254  MPKI: 0.03154
PSCL4 TRANSLATION FROM L1D PREFETCHER INSTRUCTION	ACCESS:        128  HIT:         64  MISS:         64  HIT %:         50  MISS %:         50  MPKI: 0.00128
PSCL4 LOAD TRANSLATION DATA	ACCESS:        317  HIT:          0  MISS:        317  HIT %:          0  MISS %:        100  MPKI: 0.00634


PSCL3 TOTAL     ACCESS:       3965  HIT:       1979  MISS:       1986  HIT %:    49.9117  MISS %:    50.0883   MPKI: 0.03972
PSCL3 LOAD TRANSLATION INSTRUCTION	ACCESS:       3492  HIT:       1915  MISS:       1577  HIT %:    54.8396  MISS %:    45.1604  MPKI: 0.03154
PSCL3 TRANSLATION FROM L1D PREFETCHER INSTRUCTION	ACCESS:        128  HIT:         64  MISS:         64  HIT %:         50  MISS %:         50  MPKI: 0.00128
PSCL3 LOAD TRANSLATION DATA	ACCESS:        345  HIT:          0  MISS:        345  HIT %:          0  MISS %:        100  MPKI: 0.0069


PSCL2 TOTAL     ACCESS:       3913  HIT:       1910  MISS:       2003  HIT %:    48.8117  MISS %:    51.1883   MPKI: 0.04006
PSCL2 LOAD TRANSLATION INSTRUCTION	ACCESS:       2062  HIT:       1845  MISS:        217  HIT %:    89.4762  MISS %:    10.5238  MPKI: 0.00434
PSCL2 TRANSLATION FROM L1D PREFETCHER INSTRUCTION	ACCESS:         65  HIT:         65  MISS:          0  HIT %:        100  MISS %:          0  MPKI: 0
PSCL2 LOAD TRANSLATION DATA	ACCESS:       1721  HIT:          0  MISS:       1721  HIT %:          0  MISS %:        100  MPKI: 0.03442
PSCL2 TRANSLATION FROM L1D PREFETCHER DATA	ACCESS:         65  HIT:          0  MISS:         65  HIT %:          0  MISS %:        100  MPKI: 0.0013


LLC TOTAL     ACCESS:     561354  HIT:     533980  MISS:      27374  HIT %:    95.1236  MISS %:    4.87642   MPKI: 0.54748
LLC LOAD INSTRUCTION	ACCESS:     285847  HIT:     285139  MISS:        708  HIT %:    99.7523  MISS %:   0.247685  MPKI: 0.01416
LLC LOAD TRANSLATION INSTRUCTION	ACCESS:        185  HIT:        158  MISS:         27  HIT %:    85.4054  MISS %:    14.5946  MPKI: 0.00054
LLC LOAD DATA	ACCESS:      71770  HIT:      68490  MISS:       3280  HIT %:    95.4298  MISS %:    4.57015  MPKI: 0.0656
LLC RFO DATA	ACCESS:      54307  HIT:      40895  MISS:      13412  HIT %:    75.3034  MISS %:    24.6966  MPKI: 0.26824
LLC PREFETCH DATA	ACCESS:      70660  HIT:      61178  MISS:       9482  HIT %:    86.5808  MISS %:    13.4192  MPKI: 0.18964
LLC WRITEBACK DATA	ACCESS:      77215  HIT:      76826  MISS:        389  HIT %:    99.4962  MISS %:   0.503788  MPKI: 0.00778
LLC LOAD TRANSLATION DATA	ACCESS:       1351  HIT:       1276  MISS:         75  HIT %:    94.4486  MISS %:    5.55144  MPKI: 0.0015
LLC TRANSLATION FROM L1D PREFETCHER DATA	ACCESS:         19  HIT:         18  MISS:          1  HIT %:    94.7368  MISS %:    5.26316  MPKI: 2e-05

LLC AVERAGE MISS LATENCY: 154.664 cycles
LLC RQ	ACCESS:     413485	FORWARD:          0	MERGED:          0	TO_CACHE:     413479
LLC WQ	ACCESS:      77215	FORWARD:          6	MERGED:          0	TO_CACHE:      77215
LLC PQ	ACCESS:      70660	FORWARD:          0	MERGED:          0	TO_CACHE:      70660

LLC Dense regions hint to LLC: 0

RAW hits: 1949310
Loads Generated: 12634564
Loads sent to L1D: 10685255
Stores Generated: 6945329
Stores sent to L1D: 6945323
Major fault: 0 Minor fault: 2570
Allocated PAGES: 2570

stream: 
stream:times selected: 1191760
stream:pref_filled: 122484
stream:pref_useful: 24363
stream:pref_late: 6670
stream:misses: 7976
stream:misses_by_poll: 0

CS: 
CS:times selected: 178026
CS:pref_filled: 59767
CS:pref_useful: 36432
CS:pref_late: 7320
CS:misses: 16072
CS:misses_by_poll: 4

CPLX: 
CPLX:times selected: 1012607
CPLX:pref_filled: 19240
CPLX:pref_useful: 4617
CPLX:pref_late: 3098
CPLX:misses: 92951
CPLX:misses_by_poll: 0

NL_L1: 
NL:times selected: 21048
NL:pref_filled: 812
NL:pref_useful: 377
NL:pref_late: 263
NL:misses: 1801
NL:misses_by_poll: 0

total selections: 2403441
total_filled: 93603
total_useful: 33623
total_late: 18596
total_polluted: 4
total_misses_after_warmup: 771168
conflicts: 5513407

test: 117734

DRAM Statistics
 CHANNEL 0
 RQ ROW_BUFFER_HIT:      10000  ROW_BUFFER_MISS:      16975
 DBUS_CONGESTED:          7
 WQ ROW_BUFFER_HIT:       1375  ROW_BUFFER_MISS:      11832  FULL:          0

 AVG_CONGESTED_CYCLE: 5

CPU 0 Branch Prediction Accuracy: 99.821% MPKI: 0.32738 Average ROB Occupancy at Mispredict: 194.657
Branch types
NOT_BRANCH: 40853718 81.7074%
BRANCH_DIRECT_JUMP: 548977 1.09795%
BRANCH_INDIRECT: 183386 0.366772%
BRANCH_CONDITIONAL: 6185716 12.3714%
BRANCH_DIRECT_CALL: 943070 1.88614%
BRANCH_INDIRECT_CALL: 171046 0.342092%
BRANCH_RETURN: 1114112 2.22822%
BRANCH_OTHER: 0 0%

DRAM PAGES: 1048576
Allocated PAGES: 2570
Average_ROB_Occupancy: 249.125
Average_Decode_Occupancy: 37.8031
Average_FTQ_Occupancy: 14.9164
Indirect max targets: 14 Average targets: 1.15017
Branch_type:  BRANCH_DIRECT_JUMP:  Count Percentage: 3.32081 5.83787 4.10524 8.79817 2.41135 6.3357 2.15008 67.0408 
Branch_type:  BRANCH_INDIRECT:  Count Percentage: 6.15279 3.45228 8.1678 9.69318 3.33717 2.80252 3.86527 62.529 
Branch_type:  BRANCH_CONDITIONAL:  Count Percentage: 25.0011 3.3707 1.52679 4.33429 2.09337 3.67671 2.51119 57.4858 
Branch_type:  BRANCH_DIRECT_CALL:  Count Percentage: 0.390424 1.7551 0.756094 4.1871 2.53674 2.74157 3.39738 84.2356 
Branch_type:  BRANCH_INDIRECT_CALL:  Count Percentage: 9.56474 0 2.9992 0 0 2.03047 5.00949 80.3961 
Branch_type:  BRANCH_RETURN:  Count Percentage: 7.54088 1.80349 1.03903 3.70719 3.80556 3.55907 3.34849 75.1963 
Branch_type:  BRANCH_DIRECT_JUMP:  Total Count: 36441 64062 45049 96547 26461 69525 23594 735674 
Branch_type:  BRANCH_INDIRECT:  Total Count: 22556 12656 29943 35535 12234 10274 14170 229230 
Branch_type:  BRANCH_CONDITIONAL:  Total Count: 3091170 416758 188774 535898 258827 454594 310487 7107628 
Branch_type:  BRANCH_DIRECT_CALL:  Total Count: 7350 33041 14234 78825 47756 51612 63958 1585794 
Branch_type:  BRANCH_INDIRECT_CALL:  Total Count: 32701 0 10254 0 0 6942 17127 274867 
Branch_type:  BRANCH_RETURN:  Total Count: 167803 40132 23121 82494 84683 79198 74512 1673302 
Number of unique branch instructions: 9834
Upper 32 bits: 
aaaa
ffff
ffff0000
Unique upper 32 bits: 3
Unique upper 36 bits: 3
Unique upper 40 bits: 5
Unique upper 44 bits: 32
Unique upper 48 bits: 153
Variant_0 : 1394 0.340332
Variant_1 : 2574 0.628418
Variant_2 : 0 0
Variant_3 : 0 0
Offset_3 4049
Offset_4 243
Offset_5 448
Offset_6 501
Offset_7 579
Offset_8 510
Offset_9 465
Offset_10 375
Offset_11 313
Offset_12 284
Offset_13 199
Offset_14 228
Offset_15 189
Offset_16 219
Offset_17 142
Offset_18 126
Offset_19 235
Offset_20 139
Offset_21 235
Offset_22 390
Offset_23 241
Offset_24 324
Offset_25 88
Offset_47 80
decode_dispatch_called: 26183731 73.1646
Dispatch_width: 0 14077487 53.7643 39.3364
Dispatch_width: 1 1019863 3.89503 2.84978
Dispatch_width: 2 844298 3.22451 2.3592
Dispatch_width: 3 494259 1.88766 1.3811
Dispatch_width: 4 6285872 24.0068 17.5645
Dispatch_width: 5 106435 0.406493 0.297409
Dispatch_width: 6 3355517 12.8153 9.37625
Empty_decode_cycles: 9603696 26.8354
ROB_full_cycles: 9946424 27.7931
Starvation_cycles_per_kilo_instr: 224.855
Starvation_cycles_per_kilo_instr_3: 160.932
Starvation_cycles_per_kilo_instr_0: 137.348
Branch_type_1  (3,1)  (4,7)  (5,36)  (6,70)  (7,114)  (8,127)  (9,124)  (10,98)  (11,70)  (12,51)  (13,5)  (14,2)  (15,3)  (16,4)  (18,1)  (19,4)  (20,2)  (21,1)  (22,3)  (23,2)  (24,10)  (25,12) 
Branch_type_2  (3,1)  (5,1)  (8,3)  (9,3)  (12,1)  (13,1)  (14,1)  (16,3)  (17,2)  (20,2)  (21,2)  (23,5)  (24,1)  (47,36) 
Branch_type_3  (3,4047)  (4,236)  (5,407)  (6,415)  (7,434)  (8,319)  (9,255)  (10,150)  (11,128)  (12,59)  (13,4) 
Branch_type_4  (6,4)  (7,8)  (8,26)  (9,51)  (10,60)  (11,59)  (12,95)  (13,86)  (14,101)  (15,89)  (16,98)  (17,63)  (18,57)  (19,114)  (20,72)  (21,124)  (22,207)  (23,136)  (24,186)  (25,72) 
Branch_type_5  (8,2)  (9,1)  (10,3)  (11,5)  (12,3)  (13,14)  (14,16)  (15,11)  (16,20)  (17,11)  (18,16)  (19,12)  (20,10)  (21,13)  (22,42)  (23,26)  (24,36) 
Branch_type_6  (5,4)  (6,12)  (7,23)  (8,33)  (9,31)  (10,64)  (11,51)  (12,75)  (13,89)  (14,108)  (15,86)  (16,94)  (17,66)  (18,52)  (19,105)  (20,53)  (21,95)  (22,138)  (23,72)  (24,91)  (25,4)  (47,44) 
Unique trigger count: 
Variant_0_evicts_0 : 0
Variant_0_evicts_1 : 0
Variant_0_evicts_2 : 0
Variant_0_evicts_3 : 0
Variant_1_evicts_0 : 0
Variant_1_evicts_1 : 0
Variant_1_evicts_2 : 0
Variant_1_evicts_3 : 0
Variant_2_evicts_0 : 0
Variant_2_evicts_1 : 0
Variant_2_evicts_2 : 0
Variant_2_evicts_3 : 0
Variant_3_evicts_0 : 0
Variant_3_evicts_1 : 0
Variant_3_evicts_2 : 0
Variant_3_evicts_3 : 0
BTB PER SET UNIQUE ADDR: 12 12 11 14 11 16 12 11 12 19 14 13 14 10 14 14 11 15 14 16 16 11 14 15 15 11 10 14 13 15 16 12 12 12 14 14 14 13 12 15 15 11 13 12 15 14 16 13 14 13 14 13 8 14 15 14 14 15 14 14 11 15 14 14 15 12 12 12 16 14 10 16 17 12 13 15 14 10 19 14 13 16 15 14 12 16 16 15 12 14 15 14 15 12 12 14 15 13 14 15 15 18 14 14 12 14 13 12 14 9 14 14 11 11 14 13 13 13 13 13 18 11 8 13 13 18 16 12 15 16 12 14 12 13 13 15 13 12 12 12 13 13 12 16 13 12 13 14 12 16 13 15 10 15 17 13 12 12 10 15 16 11 12 13 13 12 12 14 14 17 15 13 14 12 14 14 12 17 13 14 17 15 15 15 14 12 11 17 13 14 13 11 13 14 13 16 17 15 14 14 15 18 14 12 13 11 13 12 12 15 12 10 15 14 13 13 12 9 14 14 14 14 12 10 12 13 17 14 15 13 12 14 15 12 14 14 13 14 15 13 19 12 14 13 14 14 13 10 10 11 13 12 15 12 14 13 10 14 13 15 15 12 15 13 13 11 18 12 15 12 15 10 13 15 14 11 13 14 10 12 11 14 14 13 16 11 14 14 18 11 15 12 11 14 13 13 14 12 14 10 13 13 17 15 14 11 12 13 13 13 13 19 15 13 17 15 14 16 10 12 15 13 13 12 11 14 14 8 14 16 14 14 12 11 16 18 14 15 13 13 11 16 13 17 15 14 11 13 17 17 13 14 15 11 13 14 19 12 11 11 15 11 11 12 16 14 14 12 14 11 12 15 14 13 12 13 13 15 14 12 12 12 13 14 15 15 10 14 13 13 17 10 13 14 17 11 12 14 15 14 12 15 13 11 18 13 10 12 15 15 15 14 12 13 14 12 14 12 14 13 17 15 16 13 13 12 16 17 13 11 13 13 16 13 12 15 12 14 15 9 13 15 14 13 16 12 11 17 12 16 15 12 14 14 12 16 15 14 11 13 13 14 14 12 14 13 12 16 13 11 15 12 14 13 15 14 16 13 15 15 16 13 13 12 13 17 12 12 14 12 17 11 13 11 14 12 14 17 14 12 14 14 12 15 13 13 12 16 13 14 12 10 
BTB PER SET COUNT: 1005 20 12 33 104 384 14 12 16 26 14 13 14 1005 1032 15 13 16 14 83 16 11 288 514 15 11 10 980 13 17 2448 13 12 1973 16 18 511 13 15 16 586 11 1007 12 240 16 17 167 1188 15 18 802 429 1973 15 14 34 16 15 14 15 394 14 18 15 14 15 1006 17 15 11 84 20 1475 13 1010 511 10 1171 15 13 1509 18 1008 12 18 21 10724 2809 14 15 2449 15 13 14 16 982 14 17 20 15 1011 15 16 12 17 512 1259 683 9 512 986 11 11 15 13 13 482 510 13 18 15 8 1009 13 1850 23 14 15 1173 14 15 17 14 13 15 18 12 114 381 511 13 14 123 13 36 2938 15 13 202 14 16 10 16 17 13 12 511 10 15 985 24 15 44 16 12 13 17 35 17 17 39 981 86 16 16 17 20 14 15 18 16 387 15 14 14 11 737 13 15 14 16 510 14 16 17 18 16 16 15 18 18 15 14 718 13 13 29 1956 672 13 12 15 16 16 13 13 2987 1505 14 381 16 13 1009 13 262 17 17 16 13 15 21 15 418 16 14 14 15 622 979 1193 23 17 15 1503 2443 13 10 2441 11 13 12 17 12 14 13 12 19 13 895 1482 12 4341 17 1993 13 19 12 408 13 15 12 13 16 17 11 14 155 10 12 11 200 16 14 16 13 17 14 18 18 18 207 12 1482 979 2875 15 310 113 10 13 13 18 869 18 12 20514 13 15 515 4873 1482 957 13 1317 17 1007 18 10 13 18 13 13 14 12 15 20 8 14 20 17 121 13 11 17 24 14 15 1824 1261 11 383 15 17 484 1349 14 13 1483 20 13 15 17 12 16 15 518 15 13 11 15 11 11 20 150 2003 18 979 1650 13 15 1480 15 13 13 13 13 1727 798 12 12 13 15 16 1481 19 10 14 1007 13 17 11 14 14 17 11 12 17 1480 528 12 18 16 13 18 15 11 15 1012 17 15 1507 13 15 1518 21 16 14 16 141 17 15 16 14655 13 17 18 138 14 11 310 14 19 1723 12 15 14 15 1011 9 13 16 14 201 17 12 11 17 2968 18 15 980 16 16 12 16 18 15 11 979 674 625 867 18 1481 13 12 1481 13 1081 1012 15 26 13 15 28 946 18 21 199 1795 382 1476 1484 13 1272 13 13 15 14 18 11 13 45 78 13 562 18 16 13 14 14 16 15 14 16 509 18 14 15 12 10 
To predecode: 0
Predecoding something: 0
Predecode request dropped: 0
sizeofblock_0 0
sizeofblock_1 48980
sizeofblock_2 89168
sizeofblock_3 0
sizeofblock_4 0
sizeofblock_5 0
sizeofblock_6 0
sizeofblock_7 0
sizeofblock_8 0
Variant_0 Correct: 1613632 Incorrect: 0 Accuracy: 1
Variant_1 Correct: 5725308 Incorrect: 0 Accuracy: 1
Variant_2 Correct: 0 Incorrect: 0 Accuracy: -nan
Variant_3 Correct: 0 Incorrect: 0 Accuracy: -nan
