
*** ChampSim Multicore Out-of-Order Simulator ***

Warmup Instructions: 50000000
Simulation Instructions: 50000000
Number of CPUs: 1
LLC sets: 2048
LLC ways: 16
Off-chip DRAM Size: 4096 MB Channels: 1 Width: 64-bit Data Rate: 6400 MT/s
CPU 0 runs ./micro_traces/srv102.trace.gz
.gz
ITLB has LRU replacement policy
DTLB has LRU replacement policy
STLB has LRU replacement policy
FDIP Prefetcher at L1I
L1I has LRU replacement policy
L1D has LRU replacement policy
Initialize SRRIP state for L2C
Initialize DRRIP state for LLC
Heartbeat_Variant_0 : 1325 0.323486 per_variant_size: 0 1325 0 0 0 0 0 0 0 
Heartbeat_Variant_1 : 2571 0.627686 per_variant_size: 0 598 1973 0 0 0 0 0 0 
Heartbeat_Variant_2 : 0 0 per_variant_size: 0 0 0 0 0 0 0 0 0 
Heartbeat_Variant_3 : 0 0 per_variant_size: 0 0 0 0 0 0 0 0 0 
Heartbeat_Variant_0_evicts 0 : 5888 1 : 485 2 : 0 3 : 0 
Heartbeat_Variant_1_evicts 0 : 424 1 : 0 2 : 0 3 : 0 
Heartbeat_Variant_2_evicts 0 : 0 1 : 0 2 : 0 3 : 0 
Heartbeat_Variant_3_evicts 0 : 0 1 : 0 2 : 0 3 : 0 
Heartbeat CPU 0 instructions: 10000000 cycles: 2796977 heartbeat IPC: 3.57529 cumulative IPC: 3.57529 (Simulation time: 0 hr 1 min 37 sec) 
Heartbeat_Variant_0 : 1339 0.326904 per_variant_size: 0 1339 0 0 0 0 0 0 0 
Heartbeat_Variant_1 : 2611 0.637451 per_variant_size: 0 537 2074 0 0 0 0 0 0 
Heartbeat_Variant_2 : 0 0 per_variant_size: 0 0 0 0 0 0 0 0 0 
Heartbeat_Variant_3 : 0 0 per_variant_size: 0 0 0 0 0 0 0 0 0 
Heartbeat_Variant_0_evicts 0 : 5643 1 : 111 2 : 0 3 : 0 
Heartbeat_Variant_1_evicts 0 : 111 1 : 0 2 : 0 3 : 0 
Heartbeat_Variant_2_evicts 0 : 0 1 : 0 2 : 0 3 : 0 
Heartbeat_Variant_3_evicts 0 : 0 1 : 0 2 : 0 3 : 0 
Heartbeat CPU 0 instructions: 20000001 cycles: 5593086 heartbeat IPC: 3.5764 cumulative IPC: 3.57584 (Simulation time: 0 hr 3 min 15 sec) 
Heartbeat_Variant_0 : 1346 0.328613 per_variant_size: 0 1346 0 0 0 0 0 0 0 
Heartbeat_Variant_1 : 2620 0.639648 per_variant_size: 0 536 2084 0 0 0 0 0 0 
Heartbeat_Variant_2 : 0 0 per_variant_size: 0 0 0 0 0 0 0 0 0 
Heartbeat_Variant_3 : 0 0 per_variant_size: 0 0 0 0 0 0 0 0 0 
Heartbeat_Variant_0_evicts 0 : 5644 1 : 116 2 : 0 3 : 0 
Heartbeat_Variant_1_evicts 0 : 111 1 : 0 2 : 0 3 : 0 
Heartbeat_Variant_2_evicts 0 : 0 1 : 0 2 : 0 3 : 0 
Heartbeat_Variant_3_evicts 0 : 0 1 : 0 2 : 0 3 : 0 
Heartbeat CPU 0 instructions: 30000000 cycles: 8389492 heartbeat IPC: 3.57602 cumulative IPC: 3.5759 (Simulation time: 0 hr 4 min 54 sec) 
Heartbeat_Variant_0 : 1374 0.335449 per_variant_size: 0 1374 0 0 0 0 0 0 0 
Heartbeat_Variant_1 : 2641 0.644775 per_variant_size: 0 487 2154 0 0 0 0 0 0 
Heartbeat_Variant_2 : 0 0 per_variant_size: 0 0 0 0 0 0 0 0 0 
Heartbeat_Variant_3 : 0 0 per_variant_size: 0 0 0 0 0 0 0 0 0 
Heartbeat_Variant_0_evicts 0 : 5654 1 : 273 2 : 0 3 : 0 
Heartbeat_Variant_1_evicts 0 : 259 1 : 0 2 : 0 3 : 0 
Heartbeat_Variant_2_evicts 0 : 0 1 : 0 2 : 0 3 : 0 
Heartbeat_Variant_3_evicts 0 : 0 1 : 0 2 : 0 3 : 0 
Heartbeat CPU 0 instructions: 40000001 cycles: 11186864 heartbeat IPC: 3.57478 cumulative IPC: 3.57562 (Simulation time: 0 hr 6 min 33 sec) 
Heartbeat_Variant_0 : 1371 0.334717 per_variant_size: 0 1371 0 0 0 0 0 0 0 
Heartbeat_Variant_1 : 2653 0.647705 per_variant_size: 0 482 2171 0 0 0 0 0 0 
Heartbeat_Variant_2 : 0 0 per_variant_size: 0 0 0 0 0 0 0 0 0 
Heartbeat_Variant_3 : 0 0 per_variant_size: 0 0 0 0 0 0 0 0 0 
Heartbeat_Variant_0_evicts 0 : 5602 1 : 99 2 : 0 3 : 0 
Heartbeat_Variant_1_evicts 0 : 104 1 : 0 2 : 0 3 : 0 
Heartbeat_Variant_2_evicts 0 : 0 1 : 0 2 : 0 3 : 0 
Heartbeat_Variant_3_evicts 0 : 0 1 : 0 2 : 0 3 : 0 
Heartbeat CPU 0 instructions: 50000002 cycles: 13983489 heartbeat IPC: 3.57574 cumulative IPC: 3.57565 (Simulation time: 0 hr 8 min 12 sec) 

Warmup complete CPU 0 instructions: 50000002 cycles: 13983489 (Simulation time: 0 hr 8 min 12 sec) 

Cycle: 20000000 FTQ IN: 58301897 FTQ occupancy: 19.9509 DECODE IN: 58301865 DECODE occupancy: 52.1052 ROB IN: 58301864 ROB occupancy: 314.482 ROB OUT: 58301750
Heartbeat_Variant_0 : 1369 0.334229 per_variant_size: 0 1369 0 0 0 0 0 0 0 
Heartbeat_Variant_1 : 2658 0.648926 per_variant_size: 0 492 2166 0 0 0 0 0 0 
Heartbeat_Variant_2 : 0 0 per_variant_size: 0 0 0 0 0 0 0 0 0 
Heartbeat_Variant_3 : 0 0 per_variant_size: 0 0 0 0 0 0 0 0 0 
Heartbeat_Variant_0_evicts 0 : 5515 1 : 92 2 : 0 3 : 0 
Heartbeat_Variant_1_evicts 0 : 95 1 : 0 2 : 0 3 : 0 
Heartbeat_Variant_2_evicts 0 : 0 1 : 0 2 : 0 3 : 0 
Heartbeat_Variant_3_evicts 0 : 0 1 : 0 2 : 0 3 : 0 
Heartbeat CPU 0 instructions: 60000001 cycles: 21231263 heartbeat IPC: 1.37973 cumulative IPC: 1.37973 (Simulation time: 0 hr 10 min 2 sec) 
Heartbeat_Variant_0 : 1372 0.334961 per_variant_size: 0 1372 0 0 0 0 0 0 0 
Heartbeat_Variant_1 : 2658 0.648926 per_variant_size: 0 488 2170 0 0 0 0 0 0 
Heartbeat_Variant_2 : 0 0 per_variant_size: 0 0 0 0 0 0 0 0 0 
Heartbeat_Variant_3 : 0 0 per_variant_size: 0 0 0 0 0 0 0 0 0 
Heartbeat_Variant_0_evicts 0 : 5547 1 : 71 2 : 0 3 : 0 
Heartbeat_Variant_1_evicts 0 : 68 1 : 0 2 : 0 3 : 0 
Heartbeat_Variant_2_evicts 0 : 0 1 : 0 2 : 0 3 : 0 
Heartbeat_Variant_3_evicts 0 : 0 1 : 0 2 : 0 3 : 0 
Heartbeat CPU 0 instructions: 70000001 cycles: 28509516 heartbeat IPC: 1.37396 cumulative IPC: 1.37684 (Simulation time: 0 hr 11 min 51 sec) 
Cycle: 30000000 FTQ IN: 13769566 FTQ occupancy: 12.9777 DECODE IN: 13769598 DECODE occupancy: 33.5856 ROB IN: 13769544 ROB occupancy: 235.494 ROB OUT: 13769306
Heartbeat_Variant_0 : 1374 0.335449 per_variant_size: 0 1374 0 0 0 0 0 0 0 
Heartbeat_Variant_1 : 2660 0.649414 per_variant_size: 0 490 2170 0 0 0 0 0 0 
Heartbeat_Variant_2 : 0 0 per_variant_size: 0 0 0 0 0 0 0 0 0 
Heartbeat_Variant_3 : 0 0 per_variant_size: 0 0 0 0 0 0 0 0 0 
Heartbeat_Variant_0_evicts 0 : 5597 1 : 30 2 : 0 3 : 0 
Heartbeat_Variant_1_evicts 0 : 28 1 : 0 2 : 0 3 : 0 
Heartbeat_Variant_2_evicts 0 : 0 1 : 0 2 : 0 3 : 0 
Heartbeat_Variant_3_evicts 0 : 0 1 : 0 2 : 0 3 : 0 
Heartbeat CPU 0 instructions: 80000000 cycles: 35729756 heartbeat IPC: 1.385 cumulative IPC: 1.37955 (Simulation time: 0 hr 13 min 42 sec) 
Cycle: 40000000 FTQ IN: 13834966 FTQ occupancy: 12.8391 DECODE IN: 13834966 DECODE occupancy: 33.3048 ROB IN: 13835021 ROB occupancy: 233.795 ROB OUT: 13835242
Heartbeat_Variant_0 : 1381 0.337158 per_variant_size: 0 1381 0 0 0 0 0 0 0 
Heartbeat_Variant_1 : 2656 0.648438 per_variant_size: 0 479 2177 0 0 0 0 0 0 
Heartbeat_Variant_2 : 0 0 per_variant_size: 0 0 0 0 0 0 0 0 0 
Heartbeat_Variant_3 : 0 0 per_variant_size: 0 0 0 0 0 0 0 0 0 
Heartbeat_Variant_0_evicts 0 : 5612 1 : 80 2 : 0 3 : 0 
Heartbeat_Variant_1_evicts 0 : 73 1 : 0 2 : 0 3 : 0 
Heartbeat_Variant_2_evicts 0 : 0 1 : 0 2 : 0 3 : 0 
Heartbeat_Variant_3_evicts 0 : 0 1 : 0 2 : 0 3 : 0 
Heartbeat CPU 0 instructions: 90000000 cycles: 43024289 heartbeat IPC: 1.37089 cumulative IPC: 1.37737 (Simulation time: 0 hr 15 min 32 sec) 
Cycle: 50000000 FTQ IN: 13538446 FTQ occupancy: 12.6722 DECODE IN: 13538383 DECODE occupancy: 32.6042 ROB IN: 13538356 ROB occupancy: 229.062 ROB OUT: 13538135
Heartbeat_Variant_0 : 1397 0.341064 per_variant_size: 0 1397 0 0 0 0 0 0 0 
Heartbeat_Variant_1 : 2673 0.652588 per_variant_size: 0 427 2246 0 0 0 0 0 0 
Heartbeat_Variant_2 : 0 0 per_variant_size: 0 0 0 0 0 0 0 0 0 
Heartbeat_Variant_3 : 0 0 per_variant_size: 0 0 0 0 0 0 0 0 0 
Heartbeat_Variant_0_evicts 0 : 5883 1 : 799 2 : 0 3 : 0 
Heartbeat_Variant_1_evicts 0 : 790 1 : 0 2 : 0 3 : 0 
Heartbeat_Variant_2_evicts 0 : 0 1 : 0 2 : 0 3 : 0 
Heartbeat_Variant_3_evicts 0 : 0 1 : 0 2 : 0 3 : 0 
Heartbeat CPU 0 instructions: 100000003 cycles: 50399686 heartbeat IPC: 1.35586 cumulative IPC: 1.37302 (Simulation time: 0 hr 17 min 25 sec) 
Finished CPU 0 instructions: 50000001 cycles: 36416197 cumulative IPC: 1.37302 (Simulation time: 0 hr 17 min 25 sec) 

ChampSim completed all CPUs

Region of Interest Statistics

CPU 0 cumulative IPC: 1.37302 instructions: 50000001 cycles: 36416197
 Fetch stage stalled: 54.236  Sim cycles: 36416197 fetch stall cycle: 19750678
 Empty decode stage: 35.5235  Sim cycles: 36416197 fetch stall cycle: 12936293
ITLB TOTAL     ACCESS:    5874563  HIT:    5376015  MISS:     498548  HIT %:    91.5134  MISS %:    8.48655   MPKI: 9.97096
ITLB LOAD TRANSLATION INSTRUCTION	ACCESS:    5744897  HIT:    5246349  MISS:     498548  HIT %:    91.3219  MISS %:     8.6781  MPKI: 9.97096
ITLB TRANSLATION FROM L1D PREFETCHER INSTRUCTION	ACCESS:     129666  HIT:     129666  MISS:          0  HIT %:        100  MISS %:          0  MPKI: 0

ITLB AVERAGE MISS LATENCY: 9.06463 cycles
ITLB RQ	ACCESS:    8011701	FORWARD:          0	MERGED:    1688921	TO_CACHE:    6322780

DTLB TOTAL     ACCESS:    8980741  HIT:    8508305  MISS:     472436  HIT %:    94.7395  MISS %:    5.26055   MPKI: 9.44872
DTLB LOAD TRANSLATION DATA	ACCESS:    8980741  HIT:    8508305  MISS:     472436  HIT %:    94.7395  MISS %:    5.26055  MPKI: 9.44872

DTLB AVERAGE MISS LATENCY: 9.32992 cycles
DTLB RQ	ACCESS:   13353590	FORWARD:          0	MERGED:    4335636	TO_CACHE:    9017954

STLB TOTAL     ACCESS:    1215317  HIT:    1213324  MISS:       1993  HIT %:     99.836  MISS %:    0.16399   MPKI: 0.03986
STLB LOAD TRANSLATION INSTRUCTION	ACCESS:     498548  HIT:     498288  MISS:        260  HIT %:    99.9478  MISS %:  0.0521514  MPKI: 0.0052
STLB LOAD TRANSLATION DATA	ACCESS:     472436  HIT:     470726  MISS:       1710  HIT %:     99.638  MISS %:   0.361954  MPKI: 0.0342
STLB TRANSLATION FROM L1D PREFETCHER DATA	ACCESS:     244333  HIT:     244310  MISS:         23  HIT %:    99.9906  MISS %: 0.00941338  MPKI: 0.00046

STLB AVERAGE MISS LATENCY: 78.8906 cycles
STLB RQ	ACCESS:    1334570	FORWARD:          0	MERGED:     119203	TO_CACHE:    1215367

STLB Hit, L1D data hit: 0
STLB Hit, L2C data hit: 0
STLB Hit, LLC data hit: 0
STLB Hit, LLC data miss: 0
STLB STLB hints to L2: 0
L1D TOTAL     ACCESS:   13098202  HIT:   11969580  MISS:    1128622  HIT %:    91.3834  MISS %:    8.61662   MPKI: 22.5724
L1D LOAD DATA	ACCESS:    6557637  HIT:    5810906  MISS:     746731  HIT %:    88.6128  MISS %:    11.3872  MPKI: 14.9346
L1D RFO DATA	ACCESS:    6217770  HIT:    5930644  MISS:     287126  HIT %:    95.3822  MISS %:    4.61783  MPKI: 5.74252
L1D PREFETCH DATA	ACCESS:     322795  HIT:     228030  MISS:      94765  HIT %:    70.6424  MISS %:    29.3576  MPKI: 1.8953

L1D PREFETCH  REQUESTED:     727520  ISSUED:     727520  USEFUL:      33885  USELESS:      68506
L1D USEFUL LOAD PREFETCHES:      33885 PREFETCH ISSUED TO LOWER LEVEL:     102431  ACCURACY: 33.0808
 TIMELY PREFETCHES:      33885 LATE PREFETCHES: 7615 DROPPED PREFETCHES: 9
L1D AVERAGE MISS LATENCY: 221903 cycles
L1D RQ	ACCESS:   10687903	FORWARD:          0	MERGED:    3928132	TO_CACHE:    6592946
L1D WQ	ACCESS:    6959238	FORWARD:     167173	MERGED:     198594	TO_CACHE:    6760644
L1D PQ	ACCESS:     363934	FORWARD:          0	MERGED:          0	TO_CACHE:     363586

L1D UNIQUE REGIONS ACCESSED: 0
L1D REGIONS CONFLICTS: 0
L1D Cross Page Prefetch Requests: 7002
L1D Same Page Prefetch Requests: 742446
L1D ROI Sum of L1D PQ occupancy: 4625951
L1D PREFETCHES PUSHED FROM L2C: 0
L1I TOTAL     ACCESS:    7181068  HIT:    4396989  MISS:    2784079  HIT %:    61.2303  MISS %:    38.7697   MPKI: 55.6816
L1I LOAD INSTRUCTION	ACCESS:    6515812  HIT:    3731733  MISS:    2784079  HIT %:     57.272  MISS %:     42.728  MPKI: 55.6816
L1I PREFETCH INSTRUCTION	ACCESS:     665256  HIT:     665256  MISS:          0  HIT %:        100  MISS %:          0  MPKI: 0

L1I PREFETCH  REQUESTED:    1598612  ISSUED:    1598612  USEFUL:          0  USELESS:          0
L1I USEFUL LOAD PREFETCHES:          0 PREFETCH ISSUED TO LOWER LEVEL:          0  ACCURACY: -nan
 TIMELY PREFETCHES:          0 LATE PREFETCHES: 0 DROPPED PREFETCHES: 0
L1I AVERAGE MISS LATENCY: 17.0851 cycles
L1I RQ	ACCESS:    9513754	FORWARD:          0	MERGED:    2675880	TO_CACHE:    6837874
L1I PQ	ACCESS:    1598612	FORWARD:          0	MERGED:     424785	TO_CACHE:    1173827

L1BTB TOTAL     ACCESS:    5672205  HIT:    2021907  MISS:    3650298  HIT %:    35.6459  MISS %:    64.3541   MPKI: 73.006
L1BTB BRANCH_DIRECT_JUMP	ACCESS:     547905 HIT:     142987 MISS:     404918 AVERAGE STALL: 47.12 AVERAGE FETCH STALL: 14.9716 AVERAGE FETCH QUEUE STALL: 13.1283 AVERAGE DECODE STALL: 18.0981 AVERAGE EXECUTE STALL: 2.38115e+15
L1BTB BRANCH_INDIRECT	ACCESS:     182092 HIT:      65219 MISS:     116873 AVERAGE STALL: 101.346 AVERAGE FETCH STALL: 11.7431 AVERAGE FETCH QUEUE STALL: 13.1048 AVERAGE DECODE STALL: 11.6383 AVERAGE EXECUTE STALL: 63.8949
L1BTB BRANCH_CONDITIONAL	ACCESS:    2695875 HIT:    1397019 MISS:    1298856 AVERAGE STALL: 56.7166 AVERAGE FETCH STALL: 21.0583 AVERAGE FETCH QUEUE STALL: 19.5199 AVERAGE DECODE STALL: 15.3284 AVERAGE EXECUTE STALL: 2.69374e+15
L1BTB BRANCH_DIRECT_CALL	ACCESS:     950809 HIT:     105395 MISS:     845414 AVERAGE STALL: 53.5301 AVERAGE FETCH STALL: 24.842 AVERAGE FETCH QUEUE STALL: 15.9221 AVERAGE DECODE STALL: 11.9417 AVERAGE EXECUTE STALL: 6.94008e+15
L1BTB BRANCH_INDIRECT_CALL	ACCESS:     172365 HIT:      21117 MISS:     151248 AVERAGE STALL: 132.243 AVERAGE FETCH STALL: 12.9396 AVERAGE FETCH QUEUE STALL: 14.5204 AVERAGE DECODE STALL: 10.1291 AVERAGE EXECUTE STALL: 94.1635
L1BTB BRANCH_RETURN	ACCESS:    1123159 HIT:     290170 MISS:     832989 AVERAGE STALL: 46.4652 AVERAGE FETCH STALL: 16.8697 AVERAGE FETCH QUEUE STALL: 4.54444 AVERAGE DECODE STALL: 5.58834 AVERAGE EXECUTE STALL: 4.2779e+14
L1BTB BRANCH_OTHER ACCESS:          0 HIT:          0 MISS:          0 AVERAGE STALL: -nan AVERAGE FETCH STALL: -nan AVERAGE FETCH QUEUE STALL: -nan AVERAGE DECODE STALL: -nan AVERAGE EXECUTE STALL: -nan
L1BTB TOTAL ROB OCCUPANCY AT BTB MISS: 2.62339

L2BTB TOTAL     ACCESS:    3625076  HIT:    3555533  MISS:      69543  HIT %:    98.0816  MISS %:    1.91839   MPKI: 1.39086
L2BTB BRANCH_DIRECT_JUMP	ACCESS:     400883 HIT:     397134 MISS:       3749 AVERAGE STALL: 47.12 AVERAGE FETCH STALL: 14.9716 AVERAGE FETCH QUEUE STALL: 13.1283 AVERAGE DECODE STALL: 18.0981 AVERAGE EXECUTE STALL: 2.38115e+15
L2BTB BRANCH_INDIRECT	ACCESS:     106510 HIT:     103736 MISS:       2774 AVERAGE STALL: 101.346 AVERAGE FETCH STALL: 11.7431 AVERAGE FETCH QUEUE STALL: 13.1048 AVERAGE DECODE STALL: 11.6383 AVERAGE EXECUTE STALL: 63.8949
L2BTB BRANCH_CONDITIONAL	ACCESS:    1298856 HIT:    1291892 MISS:       6964 AVERAGE STALL: 56.7166 AVERAGE FETCH STALL: 21.0583 AVERAGE FETCH QUEUE STALL: 19.5199 AVERAGE DECODE STALL: 15.3284 AVERAGE EXECUTE STALL: 2.69374e+15
L2BTB BRANCH_DIRECT_CALL	ACCESS:     845414 HIT:     842689 MISS:       2725 AVERAGE STALL: 53.5301 AVERAGE FETCH STALL: 24.842 AVERAGE FETCH QUEUE STALL: 15.9221 AVERAGE DECODE STALL: 11.9417 AVERAGE EXECUTE STALL: 6.94008e+15
L2BTB BRANCH_INDIRECT_CALL	ACCESS:     141850 HIT:     130258 MISS:      11592 AVERAGE STALL: 132.243 AVERAGE FETCH STALL: 12.9396 AVERAGE FETCH QUEUE STALL: 14.5204 AVERAGE DECODE STALL: 10.1291 AVERAGE EXECUTE STALL: 94.1635
L2BTB BRANCH_RETURN	ACCESS:     831563 HIT:     789824 MISS:      41739 AVERAGE STALL: 46.4652 AVERAGE FETCH STALL: 16.8697 AVERAGE FETCH QUEUE STALL: 4.54444 AVERAGE DECODE STALL: 5.58834 AVERAGE EXECUTE STALL: 4.2779e+14
L2BTB BRANCH_OTHER ACCESS:          0 HIT:          0 MISS:          0 AVERAGE STALL: -nan AVERAGE FETCH STALL: -nan AVERAGE FETCH QUEUE STALL: -nan AVERAGE DECODE STALL: -nan AVERAGE EXECUTE STALL: -nan
L2BTB TOTAL ROB OCCUPANCY AT BTB MISS: 137.701

L2C TOTAL     ACCESS:    4522840  HIT:    4070752  MISS:     452088  HIT %:    90.0043  MISS %:    9.99567   MPKI: 9.04176
L2C LOAD INSTRUCTION	ACCESS:    2784080  HIT:    2534738  MISS:     249342  HIT %:     91.044  MISS %:    8.95599  MPKI: 4.98684
L2C LOAD TRANSLATION INSTRUCTION	ACCESS:        295  HIT:         73  MISS:        222  HIT %:    24.7458  MISS %:    75.2542  MPKI: 0.00444
L2C LOAD DATA	ACCESS:     739075  HIT:     671538  MISS:      67537  HIT %:     90.862  MISS %:    9.13804  MPKI: 1.35074
L2C RFO DATA	ACCESS:     287061  HIT:     234970  MISS:      52091  HIT %:    81.8537  MISS %:    18.1463  MPKI: 1.04182
L2C PREFETCH DATA	ACCESS:     184050  HIT:     116282  MISS:      67768  HIT %:    63.1796  MISS %:    36.8204  MPKI: 1.35536
L2C WRITEBACK DATA	ACCESS:     526462  HIT:     512626  MISS:      13836  HIT %:    97.3719  MISS %:    2.62811  MPKI: 0.27672
L2C LOAD TRANSLATION DATA	ACCESS:       1768  HIT:        493  MISS:       1275  HIT %:    27.8846  MISS %:    72.1154  MPKI: 0.0255
L2C TRANSLATION FROM L1D PREFETCHER DATA	ACCESS:         49  HIT:         32  MISS:         17  HIT %:    65.3061  MISS %:    34.6939  MPKI: 0.00034

L2C PREFETCH  REQUESTED:      88329  ISSUED:      88329  USEFUL:       7230  USELESS:      60902
L2C USEFUL LOAD PREFETCHES:       7230 PREFETCH ISSUED TO LOWER LEVEL:      68091  ACCURACY: 10.6181
 TIMELY PREFETCHES:       7230 LATE PREFETCHES: 323 DROPPED PREFETCHES: 0
L2C AVERAGE MISS LATENCY: 38.9593 cycles
L2C RQ	ACCESS:    3812385	FORWARD:          0	MERGED:          0	TO_CACHE:    3812330
L2C WQ	ACCESS:     526462	FORWARD:         55	MERGED:          0	TO_CACHE:     526462
L2C PQ	ACCESS:     190760	FORWARD:          0	MERGED:       3175	TO_CACHE:     187585

L2C Dense regions hint from L2: 0
PSCL5 TOTAL     ACCESS:       4008  HIT:       2004  MISS:       2004  HIT %:         50  MISS %:         50   MPKI: 0.04008
PSCL5 LOAD TRANSLATION INSTRUCTION	ACCESS:       3912  HIT:       1956  MISS:       1956  HIT %:         50  MISS %:         50  MPKI: 0.03912
PSCL5 TRANSLATION FROM L1D PREFETCHER INSTRUCTION	ACCESS:         96  HIT:         48  MISS:         48  HIT %:         50  MISS %:         50  MPKI: 0.00096


PSCL4 TOTAL     ACCESS:       3940  HIT:       1968  MISS:       1972  HIT %:    49.9492  MISS %:    50.0508   MPKI: 0.03944
PSCL4 LOAD TRANSLATION INSTRUCTION	ACCESS:       2089  HIT:       1920  MISS:        169  HIT %:      91.91  MISS %:       8.09  MPKI: 0.00338
PSCL4 TRANSLATION FROM L1D PREFETCHER INSTRUCTION	ACCESS:         48  HIT:         48  MISS:          0  HIT %:        100  MISS %:          0  MPKI: 0
PSCL4 LOAD TRANSLATION DATA	ACCESS:       1755  HIT:          0  MISS:       1755  HIT %:          0  MISS %:        100  MPKI: 0.0351
PSCL4 TRANSLATION FROM L1D PREFETCHER DATA	ACCESS:         48  HIT:          0  MISS:         48  HIT %:          0  MISS %:        100  MPKI: 0.00096


PSCL3 TOTAL     ACCESS:       3958  HIT:       1977  MISS:       1981  HIT %:    49.9495  MISS %:    50.0505   MPKI: 0.03962
PSCL3 LOAD TRANSLATION INSTRUCTION	ACCESS:       2098  HIT:       1929  MISS:        169  HIT %:    91.9447  MISS %:    8.05529  MPKI: 0.00338
PSCL3 TRANSLATION FROM L1D PREFETCHER INSTRUCTION	ACCESS:         48  HIT:         48  MISS:          0  HIT %:        100  MISS %:          0  MPKI: 0
PSCL3 LOAD TRANSLATION DATA	ACCESS:       1764  HIT:          0  MISS:       1764  HIT %:          0  MISS %:        100  MPKI: 0.03528
PSCL3 TRANSLATION FROM L1D PREFETCHER DATA	ACCESS:         48  HIT:          0  MISS:         48  HIT %:          0  MISS %:        100  MPKI: 0.00096


PSCL2 TOTAL     ACCESS:       3905  HIT:       1901  MISS:       2004  HIT %:    48.6812  MISS %:    51.3188   MPKI: 0.04008
PSCL2 LOAD TRANSLATION INSTRUCTION	ACCESS:       2136  HIT:       1854  MISS:        282  HIT %:    86.7978  MISS %:    13.2022  MPKI: 0.00564
PSCL2 TRANSLATION FROM L1D PREFETCHER INSTRUCTION	ACCESS:         47  HIT:         47  MISS:          0  HIT %:        100  MISS %:          0  MPKI: 0
PSCL2 LOAD TRANSLATION DATA	ACCESS:       1675  HIT:          0  MISS:       1675  HIT %:          0  MISS %:        100  MPKI: 0.0335
PSCL2 TRANSLATION FROM L1D PREFETCHER DATA	ACCESS:         47  HIT:          0  MISS:         47  HIT %:          0  MISS %:        100  MPKI: 0.00094


LLC TOTAL     ACCESS:     510501  HIT:     482448  MISS:      28053  HIT %:    94.5048  MISS %:    5.49519   MPKI: 0.56106
LLC LOAD INSTRUCTION	ACCESS:     249342  HIT:     248180  MISS:       1162  HIT %:     99.534  MISS %:   0.466027  MPKI: 0.02324
LLC LOAD TRANSLATION INSTRUCTION	ACCESS:        222  HIT:        173  MISS:         49  HIT %:    77.9279  MISS %:    22.0721  MPKI: 0.00098
LLC LOAD DATA	ACCESS:      67230  HIT:      63647  MISS:       3583  HIT %:    94.6705  MISS %:    5.32947  MPKI: 0.07166
LLC RFO DATA	ACCESS:      52067  HIT:      38990  MISS:      13077  HIT %:    74.8843  MISS %:    25.1157  MPKI: 0.26154
LLC PREFETCH DATA	ACCESS:      68091  HIT:      58308  MISS:       9783  HIT %:    85.6325  MISS %:    14.3675  MPKI: 0.19566
LLC WRITEBACK DATA	ACCESS:      72257  HIT:      71952  MISS:        305  HIT %:    99.5779  MISS %:   0.422104  MPKI: 0.0061
LLC LOAD TRANSLATION DATA	ACCESS:       1275  HIT:       1181  MISS:         94  HIT %:    92.6275  MISS %:    7.37255  MPKI: 0.00188
LLC TRANSLATION FROM L1D PREFETCHER DATA	ACCESS:         17  HIT:         17  MISS:          0  HIT %:        100  MISS %:          0  MPKI: 0

LLC AVERAGE MISS LATENCY: 157.642 cycles
LLC RQ	ACCESS:     370161	FORWARD:          0	MERGED:          0	TO_CACHE:     370153
LLC WQ	ACCESS:      72257	FORWARD:          8	MERGED:          0	TO_CACHE:      72257
LLC PQ	ACCESS:      68091	FORWARD:          0	MERGED:          0	TO_CACHE:      68091

LLC Dense regions hint to LLC: 0

RAW hits: 1944006
Loads Generated: 12631909
Loads sent to L1D: 10687903
Stores Generated: 6959228
Stores sent to L1D: 6959238
Major fault: 0 Minor fault: 2635
Allocated PAGES: 2635

stream: 
stream:times selected: 1176674
stream:pref_filled: 122568
stream:pref_useful: 24636
stream:pref_late: 6763
stream:misses: 8045
stream:misses_by_poll: 0

CS: 
CS:times selected: 177442
CS:pref_filled: 60951
CS:pref_useful: 37810
CS:pref_late: 6743
CS:misses: 15750
CS:misses_by_poll: 8

CPLX: 
CPLX:times selected: 998028
CPLX:pref_filled: 19851
CPLX:pref_useful: 4815
CPLX:pref_late: 3018
CPLX:misses: 94139
CPLX:misses_by_poll: 0

NL_L1: 
NL:times selected: 20736
NL:pref_filled: 772
NL:pref_useful: 370
NL:pref_late: 272
NL:misses: 1775
NL:misses_by_poll: 0

total selections: 2372880
total_filled: 94765
total_useful: 33885
total_late: 18178
total_polluted: 8
total_misses_after_warmup: 782041
conflicts: 5532712

test: 117080

DRAM Statistics
 CHANNEL 0
 RQ ROW_BUFFER_HIT:      10144  ROW_BUFFER_MISS:      17599
 DBUS_CONGESTED:         15
 WQ ROW_BUFFER_HIT:       1431  ROW_BUFFER_MISS:      11873  FULL:          0

 AVG_CONGESTED_CYCLE: 6

CPU 0 Branch Prediction Accuracy: 99.8084% MPKI: 0.35088 Average ROB Occupancy at Mispredict: 174.582
Branch types
NOT_BRANCH: 40844509 81.689%
BRANCH_DIRECT_JUMP: 547905 1.09581%
BRANCH_INDIRECT: 182092 0.364184%
BRANCH_CONDITIONAL: 6178935 12.3579%
BRANCH_DIRECT_CALL: 950809 1.90162%
BRANCH_INDIRECT_CALL: 172365 0.34473%
BRANCH_RETURN: 1123159 2.24632%
BRANCH_OTHER: 0 0%

DRAM PAGES: 1048576
Allocated PAGES: 2635
Average_ROB_Occupancy: 234.518
Average_Decode_Occupancy: 33.2521
Average_FTQ_Occupancy: 12.8352
Indirect max targets: 14 Average targets: 1.17891
Branch_type:  BRANCH_DIRECT_JUMP:  Count Percentage: 3.77612 4.78446 4.81563 8.46363 2.40745 6.01231 1.56597 68.1744 
Branch_type:  BRANCH_INDIRECT:  Count Percentage: 6.10758 3.37609 8.14042 9.6785 3.35386 2.81766 3.90159 62.6243 
Branch_type:  BRANCH_CONDITIONAL:  Count Percentage: 25.4249 2.35007 1.55286 4.60623 2.44852 3.59381 2.11989 57.9037 
Branch_type:  BRANCH_DIRECT_CALL:  Count Percentage: 0.916119 1.32111 0.714232 3.88468 3.20291 2.6904 3.03686 84.2337 
Branch_type:  BRANCH_INDIRECT_CALL:  Count Percentage: 9.57683 0 3.00511 0.00087324 0.922724 1.71999 4.99639 79.7781 
Branch_type:  BRANCH_RETURN:  Count Percentage: 8.33508 1.23035 1.01714 3.87703 4.217 3.48128 2.68701 75.1551 
Branch_type:  BRANCH_DIRECT_JUMP:  Total Count: 41321 52355 52696 92615 26344 65791 17136 746013 
Branch_type:  BRANCH_INDIRECT:  Total Count: 22257 12303 29665 35270 12222 10268 14218 228213 
Branch_type:  BRANCH_CONDITIONAL:  Total Count: 3139812 290218 191768 568840 302376 443813 261793 7150738 
Branch_type:  BRANCH_DIRECT_CALL:  Total Count: 17357 25030 13532 73600 60683 50973 57537 1595911 
Branch_type:  BRANCH_INDIRECT_CALL:  Total Count: 32901 0 10324 3 3170 5909 17165 274076 
Branch_type:  BRANCH_RETURN:  Total Count: 186625 27548 22774 86808 94420 77947 60163 1682746 
Number of unique branch instructions: 10759
Upper 32 bits: 
aaaa
ffff
ffff0000
Unique upper 32 bits: 3
Unique upper 36 bits: 3
Unique upper 40 bits: 5
Unique upper 44 bits: 32
Unique upper 48 bits: 158
Variant_0 : 1397 0.341064
Variant_1 : 2673 0.652588
Variant_2 : 0 0
Variant_3 : 0 0
Offset_3 4455
Offset_4 260
Offset_5 482
Offset_6 538
Offset_7 639
Offset_8 578
Offset_9 511
Offset_10 421
Offset_11 352
Offset_12 325
Offset_13 240
Offset_14 247
Offset_15 199
Offset_16 231
Offset_17 165
Offset_18 152
Offset_19 262
Offset_20 146
Offset_21 235
Offset_22 410
Offset_23 241
Offset_24 346
Offset_25 117
Offset_47 92
Offset_64 2
decode_dispatch_called: 25290251 69.4478
Dispatch_width: 0 13537150 53.5271 37.1734
Dispatch_width: 1 936431 3.70274 2.57147
Dispatch_width: 2 821176 3.24701 2.25497
Dispatch_width: 3 497646 1.96774 1.36655
Dispatch_width: 4 5450636 21.5523 14.9676
Dispatch_width: 5 157759 0.623794 0.433211
Dispatch_width: 6 3889453 15.3793 10.6806
Empty_decode_cycles: 11125946 30.5522
ROB_full_cycles: 8567665 23.5271
Starvation_cycles_per_kilo_instr: 239.591
Starvation_cycles_per_kilo_instr_3: 183.507
Starvation_cycles_per_kilo_instr_0: 160.954
Branch_type_1  (3,1)  (4,9)  (5,39)  (6,72)  (7,124)  (8,149)  (9,134)  (10,110)  (11,79)  (12,55)  (13,11)  (14,2)  (15,3)  (16,4)  (18,1)  (19,5)  (20,2)  (21,1)  (22,3)  (23,2)  (24,10)  (25,12)  (64,1) 
Branch_type_2  (3,1)  (4,1)  (5,1)  (8,4)  (9,4)  (10,1)  (12,1)  (13,1)  (14,1)  (16,3)  (17,2)  (20,2)  (21,2)  (23,5)  (24,1)  (47,41) 
Branch_type_3  (3,4453)  (4,250)  (5,438)  (6,449)  (7,484)  (8,358)  (9,278)  (10,169)  (11,137)  (12,62)  (13,10)  (24,1)  (64,1) 
Branch_type_4  (6,4)  (7,8)  (8,26)  (9,57)  (10,67)  (11,70)  (12,116)  (13,102)  (14,112)  (15,95)  (16,102)  (17,76)  (18,65)  (19,127)  (20,74)  (21,124)  (22,216)  (23,136)  (24,200)  (25,101) 
Branch_type_5  (8,3)  (9,1)  (10,4)  (11,5)  (12,3)  (13,14)  (14,16)  (15,11)  (16,22)  (17,11)  (18,23)  (19,14)  (20,11)  (21,13)  (22,43)  (23,26)  (24,38) 
Branch_type_6  (5,4)  (6,13)  (7,23)  (8,38)  (9,37)  (10,70)  (11,61)  (12,88)  (13,102)  (14,116)  (15,90)  (16,100)  (17,76)  (18,63)  (19,116)  (20,57)  (21,95)  (22,148)  (23,72)  (24,96)  (25,4)  (47,51) 
Unique trigger count: 
Variant_0_evicts_0 : 0
Variant_0_evicts_1 : 0
Variant_0_evicts_2 : 0
Variant_0_evicts_3 : 0
Variant_1_evicts_0 : 0
Variant_1_evicts_1 : 0
Variant_1_evicts_2 : 0
Variant_1_evicts_3 : 0
Variant_2_evicts_0 : 0
Variant_2_evicts_1 : 0
Variant_2_evicts_2 : 0
Variant_2_evicts_3 : 0
Variant_3_evicts_0 : 0
Variant_3_evicts_1 : 0
Variant_3_evicts_2 : 0
Variant_3_evicts_3 : 0
BTB PER SET UNIQUE ADDR: 14 11 11 11 15 11 9 11 11 13 12 12 17 12 15 12 9 17 14 14 13 10 11 12 12 15 14 15 14 10 15 11 11 11 8 9 12 12 11 8 11 10 12 14 10 10 14 11 8 10 16 13 11 12 11 7 8 8 13 13 10 13 13 8 13 14 9 11 11 12 8 12 8 11 13 7 8 12 9 12 18 11 9 18 11 9 12 9 11 16 11 10 13 13 10 10 8 11 13 11 18 14 12 10 13 13 10 10 7 9 9 14 15 11 12 8 12 10 8 15 18 13 9 11 12 10 5 13 18 10 8 9 10 12 11 14 11 13 9 12 11 14 14 8 13 12 18 11 10 13 14 10 11 15 8 10 13 11 17 12 12 11 13 12 10 12 13 9 10 10 14 8 13 13 8 9 11 12 13 10 9 15 10 12 12 17 7 13 16 12 14 13 10 13 13 10 11 9 12 13 15 13 8 10 12 13 10 6 11 10 8 12 14 9 11 12 16 12 10 16 10 14 8 12 5 11 15 13 12 13 12 7 11 12 10 15 15 10 9 7 12 13 11 15 13 6 8 10 10 9 9 15 11 9 13 11 8 7 12 11 17 9 4 12 11 9 10 11 16 14 12 17 10 7 6 10 9 19 9 11 8 10 6 10 15 10 12 14 17 10 10 12 13 13 8 13 10 13 14 10 10 8 9 19 13 10 12 10 14 11 6 13 9 17 10 8 16 11 13 12 10 13 10 13 14 14 11 7 11 13 13 12 9 10 10 14 12 9 10 21 13 12 9 15 14 10 10 14 11 13 13 11 9 18 12 13 11 10 10 11 11 13 9 13 11 11 6 13 16 9 10 9 10 13 10 11 10 12 10 13 13 9 9 10 13 14 15 18 11 14 15 11 10 16 9 9 11 11 15 10 11 13 13 17 12 11 13 12 11 11 17 7 13 15 12 11 15 19 17 16 9 11 14 16 14 11 11 10 12 10 16 11 11 11 13 11 13 6 10 10 10 10 15 11 19 3 7 12 11 12 15 22 11 10 14 15 11 10 13 16 6 9 13 15 12 10 9 8 6 11 16 9 9 11 12 13 9 13 11 12 15 16 11 11 10 12 12 17 19 14 10 14 8 8 10 13 16 12 12 10 10 16 9 15 14 10 7 14 13 12 9 12 13 8 14 11 13 14 13 7 12 14 10 11 10 17 18 7 6 15 17 12 11 11 13 12 9 15 9 9 12 6 14 10 15 14 10 12 8 10 10 18 10 10 13 15 14 12 12 10 11 13 14 15 9 14 11 12 13 9 11 11 12 14 9 12 13 12 11 15 13 13 10 11 11 11 11 13 11 11 8 11 14 11 15 7 10 17 10 12 10 9 12 9 13 15 17 11 12 13 14 19 11 10 7 14 10 12 14 14 15 14 7 10 9 16 15 14 11 14 8 15 11 8 9 11 11 13 9 10 14 15 13 10 7 11 9 12 14 11 11 11 10 10 17 16 8 16 12 11 9 6 11 16 12 10 9 11 10 12 16 14 10 17 17 6 13 13 11 14 11 12 9 15 11 12 14 12 12 13 8 16 13 9 13 13 8 12 9 11 11 12 13 12 8 15 10 8 10 8 11 14 11 9 12 12 12 11 10 15 11 9 8 15 6 12 8 6 12 12 12 9 16 8 8 9 12 8 16 12 12 13 19 10 16 17 12 13 11 15 13 12 9 13 9 12 18 14 8 8 12 9 11 8 17 15 10 14 10 13 14 11 12 10 13 10 11 14 12 16 8 8 12 11 9 9 8 18 7 10 9 8 16 10 11 14 9 13 13 12 12 13 16 10 16 11 13 12 11 9 9 17 14 13 10 14 14 15 9 16 13 15 13 10 10 15 10 10 10 15 12 15 14 9 8 13 8 11 8 10 9 11 9 15 12 14 12 13 12 11 8 9 11 11 11 14 17 15 14 14 7 11 10 11 15 13 8 10 16 10 12 13 15 11 14 11 12 11 10 12 16 9 12 11 13 13 14 11 13 12 14 10 12 13 12 13 15 11 12 9 11 8 12 15 6 11 11 15 10 10 10 13 14 12 10 12 16 9 18 12 15 15 8 11 10 11 5 8 11 8 17 15 14 12 12 16 11 6 11 19 11 16 12 13 9 12 15 8 11 10 8 11 8 16 7 10 10 10 10 12 12 13 9 11 7 7 11 10 7 9 13 16 12 13 11 11 13 10 13 16 10 11 10 7 13 15 18 13 16 9 9 11 13 10 14 8 10 14 17 14 13 17 14 15 13 17 13 12 13 11 13 16 9 8 13 9 8 10 9 14 8 17 12 7 
BTB PER SET COUNT: 32 14 1886 14 17 14 911 12 1483 17 15 463 18811 24 18 16 46 27 405 28 20 15 131 16 16 18 18 148 378 12 485 17 14 13 8 979 15 14 14 10 11 19 18 29 18 12 482 15 14 48 24 16 13 27 16 351 11 8 453 26 16 17 21 9 19 398 10 19 18 14 114 488 9 13 19 10 9 13 13 15 565 16 27 85 16 31 13 10 19 20 13 633 468 15 13 13 308 13 19 11 24 17 13 12 4151 19 11 11 1852 2871 9 36 857 15 24 21 12 14 1479 848 942 33 10 15 12 196 7 192 20 12 9 14 405 17 14 23 188 20 17 20 13 20 21 10 14 121 31 14 13 128 22 261 385 23 10 16 28 11 80 19 25 177 20 17 114 178 14 10 12 1838 23 8 21 22 11 616 19 16 21 12 613 20 957 17 14 714 7 19 244 370 15 15 13 14 17 15 11 235 16 25 16 18 1006 13 16 15 12 9 12 960 11 16 24 11 12 48 26 16 520 18 12 24 383 20 5 27 18 22 17 26 13 8 12 16 726 21 26 27 11 7 21 17 11 21 23 8 8 12 10 15 14 19 11 9 20 14 13 7 14 23 925 16 4 492 13 10 15 15 380 17 18 23 15 7 593 14 9 30 15 16 23 12 7 12 18 12 17 25 24 10 14 15 14 21 8 18 12 21 19 18 12 11 9 26 14 20 103 28 23 858 18 20 11 23 45 11 29 13 19 20 12 190 15 17 18 35 233 10 13 16 16 12 23 13 10 16 18 1011 13 107 15 73 11 21 66 30 12 22 16 20 22 1479 14 23 17 13 17 10 509 15 15 16 11 17 14 19 6 16 23 10 12 100 12 518 16 11 10 12 16 1383 567 9 11 14 19 21 300 27 14 1131 67 13 12 19 14 78 13 11 311 1096 14 20 181 25 17 16 16 495 15 15 49 7 17 27 13 21 19 31 31 21 10 28 26 18 25 15 253 14 15 14 65 12 14 23 284 20 19 78 13 13 10 16 54 17 1054 3 7 20 11 26 36 746 14 13 626 2151 13 15 14 27 7 12 25 32 12 27 20 11 8 12 26 9 16 19 18 18 11 29 17 20 15 20 13 11 11 572 13 27 28 20 21 23 59 10 12 159 1159 611 17 16 32 38 10 30 23 12 7 17 17 13 14 188 1344 427 20 18 20 19 21 10 17 27 12 555 12 28 3033 9 9 1501 27 18 246 14 16 15 9 970 12 10 17 6 35 12 23 17 11 14 10 407 15 29 1007 914 19 23 21 18 19 12 15 21 16 19 69 22 21 14 26 10 13 13 20 25 12 13 20 21 15 18 22 19 24 1407 12 21 20 14 14 14 12 329 19 17 30 11 1461 382 18 13 21 12 20 11 17 26 34 1396 16 20 23 371 21 10 7 20 15 12 820 27 18 15 9 880 12 18 23 19 130 422 13 18 28 8 9 13 12 967 11 10 16 25 21 13 8 167 289 13 17 14 12 16 11 15 31 173 8 24 14 746 18 8 12 18 2034 15 13 594 440 13 22 18 77 24 23 6 19 15 15 21 12 16 3480 277 19 16 23 16 19 14 9 26 20 14 2454 18 10 15 13 11 1007 20 1385 15 11 17 13 9 11 9 15 281 960 12 15 102 81 26 13 456 12 1010 12 542 6 14 10 7 14 20 15 20 23 9 14 19 19 8 53 15 486 23 30 102 255 23 1196 17 15 18 1490 17 117 891 10 14 23 122 10 9 15 9 16 10 36 21 15 33 10 52 14 15 20 14 20 12 11 756 33 37 1455 8 204 17 16 11 9 31 7 18 474 15 24 13 1209 489 9 23 18 144 341 16 24 11 23 14 16 17 21 9 10 7775 24 657 16 885 116 2372 10 52 22 1151 15 13 14 26 16 11 12 29 17 28 15 11 10 1013 11 14 958 13 9 1376 10 22 1538 21 24 17 18 14735 114 927 456 20 14 23 63 22 18 22 8 13 10 13 18 23 10 14 24 48 26 43 18 15 22 15 16 16 2133 16 22 14 15 15 960 429 24 13 15 39 21 13 1098 39 13 18 21 13 18 13 12 10 16 263 6 12 17 22 14 10 13 811 15 18 15 14 489 957 23 57 24 417 966 14 16 18 6 9 17 21 34 18 1388 16 71 33 22 7 1345 26 13 1200 19 16 10 355 29 10 15 13 11 1011 15 4091 8 13 15 11 155 1653 99 15 926 15 7 12 520 10 11 11 68 2019 17 27 17 14 14 12 236 25 17 18 19 1006 17 20 57 967 20 10 10 14 17 13 988 10 16 1496 35 18 109 70 17 22 14 903 17 17 14 1013 191 678 9 11 22 9 9 287 11 15 8 24 19 9 
To predecode: 0
Predecoding something: 0
Predecode request dropped: 0
sizeofblock_0 0
sizeofblock_1 51741
sizeofblock_2 89296
sizeofblock_3 0
sizeofblock_4 0
sizeofblock_5 0
sizeofblock_6 0
sizeofblock_7 0
sizeofblock_8 0
Variant_0 Correct: 1616583 Incorrect: 0 Accuracy: 1
Variant_1 Correct: 5752919 Incorrect: 0 Accuracy: 1
Variant_2 Correct: 0 Incorrect: 0 Accuracy: -nan
Variant_3 Correct: 0 Incorrect: 0 Accuracy: -nan
