
*** ChampSim Multicore Out-of-Order Simulator ***

Warmup Instructions: 50000000
Simulation Instructions: 50000000
Number of CPUs: 1
LLC sets: 2048
LLC ways: 16
Off-chip DRAM Size: 4096 MB Channels: 1 Width: 64-bit Data Rate: 6400 MT/s
CPU 0 runs ./micro_traces/srv17.trace.gz
.gz
ITLB has LRU replacement policy
DTLB has LRU replacement policy
STLB has LRU replacement policy
CPU 0 L1I next line prefetcher
L1I has LRU replacement policy
L1D has LRU replacement policy
Initialize SRRIP state for L2C
Initialize DRRIP state for LLC
Heartbeat CPU 0 instructions: 10000000 cycles: 2798819 heartbeat IPC: 3.57294 cumulative IPC: 3.57294 (Simulation time: 0 hr 1 min 38 sec) 
Heartbeat CPU 0 instructions: 20000000 cycles: 5596835 heartbeat IPC: 3.57396 cumulative IPC: 3.57345 (Simulation time: 0 hr 3 min 15 sec) 
Heartbeat CPU 0 instructions: 30000002 cycles: 8395455 heartbeat IPC: 3.57319 cumulative IPC: 3.57336 (Simulation time: 0 hr 4 min 53 sec) 
Heartbeat CPU 0 instructions: 40000003 cycles: 11194081 heartbeat IPC: 3.57318 cumulative IPC: 3.57332 (Simulation time: 0 hr 6 min 31 sec) 
Heartbeat CPU 0 instructions: 50000003 cycles: 13992574 heartbeat IPC: 3.57335 cumulative IPC: 3.57332 (Simulation time: 0 hr 8 min 7 sec) 

Warmup complete CPU 0 instructions: 50000003 cycles: 13992574 (Simulation time: 0 hr 8 min 7 sec) 

Cycle: 20000000 FTQ IN: 57688431 FTQ occupancy: 17.8239 DECODE IN: 57688412 DECODE occupancy: 47.0794 ROB IN: 57688399 ROB occupancy: 297.031 ROB OUT: 57688248
Heartbeat CPU 0 instructions: 60000002 cycles: 21809797 heartbeat IPC: 1.27923 cumulative IPC: 1.27923 (Simulation time: 0 hr 9 min 30 sec) 
Heartbeat CPU 0 instructions: 70000003 cycles: 29740234 heartbeat IPC: 1.26096 cumulative IPC: 1.27003 (Simulation time: 0 hr 10 min 56 sec) 
Cycle: 30000000 FTQ IN: 12637023 FTQ occupancy: 6.04716 DECODE IN: 12637035 DECODE occupancy: 17.3017 ROB IN: 12636988 ROB occupancy: 175.725 ROB OUT: 12636789
Heartbeat CPU 0 instructions: 80000003 cycles: 37622516 heartbeat IPC: 1.26867 cumulative IPC: 1.26958 (Simulation time: 0 hr 12 min 20 sec) 
Cycle: 40000000 FTQ IN: 12541849 FTQ occupancy: 5.96383 DECODE IN: 12541856 DECODE occupancy: 16.8707 ROB IN: 12541910 ROB occupancy: 171.732 ROB OUT: 12542163
Heartbeat CPU 0 instructions: 90000002 cycles: 45619996 heartbeat IPC: 1.25039 cumulative IPC: 1.26473 (Simulation time: 0 hr 13 min 45 sec) 
Cycle: 50000000 FTQ IN: 12685186 FTQ occupancy: 5.938 DECODE IN: 12685162 DECODE occupancy: 16.8615 ROB IN: 12685146 ROB occupancy: 171.236 ROB OUT: 12684961
Heartbeat CPU 0 instructions: 100000002 cycles: 53485339 heartbeat IPC: 1.2714 cumulative IPC: 1.26605 (Simulation time: 0 hr 15 min 12 sec) 
Finished CPU 0 instructions: 50000003 cycles: 39492766 cumulative IPC: 1.26605 (Simulation time: 0 hr 15 min 12 sec) 

ChampSim completed all CPUs

Region of Interest Statistics

CPU 0 cumulative IPC: 1.26605 instructions: 50000003 cycles: 39492766
 Fetch stage stalled: 66.6646  Sim cycles: 39492766 fetch stall cycle: 26327717
 Empty decode stage: 49.6526  Sim cycles: 39492766 fetch stall cycle: 19609176
ITLB TOTAL     ACCESS:    7580358  HIT:    6964530  MISS:     615828  HIT %:     91.876  MISS %:      8.124   MPKI: 12.3166
ITLB LOAD TRANSLATION INSTRUCTION	ACCESS:    5828607  HIT:    5698762  MISS:     129845  HIT %:    97.7723  MISS %:    2.22772  MPKI: 2.5969
ITLB TRANSLATION FROM L1D PREFETCHER INSTRUCTION	ACCESS:    1751751  HIT:    1265768  MISS:     485983  HIT %:    72.2573  MISS %:    27.7427  MPKI: 9.71966

ITLB AVERAGE MISS LATENCY: 117744 cycles
ITLB RQ	ACCESS:   11487358	FORWARD:          0	MERGED:    3755433	TO_CACHE:    7731925

DTLB TOTAL     ACCESS:    9117234  HIT:    8645189  MISS:     472045  HIT %:    94.8225  MISS %:     5.1775   MPKI: 9.4409
DTLB LOAD TRANSLATION DATA	ACCESS:    9117234  HIT:    8645189  MISS:     472045  HIT %:    94.8225  MISS %:     5.1775  MPKI: 9.4409

DTLB AVERAGE MISS LATENCY: 9.36272 cycles
DTLB RQ	ACCESS:   13483334	FORWARD:          0	MERGED:    4328537	TO_CACHE:    9154797

STLB TOTAL     ACCESS:    1335069  HIT:    1332769  MISS:       2300  HIT %:    99.8277  MISS %:   0.172276   MPKI: 0.046
STLB LOAD TRANSLATION INSTRUCTION	ACCESS:     127692  HIT:     127550  MISS:        142  HIT %:    99.8888  MISS %:   0.111205  MPKI: 0.00284
STLB TRANSLATION FROM L1D PREFETCHER INSTRUCTION	ACCESS:     488136  HIT:     487964  MISS:        172  HIT %:    99.9648  MISS %:  0.0352361  MPKI: 0.00344
STLB LOAD TRANSLATION DATA	ACCESS:     472045  HIT:     470085  MISS:       1960  HIT %:    99.5848  MISS %:   0.415215  MPKI: 0.0392
STLB TRANSLATION FROM L1D PREFETCHER DATA	ACCESS:     247196  HIT:     247170  MISS:         26  HIT %:    99.9895  MISS %:   0.010518  MPKI: 0.00052

STLB AVERAGE MISS LATENCY: 76.0752 cycles
STLB RQ	ACCESS:    1458350	FORWARD:          0	MERGED:     119522	TO_CACHE:    1338828

STLB Hit, L1D data hit: 0
STLB Hit, L2C data hit: 0
STLB Hit, LLC data hit: 0
STLB Hit, LLC data miss: 0
STLB STLB hints to L2: 0
L1D TOTAL     ACCESS:   13228100  HIT:   12112178  MISS:    1115922  HIT %:     91.564  MISS %:      8.436   MPKI: 22.3184
L1D LOAD DATA	ACCESS:    6676929  HIT:    5938733  MISS:     738196  HIT %:    88.9441  MISS %:    11.0559  MPKI: 14.7639
L1D RFO DATA	ACCESS:    6223014  HIT:    5937866  MISS:     285148  HIT %:    95.4178  MISS %:    4.58215  MPKI: 5.70296
L1D PREFETCH DATA	ACCESS:     328157  HIT:     235579  MISS:      92578  HIT %:    71.7885  MISS %:    28.2115  MPKI: 1.85156

L1D PREFETCH  REQUESTED:     733949  ISSUED:     733949  USEFUL:      31599  USELESS:      68557
L1D USEFUL LOAD PREFETCHES:      31599 PREFETCH ISSUED TO LOWER LEVEL:     100275  ACCURACY: 31.5123
 TIMELY PREFETCHES:      31599 LATE PREFETCHES: 7621 DROPPED PREFETCHES: 15
L1D AVERAGE MISS LATENCY: 227758 cycles
L1D RQ	ACCESS:   10758838	FORWARD:          0	MERGED:    3877196	TO_CACHE:    6717649
L1D WQ	ACCESS:    6955247	FORWARD:     164400	MERGED:     189562	TO_CACHE:    6765685
L1D PQ	ACCESS:     367178	FORWARD:          0	MERGED:          0	TO_CACHE:     366771

L1D UNIQUE REGIONS ACCESSED: 0
L1D REGIONS CONFLICTS: 0
L1D Cross Page Prefetch Requests: 5753
L1D Same Page Prefetch Requests: 742416
L1D ROI Sum of L1D PQ occupancy: 4662928
L1D PREFETCHES PUSHED FROM L2C: 0
L1I TOTAL     ACCESS:   11103484  HIT:    7475239  MISS:    3628245  HIT %:    67.3234  MISS %:    32.6766   MPKI: 72.5649
L1I LOAD INSTRUCTION	ACCESS:    6574985  HIT:    6001692  MISS:     573293  HIT %:    91.2807  MISS %:    8.71931  MPKI: 11.4659
L1I PREFETCH INSTRUCTION	ACCESS:    4528499  HIT:    1473547  MISS:    3054952  HIT %:    32.5394  MISS %:    67.4606  MPKI: 61.099

L1I PREFETCH  REQUESTED:    5213872  ISSUED:    5213778  USEFUL:    2370251  USELESS:     770611
L1I USEFUL LOAD PREFETCHES:    2370251 PREFETCH ISSUED TO LOWER LEVEL:    3140835  ACCURACY: 75.4656
 TIMELY PREFETCHES:    2370251 LATE PREFETCHES: 85888 DROPPED PREFETCHES: 9908
L1I AVERAGE MISS LATENCY: 794063 cycles
L1I RQ	ACCESS:    9436960	FORWARD:          0	MERGED:    2818232	TO_CACHE:    6618728
L1I PQ	ACCESS:    5213778	FORWARD:          0	MERGED:     345148	TO_CACHE:    4868630

L1BTB TOTAL     ACCESS:    5673863  HIT:    2034621  MISS:    3639242  HIT %:    35.8595  MISS %:    64.1405   MPKI: 72.7848
L1BTB BRANCH_DIRECT_JUMP	ACCESS:     548885  HIT:     144017  MISS:     404868	AVERAGE STALL: 25.6099
L1BTB BRANCH_INDIRECT	ACCESS:     183183  HIT:      66079  MISS:     117104	AVERAGE STALL: 109.04
L1BTB BRANCH_CONDITIONAL	ACCESS:    2707253  HIT:    1410513  MISS:    1296740	AVERAGE STALL: 27.6153
L1BTB BRANCH_DIRECT_CALL	ACCESS:     945679  HIT:     104012  MISS:     841667	AVERAGE STALL: 28.0422
L1BTB BRANCH_INDIRECT_CALL	ACCESS:     171595  HIT:      20823  MISS:     150772	AVERAGE STALL: 125.666
L1BTB BRANCH_RETURN	ACCESS:    1117268  HIT:     289177  MISS:     828091	AVERAGE STALL: 30.1521
L1BTB BRANCH_OTHER ACCESS:          0  HIT:          0  MISS:          0	AVERAGE STALL: -nan
L1BTB TOTAL ROB OCCUPANCY AT BTB MISS: 16.654

L2BTB1 TOTAL     ACCESS:    3613796  HIT:    3205593  MISS:     408203  HIT %:    88.7043  MISS %:    11.2957   MPKI: 8.16406
L2BTB1 BRANCH_DIRECT_JUMP	ACCESS:     400702  HIT:     364364  MISS:      36338	AVERAGE STALL: 25.6099
L2BTB1 BRANCH_INDIRECT	ACCESS:     106784  HIT:      84435  MISS:      22349	AVERAGE STALL: 109.04
L2BTB1 BRANCH_CONDITIONAL	ACCESS:    1296740  HIT:    1187561  MISS:     109179	AVERAGE STALL: 27.6153
L2BTB1 BRANCH_DIRECT_CALL	ACCESS:     841667  HIT:     726229  MISS:     115438	AVERAGE STALL: 28.0422
L2BTB1 BRANCH_INDIRECT_CALL	ACCESS:     141226  HIT:     116698  MISS:      24528	AVERAGE STALL: 125.666
L2BTB1 BRANCH_RETURN	ACCESS:     826677  HIT:     726306  MISS:     100371	AVERAGE STALL: 30.1521
L2BTB1 BRANCH_OTHER ACCESS:          0  HIT:          0  MISS:          0	AVERAGE STALL: -nan
L2BTB1 TOTAL ROB OCCUPANCY AT BTB MISS: 148.475

L2C TOTAL     ACCESS:    6600008  HIT:    5648159  MISS:     951849  HIT %:    85.5781  MISS %:    14.4219   MPKI: 19.037
L2C LOAD INSTRUCTION	ACCESS:     487405  HIT:     394596  MISS:      92809  HIT %:    80.9585  MISS %:    19.0415  MPKI: 1.85618
L2C PREFETCH INSTRUCTION	ACCESS:    3140840  HIT:    2781659  MISS:     359181  HIT %:    88.5642  MISS %:    11.4358  MPKI: 7.18362
L2C LOAD TRANSLATION INSTRUCTION	ACCESS:        161  HIT:         45  MISS:        116  HIT %:    27.9503  MISS %:    72.0497  MPKI: 0.00232
L2C TRANSLATION FROM L1D PREFETCHER INSTRUCTION	ACCESS:       4459  HIT:       4250  MISS:        209  HIT %:    95.3129  MISS %:    4.68715  MPKI: 0.00418
L2C LOAD DATA	ACCESS:     730521  HIT:     591034  MISS:     139487  HIT %:    80.9058  MISS %:    19.0942  MPKI: 2.78974
L2C RFO DATA	ACCESS:     285022  HIT:     205630  MISS:      79392  HIT %:    72.1453  MISS %:    27.8547  MPKI: 1.58784
L2C PREFETCH DATA	ACCESS:    1424227  HIT:    1179994  MISS:     244233  HIT %:    82.8515  MISS %:    17.1485  MPKI: 4.88466
L2C WRITEBACK DATA	ACCESS:     525264  HIT:     490421  MISS:      34843  HIT %:    93.3666  MISS %:    6.63343  MPKI: 0.69686
L2C LOAD TRANSLATION DATA	ACCESS:       2052  HIT:        490  MISS:       1562  HIT %:    23.8791  MISS %:    76.1209  MPKI: 0.03124
L2C TRANSLATION FROM L1D PREFETCHER DATA	ACCESS:         57  HIT:         40  MISS:         17  HIT %:    70.1754  MISS %:    29.8246  MPKI: 0.00034

L2C PREFETCH  REQUESTED:    3251038  ISSUED:    3251038  USEFUL:      32359  USELESS:     573592
L2C USEFUL LOAD PREFETCHES:      32359 PREFETCH ISSUED TO LOWER LEVEL:     604992  ACCURACY: 5.34867
 TIMELY PREFETCHES:      32359 LATE PREFETCHES: 1578 DROPPED PREFETCHES: 0
L2C AVERAGE MISS LATENCY: 33.9441 cycles
L2C RQ	ACCESS:    1509781	FORWARD:          0	MERGED:          0	TO_CACHE:    1509677
L2C WQ	ACCESS:     525264	FORWARD:        104	MERGED:          0	TO_CACHE:     525264
L2C PQ	ACCESS:    6492148	FORWARD:          0	MERGED:    1907384	TO_CACHE:    4584764

L2C Dense regions hint from L2: 0
PSCL5 TOTAL     ACCESS:      12050  HIT:       6025  MISS:       6025  HIT %:         50  MISS %:         50   MPKI: 0.1205
PSCL5 LOAD TRANSLATION INSTRUCTION	ACCESS:       4184  HIT:       2092  MISS:       2092  HIT %:         50  MISS %:         50  MPKI: 0.04184
PSCL5 TRANSLATION FROM L1D PREFETCHER INSTRUCTION	ACCESS:       7866  HIT:       3933  MISS:       3933  HIT %:         50  MISS %:         50  MPKI: 0.07866


PSCL4 TOTAL     ACCESS:       9437  HIT:       4715  MISS:       4722  HIT %:    49.9629  MISS %:    50.0371   MPKI: 0.09444
PSCL4 LOAD TRANSLATION INSTRUCTION	ACCESS:       2391  HIT:       1652  MISS:        739  HIT %:    69.0924  MISS %:    30.9076  MPKI: 0.01478
PSCL4 TRANSLATION FROM L1D PREFETCHER INSTRUCTION	ACCESS:       4442  HIT:       3063  MISS:       1379  HIT %:    68.9554  MISS %:    31.0446  MPKI: 0.02758
PSCL4 LOAD TRANSLATION DATA	ACCESS:        920  HIT:          0  MISS:        920  HIT %:          0  MISS %:        100  MPKI: 0.0184
PSCL4 TRANSLATION FROM L1D PREFETCHER DATA	ACCESS:       1684  HIT:          0  MISS:       1684  HIT %:          0  MISS %:        100  MPKI: 0.03368


PSCL3 TOTAL     ACCESS:      11852  HIT:       5917  MISS:       5935  HIT %:    49.9241  MISS %:    50.0759   MPKI: 0.1187
PSCL3 LOAD TRANSLATION INSTRUCTION	ACCESS:       2707  HIT:       2019  MISS:        688  HIT %:    74.5844  MISS %:    25.4156  MPKI: 0.01376
PSCL3 TRANSLATION FROM L1D PREFETCHER INSTRUCTION	ACCESS:       5261  HIT:       3898  MISS:       1363  HIT %:    74.0924  MISS %:    25.9076  MPKI: 0.02726
PSCL3 LOAD TRANSLATION DATA	ACCESS:       1349  HIT:          0  MISS:       1349  HIT %:          0  MISS %:        100  MPKI: 0.02698
PSCL3 TRANSLATION FROM L1D PREFETCHER DATA	ACCESS:       2535  HIT:          0  MISS:       2535  HIT %:          0  MISS %:        100  MPKI: 0.0507


PSCL2 TOTAL     ACCESS:      10819  HIT:       5347  MISS:       5472  HIT %:    49.4223  MISS %:    50.5777   MPKI: 0.10944
PSCL2 LOAD TRANSLATION INSTRUCTION	ACCESS:       2153  HIT:       1989  MISS:        164  HIT %:    92.3827  MISS %:    7.61728  MPKI: 0.00328
PSCL2 TRANSLATION FROM L1D PREFETCHER INSTRUCTION	ACCESS:       6662  HIT:       3358  MISS:       3304  HIT %:    50.4053  MISS %:    49.5947  MPKI: 0.06608
PSCL2 LOAD TRANSLATION DATA	ACCESS:       1950  HIT:          0  MISS:       1950  HIT %:          0  MISS %:        100  MPKI: 0.039
PSCL2 TRANSLATION FROM L1D PREFETCHER DATA	ACCESS:         54  HIT:          0  MISS:         54  HIT %:          0  MISS %:        100  MPKI: 0.00108


LLC TOTAL     ACCESS:    1044446  HIT:    1014378  MISS:      30068  HIT %:    97.1212  MISS %:    2.87885   MPKI: 0.60136
LLC LOAD INSTRUCTION	ACCESS:      91871  HIT:      91342  MISS:        529  HIT %:    99.4242  MISS %:   0.575807  MPKI: 0.01058
LLC PREFETCH INSTRUCTION	ACCESS:     357372  HIT:     356800  MISS:        572  HIT %:    99.8399  MISS %:   0.160057  MPKI: 0.01144
LLC LOAD TRANSLATION INSTRUCTION	ACCESS:        116  HIT:         80  MISS:         36  HIT %:    68.9655  MISS %:    31.0345  MPKI: 0.00072
LLC TRANSLATION FROM L1D PREFETCHER INSTRUCTION	ACCESS:        209  HIT:        200  MISS:          9  HIT %:    95.6938  MISS %:    4.30622  MPKI: 0.00018
LLC LOAD DATA	ACCESS:     138873  HIT:     134944  MISS:       3929  HIT %:    97.1708  MISS %:     2.8292  MPKI: 0.07858
LLC RFO DATA	ACCESS:      79337  HIT:      65890  MISS:      13447  HIT %:    83.0508  MISS %:    16.9492  MPKI: 0.26894
LLC PREFETCH DATA	ACCESS:     247618  HIT:     236462  MISS:      11156  HIT %:    95.4947  MISS %:    4.50533  MPKI: 0.22312
LLC WRITEBACK DATA	ACCESS:     127471  HIT:     127175  MISS:        296  HIT %:    99.7678  MISS %:    0.23221  MPKI: 0.00592
LLC LOAD TRANSLATION DATA	ACCESS:       1562  HIT:       1468  MISS:         94  HIT %:    93.9821  MISS %:    6.01793  MPKI: 0.00188
LLC TRANSLATION FROM L1D PREFETCHER DATA	ACCESS:         17  HIT:         17  MISS:          0  HIT %:        100  MISS %:          0  MPKI: 0

LLC AVERAGE MISS LATENCY: 158.25 cycles
LLC RQ	ACCESS:     312014	FORWARD:          0	MERGED:          0	TO_CACHE:     311985
LLC WQ	ACCESS:     127471	FORWARD:         31	MERGED:          0	TO_CACHE:     127471
LLC PQ	ACCESS:     604992	FORWARD:          0	MERGED:          0	TO_CACHE:     604990

LLC Dense regions hint to LLC: 0

RAW hits: 1878908
Loads Generated: 12637746
Loads sent to L1D: 10758838
Stores Generated: 6955235
Stores sent to L1D: 6955247
Major fault: 0 Minor fault: 2552
Allocated PAGES: 2552
I-Shadow cache 408 bytes
Touched + WorthPF tables 12288 bytes 
MMA filter 174 bytes 
FNL filter 272 bytes 
TOTAL PREFETCHER STORAGE SIZE: 31318 bytes
CPU 0 L1I next line prefetcher final stats

stream: 
stream:times selected: 1173451
stream:pref_filled: 116380
stream:pref_useful: 21432
stream:pref_late: 6633
stream:misses: 6837
stream:misses_by_poll: 0

CS: 
CS:times selected: 172217
CS:pref_filled: 52819
CS:pref_useful: 28138
CS:pref_late: 12551
CS:misses: 21580
CS:misses_by_poll: 5

CPLX: 
CPLX:times selected: 999795
CPLX:pref_filled: 19632
CPLX:pref_useful: 3659
CPLX:pref_late: 3232
CPLX:misses: 89859
CPLX:misses_by_poll: 0

NL_L1: 
NL:times selected: 19211
NL:pref_filled: 488
NL:pref_useful: 183
NL:pref_late: 207
NL:misses: 1022
NL:misses_by_poll: 0

total selections: 2364674
total_filled: 92578
total_useful: 31599
total_late: 24230
total_polluted: 5
total_misses_after_warmup: 778915
conflicts: 5604190

test: 112772

DRAM Statistics
 CHANNEL 0
 RQ ROW_BUFFER_HIT:      10462  ROW_BUFFER_MISS:      19307
 DBUS_CONGESTED:         12
 WQ ROW_BUFFER_HIT:       1492  ROW_BUFFER_MISS:      12585  FULL:          0

 AVG_CONGESTED_CYCLE: 6

CPU 0 Branch Prediction Accuracy: 99.8161% MPKI: 0.33636 Average ROB Occupancy at Mispredict: 170.572
Branch types
NOT_BRANCH: 40854530 81.7091%
BRANCH_DIRECT_JUMP: 548885 1.09777%
BRANCH_INDIRECT: 183183 0.366366%
BRANCH_CONDITIONAL: 6178564 12.3571%
BRANCH_DIRECT_CALL: 945679 1.89136%
BRANCH_INDIRECT_CALL: 171595 0.34319%
BRANCH_RETURN: 1117268 2.23454%
BRANCH_OTHER: 0 0%

DRAM PAGES: 1048576
Allocated PAGES: 2552
Average_ROB_Occupancy: 174.829
Average_Decode_Occupancy: 17.0069
Average_FTQ_Occupancy: 5.95115
Indirect max targets: 14 Average targets: 1.15878
Branch_type:  BRANCH_DIRECT_JUMP:  Count Percentage: 2.90446 7.06578 3.67387 9.84562 1.96611 6.30211 0.992402 67.2497 
Branch_type:  BRANCH_INDIRECT:  Count Percentage: 11.7648 3.4386 3.74616 0 1.33895 9.67146 19.2156 50.8243 
Branch_type:  BRANCH_CONDITIONAL:  Count Percentage: 21.694 6.34182 1.8039 8.48605 1.39315 5.44798 1.8969 52.9362 
Branch_type:  BRANCH_DIRECT_CALL:  Count Percentage: 0.76656 1.30145 1.42967 4.67874 2.44875 2.56093 0.886312 85.9276 
Branch_type:  BRANCH_INDIRECT_CALL:  Count Percentage: 9.57241 0.5703 3.00041 4.85527 0 2.26634 1.28514 78.4501 
Branch_type:  BRANCH_RETURN:  Count Percentage: 4.28475 4.27486 1.27147 8.89614 2.1287 7.1289 3.06902 68.9462 
Branch_type:  BRANCH_DIRECT_JUMP:  Total Count: 31860 77507 40300 108000 21567 69130 10886 737685 
Branch_type:  BRANCH_INDIRECT:  Total Count: 43072 12589 13715 0 4902 35408 70350 186072 
Branch_type:  BRANCH_CONDITIONAL:  Total Count: 2679373 783263 222795 1048092 172065 672867 234282 6538024 
Branch_type:  BRANCH_DIRECT_CALL:  Total Count: 14486 24594 27017 88416 46275 48395 16749 1623808 
Branch_type:  BRANCH_INDIRECT_CALL:  Total Count: 32848 1957 10296 16661 0 7777 4410 269204 
Branch_type:  BRANCH_RETURN:  Total Count: 95709 95488 28401 198714 47549 159239 68553 1540058 
Number of unique branch instructions: 10248
Upper 32 bits: 
aaaa
ffff
ffff0000
Unique upper 32 bits: 3
Unique upper 36 bits: 3
Unique upper 40 bits: 5
Unique upper 44 bits: 32
Unique upper 48 bits: 153
Offset_3 4259
Offset_4 250
Offset_5 460
Offset_6 516
Offset_7 611
Offset_8 533
Offset_9 479
Offset_10 397
Offset_11 337
Offset_12 299
Offset_13 221
Offset_14 240
Offset_15 195
Offset_16 224
Offset_17 155
Offset_18 134
Offset_19 243
Offset_20 141
Offset_21 235
Offset_22 405
Offset_23 241
Offset_24 336
Offset_25 92
Offset_47 84
Offset_64 1
decode_dispatch_called: 21692249 54.9271
Dispatch_width: 0 10756423 49.5865 27.2364
Dispatch_width: 1 742958 3.42499 1.88125
Dispatch_width: 2 912215 4.20526 2.30983
Dispatch_width: 3 612319 2.82275 1.55046
Dispatch_width: 4 3010737 13.8793 7.62352
Dispatch_width: 5 393029 1.81184 0.995192
Dispatch_width: 6 5264568 24.2694 13.3305
Empty_decode_cycles: 17800517 45.0729
ROB_full_cycles: 4431859 11.222
Starvation_cycles_per_kilo_instr: 297.963
Starvation_cycles_per_kilo_instr_3: 263.926
Starvation_cycles_per_kilo_instr_0: 241.251
Branch_type_1  (3,1)  (4,7)  (5,36)  (6,71)  (7,121)  (8,130)  (9,126)  (10,103)  (11,76)  (12,51)  (13,8)  (14,2)  (15,3)  (16,4)  (18,1)  (19,4)  (20,2)  (21,1)  (22,3)  (23,2)  (24,10)  (25,12) 
Branch_type_2  (3,1)  (4,1)  (5,1)  (8,3)  (9,3)  (12,1)  (13,1)  (14,1)  (16,3)  (17,2)  (20,2)  (21,2)  (23,5)  (24,1)  (47,39) 
Branch_type_3  (3,4257)  (4,242)  (5,419)  (6,429)  (7,459)  (8,339)  (9,261)  (10,160)  (11,137)  (12,58)  (13,7)  (64,1) 
Branch_type_4  (6,4)  (7,8)  (8,26)  (9,52)  (10,63)  (11,63)  (12,105)  (13,94)  (14,108)  (15,93)  (16,101)  (17,71)  (18,62)  (19,119)  (20,72)  (21,124)  (22,216)  (23,136)  (24,197)  (25,76) 
Branch_type_5  (8,2)  (9,1)  (10,4)  (11,5)  (12,3)  (13,14)  (14,16)  (15,11)  (16,20)  (17,11)  (18,16)  (19,12)  (20,11)  (21,13)  (22,42)  (23,26)  (24,36) 
Branch_type_6  (5,4)  (6,12)  (7,23)  (8,33)  (9,36)  (10,67)  (11,56)  (12,81)  (13,97)  (14,113)  (15,88)  (16,96)  (17,71)  (18,55)  (19,108)  (20,54)  (21,95)  (22,144)  (23,72)  (24,92)  (25,4)  (47,45) 
Unique trigger count: 
L2BTB1 768 4
L2BTB2 768 4
L2BTB3 768 4
L2BTB4 112 4
