
*** ChampSim Multicore Out-of-Order Simulator ***

Warmup Instructions: 50000000
Simulation Instructions: 50000000
Number of CPUs: 1
LLC sets: 2048
LLC ways: 16
Off-chip DRAM Size: 4096 MB Channels: 1 Width: 64-bit Data Rate: 6400 MT/s
CPU 0 runs ./micro_traces/srv122.trace.gz
.gz
ITLB has LRU replacement policy
DTLB has LRU replacement policy
STLB has LRU replacement policy
FDIP Prefetcher at L1I
L1I has LRU replacement policy
L1D has LRU replacement policy
Initialize SRRIP state for L2C
Initialize DRRIP state for LLC
Heartbeat_Variant_0 : 1296 0.316406 per_variant_size: 0 1296 0 0 0 0 0 0 0 
Heartbeat_Variant_1 : 2249 0.549072 per_variant_size: 0 180 2069 0 0 0 0 0 0 
Heartbeat_Variant_2 : 0 0 per_variant_size: 0 0 0 0 0 0 0 0 0 
Heartbeat_Variant_3 : 0 0 per_variant_size: 0 0 0 0 0 0 0 0 0 
Heartbeat_Variant_0_evicts 0 : 5590 1 : 0 2 : 0 3 : 0 
Heartbeat_Variant_1_evicts 0 : 0 1 : 0 2 : 0 3 : 0 
Heartbeat_Variant_2_evicts 0 : 0 1 : 0 2 : 0 3 : 0 
Heartbeat_Variant_3_evicts 0 : 0 1 : 0 2 : 0 3 : 0 
Heartbeat CPU 0 instructions: 10000002 cycles: 2796600 heartbeat IPC: 3.57577 cumulative IPC: 3.57577 (Simulation time: 0 hr 1 min 42 sec) 
Heartbeat_Variant_0 : 1379 0.33667 per_variant_size: 0 1379 0 0 0 0 0 0 0 
Heartbeat_Variant_1 : 2440 0.595703 per_variant_size: 0 165 2275 0 0 0 0 0 0 
Heartbeat_Variant_2 : 0 0 per_variant_size: 0 0 0 0 0 0 0 0 0 
Heartbeat_Variant_3 : 0 0 per_variant_size: 0 0 0 0 0 0 0 0 0 
Heartbeat_Variant_0_evicts 0 : 5522 1 : 8 2 : 0 3 : 0 
Heartbeat_Variant_1_evicts 0 : 4 1 : 0 2 : 0 3 : 0 
Heartbeat_Variant_2_evicts 0 : 0 1 : 0 2 : 0 3 : 0 
Heartbeat_Variant_3_evicts 0 : 0 1 : 0 2 : 0 3 : 0 
Heartbeat CPU 0 instructions: 20000003 cycles: 5590721 heartbeat IPC: 3.57894 cumulative IPC: 3.57736 (Simulation time: 0 hr 3 min 24 sec) 
Heartbeat_Variant_0 : 1379 0.33667 per_variant_size: 0 1379 0 0 0 0 0 0 0 
Heartbeat_Variant_1 : 2443 0.596436 per_variant_size: 0 183 2260 0 0 0 0 0 0 
Heartbeat_Variant_2 : 0 0 per_variant_size: 0 0 0 0 0 0 0 0 0 
Heartbeat_Variant_3 : 0 0 per_variant_size: 0 0 0 0 0 0 0 0 0 
Heartbeat_Variant_0_evicts 0 : 5407 1 : 0 2 : 0 3 : 0 
Heartbeat_Variant_1_evicts 0 : 0 1 : 0 2 : 0 3 : 0 
Heartbeat_Variant_2_evicts 0 : 0 1 : 0 2 : 0 3 : 0 
Heartbeat_Variant_3_evicts 0 : 0 1 : 0 2 : 0 3 : 0 
Heartbeat CPU 0 instructions: 30000001 cycles: 8386040 heartbeat IPC: 3.57741 cumulative IPC: 3.57737 (Simulation time: 0 hr 5 min 6 sec) 
Heartbeat_Variant_0 : 1379 0.33667 per_variant_size: 0 1379 0 0 0 0 0 0 0 
Heartbeat_Variant_1 : 2447 0.597412 per_variant_size: 0 164 2283 0 0 0 0 0 0 
Heartbeat_Variant_2 : 0 0 per_variant_size: 0 0 0 0 0 0 0 0 0 
Heartbeat_Variant_3 : 0 0 per_variant_size: 0 0 0 0 0 0 0 0 0 
Heartbeat_Variant_0_evicts 0 : 5566 1 : 0 2 : 0 3 : 0 
Heartbeat_Variant_1_evicts 0 : 0 1 : 0 2 : 0 3 : 0 
Heartbeat_Variant_2_evicts 0 : 0 1 : 0 2 : 0 3 : 0 
Heartbeat_Variant_3_evicts 0 : 0 1 : 0 2 : 0 3 : 0 
Heartbeat CPU 0 instructions: 40000003 cycles: 11182642 heartbeat IPC: 3.57577 cumulative IPC: 3.57697 (Simulation time: 0 hr 6 min 46 sec) 
Heartbeat_Variant_0 : 1380 0.336914 per_variant_size: 0 1380 0 0 0 0 0 0 0 
Heartbeat_Variant_1 : 2470 0.603027 per_variant_size: 0 177 2293 0 0 0 0 0 0 
Heartbeat_Variant_2 : 0 0 per_variant_size: 0 0 0 0 0 0 0 0 0 
Heartbeat_Variant_3 : 0 0 per_variant_size: 0 0 0 0 0 0 0 0 0 
Heartbeat_Variant_0_evicts 0 : 5507 1 : 0 2 : 0 3 : 0 
Heartbeat_Variant_1_evicts 0 : 1 1 : 0 2 : 0 3 : 0 
Heartbeat_Variant_2_evicts 0 : 0 1 : 0 2 : 0 3 : 0 
Heartbeat_Variant_3_evicts 0 : 0 1 : 0 2 : 0 3 : 0 
Heartbeat CPU 0 instructions: 50000002 cycles: 13978358 heartbeat IPC: 3.5769 cumulative IPC: 3.57696 (Simulation time: 0 hr 8 min 29 sec) 

Warmup complete CPU 0 instructions: 50000002 cycles: 13978358 (Simulation time: 0 hr 8 min 29 sec) 

Cycle: 20000000 FTQ IN: 58442193 FTQ occupancy: 20.5013 DECODE IN: 58442115 DECODE occupancy: 53.4185 ROB IN: 58442055 ROB occupancy: 318.235 ROB OUT: 58441703
Heartbeat_Variant_0 : 1380 0.336914 per_variant_size: 0 1380 0 0 0 0 0 0 0 
Heartbeat_Variant_1 : 2470 0.603027 per_variant_size: 0 184 2286 0 0 0 0 0 0 
Heartbeat_Variant_2 : 0 0 per_variant_size: 0 0 0 0 0 0 0 0 0 
Heartbeat_Variant_3 : 0 0 per_variant_size: 0 0 0 0 0 0 0 0 0 
Heartbeat_Variant_0_evicts 0 : 5586 1 : 0 2 : 0 3 : 0 
Heartbeat_Variant_1_evicts 0 : 0 1 : 0 2 : 0 3 : 0 
Heartbeat_Variant_2_evicts 0 : 0 1 : 0 2 : 0 3 : 0 
Heartbeat_Variant_3_evicts 0 : 0 1 : 0 2 : 0 3 : 0 
Heartbeat CPU 0 instructions: 60000000 cycles: 21108144 heartbeat IPC: 1.40257 cumulative IPC: 1.40257 (Simulation time: 0 hr 10 min 28 sec) 
Heartbeat_Variant_0 : 1394 0.340332 per_variant_size: 0 1394 0 0 0 0 0 0 0 
Heartbeat_Variant_1 : 2484 0.606445 per_variant_size: 0 182 2302 0 0 0 0 0 0 
Heartbeat_Variant_2 : 0 0 per_variant_size: 0 0 0 0 0 0 0 0 0 
Heartbeat_Variant_3 : 0 0 per_variant_size: 0 0 0 0 0 0 0 0 0 
Heartbeat_Variant_0_evicts 0 : 5554 1 : 7 2 : 0 3 : 0 
Heartbeat_Variant_1_evicts 0 : 4 1 : 0 2 : 0 3 : 0 
Heartbeat_Variant_2_evicts 0 : 0 1 : 0 2 : 0 3 : 0 
Heartbeat_Variant_3_evicts 0 : 0 1 : 0 2 : 0 3 : 0 
Heartbeat CPU 0 instructions: 70000002 cycles: 28344044 heartbeat IPC: 1.382 cumulative IPC: 1.39221 (Simulation time: 0 hr 12 min 30 sec) 
Cycle: 30000000 FTQ IN: 13877639 FTQ occupancy: 14.8461 DECODE IN: 13877620 DECODE occupancy: 38.0048 ROB IN: 13877620 ROB occupancy: 246.82 ROB OUT: 13877624
Heartbeat_Variant_0 : 1394 0.340332 per_variant_size: 0 1394 0 0 0 0 0 0 0 
Heartbeat_Variant_1 : 2484 0.606445 per_variant_size: 0 179 2305 0 0 0 0 0 0 
Heartbeat_Variant_2 : 0 0 per_variant_size: 0 0 0 0 0 0 0 0 0 
Heartbeat_Variant_3 : 0 0 per_variant_size: 0 0 0 0 0 0 0 0 0 
Heartbeat_Variant_0_evicts 0 : 5500 1 : 0 2 : 0 3 : 0 
Heartbeat_Variant_1_evicts 0 : 0 1 : 0 2 : 0 3 : 0 
Heartbeat_Variant_2_evicts 0 : 0 1 : 0 2 : 0 3 : 0 
Heartbeat_Variant_3_evicts 0 : 0 1 : 0 2 : 0 3 : 0 
Heartbeat CPU 0 instructions: 80000001 cycles: 35489181 heartbeat IPC: 1.39955 cumulative IPC: 1.39465 (Simulation time: 0 hr 14 min 29 sec) 
Cycle: 40000000 FTQ IN: 13872785 FTQ occupancy: 14.9511 DECODE IN: 13872882 DECODE occupancy: 38.44 ROB IN: 13872905 ROB occupancy: 249.28 ROB OUT: 13872901
Heartbeat_Variant_0 : 1393 0.340088 per_variant_size: 0 1393 0 0 0 0 0 0 0 
Heartbeat_Variant_1 : 2486 0.606934 per_variant_size: 0 201 2285 0 0 0 0 0 0 
Heartbeat_Variant_2 : 0 0 per_variant_size: 0 0 0 0 0 0 0 0 0 
Heartbeat_Variant_3 : 0 0 per_variant_size: 0 0 0 0 0 0 0 0 0 
Heartbeat_Variant_0_evicts 0 : 5403 1 : 1 2 : 0 3 : 0 
Heartbeat_Variant_1_evicts 0 : 2 1 : 0 2 : 0 3 : 0 
Heartbeat_Variant_2_evicts 0 : 0 1 : 0 2 : 0 3 : 0 
Heartbeat_Variant_3_evicts 0 : 0 1 : 0 2 : 0 3 : 0 
Heartbeat CPU 0 instructions: 90000002 cycles: 42714303 heartbeat IPC: 1.38406 cumulative IPC: 1.39198 (Simulation time: 0 hr 16 min 32 sec) 
Heartbeat_Variant_0 : 1403 0.342529 per_variant_size: 0 1403 0 0 0 0 0 0 0 
Heartbeat_Variant_1 : 2509 0.612549 per_variant_size: 0 176 2333 0 0 0 0 0 0 
Heartbeat_Variant_2 : 0 0 per_variant_size: 0 0 0 0 0 0 0 0 0 
Heartbeat_Variant_3 : 0 0 per_variant_size: 0 0 0 0 0 0 0 0 0 
Heartbeat_Variant_0_evicts 0 : 5571 1 : 5 2 : 0 3 : 0 
Heartbeat_Variant_1_evicts 0 : 5 1 : 0 2 : 0 3 : 0 
Heartbeat_Variant_2_evicts 0 : 0 1 : 0 2 : 0 3 : 0 
Heartbeat_Variant_3_evicts 0 : 0 1 : 0 2 : 0 3 : 0 
Heartbeat CPU 0 instructions: 100000000 cycles: 49855179 heartbeat IPC: 1.40039 cumulative IPC: 1.39366 (Simulation time: 0 hr 18 min 36 sec) 
Finished CPU 0 instructions: 50000002 cycles: 35876822 cumulative IPC: 1.39366 (Simulation time: 0 hr 18 min 36 sec) 

ChampSim completed all CPUs

Region of Interest Statistics

CPU 0 cumulative IPC: 1.39366 instructions: 50000002 cycles: 35876822
 Fetch stage stalled: 46.1569  Sim cycles: 35876822 fetch stall cycle: 16559646
 Empty decode stage: 25.1121  Sim cycles: 35876822 fetch stall cycle: 9009422
ITLB TOTAL     ACCESS:    5847839  HIT:    5349601  MISS:     498238  HIT %:      91.48  MISS %:    8.52004   MPKI: 9.96476
ITLB LOAD TRANSLATION INSTRUCTION	ACCESS:    5710328  HIT:    5212090  MISS:     498238  HIT %:    91.2748  MISS %:    8.72521  MPKI: 9.96476
ITLB TRANSLATION FROM L1D PREFETCHER INSTRUCTION	ACCESS:     137511  HIT:     137511  MISS:          0  HIT %:        100  MISS %:          0  MPKI: 0

ITLB AVERAGE MISS LATENCY: 9.04883 cycles
ITLB RQ	ACCESS:    7960550	FORWARD:          0	MERGED:    1624646	TO_CACHE:    6335904

DTLB TOTAL     ACCESS:    8949469  HIT:    8478024  MISS:     471445  HIT %:    94.7321  MISS %:    5.26785   MPKI: 9.4289
DTLB LOAD TRANSLATION DATA	ACCESS:    8949469  HIT:    8478024  MISS:     471445  HIT %:    94.7321  MISS %:    5.26785  MPKI: 9.4289

DTLB AVERAGE MISS LATENCY: 9.31598 cycles
DTLB RQ	ACCESS:   13325274	FORWARD:          0	MERGED:    4339054	TO_CACHE:    8986220

STLB TOTAL     ACCESS:    1215604  HIT:    1213675  MISS:       1929  HIT %:    99.8413  MISS %:   0.158687   MPKI: 0.03858
STLB LOAD TRANSLATION INSTRUCTION	ACCESS:     498237  HIT:     498008  MISS:        229  HIT %:     99.954  MISS %:  0.0459621  MPKI: 0.00458
STLB LOAD TRANSLATION DATA	ACCESS:     471445  HIT:     469757  MISS:       1688  HIT %:     99.642  MISS %:   0.358048  MPKI: 0.03376
STLB TRANSLATION FROM L1D PREFETCHER DATA	ACCESS:     245922  HIT:     245910  MISS:         12  HIT %:    99.9951  MISS %:  0.0048796  MPKI: 0.00024

STLB AVERAGE MISS LATENCY: 74.6646 cycles
STLB RQ	ACCESS:    1343823	FORWARD:          0	MERGED:     128180	TO_CACHE:    1215643

STLB Hit, L1D data hit: 0
STLB Hit, L2C data hit: 0
STLB Hit, LLC data hit: 0
STLB Hit, LLC data miss: 0
STLB STLB hints to L2: 0
L1D TOTAL     ACCESS:   13067009  HIT:   11923531  MISS:    1143478  HIT %:    91.2491  MISS %:    8.75088   MPKI: 22.8696
L1D LOAD DATA	ACCESS:    6543716  HIT:    5787167  MISS:     756549  HIT %:    88.4385  MISS %:    11.5615  MPKI: 15.131
L1D RFO DATA	ACCESS:    6198496  HIT:    5912122  MISS:     286374  HIT %:    95.3799  MISS %:    4.62006  MPKI: 5.72748
L1D PREFETCH DATA	ACCESS:     324797  HIT:     224242  MISS:     100555  HIT %:    69.0407  MISS %:    30.9593  MPKI: 2.0111

L1D PREFETCH  REQUESTED:     748638  ISSUED:     748638  USEFUL:      38596  USELESS:      71315
L1D USEFUL LOAD PREFETCHES:      38596 PREFETCH ISSUED TO LOWER LEVEL:     109929  ACCURACY: 35.1099
 TIMELY PREFETCHES:      38596 LATE PREFETCHES: 9338 DROPPED PREFETCHES: 1
L1D AVERAGE MISS LATENCY: 260570 cycles
L1D RQ	ACCESS:   10668825	FORWARD:          0	MERGED:    3923322	TO_CACHE:    6578665
L1D WQ	ACCESS:    6945468	FORWARD:     167194	MERGED:     198859	TO_CACHE:    6746609
L1D PQ	ACCESS:     374497	FORWARD:          0	MERGED:          0	TO_CACHE:     374141

L1D UNIQUE REGIONS ACCESSED: 0
L1D REGIONS CONFLICTS: 0
L1D Cross Page Prefetch Requests: 5785
L1D Same Page Prefetch Requests: 762009
L1D ROI Sum of L1D PQ occupancy: 4743982
L1D PREFETCHES PUSHED FROM L2C: 0
L1I TOTAL     ACCESS:    7126548  HIT:    4344402  MISS:    2782146  HIT %:    60.9608  MISS %:    39.0392   MPKI: 55.6429
L1I LOAD INSTRUCTION	ACCESS:    6463578  HIT:    3681432  MISS:    2782146  HIT %:    56.9566  MISS %:    43.0434  MPKI: 55.6429
L1I PREFETCH INSTRUCTION	ACCESS:     662970  HIT:     662970  MISS:          0  HIT %:        100  MISS %:          0  MPKI: 0

L1I PREFETCH  REQUESTED:    1614793  ISSUED:    1614793  USEFUL:          0  USELESS:          0
L1I USEFUL LOAD PREFETCHES:          0 PREFETCH ISSUED TO LOWER LEVEL:          0  ACCURACY: -nan
 TIMELY PREFETCHES:          0 LATE PREFETCHES: 0 DROPPED PREFETCHES: 0
L1I AVERAGE MISS LATENCY: 17.0164 cycles
L1I RQ	ACCESS:    9577868	FORWARD:          0	MERGED:    2807963	TO_CACHE:    6769905
L1I PQ	ACCESS:    1614793	FORWARD:          0	MERGED:     424148	TO_CACHE:    1190645

L1BTB TOTAL     ACCESS:    5676333  HIT:    2029565  MISS:    3646768  HIT %:    35.7549  MISS %:    64.2451   MPKI: 72.9354
L1BTB BRANCH_DIRECT_JUMP	ACCESS:     546511 HIT:     142152 MISS:     404359 AVERAGE STALL: 56.8312 AVERAGE FETCH STALL: 16.1031 AVERAGE FETCH QUEUE STALL: 19.6091 AVERAGE DECODE STALL: 20.1894 AVERAGE EXECUTE STALL: 2.03225e+15
L1BTB BRANCH_INDIRECT	ACCESS:     181659 HIT:      65035 MISS:     116624 AVERAGE STALL: 110.999 AVERAGE FETCH STALL: 10.9575 AVERAGE FETCH QUEUE STALL: 17.5986 AVERAGE DECODE STALL: 13.8612 AVERAGE EXECUTE STALL: 67.6171
L1BTB BRANCH_CONDITIONAL	ACCESS:    2705088 HIT:    1407583 MISS:    1297505 AVERAGE STALL: 44.4603 AVERAGE FETCH STALL: 19.7548 AVERAGE FETCH QUEUE STALL: 12.4514 AVERAGE DECODE STALL: 11.5092 AVERAGE EXECUTE STALL: 2.16791e+15
L1BTB BRANCH_DIRECT_CALL	ACCESS:     949345 HIT:     104587 MISS:     844758 AVERAGE STALL: 65.739 AVERAGE FETCH STALL: 23.0608 AVERAGE FETCH QUEUE STALL: 21.869 AVERAGE DECODE STALL: 20.0633 AVERAGE EXECUTE STALL: 9.0514e+15
L1BTB BRANCH_INDIRECT_CALL	ACCESS:     172193 HIT:      21010 MISS:     151183 AVERAGE STALL: 142.641 AVERAGE FETCH STALL: 12.298 AVERAGE FETCH QUEUE STALL: 19.1811 AVERAGE DECODE STALL: 12.2126 AVERAGE EXECUTE STALL: 98.4514
L1BTB BRANCH_RETURN	ACCESS:    1121537 HIT:     289198 MISS:     832339 AVERAGE STALL: 51.3367 AVERAGE FETCH STALL: 16.3699 AVERAGE FETCH QUEUE STALL: 7.02442 AVERAGE DECODE STALL: 6.88812 AVERAGE EXECUTE STALL: 4.22896e+14
L1BTB BRANCH_OTHER ACCESS:          0 HIT:          0 MISS:          0 AVERAGE STALL: -nan AVERAGE FETCH STALL: -nan AVERAGE FETCH QUEUE STALL: -nan AVERAGE DECODE STALL: -nan AVERAGE EXECUTE STALL: -nan
L1BTB TOTAL ROB OCCUPANCY AT BTB MISS: 2.8732

L2BTB TOTAL     ACCESS:    3621624  HIT:    3551160  MISS:      70464  HIT %:    98.0544  MISS %:    1.94565   MPKI: 1.40928
L2BTB BRANCH_DIRECT_JUMP	ACCESS:     400334 HIT:     395280 MISS:       5054 AVERAGE STALL: 56.8312 AVERAGE FETCH STALL: 16.1031 AVERAGE FETCH QUEUE STALL: 19.6091 AVERAGE DECODE STALL: 20.1894 AVERAGE EXECUTE STALL: 2.03225e+15
L2BTB BRANCH_INDIRECT	ACCESS:     106312 HIT:     103599 MISS:       2713 AVERAGE STALL: 110.999 AVERAGE FETCH STALL: 10.9575 AVERAGE FETCH QUEUE STALL: 17.5986 AVERAGE DECODE STALL: 13.8612 AVERAGE EXECUTE STALL: 67.6171
L2BTB BRANCH_CONDITIONAL	ACCESS:    1297505 HIT:    1288940 MISS:       8565 AVERAGE STALL: 44.4603 AVERAGE FETCH STALL: 19.7548 AVERAGE FETCH QUEUE STALL: 12.4514 AVERAGE DECODE STALL: 11.5092 AVERAGE EXECUTE STALL: 2.16791e+15
L2BTB BRANCH_DIRECT_CALL	ACCESS:     844758 HIT:     842703 MISS:       2055 AVERAGE STALL: 65.739 AVERAGE FETCH STALL: 23.0608 AVERAGE FETCH QUEUE STALL: 21.869 AVERAGE DECODE STALL: 20.0633 AVERAGE EXECUTE STALL: 9.0514e+15
L2BTB BRANCH_INDIRECT_CALL	ACCESS:     141798 HIT:     131938 MISS:       9860 AVERAGE STALL: 142.641 AVERAGE FETCH STALL: 12.298 AVERAGE FETCH QUEUE STALL: 19.1811 AVERAGE DECODE STALL: 12.2126 AVERAGE EXECUTE STALL: 98.4514
L2BTB BRANCH_RETURN	ACCESS:     830917 HIT:     788700 MISS:      42217 AVERAGE STALL: 51.3367 AVERAGE FETCH STALL: 16.3699 AVERAGE FETCH QUEUE STALL: 7.02442 AVERAGE DECODE STALL: 6.88812 AVERAGE EXECUTE STALL: 4.22896e+14
L2BTB BRANCH_OTHER ACCESS:          0 HIT:          0 MISS:          0 AVERAGE STALL: -nan AVERAGE FETCH STALL: -nan AVERAGE FETCH QUEUE STALL: -nan AVERAGE DECODE STALL: -nan AVERAGE EXECUTE STALL: -nan
L2BTB TOTAL ROB OCCUPANCY AT BTB MISS: 148.698

L2C TOTAL     ACCESS:    4536650  HIT:    4083374  MISS:     453276  HIT %:    90.0086  MISS %:    9.99143   MPKI: 9.06552
L2C LOAD INSTRUCTION	ACCESS:    2782146  HIT:    2541861  MISS:     240285  HIT %:    91.3633  MISS %:    8.63668  MPKI: 4.8057
L2C LOAD TRANSLATION INSTRUCTION	ACCESS:        255  HIT:         46  MISS:        209  HIT %:    18.0392  MISS %:    81.9608  MPKI: 0.00418
L2C LOAD DATA	ACCESS:     747173  HIT:     674778  MISS:      72395  HIT %:    90.3108  MISS %:    9.68919  MPKI: 1.4479
L2C RFO DATA	ACCESS:     286288  HIT:     236421  MISS:      49867  HIT %:    82.5815  MISS %:    17.4185  MPKI: 0.99734
L2C PREFETCH DATA	ACCESS:     191727  HIT:     116231  MISS:      75496  HIT %:    60.6232  MISS %:    39.3768  MPKI: 1.50992
L2C WRITEBACK DATA	ACCESS:     527304  HIT:     513644  MISS:      13660  HIT %:    97.4095  MISS %:    2.59054  MPKI: 0.2732
L2C LOAD TRANSLATION DATA	ACCESS:       1737  HIT:        380  MISS:       1357  HIT %:    21.8768  MISS %:    78.1232  MPKI: 0.02714
L2C TRANSLATION FROM L1D PREFETCHER DATA	ACCESS:         20  HIT:         13  MISS:          7  HIT %:         65  MISS %:         35  MPKI: 0.00014

L2C PREFETCH  REQUESTED:      90474  ISSUED:      90474  USEFUL:       7719  USELESS:      68391
L2C USEFUL LOAD PREFETCHES:       7719 PREFETCH ISSUED TO LOWER LEVEL:      76031  ACCURACY: 10.1524
 TIMELY PREFETCHES:       7719 LATE PREFETCHES: 535 DROPPED PREFETCHES: 0
L2C AVERAGE MISS LATENCY: 38.4294 cycles
L2C RQ	ACCESS:    3817709	FORWARD:          0	MERGED:          0	TO_CACHE:    3817621
L2C WQ	ACCESS:     527306	FORWARD:         88	MERGED:          0	TO_CACHE:     527306
L2C PQ	ACCESS:     200403	FORWARD:          0	MERGED:       3821	TO_CACHE:     196582

L2C Dense regions hint from L2: 0
PSCL5 TOTAL     ACCESS:       3860  HIT:       1930  MISS:       1930  HIT %:         50  MISS %:         50   MPKI: 0.0386
PSCL5 LOAD TRANSLATION INSTRUCTION	ACCESS:       3820  HIT:       1910  MISS:       1910  HIT %:         50  MISS %:         50  MPKI: 0.0382
PSCL5 TRANSLATION FROM L1D PREFETCHER INSTRUCTION	ACCESS:         40  HIT:         20  MISS:         20  HIT %:         50  MISS %:         50  MPKI: 0.0004


PSCL4 TOTAL     ACCESS:       3709  HIT:       1852  MISS:       1857  HIT %:    49.9326  MISS %:    50.0674   MPKI: 0.03714
PSCL4 LOAD TRANSLATION INSTRUCTION	ACCESS:       2393  HIT:       1839  MISS:        554  HIT %:    76.8491  MISS %:    23.1509  MPKI: 0.01108
PSCL4 TRANSLATION FROM L1D PREFETCHER INSTRUCTION	ACCESS:         18  HIT:         13  MISS:          5  HIT %:    72.2222  MISS %:    27.7778  MPKI: 0.0001
PSCL4 LOAD TRANSLATION DATA	ACCESS:       1290  HIT:          0  MISS:       1290  HIT %:          0  MISS %:        100  MPKI: 0.0258
PSCL4 TRANSLATION FROM L1D PREFETCHER DATA	ACCESS:          8  HIT:          0  MISS:          8  HIT %:          0  MISS %:        100  MPKI: 0.00016


PSCL3 TOTAL     ACCESS:       3803  HIT:       1899  MISS:       1904  HIT %:    49.9343  MISS %:    50.0657   MPKI: 0.03808
PSCL3 LOAD TRANSLATION INSTRUCTION	ACCESS:       2440  HIT:       1886  MISS:        554  HIT %:    77.2951  MISS %:    22.7049  MPKI: 0.01108
PSCL3 TRANSLATION FROM L1D PREFETCHER INSTRUCTION	ACCESS:         18  HIT:         13  MISS:          5  HIT %:    72.2222  MISS %:    27.7778  MPKI: 0.0001
PSCL3 LOAD TRANSLATION DATA	ACCESS:       1337  HIT:          0  MISS:       1337  HIT %:          0  MISS %:        100  MPKI: 0.02674
PSCL3 TRANSLATION FROM L1D PREFETCHER DATA	ACCESS:          8  HIT:          0  MISS:          8  HIT %:          0  MISS %:        100  MPKI: 0.00016


PSCL2 TOTAL     ACCESS:       3788  HIT:       1858  MISS:       1930  HIT %:    49.0496  MISS %:    50.9504   MPKI: 0.0386
PSCL2 LOAD TRANSLATION INSTRUCTION	ACCESS:       2065  HIT:       1838  MISS:        227  HIT %:    89.0073  MISS %:    10.9927  MPKI: 0.00454
PSCL2 TRANSLATION FROM L1D PREFETCHER INSTRUCTION	ACCESS:         20  HIT:         20  MISS:          0  HIT %:        100  MISS %:          0  MPKI: 0
PSCL2 LOAD TRANSLATION DATA	ACCESS:       1683  HIT:          0  MISS:       1683  HIT %:          0  MISS %:        100  MPKI: 0.03366
PSCL2 TRANSLATION FROM L1D PREFETCHER DATA	ACCESS:         20  HIT:          0  MISS:         20  HIT %:          0  MISS %:        100  MPKI: 0.0004


LLC TOTAL     ACCESS:     509149  HIT:     481899  MISS:      27250  HIT %:    94.6479  MISS %:    5.35207   MPKI: 0.545
LLC LOAD INSTRUCTION	ACCESS:     240285  HIT:     239528  MISS:        757  HIT %:     99.685  MISS %:   0.315043  MPKI: 0.01514
LLC LOAD TRANSLATION INSTRUCTION	ACCESS:        209  HIT:        190  MISS:         19  HIT %:    90.9091  MISS %:    9.09091  MPKI: 0.00038
LLC LOAD DATA	ACCESS:      71904  HIT:      68553  MISS:       3351  HIT %:    95.3396  MISS %:    4.66038  MPKI: 0.06702
LLC RFO DATA	ACCESS:      49818  HIT:      37028  MISS:      12790  HIT %:    74.3265  MISS %:    25.6735  MPKI: 0.2558
LLC PREFETCH DATA	ACCESS:      76031  HIT:      66121  MISS:       9910  HIT %:    86.9658  MISS %:    13.0342  MPKI: 0.1982
LLC WRITEBACK DATA	ACCESS:      69538  HIT:      69189  MISS:        349  HIT %:    99.4981  MISS %:   0.501884  MPKI: 0.00698
LLC LOAD TRANSLATION DATA	ACCESS:       1357  HIT:       1283  MISS:         74  HIT %:    94.5468  MISS %:    5.45321  MPKI: 0.00148
LLC TRANSLATION FROM L1D PREFETCHER DATA	ACCESS:          7  HIT:          7  MISS:          0  HIT %:        100  MISS %:          0  MPKI: 0

LLC AVERAGE MISS LATENCY: 154.032 cycles
LLC RQ	ACCESS:     363585	FORWARD:          0	MERGED:          0	TO_CACHE:     363580
LLC WQ	ACCESS:      69538	FORWARD:          5	MERGED:          0	TO_CACHE:      69538
LLC PQ	ACCESS:      76031	FORWARD:          0	MERGED:          0	TO_CACHE:      76031

LLC Dense regions hint to LLC: 0

RAW hits: 1953938
Loads Generated: 12622763
Loads sent to L1D: 10668825
Stores Generated: 6945471
Stores sent to L1D: 6945468
Major fault: 0 Minor fault: 2477
Allocated PAGES: 2477

stream: 
stream:times selected: 1189627
stream:pref_filled: 126735
stream:pref_useful: 26192
stream:pref_late: 7476
stream:misses: 9253
stream:misses_by_poll: 0

CS: 
CS:times selected: 180735
CS:pref_filled: 64492
CS:pref_useful: 40454
CS:pref_late: 7146
CS:misses: 18738
CS:misses_by_poll: 4

CPLX: 
CPLX:times selected: 1007752
CPLX:pref_filled: 22725
CPLX:pref_useful: 6585
CPLX:pref_late: 3051
CPLX:misses: 107595
CPLX:misses_by_poll: 1

NL_L1: 
NL:times selected: 14728
NL:pref_filled: 888
NL:pref_useful: 292
NL:pref_late: 259
NL:misses: 1324
NL:misses_by_poll: 0

total selections: 2392842
total_filled: 100555
total_useful: 38596
total_late: 19602
total_polluted: 5
total_misses_after_warmup: 791501
conflicts: 5521285

test: 114495

DRAM Statistics
 CHANNEL 0
 RQ ROW_BUFFER_HIT:      10063  ROW_BUFFER_MISS:      16834
 DBUS_CONGESTED:         20
 WQ ROW_BUFFER_HIT:       1223  ROW_BUFFER_MISS:      11022  FULL:          0

 AVG_CONGESTED_CYCLE: 5

CPU 0 Branch Prediction Accuracy: 99.8244% MPKI: 0.3217 Average ROB Occupancy at Mispredict: 190.886
Branch types
NOT_BRANCH: 40838298 81.6766%
BRANCH_DIRECT_JUMP: 546511 1.09302%
BRANCH_INDIRECT: 181659 0.363318%
BRANCH_CONDITIONAL: 6190436 12.3809%
BRANCH_DIRECT_CALL: 949345 1.89869%
BRANCH_INDIRECT_CALL: 172193 0.344386%
BRANCH_RETURN: 1121537 2.24307%
BRANCH_OTHER: 0 0%

DRAM PAGES: 1048576
Allocated PAGES: 2477
Average_ROB_Occupancy: 249.311
Average_Decode_Occupancy: 38.2157
Average_FTQ_Occupancy: 14.8481
Indirect max targets: 14 Average targets: 1.14527
Branch_type:  BRANCH_DIRECT_JUMP:  Count Percentage: 3.59886 5.89908 4.35202 9.75361 2.75148 6.50234 1.64019 65.5024 
Branch_type:  BRANCH_INDIRECT:  Count Percentage: 19.726 3.35594 5.25442 3.80853 3.35594 10.8769 3.25105 50.3712 
Branch_type:  BRANCH_CONDITIONAL:  Count Percentage: 21.4842 6.55547 2.67338 4.89998 2.73745 8.57622 1.08029 51.993 
Branch_type:  BRANCH_DIRECT_CALL:  Count Percentage: 0.795755 1.301 0.982275 4.77922 2.96549 3.0043 0.775505 85.3965 
Branch_type:  BRANCH_INDIRECT_CALL:  Count Percentage: 9.56259 0 3.00024 4.30824 0 3.74726 0.991375 78.3903 
Branch_type:  BRANCH_RETURN:  Count Percentage: 5.13063 4.33377 2.69156 4.07276 5.66942 9.98441 1.4387 66.6787 
Branch_type:  BRANCH_DIRECT_JUMP:  Total Count: 39302 64422 47527 106516 30048 71010 17912 715331 
Branch_type:  BRANCH_INDIRECT:  Total Count: 71652 12190 19086 13834 12190 39509 11809 182967 
Branch_type:  BRANCH_CONDITIONAL:  Total Count: 2658193 811095 330772 606265 338699 1061118 133662 6432995 
Branch_type:  BRANCH_DIRECT_CALL:  Total Count: 15090 24671 18627 90629 56235 56971 14706 1619384 
Branch_type:  BRANCH_INDIRECT_CALL:  Total Count: 32950 0 10338 14845 0 12912 3416 270111 
Branch_type:  BRANCH_RETURN:  Total Count: 115012 97149 60336 91298 127090 223818 32251 1494720 
Number of unique branch instructions: 9804
Upper 32 bits: 
aaaa
ffff
ffff0000
Unique upper 32 bits: 3
Unique upper 36 bits: 3
Unique upper 40 bits: 5
Unique upper 44 bits: 32
Unique upper 48 bits: 154
Variant_0 : 1403 0.342529
Variant_1 : 2509 0.612549
Variant_2 : 0 0
Variant_3 : 0 0
Offset_3 4031
Offset_4 243
Offset_5 449
Offset_6 498
Offset_7 571
Offset_8 507
Offset_9 463
Offset_10 374
Offset_11 301
Offset_12 269
Offset_13 203
Offset_14 227
Offset_15 184
Offset_16 220
Offset_17 145
Offset_18 118
Offset_19 234
Offset_20 136
Offset_21 235
Offset_22 391
Offset_23 241
Offset_24 331
Offset_25 88
Offset_47 82
Offset_64 2
decode_dispatch_called: 26363937 73.4846
Dispatch_width: 0 14221482 53.9429 39.6397
Dispatch_width: 1 1036723 3.93235 2.88967
Dispatch_width: 2 846137 3.20945 2.35845
Dispatch_width: 3 501083 1.90064 1.39668
Dispatch_width: 4 6339853 24.0474 17.6712
Dispatch_width: 5 103610 0.392999 0.288794
Dispatch_width: 6 3315049 12.5742 9.24009
Empty_decode_cycles: 9512885 26.5154
ROB_full_cycles: 9995945 27.8618
Starvation_cycles_per_kilo_instr: 225.658
Starvation_cycles_per_kilo_instr_3: 161.224
Starvation_cycles_per_kilo_instr_0: 137.384
Branch_type_1  (3,1)  (4,9)  (5,37)  (6,68)  (7,112)  (8,128)  (9,122)  (10,97)  (11,67)  (12,43)  (13,5)  (14,2)  (15,3)  (16,4)  (18,1)  (19,4)  (20,2)  (21,1)  (22,3)  (23,2)  (24,10)  (25,12)  (64,1) 
Branch_type_2  (3,1)  (5,1)  (8,3)  (9,3)  (12,1)  (13,1)  (14,1)  (16,3)  (17,2)  (20,2)  (21,2)  (23,5)  (24,1)  (47,38) 
Branch_type_3  (3,4029)  (4,234)  (5,407)  (6,415)  (7,430)  (8,315)  (9,255)  (10,151)  (11,120)  (12,50)  (13,4)  (64,1) 
Branch_type_4  (6,3)  (7,8)  (8,25)  (9,51)  (10,60)  (11,58)  (12,96)  (13,88)  (14,100)  (15,86)  (16,98)  (17,64)  (18,53)  (19,115)  (20,71)  (21,124)  (22,208)  (23,136)  (24,192)  (25,72) 
Branch_type_5  (8,2)  (9,1)  (10,3)  (11,5)  (12,3)  (13,14)  (14,16)  (15,11)  (16,20)  (17,11)  (18,16)  (19,12)  (20,10)  (21,13)  (22,42)  (23,26)  (24,37) 
Branch_type_6  (5,4)  (6,12)  (7,21)  (8,34)  (9,31)  (10,63)  (11,51)  (12,76)  (13,91)  (14,108)  (15,84)  (16,95)  (17,68)  (18,48)  (19,103)  (20,51)  (21,95)  (22,138)  (23,72)  (24,91)  (25,4)  (47,44) 
Unique trigger count: 
Variant_0_evicts_0 : 0
Variant_0_evicts_1 : 0
Variant_0_evicts_2 : 0
Variant_0_evicts_3 : 0
Variant_1_evicts_0 : 0
Variant_1_evicts_1 : 0
Variant_1_evicts_2 : 0
Variant_1_evicts_3 : 0
Variant_2_evicts_0 : 0
Variant_2_evicts_1 : 0
Variant_2_evicts_2 : 0
Variant_2_evicts_3 : 0
Variant_3_evicts_0 : 0
Variant_3_evicts_1 : 0
Variant_3_evicts_2 : 0
Variant_3_evicts_3 : 0
BTB PER SET UNIQUE ADDR: 27 25 24 24 25 24 25 24 24 27 30 29 26 25 23 25 26 23 25 28 26 23 22 21 25 24 26 26 28 23 24 22 26 28 26 22 24 25 25 25 24 26 28 25 27 25 24 26 27 25 25 25 20 25 28 27 23 25 23 28 32 27 21 27 24 24 20 25 25 23 24 25 23 22 23 27 26 25 30 31 27 23 27 24 22 26 21 26 23 24 20 18 24 22 24 23 29 22 26 29 29 24 25 23 27 27 22 21 26 22 21 22 24 23 28 24 26 24 27 25 25 23 26 23 24 25 25 23 22 25 24 25 26 25 24 24 26 25 27 23 27 23 26 24 29 24 26 27 27 26 25 25 24 28 25 27 26 28 27 26 25 28 23 27 24 24 31 25 27 25 24 27 27 22 24 24 25 22 27 26 29 25 24 28 28 24 23 26 23 23 27 23 25 23 22 24 23 27 25 23 23 26 26 26 28 28 22 26 23 24 29 25 22 25 24 28 23 26 24 28 22 28 26 23 28 27 30 23 25 27 27 23 23 25 26 24 24 30 23 24 27 25 22 27 20 25 26 21 20 23 25 25 25 25 24 26 
BTB PER SET COUNT: 29 576 2049 27 27 27 25 1026 24 2055 1775 2137 27 2925 23 64 346 953 27 31 379 24 24 23 955 24 26 1504 1960 1790 2514 24 3508 917 27 22 127 27 32 26 24 26 68 27 33 50 27 26 498 26 511 238 25 27 33 31 24 1098 26 914 1625 1375 951 29 2052 28 953 25 1420 28 24 957 24 24 3832 145 26 1039 3461 2110 2050 490 31 2057 956 28 140 1504 24 14795 21 18 25 25 489 28 33 25 29 29 728 24 2319 23 27 27 4346 21 31 4371 22 32 29 24 1078 24 28 1884 2281 27 25 23 1504 23 1504 27 26 1334 1883 26 24 31 1038 28 1971 28 30 26 30 23 425 23 1867 29 507 30 958 2980 31 495 28 27 25 881 25 28 34 1510 955 28 1503 33 485 149 1592 28 1016 33 4077 25 26 1857 1310 1498 24 7740 31 1450 1396 168 36 25 1503 28 1543 2055 1772 100 25 557 2049 1499 27 1516 24 1509 24 160 31 25 27 1040 38 236 1238 1450 42 26 23 488 437 1515 24 27 24 918 24 1151 1747 835 376 460 1390 1038 28 27 1041 24 26 31 2051 25 24 4457 26 24 25 32 27 953 850 27 23 292 3524 26 956 20698 20 25 954 32 27 27 26 107 
To predecode: 0
Predecoding something: 0
Predecode request dropped: 0
sizeofblock_0 0
sizeofblock_1 47112
sizeofblock_2 98820
sizeofblock_3 0
sizeofblock_4 0
sizeofblock_5 0
sizeofblock_6 0
sizeofblock_7 0
sizeofblock_8 0
Variant_0 Correct: 1619703 Incorrect: 0 Accuracy: 1
Variant_1 Correct: 5745089 Incorrect: 0 Accuracy: 1
Variant_2 Correct: 0 Incorrect: 0 Accuracy: -nan
Variant_3 Correct: 0 Incorrect: 0 Accuracy: -nan
