
*** ChampSim Multicore Out-of-Order Simulator ***

Warmup Instructions: 50000000
Simulation Instructions: 50000000
Number of CPUs: 1
LLC sets: 2048
LLC ways: 16
Off-chip DRAM Size: 4096 MB Channels: 1 Width: 64-bit Data Rate: 6400 MT/s
CPU 0 runs ./micro_traces/srv190.trace.gz
.gz
ITLB has LRU replacement policy
DTLB has LRU replacement policy
STLB has LRU replacement policy
CPU 0 L1I next line prefetcher
L1I has LRU replacement policy
L1D has LRU replacement policy
Initialize SRRIP state for L2C
Initialize DRRIP state for LLC
Heartbeat CPU 0 instructions: 10000000 cycles: 2797748 heartbeat IPC: 3.5743 cumulative IPC: 3.5743 (Simulation time: 0 hr 3 min 0 sec) 
Heartbeat CPU 0 instructions: 20000001 cycles: 5595104 heartbeat IPC: 3.5748 cumulative IPC: 3.57455 (Simulation time: 0 hr 4 min 50 sec) 
Heartbeat CPU 0 instructions: 30000001 cycles: 8391148 heartbeat IPC: 3.57648 cumulative IPC: 3.5752 (Simulation time: 0 hr 6 min 25 sec) 
Heartbeat CPU 0 instructions: 40000000 cycles: 11187068 heartbeat IPC: 3.57664 cumulative IPC: 3.57556 (Simulation time: 0 hr 8 min 4 sec) 
Heartbeat CPU 0 instructions: 50000003 cycles: 13983785 heartbeat IPC: 3.57562 cumulative IPC: 3.57557 (Simulation time: 0 hr 9 min 41 sec) 

Warmup complete CPU 0 instructions: 50000003 cycles: 13983785 (Simulation time: 0 hr 9 min 41 sec) 

Cycle: 20000000 FTQ IN: 56514151 FTQ occupancy: 17.2278 DECODE IN: 56514133 DECODE occupancy: 45.015 ROB IN: 56514073 ROB occupancy: 280.113 ROB OUT: 56513725
Heartbeat CPU 0 instructions: 60000000 cycles: 23112950 heartbeat IPC: 1.09539 cumulative IPC: 1.09539 (Simulation time: 0 hr 11 min 0 sec) 
Cycle: 30000000 FTQ IN: 11090762 FTQ occupancy: 3.74452 DECODE IN: 11090756 DECODE occupancy: 10.07 ROB IN: 11090816 ROB occupancy: 122.325 ROB OUT: 11090947
Heartbeat CPU 0 instructions: 70000001 cycles: 32171316 heartbeat IPC: 1.10395 cumulative IPC: 1.09965 (Simulation time: 0 hr 12 min 16 sec) 
Cycle: 40000000 FTQ IN: 10959845 FTQ occupancy: 3.80821 DECODE IN: 10959854 DECODE occupancy: 10.2176 ROB IN: 10959824 ROB occupancy: 123.248 ROB OUT: 10959906
Heartbeat CPU 0 instructions: 80000000 cycles: 41303231 heartbeat IPC: 1.09506 cumulative IPC: 1.09812 (Simulation time: 0 hr 13 min 31 sec) 
Cycle: 50000000 FTQ IN: 11090518 FTQ occupancy: 3.62217 DECODE IN: 11090533 DECODE occupancy: 9.83207 ROB IN: 11090563 ROB occupancy: 122.084 ROB OUT: 11090685
Heartbeat CPU 0 instructions: 90000002 cycles: 50313977 heartbeat IPC: 1.10979 cumulative IPC: 1.10101 (Simulation time: 0 hr 14 min 46 sec) 
Heartbeat CPU 0 instructions: 100000003 cycles: 59524732 heartbeat IPC: 1.08569 cumulative IPC: 1.09791 (Simulation time: 0 hr 16 min 2 sec) 
Finished CPU 0 instructions: 50000000 cycles: 45540947 cumulative IPC: 1.09791 (Simulation time: 0 hr 16 min 2 sec) 

ChampSim completed all CPUs

Region of Interest Statistics

CPU 0 cumulative IPC: 1.09791 instructions: 50000000 cycles: 45540947
 Fetch stage stalled: 73.4775  Sim cycles: 45540947 fetch stall cycle: 33462350
 Empty decode stage: 58.1433  Sim cycles: 45540947 fetch stall cycle: 26479030
ITLB TOTAL     ACCESS:    7642352  HIT:    7032081  MISS:     610271  HIT %:    92.0146  MISS %:    7.98538   MPKI: 12.2054
ITLB LOAD TRANSLATION INSTRUCTION	ACCESS:    5871366  HIT:    5742472  MISS:     128894  HIT %:    97.8047  MISS %:     2.1953  MPKI: 2.57788
ITLB TRANSLATION FROM L1D PREFETCHER INSTRUCTION	ACCESS:    1770986  HIT:    1289609  MISS:     481377  HIT %:    72.8187  MISS %:    27.1813  MPKI: 9.62754

ITLB AVERAGE MISS LATENCY: 106810 cycles
ITLB RQ	ACCESS:   11564860	FORWARD:          0	MERGED:    3784109	TO_CACHE:    7780751

DTLB TOTAL     ACCESS:    9391648  HIT:    8915032  MISS:     476616  HIT %:    94.9251  MISS %:    5.07489   MPKI: 9.53232
DTLB LOAD TRANSLATION DATA	ACCESS:    9391648  HIT:    8915032  MISS:     476616  HIT %:    94.9251  MISS %:    5.07489  MPKI: 9.53232

DTLB AVERAGE MISS LATENCY: 9.38929 cycles
DTLB RQ	ACCESS:   13668317	FORWARD:          0	MERGED:    4242407	TO_CACHE:    9425910

STLB TOTAL     ACCESS:    1334744  HIT:    1332329  MISS:       2415  HIT %:    99.8191  MISS %:   0.180934   MPKI: 0.0483
STLB LOAD TRANSLATION INSTRUCTION	ACCESS:     127146  HIT:     126989  MISS:        157  HIT %:    99.8765  MISS %:    0.12348  MPKI: 0.00314
STLB TRANSLATION FROM L1D PREFETCHER INSTRUCTION	ACCESS:     483125  HIT:     482996  MISS:        129  HIT %:    99.9733  MISS %:  0.0267012  MPKI: 0.00258
STLB LOAD TRANSLATION DATA	ACCESS:     476616  HIT:     474507  MISS:       2109  HIT %:    99.5575  MISS %:   0.442495  MPKI: 0.04218
STLB TRANSLATION FROM L1D PREFETCHER DATA	ACCESS:     247857  HIT:     247837  MISS:         20  HIT %:    99.9919  MISS %: 0.00806917  MPKI: 0.0004

STLB AVERAGE MISS LATENCY: 75.6758 cycles
STLB RQ	ACCESS:    1460655	FORWARD:          0	MERGED:     122009	TO_CACHE:    1338646

STLB Hit, L1D data hit: 0
STLB Hit, L2C data hit: 0
STLB Hit, LLC data hit: 0
STLB Hit, LLC data miss: 0
STLB STLB hints to L2: 0
L1D TOTAL     ACCESS:   13406471  HIT:   12282056  MISS:    1124415  HIT %:    91.6129  MISS %:    8.38711   MPKI: 22.4883
L1D LOAD DATA	ACCESS:    6847440  HIT:    6106232  MISS:     741208  HIT %:    89.1754  MISS %:    10.8246  MPKI: 14.8242
L1D RFO DATA	ACCESS:    6231121  HIT:    5942728  MISS:     288393  HIT %:    95.3717  MISS %:    4.62827  MPKI: 5.76786
L1D PREFETCH DATA	ACCESS:     327910  HIT:     233096  MISS:      94814  HIT %:    71.0854  MISS %:    28.9146  MPKI: 1.89628

L1D PREFETCH  REQUESTED:     740114  ISSUED:     740114  USEFUL:      35225  USELESS:      68423
L1D USEFUL LOAD PREFETCHES:      35225 PREFETCH ISSUED TO LOWER LEVEL:     103780  ACCURACY: 33.942
 TIMELY PREFETCHES:      35225 LATE PREFETCHES: 8851 DROPPED PREFETCHES: 2
L1D AVERAGE MISS LATENCY: 292677 cycles
L1D RQ	ACCESS:   10925273	FORWARD:          0	MERGED:    3872788	TO_CACHE:    6886099
L1D WQ	ACCESS:    6952185	FORWARD:     166682	MERGED:     169967	TO_CACHE:    6782218
L1D PQ	ACCESS:     370205	FORWARD:          0	MERGED:          0	TO_CACHE:     369909

L1D UNIQUE REGIONS ACCESSED: 0
L1D REGIONS CONFLICTS: 0
L1D Cross Page Prefetch Requests: 6329
L1D Same Page Prefetch Requests: 743823
L1D ROI Sum of L1D PQ occupancy: 4714934
L1D PREFETCHES PUSHED FROM L2C: 0
L1I TOTAL     ACCESS:   11274507  HIT:    7649464  MISS:    3625043  HIT %:    67.8474  MISS %:    32.1526   MPKI: 72.5009
L1I LOAD INSTRUCTION	ACCESS:    6684910  HIT:    6180026  MISS:     504884  HIT %:    92.4474  MISS %:    7.55259  MPKI: 10.0977
L1I PREFETCH INSTRUCTION	ACCESS:    4589597  HIT:    1469438  MISS:    3120159  HIT %:    32.0167  MISS %:    67.9833  MPKI: 62.4032

L1I PREFETCH  REQUESTED:    5144024  ISSUED:    5143993  USEFUL:    2395979  USELESS:     767988
L1I USEFUL LOAD PREFETCHES:    2395979 PREFETCH ISSUED TO LOWER LEVEL:    3163972  ACCURACY: 75.7269
 TIMELY PREFETCHES:    2395979 LATE PREFETCHES: 43815 DROPPED PREFETCHES: 10365
L1I AVERAGE MISS LATENCY: 440629 cycles
L1I RQ	ACCESS:    9427508	FORWARD:          0	MERGED:    2721674	TO_CACHE:    6705834
L1I PQ	ACCESS:    5143993	FORWARD:          0	MERGED:     284967	TO_CACHE:    4859026

L1BTB TOTAL     ACCESS:    5670009  HIT:    2036714  MISS:    3633295  HIT %:    35.9208  MISS %:    64.0792   MPKI: 72.6659
L1BTB BRANCH_DIRECT_JUMP	ACCESS:     547831  HIT:     143957  MISS:     403874	AVERAGE STALL: 19.6769
L1BTB BRANCH_INDIRECT	ACCESS:     182851  HIT:      65934  MISS:     116917	AVERAGE STALL: 78.1381
L1BTB BRANCH_CONDITIONAL	ACCESS:    2706825  HIT:    1412596  MISS:    1294229	AVERAGE STALL: 19.4782
L1BTB BRANCH_DIRECT_CALL	ACCESS:     944853  HIT:     104595  MISS:     840258	AVERAGE STALL: 20.4218
L1BTB BRANCH_INDIRECT_CALL	ACCESS:     171393  HIT:      20818  MISS:     150575	AVERAGE STALL: 102.617
L1BTB BRANCH_RETURN	ACCESS:    1116256  HIT:     288814  MISS:     827442	AVERAGE STALL: 21.7643
L1BTB BRANCH_OTHER ACCESS:          0  HIT:          0  MISS:          0	AVERAGE STALL: -nan
L1BTB TOTAL ROB OCCUPANCY AT BTB MISS: 29.4445

L2BTB TOTAL     ACCESS:    3607930  HIT:    2574437  MISS:    1033493  HIT %:     71.355  MISS %:     28.645   MPKI: 20.6699
L2BTB BRANCH_DIRECT_JUMP	ACCESS:     399732  HIT:     283030  MISS:     116702	AVERAGE STALL: 19.6769
L2BTB BRANCH_INDIRECT	ACCESS:     106619  HIT:      93398  MISS:      13221	AVERAGE STALL: 78.1381
L2BTB BRANCH_CONDITIONAL	ACCESS:    1294228  HIT:     922089  MISS:     372139	AVERAGE STALL: 19.4782
L2BTB BRANCH_DIRECT_CALL	ACCESS:     840258  HIT:     572915  MISS:     267343	AVERAGE STALL: 20.4218
L2BTB BRANCH_INDIRECT_CALL	ACCESS:     141064  HIT:      92655  MISS:      48409	AVERAGE STALL: 102.617
L2BTB BRANCH_RETURN	ACCESS:     826029  HIT:     610350  MISS:     215679	AVERAGE STALL: 21.7643
L2BTB BRANCH_OTHER ACCESS:          0  HIT:          0  MISS:          0	AVERAGE STALL: -nan
L2BTB TOTAL ROB OCCUPANCY AT BTB MISS: 103.514

L2C TOTAL     ACCESS:    6616854  HIT:    5583635  MISS:    1033219  HIT %:     84.385  MISS %:     15.615   MPKI: 20.6644
L2C LOAD INSTRUCTION	ACCESS:     461070  HIT:     377290  MISS:      83780  HIT %:    81.8292  MISS %:    18.1708  MPKI: 1.6756
L2C PREFETCH INSTRUCTION	ACCESS:    3163971  HIT:    2769306  MISS:     394665  HIT %:    87.5263  MISS %:    12.4737  MPKI: 7.8933
L2C LOAD TRANSLATION INSTRUCTION	ACCESS:        179  HIT:         60  MISS:        119  HIT %:    33.5196  MISS %:    66.4804  MPKI: 0.00238
L2C TRANSLATION FROM L1D PREFETCHER INSTRUCTION	ACCESS:       5172  HIT:       4896  MISS:        276  HIT %:    94.6636  MISS %:    5.33643  MPKI: 0.00552
L2C LOAD DATA	ACCESS:     732327  HIT:     591729  MISS:     140598  HIT %:    80.8012  MISS %:    19.1988  MPKI: 2.81196
L2C RFO DATA	ACCESS:     288247  HIT:     190847  MISS:      97400  HIT %:    66.2095  MISS %:    33.7905  MPKI: 1.948
L2C PREFETCH DATA	ACCESS:    1438603  HIT:    1168847  MISS:     269756  HIT %:    81.2488  MISS %:    18.7512  MPKI: 5.39512
L2C WRITEBACK DATA	ACCESS:     525058  HIT:     480098  MISS:      44960  HIT %:    91.4371  MISS %:    8.56286  MPKI: 0.8992
L2C LOAD TRANSLATION DATA	ACCESS:       2191  HIT:        541  MISS:       1650  HIT %:    24.6919  MISS %:    75.3081  MPKI: 0.033
L2C TRANSLATION FROM L1D PREFETCHER DATA	ACCESS:         36  HIT:         21  MISS:         15  HIT %:    58.3333  MISS %:    41.6667  MPKI: 0.0003

L2C PREFETCH  REQUESTED:    3276584  ISSUED:    3276584  USEFUL:      34073  USELESS:     632342
L2C USEFUL LOAD PREFETCHES:      34073 PREFETCH ISSUED TO LOWER LEVEL:     665721  ACCURACY: 5.11821
 TIMELY PREFETCHES:      34073 LATE PREFETCHES: 1299 DROPPED PREFETCHES: 0
L2C AVERAGE MISS LATENCY: 33.7407 cycles
L2C RQ	ACCESS:    1489283	FORWARD:          0	MERGED:          0	TO_CACHE:    1489222
L2C WQ	ACCESS:     525058	FORWARD:         61	MERGED:          0	TO_CACHE:     525058
L2C PQ	ACCESS:    6544336	FORWARD:          0	MERGED:    1923620	TO_CACHE:    4620716

L2C Dense regions hint from L2: 0
PSCL5 TOTAL     ACCESS:      12556  HIT:       6278  MISS:       6278  HIT %:         50  MISS %:         50   MPKI: 0.12556
PSCL5 LOAD TRANSLATION INSTRUCTION	ACCESS:       4508  HIT:       2254  MISS:       2254  HIT %:         50  MISS %:         50  MPKI: 0.04508
PSCL5 TRANSLATION FROM L1D PREFETCHER INSTRUCTION	ACCESS:       8048  HIT:       4024  MISS:       4024  HIT %:         50  MISS %:         50  MPKI: 0.08048


PSCL4 TOTAL     ACCESS:      12363  HIT:       6177  MISS:       6186  HIT %:    49.9636  MISS %:    50.0364   MPKI: 0.12372
PSCL4 LOAD TRANSLATION INSTRUCTION	ACCESS:       3181  HIT:       2176  MISS:       1005  HIT %:    68.4062  MISS %:    31.5938  MPKI: 0.0201
PSCL4 TRANSLATION FROM L1D PREFETCHER INSTRUCTION	ACCESS:       6196  HIT:       4001  MISS:       2195  HIT %:    64.5739  MISS %:    35.4261  MPKI: 0.0439
PSCL4 LOAD TRANSLATION DATA	ACCESS:       1180  HIT:          0  MISS:       1180  HIT %:          0  MISS %:        100  MPKI: 0.0236
PSCL4 TRANSLATION FROM L1D PREFETCHER DATA	ACCESS:       1806  HIT:          0  MISS:       1806  HIT %:          0  MISS %:        100  MPKI: 0.03612


PSCL3 TOTAL     ACCESS:      12375  HIT:       6183  MISS:       6192  HIT %:    49.9636  MISS %:    50.0364   MPKI: 0.12384
PSCL3 LOAD TRANSLATION INSTRUCTION	ACCESS:       3187  HIT:       2182  MISS:       1005  HIT %:    68.4656  MISS %:    31.5344  MPKI: 0.0201
PSCL3 TRANSLATION FROM L1D PREFETCHER INSTRUCTION	ACCESS:       6196  HIT:       4001  MISS:       2195  HIT %:    64.5739  MISS %:    35.4261  MPKI: 0.0439
PSCL3 LOAD TRANSLATION DATA	ACCESS:       1186  HIT:          0  MISS:       1186  HIT %:          0  MISS %:        100  MPKI: 0.02372
PSCL3 TRANSLATION FROM L1D PREFETCHER DATA	ACCESS:       1806  HIT:          0  MISS:       1806  HIT %:          0  MISS %:        100  MPKI: 0.03612


PSCL2 TOTAL     ACCESS:      10108  HIT:       4997  MISS:       5111  HIT %:    49.4361  MISS %:    50.5639   MPKI: 0.10222
PSCL2 LOAD TRANSLATION INSTRUCTION	ACCESS:       2326  HIT:       2155  MISS:        171  HIT %:    92.6483  MISS %:    7.35168  MPKI: 0.00342
PSCL2 TRANSLATION FROM L1D PREFETCHER INSTRUCTION	ACCESS:       5647  HIT:       2842  MISS:       2805  HIT %:    50.3276  MISS %:    49.6724  MPKI: 0.0561
PSCL2 LOAD TRANSLATION DATA	ACCESS:       2098  HIT:          0  MISS:       2098  HIT %:          0  MISS %:        100  MPKI: 0.04196
PSCL2 TRANSLATION FROM L1D PREFETCHER DATA	ACCESS:         37  HIT:          0  MISS:         37  HIT %:          0  MISS %:        100  MPKI: 0.00074


LLC TOTAL     ACCESS:    1132627  HIT:    1100912  MISS:      31715  HIT %:    97.1999  MISS %:    2.80013   MPKI: 0.6343
LLC LOAD INSTRUCTION	ACCESS:      83328  HIT:      83083  MISS:        245  HIT %:     99.706  MISS %:   0.294019  MPKI: 0.0049
LLC PREFETCH INSTRUCTION	ACCESS:     392897  HIT:     392210  MISS:        687  HIT %:    99.8251  MISS %:   0.174855  MPKI: 0.01374
LLC LOAD TRANSLATION INSTRUCTION	ACCESS:        119  HIT:         87  MISS:         32  HIT %:    73.1092  MISS %:    26.8908  MPKI: 0.00064
LLC TRANSLATION FROM L1D PREFETCHER INSTRUCTION	ACCESS:        276  HIT:        265  MISS:         11  HIT %:    96.0145  MISS %:    3.98551  MPKI: 0.00022
LLC LOAD DATA	ACCESS:     139857  HIT:     136122  MISS:       3735  HIT %:    97.3294  MISS %:    2.67058  MPKI: 0.0747
LLC RFO DATA	ACCESS:      97275  HIT:      81732  MISS:      15543  HIT %:    84.0216  MISS %:    15.9784  MPKI: 0.31086
LLC PREFETCH DATA	ACCESS:     272822  HIT:     261862  MISS:      10960  HIT %:    95.9827  MISS %:    4.01727  MPKI: 0.2192
LLC WRITEBACK DATA	ACCESS:     144388  HIT:     144025  MISS:        363  HIT %:    99.7486  MISS %:   0.251406  MPKI: 0.00726
LLC LOAD TRANSLATION DATA	ACCESS:       1650  HIT:       1512  MISS:        138  HIT %:    91.6364  MISS %:    8.36364  MPKI: 0.00276
LLC TRANSLATION FROM L1D PREFETCHER DATA	ACCESS:         15  HIT:         14  MISS:          1  HIT %:    93.3333  MISS %:    6.66667  MPKI: 2e-05

LLC AVERAGE MISS LATENCY: 163.113 cycles
LLC RQ	ACCESS:     322539	FORWARD:          0	MERGED:          0	TO_CACHE:     322520
LLC WQ	ACCESS:     144388	FORWARD:         20	MERGED:          0	TO_CACHE:     144388
LLC PQ	ACCESS:     665721	FORWARD:          0	MERGED:          0	TO_CACHE:     665720

LLC Dense regions hint to LLC: 0

RAW hits: 1714395
Loads Generated: 12639668
Loads sent to L1D: 10925273
Stores Generated: 6952157
Stores sent to L1D: 6952185
Major fault: 0 Minor fault: 2538
Allocated PAGES: 2538
I-Shadow cache 408 bytes
Touched + WorthPF tables 12288 bytes 
MMA filter 174 bytes 
FNL filter 272 bytes 
TOTAL PREFETCHER STORAGE SIZE: 31318 bytes
CPU 0 L1I next line prefetcher final stats

stream: 
stream:times selected: 1175442
stream:pref_filled: 119367
stream:pref_useful: 22438
stream:pref_late: 7854
stream:misses: 8211
stream:misses_by_poll: 0

CS: 
CS:times selected: 175578
CS:pref_filled: 54724
CS:pref_useful: 31365
CS:pref_late: 13509
CS:misses: 23138
CS:misses_by_poll: 6

CPLX: 
CPLX:times selected: 998682
CPLX:pref_filled: 19465
CPLX:pref_useful: 4153
CPLX:pref_late: 3360
CPLX:misses: 96501
CPLX:misses_by_poll: 0

NL_L1: 
NL:times selected: 18311
NL:pref_filled: 605
NL:pref_useful: 219
NL:pref_late: 424
NL:misses: 1582
NL:misses_by_poll: 0

total selections: 2368013
total_filled: 94814
total_useful: 35225
total_late: 26597
total_polluted: 6
total_misses_after_warmup: 779868
conflicts: 5679768

test: 118088

DRAM Statistics
 CHANNEL 0
 RQ ROW_BUFFER_HIT:      11389  ROW_BUFFER_MISS:      19961
 DBUS_CONGESTED:          8
 WQ ROW_BUFFER_HIT:       1629  ROW_BUFFER_MISS:      13248  FULL:          0

 AVG_CONGESTED_CYCLE: 4

CPU 0 Branch Prediction Accuracy: 99.8212% MPKI: 0.327 Average ROB Occupancy at Mispredict: 130.151
Branch types
NOT_BRANCH: 40856083 81.7122%
BRANCH_DIRECT_JUMP: 547831 1.09566%
BRANCH_INDIRECT: 182851 0.365702%
BRANCH_CONDITIONAL: 6180765 12.3615%
BRANCH_DIRECT_CALL: 944853 1.88971%
BRANCH_INDIRECT_CALL: 171393 0.342786%
BRANCH_RETURN: 1116256 2.23251%
BRANCH_OTHER: 0 0%

DRAM PAGES: 1048576
Allocated PAGES: 2538
Average_ROB_Occupancy: 122.833
Average_Decode_Occupancy: 10.06
Average_FTQ_Occupancy: 3.75895
Indirect max targets: 14 Average targets: 1.14576
Branch_type:  BRANCH_DIRECT_JUMP:  Count Percentage: 2.87004 7.21669 3.61616 8.3133 2.73488 5.40222 1.0276 68.8191 
Branch_type:  BRANCH_INDIRECT:  Count Percentage: 11.7585 3.44223 2.47267 0 2.52912 9.67447 19.1829 50.9401 
Branch_type:  BRANCH_CONDITIONAL:  Count Percentage: 20.9019 3.09402 1.68594 8.8032 1.34668 4.71807 1.8845 57.5657 
Branch_type:  BRANCH_DIRECT_CALL:  Count Percentage: 0.786469 1.29482 1.40505 4.53314 2.66397 2.34357 0.945272 86.0277 
Branch_type:  BRANCH_INDIRECT_CALL:  Count Percentage: 9.58462 0.551723 3.00467 4.84568 0.00029084 1.71683 1.2733 79.0229 
Branch_type:  BRANCH_RETURN:  Count Percentage: 4.04398 0.698198 1.24341 8.94753 2.74138 6.24354 3.07554 73.0064 
Branch_type:  BRANCH_DIRECT_JUMP:  Total Count: 31404 78965 39568 90964 29925 59111 11244 753018 
Branch_type:  BRANCH_INDIRECT:  Total Count: 42908 12561 9023 0 9229 35303 70000 185885 
Branch_type:  BRANCH_CONDITIONAL:  Total Count: 2582132 382221 208274 1087508 166363 582849 232803 7111405 
Branch_type:  BRANCH_DIRECT_CALL:  Total Count: 14897 24526 26614 85865 50460 44391 17905 1629505 
Branch_type:  BRANCH_INDIRECT_CALL:  Total Count: 32955 1897 10331 16661 1 5903 4378 271706 
Branch_type:  BRANCH_RETURN:  Total Count: 90535 15631 27837 200314 61373 139778 68854 1634440 
Number of unique branch instructions: 9737
Upper 32 bits: 
aaaa
ffff
ffff0000
Unique upper 32 bits: 3
Unique upper 36 bits: 3
Unique upper 40 bits: 5
Unique upper 44 bits: 32
Unique upper 48 bits: 154
Offset_3 4020
Offset_4 242
Offset_5 447
Offset_6 501
Offset_7 574
Offset_8 499
Offset_9 462
Offset_10 375
Offset_11 304
Offset_12 266
Offset_13 198
Offset_14 223
Offset_15 185
Offset_16 219
Offset_17 145
Offset_18 120
Offset_19 235
Offset_20 133
Offset_21 235
Offset_22 391
Offset_23 241
Offset_24 325
Offset_25 88
Offset_47 80
Offset_64 6
decode_dispatch_called: 20866712 45.8197
Dispatch_width: 0 10160270 48.6913 22.3102
Dispatch_width: 1 700942 3.35914 1.53915
Dispatch_width: 2 991023 4.7493 2.17611
Dispatch_width: 3 692041 3.31648 1.5196
Dispatch_width: 4 2088410 10.0083 4.58579
Dispatch_width: 5 516907 2.47718 1.13504
Dispatch_width: 6 5717119 27.3983 12.5538
Empty_decode_cycles: 24674235 54.1803
ROB_full_cycles: 2476300 5.43752
Starvation_cycles_per_kilo_instr: 373.475
Starvation_cycles_per_kilo_instr_3: 347.422
Starvation_cycles_per_kilo_instr_0: 323.582
Branch_type_1  (3,1)  (4,7)  (5,36)  (6,71)  (7,115)  (8,126)  (9,125)  (10,98)  (11,69)  (12,43)  (13,8)  (14,2)  (15,3)  (16,4)  (18,1)  (19,4)  (20,2)  (21,1)  (22,3)  (23,2)  (24,10)  (25,12) 
Branch_type_2  (3,1)  (5,1)  (8,3)  (9,3)  (12,1)  (13,1)  (14,1)  (16,3)  (17,2)  (20,2)  (21,2)  (23,5)  (24,1)  (47,36) 
Branch_type_3  (3,4018)  (4,235)  (5,406)  (6,415)  (7,430)  (8,311)  (9,253)  (10,153)  (11,124)  (12,51)  (13,7)  (64,5) 
Branch_type_4  (6,3)  (7,8)  (8,24)  (9,50)  (10,59)  (11,56)  (12,93)  (13,82)  (14,98)  (15,87)  (16,98)  (17,63)  (18,54)  (19,115)  (20,70)  (21,124)  (22,207)  (23,136)  (24,186)  (25,72) 
Branch_type_5  (8,2)  (9,1)  (10,3)  (11,5)  (12,3)  (13,14)  (14,16)  (15,11)  (16,20)  (17,13)  (18,16)  (19,12)  (20,10)  (21,13)  (22,42)  (23,26)  (24,36) 
Branch_type_6  (5,4)  (6,12)  (7,21)  (8,33)  (9,30)  (10,62)  (11,50)  (12,75)  (13,86)  (14,106)  (15,84)  (16,94)  (17,67)  (18,49)  (19,104)  (20,49)  (21,95)  (22,139)  (23,72)  (24,92)  (25,4)  (47,44)  (64,1) 
Unique trigger count: 
BTB PER SET UNIQUE ADDR: 23 26 22 27 25 27 17 25 14 26 19 27 25 19 22 17 21 21 22 26 22 19 23 25 19 23 25 24 25 21 22 23 27 14 17 23 23 27 15 18 21 22 24 29 19 15 26 17 25 23 29 20 24 27 20 11 20 18 18 25 23 32 24 22 23 26 24 17 31 24 22 21 28 19 17 15 15 24 19 30 26 15 21 29 27 22 25 22 17 40 19 14 25 19 13 27 19 20 28 29 34 31 24 19 23 19 22 24 14 18 20 32 23 19 21 13 25 25 23 22 25 17 20 15 23 21 12 24 32 19 18 28 21 29 20 29 15 29 21 33 20 29 21 22 24 23 27 20 16 22 23 26 16 22 17 30 26 27 25 25 26 22 28 27 21 23 25 17 28 19 21 27 24 23 24 21 22 22 20 26 18 22 21 29 34 29 16 23 27 20 23 17 16 30 25 16 17 23 22 24 27 26 19 20 17 21 23 22 21 25 21 25 20 23 24 22 20 27 18 38 15 27 17 21 19 27 29 26 17 31 21 11 22 28 18 28 28 20 21 18 23 23 29 28 22 19 23 20 24 24 27 28 25 17 27 27 20 18 18 20 25 18 11 21 22 15 20 18 20 21 19 24 17 14 16 17 25 28 22 22 16 25 18 18 27 18 18 33 31 25 24 16 26 27 18 29 24 25 27 22 21 21 20 36 24 29 26 22 32 24 22 29 21 35 28 13 30 21 22 28 21 28 17 22 25 28 24 17 21 17 22 30 18 21 23 25 19 18 17 37 24 24 16 25 25 27 19 22 22 22 24 23 27 22 22 26 24 27 18 17 18 29 21 31 23 27 12 23 25 22 23 17 24 24 17 29 23 28 20 24 24 22 17 16 19 22 29 29 26 24 29 14 26 29 17 17 20 20 30 22 20 24 24 23 28 26 28 27 23 23 26 19 18 28 21 20 21 31 36 32 20 27 24 25 30 18 26 18 26 21 28 22 19 23 29 29 26 20 21 24 26 19 18 29 34 19 15 26 29 24 27 36 23 18 27 32 26 28 17 30 18 22 18 27 33 20 23 23 28 26 24 27 27 23 23 34 25 33 18 24 33 26 20 25 17 25 36 32 27 22 20 26 19 17 18 21 26 26 20 26 19 29 19 34 21 19 18 31 29 27 23 32 24 22 21 28 22 31 18 18 16 22 25 16 25 32 34 15 14 32 27 27 25 24 26 32 20 26 27 24 28 19 25 25 27 30 13 26 16 23 23 32 25 23 20 25 23 25 30 25 20 34 22 22 24 31 21 28 24 28 28 25 31 36 22 28 29 30 22 23 25 26 15 26 24 25 21 23 34 28 21 23 23 17 25 19 14 23 25 21 23 22 22 14 23 26 32 22 21 24 32 26 22 17 10 31 17 29 20 25 29 25 19 19 20 32 22 28 18 24 21 30 32 24 24 23 25 27 24 27 22 27 27 31 27 26 22 24 35 18 17 24 19 19 30 24 23 23 25 23 23 13 27 31 21 26 18 22 19 20 26 21 18 27 32 21 27 27 27 29 22 30 21 29 26 22 22 23 26 28 22 25 23 16 15 22 17 25 19 25 14 27 26 32 15 28 23 17 18 15 21 24 17 22 19 20 33 25 20 29 26 25 21 21 20 23 26 23 21 20 25 20 22 19 23 25 24 30 37 21 21 20 21 25 32 28 22 24 23 18 24 20 25 23 16 24 33 23 20 18 24 15 14 24 23 28 17 26 22 27 24 29 20 18 25 19 30 20 23 27 16 25 22 21 24 23 19 25 21 14 16 14 27 25 22 31 20 19 25 23 33 25 32 27 34 20 25 23 24 20 21 36 30 29 19 27 34 30 13 28 25 30 16 26 27 22 19 25 24 27 23 30 26 22 18 27 25 24 26 23 27 22 22 24 26 26 20 35 20 28 26 20 18 21 30 30 31 27 26 27 25 26 19 27 29 17 23 17 30 20 18 29 27 21 23 12 22 21 19 23 28 16 20 29 25 25 29 21 24 21 24 17 21 21 20 27 30 22 19 18 23 22 21 25 13 29 20 27 23 32 19 23 22 25 25 26 36 22 23 26 24 25 19 27 21 19 13 29 17 17 31 31 27 22 22 31 22 21 25 26 17 30 24 23 22 25 23 27 23 24 23 23 18 24 21 26 25 22 27 25 25 24 21 33 31 24 27 24 19 27 23 28 29 22 27 19 34 30 30 33 19 29 25 24 22 32 37 19 27 22 28 26 25 22 23 19 22 23 27 22 31 28 21 21 29 27 18 32 20 27 27 26 25 17 17 21 13 19 9 14 20 28 22 15 
BTB PER SET COUNT: 2168 2324 2767 2126 2787 2068 1871 1819 1571 2181 1247 2675 11630 1794 1870 1117 2111 2198 1720 2184 1749 1631 2263 2206 1193 1921 2112 2042 2239 1811 1935 2505 2011 865 1210 2023 1895 2338 1077 2513 1572 1646 2444 2314 1872 669 2201 1477 2142 1809 2319 1389 2028 2076 1692 886 1651 1459 1460 2026 1760 3184 2015 1973 2491 2217 1702 1534 2266 1845 2611 2043 2534 1459 1182 823 856 2179 1594 2669 2596 1042 1928 2588 2102 1960 2202 2220 1780 3904 1546 1358 2235 1931 890 2015 1532 1609 2282 4144 3695 2662 2169 1771 3633 1360 1659 2332 1651 3165 1974 2885 2362 1651 1713 1191 2188 2460 2513 2064 2357 1414 1654 1108 1795 1562 703 2690 3332 1796 1373 3050 1474 2504 1668 2265 1467 2187 1627 2894 1670 2248 1786 1802 1987 1813 2639 1346 1052 1817 1754 2048 1472 1667 932 2882 2611 2179 2271 2471 2034 1880 2588 2198 1668 2096 1930 1544 2333 1509 1571 2307 1931 1776 2053 1920 1837 1572 1714 2496 1456 1948 1786 2151 2783 3107 1009 1972 2388 2258 1807 1357 1106 2573 2072 1280 1335 1803 1692 1604 2094 2080 1883 1539 1072 1971 1780 1853 1859 2368 1469 2128 1371 3524 2010 2233 1616 2354 1656 3426 1108 2012 1374 1749 1677 2171 2807 2150 1373 3262 1580 562 1651 2282 1365 6343 2398 1719 2191 1124 1896 1993 2902 2744 1733 2064 1355 1864 2056 1592 2015 2104 1991 1584 2151 2580 1571 1360 1529 1809 2200 1540 350 1749 2102 817 1703 1419 2151 1809 1542 1851 1149 924 1566 1284 2013 2369 1952 1910 958 2237 1507 1749 2129 1554 1272 2962 3066 2374 2047 1111 1824 2472 1084 2749 2255 2016 1818 2094 1581 1478 1899 2890 1954 2807 1910 1791 2889 2281 2525 2148 1326 3115 2918 1386 2518 1753 1699 2756 1470 3188 1104 1678 2801 2480 2285 1332 1576 1036 1795 2830 1209 1404 1986 1762 1328 1727 1106 3564 2016 2917 1185 2090 2537 1904 1446 1687 1824 1919 2219 1798 2339 1825 1639 2508 2035 2630 1613 1225 1374 2788 1576 2751 1837 3076 692 1654 1780 1630 2115 1315 2250 2320 1156 2666 1847 2394 1745 2422 2331 2079 1588 1009 1186 1664 2955 2390 2051 2197 2137 901 2219 2320 1308 1276 1434 1418 2762 2157 1643 2109 2123 1564 2232 2262 2130 2256 1346 2154 2046 1389 1371 2683 1626 1902 1818 5037 3289 2563 1427 2173 2320 1822 2480 1776 2678 1435 1716 1978 2717 2021 1335 1595 2620 2274 1806 1597 1745 1891 2750 1386 1204 2768 2977 1823 1422 1987 2303 1902 2407 3845 1784 1566 2631 3195 1907 2467 1324 2163 1312 1798 1507 2376 2775 1881 7646 1924 2550 2124 2026 1944 2110 1727 1951 2963 1921 3277 1273 1883 2645 2380 1671 2267 1532 1816 3343 2533 2541 1834 1695 2207 4027 1139 1031 1715 2826 2651 1570 2126 1497 2863 1495 3233 1462 1244 1219 2849 2702 1930 1793 3184 2607 2405 1489 2618 1438 2817 1258 1303 883 1958 2129 1225 1788 2918 3196 2051 1087 4153 2994 2080 2014 1960 2441 2503 2343 2472 2078 1872 2327 1746 2368 1964 2202 2775 967 2150 1236 2244 1729 2779 2083 2131 1490 1412 1810 1855 2305 2227 1316 2921 1598 1908 2246 2705 1768 2184 1763 2505 2697 2151 3139 2905 1929 2632 2817 2575 1640 1945 2410 2161 993 3120 2170 2354 1894 2051 3003 2680 2087 1751 2191 1021 1796 1305 1747 2309 1875 1404 1316 1883 1806 987 1846 2104 2683 2062 1375 1693 2854 2497 2210 1124 739 2535 1067 2263 2112 2361 2786 1803 1063 1488 1546 2782 1669 2711 2163 1924 1715 3122 3068 1744 1902 1725 2233 2568 1604 2367 2107 2100 2572 2600 2981 2329 1415 2483 3716 1167 1145 2161 1216 1756 3333 1917 1559 1748 2345 2014 2087 707 2397 2726 6699 2471 1388 1981 2126 1792 1702 1737 1445 2229 2959 2048 2066 2686 2244 2878 1979 2590 1835 2360 2847 2002 1867 1953 2188 2520 1620 2494 2143 860 1466 1801 1743 2395 1634 1959 1277 2324 2477 2847 853 2296 1874 1399 1176 1118 1930 2162 1262 1918 1648 1509 3250 2161 1533 2727 2281 2336 1545 1868 1705 1713 1686 2275 1724 2174 2196 5000 1612 1792 1749 2056 2227 3039 3861 1677 1780 1417 1829 2233 3132 2753 2195 1809 1911 1639 2605 1434 2498 1995 1289 1857 2550 2181 1748 1134 2258 1037 771 1747 2776 2802 1196 2021 1237 2106 1795 2371 1647 1405 2049 1375 2333 1824 1519 2636 1866 2304 1980 1740 2013 1861 1299 2197 1573 1044 1236 1521 2173 2417 1690 2828 1769 1313 1740 2083 3168 1802 2533 2412 2854 1685 1851 1882 1742 1583 1404 5280 2682 2408 1758 2913 2697 2927 1074 2760 1906 2699 1210 2417 2779 1996 1542 1952 2166 2806 2055 3027 2162 2052 1228 2868 1828 1937 2311 1837 2293 2147 1996 1984 2209 2220 1640 3290 1485 5560 2585 1968 1515 1701 2579 2554 2897 2362 2664 2092 2577 2004 1791 1963 2798 1154 1865 977 2805 1507 1685 2755 2232 1614 1890 887 1642 1849 2602 1997 2207 878 1524 2817 2183 2250 2375 1941 1934 1984 2239 1078 3004 2432 1483 2534 2831 1608 1579 1597 2068 1670 1917 2286 798 2350 1530 2574 1749 2688 1707 1871 1945 2250 2415 2388 3500 2017 2017 1994 2016 2022 1290 2506 1324 1453 717 2668 1233 1195 2215 2689 3065 1510 1712 3101 2003 1566 2389 2364 1310 3158 2028 1567 1970 2011 1803 2414 2147 2278 2193 2339 1848 3588 1648 2133 2287 1611 2023 2274 1999 2206 1723 2613 2498 1419 2751 2126 1412 2078 2034 2801 2409 1724 2591 1487 3379 2257 2774 3214 1874 2240 2348 2143 1464 3216 4222 1346 2391 2068 2217 2684 1923 1803 2380 1800 1423 3229 2269 2210 2600 3071 1763 1744 2383 2125 1501 3054 1614 2376 2440 2419 2294 1275 1407 1796 994 1704 554 1202 1506 2928 2025 1078 
