
*** ChampSim Multicore Out-of-Order Simulator ***

Warmup Instructions: 50000000
Simulation Instructions: 50000000
Number of CPUs: 1
LLC sets: 2048
LLC ways: 16
Off-chip DRAM Size: 4096 MB Channels: 1 Width: 64-bit Data Rate: 6400 MT/s
CPU 0 runs ./micro_traces/srv19.trace.gz
.gz
ITLB has LRU replacement policy
DTLB has LRU replacement policy
STLB has LRU replacement policy
FDIP Prefetcher at L1I
L1I has LRU replacement policy
L1D has LRU replacement policy
Initialize SRRIP state for L2C
Initialize DRRIP state for LLC
Heartbeat_Variant_0 : 1373 0.22347 per_variant_size: 0 1373 0 0 0 0 0 0 0 
Heartbeat_Variant_1 : 2830 0.460612 per_variant_size: 0 975 1855 0 0 0 0 0 0 
Heartbeat_Variant_2 : 0 0 per_variant_size: 0 0 0 0 0 0 0 0 0 
Heartbeat_Variant_3 : 0 0 per_variant_size: 0 0 0 0 0 0 0 0 0 
Heartbeat_Variant_0_evicts 0 : 5567 1 : 38 2 : 0 3 : 0 
Heartbeat_Variant_1_evicts 0 : 32 1 : 0 2 : 0 3 : 0 
Heartbeat_Variant_2_evicts 0 : 0 1 : 0 2 : 0 3 : 0 
Heartbeat_Variant_3_evicts 0 : 0 1 : 0 2 : 0 3 : 0 
Heartbeat CPU 0 instructions: 10000003 cycles: 2796879 heartbeat IPC: 3.57541 cumulative IPC: 3.57541 (Simulation time: 0 hr 1 min 37 sec) 
Heartbeat_Variant_0 : 1376 0.223958 per_variant_size: 0 1376 0 0 0 0 0 0 0 
Heartbeat_Variant_1 : 2859 0.465332 per_variant_size: 0 973 1886 0 0 0 0 0 0 
Heartbeat_Variant_2 : 0 0 per_variant_size: 0 0 0 0 0 0 0 0 0 
Heartbeat_Variant_3 : 0 0 per_variant_size: 0 0 0 0 0 0 0 0 0 
Heartbeat_Variant_0_evicts 0 : 5610 1 : 2 2 : 0 3 : 0 
Heartbeat_Variant_1_evicts 0 : 3 1 : 0 2 : 0 3 : 0 
Heartbeat_Variant_2_evicts 0 : 0 1 : 0 2 : 0 3 : 0 
Heartbeat_Variant_3_evicts 0 : 0 1 : 0 2 : 0 3 : 0 
Heartbeat CPU 0 instructions: 20000002 cycles: 5594060 heartbeat IPC: 3.57503 cumulative IPC: 3.57522 (Simulation time: 0 hr 3 min 13 sec) 
Heartbeat_Variant_0 : 1376 0.223958 per_variant_size: 0 1376 0 0 0 0 0 0 0 
Heartbeat_Variant_1 : 2861 0.465658 per_variant_size: 0 972 1889 0 0 0 0 0 0 
Heartbeat_Variant_2 : 0 0 per_variant_size: 0 0 0 0 0 0 0 0 0 
Heartbeat_Variant_3 : 0 0 per_variant_size: 0 0 0 0 0 0 0 0 0 
Heartbeat_Variant_0_evicts 0 : 5617 1 : 0 2 : 0 3 : 0 
Heartbeat_Variant_1_evicts 0 : 0 1 : 0 2 : 0 3 : 0 
Heartbeat_Variant_2_evicts 0 : 0 1 : 0 2 : 0 3 : 0 
Heartbeat_Variant_3_evicts 0 : 0 1 : 0 2 : 0 3 : 0 
Heartbeat CPU 0 instructions: 30000001 cycles: 8390435 heartbeat IPC: 3.57606 cumulative IPC: 3.5755 (Simulation time: 0 hr 4 min 52 sec) 
Heartbeat_Variant_0 : 1476 0.240234 per_variant_size: 0 1476 0 0 0 0 0 0 0 
Heartbeat_Variant_1 : 3114 0.506836 per_variant_size: 0 1011 2103 0 0 0 0 0 0 
Heartbeat_Variant_2 : 0 0 per_variant_size: 0 0 0 0 0 0 0 0 0 
Heartbeat_Variant_3 : 0 0 per_variant_size: 0 0 0 0 0 0 0 0 0 
Heartbeat_Variant_0_evicts 0 : 5468 1 : 36 2 : 0 3 : 0 
Heartbeat_Variant_1_evicts 0 : 25 1 : 0 2 : 0 3 : 0 
Heartbeat_Variant_2_evicts 0 : 0 1 : 0 2 : 0 3 : 0 
Heartbeat_Variant_3_evicts 0 : 0 1 : 0 2 : 0 3 : 0 
Heartbeat CPU 0 instructions: 40000002 cycles: 11187171 heartbeat IPC: 3.5756 cumulative IPC: 3.57552 (Simulation time: 0 hr 6 min 30 sec) 
Heartbeat_Variant_0 : 1476 0.240234 per_variant_size: 0 1476 0 0 0 0 0 0 0 
Heartbeat_Variant_1 : 3116 0.507161 per_variant_size: 0 1013 2103 0 0 0 0 0 0 
Heartbeat_Variant_2 : 0 0 per_variant_size: 0 0 0 0 0 0 0 0 0 
Heartbeat_Variant_3 : 0 0 per_variant_size: 0 0 0 0 0 0 0 0 0 
Heartbeat_Variant_0_evicts 0 : 5583 1 : 0 2 : 0 3 : 0 
Heartbeat_Variant_1_evicts 0 : 1 1 : 0 2 : 0 3 : 0 
Heartbeat_Variant_2_evicts 0 : 0 1 : 0 2 : 0 3 : 0 
Heartbeat_Variant_3_evicts 0 : 0 1 : 0 2 : 0 3 : 0 
Heartbeat CPU 0 instructions: 50000003 cycles: 13983180 heartbeat IPC: 3.57653 cumulative IPC: 3.57572 (Simulation time: 0 hr 8 min 8 sec) 

Warmup complete CPU 0 instructions: 50000003 cycles: 13983180 (Simulation time: 0 hr 8 min 8 sec) 

Cycle: 20000000 FTQ IN: 58329102 FTQ occupancy: 20.5783 DECODE IN: 58329067 DECODE occupancy: 53.406 ROB IN: 58329053 ROB occupancy: 318.358 ROB OUT: 58328805
Heartbeat_Variant_0 : 1487 0.242025 per_variant_size: 0 1487 0 0 0 0 0 0 0 
Heartbeat_Variant_1 : 3134 0.510091 per_variant_size: 0 1013 2121 0 0 0 0 0 0 
Heartbeat_Variant_2 : 0 0 per_variant_size: 0 0 0 0 0 0 0 0 0 
Heartbeat_Variant_3 : 0 0 per_variant_size: 0 0 0 0 0 0 0 0 0 
Heartbeat_Variant_0_evicts 0 : 5561 1 : 5 2 : 0 3 : 0 
Heartbeat_Variant_1_evicts 0 : 3 1 : 0 2 : 0 3 : 0 
Heartbeat_Variant_2_evicts 0 : 0 1 : 0 2 : 0 3 : 0 
Heartbeat_Variant_3_evicts 0 : 0 1 : 0 2 : 0 3 : 0 
Heartbeat CPU 0 instructions: 60000002 cycles: 21194812 heartbeat IPC: 1.38665 cumulative IPC: 1.38665 (Simulation time: 0 hr 10 min 9 sec) 
Heartbeat_Variant_0 : 1487 0.242025 per_variant_size: 0 1487 0 0 0 0 0 0 0 
Heartbeat_Variant_1 : 3134 0.510091 per_variant_size: 0 1013 2121 0 0 0 0 0 0 
Heartbeat_Variant_2 : 0 0 per_variant_size: 0 0 0 0 0 0 0 0 0 
Heartbeat_Variant_3 : 0 0 per_variant_size: 0 0 0 0 0 0 0 0 0 
Heartbeat_Variant_0_evicts 0 : 5657 1 : 0 2 : 0 3 : 0 
Heartbeat_Variant_1_evicts 0 : 0 1 : 0 2 : 0 3 : 0 
Heartbeat_Variant_2_evicts 0 : 0 1 : 0 2 : 0 3 : 0 
Heartbeat_Variant_3_evicts 0 : 0 1 : 0 2 : 0 3 : 0 
Heartbeat CPU 0 instructions: 70000000 cycles: 28277584 heartbeat IPC: 1.41188 cumulative IPC: 1.39915 (Simulation time: 0 hr 12 min 8 sec) 
Cycle: 30000000 FTQ IN: 14105897 FTQ occupancy: 14.8874 DECODE IN: 14105843 DECODE occupancy: 38.2455 ROB IN: 14105797 ROB occupancy: 251.355 ROB OUT: 14105877
Heartbeat_Variant_0 : 1489 0.24235 per_variant_size: 0 1489 0 0 0 0 0 0 0 
Heartbeat_Variant_1 : 3141 0.51123 per_variant_size: 0 1021 2120 0 0 0 0 0 0 
Heartbeat_Variant_2 : 0 0 per_variant_size: 0 0 0 0 0 0 0 0 0 
Heartbeat_Variant_3 : 0 0 per_variant_size: 0 0 0 0 0 0 0 0 0 
Heartbeat_Variant_0_evicts 0 : 5653 1 : 2 2 : 0 3 : 0 
Heartbeat_Variant_1_evicts 0 : 1 1 : 0 2 : 0 3 : 0 
Heartbeat_Variant_2_evicts 0 : 0 1 : 0 2 : 0 3 : 0 
Heartbeat_Variant_3_evicts 0 : 0 1 : 0 2 : 0 3 : 0 
Heartbeat CPU 0 instructions: 80000001 cycles: 35460259 heartbeat IPC: 1.39224 cumulative IPC: 1.39684 (Simulation time: 0 hr 14 min 7 sec) 
Cycle: 40000000 FTQ IN: 13981858 FTQ occupancy: 15.0131 DECODE IN: 13981889 DECODE occupancy: 38.2776 ROB IN: 13981900 ROB occupancy: 251.273 ROB OUT: 13981720
Heartbeat_Variant_0 : 1489 0.24235 per_variant_size: 0 1489 0 0 0 0 0 0 0 
Heartbeat_Variant_1 : 3141 0.51123 per_variant_size: 0 1019 2122 0 0 0 0 0 0 
Heartbeat_Variant_2 : 0 0 per_variant_size: 0 0 0 0 0 0 0 0 0 
Heartbeat_Variant_3 : 0 0 per_variant_size: 0 0 0 0 0 0 0 0 0 
Heartbeat_Variant_0_evicts 0 : 5649 1 : 0 2 : 0 3 : 0 
Heartbeat_Variant_1_evicts 0 : 0 1 : 0 2 : 0 3 : 0 
Heartbeat_Variant_2_evicts 0 : 0 1 : 0 2 : 0 3 : 0 
Heartbeat_Variant_3_evicts 0 : 0 1 : 0 2 : 0 3 : 0 
Heartbeat CPU 0 instructions: 90000001 cycles: 42528848 heartbeat IPC: 1.41471 cumulative IPC: 1.40126 (Simulation time: 0 hr 16 min 2 sec) 
Heartbeat_Variant_0 : 1489 0.24235 per_variant_size: 0 1489 0 0 0 0 0 0 0 
Heartbeat_Variant_1 : 3142 0.511393 per_variant_size: 0 1022 2120 0 0 0 0 0 0 
Heartbeat_Variant_2 : 0 0 per_variant_size: 0 0 0 0 0 0 0 0 0 
Heartbeat_Variant_3 : 0 0 per_variant_size: 0 0 0 0 0 0 0 0 0 
Heartbeat_Variant_0_evicts 0 : 5530 1 : 0 2 : 0 3 : 0 
Heartbeat_Variant_1_evicts 0 : 0 1 : 0 2 : 0 3 : 0 
Heartbeat_Variant_2_evicts 0 : 0 1 : 0 2 : 0 3 : 0 
Heartbeat_Variant_3_evicts 0 : 0 1 : 0 2 : 0 3 : 0 
Heartbeat CPU 0 instructions: 100000002 cycles: 49702367 heartbeat IPC: 1.39402 cumulative IPC: 1.39981 (Simulation time: 0 hr 18 min 3 sec) 
Finished CPU 0 instructions: 50000003 cycles: 35719188 cumulative IPC: 1.39981 (Simulation time: 0 hr 18 min 3 sec) 

ChampSim completed all CPUs

Region of Interest Statistics

CPU 0 cumulative IPC: 1.39981 instructions: 50000003 cycles: 35719188
 Fetch stage stalled: 45.6468  Sim cycles: 35719188 fetch stall cycle: 16304672
 Empty decode stage: 25.223  Sim cycles: 35719188 fetch stall cycle: 9009468
ITLB TOTAL     ACCESS:    5843132  HIT:    5349422  MISS:     493710  HIT %:    91.5506  MISS %:    8.44941   MPKI: 9.8742
ITLB LOAD TRANSLATION INSTRUCTION	ACCESS:    5705838  HIT:    5212128  MISS:     493710  HIT %:    91.3473  MISS %:    8.65272  MPKI: 9.8742
ITLB TRANSLATION FROM L1D PREFETCHER INSTRUCTION	ACCESS:     137294  HIT:     137294  MISS:          0  HIT %:        100  MISS %:          0  MPKI: 0

ITLB AVERAGE MISS LATENCY: 9.07744 cycles
ITLB RQ	ACCESS:    7944485	FORWARD:          0	MERGED:    1618236	TO_CACHE:    6326249

DTLB TOTAL     ACCESS:    8952639  HIT:    8481477  MISS:     471162  HIT %:    94.7372  MISS %:    5.26283   MPKI: 9.42324
DTLB LOAD TRANSLATION DATA	ACCESS:    8952639  HIT:    8481477  MISS:     471162  HIT %:    94.7372  MISS %:    5.26283  MPKI: 9.42324

DTLB AVERAGE MISS LATENCY: 9.31463 cycles
DTLB RQ	ACCESS:   13327758	FORWARD:          0	MERGED:    4338379	TO_CACHE:    8989379

STLB TOTAL     ACCESS:    1213702  HIT:    1211517  MISS:       2185  HIT %:      99.82  MISS %:   0.180028   MPKI: 0.0437
STLB LOAD TRANSLATION INSTRUCTION	ACCESS:     493710  HIT:     493255  MISS:        455  HIT %:    99.9078  MISS %:  0.0921594  MPKI: 0.0091
STLB LOAD TRANSLATION DATA	ACCESS:     471161  HIT:     469458  MISS:       1703  HIT %:    99.6386  MISS %:   0.361448  MPKI: 0.03406
STLB TRANSLATION FROM L1D PREFETCHER DATA	ACCESS:     248831  HIT:     248804  MISS:         27  HIT %:    99.9891  MISS %:  0.0108507  MPKI: 0.00054

STLB AVERAGE MISS LATENCY: 71.7465 cycles
STLB RQ	ACCESS:    1332700	FORWARD:          0	MERGED:     118964	TO_CACHE:    1213736

STLB Hit, L1D data hit: 0
STLB Hit, L2C data hit: 0
STLB Hit, LLC data hit: 0
STLB Hit, LLC data miss: 0
STLB STLB hints to L2: 0
L1D TOTAL     ACCESS:   13075017  HIT:   11962638  MISS:    1112379  HIT %:    91.4923  MISS %:    8.50767   MPKI: 22.2476
L1D LOAD DATA	ACCESS:    6539486  HIT:    5808340  MISS:     731146  HIT %:    88.8195  MISS %:    11.1805  MPKI: 14.6229
L1D RFO DATA	ACCESS:    6206364  HIT:    5919174  MISS:     287190  HIT %:    95.3727  MISS %:    4.62735  MPKI: 5.7438
L1D PREFETCH DATA	ACCESS:     329167  HIT:     235124  MISS:      94043  HIT %:      71.43  MISS %:      28.57  MPKI: 1.88086

L1D PREFETCH  REQUESTED:     736008  ISSUED:     736008  USEFUL:      33842  USELESS:      67861
L1D USEFUL LOAD PREFETCHES:      33842 PREFETCH ISSUED TO LOWER LEVEL:     101808  ACCURACY: 33.241
 TIMELY PREFETCHES:      33842 LATE PREFETCHES: 7677 DROPPED PREFETCHES: 7
L1D AVERAGE MISS LATENCY: 224135 cycles
L1D RQ	ACCESS:   10695542	FORWARD:          0	MERGED:    3954400	TO_CACHE:    6574146
L1D WQ	ACCESS:    6952040	FORWARD:     167346	MERGED:     198428	TO_CACHE:    6753612
L1D PQ	ACCESS:     368179	FORWARD:          0	MERGED:          0	TO_CACHE:     367829

L1D UNIQUE REGIONS ACCESSED: 0
L1D REGIONS CONFLICTS: 0
L1D Cross Page Prefetch Requests: 5962
L1D Same Page Prefetch Requests: 741901
L1D ROI Sum of L1D PQ occupancy: 4693740
L1D PREFETCHES PUSHED FROM L2C: 0
L1I TOTAL     ACCESS:    7125865  HIT:    4365493  MISS:    2760372  HIT %:    61.2626  MISS %:    38.7374   MPKI: 55.2074
L1I LOAD INSTRUCTION	ACCESS:    6454793  HIT:    3694421  MISS:    2760372  HIT %:    57.2353  MISS %:    42.7647  MPKI: 55.2074
L1I PREFETCH INSTRUCTION	ACCESS:     671072  HIT:     671072  MISS:          0  HIT %:        100  MISS %:          0  MPKI: 0

L1I PREFETCH  REQUESTED:    1617696  ISSUED:    1617696  USEFUL:          0  USELESS:          0
L1I USEFUL LOAD PREFETCHES:          0 PREFETCH ISSUED TO LOWER LEVEL:          0  ACCURACY: -nan
 TIMELY PREFETCHES:          0 LATE PREFETCHES: 0 DROPPED PREFETCHES: 0
L1I AVERAGE MISS LATENCY: 17.198 cycles
L1I RQ	ACCESS:    9567614	FORWARD:          0	MERGED:    2810596	TO_CACHE:    6757018
L1I PQ	ACCESS:    1617696	FORWARD:          0	MERGED:     430229	TO_CACHE:    1187467

L1BTB TOTAL     ACCESS:    5668481  HIT:    2041142  MISS:    3627339  HIT %:    36.0086  MISS %:    63.9914   MPKI: 72.5468
L1BTB BRANCH_DIRECT_JUMP	ACCESS:     549171 HIT:     145471 MISS:     403700 AVERAGE STALL: 55.4241 AVERAGE FETCH STALL: 14.59 AVERAGE FETCH QUEUE STALL: 17.4678 AVERAGE DECODE STALL: 22.4295 AVERAGE EXECUTE STALL: 2.33414e+15
L1BTB BRANCH_INDIRECT	ACCESS:     183366 HIT:      66270 MISS:     117096 AVERAGE STALL: 112.454 AVERAGE FETCH STALL: 11.4652 AVERAGE FETCH QUEUE STALL: 17.6501 AVERAGE DECODE STALL: 13.2382 AVERAGE EXECUTE STALL: 69.1393
L1BTB BRANCH_CONDITIONAL	ACCESS:    2708572 HIT:    1415823 MISS:    1292749 AVERAGE STALL: 56.4069 AVERAGE FETCH STALL: 17.5139 AVERAGE FETCH QUEUE STALL: 22.0956 AVERAGE DECODE STALL: 16.1543 AVERAGE EXECUTE STALL: 3.83508e+15
L1BTB BRANCH_DIRECT_CALL	ACCESS:     942385 HIT:     104202 MISS:     838183 AVERAGE STALL: 105.743 AVERAGE FETCH STALL: 26.9781 AVERAGE FETCH QUEUE STALL: 57.7278 AVERAGE DECODE STALL: 19.8976 AVERAGE EXECUTE STALL: 1.09152e+16
L1BTB BRANCH_INDIRECT_CALL	ACCESS:     171301 HIT:      20849 MISS:     150452 AVERAGE STALL: 142.442 AVERAGE FETCH STALL: 12.2006 AVERAGE FETCH QUEUE STALL: 18.4864 AVERAGE DECODE STALL: 12.5588 AVERAGE EXECUTE STALL: 98.7086
L1BTB BRANCH_RETURN	ACCESS:    1113686 HIT:     288527 MISS:     825159 AVERAGE STALL: 48.5614 AVERAGE FETCH STALL: 16.3139 AVERAGE FETCH QUEUE STALL: 4.93376 AVERAGE DECODE STALL: 6.12299 AVERAGE EXECUTE STALL: 4.35897e+14
L1BTB BRANCH_OTHER ACCESS:          0 HIT:          0 MISS:          0 AVERAGE STALL: -nan AVERAGE FETCH STALL: -nan AVERAGE FETCH QUEUE STALL: -nan AVERAGE DECODE STALL: -nan AVERAGE EXECUTE STALL: -nan
L1BTB TOTAL ROB OCCUPANCY AT BTB MISS: 2.63264

L2BTB TOTAL     ACCESS:    3601890  HIT:    3537983  MISS:      63907  HIT %:    98.2257  MISS %:    1.77426   MPKI: 1.27814
L2BTB BRANCH_DIRECT_JUMP	ACCESS:     399495 HIT:     395795 MISS:       3700 AVERAGE STALL: 55.4241 AVERAGE FETCH STALL: 14.59 AVERAGE FETCH QUEUE STALL: 17.4678 AVERAGE DECODE STALL: 22.4295 AVERAGE EXECUTE STALL: 2.33414e+15
L2BTB BRANCH_INDIRECT	ACCESS:     106845 HIT:     104197 MISS:       2648 AVERAGE STALL: 112.454 AVERAGE FETCH STALL: 11.4652 AVERAGE FETCH QUEUE STALL: 17.6501 AVERAGE DECODE STALL: 13.2382 AVERAGE EXECUTE STALL: 69.1393
L2BTB BRANCH_CONDITIONAL	ACCESS:    1292749 HIT:    1287921 MISS:       4828 AVERAGE STALL: 56.4069 AVERAGE FETCH STALL: 17.5139 AVERAGE FETCH QUEUE STALL: 22.0956 AVERAGE DECODE STALL: 16.1543 AVERAGE EXECUTE STALL: 3.83508e+15
L2BTB BRANCH_DIRECT_CALL	ACCESS:     838183 HIT:     836481 MISS:       1702 AVERAGE STALL: 105.743 AVERAGE FETCH STALL: 26.9781 AVERAGE FETCH QUEUE STALL: 57.7278 AVERAGE DECODE STALL: 19.8976 AVERAGE EXECUTE STALL: 1.09152e+16
L2BTB BRANCH_INDIRECT_CALL	ACCESS:     140861 HIT:     130757 MISS:      10104 AVERAGE STALL: 142.442 AVERAGE FETCH STALL: 12.2006 AVERAGE FETCH QUEUE STALL: 18.4864 AVERAGE DECODE STALL: 12.5588 AVERAGE EXECUTE STALL: 98.7086
L2BTB BRANCH_RETURN	ACCESS:     823757 HIT:     782832 MISS:      40925 AVERAGE STALL: 48.5614 AVERAGE FETCH STALL: 16.3139 AVERAGE FETCH QUEUE STALL: 4.93376 AVERAGE DECODE STALL: 6.12299 AVERAGE EXECUTE STALL: 4.35897e+14
L2BTB BRANCH_OTHER ACCESS:          0 HIT:          0 MISS:          0 AVERAGE STALL: -nan AVERAGE FETCH STALL: -nan AVERAGE FETCH QUEUE STALL: -nan AVERAGE DECODE STALL: -nan AVERAGE EXECUTE STALL: -nan
L2BTB TOTAL ROB OCCUPANCY AT BTB MISS: 149.428

L2C TOTAL     ACCESS:    4477523  HIT:    4012982  MISS:     464541  HIT %:     89.625  MISS %:     10.375   MPKI: 9.29082
L2C LOAD INSTRUCTION	ACCESS:    2760372  HIT:    2506666  MISS:     253706  HIT %:     90.809  MISS %:    9.19101  MPKI: 5.07412
L2C LOAD TRANSLATION INSTRUCTION	ACCESS:        491  HIT:        121  MISS:        370  HIT %:    24.6436  MISS %:    75.3564  MPKI: 0.0074
L2C LOAD DATA	ACCESS:     723445  HIT:     649058  MISS:      74387  HIT %:    89.7177  MISS %:    10.2823  MPKI: 1.48774
L2C RFO DATA	ACCESS:     287069  HIT:     238460  MISS:      48609  HIT %:    83.0671  MISS %:    16.9329  MPKI: 0.97218
L2C PREFETCH DATA	ACCESS:     181628  HIT:     108115  MISS:      73513  HIT %:    59.5255  MISS %:    40.4745  MPKI: 1.47026
L2C WRITEBACK DATA	ACCESS:     522698  HIT:     510056  MISS:      12642  HIT %:    97.5814  MISS %:    2.41861  MPKI: 0.25284
L2C LOAD TRANSLATION DATA	ACCESS:       1770  HIT:        477  MISS:       1293  HIT %:    26.9492  MISS %:    73.0508  MPKI: 0.02586
L2C TRANSLATION FROM L1D PREFETCHER DATA	ACCESS:         50  HIT:         29  MISS:         21  HIT %:         58  MISS %:         42  MPKI: 0.00042

L2C PREFETCH  REQUESTED:      88014  ISSUED:      88014  USEFUL:       7836  USELESS:      66362
L2C USEFUL LOAD PREFETCHES:       7836 PREFETCH ISSUED TO LOWER LEVEL:      74118  ACCURACY: 10.5723
 TIMELY PREFETCHES:       7836 LATE PREFETCHES: 605 DROPPED PREFETCHES: 0
L2C AVERAGE MISS LATENCY: 39.2617 cycles
L2C RQ	ACCESS:    3773255	FORWARD:          0	MERGED:          0	TO_CACHE:    3773198
L2C WQ	ACCESS:     522698	FORWARD:         57	MERGED:          0	TO_CACHE:     522698
L2C PQ	ACCESS:     189822	FORWARD:          0	MERGED:       3589	TO_CACHE:     186233

L2C Dense regions hint from L2: 0
PSCL5 TOTAL     ACCESS:       4390  HIT:       2195  MISS:       2195  HIT %:         50  MISS %:         50   MPKI: 0.0439
PSCL5 LOAD TRANSLATION INSTRUCTION	ACCESS:       4290  HIT:       2145  MISS:       2145  HIT %:         50  MISS %:         50  MPKI: 0.0429
PSCL5 TRANSLATION FROM L1D PREFETCHER INSTRUCTION	ACCESS:        100  HIT:         50  MISS:         50  HIT %:         50  MISS %:         50  MPKI: 0.001


PSCL4 TOTAL     ACCESS:       3278  HIT:       1636  MISS:       1642  HIT %:    49.9085  MISS %:    50.0915   MPKI: 0.03284
PSCL4 LOAD TRANSLATION INSTRUCTION	ACCESS:       1831  HIT:       1607  MISS:        224  HIT %:    87.7662  MISS %:    12.2338  MPKI: 0.00448
PSCL4 TRANSLATION FROM L1D PREFETCHER INSTRUCTION	ACCESS:         29  HIT:         29  MISS:          0  HIT %:        100  MISS %:          0  MPKI: 0
PSCL4 LOAD TRANSLATION DATA	ACCESS:       1389  HIT:          0  MISS:       1389  HIT %:          0  MISS %:        100  MPKI: 0.02778
PSCL4 TRANSLATION FROM L1D PREFETCHER DATA	ACCESS:         29  HIT:          0  MISS:         29  HIT %:          0  MISS %:        100  MPKI: 0.00058


PSCL3 TOTAL     ACCESS:       4210  HIT:       2098  MISS:       2112  HIT %:    49.8337  MISS %:    50.1663   MPKI: 0.04224
PSCL3 LOAD TRANSLATION INSTRUCTION	ACCESS:       2499  HIT:       2064  MISS:        435  HIT %:     82.593  MISS %:     17.407  MPKI: 0.0087
PSCL3 TRANSLATION FROM L1D PREFETCHER INSTRUCTION	ACCESS:         34  HIT:         34  MISS:          0  HIT %:        100  MISS %:          0  MPKI: 0
PSCL3 LOAD TRANSLATION DATA	ACCESS:       1643  HIT:          0  MISS:       1643  HIT %:          0  MISS %:        100  MPKI: 0.03286
PSCL3 TRANSLATION FROM L1D PREFETCHER DATA	ACCESS:         34  HIT:          0  MISS:         34  HIT %:          0  MISS %:        100  MPKI: 0.00068


PSCL2 TOTAL     ACCESS:       4294  HIT:       2099  MISS:       2195  HIT %:    48.8822  MISS %:    51.1178   MPKI: 0.0439
PSCL2 LOAD TRANSLATION INSTRUCTION	ACCESS:       2502  HIT:       2049  MISS:        453  HIT %:    81.8945  MISS %:    18.1055  MPKI: 0.00906
PSCL2 TRANSLATION FROM L1D PREFETCHER INSTRUCTION	ACCESS:         50  HIT:         50  MISS:          0  HIT %:        100  MISS %:          0  MPKI: 0
PSCL2 LOAD TRANSLATION DATA	ACCESS:       1692  HIT:          0  MISS:       1692  HIT %:          0  MISS %:        100  MPKI: 0.03384
PSCL2 TRANSLATION FROM L1D PREFETCHER DATA	ACCESS:         50  HIT:          0  MISS:         50  HIT %:          0  MISS %:        100  MPKI: 0.001


LLC TOTAL     ACCESS:     521862  HIT:     492136  MISS:      29726  HIT %:    94.3039  MISS %:    5.69614   MPKI: 0.59452
LLC LOAD INSTRUCTION	ACCESS:     253706  HIT:     252727  MISS:        979  HIT %:    99.6141  MISS %:    0.38588  MPKI: 0.01958
LLC LOAD TRANSLATION INSTRUCTION	ACCESS:        370  HIT:        336  MISS:         34  HIT %:    90.8108  MISS %:    9.18919  MPKI: 0.00068
LLC LOAD DATA	ACCESS:      73800  HIT:      70496  MISS:       3304  HIT %:     95.523  MISS %:    4.47696  MPKI: 0.06608
LLC RFO DATA	ACCESS:      48585  HIT:      33287  MISS:      15298  HIT %:    68.5129  MISS %:    31.4871  MPKI: 0.30596
LLC PREFETCH DATA	ACCESS:      74118  HIT:      64513  MISS:       9605  HIT %:    87.0409  MISS %:    12.9591  MPKI: 0.1921
LLC WRITEBACK DATA	ACCESS:      69969  HIT:      69532  MISS:        437  HIT %:    99.3754  MISS %:   0.624562  MPKI: 0.00874
LLC LOAD TRANSLATION DATA	ACCESS:       1293  HIT:       1224  MISS:         69  HIT %:    94.6636  MISS %:    5.33643  MPKI: 0.00138
LLC TRANSLATION FROM L1D PREFETCHER DATA	ACCESS:         21  HIT:         21  MISS:          0  HIT %:        100  MISS %:          0  MPKI: 0

LLC AVERAGE MISS LATENCY: 156.267 cycles
LLC RQ	ACCESS:     377781	FORWARD:          0	MERGED:          0	TO_CACHE:     377775
LLC WQ	ACCESS:      69969	FORWARD:          6	MERGED:          0	TO_CACHE:      69969
LLC PQ	ACCESS:      74118	FORWARD:          0	MERGED:          0	TO_CACHE:      74118

LLC Dense regions hint to LLC: 0

RAW hits: 1950048
Loads Generated: 12645590
Loads sent to L1D: 10695542
Stores Generated: 6952037
Stores sent to L1D: 6952040
Major fault: 0 Minor fault: 2609
Allocated PAGES: 2609

stream: 
stream:times selected: 1176879
stream:pref_filled: 121575
stream:pref_useful: 24062
stream:pref_late: 6758
stream:misses: 6852
stream:misses_by_poll: 0

CS: 
CS:times selected: 176611
CS:pref_filled: 59663
CS:pref_useful: 36075
CS:pref_late: 6716
CS:misses: 15776
CS:misses_by_poll: 5

CPLX: 
CPLX:times selected: 999122
CPLX:pref_filled: 19272
CPLX:pref_useful: 4420
CPLX:pref_late: 3134
CPLX:misses: 90041
CPLX:misses_by_poll: 0

NL_L1: 
NL:times selected: 19810
NL:pref_filled: 580
NL:pref_useful: 233
NL:pref_late: 205
NL:misses: 1085
NL:misses_by_poll: 0

total selections: 2372422
total_filled: 94043
total_useful: 33842
total_late: 17993
total_polluted: 5
total_misses_after_warmup: 765809
conflicts: 5522788

test: 115313

DRAM Statistics
 CHANNEL 0
 RQ ROW_BUFFER_HIT:      11221  ROW_BUFFER_MISS:      18053
 DBUS_CONGESTED:         11
 WQ ROW_BUFFER_HIT:       1464  ROW_BUFFER_MISS:      12347  FULL:          0

 AVG_CONGESTED_CYCLE: 6

CPU 0 Branch Prediction Accuracy: 99.8275% MPKI: 0.31522 Average ROB Occupancy at Mispredict: 198.46
Branch types
NOT_BRANCH: 40860844 81.7217%
BRANCH_DIRECT_JUMP: 549171 1.09834%
BRANCH_INDIRECT: 183366 0.366732%
BRANCH_CONDITIONAL: 6179191 12.3584%
BRANCH_DIRECT_CALL: 942385 1.88477%
BRANCH_INDIRECT_CALL: 171301 0.342602%
BRANCH_RETURN: 1113686 2.22737%
BRANCH_OTHER: 0 0%

DRAM PAGES: 1048576
Allocated PAGES: 2609
Average_ROB_Occupancy: 252.064
Average_Decode_Occupancy: 38.2927
Average_FTQ_Occupancy: 14.9954
Indirect max targets: 14 Average targets: 1.17572
Branch_type:  BRANCH_DIRECT_JUMP:  Count Percentage: 3.2997 6.04914 4.13857 8.44421 2.41075 6.34095 1.94312 67.3736 
Branch_type:  BRANCH_INDIRECT:  Count Percentage: 11.7672 3.4517 2.52964 9.66273 3.35052 2.81348 1.74267 64.6821 
Branch_type:  BRANCH_CONDITIONAL:  Count Percentage: 24.9733 3.00294 1.4233 4.61558 2.2705 3.65543 2.57021 57.4887 
Branch_type:  BRANCH_DIRECT_CALL:  Count Percentage: 0.895397 1.27945 0.72052 3.93933 2.80237 2.91299 4.35779 83.0922 
Branch_type:  BRANCH_INDIRECT_CALL:  Count Percentage: 9.57076 0 3.00029 0.000873617 0 2.28771 3.85964 81.2807 
Branch_type:  BRANCH_RETURN:  Count Percentage: 8.32602 0.920806 1.79886 3.95001 3.53637 3.56212 3.43224 74.4736 
Branch_type:  BRANCH_DIRECT_JUMP:  Total Count: 36184 66334 45383 92598 26436 69534 21308 738809 
Branch_type:  BRANCH_INDIRECT:  Total Count: 43033 12623 9251 35337 12253 10289 6373 236545 
Branch_type:  BRANCH_CONDITIONAL:  Total Count: 3083735 370806 175751 569937 280364 451377 317372 7098768 
Branch_type:  BRANCH_DIRECT_CALL:  Total Count: 16917 24173 13613 74427 52946 55036 82333 1569885 
Branch_type:  BRANCH_INDIRECT_CALL:  Total Count: 32866 0 10303 3 0 7856 13254 279118 
Branch_type:  BRANCH_RETURN:  Total Count: 185969 20567 40179 88227 78988 79563 76662 1663432 
Number of unique branch instructions: 10597
Upper 32 bits: 
aaaa
ffff
ffff0000
Unique upper 32 bits: 3
Unique upper 36 bits: 3
Unique upper 40 bits: 5
Unique upper 44 bits: 32
Unique upper 48 bits: 158
Variant_0 : 1489 0.24235
Variant_1 : 3142 0.511393
Variant_2 : 0 0
Variant_3 : 0 0
Offset_3 4381
Offset_4 259
Offset_5 471
Offset_6 530
Offset_7 634
Offset_8 565
Offset_9 507
Offset_10 417
Offset_11 338
Offset_12 308
Offset_13 234
Offset_14 245
Offset_15 194
Offset_16 224
Offset_17 162
Offset_18 144
Offset_19 256
Offset_20 142
Offset_21 235
Offset_22 408
Offset_23 241
Offset_24 342
Offset_25 117
Offset_47 92
decode_dispatch_called: 26308636 73.6541
Dispatch_width: 0 14122312 53.6794 39.537
Dispatch_width: 1 1032499 3.92456 2.8906
Dispatch_width: 2 856238 3.25459 2.39714
Dispatch_width: 3 506858 1.92658 1.41901
Dispatch_width: 4 6454407 24.5334 18.0699
Dispatch_width: 5 101106 0.384307 0.283058
Dispatch_width: 6 3235216 12.2972 9.05736
Empty_decode_cycles: 9410552 26.3459
ROB_full_cycles: 10162727 28.4517
Starvation_cycles_per_kilo_instr: 223.212
Starvation_cycles_per_kilo_instr_3: 157.657
Starvation_cycles_per_kilo_instr_0: 133.701
Branch_type_1  (3,1)  (4,9)  (5,39)  (6,71)  (7,124)  (8,146)  (9,134)  (10,108)  (11,74)  (12,47)  (13,11)  (14,2)  (15,3)  (16,4)  (18,1)  (19,5)  (20,2)  (21,1)  (22,3)  (23,2)  (24,10)  (25,12) 
Branch_type_2  (3,1)  (4,1)  (5,1)  (8,4)  (9,4)  (10,1)  (12,1)  (13,1)  (14,1)  (16,3)  (17,2)  (20,2)  (21,2)  (23,5)  (24,1)  (47,41) 
Branch_type_3  (3,4379)  (4,249)  (5,427)  (6,443)  (7,480)  (8,349)  (9,274)  (10,168)  (11,129)  (12,54)  (13,10) 
Branch_type_4  (6,3)  (7,8)  (8,25)  (9,57)  (10,67)  (11,69)  (12,115)  (13,99)  (14,110)  (15,92)  (16,98)  (17,75)  (18,61)  (19,124)  (20,73)  (21,124)  (22,214)  (23,136)  (24,197)  (25,101) 
Branch_type_5  (8,3)  (9,1)  (10,4)  (11,5)  (12,3)  (13,14)  (14,16)  (15,11)  (16,22)  (17,11)  (18,23)  (19,14)  (20,11)  (21,13)  (22,43)  (23,26)  (24,38) 
Branch_type_6  (5,4)  (6,13)  (7,22)  (8,38)  (9,37)  (10,69)  (11,61)  (12,88)  (13,99)  (14,116)  (15,88)  (16,97)  (17,74)  (18,59)  (19,113)  (20,54)  (21,95)  (22,148)  (23,72)  (24,96)  (25,4)  (47,51) 
Unique trigger count: 
Variant_0_evicts_0 : 0
Variant_0_evicts_1 : 0
Variant_0_evicts_2 : 0
Variant_0_evicts_3 : 0
Variant_1_evicts_0 : 0
Variant_1_evicts_1 : 0
Variant_1_evicts_2 : 0
Variant_1_evicts_3 : 0
Variant_2_evicts_0 : 0
Variant_2_evicts_1 : 0
Variant_2_evicts_2 : 0
Variant_2_evicts_3 : 0
Variant_3_evicts_0 : 0
Variant_3_evicts_1 : 0
Variant_3_evicts_2 : 0
Variant_3_evicts_3 : 0
BTB PER SET UNIQUE ADDR: 5 5 4 7 6 5 5 6 5 8 5 6 3 4 4 7 4 8 6 6 5 3 5 7 6 3 4 4 7 5 4 6 4 6 5 5 6 4 5 6 6 6 7 7 6 6 7 7 7 6 9 6 5 4 7 4 5 5 5 5 7 3 5 8 7 3 4 8 6 4 4 5 3 7 5 7 5 8 5 6 8 6 5 6 6 6 6 6 4 4 4 7 5 4 6 6 8 7 5 7 5 6 6 8 4 5 4 4 5 7 5 4 5 5 6 5 5 7 4 4 7 6 6 6 8 6 6 9 9 5 7 7 6 4 6 5 4 4 5 7 4 6 4 7 6 5 4 4 8 6 6 6 5 6 7 6 5 7 9 4 5 7 4 6 3 7 5 6 6 5 7 5 7 7 6 5 5 6 4 4 5 3 7 7 4 2 4 6 7 6 5 6 6 5 6 5 7 5 6 7 4 6 8 5 5 7 6 4 5 4 6 7 5 6 4 7 4 3 7 5 4 5 5 3 9 6 4 6 6 6 6 5 4 7 6 6 6 7 4 6 8 6 3 6 4 9 7 5 4 3 6 6 4 4 5 7 6 8 6 7 5 5 8 5 6 5 7 6 6 6 7 4 4 5 7 5 7 3 6 5 6 6 2 6 4 7 6 7 6 5 3 6 4 5 3 6 8 5 6 4 6 5 7 6 4 5 7 7 5 6 5 3 7 5 4 5 6 6 6 5 4 5 5 7 6 5 6 6 2 5 3 5 5 3 4 4 4 5 6 6 5 6 6 6 6 9 5 4 6 7 7 4 6 5 6 7 3 8 6 7 6 7 6 5 5 6 5 4 7 4 5 5 6 5 4 6 5 5 7 6 5 7 4 7 7 5 6 3 6 5 4 8 5 7 5 5 5 9 7 6 8 5 4 5 5 5 6 6 8 7 8 4 5 6 6 4 6 6 6 5 4 4 5 8 8 4 5 5 6 5 5 4 8 4 4 4 4 6 4 4 6 5 4 6 5 5 6 8 7 3 6 5 3 5 6 6 8 4 5 7 5 4 5 8 6 6 6 6 6 6 5 4 6 6 3 7 6 5 4 5 5 4 6 4 5 6 5 5 6 7 9 4 5 4 5 6 7 4 5 5 6 7 7 4 6 6 3 7 7 3 3 3 6 2 0 5 6 3 5 5 4 3 3 4 6 5 3 3 2 5 4 5 4 3 3 5 3 2 5 4 3 4 6 6 2 5 6 7 4 3 2 6 3 5 3 5 6 1 7 4 2 6 5 6 3 4 4 5 6 2 3 4 2 3 2 3 4 4 5 4 4 6 5 5 5 5 2 2 5 3 5 3 7 6 3 6 3 5 5 3 4 4 3 4 3 4 5 2 4 5 4 6 5 6 3 4 5 5 4 6 4 4 6 4 3 5 2 5 4 2 2 6 5 3 4 3 5 3 6 5 6 5 2 2 3 4 4 5 3 1 5 4 4 2 3 6 5 5 2 2 4 2 4 6 4 6 5 4 6 3 4 6 3 6 5 3 2 6 4 6 3 4 2 4 5 4 3 6 5 5 5 4 4 4 3 6 4 4 3 6 5 3 3 3 6 5 3 3 5 5 4 4 4 4 3 4 5 5 2 3 3 3 3 4 5 5 5 4 3 6 2 3 9 6 2 4 4 5 3 9 3 4 6 6 3 2 5 3 6 4 3 4 6 2 4 5 2 3 5 4 6 4 7 5 2 7 4 5 2 7 3 3 1 3 6 4 5 5 2 3 5 3 6 4 8 3 4 5 3 4 5 4 5 4 5 1 6 1 3 3 6 5 5 2 5 4 3 6 4 6 4 3 2 4 3 5 5 5 5 5 5 3 6 6 3 3 4 3 5 6 4 4 4 7 6 4 5 5 3 3 4 5 2 4 4 3 5 3 2 4 3 6 4 5 4 3 6 3 3 4 2 2 4 6 6 3 3 6 4 4 4 2 5 5 1 5 4 5 4 6 5 3 3 5 3 3 6 2 1 0 6 5 2 1 2 7 3 3 4 3 5 2 4 2 4 3 4 7 4 5 5 3 3 6 5 4 4 2 3 2 3 4 6 5 2 4 5 4 4 3 3 6 4 5 5 4 2 3 2 4 4 5 3 5 3 3 5 3 6 7 5 5 5 5 5 6 3 4 4 2 6 4 5 5 4 1 5 4 3 5 6 5 5 7 4 6 2 4 5 3 2 1 4 3 5 3 5 5 3 4 6 3 4 6 5 6 2 4 4 4 6 3 5 3 2 5 6 5 2 5 5 5 5 4 4 4 1 4 3 4 5 4 5 4 5 1 5 6 5 2 2 5 3 2 3 5 6 3 1 4 6 3 5 5 5 5 5 5 4 5 4 3 5 4 3 3 4 5 6 3 4 3 7 3 3 4 5 6 5 4 4 4 3 4 5 3 4 5 3 4 6 4 6 1 4 5 4 2 2 2 3 4 2 5 6 3 5 5 2 4 5 6 6 6 1 4 3 6 4 4 4 3 3 4 6 5 5 5 5 6 4 6 2 5 3 6 4 6 3 0 3 2 6 2 4 5 4 4 5 5 5 3 3 4 3 4 4 4 5 3 5 5 1 1 3 1 5 4 4 3 4 5 5 3 4 4 4 5 5 6 7 3 6 7 4 5 5 4 2 6 4 3 6 4 5 4 4 3 2 2 6 4 4 3 6 5 5 3 2 2 4 4 3 3 4 5 4 2 5 5 8 6 3 3 3 5 3 5 6 8 6 1 3 5 4 5 3 7 4 3 6 4 4 5 4 5 4 4 3 4 5 5 5 6 5 3 8 5 3 5 4 5 3 4 5 3 5 8 3 6 4 7 3 5 4 3 5 5 3 4 5 5 5 3 4 5 5 6 5 3 4 5 5 6 4 7 4 3 5 5 4 1 6 4 4 5 3 4 5 6 3 3 4 7 3 6 3 1 5 6 6 5 4 4 6 3 4 7 3 2 5 4 6 4 5 2 6 3 6 5 3 3 4 4 4 5 4 5 4 5 6 5 2 3 6 5 4 2 6 5 6 4 6 5 4 3 5 3 6 5 3 4 4 5 3 1 4 6 4 6 4 6 2 4 5 5 4 5 6 6 3 4 3 4 4 5 4 4 2 4 2 3 3 4 2 5 3 5 3 2 5 3 5 4 2 3 5 4 4 7 2 4 7 5 6 2 4 6 3 4 3 3 4 7 5 7 4 6 4 4 5 3 4 5 4 3 4 5 6 4 5 3 3 3 3 4 5 5 6 4 3 4 4 3 4 3 2 3 7 5 5 4 6 5 5 5 4 6 5 5 5 2 4 4 6 3 3 3 5 5 5 5 4 4 5 2 3 5 5 3 4 4 3 4 4 4 3 3 5 3 6 5 3 4 5 4 5 4 5 2 5 5 4 3 4 6 7 5 3 5 4 3 4 5 4 2 6 3 5 3 3 1 3 3 5 4 
BTB PER SET COUNT: 5 1477 1475 285 6 5 7 6 5 3939 6 6 4 1464 4 7 4 9 6 6 5 3 5 7 6 3 5 4 13 5 4 492 4 7 5 5 7 4 6 6 8 6 7 2462 6 1064 170 7 8 6 1467 6 493 4 7 4 977 1465 5 5 991 3 6 9 7 3 5 9 6 4 4 5 3 7 5 7 5 10 989 6 8 6 5 8 6 7 6 6 490 977 4 8 5 4 6 6 9 8 5 7 7 6 6 8 366 5 4 4 5 7 5 4 502 5 6 5 6 8 4 6 11 7 6 8 11 6 6 13 11 5 8 8 7 4 6 5 4 4 5 978 975 14 4 9 8 5 4 4 9 14 6 7 8 6 7 2959 6 7 10 4 5 8 4 6 3 9 6 6 7 6 319 5 7 7 6 5 5 9 4 4 5 3 7 7 5 2 4 6 7 7 505 6 6 5 6 5 7 5 1477 8 4 8 9 5 5 7 6 4 36 4 9 11 5 368 4 7 6 489 7 7 4 5 5 503 9 6 4 7 6 6 6 5 7 7 6 6 6 7 4 6 8 9 3 7 4 9 7 5 4 3 119 6 4 5 6 7 1478 9 6 7 5 8 9 5 6 5 13 7 6 6 7 4 4 5 7 5 1021 5 6 5 7 98 2 6 4 7 6 7 6 5 3 8 4 7 13 651 9 5 6 4 6 5 1480 6 208 7 7 7 5 1487 7 3 7 5 4 5 6 6 6 5 4 5 159 7 6 5 7 6 2 5 3 5 5 19 4 4 4 5 6 9 5 6 6 6 7 10 7 4 6 8 7 5 6 5 7 8 3 8 6 139 6 7 1480 9 14724 6 111 4 7 4 5 5 6 491 4 6 1477 5 7 6 7 231 4 7 7 6 6 3 6 5 4 816 5 10 5 5 5 275 369 6 9 5 4 5 5 5 6 49 9 8 9 4 6 6 6 4 6 505 7 5 4 4 5 8 8 390 5 5 7 5 5 329 8 977 4 32 4 6 2920 4 8 5 4 6 558 1464 1478 10 7 3 6 243 3 5 8 6 10 4 9 1098 5 5 977 8 6 6 6 6 6 6 5 5 6 9 3 7 6 5 4 7 5 4 6 1475 197 12 5 5 6 8 1147 5 660 5 5 18 1467 4 5 5 9 7 7 4 467 6 3 7 7 3 3 3 6 1947 0 5 6 490 5 5 4 3 3 6 395 6 3 3 2 5 4 5 4 4 27 7 3 2 5 4 3 5 6 6 2 1476 6 7 4 3 3 1466 976 5 3 5 6 1 7 4 975 7826 5 7 3 7 1949 5 6 3 3 4 2 3 2 3 4 4 5 4 8 6 989 5 8 5 3 2 5 3 5 5 7 7 5 1477 3 5 6 3 4 4 976 5 6 4 978 2 4 5 4 6 994 6 3 4 1476 5 4 7 4 4 643 5 3 5 2 5 4 2 975 7 5 3 4 3 5 3 6 9 6 5 2 2 3 4 4 7 3 1 5 988 4 3 3 6 5 5 2 2 4 2 5 6 4 6 7 4 6 3 4 6 3 3556 5 3 2 6 4 494 3 4 2 6 5 4 3 1478 5 5 5 4 4 4 3 6 4 4 3 6 5 3 3 4 6 6 3 3 5 652 4 4 4 4 3 816 5 5 2 4 3 3 3 4 5 5 5 4 3 7 2 3 10 7 2 4 4 5 3 1484 3 4 7 7 3 2 5 3 6 5 3 4 6 2 4 5 2 4 40 4 8 4 7 53 2 7 4 5 2 11 6 3 1 3 7 4 5 5 2 3 6 3 6 4 8 3 4 5 219 4 6 4 6 4 7 1 7 1 3 3 7 5 5 2 5 4 3 8 4 10 4 5 2 4 3 5 5 5 6 5 5 3 6 6 3 3 4 3 5 504 8 4 4 8 6 4 5 5 3 3 11 989 2 4 4 4 990 3 3 988 3 990 5 8 5 4 6 4 3 4 2 2 4 6 492 3 3 6 5 4 4 2 5 5 1 5 4 5 4 7 5 3 4 5 3 3 6 2 1 0 6 5 2 1 2 7 3 3 4 3 6 2 4 975 4 3 4 11 4 978 7 3 3 6 5 4 429 2 3 3 3 988 9 5 2 4 1479 4 4 3 5 6 7 5 5 4 2 987 2 6 4 5 3 7 3 3 5 3 6 7 6 5 5 5 5 6 4 4 1949 2 15 4 6 5 4 1 492 4 3 5 6 5 5 15 5 7 3 4 5 3 2 1 4 5 5 3 5 1041 3 4 7 3 4 6 5 8 2 4 5 55 6 3 5 3 2 5 6 1990 2 491 5 6 5 4 4 4 1 4 3 4 5 522 5 4 5 1 5 505 5 2 2 5 3 2 3 5 7 3 1 4 6 3 35 6 6 14 978 5 4 9 4 3 6 5 3 3 4 1476 1477 3 4 3 7 3 3 6 5 6 6 4 4 4 3 4 6 4 4 5 3 8 6 4 6 1 4 5 4 2 2 2 3 4 2 7 6 4 18 5 90 4 7 6 7 2463 1 226 5 6 4 4 4 3 3 4 6 5 132 143 6 6 4 6 2 5 3 6 4 7 3 0 3 2 6 2 4 8 4 4 5 5 5 20610 4 5 3 4 4 977 5 4 5 5 1 1 3 1 5 4 4 3 4 6 5 3 4 4 4 5 5 6 1465 3 6 7 4 6 5 4 2 6 1475 3 6 4 7 4 4 4 2 2 6 4 5 3 12 491 5 3 2 2 4 6 3 5 4 5 32 2 5 367 1483 6 3 1474 3 5 3 7 6 8 6 1 4 7 4 5 3 9 4 5 1475 4 4 5 4 16 4 4 3 4 5 13 5 11 5 3 8 5 3 5 4 491 3 4 5 3 6 8 3 6 4 79 3 6 4 3 5 6 3 4 5 5 5 3 4 5 5 6 6 3 4 5 5 1048 4 7 4 3 5 5 4 1 6 4 4 5 3 4 5 6 4 3 7 19 3 7 3 1 1476 6 6 5 4 4 6 3 4 7 3 2 5 4 7 4 5 2 6 1476 7 1476 3 3 4 5 4 5 4 6 4 367 6 6 2 3 6 5 4 2 58 5 2950 4 6 367 1007 3 5 1350 6 5 7 4 4 5 4 1 4 10 4 6 4 6 2 4 5 6 4 5 6 494 3 4 3 4 4 5 7 5 3 5 2 3 3 4 2 5 3 5 3 2 5 3 5 4 2 3 5 4 4 30 2 5 7 5 6 2 6 7 3 4 3 3 4 7 5 7 5 6 4 4 5 3 4 2959 4 3 4 5 6 6 5 3 3 6 3 890 5 167 6 4 3 196 5 3 4 3 2 3 7 7 7 4 6 5 5 5 4 8 5 6 6 2 4 4 6 3 3 3 10 5 6 5 988 4 5 2 3 5 5 4 4 4 3 4 4 4 3 3 5 3 6 989 3 4 5 4 5 4 5 2 7 5 4 3 4 6 8 5 3 7 4 3 4 5 4 2 6 3 989 4 3 1 3 3 5 4 
To predecode: 0
Predecoding something: 0
Predecode request dropped: 0
sizeofblock_0 0
sizeofblock_1 58732
sizeofblock_2 74433
sizeofblock_3 0
sizeofblock_4 0
sizeofblock_5 0
sizeofblock_6 0
sizeofblock_7 0
sizeofblock_8 0
Variant_0 Correct: 1619556 Incorrect: 0 Accuracy: 1
Variant_1 Correct: 5753680 Incorrect: 0 Accuracy: 1
Variant_2 Correct: 0 Incorrect: 0 Accuracy: -nan
Variant_3 Correct: 0 Incorrect: 0 Accuracy: -nan
