
*** ChampSim Multicore Out-of-Order Simulator ***

Warmup Instructions: 50000000
Simulation Instructions: 50000000
Number of CPUs: 1
LLC sets: 2048
LLC ways: 16
Off-chip DRAM Size: 4096 MB Channels: 1 Width: 64-bit Data Rate: 6400 MT/s
CPU 0 runs ./micro_traces/srv106.trace.gz
.gz
ITLB has LRU replacement policy
DTLB has LRU replacement policy
STLB has LRU replacement policy
L1I has LRU replacement policy
L1D has LRU replacement policy
Initialize SRRIP state for L2C
Initialize DRRIP state for LLC
Heartbeat_Variant_0 : 1371 0.334717 per_variant_size: 0 1371 0 0 0 0 0 0 0 
Heartbeat_Variant_1 : 1268 0.30957 per_variant_size: 0 557 711 0 0 0 0 0 0 
Heartbeat_Variant_2 : 1336 0.326172 per_variant_size: 0 533 338 245 220 0 0 0 0 
Heartbeat_Variant_3 : 0 0 per_variant_size: 0 0 0 0 0 0 0 0 0 
Heartbeat_Variant_0_evicts 0 : 5930 1 : 451 2 : 437 3 : 0 
Heartbeat_Variant_1_evicts 0 : 434 1 : 0 2 : 560 3 : 0 
Heartbeat_Variant_2_evicts 0 : 417 1 : 543 2 : 0 3 : 0 
Heartbeat_Variant_3_evicts 0 : 0 1 : 0 2 : 0 3 : 0 
Heartbeat CPU 0 instructions: 10000000 cycles: 2797742 heartbeat IPC: 3.57431 cumulative IPC: 3.57431 (Simulation time: 0 hr 1 min 19 sec) 
Heartbeat_Variant_0 : 1380 0.336914 per_variant_size: 0 1380 0 0 0 0 0 0 0 
Heartbeat_Variant_1 : 1294 0.315918 per_variant_size: 0 540 754 0 0 0 0 0 0 
Heartbeat_Variant_2 : 1353 0.330322 per_variant_size: 0 535 343 239 236 0 0 0 0 
Heartbeat_Variant_3 : 0 0 per_variant_size: 0 0 0 0 0 0 0 0 0 
Heartbeat_Variant_0_evicts 0 : 5845 1 : 197 2 : 175 3 : 0 
Heartbeat_Variant_1_evicts 0 : 206 1 : 0 2 : 381 3 : 0 
Heartbeat_Variant_2_evicts 0 : 170 1 : 382 2 : 0 3 : 0 
Heartbeat_Variant_3_evicts 0 : 0 1 : 0 2 : 0 3 : 0 
Heartbeat CPU 0 instructions: 20000003 cycles: 5593714 heartbeat IPC: 3.57657 cumulative IPC: 3.57544 (Simulation time: 0 hr 2 min 35 sec) 
Heartbeat_Variant_0 : 1393 0.340088 per_variant_size: 0 1393 0 0 0 0 0 0 0 
Heartbeat_Variant_1 : 1288 0.314453 per_variant_size: 0 527 761 0 0 0 0 0 0 
Heartbeat_Variant_2 : 1357 0.331299 per_variant_size: 0 523 356 236 242 0 0 0 0 
Heartbeat_Variant_3 : 0 0 per_variant_size: 0 0 0 0 0 0 0 0 0 
Heartbeat_Variant_0_evicts 0 : 5658 1 : 107 2 : 106 3 : 0 
Heartbeat_Variant_1_evicts 0 : 104 1 : 0 2 : 278 3 : 0 
Heartbeat_Variant_2_evicts 0 : 96 1 : 288 2 : 0 3 : 0 
Heartbeat_Variant_3_evicts 0 : 0 1 : 0 2 : 0 3 : 0 
Heartbeat CPU 0 instructions: 30000001 cycles: 8390593 heartbeat IPC: 3.57541 cumulative IPC: 3.57543 (Simulation time: 0 hr 3 min 53 sec) 
Heartbeat_Variant_0 : 1393 0.340088 per_variant_size: 0 1393 0 0 0 0 0 0 0 
Heartbeat_Variant_1 : 1290 0.314941 per_variant_size: 0 528 762 0 0 0 0 0 0 
Heartbeat_Variant_2 : 1355 0.330811 per_variant_size: 0 520 355 240 240 0 0 0 0 
Heartbeat_Variant_3 : 0 0 per_variant_size: 0 0 0 0 0 0 0 0 0 
Heartbeat_Variant_0_evicts 0 : 5593 1 : 9 2 : 0 3 : 0 
Heartbeat_Variant_1_evicts 0 : 8 1 : 0 2 : 200 3 : 0 
Heartbeat_Variant_2_evicts 0 : 1 1 : 197 2 : 0 3 : 0 
Heartbeat_Variant_3_evicts 0 : 0 1 : 0 2 : 0 3 : 0 
Heartbeat CPU 0 instructions: 40000001 cycles: 11186314 heartbeat IPC: 3.57689 cumulative IPC: 3.5758 (Simulation time: 0 hr 5 min 6 sec) 
Heartbeat_Variant_0 : 1396 0.34082 per_variant_size: 0 1396 0 0 0 0 0 0 0 
Heartbeat_Variant_1 : 1293 0.315674 per_variant_size: 0 551 742 0 0 0 0 0 0 
Heartbeat_Variant_2 : 1363 0.332764 per_variant_size: 0 524 351 248 240 0 0 0 0 
Heartbeat_Variant_3 : 0 0 per_variant_size: 0 0 0 0 0 0 0 0 0 
Heartbeat_Variant_0_evicts 0 : 5726 1 : 175 2 : 166 3 : 0 
Heartbeat_Variant_1_evicts 0 : 167 1 : 0 2 : 364 3 : 0 
Heartbeat_Variant_2_evicts 0 : 175 1 : 361 2 : 0 3 : 0 
Heartbeat_Variant_3_evicts 0 : 0 1 : 0 2 : 0 3 : 0 
Heartbeat CPU 0 instructions: 50000003 cycles: 13982533 heartbeat IPC: 3.57626 cumulative IPC: 3.57589 (Simulation time: 0 hr 6 min 20 sec) 

Warmup complete CPU 0 instructions: 50000003 cycles: 13982533 (Simulation time: 0 hr 6 min 20 sec) 

Cycle: 20000000 FTQ IN: 55103268 FTQ occupancy: 15.573 DECODE IN: 55103268 DECODE occupancy: 9.41573 ROB IN: 55103268 ROB occupancy: 257.524 ROB OUT: 55103247
Heartbeat_Variant_0 : 1395 0.340576 per_variant_size: 0 1395 0 0 0 0 0 0 0 
Heartbeat_Variant_1 : 1292 0.31543 per_variant_size: 0 548 744 0 0 0 0 0 0 
Heartbeat_Variant_2 : 1365 0.333252 per_variant_size: 0 526 348 259 232 0 0 0 0 
Heartbeat_Variant_3 : 0 0 per_variant_size: 0 0 0 0 0 0 0 0 0 
Heartbeat_Variant_0_evicts 0 : 5543 1 : 2 2 : 7 3 : 0 
Heartbeat_Variant_1_evicts 0 : 5 1 : 0 2 : 195 3 : 0 
Heartbeat_Variant_2_evicts 0 : 5 1 : 199 2 : 0 3 : 0 
Heartbeat_Variant_3_evicts 0 : 0 1 : 0 2 : 0 3 : 0 
Heartbeat CPU 0 instructions: 60000002 cycles: 25778757 heartbeat IPC: 0.847729 cumulative IPC: 0.847729 (Simulation time: 0 hr 7 min 32 sec) 
Cycle: 30000000 FTQ IN: 8491516 FTQ occupancy: 13.8662 DECODE IN: 8491505 DECODE occupancy: 4.65647 ROB IN: 8491502 ROB occupancy: 47.1433 ROB OUT: 8491391
Heartbeat_Variant_0 : 1393 0.340088 per_variant_size: 0 1393 0 0 0 0 0 0 0 
Heartbeat_Variant_1 : 1297 0.31665 per_variant_size: 0 563 734 0 0 0 0 0 0 
Heartbeat_Variant_2 : 1366 0.333496 per_variant_size: 0 516 360 254 236 0 0 0 0 
Heartbeat_Variant_3 : 0 0 per_variant_size: 0 0 0 0 0 0 0 0 0 
Heartbeat_Variant_0_evicts 0 : 5670 1 : 71 2 : 71 3 : 0 
Heartbeat_Variant_1_evicts 0 : 73 1 : 0 2 : 277 3 : 0 
Heartbeat_Variant_2_evicts 0 : 72 1 : 274 2 : 0 3 : 0 
Heartbeat_Variant_3_evicts 0 : 0 1 : 0 2 : 0 3 : 0 
Heartbeat CPU 0 instructions: 70000001 cycles: 37715817 heartbeat IPC: 0.837727 cumulative IPC: 0.842698 (Simulation time: 0 hr 8 min 43 sec) 
Cycle: 40000000 FTQ IN: 8344173 FTQ occupancy: 13.8784 DECODE IN: 8344180 DECODE occupancy: 4.63677 ROB IN: 8344180 ROB occupancy: 48.8137 ROB OUT: 8344261
Heartbeat_Variant_0 : 1394 0.340332 per_variant_size: 0 1394 0 0 0 0 0 0 0 
Heartbeat_Variant_1 : 1299 0.317139 per_variant_size: 0 563 736 0 0 0 0 0 0 
Heartbeat_Variant_2 : 1363 0.332764 per_variant_size: 0 514 358 264 227 0 0 0 0 
Heartbeat_Variant_3 : 0 0 per_variant_size: 0 0 0 0 0 0 0 0 0 
Heartbeat_Variant_0_evicts 0 : 5574 1 : 0 2 : 6 3 : 0 
Heartbeat_Variant_1_evicts 0 : 1 1 : 0 2 : 198 3 : 0 
Heartbeat_Variant_2_evicts 0 : 4 1 : 197 2 : 0 3 : 0 
Heartbeat_Variant_3_evicts 0 : 0 1 : 0 2 : 0 3 : 0 
Heartbeat CPU 0 instructions: 80000000 cycles: 49535005 heartbeat IPC: 0.846082 cumulative IPC: 0.843823 (Simulation time: 0 hr 10 min 2 sec) 
Cycle: 50000000 FTQ IN: 8446719 FTQ occupancy: 13.8268 DECODE IN: 8446705 DECODE occupancy: 4.64454 ROB IN: 8446708 ROB occupancy: 47.3274 ROB OUT: 8446756
Cycle: 60000000 FTQ IN: 8389664 FTQ occupancy: 13.912 DECODE IN: 8389672 DECODE occupancy: 4.66187 ROB IN: 8389660 ROB occupancy: 49.631 ROB OUT: 8389658
Heartbeat_Variant_0 : 1396 0.34082 per_variant_size: 0 1396 0 0 0 0 0 0 0 
Heartbeat_Variant_1 : 1297 0.31665 per_variant_size: 0 558 739 0 0 0 0 0 0 
Heartbeat_Variant_2 : 1364 0.333008 per_variant_size: 0 511 360 259 234 0 0 0 0 
Heartbeat_Variant_3 : 0 0 per_variant_size: 0 0 0 0 0 0 0 0 0 
Heartbeat_Variant_0_evicts 0 : 5656 1 : 22 2 : 22 3 : 0 
Heartbeat_Variant_1_evicts 0 : 16 1 : 0 2 : 220 3 : 0 
Heartbeat_Variant_2_evicts 0 : 26 1 : 216 2 : 0 3 : 0 
Heartbeat_Variant_3_evicts 0 : 0 1 : 0 2 : 0 3 : 0 
Heartbeat CPU 0 instructions: 90000001 cycles: 61451580 heartbeat IPC: 0.839167 cumulative IPC: 0.842654 (Simulation time: 0 hr 11 min 13 sec) 
Cycle: 70000000 FTQ IN: 8451717 FTQ occupancy: 13.8351 DECODE IN: 8451714 DECODE occupancy: 4.64484 ROB IN: 8451714 ROB occupancy: 47.6075 ROB OUT: 8451668
Heartbeat_Variant_0 : 1402 0.342285 per_variant_size: 0 1402 0 0 0 0 0 0 0 
Heartbeat_Variant_1 : 1287 0.314209 per_variant_size: 0 537 750 0 0 0 0 0 0 
Heartbeat_Variant_2 : 1371 0.334717 per_variant_size: 0 520 358 268 225 0 0 0 0 
Heartbeat_Variant_3 : 0 0 per_variant_size: 0 0 0 0 0 0 0 0 0 
Heartbeat_Variant_0_evicts 0 : 5679 1 : 60 2 : 52 3 : 0 
Heartbeat_Variant_1_evicts 0 : 59 1 : 0 2 : 238 3 : 0 
Heartbeat_Variant_2_evicts 0 : 48 1 : 247 2 : 0 3 : 0 
Heartbeat_Variant_3_evicts 0 : 0 1 : 0 2 : 0 3 : 0 
Heartbeat CPU 0 instructions: 100000000 cycles: 73275706 heartbeat IPC: 0.845728 cumulative IPC: 0.843267 (Simulation time: 0 hr 12 min 23 sec) 
Finished CPU 0 instructions: 50000001 cycles: 59293174 cumulative IPC: 0.843267 (Simulation time: 0 hr 12 min 23 sec) 

ChampSim completed all CPUs

Region of Interest Statistics

CPU 0 cumulative IPC: 0.843267 instructions: 50000001 cycles: 59293174
 Fetch stage stalled: 37.5799  Sim cycles: 59293174 fetch stall cycle: 22282337
 Empty decode stage: 70.8793  Sim cycles: 59293174 fetch stall cycle: 42026609
ITLB TOTAL     ACCESS:    7248844  HIT:    6754636  MISS:     494208  HIT %:    93.1823  MISS %:    6.81775   MPKI: 9.88416
ITLB LOAD TRANSLATION INSTRUCTION	ACCESS:    7248844  HIT:    6754636  MISS:     494208  HIT %:    93.1823  MISS %:    6.81775  MPKI: 9.88416

ITLB AVERAGE MISS LATENCY: 9.03293 cycles
ITLB RQ	ACCESS:    8394725	FORWARD:          0	MERGED:     940376	TO_CACHE:    7454349

DTLB TOTAL     ACCESS:   10480957  HIT:   10003692  MISS:     477265  HIT %:    95.4464  MISS %:    4.55364   MPKI: 9.5453
DTLB LOAD TRANSLATION DATA	ACCESS:   10480957  HIT:   10003692  MISS:     477265  HIT %:    95.4464  MISS %:    4.55364  MPKI: 9.5453

DTLB AVERAGE MISS LATENCY: 9.27703 cycles
DTLB RQ	ACCESS:   14548333	FORWARD:          0	MERGED:    4039760	TO_CACHE:   10508573

STLB TOTAL     ACCESS:    1229621  HIT:    1227734  MISS:       1887  HIT %:    99.8465  MISS %:   0.153462   MPKI: 0.03774
STLB LOAD TRANSLATION INSTRUCTION	ACCESS:     494207  HIT:     493981  MISS:        226  HIT %:    99.9543  MISS %:  0.0457298  MPKI: 0.00452
STLB LOAD TRANSLATION DATA	ACCESS:     477262  HIT:     475625  MISS:       1637  HIT %:     99.657  MISS %:   0.342998  MPKI: 0.03274
STLB TRANSLATION FROM L1D PREFETCHER DATA	ACCESS:     258152  HIT:     258128  MISS:         24  HIT %:    99.9907  MISS %: 0.00929685  MPKI: 0.00048

STLB AVERAGE MISS LATENCY: 67.7891 cycles
STLB RQ	ACCESS:    1346991	FORWARD:          0	MERGED:     117339	TO_CACHE:    1229652

STLB Hit, L1D data hit: 0
STLB Hit, L2C data hit: 0
STLB Hit, LLC data hit: 0
STLB Hit, LLC data miss: 0
STLB STLB hints to L2: 0
L1D TOTAL     ACCESS:   14352341  HIT:   13240392  MISS:    1111949  HIT %:    92.2525  MISS %:    7.74751   MPKI: 22.239
L1D LOAD DATA	ACCESS:    7689070  HIT:    6956320  MISS:     732750  HIT %:    90.4702  MISS %:    9.52976  MPKI: 14.655
L1D RFO DATA	ACCESS:    6328878  HIT:    6041156  MISS:     287722  HIT %:    95.4538  MISS %:    4.54618  MPKI: 5.75444
L1D PREFETCH DATA	ACCESS:     334393  HIT:     242916  MISS:      91477  HIT %:    72.6439  MISS %:    27.3561  MPKI: 1.82954

L1D PREFETCH  REQUESTED:     751201  ISSUED:     751201  USEFUL:      33992  USELESS:      66199
L1D USEFUL LOAD PREFETCHES:      33992 PREFETCH ISSUED TO LOWER LEVEL:     100287  ACCURACY: 33.8947
 TIMELY PREFETCHES:      33992 LATE PREFETCHES: 8713 DROPPED PREFETCHES: 4
L1D AVERAGE MISS LATENCY: 344738 cycles
L1D RQ	ACCESS:   11489784	FORWARD:          0	MERGED:    3622271	TO_CACHE:    7717712
L1D WQ	ACCESS:    6941900	FORWARD:     149966	MERGED:     111279	TO_CACHE:    6830621
L1D PQ	ACCESS:     375683	FORWARD:          0	MERGED:          0	TO_CACHE:     375518

L1D UNIQUE REGIONS ACCESSED: 0
L1D REGIONS CONFLICTS: 0
L1D Cross Page Prefetch Requests: 6726
L1D Same Page Prefetch Requests: 755759
L1D ROI Sum of L1D PQ occupancy: 4762856
L1D PREFETCHES PUSHED FROM L2C: 0
L1I TOTAL     ACCESS:    7904236  HIT:    5142163  MISS:    2762073  HIT %:    65.0558  MISS %:    34.9442   MPKI: 55.2415
L1I LOAD INSTRUCTION	ACCESS:    7904236  HIT:    5142163  MISS:    2762073  HIT %:    65.0558  MISS %:    34.9442  MPKI: 55.2415

L1I AVERAGE MISS LATENCY: 16.9786 cycles
L1I RQ	ACCESS:   15230633	FORWARD:          0	MERGED:    6835908	TO_CACHE:    8394725

L1BTB TOTAL     ACCESS:    5671245  HIT:    2044402  MISS:    3626843  HIT %:    36.0486  MISS %:    63.9514   MPKI: 72.5369
L1BTB BRANCH_DIRECT_JUMP	ACCESS:     548142  HIT:     144818  MISS:     403324	AVERAGE STALL: 21.3527
L1BTB BRANCH_INDIRECT	ACCESS:     182828  HIT:      66083  MISS:     116745	AVERAGE STALL: 48.4006
L1BTB BRANCH_CONDITIONAL	ACCESS:    2706373  HIT:    1414231  MISS:    1292142	AVERAGE STALL: 32.1482
L1BTB BRANCH_DIRECT_CALL	ACCESS:     944780  HIT:     106337  MISS:     838443	AVERAGE STALL: 40.971
L1BTB BRANCH_INDIRECT_CALL	ACCESS:     172168  HIT:      21814  MISS:     150354	AVERAGE STALL: 64.2038
L1BTB BRANCH_RETURN	ACCESS:    1116954  HIT:     291119  MISS:     825835	AVERAGE STALL: 33.6912
L1BTB BRANCH_OTHER ACCESS:          0  HIT:          0  MISS:          0	AVERAGE STALL: -nan
L1BTB TOTAL ROB OCCUPANCY AT BTB MISS: 0.537349

L2BTB TOTAL     ACCESS:    3601473  HIT:    3537351  MISS:      64122  HIT %:    98.2196  MISS %:    1.78044   MPKI: 1.28244
L2BTB BRANCH_DIRECT_JUMP	ACCESS:     399163  HIT:     395073  MISS:       4090	AVERAGE STALL: 21.3527
L2BTB BRANCH_INDIRECT	ACCESS:     106474  HIT:     103862  MISS:       2612	AVERAGE STALL: 48.4006
L2BTB BRANCH_CONDITIONAL	ACCESS:    1292142  HIT:    1288427  MISS:       3715	AVERAGE STALL: 32.1482
L2BTB BRANCH_DIRECT_CALL	ACCESS:     838443  HIT:     837501  MISS:        942	AVERAGE STALL: 40.971
L2BTB BRANCH_INDIRECT_CALL	ACCESS:     140815  HIT:     129834  MISS:      10981	AVERAGE STALL: 64.2038
L2BTB BRANCH_RETURN	ACCESS:     824436  HIT:     782654  MISS:      41782	AVERAGE STALL: 33.6912
L2BTB BRANCH_OTHER ACCESS:          0  HIT:          0  MISS:          0	AVERAGE STALL: -nan
L2BTB TOTAL ROB OCCUPANCY AT BTB MISS: 30.3933

L2C TOTAL     ACCESS:    4477494  HIT:    4018589  MISS:     458905  HIT %:    89.7509  MISS %:    10.2491   MPKI: 9.1781
L2C LOAD INSTRUCTION	ACCESS:    2762073  HIT:    2502874  MISS:     259199  HIT %:    90.6158  MISS %:    9.38422  MPKI: 5.18398
L2C LOAD TRANSLATION INSTRUCTION	ACCESS:        257  HIT:         62  MISS:        195  HIT %:    24.1245  MISS %:    75.8755  MPKI: 0.0039
L2C LOAD DATA	ACCESS:     724024  HIT:     656005  MISS:      68019  HIT %:    90.6054  MISS %:    9.39458  MPKI: 1.36038
L2C RFO DATA	ACCESS:     287607  HIT:     240300  MISS:      47307  HIT %:    83.5515  MISS %:    16.4485  MPKI: 0.94614
L2C PREFETCH DATA	ACCESS:     181881  HIT:     111536  MISS:      70345  HIT %:    61.3236  MISS %:    38.6764  MPKI: 1.4069
L2C WRITEBACK DATA	ACCESS:     519910  HIT:     507298  MISS:      12612  HIT %:    97.5742  MISS %:     2.4258  MPKI: 0.25224
L2C LOAD TRANSLATION DATA	ACCESS:       1703  HIT:        485  MISS:       1218  HIT %:    28.4792  MISS %:    71.5208  MPKI: 0.02436
L2C TRANSLATION FROM L1D PREFETCHER DATA	ACCESS:         39  HIT:         29  MISS:         10  HIT %:     74.359  MISS %:     25.641  MPKI: 0.0002

L2C PREFETCH  REQUESTED:      87878  ISSUED:      87878  USEFUL:       7916  USELESS:      62896
L2C USEFUL LOAD PREFETCHES:       7916 PREFETCH ISSUED TO LOWER LEVEL:      70737  ACCURACY: 11.1907
 TIMELY PREFETCHES:       7916 LATE PREFETCHES: 392 DROPPED PREFETCHES: 0
L2C AVERAGE MISS LATENCY: 38.1559 cycles
L2C RQ	ACCESS:    3775734	FORWARD:          0	MERGED:          0	TO_CACHE:    3775703
L2C WQ	ACCESS:     519910	FORWARD:         31	MERGED:          0	TO_CACHE:     519910
L2C PQ	ACCESS:     188165	FORWARD:          0	MERGED:       3434	TO_CACHE:     184731

L2C Dense regions hint from L2: 0
PSCL5 TOTAL     ACCESS:       3786  HIT:       1893  MISS:       1893  HIT %:         50  MISS %:         50   MPKI: 0.03786
PSCL5 LOAD TRANSLATION INSTRUCTION	ACCESS:       3708  HIT:       1854  MISS:       1854  HIT %:         50  MISS %:         50  MPKI: 0.03708
PSCL5 TRANSLATION FROM L1D PREFETCHER INSTRUCTION	ACCESS:         78  HIT:         39  MISS:         39  HIT %:         50  MISS %:         50  MPKI: 0.00078


PSCL4 TOTAL     ACCESS:       3679  HIT:       1835  MISS:       1844  HIT %:    49.8777  MISS %:    50.1223   MPKI: 0.03688
PSCL4 LOAD TRANSLATION INSTRUCTION	ACCESS:       3287  HIT:       1805  MISS:       1482  HIT %:    54.9133  MISS %:    45.0867  MPKI: 0.02964
PSCL4 TRANSLATION FROM L1D PREFETCHER INSTRUCTION	ACCESS:         60  HIT:         30  MISS:         30  HIT %:         50  MISS %:         50  MPKI: 0.0006
PSCL4 LOAD TRANSLATION DATA	ACCESS:        332  HIT:          0  MISS:        332  HIT %:          0  MISS %:        100  MPKI: 0.00664


PSCL3 TOTAL     ACCESS:       3703  HIT:       1847  MISS:       1856  HIT %:    49.8785  MISS %:    50.1215   MPKI: 0.03712
PSCL3 LOAD TRANSLATION INSTRUCTION	ACCESS:       3299  HIT:       1817  MISS:       1482  HIT %:    55.0773  MISS %:    44.9227  MPKI: 0.02964
PSCL3 TRANSLATION FROM L1D PREFETCHER INSTRUCTION	ACCESS:         60  HIT:         30  MISS:         30  HIT %:         50  MISS %:         50  MPKI: 0.0006
PSCL3 LOAD TRANSLATION DATA	ACCESS:        344  HIT:          0  MISS:        344  HIT %:          0  MISS %:        100  MPKI: 0.00688


PSCL2 TOTAL     ACCESS:       3698  HIT:       1805  MISS:       1893  HIT %:    48.8102  MISS %:    51.1898   MPKI: 0.03786
PSCL2 LOAD TRANSLATION INSTRUCTION	ACCESS:       1994  HIT:       1766  MISS:        228  HIT %:    88.5657  MISS %:    11.4343  MPKI: 0.00456
PSCL2 TRANSLATION FROM L1D PREFETCHER INSTRUCTION	ACCESS:         39  HIT:         39  MISS:          0  HIT %:        100  MISS %:          0  MPKI: 0
PSCL2 LOAD TRANSLATION DATA	ACCESS:       1626  HIT:          0  MISS:       1626  HIT %:          0  MISS %:        100  MPKI: 0.03252
PSCL2 TRANSLATION FROM L1D PREFETCHER DATA	ACCESS:         39  HIT:          0  MISS:         39  HIT %:          0  MISS %:        100  MPKI: 0.00078


LLC TOTAL     ACCESS:     514564  HIT:     487998  MISS:      26566  HIT %:    94.8372  MISS %:    5.16282   MPKI: 0.53132
LLC LOAD INSTRUCTION	ACCESS:     259199  HIT:     258472  MISS:        727  HIT %:    99.7195  MISS %:   0.280479  MPKI: 0.01454
LLC LOAD TRANSLATION INSTRUCTION	ACCESS:        195  HIT:        177  MISS:         18  HIT %:    90.7692  MISS %:    9.23077  MPKI: 0.00036
LLC LOAD DATA	ACCESS:      67637  HIT:      64431  MISS:       3206  HIT %:      95.26  MISS %:    4.74001  MPKI: 0.06412
LLC RFO DATA	ACCESS:      47297  HIT:      34247  MISS:      13050  HIT %:    72.4084  MISS %:    27.5916  MPKI: 0.261
LLC PREFETCH DATA	ACCESS:      70736  HIT:      61552  MISS:       9184  HIT %:    87.0165  MISS %:    12.9835  MPKI: 0.18368
LLC WRITEBACK DATA	ACCESS:      68272  HIT:      67963  MISS:        309  HIT %:    99.5474  MISS %:   0.452601  MPKI: 0.00618
LLC LOAD TRANSLATION DATA	ACCESS:       1218  HIT:       1146  MISS:         72  HIT %:    94.0887  MISS %:    5.91133  MPKI: 0.00144
LLC TRANSLATION FROM L1D PREFETCHER DATA	ACCESS:         10  HIT:         10  MISS:          0  HIT %:        100  MISS %:          0  MPKI: 0

LLC AVERAGE MISS LATENCY: 154.172 cycles
LLC RQ	ACCESS:     375556	FORWARD:          0	MERGED:          0	TO_CACHE:     375556
LLC WQ	ACCESS:      68272	FORWARD:          1	MERGED:          0	TO_CACHE:      68272
LLC PQ	ACCESS:      70737	FORWARD:          0	MERGED:          0	TO_CACHE:      70736

LLC Dense regions hint to LLC: 0

RAW hits: 1140204
Loads Generated: 12629988
Loads sent to L1D: 11489784
Stores Generated: 6941893
Stores sent to L1D: 6941900
Major fault: 0 Minor fault: 2625
Allocated PAGES: 2625

stream: 
stream:times selected: 1182849
stream:pref_filled: 119993
stream:pref_useful: 24685
stream:pref_late: 6014
stream:misses: 7221
stream:misses_by_poll: 0

CS: 
CS:times selected: 179860
CS:pref_filled: 58775
CS:pref_useful: 35959
CS:pref_late: 7607
CS:misses: 16927
CS:misses_by_poll: 3

CPLX: 
CPLX:times selected: 1001991
CPLX:pref_filled: 21137
CPLX:pref_useful: 4977
CPLX:pref_late: 3051
CPLX:misses: 92113
CPLX:misses_by_poll: 0

NL_L1: 
NL:times selected: 19778
NL:pref_filled: 635
NL:pref_useful: 324
NL:pref_late: 320
NL:misses: 1389
NL:misses_by_poll: 0

total selections: 2384478
total_filled: 91477
total_useful: 33992
total_late: 18386
total_polluted: 3
total_misses_after_warmup: 761393
conflicts: 6036638

test: 117356

DRAM Statistics
 CHANNEL 0
 RQ ROW_BUFFER_HIT:       9821  ROW_BUFFER_MISS:      16414
 DBUS_CONGESTED:         12
 WQ ROW_BUFFER_HIT:       1309  ROW_BUFFER_MISS:      11270  FULL:          0

 AVG_CONGESTED_CYCLE: 3

CPU 0 Branch Prediction Accuracy: 99.831% MPKI: 0.30916 Average ROB Occupancy at Mispredict: 70.0428
Branch types
NOT_BRANCH: 40852982 81.706%
BRANCH_DIRECT_JUMP: 548142 1.09628%
BRANCH_INDIRECT: 182828 0.365656%
BRANCH_CONDITIONAL: 6181860 12.3637%
BRANCH_DIRECT_CALL: 944780 1.88956%
BRANCH_INDIRECT_CALL: 172168 0.344336%
BRANCH_RETURN: 1116954 2.23391%
BRANCH_OTHER: 0 0%

DRAM PAGES: 1048576
Allocated PAGES: 2625
Average_ROB_Occupancy: 48.7947
Average_Decode_Occupancy: 4.64663
Average_FTQ_Occupancy: 13.8558
Indirect max targets: 14 Average targets: 1.17778
Branch_type:  BRANCH_DIRECT_JUMP:  Count Percentage: 2.90036 4.15041 4.87239 3.14878 8.88741 6.01526 7.41586 62.6095 
Branch_type:  BRANCH_INDIRECT:  Count Percentage: 11.7663 0.802761 2.5424 0 13.0163 10.8059 17.3602 43.706 
Branch_type:  BRANCH_CONDITIONAL:  Count Percentage: 22.1516 1.74859 1.84009 2.47722 5.05649 5.26941 5.32327 56.1334 
Branch_type:  BRANCH_DIRECT_CALL:  Count Percentage: 0.388133 1.76778 1.14628 1.75973 5.99307 3.35114 4.30214 81.2917 
Branch_type:  BRANCH_INDIRECT_CALL:  Count Percentage: 9.51419 0 2.98247 6.39017 1.40651 2.02503 2.84237 74.8393 
Branch_type:  BRANCH_RETURN:  Count Percentage: 4.83543 1.87972 1.48876 6.22186 7.18422 5.97035 6.4941 65.9255 
Branch_type:  BRANCH_DIRECT_JUMP:  Total Count: 31768 45460 53368 34489 97345 65886 81227 685771 
Branch_type:  BRANCH_INDIRECT:  Total Count: 42990 2933 9289 0 47557 39481 63428 159686 
Branch_type:  BRANCH_CONDITIONAL:  Total Count: 2736858 216041 227346 306064 624737 651043 657698 6935365 
Branch_type:  BRANCH_DIRECT_CALL:  Total Count: 7328 33376 21642 33224 113150 63270 81225 1534800 
Branch_type:  BRANCH_INDIRECT_CALL:  Total Count: 32733 0 10261 21985 4839 6967 9779 257480 
Branch_type:  BRANCH_RETURN:  Total Count: 107972 41973 33243 138930 160419 133314 145009 1472074 
Number of unique branch instructions: 10774
Upper 32 bits: 
aaaa
ffff
ffff0000
Unique upper 32 bits: 3
Unique upper 36 bits: 3
Unique upper 40 bits: 5
Unique upper 44 bits: 32
Unique upper 48 bits: 158
Variant_0 : 1402 0.342285
Variant_1 : 1287 0.314209
Variant_2 : 1371 0.334717
Variant_3 : 0 0
Offset_3 4459
Offset_4 256
Offset_5 480
Offset_6 537
Offset_7 639
Offset_8 572
Offset_9 521
Offset_10 425
Offset_11 354
Offset_12 327
Offset_13 238
Offset_14 245
Offset_15 194
Offset_16 230
Offset_17 167
Offset_18 149
Offset_19 256
Offset_20 143
Offset_21 235
Offset_22 411
Offset_23 241
Offset_24 351
Offset_25 117
Offset_47 94
decode_dispatch_called: 30629882 51.6584
Dispatch_width: 0 18523582 60.4755 31.2407
Dispatch_width: 1 2316951 7.56435 3.90762
Dispatch_width: 2 1128020 3.68274 1.90244
Dispatch_width: 3 1094834 3.5744 1.84648
Dispatch_width: 4 1001658 3.2702 1.68933
Dispatch_width: 5 1253437 4.0922 2.11397
Dispatch_width: 6 5311400 17.3406 8.95786
Empty_decode_cycles: 28663292 48.3416
ROB_full_cycles: 449651 0.758352
Starvation_cycles_per_kilo_instr: 535.321
Starvation_cycles_per_kilo_instr_3: 512.77
Starvation_cycles_per_kilo_instr_0: 467.372
Branch_type_1  (3,1)  (4,9)  (5,39)  (6,72)  (7,125)  (8,146)  (9,136)  (10,111)  (11,79)  (12,55)  (13,11)  (14,2)  (15,3)  (16,4)  (18,1)  (19,5)  (20,2)  (21,1)  (22,3)  (23,2)  (24,10)  (25,12) 
Branch_type_2  (3,1)  (4,1)  (5,1)  (8,4)  (9,4)  (10,1)  (12,1)  (13,1)  (14,1)  (16,3)  (17,2)  (20,2)  (21,2)  (23,5)  (24,1)  (47,43) 
Branch_type_3  (3,4457)  (4,246)  (5,436)  (6,449)  (7,485)  (8,357)  (9,287)  (10,171)  (11,140)  (12,62)  (13,10) 
Branch_type_4  (6,3)  (7,8)  (8,24)  (9,56)  (10,67)  (11,69)  (12,117)  (13,101)  (14,111)  (15,92)  (16,101)  (17,78)  (18,65)  (19,124)  (20,73)  (21,124)  (22,216)  (23,136)  (24,206)  (25,101) 
Branch_type_5  (8,3)  (9,1)  (10,4)  (11,5)  (12,3)  (13,14)  (14,16)  (15,11)  (16,22)  (17,11)  (18,23)  (19,14)  (20,11)  (21,13)  (22,43)  (23,26)  (24,38) 
Branch_type_6  (5,4)  (6,13)  (7,21)  (8,38)  (9,37)  (10,71)  (11,61)  (12,89)  (13,101)  (14,115)  (15,88)  (16,100)  (17,76)  (18,60)  (19,113)  (20,55)  (21,95)  (22,149)  (23,72)  (24,96)  (25,4)  (47,51) 
Unique trigger count: 
Variant_0_evicts_0 : 0
Variant_0_evicts_1 : 0
Variant_0_evicts_2 : 0
Variant_0_evicts_3 : 0
Variant_1_evicts_0 : 0
Variant_1_evicts_1 : 0
Variant_1_evicts_2 : 0
Variant_1_evicts_3 : 0
Variant_2_evicts_0 : 0
Variant_2_evicts_1 : 0
Variant_2_evicts_2 : 0
Variant_2_evicts_3 : 0
Variant_3_evicts_0 : 0
Variant_3_evicts_1 : 0
Variant_3_evicts_2 : 0
Variant_3_evicts_3 : 0
BTB PER SET UNIQUE ADDR: 13 16 9 15 10 13 11 8 13 12 7 11 18 10 10 10 12 15 14 10 10 11 10 11 9 14 12 15 10 14 12 18 19 10 8 15 11 15 9 11 10 12 10 18 11 9 11 9 17 8 11 8 13 12 8 6 12 11 7 14 9 14 10 11 12 17 13 9 13 10 10 12 12 10 9 9 10 16 7 16 16 5 12 15 11 12 10 11 13 18 11 8 12 9 6 13 11 13 11 14 17 16 15 12 15 14 16 13 7 10 11 15 13 12 12 7 15 14 10 12 12 10 9 12 13 13 7 12 19 13 9 13 9 16 8 14 10 8 10 19 12 13 12 10 14 9 13 8 8 12 13 19 11 9 8 13 17 13 13 11 12 10 14 13 10 14 14 11 18 8 10 11 10 15 13 10 11 11 12 14 10 11 11 10 17 10 8 8 16 7 13 8 12 13 11 13 8 12 9 12 15 11 11 7 10 13 12 15 13 12 13 15 12 12 12 16 11 11 14 16 6 13 12 9 11 9 18 12 9 17 8 9 7 12 13 15 13 9 13 7 16 11 17 16 10 9 8 12 10 11 15 12 15 8 12 8 12 9 10 11 10 10 6 14 13 5 12 12 10 11 9 15 11 9 8 11 9 11 11 13 12 13 9 8 17 11 9 20 16 12 13 12 15 14 5 16 13 14 13 15 11 11 13 14 16 14 11 8 14 7 13 16 10 19 9 9 16 12 13 14 10 23 13 11 12 17 13 9 9 10 13 16 11 13 10 15 13 11 6 10 13 10 8 15 16 11 12 12 12 10 11 11 12 13 14 16 11 9 13 10 11 14 6 22 10 10 9 12 16 11 18 10 15 16 12 17 9 15 15 14 11 12 6 11 16 15 16 13 13 12 11 10 14 13 10 9 11 10 13 13 9 11 14 12 18 12 13 15 14 12 11 7 8 15 12 9 12 16 17 19 10 14 11 14 12 7 14 10 9 10 19 8 12 11 10 12 13 11 11 13 15 13 12 15 20 10 11 15 12 10 15 10 15 8 16 16 14 12 5 15 9 13 9 13 15 7 12 10 18 15 11 10 16 12 9 15 13 15 9 11 18 10 16 14 9 17 14 11 18 7 10 11 8 7 16 11 15 14 9 13 12 15 8 20 9 9 13 18 20 13 14 17 16 9 16 18 12 19 13 12 9 14 9 8 13 14 12 9 8 15 15 17 14 12 13 11 11 12 16 14 12 11 16 13 15 18 11 11 9 14 14 18 12 13 14 14 13 10 17 16 17 20 9 14 10 15 12 15 15 20 15 13 12 16 12 12 19 21 14 11 15 11 9 15 14 12 17 10 16 15 12 13 10 10 17 9 10 13 11 12 13 10 11 8 10 13 20 14 13 7 15 16 8 8 5 21 12 14 14 17 12 10 9 11 13 18 8 16 8 15 11 16 11 15 15 12 9 16 10 16 13 14 11 13 15 12 14 17 19 12 11 17 9 10 11 10 10 12 14 14 8 9 10 12 11 12 8 14 10 9 11 13 12 19 14 11 17 14 14 16 10 19 10 19 13 13 15 14 17 16 12 9 16 6 8 11 9 11 11 13 9 8 12 12 7 15 11 10 13 11 14 14 8 12 13 9 16 11 8 11 13 11 10 9 13 8 14 14 10 10 17 12 9 10 11 16 15 13 18 9 8 13 10 10 14 16 16 11 10 11 14 7 13 14 11 11 13 9 10 10 11 8 8 10 10 14 9 12 14 10 13 14 11 9 12 9 15 10 13 10 8 13 7 8 16 11 11 11 7 8 11 11 13 17 13 15 12 9 15 5 11 12 16 12 16 13 10 9 17 9 18 20 8 14 14 15 18 20 8 17 13 17 6 9 12 10 14 12 17 11 14 15 17 11 11 15 11 14 8 10 10 16 10 9 15 19 10 13 9 15 12 12 9 14 16 15 14 10 16 15 17 15 9 13 19 9 12 9 20 9 11 13 15 12 14 5 13 12 9 11 11 8 8 20 17 17 15 9 13 11 17 10 9 12 8 12 19 13 13 8 15 9 13 14 8 13 10 12 14 10 13 11 10 11 11 14 18 13 14 10 13 13 8 9 15 14 8 14 5 8 21 17 12 12 10 16 12 11 13 13 11 16 11 11 12 15 11 14 9 13 12 17 9 12 9 8 13 14 13 9 16 13 13 19 14 10 16 13 9 12 10 12 15 12 11 9 16 13 21 20 14 14 10 11 9 17 14 15 9 13 18 14 13 15 15 10 11 13 15 11 17 19 8 11 11 15 9 15 6 14 14 15 16 8 10 15 7 9 5 11 9 19 8 7 
BTB PER SET COUNT: 27 28 1963 19 11 17 16 8 1480 14 7 14 20238 15 13 15 17 2468 227 12 15 16 97 15 9 16 15 723 12 1455 13 293 32 12 9 1166 17 24 12 1136 11 12 14 56 15 12 13 13 1001 9 15 114 17 17 9 6 13 14 10 26 9 3437 415 13 12 62 14 1166 16 20 1479 991 14 10 9 12 14 21 10 16 23 6 18 19 17 18 12 11 50 24 12 9 507 446 6 17 990 336 17 19 19 23 22 15 106 23 19 22 183 12 12 20 976 17 25 10 25 16 1478 27 423 11 10 13 13 35 7 16 31 907 11 14 9 29 54 28 971 10 14 31 17 20 15 12 22 9 282 15 9 110 15 307 1434 9 11 23 426 20 15 431 14 238 56 13 1461 393 16 14 25 1832 12 13 16 19 15 12 14 20 22 636 238 137 21 11 953 13 8 12 561 7 18 8 16 17 11 145 9 14 10 24 20 13 14 7 12 16 15 331 20 601 16 19 12 3344 24 587 14 21 1048 24 7 22 403 10 14 24 30 15 10 29 8 16 7 15 367 425 15 14 20 15 58 11 27 20 22 10 13 14 13 15 16 21 20 8 16 8 14 11 14 15 218 15 6 21 16 5 19 15 209 12 9 993 13 14 8 13 10 14 13 16 13 14 12 264 24 15 10 508 34 13 15 13 17 22 5 22 523 15 15 25 12 14 109 22 18 14 107 11 19 985 567 24 12 20 1213 28 28 16 25 21 17 73 20 11 1382 1420 289 12 9 10 23 24 21 17 12 20 22 13 7 11 16 43 8 21 132 12 15 14 18 15 13 13 18 19 23 18 16 10 19 11 12 16 7 28 12 39 9 17 20 20 36 11 23 1923 970 22 13 23 95 965 351 16 802 13 25 18 1405 18 16 838 18 10 24 18 11 988 16 11 20 15 14 13 14 22 27 15 18 187 15 13 29 7 8 30 14 9 16 28 25 23 10 21 13 17 25 10 17 15 34 12 27 8 15 15 500 21 18 13 17 13 20 24 15 26 1997 10 410 24 15 12 1419 11 18 11 21 25 26 16 5 25 11 13 16 19 23 7 1067 11 24 26 13 18 25 17 9 18 21 19 9 16 23 15 16 19 655 434 510 13 29 8 956 15 7827 7 28 23 995 966 12 22 13 20 8 39 14 11 21 30 36 13 22 720 24 987 21 21 17 19 27 674 9 21 12 9 18 20 1358 17 9 61 23 31 17 16 17 20 12 31 22 18 13 20 43 15 17 57 13 13 12 1740 17 30 27 999 20 20 20 10 22 18 18 34 16 17 17 22 182 19 21 128 1227 15 13 24 72 14 78 69 15 15 15 14 13 2583 15 16 485 18 17 18 16 26 624 13 37 10 48 385 256 17 15 17 113 8 14 18 29 2101 13 9 22 29 208 9 5 27 13 20 344 23 19 17 12 193 19 22 10 18 9 38 15 22 948 16 30 414 15 21 12 27 21 19 11 38 28 169 561 26 204 17 13 31 11 10 120 14 15 18 21 997 8 10 10 12 401 13 12 576 1481 13 15 14 21 29 18 292 22 21 17 36 10 28 271 133 15 14 22 16 23 21 14 10 24 6 10 17 10 15 15 22 799 18 499 13 11 20 12 11 46 13 396 19 9 14 81 11 119 13 8 15 27 67 11 2439 2466 10 22 17 10 33 101 11180 11 14 11 21 213 15 28 14 1223 25 14 12 800 18 52 11 13 17 1456 15 994 1975 1141 16 20 11 10 12 20 9 9 364 2939 16 9 1276 16 10 80 22 20 17 14 18 22 497 15 13 515 17 981 11 22 13 13 13 7 8 12 781 20 20 1355 135 17 10 17 5 12 17 21 376 35 18 10 9 24 52 23 31 11 20 456 2532 33 45 14 1072 23 270 10 10 14 10 18 15 27 13 19 18 26 12 416 853 13 15 8 13 15 28 13 15 493 21 14 16 17 19 18 1795 23 19 24 21 122 13 25 19 25 28 11 17 595 13 12 11 24 12 11 17 18 14 20 7 14 18 9 11 20 8 8 41 990 1476 18 11 15 388 30 1475 1967 13 8 23 28 13 14 14 25 11 21 342 13 32 14 15 138 13 95 50 14 18 11 377 21 21 18 11 15 15 983 12 15 353 9 19 5 9 24 23 12 19 78 30 14 17 22 18 11 24 23 12 14 21 19 21 10 17 18 614 1476 1986 10 9 17 21 155 10 22 22 507 23 21 12 20 16 43 12 13 14 16 14 101 10 20 14 30 26 18 642 13 991 9 24 17 436 12 13 28 195 20 25 21 13 14 37 23 12 282 1494 9 19 13 18 11 20 6 671 337 20 18 8 11 21 7 373 5 12 9 522 11 7 
To predecode: 0
Predecoding something: 0
Predecode request dropped: 0
sizeofblock_0 0
sizeofblock_1 39218
sizeofblock_2 36114
sizeofblock_3 40687
sizeofblock_4 22523
sizeofblock_5 0
sizeofblock_6 0
sizeofblock_7 0
sizeofblock_8 0
Variant_0 Correct: 1611200 Incorrect: 0 Accuracy: 1
Variant_1 Correct: 2086756 Incorrect: 0 Accuracy: 1
Variant_2 Correct: 3640258 Incorrect: 0 Accuracy: 1
Variant_3 Correct: 0 Incorrect: 0 Accuracy: -nan
