
*** ChampSim Multicore Out-of-Order Simulator ***

Warmup Instructions: 50000000
Simulation Instructions: 50000000
Number of CPUs: 1
LLC sets: 2048
LLC ways: 16
Off-chip DRAM Size: 4096 MB Channels: 1 Width: 64-bit Data Rate: 6400 MT/s
CPU 0 runs ./micro_traces/srv192.trace.gz
.gz
ITLB has LRU replacement policy
DTLB has LRU replacement policy
STLB has LRU replacement policy
CPU 0 L1I next line prefetcher
L1I has LRU replacement policy
L1D has LRU replacement policy
Initialize SRRIP state for L2C
Initialize DRRIP state for LLC
Heartbeat CPU 0 instructions: 10000000 cycles: 2798144 heartbeat IPC: 3.5738 cumulative IPC: 3.5738 (Simulation time: 0 hr 1 min 42 sec) 
Heartbeat CPU 0 instructions: 20000001 cycles: 5594621 heartbeat IPC: 3.57593 cumulative IPC: 3.57486 (Simulation time: 0 hr 3 min 21 sec) 
Heartbeat CPU 0 instructions: 30000002 cycles: 8391074 heartbeat IPC: 3.57596 cumulative IPC: 3.57523 (Simulation time: 0 hr 4 min 57 sec) 
Heartbeat CPU 0 instructions: 40000001 cycles: 11187745 heartbeat IPC: 3.57568 cumulative IPC: 3.57534 (Simulation time: 0 hr 6 min 34 sec) 
Heartbeat CPU 0 instructions: 50000002 cycles: 13983444 heartbeat IPC: 3.57692 cumulative IPC: 3.57566 (Simulation time: 0 hr 8 min 12 sec) 

Warmup complete CPU 0 instructions: 50000002 cycles: 13983444 (Simulation time: 0 hr 8 min 12 sec) 

Cycle: 20000000 FTQ IN: 57578380 FTQ occupancy: 17.9451 DECODE IN: 57578374 DECODE occupancy: 47.1976 ROB IN: 57578374 ROB occupancy: 296.034 ROB OUT: 57578257
Heartbeat CPU 0 instructions: 60000000 cycles: 22023553 heartbeat IPC: 1.24376 cumulative IPC: 1.24376 (Simulation time: 0 hr 9 min 38 sec) 
Heartbeat CPU 0 instructions: 70000002 cycles: 29824661 heartbeat IPC: 1.28187 cumulative IPC: 1.26253 (Simulation time: 0 hr 11 min 2 sec) 
Cycle: 30000000 FTQ IN: 12645172 FTQ occupancy: 5.97868 DECODE IN: 12645162 DECODE occupancy: 17.2177 ROB IN: 12645154 ROB occupancy: 177.135 ROB OUT: 12644919
Heartbeat CPU 0 instructions: 80000000 cycles: 37659596 heartbeat IPC: 1.27633 cumulative IPC: 1.2671 (Simulation time: 0 hr 12 min 24 sec) 
Cycle: 40000000 FTQ IN: 12669700 FTQ occupancy: 6.11805 DECODE IN: 12669694 DECODE occupancy: 17.3556 ROB IN: 12669685 ROB occupancy: 175.472 ROB OUT: 12669689
Heartbeat CPU 0 instructions: 90000001 cycles: 45558081 heartbeat IPC: 1.26607 cumulative IPC: 1.26684 (Simulation time: 0 hr 13 min 48 sec) 
Cycle: 50000000 FTQ IN: 12769910 FTQ occupancy: 6.00844 DECODE IN: 12769928 DECODE occupancy: 17.1801 ROB IN: 12769945 ROB occupancy: 175.578 ROB OUT: 12770178
Heartbeat CPU 0 instructions: 100000001 cycles: 53403499 heartbeat IPC: 1.27463 cumulative IPC: 1.26839 (Simulation time: 0 hr 15 min 11 sec) 
Finished CPU 0 instructions: 50000003 cycles: 39420056 cumulative IPC: 1.26839 (Simulation time: 0 hr 15 min 11 sec) 

ChampSim completed all CPUs

Region of Interest Statistics

CPU 0 cumulative IPC: 1.26839 instructions: 50000003 cycles: 39420056
 Fetch stage stalled: 66.4041  Sim cycles: 39420056 fetch stall cycle: 26176515
 Empty decode stage: 49.6009  Sim cycles: 39420056 fetch stall cycle: 19552711
ITLB TOTAL     ACCESS:    7553682  HIT:    6943202  MISS:     610480  HIT %:    91.9181  MISS %:    8.08189   MPKI: 12.2096
ITLB LOAD TRANSLATION INSTRUCTION	ACCESS:    5826383  HIT:    5696092  MISS:     130291  HIT %:    97.7638  MISS %:    2.23622  MPKI: 2.60582
ITLB TRANSLATION FROM L1D PREFETCHER INSTRUCTION	ACCESS:    1727299  HIT:    1247110  MISS:     480189  HIT %:       72.2  MISS %:       27.8  MPKI: 9.60378

ITLB AVERAGE MISS LATENCY: 156532 cycles
ITLB RQ	ACCESS:   11460531	FORWARD:          0	MERGED:    3750174	TO_CACHE:    7710357

DTLB TOTAL     ACCESS:    9103326  HIT:    8634209  MISS:     469117  HIT %:    94.8468  MISS %:    5.15325   MPKI: 9.38234
DTLB LOAD TRANSLATION DATA	ACCESS:    9103326  HIT:    8634209  MISS:     469117  HIT %:    94.8468  MISS %:    5.15325  MPKI: 9.38234

DTLB AVERAGE MISS LATENCY: 9.36489 cycles
DTLB RQ	ACCESS:   13443714	FORWARD:          0	MERGED:    4305453	TO_CACHE:    9138261

STLB TOTAL     ACCESS:    1327240  HIT:    1325181  MISS:       2059  HIT %:    99.8449  MISS %:   0.155134   MPKI: 0.04118
STLB LOAD TRANSLATION INSTRUCTION	ACCESS:     127312  HIT:     127138  MISS:        174  HIT %:    99.8633  MISS %:   0.136672  MPKI: 0.00348
STLB TRANSLATION FROM L1D PREFETCHER INSTRUCTION	ACCESS:     483168  HIT:     483100  MISS:         68  HIT %:    99.9859  MISS %:  0.0140738  MPKI: 0.00136
STLB LOAD TRANSLATION DATA	ACCESS:     469117  HIT:     467321  MISS:       1796  HIT %:    99.6172  MISS %:   0.382847  MPKI: 0.03592
STLB TRANSLATION FROM L1D PREFETCHER DATA	ACCESS:     247643  HIT:     247622  MISS:         21  HIT %:    99.9915  MISS %: 0.00847995  MPKI: 0.00042

STLB AVERAGE MISS LATENCY: 84.7237 cycles
STLB RQ	ACCESS:    1452100	FORWARD:          0	MERGED:     121223	TO_CACHE:    1330877

STLB Hit, L1D data hit: 0
STLB Hit, L2C data hit: 0
STLB Hit, LLC data hit: 0
STLB Hit, LLC data miss: 0
STLB STLB hints to L2: 0
L1D TOTAL     ACCESS:   13181287  HIT:   12060209  MISS:    1121078  HIT %:    91.4949  MISS %:    8.50507   MPKI: 22.4216
L1D LOAD DATA	ACCESS:    6643746  HIT:    5902369  MISS:     741377  HIT %:     88.841  MISS %:     11.159  MPKI: 14.8275
L1D RFO DATA	ACCESS:    6211969  HIT:    5926258  MISS:     285711  HIT %:    95.4006  MISS %:    4.59936  MPKI: 5.71422
L1D PREFETCH DATA	ACCESS:     325572  HIT:     231582  MISS:      93990  HIT %:    71.1308  MISS %:    28.8692  MPKI: 1.8798

L1D PREFETCH  REQUESTED:     738351  ISSUED:     738351  USEFUL:      34193  USELESS:      68828
L1D USEFUL LOAD PREFETCHES:      34193 PREFETCH ISSUED TO LOWER LEVEL:     103096  ACCURACY: 33.1662
 TIMELY PREFETCHES:      34193 LATE PREFETCHES: 9036 DROPPED PREFETCHES: 7
L1D AVERAGE MISS LATENCY: 265235 cycles
L1D RQ	ACCESS:   10756398	FORWARD:          0	MERGED:    3909981	TO_CACHE:    6682906
L1D WQ	ACCESS:    6949231	FORWARD:     164036	MERGED:     188423	TO_CACHE:    6760808
L1D PQ	ACCESS:     369438	FORWARD:          0	MERGED:          0	TO_CACHE:     368913

L1D UNIQUE REGIONS ACCESSED: 0
L1D REGIONS CONFLICTS: 0
L1D Cross Page Prefetch Requests: 6245
L1D Same Page Prefetch Requests: 747631
L1D ROI Sum of L1D PQ occupancy: 4699989
L1D PREFETCHES PUSHED FROM L2C: 0
L1I TOTAL     ACCESS:   11048148  HIT:    7416819  MISS:    3631329  HIT %:    67.1318  MISS %:    32.8682   MPKI: 72.6266
L1I LOAD INSTRUCTION	ACCESS:    6573805  HIT:    5964512  MISS:     609293  HIT %:    90.7315  MISS %:     9.2685  MPKI: 12.1859
L1I PREFETCH INSTRUCTION	ACCESS:    4474343  HIT:    1452307  MISS:    3022036  HIT %:    32.4586  MISS %:    67.5414  MPKI: 60.4407

L1I PREFETCH  REQUESTED:    5194904  ISSUED:    5194428  USEFUL:    2349795  USELESS:     777438
L1I USEFUL LOAD PREFETCHES:    2349795 PREFETCH ISSUED TO LOWER LEVEL:    3127193  ACCURACY: 75.1407
 TIMELY PREFETCHES:    2349795 LATE PREFETCHES: 105157 DROPPED PREFETCHES: 10119
L1I AVERAGE MISS LATENCY: 972249 cycles
L1I RQ	ACCESS:    9441903	FORWARD:          0	MERGED:    2823808	TO_CACHE:    6618095
L1I PQ	ACCESS:    5194428	FORWARD:          0	MERGED:     351992	TO_CACHE:    4842436

L1BTB TOTAL     ACCESS:    5669843  HIT:    2035098  MISS:    3634745  HIT %:    35.8934  MISS %:    64.1066   MPKI: 72.6949
L1BTB BRANCH_DIRECT_JUMP	ACCESS:     548317  HIT:     144291  MISS:     404026	AVERAGE STALL: 23.6883
L1BTB BRANCH_INDIRECT	ACCESS:     182414  HIT:      65643  MISS:     116771	AVERAGE STALL: 110.192
L1BTB BRANCH_CONDITIONAL	ACCESS:    2700531  HIT:    1405901  MISS:    1294630	AVERAGE STALL: 28.3452
L1BTB BRANCH_DIRECT_CALL	ACCESS:     946963  HIT:     106409  MISS:     840554	AVERAGE STALL: 28.8456
L1BTB BRANCH_INDIRECT_CALL	ACCESS:     172330  HIT:      21724  MISS:     150606	AVERAGE STALL: 125.599
L1BTB BRANCH_RETURN	ACCESS:    1119288  HIT:     291130  MISS:     828158	AVERAGE STALL: 30.0462
L1BTB BRANCH_OTHER ACCESS:          0  HIT:          0  MISS:          0	AVERAGE STALL: -nan
L1BTB TOTAL ROB OCCUPANCY AT BTB MISS: 16.6518

L2BTB1 TOTAL     ACCESS:    3609412  HIT:    3206782  MISS:     402630  HIT %:     88.845  MISS %:     11.155   MPKI: 8.0526
L2BTB1 BRANCH_DIRECT_JUMP	ACCESS:     399908  HIT:     363784  MISS:      36124	AVERAGE STALL: 23.6883
L2BTB1 BRANCH_INDIRECT	ACCESS:     106452  HIT:      84144  MISS:      22308	AVERAGE STALL: 110.192
L2BTB1 BRANCH_CONDITIONAL	ACCESS:    1294630  HIT:    1186541  MISS:     108089	AVERAGE STALL: 28.3452
L2BTB1 BRANCH_DIRECT_CALL	ACCESS:     840554  HIT:     727556  MISS:     112998	AVERAGE STALL: 28.8456
L2BTB1 BRANCH_INDIRECT_CALL	ACCESS:     141124  HIT:     117112  MISS:      24012	AVERAGE STALL: 125.599
L2BTB1 BRANCH_RETURN	ACCESS:     826744  HIT:     727645  MISS:      99099	AVERAGE STALL: 30.0462
L2BTB1 BRANCH_OTHER ACCESS:          0  HIT:          0  MISS:          0	AVERAGE STALL: -nan
L2BTB1 TOTAL ROB OCCUPANCY AT BTB MISS: 150.325

L2C TOTAL     ACCESS:    6589724  HIT:    5537641  MISS:    1052083  HIT %:    84.0345  MISS %:    15.9655   MPKI: 21.0417
L2C LOAD INSTRUCTION	ACCESS:     504136  HIT:     411000  MISS:      93136  HIT %:    81.5256  MISS %:    18.4744  MPKI: 1.86272
L2C PREFETCH INSTRUCTION	ACCESS:    3127193  HIT:    2711940  MISS:     415253  HIT %:    86.7212  MISS %:    13.2788  MPKI: 8.30506
L2C LOAD TRANSLATION INSTRUCTION	ACCESS:        193  HIT:         60  MISS:        133  HIT %:    31.0881  MISS %:    68.9119  MPKI: 0.00266
L2C TRANSLATION FROM L1D PREFETCHER INSTRUCTION	ACCESS:       4678  HIT:       4412  MISS:        266  HIT %:    94.3138  MISS %:    5.68619  MPKI: 0.00532
L2C LOAD DATA	ACCESS:     732320  HIT:     592288  MISS:     140032  HIT %:    80.8783  MISS %:    19.1217  MPKI: 2.80064
L2C RFO DATA	ACCESS:     285615  HIT:     190710  MISS:      94905  HIT %:    66.7717  MISS %:    33.2283  MPKI: 1.8981
L2C PREFETCH DATA	ACCESS:    1410869  HIT:    1149589  MISS:     261280  HIT %:    81.4809  MISS %:    18.5191  MPKI: 5.2256
L2C WRITEBACK DATA	ACCESS:     522810  HIT:     477205  MISS:      45605  HIT %:    91.2769  MISS %:    8.72305  MPKI: 0.9121
L2C LOAD TRANSLATION DATA	ACCESS:       1872  HIT:        408  MISS:       1464  HIT %:    21.7949  MISS %:    78.2051  MPKI: 0.02928
L2C TRANSLATION FROM L1D PREFETCHER DATA	ACCESS:         38  HIT:         29  MISS:          9  HIT %:    76.3158  MISS %:    23.6842  MPKI: 0.00018

L2C PREFETCH  REQUESTED:    3231268  ISSUED:    3231268  USEFUL:      30207  USELESS:     648487
L2C USEFUL LOAD PREFETCHES:      30207 PREFETCH ISSUED TO LOWER LEVEL:     677776  ACCURACY: 4.45678
 TIMELY PREFETCHES:      30207 LATE PREFETCHES: 1242 DROPPED PREFETCHES: 0
L2C AVERAGE MISS LATENCY: 33.289 cycles
L2C RQ	ACCESS:    1528899	FORWARD:          0	MERGED:          0	TO_CACHE:    1528852
L2C WQ	ACCESS:     522810	FORWARD:         48	MERGED:          0	TO_CACHE:     522810
L2C PQ	ACCESS:    6461557	FORWARD:          0	MERGED:    1901625	TO_CACHE:    4559931

L2C Dense regions hint from L2: 0
PSCL5 TOTAL     ACCESS:      11316  HIT:       5658  MISS:       5658  HIT %:         50  MISS %:         50   MPKI: 0.11316
PSCL5 LOAD TRANSLATION INSTRUCTION	ACCESS:       3924  HIT:       1962  MISS:       1962  HIT %:         50  MISS %:         50  MPKI: 0.03924
PSCL5 TRANSLATION FROM L1D PREFETCHER INSTRUCTION	ACCESS:       7392  HIT:       3696  MISS:       3696  HIT %:         50  MISS %:         50  MPKI: 0.07392


PSCL4 TOTAL     ACCESS:      10400  HIT:       5197  MISS:       5203  HIT %:    49.9712  MISS %:    50.0288   MPKI: 0.10406
PSCL4 LOAD TRANSLATION INSTRUCTION	ACCESS:       1870  HIT:       1805  MISS:         65  HIT %:    96.5241  MISS %:    3.47594  MPKI: 0.0013
PSCL4 TRANSLATION FROM L1D PREFETCHER INSTRUCTION	ACCESS:       3400  HIT:       3392  MISS:          8  HIT %:    99.7647  MISS %:   0.235294  MPKI: 0.00016
PSCL4 LOAD TRANSLATION DATA	ACCESS:       1746  HIT:          0  MISS:       1746  HIT %:          0  MISS %:        100  MPKI: 0.03492
PSCL4 TRANSLATION FROM L1D PREFETCHER DATA	ACCESS:       3384  HIT:          0  MISS:       3384  HIT %:          0  MISS %:        100  MPKI: 0.06768


PSCL3 TOTAL     ACCESS:      10448  HIT:       5221  MISS:       5227  HIT %:    49.9713  MISS %:    50.0287   MPKI: 0.10454
PSCL3 LOAD TRANSLATION INSTRUCTION	ACCESS:       1894  HIT:       1829  MISS:         65  HIT %:    96.5681  MISS %:    3.43189  MPKI: 0.0013
PSCL3 TRANSLATION FROM L1D PREFETCHER INSTRUCTION	ACCESS:       3400  HIT:       3392  MISS:          8  HIT %:    99.7647  MISS %:   0.235294  MPKI: 0.00016
PSCL3 LOAD TRANSLATION DATA	ACCESS:       1770  HIT:          0  MISS:       1770  HIT %:          0  MISS %:        100  MPKI: 0.0354
PSCL3 TRANSLATION FROM L1D PREFETCHER DATA	ACCESS:       3384  HIT:          0  MISS:       3384  HIT %:          0  MISS %:        100  MPKI: 0.06768


PSCL2 TOTAL     ACCESS:       9197  HIT:       4542  MISS:       4655  HIT %:    49.3857  MISS %:    50.6143   MPKI: 0.0931
PSCL2 LOAD TRANSLATION INSTRUCTION	ACCESS:       2063  HIT:       1866  MISS:        197  HIT %:    90.4508  MISS %:     9.5492  MPKI: 0.00394
PSCL2 TRANSLATION FROM L1D PREFETCHER INSTRUCTION	ACCESS:       5313  HIT:       2676  MISS:       2637  HIT %:     50.367  MISS %:     49.633  MPKI: 0.05274
PSCL2 LOAD TRANSLATION DATA	ACCESS:       1782  HIT:          0  MISS:       1782  HIT %:          0  MISS %:        100  MPKI: 0.03564
PSCL2 TRANSLATION FROM L1D PREFETCHER DATA	ACCESS:         39  HIT:          0  MISS:         39  HIT %:          0  MISS %:        100  MPKI: 0.00078


LLC TOTAL     ACCESS:    1143103  HIT:    1113208  MISS:      29895  HIT %:    97.3848  MISS %:    2.61525   MPKI: 0.5979
LLC LOAD INSTRUCTION	ACCESS:      92459  HIT:      91771  MISS:        688  HIT %:    99.2559  MISS %:   0.744114  MPKI: 0.01376
LLC PREFETCH INSTRUCTION	ACCESS:     413179  HIT:     412715  MISS:        464  HIT %:    99.8877  MISS %:     0.1123  MPKI: 0.00928
LLC LOAD TRANSLATION INSTRUCTION	ACCESS:        133  HIT:         83  MISS:         50  HIT %:     62.406  MISS %:     37.594  MPKI: 0.001
LLC TRANSLATION FROM L1D PREFETCHER INSTRUCTION	ACCESS:        266  HIT:        253  MISS:         13  HIT %:    95.1128  MISS %:    4.88722  MPKI: 0.00026
LLC LOAD DATA	ACCESS:     139481  HIT:     135645  MISS:       3836  HIT %:    97.2498  MISS %:     2.7502  MPKI: 0.07672
LLC RFO DATA	ACCESS:      94880  HIT:      81091  MISS:      13789  HIT %:    85.4669  MISS %:    14.5331  MPKI: 0.27578
LLC PREFETCH DATA	ACCESS:     264597  HIT:     253950  MISS:      10647  HIT %:    95.9761  MISS %:    4.02386  MPKI: 0.21294
LLC WRITEBACK DATA	ACCESS:     136635  HIT:     136355  MISS:        280  HIT %:    99.7951  MISS %:   0.204926  MPKI: 0.0056
LLC LOAD TRANSLATION DATA	ACCESS:       1464  HIT:       1336  MISS:        128  HIT %:    91.2568  MISS %:    8.74317  MPKI: 0.00256
LLC TRANSLATION FROM L1D PREFETCHER DATA	ACCESS:          9  HIT:          9  MISS:          0  HIT %:        100  MISS %:          0  MPKI: 0

LLC AVERAGE MISS LATENCY: 159.973 cycles
LLC RQ	ACCESS:     328703	FORWARD:          0	MERGED:          0	TO_CACHE:     328692
LLC WQ	ACCESS:     136635	FORWARD:         11	MERGED:          0	TO_CACHE:     136635
LLC PQ	ACCESS:     677776	FORWARD:          0	MERGED:          0	TO_CACHE:     677776

LLC Dense regions hint to LLC: 0

RAW hits: 1875285
Loads Generated: 12631682
Loads sent to L1D: 10756398
Stores Generated: 6949229
Stores sent to L1D: 6949231
Major fault: 0 Minor fault: 2596
Allocated PAGES: 2596
I-Shadow cache 408 bytes
Touched + WorthPF tables 12288 bytes 
MMA filter 174 bytes 
FNL filter 272 bytes 
TOTAL PREFETCHER STORAGE SIZE: 31318 bytes
CPU 0 L1I next line prefetcher final stats

stream: 
stream:times selected: 1180119
stream:pref_filled: 117925
stream:pref_useful: 22120
stream:pref_late: 8347
stream:misses: 8109
stream:misses_by_poll: 0

CS: 
CS:times selected: 175443
CS:pref_filled: 53491
CS:pref_useful: 30049
CS:pref_late: 13064
CS:misses: 22141
CS:misses_by_poll: 6

CPLX: 
CPLX:times selected: 1003476
CPLX:pref_filled: 20120
CPLX:pref_useful: 4360
CPLX:pref_late: 3251
CPLX:misses: 96954
CPLX:misses_by_poll: 1

NL_L1: 
NL:times selected: 19083
NL:pref_filled: 554
NL:pref_useful: 219
NL:pref_late: 398
NL:misses: 1545
NL:misses_by_poll: 0

total selections: 2378121
total_filled: 93990
total_useful: 34193
total_late: 26666
total_polluted: 7
total_misses_after_warmup: 780540
conflicts: 5574239

test: 114430

DRAM Statistics
 CHANNEL 0
 RQ ROW_BUFFER_HIT:      10507  ROW_BUFFER_MISS:      19097
 DBUS_CONGESTED:         10
 WQ ROW_BUFFER_HIT:       1581  ROW_BUFFER_MISS:      12677  FULL:          0

 AVG_CONGESTED_CYCLE: 5

CPU 0 Branch Prediction Accuracy: 99.8107% MPKI: 0.3463 Average ROB Occupancy at Mispredict: 162.968
Branch types
NOT_BRANCH: 40850852 81.7017%
BRANCH_DIRECT_JUMP: 548317 1.09663%
BRANCH_INDIRECT: 182414 0.364828%
BRANCH_CONDITIONAL: 6179556 12.3591%
BRANCH_DIRECT_CALL: 946963 1.89393%
BRANCH_INDIRECT_CALL: 172330 0.34466%
BRANCH_RETURN: 1119288 2.23858%
BRANCH_OTHER: 0 0%

DRAM PAGES: 1048576
Allocated PAGES: 2596
Average_ROB_Occupancy: 176.761
Average_Decode_Occupancy: 17.2631
Average_FTQ_Occupancy: 6.06251
Indirect max targets: 14 Average targets: 1.17949
Branch_type:  BRANCH_DIRECT_JUMP:  Count Percentage: 3.23343 6.23306 3.41642 5.7858 4.68841 5.96085 0.92626 69.7558 
Branch_type:  BRANCH_INDIRECT:  Count Percentage: 11.7558 3.40709 2.50286 9.68466 11.3362 4.0163 2.01527 55.2818 
Branch_type:  BRANCH_CONDITIONAL:  Count Percentage: 20.964 3.81136 1.17722 4.19444 3.2944 4.35092 0.695035 61.5126 
Branch_type:  BRANCH_DIRECT_CALL:  Count Percentage: 0.769625 1.27911 1.11834 3.35525 3.18152 2.3497 0.699501 87.2469 
Branch_type:  BRANCH_INDIRECT_CALL:  Count Percentage: 9.55496 0.559713 2.9957 4.83883 1.09791 2.98989 0.995563 76.9674 
Branch_type:  BRANCH_RETURN:  Count Percentage: 5.64004 0.829496 1.62737 6.04179 3.84413 4.62107 1.13061 76.2655 
Branch_type:  BRANCH_DIRECT_JUMP:  Total Count: 35446 68329 37452 63426 51396 65345 10154 764688 
Branch_type:  BRANCH_INDIRECT:  Total Count: 42916 12438 9137 35355 41384 14662 7357 201813 
Branch_type:  BRANCH_CONDITIONAL:  Total Count: 2590387 470945 145461 518280 407068 537615 85881 7600724 
Branch_type:  BRANCH_DIRECT_CALL:  Total Count: 14553 24187 21147 63445 60160 44431 13227 1649770 
Branch_type:  BRANCH_INDIRECT_CALL:  Total Count: 32862 1925 10303 16642 3776 10283 3424 264711 
Branch_type:  BRANCH_RETURN:  Total Count: 126094 18545 36383 135076 85943 103313 25277 1705063 
Number of unique branch instructions: 10649
Upper 32 bits: 
aaaa
ffff
ffff0000
Unique upper 32 bits: 3
Unique upper 36 bits: 3
Unique upper 40 bits: 5
Unique upper 44 bits: 32
Unique upper 48 bits: 157
Offset_3 4410
Offset_4 251
Offset_5 474
Offset_6 534
Offset_7 629
Offset_8 564
Offset_9 513
Offset_10 418
Offset_11 353
Offset_12 322
Offset_13 232
Offset_14 245
Offset_15 194
Offset_16 227
Offset_17 164
Offset_18 149
Offset_19 251
Offset_20 140
Offset_21 235
Offset_22 410
Offset_23 241
Offset_24 341
Offset_25 117
Offset_47 92
decode_dispatch_called: 21679416 54.9959
Dispatch_width: 0 10727025 49.4802 27.2121
Dispatch_width: 1 749703 3.45813 1.90183
Dispatch_width: 2 911597 4.2049 2.31252
Dispatch_width: 3 606665 2.79835 1.53898
Dispatch_width: 4 3055091 14.0921 7.75009
Dispatch_width: 5 389415 1.79624 0.98786
Dispatch_width: 6 5239920 24.17 13.2925
Empty_decode_cycles: 17740640 45.0041
ROB_full_cycles: 4550667 11.544
Starvation_cycles_per_kilo_instr: 296.295
Starvation_cycles_per_kilo_instr_3: 261.85
Starvation_cycles_per_kilo_instr_0: 239.17
Branch_type_1  (3,1)  (4,7)  (5,38)  (6,73)  (7,123)  (8,147)  (9,137)  (10,111)  (11,79)  (12,55)  (13,11)  (14,2)  (15,3)  (16,4)  (18,1)  (19,5)  (20,2)  (21,1)  (22,3)  (23,2)  (24,10)  (25,12) 
Branch_type_2  (3,1)  (4,1)  (5,1)  (8,4)  (9,4)  (10,1)  (12,1)  (13,1)  (14,1)  (16,3)  (17,2)  (20,2)  (21,2)  (23,5)  (24,1)  (47,41) 
Branch_type_3  (3,4408)  (4,243)  (5,431)  (6,445)  (7,477)  (8,350)  (9,280)  (10,167)  (11,138)  (12,62)  (13,10) 
Branch_type_4  (6,3)  (7,8)  (8,25)  (9,53)  (10,66)  (11,70)  (12,113)  (13,98)  (14,111)  (15,92)  (16,99)  (17,76)  (18,65)  (19,122)  (20,71)  (21,124)  (22,216)  (23,136)  (24,197)  (25,101) 
Branch_type_5  (8,3)  (9,1)  (10,4)  (11,5)  (12,3)  (13,14)  (14,16)  (15,11)  (16,22)  (17,11)  (18,23)  (19,14)  (20,11)  (21,13)  (22,43)  (23,26)  (24,37) 
Branch_type_6  (5,4)  (6,13)  (7,21)  (8,35)  (9,38)  (10,69)  (11,61)  (12,88)  (13,98)  (14,115)  (15,88)  (16,99)  (17,75)  (18,60)  (19,110)  (20,54)  (21,95)  (22,148)  (23,72)  (24,96)  (25,4)  (47,51) 
Unique trigger count: 
L2BTB1 768 4
L2BTB2 768 4
L2BTB3 768 4
L2BTB4 112 4
