
*** ChampSim Multicore Out-of-Order Simulator ***

Warmup Instructions: 50000000
Simulation Instructions: 50000000
Number of CPUs: 1
LLC sets: 2048
LLC ways: 16
Off-chip DRAM Size: 4096 MB Channels: 1 Width: 64-bit Data Rate: 6400 MT/s
CPU 0 runs ./micro_traces/srv197.trace.gz
.gz
ITLB has LRU replacement policy
DTLB has LRU replacement policy
STLB has LRU replacement policy
L1I has LRU replacement policy
L1D has LRU replacement policy
Initialize SRRIP state for L2C
Initialize DRRIP state for LLC
Heartbeat_Variant_0 : 1343 0.327881 per_variant_size: 0 1343 0 0 0 0 0 0 0 
Heartbeat_Variant_1 : 1224 0.298828 per_variant_size: 0 583 641 0 0 0 0 0 0 
Heartbeat_Variant_2 : 1326 0.32373 per_variant_size: 0 554 372 191 209 0 0 0 0 
Heartbeat_Variant_3 : 0 0 per_variant_size: 0 0 0 0 0 0 0 0 0 
Heartbeat_Variant_0_evicts 0 : 5892 1 : 345 2 : 329 3 : 0 
Heartbeat_Variant_1_evicts 0 : 297 1 : 0 2 : 457 3 : 0 
Heartbeat_Variant_2_evicts 0 : 327 1 : 448 2 : 0 3 : 0 
Heartbeat_Variant_3_evicts 0 : 0 1 : 0 2 : 0 3 : 0 
Heartbeat CPU 0 instructions: 10000002 cycles: 2796845 heartbeat IPC: 3.57546 cumulative IPC: 3.57546 (Simulation time: 0 hr 1 min 24 sec) 
Heartbeat_Variant_0 : 1342 0.327637 per_variant_size: 0 1342 0 0 0 0 0 0 0 
Heartbeat_Variant_1 : 1228 0.299805 per_variant_size: 0 587 641 0 0 0 0 0 0 
Heartbeat_Variant_2 : 1330 0.324707 per_variant_size: 0 554 373 198 205 0 0 0 0 
Heartbeat_Variant_3 : 0 0 per_variant_size: 0 0 0 0 0 0 0 0 0 
Heartbeat_Variant_0_evicts 0 : 5595 1 : 9 2 : 10 3 : 0 
Heartbeat_Variant_1_evicts 0 : 11 1 : 0 2 : 205 3 : 0 
Heartbeat_Variant_2_evicts 0 : 10 1 : 205 2 : 0 3 : 0 
Heartbeat_Variant_3_evicts 0 : 0 1 : 0 2 : 0 3 : 0 
Heartbeat CPU 0 instructions: 20000001 cycles: 5594226 heartbeat IPC: 3.57477 cumulative IPC: 3.57511 (Simulation time: 0 hr 2 min 43 sec) 
Heartbeat_Variant_0 : 1345 0.328369 per_variant_size: 0 1345 0 0 0 0 0 0 0 
Heartbeat_Variant_1 : 1238 0.302246 per_variant_size: 0 582 656 0 0 0 0 0 0 
Heartbeat_Variant_2 : 1354 0.330566 per_variant_size: 0 580 361 210 203 0 0 0 0 
Heartbeat_Variant_3 : 0 0 per_variant_size: 0 0 0 0 0 0 0 0 0 
Heartbeat_Variant_0_evicts 0 : 5732 1 : 97 2 : 112 3 : 0 
Heartbeat_Variant_1_evicts 0 : 94 1 : 0 2 : 285 3 : 0 
Heartbeat_Variant_2_evicts 0 : 119 1 : 287 2 : 0 3 : 0 
Heartbeat_Variant_3_evicts 0 : 0 1 : 0 2 : 0 3 : 0 
Heartbeat CPU 0 instructions: 30000003 cycles: 8391667 heartbeat IPC: 3.5747 cumulative IPC: 3.57498 (Simulation time: 0 hr 3 min 58 sec) 
Heartbeat_Variant_0 : 1376 0.335938 per_variant_size: 0 1376 0 0 0 0 0 0 0 
Heartbeat_Variant_1 : 1257 0.306885 per_variant_size: 0 568 689 0 0 0 0 0 0 
Heartbeat_Variant_2 : 1362 0.33252 per_variant_size: 0 554 344 245 219 0 0 0 0 
Heartbeat_Variant_3 : 0 0 per_variant_size: 0 0 0 0 0 0 0 0 0 
Heartbeat_Variant_0_evicts 0 : 5787 1 : 178 2 : 146 3 : 0 
Heartbeat_Variant_1_evicts 0 : 168 1 : 0 2 : 355 3 : 0 
Heartbeat_Variant_2_evicts 0 : 136 1 : 354 2 : 0 3 : 0 
Heartbeat_Variant_3_evicts 0 : 0 1 : 0 2 : 0 3 : 0 
Heartbeat CPU 0 instructions: 40000000 cycles: 11187994 heartbeat IPC: 3.57612 cumulative IPC: 3.57526 (Simulation time: 0 hr 5 min 15 sec) 
Heartbeat_Variant_0 : 1376 0.335938 per_variant_size: 0 1376 0 0 0 0 0 0 0 
Heartbeat_Variant_1 : 1262 0.308105 per_variant_size: 0 573 689 0 0 0 0 0 0 
Heartbeat_Variant_2 : 1363 0.332764 per_variant_size: 0 548 346 250 219 0 0 0 0 
Heartbeat_Variant_3 : 0 0 per_variant_size: 0 0 0 0 0 0 0 0 0 
Heartbeat_Variant_0_evicts 0 : 5617 1 : 57 2 : 31 3 : 0 
Heartbeat_Variant_1_evicts 0 : 56 1 : 0 2 : 229 3 : 0 
Heartbeat_Variant_2_evicts 0 : 32 1 : 228 2 : 0 3 : 0 
Heartbeat_Variant_3_evicts 0 : 0 1 : 0 2 : 0 3 : 0 
Heartbeat CPU 0 instructions: 50000003 cycles: 13984530 heartbeat IPC: 3.57585 cumulative IPC: 3.57538 (Simulation time: 0 hr 6 min 31 sec) 

Warmup complete CPU 0 instructions: 50000003 cycles: 13984530 (Simulation time: 0 hr 6 min 31 sec) 

Cycle: 20000000 FTQ IN: 55214969 FTQ occupancy: 15.7237 DECODE IN: 55214959 DECODE occupancy: 9.47475 ROB IN: 55214959 ROB occupancy: 258.436 ROB OUT: 55214909
Heartbeat_Variant_0 : 1381 0.337158 per_variant_size: 0 1381 0 0 0 0 0 0 0 
Heartbeat_Variant_1 : 1264 0.308594 per_variant_size: 0 570 694 0 0 0 0 0 0 
Heartbeat_Variant_2 : 1374 0.335449 per_variant_size: 0 566 337 258 213 0 0 0 0 
Heartbeat_Variant_3 : 0 0 per_variant_size: 0 0 0 0 0 0 0 0 0 
Heartbeat_Variant_0_evicts 0 : 5632 1 : 128 2 : 116 3 : 0 
Heartbeat_Variant_1_evicts 0 : 125 1 : 0 2 : 286 3 : 0 
Heartbeat_Variant_2_evicts 0 : 118 1 : 288 2 : 0 3 : 0 
Heartbeat_Variant_3_evicts 0 : 0 1 : 0 2 : 0 3 : 0 
Heartbeat CPU 0 instructions: 60000000 cycles: 25445226 heartbeat IPC: 0.872547 cumulative IPC: 0.872547 (Simulation time: 0 hr 7 min 47 sec) 
Cycle: 30000000 FTQ IN: 8787054 FTQ occupancy: 14.3616 DECODE IN: 8787057 DECODE occupancy: 4.83303 ROB IN: 8787046 ROB occupancy: 50.5317 ROB OUT: 8787079
Heartbeat_Variant_0 : 1384 0.337891 per_variant_size: 0 1384 0 0 0 0 0 0 0 
Heartbeat_Variant_1 : 1272 0.310547 per_variant_size: 0 579 693 0 0 0 0 0 0 
Heartbeat_Variant_2 : 1369 0.334229 per_variant_size: 0 545 356 250 218 0 0 0 0 
Heartbeat_Variant_3 : 0 0 per_variant_size: 0 0 0 0 0 0 0 0 0 
Heartbeat_Variant_0_evicts 0 : 5635 1 : 30 2 : 37 3 : 0 
Heartbeat_Variant_1_evicts 0 : 33 1 : 0 2 : 233 3 : 0 
Heartbeat_Variant_2_evicts 0 : 33 1 : 230 2 : 0 3 : 0 
Heartbeat_Variant_3_evicts 0 : 0 1 : 0 2 : 0 3 : 0 
Heartbeat CPU 0 instructions: 70000000 cycles: 36953895 heartbeat IPC: 0.86891 cumulative IPC: 0.870725 (Simulation time: 0 hr 9 min 2 sec) 
Cycle: 40000000 FTQ IN: 8667219 FTQ occupancy: 14.4371 DECODE IN: 8667208 DECODE occupancy: 4.841 ROB IN: 8667219 ROB occupancy: 52.8022 ROB OUT: 8667159
Heartbeat_Variant_0 : 1390 0.339355 per_variant_size: 0 1390 0 0 0 0 0 0 0 
Heartbeat_Variant_1 : 1261 0.307861 per_variant_size: 0 555 706 0 0 0 0 0 0 
Heartbeat_Variant_2 : 1378 0.336426 per_variant_size: 0 552 357 259 210 0 0 0 0 
Heartbeat_Variant_3 : 0 0 per_variant_size: 0 0 0 0 0 0 0 0 0 
Heartbeat_Variant_0_evicts 0 : 5593 1 : 48 2 : 42 3 : 0 
Heartbeat_Variant_1_evicts 0 : 33 1 : 0 2 : 241 3 : 0 
Heartbeat_Variant_2_evicts 0 : 51 1 : 238 2 : 0 3 : 0 
Heartbeat_Variant_3_evicts 0 : 0 1 : 0 2 : 0 3 : 0 
Heartbeat CPU 0 instructions: 80000000 cycles: 48388121 heartbeat IPC: 0.874567 cumulative IPC: 0.872002 (Simulation time: 0 hr 10 min 13 sec) 
Cycle: 50000000 FTQ IN: 8746522 FTQ occupancy: 14.3711 DECODE IN: 8746522 DECODE occupancy: 4.81794 ROB IN: 8746522 ROB occupancy: 50.2172 ROB OUT: 8746464
Heartbeat_Variant_0 : 1385 0.338135 per_variant_size: 0 1385 0 0 0 0 0 0 0 
Heartbeat_Variant_1 : 1272 0.310547 per_variant_size: 0 576 696 0 0 0 0 0 0 
Heartbeat_Variant_2 : 1381 0.337158 per_variant_size: 0 555 357 265 204 0 0 0 0 
Heartbeat_Variant_3 : 0 0 per_variant_size: 0 0 0 0 0 0 0 0 0 
Heartbeat_Variant_0_evicts 0 : 5788 1 : 102 2 : 88 3 : 0 
Heartbeat_Variant_1_evicts 0 : 99 1 : 0 2 : 300 3 : 0 
Heartbeat_Variant_2_evicts 0 : 97 1 : 288 2 : 0 3 : 0 
Heartbeat_Variant_3_evicts 0 : 0 1 : 0 2 : 0 3 : 0 
Heartbeat CPU 0 instructions: 90000001 cycles: 59867719 heartbeat IPC: 0.871111 cumulative IPC: 0.871779 (Simulation time: 0 hr 11 min 24 sec) 
Cycle: 60000000 FTQ IN: 8693936 FTQ occupancy: 14.4278 DECODE IN: 8693947 DECODE occupancy: 4.83645 ROB IN: 8693947 ROB occupancy: 52.7297 ROB OUT: 8694051
Cycle: 70000000 FTQ IN: 8800673 FTQ occupancy: 14.3976 DECODE IN: 8800666 DECODE occupancy: 4.84507 ROB IN: 8800654 ROB occupancy: 50.6189 ROB OUT: 8800621
Heartbeat_Variant_0 : 1382 0.337402 per_variant_size: 0 1382 0 0 0 0 0 0 0 
Heartbeat_Variant_1 : 1274 0.311035 per_variant_size: 0 577 697 0 0 0 0 0 0 
Heartbeat_Variant_2 : 1383 0.337646 per_variant_size: 0 558 356 264 205 0 0 0 0 
Heartbeat_Variant_3 : 0 0 per_variant_size: 0 0 0 0 0 0 0 0 0 
Heartbeat_Variant_0_evicts 0 : 5611 1 : 6 2 : 12 3 : 0 
Heartbeat_Variant_1_evicts 0 : 11 1 : 0 2 : 201 3 : 0 
Heartbeat_Variant_2_evicts 0 : 10 1 : 205 2 : 0 3 : 0 
Heartbeat_Variant_3_evicts 0 : 0 1 : 0 2 : 0 3 : 0 
Heartbeat CPU 0 instructions: 100000001 cycles: 71241208 heartbeat IPC: 0.879238 cumulative IPC: 0.873261 (Simulation time: 0 hr 12 min 35 sec) 
Finished CPU 0 instructions: 50000003 cycles: 57256687 cumulative IPC: 0.87326 (Simulation time: 0 hr 12 min 35 sec) 

ChampSim completed all CPUs

Region of Interest Statistics

CPU 0 cumulative IPC: 0.87326 instructions: 50000003 cycles: 57256687
 Fetch stage stalled: 32.7881  Sim cycles: 57256687 fetch stall cycle: 18773366
 Empty decode stage: 69.6124  Sim cycles: 57256687 fetch stall cycle: 39857761
ITLB TOTAL     ACCESS:    7307064  HIT:    6812630  MISS:     494434  HIT %:    93.2335  MISS %:    6.76652   MPKI: 9.88868
ITLB LOAD TRANSLATION INSTRUCTION	ACCESS:    7307064  HIT:    6812630  MISS:     494434  HIT %:    93.2335  MISS %:    6.76652  MPKI: 9.88868

ITLB AVERAGE MISS LATENCY: 9.03964 cycles
ITLB RQ	ACCESS:    8431780	FORWARD:          0	MERGED:     923619	TO_CACHE:    7508161

DTLB TOTAL     ACCESS:   10398818  HIT:    9924389  MISS:     474429  HIT %:    95.4377  MISS %:    4.56234   MPKI: 9.48858
DTLB LOAD TRANSLATION DATA	ACCESS:   10398818  HIT:    9924389  MISS:     474429  HIT %:    95.4377  MISS %:    4.56234  MPKI: 9.48858

DTLB AVERAGE MISS LATENCY: 9.29873 cycles
DTLB RQ	ACCESS:   14493124	FORWARD:          0	MERGED:    4065868	TO_CACHE:   10427256

STLB TOTAL     ACCESS:    1227408  HIT:    1225430  MISS:       1978  HIT %:    99.8388  MISS %:   0.161153   MPKI: 0.03956
STLB LOAD TRANSLATION INSTRUCTION	ACCESS:     494434  HIT:     494209  MISS:        225  HIT %:    99.9545  MISS %:  0.0455066  MPKI: 0.0045
STLB LOAD TRANSLATION DATA	ACCESS:     474423  HIT:     472695  MISS:       1728  HIT %:    99.6358  MISS %:   0.364232  MPKI: 0.03456
STLB TRANSLATION FROM L1D PREFETCHER DATA	ACCESS:     258551  HIT:     258526  MISS:         25  HIT %:    99.9903  MISS %: 0.00966927  MPKI: 0.0005

STLB AVERAGE MISS LATENCY: 69.4034 cycles
STLB RQ	ACCESS:    1344751	FORWARD:          0	MERGED:     117302	TO_CACHE:    1227449

STLB Hit, L1D data hit: 0
STLB Hit, L2C data hit: 0
STLB Hit, LLC data hit: 0
STLB Hit, LLC data miss: 0
STLB STLB hints to L2: 0
L1D TOTAL     ACCESS:   14292692  HIT:   13182891  MISS:    1109801  HIT %:    92.2352  MISS %:    7.76481   MPKI: 22.196
L1D LOAD DATA	ACCESS:    7633341  HIT:    6903552  MISS:     729789  HIT %:    90.4395  MISS %:    9.56054  MPKI: 14.5958
L1D RFO DATA	ACCESS:    6324267  HIT:    6037858  MISS:     286409  HIT %:    95.4713  MISS %:    4.52873  MPKI: 5.72818
L1D PREFETCH DATA	ACCESS:     335084  HIT:     241481  MISS:      93603  HIT %:    72.0658  MISS %:    27.9342  MPKI: 1.87206

L1D PREFETCH  REQUESTED:     751922  ISSUED:     751922  USEFUL:      35021  USELESS:      67373
L1D USEFUL LOAD PREFETCHES:      35021 PREFETCH ISSUED TO LOWER LEVEL:     102492  ACCURACY: 34.1695
 TIMELY PREFETCHES:      35021 LATE PREFETCHES: 8802 DROPPED PREFETCHES: 7
L1D AVERAGE MISS LATENCY: 341116 cycles
L1D RQ	ACCESS:   11447158	FORWARD:          0	MERGED:    3629295	TO_CACHE:    7664952
L1D WQ	ACCESS:    6946339	FORWARD:     153057	MERGED:     118167	TO_CACHE:    6828172
L1D PQ	ACCESS:     376034	FORWARD:          0	MERGED:          0	TO_CACHE:     375888

L1D UNIQUE REGIONS ACCESSED: 0
L1D REGIONS CONFLICTS: 0
L1D Cross Page Prefetch Requests: 6542
L1D Same Page Prefetch Requests: 756652
L1D ROI Sum of L1D PQ occupancy: 4769476
L1D PREFETCHES PUSHED FROM L2C: 0
L1I TOTAL     ACCESS:    7900348  HIT:    5137538  MISS:    2762810  HIT %:    65.0293  MISS %:    34.9707   MPKI: 55.2562
L1I LOAD INSTRUCTION	ACCESS:    7900348  HIT:    5137538  MISS:    2762810  HIT %:    65.0293  MISS %:    34.9707  MPKI: 55.2562

L1I AVERAGE MISS LATENCY: 16.9132 cycles
L1I RQ	ACCESS:   15439849	FORWARD:          0	MERGED:    7008069	TO_CACHE:    8431780

L1BTB TOTAL     ACCESS:    5671291  HIT:    2042303  MISS:    3628988  HIT %:    36.0113  MISS %:    63.9887   MPKI: 72.5798
L1BTB BRANCH_DIRECT_JUMP	ACCESS:     548140  HIT:     144791  MISS:     403349	AVERAGE STALL: 21.533
L1BTB BRANCH_INDIRECT	ACCESS:     182904  HIT:      66004  MISS:     116900	AVERAGE STALL: 49.5573
L1BTB BRANCH_CONDITIONAL	ACCESS:    2705051  HIT:    1412334  MISS:    1292717	AVERAGE STALL: 31.5888
L1BTB BRANCH_DIRECT_CALL	ACCESS:     945709  HIT:     106159  MISS:     839550	AVERAGE STALL: 29.2894
L1BTB BRANCH_INDIRECT_CALL	ACCESS:     171889  HIT:      21466  MISS:     150423	AVERAGE STALL: 64.7032
L1BTB BRANCH_RETURN	ACCESS:    1117598  HIT:     291549  MISS:     826049	AVERAGE STALL: 32.8613
L1BTB BRANCH_OTHER ACCESS:          0  HIT:          0  MISS:          0	AVERAGE STALL: -nan
L1BTB TOTAL ROB OCCUPANCY AT BTB MISS: 0.554663

L2BTB TOTAL     ACCESS:    3603578  HIT:    3538724  MISS:      64854  HIT %:    98.2003  MISS %:    1.79971   MPKI: 1.29708
L2BTB BRANCH_DIRECT_JUMP	ACCESS:     399183  HIT:     393995  MISS:       5188	AVERAGE STALL: 21.533
L2BTB BRANCH_INDIRECT	ACCESS:     106614  HIT:     103950  MISS:       2664	AVERAGE STALL: 49.5573
L2BTB BRANCH_CONDITIONAL	ACCESS:    1292717  HIT:    1290518  MISS:       2199	AVERAGE STALL: 31.5888
L2BTB BRANCH_DIRECT_CALL	ACCESS:     839550  HIT:     838250  MISS:       1300	AVERAGE STALL: 29.2894
L2BTB BRANCH_INDIRECT_CALL	ACCESS:     140878  HIT:     130455  MISS:      10423	AVERAGE STALL: 64.7032
L2BTB BRANCH_RETURN	ACCESS:     824636  HIT:     781556  MISS:      43080	AVERAGE STALL: 32.8613
L2BTB BRANCH_OTHER ACCESS:          0  HIT:          0  MISS:          0	AVERAGE STALL: -nan
L2BTB TOTAL ROB OCCUPANCY AT BTB MISS: 31.0369

L2C TOTAL     ACCESS:    4478746  HIT:    4008951  MISS:     469795  HIT %:    89.5106  MISS %:    10.4894   MPKI: 9.3959
L2C LOAD INSTRUCTION	ACCESS:    2762811  HIT:    2509322  MISS:     253489  HIT %:     90.825  MISS %:    9.17504  MPKI: 5.06978
L2C LOAD TRANSLATION INSTRUCTION	ACCESS:        253  HIT:         66  MISS:        187  HIT %:     26.087  MISS %:     73.913  MPKI: 0.00374
L2C LOAD DATA	ACCESS:     720978  HIT:     647940  MISS:      73038  HIT %:    89.8696  MISS %:    10.1304  MPKI: 1.46076
L2C RFO DATA	ACCESS:     286318  HIT:     232127  MISS:      54191  HIT %:    81.0731  MISS %:    18.9269  MPKI: 1.08382
L2C PREFETCH DATA	ACCESS:     187991  HIT:     114708  MISS:      73283  HIT %:    61.0178  MISS %:    38.9822  MPKI: 1.46566
L2C WRITEBACK DATA	ACCESS:     518571  HIT:     504317  MISS:      14254  HIT %:    97.2513  MISS %:    2.74871  MPKI: 0.28508
L2C LOAD TRANSLATION DATA	ACCESS:       1778  HIT:        437  MISS:       1341  HIT %:    24.5782  MISS %:    75.4218  MPKI: 0.02682
L2C TRANSLATION FROM L1D PREFETCHER DATA	ACCESS:         46  HIT:         34  MISS:         12  HIT %:     73.913  MISS %:     26.087  MPKI: 0.00024

L2C PREFETCH  REQUESTED:      93148  ISSUED:      93148  USEFUL:       8702  USELESS:      64872
L2C USEFUL LOAD PREFETCHES:       8702 PREFETCH ISSUED TO LOWER LEVEL:      73574  ACCURACY: 11.8275
 TIMELY PREFETCHES:       8702 LATE PREFETCHES: 291 DROPPED PREFETCHES: 0
L2C AVERAGE MISS LATENCY: 38.1823 cycles
L2C RQ	ACCESS:    3772198	FORWARD:          0	MERGED:          0	TO_CACHE:    3772185
L2C WQ	ACCESS:     518571	FORWARD:         13	MERGED:          0	TO_CACHE:     518571
L2C PQ	ACCESS:     195640	FORWARD:          0	MERGED:       4240	TO_CACHE:     191400

L2C Dense regions hint from L2: 0
PSCL5 TOTAL     ACCESS:       3976  HIT:       1988  MISS:       1988  HIT %:         50  MISS %:         50   MPKI: 0.03976
PSCL5 LOAD TRANSLATION INSTRUCTION	ACCESS:       3884  HIT:       1942  MISS:       1942  HIT %:         50  MISS %:         50  MPKI: 0.03884
PSCL5 TRANSLATION FROM L1D PREFETCHER INSTRUCTION	ACCESS:         92  HIT:         46  MISS:         46  HIT %:         50  MISS %:         50  MPKI: 0.00092


PSCL4 TOTAL     ACCESS:       3895  HIT:       1947  MISS:       1948  HIT %:    49.9872  MISS %:    50.0128   MPKI: 0.03896
PSCL4 LOAD TRANSLATION INSTRUCTION	ACCESS:       3674  HIT:       1901  MISS:       1773  HIT %:     51.742  MISS %:     48.258  MPKI: 0.03546
PSCL4 TRANSLATION FROM L1D PREFETCHER INSTRUCTION	ACCESS:         92  HIT:         46  MISS:         46  HIT %:         50  MISS %:         50  MPKI: 0.00092
PSCL4 LOAD TRANSLATION DATA	ACCESS:        129  HIT:          0  MISS:        129  HIT %:          0  MISS %:        100  MPKI: 0.00258


PSCL3 TOTAL     ACCESS:       3901  HIT:       1948  MISS:       1953  HIT %:    49.9359  MISS %:    50.0641   MPKI: 0.03906
PSCL3 LOAD TRANSLATION INSTRUCTION	ACCESS:       3573  HIT:       1909  MISS:       1664  HIT %:    53.4285  MISS %:    46.5715  MPKI: 0.03328
PSCL3 TRANSLATION FROM L1D PREFETCHER INSTRUCTION	ACCESS:         78  HIT:         39  MISS:         39  HIT %:         50  MISS %:         50  MPKI: 0.00078
PSCL3 LOAD TRANSLATION DATA	ACCESS:        250  HIT:          0  MISS:        250  HIT %:          0  MISS %:        100  MPKI: 0.005


PSCL2 TOTAL     ACCESS:       3893  HIT:       1905  MISS:       1988  HIT %:     48.934  MISS %:     51.066   MPKI: 0.03976
PSCL2 LOAD TRANSLATION INSTRUCTION	ACCESS:       2083  HIT:       1859  MISS:        224  HIT %:    89.2463  MISS %:    10.7537  MPKI: 0.00448
PSCL2 TRANSLATION FROM L1D PREFETCHER INSTRUCTION	ACCESS:         46  HIT:         46  MISS:          0  HIT %:        100  MISS %:          0  MPKI: 0
PSCL2 LOAD TRANSLATION DATA	ACCESS:       1718  HIT:          0  MISS:       1718  HIT %:          0  MISS %:        100  MPKI: 0.03436
PSCL2 TRANSLATION FROM L1D PREFETCHER DATA	ACCESS:         46  HIT:          0  MISS:         46  HIT %:          0  MISS %:        100  MPKI: 0.00092


LLC TOTAL     ACCESS:     532270  HIT:     504591  MISS:      27679  HIT %:    94.7998  MISS %:    5.20018   MPKI: 0.55358
LLC LOAD INSTRUCTION	ACCESS:     253489  HIT:     252787  MISS:        702  HIT %:    99.7231  MISS %:   0.276935  MPKI: 0.01404
LLC LOAD TRANSLATION INSTRUCTION	ACCESS:        187  HIT:        164  MISS:         23  HIT %:    87.7005  MISS %:    12.2995  MPKI: 0.00046
LLC LOAD DATA	ACCESS:      72758  HIT:      69157  MISS:       3601  HIT %:    95.0507  MISS %:    4.94928  MPKI: 0.07202
LLC RFO DATA	ACCESS:      54180  HIT:      40890  MISS:      13290  HIT %:    75.4707  MISS %:    24.5293  MPKI: 0.2658
LLC PREFETCH DATA	ACCESS:      73574  HIT:      63870  MISS:       9704  HIT %:    86.8106  MISS %:    13.1894  MPKI: 0.19408
LLC WRITEBACK DATA	ACCESS:      76729  HIT:      76440  MISS:        289  HIT %:    99.6233  MISS %:    0.37665  MPKI: 0.00578
LLC LOAD TRANSLATION DATA	ACCESS:       1341  HIT:       1271  MISS:         70  HIT %:      94.78  MISS %:    5.21999  MPKI: 0.0014
LLC TRANSLATION FROM L1D PREFETCHER DATA	ACCESS:         12  HIT:         12  MISS:          0  HIT %:        100  MISS %:          0  MPKI: 0

LLC AVERAGE MISS LATENCY: 153.229 cycles
LLC RQ	ACCESS:     381967	FORWARD:          0	MERGED:          0	TO_CACHE:     381967
LLC WQ	ACCESS:      76729	FORWARD:          0	MERGED:          0	TO_CACHE:      76729
LLC PQ	ACCESS:      73574	FORWARD:          0	MERGED:          0	TO_CACHE:      73574

LLC Dense regions hint to LLC: 0

RAW hits: 1185299
Loads Generated: 12632453
Loads sent to L1D: 11447158
Stores Generated: 6946333
Stores sent to L1D: 6946339
Major fault: 0 Minor fault: 2580
Allocated PAGES: 2580

stream: 
stream:times selected: 1187328
stream:pref_filled: 121129
stream:pref_useful: 25133
stream:pref_late: 6236
stream:misses: 7077
stream:misses_by_poll: 0

CS: 
CS:times selected: 180409
CS:pref_filled: 59211
CS:pref_useful: 36309
CS:pref_late: 7506
CS:misses: 16541
CS:misses_by_poll: 13

CPLX: 
CPLX:times selected: 1005736
CPLX:pref_filled: 21757
CPLX:pref_useful: 5127
CPLX:pref_late: 2985
CPLX:misses: 91462
CPLX:misses_by_poll: 10

NL_L1: 
NL:times selected: 20149
NL:pref_filled: 660
NL:pref_useful: 329
NL:pref_late: 364
NL:misses: 1425
NL:misses_by_poll: 0

total selections: 2393622
total_filled: 93603
total_useful: 35021
total_late: 18422
total_polluted: 23
total_misses_after_warmup: 761400
conflicts: 6006415

test: 117521

DRAM Statistics
 CHANNEL 0
 RQ ROW_BUFFER_HIT:      10160  ROW_BUFFER_MISS:      17227
 DBUS_CONGESTED:          8
 WQ ROW_BUFFER_HIT:       1312  ROW_BUFFER_MISS:      12147  FULL:          0

 AVG_CONGESTED_CYCLE: 5

CPU 0 Branch Prediction Accuracy: 99.8226% MPKI: 0.32462 Average ROB Occupancy at Mispredict: 70.9278
Branch types
NOT_BRANCH: 40851530 81.7031%
BRANCH_DIRECT_JUMP: 548140 1.09628%
BRANCH_INDIRECT: 182904 0.365808%
BRANCH_CONDITIONAL: 6181919 12.3638%
BRANCH_DIRECT_CALL: 945709 1.89142%
BRANCH_INDIRECT_CALL: 171889 0.343778%
BRANCH_RETURN: 1117598 2.2352%
BRANCH_OTHER: 0 0%

DRAM PAGES: 1048576
Allocated PAGES: 2580
Average_ROB_Occupancy: 52.0557
Average_Decode_Occupancy: 4.82814
Average_FTQ_Occupancy: 14.3822
Indirect max targets: 14 Average targets: 1.14765
Branch_type:  BRANCH_DIRECT_JUMP:  Count Percentage: 2.91321 6.78801 2.96083 5.42975 1.69936 6.83161 1.25434 72.1229 
Branch_type:  BRANCH_INDIRECT:  Count Percentage: 11.7687 3.42618 2.55219 13.3424 3.34573 12.8304 2.00492 50.7294 
Branch_type:  BRANCH_CONDITIONAL:  Count Percentage: 21.1776 2.89348 1.67273 3.72434 1.14122 5.92985 0.739579 62.7212 
Branch_type:  BRANCH_DIRECT_CALL:  Count Percentage: 0.754185 1.26363 1.13011 3.22453 1.99553 3.18922 0.769908 87.6729 
Branch_type:  BRANCH_INDIRECT_CALL:  Count Percentage: 9.52312 0.571736 2.9835 4.83546 0.00029096 3.77666 0.995665 77.3136 
Branch_type:  BRANCH_RETURN:  Count Percentage: 4.18934 0.696276 2.26756 3.5973 2.78175 5.6187 1.15794 79.6911 
Branch_type:  BRANCH_DIRECT_JUMP:  Total Count: 31874 74269 32395 59408 18593 74746 13724 789111 
Branch_type:  BRANCH_INDIRECT:  Total Count: 43009 12521 9327 48760 12227 46889 7327 185391 
Branch_type:  BRANCH_CONDITIONAL:  Total Count: 2616059 357431 206632 460067 140975 732512 91360 7747932 
Branch_type:  BRANCH_DIRECT_CALL:  Total Count: 14246 23869 21347 60909 37694 60242 14543 1656076 
Branch_type:  BRANCH_INDIRECT_CALL:  Total Count: 32730 1965 10254 16619 1 12980 3422 265719 
Branch_type:  BRANCH_RETURN:  Total Count: 93567 15551 50645 80344 62129 125491 25862 1779865 
Number of unique branch instructions: 10072
Upper 32 bits: 
aaaa
ffff
ffff0000
Unique upper 32 bits: 3
Unique upper 36 bits: 3
Unique upper 40 bits: 5
Unique upper 44 bits: 32
Unique upper 48 bits: 154
Variant_0 : 1382 0.337402
Variant_1 : 1274 0.311035
Variant_2 : 1383 0.337646
Variant_3 : 0 0
Offset_3 4161
Offset_4 250
Offset_5 458
Offset_6 516
Offset_7 596
Offset_8 524
Offset_9 477
Offset_10 388
Offset_11 321
Offset_12 273
Offset_13 213
Offset_14 227
Offset_15 197
Offset_16 230
Offset_17 151
Offset_18 128
Offset_19 246
Offset_20 142
Offset_21 235
Offset_22 398
Offset_23 241
Offset_24 338
Offset_25 88
Offset_47 82
decode_dispatch_called: 30549289 53.355
Dispatch_width: 0 18440471 60.363 32.2067
Dispatch_width: 1 2346969 7.68257 4.09903
Dispatch_width: 2 1108366 3.62812 1.93578
Dispatch_width: 3 1067945 3.49581 1.86519
Dispatch_width: 4 999185 3.27073 1.7451
Dispatch_width: 5 1282693 4.19877 2.24025
Dispatch_width: 6 5303660 17.361 9.26295
Empty_decode_cycles: 26707398 46.645
ROB_full_cycles: 484400 0.846015
Starvation_cycles_per_kilo_instr: 514.686
Starvation_cycles_per_kilo_instr_3: 491.867
Starvation_cycles_per_kilo_instr_0: 446.635
Branch_type_1  (3,1)  (4,9)  (5,37)  (6,72)  (7,118)  (8,130)  (9,125)  (10,99)  (11,72)  (12,44)  (13,8)  (14,2)  (15,3)  (16,4)  (18,1)  (19,4)  (20,2)  (21,1)  (22,3)  (23,2)  (24,10)  (25,12) 
Branch_type_2  (3,1)  (5,1)  (8,3)  (9,3)  (12,1)  (13,1)  (14,1)  (16,3)  (17,2)  (20,2)  (21,2)  (23,5)  (24,1)  (47,38) 
Branch_type_3  (3,4159)  (4,241)  (5,416)  (6,428)  (7,446)  (8,328)  (9,263)  (10,158)  (11,133)  (12,51)  (13,7) 
Branch_type_4  (6,4)  (7,8)  (8,26)  (9,54)  (10,62)  (11,60)  (12,98)  (13,90)  (14,100)  (15,94)  (16,104)  (17,66)  (18,58)  (19,120)  (20,74)  (21,124)  (22,212)  (23,136)  (24,198)  (25,72) 
Branch_type_5  (8,2)  (9,1)  (10,3)  (11,5)  (12,3)  (13,14)  (14,16)  (15,11)  (16,20)  (17,13)  (18,16)  (19,12)  (20,10)  (21,13)  (22,42)  (23,26)  (24,37) 
Branch_type_6  (5,4)  (6,12)  (7,24)  (8,35)  (9,31)  (10,66)  (11,51)  (12,76)  (13,93)  (14,108)  (15,89)  (16,99)  (17,70)  (18,53)  (19,110)  (20,54)  (21,95)  (22,141)  (23,72)  (24,92)  (25,4)  (47,44) 
Unique trigger count: 
Variant_0_evicts_0 : 0
Variant_0_evicts_1 : 0
Variant_0_evicts_2 : 0
Variant_0_evicts_3 : 0
Variant_1_evicts_0 : 0
Variant_1_evicts_1 : 0
Variant_1_evicts_2 : 0
Variant_1_evicts_3 : 0
Variant_2_evicts_0 : 0
Variant_2_evicts_1 : 0
Variant_2_evicts_2 : 0
Variant_2_evicts_3 : 0
Variant_3_evicts_0 : 0
Variant_3_evicts_1 : 0
Variant_3_evicts_2 : 0
Variant_3_evicts_3 : 0
BTB PER SET UNIQUE ADDR: 11 13 9 19 12 14 10 14 9 13 14 12 15 13 13 9 11 7 10 12 11 10 12 10 7 13 14 10 13 10 13 11 12 8 8 11 9 8 10 13 9 9 13 15 8 11 6 9 12 9 14 10 13 13 10 6 8 12 11 16 9 16 13 10 13 15 11 10 12 12 10 13 11 10 8 11 7 11 10 12 10 9 11 14 13 15 14 9 7 15 8 9 12 8 6 13 7 9 11 14 16 16 17 13 12 7 9 14 8 9 7 13 12 12 7 6 13 12 15 11 9 9 11 9 15 8 7 11 14 9 10 17 11 15 12 11 7 13 9 13 12 14 9 9 16 16 11 6 8 13 15 15 9 13 15 13 7 12 12 5 10 8 10 14 12 12 12 12 11 9 10 11 9 9 11 11 11 9 11 12 7 9 11 15 16 13 7 9 11 12 10 9 13 9 14 13 10 13 7 14 16 13 11 9 11 9 11 11 13 9 8 13 9 14 10 12 10 12 9 13 4 14 9 13 10 13 15 15 8 13 8 6 12 13 9 12 14 10 11 6 15 10 14 14 12 12 11 11 12 12 9 15 15 9 15 13 8 5 8 10 12 9 5 14 7 10 9 5 6 9 8 14 12 5 9 9 10 13 13 8 7 10 8 10 14 10 13 19 12 12 12 6 15 18 9 16 11 13 14 10 9 10 9 16 9 7 12 8 20 14 10 21 11 15 10 8 13 8 12 17 7 9 8 12 11 12 11 10 12 10 12 11 11 10 12 11 9 10 7 16 11 12 9 13 18 14 12 11 10 13 13 11 8 9 9 14 9 11 5 13 10 11 8 14 8 10 7 14 16 15 11 5 15 14 9 13 9 13 11 13 11 8 6 8 3 10 14 18 13 12 15 8 12 13 10 8 10 12 9 10 10 9 7 10 17 13 14 11 14 11 7 9 11 14 10 7 12 13 16 17 10 12 9 13 9 13 10 9 13 10 12 10 7 10 16 15 11 9 11 10 11 11 11 13 15 11 12 10 11 11 11 15 12 11 13 16 17 14 7 19 12 12 10 14 13 10 9 11 9 14 13 13 11 9 11 16 13 15 7 10 12 17 11 13 6 16 18 16 15 9 10 16 8 9 10 7 12 13 11 14 11 16 11 17 12 8 6 9 15 10 12 15 10 10 9 15 10 13 7 8 9 9 12 9 12 12 19 7 7 16 18 9 15 12 10 17 9 10 12 12 10 10 13 12 12 13 11 10 11 13 11 14 11 9 10 13 12 13 16 10 13 18 15 9 9 18 12 10 8 14 15 14 13 16 14 17 16 16 8 13 14 11 9 9 17 5 10 12 16 12 10 13 9 10 18 8 10 13 7 12 6 8 13 6 9 14 23 9 9 11 17 14 6 11 6 15 9 11 11 11 18 10 7 10 9 13 11 15 9 9 7 12 15 12 8 11 10 17 9 15 8 11 13 16 9 10 9 11 18 9 9 14 8 9 19 12 13 8 8 11 15 7 12 16 4 12 11 13 12 8 11 9 9 13 16 12 13 11 13 14 10 18 14 10 17 12 8 9 11 12 9 7 8 9 8 9 7 18 8 10 9 13 13 14 8 12 12 11 10 7 8 11 9 11 10 9 15 13 8 13 10 13 12 12 8 9 12 7 8 11 9 9 11 11 7 10 11 15 14 10 11 11 11 9 14 15 11 18 11 9 12 12 12 10 10 13 18 11 7 7 9 7 7 17 15 10 12 12 9 12 12 15 11 9 9 8 18 10 13 12 6 12 11 13 11 11 8 8 10 7 10 7 15 13 16 15 13 11 10 11 14 13 15 12 16 13 11 14 9 9 10 18 10 14 10 13 18 12 8 11 11 13 12 17 16 10 15 13 17 14 13 14 10 14 12 14 11 9 8 8 17 13 9 10 13 19 12 12 11 12 12 9 9 18 12 15 12 14 10 10 11 14 9 11 10 11 6 9 15 11 5 11 16 11 12 5 11 12 11 13 11 10 15 17 8 12 16 9 14 10 11 7 7 9 7 15 12 11 15 6 14 7 12 9 7 15 11 10 13 14 9 7 13 10 7 14 13 10 11 11 10 13 8 9 6 10 9 9 13 6 13 13 12 11 9 13 10 13 14 12 11 18 9 13 12 16 12 15 14 13 14 10 8 12 14 18 12 9 12 16 9 11 12 15 11 12 13 14 10 12 10 14 14 11 14 9 14 14 11 19 12 12 10 10 8 13 17 11 14 11 11 10 11 14 13 11 10 13 15 10 17 18 8 9 13 10 10 15 7 11 14 10 13 6 6 10 6 9 6 8 9 19 13 9 
BTB PER SET COUNT: 991 16 1979 28 17 19 12 89 1475 14 19 16 20493 1479 17 9 576 7 503 13 18 16 721 47 15 17 19 1036 368 12 14 12 19 16 10 12 9 8 16 23 11 10 21 1491 1475 95 9 10 41 237 17 12 15 19 11 8 9 15 22 26 14 149 24 12 15 193 18 13 18 16 12 885 15 13 10 17 7 19 12 17 324 10 18 21 19 24 17 9 7 21 8 857 178 438 6 19 498 12 16 19 26 770 19 69 1229 9 12 15 991 9 8 34 374 17 10 6 15 20 845 12 12 12 16 13 16 13 10 17 16 963 12 24 19 21 30 13 900 20 11 18 20 17 10 9 16 214 464 6 8 31 18 43 761 18 22 19 7 15 18 5 17 244 11 14 13 81 16 13 15 460 13 12 10 9 12 12 20 15 1637 835 7 133 14 22 29 63 7 9 994 993 11 11 22 14 16 35 14 507 10 55 21 19 985 11 11 12 11 504 14 79 9 18 12 4485 14 1042 20 17 1316 18 8 19 10 16 14 16 19 265 10 20 12 10 16 15 11 19 45 10 527 6 23 12 17 446 14 16 13 17 25 16 10 23 18 9 20 753 76 6 9 11 241 22 5 132 10 13 10 6 909 12 10 352 16 5 9 13 15 16 20 9 9 14 313 11 20 13 15 27 14 12 14 7 21 22 14 16 186 19 16 27 11 10 969 29 11 13 29 12 35 429 985 27 12 20 1966 8 19 9 16 25 7 2940 9 16 11 17 17 15 14 12 17 15 16 12 12 16 10 985 8 23 11 1000 10 14 438 18 14 17 16 151 1448 142 11 14 11 15 9 13 5 21 16 13 9 18 12 316 8 21 21 29 18 353 22 15 10 167 14 13 12 1275 342 8 979 9 3 10 1447 30 19 921 23 9 13 386 14 9 10 17 9 14 10 11 10 10 21 24 18 13 15 13 8 11 20 866 11 7 14 170 103 17 12 19 11 22 17 15 10 14 18 11 16 13 7 11 139 19 13 267 17 12 11 13 42 16 813 13 16 10 11 17 473 25 18 11 13 1179 21 16 7 43 16 18 13 688 20 12 11 16 18 20 23 24 14 14 12 24 21 18 8 13 14 45 11 15 8 324 27 21 24 163 14 19 2311 13 13 10 998 13 20 19 12 23 13 21 18 10 7 11 16 10 282 130 767 336 12 20 13 15 8 1005 11 12 17 491 19 15 1068 9 8 2001 25 14 23 15 15 34 10 997 16 14 10 10 14 16 19 17 13 16 12 1007 15 19 12 13 13 17 14 19 26 10 14 27 20 11 985 24 140 14 11 852 1037 26 15 24 2448 20 18 1762 11 18 20 14 12 4383 27 6 469 16 25 12 10 14 12 10 33 14 1656 405 9 13 6 8 16 9 15 16 35 2275 10 14 29 661 8 13 8 15 425 16 16 12 26 11 10 11 11 23 19 18 10 11 9 15 780 18 9 16 16 249 14 29 9 15 19 20 9 171 310 13 755 9 11 18 9 12 49 507 21 8 325 17 48 7 20 28 4 16 18 20 1667 12 12 9 18 24 31 142 17 18 19 25 13 20 20 12 1087 16 8 11 162 17 9 7 10 10 1986 9 552 1235 11 12 964 22 1485 19 8 18 13 22 15 7 10 12 1009 15 236 124 148 17 18 690 15 631 13 46 11 11 12 10 9 17 405 10203 13 13 7 11 14 36 22 13 28 13 16 13 16 18 693 25 19 12 1486 18 12 1086 1135 15 33 12 8 7 19 9 9 19 397 10 13 15 15 17 14 21 15 9 15 14 21 12 20 13 306 15 631 17 15 13 10 10 102 9 12 725 18 15 1234 29 15 17 11 557 15 19 19 20 24 14 18 21 11 58 14 32 11 846 417 15 44 1807 11 755 17 809 16 22 1037 10 22 16 32 24 18 20 13 17 81 22 15 51 993 13 19 17 11 12 552 22 15 16 12 18 49 1686 19 23 1482 31 16 18 17 12 16 16 9 13 21 11 6 10 20 12 6 12 18 12 17 5 12 18 2508 25 13 11 139 22 10 20 27 10 18 19 24 7 12 5538 7 24 18 13 21 7 24 7 21 313 7 24 12 11 14 396 14 10 29 12 8 35 13 14 16 19 16 385 8 10 6 851 13 13 15 14 20 19 14 17 9 95 13 14 15 21 14 670 15 14 12 19 105 22 17 16 18 46 8 4296 24 35 147 14 15 241 15 21 376 15 19 12 19 19 13 17 13 17 24 21 24 9 27 20 996 1304 16 17 10 971 10 19 878 509 25 17 14 14 118 21 20 14 11 1488 23 18 21 1513 9 12 19 11 18 26 11 989 407 12 13 7 8 10 9 11 6 10 11 513 16 9 
To predecode: 0
Predecoding something: 0
Predecode request dropped: 0
sizeofblock_0 0
sizeofblock_1 34983
sizeofblock_2 37309
sizeofblock_3 43848
sizeofblock_4 21697
sizeofblock_5 0
sizeofblock_6 0
sizeofblock_7 0
sizeofblock_8 0
Variant_0 Correct: 1611619 Incorrect: 0 Accuracy: 1
Variant_1 Correct: 2088005 Incorrect: 0 Accuracy: 1
Variant_2 Correct: 3640725 Incorrect: 0 Accuracy: 1
Variant_3 Correct: 0 Incorrect: 0 Accuracy: -nan
