
*** ChampSim Multicore Out-of-Order Simulator ***

Warmup Instructions: 50000000
Simulation Instructions: 50000000
Number of CPUs: 1
LLC sets: 2048
LLC ways: 16
Off-chip DRAM Size: 4096 MB Channels: 1 Width: 64-bit Data Rate: 6400 MT/s
CPU 0 runs ./micro_traces/srv15.trace.gz
.gz
ITLB has LRU replacement policy
DTLB has LRU replacement policy
STLB has LRU replacement policy
FDIP Prefetcher at L1I
L1I has LRU replacement policy
L1D has LRU replacement policy
Initialize SRRIP state for L2C
Initialize DRRIP state for LLC
Heartbeat_Variant_0 : 1358 0.331543 per_variant_size: 0 1358 0 0 0 0 0 0 0 
Heartbeat_Variant_1 : 2644 0.645508 per_variant_size: 0 482 2162 0 0 0 0 0 0 
Heartbeat_Variant_2 : 0 0 per_variant_size: 0 0 0 0 0 0 0 0 0 
Heartbeat_Variant_3 : 0 0 per_variant_size: 0 0 0 0 0 0 0 0 0 
Heartbeat_Variant_0_evicts 0 : 6092 1 : 1025 2 : 0 3 : 0 
Heartbeat_Variant_1_evicts 0 : 983 1 : 0 2 : 0 3 : 0 
Heartbeat_Variant_2_evicts 0 : 0 1 : 0 2 : 0 3 : 0 
Heartbeat_Variant_3_evicts 0 : 0 1 : 0 2 : 0 3 : 0 
Heartbeat CPU 0 instructions: 10000002 cycles: 2796981 heartbeat IPC: 3.57528 cumulative IPC: 3.57528 (Simulation time: 0 hr 2 min 5 sec) 
Heartbeat_Variant_0 : 1358 0.331543 per_variant_size: 0 1358 0 0 0 0 0 0 0 
Heartbeat_Variant_1 : 2646 0.645996 per_variant_size: 0 465 2181 0 0 0 0 0 0 
Heartbeat_Variant_2 : 0 0 per_variant_size: 0 0 0 0 0 0 0 0 0 
Heartbeat_Variant_3 : 0 0 per_variant_size: 0 0 0 0 0 0 0 0 0 
Heartbeat_Variant_0_evicts 0 : 5492 1 : 17 2 : 0 3 : 0 
Heartbeat_Variant_1_evicts 0 : 17 1 : 0 2 : 0 3 : 0 
Heartbeat_Variant_2_evicts 0 : 0 1 : 0 2 : 0 3 : 0 
Heartbeat_Variant_3_evicts 0 : 0 1 : 0 2 : 0 3 : 0 
Heartbeat CPU 0 instructions: 20000000 cycles: 5593565 heartbeat IPC: 3.57579 cumulative IPC: 3.57554 (Simulation time: 0 hr 3 min 42 sec) 
Heartbeat_Variant_0 : 1372 0.334961 per_variant_size: 0 1372 0 0 0 0 0 0 0 
Heartbeat_Variant_1 : 2665 0.650635 per_variant_size: 0 414 2251 0 0 0 0 0 0 
Heartbeat_Variant_2 : 0 0 per_variant_size: 0 0 0 0 0 0 0 0 0 
Heartbeat_Variant_3 : 0 0 per_variant_size: 0 0 0 0 0 0 0 0 0 
Heartbeat_Variant_0_evicts 0 : 5819 1 : 473 2 : 0 3 : 0 
Heartbeat_Variant_1_evicts 0 : 465 1 : 0 2 : 0 3 : 0 
Heartbeat_Variant_2_evicts 0 : 0 1 : 0 2 : 0 3 : 0 
Heartbeat_Variant_3_evicts 0 : 0 1 : 0 2 : 0 3 : 0 
Heartbeat CPU 0 instructions: 30000003 cycles: 8390382 heartbeat IPC: 3.57549 cumulative IPC: 3.57552 (Simulation time: 0 hr 5 min 21 sec) 
Heartbeat_Variant_0 : 1375 0.335693 per_variant_size: 0 1375 0 0 0 0 0 0 0 
Heartbeat_Variant_1 : 2664 0.650391 per_variant_size: 0 412 2252 0 0 0 0 0 0 
Heartbeat_Variant_2 : 0 0 per_variant_size: 0 0 0 0 0 0 0 0 0 
Heartbeat_Variant_3 : 0 0 per_variant_size: 0 0 0 0 0 0 0 0 0 
Heartbeat_Variant_0_evicts 0 : 5502 1 : 45 2 : 0 3 : 0 
Heartbeat_Variant_1_evicts 0 : 42 1 : 0 2 : 0 3 : 0 
Heartbeat_Variant_2_evicts 0 : 0 1 : 0 2 : 0 3 : 0 
Heartbeat_Variant_3_evicts 0 : 0 1 : 0 2 : 0 3 : 0 
Heartbeat CPU 0 instructions: 40000002 cycles: 11186279 heartbeat IPC: 3.57667 cumulative IPC: 3.57581 (Simulation time: 0 hr 6 min 58 sec) 
Heartbeat_Variant_0 : 1380 0.336914 per_variant_size: 0 1380 0 0 0 0 0 0 0 
Heartbeat_Variant_1 : 2674 0.652832 per_variant_size: 0 428 2246 0 0 0 0 0 0 
Heartbeat_Variant_2 : 0 0 per_variant_size: 0 0 0 0 0 0 0 0 0 
Heartbeat_Variant_3 : 0 0 per_variant_size: 0 0 0 0 0 0 0 0 0 
Heartbeat_Variant_0_evicts 0 : 5922 1 : 413 2 : 0 3 : 0 
Heartbeat_Variant_1_evicts 0 : 411 1 : 0 2 : 0 3 : 0 
Heartbeat_Variant_2_evicts 0 : 0 1 : 0 2 : 0 3 : 0 
Heartbeat_Variant_3_evicts 0 : 0 1 : 0 2 : 0 3 : 0 
Heartbeat CPU 0 instructions: 50000000 cycles: 13982802 heartbeat IPC: 3.57587 cumulative IPC: 3.57582 (Simulation time: 0 hr 8 min 35 sec) 

Warmup complete CPU 0 instructions: 50000004 cycles: 13982803 (Simulation time: 0 hr 8 min 35 sec) 

Cycle: 20000000 FTQ IN: 58170943 FTQ occupancy: 19.2343 DECODE IN: 58170882 DECODE occupancy: 50.1711 ROB IN: 58170822 ROB occupancy: 307.787 ROB OUT: 58170615
Heartbeat_Variant_0 : 1380 0.336914 per_variant_size: 0 1380 0 0 0 0 0 0 0 
Heartbeat_Variant_1 : 2675 0.653076 per_variant_size: 0 437 2238 0 0 0 0 0 0 
Heartbeat_Variant_2 : 0 0 per_variant_size: 0 0 0 0 0 0 0 0 0 
Heartbeat_Variant_3 : 0 0 per_variant_size: 0 0 0 0 0 0 0 0 0 
Heartbeat_Variant_0_evicts 0 : 5535 1 : 26 2 : 0 3 : 0 
Heartbeat_Variant_1_evicts 0 : 27 1 : 0 2 : 0 3 : 0 
Heartbeat_Variant_2_evicts 0 : 0 1 : 0 2 : 0 3 : 0 
Heartbeat_Variant_3_evicts 0 : 0 1 : 0 2 : 0 3 : 0 
Heartbeat CPU 0 instructions: 60000002 cycles: 21330500 heartbeat IPC: 1.36097 cumulative IPC: 1.36097 (Simulation time: 0 hr 10 min 15 sec) 
Heartbeat_Variant_0 : 1383 0.337646 per_variant_size: 0 1383 0 0 0 0 0 0 0 
Heartbeat_Variant_1 : 2675 0.653076 per_variant_size: 0 437 2238 0 0 0 0 0 0 
Heartbeat_Variant_2 : 0 0 per_variant_size: 0 0 0 0 0 0 0 0 0 
Heartbeat_Variant_3 : 0 0 per_variant_size: 0 0 0 0 0 0 0 0 0 
Heartbeat_Variant_0_evicts 0 : 5706 1 : 95 2 : 0 3 : 0 
Heartbeat_Variant_1_evicts 0 : 92 1 : 0 2 : 0 3 : 0 
Heartbeat_Variant_2_evicts 0 : 0 1 : 0 2 : 0 3 : 0 
Heartbeat_Variant_3_evicts 0 : 0 1 : 0 2 : 0 3 : 0 
Heartbeat CPU 0 instructions: 70000003 cycles: 28760766 heartbeat IPC: 1.34585 cumulative IPC: 1.35337 (Simulation time: 0 hr 11 min 57 sec) 
Cycle: 30000000 FTQ IN: 13503172 FTQ occupancy: 10.6888 DECODE IN: 13503233 DECODE occupancy: 27.353 ROB IN: 13503293 ROB occupancy: 211.772 ROB OUT: 13503197
Heartbeat_Variant_0 : 1385 0.338135 per_variant_size: 0 1385 0 0 0 0 0 0 0 
Heartbeat_Variant_1 : 2678 0.653809 per_variant_size: 0 426 2252 0 0 0 0 0 0 
Heartbeat_Variant_2 : 0 0 per_variant_size: 0 0 0 0 0 0 0 0 0 
Heartbeat_Variant_3 : 0 0 per_variant_size: 0 0 0 0 0 0 0 0 0 
Heartbeat_Variant_0_evicts 0 : 5714 1 : 127 2 : 0 3 : 0 
Heartbeat_Variant_1_evicts 0 : 126 1 : 0 2 : 0 3 : 0 
Heartbeat_Variant_2_evicts 0 : 0 1 : 0 2 : 0 3 : 0 
Heartbeat_Variant_3_evicts 0 : 0 1 : 0 2 : 0 3 : 0 
Heartbeat CPU 0 instructions: 80000001 cycles: 36097975 heartbeat IPC: 1.36292 cumulative IPC: 1.35653 (Simulation time: 0 hr 13 min 38 sec) 
Cycle: 40000000 FTQ IN: 13636558 FTQ occupancy: 10.6216 DECODE IN: 13636490 DECODE occupancy: 27.5181 ROB IN: 13636490 ROB occupancy: 213.664 ROB OUT: 13636680
Heartbeat_Variant_0 : 1389 0.339111 per_variant_size: 0 1389 0 0 0 0 0 0 0 
Heartbeat_Variant_1 : 2675 0.653076 per_variant_size: 0 420 2255 0 0 0 0 0 0 
Heartbeat_Variant_2 : 0 0 per_variant_size: 0 0 0 0 0 0 0 0 0 
Heartbeat_Variant_3 : 0 0 per_variant_size: 0 0 0 0 0 0 0 0 0 
Heartbeat_Variant_0_evicts 0 : 5643 1 : 74 2 : 0 3 : 0 
Heartbeat_Variant_1_evicts 0 : 70 1 : 0 2 : 0 3 : 0 
Heartbeat_Variant_2_evicts 0 : 0 1 : 0 2 : 0 3 : 0 
Heartbeat_Variant_3_evicts 0 : 0 1 : 0 2 : 0 3 : 0 
Heartbeat CPU 0 instructions: 90000000 cycles: 43524137 heartbeat IPC: 1.34659 cumulative IPC: 1.35403 (Simulation time: 0 hr 15 min 20 sec) 
Cycle: 50000000 FTQ IN: 13484978 FTQ occupancy: 10.6758 DECODE IN: 13484946 DECODE occupancy: 27.4176 ROB IN: 13484886 ROB occupancy: 212.622 ROB OUT: 13484647
Heartbeat_Variant_0 : 1388 0.338867 per_variant_size: 0 1388 0 0 0 0 0 0 0 
Heartbeat_Variant_1 : 2676 0.65332 per_variant_size: 0 425 2251 0 0 0 0 0 0 
Heartbeat_Variant_2 : 0 0 per_variant_size: 0 0 0 0 0 0 0 0 0 
Heartbeat_Variant_3 : 0 0 per_variant_size: 0 0 0 0 0 0 0 0 0 
Heartbeat_Variant_0_evicts 0 : 5552 1 : 97 2 : 0 3 : 0 
Heartbeat_Variant_1_evicts 0 : 98 1 : 0 2 : 0 3 : 0 
Heartbeat_Variant_2_evicts 0 : 0 1 : 0 2 : 0 3 : 0 
Heartbeat_Variant_3_evicts 0 : 0 1 : 0 2 : 0 3 : 0 
Heartbeat CPU 0 instructions: 100000002 cycles: 50877170 heartbeat IPC: 1.35998 cumulative IPC: 1.35522 (Simulation time: 0 hr 17 min 3 sec) 
Finished CPU 0 instructions: 50000002 cycles: 36894368 cumulative IPC: 1.35522 (Simulation time: 0 hr 17 min 3 sec) 

ChampSim completed all CPUs

Region of Interest Statistics

CPU 0 cumulative IPC: 1.35522 instructions: 50000002 cycles: 36894368
 Fetch stage stalled: 60.3274  Sim cycles: 36894368 fetch stall cycle: 22257417
 Empty decode stage: 48.4931  Sim cycles: 36894368 fetch stall cycle: 17891222
ITLB TOTAL     ACCESS:    5849167  HIT:    5355512  MISS:     493655  HIT %:    91.5603  MISS %:    8.43975   MPKI: 9.8731
ITLB LOAD TRANSLATION INSTRUCTION	ACCESS:    5723426  HIT:    5229771  MISS:     493655  HIT %:    91.3748  MISS %:    8.62517  MPKI: 9.8731
ITLB TRANSLATION FROM L1D PREFETCHER INSTRUCTION	ACCESS:     125741  HIT:     125741  MISS:          0  HIT %:        100  MISS %:          0  MPKI: 0

ITLB AVERAGE MISS LATENCY: 9.0502 cycles
ITLB RQ	ACCESS:    7979284	FORWARD:          0	MERGED:    1705150	TO_CACHE:    6274134

DTLB TOTAL     ACCESS:    9012661  HIT:    8539855  MISS:     472806  HIT %:     94.754  MISS %:    5.24602   MPKI: 9.45612
DTLB LOAD TRANSLATION DATA	ACCESS:    9012661  HIT:    8539855  MISS:     472806  HIT %:     94.754  MISS %:    5.24602  MPKI: 9.45612

DTLB AVERAGE MISS LATENCY: 9.32156 cycles
DTLB RQ	ACCESS:   13370244	FORWARD:          0	MERGED:    4321607	TO_CACHE:    9048637

STLB TOTAL     ACCESS:    1212939  HIT:    1210872  MISS:       2067  HIT %:    99.8296  MISS %:   0.170413   MPKI: 0.04134
STLB LOAD TRANSLATION INSTRUCTION	ACCESS:     493655  HIT:     493393  MISS:        262  HIT %:    99.9469  MISS %:  0.0530735  MPKI: 0.00524
STLB LOAD TRANSLATION DATA	ACCESS:     472800  HIT:     471019  MISS:       1781  HIT %:    99.6233  MISS %:   0.376692  MPKI: 0.03562
STLB TRANSLATION FROM L1D PREFETCHER DATA	ACCESS:     246484  HIT:     246460  MISS:         24  HIT %:    99.9903  MISS %: 0.00973694  MPKI: 0.00048

STLB AVERAGE MISS LATENCY: 70.1882 cycles
STLB RQ	ACCESS:    1332943	FORWARD:          0	MERGED:     119965	TO_CACHE:    1212978

STLB Hit, L1D data hit: 0
STLB Hit, L2C data hit: 0
STLB Hit, LLC data hit: 0
STLB Hit, LLC data miss: 0
STLB STLB hints to L2: 0
L1D TOTAL     ACCESS:   13114739  HIT:   12001831  MISS:    1112908  HIT %:    91.5141  MISS %:    8.48593   MPKI: 22.2582
L1D LOAD DATA	ACCESS:    6584047  HIT:    5848934  MISS:     735113  HIT %:    88.8349  MISS %:    11.1651  MPKI: 14.7023
L1D RFO DATA	ACCESS:    6206080  HIT:    5921128  MISS:     284952  HIT %:    95.4085  MISS %:     4.5915  MPKI: 5.69904
L1D PREFETCH DATA	ACCESS:     324612  HIT:     231769  MISS:      92843  HIT %:    71.3988  MISS %:    28.6012  MPKI: 1.85686

L1D PREFETCH  REQUESTED:     733317  ISSUED:     733317  USEFUL:      33281  USELESS:      67984
L1D USEFUL LOAD PREFETCHES:      33281 PREFETCH ISSUED TO LOWER LEVEL:     101302  ACCURACY: 32.8533
 TIMELY PREFETCHES:      33281 LATE PREFETCHES: 8428 DROPPED PREFETCHES: 11
L1D AVERAGE MISS LATENCY: 247994 cycles
L1D RQ	ACCESS:   10706582	FORWARD:          0	MERGED:    3925939	TO_CACHE:    6618706
L1D WQ	ACCESS:    6943640	FORWARD:     162290	MERGED:     192102	TO_CACHE:    6751538
L1D PQ	ACCESS:     366835	FORWARD:          0	MERGED:          0	TO_CACHE:     366482

L1D UNIQUE REGIONS ACCESSED: 0
L1D REGIONS CONFLICTS: 0
L1D Cross Page Prefetch Requests: 6965
L1D Same Page Prefetch Requests: 744604
L1D ROI Sum of L1D PQ occupancy: 4654954
L1D PREFETCHES PUSHED FROM L2C: 0
L1I TOTAL     ACCESS:    7200524  HIT:    4439030  MISS:    2761494  HIT %:    61.6487  MISS %:    38.3513   MPKI: 55.2299
L1I LOAD INSTRUCTION	ACCESS:    6535591  HIT:    3774097  MISS:    2761494  HIT %:    57.7468  MISS %:    42.2532  MPKI: 55.2299
L1I PREFETCH INSTRUCTION	ACCESS:     664933  HIT:     664933  MISS:          0  HIT %:        100  MISS %:          0  MPKI: 0

L1I PREFETCH  REQUESTED:    1585140  ISSUED:    1585140  USEFUL:          0  USELESS:          0
L1I USEFUL LOAD PREFETCHES:          0 PREFETCH ISSUED TO LOWER LEVEL:          0  ACCURACY: -nan
 TIMELY PREFETCHES:          0 LATE PREFETCHES: 0 DROPPED PREFETCHES: 0
L1I AVERAGE MISS LATENCY: 17.2798 cycles
L1I RQ	ACCESS:    9473431	FORWARD:          0	MERGED:    2639661	TO_CACHE:    6833770
L1I PQ	ACCESS:    1585140	FORWARD:          0	MERGED:     439626	TO_CACHE:    1145514

L1BTB TOTAL     ACCESS:    5671192  HIT:    2043191  MISS:    3628001  HIT %:    36.0275  MISS %:    63.9725   MPKI: 72.56
L1BTB BRANCH_DIRECT_JUMP	ACCESS:     548494 HIT:     144886 MISS:     403608 AVERAGE STALL: 39.8476 AVERAGE FETCH STALL: 13.9378 AVERAGE FETCH QUEUE STALL: 10.2765 AVERAGE DECODE STALL: 14.7538 AVERAGE EXECUTE STALL: 2.11691e+15
L1BTB BRANCH_INDIRECT	ACCESS:     182795 HIT:      65966 MISS:     116829 AVERAGE STALL: 88.6089 AVERAGE FETCH STALL: 11.2374 AVERAGE FETCH QUEUE STALL: 9.74442 AVERAGE DECODE STALL: 10.3742 AVERAGE EXECUTE STALL: 56.2913
L1BTB BRANCH_CONDITIONAL	ACCESS:    2704699 HIT:    1412180 MISS:    1292519 AVERAGE STALL: 45.9739 AVERAGE FETCH STALL: 19.4368 AVERAGE FETCH QUEUE STALL: 12.8867 AVERAGE DECODE STALL: 12.7846 AVERAGE EXECUTE STALL: 3.65282e+15
L1BTB BRANCH_DIRECT_CALL	ACCESS:     945369 HIT:     106725 MISS:     838644 AVERAGE STALL: 57.9687 AVERAGE FETCH STALL: 25.7755 AVERAGE FETCH QUEUE STALL: 16.1108 AVERAGE DECODE STALL: 15.6516 AVERAGE EXECUTE STALL: 7.59751e+15
L1BTB BRANCH_INDIRECT_CALL	ACCESS:     172232 HIT:      21837 MISS:     150395 AVERAGE STALL: 121.133 AVERAGE FETCH STALL: 13.3204 AVERAGE FETCH QUEUE STALL: 9.17777 AVERAGE DECODE STALL: 9.29001 AVERAGE EXECUTE STALL: 88.8504
L1BTB BRANCH_RETURN	ACCESS:    1117603 HIT:     291597 MISS:     826006 AVERAGE STALL: 43.1954 AVERAGE FETCH STALL: 17.6098 AVERAGE FETCH QUEUE STALL: 3.007 AVERAGE DECODE STALL: 5.32718 AVERAGE EXECUTE STALL: 4.30697e+14
L1BTB BRANCH_OTHER ACCESS:          0 HIT:          0 MISS:          0 AVERAGE STALL: -nan AVERAGE FETCH STALL: -nan AVERAGE FETCH QUEUE STALL: -nan AVERAGE DECODE STALL: -nan AVERAGE EXECUTE STALL: -nan
L1BTB TOTAL ROB OCCUPANCY AT BTB MISS: 2.38589

L2BTB TOTAL     ACCESS:    3602652  HIT:    3536115  MISS:      66537  HIT %:    98.1531  MISS %:    1.84689   MPKI: 1.33074
L2BTB BRANCH_DIRECT_JUMP	ACCESS:     399447 HIT:     394890 MISS:       4557 AVERAGE STALL: 39.8476 AVERAGE FETCH STALL: 13.9378 AVERAGE FETCH QUEUE STALL: 10.2765 AVERAGE DECODE STALL: 14.7538 AVERAGE EXECUTE STALL: 2.11691e+15
L2BTB BRANCH_INDIRECT	ACCESS:     106569 HIT:     103921 MISS:       2648 AVERAGE STALL: 88.6089 AVERAGE FETCH STALL: 11.2374 AVERAGE FETCH QUEUE STALL: 9.74442 AVERAGE DECODE STALL: 10.3742 AVERAGE EXECUTE STALL: 56.2913
L2BTB BRANCH_CONDITIONAL	ACCESS:    1292519 HIT:    1287442 MISS:       5077 AVERAGE STALL: 45.9739 AVERAGE FETCH STALL: 19.4368 AVERAGE FETCH QUEUE STALL: 12.8867 AVERAGE DECODE STALL: 12.7846 AVERAGE EXECUTE STALL: 3.65282e+15
L2BTB BRANCH_DIRECT_CALL	ACCESS:     838644 HIT:     836212 MISS:       2432 AVERAGE STALL: 57.9687 AVERAGE FETCH STALL: 25.7755 AVERAGE FETCH QUEUE STALL: 16.1108 AVERAGE DECODE STALL: 15.6516 AVERAGE EXECUTE STALL: 7.59751e+15
L2BTB BRANCH_INDIRECT_CALL	ACCESS:     140869 HIT:     130482 MISS:      10387 AVERAGE STALL: 121.133 AVERAGE FETCH STALL: 13.3204 AVERAGE FETCH QUEUE STALL: 9.17777 AVERAGE DECODE STALL: 9.29001 AVERAGE EXECUTE STALL: 88.8504
L2BTB BRANCH_RETURN	ACCESS:     824604 HIT:     783168 MISS:      41436 AVERAGE STALL: 43.1954 AVERAGE FETCH STALL: 17.6098 AVERAGE FETCH QUEUE STALL: 3.007 AVERAGE DECODE STALL: 5.32718 AVERAGE EXECUTE STALL: 4.30697e+14
L2BTB BRANCH_OTHER ACCESS:          0 HIT:          0 MISS:          0 AVERAGE STALL: -nan AVERAGE FETCH STALL: -nan AVERAGE FETCH QUEUE STALL: -nan AVERAGE DECODE STALL: -nan AVERAGE EXECUTE STALL: -nan
L2BTB TOTAL ROB OCCUPANCY AT BTB MISS: 130.093

L2C TOTAL     ACCESS:    4488237  HIT:    3974572  MISS:     513665  HIT %:    88.5553  MISS %:    11.4447   MPKI: 10.2733
L2C LOAD INSTRUCTION	ACCESS:    2761494  HIT:    2490520  MISS:     270974  HIT %:    90.1874  MISS %:    9.81259  MPKI: 5.41948
L2C LOAD TRANSLATION INSTRUCTION	ACCESS:        293  HIT:         76  MISS:        217  HIT %:    25.9386  MISS %:    74.0614  MPKI: 0.00434
L2C LOAD DATA	ACCESS:     726672  HIT:     642353  MISS:      84319  HIT %:    88.3966  MISS %:    11.6034  MPKI: 1.68638
L2C RFO DATA	ACCESS:     284872  HIT:     227138  MISS:      57734  HIT %:    79.7334  MISS %:    20.2666  MPKI: 1.15468
L2C PREFETCH DATA	ACCESS:     193197  HIT:     115357  MISS:      77840  HIT %:    59.7095  MISS %:    40.2905  MPKI: 1.5568
L2C WRITEBACK DATA	ACCESS:     519806  HIT:     498553  MISS:      21253  HIT %:    95.9114  MISS %:    4.08864  MPKI: 0.42506
L2C LOAD TRANSLATION DATA	ACCESS:       1854  HIT:        545  MISS:       1309  HIT %:    29.3959  MISS %:    70.6041  MPKI: 0.02618
L2C TRANSLATION FROM L1D PREFETCHER DATA	ACCESS:         49  HIT:         30  MISS:         19  HIT %:    61.2245  MISS %:    38.7755  MPKI: 0.00038

L2C PREFETCH  REQUESTED:      99125  ISSUED:      99125  USEFUL:       9152  USELESS:      69193
L2C USEFUL LOAD PREFETCHES:       9152 PREFETCH ISSUED TO LOWER LEVEL:      78316  ACCURACY: 11.686
 TIMELY PREFETCHES:       9152 LATE PREFETCHES: 476 DROPPED PREFETCHES: 0
L2C AVERAGE MISS LATENCY: 37.1131 cycles
L2C RQ	ACCESS:    3775298	FORWARD:          0	MERGED:          0	TO_CACHE:    3775236
L2C WQ	ACCESS:     519806	FORWARD:         62	MERGED:          0	TO_CACHE:     519806
L2C PQ	ACCESS:     200427	FORWARD:          0	MERGED:       3384	TO_CACHE:     197043

L2C Dense regions hint from L2: 0
PSCL5 TOTAL     ACCESS:       4168  HIT:       2084  MISS:       2084  HIT %:         50  MISS %:         50   MPKI: 0.04168
PSCL5 LOAD TRANSLATION INSTRUCTION	ACCESS:       4070  HIT:       2035  MISS:       2035  HIT %:         50  MISS %:         50  MPKI: 0.0407
PSCL5 TRANSLATION FROM L1D PREFETCHER INSTRUCTION	ACCESS:         98  HIT:         49  MISS:         49  HIT %:         50  MISS %:         50  MPKI: 0.00098


PSCL4 TOTAL     ACCESS:       3878  HIT:       1935  MISS:       1943  HIT %:    49.8969  MISS %:    50.1031   MPKI: 0.03886
PSCL4 LOAD TRANSLATION INSTRUCTION	ACCESS:       1906  HIT:       1887  MISS:         19  HIT %:    99.0031  MISS %:   0.996852  MPKI: 0.00038
PSCL4 TRANSLATION FROM L1D PREFETCHER INSTRUCTION	ACCESS:         48  HIT:         48  MISS:          0  HIT %:        100  MISS %:          0  MPKI: 0
PSCL4 LOAD TRANSLATION DATA	ACCESS:       1876  HIT:          0  MISS:       1876  HIT %:          0  MISS %:        100  MPKI: 0.03752
PSCL4 TRANSLATION FROM L1D PREFETCHER DATA	ACCESS:         48  HIT:          0  MISS:         48  HIT %:          0  MISS %:        100  MPKI: 0.00096


PSCL3 TOTAL     ACCESS:       3992  HIT:       1992  MISS:       2000  HIT %:    49.8998  MISS %:    50.1002   MPKI: 0.04
PSCL3 LOAD TRANSLATION INSTRUCTION	ACCESS:       1963  HIT:       1944  MISS:         19  HIT %:    99.0321  MISS %:   0.967906  MPKI: 0.00038
PSCL3 TRANSLATION FROM L1D PREFETCHER INSTRUCTION	ACCESS:         48  HIT:         48  MISS:          0  HIT %:        100  MISS %:          0  MPKI: 0
PSCL3 LOAD TRANSLATION DATA	ACCESS:       1933  HIT:          0  MISS:       1933  HIT %:          0  MISS %:        100  MPKI: 0.03866
PSCL3 TRANSLATION FROM L1D PREFETCHER DATA	ACCESS:         48  HIT:          0  MISS:         48  HIT %:          0  MISS %:        100  MPKI: 0.00096


PSCL2 TOTAL     ACCESS:       4072  HIT:       1988  MISS:       2084  HIT %:    48.8212  MISS %:    51.1788   MPKI: 0.04168
PSCL2 LOAD TRANSLATION INSTRUCTION	ACCESS:       2201  HIT:       1939  MISS:        262  HIT %:    88.0963  MISS %:    11.9037  MPKI: 0.00524
PSCL2 TRANSLATION FROM L1D PREFETCHER INSTRUCTION	ACCESS:         49  HIT:         49  MISS:          0  HIT %:        100  MISS %:          0  MPKI: 0
PSCL2 LOAD TRANSLATION DATA	ACCESS:       1773  HIT:          0  MISS:       1773  HIT %:          0  MISS %:        100  MPKI: 0.03546
PSCL2 TRANSLATION FROM L1D PREFETCHER DATA	ACCESS:         49  HIT:          0  MISS:         49  HIT %:          0  MISS %:        100  MPKI: 0.00098


LLC TOTAL     ACCESS:     576129  HIT:     548965  MISS:      27164  HIT %:    95.2851  MISS %:    4.71492   MPKI: 0.54328
LLC LOAD INSTRUCTION	ACCESS:     270974  HIT:     270321  MISS:        653  HIT %:     99.759  MISS %:   0.240983  MPKI: 0.01306
LLC LOAD TRANSLATION INSTRUCTION	ACCESS:        217  HIT:        196  MISS:         21  HIT %:    90.3226  MISS %:    9.67742  MPKI: 0.00042
LLC LOAD DATA	ACCESS:      83905  HIT:      80630  MISS:       3275  HIT %:    96.0968  MISS %:    3.90322  MPKI: 0.0655
LLC RFO DATA	ACCESS:      57668  HIT:      44486  MISS:      13182  HIT %:    77.1416  MISS %:    22.8584  MPKI: 0.26364
LLC PREFETCH DATA	ACCESS:      78316  HIT:      68678  MISS:       9638  HIT %:    87.6934  MISS %:    12.3066  MPKI: 0.19276
LLC WRITEBACK DATA	ACCESS:      83721  HIT:      83415  MISS:        306  HIT %:    99.6345  MISS %:     0.3655  MPKI: 0.00612
LLC LOAD TRANSLATION DATA	ACCESS:       1309  HIT:       1222  MISS:         87  HIT %:    93.3537  MISS %:    6.64629  MPKI: 0.00174
LLC TRANSLATION FROM L1D PREFETCHER DATA	ACCESS:         19  HIT:         17  MISS:          2  HIT %:    89.4737  MISS %:    10.5263  MPKI: 4e-05

LLC AVERAGE MISS LATENCY: 156.644 cycles
LLC RQ	ACCESS:     414096	FORWARD:          0	MERGED:          0	TO_CACHE:     414092
LLC WQ	ACCESS:      83721	FORWARD:          4	MERGED:          0	TO_CACHE:      83721
LLC PQ	ACCESS:      78316	FORWARD:          0	MERGED:          0	TO_CACHE:      78316

LLC Dense regions hint to LLC: 0

RAW hits: 1924344
Loads Generated: 12630925
Loads sent to L1D: 10706582
Stores Generated: 6943632
Stores sent to L1D: 6943640
Major fault: 0 Minor fault: 2629
Allocated PAGES: 2629

stream: 
stream:times selected: 1183331
stream:pref_filled: 121947
stream:pref_useful: 24317
stream:pref_late: 7259
stream:misses: 8043
stream:misses_by_poll: 0

CS: 
CS:times selected: 178847
CS:pref_filled: 59838
CS:pref_useful: 36377
CS:pref_late: 7221
CS:misses: 16315
CS:misses_by_poll: 3

CPLX: 
CPLX:times selected: 1003312
CPLX:pref_filled: 19576
CPLX:pref_useful: 4688
CPLX:pref_late: 3090
CPLX:misses: 93853
CPLX:misses_by_poll: 0

NL_L1: 
NL:times selected: 21145
NL:pref_filled: 730
NL:pref_useful: 372
NL:pref_late: 290
NL:misses: 1747
NL:misses_by_poll: 0

total selections: 2386635
total_filled: 92843
total_useful: 33281
total_late: 19389
total_polluted: 3
total_misses_after_warmup: 769777
conflicts: 5535884

test: 116247

DRAM Statistics
 CHANNEL 0
 RQ ROW_BUFFER_HIT:       9861  ROW_BUFFER_MISS:      16991
 DBUS_CONGESTED:         10
 WQ ROW_BUFFER_HIT:       1233  ROW_BUFFER_MISS:      11975  FULL:          0

 AVG_CONGESTED_CYCLE: 5

CPU 0 Branch Prediction Accuracy: 99.8242% MPKI: 0.3217 Average ROB Occupancy at Mispredict: 180.9
Branch types
NOT_BRANCH: 40851638 81.7033%
BRANCH_DIRECT_JUMP: 548494 1.09699%
BRANCH_INDIRECT: 182795 0.36559%
BRANCH_CONDITIONAL: 6181571 12.3631%
BRANCH_DIRECT_CALL: 945369 1.89074%
BRANCH_INDIRECT_CALL: 172232 0.344464%
BRANCH_RETURN: 1117603 2.23521%
BRANCH_OTHER: 0 0%

DRAM PAGES: 1048576
Allocated PAGES: 2629
Average_ROB_Occupancy: 213.998
Average_Decode_Occupancy: 27.3908
Average_FTQ_Occupancy: 10.6332
Indirect max targets: 14 Average targets: 1.17516
Branch_type:  BRANCH_DIRECT_JUMP:  Count Percentage: 1.60033 7.78035 3.43175 8.08773 2.93618 5.9597 6.02651 64.1774 
Branch_type:  BRANCH_INDIRECT:  Count Percentage: 11.7438 5.58745 2.52736 0 1.33759 9.68975 17.6387 51.4754 
Branch_type:  BRANCH_CONDITIONAL:  Count Percentage: 20.6462 7.67925 1.58095 4.72511 1.897 4.75847 2.97875 55.7342 
Branch_type:  BRANCH_DIRECT_CALL:  Count Percentage: 0.257882 1.47839 1.27867 3.36448 3.36856 2.22198 0.729511 87.3005 
Branch_type:  BRANCH_INDIRECT_CALL:  Count Percentage: 9.51451 2.27185 2.98138 8.65563 1.4182 1.70759 1.27583 72.175 
Branch_type:  BRANCH_RETURN:  Count Percentage: 4.38529 5.10012 1.15677 5.64682 3.74977 6.1115 3.81125 70.0385 
Branch_type:  BRANCH_DIRECT_JUMP:  Total Count: 17535 85250 37602 88618 32172 65301 66033 703198 
Branch_type:  BRANCH_INDIRECT:  Total Count: 42898 20410 9232 0 4886 35395 64431 188031 
Branch_type:  BRANCH_CONDITIONAL:  Total Count: 2550751 948738 195320 583766 234366 587888 368011 6885720 
Branch_type:  BRANCH_DIRECT_CALL:  Total Count: 4873 27936 24162 63576 63653 41987 13785 1649650 
Branch_type:  BRANCH_INDIRECT_CALL:  Total Count: 32746 7819 10261 29790 4881 5877 4391 248404 
Branch_type:  BRANCH_RETURN:  Total Count: 97997 113971 25850 126188 83795 136572 85169 1565131 
Number of unique branch instructions: 10553
Upper 32 bits: 
aaaa
ffff
ffff0000
Unique upper 32 bits: 3
Unique upper 36 bits: 3
Unique upper 40 bits: 5
Unique upper 44 bits: 32
Unique upper 48 bits: 157
Variant_0 : 1388 0.338867
Variant_1 : 2676 0.65332
Variant_2 : 0 0
Variant_3 : 0 0
Offset_3 4373
Offset_4 252
Offset_5 472
Offset_6 529
Offset_7 619
Offset_8 568
Offset_9 504
Offset_10 409
Offset_11 337
Offset_12 303
Offset_13 238
Offset_14 240
Offset_15 194
Offset_16 222
Offset_17 165
Offset_18 144
Offset_19 251
Offset_20 139
Offset_21 235
Offset_22 405
Offset_23 241
Offset_24 346
Offset_25 117
Offset_47 94
Offset_64 2
decode_dispatch_called: 23600066 63.9666
Dispatch_width: 0 12400700 52.5452 33.6114
Dispatch_width: 1 813853 3.44852 2.2059
Dispatch_width: 2 779253 3.30191 2.11212
Dispatch_width: 3 469240 1.9883 1.27185
Dispatch_width: 4 4193871 17.7706 11.3672
Dispatch_width: 5 214597 0.909307 0.581652
Dispatch_width: 6 4728552 20.0362 12.8165
Empty_decode_cycles: 13294302 36.0334
ROB_full_cycles: 6560050 17.7806
Starvation_cycles_per_kilo_instr: 256.058
Starvation_cycles_per_kilo_instr_3: 211.973
Starvation_cycles_per_kilo_instr_0: 191.35
Branch_type_1  (3,1)  (4,7)  (5,38)  (6,71)  (7,122)  (8,147)  (9,133)  (10,109)  (11,75)  (12,47)  (13,11)  (14,2)  (15,3)  (16,4)  (18,1)  (19,5)  (20,2)  (21,1)  (22,3)  (23,2)  (24,10)  (25,12) 
Branch_type_2  (3,1)  (4,1)  (5,1)  (8,4)  (9,4)  (10,1)  (12,1)  (13,1)  (14,1)  (16,3)  (17,2)  (20,2)  (21,2)  (23,5)  (24,1)  (47,43) 
Branch_type_3  (3,4371)  (4,244)  (5,429)  (6,442)  (7,469)  (8,354)  (9,277)  (10,164)  (11,128)  (12,54)  (13,10)  (64,2) 
Branch_type_4  (6,3)  (7,8)  (8,24)  (9,53)  (10,64)  (11,68)  (12,111)  (13,101)  (14,108)  (15,92)  (16,97)  (17,76)  (18,61)  (19,122)  (20,71)  (21,124)  (22,212)  (23,136)  (24,202)  (25,101) 
Branch_type_5  (8,3)  (9,1)  (10,4)  (11,5)  (12,3)  (13,14)  (14,16)  (15,11)  (16,22)  (17,11)  (18,23)  (19,14)  (20,11)  (21,13)  (22,43)  (23,26)  (24,37) 
Branch_type_6  (5,4)  (6,13)  (7,20)  (8,36)  (9,36)  (10,67)  (11,61)  (12,87)  (13,101)  (14,113)  (15,88)  (16,96)  (17,76)  (18,59)  (19,110)  (20,53)  (21,95)  (22,147)  (23,72)  (24,96)  (25,4)  (47,51) 
Unique trigger count: 
Variant_0_evicts_0 : 0
Variant_0_evicts_1 : 0
Variant_0_evicts_2 : 0
Variant_0_evicts_3 : 0
Variant_1_evicts_0 : 0
Variant_1_evicts_1 : 0
Variant_1_evicts_2 : 0
Variant_1_evicts_3 : 0
Variant_2_evicts_0 : 0
Variant_2_evicts_1 : 0
Variant_2_evicts_2 : 0
Variant_2_evicts_3 : 0
Variant_3_evicts_0 : 0
Variant_3_evicts_1 : 0
Variant_3_evicts_2 : 0
Variant_3_evicts_3 : 0
BTB PER SET UNIQUE ADDR: 16 9 11 16 17 13 15 10 9 15 11 13 10 10 11 14 14 11 15 12 13 11 14 13 10 13 8 15 12 14 12 14 15 9 7 11 12 15 9 10 12 12 15 13 11 10 9 12 14 9 14 12 12 12 11 9 7 11 10 12 9 14 11 13 17 9 12 12 15 12 16 11 14 10 12 9 5 10 8 19 15 12 10 18 11 12 13 9 8 20 11 8 8 12 8 9 10 13 10 16 19 15 13 12 10 11 12 14 7 10 9 19 10 11 12 7 12 8 8 14 11 10 12 15 14 7 6 14 17 8 9 16 12 13 10 11 11 15 11 13 11 12 9 8 16 13 14 12 6 13 14 16 7 9 9 11 12 14 12 14 12 11 14 16 15 12 14 9 11 9 11 12 13 9 9 10 11 14 8 11 11 12 10 10 15 16 9 11 8 11 8 9 10 12 14 10 13 10 9 17 12 13 13 10 11 11 13 17 8 11 10 13 14 10 12 12 12 14 12 14 9 15 9 14 9 16 15 11 7 19 11 9 11 10 10 14 16 9 8 14 9 8 16 16 7 8 13 11 11 10 11 13 11 10 11 10 10 8 12 11 13 8 6 10 11 12 8 10 11 10 14 15 8 8 8 11 11 15 12 17 7 10 13 13 11 14 11 16 8 13 11 12 13 13 8 10 12 13 13 14 11 12 10 12 10 14 10 15 16 15 8 20 8 14 14 8 12 17 10 17 13 14 11 12 11 16 8 10 14 11 12 13 12 10 13 16 8 9 11 17 13 13 9 11 12 13 11 7 11 12 14 10 12 13 9 10 9 15 8 8 13 13 9 11 10 13 8 11 12 13 11 9 12 15 9 15 11 18 15 15 8 10 7 8 8 13 16 14 13 13 11 12 12 12 12 7 9 10 11 10 14 15 10 13 18 10 10 17 13 10 14 7 11 15 10 12 16 13 15 16 6 14 9 11 13 11 12 11 16 13 14 11 10 14 14 10 10 12 11 13 13 12 11 15 17 7 10 12 13 12 14 14 19 11 14 13 17 12 9 15 11 10 12 14 15 9 11 9 7 13 15 9 16 13 9 18 13 11 8 11 16 15 11 12 10 17 14 17 15 14 11 14 14 8 12 10 13 14 10 15 11 16 12 14 11 7 9 15 13 14 8 14 14 9 16 9 14 16 10 8 9 12 12 11 11 16 16 8 11 16 15 12 12 10 13 13 12 12 11 13 12 11 11 12 12 15 9 15 9 12 9 10 14 11 12 15 8 11 10 11 9 14 13 12 9 14 11 16 12 15 18 12 15 14 12 11 16 20 14 10 13 16 7 9 16 7 12 12 20 16 13 14 15 10 10 10 10 12 14 8 13 11 8 8 9 16 19 12 11 8 17 12 10 9 7 16 9 12 14 12 22 11 10 11 12 17 12 12 10 10 8 12 14 11 9 10 14 12 14 14 9 13 13 14 18 9 10 15 17 10 11 8 7 9 12 11 13 14 11 11 15 6 16 12 10 18 11 13 13 12 13 15 13 16 22 12 12 9 9 14 6 16 13 12 13 12 15 11 16 15 11 19 10 10 12 13 7 16 9 14 8 15 12 17 7 12 14 14 10 11 14 11 14 12 11 8 21 14 12 12 12 16 13 13 12 10 16 12 11 11 14 9 12 9 10 15 12 12 12 10 9 15 11 11 14 11 12 14 14 12 13 12 14 13 13 13 15 11 11 12 14 9 7 14 10 15 11 11 12 14 12 14 11 10 13 8 11 14 16 16 9 17 15 12 11 13 10 14 11 6 9 5 20 16 10 15 11 10 19 10 16 12 21 18 15 14 16 10 15 10 10 14 13 14 11 14 16 19 11 13 14 16 7 13 12 11 17 10 10 10 14 16 16 9 10 13 14 11 13 13 13 14 8 11 12 15 12 20 11 12 10 9 11 12 13 16 15 13 12 11 13 14 10 11 15 11 14 10 14 14 12 15 17 10 9 7 11 9 12 11 11 9 15 12 12 13 17 12 9 8 12 14 14 9 11 17 19 15 12 9 13 13 10 11 8 13 10 15 13 11 9 14 13 16 14 11 18 10 11 16 16 12 8 15 14 8 8 17 9 8 15 15 10 12 13 17 9 7 15 12 8 13 13 13 13 15 11 13 11 12 11 13 9 12 9 17 10 12 16 15 10 16 13 11 8 12 15 8 12 14 13 15 11 12 14 14 19 18 12 15 13 18 12 13 10 17 16 14 14 13 17 14 11 13 13 13 13 11 18 10 11 13 9 14 12 12 11 14 11 16 12 13 10 10 11 10 9 7 6 11 11 10 14 11 
BTB PER SET COUNT: 21 11 1958 25 1464 17 1484 11 667 17 14 13 20339 1477 11 23 1466 1185 480 14 19 15 750 17 19 22 13 21 378 331 511 20 21 11 13 11 15 20 13 13 15 14 21 1184 1477 106 10 12 25 10 22 204 19 19 13 20 7 12 21 14 12 22 13 21 24 11 17 822 22 17 26 504 25 20 13 13 10 13 10 32 22 17 13 18 13 14 18 10 9 26 13 1052 495 16 8 12 13 999 19 24 27 26 15 22 592 13 16 25 978 17 11 37 11 12 16 11 18 10 8 952 241 58 21 19 14 14 6 27 26 978 14 2960 15 14 12 11 13 33 11 20 17 14 15 10 24 20 346 47 6 19 18 294 359 9 10 16 1483 18 280 105 15 238 983 22 59 687 15 12 17 10 13 13 23 14 14 13 13 17 11 987 18 16 1018 12 19 688 13 17 27 12 9 10 13 25 21 167 16 992 15 20 18 19 16 12 14 13 17 280 15 537 14 19 23 12614 17 1731 13 17 14 23 9 23 15 19 12 25 17 256 8 26 11 9 11 11 12 20 25 11 15 19 10 9 26 899 11 982 45 13 556 20 12 25 15 12 19 13 84 8 16 16 33 14 6 11 13 14 8 18 16 10 22 503 625 17 8 12 13 28 17 27 18 15 53 418 15 21 12 22 11 16 11 16 18 595 9 14 763 16 22 22 12 21 12 17 11 172 14 17 24 21 988 30 8 18 1462 1011 21 32 12 23 23 2949 14 16 12 773 526 10 21 11 13 22 19 11 18 23 10 34 21 23 20 2505 11 15 16 21 16 12 14 150 2323 11 14 19 12 11 14 25 8 8 14 21 14 16 10 17 9 16 15 19 21 373 18 817 988 22 14 34 22 565 979 13 11 8 8 15 388 25 19 16 16 17 13 12 14 8 9 17 19 66 20 18 12 14 26 14 20 220 15 10 1450 7 12 23 11 16 25 224 214 24 8 26 14 26 19 13 1453 15 29 721 20 15 12 20 26 27 13 291 12 23 1325 18 12 18 27 8 365 18 13 17 26 2929 31 19 20 2949 18 14 10 29 52 14 17 19 18 12 2071 12 7 18 16 14 17 20 11 29 20 14 10 13 22 18 12 18 14 21 292 28 23 22 32 20 2470 384 16 14 34 999 12 20 14 22 16 52 17 9 12 24 29 20 8 501 1461 29 22 13 18 22 12 11 10 21 16 12 18 21 222 1144 18 2864 22 17 17 10 16 16 1135 377 23 16 18 13 49 15 25 23 9 24 15 458 13 11 1085 13 16 19 10 12 12 15 12 107 17 15 11 21 17 26 13 47 1162 13 21 15 41 15 42 31 18 15 18 20 8 2116 20 12 12 18 27 21 17 18 22 10 20 11 1865 377 17 8 14 16 10 8 10 18 30 2757 11 8 24 1458 13 10 7 31 9 17 339 15 38 19 15 562 19 21 18 16 12 12 12 16 22 15 12 12 23 20 17 16 9 19 19 17 519 10 13 27 56 13 13 13 7 12 850 14 27 96 16 13 20 6 27 19 16 33 16 993 44 18 17 24 1199 25 971 18 21 9 10 25 6 25 357 23 1957 19 23 15 24 20 11 37 12 16 1055 18 7 3918 9 19 9 20 14 28 7 495 22 25 13 15 19 13 1000 14 116 8 805 1246 22 671 14 27 19 62 17 12 32 22 39 517 17 10 28 13 12 65 338 16 19 11 1456 24 526 11 16 13 988 14 23 13 56 36 22 1484 18 16 23 12 12 17 18 10 8 20 11 21 11 19 19 215 25 295 15 10 17 9 14 888 31 822 1475 29 989 14 11 18 11 22 100 7 11 965 30 24 37 22 242 13 27 1167 20 18 389 103 34 19 22 14 25 12 14 6119 23 21 464 23 20 2474 17 14 19 1148 7 21 17 16 23 17 11 22 19 29 22 16 527 13 17 14 963 17 26 24 9 20 1289 22 18 28 14 14 191 390 18 27 179 20 90 19 27 16 16 16 12 16 22 13 18 15 21 45 13 18 23 13 10 7 14 9 18 21 16 11 157 148 118 73 19 17 9 14 18 1345 20 14 12 33 26 35 51 10 14 19 24 236 8 30 11 21 127 11 16 464 14 19 31 13 37 14 11 106 18 988 9 24 28 1001 8 21 11 8 19 16 13 14 14 22 15 82 26 12 8 182 17 13 17 663 18 19 13 17 13 36 525 15 15 28 111 16 22 20 447 25 974 20 8 18 23 12 17 19 77 25 13 12 345 15 25 28 499 51 595 22 23 51 11 714 25 514 22 149 29 996 11 1233 24 24 28 38 27 15 15 44 13 19 20 14 15 19 12 30 501 18 18 15 13 15 12 9 6 13 16 10 15 14 
To predecode: 0
Predecoding something: 0
Predecode request dropped: 0
sizeofblock_0 0
sizeofblock_1 49067
sizeofblock_2 92620
sizeofblock_3 0
sizeofblock_4 0
sizeofblock_5 0
sizeofblock_6 0
sizeofblock_7 0
sizeofblock_8 0
Variant_0 Correct: 1611286 Incorrect: 0 Accuracy: 1
Variant_1 Correct: 5726890 Incorrect: 0 Accuracy: 1
Variant_2 Correct: 0 Incorrect: 0 Accuracy: -nan
Variant_3 Correct: 0 Incorrect: 0 Accuracy: -nan
