
*** ChampSim Multicore Out-of-Order Simulator ***

Warmup Instructions: 50000000
Simulation Instructions: 50000000
Number of CPUs: 1
LLC sets: 2048
LLC ways: 16
Off-chip DRAM Size: 4096 MB Channels: 1 Width: 64-bit Data Rate: 6400 MT/s
CPU 0 runs ./micro_traces/srv183.trace.gz
.gz
ITLB has LRU replacement policy
DTLB has LRU replacement policy
STLB has LRU replacement policy
FDIP Prefetcher at L1I
L1I has LRU replacement policy
L1D has LRU replacement policy
Initialize SRRIP state for L2C
Initialize DRRIP state for LLC
Heartbeat_Variant_0 : 1387 0.338623 per_variant_size: 0 1387 0 0 0 0 0 0 0 
Heartbeat_Variant_1 : 2474 0.604004 per_variant_size: 0 151 2323 0 0 0 0 0 0 
Heartbeat_Variant_2 : 0 0 per_variant_size: 0 0 0 0 0 0 0 0 0 
Heartbeat_Variant_3 : 0 0 per_variant_size: 0 0 0 0 0 0 0 0 0 
Heartbeat_Variant_0_evicts 0 : 5477 1 : 15 2 : 0 3 : 0 
Heartbeat_Variant_1_evicts 0 : 8 1 : 0 2 : 0 3 : 0 
Heartbeat_Variant_2_evicts 0 : 0 1 : 0 2 : 0 3 : 0 
Heartbeat_Variant_3_evicts 0 : 0 1 : 0 2 : 0 3 : 0 
Heartbeat CPU 0 instructions: 10000002 cycles: 2797671 heartbeat IPC: 3.5744 cumulative IPC: 3.5744 (Simulation time: 0 hr 1 min 42 sec) 
Heartbeat_Variant_0 : 1391 0.3396 per_variant_size: 0 1391 0 0 0 0 0 0 0 
Heartbeat_Variant_1 : 2493 0.608643 per_variant_size: 0 154 2339 0 0 0 0 0 0 
Heartbeat_Variant_2 : 0 0 per_variant_size: 0 0 0 0 0 0 0 0 0 
Heartbeat_Variant_3 : 0 0 per_variant_size: 0 0 0 0 0 0 0 0 0 
Heartbeat_Variant_0_evicts 0 : 5539 1 : 4 2 : 0 3 : 0 
Heartbeat_Variant_1_evicts 0 : 4 1 : 0 2 : 0 3 : 0 
Heartbeat_Variant_2_evicts 0 : 0 1 : 0 2 : 0 3 : 0 
Heartbeat_Variant_3_evicts 0 : 0 1 : 0 2 : 0 3 : 0 
Heartbeat CPU 0 instructions: 20000003 cycles: 5594112 heartbeat IPC: 3.57597 cumulative IPC: 3.57519 (Simulation time: 0 hr 3 min 22 sec) 
Heartbeat_Variant_0 : 1404 0.342773 per_variant_size: 0 1404 0 0 0 0 0 0 0 
Heartbeat_Variant_1 : 2519 0.61499 per_variant_size: 0 165 2354 0 0 0 0 0 0 
Heartbeat_Variant_2 : 0 0 per_variant_size: 0 0 0 0 0 0 0 0 0 
Heartbeat_Variant_3 : 0 0 per_variant_size: 0 0 0 0 0 0 0 0 0 
Heartbeat_Variant_0_evicts 0 : 5531 1 : 6 2 : 0 3 : 0 
Heartbeat_Variant_1_evicts 0 : 5 1 : 0 2 : 0 3 : 0 
Heartbeat_Variant_2_evicts 0 : 0 1 : 0 2 : 0 3 : 0 
Heartbeat_Variant_3_evicts 0 : 0 1 : 0 2 : 0 3 : 0 
Heartbeat CPU 0 instructions: 30000000 cycles: 8391658 heartbeat IPC: 3.57456 cumulative IPC: 3.57498 (Simulation time: 0 hr 5 min 4 sec) 
Heartbeat_Variant_0 : 1409 0.343994 per_variant_size: 0 1409 0 0 0 0 0 0 0 
Heartbeat_Variant_1 : 2529 0.617432 per_variant_size: 0 151 2378 0 0 0 0 0 0 
Heartbeat_Variant_2 : 0 0 per_variant_size: 0 0 0 0 0 0 0 0 0 
Heartbeat_Variant_3 : 0 0 per_variant_size: 0 0 0 0 0 0 0 0 0 
Heartbeat_Variant_0_evicts 0 : 5626 1 : 7 2 : 0 3 : 0 
Heartbeat_Variant_1_evicts 0 : 4 1 : 0 2 : 0 3 : 0 
Heartbeat_Variant_2_evicts 0 : 0 1 : 0 2 : 0 3 : 0 
Heartbeat_Variant_3_evicts 0 : 0 1 : 0 2 : 0 3 : 0 
Heartbeat CPU 0 instructions: 40000002 cycles: 11187560 heartbeat IPC: 3.57666 cumulative IPC: 3.5754 (Simulation time: 0 hr 6 min 46 sec) 
Heartbeat_Variant_0 : 1409 0.343994 per_variant_size: 0 1409 0 0 0 0 0 0 0 
Heartbeat_Variant_1 : 2535 0.618896 per_variant_size: 0 160 2375 0 0 0 0 0 0 
Heartbeat_Variant_2 : 0 0 per_variant_size: 0 0 0 0 0 0 0 0 0 
Heartbeat_Variant_3 : 0 0 per_variant_size: 0 0 0 0 0 0 0 0 0 
Heartbeat_Variant_0_evicts 0 : 5567 1 : 2 2 : 0 3 : 0 
Heartbeat_Variant_1_evicts 0 : 2 1 : 0 2 : 0 3 : 0 
Heartbeat_Variant_2_evicts 0 : 0 1 : 0 2 : 0 3 : 0 
Heartbeat_Variant_3_evicts 0 : 0 1 : 0 2 : 0 3 : 0 
Heartbeat CPU 0 instructions: 50000003 cycles: 13984721 heartbeat IPC: 3.57505 cumulative IPC: 3.57533 (Simulation time: 0 hr 8 min 27 sec) 

Warmup complete CPU 0 instructions: 50000003 cycles: 13984721 (Simulation time: 0 hr 8 min 27 sec) 

Cycle: 20000000 FTQ IN: 58239605 FTQ occupancy: 20.531 DECODE IN: 58239503 DECODE occupancy: 53.3291 ROB IN: 58239443 ROB occupancy: 317.632 ROB OUT: 58239091
Heartbeat_Variant_0 : 1416 0.345703 per_variant_size: 0 1416 0 0 0 0 0 0 0 
Heartbeat_Variant_1 : 2566 0.626465 per_variant_size: 0 169 2397 0 0 0 0 0 0 
Heartbeat_Variant_2 : 0 0 per_variant_size: 0 0 0 0 0 0 0 0 0 
Heartbeat_Variant_3 : 0 0 per_variant_size: 0 0 0 0 0 0 0 0 0 
Heartbeat_Variant_0_evicts 0 : 5542 1 : 14 2 : 0 3 : 0 
Heartbeat_Variant_1_evicts 0 : 13 1 : 0 2 : 0 3 : 0 
Heartbeat_Variant_2_evicts 0 : 0 1 : 0 2 : 0 3 : 0 
Heartbeat_Variant_3_evicts 0 : 0 1 : 0 2 : 0 3 : 0 
Heartbeat CPU 0 instructions: 60000002 cycles: 21267374 heartbeat IPC: 1.37313 cumulative IPC: 1.37313 (Simulation time: 0 hr 10 min 26 sec) 
Heartbeat_Variant_0 : 1416 0.345703 per_variant_size: 0 1416 0 0 0 0 0 0 0 
Heartbeat_Variant_1 : 2569 0.627197 per_variant_size: 0 177 2392 0 0 0 0 0 0 
Heartbeat_Variant_2 : 0 0 per_variant_size: 0 0 0 0 0 0 0 0 0 
Heartbeat_Variant_3 : 0 0 per_variant_size: 0 0 0 0 0 0 0 0 0 
Heartbeat_Variant_0_evicts 0 : 5563 1 : 2 2 : 0 3 : 0 
Heartbeat_Variant_1_evicts 0 : 3 1 : 0 2 : 0 3 : 0 
Heartbeat_Variant_2_evicts 0 : 0 1 : 0 2 : 0 3 : 0 
Heartbeat_Variant_3_evicts 0 : 0 1 : 0 2 : 0 3 : 0 
Heartbeat CPU 0 instructions: 70000002 cycles: 28417325 heartbeat IPC: 1.39861 cumulative IPC: 1.38575 (Simulation time: 0 hr 12 min 27 sec) 
Cycle: 30000000 FTQ IN: 13853278 FTQ occupancy: 14.9087 DECODE IN: 13853238 DECODE occupancy: 38.3154 ROB IN: 13853268 ROB occupancy: 248.932 ROB OUT: 13853272
Heartbeat_Variant_0 : 1445 0.352783 per_variant_size: 0 1445 0 0 0 0 0 0 0 
Heartbeat_Variant_1 : 2599 0.634521 per_variant_size: 0 151 2448 0 0 0 0 0 0 
Heartbeat_Variant_2 : 0 0 per_variant_size: 0 0 0 0 0 0 0 0 0 
Heartbeat_Variant_3 : 0 0 per_variant_size: 0 0 0 0 0 0 0 0 0 
Heartbeat_Variant_0_evicts 0 : 5610 1 : 61 2 : 0 3 : 0 
Heartbeat_Variant_1_evicts 0 : 50 1 : 0 2 : 0 3 : 0 
Heartbeat_Variant_2_evicts 0 : 0 1 : 0 2 : 0 3 : 0 
Heartbeat_Variant_3_evicts 0 : 0 1 : 0 2 : 0 3 : 0 
Heartbeat CPU 0 instructions: 80000001 cycles: 35670945 heartbeat IPC: 1.37862 cumulative IPC: 1.38337 (Simulation time: 0 hr 14 min 26 sec) 
Cycle: 40000000 FTQ IN: 13951683 FTQ occupancy: 14.9206 DECODE IN: 13951825 DECODE occupancy: 38.656 ROB IN: 13951855 ROB occupancy: 250.224 ROB OUT: 13952145
Heartbeat_Variant_0 : 1456 0.355469 per_variant_size: 0 1456 0 0 0 0 0 0 0 
Heartbeat_Variant_1 : 2616 0.638672 per_variant_size: 0 135 2481 0 0 0 0 0 0 
Heartbeat_Variant_2 : 0 0 per_variant_size: 0 0 0 0 0 0 0 0 0 
Heartbeat_Variant_3 : 0 0 per_variant_size: 0 0 0 0 0 0 0 0 0 
Heartbeat_Variant_0_evicts 0 : 5601 1 : 55 2 : 0 3 : 0 
Heartbeat_Variant_1_evicts 0 : 59 1 : 0 2 : 0 3 : 0 
Heartbeat_Variant_2_evicts 0 : 0 1 : 0 2 : 0 3 : 0 
Heartbeat_Variant_3_evicts 0 : 0 1 : 0 2 : 0 3 : 0 
Heartbeat CPU 0 instructions: 90000002 cycles: 42814983 heartbeat IPC: 1.39977 cumulative IPC: 1.38743 (Simulation time: 0 hr 16 min 26 sec) 
Cycle: 50000000 FTQ IN: 13658675 FTQ occupancy: 14.646 DECODE IN: 13658603 DECODE occupancy: 37.3957 ROB IN: 13658543 ROB occupancy: 244.639 ROB OUT: 13658253
Heartbeat_Variant_0 : 1464 0.357422 per_variant_size: 0 1464 0 0 0 0 0 0 0 
Heartbeat_Variant_1 : 2632 0.642578 per_variant_size: 0 88 2544 0 0 0 0 0 0 
Heartbeat_Variant_2 : 0 0 per_variant_size: 0 0 0 0 0 0 0 0 0 
Heartbeat_Variant_3 : 0 0 per_variant_size: 0 0 0 0 0 0 0 0 0 
Heartbeat_Variant_0_evicts 0 : 5769 1 : 439 2 : 0 3 : 0 
Heartbeat_Variant_1_evicts 0 : 437 1 : 0 2 : 0 3 : 0 
Heartbeat_Variant_2_evicts 0 : 0 1 : 0 2 : 0 3 : 0 
Heartbeat_Variant_3_evicts 0 : 0 1 : 0 2 : 0 3 : 0 
Heartbeat CPU 0 instructions: 100000000 cycles: 50206286 heartbeat IPC: 1.35294 cumulative IPC: 1.38039 (Simulation time: 0 hr 18 min 30 sec) 
Finished CPU 0 instructions: 50000001 cycles: 36221566 cumulative IPC: 1.38039 (Simulation time: 0 hr 18 min 30 sec) 

ChampSim completed all CPUs

Region of Interest Statistics

CPU 0 cumulative IPC: 1.38039 instructions: 50000001 cycles: 36221566
 Fetch stage stalled: 46.1518  Sim cycles: 36221566 fetch stall cycle: 16716919
 Empty decode stage: 25.0722  Sim cycles: 36221566 fetch stall cycle: 9081531
ITLB TOTAL     ACCESS:    5847427  HIT:    5351344  MISS:     496083  HIT %:    91.5162  MISS %:    8.48378   MPKI: 9.92166
ITLB LOAD TRANSLATION INSTRUCTION	ACCESS:    5714585  HIT:    5218502  MISS:     496083  HIT %:     91.319  MISS %:      8.681  MPKI: 9.92166
ITLB TRANSLATION FROM L1D PREFETCHER INSTRUCTION	ACCESS:     132842  HIT:     132842  MISS:          0  HIT %:        100  MISS %:          0  MPKI: 0

ITLB AVERAGE MISS LATENCY: 9.07571 cycles
ITLB RQ	ACCESS:    7954974	FORWARD:          0	MERGED:    1625456	TO_CACHE:    6329518

DTLB TOTAL     ACCESS:    8961781  HIT:    8489451  MISS:     472330  HIT %:    94.7295  MISS %:    5.27049   MPKI: 9.4466
DTLB LOAD TRANSLATION DATA	ACCESS:    8961781  HIT:    8489451  MISS:     472330  HIT %:    94.7295  MISS %:    5.27049  MPKI: 9.4466

DTLB AVERAGE MISS LATENCY: 9.39325 cycles
DTLB RQ	ACCESS:   13335872	FORWARD:          0	MERGED:    4336386	TO_CACHE:    8999486

STLB TOTAL     ACCESS:    1216393  HIT:    1214106  MISS:       2287  HIT %:     99.812  MISS %:   0.188015   MPKI: 0.04574
STLB LOAD TRANSLATION INSTRUCTION	ACCESS:     496083  HIT:     495761  MISS:        322  HIT %:    99.9351  MISS %:  0.0649085  MPKI: 0.00644
STLB LOAD TRANSLATION DATA	ACCESS:     472330  HIT:     470410  MISS:       1920  HIT %:    99.5935  MISS %:   0.406495  MPKI: 0.0384
STLB TRANSLATION FROM L1D PREFETCHER DATA	ACCESS:     247980  HIT:     247935  MISS:         45  HIT %:    99.9819  MISS %:  0.0181466  MPKI: 0.0009

STLB AVERAGE MISS LATENCY: 83.9663 cycles
STLB RQ	ACCESS:    1337172	FORWARD:          0	MERGED:     120740	TO_CACHE:    1216432

STLB Hit, L1D data hit: 0
STLB Hit, L2C data hit: 0
STLB Hit, LLC data hit: 0
STLB Hit, LLC data miss: 0
STLB STLB hints to L2: 0
L1D TOTAL     ACCESS:   13079512  HIT:   11953030  MISS:    1126482  HIT %:    91.3874  MISS %:    8.61257   MPKI: 22.5296
L1D LOAD DATA	ACCESS:    6545108  HIT:    5802318  MISS:     742790  HIT %:    88.6512  MISS %:    11.3488  MPKI: 14.8558
L1D RFO DATA	ACCESS:    6206993  HIT:    5918620  MISS:     288373  HIT %:    95.3541  MISS %:    4.64594  MPKI: 5.76746
L1D PREFETCH DATA	ACCESS:     327411  HIT:     232092  MISS:      95319  HIT %:    70.8871  MISS %:    29.1129  MPKI: 1.90638

L1D PREFETCH  REQUESTED:     737865  ISSUED:     737865  USEFUL:      35119  USELESS:      68131
L1D USEFUL LOAD PREFETCHES:      35119 PREFETCH ISSUED TO LOWER LEVEL:     103355  ACCURACY: 33.979
 TIMELY PREFETCHES:      35119 LATE PREFETCHES: 7971 DROPPED PREFETCHES: 11
L1D AVERAGE MISS LATENCY: 226170 cycles
L1D RQ	ACCESS:   10686112	FORWARD:          0	MERGED:    3939491	TO_CACHE:    6580609
L1D WQ	ACCESS:    6954528	FORWARD:     166359	MERGED:     199265	TO_CACHE:    6755263
L1D PQ	ACCESS:     369106	FORWARD:          0	MERGED:          0	TO_CACHE:     368759

L1D UNIQUE REGIONS ACCESSED: 0
L1D REGIONS CONFLICTS: 0
L1D Cross Page Prefetch Requests: 6966
L1D Same Page Prefetch Requests: 748277
L1D ROI Sum of L1D PQ occupancy: 4700184
L1D PREFETCHES PUSHED FROM L2C: 0
L1I TOTAL     ACCESS:    7132390  HIT:    4358539  MISS:    2773851  HIT %:    61.1091  MISS %:    38.8909   MPKI: 55.477
L1I LOAD INSTRUCTION	ACCESS:    6468721  HIT:    3694870  MISS:    2773851  HIT %:     57.119  MISS %:     42.881  MPKI: 55.477
L1I PREFETCH INSTRUCTION	ACCESS:     663669  HIT:     663669  MISS:          0  HIT %:        100  MISS %:          0  MPKI: 0

L1I PREFETCH  REQUESTED:    1617272  ISSUED:    1617272  USEFUL:          0  USELESS:          0
L1I USEFUL LOAD PREFETCHES:          0 PREFETCH ISSUED TO LOWER LEVEL:          0  ACCURACY: -nan
 TIMELY PREFETCHES:          0 LATE PREFETCHES: 0 DROPPED PREFETCHES: 0
L1I AVERAGE MISS LATENCY: 17.1545 cycles
L1I RQ	ACCESS:    9566493	FORWARD:          0	MERGED:    2798207	TO_CACHE:    6768286
L1I PQ	ACCESS:    1617272	FORWARD:          0	MERGED:     430584	TO_CACHE:    1186688

L1BTB TOTAL     ACCESS:    5670140  HIT:    2034373  MISS:    3635767  HIT %:    35.8787  MISS %:    64.1213   MPKI: 72.7153
L1BTB BRANCH_DIRECT_JUMP	ACCESS:     546743 HIT:     143375 MISS:     403368 AVERAGE STALL: 56.3163 AVERAGE FETCH STALL: 13.5741 AVERAGE FETCH QUEUE STALL: 20.2169 AVERAGE DECODE STALL: 21.6167 AVERAGE EXECUTE STALL: 2.46219e+15
L1BTB BRANCH_INDIRECT	ACCESS:     182459 HIT:      65638 MISS:     116821 AVERAGE STALL: 111.543 AVERAGE FETCH STALL: 10.9557 AVERAGE FETCH QUEUE STALL: 17.1119 AVERAGE DECODE STALL: 13.3952 AVERAGE EXECUTE STALL: 69.1175
L1BTB BRANCH_CONDITIONAL	ACCESS:    2705178 HIT:    1411050 MISS:    1294128 AVERAGE STALL: 52.9915 AVERAGE FETCH STALL: 21.1946 AVERAGE FETCH QUEUE STALL: 16.9454 AVERAGE DECODE STALL: 14.1318 AVERAGE EXECUTE STALL: 3.9016e+15
L1BTB BRANCH_DIRECT_CALL	ACCESS:     946771 HIT:     104164 MISS:     842607 AVERAGE STALL: 74.173 AVERAGE FETCH STALL: 36.1336 AVERAGE FETCH QUEUE STALL: 19.6227 AVERAGE DECODE STALL: 17.7291 AVERAGE EXECUTE STALL: 9.81732e+15
L1BTB BRANCH_INDIRECT_CALL	ACCESS:     171107 HIT:      20724 MISS:     150383 AVERAGE STALL: 142.687 AVERAGE FETCH STALL: 12.5565 AVERAGE FETCH QUEUE STALL: 17.8355 AVERAGE DECODE STALL: 12.1133 AVERAGE EXECUTE STALL: 99.6894
L1BTB BRANCH_RETURN	ACCESS:    1117882 HIT:     289422 MISS:     828460 AVERAGE STALL: 52.6785 AVERAGE FETCH STALL: 16.6473 AVERAGE FETCH QUEUE STALL: 7.34725 AVERAGE DECODE STALL: 6.32757 AVERAGE EXECUTE STALL: 4.27008e+14
L1BTB BRANCH_OTHER ACCESS:          0 HIT:          0 MISS:          0 AVERAGE STALL: -nan AVERAGE FETCH STALL: -nan AVERAGE FETCH QUEUE STALL: -nan AVERAGE DECODE STALL: -nan AVERAGE EXECUTE STALL: -nan
L1BTB TOTAL ROB OCCUPANCY AT BTB MISS: 2.50439

L2BTB TOTAL     ACCESS:    3610390  HIT:    3545494  MISS:      64896  HIT %:    98.2025  MISS %:    1.79748   MPKI: 1.29792
L2BTB BRANCH_DIRECT_JUMP	ACCESS:     399224 HIT:     395824 MISS:       3400 AVERAGE STALL: 56.3163 AVERAGE FETCH STALL: 13.5741 AVERAGE FETCH QUEUE STALL: 20.2169 AVERAGE DECODE STALL: 21.6167 AVERAGE EXECUTE STALL: 2.46219e+15
L2BTB BRANCH_INDIRECT	ACCESS:     106507 HIT:     103817 MISS:       2690 AVERAGE STALL: 111.543 AVERAGE FETCH STALL: 10.9557 AVERAGE FETCH QUEUE STALL: 17.1119 AVERAGE DECODE STALL: 13.3952 AVERAGE EXECUTE STALL: 69.1175
L2BTB BRANCH_CONDITIONAL	ACCESS:    1294128 HIT:    1289235 MISS:       4893 AVERAGE STALL: 52.9915 AVERAGE FETCH STALL: 21.1946 AVERAGE FETCH QUEUE STALL: 16.9454 AVERAGE DECODE STALL: 14.1318 AVERAGE EXECUTE STALL: 3.9016e+15
L2BTB BRANCH_DIRECT_CALL	ACCESS:     842607 HIT:     840655 MISS:       1952 AVERAGE STALL: 74.173 AVERAGE FETCH STALL: 36.1336 AVERAGE FETCH QUEUE STALL: 19.6227 AVERAGE DECODE STALL: 17.7291 AVERAGE EXECUTE STALL: 9.81732e+15
L2BTB BRANCH_INDIRECT_CALL	ACCESS:     140895 HIT:     130787 MISS:      10108 AVERAGE STALL: 142.687 AVERAGE FETCH STALL: 12.5565 AVERAGE FETCH QUEUE STALL: 17.8355 AVERAGE DECODE STALL: 12.1133 AVERAGE EXECUTE STALL: 99.6894
L2BTB BRANCH_RETURN	ACCESS:     827029 HIT:     785176 MISS:      41853 AVERAGE STALL: 52.6785 AVERAGE FETCH STALL: 16.6473 AVERAGE FETCH QUEUE STALL: 7.34725 AVERAGE DECODE STALL: 6.32757 AVERAGE EXECUTE STALL: 4.27008e+14
L2BTB BRANCH_OTHER ACCESS:          0 HIT:          0 MISS:          0 AVERAGE STALL: -nan AVERAGE FETCH STALL: -nan AVERAGE FETCH QUEUE STALL: -nan AVERAGE DECODE STALL: -nan AVERAGE EXECUTE STALL: -nan
L2BTB TOTAL ROB OCCUPANCY AT BTB MISS: 140.307

L2C TOTAL     ACCESS:    4512679  HIT:    4045322  MISS:     467357  HIT %:    89.6435  MISS %:    10.3565   MPKI: 9.34714
L2C LOAD INSTRUCTION	ACCESS:    2773850  HIT:    2525933  MISS:     247917  HIT %:    91.0624  MISS %:    8.93765  MPKI: 4.95834
L2C LOAD TRANSLATION INSTRUCTION	ACCESS:        380  HIT:        124  MISS:        256  HIT %:    32.6316  MISS %:    67.3684  MPKI: 0.00512
L2C LOAD DATA	ACCESS:     734790  HIT:     662973  MISS:      71817  HIT %:    90.2262  MISS %:    9.77381  MPKI: 1.43634
L2C RFO DATA	ACCESS:     288281  HIT:     231766  MISS:      56515  HIT %:    80.3959  MISS %:    19.6041  MPKI: 1.1303
L2C PREFETCH DATA	ACCESS:     186410  HIT:     112551  MISS:      73859  HIT %:    60.3782  MISS %:    39.6218  MPKI: 1.47718
L2C WRITEBACK DATA	ACCESS:     526845  HIT:     511266  MISS:      15579  HIT %:     97.043  MISS %:    2.95704  MPKI: 0.31158
L2C LOAD TRANSLATION DATA	ACCESS:       2050  HIT:        658  MISS:       1392  HIT %:    32.0976  MISS %:    67.9024  MPKI: 0.02784
L2C TRANSLATION FROM L1D PREFETCHER DATA	ACCESS:         73  HIT:         51  MISS:         22  HIT %:     69.863  MISS %:     30.137  MPKI: 0.00044

L2C PREFETCH  REQUESTED:      90263  ISSUED:      90263  USEFUL:       7573  USELESS:      66808
L2C USEFUL LOAD PREFETCHES:       7573 PREFETCH ISSUED TO LOWER LEVEL:      74243  ACCURACY: 10.2003
 TIMELY PREFETCHES:       7573 LATE PREFETCHES: 384 DROPPED PREFETCHES: 0
L2C AVERAGE MISS LATENCY: 40.007 cycles
L2C RQ	ACCESS:    3799481	FORWARD:          0	MERGED:          0	TO_CACHE:    3799426
L2C WQ	ACCESS:     526845	FORWARD:         59	MERGED:          0	TO_CACHE:     526845
L2C PQ	ACCESS:     193618	FORWARD:          0	MERGED:       3233	TO_CACHE:     190381

L2C Dense regions hint from L2: 0
PSCL5 TOTAL     ACCESS:       4600  HIT:       2300  MISS:       2300  HIT %:         50  MISS %:         50   MPKI: 0.046
PSCL5 LOAD TRANSLATION INSTRUCTION	ACCESS:       4456  HIT:       2228  MISS:       2228  HIT %:         50  MISS %:         50  MPKI: 0.04456
PSCL5 TRANSLATION FROM L1D PREFETCHER INSTRUCTION	ACCESS:        144  HIT:         72  MISS:         72  HIT %:         50  MISS %:         50  MPKI: 0.00144


PSCL4 TOTAL     ACCESS:       4450  HIT:       2218  MISS:       2232  HIT %:    49.8427  MISS %:    50.1573   MPKI: 0.04464
PSCL4 LOAD TRANSLATION INSTRUCTION	ACCESS:       3545  HIT:       2146  MISS:       1399  HIT %:     60.536  MISS %:     39.464  MPKI: 0.02798
PSCL4 TRANSLATION FROM L1D PREFETCHER INSTRUCTION	ACCESS:        124  HIT:         72  MISS:         52  HIT %:    58.0645  MISS %:    41.9355  MPKI: 0.00104
PSCL4 LOAD TRANSLATION DATA	ACCESS:        761  HIT:          0  MISS:        761  HIT %:          0  MISS %:        100  MPKI: 0.01522
PSCL4 TRANSLATION FROM L1D PREFETCHER DATA	ACCESS:         20  HIT:          0  MISS:         20  HIT %:          0  MISS %:        100  MPKI: 0.0004


PSCL3 TOTAL     ACCESS:       4518  HIT:       2252  MISS:       2266  HIT %:    49.8451  MISS %:    50.1549   MPKI: 0.04532
PSCL3 LOAD TRANSLATION INSTRUCTION	ACCESS:       3579  HIT:       2180  MISS:       1399  HIT %:    60.9109  MISS %:    39.0891  MPKI: 0.02798
PSCL3 TRANSLATION FROM L1D PREFETCHER INSTRUCTION	ACCESS:        124  HIT:         72  MISS:         52  HIT %:    58.0645  MISS %:    41.9355  MPKI: 0.00104
PSCL3 LOAD TRANSLATION DATA	ACCESS:        795  HIT:          0  MISS:        795  HIT %:          0  MISS %:        100  MPKI: 0.0159
PSCL3 TRANSLATION FROM L1D PREFETCHER DATA	ACCESS:         20  HIT:          0  MISS:         20  HIT %:          0  MISS %:        100  MPKI: 0.0004


PSCL2 TOTAL     ACCESS:       4419  HIT:       2119  MISS:       2300  HIT %:     47.952  MISS %:     52.048   MPKI: 0.046
PSCL2 LOAD TRANSLATION INSTRUCTION	ACCESS:       2386  HIT:       2048  MISS:        338  HIT %:     85.834  MISS %:     14.166  MPKI: 0.00676
PSCL2 TRANSLATION FROM L1D PREFETCHER INSTRUCTION	ACCESS:         71  HIT:         71  MISS:          0  HIT %:        100  MISS %:          0  MPKI: 0
PSCL2 LOAD TRANSLATION DATA	ACCESS:       1891  HIT:          0  MISS:       1891  HIT %:          0  MISS %:        100  MPKI: 0.03782
PSCL2 TRANSLATION FROM L1D PREFETCHER DATA	ACCESS:         71  HIT:          0  MISS:         71  HIT %:          0  MISS %:        100  MPKI: 0.00142


LLC TOTAL     ACCESS:     528125  HIT:     496013  MISS:      32112  HIT %:    93.9196  MISS %:    6.08038   MPKI: 0.64224
LLC LOAD INSTRUCTION	ACCESS:     247917  HIT:     246520  MISS:       1397  HIT %:    99.4365  MISS %:   0.563495  MPKI: 0.02794
LLC LOAD TRANSLATION INSTRUCTION	ACCESS:        256  HIT:        214  MISS:         42  HIT %:    83.5938  MISS %:    16.4062  MPKI: 0.00084
LLC LOAD DATA	ACCESS:      71463  HIT:      67481  MISS:       3982  HIT %:    94.4279  MISS %:    5.57211  MPKI: 0.07964
LLC RFO DATA	ACCESS:      56484  HIT:      40892  MISS:      15592  HIT %:    72.3957  MISS %:    27.6043  MPKI: 0.31184
LLC PREFETCH DATA	ACCESS:      74243  HIT:      63700  MISS:      10543  HIT %:    85.7993  MISS %:    14.2007  MPKI: 0.21086
LLC WRITEBACK DATA	ACCESS:      76348  HIT:      75929  MISS:        419  HIT %:    99.4512  MISS %:   0.548803  MPKI: 0.00838
LLC LOAD TRANSLATION DATA	ACCESS:       1392  HIT:       1255  MISS:        137  HIT %:     90.158  MISS %:    9.84195  MPKI: 0.00274
LLC TRANSLATION FROM L1D PREFETCHER DATA	ACCESS:         22  HIT:         22  MISS:          0  HIT %:        100  MISS %:          0  MPKI: 0

LLC AVERAGE MISS LATENCY: 158.879 cycles
LLC RQ	ACCESS:     377535	FORWARD:          0	MERGED:          0	TO_CACHE:     377534
LLC WQ	ACCESS:      76348	FORWARD:          1	MERGED:          0	TO_CACHE:      76348
LLC PQ	ACCESS:      74243	FORWARD:          0	MERGED:          0	TO_CACHE:      74243

LLC Dense regions hint to LLC: 0

RAW hits: 1952652
Loads Generated: 12638764
Loads sent to L1D: 10686112
Stores Generated: 6954524
Stores sent to L1D: 6954528
Major fault: 0 Minor fault: 2672
Allocated PAGES: 2672

stream: 
stream:times selected: 1188094
stream:pref_filled: 122255
stream:pref_useful: 24924
stream:pref_late: 6790
stream:misses: 8110
stream:misses_by_poll: 0

CS: 
CS:times selected: 178893
CS:pref_filled: 59959
CS:pref_useful: 36588
CS:pref_late: 6953
CS:misses: 16152
CS:misses_by_poll: 5

CPLX: 
CPLX:times selected: 1007977
CPLX:pref_filled: 19573
CPLX:pref_useful: 4714
CPLX:pref_late: 2933
CPLX:misses: 93795
CPLX:misses_by_poll: 1

NL_L1: 
NL:times selected: 21674
NL:pref_filled: 652
NL:pref_useful: 252
NL:pref_late: 359
NL:misses: 1845
NL:misses_by_poll: 0

total selections: 2396638
total_filled: 95319
total_useful: 35119
total_late: 18343
total_polluted: 6
total_misses_after_warmup: 778293
conflicts: 5518154

test: 116455

DRAM Statistics
 CHANNEL 0
 RQ ROW_BUFFER_HIT:      11705  ROW_BUFFER_MISS:      19976
 DBUS_CONGESTED:         12
 WQ ROW_BUFFER_HIT:       1713  ROW_BUFFER_MISS:      13538  FULL:          0

 AVG_CONGESTED_CYCLE: 6

CPU 0 Branch Prediction Accuracy: 99.7901% MPKI: 0.3838 Average ROB Occupancy at Mispredict: 175.754
Branch types
NOT_BRANCH: 40858643 81.7173%
BRANCH_DIRECT_JUMP: 546743 1.09349%
BRANCH_INDIRECT: 182459 0.364918%
BRANCH_CONDITIONAL: 6176393 12.3528%
BRANCH_DIRECT_CALL: 946771 1.89354%
BRANCH_INDIRECT_CALL: 171107 0.342214%
BRANCH_RETURN: 1117882 2.23576%
BRANCH_OTHER: 0 0%

DRAM PAGES: 1048576
Allocated PAGES: 2672
Average_ROB_Occupancy: 248.723
Average_Decode_Occupancy: 38.0324
Average_FTQ_Occupancy: 14.8112
Indirect max targets: 14 Average targets: 1.18266
Branch_type:  BRANCH_DIRECT_JUMP:  Count Percentage: 2.117 7.16123 4.13221 8.54386 9.65518 4.36117 0.90289 63.1265 
Branch_type:  BRANCH_INDIRECT:  Count Percentage: 11.7457 3.43481 2.55791 0 16.6757 9.68397 2.27217 53.6298 
Branch_type:  BRANCH_CONDITIONAL:  Count Percentage: 25.2881 2.75396 1.70479 5.25749 4.90105 4.53203 0.510389 55.0522 
Branch_type:  BRANCH_DIRECT_CALL:  Count Percentage: 0.774726 1.29441 1.37467 3.9975 4.18531 0.988976 0.938116 86.4463 
Branch_type:  BRANCH_INDIRECT_CALL:  Count Percentage: 9.56615 0 2.99692 8.72297 2.42915 0.00292668 1.28862 74.9933 
Branch_type:  BRANCH_RETURN:  Count Percentage: 8.40549 1.09493 1.32088 5.8674 6.58122 5.20846 1.47697 70.0447 
Branch_type:  BRANCH_DIRECT_JUMP:  Total Count: 23189 78442 45263 93587 105760 47771 9890 691469 
Branch_type:  BRANCH_INDIRECT:  Total Count: 42916 12550 9346 0 60929 35383 8302 195951 
Branch_type:  BRANCH_CONDITIONAL:  Total Count: 3125748 340405 210722 649855 605798 560185 63087 6804766 
Branch_type:  BRANCH_DIRECT_CALL:  Total Count: 14623 24432 25947 75453 78998 18667 17707 1631680 
Branch_type:  BRANCH_INDIRECT_CALL:  Total Count: 32686 0 10240 29805 8300 10 4403 256240 
Branch_type:  BRANCH_RETURN:  Total Count: 187451 24418 29457 130849 146768 116154 32938 1562068 
Number of unique branch instructions: 11118
Upper 32 bits: 
aaaa
ffff
ffff0000
Unique upper 32 bits: 3
Unique upper 36 bits: 3
Unique upper 40 bits: 5
Unique upper 44 bits: 32
Unique upper 48 bits: 160
Variant_0 : 1464 0.357422
Variant_1 : 2632 0.642578
Variant_2 : 0 0
Variant_3 : 0 0
Offset_3 4608
Offset_4 284
Offset_5 501
Offset_6 557
Offset_7 661
Offset_8 615
Offset_9 547
Offset_10 433
Offset_11 357
Offset_12 336
Offset_13 248
Offset_14 252
Offset_15 203
Offset_16 234
Offset_17 178
Offset_18 152
Offset_19 270
Offset_20 148
Offset_21 262
Offset_22 412
Offset_23 245
Offset_24 373
Offset_25 117
Offset_47 100
Offset_64 21
decode_dispatch_called: 26488121 73.128
Dispatch_width: 0 14300290 53.9876 39.48
Dispatch_width: 1 1046179 3.94962 2.88828
Dispatch_width: 2 848875 3.20474 2.34356
Dispatch_width: 3 503744 1.90177 1.39073
Dispatch_width: 4 6440838 24.3159 17.7818
Dispatch_width: 5 107682 0.406529 0.297287
Dispatch_width: 6 3240513 12.2338 8.94636
Empty_decode_cycles: 9733445 26.872
ROB_full_cycles: 10305868 28.4523
Starvation_cycles_per_kilo_instr: 226.752
Starvation_cycles_per_kilo_instr_3: 161.267
Starvation_cycles_per_kilo_instr_0: 137.279
Branch_type_1  (3,1)  (4,10)  (5,41)  (6,75)  (7,129)  (8,159)  (9,144)  (10,113)  (11,79)  (12,55)  (13,11)  (14,2)  (15,3)  (16,4)  (18,1)  (19,5)  (20,2)  (21,1)  (22,3)  (23,2)  (24,10)  (25,12)  (64,2) 
Branch_type_2  (3,1)  (4,1)  (5,1)  (8,4)  (9,4)  (10,1)  (12,1)  (13,1)  (14,1)  (16,3)  (17,2)  (20,2)  (21,2)  (23,5)  (24,1)  (47,46) 
Branch_type_3  (3,4606)  (4,273)  (5,455)  (6,464)  (7,498)  (8,381)  (9,302)  (10,175)  (11,138)  (12,62)  (13,10)  (24,3)  (64,15) 
Branch_type_4  (6,4)  (7,8)  (8,30)  (9,58)  (10,68)  (11,73)  (12,121)  (13,106)  (14,113)  (15,97)  (16,103)  (17,84)  (18,65)  (19,130)  (20,74)  (21,141)  (22,218)  (23,138)  (24,216)  (25,101)  (64,2) 
Branch_type_5  (8,3)  (9,1)  (10,4)  (11,5)  (12,3)  (13,14)  (14,16)  (15,11)  (16,22)  (17,11)  (18,23)  (19,15)  (20,12)  (21,13)  (22,43)  (23,26)  (24,42)  (64,1) 
Branch_type_6  (5,4)  (6,14)  (7,26)  (8,38)  (9,38)  (10,72)  (11,62)  (12,94)  (13,106)  (14,120)  (15,92)  (16,102)  (17,81)  (18,63)  (19,120)  (20,58)  (21,105)  (22,148)  (23,74)  (24,101)  (25,4)  (47,54)  (64,1) 
Unique trigger count: 
Variant_0_evicts_0 : 0
Variant_0_evicts_1 : 0
Variant_0_evicts_2 : 0
Variant_0_evicts_3 : 0
Variant_1_evicts_0 : 0
Variant_1_evicts_1 : 0
Variant_1_evicts_2 : 0
Variant_1_evicts_3 : 0
Variant_2_evicts_0 : 0
Variant_2_evicts_1 : 0
Variant_2_evicts_2 : 0
Variant_2_evicts_3 : 0
Variant_3_evicts_0 : 0
Variant_3_evicts_1 : 0
Variant_3_evicts_2 : 0
Variant_3_evicts_3 : 0
BTB PER SET UNIQUE ADDR: 35 30 34 34 41 38 41 33 31 40 47 27 36 32 33 34 35 42 45 35 41 34 37 40 43 39 34 38 36 38 38 27 33 35 38 37 46 38 37 41 39 35 32 35 33 40 47 35 42 31 35 47 34 38 43 35 33 33 49 27 37 33 31 33 40 37 36 35 50 31 38 46 35 37 35 41 32 35 37 34 45 30 37 44 31 45 35 31 38 42 32 35 38 31 27 36 38 27 32 35 39 38 38 38 35 37 44 29 39 29 32 41 40 44 41 35 43 31 34 41 49 32 33 39 34 37 39 39 35 34 44 42 34 33 32 43 46 30 33 37 38 32 42 36 42 39 42 35 28 45 41 34 30 41 34 36 41 28 30 34 40 34 41 40 34 47 40 33 34 32 44 35 44 31 35 35 31 37 42 40 41 31 34 37 35 41 38 40 34 41 34 35 35 32 35 43 35 41 43 34 35 44 40 31 48 35 41 42 35 42 39 38 36 35 27 47 50 32 33 30 41 40 35 31 38 40 44 44 40 33 33 37 40 28 33 37 37 39 37 36 51 31 33 42 26 41 36 33 40 42 32 31 43 31 31 52 
BTB PER SET COUNT: 48 2513 1574 36 1542 194 68 40 39 2423 110 30 212 42 1715 40 334 1722 66 55 505 89 43 782 56 530 625 48 1667 541 1018 41 1012 762 706 1417 83 42 679 442 47 39 125 55 43 101 562 1508 541 36 507 80 48 866 58 130 588 700 1848 1490 45 89 39 43 1688 1010 1030 517 1144 38 1023 1147 506 140 1309 52 3305 122 1506 44 965 39 78 199 1037 1730 399 1541 803 13789 36 53 56 210 31 59 46 37 41 212 642 52 794 862 40 48 2370 43 140 2967 163 56 1154 302 1596 37 1438 1987 2225 47 61 40 1988 1010 45 50 44 1508 2011 132 1023 259 1004 1054 77 135 138 39 49 41 141 269 50 78 551 3269 52 1508 1507 232 102 525 42 466 47 1789 413 30 570 42 145 2797 453 1617 2048 1238 1025 41 52 232 194 2239 1519 46 526 7922 41 82 334 527 115 100 71 524 73 1494 936 724 89 49 144 874 59 1553 42 3476 62 44 1540 43 67 160 61 212 1475 69 61 1426 42 74 44 1305 46 1126 33 702 91 124 206 41 2355 925 98 42 446 55 961 49 46 1595 2229 440 118 810 39 598 50 55 48 1036 274 53 58 3436 2961 133 1036 20532 54 55 650 60 62 34 39 1325 
To predecode: 0
Predecoding something: 0
Predecode request dropped: 0
sizeofblock_0 0
sizeofblock_1 34391
sizeofblock_2 101722
sizeofblock_3 0
sizeofblock_4 0
sizeofblock_5 0
sizeofblock_6 0
sizeofblock_7 0
sizeofblock_8 0
Variant_0 Correct: 1614158 Incorrect: 0 Accuracy: 1
Variant_1 Correct: 5742516 Incorrect: 0 Accuracy: 1
Variant_2 Correct: 0 Incorrect: 0 Accuracy: -nan
Variant_3 Correct: 0 Incorrect: 0 Accuracy: -nan
