
*** ChampSim Multicore Out-of-Order Simulator ***

Warmup Instructions: 50000000
Simulation Instructions: 50000000
Number of CPUs: 1
LLC sets: 2048
LLC ways: 16
Off-chip DRAM Size: 4096 MB Channels: 1 Width: 64-bit Data Rate: 6400 MT/s
CPU 0 runs ./micro_traces/srv163.trace.gz
.gz
ITLB has LRU replacement policy
DTLB has LRU replacement policy
STLB has LRU replacement policy
FDIP Prefetcher at L1I
L1I has LRU replacement policy
L1D has LRU replacement policy
Initialize SRRIP state for L2C
Initialize DRRIP state for LLC
Heartbeat_Variant_0 : 1348 0.329102 per_variant_size: 0 1348 0 0 0 0 0 0 0 
Heartbeat_Variant_1 : 2450 0.598145 per_variant_size: 0 319 2131 0 0 0 0 0 0 
Heartbeat_Variant_2 : 0 0 per_variant_size: 0 0 0 0 0 0 0 0 0 
Heartbeat_Variant_3 : 0 0 per_variant_size: 0 0 0 0 0 0 0 0 0 
Heartbeat_Variant_0_evicts 0 : 5549 1 : 46 2 : 0 3 : 0 
Heartbeat_Variant_1_evicts 0 : 39 1 : 0 2 : 0 3 : 0 
Heartbeat_Variant_2_evicts 0 : 0 1 : 0 2 : 0 3 : 0 
Heartbeat_Variant_3_evicts 0 : 0 1 : 0 2 : 0 3 : 0 
Heartbeat CPU 0 instructions: 10000001 cycles: 2798023 heartbeat IPC: 3.57395 cumulative IPC: 3.57395 (Simulation time: 0 hr 1 min 39 sec) 
Heartbeat_Variant_0 : 1377 0.336182 per_variant_size: 0 1377 0 0 0 0 0 0 0 
Heartbeat_Variant_1 : 2520 0.615234 per_variant_size: 0 283 2237 0 0 0 0 0 0 
Heartbeat_Variant_2 : 0 0 per_variant_size: 0 0 0 0 0 0 0 0 0 
Heartbeat_Variant_3 : 0 0 per_variant_size: 0 0 0 0 0 0 0 0 0 
Heartbeat_Variant_0_evicts 0 : 5653 1 : 28 2 : 0 3 : 0 
Heartbeat_Variant_1_evicts 0 : 33 1 : 0 2 : 0 3 : 0 
Heartbeat_Variant_2_evicts 0 : 0 1 : 0 2 : 0 3 : 0 
Heartbeat_Variant_3_evicts 0 : 0 1 : 0 2 : 0 3 : 0 
Heartbeat CPU 0 instructions: 20000001 cycles: 5594682 heartbeat IPC: 3.5757 cumulative IPC: 3.57482 (Simulation time: 0 hr 3 min 18 sec) 
Heartbeat_Variant_0 : 1431 0.349365 per_variant_size: 0 1431 0 0 0 0 0 0 0 
Heartbeat_Variant_1 : 2648 0.646484 per_variant_size: 0 194 2454 0 0 0 0 0 0 
Heartbeat_Variant_2 : 0 0 per_variant_size: 0 0 0 0 0 0 0 0 0 
Heartbeat_Variant_3 : 0 0 per_variant_size: 0 0 0 0 0 0 0 0 0 
Heartbeat_Variant_0_evicts 0 : 5705 1 : 380 2 : 0 3 : 0 
Heartbeat_Variant_1_evicts 0 : 367 1 : 0 2 : 0 3 : 0 
Heartbeat_Variant_2_evicts 0 : 0 1 : 0 2 : 0 3 : 0 
Heartbeat_Variant_3_evicts 0 : 0 1 : 0 2 : 0 3 : 0 
Heartbeat CPU 0 instructions: 30000003 cycles: 8390375 heartbeat IPC: 3.57693 cumulative IPC: 3.57553 (Simulation time: 0 hr 5 min 0 sec) 
Heartbeat_Variant_0 : 1429 0.348877 per_variant_size: 0 1429 0 0 0 0 0 0 0 
Heartbeat_Variant_1 : 2650 0.646973 per_variant_size: 0 205 2445 0 0 0 0 0 0 
Heartbeat_Variant_2 : 0 0 per_variant_size: 0 0 0 0 0 0 0 0 0 
Heartbeat_Variant_3 : 0 0 per_variant_size: 0 0 0 0 0 0 0 0 0 
Heartbeat_Variant_0_evicts 0 : 5549 1 : 46 2 : 0 3 : 0 
Heartbeat_Variant_1_evicts 0 : 48 1 : 0 2 : 0 3 : 0 
Heartbeat_Variant_2_evicts 0 : 0 1 : 0 2 : 0 3 : 0 
Heartbeat_Variant_3_evicts 0 : 0 1 : 0 2 : 0 3 : 0 
Heartbeat CPU 0 instructions: 40000002 cycles: 11186650 heartbeat IPC: 3.57619 cumulative IPC: 3.57569 (Simulation time: 0 hr 6 min 40 sec) 
Heartbeat_Variant_0 : 1431 0.349365 per_variant_size: 0 1431 0 0 0 0 0 0 0 
Heartbeat_Variant_1 : 2656 0.648438 per_variant_size: 0 190 2466 0 0 0 0 0 0 
Heartbeat_Variant_2 : 0 0 per_variant_size: 0 0 0 0 0 0 0 0 0 
Heartbeat_Variant_3 : 0 0 per_variant_size: 0 0 0 0 0 0 0 0 0 
Heartbeat_Variant_0_evicts 0 : 5705 1 : 224 2 : 0 3 : 0 
Heartbeat_Variant_1_evicts 0 : 225 1 : 0 2 : 0 3 : 0 
Heartbeat_Variant_2_evicts 0 : 0 1 : 0 2 : 0 3 : 0 
Heartbeat_Variant_3_evicts 0 : 0 1 : 0 2 : 0 3 : 0 
Heartbeat CPU 0 instructions: 50000001 cycles: 13982923 heartbeat IPC: 3.57619 cumulative IPC: 3.57579 (Simulation time: 0 hr 8 min 19 sec) 

Warmup complete CPU 0 instructions: 50000001 cycles: 13982923 (Simulation time: 0 hr 8 min 19 sec) 

Cycle: 20000000 FTQ IN: 58463715 FTQ occupancy: 20.561 DECODE IN: 58463661 DECODE occupancy: 53.5207 ROB IN: 58463661 ROB occupancy: 318.683 ROB OUT: 58463532
Heartbeat_Variant_0 : 1432 0.349609 per_variant_size: 0 1432 0 0 0 0 0 0 0 
Heartbeat_Variant_1 : 2655 0.648193 per_variant_size: 0 194 2461 0 0 0 0 0 0 
Heartbeat_Variant_2 : 0 0 per_variant_size: 0 0 0 0 0 0 0 0 0 
Heartbeat_Variant_3 : 0 0 per_variant_size: 0 0 0 0 0 0 0 0 0 
Heartbeat_Variant_0_evicts 0 : 5545 1 : 13 2 : 0 3 : 0 
Heartbeat_Variant_1_evicts 0 : 12 1 : 0 2 : 0 3 : 0 
Heartbeat_Variant_2_evicts 0 : 0 1 : 0 2 : 0 3 : 0 
Heartbeat_Variant_3_evicts 0 : 0 1 : 0 2 : 0 3 : 0 
Heartbeat CPU 0 instructions: 60000002 cycles: 21102520 heartbeat IPC: 1.40457 cumulative IPC: 1.40457 (Simulation time: 0 hr 10 min 17 sec) 
Heartbeat_Variant_0 : 1435 0.350342 per_variant_size: 0 1435 0 0 0 0 0 0 0 
Heartbeat_Variant_1 : 2655 0.648193 per_variant_size: 0 181 2474 0 0 0 0 0 0 
Heartbeat_Variant_2 : 0 0 per_variant_size: 0 0 0 0 0 0 0 0 0 
Heartbeat_Variant_3 : 0 0 per_variant_size: 0 0 0 0 0 0 0 0 0 
Heartbeat_Variant_0_evicts 0 : 5689 1 : 39 2 : 0 3 : 0 
Heartbeat_Variant_1_evicts 0 : 38 1 : 0 2 : 0 3 : 0 
Heartbeat_Variant_2_evicts 0 : 0 1 : 0 2 : 0 3 : 0 
Heartbeat_Variant_3_evicts 0 : 0 1 : 0 2 : 0 3 : 0 
Heartbeat CPU 0 instructions: 70000001 cycles: 28253462 heartbeat IPC: 1.39842 cumulative IPC: 1.40149 (Simulation time: 0 hr 12 min 12 sec) 
Cycle: 30000000 FTQ IN: 13981528 FTQ occupancy: 15.0184 DECODE IN: 13981544 DECODE occupancy: 38.3704 ROB IN: 13981484 ROB occupancy: 249.401 ROB OUT: 13981516
Heartbeat_Variant_0 : 1434 0.350098 per_variant_size: 0 1434 0 0 0 0 0 0 0 
Heartbeat_Variant_1 : 2657 0.648682 per_variant_size: 0 185 2472 0 0 0 0 0 0 
Heartbeat_Variant_2 : 0 0 per_variant_size: 0 0 0 0 0 0 0 0 0 
Heartbeat_Variant_3 : 0 0 per_variant_size: 0 0 0 0 0 0 0 0 0 
Heartbeat_Variant_0_evicts 0 : 5594 1 : 49 2 : 0 3 : 0 
Heartbeat_Variant_1_evicts 0 : 51 1 : 0 2 : 0 3 : 0 
Heartbeat_Variant_2_evicts 0 : 0 1 : 0 2 : 0 3 : 0 
Heartbeat_Variant_3_evicts 0 : 0 1 : 0 2 : 0 3 : 0 
Heartbeat CPU 0 instructions: 80000002 cycles: 35361550 heartbeat IPC: 1.40685 cumulative IPC: 1.40327 (Simulation time: 0 hr 14 min 13 sec) 
Cycle: 40000000 FTQ IN: 14082822 FTQ occupancy: 14.9905 DECODE IN: 14082761 DECODE occupancy: 38.6155 ROB IN: 14082761 ROB occupancy: 251.299 ROB OUT: 14082506
Heartbeat_Variant_0 : 1434 0.350098 per_variant_size: 0 1434 0 0 0 0 0 0 0 
Heartbeat_Variant_1 : 2657 0.648682 per_variant_size: 0 193 2464 0 0 0 0 0 0 
Heartbeat_Variant_2 : 0 0 per_variant_size: 0 0 0 0 0 0 0 0 0 
Heartbeat_Variant_3 : 0 0 per_variant_size: 0 0 0 0 0 0 0 0 0 
Heartbeat_Variant_0_evicts 0 : 5446 1 : 31 2 : 0 3 : 0 
Heartbeat_Variant_1_evicts 0 : 31 1 : 0 2 : 0 3 : 0 
Heartbeat_Variant_2_evicts 0 : 0 1 : 0 2 : 0 3 : 0 
Heartbeat_Variant_3_evicts 0 : 0 1 : 0 2 : 0 3 : 0 
Heartbeat CPU 0 instructions: 90000000 cycles: 42557946 heartbeat IPC: 1.38958 cumulative IPC: 1.39982 (Simulation time: 0 hr 16 min 12 sec) 
Heartbeat_Variant_0 : 1434 0.350098 per_variant_size: 0 1434 0 0 0 0 0 0 0 
Heartbeat_Variant_1 : 2658 0.648926 per_variant_size: 0 220 2438 0 0 0 0 0 0 
Heartbeat_Variant_2 : 0 0 per_variant_size: 0 0 0 0 0 0 0 0 0 
Heartbeat_Variant_3 : 0 0 per_variant_size: 0 0 0 0 0 0 0 0 0 
Heartbeat_Variant_0_evicts 0 : 5694 1 : 168 2 : 0 3 : 0 
Heartbeat_Variant_1_evicts 0 : 168 1 : 0 2 : 0 3 : 0 
Heartbeat_Variant_2_evicts 0 : 0 1 : 0 2 : 0 3 : 0 
Heartbeat_Variant_3_evicts 0 : 0 1 : 0 2 : 0 3 : 0 
Heartbeat CPU 0 instructions: 100000003 cycles: 49670626 heartbeat IPC: 1.40594 cumulative IPC: 1.40104 (Simulation time: 0 hr 18 min 17 sec) 
Finished CPU 0 instructions: 50000002 cycles: 35687703 cumulative IPC: 1.40104 (Simulation time: 0 hr 18 min 17 sec) 

ChampSim completed all CPUs

Region of Interest Statistics

CPU 0 cumulative IPC: 1.40104 instructions: 50000002 cycles: 35687703
 Fetch stage stalled: 45.6058  Sim cycles: 35687703 fetch stall cycle: 16275667
 Empty decode stage: 24.9166  Sim cycles: 35687703 fetch stall cycle: 8892157
ITLB TOTAL     ACCESS:    5848607  HIT:    5352785  MISS:     495822  HIT %:    91.5224  MISS %:    8.47761   MPKI: 9.91644
ITLB LOAD TRANSLATION INSTRUCTION	ACCESS:    5714187  HIT:    5218365  MISS:     495822  HIT %:     91.323  MISS %:    8.67703  MPKI: 9.91644
ITLB TRANSLATION FROM L1D PREFETCHER INSTRUCTION	ACCESS:     134420  HIT:     134420  MISS:          0  HIT %:        100  MISS %:          0  MPKI: 0

ITLB AVERAGE MISS LATENCY: 9.04222 cycles
ITLB RQ	ACCESS:    7965284	FORWARD:          0	MERGED:    1632189	TO_CACHE:    6333095

DTLB TOTAL     ACCESS:    8947431  HIT:    8472826  MISS:     474605  HIT %:    94.6956  MISS %:    5.30437   MPKI: 9.4921
DTLB LOAD TRANSLATION DATA	ACCESS:    8947431  HIT:    8472826  MISS:     474605  HIT %:    94.6956  MISS %:    5.30437  MPKI: 9.4921

DTLB AVERAGE MISS LATENCY: 9.30604 cycles
DTLB RQ	ACCESS:   13323262	FORWARD:          0	MERGED:    4339488	TO_CACHE:    8983774

STLB TOTAL     ACCESS:    1214527  HIT:    1212639  MISS:       1888  HIT %:    99.8445  MISS %:   0.155451   MPKI: 0.03776
STLB LOAD TRANSLATION INSTRUCTION	ACCESS:     495822  HIT:     495606  MISS:        216  HIT %:    99.9564  MISS %:   0.043564  MPKI: 0.00432
STLB LOAD TRANSLATION DATA	ACCESS:     474605  HIT:     472954  MISS:       1651  HIT %:    99.6521  MISS %:   0.347868  MPKI: 0.03302
STLB TRANSLATION FROM L1D PREFETCHER DATA	ACCESS:     244100  HIT:     244079  MISS:         21  HIT %:    99.9914  MISS %: 0.00860303  MPKI: 0.00042

STLB AVERAGE MISS LATENCY: 72.2251 cycles
STLB RQ	ACCESS:    1334329	FORWARD:          0	MERGED:     119761	TO_CACHE:    1214568

STLB Hit, L1D data hit: 0
STLB Hit, L2C data hit: 0
STLB Hit, LLC data hit: 0
STLB Hit, LLC data miss: 0
STLB STLB hints to L2: 0
L1D TOTAL     ACCESS:   13066368  HIT:   11949028  MISS:    1117340  HIT %:    91.4487  MISS %:    8.55127   MPKI: 22.3468
L1D LOAD DATA	ACCESS:    6536940  HIT:    5799395  MISS:     737545  HIT %:    88.7173  MISS %:    11.2827  MPKI: 14.7509
L1D RFO DATA	ACCESS:    6205563  HIT:    5920657  MISS:     284906  HIT %:    95.4089  MISS %:    4.59114  MPKI: 5.69812
L1D PREFETCH DATA	ACCESS:     323865  HIT:     228976  MISS:      94889  HIT %:    70.7011  MISS %:    29.2989  MPKI: 1.89778

L1D PREFETCH  REQUESTED:     728135  ISSUED:     728135  USEFUL:      33353  USELESS:      68828
L1D USEFUL LOAD PREFETCHES:      33353 PREFETCH ISSUED TO LOWER LEVEL:     102235  ACCURACY: 32.6239
 TIMELY PREFETCHES:      33353 LATE PREFETCHES: 7295 DROPPED PREFETCHES: 9
L1D AVERAGE MISS LATENCY: 212436 cycles
L1D RQ	ACCESS:   10671931	FORWARD:          0	MERGED:    3934864	TO_CACHE:    6571414
L1D WQ	ACCESS:    6949899	FORWARD:     165986	MERGED:     198051	TO_CACHE:    6751848
L1D PQ	ACCESS:     364234	FORWARD:          0	MERGED:          0	TO_CACHE:     363901

L1D UNIQUE REGIONS ACCESSED: 0
L1D REGIONS CONFLICTS: 0
L1D Cross Page Prefetch Requests: 6811
L1D Same Page Prefetch Requests: 740662
L1D ROI Sum of L1D PQ occupancy: 4622315
L1D PREFETCHES PUSHED FROM L2C: 0
L1I TOTAL     ACCESS:    7140907  HIT:    4370280  MISS:    2770627  HIT %:    61.2006  MISS %:    38.7994   MPKI: 55.4125
L1I LOAD INSTRUCTION	ACCESS:    6468209  HIT:    3697582  MISS:    2770627  HIT %:    57.1655  MISS %:    42.8345  MPKI: 55.4125
L1I PREFETCH INSTRUCTION	ACCESS:     672698  HIT:     672698  MISS:          0  HIT %:        100  MISS %:          0  MPKI: 0

L1I PREFETCH  REQUESTED:    1621079  ISSUED:    1621079  USEFUL:          0  USELESS:          0
L1I USEFUL LOAD PREFETCHES:          0 PREFETCH ISSUED TO LOWER LEVEL:          0  ACCURACY: -nan
 TIMELY PREFETCHES:          0 LATE PREFETCHES: 0 DROPPED PREFETCHES: 0
L1I AVERAGE MISS LATENCY: 16.9817 cycles
L1I RQ	ACCESS:    9572712	FORWARD:          0	MERGED:    2802539	TO_CACHE:    6770173
L1I PQ	ACCESS:    1621079	FORWARD:          0	MERGED:     425968	TO_CACHE:    1195111

L1BTB TOTAL     ACCESS:    5671500  HIT:    2033279  MISS:    3638221  HIT %:    35.8508  MISS %:    64.1492   MPKI: 72.7644
L1BTB BRANCH_DIRECT_JUMP	ACCESS:     547554 HIT:     143675 MISS:     403879 AVERAGE STALL: 56.1936 AVERAGE FETCH STALL: 14.8574 AVERAGE FETCH QUEUE STALL: 19.5582 AVERAGE DECODE STALL: 20.9348 AVERAGE EXECUTE STALL: 2.32327e+15
L1BTB BRANCH_INDIRECT	ACCESS:     182354 HIT:      65533 MISS:     116821 AVERAGE STALL: 110.101 AVERAGE FETCH STALL: 11.6062 AVERAGE FETCH QUEUE STALL: 17.3327 AVERAGE DECODE STALL: 13.2024 AVERAGE EXECUTE STALL: 66.9964
L1BTB BRANCH_CONDITIONAL	ACCESS:    2697948 HIT:    1402948 MISS:    1295000 AVERAGE STALL: 82.6155 AVERAGE FETCH STALL: 22.3164 AVERAGE FETCH QUEUE STALL: 32.8321 AVERAGE DECODE STALL: 26.6756 AVERAGE EXECUTE STALL: 5.06222e+15
L1BTB BRANCH_DIRECT_CALL	ACCESS:     949034 HIT:     106963 MISS:     842071 AVERAGE STALL: 85.7698 AVERAGE FETCH STALL: 25.3467 AVERAGE FETCH QUEUE STALL: 28.8842 AVERAGE DECODE STALL: 30.9565 AVERAGE EXECUTE STALL: 1.29451e+16
L1BTB BRANCH_INDIRECT_CALL	ACCESS:     172786 HIT:      21966 MISS:     150820 AVERAGE STALL: 141.425 AVERAGE FETCH STALL: 12.4995 AVERAGE FETCH QUEUE STALL: 18.7446 AVERAGE DECODE STALL: 11.821 AVERAGE EXECUTE STALL: 97.8683
L1BTB BRANCH_RETURN	ACCESS:    1121824 HIT:     292194 MISS:     829630 AVERAGE STALL: 49.3303 AVERAGE FETCH STALL: 16.6284 AVERAGE FETCH QUEUE STALL: 4.87194 AVERAGE DECODE STALL: 6.37086 AVERAGE EXECUTE STALL: 4.34245e+14
L1BTB BRANCH_OTHER ACCESS:          0 HIT:          0 MISS:          0 AVERAGE STALL: -nan AVERAGE FETCH STALL: -nan AVERAGE FETCH QUEUE STALL: -nan AVERAGE DECODE STALL: -nan AVERAGE EXECUTE STALL: -nan
L1BTB TOTAL ROB OCCUPANCY AT BTB MISS: 2.58145

L2BTB TOTAL     ACCESS:    3612959  HIT:    3550228  MISS:      62731  HIT %:    98.2637  MISS %:    1.73628   MPKI: 1.25462
L2BTB BRANCH_DIRECT_JUMP	ACCESS:     399776 HIT:     395936 MISS:       3840 AVERAGE STALL: 56.1936 AVERAGE FETCH STALL: 14.8574 AVERAGE FETCH QUEUE STALL: 19.5582 AVERAGE DECODE STALL: 20.9348 AVERAGE EXECUTE STALL: 2.32327e+15
L2BTB BRANCH_INDIRECT	ACCESS:     106549 HIT:     103859 MISS:       2690 AVERAGE STALL: 110.101 AVERAGE FETCH STALL: 11.6062 AVERAGE FETCH QUEUE STALL: 17.3327 AVERAGE DECODE STALL: 13.2024 AVERAGE EXECUTE STALL: 66.9964
L2BTB BRANCH_CONDITIONAL	ACCESS:    1295000 HIT:    1291329 MISS:       3671 AVERAGE STALL: 82.6155 AVERAGE FETCH STALL: 22.3164 AVERAGE FETCH QUEUE STALL: 32.8321 AVERAGE DECODE STALL: 26.6756 AVERAGE EXECUTE STALL: 5.06222e+15
L2BTB BRANCH_DIRECT_CALL	ACCESS:     842071 HIT:     840640 MISS:       1431 AVERAGE STALL: 85.7698 AVERAGE FETCH STALL: 25.3467 AVERAGE FETCH QUEUE STALL: 28.8842 AVERAGE DECODE STALL: 30.9565 AVERAGE EXECUTE STALL: 1.29451e+16
L2BTB BRANCH_INDIRECT_CALL	ACCESS:     141347 HIT:     131330 MISS:      10017 AVERAGE STALL: 141.425 AVERAGE FETCH STALL: 12.4995 AVERAGE FETCH QUEUE STALL: 18.7446 AVERAGE DECODE STALL: 11.821 AVERAGE EXECUTE STALL: 97.8683
L2BTB BRANCH_RETURN	ACCESS:     828216 HIT:     787134 MISS:      41082 AVERAGE STALL: 49.3303 AVERAGE FETCH STALL: 16.6284 AVERAGE FETCH QUEUE STALL: 4.87194 AVERAGE DECODE STALL: 6.37086 AVERAGE EXECUTE STALL: 4.34245e+14
L2BTB BRANCH_OTHER ACCESS:          0 HIT:          0 MISS:          0 AVERAGE STALL: -nan AVERAGE FETCH STALL: -nan AVERAGE FETCH QUEUE STALL: -nan AVERAGE DECODE STALL: -nan AVERAGE EXECUTE STALL: -nan
L2BTB TOTAL ROB OCCUPANCY AT BTB MISS: 149.717

L2C TOTAL     ACCESS:    4488695  HIT:    4051524  MISS:     437171  HIT %:    90.2606  MISS %:    9.73938   MPKI: 8.74342
L2C LOAD INSTRUCTION	ACCESS:    2770626  HIT:    2534002  MISS:     236624  HIT %:    91.4595  MISS %:    8.54045  MPKI: 4.73248
L2C LOAD TRANSLATION INSTRUCTION	ACCESS:        239  HIT:         60  MISS:        179  HIT %:    25.1046  MISS %:    74.8954  MPKI: 0.00358
L2C LOAD DATA	ACCESS:     730228  HIT:     664777  MISS:      65451  HIT %:    91.0369  MISS %:    8.96309  MPKI: 1.30902
L2C RFO DATA	ACCESS:     284831  HIT:     231796  MISS:      53035  HIT %:    81.3802  MISS %:    18.6198  MPKI: 1.0607
L2C PREFETCH DATA	ACCESS:     179155  HIT:     111618  MISS:      67537  HIT %:    62.3025  MISS %:    37.6975  MPKI: 1.35074
L2C WRITEBACK DATA	ACCESS:     521868  HIT:     508785  MISS:      13083  HIT %:     97.493  MISS %:    2.50696  MPKI: 0.26166
L2C LOAD TRANSLATION DATA	ACCESS:       1704  HIT:        459  MISS:       1245  HIT %:    26.9366  MISS %:    73.0634  MPKI: 0.0249
L2C TRANSLATION FROM L1D PREFETCHER DATA	ACCESS:         44  HIT:         27  MISS:         17  HIT %:    61.3636  MISS %:    38.6364  MPKI: 0.00034

L2C PREFETCH  REQUESTED:      84140  ISSUED:      84140  USEFUL:       7302  USELESS:      60559
L2C USEFUL LOAD PREFETCHES:       7302 PREFETCH ISSUED TO LOWER LEVEL:      67850  ACCURACY: 10.762
 TIMELY PREFETCHES:       7302 LATE PREFETCHES: 313 DROPPED PREFETCHES: 0
L2C AVERAGE MISS LATENCY: 38.9131 cycles
L2C RQ	ACCESS:    3787719	FORWARD:          0	MERGED:          0	TO_CACHE:    3787674
L2C WQ	ACCESS:     521868	FORWARD:         45	MERGED:          0	TO_CACHE:     521868
L2C PQ	ACCESS:     186375	FORWARD:          0	MERGED:       3692	TO_CACHE:     182683

L2C Dense regions hint from L2: 0
PSCL5 TOTAL     ACCESS:       3802  HIT:       1901  MISS:       1901  HIT %:         50  MISS %:         50   MPKI: 0.03802
PSCL5 LOAD TRANSLATION INSTRUCTION	ACCESS:       3720  HIT:       1860  MISS:       1860  HIT %:         50  MISS %:         50  MPKI: 0.0372
PSCL5 TRANSLATION FROM L1D PREFETCHER INSTRUCTION	ACCESS:         82  HIT:         41  MISS:         41  HIT %:         50  MISS %:         50  MPKI: 0.00082


PSCL4 TOTAL     ACCESS:       3715  HIT:       1855  MISS:       1860  HIT %:    49.9327  MISS %:    50.0673   MPKI: 0.0372
PSCL4 LOAD TRANSLATION INSTRUCTION	ACCESS:       1820  HIT:       1815  MISS:          5  HIT %:    99.7253  MISS %:   0.274725  MPKI: 0.0001
PSCL4 TRANSLATION FROM L1D PREFETCHER INSTRUCTION	ACCESS:         40  HIT:         40  MISS:          0  HIT %:        100  MISS %:          0  MPKI: 0
PSCL4 LOAD TRANSLATION DATA	ACCESS:       1815  HIT:          0  MISS:       1815  HIT %:          0  MISS %:        100  MPKI: 0.0363
PSCL4 TRANSLATION FROM L1D PREFETCHER DATA	ACCESS:         40  HIT:          0  MISS:         40  HIT %:          0  MISS %:        100  MPKI: 0.0008


PSCL3 TOTAL     ACCESS:       3771  HIT:       1883  MISS:       1888  HIT %:    49.9337  MISS %:    50.0663   MPKI: 0.03776
PSCL3 LOAD TRANSLATION INSTRUCTION	ACCESS:       1848  HIT:       1843  MISS:          5  HIT %:    99.7294  MISS %:   0.270563  MPKI: 0.0001
PSCL3 TRANSLATION FROM L1D PREFETCHER INSTRUCTION	ACCESS:         40  HIT:         40  MISS:          0  HIT %:        100  MISS %:          0  MPKI: 0
PSCL3 LOAD TRANSLATION DATA	ACCESS:       1843  HIT:          0  MISS:       1843  HIT %:          0  MISS %:        100  MPKI: 0.03686
PSCL3 TRANSLATION FROM L1D PREFETCHER DATA	ACCESS:         40  HIT:          0  MISS:         40  HIT %:          0  MISS %:        100  MPKI: 0.0008


PSCL2 TOTAL     ACCESS:       3726  HIT:       1825  MISS:       1901  HIT %:    48.9801  MISS %:    51.0199   MPKI: 0.03802
PSCL2 LOAD TRANSLATION INSTRUCTION	ACCESS:       2002  HIT:       1785  MISS:        217  HIT %:    89.1608  MISS %:    10.8392  MPKI: 0.00434
PSCL2 TRANSLATION FROM L1D PREFETCHER INSTRUCTION	ACCESS:         40  HIT:         40  MISS:          0  HIT %:        100  MISS %:          0  MPKI: 0
PSCL2 LOAD TRANSLATION DATA	ACCESS:       1644  HIT:          0  MISS:       1644  HIT %:          0  MISS %:        100  MPKI: 0.03288
PSCL2 TRANSLATION FROM L1D PREFETCHER DATA	ACCESS:         40  HIT:          0  MISS:         40  HIT %:          0  MISS %:        100  MPKI: 0.0008


LLC TOTAL     ACCESS:     497352  HIT:     469980  MISS:      27372  HIT %:    94.4965  MISS %:    5.50355   MPKI: 0.54744
LLC LOAD INSTRUCTION	ACCESS:     236624  HIT:     235977  MISS:        647  HIT %:    99.7266  MISS %:    0.27343  MPKI: 0.01294
LLC LOAD TRANSLATION INSTRUCTION	ACCESS:        179  HIT:        154  MISS:         25  HIT %:    86.0335  MISS %:    13.9665  MPKI: 0.0005
LLC LOAD DATA	ACCESS:      65140  HIT:      61710  MISS:       3430  HIT %:    94.7344  MISS %:    5.26558  MPKI: 0.0686
LLC RFO DATA	ACCESS:      53027  HIT:      39993  MISS:      13034  HIT %:    75.4201  MISS %:    24.5799  MPKI: 0.26068
LLC PREFETCH DATA	ACCESS:      67850  HIT:      58000  MISS:       9850  HIT %:    85.4827  MISS %:    14.5173  MPKI: 0.197
LLC WRITEBACK DATA	ACCESS:      73270  HIT:      72958  MISS:        312  HIT %:    99.5742  MISS %:   0.425822  MPKI: 0.00624
LLC LOAD TRANSLATION DATA	ACCESS:       1245  HIT:       1173  MISS:         72  HIT %:    94.2169  MISS %:    5.78313  MPKI: 0.00144
LLC TRANSLATION FROM L1D PREFETCHER DATA	ACCESS:         17  HIT:         15  MISS:          2  HIT %:    88.2353  MISS %:    11.7647  MPKI: 4e-05

LLC AVERAGE MISS LATENCY: 155.416 cycles
LLC RQ	ACCESS:     356238	FORWARD:          0	MERGED:          0	TO_CACHE:     356232
LLC WQ	ACCESS:      73270	FORWARD:          6	MERGED:          0	TO_CACHE:      73270
LLC PQ	ACCESS:      67850	FORWARD:          0	MERGED:          0	TO_CACHE:      67850

LLC Dense regions hint to LLC: 0

RAW hits: 1958341
Loads Generated: 12630272
Loads sent to L1D: 10671931
Stores Generated: 6949891
Stores sent to L1D: 6949899
Major fault: 0 Minor fault: 2589
Allocated PAGES: 2589

stream: 
stream:times selected: 1172923
stream:pref_filled: 122666
stream:pref_useful: 24274
stream:pref_late: 6801
stream:misses: 7987
stream:misses_by_poll: 0

CS: 
CS:times selected: 175399
CS:pref_filled: 59799
CS:pref_useful: 36529
CS:pref_late: 6548
CS:misses: 15780
CS:misses_by_poll: 2

CPLX: 
CPLX:times selected: 996384
CPLX:pref_filled: 19493
CPLX:pref_useful: 4692
CPLX:pref_late: 3113
CPLX:misses: 93286
CPLX:misses_by_poll: 0

NL_L1: 
NL:times selected: 20450
NL:pref_filled: 769
NL:pref_useful: 320
NL:pref_late: 289
NL:misses: 1780
NL:misses_by_poll: 0

total selections: 2365156
total_filled: 94889
total_useful: 33353
total_late: 17936
total_polluted: 2
total_misses_after_warmup: 772017
conflicts: 5522597

test: 114806

DRAM Statistics
 CHANNEL 0
 RQ ROW_BUFFER_HIT:      10175  ROW_BUFFER_MISS:      16877
 DBUS_CONGESTED:         13
 WQ ROW_BUFFER_HIT:       1253  ROW_BUFFER_MISS:      11486  FULL:          0

 AVG_CONGESTED_CYCLE: 5

CPU 0 Branch Prediction Accuracy: 99.8272% MPKI: 0.31622 Average ROB Occupancy at Mispredict: 199.525
Branch types
NOT_BRANCH: 40848303 81.6966%
BRANCH_DIRECT_JUMP: 547554 1.09511%
BRANCH_INDIRECT: 182354 0.364708%
BRANCH_CONDITIONAL: 6178123 12.3562%
BRANCH_DIRECT_CALL: 949034 1.89807%
BRANCH_INDIRECT_CALL: 172786 0.345572%
BRANCH_RETURN: 1121824 2.24365%
BRANCH_OTHER: 0 0%

DRAM PAGES: 1048576
Allocated PAGES: 2589
Average_ROB_Occupancy: 250.927
Average_Decode_Occupancy: 38.3592
Average_FTQ_Occupancy: 14.9716
Indirect max targets: 14 Average targets: 1.17778
Branch_type:  BRANCH_DIRECT_JUMP:  Count Percentage: 4.12615 5.68839 3.6339 2.28157 8.16698 6.32441 1.45656 68.322 
Branch_type:  BRANCH_INDIRECT:  Count Percentage: 11.7649 3.39007 2.49565 13.3008 3.35469 2.81793 0.939127 61.9368 
Branch_type:  BRANCH_CONDITIONAL:  Count Percentage: 21.9162 2.25494 1.81251 2.73446 2.01931 4.6314 3.63547 60.9957 
Branch_type:  BRANCH_DIRECT_CALL:  Count Percentage: 0.386715 1.804 0.716851 1.466 4.32633 2.60504 0.408249 88.2868 
Branch_type:  BRANCH_INDIRECT_CALL:  Count Percentage: 9.53172 0 2.9876 0.000869921 1.36056 1.70997 0.99287 83.4164 
Branch_type:  BRANCH_RETURN:  Count Percentage: 3.9341 2.02347 2.23352 2.03699 3.44561 5.11455 3.6105 77.6013 
Branch_type:  BRANCH_DIRECT_JUMP:  Total Count: 45172 62275 39783 24978 89410 69238 15946 747972 
Branch_type:  BRANCH_INDIRECT:  Total Count: 42894 12360 9099 48494 12231 10274 3424 225818 
Branch_type:  BRANCH_CONDITIONAL:  Total Count: 2706780 278498 223856 337722 249397 572005 449001 7533318 
Branch_type:  BRANCH_DIRECT_CALL:  Total Count: 7327 34180 13582 27776 81970 49357 7735 1672749 
Branch_type:  BRANCH_INDIRECT_CALL:  Total Count: 32871 0 10303 3 4692 5897 3424 287669 
Branch_type:  BRANCH_RETURN:  Total Count: 88140 45334 50040 45637 77196 114587 80890 1738589 
Number of unique branch instructions: 10811
Upper 32 bits: 
aaaa
ffff
ffff0000
Unique upper 32 bits: 3
Unique upper 36 bits: 3
Unique upper 40 bits: 5
Unique upper 44 bits: 32
Unique upper 48 bits: 158
Variant_0 : 1434 0.350098
Variant_1 : 2658 0.648926
Variant_2 : 0 0
Variant_3 : 0 0
Offset_3 4470
Offset_4 255
Offset_5 484
Offset_6 541
Offset_7 643
Offset_8 577
Offset_9 523
Offset_10 426
Offset_11 360
Offset_12 327
Offset_13 240
Offset_14 247
Offset_15 194
Offset_16 233
Offset_17 169
Offset_18 149
Offset_19 257
Offset_20 143
Offset_21 235
Offset_22 413
Offset_23 241
Offset_24 351
Offset_25 117
Offset_47 94
Offset_64 2
decode_dispatch_called: 26342608 73.8142
Dispatch_width: 0 14234903 54.0376 39.8874
Dispatch_width: 1 1028498 3.90431 2.88194
Dispatch_width: 2 835708 3.17246 2.34173
Dispatch_width: 3 496275 1.88393 1.39061
Dispatch_width: 4 6280543 23.8418 17.5986
Dispatch_width: 5 110995 0.421352 0.311017
Dispatch_width: 6 3355686 12.7386 9.40292
Empty_decode_cycles: 9345095 26.1858
ROB_full_cycles: 10041161 28.1362
Starvation_cycles_per_kilo_instr: 222.909
Starvation_cycles_per_kilo_instr_3: 158.993
Starvation_cycles_per_kilo_instr_0: 135.388
Branch_type_1  (3,1)  (4,9)  (5,39)  (6,74)  (7,126)  (8,148)  (9,136)  (10,110)  (11,78)  (12,55)  (13,11)  (14,2)  (15,3)  (16,4)  (18,1)  (19,5)  (20,2)  (21,1)  (22,3)  (23,2)  (24,10)  (25,12) 
Branch_type_2  (3,1)  (4,1)  (5,1)  (8,4)  (9,4)  (10,1)  (12,1)  (13,1)  (14,1)  (16,3)  (17,2)  (20,2)  (21,2)  (23,5)  (24,1)  (47,43) 
Branch_type_3  (3,4468)  (4,245)  (5,440)  (6,451)  (7,487)  (8,360)  (9,288)  (10,172)  (11,146)  (12,62)  (13,10)  (64,2) 
Branch_type_4  (6,3)  (7,8)  (8,25)  (9,56)  (10,68)  (11,70)  (12,117)  (13,102)  (14,112)  (15,92)  (16,102)  (17,79)  (18,65)  (19,125)  (20,73)  (21,124)  (22,219)  (23,136)  (24,206)  (25,101) 
Branch_type_5  (8,3)  (9,1)  (10,4)  (11,5)  (12,3)  (13,14)  (14,16)  (15,11)  (16,22)  (17,11)  (18,23)  (19,14)  (20,11)  (21,13)  (22,43)  (23,26)  (24,38) 
Branch_type_6  (5,4)  (6,13)  (7,22)  (8,37)  (9,38)  (10,71)  (11,61)  (12,89)  (13,102)  (14,116)  (15,88)  (16,102)  (17,77)  (18,60)  (19,113)  (20,55)  (21,95)  (22,148)  (23,72)  (24,96)  (25,4)  (47,51) 
Unique trigger count: 
Variant_0_evicts_0 : 0
Variant_0_evicts_1 : 0
Variant_0_evicts_2 : 0
Variant_0_evicts_3 : 0
Variant_1_evicts_0 : 0
Variant_1_evicts_1 : 0
Variant_1_evicts_2 : 0
Variant_1_evicts_3 : 0
Variant_2_evicts_0 : 0
Variant_2_evicts_1 : 0
Variant_2_evicts_2 : 0
Variant_2_evicts_3 : 0
Variant_3_evicts_0 : 0
Variant_3_evicts_1 : 0
Variant_3_evicts_2 : 0
Variant_3_evicts_3 : 0
BTB PER SET UNIQUE ADDR: 29 17 16 27 25 22 22 20 21 18 27 20 22 24 17 18 17 29 21 14 23 16 20 21 23 15 21 24 16 18 25 17 15 20 20 20 30 16 20 25 33 18 17 22 15 28 20 20 18 21 18 28 23 20 22 20 16 24 22 18 24 15 18 31 20 23 26 16 25 19 17 23 32 17 24 23 22 20 22 17 20 19 16 28 15 28 20 17 18 25 25 21 27 21 20 23 16 20 16 22 17 28 26 22 18 23 30 19 30 17 24 21 15 27 23 19 27 21 15 23 29 13 19 23 24 27 21 21 20 21 23 16 22 19 22 26 20 14 18 26 17 22 20 20 26 16 18 18 20 20 20 21 18 22 25 25 20 17 12 21 22 16 18 19 25 24 19 21 20 23 19 19 24 17 17 24 22 23 18 19 19 19 18 20 26 21 17 19 17 29 23 16 22 19 15 26 21 23 21 17 16 23 24 16 24 18 16 28 21 24 27 22 17 19 22 27 22 14 17 25 18 16 21 17 20 24 33 18 20 18 18 20 25 21 23 23 13 23 28 17 23 17 17 21 20 20 19 18 13 17 28 15 24 18 21 22 17 25 22 19 27 15 24 25 27 19 28 22 18 28 21 19 18 21 19 25 20 23 28 17 20 23 30 18 24 19 18 22 20 17 18 22 15 22 25 18 18 27 23 23 23 16 19 24 21 15 20 21 24 20 17 17 25 17 21 25 22 27 27 15 22 22 24 21 17 26 30 21 20 21 23 13 35 19 26 18 18 22 20 17 25 18 22 20 20 17 15 23 18 24 21 16 13 20 25 22 20 19 16 26 18 19 17 25 22 19 18 18 22 16 23 27 13 27 30 19 15 27 24 16 26 15 19 21 27 16 17 24 20 24 31 20 19 21 27 19 21 16 23 25 19 29 19 18 24 15 15 22 24 15 20 20 19 20 20 19 17 17 24 20 22 21 18 19 26 16 20 28 18 27 26 16 22 17 16 21 16 26 22 16 23 26 25 18 23 17 18 22 26 24 22 15 21 18 22 31 24 17 17 24 17 17 30 15 20 16 20 16 18 31 24 19 16 20 20 17 24 19 23 22 21 21 20 18 15 23 27 22 18 20 19 21 23 20 15 19 14 25 28 21 21 17 16 19 18 14 25 28 15 24 23 15 
BTB PER SET COUNT: 33 246 17 31 30 58 28 22 160 18 35 20 496 26 18 20 18 1504 21 502 80 17 20 21 26 1451 2324 145 17 19 1019 18 16 858 22 23 176 17 224 724 38 20 1017 22 75 392 21 22 18 24 23 66 408 266 25 23 21 28 1939 18 30 16 20 3778 20 27 963 378 26 1632 19 26 40 1719 25 325 1745 21 2971 20 25 20 17 280 17 36 23 19 19 303 27 7625 32 21 21 682 974 1046 20 65 19 33 31 23 107 25 40 19 36 17 1150 22 20 390 982 20 33 539 16 24 509 13 21 10118 25 1183 117 22 465 26 26 18 27 20 707 30 290 16 19 27 22 23 22 23 27 2298 24 18 25 25 20 981 21 26 30 34 27 372 12 982 22 974 20 21 28 26 1561 303 23 28 1732 19 25 20 18 147 84 163 500 23 722 19 205 25 34 21 18 24 21 273 248 19 1862 540 23 30 23 28 23 18 17 25 972 16 25 223 497 37 1449 27 37 386 19 561 31 28 26 18 23 26 139 17 25 21 24 178 399 24 24 23 2962 1531 28 124 25 997 15 1977 33 18 1018 977 17 665 1325 790 20 18 809 17 83 38 82 749 23 24 18 27 23 977 32 2145 1410 38 3171 20 31 23 21 745 22 247 18 21 25 29 1458 24 33 17 21 514 32 18 27 20 18 23 25 22 19 1681 494 24 1072 20 19 553 71 2483 981 802 67 1020 260 17 10542 23 29 1376 3956 602 28 20 36 245 24 549 2651 18 1043 24 27 26 17 30 760 144 247 33 493 492 529 769 29 20 18 383 1665 19 33 18 23 20 536 20 18 466 18 28 23 17 13 25 26 24 24 20 16 30 128 21 17 1152 2591 22 19 22 25 416 160 351 971 27 33 19 16 32 34 16 28 16 22 21 2501 17 19 29 24 27 116 22 340 25 66 50 381 21 387 32 23 34 21 1166 1488 1486 16 774 145 16 20 1215 19 147 22 32 20 137 25 21 26 22 23 14741 30 17 20 36 18 30 31 17 24 977 20 543 17 33 26 18 2112 29 29 20 987 40 20 23 1052 38 25 16 23 2185 24 43 26 20 19 25 17 31 35 17 24 17 22 19 21 274 603 1096 16 26 24 2221 59 22 24 22 884 23 22 977 17 29 31 335 21 20 24 26 27 592 16 19 14 25 728 25 1454 18 18 512 21 14 28 33 16 1498 28 377 
To predecode: 0
Predecoding something: 0
Predecode request dropped: 0
sizeofblock_0 0
sizeofblock_1 37512
sizeofblock_2 97877
sizeofblock_3 0
sizeofblock_4 0
sizeofblock_5 0
sizeofblock_6 0
sizeofblock_7 0
sizeofblock_8 0
Variant_0 Correct: 1617733 Incorrect: 0 Accuracy: 1
Variant_1 Correct: 5752005 Incorrect: 0 Accuracy: 1
Variant_2 Correct: 0 Incorrect: 0 Accuracy: -nan
Variant_3 Correct: 0 Incorrect: 0 Accuracy: -nan
