
*** ChampSim Multicore Out-of-Order Simulator ***

Warmup Instructions: 50000000
Simulation Instructions: 50000000
Number of CPUs: 1
LLC sets: 2048
LLC ways: 16
Off-chip DRAM Size: 4096 MB Channels: 1 Width: 64-bit Data Rate: 6400 MT/s
CPU 0 runs ./micro_traces/srv163.trace.gz
.gz
ITLB has LRU replacement policy
DTLB has LRU replacement policy
STLB has LRU replacement policy
FDIP Prefetcher at L1I
L1I has LRU replacement policy
L1D has LRU replacement policy
Initialize SRRIP state for L2C
Initialize DRRIP state for LLC
Heartbeat_Variant_0 : 976 0.317708 per_variant_size: 0 976 0 0 0 0 0 0 0 
Heartbeat_Variant_1 : 2086 0.679036 per_variant_size: 0 391 1695 0 0 0 0 0 0 
Heartbeat_Variant_2 : 0 0 per_variant_size: 0 0 0 0 0 0 0 0 0 
Heartbeat_Variant_3 : 0 0 per_variant_size: 0 0 0 0 0 0 0 0 0 
Heartbeat_Variant_0_evicts 0 : 17566 1 : 25363 2 : 0 3 : 0 
Heartbeat_Variant_1_evicts 0 : 25370 1 : 0 2 : 0 3 : 0 
Heartbeat_Variant_2_evicts 0 : 0 1 : 0 2 : 0 3 : 0 
Heartbeat_Variant_3_evicts 0 : 0 1 : 0 2 : 0 3 : 0 
Heartbeat CPU 0 instructions: 10000001 cycles: 2797989 heartbeat IPC: 3.574 cumulative IPC: 3.574 (Simulation time: 0 hr 1 min 42 sec) 
Heartbeat_Variant_0 : 990 0.322266 per_variant_size: 0 990 0 0 0 0 0 0 0 
Heartbeat_Variant_1 : 2073 0.674805 per_variant_size: 0 360 1713 0 0 0 0 0 0 
Heartbeat_Variant_2 : 0 0 per_variant_size: 0 0 0 0 0 0 0 0 0 
Heartbeat_Variant_3 : 0 0 per_variant_size: 0 0 0 0 0 0 0 0 0 
Heartbeat_Variant_0_evicts 0 : 18074 1 : 25872 2 : 0 3 : 0 
Heartbeat_Variant_1_evicts 0 : 25858 1 : 0 2 : 0 3 : 0 
Heartbeat_Variant_2_evicts 0 : 0 1 : 0 2 : 0 3 : 0 
Heartbeat_Variant_3_evicts 0 : 0 1 : 0 2 : 0 3 : 0 
Heartbeat CPU 0 instructions: 20000001 cycles: 5594562 heartbeat IPC: 3.57581 cumulative IPC: 3.5749 (Simulation time: 0 hr 3 min 24 sec) 
Heartbeat_Variant_0 : 981 0.319336 per_variant_size: 0 981 0 0 0 0 0 0 0 
Heartbeat_Variant_1 : 2088 0.679688 per_variant_size: 0 339 1749 0 0 0 0 0 0 
Heartbeat_Variant_2 : 0 0 per_variant_size: 0 0 0 0 0 0 0 0 0 
Heartbeat_Variant_3 : 0 0 per_variant_size: 0 0 0 0 0 0 0 0 0 
Heartbeat_Variant_0_evicts 0 : 17621 1 : 26125 2 : 0 3 : 0 
Heartbeat_Variant_1_evicts 0 : 26134 1 : 0 2 : 0 3 : 0 
Heartbeat_Variant_2_evicts 0 : 0 1 : 0 2 : 0 3 : 0 
Heartbeat_Variant_3_evicts 0 : 0 1 : 0 2 : 0 3 : 0 
Heartbeat CPU 0 instructions: 30000003 cycles: 8390099 heartbeat IPC: 3.57713 cumulative IPC: 3.57564 (Simulation time: 0 hr 5 min 4 sec) 
Heartbeat_Variant_0 : 1003 0.326497 per_variant_size: 0 1003 0 0 0 0 0 0 0 
Heartbeat_Variant_1 : 2066 0.672526 per_variant_size: 0 336 1730 0 0 0 0 0 0 
Heartbeat_Variant_2 : 0 0 per_variant_size: 0 0 0 0 0 0 0 0 0 
Heartbeat_Variant_3 : 0 0 per_variant_size: 0 0 0 0 0 0 0 0 0 
Heartbeat_Variant_0_evicts 0 : 17907 1 : 26753 2 : 0 3 : 0 
Heartbeat_Variant_1_evicts 0 : 26731 1 : 0 2 : 0 3 : 0 
Heartbeat_Variant_2_evicts 0 : 0 1 : 0 2 : 0 3 : 0 
Heartbeat_Variant_3_evicts 0 : 0 1 : 0 2 : 0 3 : 0 
Heartbeat CPU 0 instructions: 40000002 cycles: 11186264 heartbeat IPC: 3.57633 cumulative IPC: 3.57581 (Simulation time: 0 hr 6 min 41 sec) 
Heartbeat_Variant_0 : 968 0.315104 per_variant_size: 0 968 0 0 0 0 0 0 0 
Heartbeat_Variant_1 : 2101 0.683919 per_variant_size: 0 358 1743 0 0 0 0 0 0 
Heartbeat_Variant_2 : 0 0 per_variant_size: 0 0 0 0 0 0 0 0 0 
Heartbeat_Variant_3 : 0 0 per_variant_size: 0 0 0 0 0 0 0 0 0 
Heartbeat_Variant_0_evicts 0 : 18325 1 : 26896 2 : 0 3 : 0 
Heartbeat_Variant_1_evicts 0 : 26931 1 : 0 2 : 0 3 : 0 
Heartbeat_Variant_2_evicts 0 : 0 1 : 0 2 : 0 3 : 0 
Heartbeat_Variant_3_evicts 0 : 0 1 : 0 2 : 0 3 : 0 
Heartbeat CPU 0 instructions: 50000001 cycles: 13982367 heartbeat IPC: 3.57641 cumulative IPC: 3.57593 (Simulation time: 0 hr 8 min 18 sec) 

Warmup complete CPU 0 instructions: 50000001 cycles: 13982367 (Simulation time: 0 hr 8 min 18 sec) 

Cycle: 20000000 FTQ IN: 56534980 FTQ occupancy: 18.0599 DECODE IN: 56534964 DECODE occupancy: 46.1977 ROB IN: 56534949 ROB occupancy: 278.677 ROB OUT: 56534949
Heartbeat_Variant_0 : 973 0.316732 per_variant_size: 0 973 0 0 0 0 0 0 0 
Heartbeat_Variant_1 : 2096 0.682292 per_variant_size: 0 346 1750 0 0 0 0 0 0 
Heartbeat_Variant_2 : 0 0 per_variant_size: 0 0 0 0 0 0 0 0 0 
Heartbeat_Variant_3 : 0 0 per_variant_size: 0 0 0 0 0 0 0 0 0 
Heartbeat_Variant_0_evicts 0 : 17546 1 : 26123 2 : 0 3 : 0 
Heartbeat_Variant_1_evicts 0 : 26118 1 : 0 2 : 0 3 : 0 
Heartbeat_Variant_2_evicts 0 : 0 1 : 0 2 : 0 3 : 0 
Heartbeat_Variant_3_evicts 0 : 0 1 : 0 2 : 0 3 : 0 
Heartbeat CPU 0 instructions: 60000002 cycles: 23190919 heartbeat IPC: 1.08595 cumulative IPC: 1.08595 (Simulation time: 0 hr 9 min 38 sec) 
Cycle: 30000000 FTQ IN: 10772549 FTQ occupancy: 6.7105 DECODE IN: 10772528 DECODE occupancy: 14.1455 ROB IN: 10772533 ROB occupancy: 115.5 ROB OUT: 10772483
Heartbeat_Variant_0 : 974 0.317057 per_variant_size: 0 974 0 0 0 0 0 0 0 
Heartbeat_Variant_1 : 2095 0.681966 per_variant_size: 0 350 1745 0 0 0 0 0 0 
Heartbeat_Variant_2 : 0 0 per_variant_size: 0 0 0 0 0 0 0 0 0 
Heartbeat_Variant_3 : 0 0 per_variant_size: 0 0 0 0 0 0 0 0 0 
Heartbeat_Variant_0_evicts 0 : 18095 1 : 26751 2 : 0 3 : 0 
Heartbeat_Variant_1_evicts 0 : 26750 1 : 0 2 : 0 3 : 0 
Heartbeat_Variant_2_evicts 0 : 0 1 : 0 2 : 0 3 : 0 
Heartbeat_Variant_3_evicts 0 : 0 1 : 0 2 : 0 3 : 0 
Heartbeat CPU 0 instructions: 70000001 cycles: 32542840 heartbeat IPC: 1.0693 cumulative IPC: 1.07756 (Simulation time: 0 hr 10 min 59 sec) 
Cycle: 40000000 FTQ IN: 10776683 FTQ occupancy: 6.48089 DECODE IN: 10776720 DECODE occupancy: 13.6351 ROB IN: 10776730 ROB occupancy: 113.95 ROB OUT: 10776715
Heartbeat_Variant_0 : 992 0.322917 per_variant_size: 0 992 0 0 0 0 0 0 0 
Heartbeat_Variant_1 : 2077 0.676107 per_variant_size: 0 346 1731 0 0 0 0 0 0 
Heartbeat_Variant_2 : 0 0 per_variant_size: 0 0 0 0 0 0 0 0 0 
Heartbeat_Variant_3 : 0 0 per_variant_size: 0 0 0 0 0 0 0 0 0 
Heartbeat_Variant_0_evicts 0 : 17991 1 : 26384 2 : 0 3 : 0 
Heartbeat_Variant_1_evicts 0 : 26366 1 : 0 2 : 0 3 : 0 
Heartbeat_Variant_2_evicts 0 : 0 1 : 0 2 : 0 3 : 0 
Heartbeat_Variant_3_evicts 0 : 0 1 : 0 2 : 0 3 : 0 
Heartbeat CPU 0 instructions: 80000002 cycles: 41749346 heartbeat IPC: 1.08619 cumulative IPC: 1.08042 (Simulation time: 0 hr 12 min 25 sec) 
Cycle: 50000000 FTQ IN: 10954357 FTQ occupancy: 6.6917 DECODE IN: 10954346 DECODE occupancy: 14.2437 ROB IN: 10954341 ROB occupancy: 118.453 ROB OUT: 10954189
Heartbeat_Variant_0 : 964 0.313802 per_variant_size: 0 964 0 0 0 0 0 0 0 
Heartbeat_Variant_1 : 2105 0.685221 per_variant_size: 0 385 1720 0 0 0 0 0 0 
Heartbeat_Variant_2 : 0 0 per_variant_size: 0 0 0 0 0 0 0 0 0 
Heartbeat_Variant_3 : 0 0 per_variant_size: 0 0 0 0 0 0 0 0 0 
Heartbeat_Variant_0_evicts 0 : 17363 1 : 25419 2 : 0 3 : 0 
Heartbeat_Variant_1_evicts 0 : 25447 1 : 0 2 : 0 3 : 0 
Heartbeat_Variant_2_evicts 0 : 0 1 : 0 2 : 0 3 : 0 
Heartbeat_Variant_3_evicts 0 : 0 1 : 0 2 : 0 3 : 0 
Heartbeat CPU 0 instructions: 90000000 cycles: 50998837 heartbeat IPC: 1.08114 cumulative IPC: 1.0806 (Simulation time: 0 hr 13 min 50 sec) 
Cycle: 60000000 FTQ IN: 10634131 FTQ occupancy: 6.68517 DECODE IN: 10634125 DECODE occupancy: 14.1271 ROB IN: 10634130 ROB occupancy: 115.391 ROB OUT: 10634195
Heartbeat_Variant_0 : 994 0.323568 per_variant_size: 0 994 0 0 0 0 0 0 0 
Heartbeat_Variant_1 : 2075 0.675456 per_variant_size: 0 332 1743 0 0 0 0 0 0 
Heartbeat_Variant_2 : 0 0 per_variant_size: 0 0 0 0 0 0 0 0 0 
Heartbeat_Variant_3 : 0 0 per_variant_size: 0 0 0 0 0 0 0 0 0 
Heartbeat_Variant_0_evicts 0 : 18305 1 : 26833 2 : 0 3 : 0 
Heartbeat_Variant_1_evicts 0 : 26803 1 : 0 2 : 0 3 : 0 
Heartbeat_Variant_2_evicts 0 : 0 1 : 0 2 : 0 3 : 0 
Heartbeat_Variant_3_evicts 0 : 0 1 : 0 2 : 0 3 : 0 
Heartbeat CPU 0 instructions: 100000003 cycles: 60302880 heartbeat IPC: 1.0748 cumulative IPC: 1.07944 (Simulation time: 0 hr 15 min 24 sec) 
Finished CPU 0 instructions: 50000002 cycles: 46320513 cumulative IPC: 1.07944 (Simulation time: 0 hr 15 min 24 sec) 

ChampSim completed all CPUs

Region of Interest Statistics

CPU 0 cumulative IPC: 1.07944 instructions: 50000002 cycles: 46320513
 Fetch stage stalled: 71.3448  Sim cycles: 46320513 fetch stall cycle: 33047276
 Empty decode stage: 58.2845  Sim cycles: 46320513 fetch stall cycle: 26997683
ITLB TOTAL     ACCESS:    5539115  HIT:    5043437  MISS:     495678  HIT %:    91.0513  MISS %:    8.94869   MPKI: 9.91356
ITLB LOAD TRANSLATION INSTRUCTION	ACCESS:    5430958  HIT:    4935280  MISS:     495678  HIT %:    90.8731  MISS %:     9.1269  MPKI: 9.91356
ITLB TRANSLATION FROM L1D PREFETCHER INSTRUCTION	ACCESS:     108157  HIT:     108157  MISS:          0  HIT %:        100  MISS %:          0  MPKI: 0

ITLB AVERAGE MISS LATENCY: 9.03405 cycles
ITLB RQ	ACCESS:    7308868	FORWARD:          0	MERGED:    1244796	TO_CACHE:    6064072

DTLB TOTAL     ACCESS:    9379696  HIT:    8903853  MISS:     475843  HIT %:    94.9269  MISS %:    5.07312   MPKI: 9.51686
DTLB LOAD TRANSLATION DATA	ACCESS:    9379696  HIT:    8903853  MISS:     475843  HIT %:    94.9269  MISS %:    5.07312  MPKI: 9.51686

DTLB AVERAGE MISS LATENCY: 9.30208 cycles
DTLB RQ	ACCESS:   13650066	FORWARD:          0	MERGED:    4237440	TO_CACHE:    9412626

STLB TOTAL     ACCESS:    1217406  HIT:    1215517  MISS:       1889  HIT %:    99.8448  MISS %:   0.155166   MPKI: 0.03778
STLB LOAD TRANSLATION INSTRUCTION	ACCESS:     495678  HIT:     495460  MISS:        218  HIT %:     99.956  MISS %:  0.0439802  MPKI: 0.00436
STLB LOAD TRANSLATION DATA	ACCESS:     475673  HIT:     474021  MISS:       1652  HIT %:    99.6527  MISS %:   0.347297  MPKI: 0.03304
STLB TRANSLATION FROM L1D PREFETCHER DATA	ACCESS:     246055  HIT:     246036  MISS:         19  HIT %:    99.9923  MISS %: 0.00772185  MPKI: 0.00038

STLB AVERAGE MISS LATENCY: 72.1853 cycles
STLB RQ	ACCESS:    1337375	FORWARD:          0	MERGED:     119923	TO_CACHE:    1217452

STLB Hit, L1D data hit: 0
STLB Hit, L2C data hit: 0
STLB Hit, LLC data hit: 0
STLB Hit, LLC data miss: 0
STLB STLB hints to L2: 0
L1D TOTAL     ACCESS:   13418078  HIT:   12301236  MISS:    1116842  HIT %:    91.6766  MISS %:    8.32341   MPKI: 22.3368
L1D LOAD DATA	ACCESS:    6839592  HIT:    6102451  MISS:     737141  HIT %:    89.2224  MISS %:    10.7776  MPKI: 14.7428
L1D RFO DATA	ACCESS:    6254067  HIT:    5968490  MISS:     285577  HIT %:    95.4337  MISS %:    4.56626  MPKI: 5.71154
L1D PREFETCH DATA	ACCESS:     324419  HIT:     230295  MISS:      94124  HIT %:    70.9869  MISS %:    29.0131  MPKI: 1.88248

L1D PREFETCH  REQUESTED:     731966  ISSUED:     731966  USEFUL:      33763  USELESS:      68676
L1D USEFUL LOAD PREFETCHES:      33763 PREFETCH ISSUED TO LOWER LEVEL:     102473  ACCURACY: 32.9482
 TIMELY PREFETCHES:      33763 LATE PREFETCHES: 8317 DROPPED PREFETCHES: 8
L1D AVERAGE MISS LATENCY: 281974 cycles
L1D RQ	ACCESS:   10911779	FORWARD:          0	MERGED:    3876384	TO_CACHE:    6869348
L1D WQ	ACCESS:    6949899	FORWARD:     166305	MERGED:     169181	TO_CACHE:    6780718
L1D PQ	ACCESS:     366112	FORWARD:          0	MERGED:          0	TO_CACHE:     365854

L1D UNIQUE REGIONS ACCESSED: 0
L1D REGIONS CONFLICTS: 0
L1D Cross Page Prefetch Requests: 6832
L1D Same Page Prefetch Requests: 743048
L1D ROI Sum of L1D PQ occupancy: 4640987
L1D PREFETCHES PUSHED FROM L2C: 0
L1I TOTAL     ACCESS:    6881006  HIT:    4110733  MISS:    2770273  HIT %:    59.7403  MISS %:    40.2597   MPKI: 55.4055
L1I LOAD INSTRUCTION	ACCESS:    6433685  HIT:    3663412  MISS:    2770273  HIT %:    56.9411  MISS %:    43.0589  MPKI: 55.4055
L1I PREFETCH INSTRUCTION	ACCESS:     447321  HIT:     447321  MISS:          0  HIT %:        100  MISS %:          0  MPKI: 0

L1I PREFETCH  REQUESTED:     977113  ISSUED:     977113  USEFUL:          0  USELESS:          0
L1I USEFUL LOAD PREFETCHES:          0 PREFETCH ISSUED TO LOWER LEVEL:          0  ACCURACY: -nan
 TIMELY PREFETCHES:          0 LATE PREFETCHES: 0 DROPPED PREFETCHES: 0
L1I AVERAGE MISS LATENCY: 17.1248 cycles
L1I RQ	ACCESS:    9464196	FORWARD:          0	MERGED:    2849163	TO_CACHE:    6615033
L1I PQ	ACCESS:     977113	FORWARD:          0	MERGED:     283278	TO_CACHE:     693835

L1BTB TOTAL     ACCESS:    5671453  HIT:    2033235  MISS:    3638218  HIT %:    35.8503  MISS %:    64.1497   MPKI: 72.7644
L1BTB BRANCH_DIRECT_JUMP	ACCESS:     547551 HIT:     143672 MISS:     403879 AVERAGE STALL: 34.9137 AVERAGE FETCH STALL: 19.0451 AVERAGE FETCH QUEUE STALL: 7.94005 AVERAGE DECODE STALL: 7.07679 AVERAGE EXECUTE STALL: 2.80952e+14
L1BTB BRANCH_INDIRECT	ACCESS:     182353 HIT:      65538 MISS:     116815 AVERAGE STALL: 88.5091 AVERAGE FETCH STALL: 15.6725 AVERAGE FETCH QUEUE STALL: 9.40957 AVERAGE DECODE STALL: 7.13102 AVERAGE EXECUTE STALL: 55.3559
L1BTB BRANCH_CONDITIONAL	ACCESS:    2697919 HIT:    1402909 MISS:    1295010 AVERAGE STALL: 35.2651 AVERAGE FETCH STALL: 21.4683 AVERAGE FETCH QUEUE STALL: 6.45336 AVERAGE DECODE STALL: 6.60177 AVERAGE EXECUTE STALL: 9.82752e+13
L1BTB BRANCH_DIRECT_CALL	ACCESS:     949026 HIT:     106963 MISS:     842063 AVERAGE STALL: 36.8162 AVERAGE FETCH STALL: 21.8744 AVERAGE FETCH QUEUE STALL: 7.24444 AVERAGE DECODE STALL: 6.94539 AVERAGE EXECUTE STALL: 9.14123e+13
L1BTB BRANCH_INDIRECT_CALL	ACCESS:     172786 HIT:      21965 MISS:     150821 AVERAGE STALL: 114.128 AVERAGE FETCH STALL: 18.6367 AVERAGE FETCH QUEUE STALL: 6.16965 AVERAGE DECODE STALL: 6.64181 AVERAGE EXECUTE STALL: 82.1244
L1BTB BRANCH_RETURN	ACCESS:    1121818 HIT:     292188 MISS:     829630 AVERAGE STALL: 36.1379 AVERAGE FETCH STALL: 18.4038 AVERAGE FETCH QUEUE STALL: 6.00693 AVERAGE DECODE STALL: 6.39022 AVERAGE EXECUTE STALL: 1.4453e+14
L1BTB BRANCH_OTHER ACCESS:          0 HIT:          0 MISS:          0 AVERAGE STALL: -nan AVERAGE FETCH STALL: -nan AVERAGE FETCH QUEUE STALL: -nan AVERAGE DECODE STALL: -nan AVERAGE EXECUTE STALL: -nan
L1BTB TOTAL ROB OCCUPANCY AT BTB MISS: 16.1927

L2BTB TOTAL     ACCESS:    3612951  HIT:    2984402  MISS:     628549  HIT %:    82.6029  MISS %:    17.3971   MPKI: 12.571
L2BTB BRANCH_DIRECT_JUMP	ACCESS:     399778 HIT:     338209 MISS:      61569 AVERAGE STALL: 34.9137 AVERAGE FETCH STALL: 19.0451 AVERAGE FETCH QUEUE STALL: 7.94005 AVERAGE DECODE STALL: 7.07679 AVERAGE EXECUTE STALL: 2.80952e+14
L2BTB BRANCH_INDIRECT	ACCESS:     106536 HIT:      95993 MISS:      10543 AVERAGE STALL: 88.5091 AVERAGE FETCH STALL: 15.6725 AVERAGE FETCH QUEUE STALL: 9.40957 AVERAGE DECODE STALL: 7.13102 AVERAGE EXECUTE STALL: 55.3559
L2BTB BRANCH_CONDITIONAL	ACCESS:    1295010 HIT:    1106344 MISS:     188666 AVERAGE STALL: 35.2651 AVERAGE FETCH STALL: 21.4683 AVERAGE FETCH QUEUE STALL: 6.45336 AVERAGE DECODE STALL: 6.60177 AVERAGE EXECUTE STALL: 9.82752e+13
L2BTB BRANCH_DIRECT_CALL	ACCESS:     842063 HIT:     640231 MISS:     201832 AVERAGE STALL: 36.8162 AVERAGE FETCH STALL: 21.8744 AVERAGE FETCH QUEUE STALL: 7.24444 AVERAGE DECODE STALL: 6.94539 AVERAGE EXECUTE STALL: 9.14123e+13
L2BTB BRANCH_INDIRECT_CALL	ACCESS:     141348 HIT:     101671 MISS:      39677 AVERAGE STALL: 114.128 AVERAGE FETCH STALL: 18.6367 AVERAGE FETCH QUEUE STALL: 6.16965 AVERAGE DECODE STALL: 6.64181 AVERAGE EXECUTE STALL: 82.1244
L2BTB BRANCH_RETURN	ACCESS:     828216 HIT:     701954 MISS:     126262 AVERAGE STALL: 36.1379 AVERAGE FETCH STALL: 18.4038 AVERAGE FETCH QUEUE STALL: 6.00693 AVERAGE DECODE STALL: 6.39022 AVERAGE EXECUTE STALL: 1.4453e+14
L2BTB BRANCH_OTHER ACCESS:          0 HIT:          0 MISS:          0 AVERAGE STALL: -nan AVERAGE FETCH STALL: -nan AVERAGE FETCH QUEUE STALL: -nan AVERAGE DECODE STALL: -nan AVERAGE EXECUTE STALL: -nan
L2BTB TOTAL ROB OCCUPANCY AT BTB MISS: 93.7278

L2C TOTAL     ACCESS:    4486538  HIT:    4041130  MISS:     445408  HIT %:    90.0723  MISS %:    9.92765   MPKI: 8.90816
L2C LOAD INSTRUCTION	ACCESS:    2770272  HIT:    2523546  MISS:     246726  HIT %:    91.0938  MISS %:     8.9062  MPKI: 4.93452
L2C LOAD TRANSLATION INSTRUCTION	ACCESS:        242  HIT:         66  MISS:        176  HIT %:    27.2727  MISS %:    72.7273  MPKI: 0.00352
L2C LOAD DATA	ACCESS:     728804  HIT:     660613  MISS:      68191  HIT %:    90.6434  MISS %:    9.35656  MPKI: 1.36382
L2C RFO DATA	ACCESS:     285530  HIT:     236247  MISS:      49283  HIT %:    82.7398  MISS %:    17.2602  MPKI: 0.98566
L2C PREFETCH DATA	ACCESS:     178240  HIT:     110936  MISS:      67304  HIT %:    62.2397  MISS %:    37.7603  MPKI: 1.34608
L2C WRITEBACK DATA	ACCESS:     521712  HIT:     509323  MISS:      12389  HIT %:    97.6253  MISS %:    2.37468  MPKI: 0.24778
L2C LOAD TRANSLATION DATA	ACCESS:       1696  HIT:        373  MISS:       1323  HIT %:    21.9929  MISS %:    78.0071  MPKI: 0.02646
L2C TRANSLATION FROM L1D PREFETCHER DATA	ACCESS:         42  HIT:         26  MISS:         16  HIT %:    61.9048  MISS %:    38.0952  MPKI: 0.00032

L2C PREFETCH  REQUESTED:      83228  ISSUED:      83228  USEFUL:       7871  USELESS:      59803
L2C USEFUL LOAD PREFETCHES:       7871 PREFETCH ISSUED TO LOWER LEVEL:      67667  ACCURACY: 11.632
 TIMELY PREFETCHES:       7871 LATE PREFETCHES: 363 DROPPED PREFETCHES: 0
L2C AVERAGE MISS LATENCY: 38.7265 cycles
L2C RQ	ACCESS:    3786621	FORWARD:          0	MERGED:          0	TO_CACHE:    3786586
L2C WQ	ACCESS:     521712	FORWARD:         35	MERGED:          0	TO_CACHE:     521712
L2C PQ	ACCESS:     185701	FORWARD:          0	MERGED:       3504	TO_CACHE:     182197

L2C Dense regions hint from L2: 0
PSCL5 TOTAL     ACCESS:       3802  HIT:       1901  MISS:       1901  HIT %:         50  MISS %:         50   MPKI: 0.03802
PSCL5 LOAD TRANSLATION INSTRUCTION	ACCESS:       3718  HIT:       1859  MISS:       1859  HIT %:         50  MISS %:         50  MPKI: 0.03718
PSCL5 TRANSLATION FROM L1D PREFETCHER INSTRUCTION	ACCESS:         84  HIT:         42  MISS:         42  HIT %:         50  MISS %:         50  MPKI: 0.00084


PSCL4 TOTAL     ACCESS:       3701  HIT:       1848  MISS:       1853  HIT %:    49.9325  MISS %:    50.0675   MPKI: 0.03706
PSCL4 LOAD TRANSLATION INSTRUCTION	ACCESS:       2134  HIT:       1811  MISS:        323  HIT %:    84.8641  MISS %:    15.1359  MPKI: 0.00646
PSCL4 TRANSLATION FROM L1D PREFETCHER INSTRUCTION	ACCESS:         43  HIT:         37  MISS:          6  HIT %:    86.0465  MISS %:    13.9535  MPKI: 0.00012
PSCL4 LOAD TRANSLATION DATA	ACCESS:       1493  HIT:          0  MISS:       1493  HIT %:          0  MISS %:        100  MPKI: 0.02986
PSCL4 TRANSLATION FROM L1D PREFETCHER DATA	ACCESS:         31  HIT:          0  MISS:         31  HIT %:          0  MISS %:        100  MPKI: 0.00062


PSCL3 TOTAL     ACCESS:       3757  HIT:       1876  MISS:       1881  HIT %:    49.9335  MISS %:    50.0665   MPKI: 0.03762
PSCL3 LOAD TRANSLATION INSTRUCTION	ACCESS:       2162  HIT:       1839  MISS:        323  HIT %:    85.0601  MISS %:    14.9399  MPKI: 0.00646
PSCL3 TRANSLATION FROM L1D PREFETCHER INSTRUCTION	ACCESS:         43  HIT:         37  MISS:          6  HIT %:    86.0465  MISS %:    13.9535  MPKI: 0.00012
PSCL3 LOAD TRANSLATION DATA	ACCESS:       1521  HIT:          0  MISS:       1521  HIT %:          0  MISS %:        100  MPKI: 0.03042
PSCL3 TRANSLATION FROM L1D PREFETCHER DATA	ACCESS:         31  HIT:          0  MISS:         31  HIT %:          0  MISS %:        100  MPKI: 0.00062


PSCL2 TOTAL     ACCESS:       3733  HIT:       1832  MISS:       1901  HIT %:    49.0758  MISS %:    50.9242   MPKI: 0.03802
PSCL2 LOAD TRANSLATION INSTRUCTION	ACCESS:       2009  HIT:       1790  MISS:        219  HIT %:    89.0991  MISS %:    10.9009  MPKI: 0.00438
PSCL2 TRANSLATION FROM L1D PREFETCHER INSTRUCTION	ACCESS:         42  HIT:         42  MISS:          0  HIT %:        100  MISS %:          0  MPKI: 0
PSCL2 LOAD TRANSLATION DATA	ACCESS:       1640  HIT:          0  MISS:       1640  HIT %:          0  MISS %:        100  MPKI: 0.0328
PSCL2 TRANSLATION FROM L1D PREFETCHER DATA	ACCESS:         42  HIT:          0  MISS:         42  HIT %:          0  MISS %:        100  MPKI: 0.00084


LLC TOTAL     ACCESS:     502357  HIT:     475077  MISS:      27280  HIT %:    94.5696  MISS %:     5.4304   MPKI: 0.5456
LLC LOAD INSTRUCTION	ACCESS:     246726  HIT:     246056  MISS:        670  HIT %:    99.7284  MISS %:   0.271556  MPKI: 0.0134
LLC LOAD TRANSLATION INSTRUCTION	ACCESS:        176  HIT:        150  MISS:         26  HIT %:    85.2273  MISS %:    14.7727  MPKI: 0.00052
LLC LOAD DATA	ACCESS:      67859  HIT:      64478  MISS:       3381  HIT %:    95.0176  MISS %:    4.98239  MPKI: 0.06762
LLC RFO DATA	ACCESS:      49248  HIT:      36214  MISS:      13034  HIT %:     73.534  MISS %:     26.466  MPKI: 0.26068
LLC PREFETCH DATA	ACCESS:      67667  HIT:      57927  MISS:       9740  HIT %:     85.606  MISS %:     14.394  MPKI: 0.1948
LLC WRITEBACK DATA	ACCESS:      69342  HIT:      68992  MISS:        350  HIT %:    99.4953  MISS %:   0.504745  MPKI: 0.007
LLC LOAD TRANSLATION DATA	ACCESS:       1323  HIT:       1244  MISS:         79  HIT %:    94.0287  MISS %:    5.97128  MPKI: 0.00158
LLC TRANSLATION FROM L1D PREFETCHER DATA	ACCESS:         16  HIT:         16  MISS:          0  HIT %:        100  MISS %:          0  MPKI: 0

LLC AVERAGE MISS LATENCY: 155.147 cycles
LLC RQ	ACCESS:     365352	FORWARD:          0	MERGED:          0	TO_CACHE:     365348
LLC WQ	ACCESS:      69342	FORWARD:          4	MERGED:          0	TO_CACHE:      69342
LLC PQ	ACCESS:      67667	FORWARD:          0	MERGED:          0	TO_CACHE:      67667

LLC Dense regions hint to LLC: 0

RAW hits: 1718493
Loads Generated: 12630272
Loads sent to L1D: 10911779
Stores Generated: 6949891
Stores sent to L1D: 6949899
Major fault: 0 Minor fault: 2589
Allocated PAGES: 2589

stream: 
stream:times selected: 1173924
stream:pref_filled: 122426
stream:pref_useful: 24089
stream:pref_late: 7028
stream:misses: 8023
stream:misses_by_poll: 0

CS: 
CS:times selected: 176320
CS:pref_filled: 59460
CS:pref_useful: 35854
CS:pref_late: 7421
CS:misses: 16439
CS:misses_by_poll: 2

CPLX: 
CPLX:times selected: 996483
CPLX:pref_filled: 19497
CPLX:pref_useful: 4594
CPLX:pref_late: 3303
CPLX:misses: 93844
CPLX:misses_by_poll: 0

NL_L1: 
NL:times selected: 20607
NL:pref_filled: 774
NL:pref_useful: 337
NL:pref_late: 307
NL:misses: 1788
NL:misses_by_poll: 0

total selections: 2367334
total_filled: 94124
total_useful: 33763
total_late: 19331
total_polluted: 2
total_misses_after_warmup: 766895
conflicts: 5665333

test: 114446

DRAM Statistics
 CHANNEL 0
 RQ ROW_BUFFER_HIT:       9994  ROW_BUFFER_MISS:      16922
 DBUS_CONGESTED:          8
 WQ ROW_BUFFER_HIT:       1217  ROW_BUFFER_MISS:      11913  FULL:          0

 AVG_CONGESTED_CYCLE: 6

CPU 0 Branch Prediction Accuracy: 99.8272% MPKI: 0.31622 Average ROB Occupancy at Mispredict: 137.465
Branch types
NOT_BRANCH: 40848035 81.6961%
BRANCH_DIRECT_JUMP: 547551 1.0951%
BRANCH_INDIRECT: 182353 0.364706%
BRANCH_CONDITIONAL: 6178086 12.3562%
BRANCH_DIRECT_CALL: 949026 1.89805%
BRANCH_INDIRECT_CALL: 172786 0.345572%
BRANCH_RETURN: 1121818 2.24364%
BRANCH_OTHER: 0 0%

DRAM PAGES: 1048576
Allocated PAGES: 2589
Average_ROB_Occupancy: 116.883
Average_Decode_Occupancy: 14.0325
Average_FTQ_Occupancy: 6.63439
Indirect max targets: 14 Average targets: 1.17778
Branch_type:  BRANCH_DIRECT_JUMP:  Count Percentage: 4.12616 5.6884 3.63391 2.28157 8.167 6.32443 1.45656 68.322 
Branch_type:  BRANCH_INDIRECT:  Count Percentage: 11.7649 3.39008 2.49566 13.3009 3.3547 2.81794 0.939129 61.9367 
Branch_type:  BRANCH_CONDITIONAL:  Count Percentage: 21.9163 2.25495 2.06737 3.01979 3.25032 4.63142 3.73058 59.1293 
Branch_type:  BRANCH_DIRECT_CALL:  Count Percentage: 0.386717 1.80401 0.716854 1.46601 5.23189 2.60505 1.0282 86.7613 
Branch_type:  BRANCH_INDIRECT_CALL:  Count Percentage: 9.53172 0 2.9876 0.000869921 1.36056 1.70997 0.99287 83.4164 
Branch_type:  BRANCH_RETURN:  Count Percentage: 3.93411 2.02347 2.23352 3.08556 3.44562 5.11456 3.6105 76.5527 
Branch_type:  BRANCH_DIRECT_JUMP:  Total Count: 45172 62275 39783 24978 89410 69238 15946 747969 
Branch_type:  BRANCH_INDIRECT:  Total Count: 42894 12360 9099 48494 12231 10274 3424 225817 
Branch_type:  BRANCH_CONDITIONAL:  Total Count: 2706780 278498 255331 372960 401432 572005 460747 7302787 
Branch_type:  BRANCH_DIRECT_CALL:  Total Count: 7327 34180 13582 27776 99127 49357 19481 1643838 
Branch_type:  BRANCH_INDIRECT_CALL:  Total Count: 32871 0 10303 3 4692 5897 3424 287669 
Branch_type:  BRANCH_RETURN:  Total Count: 88140 45334 50040 69129 77196 114587 80890 1715091 
Number of unique branch instructions: 10811
Upper 32 bits: 
aaaa
ffff
ffff0000
Unique upper 32 bits: 3
Unique upper 36 bits: 3
Unique upper 40 bits: 5
Unique upper 44 bits: 32
Unique upper 48 bits: 158
Variant_0 : 994 0.323568
Variant_1 : 2075 0.675456
Variant_2 : 0 0
Variant_3 : 0 0
Offset_3 4470
Offset_4 255
Offset_5 484
Offset_6 541
Offset_7 643
Offset_8 577
Offset_9 523
Offset_10 426
Offset_11 360
Offset_12 327
Offset_13 240
Offset_14 247
Offset_15 194
Offset_16 233
Offset_17 169
Offset_18 149
Offset_19 257
Offset_20 143
Offset_21 235
Offset_22 413
Offset_23 241
Offset_24 351
Offset_25 117
Offset_47 94
Offset_64 2
decode_dispatch_called: 19490169 42.0768
Dispatch_width: 0 9407090 48.2658 20.3087
Dispatch_width: 1 541844 2.78009 1.16977
Dispatch_width: 2 668199 3.42839 1.44256
Dispatch_width: 3 456221 2.34077 0.984922
Dispatch_width: 4 1712586 8.78692 3.69725
Dispatch_width: 5 322812 1.65628 0.696909
Dispatch_width: 6 6381417 32.7417 13.7767
Empty_decode_cycles: 26830344 57.9232
ROB_full_cycles: 2385211 5.14936
Starvation_cycles_per_kilo_instr: 375.539
Starvation_cycles_per_kilo_instr_3: 355.185
Starvation_cycles_per_kilo_instr_0: 338.522
Branch_type_1  (3,1)  (4,9)  (5,39)  (6,74)  (7,126)  (8,148)  (9,136)  (10,110)  (11,78)  (12,55)  (13,11)  (14,2)  (15,3)  (16,4)  (18,1)  (19,5)  (20,2)  (21,1)  (22,3)  (23,2)  (24,10)  (25,12) 
Branch_type_2  (3,1)  (4,1)  (5,1)  (8,4)  (9,4)  (10,1)  (12,1)  (13,1)  (14,1)  (16,3)  (17,2)  (20,2)  (21,2)  (23,5)  (24,1)  (47,43) 
Branch_type_3  (3,4468)  (4,245)  (5,440)  (6,451)  (7,487)  (8,360)  (9,288)  (10,172)  (11,146)  (12,62)  (13,10)  (64,2) 
Branch_type_4  (6,3)  (7,8)  (8,25)  (9,56)  (10,68)  (11,70)  (12,117)  (13,102)  (14,112)  (15,92)  (16,102)  (17,79)  (18,65)  (19,125)  (20,73)  (21,124)  (22,219)  (23,136)  (24,206)  (25,101) 
Branch_type_5  (8,3)  (9,1)  (10,4)  (11,5)  (12,3)  (13,14)  (14,16)  (15,11)  (16,22)  (17,11)  (18,23)  (19,14)  (20,11)  (21,13)  (22,43)  (23,26)  (24,38) 
Branch_type_6  (5,4)  (6,13)  (7,22)  (8,37)  (9,38)  (10,71)  (11,61)  (12,89)  (13,102)  (14,116)  (15,88)  (16,102)  (17,77)  (18,60)  (19,113)  (20,55)  (21,95)  (22,148)  (23,72)  (24,96)  (25,4)  (47,51) 
Unique trigger count: 
Variant_0_evicts_0 : 0
Variant_0_evicts_1 : 0
Variant_0_evicts_2 : 0
Variant_0_evicts_3 : 0
Variant_1_evicts_0 : 0
Variant_1_evicts_1 : 0
Variant_1_evicts_2 : 0
Variant_1_evicts_3 : 0
Variant_2_evicts_0 : 0
Variant_2_evicts_1 : 0
Variant_2_evicts_2 : 0
Variant_2_evicts_3 : 0
Variant_3_evicts_0 : 0
Variant_3_evicts_1 : 0
Variant_3_evicts_2 : 0
Variant_3_evicts_3 : 0
BTB PER SET UNIQUE ADDR: 15 21 11 19 18 18 16 17 9 20 11 24 24 17 18 12 16 14 17 18 18 16 15 19 18 21 15 19 20 19 13 17 23 6 16 16 17 18 11 16 15 16 18 22 16 15 20 12 22 15 22 13 17 18 17 9 14 15 15 18 16 23 22 15 20 21 19 14 24 21 12 17 25 17 14 9 10 19 12 24 24 9 21 21 20 19 15 17 15 29 14 12 20 16 12 21 17 12 22 18 29 26 19 18 20 12 17 19 11 17 13 25 20 14 16 12 18 19 16 20 19 14 17 11 16 12 10 17 24 10 13 21 19 17 13 21 11 19 14 25 13 24 18 20 19 16 18 13 11 16 17 21 14 15 16 26 23 21 18 17 16 18 18 19 16 17 19 12 21 13 17 18 18 22 16 15 15 14 16 22 15 14 11 22 23 23 9 19 17 14 20 15 10 19 16 14 15 22 15 17 25 15 12 17 11 19 21 19 16 18 16 21 16 19 14 22 15 20 13 23 15 19 11 15 21 16 19 23 12 23 14 12 15 21 22 22 18 17 19 13 16 16 20 17 13 15 16 20 18 17 23 14 15 11 23 16 12 14 16 13 17 12 9 16 16 13 13 15 13 14 12 19 11 12 9 12 18 16 16 19 10 18 10 16 19 13 13 26 22 23 14 12 17 22 11 19 16 16 16 17 14 19 11 27 18 25 19 20 20 17 17 21 14 31 14 12 24 13 18 22 18 16 12 16 18 24 12 10 17 14 12 22 17 16 16 23 17 16 11 32 13 18 13 24 23 20 14 16 12 19 15 14 12 20 14 17 16 18 12 15 17 20 10 23 16 18 11 18 14 19 20 15 19 19 13 24 19 25 14 18 18 16 11 13 14 15 17 21 16 15 24 12 21 26 13 16 15 13 18 17 17 23 17 21 17 21 18 17 18 20 16 11 13 21 13 16 17 18 24 21 16 18 15 21 18 18 20 17 19 16 22 19 13 17 23 20 24 11 17 18 18 17 17 24 30 14 14 18 25 21 19 28 20 14 20 30 21 23 14 24 12 19 13 19 23 13 17 18 19 19 17 16 17 15 18 25 15 24 11 15 24 24 15 21 14 21 21 28 23 20 16 20 14 14 13 14 21 24 16 20 16 24 17 24 16 15 17 29 22 22 18 28 15 17 16 22 15 26 12 13 13 16 17 14 19 23 26 14 11 20 22 21 20 14 18 21 17 18 19 19 18 13 16 16 21 24 8 22 13 19 16 22 20 15 14 18 17 16 16 21 19 24 19 13 18 20 9 27 20 23 18 22 23 24 18 20 21 19 16 14 16 22 12 16 18 22 14 17 27 17 14 17 14 13 22 16 12 19 18 15 19 14 15 13 22 17 24 12 14 19 23 20 14 12 7 24 14 21 17 18 22 19 12 13 14 22 13 23 16 18 9 22 21 20 16 20 19 24 10 18 19 14 20 25 20 20 16 20 27 15 11 18 12 12 21 13 13 23 17 18 14 10 20 23 13 20 13 17 9 16 19 16 15 18 29 15 21 17 21 23 22 17 16 20 17 16 18 21 23 22 15 23 19 11 11 16 13 21 17 23 11 17 24 24 11 16 12 16 16 15 14 19 15 18 15 14 20 14 17 23 15 15 18 14 14 14 19 14 17 14 22 16 18 12 13 17 19 19 28 13 16 14 18 13 22 19 16 18 18 12 19 16 17 13 14 16 23 16 13 10 15 13 13 18 20 20 15 19 15 25 17 21 13 17 16 13 24 17 20 23 15 18 21 13 16 20 12 22 13 10 13 9 20 22 17 28 18 12 25 18 25 19 26 21 26 16 21 13 18 14 21 22 26 24 17 25 23 23 11 23 19 22 12 18 20 14 14 15 17 19 21 18 21 19 11 23 19 17 22 16 21 16 15 15 14 20 18 20 17 17 17 14 14 18 18 23 23 20 22 19 17 20 14 15 23 11 18 16 22 14 18 19 23 16 21 7 18 15 16 20 22 7 17 22 17 18 20 17 21 16 23 16 17 14 16 19 22 15 13 14 18 18 14 19 12 20 16 20 15 23 18 19 17 18 14 18 28 18 18 16 21 17 11 18 16 13 9 22 18 15 23 25 20 17 16 23 19 12 22 18 12 20 18 20 17 19 21 20 17 14 15 22 16 19 16 18 20 20 20 14 24 19 18 21 25 20 22 22 11 16 17 20 19 16 19 15 22 22 21 28 17 24 21 18 18 21 31 15 19 19 20 21 24 17 19 14 16 16 22 16 22 24 14 19 14 19 9 24 16 17 19 19 18 13 14 15 12 14 8 11 19 28 13 12 
BTB PER SET COUNT: 1705 1173 2306 1138 1868 1356 2233 855 1794 1309 636 1229 1649 1552 1060 456 1028 2894 1430 987 1489 1292 915 1090 869 1691 744 1359 1838 1386 447 1062 1368 263 903 1048 956 823 590 1709 794 1025 1010 1916 2180 704 1126 929 1870 844 1723 1124 827 1218 1224 366 493 921 897 1248 727 2596 1610 1183 1396 2171 869 1845 1869 1829 1306 1282 1944 941 395 655 506 1779 899 1668 2122 223 1439 1355 1086 824 458 1541 1883 2803 579 668 1407 967 277 1439 721 433 1442 2848 2723 1948 1221 979 2696 473 1445 1411 2261 880 904 1898 2232 1083 1212 858 1284 1424 1372 1802 1768 849 1388 377 638 606 448 1728 2193 1282 848 2498 1204 1075 1302 1594 905 1089 608 1637 1039 1782 1447 872 1086 968 1470 740 551 1394 1192 966 1534 804 594 2420 2194 1411 1215 1604 776 1282 1328 1126 754 1747 889 493 1534 1626 596 932 1385 972 1532 742 641 704 1563 2068 1145 723 808 1237 1753 2103 398 1186 1242 1065 1515 678 423 1667 802 504 801 2065 862 655 1567 996 1804 941 721 1524 1323 951 1292 2030 1320 1096 655 5211 1133 1607 941 1804 795 1781 603 1218 771 970 1161 1190 851 1536 671 1849 798 393 666 1255 1355 10530 1057 1324 1350 470 2077 1249 1916 1608 1106 880 924 1441 1002 1309 1414 598 709 632 1620 1526 768 964 789 642 1377 553 235 1457 919 400 742 1018 904 931 707 1091 354 576 637 793 1197 791 972 1651 131 1630 935 1375 1204 942 463 1548 1551 1431 1080 394 480 1685 514 1083 1696 814 985 1287 435 811 275 2062 1170 2022 1030 1741 1781 979 1393 1148 663 2077 2522 1247 1490 1043 1408 2114 1241 2506 475 962 533 1938 831 482 1245 527 671 1991 1386 694 996 1767 811 1427 702 2680 753 1825 983 1596 1804 1207 743 987 644 1306 830 1024 620 1537 526 948 950 1467 573 766 986 1435 629 2145 722 1835 406 1235 781 1170 1364 908 1259 2009 272 1623 741 1598 755 1722 1662 1023 343 497 732 693 1640 1889 619 712 1863 400 1553 1737 484 566 1103 880 1447 2207 1249 1130 1708 1170 1007 1409 867 1525 865 2011 557 238 516 1473 671 808 956 5081 2053 1285 721 969 1519 1378 1005 1274 1729 1153 1069 695 2064 785 586 1329 2083 1702 1287 824 1050 1111 1562 1413 1005 1796 2444 932 1580 1338 1997 1369 1344 2970 1446 978 1790 2366 1367 946 688 2117 756 1168 537 1347 1521 919 8565 1036 1679 1247 1414 1053 838 710 1167 1801 1022 2431 768 834 2092 1936 976 1086 1528 1287 1543 2007 2306 1141 1291 1468 4076 674 377 1210 2399 1575 1069 776 688 1526 941 2024 1325 647 876 2406 1950 1193 1255 3122 1607 1358 719 1934 529 1714 555 558 508 1121 955 464 1334 1991 1801 1124 895 3523 2243 1458 1357 685 1248 1905 882 2183 1461 1373 1000 725 957 1201 946 1796 35 1339 817 1657 768 1337 1283 715 965 550 1081 787 947 1550 729 2003 796 854 1841 946 576 1933 1731 1867 1747 1762 1316 1721 1111 1667 1408 1494 950 1007 737 1690 516 2500 963 1434 475 848 2466 791 832 1435 956 610 1072 931 321 1545 1340 899 851 1195 1295 739 1191 1221 2173 1961 451 1153 1771 1945 978 465 246 1936 472 1471 1759 1105 1994 983 551 838 793 1433 794 2400 874 1717 208 1746 1868 1063 807 1360 1799 1171 561 1108 1682 772 1410 1717 2049 1679 863 1576 2828 793 517 1073 458 931 2517 637 1028 1647 875 953 1389 235 1539 1583 8451 1144 964 1560 1198 1359 977 882 1570 1491 2383 1806 1462 804 1570 2215 1502 1346 1384 1044 2268 927 1363 1213 1777 2228 677 2092 1346 616 808 991 1051 2869 1171 1480 674 1051 2225 1654 730 1249 597 1000 655 905 1008 1316 1282 996 1026 942 2215 902 834 1676 1522 1403 758 1099 742 839 957 1101 1024 1726 1793 1268 1268 1089 738 1623 1581 1389 2717 536 1425 387 972 713 1837 1515 1514 858 1535 774 1776 848 1885 825 698 901 1426 1859 715 262 1238 533 275 1234 1616 1731 620 1863 374 1656 894 1851 779 1245 1242 657 1546 1718 645 1807 2371 1435 1862 714 1037 1200 789 1227 516 404 718 959 1653 1547 1161 2308 1146 458 1324 1232 1992 930 2213 2063 1725 983 1601 757 1500 1027 948 4405 1851 1723 1042 2068 1413 3010 698 2734 1213 1858 859 1127 2098 718 871 859 1063 2121 1128 1412 1363 1492 412 2463 1065 1055 1447 614 1796 1295 952 846 780 1070 1155 1435 987 4732 1572 1216 444 876 1431 2075 1678 1591 1838 1129 1514 818 828 698 2050 405 1007 654 1534 880 1373 1232 1240 1006 1239 9 1056 903 2366 1340 1767 170 1144 1131 1229 1618 697 1081 1149 1646 1918 1179 2680 420 717 1409 2041 826 938 893 1446 1070 844 1806 644 1537 969 2083 827 1619 1459 1601 1310 1586 963 1465 2953 1706 1130 1132 1229 1619 330 1410 890 936 124 1472 882 832 1847 1712 966 755 847 2466 1310 875 1536 1370 612 2235 1414 1139 843 1523 1123 1638 825 969 818 2298 1781 2164 958 941 1241 1419 1475 600 1586 1248 1460 1079 2071 883 1945 1911 472 1046 1051 1974 1071 651 1146 1213 1647 1485 1725 2816 1150 2131 1508 1375 955 1732 3009 1004 1446 1740 1227 3159 1901 903 1084 917 988 2400 1162 1355 1706 2228 1201 1578 798 1250 371 1894 1486 929 1832 1810 1078 887 716 758 850 1081 290 403 1022 2982 726 736 
To predecode: 0
Predecoding something: 0
Predecode request dropped: 0
sizeofblock_0 0
sizeofblock_1 302159
sizeofblock_2 570191
sizeofblock_3 0
sizeofblock_4 0
sizeofblock_5 0
sizeofblock_6 0
sizeofblock_7 0
sizeofblock_8 0
Variant_0 Correct: 1227398 Incorrect: 0 Accuracy: 1
Variant_1 Correct: 4985730 Incorrect: 0 Accuracy: 1
Variant_2 Correct: 0 Incorrect: 0 Accuracy: -nan
Variant_3 Correct: 0 Incorrect: 0 Accuracy: -nan
