
*** ChampSim Multicore Out-of-Order Simulator ***

Warmup Instructions: 50000000
Simulation Instructions: 50000000
Number of CPUs: 1
LLC sets: 2048
LLC ways: 16
Off-chip DRAM Size: 4096 MB Channels: 1 Width: 64-bit Data Rate: 6400 MT/s
CPU 0 runs ./micro_traces/srv115.trace.gz
.gz
ITLB has LRU replacement policy
DTLB has LRU replacement policy
STLB has LRU replacement policy
CPU 0 L1I next line prefetcher
L1I has LRU replacement policy
L1D has LRU replacement policy
Initialize SRRIP state for L2C
Initialize DRRIP state for LLC
Heartbeat CPU 0 instructions: 10000001 cycles: 2797415 heartbeat IPC: 3.57473 cumulative IPC: 3.57473 (Simulation time: 0 hr 1 min 44 sec) 
Heartbeat CPU 0 instructions: 20000003 cycles: 5595883 heartbeat IPC: 3.57338 cumulative IPC: 3.57406 (Simulation time: 0 hr 3 min 21 sec) 
Heartbeat CPU 0 instructions: 30000000 cycles: 8392075 heartbeat IPC: 3.57629 cumulative IPC: 3.5748 (Simulation time: 0 hr 4 min 58 sec) 
Heartbeat CPU 0 instructions: 40000000 cycles: 11188830 heartbeat IPC: 3.57557 cumulative IPC: 3.57499 (Simulation time: 0 hr 6 min 39 sec) 
Heartbeat CPU 0 instructions: 50000002 cycles: 13985311 heartbeat IPC: 3.57592 cumulative IPC: 3.57518 (Simulation time: 0 hr 8 min 17 sec) 

Warmup complete CPU 0 instructions: 50000002 cycles: 13985311 (Simulation time: 0 hr 8 min 17 sec) 

Cycle: 20000000 FTQ IN: 58412898 FTQ occupancy: 19.8453 DECODE IN: 58412882 DECODE occupancy: 53.0849 ROB IN: 58412880 ROB occupancy: 320.38 ROB OUT: 58412568
Heartbeat CPU 0 instructions: 60000000 cycles: 21137311 heartbeat IPC: 1.39821 cumulative IPC: 1.39821 (Simulation time: 0 hr 10 min 5 sec) 
Heartbeat CPU 0 instructions: 70000002 cycles: 28380774 heartbeat IPC: 1.38056 cumulative IPC: 1.38933 (Simulation time: 0 hr 11 min 54 sec) 
Cycle: 30000000 FTQ IN: 13855691 FTQ occupancy: 12.5256 DECODE IN: 13855568 DECODE occupancy: 36.8254 ROB IN: 13855510 ROB occupancy: 254.928 ROB OUT: 13855474
Heartbeat CPU 0 instructions: 80000002 cycles: 35503474 heartbeat IPC: 1.40396 cumulative IPC: 1.39417 (Simulation time: 0 hr 13 min 43 sec) 
Cycle: 40000000 FTQ IN: 14006272 FTQ occupancy: 12.3811 DECODE IN: 14006383 DECODE occupancy: 36.4961 ROB IN: 14006436 ROB occupancy: 254.896 ROB OUT: 14006750
Heartbeat CPU 0 instructions: 90000000 cycles: 42649876 heartbeat IPC: 1.39931 cumulative IPC: 1.39545 (Simulation time: 0 hr 15 min 17 sec) 
Heartbeat CPU 0 instructions: 100000002 cycles: 49869305 heartbeat IPC: 1.38515 cumulative IPC: 1.39338 (Simulation time: 0 hr 16 min 21 sec) 
Finished CPU 0 instructions: 50000000 cycles: 35883994 cumulative IPC: 1.39338 (Simulation time: 0 hr 16 min 21 sec) 

ChampSim completed all CPUs

Region of Interest Statistics

CPU 0 cumulative IPC: 1.39338 instructions: 50000000 cycles: 35883994
 Fetch stage stalled: 51.5705  Sim cycles: 35883994 fetch stall cycle: 18505563
 Empty decode stage: 28.5658  Sim cycles: 35883994 fetch stall cycle: 10250533
ITLB TOTAL     ACCESS:    7818114  HIT:    7219192  MISS:     598922  HIT %:    92.3393  MISS %:     7.6607   MPKI: 11.9784
ITLB LOAD TRANSLATION INSTRUCTION	ACCESS:    6077289  HIT:    5951405  MISS:     125884  HIT %:    97.9286  MISS %:    2.07138  MPKI: 2.51768
ITLB TRANSLATION FROM L1D PREFETCHER INSTRUCTION	ACCESS:    1740825  HIT:    1267787  MISS:     473038  HIT %:    72.8268  MISS %:    27.1732  MPKI: 9.46076

ITLB AVERAGE MISS LATENCY: 132372 cycles
ITLB RQ	ACCESS:   11673165	FORWARD:          0	MERGED:    3719870	TO_CACHE:    7953295

DTLB TOTAL     ACCESS:    8950952  HIT:    8480512  MISS:     470440  HIT %:    94.7442  MISS %:    5.25575   MPKI: 9.4088
DTLB LOAD TRANSLATION DATA	ACCESS:    8950952  HIT:    8480512  MISS:     470440  HIT %:    94.7442  MISS %:    5.25575  MPKI: 9.4088

DTLB AVERAGE MISS LATENCY: 9.34501 cycles
DTLB RQ	ACCESS:   13327258	FORWARD:          0	MERGED:    4339952	TO_CACHE:    8987306

STLB TOTAL     ACCESS:    1317151  HIT:    1315127  MISS:       2024  HIT %:    99.8463  MISS %:   0.153665   MPKI: 0.04048
STLB LOAD TRANSLATION INSTRUCTION	ACCESS:     123313  HIT:     123175  MISS:        138  HIT %:    99.8881  MISS %:    0.11191  MPKI: 0.00276
STLB TRANSLATION FROM L1D PREFETCHER INSTRUCTION	ACCESS:     475609  HIT:     475543  MISS:         66  HIT %:    99.9861  MISS %:  0.0138769  MPKI: 0.00132
STLB LOAD TRANSLATION DATA	ACCESS:     470440  HIT:     468639  MISS:       1801  HIT %:    99.6172  MISS %:   0.382833  MPKI: 0.03602
STLB TRANSLATION FROM L1D PREFETCHER DATA	ACCESS:     247789  HIT:     247770  MISS:         19  HIT %:    99.9923  MISS %: 0.00766781  MPKI: 0.00038

STLB AVERAGE MISS LATENCY: 76.0781 cycles
STLB RQ	ACCESS:    1441033	FORWARD:          0	MERGED:     120790	TO_CACHE:    1320243

STLB Hit, L1D data hit: 0
STLB Hit, L2C data hit: 0
STLB Hit, LLC data hit: 0
STLB Hit, LLC data miss: 0
STLB STLB hints to L2: 0
L1D TOTAL     ACCESS:   13061338  HIT:   11947132  MISS:    1114206  HIT %:    91.4694  MISS %:    8.53057   MPKI: 22.2841
L1D LOAD DATA	ACCESS:    6540320  HIT:    5805128  MISS:     735192  HIT %:    88.7591  MISS %:    11.2409  MPKI: 14.7038
L1D RFO DATA	ACCESS:    6195033  HIT:    5910437  MISS:     284596  HIT %:    95.4061  MISS %:    4.59394  MPKI: 5.69192
L1D PREFETCH DATA	ACCESS:     325985  HIT:     231567  MISS:      94418  HIT %:    71.0361  MISS %:    28.9639  MPKI: 1.88836

L1D PREFETCH  REQUESTED:     737615  ISSUED:     737615  USEFUL:      33345  USELESS:      70216
L1D USEFUL LOAD PREFETCHES:      33345 PREFETCH ISSUED TO LOWER LEVEL:     103642  ACCURACY: 32.1733
 TIMELY PREFETCHES:      33345 LATE PREFETCHES: 9138 DROPPED PREFETCHES: 4
L1D AVERAGE MISS LATENCY: 269913 cycles
L1D RQ	ACCESS:   10674139	FORWARD:          0	MERGED:    3932588	TO_CACHE:    6580172
L1D WQ	ACCESS:    6945943	FORWARD:     161764	MERGED:     198857	TO_CACHE:    6747086
L1D PQ	ACCESS:     369000	FORWARD:          0	MERGED:          0	TO_CACHE:     368615

L1D UNIQUE REGIONS ACCESSED: 0
L1D REGIONS CONFLICTS: 0
L1D Cross Page Prefetch Requests: 6464
L1D Same Page Prefetch Requests: 749149
L1D ROI Sum of L1D PQ occupancy: 4700425
L1D PREFETCHES PUSHED FROM L2C: 0
L1I TOTAL     ACCESS:   11220933  HIT:    7596113  MISS:    3624820  HIT %:    67.6959  MISS %:    32.3041   MPKI: 72.4964
L1I LOAD INSTRUCTION	ACCESS:    6759673  HIT:    6157690  MISS:     601983  HIT %:    91.0945  MISS %:     8.9055  MPKI: 12.0397
L1I PREFETCH INSTRUCTION	ACCESS:    4461260  HIT:    1438423  MISS:    3022837  HIT %:    32.2425  MISS %:    67.7575  MPKI: 60.4567

L1I PREFETCH  REQUESTED:    5146351  ISSUED:    5146267  USEFUL:    2361143  USELESS:     772069
L1I USEFUL LOAD PREFETCHES:    2361143 PREFETCH ISSUED TO LOWER LEVEL:    3133171  ACCURACY: 75.3595
 TIMELY PREFETCHES:    2361143 LATE PREFETCHES: 110331 DROPPED PREFETCHES: 9602
L1I AVERAGE MISS LATENCY: 958332 cycles
L1I RQ	ACCESS:    9506482	FORWARD:          0	MERGED:    2678467	TO_CACHE:    6828015
L1I PQ	ACCESS:    5146267	FORWARD:          0	MERGED:     301117	TO_CACHE:    4845150

L1BTB TOTAL     ACCESS:    5670922  HIT:    2040948  MISS:    3629974  HIT %:    35.9897  MISS %:    64.0103   MPKI: 72.5995
L1BTB BRANCH_DIRECT_JUMP	ACCESS:     548561  HIT:     144653  MISS:     403908	AVERAGE STALL: 49.7954
L1BTB BRANCH_INDIRECT	ACCESS:     183057  HIT:      66075  MISS:     116982	AVERAGE STALL: 98.4388
L1BTB BRANCH_CONDITIONAL	ACCESS:    2704623  HIT:    1411401  MISS:    1293222	AVERAGE STALL: 123.333
L1BTB BRANCH_DIRECT_CALL	ACCESS:     945272  HIT:     106289  MISS:     838983	AVERAGE STALL: 100.407
L1BTB BRANCH_INDIRECT_CALL	ACCESS:     172067  HIT:      21567  MISS:     150500	AVERAGE STALL: 129.537
L1BTB BRANCH_RETURN	ACCESS:    1117342  HIT:     290963  MISS:     826379	AVERAGE STALL: 40.3903
L1BTB BRANCH_OTHER ACCESS:          0  HIT:          0  MISS:          0	AVERAGE STALL: -nan
L1BTB TOTAL ROB OCCUPANCY AT BTB MISS: 2.09354

L2BTB TOTAL     ACCESS:    3604562  HIT:    3549889  MISS:      54673  HIT %:    98.4832  MISS %:    1.51677   MPKI: 1.09346
L2BTB BRANCH_DIRECT_JUMP	ACCESS:     399745  HIT:     397045  MISS:       2700	AVERAGE STALL: 49.7954
L2BTB BRANCH_INDIRECT	ACCESS:     106682  HIT:     104019  MISS:       2663	AVERAGE STALL: 98.4388
L2BTB BRANCH_CONDITIONAL	ACCESS:    1293222  HIT:    1293185  MISS:         37	AVERAGE STALL: 123.333
L2BTB BRANCH_DIRECT_CALL	ACCESS:     838983  HIT:     838953  MISS:         30	AVERAGE STALL: 100.407
L2BTB BRANCH_INDIRECT_CALL	ACCESS:     140954  HIT:     130907  MISS:      10047	AVERAGE STALL: 129.537
L2BTB BRANCH_RETURN	ACCESS:     824976  HIT:     785780  MISS:      39196	AVERAGE STALL: 40.3903
L2BTB BRANCH_OTHER ACCESS:          0  HIT:          0  MISS:          0	AVERAGE STALL: -nan
L2BTB TOTAL ROB OCCUPANCY AT BTB MISS: 138.999

L2C TOTAL     ACCESS:    6560251  HIT:    5571091  MISS:     989160  HIT %:    84.9219  MISS %:    15.0781   MPKI: 19.7832
L2C LOAD INSTRUCTION	ACCESS:     491653  HIT:     389486  MISS:     102167  HIT %:    79.2197  MISS %:    20.7803  MPKI: 2.04334
L2C PREFETCH INSTRUCTION	ACCESS:    3133170  HIT:    2746236  MISS:     386934  HIT %:    87.6504  MISS %:    12.3496  MPKI: 7.73868
L2C LOAD TRANSLATION INSTRUCTION	ACCESS:        152  HIT:         40  MISS:        112  HIT %:    26.3158  MISS %:    73.6842  MPKI: 0.00224
L2C TRANSLATION FROM L1D PREFETCHER INSTRUCTION	ACCESS:       3826  HIT:       3547  MISS:        279  HIT %:    92.7078  MISS %:    7.29221  MPKI: 0.00558
L2C LOAD DATA	ACCESS:     726022  HIT:     590007  MISS:     136015  HIT %:    81.2657  MISS %:    18.7343  MPKI: 2.7203
L2C RFO DATA	ACCESS:     284491  HIT:     203285  MISS:      81206  HIT %:    71.4557  MISS %:    28.5443  MPKI: 1.62412
L2C PREFETCH DATA	ACCESS:    1399394  HIT:    1155201  MISS:     244193  HIT %:    82.5501  MISS %:    17.4499  MPKI: 4.88386
L2C WRITEBACK DATA	ACCESS:     519643  HIT:     482867  MISS:      36776  HIT %:    92.9228  MISS %:    7.07717  MPKI: 0.73552
L2C LOAD TRANSLATION DATA	ACCESS:       1863  HIT:        401  MISS:       1462  HIT %:    21.5244  MISS %:    78.4756  MPKI: 0.02924
L2C TRANSLATION FROM L1D PREFETCHER DATA	ACCESS:         37  HIT:         21  MISS:         16  HIT %:    56.7568  MISS %:    43.2432  MPKI: 0.00032

L2C PREFETCH  REQUESTED:    3230624  ISSUED:    3230624  USEFUL:      32846  USELESS:     601073
L2C USEFUL LOAD PREFETCHES:      32846 PREFETCH ISSUED TO LOWER LEVEL:     632990  ACCURACY: 5.18902
 TIMELY PREFETCHES:      32846 LATE PREFETCHES: 1863 DROPPED PREFETCHES: 0
L2C AVERAGE MISS LATENCY: 33.4895 cycles
L2C RQ	ACCESS:    1508095	FORWARD:          0	MERGED:          0	TO_CACHE:    1508044
L2C WQ	ACCESS:     519643	FORWARD:         51	MERGED:          0	TO_CACHE:     519643
L2C PQ	ACCESS:    6467437	FORWARD:          0	MERGED:    1909906	TO_CACHE:    4557531

L2C Dense regions hint from L2: 0
PSCL5 TOTAL     ACCESS:      10176  HIT:       5088  MISS:       5088  HIT %:         50  MISS %:         50   MPKI: 0.10176
PSCL5 LOAD TRANSLATION INSTRUCTION	ACCESS:       3858  HIT:       1929  MISS:       1929  HIT %:         50  MISS %:         50  MPKI: 0.03858
PSCL5 TRANSLATION FROM L1D PREFETCHER INSTRUCTION	ACCESS:       6318  HIT:       3159  MISS:       3159  HIT %:         50  MISS %:         50  MPKI: 0.06318


PSCL4 TOTAL     ACCESS:       9174  HIT:       4583  MISS:       4591  HIT %:    49.9564  MISS %:    50.0436   MPKI: 0.09182
PSCL4 LOAD TRANSLATION INSTRUCTION	ACCESS:       2878  HIT:       1734  MISS:       1144  HIT %:    60.2502  MISS %:    39.7498  MPKI: 0.02288
PSCL4 TRANSLATION FROM L1D PREFETCHER INSTRUCTION	ACCESS:       4860  HIT:       2849  MISS:       2011  HIT %:    58.6214  MISS %:    41.3786  MPKI: 0.04022
PSCL4 LOAD TRANSLATION DATA	ACCESS:        598  HIT:          0  MISS:        598  HIT %:          0  MISS %:        100  MPKI: 0.01196
PSCL4 TRANSLATION FROM L1D PREFETCHER DATA	ACCESS:        838  HIT:          0  MISS:        838  HIT %:          0  MISS %:        100  MPKI: 0.01676


PSCL3 TOTAL     ACCESS:       9226  HIT:       4609  MISS:       4617  HIT %:    49.9566  MISS %:    50.0434   MPKI: 0.09234
PSCL3 LOAD TRANSLATION INSTRUCTION	ACCESS:       2904  HIT:       1760  MISS:       1144  HIT %:    60.6061  MISS %:    39.3939  MPKI: 0.02288
PSCL3 TRANSLATION FROM L1D PREFETCHER INSTRUCTION	ACCESS:       4860  HIT:       2849  MISS:       2011  HIT %:    58.6214  MISS %:    41.3786  MPKI: 0.04022
PSCL3 LOAD TRANSLATION DATA	ACCESS:        624  HIT:          0  MISS:        624  HIT %:          0  MISS %:        100  MPKI: 0.01248
PSCL3 TRANSLATION FROM L1D PREFETCHER DATA	ACCESS:        838  HIT:          0  MISS:        838  HIT %:          0  MISS %:        100  MPKI: 0.01676


PSCL2 TOTAL     ACCESS:       8783  HIT:       4351  MISS:       4432  HIT %:    49.5389  MISS %:    50.4611   MPKI: 0.08864
PSCL2 LOAD TRANSLATION INSTRUCTION	ACCESS:       2006  HIT:       1858  MISS:        148  HIT %:    92.6221  MISS %:    7.37787  MPKI: 0.00296
PSCL2 TRANSLATION FROM L1D PREFETCHER INSTRUCTION	ACCESS:       4949  HIT:       2493  MISS:       2456  HIT %:    50.3738  MISS %:    49.6262  MPKI: 0.04912
PSCL2 LOAD TRANSLATION DATA	ACCESS:       1791  HIT:          0  MISS:       1791  HIT %:          0  MISS %:        100  MPKI: 0.03582
PSCL2 TRANSLATION FROM L1D PREFETCHER DATA	ACCESS:         37  HIT:          0  MISS:         37  HIT %:          0  MISS %:        100  MPKI: 0.00074


LLC TOTAL     ACCESS:    1079245  HIT:    1050822  MISS:      28423  HIT %:    97.3664  MISS %:     2.6336   MPKI: 0.56846
LLC LOAD INSTRUCTION	ACCESS:     101270  HIT:     101045  MISS:        225  HIT %:    99.7778  MISS %:   0.222178  MPKI: 0.0045
LLC PREFETCH INSTRUCTION	ACCESS:     384063  HIT:     383557  MISS:        506  HIT %:    99.8683  MISS %:   0.131749  MPKI: 0.01012
LLC LOAD TRANSLATION INSTRUCTION	ACCESS:        112  HIT:         90  MISS:         22  HIT %:    80.3571  MISS %:    19.6429  MPKI: 0.00044
LLC TRANSLATION FROM L1D PREFETCHER INSTRUCTION	ACCESS:        279  HIT:        274  MISS:          5  HIT %:    98.2079  MISS %:    1.79211  MPKI: 0.0001
LLC LOAD DATA	ACCESS:     135088  HIT:     131344  MISS:       3744  HIT %:    97.2285  MISS %:    2.77153  MPKI: 0.07488
LLC RFO DATA	ACCESS:      81152  HIT:      67913  MISS:      13239  HIT %:    83.6862  MISS %:    16.3138  MPKI: 0.26478
LLC PREFETCH DATA	ACCESS:     248926  HIT:     238602  MISS:      10324  HIT %:    95.8526  MISS %:    4.14742  MPKI: 0.20648
LLC WRITEBACK DATA	ACCESS:     126877  HIT:     126616  MISS:        261  HIT %:    99.7943  MISS %:   0.205711  MPKI: 0.00522
LLC LOAD TRANSLATION DATA	ACCESS:       1462  HIT:       1366  MISS:         96  HIT %:    93.4337  MISS %:    6.56635  MPKI: 0.00192
LLC TRANSLATION FROM L1D PREFETCHER DATA	ACCESS:         16  HIT:         15  MISS:          1  HIT %:      93.75  MISS %:       6.25  MPKI: 2e-05

LLC AVERAGE MISS LATENCY: 159.157 cycles
LLC RQ	ACCESS:     319394	FORWARD:          0	MERGED:          0	TO_CACHE:     319379
LLC WQ	ACCESS:     126877	FORWARD:         16	MERGED:          0	TO_CACHE:     126877
LLC PQ	ACCESS:     632990	FORWARD:          0	MERGED:          0	TO_CACHE:     632989

LLC Dense regions hint to LLC: 0

RAW hits: 1959330
Loads Generated: 12633469
Loads sent to L1D: 10674139
Stores Generated: 6945939
Stores sent to L1D: 6945943
Major fault: 0 Minor fault: 2559
Allocated PAGES: 2559
I-Shadow cache 408 bytes
Touched + WorthPF tables 12288 bytes 
MMA filter 174 bytes 
FNL filter 272 bytes 
TOTAL PREFETCHER STORAGE SIZE: 31318 bytes
CPU 0 L1I next line prefetcher final stats

stream: 
stream:times selected: 1186293
stream:pref_filled: 119894
stream:pref_useful: 22455
stream:pref_late: 7593
stream:misses: 8331
stream:misses_by_poll: 0

CS: 
CS:times selected: 178663
CS:pref_filled: 54984
CS:pref_useful: 30336
CS:pref_late: 13736
CS:misses: 22756
CS:misses_by_poll: 3

CPLX: 
CPLX:times selected: 1006486
CPLX:pref_filled: 19306
CPLX:pref_useful: 4038
CPLX:pref_late: 3440
CPLX:misses: 94755
CPLX:misses_by_poll: 0

NL_L1: 
NL:times selected: 18980
NL:pref_filled: 562
NL:pref_useful: 211
NL:pref_late: 412
NL:misses: 1548
NL:misses_by_poll: 0

total selections: 2390422
total_filled: 94418
total_useful: 33345
total_late: 26771
total_polluted: 3
total_misses_after_warmup: 775045
conflicts: 5514913

test: 117850

DRAM Statistics
 CHANNEL 0
 RQ ROW_BUFFER_HIT:       9825  ROW_BUFFER_MISS:      18332
 DBUS_CONGESTED:         13
 WQ ROW_BUFFER_HIT:       1319  ROW_BUFFER_MISS:      12301  FULL:          0

 AVG_CONGESTED_CYCLE: 5

CPU 0 Branch Prediction Accuracy: 99.8238% MPKI: 0.3225 Average ROB Occupancy at Mispredict: 204.269
Branch types
NOT_BRANCH: 40850212 81.7004%
BRANCH_DIRECT_JUMP: 548561 1.09712%
BRANCH_INDIRECT: 183057 0.366114%
BRANCH_CONDITIONAL: 6183319 12.3666%
BRANCH_DIRECT_CALL: 945272 1.89054%
BRANCH_INDIRECT_CALL: 172067 0.344134%
BRANCH_RETURN: 1117342 2.23468%
BRANCH_OTHER: 0 0%

DRAM PAGES: 1048576
Allocated PAGES: 2559
Average_ROB_Occupancy: 256.595
Average_Decode_Occupancy: 36.7266
Average_FTQ_Occupancy: 12.4756
Indirect max targets: 14 Average targets: 1.15282
Branch_type:  BRANCH_DIRECT_JUMP:  Count Percentage: 5.30489 5.78691 3.60887 3.01026 2.76597 11.1281 6.9718 61.4232 
Branch_type:  BRANCH_INDIRECT:  Count Percentage: 16.3954 0.802992 10.6146 0 1.33604 18.1377 2.13658 50.5768 
Branch_type:  BRANCH_CONDITIONAL:  Count Percentage: 26.4922 2.48251 1.71658 5.80977 1.20284 7.52772 2.93103 51.8374 
Branch_type:  BRANCH_DIRECT_CALL:  Count Percentage: 0.884895 1.26771 0.428698 2.31331 2.25423 3.4805 2.50786 86.8628 
Branch_type:  BRANCH_INDIRECT_CALL:  Count Percentage: 9.5499 0 2.99351 0.00174923 0.000583075 2.37428 0.99735 84.0826 
Branch_type:  BRANCH_RETURN:  Count Percentage: 9.96526 1.41949 1.35701 4.59337 1.75358 8.90504 3.15855 68.8477 
Branch_type:  BRANCH_DIRECT_JUMP:  Total Count: 58153 63437 39561 32999 30321 121988 76426 673331 
Branch_type:  BRANCH_INDIRECT:  Total Count: 60008 2939 38850 0 4890 66385 7820 185114 
Branch_type:  BRANCH_CONDITIONAL:  Total Count: 3274443 306839 212170 718090 148671 930429 362276 6407125 
Branch_type:  BRANCH_DIRECT_CALL:  Total Count: 16701 23926 8091 43660 42545 65689 47332 1639399 
Branch_type:  BRANCH_INDIRECT_CALL:  Total Count: 32757 0 10268 6 2 8144 3421 288411 
Branch_type:  BRANCH_RETURN:  Total Count: 222340 31671 30277 102485 39125 198685 70472 1536097 
Number of unique branch instructions: 9958
Upper 32 bits: 
aaaa
ffff
ffff0000
Unique upper 32 bits: 3
Unique upper 36 bits: 3
Unique upper 40 bits: 5
Unique upper 44 bits: 32
Unique upper 48 bits: 156
Offset_3 4093
Offset_4 255
Offset_5 462
Offset_6 508
Offset_7 575
Offset_8 514
Offset_9 475
Offset_10 382
Offset_11 305
Offset_12 275
Offset_13 206
Offset_14 227
Offset_15 190
Offset_16 219
Offset_17 151
Offset_18 118
Offset_19 237
Offset_20 140
Offset_21 265
Offset_22 391
Offset_23 241
Offset_24 338
Offset_25 88
Offset_47 84
Offset_64 1
decode_dispatch_called: 27567593 76.8242
Dispatch_width: 0 15073834 54.6795 42.0071
Dispatch_width: 1 1104110 4.0051 3.07689
Dispatch_width: 2 979058 3.55148 2.7284
Dispatch_width: 3 608073 2.20575 1.69455
Dispatch_width: 4 6764633 24.5384 18.8514
Dispatch_width: 5 172427 0.62547 0.480512
Dispatch_width: 6 2865458 10.3943 7.98534
Empty_decode_cycles: 8316401 23.1758
ROB_full_cycles: 10695421 29.8055
Starvation_cycles_per_kilo_instr: 223.231
Starvation_cycles_per_kilo_instr_3: 153.861
Starvation_cycles_per_kilo_instr_0: 126.948
Branch_type_1  (3,1)  (4,8)  (5,38)  (6,72)  (7,112)  (8,132)  (9,128)  (10,99)  (11,67)  (12,43)  (13,8)  (14,2)  (15,3)  (16,4)  (18,1)  (19,4)  (20,2)  (21,1)  (22,3)  (23,2)  (24,10)  (25,12) 
Branch_type_2  (3,1)  (5,1)  (8,3)  (9,3)  (12,1)  (13,1)  (14,1)  (16,3)  (17,2)  (20,2)  (21,2)  (23,5)  (24,1)  (47,38) 
Branch_type_3  (3,4091)  (4,247)  (5,419)  (6,421)  (7,431)  (8,319)  (9,261)  (10,152)  (11,120)  (12,50)  (13,7) 
Branch_type_4  (6,3)  (7,8)  (8,26)  (9,51)  (10,61)  (11,61)  (12,97)  (13,87)  (14,100)  (15,89)  (16,98)  (17,68)  (18,53)  (19,114)  (20,71)  (21,144)  (22,208)  (23,136)  (24,190)  (25,72) 
Branch_type_5  (8,2)  (9,1)  (10,4)  (11,5)  (12,3)  (13,14)  (14,16)  (15,11)  (16,20)  (17,11)  (18,16)  (19,13)  (20,12)  (21,13)  (22,42)  (23,26)  (24,40) 
Branch_type_6  (5,4)  (6,12)  (7,24)  (8,32)  (9,31)  (10,66)  (11,52)  (12,81)  (13,89)  (14,108)  (15,87)  (16,94)  (17,70)  (18,48)  (19,106)  (20,53)  (21,105)  (22,138)  (23,72)  (24,97)  (25,4)  (47,46)  (64,1) 
Unique trigger count: 
BTB PER SET UNIQUE ADDR: 3 3 3 4 2 3 3 2 2 5 4 3 4 5 5 3 3 4 2 2 3 4 4 4 3 3 2 4 2 4 3 3 2 4 4 2 3 3 5 3 3 4 4 4 1 2 3 3 6 4 6 3 3 2 3 3 4 2 4 5 3 3 2 2 4 1 3 4 4 3 2 4 4 3 3 3 5 2 4 5 3 5 4 4 3 3 2 4 4 2 3 5 4 3 4 4 4 4 4 4 3 3 3 3 5 4 4 3 2 3 5 2 3 2 3 3 3 3 3 5 3 5 4 3 5 4 3 4 5 3 4 3 3 3 4 4 2 2 2 7 3 3 3 5 3 3 5 4 4 3 4 2 3 5 3 4 5 3 5 3 4 2 2 3 2 2 1 3 3 3 4 4 5 4 4 5 2 3 3 2 3 2 3 4 3 3 4 4 4 4 3 4 4 3 2 3 3 3 3 2 4 2 4 4 1 4 2 2 3 3 4 3 4 3 3 5 4 4 3 3 4 3 5 2 3 3 3 2 3 4 2 6 3 2 3 4 3 5 4 3 3 5 4 3 4 4 3 3 4 3 1 3 3 3 3 5 3 4 3 5 4 4 4 4 3 4 3 5 3 3 3 2 4 3 6 3 6 4 4 4 4 2 4 5 3 4 4 4 4 5 3 5 4 2 3 4 4 2 3 4 4 2 3 3 3 3 4 4 4 3 3 5 4 3 3 3 5 3 2 2 4 5 3 2 4 5 2 4 3 3 2 4 3 5 2 3 3 3 4 3 4 6 3 2 4 3 2 2 4 4 4 4 4 3 3 6 4 3 3 3 3 4 4 3 2 5 4 3 3 2 3 5 4 3 3 4 4 4 5 3 3 4 3 3 4 4 3 3 4 2 4 3 3 5 2 4 2 4 2 3 5 4 3 3 3 4 3 3 7 4 4 2 2 5 4 3 3 3 4 2 3 3 2 4 3 3 3 2 1 3 4 2 3 4 4 4 3 3 3 3 4 3 2 4 3 1 4 3 4 4 4 1 4 4 4 4 3 3 3 3 3 3 3 4 3 4 3 5 4 4 3 5 4 4 3 4 3 3 5 4 4 3 4 3 2 4 2 4 3 4 4 4 3 3 4 5 2 3 4 2 3 3 2 3 4 4 2 5 3 4 4 3 3 3 2 4 4 2 3 5 4 4 4 3 4 5 1 5 3 5 2 4 4 4 3 4 2 2 3 2 4 4 4 4 3 3 3 4 3 2 3 5 3 4 3 3 5 2 5 2 3 3 3 4 3 2 4 5 2 3 4 3 1 3 4 4 3 3 4 3 2 3 3 3 4 3 3 3 3 3 3 3 3 3 3 5 3 4 4 3 2 3 4 2 3 3 4 2 2 3 4 3 3 4 3 3 4 3 5 4 4 1 4 4 4 3 1 5 4 4 2 4 3 4 2 1 3 4 5 3 3 5 1 3 4 3 3 3 3 2 4 5 3 4 3 5 2 4 3 3 3 3 4 5 3 4 3 2 3 4 4 3 2 3 2 2 4 3 4 3 4 4 3 4 4 4 2 3 3 4 3 4 6 3 3 3 3 3 3 4 2 2 3 2 4 5 2 3 3 3 4 3 3 4 3 4 4 3 3 3 4 5 3 5 4 2 5 5 1 4 3 4 5 3 3 4 5 3 5 4 3 3 5 4 2 3 4 3 3 4 4 4 3 3 2 4 3 4 3 2 3 2 3 4 3 3 3 3 2 4 3 3 3 4 4 4 4 4 3 5 5 3 4 4 5 3 4 3 3 4 3 4 4 3 2 4 3 2 5 2 4 2 3 3 4 3 3 3 2 4 3 3 2 3 2 3 3 2 4 4 4 4 5 4 4 2 3 2 4 3 4 3 3 3 4 5 4 4 3 4 2 3 4 3 3 5 3 4 3 4 3 3 4 4 4 2 4 2 3 5 2 3 5 3 5 3 4 3 4 5 3 2 4 3 3 4 5 3 3 3 3 3 3 3 3 4 4 3 2 1 4 3 2 4 2 3 3 3 3 3 3 3 4 3 2 2 6 4 3 3 3 2 4 3 4 4 4 2 4 4 3 2 5 4 3 4 3 4 4 4 3 5 3 4 3 3 4 5 2 3 3 4 3 6 3 3 3 3 5 4 4 3 3 4 3 3 2 3 3 2 4 4 4 3 4 2 4 3 2 4 3 3 1 4 4 3 2 3 3 4 3 3 3 4 3 3 4 3 7 4 3 2 4 4 4 4 2 3 3 3 4 3 3 3 4 4 4 3 3 3 4 3 3 4 3 4 3 3 3 4 2 3 4 3 4 4 2 4 4 1 3 4 3 2 4 4 3 3 3 3 5 3 4 5 4 4 4 4 3 3 4 2 5 4 2 3 4 3 3 3 4 3 4 2 3 3 3 4 3 3 3 3 4 3 3 4 3 3 5 3 4 3 4 2 3 3 4 3 2 4 4 4 4 4 3 2 5 4 3 2 4 3 4 4 3 3 3 3 3 2 2 3 3 2 4 3 5 5 3 4 3 3 2 2 4 3 3 3 3 3 3 3 4 3 2 3 3 2 3 4 5 3 4 2 2 3 3 3 5 4 3 3 2 3 4 2 3 3 5 4 3 4 4 2 2 2 3 4 3 3 3 2 5 3 1 3 4 3 4 5 2 3 4 3 3 5 5 2 3 3 4 2 3 2 3 3 5 3 4 1 3 3 1 3 3 2 4 3 4 2 4 4 4 3 3 5 4 3 3 5 7 2 3 4 2 4 3 3 3 2 4 2 2 2 3 4 5 4 4 3 3 4 5 3 2 4 4 2 5 4 2 4 3 3 4 1 1 4 2 3 4 4 6 6 3 3 4 3 2 3 3 4 2 2 3 5 4 3 4 3 5 4 4 2 3 5 3 4 4 3 4 4 5 3 5 3 4 4 3 4 3 2 3 3 4 4 4 3 5 6 3 4 4 2 2 3 4 3 4 6 4 3 4 4 6 3 4 3 3 4 3 3 4 2 3 5 2 4 2 4 3 2 3 4 5 4 2 4 6 3 4 3 3 4 4 3 3 2 5 4 3 4 4 3 4 4 4 4 6 3 3 4 1 4 4 3 4 4 3 3 4 3 4 4 4 3 3 3 4 2 3 4 3 2 1 3 4 4 2 2 4 4 5 2 3 5 5 3 4 4 2 3 5 3 4 3 2 4 2 4 2 2 4 5 5 2 3 4 4 4 2 3 3 3 5 3 3 2 3 3 3 3 3 3 5 4 4 3 2 3 3 3 2 3 4 3 2 3 4 4 3 3 3 3 4 4 3 2 2 5 5 2 3 3 4 3 3 3 3 6 4 5 3 4 4 3 4 3 5 4 3 4 2 2 4 4 3 3 4 4 4 5 2 3 4 2 4 4 3 4 4 4 5 2 3 3 5 5 4 3 3 2 3 3 3 1 4 2 3 6 4 3 4 3 3 4 4 2 3 4 3 2 3 3 3 3 3 4 4 1 3 3 3 4 3 3 3 5 3 4 4 6 2 3 2 2 2 4 5 4 4 4 4 3 2 3 4 3 3 3 3 1 3 4 3 4 4 3 3 3 3 4 4 3 3 2 3 2 3 4 4 5 2 4 4 3 3 4 3 2 4 4 4 4 5 4 5 4 3 4 3 4 3 3 3 4 3 3 3 4 4 5 3 3 3 4 4 2 4 4 2 3 4 3 4 3 3 2 2 3 5 4 3 2 3 3 5 4 3 4 4 2 4 4 3 5 2 5 4 3 4 3 3 2 3 4 2 3 5 3 4 4 4 4 2 2 4 5 3 5 2 3 4 2 2 3 3 4 3 3 2 3 4 2 3 6 4 4 4 4 3 3 3 3 3 5 3 3 3 4 4 2 5 2 3 5 6 4 2 1 4 3 4 3 4 4 3 3 5 5 5 5 5 5 2 5 4 4 4 4 4 2 3 3 4 4 2 2 3 4 3 3 3 3 4 3 4 4 2 2 4 4 3 5 2 5 3 4 3 3 3 4 3 5 3 3 4 3 3 2 2 4 3 3 3 3 4 5 3 4 5 3 5 3 2 3 4 3 3 3 3 4 4 3 3 4 5 4 3 3 3 5 4 2 3 3 3 4 3 2 4 4 3 1 5 3 2 6 4 4 4 3 4 4 3 2 2 4 2 3 3 3 4 3 4 4 4 2 3 4 2 4 4 4 1 2 2 4 5 2 3 3 4 3 3 4 4 4 3 6 1 3 3 3 3 5 3 3 3 3 2 4 2 3 3 4 4 3 4 4 2 2 3 4 3 4 2 1 3 3 4 4 4 3 3 3 3 4 3 4 4 2 3 3 2 4 3 4 3 3 2 2 3 3 4 4 5 4 3 2 3 3 3 3 4 2 5 1 4 4 3 4 2 3 4 3 4 2 2 5 4 4 4 3 3 4 4 5 3 2 3 3 4 5 5 2 4 3 1 5 2 2 4 3 4 3 3 2 3 3 3 3 4 4 3 3 3 5 2 3 4 3 4 4 3 4 3 1 4 4 1 4 6 4 3 3 3 2 4 2 4 5 3 3 4 4 4 4 3 3 3 3 4 4 3 4 4 5 3 3 3 2 3 3 2 3 5 3 
BTB PER SET COUNT: 4 1470 1471 4 3 3 3 2 2 497 34 3 4 984 6 3 3 4 2 2 3 4 4 4 494 4 2 4 2 489 3 3 2 5 494 2 3 3 6 3 3 4 4 4 1 2 3 3 7 4 6 3 3 2 3 3 494 982 4 5 978 4 2 2 4 1 4 5 4 3 2 4 5 3 3 170 5 2 10 5 3 6 6 4 3 3 2 4 494 2 144 5 5 3 4 4 4 4 4 4 4 3 3 3 5 5 5 3 2 4 5 2 3 2 6 3 3 3 3 1471 6 5 983 3 5 4 3 4 417 3 4 4 4 3 4 4 2 2 2 9 3 3 3 5 3 3 5 4 5 9 4 487 3 5 3 981 5 3 5 3 6 2 2 3 2 2 1 3 3 3 5 6 104 4 4 5 2 3 3 2 3 2 4 5 3 3 4 4 4 4 3 4 4 3 2 3 3 3 1469 2 5 1469 5 4 1 4 2 2 3 3 9 5 4 3 3 5 4 494 3 3 4 3 5 3 3 3 3 3 645 4 289 12 3 2 3 4 3 10 4 3 3 5 5 3 4 4 7835 68 4 3 1 3 4 3 3 7 4 5 3 6 4 4 4 4 3 4 4 6 3 4 3 2 5 3 6 3 7 5 6 4 4 2 4 9 3 4 4 4 4 5 3 5 5 2 3 4 4 2 4 4 4 2 1471 3 4 3 4 4 4 4 3 5 4 3 3 3 5 3 2 2 4 5 3 2 4 5 2 6 3 3 2 4 4 5 2 3 3 3 4 3 4 6 3 2 4 3 2 2 4 4 4 5 4 3 3 178 4 3 3 13 3 5 4 3 2 2449 4 3 978 2 3 5 1470 3 3 4 4 4 6 3 5 4 1242 3 4 4 5 4 4 2 4 3 3 6 2 5 1344 4 2 4 5 5 3 3 3 4 3 3 8 5 4 2 2 5 4 4 3 3 4 2 3 3 2 4 3 3 3 3 1 3 4 2 3 4 4 4 3 4 3 3 4 3 2 4 400 1 1471 32 4 5 4 982 4 4 4 4 3 3 983 3 984 3 3 4 6 4 5 7 979 4 3 522 4 5 978 4 3 3 5 4 4 3 4 3 2 4 2 4 87 4 979 4 4 3 4 980 2 5 4 2 3 3 2 3 4 5 2 5 3 4 4 5 984 1964 2 4 4 494 3 7 4 4 4 3 4 6 1 199 3 5 1469 4 4 8 3 4 2 2 3 2 4 5 5 4 3 1469 3 4 3 2 3 5 984 4 3 3 495 2 41 2 984 3 3 5 3 2 985 9 983 3 4 3 1 3 4 4 3 3 4 3 2 3 3 3 9 3 3 3 3 5 3 3 3 985 983 5 3 4 4 3 2 3 985 2 8 3 985 2 2 3 4 3 978 4 3 3 4 3 14676 4 4 1 4 4 4 3 1 6 4 4 983 4 3 4 2 1 3 4 5 3 3 5 1 3 5 4 3 3 3 2 4 982 3 6 3 5 2 4 3 3 3 3 4 6 3 4 3 2 3 4 4 3 2 2936 2 2 4 4 4 3 4 4 3 4 4 4 2 1469 3 4 3 4 6 3 3 3 4 3 3 4 3 2 3 2 6 5 2 3 3 3 4 3 3 4 3 985 4 4 3 4 4 5 3 5 4 2 5 5 1 4 3 5 5 3 3 5 5 3 5 5 3 3 7 4 2 3 4 3 3 4 4 6 3 3 2 4 3 5 217 2 7 3 3 4 3 3 3 494 2 5 3 3 3 4 6 4 4 4 3 7 5 3 4 4 9 3 4 3 3 4 3 4 4 4 2 980 4 2 5 2 4 2 3 4 4 3 3 3 2 4 3 3 2 3 2 3 3 2 4 4 4 4 7 4 4 2 3 2 4 502 4 3 3 3 4 5 4 4 3 4 2 3 4 3 3 6 3 4 4 979 3 3 4 6 4 2 4 2 3 5 3 3 5 3 5 3 4 3 4 5 3 2 4 3 3 4 7 3 3 3 3 3 3 3 4 5 4 3 2 1 1470 3 2 4 2 5 369 3 3 3 3 3 4 984 2 2 7 4 3 3 3 2 4 3 4 98 4 2 5 4 493 977 6 4 3 5 1469 4 5 4 3 6 3 5 3 3 4 5 2 3 3 4 3 6 3 3 3 3 7 4 4 3 3 4 494 4 2 3 1964 2 4 5 4 4 5 2 494 3 2 9 3 3 1 6 5 3 2 3 3 4 3 3 3 5 3 5 4 42 7 4 4 2 4 6 4 4 2 3 3 3 4 3 3 3 4 4 5 3 3 3 4 3 4 4 3 6 5 3 3 4 2 3 4 3 4 4 2 5 4 1 3 4 3 3 4 4 3 3 3 3 10 493 5 5 4 4 495 4 3 3 4 2 5 5 2 3 4 230 1469 3 4 3 4 2 3 3 3 4 4 3 3 3 4 3 145 4 9 4 5 3 4 3 5 2 3 3 7 72 2 4 4 4 5 6 3 2 14 4 3 2 4 3 6 4 369 227 51 3 3 2 2 3 3 2 4 3 5 18 3 4 240 3 2 2 4 3 3 4 3 3 3 3 4 3 2 3 3 2 3 4 6 20540 4 2 2 4 3 4 5 6 3 3 2 3 4 2 3 3 5 4 3 4 5 2 2 2 3 4 3 3 493 2 6 4 1 3 4 3 4 5 2 3 4 3 263 5 5 2 4 3 4 2 3 2 1968 3 5 3 4 2 3 3 1 4 3 2 5 3 4 368 1470 4 5 1469 3 6 4 3 4 5 401 2 3 5 2 4 3 3 3 2 4 2 2 2 3 4 5 4 4 3 5 10 5 3 2 4 1470 2 6 5 2 4 3 394 4 1 1 5 2 3 5 4 6 6 4 3 4 3 2 3 3 4 2 2 3 5 6 3 5 3 5 133 4 2 3 5 5 4 4 3 4 4 5 4 5 3 4 4 3 4 5 2 4 3 4 8 4 3 5 6 4 5 5 2 2 3 6 3 4 10 5 3 4 4 7 3 4 230 3 7 3 3 4 5 3 5 2 4 2 370 3 2 3 5 5 5 2 4 58 4 2940 3 3 370 976 3 3 2 7 4 3 4 4 3 5 4 4 4 7 3 3 5 1 4 4 978 4 4 3 494 5 3 5 4 4 3 3 3 5 2 5 5 5 2 1 3 4 4 2 2 4 4 6 2 3 5 6 4 4 4 2 3 6 3 1466 3 2 4 2 4 2 2 4 5 980 5 3 4 4 1956 2 3 3 1955 5 3 4 2 3 3 3 4 3 3 6 4 5 3 2 4 3 3 3 3 4 3 2 3 4 4 5 3 3 3 4 4 3 2 2 5 6 2 3 3 4 3 3 3 12 7 4 6 3 5 4 3 4 3 5 5 3 4 2 3 4 4 3 3 4 4 249 5 2 3 4 2 4 4 3 6 4 4 5 2 3 495 6 5 4 3 3 2 3 3 3 1 4 2 978 7 4 3 4 3 3 4 4 2 6 4 3 2 3 4 3 4 4 4 4 1 3 4 3 6 3 3 3 5 3 4 4 8 2 3 2 2 2 494 5 4 4 4 5 3 2 3 4 3 3 1469 3 1 57 4 14 4 5 3 3 3 3 4 5 3 3 2 3 2 3 5 4 5 2 4 4 3 4 4 3 2 203 4 5 4 5 4 6 4 984 4 3 4 3 4 3 7 3 3 3 4 4 5 3 3 3 4 4 2 5 5 3 3 4 7 4 3 3 2 2 3 6 4 3 2 9 3 5 4 3 4 4 2 4 4 3 5 2 5 4 3 4 4 4 2 3 4 2 4 5 3 4 7 4 4 2 2 4 5 232 5 2 3 4 2 2 3 3 4 4 3 2 3 4 2 3 6 154 4 4 4 4 3 3 3 5 5 4 3 4 4 4 2 6 2 3 5 8 6 2 981 4 3 10 3 4 4 3 3 5 5 5 7 6 5 2 5 102 4 4 6 6 2 3 3 4 4 3 2 3 6 3 975 3 3 4 3 4 4 2 2 6 4 3 5 2 5 3 4 3 493 3 4 3 6 3 3 160 3 3 2 2 4 3 3 4 3 4 6 3 4 5 3 981 3 2 3 4 3 3 3 3 4 4 3 5 4 5 93 3 3 3 5 4 977 3 3 3 4 3 2 494 4 3 590 6 3 2 6 4 110 6 3 4 4 4 1468 2 4 2 3 3 978 4 3 6 4 4 3 3 5 2 4 4 4 1 2 2 6 10 9 3 3 6 3 3 5 4 979 3 6 2 3 3 3 3 5 3 3 3 3 2 4 2 3 6 146 4 3 1470 4 2 2 3 4 3 4 2 1 3 3 4 4 1471 3 3 3 3 4 3 4 4 2 3 3 2 4 3 509 3 3 2 2 3 3 4 4 6 4 3 2 3 3 3 29 4 2 6 1 4 4 3 4 2 29 4 3 4 2 2 5 458 4 4 3 3 4 4 5 3 2 3 24 4 5 3924 2 4 3 491 5 2 2 4 7 4 3 3 2 3 3 3 3 5 4 3 3 4 5 2 4 4 3 4 4 4 4 1345 1 4 4 1 4 7 4 3 3 3 2 4 1468 5 9 3 1469 4 4 4 4 3 3 3 3 5 4 3 6 4 5 3 3 4 2 3 3 2 3 5 756 
