
*** ChampSim Multicore Out-of-Order Simulator ***

Warmup Instructions: 50000000
Simulation Instructions: 50000000
Number of CPUs: 1
LLC sets: 2048
LLC ways: 16
Off-chip DRAM Size: 4096 MB Channels: 1 Width: 64-bit Data Rate: 6400 MT/s
CPU 0 runs ./micro_traces/srv15.trace.gz
.gz
ITLB has LRU replacement policy
DTLB has LRU replacement policy
STLB has LRU replacement policy
L1I has LRU replacement policy
L1D has LRU replacement policy
Initialize SRRIP state for L2C
Initialize DRRIP state for LLC
Heartbeat_Variant_0 : 1377 0.336182 per_variant_size: 0 1377 0 0 0 0 0 0 0 
Heartbeat_Variant_1 : 1282 0.312988 per_variant_size: 0 605 677 0 0 0 0 0 0 
Heartbeat_Variant_2 : 1340 0.327148 per_variant_size: 0 515 380 234 211 0 0 0 0 
Heartbeat_Variant_3 : 0 0 per_variant_size: 0 0 0 0 0 0 0 0 0 
Heartbeat_Variant_0_evicts 0 : 6012 1 : 502 2 : 450 3 : 0 
Heartbeat_Variant_1_evicts 0 : 491 1 : 0 2 : 685 3 : 0 
Heartbeat_Variant_2_evicts 0 : 441 1 : 672 2 : 0 3 : 0 
Heartbeat_Variant_3_evicts 0 : 0 1 : 0 2 : 0 3 : 0 
Heartbeat CPU 0 instructions: 10000002 cycles: 2797297 heartbeat IPC: 3.57488 cumulative IPC: 3.57488 (Simulation time: 0 hr 1 min 15 sec) 
Heartbeat_Variant_0 : 1377 0.336182 per_variant_size: 0 1377 0 0 0 0 0 0 0 
Heartbeat_Variant_1 : 1291 0.315186 per_variant_size: 0 616 675 0 0 0 0 0 0 
Heartbeat_Variant_2 : 1337 0.326416 per_variant_size: 0 505 383 232 217 0 0 0 0 
Heartbeat_Variant_3 : 0 0 per_variant_size: 0 0 0 0 0 0 0 0 0 
Heartbeat_Variant_0_evicts 0 : 5511 1 : 17 2 : 16 3 : 0 
Heartbeat_Variant_1_evicts 0 : 19 1 : 0 2 : 210 3 : 0 
Heartbeat_Variant_2_evicts 0 : 17 1 : 205 2 : 0 3 : 0 
Heartbeat_Variant_3_evicts 0 : 0 1 : 0 2 : 0 3 : 0 
Heartbeat CPU 0 instructions: 20000000 cycles: 5594315 heartbeat IPC: 3.57524 cumulative IPC: 3.57506 (Simulation time: 0 hr 2 min 36 sec) 
Heartbeat_Variant_0 : 1394 0.340332 per_variant_size: 0 1394 0 0 0 0 0 0 0 
Heartbeat_Variant_1 : 1286 0.313965 per_variant_size: 0 574 712 0 0 0 0 0 0 
Heartbeat_Variant_2 : 1353 0.330322 per_variant_size: 0 489 401 247 216 0 0 0 0 
Heartbeat_Variant_3 : 0 0 per_variant_size: 0 0 0 0 0 0 0 0 0 
Heartbeat_Variant_0_evicts 0 : 5773 1 : 248 2 : 211 3 : 0 
Heartbeat_Variant_1_evicts 0 : 244 1 : 0 2 : 375 3 : 0 
Heartbeat_Variant_2_evicts 0 : 205 1 : 384 2 : 0 3 : 0 
Heartbeat_Variant_3_evicts 0 : 0 1 : 0 2 : 0 3 : 0 
Heartbeat CPU 0 instructions: 30000003 cycles: 8391311 heartbeat IPC: 3.57527 cumulative IPC: 3.57513 (Simulation time: 0 hr 3 min 56 sec) 
Heartbeat_Variant_0 : 1395 0.340576 per_variant_size: 0 1395 0 0 0 0 0 0 0 
Heartbeat_Variant_1 : 1284 0.313477 per_variant_size: 0 568 716 0 0 0 0 0 0 
Heartbeat_Variant_2 : 1360 0.332031 per_variant_size: 0 505 388 250 217 0 0 0 0 
Heartbeat_Variant_3 : 0 0 per_variant_size: 0 0 0 0 0 0 0 0 0 
Heartbeat_Variant_0_evicts 0 : 5525 1 : 36 2 : 41 3 : 0 
Heartbeat_Variant_1_evicts 0 : 34 1 : 0 2 : 238 3 : 0 
Heartbeat_Variant_2_evicts 0 : 44 1 : 240 2 : 0 3 : 0 
Heartbeat_Variant_3_evicts 0 : 0 1 : 0 2 : 0 3 : 0 
Heartbeat CPU 0 instructions: 40000002 cycles: 11187206 heartbeat IPC: 3.57667 cumulative IPC: 3.57551 (Simulation time: 0 hr 5 min 7 sec) 
Heartbeat_Variant_0 : 1403 0.342529 per_variant_size: 0 1403 0 0 0 0 0 0 0 
Heartbeat_Variant_1 : 1277 0.311768 per_variant_size: 0 549 728 0 0 0 0 0 0 
Heartbeat_Variant_2 : 1362 0.33252 per_variant_size: 0 506 387 242 227 0 0 0 0 
Heartbeat_Variant_3 : 0 0 per_variant_size: 0 0 0 0 0 0 0 0 0 
Heartbeat_Variant_0_evicts 0 : 5851 1 : 151 2 : 126 3 : 0 
Heartbeat_Variant_1_evicts 0 : 140 1 : 0 2 : 321 3 : 0 
Heartbeat_Variant_2_evicts 0 : 129 1 : 318 2 : 0 3 : 0 
Heartbeat_Variant_3_evicts 0 : 0 1 : 0 2 : 0 3 : 0 
Heartbeat CPU 0 instructions: 50000000 cycles: 13983990 heartbeat IPC: 3.57553 cumulative IPC: 3.57552 (Simulation time: 0 hr 6 min 24 sec) 

Warmup complete CPU 0 instructions: 50000004 cycles: 13983991 (Simulation time: 0 hr 6 min 24 sec) 

Cycle: 20000000 FTQ IN: 55067967 FTQ occupancy: 15.5751 DECODE IN: 55067961 DECODE occupancy: 9.4261 ROB IN: 55067961 ROB occupancy: 257.502 ROB OUT: 55067889
Heartbeat_Variant_0 : 1402 0.342285 per_variant_size: 0 1402 0 0 0 0 0 0 0 
Heartbeat_Variant_1 : 1278 0.312012 per_variant_size: 0 550 728 0 0 0 0 0 0 
Heartbeat_Variant_2 : 1362 0.33252 per_variant_size: 0 507 384 247 224 0 0 0 0 
Heartbeat_Variant_3 : 0 0 per_variant_size: 0 0 0 0 0 0 0 0 0 
Heartbeat_Variant_0_evicts 0 : 5523 1 : 10 2 : 8 3 : 0 
Heartbeat_Variant_1_evicts 0 : 13 1 : 0 2 : 198 3 : 0 
Heartbeat_Variant_2_evicts 0 : 6 1 : 200 2 : 0 3 : 0 
Heartbeat_Variant_3_evicts 0 : 0 1 : 0 2 : 0 3 : 0 
Heartbeat CPU 0 instructions: 60000002 cycles: 25829009 heartbeat IPC: 0.844237 cumulative IPC: 0.844237 (Simulation time: 0 hr 7 min 35 sec) 
Cycle: 30000000 FTQ IN: 8461200 FTQ occupancy: 13.852 DECODE IN: 8461188 DECODE occupancy: 4.6417 ROB IN: 8461188 ROB occupancy: 46.8968 ROB OUT: 8461245
Heartbeat_Variant_0 : 1405 0.343018 per_variant_size: 0 1405 0 0 0 0 0 0 0 
Heartbeat_Variant_1 : 1276 0.311523 per_variant_size: 0 544 732 0 0 0 0 0 0 
Heartbeat_Variant_2 : 1365 0.333252 per_variant_size: 0 506 391 254 214 0 0 0 0 
Heartbeat_Variant_3 : 0 0 per_variant_size: 0 0 0 0 0 0 0 0 0 
Heartbeat_Variant_0_evicts 0 : 5707 1 : 27 2 : 32 3 : 0 
Heartbeat_Variant_1_evicts 0 : 29 1 : 0 2 : 226 3 : 0 
Heartbeat_Variant_2_evicts 0 : 29 1 : 231 2 : 0 3 : 0 
Heartbeat_Variant_3_evicts 0 : 0 1 : 0 2 : 0 3 : 0 
Heartbeat CPU 0 instructions: 70000001 cycles: 37752173 heartbeat IPC: 0.838703 cumulative IPC: 0.841461 (Simulation time: 0 hr 8 min 46 sec) 
Cycle: 40000000 FTQ IN: 8360435 FTQ occupancy: 13.9046 DECODE IN: 8360438 DECODE occupancy: 4.64061 ROB IN: 8360429 ROB occupancy: 48.9498 ROB OUT: 8360178
Heartbeat_Variant_0 : 1410 0.344238 per_variant_size: 0 1410 0 0 0 0 0 0 0 
Heartbeat_Variant_1 : 1277 0.311768 per_variant_size: 0 551 726 0 0 0 0 0 0 
Heartbeat_Variant_2 : 1361 0.332275 per_variant_size: 0 505 388 248 220 0 0 0 0 
Heartbeat_Variant_3 : 0 0 per_variant_size: 0 0 0 0 0 0 0 0 0 
Heartbeat_Variant_0_evicts 0 : 5680 1 : 51 2 : 77 3 : 0 
Heartbeat_Variant_1_evicts 0 : 58 1 : 0 2 : 239 3 : 0 
Heartbeat_Variant_2_evicts 0 : 65 1 : 246 2 : 0 3 : 0 
Heartbeat_Variant_3_evicts 0 : 0 1 : 0 2 : 0 3 : 0 
Heartbeat CPU 0 instructions: 80000000 cycles: 49574131 heartbeat IPC: 0.845883 cumulative IPC: 0.84293 (Simulation time: 0 hr 10 min 0 sec) 
Cycle: 50000000 FTQ IN: 8467751 FTQ occupancy: 13.8585 DECODE IN: 8467748 DECODE occupancy: 4.6509 ROB IN: 8467757 ROB occupancy: 47.0382 ROB OUT: 8468005
Cycle: 60000000 FTQ IN: 8363818 FTQ occupancy: 13.9033 DECODE IN: 8363828 DECODE occupancy: 4.66043 ROB IN: 8363816 ROB occupancy: 48.8699 ROB OUT: 8363783
Heartbeat_Variant_0 : 1401 0.342041 per_variant_size: 0 1401 0 0 0 0 0 0 0 
Heartbeat_Variant_1 : 1277 0.311768 per_variant_size: 0 562 715 0 0 0 0 0 0 
Heartbeat_Variant_2 : 1373 0.335205 per_variant_size: 0 522 391 240 220 0 0 0 0 
Heartbeat_Variant_3 : 0 0 per_variant_size: 0 0 0 0 0 0 0 0 0 
Heartbeat_Variant_0_evicts 0 : 5668 1 : 75 2 : 55 3 : 0 
Heartbeat_Variant_1_evicts 0 : 78 1 : 0 2 : 271 3 : 0 
Heartbeat_Variant_2_evicts 0 : 61 1 : 275 2 : 0 3 : 0 
Heartbeat_Variant_3_evicts 0 : 0 1 : 0 2 : 0 3 : 0 
Heartbeat CPU 0 instructions: 90000000 cycles: 61516736 heartbeat IPC: 0.837338 cumulative IPC: 0.841525 (Simulation time: 0 hr 11 min 10 sec) 
Cycle: 70000000 FTQ IN: 8440154 FTQ occupancy: 13.8372 DECODE IN: 8440145 DECODE occupancy: 4.63759 ROB IN: 8440157 ROB occupancy: 47.0805 ROB OUT: 8440079
Heartbeat_Variant_0 : 1400 0.341797 per_variant_size: 0 1400 0 0 0 0 0 0 0 
Heartbeat_Variant_1 : 1285 0.313721 per_variant_size: 0 572 713 0 0 0 0 0 0 
Heartbeat_Variant_2 : 1370 0.334473 per_variant_size: 0 518 389 239 224 0 0 0 0 
Heartbeat_Variant_3 : 0 0 per_variant_size: 0 0 0 0 0 0 0 0 0 
Heartbeat_Variant_0_evicts 0 : 5547 1 : 31 2 : 29 3 : 0 
Heartbeat_Variant_1_evicts 0 : 40 1 : 0 2 : 229 3 : 0 
Heartbeat_Variant_2_evicts 0 : 21 1 : 232 2 : 0 3 : 0 
Heartbeat_Variant_3_evicts 0 : 0 1 : 0 2 : 0 3 : 0 
Heartbeat CPU 0 instructions: 100000002 cycles: 73372647 heartbeat IPC: 0.843461 cumulative IPC: 0.841912 (Simulation time: 0 hr 12 min 18 sec) 
Finished CPU 0 instructions: 50000002 cycles: 59388657 cumulative IPC: 0.841912 (Simulation time: 0 hr 12 min 18 sec) 

ChampSim completed all CPUs

Region of Interest Statistics

CPU 0 cumulative IPC: 0.841912 instructions: 50000002 cycles: 59388657
 Fetch stage stalled: 37.4509  Sim cycles: 59388657 fetch stall cycle: 22241596
 Empty decode stage: 70.8236  Sim cycles: 59388657 fetch stall cycle: 42061155
ITLB TOTAL     ACCESS:    7254383  HIT:    6760046  MISS:     494337  HIT %:    93.1857  MISS %:    6.81432   MPKI: 9.88674
ITLB LOAD TRANSLATION INSTRUCTION	ACCESS:    7254383  HIT:    6760046  MISS:     494337  HIT %:    93.1857  MISS %:    6.81432  MPKI: 9.88674

ITLB AVERAGE MISS LATENCY: 9.0367 cycles
ITLB RQ	ACCESS:    8397634	FORWARD:          0	MERGED:     936293	TO_CACHE:    7461341

DTLB TOTAL     ACCESS:   10479173  HIT:   10002530  MISS:     476643  HIT %:    95.4515  MISS %:    4.54848   MPKI: 9.53286
DTLB LOAD TRANSLATION DATA	ACCESS:   10479173  HIT:   10002530  MISS:     476643  HIT %:    95.4515  MISS %:    4.54848  MPKI: 9.53286

DTLB AVERAGE MISS LATENCY: 9.28818 cycles
DTLB RQ	ACCESS:   14545951	FORWARD:          0	MERGED:    4038385	TO_CACHE:   10507566

STLB TOTAL     ACCESS:    1229378  HIT:    1227312  MISS:       2066  HIT %:    99.8319  MISS %:   0.168052   MPKI: 0.04132
STLB LOAD TRANSLATION INSTRUCTION	ACCESS:     494337  HIT:     494075  MISS:        262  HIT %:     99.947  MISS %:  0.0530003  MPKI: 0.00524
STLB LOAD TRANSLATION DATA	ACCESS:     476636  HIT:     474858  MISS:       1778  HIT %:     99.627  MISS %:   0.373031  MPKI: 0.03556
STLB TRANSLATION FROM L1D PREFETCHER DATA	ACCESS:     258405  HIT:     258379  MISS:         26  HIT %:    99.9899  MISS %:  0.0100617  MPKI: 0.00052

STLB AVERAGE MISS LATENCY: 64.9143 cycles
STLB RQ	ACCESS:    1345770	FORWARD:          0	MERGED:     116355	TO_CACHE:    1229415

STLB Hit, L1D data hit: 0
STLB Hit, L2C data hit: 0
STLB Hit, LLC data hit: 0
STLB Hit, LLC data miss: 0
STLB STLB hints to L2: 0
L1D TOTAL     ACCESS:   14346272  HIT:   13234515  MISS:    1111757  HIT %:    92.2506  MISS %:    7.74945   MPKI: 22.2351
L1D LOAD DATA	ACCESS:    7685964  HIT:    6955088  MISS:     730876  HIT %:    90.4908  MISS %:    9.50923  MPKI: 14.6175
L1D RFO DATA	ACCESS:    6325946  HIT:    6038136  MISS:     287810  HIT %:    95.4503  MISS %:    4.54968  MPKI: 5.7562
L1D PREFETCH DATA	ACCESS:     334362  HIT:     241291  MISS:      93071  HIT %:    72.1646  MISS %:    27.8354  MPKI: 1.86142

L1D PREFETCH  REQUESTED:     749743  ISSUED:     749743  USEFUL:      33846  USELESS:      67028
L1D USEFUL LOAD PREFETCHES:      33846 PREFETCH ISSUED TO LOWER LEVEL:     100941  ACCURACY: 33.5305
 TIMELY PREFETCHES:      33846 LATE PREFETCHES: 7811 DROPPED PREFETCHES: 9
L1D AVERAGE MISS LATENCY: 310723 cycles
L1D RQ	ACCESS:   11486582	FORWARD:          0	MERGED:    3622898	TO_CACHE:    7716806
L1D WQ	ACCESS:    6943640	FORWARD:     147041	MERGED:     114495	TO_CACHE:    6829145
L1D PQ	ACCESS:     374953	FORWARD:          0	MERGED:          0	TO_CACHE:     374790

L1D UNIQUE REGIONS ACCESSED: 0
L1D REGIONS CONFLICTS: 0
L1D Cross Page Prefetch Requests: 6860
L1D Same Page Prefetch Requests: 754044
L1D ROI Sum of L1D PQ occupancy: 4752940
L1D PREFETCHES PUSHED FROM L2C: 0
L1I TOTAL     ACCESS:    7902430  HIT:    5139873  MISS:    2762557  HIT %:    65.0417  MISS %:    34.9583   MPKI: 55.2511
L1I LOAD INSTRUCTION	ACCESS:    7902430  HIT:    5139873  MISS:    2762557  HIT %:    65.0417  MISS %:    34.9583  MPKI: 55.2511

L1I AVERAGE MISS LATENCY: 16.9961 cycles
L1I RQ	ACCESS:   15266942	FORWARD:          0	MERGED:    6869308	TO_CACHE:    8397634

L1BTB TOTAL     ACCESS:    5671146  HIT:    2043206  MISS:    3627940  HIT %:    36.0281  MISS %:    63.9719   MPKI: 72.5588
L1BTB BRANCH_DIRECT_JUMP	ACCESS:     548494  HIT:     144884  MISS:     403610	AVERAGE STALL: 20.4579
L1BTB BRANCH_INDIRECT	ACCESS:     182794  HIT:      66000  MISS:     116794	AVERAGE STALL: 50.0587
L1BTB BRANCH_CONDITIONAL	ACCESS:    2704663  HIT:    1412182  MISS:    1292481	AVERAGE STALL: 28.429
L1BTB BRANCH_DIRECT_CALL	ACCESS:     945364  HIT:     106723  MISS:     838641	AVERAGE STALL: 33.9534
L1BTB BRANCH_INDIRECT_CALL	ACCESS:     172232  HIT:      21825  MISS:     150407	AVERAGE STALL: 64.079
L1BTB BRANCH_RETURN	ACCESS:    1117599  HIT:     291592  MISS:     826007	AVERAGE STALL: 32.3091
L1BTB BRANCH_OTHER ACCESS:          0  HIT:          0  MISS:          0	AVERAGE STALL: -nan
L1BTB TOTAL ROB OCCUPANCY AT BTB MISS: 0.55328

L2BTB TOTAL     ACCESS:    3602572  HIT:    3537248  MISS:      65324  HIT %:    98.1867  MISS %:    1.81326   MPKI: 1.30648
L2BTB BRANCH_DIRECT_JUMP	ACCESS:     399449  HIT:     395214  MISS:       4235	AVERAGE STALL: 20.4579
L2BTB BRANCH_INDIRECT	ACCESS:     106528  HIT:     103876  MISS:       2652	AVERAGE STALL: 50.0587
L2BTB BRANCH_CONDITIONAL	ACCESS:    1292481  HIT:    1287233  MISS:       5248	AVERAGE STALL: 28.429
L2BTB BRANCH_DIRECT_CALL	ACCESS:     838641  HIT:     837694  MISS:        947	AVERAGE STALL: 33.9534
L2BTB BRANCH_INDIRECT_CALL	ACCESS:     140868  HIT:     130615  MISS:      10253	AVERAGE STALL: 64.079
L2BTB BRANCH_RETURN	ACCESS:     824605  HIT:     782616  MISS:      41989	AVERAGE STALL: 32.3091
L2BTB BRANCH_OTHER ACCESS:          0  HIT:          0  MISS:          0	AVERAGE STALL: -nan
L2BTB TOTAL ROB OCCUPANCY AT BTB MISS: 30.7278

L2C TOTAL     ACCESS:    4479767  HIT:    4005983  MISS:     473784  HIT %:    89.4239  MISS %:    10.5761   MPKI: 9.47568
L2C LOAD INSTRUCTION	ACCESS:    2762557  HIT:    2500839  MISS:     261718  HIT %:    90.5262  MISS %:    9.47376  MPKI: 5.23436
L2C LOAD TRANSLATION INSTRUCTION	ACCESS:        293  HIT:         54  MISS:        239  HIT %:      18.43  MISS %:      81.57  MPKI: 0.00478
L2C LOAD DATA	ACCESS:     723059  HIT:     652400  MISS:      70659  HIT %:    90.2278  MISS %:    9.77223  MPKI: 1.41318
L2C RFO DATA	ACCESS:     287729  HIT:     232036  MISS:      55693  HIT %:    80.6439  MISS %:    19.3561  MPKI: 1.11386
L2C PREFETCH DATA	ACCESS:     184735  HIT:     115929  MISS:      68806  HIT %:    62.7542  MISS %:    37.2458  MPKI: 1.37612
L2C WRITEBACK DATA	ACCESS:     519497  HIT:     504163  MISS:      15334  HIT %:    97.0483  MISS %:     2.9517  MPKI: 0.30668
L2C LOAD TRANSLATION DATA	ACCESS:       1852  HIT:        532  MISS:       1320  HIT %:    28.7257  MISS %:    71.2743  MPKI: 0.0264
L2C TRANSLATION FROM L1D PREFETCHER DATA	ACCESS:         45  HIT:         30  MISS:         15  HIT %:    66.6667  MISS %:    33.3333  MPKI: 0.0003

L2C PREFETCH  REQUESTED:      91550  ISSUED:      91550  USEFUL:       8280  USELESS:      60975
L2C USEFUL LOAD PREFETCHES:       8280 PREFETCH ISSUED TO LOWER LEVEL:      69233  ACCURACY: 11.9596
 TIMELY PREFETCHES:       8280 LATE PREFETCHES: 427 DROPPED PREFETCHES: 0
L2C AVERAGE MISS LATENCY: 37.7588 cycles
L2C RQ	ACCESS:    3775563	FORWARD:          0	MERGED:          0	TO_CACHE:    3775535
L2C WQ	ACCESS:     519497	FORWARD:         28	MERGED:          0	TO_CACHE:     519497
L2C PQ	ACCESS:     192491	FORWARD:          0	MERGED:       3609	TO_CACHE:     188882

L2C Dense regions hint from L2: 0
PSCL5 TOTAL     ACCESS:       4156  HIT:       2078  MISS:       2078  HIT %:         50  MISS %:         50   MPKI: 0.04156
PSCL5 LOAD TRANSLATION INSTRUCTION	ACCESS:       4066  HIT:       2033  MISS:       2033  HIT %:         50  MISS %:         50  MPKI: 0.04066
PSCL5 TRANSLATION FROM L1D PREFETCHER INSTRUCTION	ACCESS:         90  HIT:         45  MISS:         45  HIT %:         50  MISS %:         50  MPKI: 0.0009


PSCL4 TOTAL     ACCESS:       3866  HIT:       1929  MISS:       1937  HIT %:    49.8965  MISS %:    50.1035   MPKI: 0.03874
PSCL4 LOAD TRANSLATION INSTRUCTION	ACCESS:       1904  HIT:       1885  MISS:         19  HIT %:    99.0021  MISS %:   0.997899  MPKI: 0.00038
PSCL4 TRANSLATION FROM L1D PREFETCHER INSTRUCTION	ACCESS:         44  HIT:         44  MISS:          0  HIT %:        100  MISS %:          0  MPKI: 0
PSCL4 LOAD TRANSLATION DATA	ACCESS:       1874  HIT:          0  MISS:       1874  HIT %:          0  MISS %:        100  MPKI: 0.03748
PSCL4 TRANSLATION FROM L1D PREFETCHER DATA	ACCESS:         44  HIT:          0  MISS:         44  HIT %:          0  MISS %:        100  MPKI: 0.00088


PSCL3 TOTAL     ACCESS:       3980  HIT:       1986  MISS:       1994  HIT %:    49.8995  MISS %:    50.1005   MPKI: 0.03988
PSCL3 LOAD TRANSLATION INSTRUCTION	ACCESS:       1961  HIT:       1942  MISS:         19  HIT %:    99.0311  MISS %:   0.968893  MPKI: 0.00038
PSCL3 TRANSLATION FROM L1D PREFETCHER INSTRUCTION	ACCESS:         44  HIT:         44  MISS:          0  HIT %:        100  MISS %:          0  MPKI: 0
PSCL3 LOAD TRANSLATION DATA	ACCESS:       1931  HIT:          0  MISS:       1931  HIT %:          0  MISS %:        100  MPKI: 0.03862
PSCL3 TRANSLATION FROM L1D PREFETCHER DATA	ACCESS:         44  HIT:          0  MISS:         44  HIT %:          0  MISS %:        100  MPKI: 0.00088


PSCL2 TOTAL     ACCESS:       4060  HIT:       1982  MISS:       2078  HIT %:    48.8177  MISS %:    51.1823   MPKI: 0.04156
PSCL2 LOAD TRANSLATION INSTRUCTION	ACCESS:       2199  HIT:       1937  MISS:        262  HIT %:    88.0855  MISS %:    11.9145  MPKI: 0.00524
PSCL2 TRANSLATION FROM L1D PREFETCHER INSTRUCTION	ACCESS:         45  HIT:         45  MISS:          0  HIT %:        100  MISS %:          0  MPKI: 0
PSCL2 LOAD TRANSLATION DATA	ACCESS:       1771  HIT:          0  MISS:       1771  HIT %:          0  MISS %:        100  MPKI: 0.03542
PSCL2 TRANSLATION FROM L1D PREFETCHER DATA	ACCESS:         45  HIT:          0  MISS:         45  HIT %:          0  MISS %:        100  MPKI: 0.0009


LLC TOTAL     ACCESS:     536155  HIT:     509378  MISS:      26777  HIT %:    95.0057  MISS %:    4.99426   MPKI: 0.53554
LLC LOAD INSTRUCTION	ACCESS:     261717  HIT:     261173  MISS:        544  HIT %:    99.7921  MISS %:   0.207858  MPKI: 0.01088
LLC LOAD TRANSLATION INSTRUCTION	ACCESS:        239  HIT:        222  MISS:         17  HIT %:     92.887  MISS %:    7.11297  MPKI: 0.00034
LLC LOAD DATA	ACCESS:      70246  HIT:      66959  MISS:       3287  HIT %:    95.3207  MISS %:    4.67927  MPKI: 0.06574
LLC RFO DATA	ACCESS:      55680  HIT:      42500  MISS:      13180  HIT %:     76.329  MISS %:     23.671  MPKI: 0.2636
LLC PREFETCH DATA	ACCESS:      69232  HIT:      59875  MISS:       9357  HIT %:    86.4846  MISS %:    13.5154  MPKI: 0.18714
LLC WRITEBACK DATA	ACCESS:      77706  HIT:      77368  MISS:        338  HIT %:     99.565  MISS %:   0.434973  MPKI: 0.00676
LLC LOAD TRANSLATION DATA	ACCESS:       1320  HIT:       1267  MISS:         53  HIT %:    95.9848  MISS %:    4.01515  MPKI: 0.00106
LLC TRANSLATION FROM L1D PREFETCHER DATA	ACCESS:         15  HIT:         14  MISS:          1  HIT %:    93.3333  MISS %:    6.66667  MPKI: 2e-05

LLC AVERAGE MISS LATENCY: 153.314 cycles
LLC RQ	ACCESS:     389217	FORWARD:          0	MERGED:          0	TO_CACHE:     389217
LLC WQ	ACCESS:      77706	FORWARD:          1	MERGED:          0	TO_CACHE:      77706
LLC PQ	ACCESS:      69233	FORWARD:          0	MERGED:          0	TO_CACHE:      69232

LLC Dense regions hint to LLC: 0

RAW hits: 1144344
Loads Generated: 12630925
Loads sent to L1D: 11486582
Stores Generated: 6943632
Stores sent to L1D: 6943640
Major fault: 0 Minor fault: 2629
Allocated PAGES: 2629

stream: 
stream:times selected: 1182366
stream:pref_filled: 120599
stream:pref_useful: 25239
stream:pref_late: 6075
stream:misses: 7230
stream:misses_by_poll: 0

CS: 
CS:times selected: 180229
CS:pref_filled: 60089
CS:pref_useful: 37133
CS:pref_late: 6783
CS:misses: 16029
CS:misses_by_poll: 1

CPLX: 
CPLX:times selected: 1001045
CPLX:pref_filled: 21712
CPLX:pref_useful: 4969
CPLX:pref_late: 3130
CPLX:misses: 91696
CPLX:misses_by_poll: 1

NL_L1: 
NL:times selected: 19929
NL:pref_filled: 579
NL:pref_useful: 280
NL:pref_late: 353
NL:misses: 1407
NL:misses_by_poll: 0

total selections: 2383569
total_filled: 93071
total_useful: 33846
total_late: 17536
total_polluted: 2
total_misses_after_warmup: 761724
conflicts: 6035198

test: 117615

DRAM Statistics
 CHANNEL 0
 RQ ROW_BUFFER_HIT:       9975  ROW_BUFFER_MISS:      16463
 DBUS_CONGESTED:          5
 WQ ROW_BUFFER_HIT:       1310  ROW_BUFFER_MISS:      11607  FULL:          0

 AVG_CONGESTED_CYCLE: 3

CPU 0 Branch Prediction Accuracy: 99.8242% MPKI: 0.3217 Average ROB Occupancy at Mispredict: 68.1202
Branch types
NOT_BRANCH: 40851639 81.7033%
BRANCH_DIRECT_JUMP: 548494 1.09699%
BRANCH_INDIRECT: 182794 0.365588%
BRANCH_CONDITIONAL: 6181567 12.3631%
BRANCH_DIRECT_CALL: 945364 1.89073%
BRANCH_INDIRECT_CALL: 172232 0.344464%
BRANCH_RETURN: 1117599 2.2352%
BRANCH_OTHER: 0 0%

DRAM PAGES: 1048576
Allocated PAGES: 2629
Average_ROB_Occupancy: 48.4506
Average_Decode_Occupancy: 4.64338
Average_FTQ_Occupancy: 13.8573
Indirect max targets: 14 Average targets: 1.17516
Branch_type:  BRANCH_DIRECT_JUMP:  Count Percentage: 1.60034 7.78037 3.43176 8.08775 2.93619 5.95972 0.904166 69.2997 
Branch_type:  BRANCH_INDIRECT:  Count Percentage: 11.7438 5.58748 2.52737 0 1.3376 9.6898 2.27359 66.8403 
Branch_type:  BRANCH_CONDITIONAL:  Count Percentage: 20.6463 7.67927 1.58096 4.72511 1.897 4.75848 0.424751 58.2882 
Branch_type:  BRANCH_DIRECT_CALL:  Count Percentage: 0.257883 1.4784 1.27867 3.36449 3.36857 2.22199 0.729513 87.3005 
Branch_type:  BRANCH_INDIRECT_CALL:  Count Percentage: 9.51451 2.27185 2.98138 8.65563 1.4182 1.70759 1.27583 72.175 
Branch_type:  BRANCH_RETURN:  Count Percentage: 4.38531 5.10013 1.15677 5.64684 3.74978 6.11151 1.25616 72.5935 
Branch_type:  BRANCH_DIRECT_JUMP:  Total Count: 17535 85250 37602 88618 32172 65301 9907 759321 
Branch_type:  BRANCH_INDIRECT:  Total Count: 42898 20410 9232 0 4886 35395 8305 244155 
Branch_type:  BRANCH_CONDITIONAL:  Total Count: 2550751 948738 195320 583766 234366 587888 52476 7201231 
Branch_type:  BRANCH_DIRECT_CALL:  Total Count: 4873 27936 24162 63576 63653 41987 13785 1649644 
Branch_type:  BRANCH_INDIRECT_CALL:  Total Count: 32746 7819 10261 29790 4881 5877 4391 248404 
Branch_type:  BRANCH_RETURN:  Total Count: 97997 113971 25850 126188 83795 136572 28071 1622223 
Number of unique branch instructions: 10553
Upper 32 bits: 
aaaa
ffff
ffff0000
Unique upper 32 bits: 3
Unique upper 36 bits: 3
Unique upper 40 bits: 5
Unique upper 44 bits: 32
Unique upper 48 bits: 157
Variant_0 : 1400 0.341797
Variant_1 : 1285 0.313721
Variant_2 : 1370 0.334473
Variant_3 : 0 0
Offset_3 4373
Offset_4 252
Offset_5 472
Offset_6 529
Offset_7 619
Offset_8 568
Offset_9 504
Offset_10 409
Offset_11 337
Offset_12 303
Offset_13 238
Offset_14 240
Offset_15 194
Offset_16 222
Offset_17 165
Offset_18 144
Offset_19 251
Offset_20 139
Offset_21 235
Offset_22 405
Offset_23 241
Offset_24 346
Offset_25 117
Offset_47 94
Offset_64 2
decode_dispatch_called: 30675070 51.6514
Dispatch_width: 0 18539737 60.4391 31.2176
Dispatch_width: 1 2347713 7.65349 3.95313
Dispatch_width: 2 1136957 3.70645 1.91443
Dispatch_width: 3 1079674 3.51971 1.81798
Dispatch_width: 4 1003393 3.27104 1.68954
Dispatch_width: 5 1280101 4.1731 2.15546
Dispatch_width: 6 5287495 17.2371 8.90321
Empty_decode_cycles: 28713587 48.3486
ROB_full_cycles: 433523 0.729976
Starvation_cycles_per_kilo_instr: 536.676
Starvation_cycles_per_kilo_instr_3: 513.841
Starvation_cycles_per_kilo_instr_0: 468.198
Branch_type_1  (3,1)  (4,7)  (5,38)  (6,71)  (7,122)  (8,147)  (9,133)  (10,109)  (11,75)  (12,47)  (13,11)  (14,2)  (15,3)  (16,4)  (18,1)  (19,5)  (20,2)  (21,1)  (22,3)  (23,2)  (24,10)  (25,12) 
Branch_type_2  (3,1)  (4,1)  (5,1)  (8,4)  (9,4)  (10,1)  (12,1)  (13,1)  (14,1)  (16,3)  (17,2)  (20,2)  (21,2)  (23,5)  (24,1)  (47,43) 
Branch_type_3  (3,4371)  (4,244)  (5,429)  (6,442)  (7,469)  (8,354)  (9,277)  (10,164)  (11,128)  (12,54)  (13,10)  (64,2) 
Branch_type_4  (6,3)  (7,8)  (8,24)  (9,53)  (10,64)  (11,68)  (12,111)  (13,101)  (14,108)  (15,92)  (16,97)  (17,76)  (18,61)  (19,122)  (20,71)  (21,124)  (22,212)  (23,136)  (24,202)  (25,101) 
Branch_type_5  (8,3)  (9,1)  (10,4)  (11,5)  (12,3)  (13,14)  (14,16)  (15,11)  (16,22)  (17,11)  (18,23)  (19,14)  (20,11)  (21,13)  (22,43)  (23,26)  (24,37) 
Branch_type_6  (5,4)  (6,13)  (7,20)  (8,36)  (9,36)  (10,67)  (11,61)  (12,87)  (13,101)  (14,113)  (15,88)  (16,96)  (17,76)  (18,59)  (19,110)  (20,53)  (21,95)  (22,147)  (23,72)  (24,96)  (25,4)  (47,51) 
Unique trigger count: 
Variant_0_evicts_0 : 0
Variant_0_evicts_1 : 0
Variant_0_evicts_2 : 0
Variant_0_evicts_3 : 0
Variant_1_evicts_0 : 0
Variant_1_evicts_1 : 0
Variant_1_evicts_2 : 0
Variant_1_evicts_3 : 0
Variant_2_evicts_0 : 0
Variant_2_evicts_1 : 0
Variant_2_evicts_2 : 0
Variant_2_evicts_3 : 0
Variant_3_evicts_0 : 0
Variant_3_evicts_1 : 0
Variant_3_evicts_2 : 0
Variant_3_evicts_3 : 0
BTB PER SET UNIQUE ADDR: 11 14 11 18 8 15 12 14 14 7 11 15 13 14 12 11 11 10 11 17 10 9 15 14 8 14 16 11 7 13 13 11 14 8 9 16 10 9 9 12 13 10 12 14 8 12 13 9 15 11 11 9 16 12 9 6 10 13 12 14 12 15 11 16 16 15 10 11 13 16 14 11 13 9 10 8 7 11 9 18 18 7 9 15 14 15 10 9 6 23 7 7 10 11 6 7 7 12 16 19 18 16 15 12 11 9 7 12 9 11 9 15 14 13 10 8 7 11 14 14 14 10 12 10 17 11 9 14 18 11 10 12 9 12 12 14 14 11 12 19 10 13 12 12 11 13 19 9 8 13 14 17 12 11 6 16 10 12 18 13 13 10 13 12 12 12 11 10 11 10 13 14 11 14 13 6 11 11 13 14 9 12 13 12 14 19 9 13 12 11 10 12 11 10 16 13 12 13 10 15 17 15 13 8 15 12 13 13 12 8 7 15 14 11 11 10 11 11 11 17 8 14 9 14 9 12 16 10 7 15 9 5 11 16 11 10 14 13 12 10 13 8 15 16 14 15 14 9 13 10 12 15 18 11 14 10 9 11 12 11 16 10 6 14 10 10 9 6 8 11 9 15 9 6 7 9 11 13 10 8 10 12 10 10 9 8 13 17 15 13 12 9 16 15 6 14 10 12 13 17 12 11 10 17 17 13 19 12 15 8 12 20 8 13 15 7 16 15 13 16 8 14 12 12 15 11 9 10 12 9 16 8 11 8 11 14 14 15 9 18 12 9 8 13 14 13 12 15 13 10 12 10 10 12 10 14 9 12 8 12 11 12 9 12 9 19 9 13 11 17 13 6 15 10 7 13 11 16 12 11 15 12 9 10 9 14 19 16 12 13 15 11 15 14 10 9 9 12 14 11 10 12 10 11 18 10 13 15 12 10 14 10 12 16 12 15 12 12 16 16 7 17 13 14 15 11 13 8 15 14 15 12 14 12 13 13 11 6 12 10 11 9 10 13 16 8 11 12 14 12 20 12 15 11 16 21 17 15 10 18 13 13 12 18 18 10 14 12 15 15 12 15 15 9 10 12 16 19 9 18 15 11 14 17 8 17 16 16 11 13 12 18 11 12 8 9 16 13 9 18 12 15 12 14 10 8 7 11 16 11 9 17 11 9 16 12 9 15 9 8 9 12 11 9 13 13 11 7 11 17 11 11 17 12 12 17 13 20 11 17 14 11 17 15 17 16 10 14 11 12 13 16 13 9 7 14 11 9 9 12 12 15 12 12 13 16 11 14 12 16 12 14 16 15 11 15 16 16 11 11 15 12 10 10 15 15 12 11 19 19 13 12 12 9 7 7 11 14 12 10 12 8 11 7 10 15 19 11 11 11 13 11 9 13 5 12 9 12 12 14 15 11 7 9 8 12 13 19 11 16 10 15 14 13 8 14 11 16 9 15 8 14 13 16 12 12 10 17 16 14 12 13 13 6 17 14 15 14 13 9 12 8 11 19 8 10 10 13 11 10 15 16 13 15 16 13 13 13 16 14 13 17 15 12 14 12 11 18 14 13 8 16 17 7 11 12 7 18 11 15 6 14 15 17 10 16 13 9 11 7 14 12 11 11 12 8 13 13 13 13 13 13 13 14 15 12 11 8 11 9 12 11 15 7 8 17 14 19 23 9 11 11 11 12 14 14 15 17 10 7 14 10 12 10 13 12 17 9 9 14 11 9 6 14 10 16 12 17 10 10 10 20 12 10 10 12 16 11 13 15 9 13 12 12 15 10 8 8 9 4 8 9 16 7 13 14 10 8 13 12 19 12 15 16 13 14 10 11 11 13 11 12 12 12 9 13 18 11 9 6 18 23 14 14 12 15 15 15 8 11 15 13 14 11 12 12 11 13 12 11 17 14 13 12 12 12 12 16 12 8 9 9 11 11 14 21 14 14 9 9 10 16 13 5 14 9 13 7 15 14 17 20 17 14 12 8 12 11 10 10 12 10 10 16 11 14 15 12 17 14 16 11 9 10 12 17 18 10 9 8 13 7 13 9 8 12 5 13 11 17 8 9 11 12 8 15 12 11 10 16 13 13 11 10 7 8 11 13 15 7 16 18 17 9 12 19 11 14 15 14 11 17 8 9 17 11 15 11 12 13 11 13 9 13 9 15 10 10 16 8 11 12 13 14 12 11 11 14 8 16 9 15 11 11 13 14 15 13 16 16 11 17 9 12 10 13 16 14 11 14 16 10 15 14 15 10 8 18 11 12 11 16 11 12 15 14 9 14 13 17 9 13 13 7 10 13 9 9 5 12 11 14 15 8 
BTB PER SET COUNT: 11 26 1959 28 1124 18 976 21 1482 7 14 450 20167 708 14 15 856 2269 13 25 18 9 729 493 15 26 24 1217 49 1425 284 11 27 14 9 393 13 12 10 2707 13 12 17 52 16 17 15 12 1969 482 14 9 23 16 10 359 12 20 109 16 15 838 77 20 20 20 11 12 17 25 28 815 25 9 11 9 10 13 12 34 22 10 10 20 20 17 17 10 9 64 9 1047 13 44 6 11 962 17 33 29 26 979 23 17 1985 11 15 15 40 15 14 22 165 13 16 15 7 12 1281 23 24 11 17 14 23 92 14 19 26 498 15 14 15 14 21 26 347 12 17 25 19 192 18 15 18 206 406 9 8 205 28 29 1019 11 6 24 12 15 26 19 25 236 150 17 12 45 16 13 15 275 17 16 15 20 17 6 12 11 19 42 21 122 584 16 24 35 9 18 47 11 12 15 11 11 18 14 15 271 13 658 26 19 976 9 17 17 14 499 15 959 8 20 20 14672 15 3437 12 16 1714 28 11 20 13 14 12 24 23 255 10 25 15 5 18 26 336 15 56 22 12 15 18 10 20 27 19 24 16 22 15 20 18 16 22 11 20 16 12 12 12 21 40 16 7 182 13 15 12 6 9 16 11 412 12 10 9 15 12 20 13 234 13 13 28 126 10 10 14 24 18 15 16 11 21 25 9 14 1677 17 16 21 17 14 10 25 21 18 39 15 20 955 41 35 12 16 1512 10 21 18 17 28 11 1679 20 14 18 30 279 12 14 11 17 8 15 10 14 27 19 1002 12 30 19 768 8 85 19 17 13 22 14 14 12 11 15 13 13 16 14 15 12 18 12 17 9 14 13 1474 9 19 24 28 16 6 26 12 475 183 14 20 18 19 36 12 989 10 12 14 1438 23 12 895 24 13 19 375 10 10 10 23 18 13 12 22 15 19 28 13 22 20 18 11 579 14 17 36 14 19 17 390 674 25 8 22 24 21 20 12 22 9 19 17 65 20 29 24 20 27 17 6 17 12 16 11 13 20 157 8 508 15 25 13 803 88 30 13 17 55 33 15 11 23 16 20 17 25 21 11 17 17 20 18 17 16 23 12 10 18 20 541 11 28 29 961 14 22 10 28 29 22 14 180 13 24 167 12 13 13 986 17 10 27 14 18 14 20 11 11 16 16 22 12 17 21 19 1455 19 17 16 24 13 29 9 14 14 503 16 30 15 8 15 168 15 14 23 16 15 27 15 49 19 251 18 13 21 20 36 35 10 15 16 309 18 21 750 973 7 26 20 11 24 16 17 19 13 13 53 25 146 15 13 25 390 18 28 19 2458 16 18 52 13 18 18 14 16 4383 26 19 489 15 25 37 17 15 18 15 12 8 455 380 19 12 27 11 13 12 12 27 30 4442 14 12 15 1477 15 20 5 15 201 16 15 18 27 15 11 842 8 15 20 704 11 24 15 20 14 17 10 16 16 643 13 16 8 18 23 24 14 18 13 29 531 14 14 16 17 6 54 22 20 21 16 607 371 8 12 23 17 14 15 762 1477 16 23 24 24 21 450 500 22 15 24 26 20 26 246 27 104 22 12 25 35 13 10 17 26 7 150 17 9 66 15 25 8 23 1488 33 12 501 21 9 11 8 24 13 749 12 376 163 1002 17 20 15 19 236 19 1530 965 15 11 14 18 1873 13 12 28 9 12 24 988 35 31 13 697 14 729 51 18 15 1255 22 11 8 1489 12 17 1963 39 17 26 719 12 16 13 12 6 14 2856 18 12 20 10 11 13 29 21 10 10 18 22 11 14 17 526 25 1336 14 24 14 9 12 12 4 12 970 29 11 1401 17 153 9 19 191 23 16 21 33 19 17 12 18 20 16 18 7818 14 267 459 646 771 1485 12 6 24 29 16 17 474 50 16 28 9 16 23 16 16 16 430 16 12 15 983 16 24 20 18 16 1002 15 19 25 17 11 81 316 225 17 1544 33 21 17 13 12 10 22 14 5 17 10 20 7 24 51 20 45 20 18 15 10 16 16 19 14 20 12 149 20 15 29 20 18 23 28 29 1404 1872 13 16 23 29 21 10 8 25 12 26 273 11 20 5 16 21 120 12 9 21 18 11 2270 15 523 11 21 18 989 897 10 7 9 14 18 27 23 142 23 21 15 101 28 15 20 47 16 17 1086 8 11 26 12 108 18 13 15 14 979 10 5109 11 19 117 14 150 19 369 14 145 22 16 16 14 24 9 28 66 803 14 14 321 20 30 20 997 796 16 21 12 15 11 18 23 30 16 18 31 12 23 18 24 10 14 44 28 15 16 413 17 20 21 33 14 20 14 1004 26 14 14 13 15 22 9 10 5 19 612 496 28 9 
To predecode: 0
Predecoding something: 0
Predecode request dropped: 0
sizeofblock_0 0
sizeofblock_1 36424
sizeofblock_2 38375
sizeofblock_3 43109
sizeofblock_4 23679
sizeofblock_5 0
sizeofblock_6 0
sizeofblock_7 0
sizeofblock_8 0
Variant_0 Correct: 1611590 Incorrect: 0 Accuracy: 1
Variant_1 Correct: 2086599 Incorrect: 0 Accuracy: 1
Variant_2 Correct: 3639711 Incorrect: 0 Accuracy: 1
Variant_3 Correct: 0 Incorrect: 0 Accuracy: -nan
