
*** ChampSim Multicore Out-of-Order Simulator ***

Warmup Instructions: 50000000
Simulation Instructions: 50000000
Number of CPUs: 1
LLC sets: 2048
LLC ways: 16
Off-chip DRAM Size: 4096 MB Channels: 1 Width: 64-bit Data Rate: 6400 MT/s
CPU 0 runs ./micro_traces/srv163.trace.gz
.gz
ITLB has LRU replacement policy
DTLB has LRU replacement policy
STLB has LRU replacement policy
FDIP Prefetcher at L1I
L1I has LRU replacement policy
L1D has LRU replacement policy
Initialize SRRIP state for L2C
Initialize DRRIP state for LLC
Heartbeat CPU 0 instructions: 10000001 cycles: 2798038 heartbeat IPC: 3.57393 cumulative IPC: 3.57393 (Simulation time: 0 hr 2 min 0 sec) 
Heartbeat CPU 0 instructions: 20000001 cycles: 5594693 heartbeat IPC: 3.5757 cumulative IPC: 3.57482 (Simulation time: 0 hr 4 min 13 sec) 
Heartbeat CPU 0 instructions: 30000003 cycles: 8390415 heartbeat IPC: 3.57689 cumulative IPC: 3.57551 (Simulation time: 0 hr 5 min 52 sec) 
Heartbeat CPU 0 instructions: 40000002 cycles: 11186651 heartbeat IPC: 3.57624 cumulative IPC: 3.57569 (Simulation time: 0 hr 7 min 39 sec) 
Heartbeat CPU 0 instructions: 50000001 cycles: 13982814 heartbeat IPC: 3.57633 cumulative IPC: 3.57582 (Simulation time: 0 hr 9 min 59 sec) 

Warmup complete CPU 0 instructions: 50000001 cycles: 13982814 (Simulation time: 0 hr 9 min 59 sec) 

Cycle: 20000000 FTQ IN: 54543029 FTQ occupancy: 17.1105 DECODE IN: 54542988 DECODE occupancy: 43.9285 ROB IN: 54542988 ROB occupancy: 260.586 ROB OUT: 54542877
Heartbeat CPU 0 instructions: 60000002 cycles: 27237803 heartbeat IPC: 0.754433 cumulative IPC: 0.754433 (Simulation time: 0 hr 11 min 37 sec) 
Cycle: 30000000 FTQ IN: 7547156 FTQ occupancy: 3.48169 DECODE IN: 7547129 DECODE occupancy: 6.57196 ROB IN: 7547129 ROB occupancy: 56.1452 ROB OUT: 7547233
Cycle: 40000000 FTQ IN: 7436231 FTQ occupancy: 3.65775 DECODE IN: 7436299 DECODE occupancy: 7.01685 ROB IN: 7436299 ROB occupancy: 58.1515 ROB OUT: 7436293
Heartbeat CPU 0 instructions: 70000001 cycles: 40634025 heartbeat IPC: 0.746479 cumulative IPC: 0.750435 (Simulation time: 0 hr 13 min 28 sec) 
Cycle: 50000000 FTQ IN: 7522577 FTQ occupancy: 3.49008 DECODE IN: 7522572 DECODE occupancy: 6.57171 ROB IN: 7522512 ROB occupancy: 55.9246 ROB OUT: 7522173
Heartbeat CPU 0 instructions: 80000003 cycles: 53891942 heartbeat IPC: 0.754266 cumulative IPC: 0.751708 (Simulation time: 0 hr 15 min 1 sec) 
Cycle: 60000000 FTQ IN: 7584701 FTQ occupancy: 3.47456 DECODE IN: 7584691 DECODE occupancy: 6.51626 ROB IN: 7584736 ROB occupancy: 55.5641 ROB OUT: 7585086
Heartbeat CPU 0 instructions: 90000002 cycles: 67263564 heartbeat IPC: 0.747852 cumulative IPC: 0.75074 (Simulation time: 0 hr 16 min 34 sec) 
Cycle: 70000000 FTQ IN: 7411561 FTQ occupancy: 3.63688 DECODE IN: 7411568 DECODE occupancy: 6.88141 ROB IN: 7411583 ROB occupancy: 57.2238 ROB OUT: 7411581
Cycle: 80000000 FTQ IN: 7522756 FTQ occupancy: 3.49617 DECODE IN: 7522764 DECODE occupancy: 6.57818 ROB IN: 7522764 ROB occupancy: 56.0919 ROB OUT: 7522759
Heartbeat CPU 0 instructions: 100000003 cycles: 80570388 heartbeat IPC: 0.751494 cumulative IPC: 0.750891 (Simulation time: 0 hr 18 min 36 sec) 
Finished CPU 0 instructions: 50000002 cycles: 66587574 cumulative IPC: 0.750891 (Simulation time: 0 hr 18 min 36 sec) 

ChampSim completed all CPUs

Region of Interest Statistics

CPU 0 cumulative IPC: 0.750891 instructions: 50000002 cycles: 66587574
 Fetch stage stalled: 81.926  Sim cycles: 66587574 fetch stall cycle: 54552527
 Empty decode stage: 69.6378  Sim cycles: 66587574 fetch stall cycle: 46370097
ITLB TOTAL     ACCESS:    5742625  HIT:    5246625  MISS:     496000  HIT %:    91.3628  MISS %:    8.63717   MPKI: 9.92
ITLB LOAD TRANSLATION INSTRUCTION	ACCESS:    5663276  HIT:    5167276  MISS:     496000  HIT %:    91.2418  MISS %:    8.75818  MPKI: 9.92
ITLB TRANSLATION FROM L1D PREFETCHER INSTRUCTION	ACCESS:      79349  HIT:      79349  MISS:          0  HIT %:        100  MISS %:          0  MPKI: 0

ITLB AVERAGE MISS LATENCY: 9.03503 cycles
ITLB RQ	ACCESS:    7216071	FORWARD:          0	MERGED:    1066152	TO_CACHE:    6149919

DTLB TOTAL     ACCESS:   10100385  HIT:    9621922  MISS:     478463  HIT %:    95.2629  MISS %:    4.73708   MPKI: 9.56926
DTLB LOAD TRANSLATION DATA	ACCESS:   10100385  HIT:    9621922  MISS:     478463  HIT %:    95.2629  MISS %:    4.73708  MPKI: 9.56926

DTLB AVERAGE MISS LATENCY: 9.28213 cycles
DTLB RQ	ACCESS:   14166889	FORWARD:          0	MERGED:    4037075	TO_CACHE:   10129814

STLB TOTAL     ACCESS:    1220211  HIT:    1218325  MISS:       1886  HIT %:    99.8454  MISS %:   0.154563   MPKI: 0.03772
STLB LOAD TRANSLATION INSTRUCTION	ACCESS:     496000  HIT:     495782  MISS:        218  HIT %:     99.956  MISS %:  0.0439516  MPKI: 0.00436
STLB LOAD TRANSLATION DATA	ACCESS:     478382  HIT:     476728  MISS:       1654  HIT %:    99.6543  MISS %:   0.345749  MPKI: 0.03308
STLB TRANSLATION FROM L1D PREFETCHER DATA	ACCESS:     245829  HIT:     245815  MISS:         14  HIT %:    99.9943  MISS %: 0.00569502  MPKI: 0.00028

STLB AVERAGE MISS LATENCY: 70.473 cycles
STLB RQ	ACCESS:    1343516	FORWARD:          0	MERGED:     123257	TO_CACHE:    1220259

STLB Hit, L1D data hit: 0
STLB Hit, L2C data hit: 0
STLB Hit, LLC data hit: 0
STLB Hit, LLC data miss: 0
STLB STLB hints to L2: 0
L1D TOTAL     ACCESS:   13960217  HIT:   12844701  MISS:    1115516  HIT %:    92.0093  MISS %:    7.99068   MPKI: 22.3103
L1D LOAD DATA	ACCESS:    7320305  HIT:    6585271  MISS:     735034  HIT %:     89.959  MISS %:     10.041  MPKI: 14.7007
L1D RFO DATA	ACCESS:    6311095  HIT:    6024124  MISS:     286971  HIT %:    95.4529  MISS %:    4.54709  MPKI: 5.73942
L1D PREFETCH DATA	ACCESS:     328817  HIT:     235306  MISS:      93511  HIT %:    71.5614  MISS %:    28.4386  MPKI: 1.87022

L1D PREFETCH  REQUESTED:     738290  ISSUED:     738290  USEFUL:      32599  USELESS:      67651
L1D USEFUL LOAD PREFETCHES:      32599 PREFETCH ISSUED TO LOWER LEVEL:     100299  ACCURACY: 32.5018
 TIMELY PREFETCHES:      32599 LATE PREFETCHES: 6736 DROPPED PREFETCHES: 8
L1D AVERAGE MISS LATENCY: 293327 cycles
L1D RQ	ACCESS:   11266427	FORWARD:          0	MERGED:    3755719	TO_CACHE:    7346192
L1D WQ	ACCESS:    6949899	FORWARD:     164700	MERGED:     129202	TO_CACHE:    6820697
L1D PQ	ACCESS:     369237	FORWARD:          0	MERGED:          0	TO_CACHE:     369053

L1D UNIQUE REGIONS ACCESSED: 0
L1D REGIONS CONFLICTS: 0
L1D Cross Page Prefetch Requests: 6788
L1D Same Page Prefetch Requests: 745962
L1D ROI Sum of L1D PQ occupancy: 4679912
L1D PREFETCHES PUSHED FROM L2C: 0
L1I TOTAL     ACCESS:    7060442  HIT:    4289468  MISS:    2770974  HIT %:    60.7535  MISS %:    39.2465   MPKI: 55.4195
L1I LOAD INSTRUCTION	ACCESS:    6727065  HIT:    3956091  MISS:    2770974  HIT %:    58.8086  MISS %:    41.1914  MPKI: 55.4195
L1I PREFETCH INSTRUCTION	ACCESS:     333377  HIT:     333377  MISS:          0  HIT %:        100  MISS %:          0  MPKI: 0

L1I PREFETCH  REQUESTED:     584178  ISSUED:     584178  USEFUL:          0  USELESS:          0
L1I USEFUL LOAD PREFETCHES:          0 PREFETCH ISSUED TO LOWER LEVEL:          0  ACCURACY: -nan
 TIMELY PREFETCHES:          0 LATE PREFETCHES: 0 DROPPED PREFETCHES: 0
L1I AVERAGE MISS LATENCY: 16.871 cycles
L1I RQ	ACCESS:    9469575	FORWARD:          0	MERGED:    2654731	TO_CACHE:    6814844
L1I PQ	ACCESS:     584178	FORWARD:          0	MERGED:     182951	TO_CACHE:     401227

L1BTB TOTAL     ACCESS:    5671148  HIT:    2032949  MISS:    3638199  HIT %:    35.8472  MISS %:    64.1528   MPKI: 72.764
L1BTB BRANCH_DIRECT_JUMP	ACCESS:     547550  HIT:     143671  MISS:     403879	AVERAGE STALL: 27.9028
L1BTB BRANCH_INDIRECT	ACCESS:     182352  HIT:      65534  MISS:     116818	AVERAGE STALL: 65.8294
L1BTB BRANCH_CONDITIONAL	ACCESS:    2697624  HIT:    1402625  MISS:    1294999	AVERAGE STALL: 29.4047
L1BTB BRANCH_DIRECT_CALL	ACCESS:     949024  HIT:     106962  MISS:     842062	AVERAGE STALL: 30.5799
L1BTB BRANCH_INDIRECT_CALL	ACCESS:     172785  HIT:      21966  MISS:     150819	AVERAGE STALL: 86.9884
L1BTB BRANCH_RETURN	ACCESS:    1121813  HIT:     292191  MISS:     829622	AVERAGE STALL: 29.1133
L1BTB BRANCH_OTHER ACCESS:          0  HIT:          0  MISS:          0	AVERAGE STALL: -nan
L1BTB TOTAL ROB OCCUPANCY AT BTB MISS: 20.0647

L2BTB TOTAL     ACCESS:    3612922  HIT:    2102158  MISS:    1510764  HIT %:    58.1844  MISS %:    41.8156   MPKI: 30.2153
L2BTB BRANCH_DIRECT_JUMP	ACCESS:     399781  HIT:     222080  MISS:     177701	AVERAGE STALL: 27.9028
L2BTB BRANCH_INDIRECT	ACCESS:     106526  HIT:      89810  MISS:      16716	AVERAGE STALL: 65.8294
L2BTB BRANCH_CONDITIONAL	ACCESS:    1294999  HIT:     758817  MISS:     536182	AVERAGE STALL: 29.4047
L2BTB BRANCH_DIRECT_CALL	ACCESS:     842062  HIT:     437786  MISS:     404276	AVERAGE STALL: 30.5799
L2BTB BRANCH_INDIRECT_CALL	ACCESS:     141346  HIT:      76631  MISS:      64715	AVERAGE STALL: 86.9884
L2BTB BRANCH_RETURN	ACCESS:     828208  HIT:     517034  MISS:     311174	AVERAGE STALL: 29.1133
L2BTB BRANCH_OTHER ACCESS:          0  HIT:          0  MISS:          0	AVERAGE STALL: -nan
L2BTB TOTAL ROB OCCUPANCY AT BTB MISS: 48.3196

L2C TOTAL     ACCESS:    4487232  HIT:    4052998  MISS:     434234  HIT %:    90.3229  MISS %:     9.6771   MPKI: 8.68468
L2C LOAD INSTRUCTION	ACCESS:    2770973  HIT:    2534927  MISS:     236046  HIT %:    91.4815  MISS %:    8.51852  MPKI: 4.72092
L2C LOAD TRANSLATION INSTRUCTION	ACCESS:        241  HIT:         64  MISS:        177  HIT %:     26.556  MISS %:     73.444  MPKI: 0.00354
L2C LOAD DATA	ACCESS:     728265  HIT:     663512  MISS:      64753  HIT %:    91.1086  MISS %:    8.89141  MPKI: 1.29506
L2C RFO DATA	ACCESS:     286917  HIT:     234309  MISS:      52608  HIT %:    81.6644  MISS %:    18.3356  MPKI: 1.05216
L2C PREFETCH DATA	ACCESS:     177615  HIT:     111289  MISS:      66326  HIT %:    62.6574  MISS %:    37.3426  MPKI: 1.32652
L2C WRITEBACK DATA	ACCESS:     521479  HIT:     508473  MISS:      13006  HIT %:    97.5059  MISS %:    2.49406  MPKI: 0.26012
L2C LOAD TRANSLATION DATA	ACCESS:       1705  HIT:        402  MISS:       1303  HIT %:    23.5777  MISS %:    76.4223  MPKI: 0.02606
L2C TRANSLATION FROM L1D PREFETCHER DATA	ACCESS:         37  HIT:         22  MISS:         15  HIT %:    59.4595  MISS %:    40.5405  MPKI: 0.0003

L2C PREFETCH  REQUESTED:      84159  ISSUED:      84159  USEFUL:       7558  USELESS:      59197
L2C USEFUL LOAD PREFETCHES:       7558 PREFETCH ISSUED TO LOWER LEVEL:      66752  ACCURACY: 11.3225
 TIMELY PREFETCHES:       7558 LATE PREFETCHES: 426 DROPPED PREFETCHES: 0
L2C AVERAGE MISS LATENCY: 38.7999 cycles
L2C RQ	ACCESS:    3788173	FORWARD:          0	MERGED:          0	TO_CACHE:    3788138
L2C WQ	ACCESS:     521479	FORWARD:         35	MERGED:          0	TO_CACHE:     521479
L2C PQ	ACCESS:     184458	FORWARD:          0	MERGED:       3804	TO_CACHE:     180654

L2C Dense regions hint from L2: 0
PSCL5 TOTAL     ACCESS:       3794  HIT:       1897  MISS:       1897  HIT %:         50  MISS %:         50   MPKI: 0.03794
PSCL5 LOAD TRANSLATION INSTRUCTION	ACCESS:       3726  HIT:       1863  MISS:       1863  HIT %:         50  MISS %:         50  MPKI: 0.03726
PSCL5 TRANSLATION FROM L1D PREFETCHER INSTRUCTION	ACCESS:         68  HIT:         34  MISS:         34  HIT %:         50  MISS %:         50  MPKI: 0.00068


PSCL4 TOTAL     ACCESS:       3707  HIT:       1851  MISS:       1856  HIT %:    49.9326  MISS %:    50.0674   MPKI: 0.03712
PSCL4 LOAD TRANSLATION INSTRUCTION	ACCESS:       1823  HIT:       1818  MISS:          5  HIT %:    99.7257  MISS %:   0.274273  MPKI: 0.0001
PSCL4 TRANSLATION FROM L1D PREFETCHER INSTRUCTION	ACCESS:         33  HIT:         33  MISS:          0  HIT %:        100  MISS %:          0  MPKI: 0
PSCL4 LOAD TRANSLATION DATA	ACCESS:       1818  HIT:          0  MISS:       1818  HIT %:          0  MISS %:        100  MPKI: 0.03636
PSCL4 TRANSLATION FROM L1D PREFETCHER DATA	ACCESS:         33  HIT:          0  MISS:         33  HIT %:          0  MISS %:        100  MPKI: 0.00066


PSCL3 TOTAL     ACCESS:       3763  HIT:       1879  MISS:       1884  HIT %:    49.9336  MISS %:    50.0664   MPKI: 0.03768
PSCL3 LOAD TRANSLATION INSTRUCTION	ACCESS:       1851  HIT:       1846  MISS:          5  HIT %:    99.7299  MISS %:   0.270124  MPKI: 0.0001
PSCL3 TRANSLATION FROM L1D PREFETCHER INSTRUCTION	ACCESS:         33  HIT:         33  MISS:          0  HIT %:        100  MISS %:          0  MPKI: 0
PSCL3 LOAD TRANSLATION DATA	ACCESS:       1846  HIT:          0  MISS:       1846  HIT %:          0  MISS %:        100  MPKI: 0.03692
PSCL3 TRANSLATION FROM L1D PREFETCHER DATA	ACCESS:         33  HIT:          0  MISS:         33  HIT %:          0  MISS %:        100  MPKI: 0.00066


PSCL2 TOTAL     ACCESS:       3718  HIT:       1821  MISS:       1897  HIT %:    48.9779  MISS %:    51.0221   MPKI: 0.03794
PSCL2 LOAD TRANSLATION INSTRUCTION	ACCESS:       2007  HIT:       1788  MISS:        219  HIT %:    89.0882  MISS %:    10.9118  MPKI: 0.00438
PSCL2 TRANSLATION FROM L1D PREFETCHER INSTRUCTION	ACCESS:         33  HIT:         33  MISS:          0  HIT %:        100  MISS %:          0  MPKI: 0
PSCL2 LOAD TRANSLATION DATA	ACCESS:       1645  HIT:          0  MISS:       1645  HIT %:          0  MISS %:        100  MPKI: 0.0329
PSCL2 TRANSLATION FROM L1D PREFETCHER DATA	ACCESS:         33  HIT:          0  MISS:         33  HIT %:          0  MISS %:        100  MPKI: 0.00066


LLC TOTAL     ACCESS:     493924  HIT:     466541  MISS:      27383  HIT %:     94.456  MISS %:    5.54397   MPKI: 0.54766
LLC LOAD INSTRUCTION	ACCESS:     236046  HIT:     235375  MISS:        671  HIT %:    99.7157  MISS %:   0.284267  MPKI: 0.01342
LLC LOAD TRANSLATION INSTRUCTION	ACCESS:        177  HIT:        146  MISS:         31  HIT %:    82.4859  MISS %:    17.5141  MPKI: 0.00062
LLC LOAD DATA	ACCESS:      64335  HIT:      60961  MISS:       3374  HIT %:    94.7556  MISS %:    5.24442  MPKI: 0.06748
LLC RFO DATA	ACCESS:      52600  HIT:      39623  MISS:      12977  HIT %:    75.3289  MISS %:    24.6711  MPKI: 0.25954
LLC PREFETCH DATA	ACCESS:      66752  HIT:      56782  MISS:       9970  HIT %:    85.0641  MISS %:    14.9359  MPKI: 0.1994
LLC WRITEBACK DATA	ACCESS:      72696  HIT:      72404  MISS:        292  HIT %:    99.5983  MISS %:   0.401673  MPKI: 0.00584
LLC LOAD TRANSLATION DATA	ACCESS:       1303  HIT:       1237  MISS:         66  HIT %:    94.9348  MISS %:    5.06523  MPKI: 0.00132
LLC TRANSLATION FROM L1D PREFETCHER DATA	ACCESS:         15  HIT:         13  MISS:          2  HIT %:    86.6667  MISS %:    13.3333  MPKI: 4e-05

LLC AVERAGE MISS LATENCY: 152.818 cycles
LLC RQ	ACCESS:     354476	FORWARD:          0	MERGED:          0	TO_CACHE:     354476
LLC WQ	ACCESS:      72696	FORWARD:          0	MERGED:          0	TO_CACHE:      72696
LLC PQ	ACCESS:      66752	FORWARD:          0	MERGED:          0	TO_CACHE:      66752

LLC Dense regions hint to LLC: 0

RAW hits: 1363842
Loads Generated: 12630270
Loads sent to L1D: 11266427
Stores Generated: 6949891
Stores sent to L1D: 6949899
Major fault: 0 Minor fault: 2589
Allocated PAGES: 2589

stream: 
stream:times selected: 1171535
stream:pref_filled: 120296
stream:pref_useful: 23880
stream:pref_late: 6474
stream:misses: 7646
stream:misses_by_poll: 0

CS: 
CS:times selected: 174479
CS:pref_filled: 59984
CS:pref_useful: 36759
CS:pref_late: 6419
CS:misses: 15679
CS:misses_by_poll: 6

CPLX: 
CPLX:times selected: 996033
CPLX:pref_filled: 20655
CPLX:pref_useful: 4600
CPLX:pref_late: 3093
CPLX:misses: 92807
CPLX:misses_by_poll: 2

NL_L1: 
NL:times selected: 20134
NL:pref_filled: 698
NL:pref_useful: 323
NL:pref_late: 284
NL:misses: 1583
NL:misses_by_poll: 0

total selections: 2362181
total_filled: 93511
total_useful: 32599
total_late: 17313
total_polluted: 8
total_misses_after_warmup: 760920
conflicts: 5898408

test: 114786

DRAM Statistics
 CHANNEL 0
 RQ ROW_BUFFER_HIT:      10270  ROW_BUFFER_MISS:      16814
 DBUS_CONGESTED:          9
 WQ ROW_BUFFER_HIT:       1228  ROW_BUFFER_MISS:      11585  FULL:          0

 AVG_CONGESTED_CYCLE: 5

CPU 0 Branch Prediction Accuracy: 99.8272% MPKI: 0.31622 Average ROB Occupancy at Mispredict: 94.3357
Branch types
NOT_BRANCH: 40847927 81.6959%
BRANCH_DIRECT_JUMP: 547550 1.0951%
BRANCH_INDIRECT: 182352 0.364704%
BRANCH_CONDITIONAL: 6178077 12.3562%
BRANCH_DIRECT_CALL: 949024 1.89805%
BRANCH_INDIRECT_CALL: 172785 0.34557%
BRANCH_RETURN: 1121813 2.24363%
BRANCH_OTHER: 0 0%

DRAM PAGES: 1048576
Allocated PAGES: 2589
Average_ROB_Occupancy: 57.2408
Average_Decode_Occupancy: 6.67723
Average_FTQ_Occupancy: 3.53267
Indirect max targets: 14 Average targets: 1.17778
Branch_type:  BRANCH_DIRECT_JUMP:  Count Percentage: 4.12616 5.68841 3.63391 2.28158 8.16701 6.32443 1.45656 68.3219 
Branch_type:  BRANCH_INDIRECT:  Count Percentage: 11.7649 3.39009 2.49567 13.3009 3.35471 2.81794 0.939132 61.9366 
Branch_type:  BRANCH_CONDITIONAL:  Count Percentage: 25.784 2.25495 2.06737 3.01979 3.25032 4.63142 3.73058 55.2615 
Branch_type:  BRANCH_DIRECT_CALL:  Count Percentage: 0.386717 1.80401 0.716855 1.46601 5.2319 2.60505 1.0282 86.7613 
Branch_type:  BRANCH_INDIRECT_CALL:  Count Percentage: 9.53175 0 2.98761 0.000869923 1.36056 1.70998 0.992872 83.4164 
Branch_type:  BRANCH_RETURN:  Count Percentage: 7.49508 2.02348 2.23353 3.08556 3.44563 5.11457 3.61051 72.9916 
Branch_type:  BRANCH_DIRECT_JUMP:  Total Count: 45172 62275 39783 24978 89410 69238 15946 747968 
Branch_type:  BRANCH_INDIRECT:  Total Count: 42894 12360 9099 48494 12231 10274 3424 225816 
Branch_type:  BRANCH_CONDITIONAL:  Total Count: 3184467 278498 255331 372960 401432 572005 460747 6825091 
Branch_type:  BRANCH_DIRECT_CALL:  Total Count: 7327 34180 13582 27776 99127 49357 19481 1643836 
Branch_type:  BRANCH_INDIRECT_CALL:  Total Count: 32871 0 10303 3 4692 5897 3424 287668 
Branch_type:  BRANCH_RETURN:  Total Count: 167920 45334 50040 69129 77196 114587 80890 1635306 
Number of unique branch instructions: 10811
Upper 32 bits: 
aaaa
ffff
ffff0000
Unique upper 32 bits: 3
Unique upper 36 bits: 3
Unique upper 40 bits: 5
Unique upper 44 bits: 32
Unique upper 48 bits: 158
Offset_3 4470
Offset_4 255
Offset_5 484
Offset_6 541
Offset_7 643
Offset_8 577
Offset_9 523
Offset_10 426
Offset_11 360
Offset_12 327
Offset_13 240
Offset_14 247
Offset_15 194
Offset_16 233
Offset_17 169
Offset_18 149
Offset_19 257
Offset_20 143
Offset_21 235
Offset_22 413
Offset_23 241
Offset_24 351
Offset_25 117
Offset_47 94
Offset_64 2
decode_dispatch_called: 21055573 31.6209
Dispatch_width: 0 10622536 50.45 15.9527
Dispatch_width: 1 666432 3.16511 1.00084
Dispatch_width: 2 934204 4.43685 1.40297
Dispatch_width: 3 641929 3.04874 0.964037
Dispatch_width: 4 1555551 7.38784 2.3361
Dispatch_width: 5 492673 2.33987 0.739887
Dispatch_width: 6 6142248 29.1716 9.22432
Empty_decode_cycles: 45532001 68.3791
ROB_full_cycles: 1292256 1.94069
Starvation_cycles_per_kilo_instr: 591.531
Starvation_cycles_per_kilo_instr_3: 571.048
Starvation_cycles_per_kilo_instr_0: 548.623
Branch_type_1  (3,1)  (4,9)  (5,39)  (6,74)  (7,126)  (8,148)  (9,136)  (10,110)  (11,78)  (12,55)  (13,11)  (14,2)  (15,3)  (16,4)  (18,1)  (19,5)  (20,2)  (21,1)  (22,3)  (23,2)  (24,10)  (25,12) 
Branch_type_2  (3,1)  (4,1)  (5,1)  (8,4)  (9,4)  (10,1)  (12,1)  (13,1)  (14,1)  (16,3)  (17,2)  (20,2)  (21,2)  (23,5)  (24,1)  (47,43) 
Branch_type_3  (3,4468)  (4,245)  (5,440)  (6,451)  (7,487)  (8,360)  (9,288)  (10,172)  (11,146)  (12,62)  (13,10)  (64,2) 
Branch_type_4  (6,3)  (7,8)  (8,25)  (9,56)  (10,68)  (11,70)  (12,117)  (13,102)  (14,112)  (15,92)  (16,102)  (17,79)  (18,65)  (19,125)  (20,73)  (21,124)  (22,219)  (23,136)  (24,206)  (25,101) 
Branch_type_5  (8,3)  (9,1)  (10,4)  (11,5)  (12,3)  (13,14)  (14,16)  (15,11)  (16,22)  (17,11)  (18,23)  (19,14)  (20,11)  (21,13)  (22,43)  (23,26)  (24,38) 
Branch_type_6  (5,4)  (6,13)  (7,22)  (8,37)  (9,38)  (10,71)  (11,61)  (12,89)  (13,102)  (14,116)  (15,88)  (16,102)  (17,77)  (18,60)  (19,113)  (20,55)  (21,95)  (22,148)  (23,72)  (24,96)  (25,4)  (47,51) 
aaaaab1fc620: 2ac9e77e 2aca717c 2aca8eff 2acaf6bc 2acaf9aa 2acaf9f1 2acb1abc 2acb1b7f 2acd4e22 2acdb712 2acf5f9e 2ad0ef44 2ad3f15c 2ad414e6 2ad60e42 2ad8609c 2ad99830 2ada35cc 2ada4676 2ada6612 2adf183e 2adf30e5 2adf5602 2adf785c 2ae11572 2aeb2dcf 2aee101b 2aee1ae1 2aee9456 2b156a8c 2b156b61 2b156bea 2b167f35 2b177656 2b17feec 2b1a3e5a 
aaaaab1fc640: 2ac9ec07 2aca656e 2aca801d 2acaea11 2acaee73 2acb13ee 2acb1470 2acd462b 2ad0ef5d 2ad3f3fe 2ad86e9b 2ada1641 2ada4115 2ada6638 2adf30d4 2ae12e57 2aee1033 2b1693ab 2b16948c 2b169491 2b17d915 2b17fa85 2b17fccd 
aaaaab1fc740: 2aca1fb0 2aca45b3 2aca5aa1 2aca5c69 2aca66f9 2aca9426 2acaeecb 2acf3d2d 2acf3d64 2acf6089 2ad017ea 2ad5e7ef 2ad61064 2ad87373 2ad9bf84 2ad9c093 2ae9b606 2aea9ffa 2aee99f5 2aee9a2c 2aeece4b 
aaaaab1fcb00: 2acf2d72 2acf3734 2acf604c 2acfa5b7 2ad397b5 2ad3b800 2ae8af7d 2ae8aff0 2ae9aaba 2aea9fc6 2aeaa358 2aee910b 2aee91cf 2aee928e 2aee92e4 2aee99de 2af6fe87 2af70dfe 2b16850c 2b16c4a2 2b1765f4 2b178094 2b17d925 2b17db06 2b17ec8f 
aaaaab1fcb10: 2acf2d95 2acf3758 2acf6052 2acfa5f4 2ad397c3 2ad3b81c 2ae8af88 2ae8affe 2ae9aacf 2aeaa017 2aeaa36d 2aee9114 2aee91d8 2aee934d 2aee9353 2aee9a14 2af6fe8c 2af70e22 2b168526 2b16c542 2b176609 2b1780a3 2b17d95d 2b17db44 2b17ecac 
aaaaac68f310: 2ac9ec8c 2ac9fb44 2ac9fbd2 2aca59ab 2acac04c 2acaf6e0 2acaf6ec 2acaf6f9 2acaf700 2acaf708 2acf2d90 2ad3cfbd 2ad3cfc4 2ad3d000 2ad3f35f 2ad4955d 2ad49571 2ad4f3f2 2ad4f400 2ad5f240 2ad5f37c 2ad5f86a 2ad5f86f 2ad5f880 2ad5fc0d 2ad5fc14 2ad5fc21 2ad5fe1b 2ad873bb 2ad873e3 2ad8a6b2 2ad9086e 2ad93096 2ad9bbb2 2ada152c 2ada1554 2ada3332 2ada5522 2adf3130 2adf313c 2adf3a3f 2adf3bd9 2adf5788 2adf7a8d 2ae07f6b 2ae0857a 2ae0857e 2ae08630 2ae08634 2ae08637 2ae08642 2ae0866f 2ae086e4 2ae086ec 2ae08717 2ae0871b 2aee0170 2aee1d38 2aee75f4 2aee7662 2aee85ca 2aee85e4 2aee8eef 2aee9a0a 2af70b84 2af74e8f 2b17d843 
aaaaac690ef0: 2aca598b 2acb111b 2acb175f 2acb1772 2acbfaf4 2acbfb00 2acf374f 2acf6d43 2acfa5c8 2ad3baf1 2ad3d4ac 2ad3d4b8 2ad3f1cf 2ad486b2 2ad5a59b 2ad5fc64 2ad5fcf9 2ad6121c 2ad906e9 2ad907bf 2ad9bada 2ada16ce 2ada1ad5 2ada43df 2ada64c0 2ada72ee 2adeb71a 2adf3bcb 2adf7a38 2adf7c6a 2adf8872 2adf8880 2adf9959 2adf9abe 2ae07f78 2ae08503 2ae08754 2ae12e80 2aea3bea 2aecb509 2aee00b0 2aee2bdd 2aee5467 2aee5601 2aee8f20 2af703fd 2af7048b 2af74e74 2dfba627 
Unique trigger count: 
1 10298
2 556
3 94
4 32
5 16
6 9
7 8
8 1
9 3
10 3
11 1
12 1
13 2
14 2
16 2
19 1
21 1
23 1
25 2
36 1
49 1
67 1
BTB PER SET UNIQUE ADDR: 6 7 6 5 3 4 7 9 10 2 5 2 8 5 4 4 6 4 8 9 5 8 8 8 8 11 1 7 6 6 10 10 6 5 8 4 4 7 7 3 8 5 7 10 9 9 6 12 11 6 5 3 13 2 2 7 5 5 9 8 4 12 5 8 6 9 9 9 6 7 6 2 6 5 6 7 6 15 6 5 9 6 7 6 7 8 7 8 8 10 10 9 9 6 8 5 10 8 5 6 8 7 9 9 7 8 7 8 7 5 7 7 4 8 6 11 3 8 6 2 8 9 4 3 6 4 4 7 11 9 11 3 11 6 9 6 5 3 6 8 8 8 7 6 5 11 5 8 12 7 7 14 6 10 5 9 8 9 6 11 10 8 11 5 12 8 3 4 13 7 6 4 7 7 4 3 6 8 10 5 6 8 10 8 9 12 6 6 6 8 6 8 6 7 6 10 12 4 11 6 4 6 9 4 8 4 5 8 7 2 3 6 9 9 7 6 4 9 8 6 6 4 6 7 6 8 14 7 3 11 14 9 4 4 7 9 11 5 4 5 5 3 10 8 17 11 2 7 6 7 9 10 6 7 5 13 4 8 11 6 8 5 7 4 9 16 7 5 7 5 7 7 4 8 10 8 7 3 4 8 9 5 10 5 9 9 7 7 8 4 5 7 4 10 7 4 6 10 6 6 6 6 5 4 6 5 6 4 13 9 7 5 8 4 6 5 10 14 7 6 7 11 5 8 5 6 6 10 3 3 9 2 6 7 10 5 7 8 8 1 6 6 2 9 7 7 3 8 10 6 5 13 11 6 8 7 7 2 8 5 7 10 6 8 11 8 4 4 4 4 8 4 6 5 8 4 11 7 6 10 9 7 6 12 6 4 8 5 8 4 9 5 8 4 7 4 5 6 2 9 7 5 8 7 5 6 9 6 5 3 5 4 12 7 2 6 10 4 2 7 2 6 7 7 10 9 4 2 4 8 4 4 16 5 8 10 6 6 7 4 5 6 10 4 7 9 6 7 5 4 6 3 5 3 9 3 6 8 10 6 5 4 7 12 5 5 12 3 6 7 2 6 10 7 4 3 10 5 3 3 5 2 3 4 3 7 8 3 7 2 13 5 5 8 1 13 4 7 6 4 11 3 5 3 2 5 5 3 5 6 8 4 8 11 3 4 2 10 6 9 7 5 8 6 11 9 6 10 9 8 8 6 6 8 5 8 7 1 6 4 5 8 11 4 9 5 10 14 14 11 7 9 7 8 2 6 9 3 7 4 11 5 9 5 5 6 10 9 11 7 8 4 11 12 7 7 7 12 3 9 13 5 2 6 5 3 3 14 8 6 8 9 4 7 5 5 10 5 6 5 13 5 10 11 9 5 5 9 9 5 8 8 8 7 8 5 7 5 5 7 9 7 11 4 5 11 8 8 4 6 8 7 7 7 7 8 6 7 6 4 11 8 4 6 3 3 7 8 8 8 7 5 11 3 5 4 11 5 6 8 12 3 6 11 8 8 7 6 6 11 7 8 6 7 11 10 8 6 8 6 9 12 9 6 8 8 7 9 8 6 3 8 3 5 5 7 10 7 7 9 3 12 6 5 7 12 3 4 5 5 7 8 6 5 5 7 12 6 1 8 5 3 5 4 4 3 3 9 2 11 8 11 8 2 7 8 10 3 6 4 5 8 5 10 4 5 6 4 7 7 6 3 4 7 2 5 5 10 9 4 5 6 6 7 7 6 14 6 6 3 9 6 0 5 7 5 6 10 4 3 8 6 4 6 11 9 9 8 3 9 3 9 6 7 6 13 12 5 6 4 13 4 9 4 7 7 7 9 5 7 3 4 6 5 5 6 1 5 5 10 7 4 9 4 5 6 6 4 7 6 7 3 7 4 10 5 4 5 6 5 5 5 7 6 5 8 9 6 7 4 8 8 6 9 6 11 7 5 8 6 8 7 4 4 14 7 6 8 10 10 4 7 6 10 7 2 2 6 7 4 5 7 6 7 10 5 7 5 5 7 9 3 5 8 6 3 9 13 5 3 12 9 5 6 10 7 7 11 6 9 10 7 5 4 3 10 6 7 8 6 9 7 10 6 9 8 7 5 5 12 6 4 11 10 6 8 10 10 3 9 8 9 7 4 6 8 9 7 9 6 9 5 13 7 5 6 9 13 6 10 6 6 11 5 3 9 10 9 10 5 3 5 3 9 12 6 8 5 4 7 13 6 4 5 5 7 4 5 9 8 8 7 7 11 5 11 6 11 5 6 5 5 6 4 8 6 7 6 7 6 9 4 9 6 11 5 9 5 3 8 11 6 15 5 
BTB PER SET COUNT: 9 6882 6890 6 4 4 2650 6885 8366 3 1440 2 3358 1440 4 6 1938 4 2036 6527 6 3330 1018 3368 7882 9839 1 772 3018 29 9795 7020 5444 7 3042 4 2949 2418 866 3 2411 752 47 3609 10827 775 2400 7841 9013 3230 559 3 14249 2 2 3354 1005 7360 6411 5647 5 8961 10 3359 32 7406 2041 1930 1445 2684 3520 2 33 8 1328 2875 720 9210 1005 9 3069 5443 2650 2644 1920 4236 1930 2893 9312 4771 7700 4016 3838 4492 1928 10 6849 2884 7 968 2431 1111 3371 5260 12 6407 1923 3814 3354 1439 2402 13 4 5115 23 10700 4 1934 1550 2 3356 5974 5 3 3291 4 4 5416 10430 1922 4824 3 10541 8 8834 1919 1439 3 32 8352 6497 8003 1454 4973 5 4262 7 6879 7702 2398 1212 10793 2875 11778 8 5891 7839 8357 2141 8478 11781 2590 9948 2584 7855 3909 3 4 13770 1921 8 4 1136 158 4 3 25 1922 6565 7 148 1445 9832 354 1456 10311 4009 28 6405 6855 42 7001 1446 2876 2874 2885 9865 4 1944 10 5 522 6376 5 5459 4 1439 4505 764 2 3 3506 2297 6502 5379 5446 4 4256 1206 7357 465 4 2078 6886 6401 6405 12321 5368 3 11300 11781 6941 4 4 34 7876 3836 7 4 8 12 4 10786 2351 13743 7128 3 3977 964 12 8839 9460 6920 1925 21 7894 4 3255 3849 1441 3711 1001 2833 4 5602 13041 1498 7 2405 2396 2897 2397 4 7359 3846 2898 1916 3 4 3362 3315 9 2938 997 9356 8796 2877 3769 1971 4 1917 3354 482 7882 2875 5 27 7839 2396 4453 2874 1919 9 5 2166 12 1011 4 7638 5152 1260 5 3095 4 1251 6 3838 9322 2877 10 3523 5094 1002 7354 41 2396 26 3420 3 3 4936 2 1177 2174 10216 7 3833 2399 2408 1 18 1011 3 4111 1163 1153 3 1011 3215 11 6 7447 6412 4323 2913 30 9309 2 6407 1956 2398 4707 31 3129 4057 7049 4 4 4 4 2883 6 2167 751 2621 4 8523 38 1440 4086 3364 3353 2874 11025 35 4 1939 1002 760 5 4661 21 3837 6 5453 5 3545 4019 4 1938 2758 8 2772 1440 764 29 4636 12 6 2348 7 4 4356 11 994 964 1780 4 2 1851 2 968 768 1971 5939 1019 6 2 4 2414 151 4 8897 1834 6724 9343 1457 5981 2876 4 6 975 3021 4 1924 3132 10 3391 21 4 2874 3 5 3 9433 3 10 1512 7371 25 970 4 2163 7377 984 24 8123 3 29 1457 2 1266 7357 830 141 3 26475 1001 3 3 29 2 3 482 5 2487 2619 365 1853 2 6632 6 6 6958 1 10387 4 2405 11 4 11540 16 7 3 2 1439 22 3 5 47 2490 4 340 6865 4 4 2 12293 24 2896 2400 1480 2411 437 4521 6850 10 5900 7883 5863 18 2575 9 538 8 2879 9 1 1015 4 9 6373 6956 4 5237 25 2093 4572 10757 10707 1447 7884 1471 6875 2 1906 4838 3 2398 5 10382 7 6404 8 3471 963 6413 2791 7877 2913 7439 4 8358 11308 5449 2887 4729 9828 3 7220 11929 337 2 2875 1479 3 3 10752 2907 27 4707 3358 4 1958 999 1917 49 1918 10 8 6840 2395 9352 4487 5897 2883 7 8195 7881 1474 3834 1826 2399 3501 7877 7 4521 1917 28 5448 2770 2188 7846 4 1494 4321 2408 6417 7 2395 6402 10307 1924 39 8355 13 1012 13 964 4 10793 3989 4 33 3 3 1451 2399 8369 27 5893 8 12774 3 961 4 9873 1439 8281 3835 16058 3 1924 12063 6367 3841 5356 979 26 4324 4431 7834 2400 2872 10230 4052 2882 2397 7514 2397 8358 10834 2536 6847 21089 3611 2415 6885 2963 2400 3 2969 3 9 7 2398 8366 2400 1459 1479 3 9800 9 2395 5635 7367 3 1476 1916 2432 5922 2411 3990 961 3286 3254 9327 3608 1 7364 8 3 4415 4 5 3 3 8266 2 10313 6881 9673 8831 2 1930 4751 4483 3 1924 4 8 5974 24 12808 4 7 2400 4 1443 3356 7361 3 4 530 2 1439 8 9794 10341 996 7 7363 5890 2175 3986 2166 12777 758 2413 3 2902 775 0 1960 69 1478 4969 4284 4 3 4901 18 4 5970 5550 7400 3335 109 411 3834 3 4192 15 1935 2586 10371 7925 8 1916 4 9916 4 7344 5 2944 3774 4974 9354 12 32 3 5 1420 522 10 32 2 41 8 7271 648 4 5910 392 1440 12 1747 4 2402 2397 4221 3 7395 4 10866 2162 5 6 2875 8 2115 9 1921 5962 6 3130 6381 1442 1449 4 8795 3196 2874 5418 2396 12293 2878 7 6885 3728 1775 7362 4 4 10868 1018 760 9792 10270 8312 4 5964 2875 6973 5446 2 2 1444 66 5 11 8356 43 3776 6958 1089 3354 9 8 3374 6892 3 13 2780 1531 3 3797 7177 8 3 5392 4706 102 78 2829 2595 21 5697 194 4007 3334 1462 7 4 3 3361 10 966 7838 2797 6780 1925 8364 4971 6930 3183 2404 6 1917 3894 23 486 8107 5662 1442 3833 7240 8810 3 3361 3157 3819 11 996 1331 3356 2422 2364 5350 9 6496 6 10338 3847 7 1668 8173 11236 3570 5060 1917 1924 9793 4971 4 3488 5347 2767 3367 7 3 1439 3 8205 5762 1770 7407 18 4 2406 9801 34 483 519 1917 2405 4 6 3375 2402 6399 1934 3356 9282 7 3368 2397 5773 6 1449 8 7 1416 4 1922 38 5889 10 1923 10 7853 4 10353 1803 6327 7 2772 8 4 40 4870 2174 6647 24 
