
*** ChampSim Multicore Out-of-Order Simulator ***

Warmup Instructions: 50000000
Simulation Instructions: 50000000
Number of CPUs: 1
LLC sets: 2048
LLC ways: 16
Off-chip DRAM Size: 4096 MB Channels: 1 Width: 64-bit Data Rate: 6400 MT/s
CPU 0 runs ./micro_traces/srv109.trace.gz
.gz
ITLB has LRU replacement policy
DTLB has LRU replacement policy
STLB has LRU replacement policy
FDIP Prefetcher at L1I
L1I has LRU replacement policy
L1D has LRU replacement policy
Initialize SRRIP state for L2C
Initialize DRRIP state for LLC
Heartbeat_Variant_0 : 1353 0.330322 per_variant_size: 0 1353 0 0 0 0 0 0 0 
Heartbeat_Variant_1 : 2633 0.642822 per_variant_size: 0 503 2130 0 0 0 0 0 0 
Heartbeat_Variant_2 : 0 0 per_variant_size: 0 0 0 0 0 0 0 0 0 
Heartbeat_Variant_3 : 0 0 per_variant_size: 0 0 0 0 0 0 0 0 0 
Heartbeat_Variant_0_evicts 0 : 5835 1 : 778 2 : 0 3 : 0 
Heartbeat_Variant_1_evicts 0 : 741 1 : 0 2 : 0 3 : 0 
Heartbeat_Variant_2_evicts 0 : 0 1 : 0 2 : 0 3 : 0 
Heartbeat_Variant_3_evicts 0 : 0 1 : 0 2 : 0 3 : 0 
Heartbeat CPU 0 instructions: 10000001 cycles: 2797625 heartbeat IPC: 3.57446 cumulative IPC: 3.57446 (Simulation time: 0 hr 1 min 34 sec) 
Heartbeat_Variant_0 : 1348 0.329102 per_variant_size: 0 1348 0 0 0 0 0 0 0 
Heartbeat_Variant_1 : 2644 0.645508 per_variant_size: 0 524 2120 0 0 0 0 0 0 
Heartbeat_Variant_2 : 0 0 per_variant_size: 0 0 0 0 0 0 0 0 0 
Heartbeat_Variant_3 : 0 0 per_variant_size: 0 0 0 0 0 0 0 0 0 
Heartbeat_Variant_0_evicts 0 : 5614 1 : 104 2 : 0 3 : 0 
Heartbeat_Variant_1_evicts 0 : 111 1 : 0 2 : 0 3 : 0 
Heartbeat_Variant_2_evicts 0 : 0 1 : 0 2 : 0 3 : 0 
Heartbeat_Variant_3_evicts 0 : 0 1 : 0 2 : 0 3 : 0 
Heartbeat CPU 0 instructions: 20000003 cycles: 5593648 heartbeat IPC: 3.57651 cumulative IPC: 3.57548 (Simulation time: 0 hr 3 min 3 sec) 
Heartbeat_Variant_0 : 1338 0.32666 per_variant_size: 0 1338 0 0 0 0 0 0 0 
Heartbeat_Variant_1 : 2685 0.655518 per_variant_size: 0 506 2179 0 0 0 0 0 0 
Heartbeat_Variant_2 : 0 0 per_variant_size: 0 0 0 0 0 0 0 0 0 
Heartbeat_Variant_3 : 0 0 per_variant_size: 0 0 0 0 0 0 0 0 0 
Heartbeat_Variant_0_evicts 0 : 5720 1 : 348 2 : 0 3 : 0 
Heartbeat_Variant_1_evicts 0 : 366 1 : 0 2 : 0 3 : 0 
Heartbeat_Variant_2_evicts 0 : 0 1 : 0 2 : 0 3 : 0 
Heartbeat_Variant_3_evicts 0 : 0 1 : 0 2 : 0 3 : 0 
Heartbeat CPU 0 instructions: 30000001 cycles: 8390905 heartbeat IPC: 3.57493 cumulative IPC: 3.5753 (Simulation time: 0 hr 4 min 35 sec) 
Heartbeat_Variant_0 : 1362 0.33252 per_variant_size: 0 1362 0 0 0 0 0 0 0 
Heartbeat_Variant_1 : 2676 0.65332 per_variant_size: 0 492 2184 0 0 0 0 0 0 
Heartbeat_Variant_2 : 0 0 per_variant_size: 0 0 0 0 0 0 0 0 0 
Heartbeat_Variant_3 : 0 0 per_variant_size: 0 0 0 0 0 0 0 0 0 
Heartbeat_Variant_0_evicts 0 : 5646 1 : 283 2 : 0 3 : 0 
Heartbeat_Variant_1_evicts 0 : 264 1 : 0 2 : 0 3 : 0 
Heartbeat_Variant_2_evicts 0 : 0 1 : 0 2 : 0 3 : 0 
Heartbeat_Variant_3_evicts 0 : 0 1 : 0 2 : 0 3 : 0 
Heartbeat CPU 0 instructions: 40000001 cycles: 11187636 heartbeat IPC: 3.5756 cumulative IPC: 3.57538 (Simulation time: 0 hr 6 min 9 sec) 
Heartbeat_Variant_0 : 1369 0.334229 per_variant_size: 0 1369 0 0 0 0 0 0 0 
Heartbeat_Variant_1 : 2677 0.653564 per_variant_size: 0 495 2182 0 0 0 0 0 0 
Heartbeat_Variant_2 : 0 0 per_variant_size: 0 0 0 0 0 0 0 0 0 
Heartbeat_Variant_3 : 0 0 per_variant_size: 0 0 0 0 0 0 0 0 0 
Heartbeat_Variant_0_evicts 0 : 5596 1 : 134 2 : 0 3 : 0 
Heartbeat_Variant_1_evicts 0 : 129 1 : 0 2 : 0 3 : 0 
Heartbeat_Variant_2_evicts 0 : 0 1 : 0 2 : 0 3 : 0 
Heartbeat_Variant_3_evicts 0 : 0 1 : 0 2 : 0 3 : 0 
Heartbeat CPU 0 instructions: 50000000 cycles: 13985296 heartbeat IPC: 3.57442 cumulative IPC: 3.57518 (Simulation time: 0 hr 7 min 41 sec) 

Warmup complete CPU 0 instructions: 50000004 cycles: 13985297 (Simulation time: 0 hr 7 min 41 sec) 

Cycle: 20000000 FTQ IN: 58301752 FTQ occupancy: 20.6893 DECODE IN: 58301620 DECODE occupancy: 53.2933 ROB IN: 58301620 ROB occupancy: 317.058 ROB OUT: 58301408
Heartbeat_Variant_0 : 1379 0.33667 per_variant_size: 0 1379 0 0 0 0 0 0 0 
Heartbeat_Variant_1 : 2681 0.654541 per_variant_size: 0 499 2182 0 0 0 0 0 0 
Heartbeat_Variant_2 : 0 0 per_variant_size: 0 0 0 0 0 0 0 0 0 
Heartbeat_Variant_3 : 0 0 per_variant_size: 0 0 0 0 0 0 0 0 0 
Heartbeat_Variant_0_evicts 0 : 5810 1 : 497 2 : 0 3 : 0 
Heartbeat_Variant_1_evicts 0 : 493 1 : 0 2 : 0 3 : 0 
Heartbeat_Variant_2_evicts 0 : 0 1 : 0 2 : 0 3 : 0 
Heartbeat_Variant_3_evicts 0 : 0 1 : 0 2 : 0 3 : 0 
Heartbeat CPU 0 instructions: 60000000 cycles: 21232605 heartbeat IPC: 1.37982 cumulative IPC: 1.37982 (Simulation time: 0 hr 9 min 24 sec) 
Heartbeat_Variant_0 : 1384 0.337891 per_variant_size: 0 1384 0 0 0 0 0 0 0 
Heartbeat_Variant_1 : 2679 0.654053 per_variant_size: 0 485 2194 0 0 0 0 0 0 
Heartbeat_Variant_2 : 0 0 per_variant_size: 0 0 0 0 0 0 0 0 0 
Heartbeat_Variant_3 : 0 0 per_variant_size: 0 0 0 0 0 0 0 0 0 
Heartbeat_Variant_0_evicts 0 : 5620 1 : 146 2 : 0 3 : 0 
Heartbeat_Variant_1_evicts 0 : 141 1 : 0 2 : 0 3 : 0 
Heartbeat_Variant_2_evicts 0 : 0 1 : 0 2 : 0 3 : 0 
Heartbeat_Variant_3_evicts 0 : 0 1 : 0 2 : 0 3 : 0 
Heartbeat CPU 0 instructions: 70000001 cycles: 28481384 heartbeat IPC: 1.37954 cumulative IPC: 1.37968 (Simulation time: 0 hr 11 min 14 sec) 
Cycle: 30000000 FTQ IN: 13831018 FTQ occupancy: 15.9951 DECODE IN: 13831009 DECODE occupancy: 39.3504 ROB IN: 13830949 ROB occupancy: 251.176 ROB OUT: 13830809
Heartbeat_Variant_0 : 1387 0.338623 per_variant_size: 0 1387 0 0 0 0 0 0 0 
Heartbeat_Variant_1 : 2679 0.654053 per_variant_size: 0 460 2219 0 0 0 0 0 0 
Heartbeat_Variant_2 : 0 0 per_variant_size: 0 0 0 0 0 0 0 0 0 
Heartbeat_Variant_3 : 0 0 per_variant_size: 0 0 0 0 0 0 0 0 0 
Heartbeat_Variant_0_evicts 0 : 5782 1 : 148 2 : 0 3 : 0 
Heartbeat_Variant_1_evicts 0 : 145 1 : 0 2 : 0 3 : 0 
Heartbeat_Variant_2_evicts 0 : 0 1 : 0 2 : 0 3 : 0 
Heartbeat_Variant_3_evicts 0 : 0 1 : 0 2 : 0 3 : 0 
Heartbeat CPU 0 instructions: 80000002 cycles: 35625081 heartbeat IPC: 1.39984 cumulative IPC: 1.38634 (Simulation time: 0 hr 12 min 58 sec) 
Cycle: 40000000 FTQ IN: 14002350 FTQ occupancy: 16.1394 DECODE IN: 14002409 DECODE occupancy: 39.8525 ROB IN: 14002438 ROB occupancy: 252.638 ROB OUT: 14002438
Heartbeat_Variant_0 : 1389 0.339111 per_variant_size: 0 1389 0 0 0 0 0 0 0 
Heartbeat_Variant_1 : 2677 0.653564 per_variant_size: 0 463 2214 0 0 0 0 0 0 
Heartbeat_Variant_2 : 0 0 per_variant_size: 0 0 0 0 0 0 0 0 0 
Heartbeat_Variant_3 : 0 0 per_variant_size: 0 0 0 0 0 0 0 0 0 
Heartbeat_Variant_0_evicts 0 : 5650 1 : 122 2 : 0 3 : 0 
Heartbeat_Variant_1_evicts 0 : 120 1 : 0 2 : 0 3 : 0 
Heartbeat_Variant_2_evicts 0 : 0 1 : 0 2 : 0 3 : 0 
Heartbeat_Variant_3_evicts 0 : 0 1 : 0 2 : 0 3 : 0 
Heartbeat CPU 0 instructions: 90000002 cycles: 42865793 heartbeat IPC: 1.38108 cumulative IPC: 1.38502 (Simulation time: 0 hr 14 min 46 sec) 
Cycle: 50000000 FTQ IN: 13818191 FTQ occupancy: 16.1141 DECODE IN: 13818141 DECODE occupancy: 39.5257 ROB IN: 13818112 ROB occupancy: 251.14 ROB OUT: 13818370
Heartbeat_Variant_0 : 1390 0.339355 per_variant_size: 0 1390 0 0 0 0 0 0 0 
Heartbeat_Variant_1 : 2678 0.653809 per_variant_size: 0 478 2200 0 0 0 0 0 0 
Heartbeat_Variant_2 : 0 0 per_variant_size: 0 0 0 0 0 0 0 0 0 
Heartbeat_Variant_3 : 0 0 per_variant_size: 0 0 0 0 0 0 0 0 0 
Heartbeat_Variant_0_evicts 0 : 5702 1 : 185 2 : 0 3 : 0 
Heartbeat_Variant_1_evicts 0 : 185 1 : 0 2 : 0 3 : 0 
Heartbeat_Variant_2_evicts 0 : 0 1 : 0 2 : 0 3 : 0 
Heartbeat_Variant_3_evicts 0 : 0 1 : 0 2 : 0 3 : 0 
Heartbeat CPU 0 instructions: 100000001 cycles: 50030244 heartbeat IPC: 1.39578 cumulative IPC: 1.38716 (Simulation time: 0 hr 16 min 33 sec) 
Finished CPU 0 instructions: 50000001 cycles: 36044948 cumulative IPC: 1.38716 (Simulation time: 0 hr 16 min 33 sec) 

ChampSim completed all CPUs

Region of Interest Statistics

CPU 0 cumulative IPC: 1.38716 instructions: 50000001 cycles: 36044948
 Fetch stage stalled: 38.5431  Sim cycles: 36044948 fetch stall cycle: 13892826
 Empty decode stage: 21.5438  Sim cycles: 36044948 fetch stall cycle: 7765455
ITLB TOTAL     ACCESS:    5843660  HIT:    5350212  MISS:     493448  HIT %:    91.5558  MISS %:    8.44416   MPKI: 9.86896
ITLB LOAD TRANSLATION INSTRUCTION	ACCESS:    5695235  HIT:    5201787  MISS:     493448  HIT %:    91.3358  MISS %:    8.66423  MPKI: 9.86896
ITLB TRANSLATION FROM L1D PREFETCHER INSTRUCTION	ACCESS:     148425  HIT:     148425  MISS:          0  HIT %:        100  MISS %:          0  MPKI: 0

ITLB AVERAGE MISS LATENCY: 9.06271 cycles
ITLB RQ	ACCESS:    7892829	FORWARD:          0	MERGED:    1525600	TO_CACHE:    6367229

DTLB TOTAL     ACCESS:    8958547  HIT:    8485836  MISS:     472711  HIT %:    94.7234  MISS %:    5.27665   MPKI: 9.45422
DTLB LOAD TRANSLATION DATA	ACCESS:    8958547  HIT:    8485836  MISS:     472711  HIT %:    94.7234  MISS %:    5.27665  MPKI: 9.45422

DTLB AVERAGE MISS LATENCY: 9.34274 cycles
DTLB RQ	ACCESS:   13351352	FORWARD:          0	MERGED:    4354529	TO_CACHE:    8996823

STLB TOTAL     ACCESS:    1215029  HIT:    1212839  MISS:       2190  HIT %:    99.8198  MISS %:   0.180243   MPKI: 0.0438
STLB LOAD TRANSLATION INSTRUCTION	ACCESS:     493448  HIT:     493176  MISS:        272  HIT %:    99.9449  MISS %:  0.0551223  MPKI: 0.00544
STLB LOAD TRANSLATION DATA	ACCESS:     472710  HIT:     470819  MISS:       1891  HIT %:       99.6  MISS %:   0.400034  MPKI: 0.03782
STLB TRANSLATION FROM L1D PREFETCHER DATA	ACCESS:     248871  HIT:     248844  MISS:         27  HIT %:    99.9892  MISS %:   0.010849  MPKI: 0.00054

STLB AVERAGE MISS LATENCY: 74.2616 cycles
STLB RQ	ACCESS:    1334594	FORWARD:          0	MERGED:     119521	TO_CACHE:    1215073

STLB Hit, L1D data hit: 0
STLB Hit, L2C data hit: 0
STLB Hit, LLC data hit: 0
STLB Hit, LLC data miss: 0
STLB STLB hints to L2: 0
L1D TOTAL     ACCESS:   13104437  HIT:   11991128  MISS:    1113309  HIT %:    91.5043  MISS %:    8.49566   MPKI: 22.2662
L1D LOAD DATA	ACCESS:    6568715  HIT:    5834756  MISS:     733959  HIT %:    88.8264  MISS %:    11.1736  MPKI: 14.6792
L1D RFO DATA	ACCESS:    6205615  HIT:    5919956  MISS:     285659  HIT %:    95.3968  MISS %:    4.60323  MPKI: 5.71318
L1D PREFETCH DATA	ACCESS:     330107  HIT:     236416  MISS:      93691  HIT %:     71.618  MISS %:     28.382  MPKI: 1.87382

L1D PREFETCH  REQUESTED:     737234  ISSUED:     737234  USEFUL:      32659  USELESS:      68947
L1D USEFUL LOAD PREFETCHES:      32659 PREFETCH ISSUED TO LOWER LEVEL:     101696  ACCURACY: 32.1143
 TIMELY PREFETCHES:      32659 LATE PREFETCHES: 7921 DROPPED PREFETCHES: 8
L1D AVERAGE MISS LATENCY: 231230 cycles
L1D RQ	ACCESS:   10681205	FORWARD:          0	MERGED:    3915368	TO_CACHE:    6602972
L1D WQ	ACCESS:    6947098	FORWARD:     163227	MERGED:     198718	TO_CACHE:    6748380
L1D PQ	ACCESS:     368798	FORWARD:          0	MERGED:          0	TO_CACHE:     368436

L1D UNIQUE REGIONS ACCESSED: 0
L1D REGIONS CONFLICTS: 0
L1D Cross Page Prefetch Requests: 6015
L1D Same Page Prefetch Requests: 745410
L1D ROI Sum of L1D PQ occupancy: 4686496
L1D PREFETCHES PUSHED FROM L2C: 0
L1I TOTAL     ACCESS:    7073690  HIT:    4309504  MISS:    2764186  HIT %:     60.923  MISS %:     39.077   MPKI: 55.2837
L1I LOAD INSTRUCTION	ACCESS:    6417634  HIT:    3653448  MISS:    2764186  HIT %:    56.9283  MISS %:    43.0717  MPKI: 55.2837
L1I PREFETCH INSTRUCTION	ACCESS:     656056  HIT:     656056  MISS:          0  HIT %:        100  MISS %:          0  MPKI: 0

L1I PREFETCH  REQUESTED:    1602258  ISSUED:    1602258  USEFUL:          0  USELESS:          0
L1I USEFUL LOAD PREFETCHES:          0 PREFETCH ISSUED TO LOWER LEVEL:          0  ACCURACY: -nan
 TIMELY PREFETCHES:          0 LATE PREFETCHES: 0 DROPPED PREFETCHES: 0
L1I AVERAGE MISS LATENCY: 17.9141 cycles
L1I RQ	ACCESS:    9651199	FORWARD:          0	MERGED:    2941270	TO_CACHE:    6709929
L1I PQ	ACCESS:    1602258	FORWARD:          0	MERGED:     419358	TO_CACHE:    1182900

L1BTB TOTAL     ACCESS:    5674914  HIT:    2046112  MISS:    3628802  HIT %:    36.0554  MISS %:    63.9446   MPKI: 72.576
L1BTB BRANCH_DIRECT_JUMP	ACCESS:     549424 HIT:     144980 MISS:     404444 AVERAGE STALL: 56.9401 AVERAGE FETCH STALL: 14.212 AVERAGE FETCH QUEUE STALL: 21.3963 AVERAGE DECODE STALL: 20.4286 AVERAGE EXECUTE STALL: 2.16587e+15
L1BTB BRANCH_INDIRECT	ACCESS:     183349 HIT:      66299 MISS:     117050 AVERAGE STALL: 118.636 AVERAGE FETCH STALL: 11.709 AVERAGE FETCH QUEUE STALL: 22.3531 AVERAGE DECODE STALL: 13.0401 AVERAGE EXECUTE STALL: 70.573
L1BTB BRANCH_CONDITIONAL	ACCESS:    2714159 HIT:    1420539 MISS:    1293620 AVERAGE STALL: 83.7345 AVERAGE FETCH STALL: 22.1342 AVERAGE FETCH QUEUE STALL: 39.98 AVERAGE DECODE STALL: 20.9046 AVERAGE EXECUTE STALL: 2.55708e+15
L1BTB BRANCH_DIRECT_CALL	ACCESS:     942884 HIT:     104284 MISS:     838600 AVERAGE STALL: 71.6538 AVERAGE FETCH STALL: 30.8893 AVERAGE FETCH QUEUE STALL: 25.033 AVERAGE DECODE STALL: 14.9697 AVERAGE EXECUTE STALL: 6.28509e+15
L1BTB BRANCH_INDIRECT_CALL	ACCESS:     171110 HIT:      20862 MISS:     150248 AVERAGE STALL: 145.374 AVERAGE FETCH STALL: 13.1051 AVERAGE FETCH QUEUE STALL: 20.2188 AVERAGE DECODE STALL: 11.7101 AVERAGE EXECUTE STALL: 99.8522
L1BTB BRANCH_RETURN	ACCESS:    1113988 HIT:     289148 MISS:     824840 AVERAGE STALL: 54.5125 AVERAGE FETCH STALL: 17.6563 AVERAGE FETCH QUEUE STALL: 7.00629 AVERAGE DECODE STALL: 6.74736 AVERAGE EXECUTE STALL: 4.08774e+14
L1BTB BRANCH_OTHER ACCESS:          0 HIT:          0 MISS:          0 AVERAGE STALL: -nan AVERAGE FETCH STALL: -nan AVERAGE FETCH QUEUE STALL: -nan AVERAGE DECODE STALL: -nan AVERAGE EXECUTE STALL: -nan
L1BTB TOTAL ROB OCCUPANCY AT BTB MISS: 3.04774

L2BTB TOTAL     ACCESS:    3603296  HIT:    3531996  MISS:      71300  HIT %:    98.0213  MISS %:    1.97874   MPKI: 1.426
L2BTB BRANCH_DIRECT_JUMP	ACCESS:     400229 HIT:     395915 MISS:       4314 AVERAGE STALL: 56.9401 AVERAGE FETCH STALL: 14.212 AVERAGE FETCH QUEUE STALL: 21.3963 AVERAGE DECODE STALL: 20.4286 AVERAGE EXECUTE STALL: 2.16587e+15
L2BTB BRANCH_INDIRECT	ACCESS:     106781 HIT:     104059 MISS:       2722 AVERAGE STALL: 118.636 AVERAGE FETCH STALL: 11.709 AVERAGE FETCH QUEUE STALL: 22.3531 AVERAGE DECODE STALL: 13.0401 AVERAGE EXECUTE STALL: 70.573
L2BTB BRANCH_CONDITIONAL	ACCESS:    1293619 HIT:    1286319 MISS:       7300 AVERAGE STALL: 83.7345 AVERAGE FETCH STALL: 22.1342 AVERAGE FETCH QUEUE STALL: 39.98 AVERAGE DECODE STALL: 20.9046 AVERAGE EXECUTE STALL: 2.55708e+15
L2BTB BRANCH_DIRECT_CALL	ACCESS:     838599 HIT:     835629 MISS:       2970 AVERAGE STALL: 71.6538 AVERAGE FETCH STALL: 30.8893 AVERAGE FETCH QUEUE STALL: 25.033 AVERAGE DECODE STALL: 14.9697 AVERAGE EXECUTE STALL: 6.28509e+15
L2BTB BRANCH_INDIRECT_CALL	ACCESS:     140667 HIT:     130416 MISS:      10251 AVERAGE STALL: 145.374 AVERAGE FETCH STALL: 13.1051 AVERAGE FETCH QUEUE STALL: 20.2188 AVERAGE DECODE STALL: 11.7101 AVERAGE EXECUTE STALL: 99.8522
L2BTB BRANCH_RETURN	ACCESS:     823401 HIT:     779658 MISS:      43743 AVERAGE STALL: 54.5125 AVERAGE FETCH STALL: 17.6563 AVERAGE FETCH QUEUE STALL: 7.00629 AVERAGE DECODE STALL: 6.74736 AVERAGE EXECUTE STALL: 4.08774e+14
L2BTB BRANCH_OTHER ACCESS:          0 HIT:          0 MISS:          0 AVERAGE STALL: -nan AVERAGE FETCH STALL: -nan AVERAGE FETCH QUEUE STALL: -nan AVERAGE DECODE STALL: -nan AVERAGE EXECUTE STALL: -nan
L2BTB TOTAL ROB OCCUPANCY AT BTB MISS: 155.114

L2C TOTAL     ACCESS:    4495042  HIT:    3931565  MISS:     563477  HIT %:    87.4645  MISS %:    12.5355   MPKI: 11.2695
L2C LOAD INSTRUCTION	ACCESS:    2764186  HIT:    2448140  MISS:     316046  HIT %:    88.5664  MISS %:    11.4336  MPKI: 6.32092
L2C LOAD TRANSLATION INSTRUCTION	ACCESS:        306  HIT:         74  MISS:        232  HIT %:     24.183  MISS %:     75.817  MPKI: 0.00464
L2C LOAD DATA	ACCESS:     726017  HIT:     637610  MISS:      88407  HIT %:     87.823  MISS %:     12.177  MPKI: 1.76814
L2C RFO DATA	ACCESS:     285553  HIT:     228758  MISS:      56795  HIT %:    80.1105  MISS %:    19.8895  MPKI: 1.1359
L2C PREFETCH DATA	ACCESS:     192998  HIT:     109987  MISS:      83011  HIT %:    56.9887  MISS %:    43.0113  MPKI: 1.66022
L2C WRITEBACK DATA	ACCESS:     523954  HIT:     506517  MISS:      17437  HIT %:     96.672  MISS %:    3.32796  MPKI: 0.34874
L2C LOAD TRANSLATION DATA	ACCESS:       1979  HIT:        444  MISS:       1535  HIT %:    22.4356  MISS %:    77.5644  MPKI: 0.0307
L2C TRANSLATION FROM L1D PREFETCHER DATA	ACCESS:         49  HIT:         35  MISS:         14  HIT %:    71.4286  MISS %:    28.5714  MPKI: 0.00028

L2C PREFETCH  REQUESTED:     100925  ISSUED:     100925  USEFUL:       9952  USELESS:      73713
L2C USEFUL LOAD PREFETCHES:       9952 PREFETCH ISSUED TO LOWER LEVEL:      83530  ACCURACY: 11.9143
 TIMELY PREFETCHES:       9952 LATE PREFETCHES: 519 DROPPED PREFETCHES: 0
L2C AVERAGE MISS LATENCY: 37.2281 cycles
L2C RQ	ACCESS:    3778133	FORWARD:          0	MERGED:          0	TO_CACHE:    3778090
L2C WQ	ACCESS:     523954	FORWARD:         44	MERGED:          0	TO_CACHE:     523954
L2C PQ	ACCESS:     202621	FORWARD:          0	MERGED:       3936	TO_CACHE:     198684

L2C Dense regions hint from L2: 0
PSCL5 TOTAL     ACCESS:       4402  HIT:       2201  MISS:       2201  HIT %:         50  MISS %:         50   MPKI: 0.04402
PSCL5 LOAD TRANSLATION INSTRUCTION	ACCESS:       4304  HIT:       2152  MISS:       2152  HIT %:         50  MISS %:         50  MPKI: 0.04304
PSCL5 TRANSLATION FROM L1D PREFETCHER INSTRUCTION	ACCESS:         98  HIT:         49  MISS:         49  HIT %:         50  MISS %:         50  MPKI: 0.00098


PSCL4 TOTAL     ACCESS:       4230  HIT:       2109  MISS:       2121  HIT %:    49.8582  MISS %:    50.1418   MPKI: 0.04242
PSCL4 LOAD TRANSLATION INSTRUCTION	ACCESS:       2154  HIT:       2060  MISS:         94  HIT %:     95.636  MISS %:    4.36397  MPKI: 0.00188
PSCL4 TRANSLATION FROM L1D PREFETCHER INSTRUCTION	ACCESS:         49  HIT:         49  MISS:          0  HIT %:        100  MISS %:          0  MPKI: 0
PSCL4 LOAD TRANSLATION DATA	ACCESS:       1978  HIT:          0  MISS:       1978  HIT %:          0  MISS %:        100  MPKI: 0.03956
PSCL4 TRANSLATION FROM L1D PREFETCHER DATA	ACCESS:         49  HIT:          0  MISS:         49  HIT %:          0  MISS %:        100  MPKI: 0.00098


PSCL3 TOTAL     ACCESS:       4298  HIT:       2143  MISS:       2155  HIT %:    49.8604  MISS %:    50.1396   MPKI: 0.0431
PSCL3 LOAD TRANSLATION INSTRUCTION	ACCESS:       2188  HIT:       2094  MISS:         94  HIT %:    95.7038  MISS %:    4.29616  MPKI: 0.00188
PSCL3 TRANSLATION FROM L1D PREFETCHER INSTRUCTION	ACCESS:         49  HIT:         49  MISS:          0  HIT %:        100  MISS %:          0  MPKI: 0
PSCL3 LOAD TRANSLATION DATA	ACCESS:       2012  HIT:          0  MISS:       2012  HIT %:          0  MISS %:        100  MPKI: 0.04024
PSCL3 TRANSLATION FROM L1D PREFETCHER DATA	ACCESS:         49  HIT:          0  MISS:         49  HIT %:          0  MISS %:        100  MPKI: 0.00098


PSCL2 TOTAL     ACCESS:       4292  HIT:       2091  MISS:       2201  HIT %:    48.7185  MISS %:    51.2815   MPKI: 0.04402
PSCL2 LOAD TRANSLATION INSTRUCTION	ACCESS:       2312  HIT:       2042  MISS:        270  HIT %:    88.3218  MISS %:    11.6782  MPKI: 0.0054
PSCL2 TRANSLATION FROM L1D PREFETCHER INSTRUCTION	ACCESS:         49  HIT:         49  MISS:          0  HIT %:        100  MISS %:          0  MPKI: 0
PSCL2 LOAD TRANSLATION DATA	ACCESS:       1882  HIT:          0  MISS:       1882  HIT %:          0  MISS %:        100  MPKI: 0.03764
PSCL2 TRANSLATION FROM L1D PREFETCHER DATA	ACCESS:         49  HIT:          0  MISS:         49  HIT %:          0  MISS %:        100  MPKI: 0.00098


LLC TOTAL     ACCESS:     627833  HIT:     598978  MISS:      28855  HIT %:     95.404  MISS %:    4.59597   MPKI: 0.5771
LLC LOAD INSTRUCTION	ACCESS:     316046  HIT:     315094  MISS:        952  HIT %:    99.6988  MISS %:   0.301222  MPKI: 0.01904
LLC LOAD TRANSLATION INSTRUCTION	ACCESS:        232  HIT:        184  MISS:         48  HIT %:    79.3103  MISS %:    20.6897  MPKI: 0.00096
LLC LOAD DATA	ACCESS:      87901  HIT:      84312  MISS:       3589  HIT %:     95.917  MISS %:      4.083  MPKI: 0.07178
LLC RFO DATA	ACCESS:      56775  HIT:      43175  MISS:      13600  HIT %:    76.0458  MISS %:    23.9542  MPKI: 0.272
LLC PREFETCH DATA	ACCESS:      83529  HIT:      73279  MISS:      10250  HIT %:    87.7288  MISS %:    12.2712  MPKI: 0.205
LLC WRITEBACK DATA	ACCESS:      81801  HIT:      81470  MISS:        331  HIT %:    99.5954  MISS %:   0.404641  MPKI: 0.00662
LLC LOAD TRANSLATION DATA	ACCESS:       1535  HIT:       1450  MISS:         85  HIT %:    94.4625  MISS %:    5.53746  MPKI: 0.0017
LLC TRANSLATION FROM L1D PREFETCHER DATA	ACCESS:         14  HIT:         14  MISS:          0  HIT %:        100  MISS %:          0  MPKI: 0

LLC AVERAGE MISS LATENCY: 157.695 cycles
LLC RQ	ACCESS:     462510	FORWARD:          0	MERGED:          0	TO_CACHE:     462503
LLC WQ	ACCESS:      81801	FORWARD:          8	MERGED:          0	TO_CACHE:      81801
LLC PQ	ACCESS:      83530	FORWARD:          0	MERGED:          0	TO_CACHE:      83529

LLC Dense regions hint to LLC: 0

RAW hits: 1954320
Loads Generated: 12635525
Loads sent to L1D: 10681205
Stores Generated: 6947086
Stores sent to L1D: 6947098
Major fault: 0 Minor fault: 2601
Allocated PAGES: 2601

stream: 
stream:times selected: 1176237
stream:pref_filled: 122032
stream:pref_useful: 24012
stream:pref_late: 6740
stream:misses: 6895
stream:misses_by_poll: 0

CS: 
CS:times selected: 174602
CS:pref_filled: 59074
CS:pref_useful: 36159
CS:pref_late: 6687
CS:misses: 15491
CS:misses_by_poll: 4

CPLX: 
CPLX:times selected: 1000410
CPLX:pref_filled: 20243
CPLX:pref_useful: 4848
CPLX:pref_late: 3002
CPLX:misses: 90435
CPLX:misses_by_poll: 1

NL_L1: 
NL:times selected: 19875
NL:pref_filled: 720
NL:pref_useful: 327
NL:pref_late: 212
NL:misses: 1080
NL:misses_by_poll: 0

total selections: 2371124
total_filled: 93691
total_useful: 32659
total_late: 17836
total_polluted: 5
total_misses_after_warmup: 768222
conflicts: 5536114

test: 115494

DRAM Statistics
 CHANNEL 0
 RQ ROW_BUFFER_HIT:      10398  ROW_BUFFER_MISS:      18122
 DBUS_CONGESTED:         11
 WQ ROW_BUFFER_HIT:       1411  ROW_BUFFER_MISS:      12483  FULL:          0

 AVG_CONGESTED_CYCLE: 4

CPU 0 Branch Prediction Accuracy: 99.8092% MPKI: 0.34892 Average ROB Occupancy at Mispredict: 194.39
Branch types
NOT_BRANCH: 40857159 81.7143%
BRANCH_DIRECT_JUMP: 549424 1.09885%
BRANCH_INDIRECT: 183349 0.366698%
BRANCH_CONDITIONAL: 6181892 12.3638%
BRANCH_DIRECT_CALL: 942884 1.88577%
BRANCH_INDIRECT_CALL: 171110 0.34222%
BRANCH_RETURN: 1113988 2.22798%
BRANCH_OTHER: 0 0%

DRAM PAGES: 1048576
Allocated PAGES: 2601
Average_ROB_Occupancy: 251.524
Average_Decode_Occupancy: 39.2239
Average_FTQ_Occupancy: 15.9481
Indirect max targets: 14 Average targets: 1.1505
Branch_type:  BRANCH_DIRECT_JUMP:  Count Percentage: 3.24829 5.53099 5.12363 9.12238 1.74016 5.96783 0.891939 68.3748 
Branch_type:  BRANCH_INDIRECT:  Count Percentage: 11.7458 3.46491 2.55452 0 2.5452 9.67468 19.2228 50.7921 
Branch_type:  BRANCH_CONDITIONAL:  Count Percentage: 21.4515 2.58987 1.84246 8.41924 1.23162 5.06896 1.95747 57.4389 
Branch_type:  BRANCH_DIRECT_CALL:  Count Percentage: 0.257349 1.79076 1.44555 4.83602 2.15601 2.75191 0.751905 86.0105 
Branch_type:  BRANCH_INDIRECT_CALL:  Count Percentage: 9.53326 0.571582 2.98674 4.83994 0.000291475 2.01875 1.28307 78.7664 
Branch_type:  BRANCH_RETURN:  Count Percentage: 3.18859 1.30476 1.27108 9.31576 2.84213 6.55351 3.12936 72.3948 
Branch_type:  BRANCH_DIRECT_JUMP:  Total Count: 35588 60597 56134 99944 19065 65383 9772 749108 
Branch_type:  BRANCH_INDIRECT:  Total Count: 42886 12651 9327 0 9293 35324 70186 185451 
Branch_type:  BRANCH_CONDITIONAL:  Total Count: 2648851 319799 227508 1039615 152082 625919 241710 7092595 
Branch_type:  BRANCH_DIRECT_CALL:  Total Count: 4868 33874 27344 91478 40783 52055 14223 1626970 
Branch_type:  BRANCH_INDIRECT_CALL:  Total Count: 32707 1961 10247 16605 1 6926 4402 270234 
Branch_type:  BRANCH_RETURN:  Total Count: 71281 29168 28415 208254 63536 146504 69957 1618388 
Number of unique branch instructions: 10308
Upper 32 bits: 
aaaa
ffff
ffff0000
Unique upper 32 bits: 3
Unique upper 36 bits: 3
Unique upper 40 bits: 5
Unique upper 44 bits: 32
Unique upper 48 bits: 154
Variant_0 : 1390 0.339355
Variant_1 : 2678 0.653809
Variant_2 : 0 0
Variant_3 : 0 0
Offset_3 4268
Offset_4 260
Offset_5 469
Offset_6 531
Offset_7 612
Offset_8 540
Offset_9 491
Offset_10 399
Offset_11 338
Offset_12 297
Offset_13 225
Offset_14 232
Offset_15 201
Offset_16 230
Offset_17 162
Offset_18 128
Offset_19 252
Offset_20 144
Offset_21 236
Offset_22 404
Offset_23 245
Offset_24 346
Offset_25 88
Offset_47 84
Offset_64 21
decode_dispatch_called: 26472669 73.4435
Dispatch_width: 0 14304641 54.0355 39.6856
Dispatch_width: 1 1020786 3.856 2.83198
Dispatch_width: 2 840731 3.17585 2.33245
Dispatch_width: 3 475213 1.79511 1.31839
Dispatch_width: 4 6512673 24.6015 18.0682
Dispatch_width: 5 90539 0.342009 0.251184
Dispatch_width: 6 3228086 12.194 8.95572
Empty_decode_cycles: 9572279 26.5565
ROB_full_cycles: 10393526 28.8349
Starvation_cycles_per_kilo_instr: 224.233
Starvation_cycles_per_kilo_instr_3: 158.201
Starvation_cycles_per_kilo_instr_0: 134.834
Branch_type_1  (3,1)  (4,9)  (5,37)  (6,73)  (7,118)  (8,138)  (9,129)  (10,102)  (11,76)  (12,51)  (13,8)  (14,2)  (15,3)  (16,4)  (18,1)  (19,4)  (20,2)  (21,1)  (22,3)  (23,2)  (24,10)  (25,12)  (64,3) 
Branch_type_2  (3,1)  (5,1)  (8,3)  (9,3)  (12,1)  (13,1)  (14,1)  (16,3)  (17,2)  (20,2)  (21,2)  (23,5)  (24,1)  (47,39) 
Branch_type_3  (3,4266)  (4,251)  (5,427)  (6,441)  (7,460)  (8,333)  (9,270)  (10,164)  (11,140)  (12,58)  (13,7)  (24,3)  (64,11) 
Branch_type_4  (6,4)  (7,8)  (8,30)  (9,54)  (10,63)  (11,63)  (12,105)  (13,96)  (14,102)  (15,96)  (16,104)  (17,73)  (18,58)  (19,124)  (20,74)  (21,124)  (22,215)  (23,138)  (24,202)  (25,72)  (64,4) 
Branch_type_5  (8,2)  (9,1)  (10,3)  (11,5)  (12,3)  (13,14)  (14,16)  (15,11)  (16,20)  (17,13)  (18,16)  (19,12)  (20,11)  (21,13)  (22,42)  (23,26)  (24,37) 
Branch_type_6  (5,4)  (6,13)  (7,26)  (8,34)  (9,34)  (10,67)  (11,54)  (12,79)  (13,99)  (14,111)  (15,91)  (16,99)  (17,74)  (18,53)  (19,112)  (20,55)  (21,96)  (22,144)  (23,74)  (24,93)  (25,4)  (47,45)  (64,3) 
Unique trigger count: 
Variant_0_evicts_0 : 0
Variant_0_evicts_1 : 0
Variant_0_evicts_2 : 0
Variant_0_evicts_3 : 0
Variant_1_evicts_0 : 0
Variant_1_evicts_1 : 0
Variant_1_evicts_2 : 0
Variant_1_evicts_3 : 0
Variant_2_evicts_0 : 0
Variant_2_evicts_1 : 0
Variant_2_evicts_2 : 0
Variant_2_evicts_3 : 0
Variant_3_evicts_0 : 0
Variant_3_evicts_1 : 0
Variant_3_evicts_2 : 0
Variant_3_evicts_3 : 0
BTB PER SET UNIQUE ADDR: 12 13 10 11 10 15 10 13 10 12 12 18 13 12 12 9 11 14 11 13 14 15 11 16 8 13 10 20 13 12 12 11 12 12 8 12 13 12 9 9 12 11 12 13 9 9 13 9 17 12 12 9 10 13 12 5 11 14 8 10 11 17 11 15 13 20 12 9 17 9 12 12 19 11 13 8 8 18 12 16 12 8 13 16 11 11 13 12 10 16 10 9 15 10 10 16 15 13 20 15 18 20 15 9 13 12 12 13 6 13 11 16 13 14 6 9 17 11 10 13 15 11 15 7 13 14 8 16 19 10 9 19 12 13 11 11 7 15 9 15 11 15 11 10 11 12 9 10 9 13 11 14 10 16 9 17 18 13 13 13 12 10 15 11 11 16 10 11 18 14 12 13 9 13 12 9 10 11 15 12 9 12 11 16 19 14 8 15 13 8 10 12 8 20 14 10 8 14 12 11 11 15 15 9 10 12 9 13 11 14 15 15 14 9 13 10 12 12 10 18 8 16 9 10 9 15 15 14 11 13 11 12 10 16 12 13 16 11 9 9 10 13 13 14 13 9 11 10 15 14 14 17 14 10 15 13 9 9 9 16 11 9 8 15 15 9 10 10 14 11 13 18 8 12 10 9 10 12 10 12 10 14 11 10 15 9 12 14 15 16 9 10 17 11 11 14 10 12 11 11 8 12 11 19 12 19 15 14 17 14 11 15 11 15 12 10 13 17 12 14 12 14 11 11 16 12 13 12 12 9 12 17 11 9 12 18 7 10 8 22 14 14 11 10 12 13 11 14 12 14 16 14 14 14 15 13 11 10 8 12 10 15 10 14 13 17 7 12 9 11 12 11 14 15 11 15 11 21 15 15 13 14 9 10 10 13 11 18 8 17 15 9 15 21 7 13 8 13 13 14 14 16 11 15 17 16 16 14 9 16 18 10 12 16 11 13 12 14 16 12 13 13 14 13 17 7 13 14 16 9 16 16 8 12 15 13 14 12 11 13 10 10 12 15 17 10 10 10 14 19 10 22 16 9 20 20 11 12 6 13 11 13 12 14 15 11 11 15 11 12 12 13 15 14 16 16 11 17 7 13 17 19 13 15 9 18 13 14 13 15 11 9 9 10 12 13 15 14 11 13 13 17 9 18 10 11 9 12 15 13 19 14 12 10 13 18 11 15 9 6 12 10 13 11 11 14 18 12 6 16 12 16 13 12 13 16 10 19 10 10 11 14 11 12 15 10 10 9 10 8 12 16 13 11 8 15 14 13 18 12 9 20 9 13 13 17 11 14 12 17 13 14 17 14 13 15 11 19 9 9 11 12 10 10 11 14 10 15 15 13 11 10 16 10 9 14 11 16 10 12 15 11 8 9 13 11 16 13 16 14 13 17 10 11 7 16 9 12 17 16 17 13 9 10 13 12 11 14 13 11 11 17 9 12 10 14 13 12 9 13 9 13 14 18 12 13 11 16 16 8 9 16 9 7 16 16 13 16 11 13 12 9 12 16 10 15 9 13 11 14 14 13 13 15 17 11 15 16 12 17 10 10 15 14 9 11 12 9 10 13 13 12 13 11 12 11 11 18 9 15 10 9 16 15 8 17 18 9 12 14 12 14 11 15 13 11 17 12 14 16 17 13 13 10 9 12 13 11 11 10 18 12 15 12 11 16 12 19 15 12 9 10 10 17 17 10 11 13 9 9 14 12 14 14 8 14 19 15 11 11 11 8 10 13 15 14 8 13 11 14 10 10 11 12 12 10 12 12 16 17 11 13 14 11 9 10 11 14 10 8 10 7 16 11 16 12 12 9 16 13 18 14 21 21 15 13 10 15 17 10 14 18 14 12 17 12 12 16 8 14 9 13 8 13 15 13 11 11 13 15 14 20 12 10 12 17 17 11 15 11 13 16 9 10 14 12 13 15 11 18 10 10 12 13 11 12 11 17 11 13 12 11 13 7 18 6 17 9 14 12 10 14 12 7 16 9 15 12 8 13 15 12 17 13 14 15 14 17 14 10 11 12 15 11 11 19 18 15 12 9 11 10 11 12 10 13 12 12 13 17 10 11 10 14 15 12 19 12 10 10 12 14 13 10 11 11 7 14 13 11 16 19 11 16 14 10 14 14 17 13 9 13 7 10 9 12 15 14 10 17 14 13 9 12 10 11 12 13 10 15 15 7 12 13 13 11 16 10 7 16 14 13 15 10 12 9 16 11 13 12 12 16 14 15 10 12 12 10 14 17 12 11 12 15 11 12 10 12 19 10 14 18 8 11 12 18 9 17 12 17 13 16 14 9 12 12 4 13 6 9 14 15 9 9 
BTB PER SET COUNT: 353 16 1948 16 11 34 1309 27 54 19 17 708 14582 373 16 9 381 25 17 112 69 24 512 115 14 19 15 37 14 17 364 15 16 24 10 622 15 13 10 13 15 17 16 21 10 14 37 16 1084 17 17 298 15 134 16 392 64 22 256 13 17 70 20 29 22 173 23 1429 26 14 684 245 34 16 20 9 12 962 17 24 14 17 534 127 17 54 22 120 1301 44 14 49 21 40 35 41 566 562 25 6305 23 1165 20 10 785 17 19 16 1350 16 18 32 619 21 7 735 26 19 1491 702 60 92 22 7 14 64 15 74 31 1124 12 270 20 18 12 12 150 27 15 22 16 22 14 13 16 24 11 13 16 26 16 273 1326 30 15 26 24 21 17 22 22 17 23 13 1477 28 16 19 26 369 14 15 22 26 22 691 16 20 33 17 13 256 191 25 34 358 12 26 27 240 15 14 12 47 17 17 11 1185 14 493 17 89 997 10 14 18 10 18 12 63 22 59 18 1303 17 15 18 36 571 31 31 24 416 23 16 23 27 21 16 22 20 17 21 24 16 611 31 20 15 11 18 21 18 783 27 553 14 10 17 20 20 25 17 19 18 26 12 58 11 34 12 13 10 132 19 27 18 15 436 17 20 25 12 14 481 11 12 15 11 218 23 22 501 837 24 13 14 23 20 18 16 16 28 531 16 19 12 21 15 385 8 18 23 24 21 88 35 381 340 460 437 28 11 28 1974 86 18 35 36 19 15 2647 13 13 1489 468 19 17 18 16 18 26 15 14 17 24 13 105 10 30 21 1929 19 62 123 14 17 23 19 83 181 35 21 26 28 17 13 15 8 38 13 22 15 18 17 1058 10 14 16 16 20 546 24 229 529 19 11 36 408 387 205 18 12 12 11 16 442 25 8 32 44 13 19 28 11 69 8 21 27 2018 16 22 14 18 26 23 24 509 17 26 29 11 28 24 18 24 19 5571 26 14 16 23 25 15 32 14 30 76 31 1430 29 22 11 13 28 23 17 25 13 20 14 16 24 22 121 17 1067 14 30 32 17 66 27 11 31 830 21 18 6 15 14 16 17 17 25 144 11 20 13 34 13 21 16 30 33 21 17 31 10 19 26 24 94 20 13 35 17 25 23 58 174 9 973 16 19 25 580 982 15 51 16 26 10 163 11 14 11 17 20 14 444 22 802 709 23 26 27 18 19 11 14 11 87 36 11 20 330 1268 8 1525 17 24 22 15 24 568 24 519 13 586 14 19 47 20 20 11 12 10 17 924 15 27 270 46 8 27 28 17 29 24 13 101 9 17 23 27 29 21 17 26 14 17 32 27 147 24 23 392 10 20 16 17 14 2954 17 27 824 17 24 16 13 17 355 16 18 27 2389 362 262 48 28 19 9 13 18 31 23 1216 67 20 24 23 16 17 11 30 11 18 374 550 27 18 10 16 18 23 17 18 1476 17 17 24 14 15 10 17 17 790 10 24 14 17 18 23 609 21 254 28 234 10 12 29 12 11 29 173 14 320 489 14 20 11 19 28 22 34 21 1535 1749 25 19 18 544 68 33 1007 26 38 17 30 13 17 343 31 1973 18 18 11 13 27 14 16 29 18 107 21 122 3091 12 24 987 17 481 22 11 267 26 36 15 24 58 587 199 20 503 100 909 40 39 31 27 198 14 445 11 17 22 12 916 10 219 13370 23 131 51 24 644 34 17 23 19 14 508 34 545 14 247 18 13 11 34 17 665 765 12 18 23 1478 19 22 15 16 12 343 2727 19 11 25 25 138 12 16 20 20 22 10 17 914 64 625 885 15 22 19 15 20 17 14 12 11 14 7 21 12 564 62 23 14 45 652 31 64 30 237 240 63 13 29 41 12 21 5107 18 13 448 39 1214 29 86 39 10 1047 10 21 734 22 14 13 25 24 15 44 14 14 147 234 90 14 150 80 25 613 12 19 439 19 16 16 14 30 1102 32 14 22 29 17 19 30 19 15 998 344 265 7 44 7 25 10 17 20 29 18 14 14 22 9 23 68 11 21 19 17 177 21 458 1683 81 25 29 601 13 1446 323 17 11 94 27 33 17 12 12 14 14 18 17 19 12 16 124 34 277 13 12 19 41 53 517 16 22 20 23 511 18 20 27 14 9 24 20 20 59 27 410 20 18 220 18 77 85 18 12 732 15 15 9 13 26 24 15 19 191 1045 786 4222 12 17 16 43 15 27 23 8 22 17 19 14 1436 14 10 17 21 127 26 12 17 12 19 22 69 16 118 25 20 271 18 22 1984 13 19 153 48 1356 13 1270 1482 19 10 1484 40 14 26 55 14 13 20 25 10 25 16 453 1083 19 23 10 16 22 4 36 6 13 26 555 13 9 
To predecode: 0
Predecoding something: 0
Predecode request dropped: 0
sizeofblock_0 0
sizeofblock_1 61455
sizeofblock_2 87562
sizeofblock_3 0
sizeofblock_4 0
sizeofblock_5 0
sizeofblock_6 0
sizeofblock_7 0
sizeofblock_8 0
Variant_0 Correct: 1611747 Incorrect: 0 Accuracy: 1
Variant_1 Correct: 5741560 Incorrect: 0 Accuracy: 1
Variant_2 Correct: 0 Incorrect: 0 Accuracy: -nan
Variant_3 Correct: 0 Incorrect: 0 Accuracy: -nan
