
*** ChampSim Multicore Out-of-Order Simulator ***

Warmup Instructions: 50000000
Simulation Instructions: 50000000
Number of CPUs: 1
LLC sets: 2048
LLC ways: 16
Off-chip DRAM Size: 4096 MB Channels: 1 Width: 64-bit Data Rate: 6400 MT/s
CPU 0 runs ./micro_traces/srv189.trace.gz
.gz
ITLB has LRU replacement policy
DTLB has LRU replacement policy
STLB has LRU replacement policy
FDIP Prefetcher at L1I
L1I has LRU replacement policy
L1D has LRU replacement policy
Initialize SRRIP state for L2C
Initialize DRRIP state for LLC
Heartbeat CPU 0 instructions: 10000001 cycles: 2798348 heartbeat IPC: 3.57354 cumulative IPC: 3.57354 (Simulation time: 0 hr 1 min 53 sec) 
Heartbeat CPU 0 instructions: 20000001 cycles: 5595120 heartbeat IPC: 3.57555 cumulative IPC: 3.57454 (Simulation time: 0 hr 3 min 47 sec) 
Heartbeat CPU 0 instructions: 30000002 cycles: 8392597 heartbeat IPC: 3.57465 cumulative IPC: 3.57458 (Simulation time: 0 hr 5 min 44 sec) 
Heartbeat CPU 0 instructions: 40000001 cycles: 11188640 heartbeat IPC: 3.57648 cumulative IPC: 3.57505 (Simulation time: 0 hr 7 min 28 sec) 
Heartbeat CPU 0 instructions: 50000002 cycles: 13985211 heartbeat IPC: 3.57581 cumulative IPC: 3.57521 (Simulation time: 0 hr 9 min 42 sec) 

Warmup complete CPU 0 instructions: 50000002 cycles: 13985211 (Simulation time: 0 hr 9 min 42 sec) 

Cycle: 20000000 FTQ IN: 58839254 FTQ occupancy: 21.2541 DECODE IN: 58839117 DECODE occupancy: 55.7064 ROB IN: 58839057 ROB occupancy: 332.428 ROB OUT: 58838709
Heartbeat CPU 0 instructions: 60000001 cycles: 20785861 heartbeat IPC: 1.47045 cumulative IPC: 1.47045 (Simulation time: 0 hr 11 min 56 sec) 
Heartbeat CPU 0 instructions: 70000002 cycles: 27683504 heartbeat IPC: 1.44977 cumulative IPC: 1.46004 (Simulation time: 0 hr 14 min 13 sec) 
Cycle: 30000000 FTQ IN: 14553256 FTQ occupancy: 17.1278 DECODE IN: 14553266 DECODE occupancy: 45.4324 ROB IN: 14553266 ROB occupancy: 293.832 ROB OUT: 14553266
Heartbeat CPU 0 instructions: 80000001 cycles: 34479546 heartbeat IPC: 1.47144 cumulative IPC: 1.46382 (Simulation time: 0 hr 16 min 38 sec) 
Cycle: 40000000 FTQ IN: 14615096 FTQ occupancy: 17.1656 DECODE IN: 14615223 DECODE occupancy: 45.5338 ROB IN: 14615283 ROB occupancy: 294.869 ROB OUT: 14615536
Heartbeat CPU 0 instructions: 90000000 cycles: 41355225 heartbeat IPC: 1.4544 cumulative IPC: 1.46145 (Simulation time: 0 hr 19 min 5 sec) 
Heartbeat CPU 0 instructions: 100000003 cycles: 48159226 heartbeat IPC: 1.46972 cumulative IPC: 1.4631 (Simulation time: 0 hr 21 min 23 sec) 
Finished CPU 0 instructions: 50000001 cycles: 34174015 cumulative IPC: 1.4631 (Simulation time: 0 hr 21 min 23 sec) 

ChampSim completed all CPUs

Region of Interest Statistics

CPU 0 cumulative IPC: 1.4631 instructions: 50000001 cycles: 34174015
 Fetch stage stalled: 24.2618  Sim cycles: 34174015 fetch stall cycle: 8291238
 Empty decode stage: 8.4048  Sim cycles: 34174015 fetch stall cycle: 2872257
ITLB TOTAL     ACCESS:    5815212  HIT:    5322778  MISS:     492434  HIT %:     91.532  MISS %:    8.46803   MPKI: 9.84868
ITLB LOAD TRANSLATION INSTRUCTION	ACCESS:    5656472  HIT:    5164038  MISS:     492434  HIT %:    91.2943  MISS %:    8.70567  MPKI: 9.84868
ITLB TRANSLATION FROM L1D PREFETCHER INSTRUCTION	ACCESS:     158740  HIT:     158740  MISS:          0  HIT %:        100  MISS %:          0  MPKI: 0

ITLB AVERAGE MISS LATENCY: 9.05331 cycles
ITLB RQ	ACCESS:    7839248	FORWARD:          0	MERGED:    1447939	TO_CACHE:    6391309

DTLB TOTAL     ACCESS:    8909068  HIT:    8438537  MISS:     470531  HIT %:    94.7185  MISS %:    5.28148   MPKI: 9.41062
DTLB LOAD TRANSLATION DATA	ACCESS:    8909068  HIT:    8438537  MISS:     470531  HIT %:    94.7185  MISS %:    5.28148  MPKI: 9.41062

DTLB AVERAGE MISS LATENCY: 9.3315 cycles
DTLB RQ	ACCESS:   13292348	FORWARD:          0	MERGED:    4345417	TO_CACHE:    8946931

STLB TOTAL     ACCESS:    1211390  HIT:    1209403  MISS:       1987  HIT %:     99.836  MISS %:   0.164026   MPKI: 0.03974
STLB LOAD TRANSLATION INSTRUCTION	ACCESS:     492434  HIT:     492218  MISS:        216  HIT %:    99.9561  MISS %:  0.0438637  MPKI: 0.00432
STLB LOAD TRANSLATION DATA	ACCESS:     470531  HIT:     468791  MISS:       1740  HIT %:    99.6302  MISS %:   0.369795  MPKI: 0.0348
STLB TRANSLATION FROM L1D PREFETCHER DATA	ACCESS:     248425  HIT:     248394  MISS:         31  HIT %:    99.9875  MISS %:  0.0124786  MPKI: 0.00062

STLB AVERAGE MISS LATENCY: 75.0086 cycles
STLB RQ	ACCESS:    1332555	FORWARD:          0	MERGED:     121120	TO_CACHE:    1211435

STLB Hit, L1D data hit: 0
STLB Hit, L2C data hit: 0
STLB Hit, LLC data hit: 0
STLB Hit, LLC data miss: 0
STLB STLB hints to L2: 0
L1D TOTAL     ACCESS:   13041602  HIT:   11927074  MISS:    1114528  HIT %:    91.4541  MISS %:    8.54594   MPKI: 22.2906
L1D LOAD DATA	ACCESS:    6512131  HIT:    5775776  MISS:     736355  HIT %:    88.6926  MISS %:    11.3074  MPKI: 14.7271
L1D RFO DATA	ACCESS:    6200181  HIT:    5915545  MISS:     284636  HIT %:    95.4092  MISS %:    4.59077  MPKI: 5.69272
L1D PREFETCH DATA	ACCESS:     329290  HIT:     235753  MISS:      93537  HIT %:    71.5943  MISS %:    28.4057  MPKI: 1.87074

L1D PREFETCH  REQUESTED:     739561  ISSUED:     739561  USEFUL:      33262  USELESS:      68424
L1D USEFUL LOAD PREFETCHES:      33262 PREFETCH ISSUED TO LOWER LEVEL:     101730  ACCURACY: 32.6964
 TIMELY PREFETCHES:      33262 LATE PREFETCHES: 8154 DROPPED PREFETCHES: 13
L1D AVERAGE MISS LATENCY: 228412 cycles
L1D RQ	ACCESS:   10664707	FORWARD:          0	MERGED:    3954323	TO_CACHE:    6548078
L1D WQ	ACCESS:    6945323	FORWARD:     162687	MERGED:     201053	TO_CACHE:    6744270
L1D PQ	ACCESS:     369971	FORWARD:          0	MERGED:          0	TO_CACHE:     369590

L1D UNIQUE REGIONS ACCESSED: 0
L1D REGIONS CONFLICTS: 0
L1D Cross Page Prefetch Requests: 7025
L1D Same Page Prefetch Requests: 752898
L1D ROI Sum of L1D PQ occupancy: 4689012
L1D PREFETCHES PUSHED FROM L2C: 0
L1I TOTAL     ACCESS:    7004411  HIT:    4244482  MISS:    2759929  HIT %:    60.5973  MISS %:    39.4027   MPKI: 55.1986
L1I LOAD INSTRUCTION	ACCESS:    6337186  HIT:    3577257  MISS:    2759929  HIT %:    56.4487  MISS %:    43.5513  MPKI: 55.1986
L1I PREFETCH INSTRUCTION	ACCESS:     667225  HIT:     667225  MISS:          0  HIT %:        100  MISS %:          0  MPKI: 0

L1I PREFETCH  REQUESTED:    1675098  ISSUED:    1675098  USEFUL:          0  USELESS:          0
L1I USEFUL LOAD PREFETCHES:          0 PREFETCH ISSUED TO LOWER LEVEL:          0  ACCURACY: -nan
 TIMELY PREFETCHES:          0 LATE PREFETCHES: 0 DROPPED PREFETCHES: 0
L1I AVERAGE MISS LATENCY: 17.6418 cycles
L1I RQ	ACCESS:    9790694	FORWARD:          0	MERGED:    3188034	TO_CACHE:    6602660
L1I PQ	ACCESS:    1675098	FORWARD:          0	MERGED:     438510	TO_CACHE:    1236588

L1BTB TOTAL     ACCESS:    5369051  HIT:    5336450  MISS:      32601  HIT %:    99.3928  MISS %:   0.607202   MPKI: 0.65202
L1BTB BRANCH_DIRECT_JUMP	ACCESS:     548977  HIT:     548977  MISS:          0	AVERAGE STALL: -nan
L1BTB BRANCH_INDIRECT	ACCESS:     183386  HIT:     170447  MISS:      12939	AVERAGE STALL: 122.979
L1BTB BRANCH_CONDITIONAL	ACCESS:    2408460  HIT:    2408460  MISS:          0	AVERAGE STALL: -nan
L1BTB BRANCH_DIRECT_CALL	ACCESS:     943070  HIT:     943070  MISS:          0	AVERAGE STALL: -nan
L1BTB BRANCH_INDIRECT_CALL	ACCESS:     171046  HIT:     151384  MISS:      19662	AVERAGE STALL: 163.971
L1BTB BRANCH_RETURN	ACCESS:    1114112  HIT:    1114112  MISS:          0	AVERAGE STALL: -nan
L1BTB BRANCH_OTHER ACCESS:          0  HIT:          0  MISS:          0	AVERAGE STALL: -nan
L1BTB TOTAL ROB OCCUPANCY AT BTB MISS: 148.384

L2BTB BRANCH_DIRECT_JUMP	ACCESS:          0  HIT:          0  MISS:          0	AVERAGE STALL: -nan
L2BTB BRANCH_INDIRECT	ACCESS:          0  HIT:          0  MISS:          0	AVERAGE STALL: 122.979
L2BTB BRANCH_CONDITIONAL	ACCESS:          0  HIT:          0  MISS:          0	AVERAGE STALL: -nan
L2BTB BRANCH_DIRECT_CALL	ACCESS:          0  HIT:          0  MISS:          0	AVERAGE STALL: -nan
L2BTB BRANCH_INDIRECT_CALL	ACCESS:          0  HIT:          0  MISS:          0	AVERAGE STALL: 163.971
L2BTB BRANCH_RETURN	ACCESS:          0  HIT:          0  MISS:          0	AVERAGE STALL: -nan
L2BTB BRANCH_OTHER ACCESS:          0  HIT:          0  MISS:          0	AVERAGE STALL: -nan
L2BTB TOTAL ROB OCCUPANCY AT BTB MISS: inf

L2C TOTAL     ACCESS:    4480028  HIT:    3988348  MISS:     491680  HIT %:    89.0251  MISS %:    10.9749   MPKI: 9.8336
L2C LOAD INSTRUCTION	ACCESS:    2759928  HIT:    2479955  MISS:     279973  HIT %:    89.8558  MISS %:    10.1442  MPKI: 5.59946
L2C LOAD TRANSLATION INSTRUCTION	ACCESS:        245  HIT:         67  MISS:        178  HIT %:    27.3469  MISS %:    72.6531  MPKI: 0.00356
L2C LOAD DATA	ACCESS:     728175  HIT:     656994  MISS:      71181  HIT %:    90.2247  MISS %:    9.77526  MPKI: 1.42362
L2C RFO DATA	ACCESS:     284555  HIT:     229541  MISS:      55014  HIT %:    80.6667  MISS %:    19.3333  MPKI: 1.10028
L2C PREFETCH DATA	ACCESS:     184733  HIT:     115117  MISS:      69616  HIT %:    62.3153  MISS %:    37.6847  MPKI: 1.39232
L2C WRITEBACK DATA	ACCESS:     520530  HIT:     506177  MISS:      14353  HIT %:    97.2426  MISS %:    2.75738  MPKI: 0.28706
L2C LOAD TRANSLATION DATA	ACCESS:       1810  HIT:        456  MISS:       1354  HIT %:    25.1934  MISS %:    74.8066  MPKI: 0.02708
L2C TRANSLATION FROM L1D PREFETCHER DATA	ACCESS:         52  HIT:         41  MISS:         11  HIT %:    78.8462  MISS %:    21.1538  MPKI: 0.00022

L2C PREFETCH  REQUESTED:      90437  ISSUED:      90437  USEFUL:       7429  USELESS:      62617
L2C USEFUL LOAD PREFETCHES:       7429 PREFETCH ISSUED TO LOWER LEVEL:      70009  ACCURACY: 10.6115
 TIMELY PREFETCHES:       7429 LATE PREFETCHES: 393 DROPPED PREFETCHES: 0
L2C AVERAGE MISS LATENCY: 37.8345 cycles
L2C RQ	ACCESS:    3774833	FORWARD:          0	MERGED:          0	TO_CACHE:    3774765
L2C WQ	ACCESS:     520531	FORWARD:         68	MERGED:          0	TO_CACHE:     520531
L2C PQ	ACCESS:     192167	FORWARD:          0	MERGED:       3387	TO_CACHE:     188780

L2C Dense regions hint from L2: 0
PSCL5 TOTAL     ACCESS:       4002  HIT:       2001  MISS:       2001  HIT %:         50  MISS %:         50   MPKI: 0.04002
PSCL5 LOAD TRANSLATION INSTRUCTION	ACCESS:       3898  HIT:       1949  MISS:       1949  HIT %:         50  MISS %:         50  MPKI: 0.03898
PSCL5 TRANSLATION FROM L1D PREFETCHER INSTRUCTION	ACCESS:        104  HIT:         52  MISS:         52  HIT %:         50  MISS %:         50  MPKI: 0.00104


PSCL4 TOTAL     ACCESS:       3905  HIT:       1949  MISS:       1956  HIT %:    49.9104  MISS %:    50.0896   MPKI: 0.03912
PSCL4 LOAD TRANSLATION INSTRUCTION	ACCESS:       3485  HIT:       1898  MISS:       1587  HIT %:     54.462  MISS %:     45.538  MPKI: 0.03174
PSCL4 TRANSLATION FROM L1D PREFETCHER INSTRUCTION	ACCESS:        102  HIT:         51  MISS:         51  HIT %:         50  MISS %:         50  MPKI: 0.00102
PSCL4 LOAD TRANSLATION DATA	ACCESS:        318  HIT:          0  MISS:        318  HIT %:          0  MISS %:        100  MPKI: 0.00636


PSCL3 TOTAL     ACCESS:       3961  HIT:       1977  MISS:       1984  HIT %:    49.9116  MISS %:    50.0884   MPKI: 0.03968
PSCL3 LOAD TRANSLATION INSTRUCTION	ACCESS:       3513  HIT:       1926  MISS:       1587  HIT %:    54.8249  MISS %:    45.1751  MPKI: 0.03174
PSCL3 TRANSLATION FROM L1D PREFETCHER INSTRUCTION	ACCESS:        102  HIT:         51  MISS:         51  HIT %:         50  MISS %:         50  MPKI: 0.00102
PSCL3 LOAD TRANSLATION DATA	ACCESS:        346  HIT:          0  MISS:        346  HIT %:          0  MISS %:        100  MPKI: 0.00692


PSCL2 TOTAL     ACCESS:       3909  HIT:       1908  MISS:       2001  HIT %:    48.8104  MISS %:    51.1896   MPKI: 0.04002
PSCL2 LOAD TRANSLATION INSTRUCTION	ACCESS:       2073  HIT:       1856  MISS:        217  HIT %:    89.5321  MISS %:    10.4679  MPKI: 0.00434
PSCL2 TRANSLATION FROM L1D PREFETCHER INSTRUCTION	ACCESS:         52  HIT:         52  MISS:          0  HIT %:        100  MISS %:          0  MPKI: 0
PSCL2 LOAD TRANSLATION DATA	ACCESS:       1732  HIT:          0  MISS:       1732  HIT %:          0  MISS %:        100  MPKI: 0.03464
PSCL2 TRANSLATION FROM L1D PREFETCHER DATA	ACCESS:         52  HIT:          0  MISS:         52  HIT %:          0  MISS %:        100  MPKI: 0.00104


LLC TOTAL     ACCESS:     553888  HIT:     526564  MISS:      27324  HIT %:    95.0669  MISS %:    4.93313   MPKI: 0.54648
LLC LOAD INSTRUCTION	ACCESS:     279973  HIT:     279217  MISS:        756  HIT %:      99.73  MISS %:   0.270026  MPKI: 0.01512
LLC LOAD TRANSLATION INSTRUCTION	ACCESS:        178  HIT:        158  MISS:         20  HIT %:     88.764  MISS %:     11.236  MPKI: 0.0004
LLC LOAD DATA	ACCESS:      70791  HIT:      67480  MISS:       3311  HIT %:    95.3229  MISS %:    4.67715  MPKI: 0.06622
LLC RFO DATA	ACCESS:      54995  HIT:      41562  MISS:      13433  HIT %:    75.5741  MISS %:    24.4259  MPKI: 0.26866
LLC PREFETCH DATA	ACCESS:      70009  HIT:      60602  MISS:       9407  HIT %:    86.5632  MISS %:    13.4368  MPKI: 0.18814
LLC WRITEBACK DATA	ACCESS:      76577  HIT:      76275  MISS:        302  HIT %:    99.6056  MISS %:   0.394374  MPKI: 0.00604
LLC LOAD TRANSLATION DATA	ACCESS:       1354  HIT:       1259  MISS:         95  HIT %:    92.9838  MISS %:    7.01625  MPKI: 0.0019
LLC TRANSLATION FROM L1D PREFETCHER DATA	ACCESS:         11  HIT:         11  MISS:          0  HIT %:        100  MISS %:          0  MPKI: 0

LLC AVERAGE MISS LATENCY: 155.403 cycles
LLC RQ	ACCESS:     407318	FORWARD:          0	MERGED:          0	TO_CACHE:     407302
LLC WQ	ACCESS:      76577	FORWARD:         16	MERGED:          0	TO_CACHE:      76577
LLC PQ	ACCESS:      70009	FORWARD:          0	MERGED:          0	TO_CACHE:      70009

LLC Dense regions hint to LLC: 0

RAW hits: 1969858
Loads Generated: 12634564
Loads sent to L1D: 10664707
Stores Generated: 6945329
Stores sent to L1D: 6945323
Major fault: 0 Minor fault: 2570
Allocated PAGES: 2570

stream: 
stream:times selected: 1191614
stream:pref_filled: 122278
stream:pref_useful: 23978
stream:pref_late: 6726
stream:misses: 8064
stream:misses_by_poll: 0

CS: 
CS:times selected: 177068
CS:pref_filled: 59669
CS:pref_useful: 36385
CS:pref_late: 7342
CS:misses: 16100
CS:misses_by_poll: 0

CPLX: 
CPLX:times selected: 1013457
CPLX:pref_filled: 19316
CPLX:pref_useful: 4591
CPLX:pref_late: 3032
CPLX:misses: 93303
CPLX:misses_by_poll: 4

NL_L1: 
NL:times selected: 21047
NL:pref_filled: 803
NL:pref_useful: 387
NL:pref_late: 260
NL:misses: 1769
NL:misses_by_poll: 0

total selections: 2403186
total_filled: 93537
total_useful: 33262
total_late: 18593
total_polluted: 4
total_misses_after_warmup: 772305
conflicts: 5499582

test: 118408

DRAM Statistics
 CHANNEL 0
 RQ ROW_BUFFER_HIT:       9927  ROW_BUFFER_MISS:      17085
 DBUS_CONGESTED:          3
 WQ ROW_BUFFER_HIT:       1301  ROW_BUFFER_MISS:      11936  FULL:          0

 AVG_CONGESTED_CYCLE: 5

CPU 0 Branch Prediction Accuracy: 99.821% MPKI: 0.32738 Average ROB Occupancy at Mispredict: 205.207
Branch types
NOT_BRANCH: 40853718 81.7074%
BRANCH_DIRECT_JUMP: 548977 1.09795%
BRANCH_INDIRECT: 183386 0.366772%
BRANCH_CONDITIONAL: 6185716 12.3714%
BRANCH_DIRECT_CALL: 943070 1.88614%
BRANCH_INDIRECT_CALL: 171046 0.342092%
BRANCH_RETURN: 1114112 2.22822%
BRANCH_OTHER: 0 0%

DRAM PAGES: 1048576
Allocated PAGES: 2570
Average_ROB_Occupancy: 295.662
Average_Decode_Occupancy: 45.4858
Average_FTQ_Occupancy: 17.1476
Indirect max targets: 14 Average targets: 1.15017
Branch_type:  BRANCH_DIRECT_JUMP:  Count Percentage: 3.32081 5.83787 4.10524 8.79817 2.41135 6.3357 2.15008 67.0408 
Branch_type:  BRANCH_INDIRECT:  Count Percentage: 6.15279 3.45228 8.1678 9.69318 3.33717 2.80252 3.86527 62.529 
Branch_type:  BRANCH_CONDITIONAL:  Count Percentage: 25.0011 3.3707 1.52679 4.33429 2.09337 3.67671 2.51119 57.4858 
Branch_type:  BRANCH_DIRECT_CALL:  Count Percentage: 0.390424 1.7551 0.756094 4.1871 2.53674 2.74157 3.39738 84.2356 
Branch_type:  BRANCH_INDIRECT_CALL:  Count Percentage: 9.56474 0 2.9992 0 0 2.03047 5.00949 80.3961 
Branch_type:  BRANCH_RETURN:  Count Percentage: 7.54088 1.80349 1.03903 3.70719 3.80556 3.55907 3.34849 75.1963 
Branch_type:  BRANCH_DIRECT_JUMP:  Total Count: 36441 64062 45049 96547 26461 69525 23594 735674 
Branch_type:  BRANCH_INDIRECT:  Total Count: 22556 12656 29943 35535 12234 10274 14170 229230 
Branch_type:  BRANCH_CONDITIONAL:  Total Count: 3091170 416758 188774 535898 258827 454594 310487 7107628 
Branch_type:  BRANCH_DIRECT_CALL:  Total Count: 7350 33041 14234 78825 47756 51612 63958 1585794 
Branch_type:  BRANCH_INDIRECT_CALL:  Total Count: 32701 0 10254 0 0 6942 17127 274867 
Branch_type:  BRANCH_RETURN:  Total Count: 167803 40132 23121 82494 84683 79198 74512 1673302 
Number of unique branch instructions: 9834
Upper 32 bits: 
aaaa
ffff
ffff0000
Unique upper 32 bits: 3
Unique upper 36 bits: 3
Unique upper 40 bits: 5
Unique upper 44 bits: 32
Unique upper 48 bits: 153
Offset_3 4049
Offset_4 243
Offset_5 448
Offset_6 501
Offset_7 579
Offset_8 510
Offset_9 465
Offset_10 375
Offset_11 313
Offset_12 284
Offset_13 199
Offset_14 228
Offset_15 189
Offset_16 219
Offset_17 142
Offset_18 126
Offset_19 235
Offset_20 139
Offset_21 235
Offset_22 390
Offset_23 241
Offset_24 324
Offset_25 88
Offset_47 80
decode_dispatch_called: 27564503 80.6592
Dispatch_width: 0 14283592 51.8188 41.7966
Dispatch_width: 1 1269282 4.60477 3.71417
Dispatch_width: 2 1031048 3.74049 3.01705
Dispatch_width: 3 602095 2.18431 1.76185
Dispatch_width: 4 8668648 31.4486 25.3662
Dispatch_width: 5 71282 0.258601 0.208585
Dispatch_width: 6 1638556 5.94444 4.79474
Empty_decode_cycles: 6609512 19.3408
ROB_full_cycles: 13813331 40.4206
Starvation_cycles_per_kilo_instr: 187.221
Starvation_cycles_per_kilo_instr_3: 99.822
Starvation_cycles_per_kilo_instr_0: 70.7977
Branch_type_1  (3,1)  (4,7)  (5,36)  (6,70)  (7,114)  (8,127)  (9,124)  (10,98)  (11,70)  (12,51)  (13,5)  (14,2)  (15,3)  (16,4)  (18,1)  (19,4)  (20,2)  (21,1)  (22,3)  (23,2)  (24,10)  (25,12) 
Branch_type_2  (3,1)  (5,1)  (8,3)  (9,3)  (12,1)  (13,1)  (14,1)  (16,3)  (17,2)  (20,2)  (21,2)  (23,5)  (24,1)  (47,36) 
Branch_type_3  (3,4047)  (4,236)  (5,407)  (6,415)  (7,434)  (8,319)  (9,255)  (10,150)  (11,128)  (12,59)  (13,4) 
Branch_type_4  (6,4)  (7,8)  (8,26)  (9,51)  (10,60)  (11,59)  (12,95)  (13,86)  (14,101)  (15,89)  (16,98)  (17,63)  (18,57)  (19,114)  (20,72)  (21,124)  (22,207)  (23,136)  (24,186)  (25,72) 
Branch_type_5  (8,2)  (9,1)  (10,3)  (11,5)  (12,3)  (13,14)  (14,16)  (15,11)  (16,20)  (17,11)  (18,16)  (19,12)  (20,10)  (21,13)  (22,42)  (23,26)  (24,36) 
Branch_type_6  (5,4)  (6,12)  (7,23)  (8,33)  (9,31)  (10,64)  (11,51)  (12,75)  (13,89)  (14,108)  (15,86)  (16,94)  (17,66)  (18,52)  (19,105)  (20,53)  (21,95)  (22,138)  (23,72)  (24,91)  (25,4)  (47,44) 
Unique trigger count: 
BTB PER SET UNIQUE ADDR: 0 0 0 0 0 0 0 0 0 0 0 0 0 0 0 0 0 0 0 0 0 0 0 0 0 0 0 0 0 0 0 0 0 0 0 0 0 0 0 0 0 0 0 0 0 0 0 0 0 0 0 0 0 0 0 0 0 0 0 0 0 0 0 0 0 0 0 0 0 0 0 0 0 0 0 0 0 0 0 0 0 0 0 0 0 0 0 0 0 0 0 0 0 0 0 0 0 0 0 0 0 0 0 0 0 0 0 0 0 0 0 0 0 0 0 0 0 0 0 0 0 0 0 0 0 0 0 0 0 0 0 0 0 0 0 0 0 0 0 0 0 0 0 0 0 0 0 0 0 0 0 0 0 0 0 0 0 0 0 0 0 0 0 0 0 0 0 0 0 0 0 0 0 0 0 0 0 0 0 0 0 0 0 0 0 0 0 0 0 0 0 0 0 0 0 0 0 0 0 0 0 0 0 0 0 0 0 0 0 0 0 0 0 0 0 0 0 0 0 0 0 0 0 0 0 0 0 0 0 0 0 0 0 0 0 0 0 0 0 0 0 0 0 0 0 0 0 0 0 0 0 0 0 0 0 0 0 0 0 0 0 0 0 0 0 0 0 0 0 0 0 0 0 0 0 0 0 0 0 0 0 0 0 0 0 0 0 0 0 0 0 0 0 0 0 0 0 0 0 0 0 0 0 0 0 0 0 0 0 0 0 0 0 0 0 0 0 0 0 0 0 0 0 0 0 0 0 0 0 0 0 0 0 0 0 0 0 0 0 0 0 0 0 0 0 0 0 0 0 0 0 0 0 0 0 0 0 0 0 0 0 0 0 0 0 0 0 0 0 0 0 0 0 0 0 0 0 0 0 0 0 0 0 0 0 0 0 0 0 0 0 0 0 0 0 0 0 0 0 0 0 0 0 0 0 0 0 0 0 0 0 0 0 0 0 0 0 0 0 0 0 0 0 0 0 0 0 0 0 0 0 0 0 0 0 0 0 0 0 0 0 0 0 0 0 0 0 0 0 0 0 0 0 0 0 0 0 0 0 0 0 0 0 0 0 0 0 0 0 0 0 0 0 0 0 0 0 0 0 0 0 0 0 0 0 0 0 0 0 0 0 0 0 0 0 0 0 0 0 0 0 0 0 0 0 0 0 0 0 0 0 0 0 0 0 0 0 0 0 0 0 0 0 0 0 0 0 0 0 0 0 0 0 0 0 0 0 0 0 0 0 0 0 0 0 0 0 0 0 0 0 0 0 0 0 0 0 0 0 0 0 0 0 0 0 0 0 0 0 0 0 0 0 0 0 0 0 0 0 0 0 0 0 0 0 0 0 0 0 0 0 0 0 0 0 0 0 0 0 0 0 0 0 0 0 0 0 0 0 0 0 0 0 0 0 0 0 0 0 0 0 0 0 0 0 0 0 0 0 0 0 0 0 0 0 0 0 0 0 0 0 0 0 0 0 0 0 0 0 0 0 0 0 0 0 0 0 0 0 0 0 0 0 0 0 0 0 0 0 0 0 0 0 0 0 0 0 0 0 0 0 0 0 0 0 0 0 0 0 0 0 0 0 0 0 0 0 0 0 0 0 0 0 0 0 0 0 0 0 0 0 0 0 0 0 0 0 0 0 0 0 0 0 0 0 0 0 0 0 0 0 0 0 0 0 0 0 0 0 0 0 0 0 0 0 0 0 0 0 0 0 0 0 0 0 0 0 0 0 0 0 0 0 0 0 0 0 0 0 0 0 0 0 0 0 0 0 0 0 0 0 0 0 0 0 0 0 0 0 0 0 0 0 0 0 0 0 0 0 0 0 0 0 0 0 0 0 0 0 0 0 0 0 0 0 0 0 0 0 0 0 0 0 0 0 0 0 0 0 0 0 0 0 0 0 0 0 0 0 0 0 0 0 0 0 0 0 0 0 0 0 0 0 0 0 0 0 0 0 0 0 0 0 0 0 0 0 0 0 0 0 0 0 0 0 0 0 0 0 0 0 0 0 0 0 0 0 0 0 0 0 0 0 0 0 0 0 0 0 0 0 0 0 0 0 0 0 0 0 0 0 0 0 0 0 0 0 0 0 0 0 0 0 0 0 0 0 0 0 0 0 0 0 0 0 0 0 0 0 0 0 0 0 0 0 0 0 0 0 0 0 0 0 0 0 0 0 0 0 0 0 0 0 0 0 0 0 0 0 0 0 0 0 0 0 0 0 0 0 0 0 0 0 0 0 0 0 0 0 0 0 0 0 0 0 0 0 0 0 0 0 0 0 0 0 0 0 0 0 0 0 0 0 0 0 0 0 0 0 0 0 0 0 0 0 0 0 0 0 0 0 0 0 0 0 0 0 0 0 0 0 0 0 0 0 0 0 0 0 0 0 0 0 0 0 0 0 0 0 0 0 0 0 0 0 0 0 0 0 0 0 0 0 0 0 0 0 0 0 0 0 0 0 0 0 0 0 0 0 0 0 0 0 0 0 0 0 0 0 0 0 0 0 0 0 0 0 0 0 0 0 0 0 0 0 0 0 0 0 0 0 0 0 0 0 0 0 0 0 0 0 0 0 0 0 0 0 0 0 0 0 0 0 0 0 0 0 0 0 0 0 0 0 0 0 0 0 0 0 0 0 0 0 0 0 0 0 0 0 0 0 0 0 0 0 0 0 0 0 0 0 0 0 0 0 0 0 0 0 0 0 0 0 0 0 0 0 0 0 0 0 0 0 0 0 0 0 0 0 0 0 0 0 0 0 0 0 0 0 0 0 0 0 0 0 0 0 0 0 0 0 0 0 0 0 0 0 0 0 0 0 0 0 0 0 0 0 0 0 0 0 0 0 0 0 0 0 0 0 0 0 0 0 0 0 0 0 0 0 0 0 0 0 0 0 0 0 0 0 0 0 0 0 0 0 0 0 0 0 0 0 0 0 0 0 0 0 0 0 0 0 0 0 0 0 0 0 0 0 0 0 0 0 0 0 0 0 0 0 0 0 0 0 0 0 0 0 0 0 0 0 0 0 0 0 0 0 0 0 0 0 0 0 0 0 0 0 0 0 0 0 0 0 0 0 0 0 0 0 0 0 0 0 0 0 0 0 0 0 0 0 0 0 0 0 0 0 0 0 0 0 0 0 0 0 0 0 0 0 0 0 0 0 0 0 0 0 0 0 0 0 0 0 0 0 0 0 0 0 0 0 0 0 0 0 0 0 0 0 0 0 0 0 0 0 0 0 0 0 0 0 0 0 0 0 0 0 0 0 0 0 0 0 0 0 0 0 0 0 0 0 0 0 0 0 0 0 0 0 0 0 0 0 0 0 0 0 0 0 0 0 0 0 0 0 0 0 0 0 0 0 0 0 0 0 0 0 0 0 0 0 0 0 0 0 0 0 0 0 0 0 0 0 0 0 0 0 0 0 0 0 0 0 0 0 0 0 0 0 0 0 0 0 0 0 0 0 0 0 0 0 0 0 0 0 0 0 0 0 0 0 0 0 0 0 0 0 0 0 0 0 0 0 0 0 0 0 0 0 0 0 0 0 0 0 0 0 0 0 0 0 0 0 0 0 0 0 0 0 0 0 0 0 0 0 0 0 0 0 0 0 0 0 0 0 0 0 0 0 0 0 0 0 0 0 0 0 0 0 0 0 0 0 0 0 0 0 0 0 0 0 0 0 0 0 0 0 0 0 0 0 0 0 0 0 0 0 0 0 0 0 0 0 0 0 0 0 0 0 0 0 0 0 0 0 0 0 0 0 0 0 0 0 0 0 0 0 0 0 0 0 0 0 0 0 0 0 0 0 0 0 0 0 0 0 0 0 0 0 0 0 0 0 0 0 0 0 0 0 0 0 0 0 0 0 0 0 0 0 0 0 0 0 0 0 0 0 0 0 0 0 0 0 0 0 0 0 0 0 0 0 0 0 0 0 0 0 0 0 0 0 0 0 0 0 0 0 0 0 0 0 0 0 0 0 0 0 0 0 0 0 0 0 0 0 0 0 0 0 0 0 0 0 0 0 0 0 0 0 0 0 0 0 0 0 0 0 0 0 0 0 0 0 0 0 0 0 0 0 0 0 0 0 0 0 0 0 0 0 0 0 0 0 0 0 0 0 0 0 0 0 0 0 0 0 0 0 0 0 0 0 0 0 0 0 0 0 0 0 0 0 0 0 0 0 0 0 0 0 0 0 0 0 0 0 0 0 0 0 0 0 0 0 0 0 0 0 0 0 0 0 0 0 0 0 0 0 0 0 0 0 0 0 0 0 0 0 0 0 0 0 0 0 0 0 0 0 0 0 0 0 0 0 0 0 0 0 0 0 0 0 0 0 0 0 0 0 0 0 0 0 0 0 0 0 0 0 0 0 0 0 0 0 0 0 0 0 0 0 0 0 0 0 0 0 0 0 0 0 0 0 0 0 0 0 0 0 0 0 0 0 0 0 0 0 0 0 0 0 0 0 0 0 0 0 0 0 0 0 0 0 0 0 0 0 0 0 0 0 0 0 0 0 0 0 0 0 0 0 0 0 0 0 0 0 0 0 0 0 0 0 0 0 0 0 0 0 0 0 0 0 0 0 0 0 0 0 0 0 0 0 0 0 0 0 0 0 0 0 0 0 0 0 0 0 0 0 0 
BTB PER SET COUNT: 0 0 0 0 0 0 0 0 0 0 0 0 0 0 0 0 0 0 0 0 0 0 0 0 0 0 0 0 0 0 0 0 0 0 0 0 0 0 0 0 0 0 0 0 0 0 0 0 0 0 0 0 0 0 0 0 0 0 0 0 0 0 0 0 0 0 0 0 0 0 0 0 0 0 0 0 0 0 0 0 0 0 0 0 0 0 0 0 0 0 0 0 0 0 0 0 0 0 0 0 0 0 0 0 0 0 0 0 0 0 0 0 0 0 0 0 0 0 0 0 0 0 0 0 0 0 0 0 0 0 0 0 0 0 0 0 0 0 0 0 0 0 0 0 0 0 0 0 0 0 0 0 0 0 0 0 0 0 0 0 0 0 0 0 0 0 0 0 0 0 0 0 0 0 0 0 0 0 0 0 0 0 0 0 0 0 0 0 0 0 0 0 0 0 0 0 0 0 0 0 0 0 0 0 0 0 0 0 0 0 0 0 0 0 0 0 0 0 0 0 0 0 0 0 0 0 0 0 0 0 0 0 0 0 0 0 0 0 0 0 0 0 0 0 0 0 0 0 0 0 0 0 0 0 0 0 0 0 0 0 0 0 0 0 0 0 0 0 0 0 0 0 0 0 0 0 0 0 0 0 0 0 0 0 0 0 0 0 0 0 0 0 0 0 0 0 0 0 0 0 0 0 0 0 0 0 0 0 0 0 0 0 0 0 0 0 0 0 0 0 0 0 0 0 0 0 0 0 0 0 0 0 0 0 0 0 0 0 0 0 0 0 0 0 0 0 0 0 0 0 0 0 0 0 0 0 0 0 0 0 0 0 0 0 0 0 0 0 0 0 0 0 0 0 0 0 0 0 0 0 0 0 0 0 0 0 0 0 0 0 0 0 0 0 0 0 0 0 0 0 0 0 0 0 0 0 0 0 0 0 0 0 0 0 0 0 0 0 0 0 0 0 0 0 0 0 0 0 0 0 0 0 0 0 0 0 0 0 0 0 0 0 0 0 0 0 0 0 0 0 0 0 0 0 0 0 0 0 0 0 0 0 0 0 0 0 0 0 0 0 0 0 0 0 0 0 0 0 0 0 0 0 0 0 0 0 0 0 0 0 0 0 0 0 0 0 0 0 0 0 0 0 0 0 0 0 0 0 0 0 0 0 0 0 0 0 0 0 0 0 0 0 0 0 0 0 0 0 0 0 0 0 0 0 0 0 0 0 0 0 0 0 0 0 0 0 0 0 0 0 0 0 0 0 0 0 0 0 0 0 0 0 0 0 0 0 0 0 0 0 0 0 0 0 0 0 0 0 0 0 0 0 0 0 0 0 0 0 0 0 0 0 0 0 0 0 0 0 0 0 0 0 0 0 0 0 0 0 0 0 0 0 0 0 0 0 0 0 0 0 0 0 0 0 0 0 0 0 0 0 0 0 0 0 0 0 0 0 0 0 0 0 0 0 0 0 0 0 0 0 0 0 0 0 0 0 0 0 0 0 0 0 0 0 0 0 0 0 0 0 0 0 0 0 0 0 0 0 0 0 0 0 0 0 0 0 0 0 0 0 0 0 0 0 0 0 0 0 0 0 0 0 0 0 0 0 0 0 0 0 0 0 0 0 0 0 0 0 0 0 0 0 0 0 0 0 0 0 0 0 0 0 0 0 0 0 0 0 0 0 0 0 0 0 0 0 0 0 0 0 0 0 0 0 0 0 0 0 0 0 0 0 0 0 0 0 0 0 0 0 0 0 0 0 0 0 0 0 0 0 0 0 0 0 0 0 0 0 0 0 0 0 0 0 0 0 0 0 0 0 0 0 0 0 0 0 0 0 0 0 0 0 0 0 0 0 0 0 0 0 0 0 0 0 0 0 0 0 0 0 0 0 0 0 0 0 0 0 0 0 0 0 0 0 0 0 0 0 0 0 0 0 0 0 0 0 0 0 0 0 0 0 0 0 0 0 0 0 0 0 0 0 0 0 0 0 0 0 0 0 0 0 0 0 0 0 0 0 0 0 0 0 0 0 0 0 0 0 0 0 0 0 0 0 0 0 0 0 0 0 0 0 0 0 0 0 0 0 0 0 0 0 0 0 0 0 0 0 0 0 0 0 0 0 0 0 0 0 0 0 0 0 0 0 0 0 0 0 0 0 0 0 0 0 0 0 0 0 0 0 0 0 0 0 0 0 0 0 0 0 0 0 0 0 0 0 0 0 0 0 0 0 0 0 0 0 0 0 0 0 0 0 0 0 0 0 0 0 0 0 0 0 0 0 0 0 0 0 0 0 0 0 0 0 0 0 0 0 0 0 0 0 0 0 0 0 0 0 0 0 0 0 0 0 0 0 0 0 0 0 0 0 0 0 0 0 0 0 0 0 0 0 0 0 0 0 0 0 0 0 0 0 0 0 0 0 0 0 0 0 0 0 0 0 0 0 0 0 0 0 0 0 0 0 0 0 0 0 0 0 0 0 0 0 0 0 0 0 0 0 0 0 0 0 0 0 0 0 0 0 0 0 0 0 0 0 0 0 0 0 0 0 0 0 0 0 0 0 0 0 0 0 0 0 0 0 0 0 0 0 0 0 0 0 0 0 0 0 0 0 0 0 0 0 0 0 0 0 0 0 0 0 0 0 0 0 0 0 0 0 0 0 0 0 0 0 0 0 0 0 0 0 0 0 0 0 0 0 0 0 0 0 0 0 0 0 0 0 0 0 0 0 0 0 0 0 0 0 0 0 0 0 0 0 0 0 0 0 0 0 0 0 0 0 0 0 0 0 0 0 0 0 0 0 0 0 0 0 0 0 0 0 0 0 0 0 0 0 0 0 0 0 0 0 0 0 0 0 0 0 0 0 0 0 0 0 0 0 0 0 0 0 0 0 0 0 0 0 0 0 0 0 0 0 0 0 0 0 0 0 0 0 0 0 0 0 0 0 0 0 0 0 0 0 0 0 0 0 0 0 0 0 0 0 0 0 0 0 0 0 0 0 0 0 0 0 0 0 0 0 0 0 0 0 0 0 0 0 0 0 0 0 0 0 0 0 0 0 0 0 0 0 0 0 0 0 0 0 0 0 0 0 0 0 0 0 0 0 0 0 0 0 0 0 0 0 0 0 0 0 0 0 0 0 0 0 0 0 0 0 0 0 0 0 0 0 0 0 0 0 0 0 0 0 0 0 0 0 0 0 0 0 0 0 0 0 0 0 0 0 0 0 0 0 0 0 0 0 0 0 0 0 0 0 0 0 0 0 0 0 0 0 0 0 0 0 0 0 0 0 0 0 0 0 0 0 0 0 0 0 0 0 0 0 0 0 0 0 0 0 0 0 0 0 0 0 0 0 0 0 0 0 0 0 0 0 0 0 0 0 0 0 0 0 0 0 0 0 0 0 0 0 0 0 0 0 0 0 0 0 0 0 0 0 0 0 0 0 0 0 0 0 0 0 0 0 0 0 0 0 0 0 0 0 0 0 0 0 0 0 0 0 0 0 0 0 0 0 0 0 0 0 0 0 0 0 0 0 0 0 0 0 0 0 0 0 0 0 0 0 0 0 0 0 0 0 0 0 0 0 0 0 0 0 0 0 0 0 0 0 0 0 0 0 0 0 0 0 0 0 0 0 0 0 0 0 0 0 0 0 0 0 0 0 0 0 0 0 0 0 0 0 0 0 0 0 0 0 0 0 0 0 0 0 0 0 0 0 0 0 0 0 0 0 0 0 0 0 0 0 0 0 0 0 0 0 0 0 0 0 0 0 0 0 0 0 0 0 0 0 0 0 0 0 0 0 0 0 0 0 0 0 0 0 0 0 0 0 0 0 0 0 0 0 0 0 0 0 0 0 0 0 0 0 0 0 0 0 0 0 0 0 0 0 0 0 0 0 0 0 0 0 0 0 0 0 0 0 0 0 0 0 0 0 0 0 0 0 0 0 0 0 0 0 0 0 0 0 0 0 0 0 0 0 0 0 0 0 0 0 0 0 0 0 0 0 0 0 0 0 0 0 0 0 0 0 0 0 0 0 0 0 0 0 0 0 0 0 0 0 0 0 0 0 0 0 0 0 0 0 0 0 0 0 0 0 0 0 0 0 0 0 0 0 0 0 0 0 0 0 0 0 0 0 0 0 0 0 0 0 0 0 0 0 0 0 0 0 0 0 0 0 0 0 0 0 0 0 0 0 0 0 0 0 0 0 0 0 0 0 0 0 0 0 0 0 0 0 0 0 0 0 0 0 0 0 0 0 0 0 0 0 0 0 0 0 0 0 0 0 0 0 0 0 0 0 0 0 0 0 0 0 0 0 0 0 0 0 0 0 0 0 0 0 0 0 0 0 0 0 0 0 0 0 0 0 0 0 0 0 0 0 0 0 0 0 0 0 0 0 0 0 0 0 0 0 0 0 0 0 0 0 0 0 0 0 0 0 0 0 0 0 0 0 0 0 0 0 0 0 0 0 0 0 0 0 0 0 0 0 0 0 0 0 0 0 0 0 0 0 0 0 0 0 0 0 0 0 0 0 0 0 0 0 0 0 0 0 0 0 0 0 0 0 0 0 0 0 0 0 0 0 0 0 0 0 0 0 0 0 0 0 0 0 0 0 0 0 0 0 0 0 0 0 0 0 0 0 
