
*** ChampSim Multicore Out-of-Order Simulator ***

Warmup Instructions: 50000000
Simulation Instructions: 50000000
Number of CPUs: 1
LLC sets: 2048
LLC ways: 16
Off-chip DRAM Size: 4096 MB Channels: 1 Width: 64-bit Data Rate: 6400 MT/s
CPU 0 runs ./micro_traces/srv178.trace.gz
.gz
ITLB has LRU replacement policy
DTLB has LRU replacement policy
STLB has LRU replacement policy
CPU 0 L1I next line prefetcher
L1I has LRU replacement policy
L1D has LRU replacement policy
Initialize SRRIP state for L2C
Initialize DRRIP state for LLC
Heartbeat CPU 0 instructions: 10000000 cycles: 2798431 heartbeat IPC: 3.57343 cumulative IPC: 3.57343 (Simulation time: 0 hr 2 min 57 sec) 
Heartbeat CPU 0 instructions: 20000001 cycles: 5594524 heartbeat IPC: 3.57642 cumulative IPC: 3.57492 (Simulation time: 0 hr 4 min 50 sec) 
Heartbeat CPU 0 instructions: 30000000 cycles: 8391593 heartbeat IPC: 3.57517 cumulative IPC: 3.57501 (Simulation time: 0 hr 6 min 28 sec) 
Heartbeat CPU 0 instructions: 40000003 cycles: 11190044 heartbeat IPC: 3.57341 cumulative IPC: 3.57461 (Simulation time: 0 hr 8 min 6 sec) 
Heartbeat CPU 0 instructions: 50000000 cycles: 13987110 heartbeat IPC: 3.57517 cumulative IPC: 3.57472 (Simulation time: 0 hr 9 min 42 sec) 

Warmup complete CPU 0 instructions: 50000004 cycles: 13987111 (Simulation time: 0 hr 9 min 42 sec) 

Cycle: 20000000 FTQ IN: 56419567 FTQ occupancy: 17.2115 DECODE IN: 56419567 DECODE occupancy: 44.984 ROB IN: 56419565 ROB occupancy: 280.095 ROB OUT: 56419557
Heartbeat CPU 0 instructions: 60000000 cycles: 23264178 heartbeat IPC: 1.07793 cumulative IPC: 1.07793 (Simulation time: 0 hr 10 min 59 sec) 
Cycle: 30000000 FTQ IN: 11003356 FTQ occupancy: 3.58758 DECODE IN: 11003219 DECODE occupancy: 9.52013 ROB IN: 11003161 ROB occupancy: 118.826 ROB OUT: 11002821
Heartbeat CPU 0 instructions: 70000003 cycles: 32356162 heartbeat IPC: 1.09987 cumulative IPC: 1.08879 (Simulation time: 0 hr 12 min 17 sec) 
Cycle: 40000000 FTQ IN: 10977276 FTQ occupancy: 3.79684 DECODE IN: 10977413 DECODE occupancy: 10.1652 ROB IN: 10977470 ROB occupancy: 123.288 ROB OUT: 10977531
Heartbeat CPU 0 instructions: 80000001 cycles: 41443595 heartbeat IPC: 1.10042 cumulative IPC: 1.09264 (Simulation time: 0 hr 13 min 35 sec) 
Cycle: 50000000 FTQ IN: 11137643 FTQ occupancy: 3.6845 DECODE IN: 11137636 DECODE occupancy: 9.9798 ROB IN: 11137639 ROB occupancy: 123.145 ROB OUT: 11137646
Heartbeat CPU 0 instructions: 90000000 cycles: 50428027 heartbeat IPC: 1.11304 cumulative IPC: 1.09767 (Simulation time: 0 hr 14 min 51 sec) 
Heartbeat CPU 0 instructions: 100000003 cycles: 59496559 heartbeat IPC: 1.10271 cumulative IPC: 1.09867 (Simulation time: 0 hr 16 min 9 sec) 
Finished CPU 0 instructions: 50000001 cycles: 45509449 cumulative IPC: 1.09867 (Simulation time: 0 hr 16 min 9 sec) 

ChampSim completed all CPUs

Region of Interest Statistics

CPU 0 cumulative IPC: 1.09867 instructions: 50000001 cycles: 45509449
 Fetch stage stalled: 73.465  Sim cycles: 45509449 fetch stall cycle: 33433516
 Empty decode stage: 57.9775  Sim cycles: 45509449 fetch stall cycle: 26385237
ITLB TOTAL     ACCESS:    7649086  HIT:    7038378  MISS:     610708  HIT %:    92.0159  MISS %:    7.98407   MPKI: 12.2142
ITLB LOAD TRANSLATION INSTRUCTION	ACCESS:    5873592  HIT:    5744952  MISS:     128640  HIT %:    97.8099  MISS %:    2.19014  MPKI: 2.5728
ITLB TRANSLATION FROM L1D PREFETCHER INSTRUCTION	ACCESS:    1775494  HIT:    1293426  MISS:     482068  HIT %:    72.8488  MISS %:    27.1512  MPKI: 9.64136

ITLB AVERAGE MISS LATENCY: 98745 cycles
ITLB RQ	ACCESS:   11577617	FORWARD:          0	MERGED:    3787961	TO_CACHE:    7789656

DTLB TOTAL     ACCESS:    9383465  HIT:    8906911  MISS:     476554  HIT %:    94.9213  MISS %:    5.07866   MPKI: 9.53108
DTLB LOAD TRANSLATION DATA	ACCESS:    9383465  HIT:    8906911  MISS:     476554  HIT %:    94.9213  MISS %:    5.07866  MPKI: 9.53108

DTLB AVERAGE MISS LATENCY: 9.36954 cycles
DTLB RQ	ACCESS:   13664956	FORWARD:          0	MERGED:    4247328	TO_CACHE:    9417628

STLB TOTAL     ACCESS:    1334170  HIT:    1331616  MISS:       2554  HIT %:    99.8086  MISS %:    0.19143   MPKI: 0.05108
STLB LOAD TRANSLATION INSTRUCTION	ACCESS:     127058  HIT:     126851  MISS:        207  HIT %:    99.8371  MISS %:   0.162918  MPKI: 0.00414
STLB TRANSLATION FROM L1D PREFETCHER INSTRUCTION	ACCESS:     483650  HIT:     483376  MISS:        274  HIT %:    99.9433  MISS %:  0.0566525  MPKI: 0.00548
STLB LOAD TRANSLATION DATA	ACCESS:     476553  HIT:     474515  MISS:       2038  HIT %:    99.5723  MISS %:   0.427654  MPKI: 0.04076
STLB TRANSLATION FROM L1D PREFETCHER DATA	ACCESS:     246909  HIT:     246874  MISS:         35  HIT %:    99.9858  MISS %:  0.0141753  MPKI: 0.0007

STLB AVERAGE MISS LATENCY: 73.6006 cycles
STLB RQ	ACCESS:    1456638	FORWARD:          0	MERGED:     118673	TO_CACHE:    1337965

STLB Hit, L1D data hit: 0
STLB Hit, L2C data hit: 0
STLB Hit, LLC data hit: 0
STLB Hit, LLC data miss: 0
STLB STLB hints to L2: 0
L1D TOTAL     ACCESS:   13409274  HIT:   12291481  MISS:    1117793  HIT %:     91.664  MISS %:    8.33597   MPKI: 22.3559
L1D LOAD DATA	ACCESS:    6841461  HIT:    6105614  MISS:     735847  HIT %:    89.2443  MISS %:    10.7557  MPKI: 14.7169
L1D RFO DATA	ACCESS:    6242796  HIT:    5953869  MISS:     288927  HIT %:    95.3718  MISS %:    4.62817  MPKI: 5.77854
L1D PREFETCH DATA	ACCESS:     325017  HIT:     231998  MISS:      93019  HIT %:    71.3803  MISS %:    28.6197  MPKI: 1.86038

L1D PREFETCH  REQUESTED:     731535  ISSUED:     731535  USEFUL:      34403  USELESS:      67748
L1D USEFUL LOAD PREFETCHES:      34403 PREFETCH ISSUED TO LOWER LEVEL:     102261  ACCURACY: 33.6423
 TIMELY PREFETCHES:      34403 LATE PREFETCHES: 9139 DROPPED PREFETCHES: 11
L1D AVERAGE MISS LATENCY: 302024 cycles
L1D RQ	ACCESS:   10921707	FORWARD:          0	MERGED:    3877273	TO_CACHE:    6879203
L1D WQ	ACCESS:    6958357	FORWARD:     165520	MERGED:     172604	TO_CACHE:    6785753
L1D PQ	ACCESS:     365912	FORWARD:          0	MERGED:          0	TO_CACHE:     365623

L1D UNIQUE REGIONS ACCESSED: 0
L1D REGIONS CONFLICTS: 0
L1D Cross Page Prefetch Requests: 5993
L1D Same Page Prefetch Requests: 743275
L1D ROI Sum of L1D PQ occupancy: 4665145
L1D PREFETCHES PUSHED FROM L2C: 0
L1I TOTAL     ACCESS:   11290185  HIT:    7658396  MISS:    3631789  HIT %:    67.8323  MISS %:    32.1677   MPKI: 72.6358
L1I LOAD INSTRUCTION	ACCESS:    6687889  HIT:    6190627  MISS:     497262  HIT %:    92.5647  MISS %:    7.43526  MPKI: 9.94524
L1I PREFETCH INSTRUCTION	ACCESS:    4602296  HIT:    1467769  MISS:    3134527  HIT %:    31.8921  MISS %:    68.1079  MPKI: 62.6905

L1I PREFETCH  REQUESTED:    5155599  ISSUED:    5155403  USEFUL:    2403850  USELESS:     775225
L1I USEFUL LOAD PREFETCHES:    2403850 PREFETCH ISSUED TO LOWER LEVEL:    3178958  ACCURACY: 75.6175
 TIMELY PREFETCHES:    2403850 LATE PREFETCHES: 44426 DROPPED PREFETCHES: 10478
L1I AVERAGE MISS LATENCY: 451301 cycles
L1I RQ	ACCESS:    9426487	FORWARD:          0	MERGED:    2718116	TO_CACHE:    6708371
L1I PQ	ACCESS:    5155403	FORWARD:          0	MERGED:     286157	TO_CACHE:    4869246

L1BTB TOTAL     ACCESS:    5667621  HIT:    2031252  MISS:    3636369  HIT %:    35.8396  MISS %:    64.1604   MPKI: 72.7274
L1BTB BRANCH_DIRECT_JUMP	ACCESS:     548633  HIT:     144525  MISS:     404108	AVERAGE STALL: 19.1708
L1BTB BRANCH_INDIRECT	ACCESS:     182860  HIT:      65736  MISS:     117124	AVERAGE STALL: 78.6849
L1BTB BRANCH_CONDITIONAL	ACCESS:    2702130  HIT:    1407405  MISS:    1294725	AVERAGE STALL: 19.4942
L1BTB BRANCH_DIRECT_CALL	ACCESS:     945272  HIT:     104017  MISS:     841255	AVERAGE STALL: 20.1407
L1BTB BRANCH_INDIRECT_CALL	ACCESS:     171743  HIT:      20898  MISS:     150845	AVERAGE STALL: 102.474
L1BTB BRANCH_RETURN	ACCESS:    1116983  HIT:     288671  MISS:     828312	AVERAGE STALL: 21.6942
L1BTB BRANCH_OTHER ACCESS:          0  HIT:          0  MISS:          0	AVERAGE STALL: -nan
L1BTB TOTAL ROB OCCUPANCY AT BTB MISS: 29.6427

L2BTB TOTAL     ACCESS:    3610938  HIT:    2576857  MISS:    1034081  HIT %:    71.3625  MISS %:    28.6375   MPKI: 20.6816
L2BTB BRANCH_DIRECT_JUMP	ACCESS:     399958  HIT:     283058  MISS:     116900	AVERAGE STALL: 19.1708
L2BTB BRANCH_INDIRECT	ACCESS:     106793  HIT:      93573  MISS:      13220	AVERAGE STALL: 78.6849
L2BTB BRANCH_CONDITIONAL	ACCESS:    1294725  HIT:     922747  MISS:     371978	AVERAGE STALL: 19.4942
L2BTB BRANCH_DIRECT_CALL	ACCESS:     841255  HIT:     572958  MISS:     268297	AVERAGE STALL: 20.1407
L2BTB BRANCH_INDIRECT_CALL	ACCESS:     141302  HIT:      92602  MISS:      48700	AVERAGE STALL: 102.474
L2BTB BRANCH_RETURN	ACCESS:     826905  HIT:     611919  MISS:     214986	AVERAGE STALL: 21.6942
L2BTB BRANCH_OTHER ACCESS:          0  HIT:          0  MISS:          0	AVERAGE STALL: -nan
L2BTB TOTAL ROB OCCUPANCY AT BTB MISS: 104.239

L2C TOTAL     ACCESS:    6628430  HIT:    5636959  MISS:     991471  HIT %:    85.0421  MISS %:    14.9579   MPKI: 19.8294
L2C LOAD INSTRUCTION	ACCESS:     452837  HIT:     374489  MISS:      78348  HIT %:    82.6984  MISS %:    17.3016  MPKI: 1.56696
L2C PREFETCH INSTRUCTION	ACCESS:    3178955  HIT:    2800377  MISS:     378578  HIT %:    88.0911  MISS %:    11.9089  MPKI: 7.57156
L2C LOAD TRANSLATION INSTRUCTION	ACCESS:        226  HIT:         78  MISS:        148  HIT %:    34.5133  MISS %:    65.4867  MPKI: 0.00296
L2C TRANSLATION FROM L1D PREFETCHER INSTRUCTION	ACCESS:       5398  HIT:       4910  MISS:        488  HIT %:    90.9596  MISS %:    9.04039  MPKI: 0.00976
L2C LOAD DATA	ACCESS:     726678  HIT:     578410  MISS:     148268  HIT %:    79.5965  MISS %:    20.4035  MPKI: 2.96536
L2C RFO DATA	ACCESS:     288803  HIT:     207293  MISS:      81510  HIT %:    71.7766  MISS %:    28.2234  MPKI: 1.6302
L2C PREFETCH DATA	ACCESS:    1448276  HIT:    1182419  MISS:     265857  HIT %:    81.6432  MISS %:    18.3568  MPKI: 5.31714
L2C WRITEBACK DATA	ACCESS:     525060  HIT:     488436  MISS:      36624  HIT %:    93.0248  MISS %:     6.9752  MPKI: 0.73248
L2C LOAD TRANSLATION DATA	ACCESS:       2138  HIT:        503  MISS:       1635  HIT %:    23.5267  MISS %:    76.4733  MPKI: 0.0327
L2C TRANSLATION FROM L1D PREFETCHER DATA	ACCESS:         59  HIT:         44  MISS:         15  HIT %:    74.5763  MISS %:    25.4237  MPKI: 0.0003

L2C PREFETCH  REQUESTED:    3297085  ISSUED:    3297085  USEFUL:      32851  USELESS:     614074
L2C USEFUL LOAD PREFETCHES:      32851 PREFETCH ISSUED TO LOWER LEVEL:     645893  ACCURACY: 5.08614
 TIMELY PREFETCHES:      32851 LATE PREFETCHES: 1452 DROPPED PREFETCHES: 0
L2C AVERAGE MISS LATENCY: 34.1693 cycles
L2C RQ	ACCESS:    1476191	FORWARD:          0	MERGED:          0	TO_CACHE:    1476141
L2C WQ	ACCESS:     525060	FORWARD:         51	MERGED:          0	TO_CACHE:     525060
L2C PQ	ACCESS:    6578304	FORWARD:          0	MERGED:    1930480	TO_CACHE:    4647823

L2C Dense regions hint from L2: 0
PSCL5 TOTAL     ACCESS:      12642  HIT:       6321  MISS:       6321  HIT %:         50  MISS %:         50   MPKI: 0.12642
PSCL5 LOAD TRANSLATION INSTRUCTION	ACCESS:       4468  HIT:       2234  MISS:       2234  HIT %:         50  MISS %:         50  MPKI: 0.04468
PSCL5 TRANSLATION FROM L1D PREFETCHER INSTRUCTION	ACCESS:       8174  HIT:       4087  MISS:       4087  HIT %:         50  MISS %:         50  MPKI: 0.08174


PSCL4 TOTAL     ACCESS:       8161  HIT:       4077  MISS:       4084  HIT %:    49.9571  MISS %:    50.0429   MPKI: 0.08168
PSCL4 LOAD TRANSLATION INSTRUCTION	ACCESS:       1596  HIT:       1543  MISS:         53  HIT %:    96.6792  MISS %:     3.3208  MPKI: 0.00106
PSCL4 TRANSLATION FROM L1D PREFETCHER INSTRUCTION	ACCESS:       2562  HIT:       2534  MISS:         28  HIT %:    98.9071  MISS %:     1.0929  MPKI: 0.00056
PSCL4 LOAD TRANSLATION DATA	ACCESS:       1497  HIT:          0  MISS:       1497  HIT %:          0  MISS %:        100  MPKI: 0.02994
PSCL4 TRANSLATION FROM L1D PREFETCHER DATA	ACCESS:       2506  HIT:          0  MISS:       2506  HIT %:          0  MISS %:        100  MPKI: 0.05012


PSCL3 TOTAL     ACCESS:      12385  HIT:       6184  MISS:       6201  HIT %:    49.9314  MISS %:    50.0686   MPKI: 0.12402
PSCL3 LOAD TRANSLATION INSTRUCTION	ACCESS:       2315  HIT:       2167  MISS:        148  HIT %:    93.6069  MISS %:    6.39309  MPKI: 0.00296
PSCL3 TRANSLATION FROM L1D PREFETCHER INSTRUCTION	ACCESS:       4101  HIT:       4017  MISS:         84  HIT %:    97.9517  MISS %:    2.04828  MPKI: 0.00168
PSCL3 LOAD TRANSLATION DATA	ACCESS:       2036  HIT:          0  MISS:       2036  HIT %:          0  MISS %:        100  MPKI: 0.04072
PSCL3 TRANSLATION FROM L1D PREFETCHER DATA	ACCESS:       3933  HIT:          0  MISS:       3933  HIT %:          0  MISS %:        100  MPKI: 0.07866


PSCL2 TOTAL     ACCESS:       9828  HIT:       4845  MISS:       4983  HIT %:    49.2979  MISS %:    50.7021   MPKI: 0.09966
PSCL2 LOAD TRANSLATION INSTRUCTION	ACCESS:       2360  HIT:       2118  MISS:        242  HIT %:    89.7458  MISS %:    10.2542  MPKI: 0.00484
PSCL2 TRANSLATION FROM L1D PREFETCHER INSTRUCTION	ACCESS:       5394  HIT:       2727  MISS:       2667  HIT %:    50.5562  MISS %:    49.4438  MPKI: 0.05334
PSCL2 LOAD TRANSLATION DATA	ACCESS:       2014  HIT:          0  MISS:       2014  HIT %:          0  MISS %:        100  MPKI: 0.04028
PSCL2 TRANSLATION FROM L1D PREFETCHER DATA	ACCESS:         60  HIT:          0  MISS:         60  HIT %:          0  MISS %:        100  MPKI: 0.0012


LLC TOTAL     ACCESS:    1081582  HIT:    1048917  MISS:      32665  HIT %:    96.9799  MISS %:    3.02011   MPKI: 0.6533
LLC LOAD INSTRUCTION	ACCESS:      77887  HIT:      77290  MISS:        597  HIT %:    99.2335  MISS %:   0.766495  MPKI: 0.01194
LLC PREFETCH INSTRUCTION	ACCESS:     376233  HIT:     375602  MISS:        631  HIT %:    99.8323  MISS %:   0.167715  MPKI: 0.01262
LLC LOAD TRANSLATION INSTRUCTION	ACCESS:        148  HIT:        100  MISS:         48  HIT %:    67.5676  MISS %:    32.4324  MPKI: 0.00096
LLC TRANSLATION FROM L1D PREFETCHER INSTRUCTION	ACCESS:        488  HIT:        469  MISS:         19  HIT %:    96.1066  MISS %:    3.89344  MPKI: 0.00038
LLC LOAD DATA	ACCESS:     147296  HIT:     143275  MISS:       4021  HIT %:    97.2701  MISS %:    2.72988  MPKI: 0.08042
LLC RFO DATA	ACCESS:      81471  HIT:      65831  MISS:      15640  HIT %:     80.803  MISS %:     19.197  MPKI: 0.3128
LLC PREFETCH DATA	ACCESS:     269656  HIT:     258399  MISS:      11257  HIT %:    95.8254  MISS %:    4.17458  MPKI: 0.22514
LLC WRITEBACK DATA	ACCESS:     126753  HIT:     126404  MISS:        349  HIT %:    99.7247  MISS %:   0.275339  MPKI: 0.00698
LLC LOAD TRANSLATION DATA	ACCESS:       1635  HIT:       1532  MISS:        103  HIT %:    93.7003  MISS %:    6.29969  MPKI: 0.00206
LLC TRANSLATION FROM L1D PREFETCHER DATA	ACCESS:         15  HIT:         15  MISS:          0  HIT %:        100  MISS %:          0  MPKI: 0

LLC AVERAGE MISS LATENCY: 158.806 cycles
LLC RQ	ACCESS:     308962	FORWARD:          0	MERGED:          0	TO_CACHE:     308941
LLC WQ	ACCESS:     126753	FORWARD:         22	MERGED:          0	TO_CACHE:     126753
LLC PQ	ACCESS:     645893	FORWARD:          0	MERGED:          0	TO_CACHE:     645892

LLC Dense regions hint to LLC: 0

RAW hits: 1723153
Loads Generated: 12644860
Loads sent to L1D: 10921707
Stores Generated: 6958351
Stores sent to L1D: 6958357
Major fault: 0 Minor fault: 2646
Allocated PAGES: 2646
I-Shadow cache 408 bytes
Touched + WorthPF tables 12288 bytes 
MMA filter 174 bytes 
FNL filter 272 bytes 
TOTAL PREFETCHER STORAGE SIZE: 31318 bytes
CPU 0 L1I next line prefetcher final stats

stream: 
stream:times selected: 1178991
stream:pref_filled: 117727
stream:pref_useful: 21930
stream:pref_late: 7573
stream:misses: 6732
stream:misses_by_poll: 0

CS: 
CS:times selected: 176258
CS:pref_filled: 53278
CS:pref_useful: 29432
CS:pref_late: 13469
CS:misses: 22804
CS:misses_by_poll: 4

CPLX: 
CPLX:times selected: 1001654
CPLX:pref_filled: 18771
CPLX:pref_useful: 3721
CPLX:pref_late: 3530
CPLX:misses: 91529
CPLX:misses_by_poll: 2

NL_L1: 
NL:times selected: 19703
NL:pref_filled: 516
NL:pref_useful: 193
NL:pref_late: 230
NL:misses: 1073
NL:misses_by_poll: 0

total selections: 2376606
total_filled: 93019
total_useful: 34403
total_late: 26075
total_polluted: 6
total_misses_after_warmup: 773591
conflicts: 5669690

test: 115178

DRAM Statistics
 CHANNEL 0
 RQ ROW_BUFFER_HIT:      11842  ROW_BUFFER_MISS:      20465
 DBUS_CONGESTED:         13
 WQ ROW_BUFFER_HIT:       1718  ROW_BUFFER_MISS:      13804  FULL:          0

 AVG_CONGESTED_CYCLE: 4

CPU 0 Branch Prediction Accuracy: 99.8088% MPKI: 0.3495 Average ROB Occupancy at Mispredict: 124.03
Branch types
NOT_BRANCH: 40858069 81.7161%
BRANCH_DIRECT_JUMP: 548633 1.09727%
BRANCH_INDIRECT: 182860 0.36572%
BRANCH_CONDITIONAL: 6175962 12.3519%
BRANCH_DIRECT_CALL: 945272 1.89054%
BRANCH_INDIRECT_CALL: 171743 0.343486%
BRANCH_RETURN: 1116983 2.23397%
BRANCH_OTHER: 0 0%

DRAM PAGES: 1048576
Allocated PAGES: 2646
Average_ROB_Occupancy: 123.59
Average_Decode_Occupancy: 10.0337
Average_FTQ_Occupancy: 3.73834
Indirect max targets: 14 Average targets: 1.17778
Branch_type:  BRANCH_DIRECT_JUMP:  Count Percentage: 3.30499 5.44852 4.87371 7.1683 3.47564 6.01704 1.74866 67.9631 
Branch_type:  BRANCH_INDIRECT:  Count Percentage: 6.13629 3.39484 8.16914 9.6806 3.34783 2.81086 3.88344 62.577 
Branch_type:  BRANCH_CONDITIONAL:  Count Percentage: 25.0858 2.46298 2.26188 4.07741 2.33052 4.14494 2.74646 56.89 
Branch_type:  BRANCH_DIRECT_CALL:  Count Percentage: 0.388846 1.27446 0.734298 3.50994 3.15204 2.93523 3.32609 84.6791 
Branch_type:  BRANCH_INDIRECT_CALL:  Count Percentage: 9.574 0 3.0021 0.000874738 0 2.57727 5.00058 79.8452 
Branch_type:  BRANCH_RETURN:  Count Percentage: 7.90705 1.82136 1.14603 3.49522 3.99379 4.57765 3.58495 73.4739 
Branch_type:  BRANCH_DIRECT_JUMP:  Total Count: 36275 59802 53493 78678 38148 66042 19193 745951 
Branch_type:  BRANCH_INDIRECT:  Total Count: 22455 12423 29894 35425 12251 10286 14211 228993 
Branch_type:  BRANCH_CONDITIONAL:  Total Count: 3098226 304191 279354 503581 287831 511922 339202 7026213 
Branch_type:  BRANCH_DIRECT_CALL:  Total Count: 7339 24054 13859 66246 59491 55399 62776 1598218 
Branch_type:  BRANCH_INDIRECT_CALL:  Total Count: 32835 0 10296 3 0 8839 17150 273837 
Branch_type:  BRANCH_RETURN:  Total Count: 176421 40638 25570 77985 89109 102136 79987 1639341 
Number of unique branch instructions: 10788
Upper 32 bits: 
aaaa
ffff
ffff0000
Unique upper 32 bits: 3
Unique upper 36 bits: 3
Unique upper 40 bits: 5
Unique upper 44 bits: 32
Unique upper 48 bits: 158
Offset_3 4463
Offset_4 257
Offset_5 482
Offset_6 538
Offset_7 641
Offset_8 578
Offset_9 520
Offset_10 422
Offset_11 350
Offset_12 326
Offset_13 237
Offset_14 248
Offset_15 187
Offset_16 232
Offset_17 168
Offset_18 153
Offset_19 261
Offset_20 140
Offset_21 235
Offset_22 416
Offset_23 241
Offset_24 351
Offset_25 117
Offset_47 94
Offset_64 1
decode_dispatch_called: 20895104 45.9138
Dispatch_width: 0 10180228 48.7206 22.3695
Dispatch_width: 1 699925 3.34971 1.53798
Dispatch_width: 2 991915 4.74712 2.17958
Dispatch_width: 3 697591 3.33854 1.53285
Dispatch_width: 4 2104731 10.0728 4.62482
Dispatch_width: 5 520048 2.48885 1.14273
Dispatch_width: 6 5700666 27.2823 12.5263
Empty_decode_cycles: 24614345 54.0862
ROB_full_cycles: 2500955 5.49546
Starvation_cycles_per_kilo_instr: 373.078
Starvation_cycles_per_kilo_instr_3: 346.83
Starvation_cycles_per_kilo_instr_0: 322.936
Branch_type_1  (3,1)  (4,9)  (5,39)  (6,73)  (7,126)  (8,149)  (9,136)  (10,111)  (11,79)  (12,55)  (13,11)  (14,2)  (15,3)  (16,4)  (18,1)  (19,5)  (20,2)  (21,1)  (22,3)  (23,2)  (24,10)  (25,12) 
Branch_type_2  (3,1)  (4,1)  (5,1)  (8,4)  (9,4)  (10,1)  (12,1)  (13,1)  (14,1)  (16,3)  (17,2)  (20,2)  (21,2)  (23,5)  (24,1)  (47,43) 
Branch_type_3  (3,4461)  (4,247)  (5,438)  (6,449)  (7,486)  (8,359)  (9,285)  (10,170)  (11,138)  (12,62)  (13,10)  (64,1) 
Branch_type_4  (6,3)  (7,8)  (8,25)  (9,56)  (10,67)  (11,68)  (12,116)  (13,100)  (14,112)  (15,88)  (16,102)  (17,78)  (18,67)  (19,128)  (20,71)  (21,124)  (22,221)  (23,136)  (24,206)  (25,101) 
Branch_type_5  (8,3)  (9,1)  (10,4)  (11,5)  (12,3)  (13,14)  (14,16)  (15,11)  (16,22)  (17,11)  (18,23)  (19,14)  (20,11)  (21,13)  (22,43)  (23,26)  (24,38) 
Branch_type_6  (5,4)  (6,13)  (7,21)  (8,38)  (9,38)  (10,69)  (11,60)  (12,89)  (13,101)  (14,117)  (15,85)  (16,101)  (17,77)  (18,62)  (19,114)  (20,54)  (21,95)  (22,149)  (23,72)  (24,96)  (25,4)  (47,51) 
Unique trigger count: 
BTB PER SET UNIQUE ADDR: 23 28 22 28 26 26 17 22 16 26 18 28 27 21 23 18 22 21 23 25 24 20 25 26 20 26 25 26 25 21 22 24 26 18 17 23 24 27 18 21 22 24 24 29 19 17 29 18 26 23 28 20 27 27 21 12 21 18 20 26 22 34 23 24 24 26 23 18 32 25 23 21 29 20 20 15 17 26 19 33 27 16 20 29 28 25 29 23 17 41 19 15 26 21 13 29 20 23 28 27 35 32 24 18 23 21 24 26 14 18 20 36 25 19 21 14 26 27 25 23 24 17 21 18 24 21 12 25 33 20 18 31 22 30 20 30 15 29 22 32 20 29 22 26 23 24 29 20 15 22 24 27 16 22 18 31 26 28 29 26 27 24 29 28 20 25 26 17 28 23 23 27 24 24 24 22 23 24 21 26 20 21 22 29 34 30 17 24 28 20 22 18 17 30 26 17 18 24 23 24 28 26 20 19 19 23 22 24 21 25 21 27 23 23 25 25 21 27 18 38 17 27 17 25 21 26 30 25 17 31 21 11 23 28 19 28 29 20 23 19 26 24 30 28 21 23 20 22 26 24 29 25 26 18 27 27 20 18 18 21 25 19 9 22 23 18 22 19 21 23 23 26 18 15 16 18 26 27 22 22 16 25 18 16 29 19 20 34 33 27 25 18 26 27 19 30 25 28 27 25 21 22 20 38 27 29 26 22 33 25 23 31 22 37 29 14 29 23 21 29 22 28 18 23 26 30 24 19 22 18 21 31 20 23 23 26 19 19 17 36 26 26 16 30 27 26 19 24 23 23 26 27 28 24 23 27 24 27 19 17 21 32 21 33 28 26 15 23 27 23 26 16 24 27 19 30 23 29 21 25 25 24 19 19 18 22 28 30 27 23 31 14 27 29 18 16 22 18 32 22 21 25 23 24 28 28 25 27 23 25 28 18 18 29 23 22 21 33 39 33 19 28 25 27 29 20 26 19 26 22 30 24 21 23 30 30 27 19 22 26 29 19 20 31 35 20 17 28 29 26 26 38 26 18 29 36 27 28 20 31 20 23 20 30 35 20 23 24 29 26 24 26 28 23 24 35 26 32 17 24 33 27 21 27 18 27 36 33 28 22 20 26 18 18 18 20 27 25 22 28 20 30 20 36 23 21 19 31 29 27 24 33 25 23 22 28 22 31 17 16 17 22 25 18 23 32 37 16 16 34 27 27 28 24 26 30 21 27 27 24 28 21 27 25 28 30 15 29 17 23 26 33 26 23 20 26 24 25 32 25 22 34 25 26 25 32 22 31 25 28 29 26 31 36 23 28 30 28 22 26 26 26 16 26 24 27 23 24 34 28 21 23 24 17 25 18 17 24 26 22 24 21 22 14 25 25 32 22 22 26 34 28 22 18 10 32 18 27 21 28 29 26 18 22 21 34 20 31 19 26 22 32 30 25 23 23 25 30 24 27 23 26 28 33 26 27 22 25 35 21 16 26 20 20 31 25 25 24 29 26 23 13 28 30 23 26 19 24 20 20 25 24 20 28 35 21 25 28 29 31 23 30 22 28 28 22 21 24 27 31 22 25 23 15 15 23 17 27 20 27 17 26 26 36 14 30 22 18 18 14 23 25 16 21 19 20 33 26 21 29 28 25 23 23 20 23 26 25 21 22 26 20 24 19 24 28 27 35 38 22 21 23 23 26 35 29 23 24 24 21 23 22 25 23 19 22 32 23 19 20 26 15 14 24 24 32 17 25 22 26 24 30 21 18 26 21 28 24 23 30 15 26 21 20 26 22 21 28 23 15 21 14 31 28 23 31 21 19 28 23 36 26 33 29 35 20 26 23 25 20 21 35 30 30 20 28 37 32 14 27 26 32 18 28 28 22 20 27 26 26 26 31 27 24 19 27 26 24 25 24 27 24 22 25 26 29 23 39 22 28 25 21 18 23 32 32 33 30 27 28 26 22 19 27 30 17 24 19 30 20 20 29 29 23 25 14 23 23 20 24 31 15 23 29 25 27 31 22 26 22 27 20 22 21 24 28 33 24 21 18 23 22 24 27 14 27 22 26 23 33 18 26 23 24 28 26 36 22 24 27 25 26 21 26 22 20 13 30 19 16 30 33 29 21 22 31 21 21 26 29 18 31 25 24 23 24 24 29 24 30 24 27 19 27 19 28 27 24 28 24 26 26 21 33 29 24 29 26 20 27 23 28 29 22 28 21 35 33 29 36 23 30 26 24 22 32 40 18 29 25 26 26 26 23 23 22 22 25 31 23 32 30 20 24 28 27 18 33 21 26 28 28 27 17 20 24 15 19 10 15 20 30 22 15 
BTB PER SET COUNT: 2171 2351 2919 2075 2701 2090 1905 1694 1597 2191 1280 2684 12162 1807 1958 1133 2205 2334 1814 2235 1753 1716 2093 2316 1163 1980 2148 2068 2215 1899 1962 2432 2055 861 1254 1959 2007 2396 1083 2398 1660 1633 2442 2358 1679 701 2259 1487 2124 1767 2452 1517 2038 2202 1767 890 1635 1688 1423 2116 1772 3130 2039 2053 2324 2297 1711 1574 2173 1946 2519 2110 2678 1446 1228 896 927 2173 1634 2589 2570 1091 1925 2523 2113 1837 2241 2177 1734 3809 1559 1411 2228 1935 836 2148 1542 1603 2453 3720 3688 2684 2266 1779 3587 1415 1746 2262 1574 3115 1932 3060 2317 1595 1709 1187 2035 2399 2460 1995 2382 1421 1689 1088 1839 1546 725 2666 3396 1789 1403 3244 1532 2427 1702 2189 1469 2280 1597 2752 1749 2320 1754 1727 1821 1724 2549 1487 1061 1807 1690 2143 1482 1703 1019 3072 2778 2262 2160 2472 2053 1867 2699 2378 1637 2157 1961 1492 2257 1731 1576 2535 1872 1859 1989 1987 1827 1565 1680 2397 1522 2024 1818 2241 2800 3187 981 2063 2517 2365 1823 1353 1170 2583 2118 1327 1314 1891 1615 1628 2105 2016 1885 1633 1193 1930 1742 1974 1810 2388 1714 2279 1331 3261 1966 2258 1678 2433 1638 3565 1092 2094 1359 1732 1550 2206 2882 2309 1333 3264 1638 562 1713 2264 1455 7108 2340 1710 1993 1129 1802 2030 3075 2705 1701 2100 1376 1968 2130 1644 1961 2251 2015 1579 2081 2473 1655 1347 1431 1610 2276 1531 347 1815 2106 803 1780 1436 2275 1884 1698 1834 1186 910 1598 1258 2119 2366 1880 2085 967 2319 1518 1878 2050 1520 1277 2957 3181 2522 2156 1216 1957 2559 1183 2777 2399 1951 1759 2197 1581 1446 2023 2948 1932 2795 1944 1810 2971 2345 2558 2274 1442 3018 2969 1450 2639 1900 1740 2734 1550 3273 1145 1733 2718 2473 2270 1317 1665 1138 1857 2870 1195 1422 1856 1831 1328 1714 1063 3622 1838 2944 1132 2105 2476 1928 1382 1734 1849 2181 2236 1932 2436 1799 1877 2474 2096 2697 1564 1328 1353 2807 1495 2862 1966 3019 729 1681 1793 1488 2169 1232 2311 2126 1258 2779 1904 2544 1771 2515 2346 2118 1580 942 1152 1813 3100 2439 2158 2261 2099 934 2310 2463 1258 1257 1519 1543 2862 2121 1650 2007 2166 1584 2189 2294 2214 2271 1439 2070 2068 1303 1351 2668 1644 1837 1811 4698 3327 2660 1331 2191 2409 1958 2452 1760 2685 1495 1674 1870 2753 2144 1470 1721 2694 2431 1742 1579 1818 1881 2862 1631 1328 2825 3070 1835 1406 2021 2330 1842 2320 3871 1818 1679 2548 3184 1996 2699 1294 2274 1329 2019 1538 2545 2859 1772 7502 1905 2433 2252 2070 2029 2011 1739 2079 2961 1927 3314 1260 1925 2649 2354 1646 2288 1491 1931 3433 2564 2664 1753 1806 2279 4024 1136 1066 1691 2839 2714 1612 2185 1474 2838 1311 3199 1528 1352 1276 2964 2717 1994 1970 3241 2589 2379 1654 2648 1404 2858 1267 1458 934 1963 2247 1192 1888 2827 3374 2068 1199 4174 3085 2206 2041 1873 2404 2550 2399 2368 1995 1962 2295 1665 2504 2064 2377 2835 924 2124 1179 2355 1777 2838 2101 2183 1482 1386 1876 1872 2296 2205 1284 2767 1822 1972 2294 2641 1879 2244 1788 2696 2826 2258 3071 2865 2031 2605 2563 2728 1848 1921 2364 2217 987 3309 2106 2273 1812 2085 3086 2719 1941 1780 2333 943 1867 1355 1796 2294 1945 1453 1397 1896 1855 982 2046 2144 2670 2811 1399 1745 3060 2584 2213 1199 720 2584 1024 2364 2335 2409 2908 1825 1063 1542 1620 2889 1550 2843 2254 2050 1672 3064 3062 1803 1977 1711 2211 2613 1710 2298 2111 2134 2587 2619 3109 2468 1406 2368 3744 1180 1093 2216 1220 1786 3319 1936 1561 1761 2333 1928 2181 737 2398 2741 5888 2498 1358 2013 2345 1856 1756 1866 1445 2219 3076 2075 2084 2660 2351 2932 2043 2639 2080 2443 2701 2094 1741 1965 2270 2546 1631 2613 2248 936 1442 1849 1746 2513 1692 1996 1372 2315 2326 2849 896 2304 1860 1393 1210 1073 1855 2134 1200 1902 1628 1546 3200 2142 1622 2613 2287 2429 1647 1946 1667 1571 1726 2324 1749 1939 2124 5318 1658 1805 1890 2141 2290 3178 3791 1696 1937 1457 1870 2297 3178 2718 2209 1773 1943 1603 2616 1477 2517 2038 1180 1846 2730 2127 1719 1151 2159 1017 756 1828 2820 2884 1157 2125 1124 2154 1732 2474 1802 1398 2054 1364 2311 1919 1490 2625 1790 2225 2013 1668 1963 1907 1416 2164 1537 1065 1355 1439 2171 2411 1622 2872 1772 1372 1681 2070 3216 1978 2592 2512 2840 1681 1821 1939 1839 1576 1380 5529 2604 2400 1729 2996 2724 3058 1156 2873 1861 2859 1300 2404 2674 1974 1488 2091 2148 2734 2103 3044 2250 2146 1184 2893 1959 2084 2394 1857 2373 2098 2033 1850 2118 2184 1714 3319 1506 5664 2695 1941 1575 1684 2753 2622 2846 2333 2576 2050 2640 2038 1683 2015 2798 1154 1906 1037 2737 1432 1561 2577 2247 1546 1974 908 1651 2040 2639 2020 2089 829 1468 2910 2290 2126 2400 2002 1866 1952 2244 1158 3115 2830 1588 2581 3013 1714 1627 1701 2234 1656 1923 2259 731 2239 1582 2618 1817 2661 1764 1936 1987 2393 2530 2419 3654 2056 2047 2105 2004 2130 1329 2537 1356 1612 698 2721 1246 1189 2280 2771 3109 1525 1862 3006 1921 1606 2408 2411 1366 3306 2040 1554 2006 2130 1766 2472 2223 2240 2228 2476 2038 3369 1635 2099 2343 1757 2092 2315 2011 2285 1796 2699 2494 1523 2722 2150 1457 2186 1860 2662 2339 1799 2739 1471 3270 2286 2704 3327 1961 2358 2247 2204 1439 3183 4343 1418 2486 2151 2275 2630 1817 1923 2453 1939 1403 2384 2370 2322 2588 3144 1628 1793 2289 2132 1478 3118 1757 2476 2421 2293 2404 1271 1380 1860 967 1688 514 1245 1623 3057 2098 1010 
