
*** ChampSim Multicore Out-of-Order Simulator ***

Warmup Instructions: 50000000
Simulation Instructions: 50000000
Number of CPUs: 1
LLC sets: 2048
LLC ways: 16
Off-chip DRAM Size: 4096 MB Channels: 1 Width: 64-bit Data Rate: 6400 MT/s
CPU 0 runs ./micro_traces/srv190.trace.gz
.gz
ITLB has LRU replacement policy
DTLB has LRU replacement policy
STLB has LRU replacement policy
FDIP Prefetcher at L1I
L1I has LRU replacement policy
L1D has LRU replacement policy
Initialize SRRIP state for L2C
Initialize DRRIP state for LLC
Heartbeat_Variant_0 : 1298 0.211263 per_variant_size: 0 1298 0 0 0 0 0 0 0 
Heartbeat_Variant_1 : 2691 0.437988 per_variant_size: 0 994 1697 0 0 0 0 0 0 
Heartbeat_Variant_2 : 0 0 per_variant_size: 0 0 0 0 0 0 0 0 0 
Heartbeat_Variant_3 : 0 0 per_variant_size: 0 0 0 0 0 0 0 0 0 
Heartbeat_Variant_0_evicts 0 : 5453 1 : 21 2 : 0 3 : 0 
Heartbeat_Variant_1_evicts 0 : 20 1 : 0 2 : 0 3 : 0 
Heartbeat_Variant_2_evicts 0 : 0 1 : 0 2 : 0 3 : 0 
Heartbeat_Variant_3_evicts 0 : 0 1 : 0 2 : 0 3 : 0 
Heartbeat CPU 0 instructions: 10000000 cycles: 2797460 heartbeat IPC: 3.57467 cumulative IPC: 3.57467 (Simulation time: 0 hr 1 min 56 sec) 
Heartbeat_Variant_0 : 1390 0.226237 per_variant_size: 0 1390 0 0 0 0 0 0 0 
Heartbeat_Variant_1 : 2887 0.469889 per_variant_size: 0 993 1894 0 0 0 0 0 0 
Heartbeat_Variant_2 : 0 0 per_variant_size: 0 0 0 0 0 0 0 0 0 
Heartbeat_Variant_3 : 0 0 per_variant_size: 0 0 0 0 0 0 0 0 0 
Heartbeat_Variant_0_evicts 0 : 5536 1 : 14 2 : 0 3 : 0 
Heartbeat_Variant_1_evicts 0 : 14 1 : 0 2 : 0 3 : 0 
Heartbeat_Variant_2_evicts 0 : 0 1 : 0 2 : 0 3 : 0 
Heartbeat_Variant_3_evicts 0 : 0 1 : 0 2 : 0 3 : 0 
Heartbeat CPU 0 instructions: 20000001 cycles: 5594109 heartbeat IPC: 3.57571 cumulative IPC: 3.57519 (Simulation time: 0 hr 3 min 37 sec) 
Heartbeat_Variant_0 : 1390 0.226237 per_variant_size: 0 1390 0 0 0 0 0 0 0 
Heartbeat_Variant_1 : 2887 0.469889 per_variant_size: 0 998 1889 0 0 0 0 0 0 
Heartbeat_Variant_2 : 0 0 per_variant_size: 0 0 0 0 0 0 0 0 0 
Heartbeat_Variant_3 : 0 0 per_variant_size: 0 0 0 0 0 0 0 0 0 
Heartbeat_Variant_0_evicts 0 : 5596 1 : 0 2 : 0 3 : 0 
Heartbeat_Variant_1_evicts 0 : 0 1 : 0 2 : 0 3 : 0 
Heartbeat_Variant_2_evicts 0 : 0 1 : 0 2 : 0 3 : 0 
Heartbeat_Variant_3_evicts 0 : 0 1 : 0 2 : 0 3 : 0 
Heartbeat CPU 0 instructions: 30000001 cycles: 8389646 heartbeat IPC: 3.57713 cumulative IPC: 3.57584 (Simulation time: 0 hr 5 min 18 sec) 
Heartbeat_Variant_0 : 1390 0.226237 per_variant_size: 0 1390 0 0 0 0 0 0 0 
Heartbeat_Variant_1 : 2892 0.470703 per_variant_size: 0 997 1895 0 0 0 0 0 0 
Heartbeat_Variant_2 : 0 0 per_variant_size: 0 0 0 0 0 0 0 0 0 
Heartbeat_Variant_3 : 0 0 per_variant_size: 0 0 0 0 0 0 0 0 0 
Heartbeat_Variant_0_evicts 0 : 5512 1 : 1 2 : 0 3 : 0 
Heartbeat_Variant_1_evicts 0 : 2 1 : 0 2 : 0 3 : 0 
Heartbeat_Variant_2_evicts 0 : 0 1 : 0 2 : 0 3 : 0 
Heartbeat_Variant_3_evicts 0 : 0 1 : 0 2 : 0 3 : 0 
Heartbeat CPU 0 instructions: 40000000 cycles: 11185436 heartbeat IPC: 3.57681 cumulative IPC: 3.57608 (Simulation time: 0 hr 6 min 58 sec) 
Heartbeat_Variant_0 : 1394 0.226888 per_variant_size: 0 1394 0 0 0 0 0 0 0 
Heartbeat_Variant_1 : 2902 0.472331 per_variant_size: 0 998 1904 0 0 0 0 0 0 
Heartbeat_Variant_2 : 0 0 per_variant_size: 0 0 0 0 0 0 0 0 0 
Heartbeat_Variant_3 : 0 0 per_variant_size: 0 0 0 0 0 0 0 0 0 
Heartbeat_Variant_0_evicts 0 : 5557 1 : 2 2 : 0 3 : 0 
Heartbeat_Variant_1_evicts 0 : 2 1 : 0 2 : 0 3 : 0 
Heartbeat_Variant_2_evicts 0 : 0 1 : 0 2 : 0 3 : 0 
Heartbeat_Variant_3_evicts 0 : 0 1 : 0 2 : 0 3 : 0 
Heartbeat CPU 0 instructions: 50000003 cycles: 13982069 heartbeat IPC: 3.57573 cumulative IPC: 3.57601 (Simulation time: 0 hr 8 min 36 sec) 

Warmup complete CPU 0 instructions: 50000003 cycles: 13982069 (Simulation time: 0 hr 8 min 36 sec) 

Cycle: 20000000 FTQ IN: 58333626 FTQ occupancy: 20.557 DECODE IN: 58333518 DECODE occupancy: 53.4623 ROB IN: 58333458 ROB occupancy: 319.69 ROB OUT: 58333110
Heartbeat_Variant_0 : 1394 0.226888 per_variant_size: 0 1394 0 0 0 0 0 0 0 
Heartbeat_Variant_1 : 2905 0.472819 per_variant_size: 0 1009 1896 0 0 0 0 0 0 
Heartbeat_Variant_2 : 0 0 per_variant_size: 0 0 0 0 0 0 0 0 0 
Heartbeat_Variant_3 : 0 0 per_variant_size: 0 0 0 0 0 0 0 0 0 
Heartbeat_Variant_0_evicts 0 : 5527 1 : 0 2 : 0 3 : 0 
Heartbeat_Variant_1_evicts 0 : 0 1 : 0 2 : 0 3 : 0 
Heartbeat_Variant_2_evicts 0 : 0 1 : 0 2 : 0 3 : 0 
Heartbeat_Variant_3_evicts 0 : 0 1 : 0 2 : 0 3 : 0 
Heartbeat CPU 0 instructions: 60000003 cycles: 21188335 heartbeat IPC: 1.38768 cumulative IPC: 1.38768 (Simulation time: 0 hr 10 min 34 sec) 
Heartbeat_Variant_0 : 1395 0.227051 per_variant_size: 0 1395 0 0 0 0 0 0 0 
Heartbeat_Variant_1 : 2909 0.47347 per_variant_size: 0 1008 1901 0 0 0 0 0 0 
Heartbeat_Variant_2 : 0 0 per_variant_size: 0 0 0 0 0 0 0 0 0 
Heartbeat_Variant_3 : 0 0 per_variant_size: 0 0 0 0 0 0 0 0 0 
Heartbeat_Variant_0_evicts 0 : 5604 1 : 0 2 : 0 3 : 0 
Heartbeat_Variant_1_evicts 0 : 1 1 : 0 2 : 0 3 : 0 
Heartbeat_Variant_2_evicts 0 : 0 1 : 0 2 : 0 3 : 0 
Heartbeat_Variant_3_evicts 0 : 0 1 : 0 2 : 0 3 : 0 
Heartbeat CPU 0 instructions: 70000002 cycles: 28290277 heartbeat IPC: 1.40807 cumulative IPC: 1.3978 (Simulation time: 0 hr 12 min 35 sec) 
Cycle: 30000000 FTQ IN: 14064872 FTQ occupancy: 14.7558 DECODE IN: 14064980 DECODE occupancy: 38.2468 ROB IN: 14065016 ROB occupancy: 253.06 ROB OUT: 14065016
Heartbeat_Variant_0 : 1395 0.227051 per_variant_size: 0 1395 0 0 0 0 0 0 0 
Heartbeat_Variant_1 : 2913 0.474121 per_variant_size: 0 1006 1907 0 0 0 0 0 0 
Heartbeat_Variant_2 : 0 0 per_variant_size: 0 0 0 0 0 0 0 0 0 
Heartbeat_Variant_3 : 0 0 per_variant_size: 0 0 0 0 0 0 0 0 0 
Heartbeat_Variant_0_evicts 0 : 5575 1 : 0 2 : 0 3 : 0 
Heartbeat_Variant_1_evicts 0 : 0 1 : 0 2 : 0 3 : 0 
Heartbeat_Variant_2_evicts 0 : 0 1 : 0 2 : 0 3 : 0 
Heartbeat_Variant_3_evicts 0 : 0 1 : 0 2 : 0 3 : 0 
Heartbeat CPU 0 instructions: 80000000 cycles: 35510633 heartbeat IPC: 1.38497 cumulative IPC: 1.3935 (Simulation time: 0 hr 14 min 34 sec) 
Cycle: 40000000 FTQ IN: 13921248 FTQ occupancy: 14.8848 DECODE IN: 13921148 DECODE occupancy: 38.2604 ROB IN: 13921112 ROB occupancy: 252.041 ROB OUT: 13921112
Heartbeat_Variant_0 : 1395 0.227051 per_variant_size: 0 1395 0 0 0 0 0 0 0 
Heartbeat_Variant_1 : 2916 0.474609 per_variant_size: 0 1015 1901 0 0 0 0 0 0 
Heartbeat_Variant_2 : 0 0 per_variant_size: 0 0 0 0 0 0 0 0 0 
Heartbeat_Variant_3 : 0 0 per_variant_size: 0 0 0 0 0 0 0 0 0 
Heartbeat_Variant_0_evicts 0 : 5503 1 : 0 2 : 0 3 : 0 
Heartbeat_Variant_1_evicts 0 : 0 1 : 0 2 : 0 3 : 0 
Heartbeat_Variant_2_evicts 0 : 0 1 : 0 2 : 0 3 : 0 
Heartbeat_Variant_3_evicts 0 : 0 1 : 0 2 : 0 3 : 0 
Heartbeat CPU 0 instructions: 90000003 cycles: 42623433 heartbeat IPC: 1.40592 cumulative IPC: 1.39658 (Simulation time: 0 hr 16 min 35 sec) 
Heartbeat_Variant_0 : 1395 0.227051 per_variant_size: 0 1395 0 0 0 0 0 0 0 
Heartbeat_Variant_1 : 2920 0.47526 per_variant_size: 0 1011 1909 0 0 0 0 0 0 
Heartbeat_Variant_2 : 0 0 per_variant_size: 0 0 0 0 0 0 0 0 0 
Heartbeat_Variant_3 : 0 0 per_variant_size: 0 0 0 0 0 0 0 0 0 
Heartbeat_Variant_0_evicts 0 : 5643 1 : 2 2 : 0 3 : 0 
Heartbeat_Variant_1_evicts 0 : 2 1 : 0 2 : 0 3 : 0 
Heartbeat_Variant_2_evicts 0 : 0 1 : 0 2 : 0 3 : 0 
Heartbeat_Variant_3_evicts 0 : 0 1 : 0 2 : 0 3 : 0 
Heartbeat CPU 0 instructions: 100000003 cycles: 49823687 heartbeat IPC: 1.38884 cumulative IPC: 1.39503 (Simulation time: 0 hr 18 min 31 sec) 
Finished CPU 0 instructions: 50000000 cycles: 35841618 cumulative IPC: 1.39503 (Simulation time: 0 hr 18 min 31 sec) 

ChampSim completed all CPUs

Region of Interest Statistics

CPU 0 cumulative IPC: 1.39503 instructions: 50000000 cycles: 35841618
 Fetch stage stalled: 45.9678  Sim cycles: 35841618 fetch stall cycle: 16475612
 Empty decode stage: 25.3416  Sim cycles: 35841618 fetch stall cycle: 9082850
ITLB TOTAL     ACCESS:    5810985  HIT:    5315359  MISS:     495626  HIT %:    91.4709  MISS %:    8.52912   MPKI: 9.91252
ITLB LOAD TRANSLATION INSTRUCTION	ACCESS:    5676587  HIT:    5180961  MISS:     495626  HIT %:    91.2689  MISS %:    8.73106  MPKI: 9.91252
ITLB TRANSLATION FROM L1D PREFETCHER INSTRUCTION	ACCESS:     134398  HIT:     134398  MISS:          0  HIT %:        100  MISS %:          0  MPKI: 0

ITLB AVERAGE MISS LATENCY: 9.05594 cycles
ITLB RQ	ACCESS:    7926162	FORWARD:          0	MERGED:    1628527	TO_CACHE:    6297635

DTLB TOTAL     ACCESS:    8959475  HIT:    8484686  MISS:     474789  HIT %:    94.7007  MISS %:    5.29929   MPKI: 9.49578
DTLB LOAD TRANSLATION DATA	ACCESS:    8959475  HIT:    8484686  MISS:     474789  HIT %:    94.7007  MISS %:    5.29929  MPKI: 9.49578

DTLB AVERAGE MISS LATENCY: 9.37355 cycles
DTLB RQ	ACCESS:   13333435	FORWARD:          0	MERGED:    4337023	TO_CACHE:    8996412

STLB TOTAL     ACCESS:    1219478  HIT:    1217032  MISS:       2446  HIT %:    99.7994  MISS %:   0.200578   MPKI: 0.04892
STLB LOAD TRANSLATION INSTRUCTION	ACCESS:     495626  HIT:     495309  MISS:        317  HIT %:     99.936  MISS %:  0.0639595  MPKI: 0.00634
STLB LOAD TRANSLATION DATA	ACCESS:     474789  HIT:     472688  MISS:       2101  HIT %:    99.5575  MISS %:   0.442512  MPKI: 0.04202
STLB TRANSLATION FROM L1D PREFETCHER DATA	ACCESS:     249063  HIT:     249035  MISS:         28  HIT %:    99.9888  MISS %:  0.0112421  MPKI: 0.00056

STLB AVERAGE MISS LATENCY: 71.5033 cycles
STLB RQ	ACCESS:    1340314	FORWARD:          0	MERGED:     120791	TO_CACHE:    1219523

STLB Hit, L1D data hit: 0
STLB Hit, L2C data hit: 0
STLB Hit, LLC data hit: 0
STLB Hit, LLC data miss: 0
STLB STLB hints to L2: 0
L1D TOTAL     ACCESS:   13078038  HIT:   11952804  MISS:    1125234  HIT %:     91.396  MISS %:      8.604   MPKI: 22.5047
L1D LOAD DATA	ACCESS:    6544560  HIT:    5802438  MISS:     742122  HIT %:    88.6605  MISS %:    11.3395  MPKI: 14.8424
L1D RFO DATA	ACCESS:    6204860  HIT:    5917559  MISS:     287301  HIT %:    95.3697  MISS %:    4.63026  MPKI: 5.74602
L1D PREFETCH DATA	ACCESS:     328618  HIT:     232807  MISS:      95811  HIT %:    70.8443  MISS %:    29.1557  MPKI: 1.91622

L1D PREFETCH  REQUESTED:     740189  ISSUED:     740189  USEFUL:      35200  USELESS:      69131
L1D USEFUL LOAD PREFETCHES:      35200 PREFETCH ISSUED TO LOWER LEVEL:     104382  ACCURACY: 33.7223
 TIMELY PREFETCHES:      35200 LATE PREFETCHES: 8536 DROPPED PREFETCHES: 7
L1D AVERAGE MISS LATENCY: 242893 cycles
L1D RQ	ACCESS:   10688218	FORWARD:          0	MERGED:    3942301	TO_CACHE:    6578996
L1D WQ	ACCESS:    6952185	FORWARD:     167312	MERGED:     197746	TO_CACHE:    6754439
L1D PQ	ACCESS:     370290	FORWARD:          0	MERGED:          0	TO_CACHE:     369899

L1D UNIQUE REGIONS ACCESSED: 0
L1D REGIONS CONFLICTS: 0
L1D Cross Page Prefetch Requests: 6956
L1D Same Page Prefetch Requests: 743457
L1D ROI Sum of L1D PQ occupancy: 4701056
L1D PREFETCHES PUSHED FROM L2C: 0
L1I TOTAL     ACCESS:    7094347  HIT:    4323419  MISS:    2770928  HIT %:    60.9417  MISS %:    39.0583   MPKI: 55.4186
L1I LOAD INSTRUCTION	ACCESS:    6438207  HIT:    3667279  MISS:    2770928  HIT %:    56.9612  MISS %:    43.0388  MPKI: 55.4186
L1I PREFETCH INSTRUCTION	ACCESS:     656140  HIT:     656140  MISS:          0  HIT %:        100  MISS %:          0  MPKI: 0

L1I PREFETCH  REQUESTED:    1617784  ISSUED:    1617784  USEFUL:          0  USELESS:          0
L1I USEFUL LOAD PREFETCHES:          0 PREFETCH ISSUED TO LOWER LEVEL:          0  ACCURACY: -nan
 TIMELY PREFETCHES:          0 LATE PREFETCHES: 0 DROPPED PREFETCHES: 0
L1I AVERAGE MISS LATENCY: 17.0423 cycles
L1I RQ	ACCESS:    9562101	FORWARD:          0	MERGED:    2821426	TO_CACHE:    6740675
L1I PQ	ACCESS:    1617784	FORWARD:          0	MERGED:     432297	TO_CACHE:    1185487

L1BTB TOTAL     ACCESS:    5670036  HIT:    2036779  MISS:    3633257  HIT %:    35.9218  MISS %:    64.0782   MPKI: 72.6651
L1BTB BRANCH_DIRECT_JUMP	ACCESS:     547831 HIT:     143959 MISS:     403872 AVERAGE STALL: 56.111 AVERAGE FETCH STALL: 14.0363 AVERAGE FETCH QUEUE STALL: 19.9012 AVERAGE DECODE STALL: 21.259 AVERAGE EXECUTE STALL: 2.11667e+15
L1BTB BRANCH_INDIRECT	ACCESS:     182851 HIT:      65933 MISS:     116918 AVERAGE STALL: 112.045 AVERAGE FETCH STALL: 10.9412 AVERAGE FETCH QUEUE STALL: 19.2058 AVERAGE DECODE STALL: 13.6967 AVERAGE EXECUTE STALL: 67.2384
L1BTB BRANCH_CONDITIONAL	ACCESS:    2706852 HIT:    1412643 MISS:    1294209 AVERAGE STALL: 102.525 AVERAGE FETCH STALL: 18.8169 AVERAGE FETCH QUEUE STALL: 54.0855 AVERAGE DECODE STALL: 29.0115 AVERAGE EXECUTE STALL: 5.15704e+15
L1BTB BRANCH_DIRECT_CALL	ACCESS:     944853 HIT:     104597 MISS:     840256 AVERAGE STALL: 56.9615 AVERAGE FETCH STALL: 17.1431 AVERAGE FETCH QUEUE STALL: 22.1422 AVERAGE DECODE STALL: 16.6802 AVERAGE EXECUTE STALL: 1.821e+16
L1BTB BRANCH_INDIRECT_CALL	ACCESS:     171393 HIT:      20830 MISS:     150563 AVERAGE STALL: 142.076 AVERAGE FETCH STALL: 12.3414 AVERAGE FETCH QUEUE STALL: 18.0466 AVERAGE DECODE STALL: 12.5482 AVERAGE EXECUTE STALL: 98.6475
L1BTB BRANCH_RETURN	ACCESS:    1116256 HIT:     288817 MISS:     827439 AVERAGE STALL: 50.2879 AVERAGE FETCH STALL: 16.9409 AVERAGE FETCH QUEUE STALL: 6.06157 AVERAGE DECODE STALL: 6.14507 AVERAGE EXECUTE STALL: 4.29744e+14
L1BTB BRANCH_OTHER ACCESS:          0 HIT:          0 MISS:          0 AVERAGE STALL: -nan AVERAGE FETCH STALL: -nan AVERAGE FETCH QUEUE STALL: -nan AVERAGE DECODE STALL: -nan AVERAGE EXECUTE STALL: -nan
L1BTB TOTAL ROB OCCUPANCY AT BTB MISS: 2.61338

L2BTB TOTAL     ACCESS:    3607918  HIT:    3544478  MISS:      63440  HIT %:    98.2416  MISS %:    1.75835   MPKI: 1.2688
L2BTB BRANCH_DIRECT_JUMP	ACCESS:     399730 HIT:     395154 MISS:       4576 AVERAGE STALL: 56.111 AVERAGE FETCH STALL: 14.0363 AVERAGE FETCH QUEUE STALL: 19.9012 AVERAGE DECODE STALL: 21.259 AVERAGE EXECUTE STALL: 2.11667e+15
L2BTB BRANCH_INDIRECT	ACCESS:     106633 HIT:     103969 MISS:       2664 AVERAGE STALL: 112.045 AVERAGE FETCH STALL: 10.9412 AVERAGE FETCH QUEUE STALL: 19.2058 AVERAGE DECODE STALL: 13.6967 AVERAGE EXECUTE STALL: 67.2384
L2BTB BRANCH_CONDITIONAL	ACCESS:    1294208 HIT:    1290614 MISS:       3594 AVERAGE STALL: 102.525 AVERAGE FETCH STALL: 18.8169 AVERAGE FETCH QUEUE STALL: 54.0855 AVERAGE DECODE STALL: 29.0115 AVERAGE EXECUTE STALL: 5.15704e+15
L2BTB BRANCH_DIRECT_CALL	ACCESS:     840256 HIT:     839243 MISS:       1013 AVERAGE STALL: 56.9615 AVERAGE FETCH STALL: 17.1431 AVERAGE FETCH QUEUE STALL: 22.1422 AVERAGE DECODE STALL: 16.6802 AVERAGE EXECUTE STALL: 1.821e+16
L2BTB BRANCH_INDIRECT_CALL	ACCESS:     141065 HIT:     130991 MISS:      10074 AVERAGE STALL: 142.076 AVERAGE FETCH STALL: 12.3414 AVERAGE FETCH QUEUE STALL: 18.0466 AVERAGE DECODE STALL: 12.5482 AVERAGE EXECUTE STALL: 98.6475
L2BTB BRANCH_RETURN	ACCESS:     826026 HIT:     784507 MISS:      41519 AVERAGE STALL: 50.2879 AVERAGE FETCH STALL: 16.9409 AVERAGE FETCH QUEUE STALL: 6.06157 AVERAGE DECODE STALL: 6.14507 AVERAGE EXECUTE STALL: 4.29744e+14
L2BTB BRANCH_OTHER ACCESS:          0 HIT:          0 MISS:          0 AVERAGE STALL: -nan AVERAGE FETCH STALL: -nan AVERAGE FETCH QUEUE STALL: -nan AVERAGE DECODE STALL: -nan AVERAGE EXECUTE STALL: -nan
L2BTB TOTAL ROB OCCUPANCY AT BTB MISS: 149.671

L2C TOTAL     ACCESS:    4506409  HIT:    4054338  MISS:     452071  HIT %:    89.9683  MISS %:    10.0317   MPKI: 9.04142
L2C LOAD INSTRUCTION	ACCESS:    2770928  HIT:    2531670  MISS:     239258  HIT %:    91.3654  MISS %:    8.63458  MPKI: 4.78516
L2C LOAD TRANSLATION INSTRUCTION	ACCESS:        352  HIT:        134  MISS:        218  HIT %:    38.0682  MISS %:    61.9318  MPKI: 0.00436
L2C LOAD DATA	ACCESS:     733549  HIT:     663914  MISS:      69635  HIT %:    90.5071  MISS %:    9.49289  MPKI: 1.3927
L2C RFO DATA	ACCESS:     287238  HIT:     231929  MISS:      55309  HIT %:    80.7445  MISS %:    19.2555  MPKI: 1.10618
L2C PREFETCH DATA	ACCESS:     186786  HIT:     113699  MISS:      73087  HIT %:    60.8713  MISS %:    39.1287  MPKI: 1.46174
L2C WRITEBACK DATA	ACCESS:     525331  HIT:     512327  MISS:      13004  HIT %:    97.5246  MISS %:    2.47539  MPKI: 0.26008
L2C LOAD TRANSLATION DATA	ACCESS:       2166  HIT:        629  MISS:       1537  HIT %:    29.0397  MISS %:    70.9603  MPKI: 0.03074
L2C TRANSLATION FROM L1D PREFETCHER DATA	ACCESS:         59  HIT:         36  MISS:         23  HIT %:    61.0169  MISS %:    38.9831  MPKI: 0.00046

L2C PREFETCH  REQUESTED:      89337  ISSUED:      89337  USEFUL:       7960  USELESS:      65793
L2C USEFUL LOAD PREFETCHES:       7960 PREFETCH ISSUED TO LOWER LEVEL:      73552  ACCURACY: 10.8223
 TIMELY PREFETCHES:       7960 LATE PREFETCHES: 465 DROPPED PREFETCHES: 0
L2C AVERAGE MISS LATENCY: 39.9485 cycles
L2C RQ	ACCESS:    3794357	FORWARD:          0	MERGED:          0	TO_CACHE:    3794293
L2C WQ	ACCESS:     525331	FORWARD:         65	MERGED:          0	TO_CACHE:     525331
L2C PQ	ACCESS:     193719	FORWARD:          0	MERGED:       3204	TO_CACHE:     190514

L2C Dense regions hint from L2: 0
PSCL5 TOTAL     ACCESS:       4910  HIT:       2455  MISS:       2455  HIT %:         50  MISS %:         50   MPKI: 0.0491
PSCL5 LOAD TRANSLATION INSTRUCTION	ACCESS:       4794  HIT:       2397  MISS:       2397  HIT %:         50  MISS %:         50  MPKI: 0.04794
PSCL5 TRANSLATION FROM L1D PREFETCHER INSTRUCTION	ACCESS:        116  HIT:         58  MISS:         58  HIT %:         50  MISS %:         50  MPKI: 0.00116


PSCL4 TOTAL     ACCESS:       4684  HIT:       2338  MISS:       2346  HIT %:    49.9146  MISS %:    50.0854   MPKI: 0.04692
PSCL4 LOAD TRANSLATION INSTRUCTION	ACCESS:       4094  HIT:       2293  MISS:       1801  HIT %:    56.0088  MISS %:    43.9912  MPKI: 0.03602
PSCL4 TRANSLATION FROM L1D PREFETCHER INSTRUCTION	ACCESS:         87  HIT:         45  MISS:         42  HIT %:    51.7241  MISS %:    48.2759  MPKI: 0.00084
PSCL4 LOAD TRANSLATION DATA	ACCESS:        500  HIT:          0  MISS:        500  HIT %:          0  MISS %:        100  MPKI: 0.01
PSCL4 TRANSLATION FROM L1D PREFETCHER DATA	ACCESS:          3  HIT:          0  MISS:          3  HIT %:          0  MISS %:        100  MPKI: 6e-05


PSCL3 TOTAL     ACCESS:       4694  HIT:       2343  MISS:       2351  HIT %:    49.9148  MISS %:    50.0852   MPKI: 0.04702
PSCL3 LOAD TRANSLATION INSTRUCTION	ACCESS:       4099  HIT:       2298  MISS:       1801  HIT %:    56.0625  MISS %:    43.9375  MPKI: 0.03602
PSCL3 TRANSLATION FROM L1D PREFETCHER INSTRUCTION	ACCESS:         87  HIT:         45  MISS:         42  HIT %:    51.7241  MISS %:    48.2759  MPKI: 0.00084
PSCL3 LOAD TRANSLATION DATA	ACCESS:        505  HIT:          0  MISS:        505  HIT %:          0  MISS %:        100  MPKI: 0.0101
PSCL3 TRANSLATION FROM L1D PREFETCHER DATA	ACCESS:          3  HIT:          0  MISS:          3  HIT %:          0  MISS %:        100  MPKI: 6e-05


PSCL2 TOTAL     ACCESS:       4803  HIT:       2348  MISS:       2455  HIT %:    48.8861  MISS %:    51.1139   MPKI: 0.0491
PSCL2 LOAD TRANSLATION INSTRUCTION	ACCESS:       2606  HIT:       2291  MISS:        315  HIT %:    87.9125  MISS %:    12.0875  MPKI: 0.0063
PSCL2 TRANSLATION FROM L1D PREFETCHER INSTRUCTION	ACCESS:         57  HIT:         57  MISS:          0  HIT %:        100  MISS %:          0  MPKI: 0
PSCL2 LOAD TRANSLATION DATA	ACCESS:       2083  HIT:          0  MISS:       2083  HIT %:          0  MISS %:        100  MPKI: 0.04166
PSCL2 TRANSLATION FROM L1D PREFETCHER DATA	ACCESS:         57  HIT:          0  MISS:         57  HIT %:          0  MISS %:        100  MPKI: 0.00114


LLC TOTAL     ACCESS:     517723  HIT:     487322  MISS:      30401  HIT %:    94.1279  MISS %:    5.87206   MPKI: 0.60802
LLC LOAD INSTRUCTION	ACCESS:     239258  HIT:     238251  MISS:       1007  HIT %:    99.5791  MISS %:   0.420885  MPKI: 0.02014
LLC LOAD TRANSLATION INSTRUCTION	ACCESS:        218  HIT:        198  MISS:         20  HIT %:    90.8257  MISS %:    9.17431  MPKI: 0.0004
LLC LOAD DATA	ACCESS:      69183  HIT:      65683  MISS:       3500  HIT %:     94.941  MISS %:    5.05905  MPKI: 0.07
LLC RFO DATA	ACCESS:      55283  HIT:      39883  MISS:      15400  HIT %:    72.1433  MISS %:    27.8567  MPKI: 0.308
LLC PREFETCH DATA	ACCESS:      73550  HIT:      63608  MISS:       9942  HIT %:    86.4827  MISS %:    13.5173  MPKI: 0.19884
LLC WRITEBACK DATA	ACCESS:      78671  HIT:      78243  MISS:        428  HIT %:     99.456  MISS %:   0.544038  MPKI: 0.00856
LLC LOAD TRANSLATION DATA	ACCESS:       1537  HIT:       1433  MISS:        104  HIT %:    93.2336  MISS %:    6.76643  MPKI: 0.00208
LLC TRANSLATION FROM L1D PREFETCHER DATA	ACCESS:         23  HIT:         23  MISS:          0  HIT %:        100  MISS %:          0  MPKI: 0

LLC AVERAGE MISS LATENCY: 159.318 cycles
LLC RQ	ACCESS:     365515	FORWARD:          0	MERGED:          0	TO_CACHE:     365502
LLC WQ	ACCESS:      78671	FORWARD:         15	MERGED:          0	TO_CACHE:      78671
LLC PQ	ACCESS:      73552	FORWARD:          0	MERGED:          0	TO_CACHE:      73550

LLC Dense regions hint to LLC: 0

RAW hits: 1951450
Loads Generated: 12639668
Loads sent to L1D: 10688218
Stores Generated: 6952157
Stores sent to L1D: 6952185
Major fault: 0 Minor fault: 2538
Allocated PAGES: 2538

stream: 
stream:times selected: 1176594
stream:pref_filled: 124558
stream:pref_useful: 24793
stream:pref_late: 6901
stream:misses: 8085
stream:misses_by_poll: 0

CS: 
CS:times selected: 176639
CS:pref_filled: 59592
CS:pref_useful: 36490
CS:pref_late: 7519
CS:misses: 17080
CS:misses_by_poll: 3

CPLX: 
CPLX:times selected: 998801
CPLX:pref_filled: 19884
CPLX:pref_useful: 4706
CPLX:pref_late: 3176
CPLX:misses: 95434
CPLX:misses_by_poll: 2

NL_L1: 
NL:times selected: 20934
NL:pref_filled: 818
NL:pref_useful: 363
NL:pref_late: 323
NL:misses: 1885
NL:misses_by_poll: 0

total selections: 2372968
total_filled: 95811
total_useful: 35200
total_late: 19297
total_polluted: 5
total_misses_after_warmup: 776559
conflicts: 5528542

test: 118697

DRAM Statistics
 CHANNEL 0
 RQ ROW_BUFFER_HIT:      11266  ROW_BUFFER_MISS:      18692
 DBUS_CONGESTED:         16
 WQ ROW_BUFFER_HIT:       1508  ROW_BUFFER_MISS:      12561  FULL:          0

 AVG_CONGESTED_CYCLE: 5

CPU 0 Branch Prediction Accuracy: 99.8212% MPKI: 0.327 Average ROB Occupancy at Mispredict: 199.365
Branch types
NOT_BRANCH: 40856083 81.7122%
BRANCH_DIRECT_JUMP: 547831 1.09566%
BRANCH_INDIRECT: 182851 0.365702%
BRANCH_CONDITIONAL: 6180765 12.3615%
BRANCH_DIRECT_CALL: 944853 1.88971%
BRANCH_INDIRECT_CALL: 171393 0.342786%
BRANCH_RETURN: 1116256 2.23251%
BRANCH_OTHER: 0 0%

DRAM PAGES: 1048576
Allocated PAGES: 2538
Average_ROB_Occupancy: 253.508
Average_Decode_Occupancy: 38.1938
Average_FTQ_Occupancy: 14.8373
Indirect max targets: 14 Average targets: 1.14576
Branch_type:  BRANCH_DIRECT_JUMP:  Count Percentage: 2.87004 7.21669 3.61616 8.3133 2.73488 5.40222 1.0276 68.8191 
Branch_type:  BRANCH_INDIRECT:  Count Percentage: 11.7585 3.44223 2.47267 0 2.52912 9.67447 19.1829 50.9401 
Branch_type:  BRANCH_CONDITIONAL:  Count Percentage: 20.9019 3.09402 1.68594 8.8032 1.34668 4.71807 1.8845 57.5657 
Branch_type:  BRANCH_DIRECT_CALL:  Count Percentage: 0.786469 1.29482 1.40505 4.53314 2.66397 2.34357 0.945272 86.0277 
Branch_type:  BRANCH_INDIRECT_CALL:  Count Percentage: 9.58462 0.551723 3.00467 4.84568 0.00029084 1.71683 1.2733 79.0229 
Branch_type:  BRANCH_RETURN:  Count Percentage: 4.04398 0.698198 1.24341 8.94753 2.74138 6.24354 3.07554 73.0064 
Branch_type:  BRANCH_DIRECT_JUMP:  Total Count: 31404 78965 39568 90964 29925 59111 11244 753018 
Branch_type:  BRANCH_INDIRECT:  Total Count: 42908 12561 9023 0 9229 35303 70000 185885 
Branch_type:  BRANCH_CONDITIONAL:  Total Count: 2582132 382221 208274 1087508 166363 582849 232803 7111405 
Branch_type:  BRANCH_DIRECT_CALL:  Total Count: 14897 24526 26614 85865 50460 44391 17905 1629505 
Branch_type:  BRANCH_INDIRECT_CALL:  Total Count: 32955 1897 10331 16661 1 5903 4378 271706 
Branch_type:  BRANCH_RETURN:  Total Count: 90535 15631 27837 200314 61373 139778 68854 1634440 
Number of unique branch instructions: 9737
Upper 32 bits: 
aaaa
ffff
ffff0000
Unique upper 32 bits: 3
Unique upper 36 bits: 3
Unique upper 40 bits: 5
Unique upper 44 bits: 32
Unique upper 48 bits: 154
Variant_0 : 1395 0.227051
Variant_1 : 2920 0.47526
Variant_2 : 0 0
Variant_3 : 0 0
Offset_3 4020
Offset_4 242
Offset_5 447
Offset_6 501
Offset_7 574
Offset_8 499
Offset_9 462
Offset_10 375
Offset_11 304
Offset_12 266
Offset_13 198
Offset_14 223
Offset_15 185
Offset_16 219
Offset_17 145
Offset_18 120
Offset_19 235
Offset_20 133
Offset_21 235
Offset_22 391
Offset_23 241
Offset_24 325
Offset_25 88
Offset_47 80
Offset_64 6
decode_dispatch_called: 26412439 73.6921
Dispatch_width: 0 14131739 53.5041 39.4283
Dispatch_width: 1 1056168 3.99875 2.94676
Dispatch_width: 2 881068 3.33581 2.45823
Dispatch_width: 3 504815 1.91128 1.40846
Dispatch_width: 4 6625840 25.0861 18.4864
Dispatch_width: 5 112963 0.427689 0.315173
Dispatch_width: 6 3099846 11.7363 8.64873
Empty_decode_cycles: 9429179 26.3079
ROB_full_cycles: 10467631 29.2052
Starvation_cycles_per_kilo_instr: 222.741
Starvation_cycles_per_kilo_instr_3: 155.353
Starvation_cycles_per_kilo_instr_0: 130.933
Branch_type_1  (3,1)  (4,7)  (5,36)  (6,71)  (7,115)  (8,126)  (9,125)  (10,98)  (11,69)  (12,43)  (13,8)  (14,2)  (15,3)  (16,4)  (18,1)  (19,4)  (20,2)  (21,1)  (22,3)  (23,2)  (24,10)  (25,12) 
Branch_type_2  (3,1)  (5,1)  (8,3)  (9,3)  (12,1)  (13,1)  (14,1)  (16,3)  (17,2)  (20,2)  (21,2)  (23,5)  (24,1)  (47,36) 
Branch_type_3  (3,4018)  (4,235)  (5,406)  (6,415)  (7,430)  (8,311)  (9,253)  (10,153)  (11,124)  (12,51)  (13,7)  (64,5) 
Branch_type_4  (6,3)  (7,8)  (8,24)  (9,50)  (10,59)  (11,56)  (12,93)  (13,82)  (14,98)  (15,87)  (16,98)  (17,63)  (18,54)  (19,115)  (20,70)  (21,124)  (22,207)  (23,136)  (24,186)  (25,72) 
Branch_type_5  (8,2)  (9,1)  (10,3)  (11,5)  (12,3)  (13,14)  (14,16)  (15,11)  (16,20)  (17,13)  (18,16)  (19,12)  (20,10)  (21,13)  (22,42)  (23,26)  (24,36) 
Branch_type_6  (5,4)  (6,12)  (7,21)  (8,33)  (9,30)  (10,62)  (11,50)  (12,75)  (13,86)  (14,106)  (15,84)  (16,94)  (17,67)  (18,49)  (19,104)  (20,49)  (21,95)  (22,139)  (23,72)  (24,92)  (25,4)  (47,44)  (64,1) 
Unique trigger count: 
Variant_0_evicts_0 : 0
Variant_0_evicts_1 : 0
Variant_0_evicts_2 : 0
Variant_0_evicts_3 : 0
Variant_1_evicts_0 : 0
Variant_1_evicts_1 : 0
Variant_1_evicts_2 : 0
Variant_1_evicts_3 : 0
Variant_2_evicts_0 : 0
Variant_2_evicts_1 : 0
Variant_2_evicts_2 : 0
Variant_2_evicts_3 : 0
Variant_3_evicts_0 : 0
Variant_3_evicts_1 : 0
Variant_3_evicts_2 : 0
Variant_3_evicts_3 : 0
BTB PER SET UNIQUE ADDR: 6 6 5 7 7 3 4 4 2 5 5 5 4 5 5 8 3 5 5 5 5 6 4 5 4 3 5 4 4 5 7 6 5 7 5 4 3 3 5 4 5 5 6 7 2 3 3 5 7 5 6 6 6 4 5 7 5 4 4 4 6 4 5 6 5 5 6 3 5 2 5 4 6 6 5 4 5 6 6 6 6 6 7 5 6 5 1 5 4 6 5 5 4 6 5 4 5 8 5 7 6 6 6 7 4 5 2 4 4 7 5 3 5 4 5 3 5 5 5 5 3 6 5 6 8 5 4 4 6 4 6 6 5 5 5 5 5 2 7 6 5 5 6 6 3 5 4 6 4 6 7 4 4 4 5 8 3 3 5 6 3 6 4 6 4 7 5 8 3 5 6 3 6 5 7 6 5 4 5 5 5 3 6 6 3 6 5 4 6 7 6 6 4 5 5 5 5 3 6 3 6 7 7 6 7 5 5 5 5 6 7 7 5 7 5 4 7 4 5 4 4 6 4 4 5 2 5 6 5 4 7 4 5 6 3 6 5 8 5 5 8 7 6 6 5 4 6 4 6 5 6 3 3 3 4 3 4 5 5 5 6 5 3 3 7 6 6 5 4 5 7 4 6 5 4 5 7 3 6 5 6 6 2 6 5 6 6 5 4 4 4 6 4 4 3 6 7 7 5 3 6 3 3 5 6 5 5 6 6 5 5 4 6 3 5 6 6 5 6 6 4 5 5 4 5 6 5 5 5 5 5 4 4 3 3 5 7 3 5 5 6 4 6 5 3 6 5 3 5 6 5 6 4 7 6 7 5 4 4 6 5 4 4 4 4 5 5 5 4 4 3 5 7 4 4 4 5 5 3 4 7 5 4 3 3 6 3 6 6 5 5 5 7 8 4 5 6 7 4 6 7 7 7 6 5 3 5 5 7 6 5 5 8 5 8 5 5 4 5 5 5 3 5 7 5 6 4 4 6 7 5 5 7 4 4 3 7 3 3 7 5 3 5 5 4 4 3 6 7 5 8 5 6 5 5 3 5 5 6 5 6 4 2 4 5 5 6 6 4 4 5 6 8 7 7 4 6 4 5 6 5 4 6 5 8 5 4 7 7 3 5 8 4 5 7 7 6 3 6 5 6 3 6 6 6 6 4 4 6 4 3 4 4 4 3 3 5 3 4 3 5 5 3 3 4 3 1 3 1 4 4 3 6 3 5 4 1 2 3 5 4 5 5 3 4 5 5 5 2 3 3 5 2 5 4 4 5 2 3 3 2 4 4 5 4 2 4 3 4 1 3 2 2 1 3 4 4 3 4 4 2 3 2 4 4 2 3 2 4 3 4 2 3 3 2 5 4 5 5 4 6 5 2 3 2 3 4 2 4 3 5 3 4 4 2 3 4 3 4 3 4 2 5 4 5 6 3 5 4 3 2 2 5 3 3 3 4 4 5 3 4 5 1 2 4 4 4 3 4 3 3 2 3 3 3 3 7 5 5 2 5 3 4 3 4 3 2 3 7 5 4 4 3 6 4 3 2 6 5 6 5 4 3 3 5 3 2 6 5 3 5 1 3 4 3 4 4 3 4 5 5 2 2 2 4 3 1 3 4 4 5 3 3 5 5 2 5 4 3 2 4 4 2 4 7 4 5 3 2 4 3 3 6 3 6 4 4 4 2 6 3 5 6 5 4 2 5 2 4 4 3 3 2 3 5 5 3 1 2 4 5 2 5 3 3 7 4 3 4 4 4 3 3 3 7 2 4 5 2 2 3 3 5 4 3 3 2 3 4 4 4 4 5 3 6 3 5 1 4 4 4 4 4 3 5 4 5 3 4 4 4 2 0 2 3 2 5 3 3 4 5 3 7 2 3 1 3 3 3 6 4 5 3 7 5 4 5 5 3 4 4 3 4 5 3 5 5 4 2 2 5 5 4 2 5 4 3 3 2 2 3 6 3 5 5 4 3 1 4 5 5 3 4 3 4 4 3 3 3 4 5 5 4 5 4 4 4 2 3 1 5 2 4 1 2 5 2 3 5 1 4 2 5 4 3 2 5 4 4 4 4 5 3 4 3 5 3 4 4 2 4 4 4 3 3 3 5 3 3 5 1 5 5 4 4 3 4 2 2 3 5 5 6 5 3 2 3 2 6 5 5 5 4 4 4 3 4 4 3 2 3 3 5 4 3 3 5 3 2 5 2 6 3 5 2 6 3 4 2 4 3 3 3 5 5 2 3 4 3 3 3 2 3 5 6 4 2 3 4 5 5 2 5 4 4 4 4 4 2 4 5 5 6 5 5 5 4 4 4 3 3 4 3 4 5 2 5 6 3 3 3 2 3 3 3 5 5 3 1 3 3 3 3 6 5 3 3 4 5 4 3 3 5 4 3 4 5 4 2 3 6 4 6 3 2 4 3 3 4 4 3 4 2 4 6 3 3 2 2 4 6 2 4 4 3 3 4 2 3 3 5 5 4 7 4 4 3 6 4 3 3 4 5 6 4 5 3 6 2 2 6 4 4 1 3 5 6 4 2 6 4 3 3 6 4 7 3 5 5 2 5 4 6 1 4 3 3 2 5 4 4 6 3 2 2 4 2 4 4 5 6 4 2 1 3 3 5 3 3 2 6 3 6 3 3 3 6 4 4 4 3 4 6 5 1 3 3 3 2 3 5 3 4 4 4 4 5 2 3 5 3 3 2 1 4 5 5 4 2 1 2 2 2 1 4 4 3 2 5 4 4 4 5 4 4 4 4 4 4 7 6 2 4 5 3 4 2 4 5 1 5 3 5 3 5 4 4 3 3 4 3 3 7 4 6 3 5 4 3 4 3 5 5 4 3 3 6 4 3 7 3 4 4 6 4 3 5 3 5 4 5 4 5 2 3 3 3 3 4 5 4 6 5 4 4 4 5 1 4 4 3 3 4 5 3 5 5 5 3 5 3 4 4 4 4 5 4 3 8 4 3 5 6 2 4 3 5 3 2 3 6 3 4 3 3 1 3 5 6 3 2 3 5 4 3 4 5 3 4 5 4 5 2 4 8 5 4 3 6 3 2 2 5 4 3 1 5 2 4 4 4 4 5 4 4 5 2 5 4 6 4 5 1 7 5 5 5 5 1 4 3 3 3 2 5 4 3 4 3 2 2 3 3 4 1 4 4 4 1 3 3 3 5 3 4 4 3 4 5 3 2 5 5 5 4 2 1 3 2 3 4 5 4 6 4 2 2 6 4 6 5 4 3 6 3 4 6 5 5 4 6 5 4 2 3 4 4 5 5 7 5 2 4 2 4 5 4 3 4 6 4 3 5 2 5 3 3 2 3 5 1 2 5 2 6 3 3 4 5 6 4 5 5 4 5 4 4 4 5 5 4 3 2 3 3 6 3 3 3 3 3 3 4 5 5 2 3 3 5 4 7 3 3 5 4 5 7 4 2 6 4 3 4 5 4 4 3 4 4 5 2 3 4 2 4 4 
BTB PER SET COUNT: 6 2960 6 7 11 3 8 5 2 5 7 5 4 5 361 8 3 6 5 5 5 6 4 5 478 3 7 4 4 535 2960 6 6 8 5 4 3 3 5 4 5 5 16 2485 2 3 479 5 163 5 6 6 480 4 5 9 7 1428 4 6 204 4 5 8 5 5 7 4 6 2 5 4 8 6 5 257 6 6 6 6 6 8 7 5 6 5 1 5 5 1758 140 5 5 6 5 4 6 9 5 7 8 8 8 1482 4 5 2 4 4 8 5 3 9 4 5 3 5 10 9 5 3 6 2296 10 10 5 4 4 757 5 6 1008 5 7 5 9 5 2 7 954 772 7 7 6 4 5 4 8 6 16 8 4 4 91 5 2011 3 5 5 6 5 8 5 6 4 7 6 10 4 5 6 3 89 7 9 6 5 6 6 5 5 3 8 6 4 6 5 4 8 7 546 8 5 7 5 8 5 934 6 3 6 7 8 7 9 5 5 5 54 6 7 9 5 8 9 4 7 5 5 4 4 6 4 544 6 2 5 480 5 4 250 4 5 6 3 14 5 8 6 5 8 9 6 482 33 4 7759 196 6 5 1166 4 3 5 4 3 1482 8 6 5 8 6 3 3 9 8 6 5 4 5 32 6 9 6 4 5 1043 4 12 7 7 8 2 1428 55 6 6 5 926 4 4 6 4 6 3 6 8 7 7 3 6 3 3 5 10 5 7 6 6 5 5 5 10 3 7 10 7 5 6 6 4 5 163 4 6 6 5 5 5 5 5 5 20674 6 3 5 8 3 5 6 7 5 7 6 3 8 8 3 176 10 5 6 4 7 6 7 5 1427 10 139 6 4 4 8 14763 5 5 5 4 4 3 14 7 4 4 4 1482 5 3 4 9 7 4 3 3 7 3 6 7 5 6 5 7 8 4 5 1895 433 4 6 9 7 7 362 5 3 6 9 7 6 8 5 10 6 8 6 5 27 5 5 5 3 6 490 5 6 4 4 956 7 5 5 7 4 4 949 8 3 2844 8 5 140 5 5 568 4 1301 8 7 7 13 5 8 5 8 3 5 5 6 1039 2482 970 2 7 23 1480 9 6 4 4 5 6 8 7 1008 4 6 4 5 7 5 4 6 1480 184 12 4 7 10 3 1428 10 12 5 9 7 1425 6 6 5 11 3 7 6 1364 6 4 4 8 4 4 5 7 1905 3 3 6 486 4 3 5 5 3 4 8 3 2 3 1 4 4 3 6 12 28 6 1 2 3 5 12 5 5 3 4 1490 5 5 2 6 3 937 949 5 4 4 9 2 3 3 949 7 6 5 4 2 1866 3 5 3 4 2 2 1 3 4 4 4 4 6 4 3 2 6 9 2 3 2 4 5 4 4 10 3 2 1480 5 7 5 5 11 6 2 4 3 3 5 2 4 3 5 4 1010 4 2 3 1482 4 4 3 14 2 5 6 5 6 3 5 8 4 2 2 5 3 3 3 6 4 5 3 4 7 1 2 7 4 4 3 5 936 4 4 3 3 3 3 7 7 5 2 6 4 5 3 4 476 2 3 9 6 6 5 3 8 4 1478 2 6 5 12 8 5 3 3 5 3 2 6 6 3 5 1 3 4 3 6 5 3 4 6 5 2 2 2 4 3 1 3 4 4 5 3 3 6 5 475 8 4 3 2 4 4 2 4 7 4 5 3 5 4 3 4 29 3 6 4 4 5 2 1494 3 5 8 5 5 2 5 2 5 4 3 3 3 3 951 5 3 4 236 6 6 2 5 3 3 7 4 2955 5 7 6 3 4 3 7 2 7 5 2 2 3 3 5 22 3 3 2 3 230 4 5 4 5 5 6 3 5 1 4 4 5 4 4 3 5 4 6 5 4 7 4 4 0 2 4 2 5 3 3 4 9 3 7 2 3 1 3 3 3 487 4 7 4 1009 5 4 6 6 3 5 9 4 951 5 3 5 1010 4 3 2 6 1007 4 5 5 4 3 4 2 2 3 7 3 5 479 4 3 1 4 5 5 3 131 4 4 4 3 3 3 4 6 5 4 20 5 5 951 3 3 1 6 2 4 1 2 7 2 3 5 1 4 16 6 4 5 2 5 4 6 971 5 6 3 5 3 5 3 4 4 3 4 1005 4 3 3 5 1483 3 3 9 3 5 6 4 4 3 4 1003 2 9 5 2955 7 5 3 3 3 5 10 5 6 5 4 6 962 5 4 4 1900 2 3 3 8 5 3 3 481 3 3 5 2 6 6 18 4 6 6 5 2 7 3 5 3 7 5 3 3 39 3 3 3 2 3 7 6 6 2 3 4 87 5 3 5 4 4 4 7 1479 4 477 5 5 10 5 9 5 4 5 5 3 3 4 3 4 7 2 5 539 6 3 8 2 3 6 3 7 6 3 1 7 3 3 4 9 5 3 4 4 5 4 3 3 5 4 3 4 5 439 2 4 6 4 6 3 2 7 3 3 4 4 3 404 2 5 6 3 3 2 2 6 6 2 4 1007 3 3 11 2 3 8 5 6 4 9 4 4 16 6 4 3 3 4 9 2484 360 366 4 6 2 2 362 4 4 1 3 5 6 33 2 6 4 3 3 6 4 8 3 5 5 2 5 4 6 1 4 4 3 2 5 4 4 6 4 2 2 7 2 951 5 7 6 4 2 1 3 3 6 3 3 2 6 3 8 4 4 3 6 4 4 4 3 6 7 6 1 3 3 3 4 3 1482 3 4 4 4 4 9 2 3 5 3 4 4 1 2019 481 5 4 116 1 2 2 2 1 4 5 3 2 5 397 1479 4 5 4 1005 5 7 5 4 7 587 2 4 5 3 4 2 4 1486 1 1008 3 6 3 6 4 4 3 4 4 3 3 7 6 14 3 5 4 3 4 3 480 5 33 3 3 9 4 3 11 3 57 4 6 1006 3 5 5 6 236 6 4 5 2 3 5 3 3 4 8 4 6 5 4 4 4 5 1 4 4 3 3 4 7 4 5 5 5 3 954 5 4 7 6 4 15 4 6 8 5 3 5 6 2 4 3 5 4 2 4 7 3 4 936 3 1 3 1493 8 3 2 3 5 4 3 4 1480 3 4 367 4 5 2 4 188 7 4 3 59 3 2 2 5 4 1085 1 5 2 4 4 6 5 6 4 4 5 2 11 4 6 4 5 1 8 7 5 7 5 1 489 4 3 3 2 8 6 5 5 4 2 2 4 3 4 1 4 4 4 1 4 3 3 6 3 4 4 3 4 5 25 2 8 5 1480 24 2 1 219 2 3 4 5 4 11 6 2 3 9 5 2458 5 4 3 2206 3 5 6 6 5 5 8 6 6 2 3 6 6 478 5 7 6 2 4 2 4 5 11 3 6 6 4 3 5 2 6 4 3 5 3 5 1 2 5 2 6 3 3 4 9 480 4 5 1006 4 5 4 4 5 5 5 4 3 2 3 3 6 3 3 3 3 239 1004 4 5 5 4 3 3 6 4 10 3 3 11 4 6 11 4 2 12 4 3 4 2491 4 4 3 4 1005 6 2 3 4 2 4 4 
To predecode: 0
Predecoding something: 0
Predecode request dropped: 0
sizeofblock_0 0
sizeofblock_1 56375
sizeofblock_2 76204
sizeofblock_3 0
sizeofblock_4 0
sizeofblock_5 0
sizeofblock_6 0
sizeofblock_7 0
sizeofblock_8 0
Variant_0 Correct: 1621720 Incorrect: 0 Accuracy: 1
Variant_1 Correct: 5760264 Incorrect: 0 Accuracy: 1
Variant_2 Correct: 0 Incorrect: 0 Accuracy: -nan
Variant_3 Correct: 0 Incorrect: 0 Accuracy: -nan
