
*** ChampSim Multicore Out-of-Order Simulator ***

Warmup Instructions: 50000000
Simulation Instructions: 50000000
Number of CPUs: 1
LLC sets: 2048
LLC ways: 16
Off-chip DRAM Size: 4096 MB Channels: 1 Width: 64-bit Data Rate: 6400 MT/s
CPU 0 runs ./micro_traces/srv183.trace.gz
.gz
ITLB has LRU replacement policy
DTLB has LRU replacement policy
STLB has LRU replacement policy
FDIP Prefetcher at L1I
L1I has LRU replacement policy
L1D has LRU replacement policy
Initialize SRRIP state for L2C
Initialize DRRIP state for LLC
Heartbeat CPU 0 instructions: 10000002 cycles: 2797709 heartbeat IPC: 3.57435 cumulative IPC: 3.57435 (Simulation time: 0 hr 1 min 36 sec) 
Heartbeat CPU 0 instructions: 20000003 cycles: 5594155 heartbeat IPC: 3.57597 cumulative IPC: 3.57516 (Simulation time: 0 hr 3 min 13 sec) 
Heartbeat CPU 0 instructions: 30000000 cycles: 8391786 heartbeat IPC: 3.57445 cumulative IPC: 3.57492 (Simulation time: 0 hr 4 min 52 sec) 
Heartbeat CPU 0 instructions: 40000002 cycles: 11187634 heartbeat IPC: 3.57673 cumulative IPC: 3.57538 (Simulation time: 0 hr 6 min 28 sec) 
Heartbeat CPU 0 instructions: 50000003 cycles: 13984753 heartbeat IPC: 3.57511 cumulative IPC: 3.57532 (Simulation time: 0 hr 8 min 5 sec) 

Warmup complete CPU 0 instructions: 50000003 cycles: 13984753 (Simulation time: 0 hr 8 min 5 sec) 

Cycle: 20000000 FTQ IN: 58177171 FTQ occupancy: 20.0667 DECODE IN: 58177108 DECODE occupancy: 52.3508 ROB IN: 58177048 ROB occupancy: 315.508 ROB OUT: 58176700
Heartbeat CPU 0 instructions: 60000002 cycles: 21315622 heartbeat IPC: 1.36409 cumulative IPC: 1.36409 (Simulation time: 0 hr 9 min 56 sec) 
Heartbeat CPU 0 instructions: 70000002 cycles: 28507162 heartbeat IPC: 1.39052 cumulative IPC: 1.37718 (Simulation time: 0 hr 11 min 44 sec) 
Cycle: 30000000 FTQ IN: 13775710 FTQ occupancy: 13.248 DECODE IN: 13775670 DECODE occupancy: 34.642 ROB IN: 13775670 ROB occupancy: 240.828 ROB OUT: 13775666
Heartbeat CPU 0 instructions: 80000001 cycles: 35803198 heartbeat IPC: 1.37061 cumulative IPC: 1.37498 (Simulation time: 0 hr 13 min 34 sec) 
Cycle: 40000000 FTQ IN: 13861475 FTQ occupancy: 13.2574 DECODE IN: 13861446 DECODE occupancy: 34.9301 ROB IN: 13861446 ROB occupancy: 240.88 ROB OUT: 13861450
Heartbeat CPU 0 instructions: 90000002 cycles: 43003161 heartbeat IPC: 1.3889 cumulative IPC: 1.37844 (Simulation time: 0 hr 15 min 19 sec) 
Cycle: 50000000 FTQ IN: 13583212 FTQ occupancy: 13.1927 DECODE IN: 13583221 DECODE occupancy: 34.3863 ROB IN: 13583221 ROB occupancy: 237.607 ROB OUT: 13583217
Heartbeat CPU 0 instructions: 100000000 cycles: 50430131 heartbeat IPC: 1.34644 cumulative IPC: 1.37192 (Simulation time: 0 hr 16 min 59 sec) 
Finished CPU 0 instructions: 50000001 cycles: 36445379 cumulative IPC: 1.37192 (Simulation time: 0 hr 16 min 59 sec) 

ChampSim completed all CPUs

Region of Interest Statistics

CPU 0 cumulative IPC: 1.37192 instructions: 50000001 cycles: 36445379
 Fetch stage stalled: 52.8868  Sim cycles: 36445379 fetch stall cycle: 19274790
 Empty decode stage: 33.4952  Sim cycles: 36445379 fetch stall cycle: 12207457
ITLB TOTAL     ACCESS:    5867464  HIT:    5371372  MISS:     496092  HIT %:     91.545  MISS %:    8.45496   MPKI: 9.92184
ITLB LOAD TRANSLATION INSTRUCTION	ACCESS:    5744229  HIT:    5248137  MISS:     496092  HIT %:    91.3636  MISS %:    8.63635  MPKI: 9.92184
ITLB TRANSLATION FROM L1D PREFETCHER INSTRUCTION	ACCESS:     123235  HIT:     123235  MISS:          0  HIT %:        100  MISS %:          0  MPKI: 0

ITLB AVERAGE MISS LATENCY: 9.07929 cycles
ITLB RQ	ACCESS:    8018931	FORWARD:          0	MERGED:    1706781	TO_CACHE:    6312150

DTLB TOTAL     ACCESS:    8971989  HIT:    8499430  MISS:     472559  HIT %:     94.733  MISS %:    5.26705   MPKI: 9.45118
DTLB LOAD TRANSLATION DATA	ACCESS:    8971989  HIT:    8499430  MISS:     472559  HIT %:     94.733  MISS %:    5.26705  MPKI: 9.45118

DTLB AVERAGE MISS LATENCY: 9.39557 cycles
DTLB RQ	ACCESS:   13348360	FORWARD:          0	MERGED:    4338292	TO_CACHE:    9010068

STLB TOTAL     ACCESS:    1216711  HIT:    1214425  MISS:       2286  HIT %:    99.8121  MISS %:   0.187884   MPKI: 0.04572
STLB LOAD TRANSLATION INSTRUCTION	ACCESS:     496092  HIT:     495772  MISS:        320  HIT %:    99.9355  MISS %:  0.0645042  MPKI: 0.0064
STLB LOAD TRANSLATION DATA	ACCESS:     472559  HIT:     470637  MISS:       1922  HIT %:    99.5933  MISS %:   0.406722  MPKI: 0.03844
STLB TRANSLATION FROM L1D PREFETCHER DATA	ACCESS:     248060  HIT:     248016  MISS:         44  HIT %:    99.9823  MISS %:  0.0177376  MPKI: 0.00088

STLB AVERAGE MISS LATENCY: 85.0477 cycles
STLB RQ	ACCESS:    1337651	FORWARD:          0	MERGED:     120903	TO_CACHE:    1216748

STLB Hit, L1D data hit: 0
STLB Hit, L2C data hit: 0
STLB Hit, LLC data hit: 0
STLB Hit, LLC data miss: 0
STLB STLB hints to L2: 0
L1D TOTAL     ACCESS:   13092065  HIT:   11965556  MISS:    1126509  HIT %:    91.3955  MISS %:    8.60452   MPKI: 22.5302
L1D LOAD DATA	ACCESS:    6556329  HIT:    5814110  MISS:     742219  HIT %:    88.6794  MISS %:    11.3206  MPKI: 14.8444
L1D RFO DATA	ACCESS:    6208076  HIT:    5919046  MISS:     289030  HIT %:    95.3443  MISS %:    4.65571  MPKI: 5.7806
L1D PREFETCH DATA	ACCESS:     327660  HIT:     232400  MISS:      95260  HIT %:    70.9272  MISS %:    29.0728  MPKI: 1.9052

L1D PREFETCH  REQUESTED:     738346  ISSUED:     738346  USEFUL:      35205  USELESS:      68057
L1D USEFUL LOAD PREFETCHES:      35205 PREFETCH ISSUED TO LOWER LEVEL:     103376  ACCURACY: 34.0553
 TIMELY PREFETCHES:      35205 LATE PREFETCHES: 8042 DROPPED PREFETCHES: 10
L1D AVERAGE MISS LATENCY: 229258 cycles
L1D RQ	ACCESS:   10694868	FORWARD:          0	MERGED:    3938971	TO_CACHE:    6591742
L1D WQ	ACCESS:    6954528	FORWARD:     164501	MERGED:     197910	TO_CACHE:    6756618
L1D PQ	ACCESS:     369346	FORWARD:          0	MERGED:          0	TO_CACHE:     369000

L1D UNIQUE REGIONS ACCESSED: 0
L1D REGIONS CONFLICTS: 0
L1D Cross Page Prefetch Requests: 6943
L1D Same Page Prefetch Requests: 748388
L1D ROI Sum of L1D PQ occupancy: 4692990
L1D PREFETCHES PUSHED FROM L2C: 0
L1I TOTAL     ACCESS:    7171184  HIT:    4397330  MISS:    2773854  HIT %:    61.3194  MISS %:    38.6806   MPKI: 55.4771
L1I LOAD INSTRUCTION	ACCESS:    6502934  HIT:    3729080  MISS:    2773854  HIT %:    57.3446  MISS %:    42.6554  MPKI: 55.4771
L1I PREFETCH INSTRUCTION	ACCESS:     668250  HIT:     668250  MISS:          0  HIT %:        100  MISS %:          0  MPKI: 0

L1I PREFETCH  REQUESTED:    1624785  ISSUED:    1624785  USEFUL:          0  USELESS:          0
L1I USEFUL LOAD PREFETCHES:          0 PREFETCH ISSUED TO LOWER LEVEL:          0  ACCURACY: -nan
 TIMELY PREFETCHES:          0 LATE PREFETCHES: 0 DROPPED PREFETCHES: 0
L1I AVERAGE MISS LATENCY: 17.1619 cycles
L1I RQ	ACCESS:    9510713	FORWARD:          0	MERGED:    2681721	TO_CACHE:    6828992
L1I PQ	ACCESS:    1624785	FORWARD:          0	MERGED:     434846	TO_CACHE:    1189939

L1BTB TOTAL     ACCESS:    5670141  HIT:    2034383  MISS:    3635758  HIT %:    35.8789  MISS %:    64.1211   MPKI: 72.7152
L1BTB BRANCH_DIRECT_JUMP	ACCESS:     546743  HIT:     143375  MISS:     403368	AVERAGE STALL: 52.3839
L1BTB BRANCH_INDIRECT	ACCESS:     182459  HIT:      65639  MISS:     116820	AVERAGE STALL: 105.478
L1BTB BRANCH_CONDITIONAL	ACCESS:    2705179  HIT:    1411053  MISS:    1294126	AVERAGE STALL: 83.6848
L1BTB BRANCH_DIRECT_CALL	ACCESS:     946771  HIT:     104164  MISS:     842607	AVERAGE STALL: 108.305
L1BTB BRANCH_INDIRECT_CALL	ACCESS:     171107  HIT:      20728  MISS:     150379	AVERAGE STALL: 133.207
L1BTB BRANCH_RETURN	ACCESS:    1117882  HIT:     289424  MISS:     828458	AVERAGE STALL: 48.7775
L1BTB BRANCH_OTHER ACCESS:          0  HIT:          0  MISS:          0	AVERAGE STALL: -nan
L1BTB TOTAL ROB OCCUPANCY AT BTB MISS: 1.97671

L2BTB TOTAL     ACCESS:    3610377  HIT:    3553323  MISS:      57054  HIT %:    98.4197  MISS %:    1.58028   MPKI: 1.14108
L2BTB BRANCH_DIRECT_JUMP	ACCESS:     399224  HIT:     396434  MISS:       2790	AVERAGE STALL: 52.3839
L2BTB BRANCH_INDIRECT	ACCESS:     106498  HIT:     103837  MISS:       2661	AVERAGE STALL: 105.478
L2BTB BRANCH_CONDITIONAL	ACCESS:    1294126  HIT:    1293545  MISS:        581	AVERAGE STALL: 83.6848
L2BTB BRANCH_DIRECT_CALL	ACCESS:     842607  HIT:     842189  MISS:        418	AVERAGE STALL: 108.305
L2BTB BRANCH_INDIRECT_CALL	ACCESS:     140895  HIT:     131022  MISS:       9873	AVERAGE STALL: 133.207
L2BTB BRANCH_RETURN	ACCESS:     827027  HIT:     786296  MISS:      40731	AVERAGE STALL: 48.7775
L2BTB BRANCH_OTHER ACCESS:          0  HIT:          0  MISS:          0	AVERAGE STALL: -nan
L2BTB TOTAL ROB OCCUPANCY AT BTB MISS: 125.966

L2C TOTAL     ACCESS:    4513665  HIT:    4037026  MISS:     476639  HIT %:    89.4401  MISS %:    10.5599   MPKI: 9.53278
L2C LOAD INSTRUCTION	ACCESS:    2773852  HIT:    2519817  MISS:     254035  HIT %:    90.8418  MISS %:     9.1582  MPKI: 5.0807
L2C LOAD TRANSLATION INSTRUCTION	ACCESS:        374  HIT:        113  MISS:        261  HIT %:    30.2139  MISS %:    69.7861  MPKI: 0.00522
L2C LOAD DATA	ACCESS:     734155  HIT:     661748  MISS:      72407  HIT %:    90.1374  MISS %:    9.86263  MPKI: 1.44814
L2C RFO DATA	ACCESS:     288930  HIT:     230251  MISS:      58679  HIT %:    79.6909  MISS %:    20.3091  MPKI: 1.17358
L2C PREFETCH DATA	ACCESS:     187347  HIT:     113411  MISS:      73936  HIT %:    60.5353  MISS %:    39.4647  MPKI: 1.47872
L2C WRITEBACK DATA	ACCESS:     526885  HIT:     511060  MISS:      15825  HIT %:    96.9965  MISS %:     3.0035  MPKI: 0.3165
L2C LOAD TRANSLATION DATA	ACCESS:       2052  HIT:        575  MISS:       1477  HIT %:    28.0214  MISS %:    71.9786  MPKI: 0.02954
L2C TRANSLATION FROM L1D PREFETCHER DATA	ACCESS:         70  HIT:         51  MISS:         19  HIT %:    72.8571  MISS %:    27.1429  MPKI: 0.00038

L2C PREFETCH  REQUESTED:      91152  ISSUED:      91152  USEFUL:       7438  USELESS:      66940
L2C USEFUL LOAD PREFETCHES:       7438 PREFETCH ISSUED TO LOWER LEVEL:      74311  ACCURACY: 10.0093
 TIMELY PREFETCHES:       7438 LATE PREFETCHES: 375 DROPPED PREFETCHES: 0
L2C AVERAGE MISS LATENCY: 39.7842 cycles
L2C RQ	ACCESS:    3799482	FORWARD:          0	MERGED:          0	TO_CACHE:    3799435
L2C WQ	ACCESS:     526885	FORWARD:         50	MERGED:          0	TO_CACHE:     526885
L2C PQ	ACCESS:     194528	FORWARD:          0	MERGED:       3235	TO_CACHE:     191290

L2C Dense regions hint from L2: 0
PSCL5 TOTAL     ACCESS:       4596  HIT:       2298  MISS:       2298  HIT %:         50  MISS %:         50   MPKI: 0.04596
PSCL5 LOAD TRANSLATION INSTRUCTION	ACCESS:       4458  HIT:       2229  MISS:       2229  HIT %:         50  MISS %:         50  MPKI: 0.04458
PSCL5 TRANSLATION FROM L1D PREFETCHER INSTRUCTION	ACCESS:        138  HIT:         69  MISS:         69  HIT %:         50  MISS %:         50  MPKI: 0.00138


PSCL4 TOTAL     ACCESS:       4446  HIT:       2216  MISS:       2230  HIT %:    49.8426  MISS %:    50.1574   MPKI: 0.0446
PSCL4 LOAD TRANSLATION INSTRUCTION	ACCESS:       3545  HIT:       2147  MISS:       1398  HIT %:    60.5642  MISS %:    39.4358  MPKI: 0.02796
PSCL4 TRANSLATION FROM L1D PREFETCHER INSTRUCTION	ACCESS:        120  HIT:         69  MISS:         51  HIT %:       57.5  MISS %:       42.5  MPKI: 0.00102
PSCL4 LOAD TRANSLATION DATA	ACCESS:        763  HIT:          0  MISS:        763  HIT %:          0  MISS %:        100  MPKI: 0.01526
PSCL4 TRANSLATION FROM L1D PREFETCHER DATA	ACCESS:         18  HIT:          0  MISS:         18  HIT %:          0  MISS %:        100  MPKI: 0.00036


PSCL3 TOTAL     ACCESS:       4514  HIT:       2250  MISS:       2264  HIT %:    49.8449  MISS %:    50.1551   MPKI: 0.04528
PSCL3 LOAD TRANSLATION INSTRUCTION	ACCESS:       3579  HIT:       2181  MISS:       1398  HIT %:    60.9388  MISS %:    39.0612  MPKI: 0.02796
PSCL3 TRANSLATION FROM L1D PREFETCHER INSTRUCTION	ACCESS:        120  HIT:         69  MISS:         51  HIT %:       57.5  MISS %:       42.5  MPKI: 0.00102
PSCL3 LOAD TRANSLATION DATA	ACCESS:        797  HIT:          0  MISS:        797  HIT %:          0  MISS %:        100  MPKI: 0.01594
PSCL3 TRANSLATION FROM L1D PREFETCHER DATA	ACCESS:         18  HIT:          0  MISS:         18  HIT %:          0  MISS %:        100  MPKI: 0.00036


PSCL2 TOTAL     ACCESS:       4420  HIT:       2122  MISS:       2298  HIT %:     48.009  MISS %:     51.991   MPKI: 0.04596
PSCL2 LOAD TRANSLATION INSTRUCTION	ACCESS:       2390  HIT:       2054  MISS:        336  HIT %:    85.9414  MISS %:    14.0586  MPKI: 0.00672
PSCL2 TRANSLATION FROM L1D PREFETCHER INSTRUCTION	ACCESS:         68  HIT:         68  MISS:          0  HIT %:        100  MISS %:          0  MPKI: 0
PSCL2 LOAD TRANSLATION DATA	ACCESS:       1894  HIT:          0  MISS:       1894  HIT %:          0  MISS %:        100  MPKI: 0.03788
PSCL2 TRANSLATION FROM L1D PREFETCHER DATA	ACCESS:         68  HIT:          0  MISS:         68  HIT %:          0  MISS %:        100  MPKI: 0.00136


LLC TOTAL     ACCESS:     538837  HIT:     506814  MISS:      32023  HIT %:     94.057  MISS %:    5.94298   MPKI: 0.64046
LLC LOAD INSTRUCTION	ACCESS:     254035  HIT:     252606  MISS:       1429  HIT %:    99.4375  MISS %:   0.562521  MPKI: 0.02858
LLC LOAD TRANSLATION INSTRUCTION	ACCESS:        261  HIT:        214  MISS:         47  HIT %:    81.9923  MISS %:    18.0077  MPKI: 0.00094
LLC LOAD DATA	ACCESS:      72056  HIT:      68119  MISS:       3937  HIT %:    94.5362  MISS %:    5.46381  MPKI: 0.07874
LLC RFO DATA	ACCESS:      58622  HIT:      43031  MISS:      15591  HIT %:    73.4042  MISS %:    26.5958  MPKI: 0.31182
LLC PREFETCH DATA	ACCESS:      74311  HIT:      63848  MISS:      10463  HIT %:      85.92  MISS %:      14.08  MPKI: 0.20926
LLC WRITEBACK DATA	ACCESS:      78056  HIT:      77634  MISS:        422  HIT %:    99.4594  MISS %:   0.540637  MPKI: 0.00844
LLC LOAD TRANSLATION DATA	ACCESS:       1477  HIT:       1343  MISS:        134  HIT %:    90.9276  MISS %:    9.07244  MPKI: 0.00268
LLC TRANSLATION FROM L1D PREFETCHER DATA	ACCESS:         19  HIT:         19  MISS:          0  HIT %:        100  MISS %:          0  MPKI: 0

LLC AVERAGE MISS LATENCY: 159.302 cycles
LLC RQ	ACCESS:     386503	FORWARD:          0	MERGED:          0	TO_CACHE:     386470
LLC WQ	ACCESS:      78056	FORWARD:         33	MERGED:          0	TO_CACHE:      78056
LLC PQ	ACCESS:      74311	FORWARD:          0	MERGED:          0	TO_CACHE:      74311

LLC Dense regions hint to LLC: 0

RAW hits: 1943896
Loads Generated: 12638764
Loads sent to L1D: 10694868
Stores Generated: 6954524
Stores sent to L1D: 6954528
Major fault: 0 Minor fault: 2672
Allocated PAGES: 2672

stream: 
stream:times selected: 1188188
stream:pref_filled: 122334
stream:pref_useful: 24885
stream:pref_late: 6759
stream:misses: 8052
stream:misses_by_poll: 0

CS: 
CS:times selected: 179080
CS:pref_filled: 59936
CS:pref_useful: 36606
CS:pref_late: 6885
CS:misses: 16091
CS:misses_by_poll: 4

CPLX: 
CPLX:times selected: 1007911
CPLX:pref_filled: 19369
CPLX:pref_useful: 4609
CPLX:pref_late: 2965
CPLX:misses: 93795
CPLX:misses_by_poll: 1

NL_L1: 
NL:times selected: 21660
NL:pref_filled: 636
NL:pref_useful: 262
NL:pref_late: 374
NL:misses: 1829
NL:misses_by_poll: 0

total selections: 2396839
total_filled: 95260
total_useful: 35205
total_late: 18394
total_polluted: 5
total_misses_after_warmup: 777634
conflicts: 5523582

test: 115983

DRAM Statistics
 CHANNEL 0
 RQ ROW_BUFFER_HIT:      11453  ROW_BUFFER_MISS:      20134
 DBUS_CONGESTED:          8
 WQ ROW_BUFFER_HIT:       1741  ROW_BUFFER_MISS:      13647  FULL:          0

 AVG_CONGESTED_CYCLE: 5

CPU 0 Branch Prediction Accuracy: 99.7901% MPKI: 0.3838 Average ROB Occupancy at Mispredict: 171.795
Branch types
NOT_BRANCH: 40858638 81.7173%
BRANCH_DIRECT_JUMP: 546743 1.09349%
BRANCH_INDIRECT: 182459 0.364918%
BRANCH_CONDITIONAL: 6176392 12.3528%
BRANCH_DIRECT_CALL: 946771 1.89354%
BRANCH_INDIRECT_CALL: 171107 0.342214%
BRANCH_RETURN: 1117882 2.23576%
BRANCH_OTHER: 0 0%

DRAM PAGES: 1048576
Allocated PAGES: 2672
Average_ROB_Occupancy: 240.737
Average_Decode_Occupancy: 34.5981
Average_FTQ_Occupancy: 13.2251
Indirect max targets: 14 Average targets: 1.18266
Branch_type:  BRANCH_DIRECT_JUMP:  Count Percentage: 2.117 7.16123 4.13221 8.54386 9.65518 4.36117 0.90289 63.1265 
Branch_type:  BRANCH_INDIRECT:  Count Percentage: 11.7457 3.43481 2.55791 0 16.6757 9.68397 2.27217 53.6298 
Branch_type:  BRANCH_CONDITIONAL:  Count Percentage: 25.2881 2.75396 1.70479 5.25749 4.90105 4.53203 0.510389 55.0522 
Branch_type:  BRANCH_DIRECT_CALL:  Count Percentage: 0.774726 1.29441 1.37467 3.9975 4.18531 0.988976 0.938116 86.4463 
Branch_type:  BRANCH_INDIRECT_CALL:  Count Percentage: 9.56615 0 2.99692 8.72297 2.42915 0.00292668 1.28862 74.9933 
Branch_type:  BRANCH_RETURN:  Count Percentage: 8.40549 1.09493 1.32088 5.8674 6.58122 5.20846 1.47697 70.0447 
Branch_type:  BRANCH_DIRECT_JUMP:  Total Count: 23189 78442 45263 93587 105760 47771 9890 691469 
Branch_type:  BRANCH_INDIRECT:  Total Count: 42916 12550 9346 0 60929 35383 8302 195951 
Branch_type:  BRANCH_CONDITIONAL:  Total Count: 3125748 340405 210722 649855 605798 560185 63087 6804765 
Branch_type:  BRANCH_DIRECT_CALL:  Total Count: 14623 24432 25947 75453 78998 18667 17707 1631680 
Branch_type:  BRANCH_INDIRECT_CALL:  Total Count: 32686 0 10240 29805 8300 10 4403 256240 
Branch_type:  BRANCH_RETURN:  Total Count: 187451 24418 29457 130849 146768 116154 32938 1562068 
Number of unique branch instructions: 11118
Upper 32 bits: 
aaaa
ffff
ffff0000
Unique upper 32 bits: 3
Unique upper 36 bits: 3
Unique upper 40 bits: 5
Unique upper 44 bits: 32
Unique upper 48 bits: 160
Offset_3 4608
Offset_4 284
Offset_5 501
Offset_6 557
Offset_7 661
Offset_8 615
Offset_9 547
Offset_10 433
Offset_11 357
Offset_12 336
Offset_13 248
Offset_14 252
Offset_15 203
Offset_16 234
Offset_17 178
Offset_18 152
Offset_19 270
Offset_20 148
Offset_21 262
Offset_22 412
Offset_23 245
Offset_24 373
Offset_25 117
Offset_47 100
Offset_64 21
decode_dispatch_called: 25831803 70.8781
Dispatch_width: 0 13863700 53.6691 38.0397
Dispatch_width: 1 990443 3.8342 2.71761
Dispatch_width: 2 846000 3.27503 2.32128
Dispatch_width: 3 504493 1.95299 1.38424
Dispatch_width: 4 5905205 22.8602 16.2029
Dispatch_width: 5 148513 0.574923 0.407495
Dispatch_width: 6 3573449 13.8335 9.80494
Empty_decode_cycles: 10613576 29.1219
ROB_full_cycles: 9352586 25.6619
Starvation_cycles_per_kilo_instr: 235.193
Starvation_cycles_per_kilo_instr_3: 174.656
Starvation_cycles_per_kilo_instr_0: 151.247
Branch_type_1  (3,1)  (4,10)  (5,41)  (6,75)  (7,129)  (8,159)  (9,144)  (10,113)  (11,79)  (12,55)  (13,11)  (14,2)  (15,3)  (16,4)  (18,1)  (19,5)  (20,2)  (21,1)  (22,3)  (23,2)  (24,10)  (25,12)  (64,2) 
Branch_type_2  (3,1)  (4,1)  (5,1)  (8,4)  (9,4)  (10,1)  (12,1)  (13,1)  (14,1)  (16,3)  (17,2)  (20,2)  (21,2)  (23,5)  (24,1)  (47,46) 
Branch_type_3  (3,4606)  (4,273)  (5,455)  (6,464)  (7,498)  (8,381)  (9,302)  (10,175)  (11,138)  (12,62)  (13,10)  (24,3)  (64,15) 
Branch_type_4  (6,4)  (7,8)  (8,30)  (9,58)  (10,68)  (11,73)  (12,121)  (13,106)  (14,113)  (15,97)  (16,103)  (17,84)  (18,65)  (19,130)  (20,74)  (21,141)  (22,218)  (23,138)  (24,216)  (25,101)  (64,2) 
Branch_type_5  (8,3)  (9,1)  (10,4)  (11,5)  (12,3)  (13,14)  (14,16)  (15,11)  (16,22)  (17,11)  (18,23)  (19,15)  (20,12)  (21,13)  (22,43)  (23,26)  (24,42)  (64,1) 
Branch_type_6  (5,4)  (6,14)  (7,26)  (8,38)  (9,38)  (10,72)  (11,62)  (12,94)  (13,106)  (14,120)  (15,92)  (16,102)  (17,81)  (18,63)  (19,120)  (20,58)  (21,105)  (22,148)  (23,74)  (24,101)  (25,4)  (47,54)  (64,1) 
Unique trigger count: 
BTB PER SET UNIQUE ADDR: 4 2 4 6 3 2 3 3 2 4 5 5 4 5 4 5 3 3 1 4 2 4 4 6 4 3 3 3 3 4 3 2 3 4 4 3 3 3 4 3 3 5 4 4 4 2 8 6 7 2 6 7 3 3 2 3 4 4 4 7 6 4 3 7 6 2 3 4 6 2 4 5 4 5 4 5 4 2 5 5 4 4 4 4 5 3 4 3 4 3 3 5 6 4 4 1 6 4 4 5 4 3 3 4 4 4 6 3 4 3 3 3 4 3 4 2 5 4 3 3 4 7 4 3 3 3 5 4 5 4 4 3 3 2 5 4 4 2 2 4 4 5 4 4 4 5 3 5 5 6 5 3 4 4 4 5 5 3 5 4 3 2 2 3 3 3 3 5 6 6 4 4 6 4 4 6 3 4 4 3 5 5 4 3 5 3 4 4 5 4 5 4 4 5 2 3 6 3 3 3 3 5 4 5 3 4 3 4 3 4 3 3 4 4 4 4 5 4 4 6 4 3 3 6 3 5 3 1 6 5 2 6 5 4 3 5 3 5 4 5 4 6 4 3 5 4 4 3 4 4 4 5 5 5 5 5 5 4 4 3 5 5 3 4 3 4 4 5 2 3 4 3 5 4 5 5 5 3 4 4 3 4 4 8 6 4 3 5 5 4 5 3 3 3 4 4 5 3 4 3 7 3 3 4 4 4 4 5 4 4 4 3 5 2 3 3 5 4 3 3 4 4 3 4 5 7 4 5 5 4 2 4 3 4 3 5 5 4 5 4 4 5 5 3 5 4 2 7 5 4 3 3 4 3 3 5 4 3 4 4 3 4 3 5 3 5 5 5 3 3 5 4 3 6 5 6 4 6 4 4 3 4 3 5 5 5 4 3 3 4 3 2 4 4 3 5 4 4 5 4 4 3 3 4 3 6 3 5 5 5 4 5 2 4 4 4 4 2 5 2 2 4 4 5 3 3 4 5 1 3 6 4 6 4 5 3 2 3 3 5 3 4 1 4 3 1 5 2 4 5 3 3 4 5 3 4 3 4 5 3 3 4 3 4 4 4 3 4 3 6 6 3 4 5 4 7 4 4 6 2 5 3 3 3 2 4 4 5 4 4 5 5 4 3 4 6 5 4 4 5 4 3 4 5 4 4 3 6 3 6 3 3 4 4 2 4 5 3 3 5 5 3 2 3 5 5 1 6 4 6 2 4 4 4 3 3 5 3 5 3 4 5 5 5 4 3 3 6 3 3 4 6 4 4 3 3 5 3 5 2 4 3 3 4 4 3 4 4 3 3 3 4 2 4 3 4 4 4 4 4 3 3 3 5 5 5 4 6 4 4 4 3 4 3 4 4 4 3 4 2 4 4 3 3 4 3 4 5 4 3 4 5 5 3 4 4 4 3 4 7 4 3 6 3 5 5 1 7 2 5 3 6 4 3 5 3 5 5 5 5 4 5 2 3 3 6 3 3 3 4 3 4 2 3 4 4 4 4 4 3 2 3 3 5 4 3 3 4 3 4 3 4 3 4 3 3 4 4 4 4 4 3 3 6 3 5 2 3 4 3 4 4 5 5 2 4 4 4 3 5 3 4 5 3 4 5 4 2 6 4 4 5 4 5 6 4 4 3 4 5 6 4 4 5 4 4 4 6 3 5 4 5 6 5 3 5 7 3 2 5 5 4 4 5 5 4 6 3 3 4 4 5 4 4 4 5 2 3 2 4 5 4 3 5 3 4 4 4 4 4 6 3 3 4 4 5 5 5 2 5 5 4 3 7 5 4 4 5 5 5 5 6 4 5 9 4 3 4 4 3 4 4 4 3 5 4 3 3 5 7 3 4 4 4 5 3 5 5 3 5 4 3 5 5 4 4 4 4 6 4 5 5 4 5 4 4 5 8 4 3 5 4 4 4 6 4 4 4 5 4 3 4 4 5 4 4 2 2 3 3 3 7 4 4 7 3 3 3 4 3 4 3 4 3 3 5 3 3 4 4 6 4 3 3 3 5 5 5 3 2 4 5 2 2 2 4 3 4 4 4 3 4 3 5 4 3 6 3 4 4 4 4 4 4 4 5 4 4 3 4 3 4 4 3 3 5 5 4 4 6 3 4 6 4 4 4 5 3 3 3 4 3 3 5 4 3 4 4 4 4 3 4 3 4 4 5 3 3 4 5 4 5 4 3 4 5 4 5 4 4 4 5 3 4 4 4 4 2 5 4 4 3 3 6 3 4 5 4 5 5 5 5 5 4 5 4 3 3 3 5 4 3 2 4 3 4 4 4 5 3 4 3 4 5 4 4 4 5 4 3 6 3 3 4 4 5 3 5 4 4 3 7 4 5 5 4 4 4 4 4 4 5 5 5 5 3 3 3 3 3 4 5 3 5 5 3 4 3 4 4 7 4 6 2 4 3 6 5 3 4 6 3 4 4 4 3 5 3 3 2 4 3 5 3 3 2 4 4 3 4 4 5 3 4 4 3 4 4 3 4 5 4 5 4 4 4 3 4 3 5 3 3 3 2 3 3 6 5 7 4 2 5 3 2 4 4 5 8 3 2 5 4 3 4 2 4 6 4 4 4 7 5 4 3 4 3 3 4 5 5 3 5 3 4 4 4 4 6 5 6 3 4 3 4 2 5 3 4 5 3 4 5 3 5 4 2 6 6 3 6 3 4 5 4 5 3 5 3 5 4 6 4 4 2 3 4 4 5 5 4 4 4 1 5 5 2 4 4 4 4 3 4 5 5 4 4 4 3 4 6 5 2 4 5 3 4 4 3 5 3 3 3 3 4 5 4 4 4 4 5 3 5 5 3 2 3 5 6 2 6 5 7 4 4 5 3 4 4 3 4 4 5 3 5 3 4 4 4 6 5 4 3 2 3 5 6 3 5 4 5 3 3 6 4 7 3 6 4 5 4 4 4 4 4 4 5 6 4 5 6 4 4 4 4 4 4 3 5 3 6 5 4 4 3 3 6 4 4 4 5 3 5 4 4 7 2 3 3 4 4 3 4 4 4 3 4 4 4 4 4 5 3 5 4 7 4 4 3 6 5 3 3 4 5 6 4 5 2 5 3 3 4 5 7 3 5 5 5 5 5 4 4 1 5 4 6 4 5 5 3 4 3 4 4 3 6 3 5 4 4 4 5 3 3 2 5 5 5 4 4 7 3 6 2 4 4 6 6 2 4 4 4 5 4 5 6 4 4 2 5 2 3 3 4 5 6 5 4 4 4 4 4 2 2 3 6 5 4 3 6 5 3 3 2 4 4 5 5 3 4 4 4 3 4 3 4 4 3 5 4 4 3 5 6 4 5 5 5 4 6 5 2 3 3 3 3 4 3 6 5 4 7 3 4 4 3 6 4 4 4 3 5 4 4 6 4 4 5 3 5 5 4 3 4 3 4 3 4 3 4 4 4 6 4 3 5 4 7 4 4 3 2 4 6 4 3 3 5 5 4 3 3 4 3 3 3 5 3 4 4 4 4 4 5 5 3 5 4 2 3 5 7 4 4 4 3 4 3 4 3 5 5 3 4 3 3 3 3 6 4 4 4 5 4 4 3 4 3 3 4 3 3 4 3 2 5 4 3 2 3 4 3 5 4 4 4 3 4 3 6 4 4 3 5 4 3 3 5 3 3 6 5 6 5 4 3 4 3 5 5 3 4 6 3 3 6 4 4 2 5 5 4 4 4 3 5 5 3 5 4 3 4 4 4 5 4 6 5 4 6 5 3 4 3 3 3 5 4 5 4 5 2 5 4 4 7 2 5 4 2 5 3 3 4 4 4 2 4 5 4 4 3 6 2 3 4 4 7 4 5 2 3 5 5 3 4 5 4 5 4 2 4 4 3 2 4 5 4 5 4 3 3 3 3 4 5 3 3 5 6 3 3 4 2 3 5 5 5 4 2 4 3 5 4 6 3 4 4 3 4 5 4 5 6 3 4 4 3 4 7 5 2 3 3 4 4 3 3 4 4 6 7 5 3 3 4 3 4 2 3 5 3 4 3 2 3 4 5 3 4 3 5 4 5 3 4 5 4 3 4 2 5 2 3 4 4 3 3 5 5 3 3 4 3 2 3 4 4 5 4 3 6 5 3 6 4 6 4 3 3 5 4 7 3 5 3 2 5 3 2 4 3 5 2 4 3 4 4 3 3 4 3 4 4 4 3 6 1 3 4 3 3 5 5 3 4 4 5 4 3 3 4 5 3 3 4 4 5 5 2 3 4 4 4 4 3 5 4 4 6 4 5 3 4 3 5 4 5 4 4 3 4 4 6 6 6 4 5 4 4 4 4 5 4 4 3 4 1 3 4 5 3 4 4 3 5 6 4 3 5 6 5 3 3 3 4 2 4 4 4 3 3 5 4 4 6 5 5 3 4 6 4 4 4 7 3 5 1 3 3 3 4 4 3 6 5 4 4 4 4 4 3 4 5 4 7 5 6 3 2 2 4 4 4 5 4 6 4 1 3 4 4 5 5 5 3 5 3 3 5 5 6 5 6 4 4 5 4 3 5 4 4 4 5 4 5 5 3 4 5 2 5 5 5 4 3 3 2 3 7 5 5 5 4 8 4 4 5 5 3 3 3 4 4 3 4 4 6 5 4 4 3 4 4 2 4 4 3 
BTB PER SET COUNT: 4 1555 1466 6 5 2 4 4 2 603 5 6 4 988 4 7 3 4 1 4 2 4 4 7 498 3 3 3 3 8 7 3 3 975 498 3 3 4 4 3 4 990 4 5 5 593 11 6 7 4 8 9 3 3 2 4 594 988 7 9 976 4 3 8 6 2 3 4 6 2 6 9 4 5 6 170 5 3 977 5 47 5 7 5 8 7 4 3 501 3 3 13 10 4 48 1 6 4 5 6 5 3 5 4 4 4 7 6 4 3 3 3 5 3 7 2 5 4 3 2062 8 12 1542 4 10 4 7 16 463 5 5 3 5 3 5 5 6 2 2 13 5 7 4 4 4 5 3 5 6 15 6 594 5 4 5 974 5 4 5 4 3 3 2 3 3 3 3 7 10 7 4 5 7 5 4 6 3 14 4 4 6 5 4 3 5 3 6 4 5 5 12 4 7 5 2 487 11 4 1564 4 6 1181 8 6 4 5 3 4 36 17 6 8 32 5 6 4 5 499 5 6 4 4 3 6 3 6 3 1 691 5 99 6 5 44 4 6 7 10 4 6 5 8 4 4 21 4 5 76 4 4 4 7 5 7 6 10 1467 6 7 3 5 5 3 4 12 4 19 6 2 4 4 4 7 4 6 6 977 3 7 4 4 4 4 14 11 4 3 5 5 4 6 6 3 3 603 7 7 3 7 3 9 8 1470 4 113 5 5 6 4 9 7 9 5 2 4 3 8 4 3 3 4 4 4 4 6 17 20 7 9 4 2 6 5 5 5 5 5 4 10 7 5 5 5 3 5 21 2 9 5 4 3 15 4 3 3 485 4 3 18 13 3 106 4 7 3 2434 7 5 5 3 6 4 3 6 6 30 4 7 4 5 6 234 4 7 5 6 5 5 3 4 4 2 6 4 3 6 1454 6 5 6 4 209 3 4 5 10 16 29 7 5 7 6 2 4 4 4 6 2 6 2 3 4 6 5 3 215 4 10 1 3 8 8 6 4 5 3 4 5 5 5 3 4 1 4 369 1 1471 27 4 8 3 47 4 5 10 4 3 4 989 3 988 4 930 4 8 4 4 9 3 7 6 6 6 6 1069 13 4 5 6 2 7 3 3 3 2 8 6 7 4 4 6 5 6 4 4 975 6 7 6 6 4 3 4 5 4 5 3 7 7 6 3 4 4 10 2 9 6 602 3 5 8 3 3 4 282 7 1 8 4 6 4 5 14 9 3 3 7 3 8 3 46 8 9 9 6 1564 3 9 3 5 10 18 989 4 3 3 6 3 5 4 988 7838 4 6 5 3 899 8 987 4 3 5 2 6 4 5 5 12 20 6 8 5 4 5 5 7 6 7 4 5 4 3 4 987 7 4 4 4 7 2 5 4 988 3 6 3 893 5 4 3 4 5 101 3 5 4 4 4 4 14 4 3 362 7 5 5 1 9 2 5 892 9 5 4 8 3 7 5 7 5 4 5 986 4 4 7 3 5 3 495 3 4 2 4 7 4 6 4 4 3 2 3 4 5 4 3 3 4 3 4 3 4 3 5 3 4 4 5 4 5 4 3 4 7 3 6 2 3 4 3 4 4 6 6 2 4 4 5 4 5 4 5 5 3 6 6 6 3 8 4 5 8 5 6 6 989 9 3 6 14 6 4 12 5 4 4 4 11 3 12 4 6 11 8 4 5 7 3 2 104 5 4 4 5 6 4 6 5 3 4 4 5 6 5 4 8 3 4 2 4 7 14 3 18 3 5 5 3428 4 7 7 3 5 4 6 5 5 6 2 7 6 4 5 57 6 4 4 5 138 5 6 7 4 5 10 973 8 5 4 3 4 601 5 4 7 5 4 3 8 9 3 8 5 4 10 3 5 7 4 6 4 3 7 6 5 4 47 5 9 506 5 6 4 5 5 4 7 12 4 3 6 4 5 4 8 4 4 4 8 975 3 972 5 10 1972 5 2 2 3 4 9 8 4 4 7 5 3 4 4 3 4 3 4 3 3 7 3 3 38 4 7 4 5 3 4 7 5 5 3 2 1466 5 2 2930 2 5 483 6 4 9 3 33 3 920 4 3 13 4 5 6 6 4 5 4 4 571 4 4 5 4 497 886 4 46 5 6 135 5 4 8 47 13 977 4 4 11 7 3 3 3 4 1466 4 6 4 4 4 507 6 4 4 10 4 6 1500 5 3 5 7 6 5 5 4 8 4 8 498 7 4 7 4 5 4 7 6 4 4 4 22 4 4 4 4 6 3 6 7 970 5 6 7 6 5 6 5 4 6 3 4 75 4 4 2 5 3 5 5 4 1469 3 4 5 7 5 4 5 5 5 5 3 6 24 5 12 4 6 3 510 5 7 97 7 5 5 9 4 5 4 5 4 4 5 35 7 7 3 3 10 3 3 5 5 3 6 6 3 7 3 1466 46 9 4 8 2 4 5 7 6 3 8 6 3 4 4 6 3 7 4 4 3 4 4 5 3 5 2 11 4 5 4 4 6 3 6 4 3 17 4 3 4 28 7 6 6 485 5 32 5 3 7 3 5 3 2 3 5 7 5 10 5 2 6 14 2 4 4 6 9 4 2 5 4 3 5 2 4 6 5 6 4 9 19428 4 3 601 25 3 4 5 6 3 5 3 5 5 4 5 6 6 6 4 4 3 5 2 8 4 5 5 5 496 9 3 9 5 3 6 6 5 7 12 7 5 5 232 3 5 3 5 8 7 4 4 2 1976 6 4 5 6 10 8 6 1 8 5 2 6 4 5 484 3 4 5 1467 5 4 5 3 7 6 5 2 7 5 3 4 6 3 6 3 3 3 3 5 5 4 1337 5 4 6 3 8 5 3 2 3 1470 7 3 15 5 9 11 4 7 3 4 5 3 8 6 29 3 5 3 5 5 5 6 9 4 3 2 4 5 7 4 6 5 7 6 3 6 5 7 3 7 5 5 4 4 4 6 5 4 10 7 4 8 8 8 4 4 4 90 4 3 5 3 7 189 4 4 6 3 12 8 10 4 5 8 7 5 4 16 2 3 1564 117 1466 3 5 5 5 3 4 1467 10 4 494 6 3 8 4 10 6 12 3 7 12 3 3 4 486 981 4 13 2 5 3 3 5 8 9 3 5 6 7 7 5 4 6 1 5 6 7 5 5 6 4 10 3 4 4 3 6 3 7 4 4 9 7 4 6 2 6 5 5 4 4 7 4 8 2 5 5 7 7 2 4 4 4 7 4 5 6 8 4 2 91 2 3 4 4 6 9 9 12 5 1815 54 5 5 1939 4 242 6 4 4 9 6 49 4 2 4 6 7 6 3 4 5 7 5 4 3 4 4 3 5 5 5 6 9 8 9 6 5 5 91 6 6 3 3 3 3 3 4 3 13 9 4 7 4 4 4 3 232 8 4 6 3 5 4 4 9 5 4 6 3 6 5 971 8 5 3 975 3 4 3 7 16 6 7 4 3 13 9 17 5 11 3 10 6 6 5 3 4 7 972 5 3 24 4 4 3 4 5 3 10 5 4 4 7 5 7 3 6 5 2 4 6 7 5 4 4 3 7 4 5 3 8 5 91 4 3 3 3220 499 7 6 4 4 5 6 4 6 5 3 3 1466 3 5 42 4 2 7 4 6 2 6 6 3 6 6 6 8 3 4 3 6 4 4 3 213 7 3 3 7 3 3 7 5 10 5 4 4 5 4 892 6 4 4 9 3 3 6 4 4 3 5 6 4 4 6 45 5 6 3 5 4 3 4 4 4 5 7 16 6 21 6 9 6 5 3 5 3 5 4 5 8 7 3 5 4 6 8 2 6 5 3 5 5 3 4 4 5 2 4 5 4 4 4 6 4 3 5 4 8 153 5 2 3 5 5 47 5 8 6 7 4 2 5 6 3 2 988 121 4 26 4 3 4 3 4 5 5 3 3 5 26 3 3 5 3 8 5 31 9 4 2 4 3 6 5 22 3 4 6 3 5 7 6 5 6 4 4 149 3 4 8 6 2 4 4 4 4 3 4 4 7 7 12 1103 3 3 7 4 4 4 5 11 3 4 3 2 3 6 6 5 498 5 7 4 6 3 4 153 4 3 5 2 5 2 3 5 4 4 5 8 5 3 4 972 3 2 4 4 6 7 5 4 6 9 5 7 4 7 8 4 4 7 5 9 974 8 4 2 6 3 2 495 6 5 2 6 3 4 4 3 137 196 3 5 36 4 1465 6 1 3 6 3 3 8 6 5 6 4 5 1467 3 3 4 5 3 3 5 4 6 15 11 3 4 6 4 4 3 5 976 11 6 5 13 3 4 179 5 4 12 4 8 3 8 4 7 10 6 6 6 1466 5 14593 4 6 4 5 3 6 1 3 4 8 3 7 4 3 5 6 4 4 5 6 6 3 3 4 6 3 4 4 5 4 3 5 4 5 6 14 5 4 6 6 4 4 1915 7 4 5 1 3 3 5 5 4 20 6 6 4 4 5 5 480 3 4 5 5 10 6 991 4 2 2 4 7 4 7 5 7 5 1 3 4 5 6 5 6 6 8 4 3 5 126 7 9 6 4 4 6 598 3 6 4 4 6 8 4 6 1273 3 6 8 2 5 5 5 4 5 6 2 3 1469 6 6 5 4 9 885 4 6 5 4 3 4 9 4 3 5 109 6 9 4 4 3 4 4 2 4 9 775 
