
*** ChampSim Multicore Out-of-Order Simulator ***

Warmup Instructions: 50000000
Simulation Instructions: 50000000
Number of CPUs: 1
LLC sets: 2048
LLC ways: 16
Off-chip DRAM Size: 4096 MB Channels: 1 Width: 64-bit Data Rate: 6400 MT/s
CPU 0 runs ./micro_traces/srv122.trace.gz
.gz
ITLB has LRU replacement policy
DTLB has LRU replacement policy
STLB has LRU replacement policy
FDIP Prefetcher at L1I
L1I has LRU replacement policy
L1D has LRU replacement policy
Initialize SRRIP state for L2C
Initialize DRRIP state for LLC
Heartbeat_Variant_0 : 1296 0.316406 per_variant_size: 0 1296 0 0 0 0 0 0 0 
Heartbeat_Variant_1 : 2332 0.569336 per_variant_size: 0 334 1998 0 0 0 0 0 0 
Heartbeat_Variant_2 : 0 0 per_variant_size: 0 0 0 0 0 0 0 0 0 
Heartbeat_Variant_3 : 0 0 per_variant_size: 0 0 0 0 0 0 0 0 0 
Heartbeat_Variant_0_evicts 0 : 5601 1 : 19 2 : 0 3 : 0 
Heartbeat_Variant_1_evicts 0 : 13 1 : 0 2 : 0 3 : 0 
Heartbeat_Variant_2_evicts 0 : 0 1 : 0 2 : 0 3 : 0 
Heartbeat_Variant_3_evicts 0 : 0 1 : 0 2 : 0 3 : 0 
Heartbeat CPU 0 instructions: 10000002 cycles: 2796592 heartbeat IPC: 3.57578 cumulative IPC: 3.57578 (Simulation time: 0 hr 1 min 40 sec) 
Heartbeat_Variant_0 : 1369 0.334229 per_variant_size: 0 1369 0 0 0 0 0 0 0 
Heartbeat_Variant_1 : 2492 0.608398 per_variant_size: 0 281 2211 0 0 0 0 0 0 
Heartbeat_Variant_2 : 0 0 per_variant_size: 0 0 0 0 0 0 0 0 0 
Heartbeat_Variant_3 : 0 0 per_variant_size: 0 0 0 0 0 0 0 0 0 
Heartbeat_Variant_0_evicts 0 : 5559 1 : 49 2 : 0 3 : 0 
Heartbeat_Variant_1_evicts 0 : 35 1 : 0 2 : 0 3 : 0 
Heartbeat_Variant_2_evicts 0 : 0 1 : 0 2 : 0 3 : 0 
Heartbeat_Variant_3_evicts 0 : 0 1 : 0 2 : 0 3 : 0 
Heartbeat CPU 0 instructions: 20000003 cycles: 5590678 heartbeat IPC: 3.57899 cumulative IPC: 3.57738 (Simulation time: 0 hr 3 min 19 sec) 
Heartbeat_Variant_0 : 1369 0.334229 per_variant_size: 0 1369 0 0 0 0 0 0 0 
Heartbeat_Variant_1 : 2497 0.609619 per_variant_size: 0 292 2205 0 0 0 0 0 0 
Heartbeat_Variant_2 : 0 0 per_variant_size: 0 0 0 0 0 0 0 0 0 
Heartbeat_Variant_3 : 0 0 per_variant_size: 0 0 0 0 0 0 0 0 0 
Heartbeat_Variant_0_evicts 0 : 5407 1 : 0 2 : 0 3 : 0 
Heartbeat_Variant_1_evicts 0 : 0 1 : 0 2 : 0 3 : 0 
Heartbeat_Variant_2_evicts 0 : 0 1 : 0 2 : 0 3 : 0 
Heartbeat_Variant_3_evicts 0 : 0 1 : 0 2 : 0 3 : 0 
Heartbeat CPU 0 instructions: 30000001 cycles: 8385901 heartbeat IPC: 3.57753 cumulative IPC: 3.57743 (Simulation time: 0 hr 4 min 59 sec) 
Heartbeat_Variant_0 : 1368 0.333984 per_variant_size: 0 1368 0 0 0 0 0 0 0 
Heartbeat_Variant_1 : 2501 0.610596 per_variant_size: 0 283 2218 0 0 0 0 0 0 
Heartbeat_Variant_2 : 0 0 per_variant_size: 0 0 0 0 0 0 0 0 0 
Heartbeat_Variant_3 : 0 0 per_variant_size: 0 0 0 0 0 0 0 0 0 
Heartbeat_Variant_0_evicts 0 : 5568 1 : 0 2 : 0 3 : 0 
Heartbeat_Variant_1_evicts 0 : 1 1 : 0 2 : 0 3 : 0 
Heartbeat_Variant_2_evicts 0 : 0 1 : 0 2 : 0 3 : 0 
Heartbeat_Variant_3_evicts 0 : 0 1 : 0 2 : 0 3 : 0 
Heartbeat CPU 0 instructions: 40000003 cycles: 11182445 heartbeat IPC: 3.57584 cumulative IPC: 3.57704 (Simulation time: 0 hr 6 min 40 sec) 
Heartbeat_Variant_0 : 1378 0.336426 per_variant_size: 0 1378 0 0 0 0 0 0 0 
Heartbeat_Variant_1 : 2521 0.615479 per_variant_size: 0 280 2241 0 0 0 0 0 0 
Heartbeat_Variant_2 : 0 0 per_variant_size: 0 0 0 0 0 0 0 0 0 
Heartbeat_Variant_3 : 0 0 per_variant_size: 0 0 0 0 0 0 0 0 0 
Heartbeat_Variant_0_evicts 0 : 5520 1 : 15 2 : 0 3 : 0 
Heartbeat_Variant_1_evicts 0 : 10 1 : 0 2 : 0 3 : 0 
Heartbeat_Variant_2_evicts 0 : 0 1 : 0 2 : 0 3 : 0 
Heartbeat_Variant_3_evicts 0 : 0 1 : 0 2 : 0 3 : 0 
Heartbeat CPU 0 instructions: 50000002 cycles: 13978128 heartbeat IPC: 3.57694 cumulative IPC: 3.57702 (Simulation time: 0 hr 8 min 21 sec) 

Warmup complete CPU 0 instructions: 50000002 cycles: 13978128 (Simulation time: 0 hr 8 min 21 sec) 

Cycle: 20000000 FTQ IN: 58464511 FTQ occupancy: 20.5398 DECODE IN: 58464385 DECODE occupancy: 53.5018 ROB IN: 58464325 ROB occupancy: 318.625 ROB OUT: 58464107
Heartbeat_Variant_0 : 1378 0.336426 per_variant_size: 0 1378 0 0 0 0 0 0 0 
Heartbeat_Variant_1 : 2521 0.615479 per_variant_size: 0 290 2231 0 0 0 0 0 0 
Heartbeat_Variant_2 : 0 0 per_variant_size: 0 0 0 0 0 0 0 0 0 
Heartbeat_Variant_3 : 0 0 per_variant_size: 0 0 0 0 0 0 0 0 0 
Heartbeat_Variant_0_evicts 0 : 5586 1 : 0 2 : 0 3 : 0 
Heartbeat_Variant_1_evicts 0 : 0 1 : 0 2 : 0 3 : 0 
Heartbeat_Variant_2_evicts 0 : 0 1 : 0 2 : 0 3 : 0 
Heartbeat_Variant_3_evicts 0 : 0 1 : 0 2 : 0 3 : 0 
Heartbeat CPU 0 instructions: 60000000 cycles: 21094880 heartbeat IPC: 1.40514 cumulative IPC: 1.40514 (Simulation time: 0 hr 10 min 21 sec) 
Heartbeat_Variant_0 : 1393 0.340088 per_variant_size: 0 1393 0 0 0 0 0 0 0 
Heartbeat_Variant_1 : 2531 0.61792 per_variant_size: 0 282 2249 0 0 0 0 0 0 
Heartbeat_Variant_2 : 0 0 per_variant_size: 0 0 0 0 0 0 0 0 0 
Heartbeat_Variant_3 : 0 0 per_variant_size: 0 0 0 0 0 0 0 0 0 
Heartbeat_Variant_0_evicts 0 : 5562 1 : 21 2 : 0 3 : 0 
Heartbeat_Variant_1_evicts 0 : 14 1 : 0 2 : 0 3 : 0 
Heartbeat_Variant_2_evicts 0 : 0 1 : 0 2 : 0 3 : 0 
Heartbeat_Variant_3_evicts 0 : 0 1 : 0 2 : 0 3 : 0 
Heartbeat CPU 0 instructions: 70000002 cycles: 28336621 heartbeat IPC: 1.38088 cumulative IPC: 1.3929 (Simulation time: 0 hr 12 min 18 sec) 
Cycle: 30000000 FTQ IN: 13870045 FTQ occupancy: 14.9757 DECODE IN: 13870171 DECODE occupancy: 38.3097 ROB IN: 13870231 ROB occupancy: 248.55 ROB OUT: 13870287
Heartbeat_Variant_0 : 1393 0.340088 per_variant_size: 0 1393 0 0 0 0 0 0 0 
Heartbeat_Variant_1 : 2532 0.618164 per_variant_size: 0 283 2249 0 0 0 0 0 0 
Heartbeat_Variant_2 : 0 0 per_variant_size: 0 0 0 0 0 0 0 0 0 
Heartbeat_Variant_3 : 0 0 per_variant_size: 0 0 0 0 0 0 0 0 0 
Heartbeat_Variant_0_evicts 0 : 5500 1 : 0 2 : 0 3 : 0 
Heartbeat_Variant_1_evicts 0 : 1 1 : 0 2 : 0 3 : 0 
Heartbeat_Variant_2_evicts 0 : 0 1 : 0 2 : 0 3 : 0 
Heartbeat_Variant_3_evicts 0 : 0 1 : 0 2 : 0 3 : 0 
Heartbeat CPU 0 instructions: 80000001 cycles: 35458239 heartbeat IPC: 1.40418 cumulative IPC: 1.39664 (Simulation time: 0 hr 14 min 16 sec) 
Cycle: 40000000 FTQ IN: 13928004 FTQ occupancy: 15.0478 DECODE IN: 13927998 DECODE occupancy: 38.7414 ROB IN: 13927998 ROB occupancy: 252.931 ROB OUT: 13927836
Heartbeat_Variant_0 : 1393 0.340088 per_variant_size: 0 1393 0 0 0 0 0 0 0 
Heartbeat_Variant_1 : 2535 0.618896 per_variant_size: 0 290 2245 0 0 0 0 0 0 
Heartbeat_Variant_2 : 0 0 per_variant_size: 0 0 0 0 0 0 0 0 0 
Heartbeat_Variant_3 : 0 0 per_variant_size: 0 0 0 0 0 0 0 0 0 
Heartbeat_Variant_0_evicts 0 : 5406 1 : 1 2 : 0 3 : 0 
Heartbeat_Variant_1_evicts 0 : 4 1 : 0 2 : 0 3 : 0 
Heartbeat_Variant_2_evicts 0 : 0 1 : 0 2 : 0 3 : 0 
Heartbeat_Variant_3_evicts 0 : 0 1 : 0 2 : 0 3 : 0 
Heartbeat CPU 0 instructions: 90000002 cycles: 42660474 heartbeat IPC: 1.38846 cumulative IPC: 1.39459 (Simulation time: 0 hr 16 min 15 sec) 
Heartbeat_Variant_0 : 1402 0.342285 per_variant_size: 0 1402 0 0 0 0 0 0 0 
Heartbeat_Variant_1 : 2555 0.623779 per_variant_size: 0 274 2281 0 0 0 0 0 0 
Heartbeat_Variant_2 : 0 0 per_variant_size: 0 0 0 0 0 0 0 0 0 
Heartbeat_Variant_3 : 0 0 per_variant_size: 0 0 0 0 0 0 0 0 0 
Heartbeat_Variant_0_evicts 0 : 5573 1 : 23 2 : 0 3 : 0 
Heartbeat_Variant_1_evicts 0 : 23 1 : 0 2 : 0 3 : 0 
Heartbeat_Variant_2_evicts 0 : 0 1 : 0 2 : 0 3 : 0 
Heartbeat_Variant_3_evicts 0 : 0 1 : 0 2 : 0 3 : 0 
Heartbeat CPU 0 instructions: 100000000 cycles: 49792379 heartbeat IPC: 1.40215 cumulative IPC: 1.39609 (Simulation time: 0 hr 18 min 21 sec) 
Finished CPU 0 instructions: 50000002 cycles: 35814252 cumulative IPC: 1.39609 (Simulation time: 0 hr 18 min 21 sec) 

ChampSim completed all CPUs

Region of Interest Statistics

CPU 0 cumulative IPC: 1.39609 instructions: 50000002 cycles: 35814252
 Fetch stage stalled: 45.6308  Sim cycles: 35814252 fetch stall cycle: 16342346
 Empty decode stage: 24.7773  Sim cycles: 35814252 fetch stall cycle: 8873813
ITLB TOTAL     ACCESS:    5840160  HIT:    5341920  MISS:     498240  HIT %:    91.4687  MISS %:    8.53127   MPKI: 9.9648
ITLB LOAD TRANSLATION INSTRUCTION	ACCESS:    5705658  HIT:    5207418  MISS:     498240  HIT %:    91.2676  MISS %:    8.73238  MPKI: 9.9648
ITLB TRANSLATION FROM L1D PREFETCHER INSTRUCTION	ACCESS:     134502  HIT:     134502  MISS:          0  HIT %:        100  MISS %:          0  MPKI: 0

ITLB AVERAGE MISS LATENCY: 9.04501 cycles
ITLB RQ	ACCESS:    7953647	FORWARD:          0	MERGED:    1626993	TO_CACHE:    6326654

DTLB TOTAL     ACCESS:    8946712  HIT:    8475241  MISS:     471471  HIT %:    94.7302  MISS %:    5.26977   MPKI: 9.42942
DTLB LOAD TRANSLATION DATA	ACCESS:    8946712  HIT:    8475241  MISS:     471471  HIT %:    94.7302  MISS %:    5.26977  MPKI: 9.42942

DTLB AVERAGE MISS LATENCY: 9.30523 cycles
DTLB RQ	ACCESS:   13320992	FORWARD:          0	MERGED:    4337568	TO_CACHE:    8983424

STLB TOTAL     ACCESS:    1215473  HIT:    1213544  MISS:       1929  HIT %:    99.8413  MISS %:   0.158704   MPKI: 0.03858
STLB LOAD TRANSLATION INSTRUCTION	ACCESS:     498239  HIT:     498010  MISS:        229  HIT %:     99.954  MISS %:  0.0459619  MPKI: 0.00458
STLB LOAD TRANSLATION DATA	ACCESS:     471471  HIT:     469782  MISS:       1689  HIT %:    99.6418  MISS %:    0.35824  MPKI: 0.03378
STLB TRANSLATION FROM L1D PREFETCHER DATA	ACCESS:     245763  HIT:     245752  MISS:         11  HIT %:    99.9955  MISS %: 0.00447586  MPKI: 0.00022

STLB AVERAGE MISS LATENCY: 70.5744 cycles
STLB RQ	ACCESS:    1344152	FORWARD:          0	MERGED:     128637	TO_CACHE:    1215515

STLB Hit, L1D data hit: 0
STLB Hit, L2C data hit: 0
STLB Hit, LLC data hit: 0
STLB Hit, LLC data miss: 0
STLB STLB hints to L2: 0
L1D TOTAL     ACCESS:   13063542  HIT:   11920003  MISS:    1143539  HIT %:    91.2463  MISS %:    8.75367   MPKI: 22.8708
L1D LOAD DATA	ACCESS:    6538698  HIT:    5782329  MISS:     756369  HIT %:    88.4324  MISS %:    11.5676  MPKI: 15.1274
L1D RFO DATA	ACCESS:    6199786  HIT:    5913301  MISS:     286485  HIT %:    95.3791  MISS %:    4.62089  MPKI: 5.7297
L1D PREFETCH DATA	ACCESS:     325058  HIT:     224373  MISS:     100685  HIT %:    69.0255  MISS %:    30.9745  MPKI: 2.0137

L1D PREFETCH  REQUESTED:     749326  ISSUED:     749326  USEFUL:      38808  USELESS:      71290
L1D USEFUL LOAD PREFETCHES:      38808 PREFETCH ISSUED TO LOWER LEVEL:     110109  ACCURACY: 35.2451
 TIMELY PREFETCHES:      38808 LATE PREFETCHES: 9394 DROPPED PREFETCHES: 5
L1D AVERAGE MISS LATENCY: 261089 cycles
L1D RQ	ACCESS:   10667088	FORWARD:          0	MERGED:    3925964	TO_CACHE:    6574160
L1D WQ	ACCESS:    6945468	FORWARD:     167406	MERGED:     198636	TO_CACHE:    6746832
L1D PQ	ACCESS:     374884	FORWARD:          0	MERGED:          0	TO_CACHE:     374442

L1D UNIQUE REGIONS ACCESSED: 0
L1D REGIONS CONFLICTS: 0
L1D Cross Page Prefetch Requests: 5256
L1D Same Page Prefetch Requests: 761745
L1D ROI Sum of L1D PQ occupancy: 4752077
L1D PREFETCHES PUSHED FROM L2C: 0
L1I TOTAL     ACCESS:    7133171  HIT:    4350914  MISS:    2782257  HIT %:    60.9955  MISS %:    39.0045   MPKI: 55.6451
L1I LOAD INSTRUCTION	ACCESS:    6462901  HIT:    3680644  MISS:    2782257  HIT %:    56.9503  MISS %:    43.0497  MPKI: 55.6451
L1I PREFETCH INSTRUCTION	ACCESS:     670270  HIT:     670270  MISS:          0  HIT %:        100  MISS %:          0  MPKI: 0

L1I PREFETCH  REQUESTED:    1617606  ISSUED:    1617606  USEFUL:          0  USELESS:          0
L1I USEFUL LOAD PREFETCHES:          0 PREFETCH ISSUED TO LOWER LEVEL:          0  ACCURACY: -nan
 TIMELY PREFETCHES:          0 LATE PREFETCHES: 0 DROPPED PREFETCHES: 0
L1I AVERAGE MISS LATENCY: 16.9518 cycles
L1I RQ	ACCESS:    9576666	FORWARD:          0	MERGED:    2811730	TO_CACHE:    6764936
L1I PQ	ACCESS:    1617606	FORWARD:          0	MERGED:     428895	TO_CACHE:    1188711

L1BTB TOTAL     ACCESS:    5676335  HIT:    2029576  MISS:    3646759  HIT %:     35.755  MISS %:     64.245   MPKI: 72.9352
L1BTB BRANCH_DIRECT_JUMP	ACCESS:     546511 HIT:     142162 MISS:     404349 AVERAGE STALL: 58.8749 AVERAGE FETCH STALL: 12.8452 AVERAGE FETCH QUEUE STALL: 20.0597 AVERAGE DECODE STALL: 25.0287 AVERAGE EXECUTE STALL: 2.29409e+15
L1BTB BRANCH_INDIRECT	ACCESS:     181659 HIT:      65036 MISS:     116623 AVERAGE STALL: 111.391 AVERAGE FETCH STALL: 11.0094 AVERAGE FETCH QUEUE STALL: 17.5678 AVERAGE DECODE STALL: 13.7778 AVERAGE EXECUTE STALL: 68.0711
L1BTB BRANCH_CONDITIONAL	ACCESS:    2705090 HIT:    1407586 MISS:    1297504 AVERAGE STALL: 62.8343 AVERAGE FETCH STALL: 23.8297 AVERAGE FETCH QUEUE STALL: 20.4502 AVERAGE DECODE STALL: 17.9311 AVERAGE EXECUTE STALL: 4.71061e+15
L1BTB BRANCH_DIRECT_CALL	ACCESS:     949345 HIT:     104586 MISS:     844759 AVERAGE STALL: 94.7317 AVERAGE FETCH STALL: 22.8763 AVERAGE FETCH QUEUE STALL: 46.1484 AVERAGE DECODE STALL: 24.7355 AVERAGE EXECUTE STALL: 1.16457e+16
L1BTB BRANCH_INDIRECT_CALL	ACCESS:     172193 HIT:      21010 MISS:     151183 AVERAGE STALL: 141.793 AVERAGE FETCH STALL: 12.5081 AVERAGE FETCH QUEUE STALL: 19.0122 AVERAGE DECODE STALL: 12.3109 AVERAGE EXECUTE STALL: 97.4672
L1BTB BRANCH_RETURN	ACCESS:    1121537 HIT:     289196 MISS:     832341 AVERAGE STALL: 47.8766 AVERAGE FETCH STALL: 17.0215 AVERAGE FETCH QUEUE STALL: 4.41224 AVERAGE DECODE STALL: 5.98157 AVERAGE EXECUTE STALL: 4.09591e+14
L1BTB BRANCH_OTHER ACCESS:          0 HIT:          0 MISS:          0 AVERAGE STALL: -nan AVERAGE FETCH STALL: -nan AVERAGE FETCH QUEUE STALL: -nan AVERAGE DECODE STALL: -nan AVERAGE EXECUTE STALL: -nan
L1BTB TOTAL ROB OCCUPANCY AT BTB MISS: 2.62498

L2BTB TOTAL     ACCESS:    3621627  HIT:    3555839  MISS:      65788  HIT %:    98.1835  MISS %:    1.81653   MPKI: 1.31576
L2BTB BRANCH_DIRECT_JUMP	ACCESS:     400334 HIT:     396305 MISS:       4029 AVERAGE STALL: 58.8749 AVERAGE FETCH STALL: 12.8452 AVERAGE FETCH QUEUE STALL: 20.0597 AVERAGE DECODE STALL: 25.0287 AVERAGE EXECUTE STALL: 2.29409e+15
L2BTB BRANCH_INDIRECT	ACCESS:     106313 HIT:     103599 MISS:       2714 AVERAGE STALL: 111.391 AVERAGE FETCH STALL: 11.0094 AVERAGE FETCH QUEUE STALL: 17.5678 AVERAGE DECODE STALL: 13.7778 AVERAGE EXECUTE STALL: 68.0711
L2BTB BRANCH_CONDITIONAL	ACCESS:    1297504 HIT:    1293559 MISS:       3945 AVERAGE STALL: 62.8343 AVERAGE FETCH STALL: 23.8297 AVERAGE FETCH QUEUE STALL: 20.4502 AVERAGE DECODE STALL: 17.9311 AVERAGE EXECUTE STALL: 4.71061e+15
L2BTB BRANCH_DIRECT_CALL	ACCESS:     844759 HIT:     843158 MISS:       1601 AVERAGE STALL: 94.7317 AVERAGE FETCH STALL: 22.8763 AVERAGE FETCH QUEUE STALL: 46.1484 AVERAGE DECODE STALL: 24.7355 AVERAGE EXECUTE STALL: 1.16457e+16
L2BTB BRANCH_INDIRECT_CALL	ACCESS:     141798 HIT:     131933 MISS:       9865 AVERAGE STALL: 141.793 AVERAGE FETCH STALL: 12.5081 AVERAGE FETCH QUEUE STALL: 19.0122 AVERAGE DECODE STALL: 12.3109 AVERAGE EXECUTE STALL: 97.4672
L2BTB BRANCH_RETURN	ACCESS:     830919 HIT:     787285 MISS:      43634 AVERAGE STALL: 47.8766 AVERAGE FETCH STALL: 17.0215 AVERAGE FETCH QUEUE STALL: 4.41224 AVERAGE DECODE STALL: 5.98157 AVERAGE EXECUTE STALL: 4.09591e+14
L2BTB BRANCH_OTHER ACCESS:          0 HIT:          0 MISS:          0 AVERAGE STALL: -nan AVERAGE FETCH STALL: -nan AVERAGE FETCH QUEUE STALL: -nan AVERAGE DECODE STALL: -nan AVERAGE EXECUTE STALL: -nan
L2BTB TOTAL ROB OCCUPANCY AT BTB MISS: 145.508

L2C TOTAL     ACCESS:    4537799  HIT:    4086677  MISS:     451122  HIT %:    90.0586  MISS %:    9.94143   MPKI: 9.02244
L2C LOAD INSTRUCTION	ACCESS:    2782257  HIT:    2548374  MISS:     233883  HIT %:    91.5938  MISS %:    8.40623  MPKI: 4.67766
L2C LOAD TRANSLATION INSTRUCTION	ACCESS:        255  HIT:         48  MISS:        207  HIT %:    18.8235  MISS %:    81.1765  MPKI: 0.00414
L2C LOAD DATA	ACCESS:     746935  HIT:     674198  MISS:      72737  HIT %:    90.2619  MISS %:    9.73806  MPKI: 1.45474
L2C RFO DATA	ACCESS:     286404  HIT:     234619  MISS:      51785  HIT %:    81.9189  MISS %:    18.0811  MPKI: 1.0357
L2C PREFETCH DATA	ACCESS:     192890  HIT:     115979  MISS:      76911  HIT %:     60.127  MISS %:     39.873  MPKI: 1.53822
L2C WRITEBACK DATA	ACCESS:     527295  HIT:     513028  MISS:      14267  HIT %:    97.2943  MISS %:     2.7057  MPKI: 0.28534
L2C LOAD TRANSLATION DATA	ACCESS:       1738  HIT:        414  MISS:       1324  HIT %:    23.8205  MISS %:    76.1795  MPKI: 0.02648
L2C TRANSLATION FROM L1D PREFETCHER DATA	ACCESS:         25  HIT:         17  MISS:          8  HIT %:         68  MISS %:         32  MPKI: 0.00016

L2C PREFETCH  REQUESTED:      91448  ISSUED:      91448  USEFUL:       8332  USELESS:      69107
L2C USEFUL LOAD PREFETCHES:       8332 PREFETCH ISSUED TO LOWER LEVEL:      77373  ACCURACY: 10.7686
 TIMELY PREFETCHES:       8332 LATE PREFETCHES: 462 DROPPED PREFETCHES: 0
L2C AVERAGE MISS LATENCY: 38.49 cycles
L2C RQ	ACCESS:    3817708	FORWARD:          0	MERGED:          0	TO_CACHE:    3817617
L2C WQ	ACCESS:     527297	FORWARD:         91	MERGED:          0	TO_CACHE:     527297
L2C PQ	ACCESS:     201557	FORWARD:          0	MERGED:       3643	TO_CACHE:     197914

L2C Dense regions hint from L2: 0
PSCL5 TOTAL     ACCESS:       3872  HIT:       1936  MISS:       1936  HIT %:         50  MISS %:         50   MPKI: 0.03872
PSCL5 LOAD TRANSLATION INSTRUCTION	ACCESS:       3822  HIT:       1911  MISS:       1911  HIT %:         50  MISS %:         50  MPKI: 0.03822
PSCL5 TRANSLATION FROM L1D PREFETCHER INSTRUCTION	ACCESS:         50  HIT:         25  MISS:         25  HIT %:         50  MISS %:         50  MPKI: 0.0005


PSCL4 TOTAL     ACCESS:       3721  HIT:       1858  MISS:       1863  HIT %:    49.9328  MISS %:    50.0672   MPKI: 0.03726
PSCL4 LOAD TRANSLATION INSTRUCTION	ACCESS:       2392  HIT:       1837  MISS:        555  HIT %:    76.7977  MISS %:    23.2023  MPKI: 0.0111
PSCL4 TRANSLATION FROM L1D PREFETCHER INSTRUCTION	ACCESS:         26  HIT:         21  MISS:          5  HIT %:    80.7692  MISS %:    19.2308  MPKI: 0.0001
PSCL4 LOAD TRANSLATION DATA	ACCESS:       1287  HIT:          0  MISS:       1287  HIT %:          0  MISS %:        100  MPKI: 0.02574
PSCL4 TRANSLATION FROM L1D PREFETCHER DATA	ACCESS:         16  HIT:          0  MISS:         16  HIT %:          0  MISS %:        100  MPKI: 0.00032


PSCL3 TOTAL     ACCESS:       3815  HIT:       1905  MISS:       1910  HIT %:    49.9345  MISS %:    50.0655   MPKI: 0.0382
PSCL3 LOAD TRANSLATION INSTRUCTION	ACCESS:       2439  HIT:       1884  MISS:        555  HIT %:    77.2448  MISS %:    22.7552  MPKI: 0.0111
PSCL3 TRANSLATION FROM L1D PREFETCHER INSTRUCTION	ACCESS:         26  HIT:         21  MISS:          5  HIT %:    80.7692  MISS %:    19.2308  MPKI: 0.0001
PSCL3 LOAD TRANSLATION DATA	ACCESS:       1334  HIT:          0  MISS:       1334  HIT %:          0  MISS %:        100  MPKI: 0.02668
PSCL3 TRANSLATION FROM L1D PREFETCHER DATA	ACCESS:         16  HIT:          0  MISS:         16  HIT %:          0  MISS %:        100  MPKI: 0.00032


PSCL2 TOTAL     ACCESS:       3800  HIT:       1864  MISS:       1936  HIT %:    49.0526  MISS %:    50.9474   MPKI: 0.03872
PSCL2 LOAD TRANSLATION INSTRUCTION	ACCESS:       2066  HIT:       1839  MISS:        227  HIT %:    89.0126  MISS %:    10.9874  MPKI: 0.00454
PSCL2 TRANSLATION FROM L1D PREFETCHER INSTRUCTION	ACCESS:         25  HIT:         25  MISS:          0  HIT %:        100  MISS %:          0  MPKI: 0
PSCL2 LOAD TRANSLATION DATA	ACCESS:       1684  HIT:          0  MISS:       1684  HIT %:          0  MISS %:        100  MPKI: 0.03368
PSCL2 TRANSLATION FROM L1D PREFETCHER DATA	ACCESS:         25  HIT:          0  MISS:         25  HIT %:          0  MISS %:        100  MPKI: 0.0005


LLC TOTAL     ACCESS:     510463  HIT:     483172  MISS:      27291  HIT %:    94.6537  MISS %:    5.34632   MPKI: 0.54582
LLC LOAD INSTRUCTION	ACCESS:     233883  HIT:     233064  MISS:        819  HIT %:    99.6498  MISS %:   0.350175  MPKI: 0.01638
LLC LOAD TRANSLATION INSTRUCTION	ACCESS:        207  HIT:        195  MISS:         12  HIT %:    94.2029  MISS %:     5.7971  MPKI: 0.00024
LLC LOAD DATA	ACCESS:      72308  HIT:      68879  MISS:       3429  HIT %:    95.2578  MISS %:    4.74221  MPKI: 0.06858
LLC RFO DATA	ACCESS:      51746  HIT:      38972  MISS:      12774  HIT %:     75.314  MISS %:     24.686  MPKI: 0.25548
LLC PREFETCH DATA	ACCESS:      77373  HIT:      67489  MISS:       9884  HIT %:    87.2255  MISS %:    12.7745  MPKI: 0.19768
LLC WRITEBACK DATA	ACCESS:      73614  HIT:      73295  MISS:        319  HIT %:    99.5667  MISS %:   0.433341  MPKI: 0.00638
LLC LOAD TRANSLATION DATA	ACCESS:       1324  HIT:       1270  MISS:         54  HIT %:    95.9215  MISS %:    4.07855  MPKI: 0.00108
LLC TRANSLATION FROM L1D PREFETCHER DATA	ACCESS:          8  HIT:          8  MISS:          0  HIT %:        100  MISS %:          0  MPKI: 0

LLC AVERAGE MISS LATENCY: 154.704 cycles
LLC RQ	ACCESS:     359482	FORWARD:          0	MERGED:          0	TO_CACHE:     359476
LLC WQ	ACCESS:      73614	FORWARD:          6	MERGED:          0	TO_CACHE:      73614
LLC PQ	ACCESS:      77373	FORWARD:          0	MERGED:          0	TO_CACHE:      77373

LLC Dense regions hint to LLC: 0

RAW hits: 1955675
Loads Generated: 12622763
Loads sent to L1D: 10667088
Stores Generated: 6945471
Stores sent to L1D: 6945468
Major fault: 0 Minor fault: 2477
Allocated PAGES: 2477

stream: 
stream:times selected: 1188329
stream:pref_filled: 126936
stream:pref_useful: 26571
stream:pref_late: 7479
stream:misses: 9232
stream:misses_by_poll: 0

CS: 
CS:times selected: 179312
CS:pref_filled: 64417
CS:pref_useful: 40352
CS:pref_late: 7288
CS:misses: 18886
CS:misses_by_poll: 5

CPLX: 
CPLX:times selected: 1007822
CPLX:pref_filled: 22705
CPLX:pref_useful: 6474
CPLX:pref_late: 3117
CPLX:misses: 107990
CPLX:misses_by_poll: 0

NL_L1: 
NL:times selected: 12657
NL:pref_filled: 787
NL:pref_useful: 226
NL:pref_late: 233
NL:misses: 1170
NL:misses_by_poll: 0

total selections: 2388120
total_filled: 100685
total_useful: 38808
total_late: 19764
total_polluted: 5
total_misses_after_warmup: 791834
conflicts: 5519312

test: 114460

DRAM Statistics
 CHANNEL 0
 RQ ROW_BUFFER_HIT:      10071  ROW_BUFFER_MISS:      16897
 DBUS_CONGESTED:         16
 WQ ROW_BUFFER_HIT:       1288  ROW_BUFFER_MISS:      11189  FULL:          0

 AVG_CONGESTED_CYCLE: 5

CPU 0 Branch Prediction Accuracy: 99.8244% MPKI: 0.3217 Average ROB Occupancy at Mispredict: 192.035
Branch types
NOT_BRANCH: 40838298 81.6766%
BRANCH_DIRECT_JUMP: 546511 1.09302%
BRANCH_INDIRECT: 181659 0.363318%
BRANCH_CONDITIONAL: 6190436 12.3809%
BRANCH_DIRECT_CALL: 949345 1.89869%
BRANCH_INDIRECT_CALL: 172193 0.344386%
BRANCH_RETURN: 1121537 2.24307%
BRANCH_OTHER: 0 0%

DRAM PAGES: 1048576
Allocated PAGES: 2477
Average_ROB_Occupancy: 251.827
Average_Decode_Occupancy: 38.4803
Average_FTQ_Occupancy: 14.9526
Indirect max targets: 14 Average targets: 1.14527
Branch_type:  BRANCH_DIRECT_JUMP:  Count Percentage: 3.59886 5.89908 4.35202 9.75361 2.75148 6.50234 1.64019 65.5024 
Branch_type:  BRANCH_INDIRECT:  Count Percentage: 19.726 3.35594 5.25442 3.80853 3.35594 10.8769 3.25105 50.3712 
Branch_type:  BRANCH_CONDITIONAL:  Count Percentage: 21.4842 6.55547 2.67338 4.89998 2.73745 8.57622 1.08029 51.993 
Branch_type:  BRANCH_DIRECT_CALL:  Count Percentage: 0.795755 1.301 0.982275 4.77922 2.96549 3.0043 0.775505 85.3965 
Branch_type:  BRANCH_INDIRECT_CALL:  Count Percentage: 9.56259 0 3.00024 4.30824 0 3.74726 0.991375 78.3903 
Branch_type:  BRANCH_RETURN:  Count Percentage: 5.13063 4.33377 2.69156 4.07276 5.66942 9.98441 1.4387 66.6787 
Branch_type:  BRANCH_DIRECT_JUMP:  Total Count: 39302 64422 47527 106516 30048 71010 17912 715331 
Branch_type:  BRANCH_INDIRECT:  Total Count: 71652 12190 19086 13834 12190 39509 11809 182967 
Branch_type:  BRANCH_CONDITIONAL:  Total Count: 2658193 811095 330772 606265 338699 1061118 133662 6432995 
Branch_type:  BRANCH_DIRECT_CALL:  Total Count: 15090 24671 18627 90629 56235 56971 14706 1619384 
Branch_type:  BRANCH_INDIRECT_CALL:  Total Count: 32950 0 10338 14845 0 12912 3416 270111 
Branch_type:  BRANCH_RETURN:  Total Count: 115012 97149 60336 91298 127090 223818 32251 1494720 
Number of unique branch instructions: 9804
Upper 32 bits: 
aaaa
ffff
ffff0000
Unique upper 32 bits: 3
Unique upper 36 bits: 3
Unique upper 40 bits: 5
Unique upper 44 bits: 32
Unique upper 48 bits: 154
Variant_0 : 1402 0.342285
Variant_1 : 2555 0.623779
Variant_2 : 0 0
Variant_3 : 0 0
Offset_3 4031
Offset_4 243
Offset_5 449
Offset_6 498
Offset_7 571
Offset_8 507
Offset_9 463
Offset_10 374
Offset_11 301
Offset_12 269
Offset_13 203
Offset_14 227
Offset_15 184
Offset_16 220
Offset_17 145
Offset_18 118
Offset_19 234
Offset_20 136
Offset_21 235
Offset_22 391
Offset_23 241
Offset_24 331
Offset_25 88
Offset_47 82
Offset_64 2
decode_dispatch_called: 26477284 73.9295
Dispatch_width: 0 14255231 53.8395 39.8032
Dispatch_width: 1 1056016 3.98838 2.94859
Dispatch_width: 2 856328 3.2342 2.39103
Dispatch_width: 3 509202 1.92317 1.42179
Dispatch_width: 4 6496264 24.5352 18.1388
Dispatch_width: 5 106790 0.403327 0.298177
Dispatch_width: 6 3197453 12.0762 8.92788
Empty_decode_cycles: 9336968 26.0705
ROB_full_cycles: 10253171 28.6287
Starvation_cycles_per_kilo_instr: 223.636
Starvation_cycles_per_kilo_instr_3: 157.606
Starvation_cycles_per_kilo_instr_0: 133.39
Branch_type_1  (3,1)  (4,9)  (5,37)  (6,68)  (7,112)  (8,128)  (9,122)  (10,97)  (11,67)  (12,43)  (13,5)  (14,2)  (15,3)  (16,4)  (18,1)  (19,4)  (20,2)  (21,1)  (22,3)  (23,2)  (24,10)  (25,12)  (64,1) 
Branch_type_2  (3,1)  (5,1)  (8,3)  (9,3)  (12,1)  (13,1)  (14,1)  (16,3)  (17,2)  (20,2)  (21,2)  (23,5)  (24,1)  (47,38) 
Branch_type_3  (3,4029)  (4,234)  (5,407)  (6,415)  (7,430)  (8,315)  (9,255)  (10,151)  (11,120)  (12,50)  (13,4)  (64,1) 
Branch_type_4  (6,3)  (7,8)  (8,25)  (9,51)  (10,60)  (11,58)  (12,96)  (13,88)  (14,100)  (15,86)  (16,98)  (17,64)  (18,53)  (19,115)  (20,71)  (21,124)  (22,208)  (23,136)  (24,192)  (25,72) 
Branch_type_5  (8,2)  (9,1)  (10,3)  (11,5)  (12,3)  (13,14)  (14,16)  (15,11)  (16,20)  (17,11)  (18,16)  (19,12)  (20,10)  (21,13)  (22,42)  (23,26)  (24,37) 
Branch_type_6  (5,4)  (6,12)  (7,21)  (8,34)  (9,31)  (10,63)  (11,51)  (12,76)  (13,91)  (14,108)  (15,84)  (16,95)  (17,68)  (18,48)  (19,103)  (20,51)  (21,95)  (22,138)  (23,72)  (24,91)  (25,4)  (47,44) 
Unique trigger count: 
Variant_0_evicts_0 : 0
Variant_0_evicts_1 : 0
Variant_0_evicts_2 : 0
Variant_0_evicts_3 : 0
Variant_1_evicts_0 : 0
Variant_1_evicts_1 : 0
Variant_1_evicts_2 : 0
Variant_1_evicts_3 : 0
Variant_2_evicts_0 : 0
Variant_2_evicts_1 : 0
Variant_2_evicts_2 : 0
Variant_2_evicts_3 : 0
Variant_3_evicts_0 : 0
Variant_3_evicts_1 : 0
Variant_3_evicts_2 : 0
Variant_3_evicts_3 : 0
BTB PER SET UNIQUE ADDR: 14 15 17 13 12 13 16 10 15 16 13 12 12 11 14 17 12 17 15 14 14 12 13 11 15 10 10 11 14 16 19 11 14 12 12 11 17 12 16 14 15 12 13 13 13 12 10 13 14 12 11 11 13 14 15 13 14 14 12 15 13 17 12 13 17 13 11 15 15 16 13 13 14 11 16 14 15 13 14 11 11 13 15 14 14 16 12 15 15 16 14 10 16 15 13 13 14 13 14 14 13 14 12 13 13 12 12 12 10 12 14 11 11 10 13 10 13 12 15 14 14 12 11 14 15 14 15 13 13 13 14 18 14 9 13 15 15 12 13 14 11 11 13 12 15 13 12 15 13 12 13 12 10 14 16 13 14 12 12 14 12 13 12 12 13 12 11 12 14 15 14 15 11 12 12 15 11 12 14 15 15 15 12 14 15 12 9 11 13 15 12 9 14 13 13 13 13 15 14 11 11 18 14 14 13 9 11 12 12 19 14 14 10 13 11 14 16 12 11 12 14 14 12 11 14 12 15 11 12 14 15 12 13 13 11 17 14 14 13 10 16 13 12 15 11 16 15 14 16 14 14 12 15 13 12 18 14 13 14 15 16 10 13 10 15 12 16 10 14 13 14 16 14 12 14 11 15 13 15 14 8 12 12 12 14 11 10 13 13 14 13 17 11 15 17 13 13 11 13 13 13 12 15 15 12 10 12 14 16 14 11 15 16 13 11 16 12 17 14 12 17 10 11 14 13 13 12 15 15 16 14 13 18 10 15 18 15 17 14 11 14 15 14 14 15 14 12 12 13 15 16 14 10 14 13 13 14 14 16 15 12 10 11 17 15 12 14 14 13 7 13 13 12 17 15 15 13 14 16 12 16 11 13 15 15 14 14 15 12 14 15 13 15 17 13 11 15 12 16 14 12 16 17 11 15 13 10 15 11 11 11 15 17 15 16 11 17 17 13 13 14 13 15 17 13 13 12 17 11 14 12 11 15 13 15 12 13 16 12 12 13 14 14 13 15 12 11 14 10 16 14 13 14 14 10 15 12 11 15 10 13 15 15 10 14 14 12 14 14 14 15 12 12 18 15 13 17 13 14 14 14 13 15 15 10 14 14 14 12 14 19 10 15 14 12 12 12 17 13 12 10 14 11 16 12 15 12 16 12 11 16 10 
BTB PER SET COUNT: 944 15 17 943 16 384 1496 10 19 20 1492 12 13 941 20 18 12 17 15 177 16 14 13 480 17 10 10 11 15 17 2506 1406 14 2034 12 17 22 12 16 14 1024 12 947 13 1055 14 10 13 14 17 14 949 13 944 16 461 39 14 16 16 17 480 12 13 18 13 11 946 17 16 15 53 18 1487 17 14 611 16 14 11 13 13 23 946 97 18 1872 2481 1494 16 14 15 17 18 14 13 689 54 20 14 14 14 12 14 13 15 478 18 1021 13 14 1023 13 10 13 10 15 12 15 14 16 12 13 16 19 2307 19 14 15 13 16 4444 14 9 14 17 16 16 13 473 12 11 16 728 16 50 13 18 13 1026 13 363 10 14 356 367 14 13 477 14 1023 23 12 35 15 1023 13 12 17 15 1490 81 1022 14 12 20 11 12 14 16 15 18 12 16 26 12 9 476 13 19 12 10 480 15 13 15 13 15 14 14 12 21 14 14 559 129 11 14 2043 20 14 16 10 13 23 16 19 12 16 13 14 627 12 942 14 12 480 17 13 15 15 1320 951 239 12 76 15 26 13 1021 17 13 12 565 11 549 16 14 2513 14 14 367 17 13 13 18 14 30 14 944 1493 10 13 12 193 12 17 11 565 14 14 1411 15 12 15 12 464 14 17 478 8 497 12 13 14 12 10 478 13 16 15 22 12 1492 1029 2503 37 11 13 13 13 12 143 19 15 10 20689 14 199 15 3977 1492 1111 15 13 1035 12 18 16 12 24 11 11 14 13 13 17 16 15 20 15 14 1495 10 1035 26 480 19 14 556 14 370 14 14 1312 953 12 14 1493 89 16 14 10 15 14 14 105 14 22 16 12 13 13 26 20 1524 30 1027 1025 7 529 14 12 284 16 15 2502 1494 16 14 16 11 15 20 1498 95 483 15 946 922 15 13 17 19 13 11 147 15 2787 871 13 21 465 11 1224 13 11 16 18 12 11 1409 18 17 1493 489 19 19 14 131 14 13 2966 17738 14 13 942 17 11 14 12 11 16 1923 19 12 17 16 192 12 15 1011 16 15 169 12 11 14 2881 18 15 1024 16 14 10 19 1065 12 947 1021 13 598 16 10 136 42 1308 19 14 945 946 12 21 18 15 7694 2124 16 15 454 2508 18 1492 864 10 1490 17 17 12 17 23 13 21 14 934 12 2802 18 15 12 11 14 15 119 15 334 477 16 14 12 18 295 
To predecode: 0
Predecoding something: 0
Predecode request dropped: 0
sizeofblock_0 0
sizeofblock_1 34952
sizeofblock_2 101073
sizeofblock_3 0
sizeofblock_4 0
sizeofblock_5 0
sizeofblock_6 0
sizeofblock_7 0
sizeofblock_8 0
Variant_0 Correct: 1619544 Incorrect: 0 Accuracy: 1
Variant_1 Correct: 5756112 Incorrect: 0 Accuracy: 1
Variant_2 Correct: 0 Incorrect: 0 Accuracy: -nan
Variant_3 Correct: 0 Incorrect: 0 Accuracy: -nan
