
*** ChampSim Multicore Out-of-Order Simulator ***

Warmup Instructions: 50000000
Simulation Instructions: 50000000
Number of CPUs: 1
LLC sets: 2048
LLC ways: 16
Off-chip DRAM Size: 4096 MB Channels: 1 Width: 64-bit Data Rate: 6400 MT/s
CPU 0 runs ./micro_traces/srv192.trace.gz
.gz
ITLB has LRU replacement policy
DTLB has LRU replacement policy
STLB has LRU replacement policy
FDIP Prefetcher at L1I
L1I has LRU replacement policy
L1D has LRU replacement policy
Initialize SRRIP state for L2C
Initialize DRRIP state for LLC
Heartbeat_Variant_0 : 1343 0.327881 per_variant_size: 0 1343 0 0 0 0 0 0 0 
Heartbeat_Variant_1 : 2440 0.595703 per_variant_size: 0 313 2127 0 0 0 0 0 0 
Heartbeat_Variant_2 : 0 0 per_variant_size: 0 0 0 0 0 0 0 0 0 
Heartbeat_Variant_3 : 0 0 per_variant_size: 0 0 0 0 0 0 0 0 0 
Heartbeat_Variant_0_evicts 0 : 5576 1 : 30 2 : 0 3 : 0 
Heartbeat_Variant_1_evicts 0 : 28 1 : 0 2 : 0 3 : 0 
Heartbeat_Variant_2_evicts 0 : 0 1 : 0 2 : 0 3 : 0 
Heartbeat_Variant_3_evicts 0 : 0 1 : 0 2 : 0 3 : 0 
Heartbeat CPU 0 instructions: 10000000 cycles: 2797789 heartbeat IPC: 3.57425 cumulative IPC: 3.57425 (Simulation time: 0 hr 1 min 42 sec) 
Heartbeat_Variant_0 : 1373 0.335205 per_variant_size: 0 1373 0 0 0 0 0 0 0 
Heartbeat_Variant_1 : 2506 0.611816 per_variant_size: 0 279 2227 0 0 0 0 0 0 
Heartbeat_Variant_2 : 0 0 per_variant_size: 0 0 0 0 0 0 0 0 0 
Heartbeat_Variant_3 : 0 0 per_variant_size: 0 0 0 0 0 0 0 0 0 
Heartbeat_Variant_0_evicts 0 : 5701 1 : 35 2 : 0 3 : 0 
Heartbeat_Variant_1_evicts 0 : 40 1 : 0 2 : 0 3 : 0 
Heartbeat_Variant_2_evicts 0 : 0 1 : 0 2 : 0 3 : 0 
Heartbeat_Variant_3_evicts 0 : 0 1 : 0 2 : 0 3 : 0 
Heartbeat CPU 0 instructions: 20000001 cycles: 5594012 heartbeat IPC: 3.57625 cumulative IPC: 3.57525 (Simulation time: 0 hr 3 min 22 sec) 
Heartbeat_Variant_0 : 1376 0.335938 per_variant_size: 0 1376 0 0 0 0 0 0 0 
Heartbeat_Variant_1 : 2512 0.613281 per_variant_size: 0 278 2234 0 0 0 0 0 0 
Heartbeat_Variant_2 : 0 0 per_variant_size: 0 0 0 0 0 0 0 0 0 
Heartbeat_Variant_3 : 0 0 per_variant_size: 0 0 0 0 0 0 0 0 0 
Heartbeat_Variant_0_evicts 0 : 5593 1 : 5 2 : 0 3 : 0 
Heartbeat_Variant_1_evicts 0 : 5 1 : 0 2 : 0 3 : 0 
Heartbeat_Variant_2_evicts 0 : 0 1 : 0 2 : 0 3 : 0 
Heartbeat_Variant_3_evicts 0 : 0 1 : 0 2 : 0 3 : 0 
Heartbeat CPU 0 instructions: 30000002 cycles: 8390147 heartbeat IPC: 3.57637 cumulative IPC: 3.57562 (Simulation time: 0 hr 5 min 1 sec) 
Heartbeat_Variant_0 : 1378 0.336426 per_variant_size: 0 1378 0 0 0 0 0 0 0 
Heartbeat_Variant_1 : 2515 0.614014 per_variant_size: 0 279 2236 0 0 0 0 0 0 
Heartbeat_Variant_2 : 0 0 per_variant_size: 0 0 0 0 0 0 0 0 0 
Heartbeat_Variant_3 : 0 0 per_variant_size: 0 0 0 0 0 0 0 0 0 
Heartbeat_Variant_0_evicts 0 : 5418 1 : 9 2 : 0 3 : 0 
Heartbeat_Variant_1_evicts 0 : 8 1 : 0 2 : 0 3 : 0 
Heartbeat_Variant_2_evicts 0 : 0 1 : 0 2 : 0 3 : 0 
Heartbeat_Variant_3_evicts 0 : 0 1 : 0 2 : 0 3 : 0 
Heartbeat CPU 0 instructions: 40000001 cycles: 11186652 heartbeat IPC: 3.57589 cumulative IPC: 3.57569 (Simulation time: 0 hr 6 min 41 sec) 
Heartbeat_Variant_0 : 1380 0.336914 per_variant_size: 0 1380 0 0 0 0 0 0 0 
Heartbeat_Variant_1 : 2518 0.614746 per_variant_size: 0 277 2241 0 0 0 0 0 0 
Heartbeat_Variant_2 : 0 0 per_variant_size: 0 0 0 0 0 0 0 0 0 
Heartbeat_Variant_3 : 0 0 per_variant_size: 0 0 0 0 0 0 0 0 0 
Heartbeat_Variant_0_evicts 0 : 5610 1 : 4 2 : 0 3 : 0 
Heartbeat_Variant_1_evicts 0 : 4 1 : 0 2 : 0 3 : 0 
Heartbeat_Variant_2_evicts 0 : 0 1 : 0 2 : 0 3 : 0 
Heartbeat_Variant_3_evicts 0 : 0 1 : 0 2 : 0 3 : 0 
Heartbeat CPU 0 instructions: 50000002 cycles: 13982148 heartbeat IPC: 3.57718 cumulative IPC: 3.57599 (Simulation time: 0 hr 8 min 21 sec) 

Warmup complete CPU 0 instructions: 50000002 cycles: 13982148 (Simulation time: 0 hr 8 min 21 sec) 

Cycle: 20000000 FTQ IN: 58276807 FTQ occupancy: 20.0326 DECODE IN: 58276778 DECODE occupancy: 52.1121 ROB IN: 58276775 ROB occupancy: 314.445 ROB OUT: 58276768
Heartbeat_Variant_0 : 1432 0.349609 per_variant_size: 0 1432 0 0 0 0 0 0 0 
Heartbeat_Variant_1 : 2635 0.643311 per_variant_size: 0 210 2425 0 0 0 0 0 0 
Heartbeat_Variant_2 : 0 0 per_variant_size: 0 0 0 0 0 0 0 0 0 
Heartbeat_Variant_3 : 0 0 per_variant_size: 0 0 0 0 0 0 0 0 0 
Heartbeat_Variant_0_evicts 0 : 5760 1 : 260 2 : 0 3 : 0 
Heartbeat_Variant_1_evicts 0 : 253 1 : 0 2 : 0 3 : 0 
Heartbeat_Variant_2_evicts 0 : 0 1 : 0 2 : 0 3 : 0 
Heartbeat_Variant_3_evicts 0 : 0 1 : 0 2 : 0 3 : 0 
Heartbeat CPU 0 instructions: 60000000 cycles: 21413154 heartbeat IPC: 1.34571 cumulative IPC: 1.34571 (Simulation time: 0 hr 10 min 15 sec) 
Heartbeat_Variant_0 : 1434 0.350098 per_variant_size: 0 1434 0 0 0 0 0 0 0 
Heartbeat_Variant_1 : 2633 0.642822 per_variant_size: 0 214 2419 0 0 0 0 0 0 
Heartbeat_Variant_2 : 0 0 per_variant_size: 0 0 0 0 0 0 0 0 0 
Heartbeat_Variant_3 : 0 0 per_variant_size: 0 0 0 0 0 0 0 0 0 
Heartbeat_Variant_0_evicts 0 : 5431 1 : 50 2 : 0 3 : 0 
Heartbeat_Variant_1_evicts 0 : 48 1 : 0 2 : 0 3 : 0 
Heartbeat_Variant_2_evicts 0 : 0 1 : 0 2 : 0 3 : 0 
Heartbeat_Variant_3_evicts 0 : 0 1 : 0 2 : 0 3 : 0 
Heartbeat CPU 0 instructions: 70000002 cycles: 28620657 heartbeat IPC: 1.38744 cumulative IPC: 1.36626 (Simulation time: 0 hr 12 min 4 sec) 
Cycle: 30000000 FTQ IN: 13652268 FTQ occupancy: 12.8808 DECODE IN: 13652274 DECODE occupancy: 33.3696 ROB IN: 13652277 ROB occupancy: 233.385 ROB OUT: 13652284
Heartbeat_Variant_0 : 1433 0.349854 per_variant_size: 0 1433 0 0 0 0 0 0 0 
Heartbeat_Variant_1 : 2647 0.64624 per_variant_size: 0 191 2456 0 0 0 0 0 0 
Heartbeat_Variant_2 : 0 0 per_variant_size: 0 0 0 0 0 0 0 0 0 
Heartbeat_Variant_3 : 0 0 per_variant_size: 0 0 0 0 0 0 0 0 0 
Heartbeat_Variant_0_evicts 0 : 5719 1 : 150 2 : 0 3 : 0 
Heartbeat_Variant_1_evicts 0 : 155 1 : 0 2 : 0 3 : 0 
Heartbeat_Variant_2_evicts 0 : 0 1 : 0 2 : 0 3 : 0 
Heartbeat_Variant_3_evicts 0 : 0 1 : 0 2 : 0 3 : 0 
Heartbeat CPU 0 instructions: 80000000 cycles: 35808989 heartbeat IPC: 1.39114 cumulative IPC: 1.37445 (Simulation time: 0 hr 13 min 53 sec) 
Cycle: 40000000 FTQ IN: 13773996 FTQ occupancy: 13.2314 DECODE IN: 13773997 DECODE occupancy: 34.0349 ROB IN: 13773997 ROB occupancy: 234.691 ROB OUT: 13773803
Heartbeat_Variant_0 : 1437 0.35083 per_variant_size: 0 1437 0 0 0 0 0 0 0 
Heartbeat_Variant_1 : 2645 0.645752 per_variant_size: 0 180 2465 0 0 0 0 0 0 
Heartbeat_Variant_2 : 0 0 per_variant_size: 0 0 0 0 0 0 0 0 0 
Heartbeat_Variant_3 : 0 0 per_variant_size: 0 0 0 0 0 0 0 0 0 
Heartbeat_Variant_0_evicts 0 : 5592 1 : 87 2 : 0 3 : 0 
Heartbeat_Variant_1_evicts 0 : 84 1 : 0 2 : 0 3 : 0 
Heartbeat_Variant_2_evicts 0 : 0 1 : 0 2 : 0 3 : 0 
Heartbeat_Variant_3_evicts 0 : 0 1 : 0 2 : 0 3 : 0 
Heartbeat CPU 0 instructions: 90000002 cycles: 43093617 heartbeat IPC: 1.37275 cumulative IPC: 1.37403 (Simulation time: 0 hr 15 min 45 sec) 
Cycle: 50000000 FTQ IN: 13910027 FTQ occupancy: 13.1854 DECODE IN: 13909945 DECODE occupancy: 34.2717 ROB IN: 13909885 ROB occupancy: 238.422 ROB OUT: 13909731
Heartbeat_Variant_0 : 1436 0.350586 per_variant_size: 0 1436 0 0 0 0 0 0 0 
Heartbeat_Variant_1 : 2647 0.64624 per_variant_size: 0 185 2462 0 0 0 0 0 0 
Heartbeat_Variant_2 : 0 0 per_variant_size: 0 0 0 0 0 0 0 0 0 
Heartbeat_Variant_3 : 0 0 per_variant_size: 0 0 0 0 0 0 0 0 0 
Heartbeat_Variant_0_evicts 0 : 5663 1 : 51 2 : 0 3 : 0 
Heartbeat_Variant_1_evicts 0 : 52 1 : 0 2 : 0 3 : 0 
Heartbeat_Variant_2_evicts 0 : 0 1 : 0 2 : 0 3 : 0 
Heartbeat_Variant_3_evicts 0 : 0 1 : 0 2 : 0 3 : 0 
Heartbeat CPU 0 instructions: 100000001 cycles: 50278009 heartbeat IPC: 1.39191 cumulative IPC: 1.37757 (Simulation time: 0 hr 17 min 44 sec) 
Finished CPU 0 instructions: 50000003 cycles: 36295862 cumulative IPC: 1.37757 (Simulation time: 0 hr 17 min 44 sec) 

ChampSim completed all CPUs

Region of Interest Statistics

CPU 0 cumulative IPC: 1.37757 instructions: 50000003 cycles: 36295862
 Fetch stage stalled: 53.5834  Sim cycles: 36295862 fetch stall cycle: 19448570
 Empty decode stage: 35.0788  Sim cycles: 36295862 fetch stall cycle: 12732145
ITLB TOTAL     ACCESS:    5870424  HIT:    5375346  MISS:     495078  HIT %:    91.5666  MISS %:    8.43343   MPKI: 9.90156
ITLB LOAD TRANSLATION INSTRUCTION	ACCESS:    5743334  HIT:    5248256  MISS:     495078  HIT %:      91.38  MISS %:    8.62005  MPKI: 9.90156
ITLB TRANSLATION FROM L1D PREFETCHER INSTRUCTION	ACCESS:     127090  HIT:     127090  MISS:          0  HIT %:        100  MISS %:          0  MPKI: 0

ITLB AVERAGE MISS LATENCY: 9.0663 cycles
ITLB RQ	ACCESS:    8010890	FORWARD:          0	MERGED:    1695212	TO_CACHE:    6315678

DTLB TOTAL     ACCESS:    8968487  HIT:    8499635  MISS:     468852  HIT %:    94.7722  MISS %:    5.22777   MPKI: 9.37704
DTLB LOAD TRANSLATION DATA	ACCESS:    8968487  HIT:    8499635  MISS:     468852  HIT %:    94.7722  MISS %:    5.22777  MPKI: 9.37704

DTLB AVERAGE MISS LATENCY: 9.35295 cycles
DTLB RQ	ACCESS:   13344271	FORWARD:          0	MERGED:    4339406	TO_CACHE:    9004865

STLB TOTAL     ACCESS:    1211442  HIT:    1209368  MISS:       2074  HIT %:    99.8288  MISS %:   0.171201   MPKI: 0.04148
STLB LOAD TRANSLATION INSTRUCTION	ACCESS:     495078  HIT:     494820  MISS:        258  HIT %:    99.9479  MISS %:   0.052113  MPKI: 0.00516
STLB LOAD TRANSLATION DATA	ACCESS:     468851  HIT:     467067  MISS:       1784  HIT %:    99.6195  MISS %:   0.380505  MPKI: 0.03568
STLB TRANSLATION FROM L1D PREFETCHER DATA	ACCESS:     247513  HIT:     247481  MISS:         32  HIT %:    99.9871  MISS %:  0.0129286  MPKI: 0.00064

STLB AVERAGE MISS LATENCY: 80.8621 cycles
STLB RQ	ACCESS:    1331838	FORWARD:          0	MERGED:     120350	TO_CACHE:    1211488

STLB Hit, L1D data hit: 0
STLB Hit, L2C data hit: 0
STLB Hit, LLC data hit: 0
STLB Hit, LLC data miss: 0
STLB STLB hints to L2: 0
L1D TOTAL     ACCESS:   13089803  HIT:   11968421  MISS:    1121382  HIT %:    91.4332  MISS %:    8.56684   MPKI: 22.4276
L1D LOAD DATA	ACCESS:    6557409  HIT:    5816325  MISS:     741084  HIT %:    88.6985  MISS %:    11.3015  MPKI: 14.8217
L1D RFO DATA	ACCESS:    6205597  HIT:    5919860  MISS:     285737  HIT %:    95.3955  MISS %:     4.6045  MPKI: 5.71474
L1D PREFETCH DATA	ACCESS:     326797  HIT:     232236  MISS:      94561  HIT %:    71.0643  MISS %:    28.9357  MPKI: 1.89122

L1D PREFETCH  REQUESTED:     736230  ISSUED:     736230  USEFUL:      34048  USELESS:      68826
L1D USEFUL LOAD PREFETCHES:      34048 PREFETCH ISSUED TO LOWER LEVEL:     102936  ACCURACY: 33.0769
 TIMELY PREFETCHES:      34048 LATE PREFETCHES: 8323 DROPPED PREFETCHES: 9
L1D AVERAGE MISS LATENCY: 233300 cycles
L1D RQ	ACCESS:   10688496	FORWARD:          0	MERGED:    3932259	TO_CACHE:    6592061
L1D WQ	ACCESS:    6949231	FORWARD:     164590	MERGED:     197021	TO_CACHE:    6752210
L1D PQ	ACCESS:     368322	FORWARD:          0	MERGED:          0	TO_CACHE:     367908

L1D UNIQUE REGIONS ACCESSED: 0
L1D REGIONS CONFLICTS: 0
L1D Cross Page Prefetch Requests: 6795
L1D Same Page Prefetch Requests: 745627
L1D ROI Sum of L1D PQ occupancy: 4684876
L1D PREFETCHES PUSHED FROM L2C: 0
L1I TOTAL     ACCESS:    7168505  HIT:    4401526  MISS:    2766979  HIT %:    61.4009  MISS %:    38.5991   MPKI: 55.3396
L1I LOAD INSTRUCTION	ACCESS:    6501789  HIT:    3734810  MISS:    2766979  HIT %:    57.4428  MISS %:    42.5572  MPKI: 55.3396
L1I PREFETCH INSTRUCTION	ACCESS:     666716  HIT:     666716  MISS:          0  HIT %:        100  MISS %:          0  MPKI: 0

L1I PREFETCH  REQUESTED:    1609443  ISSUED:    1609443  USEFUL:          0  USELESS:          0
L1I USEFUL LOAD PREFETCHES:          0 PREFETCH ISSUED TO LOWER LEVEL:          0  ACCURACY: -nan
 TIMELY PREFETCHES:          0 LATE PREFETCHES: 0 DROPPED PREFETCHES: 0
L1I AVERAGE MISS LATENCY: 17.5609 cycles
L1I RQ	ACCESS:    9506534	FORWARD:          0	MERGED:    2675639	TO_CACHE:    6830895
L1I PQ	ACCESS:    1609443	FORWARD:          0	MERGED:     429448	TO_CACHE:    1179995

L1BTB TOTAL     ACCESS:    5669889  HIT:    2035142  MISS:    3634747  HIT %:    35.8939  MISS %:    64.1061   MPKI: 72.6949
L1BTB BRANCH_DIRECT_JUMP	ACCESS:     548319 HIT:     144309 MISS:     404010 AVERAGE STALL: 52.2111 AVERAGE FETCH STALL: 14.9144 AVERAGE FETCH QUEUE STALL: 18.6697 AVERAGE DECODE STALL: 17.7235 AVERAGE EXECUTE STALL: 2.08603e+15
L1BTB BRANCH_INDIRECT	ACCESS:     182415 HIT:      65638 MISS:     116777 AVERAGE STALL: 103.128 AVERAGE FETCH STALL: 11.2017 AVERAGE FETCH QUEUE STALL: 13.838 AVERAGE DECODE STALL: 12.001 AVERAGE EXECUTE STALL: 65.124
L1BTB BRANCH_CONDITIONAL	ACCESS:    2700562 HIT:    1405928 MISS:    1294634 AVERAGE STALL: 57.6415 AVERAGE FETCH STALL: 22.8587 AVERAGE FETCH QUEUE STALL: 18.4809 AVERAGE DECODE STALL: 15.6025 AVERAGE EXECUTE STALL: 3.51166e+15
L1BTB BRANCH_DIRECT_CALL	ACCESS:     946969 HIT:     106409 MISS:     840560 AVERAGE STALL: 68.2083 AVERAGE FETCH STALL: 35.5979 AVERAGE FETCH QUEUE STALL: 18.4198 AVERAGE DECODE STALL: 13.3694 AVERAGE EXECUTE STALL: 1.20804e+16
L1BTB BRANCH_INDIRECT_CALL	ACCESS:     172330 HIT:      21724 MISS:     150606 AVERAGE STALL: 132.646 AVERAGE FETCH STALL: 13.0452 AVERAGE FETCH QUEUE STALL: 14.3232 AVERAGE DECODE STALL: 10.6273 AVERAGE EXECUTE STALL: 94.1592
L1BTB BRANCH_RETURN	ACCESS:    1119294 HIT:     291134 MISS:     828160 AVERAGE STALL: 44.5116 AVERAGE FETCH STALL: 16.0979 AVERAGE FETCH QUEUE STALL: 3.94899 AVERAGE DECODE STALL: 5.8069 AVERAGE EXECUTE STALL: 4.35188e+14
L1BTB BRANCH_OTHER ACCESS:          0 HIT:          0 MISS:          0 AVERAGE STALL: -nan AVERAGE FETCH STALL: -nan AVERAGE FETCH QUEUE STALL: -nan AVERAGE DECODE STALL: -nan AVERAGE EXECUTE STALL: -nan
L1BTB TOTAL ROB OCCUPANCY AT BTB MISS: 2.42158

L2BTB TOTAL     ACCESS:    3609426  HIT:    3543846  MISS:      65580  HIT %:    98.1831  MISS %:    1.81691   MPKI: 1.3116
L2BTB BRANCH_DIRECT_JUMP	ACCESS:     399909 HIT:     395114 MISS:       4795 AVERAGE STALL: 52.2111 AVERAGE FETCH STALL: 14.9144 AVERAGE FETCH QUEUE STALL: 18.6697 AVERAGE DECODE STALL: 17.7235 AVERAGE EXECUTE STALL: 2.08603e+15
L2BTB BRANCH_INDIRECT	ACCESS:     106453 HIT:     103783 MISS:       2670 AVERAGE STALL: 103.128 AVERAGE FETCH STALL: 11.2017 AVERAGE FETCH QUEUE STALL: 13.838 AVERAGE DECODE STALL: 12.001 AVERAGE EXECUTE STALL: 65.124
L2BTB BRANCH_CONDITIONAL	ACCESS:    1294634 HIT:    1289240 MISS:       5394 AVERAGE STALL: 57.6415 AVERAGE FETCH STALL: 22.8587 AVERAGE FETCH QUEUE STALL: 18.4809 AVERAGE DECODE STALL: 15.6025 AVERAGE EXECUTE STALL: 3.51166e+15
L2BTB BRANCH_DIRECT_CALL	ACCESS:     840560 HIT:     838961 MISS:       1599 AVERAGE STALL: 68.2083 AVERAGE FETCH STALL: 35.5979 AVERAGE FETCH QUEUE STALL: 18.4198 AVERAGE DECODE STALL: 13.3694 AVERAGE EXECUTE STALL: 1.20804e+16
L2BTB BRANCH_INDIRECT_CALL	ACCESS:     141124 HIT:     131026 MISS:      10098 AVERAGE STALL: 132.646 AVERAGE FETCH STALL: 13.0452 AVERAGE FETCH QUEUE STALL: 14.3232 AVERAGE DECODE STALL: 10.6273 AVERAGE EXECUTE STALL: 94.1592
L2BTB BRANCH_RETURN	ACCESS:     826746 HIT:     785722 MISS:      41024 AVERAGE STALL: 44.5116 AVERAGE FETCH STALL: 16.0979 AVERAGE FETCH QUEUE STALL: 3.94899 AVERAGE DECODE STALL: 5.8069 AVERAGE EXECUTE STALL: 4.35188e+14
L2BTB BRANCH_OTHER ACCESS:          0 HIT:          0 MISS:          0 AVERAGE STALL: -nan AVERAGE FETCH STALL: -nan AVERAGE FETCH QUEUE STALL: -nan AVERAGE DECODE STALL: -nan AVERAGE EXECUTE STALL: -nan
L2BTB TOTAL ROB OCCUPANCY AT BTB MISS: 134.215

L2C TOTAL     ACCESS:    4497729  HIT:    3976704  MISS:     521025  HIT %:    88.4158  MISS %:    11.5842   MPKI: 10.4205
L2C LOAD INSTRUCTION	ACCESS:    2766980  HIT:    2475646  MISS:     291334  HIT %:     89.471  MISS %:     10.529  MPKI: 5.82668
L2C LOAD TRANSLATION INSTRUCTION	ACCESS:        294  HIT:         81  MISS:        213  HIT %:     27.551  MISS %:     72.449  MPKI: 0.00426
L2C LOAD DATA	ACCESS:     732732  HIT:     655983  MISS:      76749  HIT %:    89.5256  MISS %:    10.4744  MPKI: 1.53498
L2C RFO DATA	ACCESS:     285662  HIT:     226253  MISS:      59409  HIT %:     79.203  MISS %:     20.797  MPKI: 1.18818
L2C PREFETCH DATA	ACCESS:     187195  HIT:     115592  MISS:      71603  HIT %:    61.7495  MISS %:    38.2505  MPKI: 1.43206
L2C WRITEBACK DATA	ACCESS:     522951  HIT:     502609  MISS:      20342  HIT %:    96.1102  MISS %:    3.88985  MPKI: 0.40684
L2C LOAD TRANSLATION DATA	ACCESS:       1858  HIT:        500  MISS:       1358  HIT %:    26.9107  MISS %:    73.0893  MPKI: 0.02716
L2C TRANSLATION FROM L1D PREFETCHER DATA	ACCESS:         57  HIT:         40  MISS:         17  HIT %:    70.1754  MISS %:    29.8246  MPKI: 0.00034

L2C PREFETCH  REQUESTED:      91700  ISSUED:      91700  USEFUL:       7388  USELESS:      64639
L2C USEFUL LOAD PREFETCHES:       7388 PREFETCH ISSUED TO LOWER LEVEL:      71979  ACCURACY: 10.2641
 TIMELY PREFETCHES:       7388 LATE PREFETCHES: 376 DROPPED PREFETCHES: 0
L2C AVERAGE MISS LATENCY: 37.5925 cycles
L2C RQ	ACCESS:    3787642	FORWARD:          0	MERGED:          0	TO_CACHE:    3787591
L2C WQ	ACCESS:     522951	FORWARD:         51	MERGED:          0	TO_CACHE:     522951
L2C PQ	ACCESS:     194636	FORWARD:          0	MERGED:       3235	TO_CACHE:     191401

L2C Dense regions hint from L2: 0
PSCL5 TOTAL     ACCESS:       4176  HIT:       2088  MISS:       2088  HIT %:         50  MISS %:         50   MPKI: 0.04176
PSCL5 LOAD TRANSLATION INSTRUCTION	ACCESS:       4064  HIT:       2032  MISS:       2032  HIT %:         50  MISS %:         50  MPKI: 0.04064
PSCL5 TRANSLATION FROM L1D PREFETCHER INSTRUCTION	ACCESS:        112  HIT:         56  MISS:         56  HIT %:         50  MISS %:         50  MPKI: 0.00112


PSCL4 TOTAL     ACCESS:       3860  HIT:       1927  MISS:       1933  HIT %:    49.9223  MISS %:    50.0777   MPKI: 0.03866
PSCL4 LOAD TRANSLATION INSTRUCTION	ACCESS:       2859  HIT:       1875  MISS:        984  HIT %:    65.5824  MISS %:    34.4176  MPKI: 0.01968
PSCL4 TRANSLATION FROM L1D PREFETCHER INSTRUCTION	ACCESS:         79  HIT:         52  MISS:         27  HIT %:    65.8228  MISS %:    34.1772  MPKI: 0.00054
PSCL4 LOAD TRANSLATION DATA	ACCESS:        897  HIT:          0  MISS:        897  HIT %:          0  MISS %:        100  MPKI: 0.01794
PSCL4 TRANSLATION FROM L1D PREFETCHER DATA	ACCESS:         25  HIT:          0  MISS:         25  HIT %:          0  MISS %:        100  MPKI: 0.0005


PSCL3 TOTAL     ACCESS:       3908  HIT:       1951  MISS:       1957  HIT %:    49.9232  MISS %:    50.0768   MPKI: 0.03914
PSCL3 LOAD TRANSLATION INSTRUCTION	ACCESS:       2883  HIT:       1899  MISS:        984  HIT %:    65.8689  MISS %:    34.1311  MPKI: 0.01968
PSCL3 TRANSLATION FROM L1D PREFETCHER INSTRUCTION	ACCESS:         79  HIT:         52  MISS:         27  HIT %:    65.8228  MISS %:    34.1772  MPKI: 0.00054
PSCL3 LOAD TRANSLATION DATA	ACCESS:        921  HIT:          0  MISS:        921  HIT %:          0  MISS %:        100  MPKI: 0.01842
PSCL3 TRANSLATION FROM L1D PREFETCHER DATA	ACCESS:         25  HIT:          0  MISS:         25  HIT %:          0  MISS %:        100  MPKI: 0.0005


PSCL2 TOTAL     ACCESS:       4061  HIT:       1974  MISS:       2087  HIT %:    48.6087  MISS %:    51.3913   MPKI: 0.04174
PSCL2 LOAD TRANSLATION INSTRUCTION	ACCESS:       2182  HIT:       1919  MISS:        263  HIT %:    87.9468  MISS %:    12.0532  MPKI: 0.00526
PSCL2 TRANSLATION FROM L1D PREFETCHER INSTRUCTION	ACCESS:         55  HIT:         55  MISS:          0  HIT %:        100  MISS %:          0  MPKI: 0
PSCL2 LOAD TRANSLATION DATA	ACCESS:       1769  HIT:          0  MISS:       1769  HIT %:          0  MISS %:        100  MPKI: 0.03538
PSCL2 TRANSLATION FROM L1D PREFETCHER DATA	ACCESS:         55  HIT:          0  MISS:         55  HIT %:          0  MISS %:        100  MPKI: 0.0011


LLC TOTAL     ACCESS:     582544  HIT:     553575  MISS:      28969  HIT %:    95.0272  MISS %:    4.97284   MPKI: 0.57938
LLC LOAD INSTRUCTION	ACCESS:     291335  HIT:     290062  MISS:       1273  HIT %:     99.563  MISS %:   0.436954  MPKI: 0.02546
LLC LOAD TRANSLATION INSTRUCTION	ACCESS:        213  HIT:        158  MISS:         55  HIT %:    74.1784  MISS %:    25.8216  MPKI: 0.0011
LLC LOAD DATA	ACCESS:      76383  HIT:      72826  MISS:       3557  HIT %:    95.3432  MISS %:     4.6568  MPKI: 0.07114
LLC RFO DATA	ACCESS:      59396  HIT:      45654  MISS:      13742  HIT %:    76.8638  MISS %:    23.1362  MPKI: 0.27484
LLC PREFETCH DATA	ACCESS:      71979  HIT:      62077  MISS:       9902  HIT %:    86.2432  MISS %:    13.7568  MPKI: 0.19804
LLC WRITEBACK DATA	ACCESS:      81863  HIT:      81534  MISS:        329  HIT %:    99.5981  MISS %:   0.401891  MPKI: 0.00658
LLC LOAD TRANSLATION DATA	ACCESS:       1358  HIT:       1249  MISS:        109  HIT %:    91.9735  MISS %:    8.02651  MPKI: 0.00218
LLC TRANSLATION FROM L1D PREFETCHER DATA	ACCESS:         17  HIT:         15  MISS:          2  HIT %:    88.2353  MISS %:    11.7647  MPKI: 4e-05

LLC AVERAGE MISS LATENCY: 156.269 cycles
LLC RQ	ACCESS:     428706	FORWARD:          0	MERGED:          0	TO_CACHE:     428703
LLC WQ	ACCESS:      81864	FORWARD:          3	MERGED:          0	TO_CACHE:      81864
LLC PQ	ACCESS:      71979	FORWARD:          0	MERGED:          0	TO_CACHE:      71979

LLC Dense regions hint to LLC: 0

RAW hits: 1943187
Loads Generated: 12631682
Loads sent to L1D: 10688496
Stores Generated: 6949229
Stores sent to L1D: 6949231
Major fault: 0 Minor fault: 2596
Allocated PAGES: 2596

stream: 
stream:times selected: 1179781
stream:pref_filled: 122367
stream:pref_useful: 24452
stream:pref_late: 7170
stream:misses: 7989
stream:misses_by_poll: 0

CS: 
CS:times selected: 176722
CS:pref_filled: 58936
CS:pref_useful: 35589
CS:pref_late: 6950
CS:misses: 15909
CS:misses_by_poll: 3

CPLX: 
CPLX:times selected: 1001845
CPLX:pref_filled: 19802
CPLX:pref_useful: 4673
CPLX:pref_late: 3263
CPLX:misses: 94592
CPLX:misses_by_poll: 3

NL_L1: 
NL:times selected: 21234
NL:pref_filled: 710
NL:pref_useful: 304
NL:pref_late: 352
NL:misses: 1788
NL:misses_by_poll: 0

total selections: 2379582
total_filled: 94561
total_useful: 34048
total_late: 19052
total_polluted: 6
total_misses_after_warmup: 775739
conflicts: 5529105

test: 114327

DRAM Statistics
 CHANNEL 0
 RQ ROW_BUFFER_HIT:      10736  ROW_BUFFER_MISS:      17896
 DBUS_CONGESTED:         12
 WQ ROW_BUFFER_HIT:       1437  ROW_BUFFER_MISS:      12123  FULL:          0

 AVG_CONGESTED_CYCLE: 5

CPU 0 Branch Prediction Accuracy: 99.8107% MPKI: 0.3463 Average ROB Occupancy at Mispredict: 178.521
Branch types
NOT_BRANCH: 40851036 81.7021%
BRANCH_DIRECT_JUMP: 548319 1.09664%
BRANCH_INDIRECT: 182415 0.36483%
BRANCH_CONDITIONAL: 6179580 12.3592%
BRANCH_DIRECT_CALL: 946969 1.89394%
BRANCH_INDIRECT_CALL: 172330 0.34466%
BRANCH_RETURN: 1119294 2.23859%
BRANCH_OTHER: 0 0%

DRAM PAGES: 1048576
Allocated PAGES: 2596
Average_ROB_Occupancy: 236.631
Average_Decode_Occupancy: 33.8391
Average_FTQ_Occupancy: 13.1007
Indirect max targets: 14 Average targets: 1.17949
Branch_type:  BRANCH_DIRECT_JUMP:  Count Percentage: 3.23342 6.23304 3.41641 5.78579 4.6884 5.96084 0.926259 69.7558 
Branch_type:  BRANCH_INDIRECT:  Count Percentage: 11.7558 3.40708 2.50286 9.68463 11.3361 4.01629 2.01527 55.282 
Branch_type:  BRANCH_CONDITIONAL:  Count Percentage: 20.964 3.81135 1.17721 4.19443 3.29439 4.35091 0.695033 61.5127 
Branch_type:  BRANCH_DIRECT_CALL:  Count Percentage: 0.769623 1.27911 1.11834 3.35523 3.18151 2.3497 0.699499 87.247 
Branch_type:  BRANCH_INDIRECT_CALL:  Count Percentage: 9.55496 0.559713 2.9957 4.83883 1.09791 2.98989 0.995563 76.9674 
Branch_type:  BRANCH_RETURN:  Count Percentage: 5.64002 0.829494 1.62737 6.04178 3.84412 4.62106 1.13061 76.2656 
Branch_type:  BRANCH_DIRECT_JUMP:  Total Count: 35446 68329 37452 63426 51396 65345 10154 764690 
Branch_type:  BRANCH_INDIRECT:  Total Count: 42916 12438 9137 35355 41384 14662 7357 201814 
Branch_type:  BRANCH_CONDITIONAL:  Total Count: 2590387 470945 145461 518280 407068 537615 85881 7600748 
Branch_type:  BRANCH_DIRECT_CALL:  Total Count: 14553 24187 21147 63445 60160 44431 13227 1649776 
Branch_type:  BRANCH_INDIRECT_CALL:  Total Count: 32862 1925 10303 16642 3776 10283 3424 264711 
Branch_type:  BRANCH_RETURN:  Total Count: 126094 18545 36383 135076 85943 103313 25277 1705069 
Number of unique branch instructions: 10649
Upper 32 bits: 
aaaa
ffff
ffff0000
Unique upper 32 bits: 3
Unique upper 36 bits: 3
Unique upper 40 bits: 5
Unique upper 44 bits: 32
Unique upper 48 bits: 157
Variant_0 : 1436 0.350586
Variant_1 : 2647 0.64624
Variant_2 : 0 0
Variant_3 : 0 0
Offset_3 4410
Offset_4 251
Offset_5 474
Offset_6 534
Offset_7 629
Offset_8 564
Offset_9 513
Offset_10 418
Offset_11 353
Offset_12 322
Offset_13 232
Offset_14 245
Offset_15 194
Offset_16 227
Offset_17 164
Offset_18 149
Offset_19 251
Offset_20 140
Offset_21 235
Offset_22 410
Offset_23 241
Offset_24 341
Offset_25 117
Offset_47 92
decode_dispatch_called: 25383428 69.9348
Dispatch_width: 0 13601527 53.5843 37.474
Dispatch_width: 1 955599 3.76466 2.6328
Dispatch_width: 2 803841 3.16679 2.21469
Dispatch_width: 3 489864 1.92986 1.34964
Dispatch_width: 4 5538119 21.8179 15.2583
Dispatch_width: 5 152214 0.599659 0.41937
Dispatch_width: 6 3842264 15.1369 10.586
Empty_decode_cycles: 10912434 30.0652
ROB_full_cycles: 8787013 24.2094
Starvation_cycles_per_kilo_instr: 236.666
Starvation_cycles_per_kilo_instr_3: 179.763
Starvation_cycles_per_kilo_instr_0: 157.269
Branch_type_1  (3,1)  (4,7)  (5,38)  (6,73)  (7,123)  (8,147)  (9,137)  (10,111)  (11,79)  (12,55)  (13,11)  (14,2)  (15,3)  (16,4)  (18,1)  (19,5)  (20,2)  (21,1)  (22,3)  (23,2)  (24,10)  (25,12) 
Branch_type_2  (3,1)  (4,1)  (5,1)  (8,4)  (9,4)  (10,1)  (12,1)  (13,1)  (14,1)  (16,3)  (17,2)  (20,2)  (21,2)  (23,5)  (24,1)  (47,41) 
Branch_type_3  (3,4408)  (4,243)  (5,431)  (6,445)  (7,477)  (8,350)  (9,280)  (10,167)  (11,138)  (12,62)  (13,10) 
Branch_type_4  (6,3)  (7,8)  (8,25)  (9,53)  (10,66)  (11,70)  (12,113)  (13,98)  (14,111)  (15,92)  (16,99)  (17,76)  (18,65)  (19,122)  (20,71)  (21,124)  (22,216)  (23,136)  (24,197)  (25,101) 
Branch_type_5  (8,3)  (9,1)  (10,4)  (11,5)  (12,3)  (13,14)  (14,16)  (15,11)  (16,22)  (17,11)  (18,23)  (19,14)  (20,11)  (21,13)  (22,43)  (23,26)  (24,37) 
Branch_type_6  (5,4)  (6,13)  (7,21)  (8,35)  (9,38)  (10,69)  (11,61)  (12,88)  (13,98)  (14,115)  (15,88)  (16,99)  (17,75)  (18,60)  (19,110)  (20,54)  (21,95)  (22,148)  (23,72)  (24,96)  (25,4)  (47,51) 
Unique trigger count: 
Variant_0_evicts_0 : 0
Variant_0_evicts_1 : 0
Variant_0_evicts_2 : 0
Variant_0_evicts_3 : 0
Variant_1_evicts_0 : 0
Variant_1_evicts_1 : 0
Variant_1_evicts_2 : 0
Variant_1_evicts_3 : 0
Variant_2_evicts_0 : 0
Variant_2_evicts_1 : 0
Variant_2_evicts_2 : 0
Variant_2_evicts_3 : 0
Variant_3_evicts_0 : 0
Variant_3_evicts_1 : 0
Variant_3_evicts_2 : 0
Variant_3_evicts_3 : 0
BTB PER SET UNIQUE ADDR: 17 18 17 25 15 23 27 15 15 24 20 14 19 18 16 22 22 23 19 16 22 16 13 15 16 25 17 18 14 17 26 16 18 18 15 17 18 20 16 24 21 16 17 22 14 22 18 13 24 17 15 17 15 20 15 17 19 18 15 16 21 16 15 23 13 18 17 16 17 15 22 25 19 14 17 21 14 19 23 15 17 18 19 23 15 27 22 16 16 14 20 21 24 16 15 17 18 13 18 19 17 28 20 19 18 21 18 15 22 15 11 26 15 18 21 16 22 15 17 19 23 13 10 20 14 12 22 14 15 21 25 16 24 14 18 31 24 14 15 23 19 22 21 17 23 14 18 26 14 18 19 12 14 22 28 16 16 14 12 24 19 17 15 20 18 18 19 19 16 21 19 17 20 12 19 14 19 23 14 16 19 21 18 17 21 16 19 20 17 20 20 19 22 19 16 22 18 23 17 13 14 23 18 16 17 13 17 17 15 18 18 17 21 19 14 16 20 9 15 19 19 19 21 13 19 22 20 18 15 19 18 18 30 17 20 18 18 27 23 15 23 14 14 18 18 31 19 13 16 15 18 13 22 16 17 18 17 18 21 20 22 17 18 20 19 12 17 18 19 22 21 20 18 15 16 25 16 22 26 15 15 22 21 16 20 14 17 24 22 20 20 21 18 18 14 15 15 23 21 19 21 22 17 24 15 22 21 18 22 19 19 21 25 15 13 21 17 17 21 18 17 16 15 18 15 31 20 17 18 18 22 18 23 17 14 21 17 19 21 17 18 14 17 16 17 15 16 20 17 25 20 20 16 16 22 17 16 16 16 22 15 11 19 22 22 21 21 20 16 15 15 23 15 22 24 15 19 24 29 18 24 11 16 23 23 17 19 24 9 20 25 15 20 21 21 22 21 14 17 22 17 26 20 16 18 19 11 20 16 12 15 19 17 17 20 17 17 23 19 17 17 17 17 22 15 17 15 17 18 22 18 13 18 12 14 24 13 22 23 15 14 23 23 17 21 18 15 20 13 21 26 15 20 18 18 28 14 19 15 23 14 20 24 18 21 13 16 22 15 22 31 11 14 24 25 16 19 16 16 21 16 14 17 23 15 23 16 17 19 21 23 13 20 16 19 19 14 17 27 14 18 21 14 18 19 17 17 26 17 22 17 14 
BTB PER SET COUNT: 793 22 657 689 15 431 30 16 23 143 25 15 22 1602 126 26 27 1123 552 71 24 18 15 15 17 28 18 1975 14 18 2491 647 23 14737 15 22 18 21 16 28 832 16 1459 23 978 989 1009 72 26 17 20 445 17 1035 16 18 20 24 16 18 25 19 15 400 14 775 19 17 17 16 405 130 23 818 19 25 14 20 94 15 20 1075 250 284 85 274 23 7788 30 16 124 1491 964 21 17 18 1011 13 26 207 20 2656 25 34 23 23 23 1121 608 17 13 646 16 20 26 1500 235 17 411 19 24 14 10 21 17 1483 25 14 337 627 351 16 27 16 523 422 28 14 22 25 21 29 25 505 26 16 1492 399 18 24 20 13 18 24 38 19 20 17 12 612 1010 19 18 23 22 20 363 31 20 3543 19 21 1011 13 1105 498 24 600 14 18 25 22 32 400 98 22 21 80 189 984 798 406 317 731 24 27 18 26 17 13 19 907 22 647 42 14 499 40 2014 19 21 17 24 21 18 16 21 2901 193 26 23 21 26 16 19 25 211 35 16 21 42 1010 36 17 23 122 630 27 1112 1495 443 2954 15 194 19 897 81 13 4242 3719 18 36 29 486 524 19 1077 23 25 985 25 20 3823 23 22 16 57 22 20 22 1255 347 20 16 17 437 16 24 31 17 15 306 23 18 24 15 17 379 26 30 21 681 21 1491 1867 1425 15 25 24 1173 984 227 17 190 23 31 21 2376 23 27 2965 26 1779 73 17 612 29 21 551 23 19 27 15 18120 15 33 24 206 39 24 360 304 24 24 401 1233 17 24 23 19 20 15 19 18 19 377 1736 21 879 35 70 22 16 16 23 979 29 18 17 27 15 15 254 416 27 31 26 33 1042 44 16 318 17 143 30 15 1844 36 44 22 1501 13 25 27 1745 18 1310 27 9 311 143 15 23 24 596 594 356 498 771 24 1009 579 149 19 19 1244 12 181 19 12 17 36 18 18 27 17 17 510 21 160 502 17 399 2874 18 21 18 18 23 1013 1491 13 21 388 16 28 13 366 26 17 17 49 29 19 26 29 15 1047 496 28 32 162 1013 860 20 96 14 22 976 27 430 106 24 18 57 137 19 26 16 26 1097 11 15 31 27 2062 30 22 19 1103 209 1032 20 859 17 507 16 20 19 22 24 14 114 53 148 20 15 18 34 14 24 21 420 18 403 274 18 38 19 28 20 37 
To predecode: 0
Predecoding something: 0
Predecode request dropped: 0
sizeofblock_0 0
sizeofblock_1 34865
sizeofblock_2 100540
sizeofblock_3 0
sizeofblock_4 0
sizeofblock_5 0
sizeofblock_6 0
sizeofblock_7 0
sizeofblock_8 0
Variant_0 Correct: 1617172 Incorrect: 0 Accuracy: 1
Variant_1 Correct: 5748492 Incorrect: 0 Accuracy: 1
Variant_2 Correct: 0 Incorrect: 0 Accuracy: -nan
Variant_3 Correct: 0 Incorrect: 0 Accuracy: -nan
