
*** ChampSim Multicore Out-of-Order Simulator ***

Warmup Instructions: 50000000
Simulation Instructions: 50000000
Number of CPUs: 1
LLC sets: 2048
LLC ways: 16
Off-chip DRAM Size: 4096 MB Channels: 1 Width: 64-bit Data Rate: 6400 MT/s
CPU 0 runs ./micro_traces/srv197.trace.gz
.gz
ITLB has LRU replacement policy
DTLB has LRU replacement policy
STLB has LRU replacement policy
FDIP Prefetcher at L1I
L1I has LRU replacement policy
L1D has LRU replacement policy
Initialize SRRIP state for L2C
Initialize DRRIP state for LLC
Heartbeat_Variant_0 : 1342 0.327637 per_variant_size: 0 1342 0 0 0 0 0 0 0 
Heartbeat_Variant_1 : 2566 0.626465 per_variant_size: 0 548 2018 0 0 0 0 0 0 
Heartbeat_Variant_2 : 0 0 per_variant_size: 0 0 0 0 0 0 0 0 0 
Heartbeat_Variant_3 : 0 0 per_variant_size: 0 0 0 0 0 0 0 0 0 
Heartbeat_Variant_0_evicts 0 : 5784 1 : 518 2 : 0 3 : 0 
Heartbeat_Variant_1_evicts 0 : 480 1 : 0 2 : 0 3 : 0 
Heartbeat_Variant_2_evicts 0 : 0 1 : 0 2 : 0 3 : 0 
Heartbeat_Variant_3_evicts 0 : 0 1 : 0 2 : 0 3 : 0 
Heartbeat CPU 0 instructions: 10000002 cycles: 2795172 heartbeat IPC: 3.5776 cumulative IPC: 3.5776 (Simulation time: 0 hr 1 min 44 sec) 
Heartbeat_Variant_0 : 1342 0.327637 per_variant_size: 0 1342 0 0 0 0 0 0 0 
Heartbeat_Variant_1 : 2574 0.628418 per_variant_size: 0 546 2028 0 0 0 0 0 0 
Heartbeat_Variant_2 : 0 0 per_variant_size: 0 0 0 0 0 0 0 0 0 
Heartbeat_Variant_3 : 0 0 per_variant_size: 0 0 0 0 0 0 0 0 0 
Heartbeat_Variant_0_evicts 0 : 5595 1 : 17 2 : 0 3 : 0 
Heartbeat_Variant_1_evicts 0 : 18 1 : 0 2 : 0 3 : 0 
Heartbeat_Variant_2_evicts 0 : 0 1 : 0 2 : 0 3 : 0 
Heartbeat_Variant_3_evicts 0 : 0 1 : 0 2 : 0 3 : 0 
Heartbeat CPU 0 instructions: 20000001 cycles: 5590798 heartbeat IPC: 3.57702 cumulative IPC: 3.57731 (Simulation time: 0 hr 3 min 23 sec) 
Heartbeat_Variant_0 : 1343 0.327881 per_variant_size: 0 1343 0 0 0 0 0 0 0 
Heartbeat_Variant_1 : 2599 0.634521 per_variant_size: 0 540 2059 0 0 0 0 0 0 
Heartbeat_Variant_2 : 0 0 per_variant_size: 0 0 0 0 0 0 0 0 0 
Heartbeat_Variant_3 : 0 0 per_variant_size: 0 0 0 0 0 0 0 0 0 
Heartbeat_Variant_0_evicts 0 : 5680 1 : 95 2 : 0 3 : 0 
Heartbeat_Variant_1_evicts 0 : 96 1 : 0 2 : 0 3 : 0 
Heartbeat_Variant_2_evicts 0 : 0 1 : 0 2 : 0 3 : 0 
Heartbeat_Variant_3_evicts 0 : 0 1 : 0 2 : 0 3 : 0 
Heartbeat CPU 0 instructions: 30000003 cycles: 8386690 heartbeat IPC: 3.57668 cumulative IPC: 3.5771 (Simulation time: 0 hr 5 min 1 sec) 
Heartbeat_Variant_0 : 1368 0.333984 per_variant_size: 0 1368 0 0 0 0 0 0 0 
Heartbeat_Variant_1 : 2644 0.645508 per_variant_size: 0 487 2157 0 0 0 0 0 0 
Heartbeat_Variant_2 : 0 0 per_variant_size: 0 0 0 0 0 0 0 0 0 
Heartbeat_Variant_3 : 0 0 per_variant_size: 0 0 0 0 0 0 0 0 0 
Heartbeat_Variant_0_evicts 0 : 5791 1 : 402 2 : 0 3 : 0 
Heartbeat_Variant_1_evicts 0 : 396 1 : 0 2 : 0 3 : 0 
Heartbeat_Variant_2_evicts 0 : 0 1 : 0 2 : 0 3 : 0 
Heartbeat_Variant_3_evicts 0 : 0 1 : 0 2 : 0 3 : 0 
Heartbeat CPU 0 instructions: 40000000 cycles: 11181560 heartbeat IPC: 3.57798 cumulative IPC: 3.57732 (Simulation time: 0 hr 6 min 38 sec) 
Heartbeat_Variant_0 : 1378 0.336426 per_variant_size: 0 1378 0 0 0 0 0 0 0 
Heartbeat_Variant_1 : 2640 0.644531 per_variant_size: 0 480 2160 0 0 0 0 0 0 
Heartbeat_Variant_2 : 0 0 per_variant_size: 0 0 0 0 0 0 0 0 0 
Heartbeat_Variant_3 : 0 0 per_variant_size: 0 0 0 0 0 0 0 0 0 
Heartbeat_Variant_0_evicts 0 : 5629 1 : 99 2 : 0 3 : 0 
Heartbeat_Variant_1_evicts 0 : 90 1 : 0 2 : 0 3 : 0 
Heartbeat_Variant_2_evicts 0 : 0 1 : 0 2 : 0 3 : 0 
Heartbeat_Variant_3_evicts 0 : 0 1 : 0 2 : 0 3 : 0 
Heartbeat CPU 0 instructions: 50000003 cycles: 13976500 heartbeat IPC: 3.5779 cumulative IPC: 3.57743 (Simulation time: 0 hr 8 min 18 sec) 

Warmup complete CPU 0 instructions: 50000003 cycles: 13976500 (Simulation time: 0 hr 8 min 18 sec) 

Cycle: 20000000 FTQ IN: 58416143 FTQ occupancy: 20.483 DECODE IN: 58416059 DECODE occupancy: 53.3171 ROB IN: 58415999 ROB occupancy: 317.727 ROB OUT: 58415647
Heartbeat_Variant_0 : 1382 0.337402 per_variant_size: 0 1382 0 0 0 0 0 0 0 
Heartbeat_Variant_1 : 2647 0.64624 per_variant_size: 0 476 2171 0 0 0 0 0 0 
Heartbeat_Variant_2 : 0 0 per_variant_size: 0 0 0 0 0 0 0 0 0 
Heartbeat_Variant_3 : 0 0 per_variant_size: 0 0 0 0 0 0 0 0 0 
Heartbeat_Variant_0_evicts 0 : 5610 1 : 179 2 : 0 3 : 0 
Heartbeat_Variant_1_evicts 0 : 175 1 : 0 2 : 0 3 : 0 
Heartbeat_Variant_2_evicts 0 : 0 1 : 0 2 : 0 3 : 0 
Heartbeat_Variant_3_evicts 0 : 0 1 : 0 2 : 0 3 : 0 
Heartbeat CPU 0 instructions: 60000002 cycles: 21126877 heartbeat IPC: 1.39853 cumulative IPC: 1.39853 (Simulation time: 0 hr 10 min 10 sec) 
Heartbeat_Variant_0 : 1384 0.337891 per_variant_size: 0 1384 0 0 0 0 0 0 0 
Heartbeat_Variant_1 : 2646 0.645996 per_variant_size: 0 474 2172 0 0 0 0 0 0 
Heartbeat_Variant_2 : 0 0 per_variant_size: 0 0 0 0 0 0 0 0 0 
Heartbeat_Variant_3 : 0 0 per_variant_size: 0 0 0 0 0 0 0 0 0 
Heartbeat_Variant_0_evicts 0 : 5645 1 : 131 2 : 0 3 : 0 
Heartbeat_Variant_1_evicts 0 : 129 1 : 0 2 : 0 3 : 0 
Heartbeat_Variant_2_evicts 0 : 0 1 : 0 2 : 0 3 : 0 
Heartbeat_Variant_3_evicts 0 : 0 1 : 0 2 : 0 3 : 0 
Heartbeat CPU 0 instructions: 70000001 cycles: 28306903 heartbeat IPC: 1.39275 cumulative IPC: 1.39563 (Simulation time: 0 hr 12 min 4 sec) 
Cycle: 30000000 FTQ IN: 13960373 FTQ occupancy: 14.9044 DECODE IN: 13960457 DECODE occupancy: 38.2165 ROB IN: 13960517 ROB occupancy: 249.289 ROB OUT: 13960863
Heartbeat_Variant_0 : 1386 0.338379 per_variant_size: 0 1386 0 0 0 0 0 0 0 
Heartbeat_Variant_1 : 2652 0.647461 per_variant_size: 0 457 2195 0 0 0 0 0 0 
Heartbeat_Variant_2 : 0 0 per_variant_size: 0 0 0 0 0 0 0 0 0 
Heartbeat_Variant_3 : 0 0 per_variant_size: 0 0 0 0 0 0 0 0 0 
Heartbeat_Variant_0_evicts 0 : 5597 1 : 78 2 : 0 3 : 0 
Heartbeat_Variant_1_evicts 0 : 76 1 : 0 2 : 0 3 : 0 
Heartbeat_Variant_2_evicts 0 : 0 1 : 0 2 : 0 3 : 0 
Heartbeat_Variant_3_evicts 0 : 0 1 : 0 2 : 0 3 : 0 
Heartbeat CPU 0 instructions: 80000003 cycles: 35441406 heartbeat IPC: 1.40164 cumulative IPC: 1.39763 (Simulation time: 0 hr 13 min 59 sec) 
Cycle: 40000000 FTQ IN: 13962463 FTQ occupancy: 14.9419 DECODE IN: 13962340 DECODE occupancy: 38.2313 ROB IN: 13962280 ROB occupancy: 248.002 ROB OUT: 13961934
Heartbeat_Variant_0 : 1390 0.339355 per_variant_size: 0 1390 0 0 0 0 0 0 0 
Heartbeat_Variant_1 : 2653 0.647705 per_variant_size: 0 472 2181 0 0 0 0 0 0 
Heartbeat_Variant_2 : 0 0 per_variant_size: 0 0 0 0 0 0 0 0 0 
Heartbeat_Variant_3 : 0 0 per_variant_size: 0 0 0 0 0 0 0 0 0 
Heartbeat_Variant_0_evicts 0 : 5761 1 : 112 2 : 0 3 : 0 
Heartbeat_Variant_1_evicts 0 : 109 1 : 0 2 : 0 3 : 0 
Heartbeat_Variant_2_evicts 0 : 0 1 : 0 2 : 0 3 : 0 
Heartbeat_Variant_3_evicts 0 : 0 1 : 0 2 : 0 3 : 0 
Heartbeat CPU 0 instructions: 90000001 cycles: 42604034 heartbeat IPC: 1.39614 cumulative IPC: 1.39726 (Simulation time: 0 hr 15 min 53 sec) 
Heartbeat_Variant_0 : 1390 0.339355 per_variant_size: 0 1390 0 0 0 0 0 0 0 
Heartbeat_Variant_1 : 2655 0.648193 per_variant_size: 0 466 2189 0 0 0 0 0 0 
Heartbeat_Variant_2 : 0 0 per_variant_size: 0 0 0 0 0 0 0 0 0 
Heartbeat_Variant_3 : 0 0 per_variant_size: 0 0 0 0 0 0 0 0 0 
Heartbeat_Variant_0_evicts 0 : 5631 1 : 44 2 : 0 3 : 0 
Heartbeat_Variant_1_evicts 0 : 44 1 : 0 2 : 0 3 : 0 
Heartbeat_Variant_2_evicts 0 : 0 1 : 0 2 : 0 3 : 0 
Heartbeat_Variant_3_evicts 0 : 0 1 : 0 2 : 0 3 : 0 
Heartbeat CPU 0 instructions: 100000001 cycles: 49698615 heartbeat IPC: 1.40953 cumulative IPC: 1.39969 (Simulation time: 0 hr 17 min 44 sec) 
Finished CPU 0 instructions: 50000002 cycles: 35722116 cumulative IPC: 1.39969 (Simulation time: 0 hr 17 min 44 sec) 

ChampSim completed all CPUs

Region of Interest Statistics

CPU 0 cumulative IPC: 1.39969 instructions: 50000002 cycles: 35722116
 Fetch stage stalled: 46.038  Sim cycles: 35722116 fetch stall cycle: 16445762
 Empty decode stage: 25.1552  Sim cycles: 35722116 fetch stall cycle: 8985980
ITLB TOTAL     ACCESS:    5832045  HIT:    5338275  MISS:     493770  HIT %:    91.5335  MISS %:     8.4665   MPKI: 9.8754
ITLB LOAD TRANSLATION INSTRUCTION	ACCESS:    5699007  HIT:    5205237  MISS:     493770  HIT %:    91.3359  MISS %:    8.66414  MPKI: 9.8754
ITLB TRANSLATION FROM L1D PREFETCHER INSTRUCTION	ACCESS:     133038  HIT:     133038  MISS:          0  HIT %:        100  MISS %:          0  MPKI: 0

ITLB AVERAGE MISS LATENCY: 9.04721 cycles
ITLB RQ	ACCESS:    7939328	FORWARD:          0	MERGED:    1621484	TO_CACHE:    6317844

DTLB TOTAL     ACCESS:    8954885  HIT:    8484402  MISS:     470483  HIT %:    94.7461  MISS %:    5.25393   MPKI: 9.40966
DTLB LOAD TRANSLATION DATA	ACCESS:    8954885  HIT:    8484402  MISS:     470483  HIT %:    94.7461  MISS %:    5.25393  MPKI: 9.40966

DTLB AVERAGE MISS LATENCY: 9.31086 cycles
DTLB RQ	ACCESS:   13324748	FORWARD:          0	MERGED:    4333764	TO_CACHE:    8990984

STLB TOTAL     ACCESS:    1211698  HIT:    1209720  MISS:       1978  HIT %:    99.8368  MISS %:   0.163242   MPKI: 0.03956
STLB LOAD TRANSLATION INSTRUCTION	ACCESS:     493770  HIT:     493546  MISS:        224  HIT %:    99.9546  MISS %:  0.0453653  MPKI: 0.00448
STLB LOAD TRANSLATION DATA	ACCESS:     470483  HIT:     468757  MISS:       1726  HIT %:    99.6331  MISS %:   0.366857  MPKI: 0.03452
STLB TRANSLATION FROM L1D PREFETCHER DATA	ACCESS:     247445  HIT:     247417  MISS:         28  HIT %:    99.9887  MISS %:  0.0113156  MPKI: 0.00056

STLB AVERAGE MISS LATENCY: 70.5945 cycles
STLB RQ	ACCESS:    1332971	FORWARD:          0	MERGED:     121236	TO_CACHE:    1211735

STLB Hit, L1D data hit: 0
STLB Hit, L2C data hit: 0
STLB Hit, LLC data hit: 0
STLB Hit, LLC data miss: 0
STLB STLB hints to L2: 0
L1D TOTAL     ACCESS:   13147704  HIT:   12183646  MISS:     964058  HIT %:    92.6675  MISS %:    7.33252   MPKI: 19.2812
L1D LOAD DATA	ACCESS:    6545907  HIT:    5917011  MISS:     628896  HIT %:    90.3925  MISS %:    9.60747  MPKI: 12.5779
L1D RFO DATA	ACCESS:    6269655  HIT:    6021730  MISS:     247925  HIT %:    96.0456  MISS %:    3.95436  MPKI: 4.9585
L1D PREFETCH DATA	ACCESS:     332142  HIT:     244905  MISS:      87237  HIT %:     73.735  MISS %:     26.265  MPKI: 1.74474

L1D PREFETCH  REQUESTED:     737804  ISSUED:     737804  USEFUL:      30516  USELESS:      64216
L1D USEFUL LOAD PREFETCHES:      30516 PREFETCH ISSUED TO LOWER LEVEL:      94776  ACCURACY: 32.198
 TIMELY PREFETCHES:      30516 LATE PREFETCHES: 7502 DROPPED PREFETCHES: 4
L1D AVERAGE MISS LATENCY: 249218 cycles
L1D RQ	ACCESS:   10686612	FORWARD:          0	MERGED:    3941692	TO_CACHE:    6576311
L1D WQ	ACCESS:    6946339	FORWARD:     168977	MERGED:     197902	TO_CACHE:    6748437
L1D PQ	ACCESS:     369086	FORWARD:          0	MERGED:          0	TO_CACHE:     368718

L1D UNIQUE REGIONS ACCESSED: 0
L1D REGIONS CONFLICTS: 0
L1D Cross Page Prefetch Requests: 6801
L1D Same Page Prefetch Requests: 750199
L1D ROI Sum of L1D PQ occupancy: 4687721
L1D PREFETCHES PUSHED FROM L2C: 0
L1I TOTAL     ACCESS:    7125374  HIT:    4363824  MISS:    2761550  HIT %:    61.2434  MISS %:    38.7566   MPKI: 55.231
L1I LOAD INSTRUCTION	ACCESS:    6457297  HIT:    3695747  MISS:    2761550  HIT %:    57.2337  MISS %:    42.7663  MPKI: 55.231
L1I PREFETCH INSTRUCTION	ACCESS:     668077  HIT:     668077  MISS:          0  HIT %:        100  MISS %:          0  MPKI: 0

L1I PREFETCH  REQUESTED:    1617158  ISSUED:    1617158  USEFUL:          0  USELESS:          0
L1I USEFUL LOAD PREFETCHES:          0 PREFETCH ISSUED TO LOWER LEVEL:          0  ACCURACY: -nan
 TIMELY PREFETCHES:          0 LATE PREFETCHES: 0 DROPPED PREFETCHES: 0
L1I AVERAGE MISS LATENCY: 17.1158 cycles
L1I RQ	ACCESS:    9563799	FORWARD:          0	MERGED:    2810300	TO_CACHE:    6753499
L1I PQ	ACCESS:    1617158	FORWARD:          0	MERGED:     431329	TO_CACHE:    1185829

L1BTB TOTAL     ACCESS:    5671380  HIT:    2042276  MISS:    3629104  HIT %:    36.0102  MISS %:    63.9898   MPKI: 72.5821
L1BTB BRANCH_DIRECT_JUMP	ACCESS:     548145 HIT:     144791 MISS:     403354 AVERAGE STALL: 54.1291 AVERAGE FETCH STALL: 14.1507 AVERAGE FETCH QUEUE STALL: 19.4783 AVERAGE DECODE STALL: 19.6043 AVERAGE EXECUTE STALL: 2.02533e+15
L1BTB BRANCH_INDIRECT	ACCESS:     182906 HIT:      65959 MISS:     116947 AVERAGE STALL: 108.653 AVERAGE FETCH STALL: 10.8928 AVERAGE FETCH QUEUE STALL: 16.8466 AVERAGE DECODE STALL: 13.5618 AVERAGE EXECUTE STALL: 66.3821
L1BTB BRANCH_CONDITIONAL	ACCESS:    2705117 HIT:    1412354 MISS:    1292763 AVERAGE STALL: 62.7669 AVERAGE FETCH STALL: 20.8062 AVERAGE FETCH QUEUE STALL: 26.2761 AVERAGE DECODE STALL: 14.8404 AVERAGE EXECUTE STALL: 4.26613e+15
L1BTB BRANCH_DIRECT_CALL	ACCESS:     945716 HIT:     106159 MISS:     839557 AVERAGE STALL: 63.3695 AVERAGE FETCH STALL: 28.6583 AVERAGE FETCH QUEUE STALL: 20.149 AVERAGE DECODE STALL: 13.8041 AVERAGE EXECUTE STALL: 9.84877e+15
L1BTB BRANCH_INDIRECT_CALL	ACCESS:     171889 HIT:      21466 MISS:     150423 AVERAGE STALL: 141.112 AVERAGE FETCH STALL: 12.7655 AVERAGE FETCH QUEUE STALL: 16.7491 AVERAGE DECODE STALL: 12.2649 AVERAGE EXECUTE STALL: 98.8384
L1BTB BRANCH_RETURN	ACCESS:    1117607 HIT:     291547 MISS:     826060 AVERAGE STALL: 51.0553 AVERAGE FETCH STALL: 17.4838 AVERAGE FETCH QUEUE STALL: 6.3151 AVERAGE DECODE STALL: 6.25979 AVERAGE EXECUTE STALL: 4.31846e+14
L1BTB BRANCH_OTHER ACCESS:          0 HIT:          0 MISS:          0 AVERAGE STALL: -nan AVERAGE FETCH STALL: -nan AVERAGE FETCH QUEUE STALL: -nan AVERAGE DECODE STALL: -nan AVERAGE EXECUTE STALL: -nan
L1BTB TOTAL ROB OCCUPANCY AT BTB MISS: 2.67168

L2BTB TOTAL     ACCESS:    3603716  HIT:    3538038  MISS:      65678  HIT %:    98.1775  MISS %:    1.82251   MPKI: 1.31356
L2BTB BRANCH_DIRECT_JUMP	ACCESS:     399188 HIT:     394243 MISS:       4945 AVERAGE STALL: 54.1291 AVERAGE FETCH STALL: 14.1507 AVERAGE FETCH QUEUE STALL: 19.4783 AVERAGE DECODE STALL: 19.6043 AVERAGE EXECUTE STALL: 2.02533e+15
L2BTB BRANCH_INDIRECT	ACCESS:     106682 HIT:     104003 MISS:       2679 AVERAGE STALL: 108.653 AVERAGE FETCH STALL: 10.8928 AVERAGE FETCH QUEUE STALL: 16.8466 AVERAGE DECODE STALL: 13.5618 AVERAGE EXECUTE STALL: 66.3821
L2BTB BRANCH_CONDITIONAL	ACCESS:    1292763 HIT:    1288388 MISS:       4375 AVERAGE STALL: 62.7669 AVERAGE FETCH STALL: 20.8062 AVERAGE FETCH QUEUE STALL: 26.2761 AVERAGE DECODE STALL: 14.8404 AVERAGE EXECUTE STALL: 4.26613e+15
L2BTB BRANCH_DIRECT_CALL	ACCESS:     839557 HIT:     837663 MISS:       1894 AVERAGE STALL: 63.3695 AVERAGE FETCH STALL: 28.6583 AVERAGE FETCH QUEUE STALL: 20.149 AVERAGE DECODE STALL: 13.8041 AVERAGE EXECUTE STALL: 9.84877e+15
L2BTB BRANCH_INDIRECT_CALL	ACCESS:     140879 HIT:     130408 MISS:      10471 AVERAGE STALL: 141.112 AVERAGE FETCH STALL: 12.7655 AVERAGE FETCH QUEUE STALL: 16.7491 AVERAGE DECODE STALL: 12.2649 AVERAGE EXECUTE STALL: 98.8384
L2BTB BRANCH_RETURN	ACCESS:     824647 HIT:     783333 MISS:      41314 AVERAGE STALL: 51.0553 AVERAGE FETCH STALL: 17.4838 AVERAGE FETCH QUEUE STALL: 6.3151 AVERAGE DECODE STALL: 6.25979 AVERAGE EXECUTE STALL: 4.31846e+14
L2BTB BRANCH_OTHER ACCESS:          0 HIT:          0 MISS:          0 AVERAGE STALL: -nan AVERAGE FETCH STALL: -nan AVERAGE FETCH QUEUE STALL: -nan AVERAGE DECODE STALL: -nan AVERAGE EXECUTE STALL: -nan
L2BTB TOTAL ROB OCCUPANCY AT BTB MISS: 147.626

L2C TOTAL     ACCESS:    4261076  HIT:    3779416  MISS:     481660  HIT %:    88.6963  MISS %:    11.3037   MPKI: 9.6332
L2C LOAD INSTRUCTION	ACCESS:    2761550  HIT:    2513804  MISS:     247746  HIT %:    91.0287  MISS %:    8.97127  MPKI: 4.95492
L2C LOAD TRANSLATION INSTRUCTION	ACCESS:        252  HIT:         71  MISS:        181  HIT %:    28.1746  MISS %:    71.8254  MPKI: 0.00362
L2C LOAD DATA	ACCESS:     621358  HIT:     539840  MISS:      81518  HIT %:    86.8807  MISS %:    13.1193  MPKI: 1.63036
L2C RFO DATA	ACCESS:     247842  HIT:     199790  MISS:      48052  HIT %:    80.6118  MISS %:    19.3882  MPKI: 0.96104
L2C PREFETCH DATA	ACCESS:     180150  HIT:     104705  MISS:      75445  HIT %:     58.121  MISS %:     41.879  MPKI: 1.5089
L2C WRITEBACK DATA	ACCESS:     448100  HIT:     420621  MISS:      27479  HIT %:    93.8677  MISS %:    6.13234  MPKI: 0.54958
L2C LOAD TRANSLATION DATA	ACCESS:       1781  HIT:        553  MISS:       1228  HIT %:      31.05  MISS %:      68.95  MPKI: 0.02456
L2C TRANSLATION FROM L1D PREFETCHER DATA	ACCESS:         43  HIT:         32  MISS:         11  HIT %:    74.4186  MISS %:    25.5814  MPKI: 0.00022

L2C PREFETCH  REQUESTED:      93163  ISSUED:      93163  USEFUL:       8187  USELESS:      67705
L2C USEFUL LOAD PREFETCHES:       8187 PREFETCH ISSUED TO LOWER LEVEL:      75914  ACCURACY: 10.7846
 TIMELY PREFETCHES:       8187 LATE PREFETCHES: 469 DROPPED PREFETCHES: 0
L2C AVERAGE MISS LATENCY: 37.2351 cycles
L2C RQ	ACCESS:    3632908	FORWARD:          0	MERGED:          0	TO_CACHE:    3632826
L2C WQ	ACCESS:     448100	FORWARD:         83	MERGED:          0	TO_CACHE:     448100
L2C PQ	ACCESS:     187939	FORWARD:          0	MERGED:       3314	TO_CACHE:     184624

L2C Dense regions hint from L2: 0
PSCL5 TOTAL     ACCESS:       3974  HIT:       1987  MISS:       1987  HIT %:         50  MISS %:         50   MPKI: 0.03974
PSCL5 LOAD TRANSLATION INSTRUCTION	ACCESS:       3888  HIT:       1944  MISS:       1944  HIT %:         50  MISS %:         50  MPKI: 0.03888
PSCL5 TRANSLATION FROM L1D PREFETCHER INSTRUCTION	ACCESS:         86  HIT:         43  MISS:         43  HIT %:         50  MISS %:         50  MPKI: 0.00086


PSCL4 TOTAL     ACCESS:       3893  HIT:       1946  MISS:       1947  HIT %:    49.9872  MISS %:    50.0128   MPKI: 0.03894
PSCL4 LOAD TRANSLATION INSTRUCTION	ACCESS:       3678  HIT:       1903  MISS:       1775  HIT %:    51.7401  MISS %:    48.2599  MPKI: 0.0355
PSCL4 TRANSLATION FROM L1D PREFETCHER INSTRUCTION	ACCESS:         86  HIT:         43  MISS:         43  HIT %:         50  MISS %:         50  MPKI: 0.00086
PSCL4 LOAD TRANSLATION DATA	ACCESS:        129  HIT:          0  MISS:        129  HIT %:          0  MISS %:        100  MPKI: 0.00258


PSCL3 TOTAL     ACCESS:       3899  HIT:       1947  MISS:       1952  HIT %:    49.9359  MISS %:    50.0641   MPKI: 0.03904
PSCL3 LOAD TRANSLATION INSTRUCTION	ACCESS:       3577  HIT:       1911  MISS:       1666  HIT %:    53.4247  MISS %:    46.5753  MPKI: 0.03332
PSCL3 TRANSLATION FROM L1D PREFETCHER INSTRUCTION	ACCESS:         72  HIT:         36  MISS:         36  HIT %:         50  MISS %:         50  MPKI: 0.00072
PSCL3 LOAD TRANSLATION DATA	ACCESS:        250  HIT:          0  MISS:        250  HIT %:          0  MISS %:        100  MPKI: 0.005


PSCL2 TOTAL     ACCESS:       3891  HIT:       1904  MISS:       1987  HIT %:    48.9334  MISS %:    51.0666   MPKI: 0.03974
PSCL2 LOAD TRANSLATION INSTRUCTION	ACCESS:       2084  HIT:       1861  MISS:        223  HIT %:    89.2994  MISS %:    10.7006  MPKI: 0.00446
PSCL2 TRANSLATION FROM L1D PREFETCHER INSTRUCTION	ACCESS:         43  HIT:         43  MISS:          0  HIT %:        100  MISS %:          0  MPKI: 0
PSCL2 LOAD TRANSLATION DATA	ACCESS:       1721  HIT:          0  MISS:       1721  HIT %:          0  MISS %:        100  MPKI: 0.03442
PSCL2 TRANSLATION FROM L1D PREFETCHER DATA	ACCESS:         43  HIT:          0  MISS:         43  HIT %:          0  MISS %:        100  MPKI: 0.00086


LLC TOTAL     ACCESS:     528749  HIT:     500959  MISS:      27790  HIT %:    94.7442  MISS %:     5.2558   MPKI: 0.5558
LLC LOAD INSTRUCTION	ACCESS:     247746  HIT:     247029  MISS:        717  HIT %:    99.7106  MISS %:   0.289409  MPKI: 0.01434
LLC LOAD TRANSLATION INSTRUCTION	ACCESS:        181  HIT:        148  MISS:         33  HIT %:     81.768  MISS %:     18.232  MPKI: 0.00066
LLC LOAD DATA	ACCESS:      81056  HIT:      77583  MISS:       3473  HIT %:    95.7153  MISS %:    4.28469  MPKI: 0.06946
LLC RFO DATA	ACCESS:      48036  HIT:      34815  MISS:      13221  HIT %:    72.4769  MISS %:    27.5231  MPKI: 0.26442
LLC PREFETCH DATA	ACCESS:      75914  HIT:      66055  MISS:       9859  HIT %:    87.0129  MISS %:    12.9871  MPKI: 0.19718
LLC WRITEBACK DATA	ACCESS:      74577  HIT:      74168  MISS:        409  HIT %:    99.4516  MISS %:   0.548426  MPKI: 0.00818
LLC LOAD TRANSLATION DATA	ACCESS:       1228  HIT:       1151  MISS:         77  HIT %:    93.7296  MISS %:    6.27036  MPKI: 0.00154
LLC TRANSLATION FROM L1D PREFETCHER DATA	ACCESS:         11  HIT:         10  MISS:          1  HIT %:    90.9091  MISS %:    9.09091  MPKI: 2e-05

LLC AVERAGE MISS LATENCY: 154.007 cycles
LLC RQ	ACCESS:     378267	FORWARD:          0	MERGED:          0	TO_CACHE:     378258
LLC WQ	ACCESS:      74577	FORWARD:          9	MERGED:          0	TO_CACHE:      74577
LLC PQ	ACCESS:      75914	FORWARD:          0	MERGED:          0	TO_CACHE:      75914

LLC Dense regions hint to LLC: 0

RAW hits: 1945848
Loads Generated: 12632454
Loads sent to L1D: 10686612
Stores Generated: 6946342
Stores sent to L1D: 6946339
Major fault: 0 Minor fault: 2580
Allocated PAGES: 2580

stream: 
stream:times selected: 1184684
stream:pref_filled: 112285
stream:pref_useful: 20776
stream:pref_late: 6253
stream:misses: 6837
stream:misses_by_poll: 0

CS: 
CS:times selected: 178399
CS:pref_filled: 56318
CS:pref_useful: 33808
CS:pref_late: 6089
CS:misses: 13977
CS:misses_by_poll: 15

CPLX: 
CPLX:times selected: 1004959
CPLX:pref_filled: 18584
CPLX:pref_useful: 4140
CPLX:pref_late: 2955
CPLX:misses: 81927
CPLX:misses_by_poll: 0

NL_L1: 
NL:times selected: 21147
NL:pref_filled: 806
NL:pref_useful: 392
NL:pref_late: 271
NL:misses: 1362
NL:misses_by_poll: 0

total selections: 2389189
total_filled: 87237
total_useful: 30516
total_late: 16820
total_polluted: 15
total_misses_after_warmup: 659301
conflicts: 5511505

test: 115487

DRAM Statistics
 CHANNEL 0
 RQ ROW_BUFFER_HIT:      10133  ROW_BUFFER_MISS:      17240
 DBUS_CONGESTED:         11
 WQ ROW_BUFFER_HIT:       1343  ROW_BUFFER_MISS:      12355  FULL:          0

 AVG_CONGESTED_CYCLE: 7

CPU 0 Branch Prediction Accuracy: 99.8226% MPKI: 0.32462 Average ROB Occupancy at Mispredict: 195.498
Branch types
NOT_BRANCH: 40851731 81.7035%
BRANCH_DIRECT_JUMP: 548145 1.09629%
BRANCH_INDIRECT: 182906 0.365812%
BRANCH_CONDITIONAL: 6181973 12.3639%
BRANCH_DIRECT_CALL: 945716 1.89143%
BRANCH_INDIRECT_CALL: 171889 0.343778%
BRANCH_RETURN: 1117607 2.23521%
BRANCH_OTHER: 0 0%

DRAM PAGES: 1048576
Allocated PAGES: 2580
Average_ROB_Occupancy: 249.232
Average_Decode_Occupancy: 38.1291
Average_FTQ_Occupancy: 14.8491
Indirect max targets: 14 Average targets: 1.14765
Branch_type:  BRANCH_DIRECT_JUMP:  Count Percentage: 2.9132 6.78798 2.96081 4.81234 1.69935 6.83158 1.25434 72.7404 
Branch_type:  BRANCH_INDIRECT:  Count Percentage: 11.7686 3.42615 2.55217 13.3423 3.3457 4.81921 2.0049 58.7409 
Branch_type:  BRANCH_CONDITIONAL:  Count Percentage: 21.1775 2.89347 1.67272 3.20137 1.14122 5.43989 0.739575 63.7342 
Branch_type:  BRANCH_DIRECT_CALL:  Count Percentage: 0.75418 1.26362 1.13011 2.91894 1.99551 3.1892 0.769904 87.9785 
Branch_type:  BRANCH_INDIRECT_CALL:  Count Percentage: 9.52312 0.571736 2.9835 4.83546 0.00029096 3.77666 0.995665 77.3136 
Branch_type:  BRANCH_RETURN:  Count Percentage: 4.18932 0.696273 2.26755 3.59728 2.05752 5.61867 1.15793 80.4154 
Branch_type:  BRANCH_DIRECT_JUMP:  Total Count: 31874 74269 32395 52653 18593 74746 13724 795871 
Branch_type:  BRANCH_INDIRECT:  Total Count: 43009 12521 9327 48760 12227 17612 7327 214671 
Branch_type:  BRANCH_CONDITIONAL:  Total Count: 2616067 357431 206632 395466 140975 671992 91360 7873111 
Branch_type:  BRANCH_DIRECT_CALL:  Total Count: 14246 23869 21347 55137 37694 60242 14543 1661860 
Branch_type:  BRANCH_INDIRECT_CALL:  Total Count: 32730 1965 10254 16619 1 12980 3422 265719 
Branch_type:  BRANCH_RETURN:  Total Count: 93567 15551 50645 80344 45954 125491 25862 1796050 
Number of unique branch instructions: 10072
Upper 32 bits: 
aaaa
ffff
ffff0000
Unique upper 32 bits: 3
Unique upper 36 bits: 3
Unique upper 40 bits: 5
Unique upper 44 bits: 32
Unique upper 48 bits: 154
Variant_0 : 1390 0.339355
Variant_1 : 2655 0.648193
Variant_2 : 0 0
Variant_3 : 0 0
Offset_3 4161
Offset_4 250
Offset_5 458
Offset_6 516
Offset_7 596
Offset_8 524
Offset_9 477
Offset_10 388
Offset_11 321
Offset_12 273
Offset_13 213
Offset_14 227
Offset_15 197
Offset_16 230
Offset_17 151
Offset_18 128
Offset_19 246
Offset_20 142
Offset_21 235
Offset_22 398
Offset_23 241
Offset_24 338
Offset_25 88
Offset_47 82
decode_dispatch_called: 26226381 73.4178
Dispatch_width: 0 14095440 53.7453 39.4586
Dispatch_width: 1 1021747 3.89587 2.86026
Dispatch_width: 2 845120 3.2224 2.36582
Dispatch_width: 3 498587 1.90109 1.39574
Dispatch_width: 4 6347173 24.2015 17.7682
Dispatch_width: 5 106322 0.405401 0.297636
Dispatch_width: 6 3311992 12.6285 9.27154
Empty_decode_cycles: 9495735 26.5822
ROB_full_cycles: 9997605 27.9872
Starvation_cycles_per_kilo_instr: 224.125
Starvation_cycles_per_kilo_instr_3: 159.59
Starvation_cycles_per_kilo_instr_0: 135.936
Branch_type_1  (3,1)  (4,9)  (5,37)  (6,72)  (7,118)  (8,130)  (9,125)  (10,99)  (11,72)  (12,44)  (13,8)  (14,2)  (15,3)  (16,4)  (18,1)  (19,4)  (20,2)  (21,1)  (22,3)  (23,2)  (24,10)  (25,12) 
Branch_type_2  (3,1)  (5,1)  (8,3)  (9,3)  (12,1)  (13,1)  (14,1)  (16,3)  (17,2)  (20,2)  (21,2)  (23,5)  (24,1)  (47,38) 
Branch_type_3  (3,4159)  (4,241)  (5,416)  (6,428)  (7,446)  (8,328)  (9,263)  (10,158)  (11,133)  (12,51)  (13,7) 
Branch_type_4  (6,4)  (7,8)  (8,26)  (9,54)  (10,62)  (11,60)  (12,98)  (13,90)  (14,100)  (15,94)  (16,104)  (17,66)  (18,58)  (19,120)  (20,74)  (21,124)  (22,212)  (23,136)  (24,198)  (25,72) 
Branch_type_5  (8,2)  (9,1)  (10,3)  (11,5)  (12,3)  (13,14)  (14,16)  (15,11)  (16,20)  (17,13)  (18,16)  (19,12)  (20,10)  (21,13)  (22,42)  (23,26)  (24,37) 
Branch_type_6  (5,4)  (6,12)  (7,24)  (8,35)  (9,31)  (10,66)  (11,51)  (12,76)  (13,93)  (14,108)  (15,89)  (16,99)  (17,70)  (18,53)  (19,110)  (20,54)  (21,95)  (22,141)  (23,72)  (24,92)  (25,4)  (47,44) 
Unique trigger count: 
Variant_0_evicts_0 : 0
Variant_0_evicts_1 : 0
Variant_0_evicts_2 : 0
Variant_0_evicts_3 : 0
Variant_1_evicts_0 : 0
Variant_1_evicts_1 : 0
Variant_1_evicts_2 : 0
Variant_1_evicts_3 : 0
Variant_2_evicts_0 : 0
Variant_2_evicts_1 : 0
Variant_2_evicts_2 : 0
Variant_2_evicts_3 : 0
Variant_3_evicts_0 : 0
Variant_3_evicts_1 : 0
Variant_3_evicts_2 : 0
Variant_3_evicts_3 : 0
BTB PER SET UNIQUE ADDR: 12 11 9 11 7 11 10 10 8 14 10 13 12 11 10 6 11 11 11 11 10 9 14 11 8 11 7 9 9 9 13 9 12 11 10 12 10 14 11 11 12 7 10 12 11 12 11 8 7 10 13 12 10 14 9 7 10 8 8 15 6 13 13 10 12 8 13 8 15 12 17 13 10 9 8 12 5 13 10 17 9 9 9 12 11 10 11 8 9 9 9 9 8 11 8 15 7 11 14 9 15 13 12 8 12 11 4 11 8 9 10 11 9 11 8 6 13 9 7 12 11 9 8 9 12 13 5 12 14 8 9 11 10 12 15 11 10 15 9 14 9 10 8 9 10 12 13 9 9 12 12 12 8 11 6 10 9 11 12 11 13 10 14 13 10 11 14 9 12 9 9 12 12 11 12 7 9 8 8 8 11 10 10 13 16 15 6 9 10 9 8 8 7 17 10 8 10 10 9 10 13 8 7 11 9 10 10 7 11 10 6 14 11 15 11 12 11 12 11 14 9 14 9 10 6 14 15 11 5 13 8 5 11 12 13 10 16 10 14 9 10 11 9 16 9 8 10 7 11 10 11 10 10 7 13 13 7 7 8 10 9 9 7 11 13 7 9 6 11 10 9 16 8 5 7 10 9 13 10 15 10 7 10 9 11 11 9 13 12 14 10 9 9 10 10 12 15 11 10 11 10 12 7 16 7 8 9 7 13 15 9 12 5 17 11 8 10 9 12 14 11 11 10 8 10 14 9 7 9 7 8 10 7 11 9 14 8 10 8 16 7 12 6 13 13 11 9 8 10 9 12 10 7 12 11 9 8 9 8 9 12 13 7 7 8 13 9 13 10 8 8 5 7 8 10 11 11 12 11 12 7 8 9 10 10 10 15 10 12 13 10 7 13 15 8 10 11 12 11 10 8 9 10 13 14 11 8 11 10 9 8 7 8 13 12 6 7 15 15 12 9 12 8 15 14 5 11 9 12 8 17 16 9 13 14 12 13 9 10 8 13 6 11 17 16 8 9 13 15 14 12 15 12 10 15 13 14 10 8 13 11 12 13 11 11 10 12 9 7 9 15 12 10 8 7 10 9 12 10 11 12 13 9 10 7 15 15 12 12 13 10 10 8 12 11 10 13 11 8 10 12 11 9 11 11 11 10 11 12 13 11 13 13 9 13 12 9 13 7 8 6 10 8 8 10 11 12 9 7 13 11 9 10 11 8 17 8 11 10 9 10 10 13 12 12 13 8 11 9 13 12 13 10 10 10 14 9 11 14 8 8 11 7 10 9 13 11 7 8 15 13 10 10 12 8 13 11 17 11 10 8 12 7 10 12 8 7 11 11 14 7 9 11 8 9 12 11 9 5 7 12 11 10 5 11 12 14 9 8 7 8 14 10 10 8 12 8 16 15 13 13 9 7 11 10 12 8 16 8 12 8 11 9 11 9 9 12 11 13 11 8 13 10 13 10 10 9 10 18 7 9 9 7 11 12 10 11 9 12 11 13 7 13 14 10 8 9 12 11 8 11 12 12 10 10 12 16 13 8 15 5 13 11 14 15 11 7 9 12 10 12 12 14 6 10 9 7 15 11 18 8 12 15 9 5 12 9 6 8 8 10 8 13 12 10 6 12 9 9 10 13 11 10 11 11 8 10 5 10 11 7 15 13 8 11 6 9 15 11 9 7 8 9 13 13 12 12 11 13 9 14 8 12 12 7 11 16 10 12 8 14 9 7 10 13 11 9 16 8 12 8 12 8 10 12 12 9 12 14 11 11 11 10 11 13 11 9 9 8 8 7 5 11 9 11 8 9 9 14 9 12 14 13 13 15 10 13 10 13 11 10 8 14 14 8 8 13 13 8 10 11 12 11 8 11 12 10 9 11 12 9 12 11 11 6 13 9 7 11 8 9 13 8 11 9 10 10 17 10 12 8 7 10 11 12 19 13 10 10 11 12 10 7 7 15 7 7 9 11 8 7 13 11 11 12 7 9 13 10 11 15 5 13 12 13 12 13 12 9 10 10 11 14 11 10 11 13 6 8 8 11 13 14 12 7 12 12 11 12 12 8 10 11 12 11 11 12 9 8 9 11 10 9 11 11 9 7 13 9 8 9 9 10 10 10 10 11 6 12 14 6 17 10 9 5 10 9 15 11 16 9 10 9 10 6 12 11 11 10 12 10 7 9 10 10 12 9 7 9 15 8 10 9 10 14 9 12 13 14 11 9 11 13 10 8 17 11 8 13 8 11 15 9 13 12 7 13 13 17 11 13 11 10 12 15 12 9 17 10 14 7 10 10 6 12 11 5 9 8 10 9 16 10 8 
BTB PER SET COUNT: 13 11 1982 15 8 11 1477 10 1474 16 15 1313 20655 1479 12 11 1354 14 764 11 10 727 886 18 11 11 7 9 396 299 16 9 18 14 14 17 18 18 16 1933 15 8 10 533 14 14 15 8 114 147 17 427 15 26 11 381 15 9 489 17 6 135 195 12 20 12 22 14 20 21 26 999 16 14 8 21 5 17 15 17 992 12 19 17 11 40 16 10 204 9 13 861 240 509 10 19 989 985 17 12 23 285 18 8 1992 17 4 11 994 9 11 20 955 13 9 221 13 12 7 1189 29 11 9 10 13 112 5 17 20 990 12 75 16 14 19 15 218 22 10 23 10 16 9 11 11 313 467 11 10 29 14 294 961 16 6 13 982 12 16 14 20 236 321 15 10 814 21 11 16 292 12 15 14 19 19 8 11 10 10 514 71 137 621 30 130 693 7 9 325 10 11 10 7 26 11 110 12 994 11 10 15 10 9 12 11 12 12 501 13 13 7 32 15 8158 20 103 15 14 14 23 13 25 11 10 8 23 18 256 5 14 8 5 13 14 974 12 54 15 28 11 10 20 11 25 13 1669 1483 7 138 18 15 17 10 9 17 27 7 8 11 10 9 10 7 15 15 7 10 7 12 11 10 509 11 5 7 16 9 16 14 340 18 7 12 11 12 18 9 15 14 18 11 9 9 12 11 18 59 12 13 16 14 17 7 22 8 12 10 7 18 35 15 16 5 21 1848 10 12 15 16 18 14 5029 14 11 124 614 12 7 12 9 8 17 42 13 10 15 10 20 8 21 7 47 9 236 18 14 10 8 17 91 17 10 7 16 13 9 9 9 8 17 16 16 7 15 9 642 10 18 11 10 10 386 7 10 987 14 13 15 15 19 990 11 10 12 10 12 1379 14 15 1039 11 7 18 53 9 13 16 19 17 1592 8 9 10 14 23 14 9 13 13 14 9 7 8 604 18 6 9 111 23 13 10 14 10 17 16 5 823 9 14 1383 24 19 11 17 455 18 16 12 10 8 17 6 13 17 74 10 838 18 19 18 14 22 17 15 18 1647 15 12 8 18 32 20 13 12 11 13 37 10 7 10 19 13 11 9 7 10 10 22 13 11 16 13 11 11 8 20 18 16 17 14 12 11 971 13 12 12 447 986 13 10 15 14 12 12 19 12 14 14 16 15 15 135 15 278 16 16 11 21 12 10 8 19 8 8 12 19 36 11 8 328 16 9 10 16 8 33 8 997 16 9 10 10 16 16 17 15 8 14 16 1333 17 17 977 12 12 16 11 17 17 8 9 19 8 11 12 17 12 8 10 742 17 14 10 14 1473 14 15 21 14 11 8 18 8 2940 13 10 9 15 11 15 7 13 15 11 28 19 330 925 5 8 18 15 11 9 15 15 16 1673 9 7 9 222 18 16 9 12 9 23 1463 310 17 10 8 154 10 16 8 296 1471 14 10 19 370 104 11 9 14 17 23 15 11 14 10 24 1447 168 503 10 31 7 9 11 8 13 13 502 11 11 16 15 17 7 17 20 11 12 10 951 1820 12 18 15 991 11 14 312 19 18 16 21 5 20 13 29 1720 16 8 12 108 14 15 21 16 7 2450 10 7 60 14 21 10 16 21 11 5 16 13 9 9 8 12 10 1046 20 21 6 997 13 18 16 284 299 13 471 12 8 11 8 81 2494 9 6498 131 10 15 9 11 18 13 9 775 18 137 26 16 14 704 15 13 11 1175 10 41 1478 7 13 22 12 16 8 17 11 7 362 1646 13 10 450 10 24 9 21 10 13 15 15 12 16 19 14 1613 13 993 12 14 14 9 10 8 9 9 976 18 10 1062 10 210 13 18 1454 18 17 17 107 501 14 16 10 18 68 12 7850 17 71 414 8 16 2454 9 13 14 1199 21 10 14 14 12 11 15 227 11 17 13 15 6 15 10 7 15 8 12 1002 9 15 10 12 11 26 10 33 1435 442 17 17 12 23 19 11 12 11 19 11 7 7 22 21 7 14 13 8 8 17 22 14 16 7 10 18 1048 14 16 5 16 138 15 1966 15 17 14 15 11 11 403 29 13 16 16 6 10 11 13 17 22 569 7 17 25 14 122 102 10 18 17 21 14 16 44 422 10 12 15 991 10 713 14 934 10 17 11 16 9 11 1519 10 14 300 15 7 743 20 6 580 18 10 5 12 100 22 11 18 11 987 9 19 7 14 160 18 61 707 859 9 992 11 12 17 9 10 12 19 28 12 10 11 17 9 16 17 411 459 995 11 20 306 10 26 1371 993 20 8 16 263 17 96 14 9 15 1484 31 14 17 105 14 16 17 14 15 25 10 14 48 13 11 8 13 15 5 11 9 14 9 474 11 8 
To predecode: 0
Predecoding something: 0
Predecode request dropped: 0
sizeofblock_0 0
sizeofblock_1 51240
sizeofblock_2 86330
sizeofblock_3 0
sizeofblock_4 0
sizeofblock_5 0
sizeofblock_6 0
sizeofblock_7 0
sizeofblock_8 0
Variant_0 Correct: 1612082 Incorrect: 0 Accuracy: 1
Variant_1 Correct: 5729340 Incorrect: 0 Accuracy: 1
Variant_2 Correct: 0 Incorrect: 0 Accuracy: -nan
Variant_3 Correct: 0 Incorrect: 0 Accuracy: -nan
