
*** ChampSim Multicore Out-of-Order Simulator ***

Warmup Instructions: 50000000
Simulation Instructions: 50000000
Number of CPUs: 1
LLC sets: 2048
LLC ways: 16
Off-chip DRAM Size: 4096 MB Channels: 1 Width: 64-bit Data Rate: 6400 MT/s
CPU 0 runs ./micro_traces/srv192.trace.gz
.gz
ITLB has LRU replacement policy
DTLB has LRU replacement policy
STLB has LRU replacement policy
FDIP Prefetcher at L1I
L1I has LRU replacement policy
L1D has LRU replacement policy
Initialize SRRIP state for L2C
Initialize DRRIP state for LLC
Heartbeat_Variant_0 : 1048 0.255859 per_variant_size: 0 1048 0 0 0 0 0 0 0 
Heartbeat_Variant_1 : 1235 0.301514 per_variant_size: 0 872 363 0 0 0 0 0 0 
Heartbeat_Variant_2 : 1534 0.374512 per_variant_size: 0 921 409 144 60 0 0 0 0 
Heartbeat_Variant_3 : 0 0 per_variant_size: 0 0 0 0 0 0 0 0 0 
Heartbeat_Variant_0_evicts 0 : 13861 1 : 10009 2 : 12050 3 : 0 
Heartbeat_Variant_1_evicts 0 : 9956 1 : 0 2 : 11638 3 : 0 
Heartbeat_Variant_2_evicts 0 : 12057 1 : 11546 2 : 0 3 : 0 
Heartbeat_Variant_3_evicts 0 : 0 1 : 0 2 : 0 3 : 0 
Heartbeat CPU 0 instructions: 10000000 cycles: 2797610 heartbeat IPC: 3.57448 cumulative IPC: 3.57448 (Simulation time: 0 hr 3 min 53 sec) 
Heartbeat_Variant_0 : 1068 0.260742 per_variant_size: 0 1068 0 0 0 0 0 0 0 
Heartbeat_Variant_1 : 1231 0.300537 per_variant_size: 0 860 371 0 0 0 0 0 0 
Heartbeat_Variant_2 : 1543 0.376709 per_variant_size: 0 919 420 146 58 0 0 0 0 
Heartbeat_Variant_3 : 0 0 per_variant_size: 0 0 0 0 0 0 0 0 0 
Heartbeat_Variant_0_evicts 0 : 14179 1 : 10231 2 : 12190 3 : 0 
Heartbeat_Variant_1_evicts 0 : 10206 1 : 0 2 : 11843 3 : 0 
Heartbeat_Variant_2_evicts 0 : 12195 1 : 11834 2 : 0 3 : 0 
Heartbeat_Variant_3_evicts 0 : 0 1 : 0 2 : 0 3 : 0 
Heartbeat CPU 0 instructions: 20000001 cycles: 5593814 heartbeat IPC: 3.57628 cumulative IPC: 3.57538 (Simulation time: 0 hr 6 min 18 sec) 
Heartbeat_Variant_0 : 1052 0.256836 per_variant_size: 0 1052 0 0 0 0 0 0 0 
Heartbeat_Variant_1 : 1225 0.299072 per_variant_size: 0 861 364 0 0 0 0 0 0 
Heartbeat_Variant_2 : 1567 0.382568 per_variant_size: 0 949 421 138 59 0 0 0 0 
Heartbeat_Variant_3 : 0 0 per_variant_size: 0 0 0 0 0 0 0 0 0 
Heartbeat_Variant_0_evicts 0 : 13908 1 : 10008 2 : 12061 3 : 0 
Heartbeat_Variant_1_evicts 0 : 10000 1 : 0 2 : 11693 3 : 0 
Heartbeat_Variant_2_evicts 0 : 12085 1 : 11691 2 : 0 3 : 0 
Heartbeat_Variant_3_evicts 0 : 0 1 : 0 2 : 0 3 : 0 
Heartbeat CPU 0 instructions: 30000002 cycles: 8389812 heartbeat IPC: 3.57654 cumulative IPC: 3.57577 (Simulation time: 0 hr 8 min 22 sec) 
Heartbeat_Variant_0 : 1047 0.255615 per_variant_size: 0 1047 0 0 0 0 0 0 0 
Heartbeat_Variant_1 : 1242 0.303223 per_variant_size: 0 879 363 0 0 0 0 0 0 
Heartbeat_Variant_2 : 1556 0.379883 per_variant_size: 0 928 439 125 64 0 0 0 0 
Heartbeat_Variant_3 : 0 0 per_variant_size: 0 0 0 0 0 0 0 0 0 
Heartbeat_Variant_0_evicts 0 : 13531 1 : 9740 2 : 11784 3 : 0 
Heartbeat_Variant_1_evicts 0 : 9765 1 : 0 2 : 11086 3 : 0 
Heartbeat_Variant_2_evicts 0 : 11764 1 : 11094 2 : 0 3 : 0 
Heartbeat_Variant_3_evicts 0 : 0 1 : 0 2 : 0 3 : 0 
Heartbeat CPU 0 instructions: 40000001 cycles: 11186247 heartbeat IPC: 3.57598 cumulative IPC: 3.57582 (Simulation time: 0 hr 10 min 38 sec) 
Heartbeat_Variant_0 : 1077 0.262939 per_variant_size: 0 1077 0 0 0 0 0 0 0 
Heartbeat_Variant_1 : 1232 0.300781 per_variant_size: 0 854 378 0 0 0 0 0 0 
Heartbeat_Variant_2 : 1538 0.375488 per_variant_size: 0 897 435 141 65 0 0 0 0 
Heartbeat_Variant_3 : 0 0 per_variant_size: 0 0 0 0 0 0 0 0 0 
Heartbeat_Variant_0_evicts 0 : 14074 1 : 10118 2 : 11861 3 : 0 
Heartbeat_Variant_1_evicts 0 : 10054 1 : 0 2 : 11132 3 : 0 
Heartbeat_Variant_2_evicts 0 : 11895 1 : 11079 2 : 0 3 : 0 
Heartbeat_Variant_3_evicts 0 : 0 1 : 0 2 : 0 3 : 0 
Heartbeat CPU 0 instructions: 50000002 cycles: 13981502 heartbeat IPC: 3.57749 cumulative IPC: 3.57615 (Simulation time: 0 hr 12 min 37 sec) 

Warmup complete CPU 0 instructions: 50000002 cycles: 13981502 (Simulation time: 0 hr 12 min 37 sec) 

Cycle: 20000000 FTQ IN: 56493076 FTQ occupancy: 17.9892 DECODE IN: 56493076 DECODE occupancy: 45.9277 ROB IN: 56493076 ROB occupancy: 276.442 ROB OUT: 56492905
Heartbeat_Variant_0 : 1057 0.258057 per_variant_size: 0 1057 0 0 0 0 0 0 0 
Heartbeat_Variant_1 : 1249 0.304932 per_variant_size: 0 851 398 0 0 0 0 0 0 
Heartbeat_Variant_2 : 1588 0.387695 per_variant_size: 0 909 464 148 67 0 0 0 0 
Heartbeat_Variant_3 : 0 0 per_variant_size: 0 0 0 0 0 0 0 0 0 
Heartbeat_Variant_0_evicts 0 : 13802 1 : 10055 2 : 12151 3 : 0 
Heartbeat_Variant_1_evicts 0 : 10053 1 : 0 2 : 11614 3 : 0 
Heartbeat_Variant_2_evicts 0 : 12184 1 : 11613 2 : 0 3 : 0 
Heartbeat_Variant_3_evicts 0 : 0 1 : 0 2 : 0 3 : 0 
Heartbeat CPU 0 instructions: 60000000 cycles: 23336573 heartbeat IPC: 1.06894 cumulative IPC: 1.06894 (Simulation time: 0 hr 14 min 38 sec) 
Cycle: 30000000 FTQ IN: 10974414 FTQ occupancy: 6.18419 DECODE IN: 10974380 DECODE occupancy: 13.0114 ROB IN: 10974380 ROB occupancy: 112.229 ROB OUT: 10974290
Heartbeat_Variant_0 : 1086 0.265137 per_variant_size: 0 1086 0 0 0 0 0 0 0 
Heartbeat_Variant_1 : 1240 0.302734 per_variant_size: 0 853 387 0 0 0 0 0 0 
Heartbeat_Variant_2 : 1568 0.382812 per_variant_size: 0 903 455 146 64 0 0 0 0 
Heartbeat_Variant_3 : 0 0 per_variant_size: 0 0 0 0 0 0 0 0 0 
Heartbeat_Variant_0_evicts 0 : 13437 1 : 9546 2 : 11608 3 : 0 
Heartbeat_Variant_1_evicts 0 : 9513 1 : 0 2 : 10752 3 : 0 
Heartbeat_Variant_2_evicts 0 : 11612 1 : 10728 2 : 0 3 : 0 
Heartbeat_Variant_3_evicts 0 : 0 1 : 0 2 : 0 3 : 0 
Heartbeat CPU 0 instructions: 70000002 cycles: 32294095 heartbeat IPC: 1.11638 cumulative IPC: 1.09214 (Simulation time: 0 hr 16 min 32 sec) 
Cycle: 40000000 FTQ IN: 10987885 FTQ occupancy: 6.09562 DECODE IN: 10987868 DECODE occupancy: 12.726 ROB IN: 10987860 ROB occupancy: 108.459 ROB OUT: 10987942
Heartbeat_Variant_0 : 1109 0.270752 per_variant_size: 0 1109 0 0 0 0 0 0 0 
Heartbeat_Variant_1 : 1242 0.303223 per_variant_size: 0 841 401 0 0 0 0 0 0 
Heartbeat_Variant_2 : 1551 0.378662 per_variant_size: 0 866 463 155 67 0 0 0 0 
Heartbeat_Variant_3 : 0 0 per_variant_size: 0 0 0 0 0 0 0 0 0 
Heartbeat_Variant_0_evicts 0 : 14158 1 : 10220 2 : 12009 3 : 0 
Heartbeat_Variant_1_evicts 0 : 10222 1 : 0 2 : 11573 3 : 0 
Heartbeat_Variant_2_evicts 0 : 11985 1 : 11578 2 : 0 3 : 0 
Heartbeat_Variant_3_evicts 0 : 0 1 : 0 2 : 0 3 : 0 
Heartbeat CPU 0 instructions: 80000000 cycles: 41377840 heartbeat IPC: 1.10087 cumulative IPC: 1.09504 (Simulation time: 0 hr 18 min 24 sec) 
Cycle: 50000000 FTQ IN: 10955593 FTQ occupancy: 6.39771 DECODE IN: 10955644 DECODE occupancy: 13.4062 ROB IN: 10955652 ROB occupancy: 112.157 ROB OUT: 10955681
Heartbeat_Variant_0 : 1070 0.26123 per_variant_size: 0 1070 0 0 0 0 0 0 0 
Heartbeat_Variant_1 : 1254 0.306152 per_variant_size: 0 842 412 0 0 0 0 0 0 
Heartbeat_Variant_2 : 1578 0.385254 per_variant_size: 0 901 455 151 71 0 0 0 0 
Heartbeat_Variant_3 : 0 0 per_variant_size: 0 0 0 0 0 0 0 0 0 
Heartbeat_Variant_0_evicts 0 : 13574 1 : 9926 2 : 11753 3 : 0 
Heartbeat_Variant_1_evicts 0 : 9965 1 : 0 2 : 11408 3 : 0 
Heartbeat_Variant_2_evicts 0 : 11753 1 : 11435 2 : 0 3 : 0 
Heartbeat_Variant_3_evicts 0 : 0 1 : 0 2 : 0 3 : 0 
Heartbeat CPU 0 instructions: 90000002 cycles: 50523898 heartbeat IPC: 1.09337 cumulative IPC: 1.09462 (Simulation time: 0 hr 20 min 12 sec) 
Heartbeat_Variant_0 : 1085 0.264893 per_variant_size: 0 1085 0 0 0 0 0 0 0 
Heartbeat_Variant_1 : 1241 0.302979 per_variant_size: 0 835 406 0 0 0 0 0 0 
Heartbeat_Variant_2 : 1576 0.384766 per_variant_size: 0 882 478 149 67 0 0 0 0 
Heartbeat_Variant_3 : 0 0 per_variant_size: 0 0 0 0 0 0 0 0 0 
Heartbeat_Variant_0_evicts 0 : 13869 1 : 10034 2 : 11684 3 : 0 
Heartbeat_Variant_1_evicts 0 : 10009 1 : 0 2 : 11494 3 : 0 
Heartbeat_Variant_2_evicts 0 : 11694 1 : 11482 2 : 0 3 : 0 
Heartbeat_Variant_3_evicts 0 : 0 1 : 0 2 : 0 3 : 0 
Heartbeat CPU 0 instructions: 100000001 cycles: 59564278 heartbeat IPC: 1.10615 cumulative IPC: 1.09691 (Simulation time: 0 hr 22 min 40 sec) 
Finished CPU 0 instructions: 50000003 cycles: 45582777 cumulative IPC: 1.09691 (Simulation time: 0 hr 22 min 40 sec) 

ChampSim completed all CPUs

Region of Interest Statistics

CPU 0 cumulative IPC: 1.09691 instructions: 50000003 cycles: 45582777
 Fetch stage stalled: 72.4269  Sim cycles: 45582777 fetch stall cycle: 33014171
 Empty decode stage: 64.4698  Sim cycles: 45582777 fetch stall cycle: 29387146
ITLB TOTAL     ACCESS:    5738456  HIT:    5243286  MISS:     495170  HIT %:     91.371  MISS %:    8.62898   MPKI: 9.9034
ITLB LOAD TRANSLATION INSTRUCTION	ACCESS:    5635065  HIT:    5139895  MISS:     495170  HIT %:    91.2127  MISS %:     8.7873  MPKI: 9.9034
ITLB TRANSLATION FROM L1D PREFETCHER INSTRUCTION	ACCESS:     103391  HIT:     103391  MISS:          0  HIT %:        100  MISS %:          0  MPKI: 0

ITLB AVERAGE MISS LATENCY: 9.05471 cycles
ITLB RQ	ACCESS:    7547008	FORWARD:          0	MERGED:    1366838	TO_CACHE:    6180170

DTLB TOTAL     ACCESS:    9393257  HIT:    8922575  MISS:     470682  HIT %:    94.9892  MISS %:    5.01085   MPKI: 9.41364
DTLB LOAD TRANSLATION DATA	ACCESS:    9393257  HIT:    8922575  MISS:     470682  HIT %:    94.9892  MISS %:    5.01085  MPKI: 9.41364

DTLB AVERAGE MISS LATENCY: 9.34299 cycles
DTLB RQ	ACCESS:   13666856	FORWARD:          0	MERGED:    4240821	TO_CACHE:    9426035

STLB TOTAL     ACCESS:    1213997  HIT:    1211921  MISS:       2076  HIT %:     99.829  MISS %:   0.171005   MPKI: 0.04152
STLB LOAD TRANSLATION INSTRUCTION	ACCESS:     495170  HIT:     494911  MISS:        259  HIT %:    99.9477  MISS %:  0.0523053  MPKI: 0.00518
STLB LOAD TRANSLATION DATA	ACCESS:     470392  HIT:     468607  MISS:       1785  HIT %:    99.6205  MISS %:   0.379471  MPKI: 0.0357
STLB TRANSLATION FROM L1D PREFETCHER DATA	ACCESS:     248435  HIT:     248403  MISS:         32  HIT %:    99.9871  MISS %:  0.0128806  MPKI: 0.00064

STLB AVERAGE MISS LATENCY: 79.0135 cycles
STLB RQ	ACCESS:    1333174	FORWARD:          0	MERGED:     119131	TO_CACHE:    1214043

STLB Hit, L1D data hit: 0
STLB Hit, L2C data hit: 0
STLB Hit, LLC data hit: 0
STLB Hit, LLC data miss: 0
STLB STLB hints to L2: 0
L1D TOTAL     ACCESS:   13440051  HIT:   12320539  MISS:    1119512  HIT %:    91.6703  MISS %:    8.32967   MPKI: 22.3902
L1D LOAD DATA	ACCESS:    6856706  HIT:    6116986  MISS:     739720  HIT %:    89.2117  MISS %:    10.7883  MPKI: 14.7944
L1D RFO DATA	ACCESS:    6256398  HIT:    5970340  MISS:     286058  HIT %:    95.4278  MISS %:    4.57225  MPKI: 5.72116
L1D PREFETCH DATA	ACCESS:     326947  HIT:     233213  MISS:      93734  HIT %:    71.3305  MISS %:    28.6695  MPKI: 1.87468

L1D PREFETCH  REQUESTED:     734920  ISSUED:     734920  USEFUL:      33813  USELESS:      67638
L1D USEFUL LOAD PREFETCHES:      33813 PREFETCH ISSUED TO LOWER LEVEL:     101553  ACCURACY: 33.2959
 TIMELY PREFETCHES:      33813 LATE PREFETCHES: 7722 DROPPED PREFETCHES: 7
L1D AVERAGE MISS LATENCY: 249567 cycles
L1D RQ	ACCESS:   10911807	FORWARD:          0	MERGED:    3862183	TO_CACHE:    6885757
L1D WQ	ACCESS:    6949231	FORWARD:     164143	MERGED:     168132	TO_CACHE:    6781099
L1D PQ	ACCESS:     367598	FORWARD:          0	MERGED:          0	TO_CACHE:     367322

L1D UNIQUE REGIONS ACCESSED: 0
L1D REGIONS CONFLICTS: 0
L1D Cross Page Prefetch Requests: 6763
L1D Same Page Prefetch Requests: 745063
L1D ROI Sum of L1D PQ occupancy: 4663917
L1D PREFETCHES PUSHED FROM L2C: 0
L1I TOTAL     ACCESS:    7033609  HIT:    4265702  MISS:    2767907  HIT %:    60.6474  MISS %:    39.3526   MPKI: 55.3581
L1I LOAD INSTRUCTION	ACCESS:    6548176  HIT:    3780269  MISS:    2767907  HIT %:    57.7301  MISS %:    42.2699  MPKI: 55.3581
L1I PREFETCH INSTRUCTION	ACCESS:     485433  HIT:     485433  MISS:          0  HIT %:        100  MISS %:          0  MPKI: 0

L1I PREFETCH  REQUESTED:    1068314  ISSUED:    1068314  USEFUL:          0  USELESS:          0
L1I USEFUL LOAD PREFETCHES:          0 PREFETCH ISSUED TO LOWER LEVEL:          0  ACCURACY: -nan
 TIMELY PREFETCHES:          0 LATE PREFETCHES: 0 DROPPED PREFETCHES: 0
L1I AVERAGE MISS LATENCY: 17.16 cycles
L1I RQ	ACCESS:    9439272	FORWARD:          0	MERGED:    2654779	TO_CACHE:    6784493
L1I PQ	ACCESS:    1068314	FORWARD:          0	MERGED:     305799	TO_CACHE:     762515

L1BTB TOTAL     ACCESS:    5669807  HIT:    2035100  MISS:    3634707  HIT %:    35.8936  MISS %:    64.1064   MPKI: 72.6941
L1BTB BRANCH_DIRECT_JUMP	ACCESS:     548314  HIT:     144303  MISS:     404011	AVERAGE STALL: 35.2084
L1BTB BRANCH_INDIRECT	ACCESS:     182414  HIT:      65642  MISS:     116772	AVERAGE STALL: 82.8033
L1BTB BRANCH_CONDITIONAL	ACCESS:    2700507  HIT:    1405891  MISS:    1294616	AVERAGE STALL: 35.587
L1BTB BRANCH_DIRECT_CALL	ACCESS:     946959  HIT:     106409  MISS:     840550	AVERAGE STALL: 36.766
L1BTB BRANCH_INDIRECT_CALL	ACCESS:     172330  HIT:      21721  MISS:     150609	AVERAGE STALL: 107.14
L1BTB BRANCH_RETURN	ACCESS:    1119283  HIT:     291134  MISS:     828149	AVERAGE STALL: 36.7233
L1BTB BRANCH_OTHER ACCESS:          0  HIT:          0  MISS:          0	AVERAGE STALL: -nan
L1BTB TOTAL ROB OCCUPANCY AT BTB MISS: 12.6148

L2BTB TOTAL     ACCESS:    3609366  HIT:    3121272  MISS:     488094  HIT %:     86.477  MISS %:     13.523   MPKI: 9.76188
L2BTB BRANCH_DIRECT_JUMP	ACCESS:     399903  HIT:     349951  MISS:      49952	AVERAGE STALL: 35.2084
L2BTB BRANCH_INDIRECT	ACCESS:     106438  HIT:      97485  MISS:       8953	AVERAGE STALL: 82.8033
L2BTB BRANCH_CONDITIONAL	ACCESS:    1294616  HIT:    1155068  MISS:     139548	AVERAGE STALL: 35.587
L2BTB BRANCH_DIRECT_CALL	ACCESS:     840550  HIT:     681333  MISS:     159217	AVERAGE STALL: 36.766
L2BTB BRANCH_INDIRECT_CALL	ACCESS:     141124  HIT:     108026  MISS:      33098	AVERAGE STALL: 107.14
L2BTB BRANCH_RETURN	ACCESS:     826735  HIT:     729409  MISS:      97326	AVERAGE STALL: 36.7233
L2BTB BRANCH_OTHER ACCESS:          0  HIT:          0  MISS:          0	AVERAGE STALL: -nan
L2BTB TOTAL ROB OCCUPANCY AT BTB MISS: 93.9389

L2C TOTAL     ACCESS:    4490109  HIT:    4044416  MISS:     445693  HIT %:    90.0739  MISS %:    9.92611   MPKI: 8.91386
L2C LOAD INSTRUCTION	ACCESS:    2767907  HIT:    2511638  MISS:     256269  HIT %:    90.7414  MISS %:    9.25858  MPKI: 5.12538
L2C LOAD TRANSLATION INSTRUCTION	ACCESS:        295  HIT:         85  MISS:        210  HIT %:    28.8136  MISS %:    71.1864  MPKI: 0.0042
L2C LOAD DATA	ACCESS:     731974  HIT:     666879  MISS:      65095  HIT %:    91.1069  MISS %:    8.89308  MPKI: 1.3019
L2C RFO DATA	ACCESS:     285944  HIT:     242665  MISS:      43279  HIT %:    84.8645  MISS %:    15.1355  MPKI: 0.86558
L2C PREFETCH DATA	ACCESS:     179576  HIT:     112268  MISS:      67308  HIT %:    62.5184  MISS %:    37.4816  MPKI: 1.34616
L2C WRITEBACK DATA	ACCESS:     522500  HIT:     510376  MISS:      12124  HIT %:    97.6796  MISS %:    2.32038  MPKI: 0.24248
L2C LOAD TRANSLATION DATA	ACCESS:       1858  HIT:        465  MISS:       1393  HIT %:    25.0269  MISS %:    74.9731  MPKI: 0.02786
L2C TRANSLATION FROM L1D PREFETCHER DATA	ACCESS:         55  HIT:         40  MISS:         15  HIT %:    72.7273  MISS %:    27.2727  MPKI: 0.0003

L2C PREFETCH  REQUESTED:      84503  ISSUED:      84503  USEFUL:       6899  USELESS:      60682
L2C USEFUL LOAD PREFETCHES:       6899 PREFETCH ISSUED TO LOWER LEVEL:      67567  ACCURACY: 10.2106
 TIMELY PREFETCHES:       6899 LATE PREFETCHES: 259 DROPPED PREFETCHES: 0
L2C AVERAGE MISS LATENCY: 39.2741 cycles
L2C RQ	ACCESS:    3788074	FORWARD:          0	MERGED:          0	TO_CACHE:    3788033
L2C WQ	ACCESS:     522500	FORWARD:         41	MERGED:          0	TO_CACHE:     522500
L2C PQ	ACCESS:     186056	FORWARD:          0	MERGED:       3180	TO_CACHE:     182876

L2C Dense regions hint from L2: 0
PSCL5 TOTAL     ACCESS:       4176  HIT:       2088  MISS:       2088  HIT %:         50  MISS %:         50   MPKI: 0.04176
PSCL5 LOAD TRANSLATION INSTRUCTION	ACCESS:       4066  HIT:       2033  MISS:       2033  HIT %:         50  MISS %:         50  MPKI: 0.04066
PSCL5 TRANSLATION FROM L1D PREFETCHER INSTRUCTION	ACCESS:        110  HIT:         55  MISS:         55  HIT %:         50  MISS %:         50  MPKI: 0.0011


PSCL4 TOTAL     ACCESS:       3858  HIT:       1926  MISS:       1932  HIT %:    49.9222  MISS %:    50.0778   MPKI: 0.03864
PSCL4 LOAD TRANSLATION INSTRUCTION	ACCESS:       2861  HIT:       1876  MISS:        985  HIT %:    65.5715  MISS %:    34.4285  MPKI: 0.0197
PSCL4 TRANSLATION FROM L1D PREFETCHER INSTRUCTION	ACCESS:         77  HIT:         50  MISS:         27  HIT %:    64.9351  MISS %:    35.0649  MPKI: 0.00054
PSCL4 LOAD TRANSLATION DATA	ACCESS:        897  HIT:          0  MISS:        897  HIT %:          0  MISS %:        100  MPKI: 0.01794
PSCL4 TRANSLATION FROM L1D PREFETCHER DATA	ACCESS:         23  HIT:          0  MISS:         23  HIT %:          0  MISS %:        100  MPKI: 0.00046


PSCL3 TOTAL     ACCESS:       3906  HIT:       1950  MISS:       1956  HIT %:    49.9232  MISS %:    50.0768   MPKI: 0.03912
PSCL3 LOAD TRANSLATION INSTRUCTION	ACCESS:       2885  HIT:       1900  MISS:        985  HIT %:    65.8579  MISS %:    34.1421  MPKI: 0.0197
PSCL3 TRANSLATION FROM L1D PREFETCHER INSTRUCTION	ACCESS:         77  HIT:         50  MISS:         27  HIT %:    64.9351  MISS %:    35.0649  MPKI: 0.00054
PSCL3 LOAD TRANSLATION DATA	ACCESS:        921  HIT:          0  MISS:        921  HIT %:          0  MISS %:        100  MPKI: 0.01842
PSCL3 TRANSLATION FROM L1D PREFETCHER DATA	ACCESS:         23  HIT:          0  MISS:         23  HIT %:          0  MISS %:        100  MPKI: 0.00046


PSCL2 TOTAL     ACCESS:       4063  HIT:       1975  MISS:       2088  HIT %:    48.6094  MISS %:    51.3906   MPKI: 0.04176
PSCL2 LOAD TRANSLATION INSTRUCTION	ACCESS:       2184  HIT:       1920  MISS:        264  HIT %:    87.9121  MISS %:    12.0879  MPKI: 0.00528
PSCL2 TRANSLATION FROM L1D PREFETCHER INSTRUCTION	ACCESS:         55  HIT:         55  MISS:          0  HIT %:        100  MISS %:          0  MPKI: 0
PSCL2 LOAD TRANSLATION DATA	ACCESS:       1769  HIT:          0  MISS:       1769  HIT %:          0  MISS %:        100  MPKI: 0.03538
PSCL2 TRANSLATION FROM L1D PREFETCHER DATA	ACCESS:         55  HIT:          0  MISS:         55  HIT %:          0  MISS %:        100  MPKI: 0.0011


LLC TOTAL     ACCESS:     496394  HIT:     467435  MISS:      28959  HIT %:    94.1661  MISS %:    5.83387   MPKI: 0.57918
LLC LOAD INSTRUCTION	ACCESS:     256269  HIT:     254970  MISS:       1299  HIT %:    99.4931  MISS %:   0.506889  MPKI: 0.02598
LLC LOAD TRANSLATION INSTRUCTION	ACCESS:        210  HIT:        160  MISS:         50  HIT %:    76.1905  MISS %:    23.8095  MPKI: 0.001
LLC LOAD DATA	ACCESS:      64846  HIT:      61192  MISS:       3654  HIT %:    94.3651  MISS %:    5.63489  MPKI: 0.07308
LLC RFO DATA	ACCESS:      43264  HIT:      29662  MISS:      13602  HIT %:    68.5605  MISS %:    31.4395  MPKI: 0.27204
LLC PREFETCH DATA	ACCESS:      67566  HIT:      57678  MISS:       9888  HIT %:    85.3654  MISS %:    14.6346  MPKI: 0.19776
LLC WRITEBACK DATA	ACCESS:      62831  HIT:      62475  MISS:        356  HIT %:    99.4334  MISS %:   0.566599  MPKI: 0.00712
LLC LOAD TRANSLATION DATA	ACCESS:       1393  HIT:       1284  MISS:        109  HIT %:    92.1752  MISS %:    7.82484  MPKI: 0.00218
LLC TRANSLATION FROM L1D PREFETCHER DATA	ACCESS:         15  HIT:         14  MISS:          1  HIT %:    93.3333  MISS %:    6.66667  MPKI: 2e-05

LLC AVERAGE MISS LATENCY: 154.059 cycles
LLC RQ	ACCESS:     366002	FORWARD:          0	MERGED:          0	TO_CACHE:     365997
LLC WQ	ACCESS:      62831	FORWARD:          6	MERGED:          0	TO_CACHE:      62831
LLC PQ	ACCESS:      67567	FORWARD:          0	MERGED:          0	TO_CACHE:      67566

LLC Dense regions hint to LLC: 0

RAW hits: 1719876
Loads Generated: 12631682
Loads sent to L1D: 10911807
Stores Generated: 6949229
Stores sent to L1D: 6949231
Major fault: 0 Minor fault: 2596
Allocated PAGES: 2596

stream: 
stream:times selected: 1178887
stream:pref_filled: 121247
stream:pref_useful: 24072
stream:pref_late: 6778
stream:misses: 7878
stream:misses_by_poll: 0

CS: 
CS:times selected: 175918
CS:pref_filled: 59325
CS:pref_useful: 36027
CS:pref_late: 6537
CS:misses: 15658
CS:misses_by_poll: 2

CPLX: 
CPLX:times selected: 1001847
CPLX:pref_filled: 19508
CPLX:pref_useful: 4608
CPLX:pref_late: 3308
CPLX:misses: 94130
CPLX:misses_by_poll: 0

NL_L1: 
NL:times selected: 21521
NL:pref_filled: 783
NL:pref_useful: 357
NL:pref_late: 314
NL:misses: 1748
NL:misses_by_poll: 0

total selections: 2378173
total_filled: 93734
total_useful: 33813
total_late: 18227
total_polluted: 2
total_misses_after_warmup: 768774
conflicts: 5666957

test: 113795

DRAM Statistics
 CHANNEL 0
 RQ ROW_BUFFER_HIT:      10541  ROW_BUFFER_MISS:      18050
 DBUS_CONGESTED:          9
 WQ ROW_BUFFER_HIT:       1423  ROW_BUFFER_MISS:      12160  FULL:          0

 AVG_CONGESTED_CYCLE: 5

CPU 0 Branch Prediction Accuracy: 99.8107% MPKI: 0.3463 Average ROB Occupancy at Mispredict: 117.734
Branch types
NOT_BRANCH: 40850717 81.7014%
BRANCH_DIRECT_JUMP: 548314 1.09663%
BRANCH_INDIRECT: 182414 0.364828%
BRANCH_CONDITIONAL: 6179524 12.359%
BRANCH_DIRECT_CALL: 946959 1.89392%
BRANCH_INDIRECT_CALL: 172330 0.34466%
BRANCH_RETURN: 1119283 2.23857%
BRANCH_OTHER: 0 0%

DRAM PAGES: 1048576
Allocated PAGES: 2596
Average_ROB_Occupancy: 111.723
Average_Decode_Occupancy: 13.0464
Average_FTQ_Occupancy: 6.23272
Indirect max targets: 14 Average targets: 1.17949
Branch_type:  BRANCH_DIRECT_JUMP:  Count Percentage: 3.23344 6.23307 3.41643 5.78581 4.68842 5.96087 0.926263 69.7557 
Branch_type:  BRANCH_INDIRECT:  Count Percentage: 11.7558 3.40709 2.50286 9.68466 11.3362 4.0163 2.01527 55.2818 
Branch_type:  BRANCH_CONDITIONAL:  Count Percentage: 20.9639 3.81137 1.17722 4.19445 3.29441 4.35093 0.695037 61.5126 
Branch_type:  BRANCH_DIRECT_CALL:  Count Percentage: 0.769627 1.27912 1.11835 3.35525 3.18153 2.34971 0.699502 87.2469 
Branch_type:  BRANCH_INDIRECT_CALL:  Count Percentage: 9.55496 0.559713 2.9957 4.83883 1.09791 2.98989 0.995563 76.9674 
Branch_type:  BRANCH_RETURN:  Count Percentage: 5.64005 0.829498 1.62737 6.04181 3.84414 4.62108 1.13061 76.2654 
Branch_type:  BRANCH_DIRECT_JUMP:  Total Count: 35446 68329 37452 63426 51396 65345 10154 764685 
Branch_type:  BRANCH_INDIRECT:  Total Count: 42916 12438 9137 35355 41384 14662 7357 201813 
Branch_type:  BRANCH_CONDITIONAL:  Total Count: 2590374 470945 145461 518280 407068 537615 85881 7600705 
Branch_type:  BRANCH_DIRECT_CALL:  Total Count: 14553 24187 21147 63445 60160 44431 13227 1649766 
Branch_type:  BRANCH_INDIRECT_CALL:  Total Count: 32862 1925 10303 16642 3776 10283 3424 264711 
Branch_type:  BRANCH_RETURN:  Total Count: 126094 18545 36383 135076 85943 103313 25277 1705058 
Number of unique branch instructions: 10649
Upper 32 bits: 
aaaa
ffff
ffff0000
Unique upper 32 bits: 3
Unique upper 36 bits: 3
Unique upper 40 bits: 5
Unique upper 44 bits: 32
Unique upper 48 bits: 157
Variant_0 : 1085 0.264893
Variant_1 : 1241 0.302979
Variant_2 : 1576 0.384766
Variant_3 : 0 0
Offset_3 4410
Offset_4 251
Offset_5 474
Offset_6 534
Offset_7 629
Offset_8 564
Offset_9 513
Offset_10 418
Offset_11 353
Offset_12 322
Offset_13 232
Offset_14 245
Offset_15 194
Offset_16 227
Offset_17 164
Offset_18 149
Offset_19 251
Offset_20 140
Offset_21 235
Offset_22 410
Offset_23 241
Offset_24 341
Offset_25 117
Offset_47 92
decode_dispatch_called: 20216375 44.3509
Dispatch_width: 0 10175255 50.3317 22.3226
Dispatch_width: 1 544078 2.69127 1.1936
Dispatch_width: 2 690162 3.41388 1.51409
Dispatch_width: 3 473529 2.3423 1.03883
Dispatch_width: 4 1492381 7.38204 3.274
Dispatch_width: 5 360640 1.7839 0.791176
Dispatch_width: 6 6480330 32.0549 14.2166
Empty_decode_cycles: 25366402 55.6491
ROB_full_cycles: 1851092 4.06095
Starvation_cycles_per_kilo_instr: 372.514
Starvation_cycles_per_kilo_instr_3: 353.983
Starvation_cycles_per_kilo_instr_0: 336.906
Branch_type_1  (3,1)  (4,7)  (5,38)  (6,73)  (7,123)  (8,147)  (9,137)  (10,111)  (11,79)  (12,55)  (13,11)  (14,2)  (15,3)  (16,4)  (18,1)  (19,5)  (20,2)  (21,1)  (22,3)  (23,2)  (24,10)  (25,12) 
Branch_type_2  (3,1)  (4,1)  (5,1)  (8,4)  (9,4)  (10,1)  (12,1)  (13,1)  (14,1)  (16,3)  (17,2)  (20,2)  (21,2)  (23,5)  (24,1)  (47,41) 
Branch_type_3  (3,4408)  (4,243)  (5,431)  (6,445)  (7,477)  (8,350)  (9,280)  (10,167)  (11,138)  (12,62)  (13,10) 
Branch_type_4  (6,3)  (7,8)  (8,25)  (9,53)  (10,66)  (11,70)  (12,113)  (13,98)  (14,111)  (15,92)  (16,99)  (17,76)  (18,65)  (19,122)  (20,71)  (21,124)  (22,216)  (23,136)  (24,197)  (25,101) 
Branch_type_5  (8,3)  (9,1)  (10,4)  (11,5)  (12,3)  (13,14)  (14,16)  (15,11)  (16,22)  (17,11)  (18,23)  (19,14)  (20,11)  (21,13)  (22,43)  (23,26)  (24,37) 
Branch_type_6  (5,4)  (6,13)  (7,21)  (8,35)  (9,38)  (10,69)  (11,61)  (12,88)  (13,98)  (14,115)  (15,88)  (16,99)  (17,75)  (18,60)  (19,110)  (20,54)  (21,95)  (22,148)  (23,72)  (24,96)  (25,4)  (47,51) 
Unique trigger count: 
Variant_0_evicts_0 : 0
Variant_0_evicts_1 : 0
Variant_0_evicts_2 : 0
Variant_0_evicts_3 : 0
Variant_1_evicts_0 : 0
Variant_1_evicts_1 : 0
Variant_1_evicts_2 : 0
Variant_1_evicts_3 : 0
Variant_2_evicts_0 : 0
Variant_2_evicts_1 : 0
Variant_2_evicts_2 : 0
Variant_2_evicts_3 : 0
Variant_3_evicts_0 : 0
Variant_3_evicts_1 : 0
Variant_3_evicts_2 : 0
Variant_3_evicts_3 : 0
BTB PER SET UNIQUE ADDR: 2 7 3 7 5 6 7 4 2 6 5 4 2 6 11 8 5 6 5 2 5 10 7 10 5 6 5 4 5 8 7 5 4 8 5 8 6 3 5 8 5 10 6 5 7 6 4 4 6 7 10 6 7 3 2 7 5 3 8 6 6 7 4 8 7 2 5 4 4 8 7 6 5 7 8 9 4 5 6 7 9 7 5 11 6 4 6 4 5 7 6 8 7 8 4 2 4 3 4 7 5 2 4 6 5 4 5 6 6 8 7 2 3 8 2 6 4 6 5 11 5 6 5 5 7 6 4 6 6 2 5 6 3 5 7 6 5 2 7 6 3 4 10 7 6 9 6 5 7 7 3 2 4 10 2 4 5 3 7 4 2 6 4 7 9 2 1 5 9 10 6 6 5 4 4 5 5 6 6 6 5 5 5 9 6 5 4 6 5 5 7 3 5 7 4 7 5 6 5 4 7 7 3 5 1 9 5 4 7 5 2 2 7 6 5 7 7 5 5 6 4 9 7 9 6 10 7 3 8 9 3 7 6 12 3 6 4 8 5 7 5 6 6 6 6 4 4 5 5 7 3 8 4 3 5 6 3 5 7 1 9 7 6 4 4 4 6 5 8 6 7 9 8 6 5 5 6 2 6 11 9 2 6 7 5 5 11 4 8 6 4 2 10 7 8 5 6 3 8 4 13 3 5 11 4 3 7 7 7 4 7 2 7 8 5 4 4 7 6 2 10 8 3 5 10 6 3 7 3 9 4 11 3 6 4 4 7 9 7 7 3 6 6 3 5 5 4 8 1 4 7 7 5 2 7 4 4 6 5 5 11 6 5 7 6 9 6 7 3 3 9 7 9 6 5 5 6 6 4 2 4 6 5 4 8 4 3 6 3 6 5 2 4 6 4 3 6 3 5 4 7 8 6 4 5 10 11 5 8 2 5 4 1 5 6 2 5 4 4 6 6 2 5 6 7 5 6 9 6 8 9 3 3 5 7 1 5 2 2 4 9 5 4 2 4 1 3 5 7 5 9 2 7 5 5 2 6 2 14 5 5 6 6 14 2 9 4 7 2 6 5 7 3 6 4 8 3 2 4 7 5 2 6 4 4 5 4 6 7 7 6 5 7 6 7 5 7 6 3 8 3 3 3 5 6 6 6 2 2 5 6 5 6 3 5 5 9 6 8 5 5 7 9 4 6 12 3 4 5 2 10 7 5 4 3 6 8 9 3 6 3 9 13 13 6 4 7 10 5 3 4 8 3 5 6 8 9 1 7 5 3 3 4 8 5 3 4 6 12 5 6 4 2 7 2 7 10 2 7 4 1 9 2 9 3 4 2 1 7 8 8 8 6 8 4 8 12 9 5 5 9 3 4 2 6 10 9 1 4 5 4 4 5 6 1 5 9 3 9 8 5 6 5 1 6 6 3 6 5 5 6 7 4 6 6 6 3 8 6 11 3 5 4 3 4 6 6 4 5 6 6 5 5 8 5 8 6 4 3 5 4 7 7 8 4 5 4 9 8 6 8 5 8 6 7 4 5 7 4 9 7 9 3 7 8 9 4 9 9 4 7 3 4 7 4 10 4 8 4 9 6 6 4 4 10 3 2 6 7 8 5 3 3 7 5 6 6 6 5 3 6 6 3 9 6 8 9 8 5 8 4 5 9 5 4 3 6 7 4 8 4 11 6 6 5 2 7 5 5 5 8 4 6 5 8 9 8 2 3 7 7 6 7 6 8 6 8 13 6 6 6 5 1 8 5 6 6 6 4 7 7 6 3 6 8 6 6 8 5 10 8 4 4 6 8 6 8 3 5 6 5 7 8 4 6 2 6 4 6 5 7 4 1 6 9 5 11 5 8 5 9 6 5 4 6 6 6 6 11 5 7 5 4 6 5 5 7 5 3 5 2 9 5 5 5 4 5 5 4 4 5 6 4 4 6 5 10 8 5 4 1 5 3 8 6 7 10 7 5 6 4 4 5 4 3 4 5 7 0 6 6 6 6 4 6 6 7 10 3 0 9 3 3 2 4 7 4 8 6 2 7 4 8 6 5 2 4 6 8 11 6 3 5 8 8 9 6 11 9 6 10 1 7 9 4 3 5 7 7 4 3 8 8 5 7 7 3 4 2 7 7 5 4 3 5 4 3 4 8 5 9 8 6 2 11 6 8 4 4 3 5 3 8 4 5 3 7 5 2 3 6 3 5 7 2 4 2 10 6 5 4 5 7 6 9 4 3 6 7 3 4 5 7 10 8 4 5 5 4 5 7 5 8 4 3 6 6 9 4 5 5 9 9 6 6 4 6 7 3 4 5 3 6 7 10 4 7 7 5 3 6 4 7 5 5 7 8 6 3 4 7 5 6 7 8 5 6 6 3 3 5 6 7 4 4 7 11 7 4 2 2 7 4 5 4 7 9 6 10 6 2 5 2 8 9 4 7 7 8 3 8 1 4 4 6 6 4 3 3 9 8 9 4 6 6 4 7 3 4 3 5 11 6 11 3 6 2 5 2 3 5 7 5 5 10 4 7 6 4 6 6 5 5 9 2 7 6 7 4 3 6 6 7 3 5 4 4 8 3 7 8 11 7 3 6 6 3 6 5 5 5 6 1 5 3 3 8 8 7 5 4 2 9 5 2 3 6 8 7 8 11 6 6 4 5 9 4 5 4 6 9 3 11 4 4 4 6 3 6 8 11 9 4 2 9 5 8 5 5 4 7 3 4 3 8 7 6 3 8 4 4 4 6 7 1 6 8 3 8 6 9 3 6 5 5 7 9 5 6 4 3 3 4 3 8 6 3 6 3 3 5 6 6 5 7 5 7 4 2 6 6 9 4 4 6 2 4 3 2 7 3 4 5 4 5 2 6 6 4 9 7 5 9 3 5 7 6 8 8 4 9 4 9 8 5 6 5 7 12 9 6 5 7 10 4 5 7 5 5 7 2 5 5 8 8 7 9 7 8 9 14 6 4 5 11 8 4 5 5 5 4 5 5 6 6 4 5 4 10 12 7 5 4 7 8 4 6 7 6 9 5 7 5 5 10 11 4 6 9 6 5 4 3 7 5 2 8 2 4 6 4 9 7 8 7 2 4 5 5 7 3 6 5 14 10 8 4 4 2 4 2 5 3 7 4 4 6 6 6 2 2 6 9 8 2 6 6 4 5 4 7 5 9 2 4 5 11 7 6 6 3 5 8 7 9 6 3 5 3 5 7 6 4 8 7 10 6 4 3 7 8 4 6 5 10 7 7 9 8 5 7 7 9 4 4 5 9 5 6 4 3 7 3 7 6 4 5 5 10 7 6 3 6 7 9 7 6 5 4 9 5 4 8 1 5 3 7 5 6 12 4 8 4 7 7 4 4 4 5 5 6 6 5 9 5 10 6 4 7 1 7 4 10 8 8 6 10 4 9 3 6 6 10 3 4 6 9 8 7 11 9 2 6 7 7 4 12 6 6 3 5 6 5 5 5 8 6 5 3 6 5 4 6 6 7 7 5 11 3 2 5 6 5 4 2 7 5 8 5 4 4 8 8 5 5 5 4 9 6 7 8 4 6 5 4 6 5 7 9 2 5 5 4 7 5 6 7 5 4 7 6 5 5 5 6 3 3 6 5 6 7 5 6 6 4 5 11 7 9 7 4 8 7 4 3 6 4 4 8 5 3 11 8 8 5 8 3 2 3 4 4 7 8 5 7 6 7 4 6 5 5 6 10 2 7 7 11 5 4 9 10 6 4 4 5 4 4 4 6 5 3 6 4 6 6 4 4 4 2 2 7 4 3 3 6 5 1 5 5 3 6 4 7 2 1 5 5 7 13 3 3 7 3 3 5 3 3 6 4 3 3 5 4 2 4 8 8 4 4 4 1 2 8 6 5 4 4 6 4 7 1 4 3 9 7 5 8 4 4 4 5 4 7 6 4 9 3 5 7 8 5 4 9 4 4 6 4 7 5 5 10 3 3 4 4 6 1 1 3 5 7 8 3 8 5 7 6 6 7 4 3 4 8 10 0 7 4 9 5 10 5 10 2 7 9 7 6 6 3 7 3 7 3 6 4 6 8 5 4 6 4 5 3 4 2 1 4 2 7 3 7 4 7 2 5 4 4 5 2 6 3 4 8 7 7 7 7 3 6 4 6 7 4 3 5 5 5 4 6 8 4 4 3 3 6 5 5 6 5 7 3 5 5 7 5 3 4 8 6 6 3 3 8 4 6 7 2 7 4 3 3 8 3 7 5 4 4 8 5 11 4 5 3 5 6 9 6 7 3 3 4 3 3 5 3 11 1 6 2 6 3 4 3 7 5 5 3 1 3 8 2 6 5 4 4 7 5 3 4 6 7 7 9 2 5 8 1 5 14 4 1 1 9 8 3 6 7 9 6 6 6 5 11 8 7 8 4 2 5 3 5 8 5 10 9 10 4 5 2 7 3 8 6 7 7 8 6 6 8 8 7 4 5 8 6 5 5 7 3 11 4 8 4 12 6 3 5 9 3 5 4 4 3 3 9 7 4 6 3 5 2 4 6 7 5 4 1 3 7 4 1 4 7 10 4 5 6 8 9 8 5 10 7 5 3 9 5 5 10 4 3 12 4 3 5 5 4 14 5 8 3 6 4 6 3 5 7 6 
BTB PER SET COUNT: 2 1915 770 1008 908 316 519 972 2 835 911 362 2 819 1095 207 633 229 1267 11 447 1617 973 574 539 591 290 360 685 1128 772 98 298 1210 693 885 827 148 404 1707 10 1594 7 16 1616 864 186 245 153 1056 1799 504 1018 3 2 814 974 1140 775 42 1208 1013 204 262 158 3 213 232 5 1295 775 262 258 734 500 1542 4 878 1178 254 846 441 231 1523 667 179 1011 4 684 1687 736 1038 1038 1253 5 81 331 6 220 610 612 2 385 143 107 158 51 592 622 971 458 29 150 1230 5 294 363 17 556 2690 485 609 1776 278 8 1186 11 443 897 2 67 498 3 338 528 572 202 113 1023 993 10 730 1496 552 14 392 16 516 361 858 214 511 6 858 2 713 205 646 568 303 2 418 4 519 734 77 1 11 328 782 163 771 313 178 394 358 108 210 79 798 119 741 293 709 574 454 4 8 13 186 81 3 1021 675 5 458 187 622 1197 5 422 462 137 210 1 1038 6 542 713 6 4 2 1048 780 277 542 967 302 385 151 200 955 335 1255 1973 1401 222 121 185 1604 186 209 278 5161 246 685 5 456 450 892 699 100 694 270 411 369 456 671 288 440 3 693 4 164 590 111 213 362 391 1 500 522 486 284 136 525 19 530 778 225 523 646 149 558 588 1056 172 275 509 711 529 2 354 1032 11 686 1826 474 576 12 6 2 1260 641 809 232 21 79 549 151 1133 217 1473 680 200 8 622 15 449 9 177 2 822 363 7 419 6 838 339 2 612 440 247 343 1513 420 340 248 5 570 4 1844 159 817 171 224 852 388 284 707 3 367 345 4 726 267 4 847 1 325 391 242 414 2 711 9 311 554 855 204 2032 325 458 1155 285 3089 881 1246 3 3 711 493 3110 16 479 284 656 514 320 2 122 962 95 461 967 268 3 483 112 252 390 2 706 390 136 3 1805 4 470 107 607 963 357 248 418 1393 2524 705 848 2 274 327 1 459 971 244 406 401 267 766 490 2 5 525 897 720 535 803 1152 469 1664 62 3 468 852 2 314 2 2 111 2030 380 5 8 476 2 1475 25 760 444 1601 281 371 277 599 2 701 2 1565 237 1254 346 47 966 6 1087 350 156 2 706 399 628 27 436 992 209 144 4 316 677 137 2 213 380 8 529 182 401 226 940 526 503 125 550 696 994 903 541 105 881 3 256 3 261 11 471 245 108 2 71 1044 339 1076 1129 5 580 1046 1462 1061 723 354 442 1539 6 543 1893 74 6 275 2 2245 754 186 43 8 149 553 576 552 291 264 533 1256 1768 507 1151 1098 1711 766 80 4 1381 964 661 447 702 1200 1 205 146 858 7499 473 909 541 4 1145 156 2180 543 278 330 2 1298 2 1097 1294 2 455 166 3 753 2 1012 3 317 228 1 12 2355 763 470 923 1238 220 1755 1006 905 353 303 929 3 636 93 163 961 1256 1 171 247 453 129 1112 304 1 214 1105 349 11185 842 293 350 432 1 738 292 504 200 426 435 602 1029 67 791 462 821 4 1082 624 2418 3 345 484 4 10 1157 240 219 163 831 747 337 207 819 129 346 416 284 3 44 479 604 379 121 278 849 5 1745 765 915 501 343 696 3369 1005 407 394 1404 279 870 1133 777 153 1464 561 1046 381 1179 162 115 576 3 366 950 238 1449 104 1867 361 1670 664 1426 12 6 1225 133 4 454 1494 702 316 4 258 889 71 972 519 457 355 169 412 461 722 854 459 1005 944 872 1183 710 341 352 826 373 8 6 8 509 147 2504 6 1997 227 324 229 2 440 185 8 718 1473 262 265 259 284 756 755 3 3 816 571 298 282 174 225 216 661 2113 712 8 183 351 3 399 741 1101 309 721 337 590 724 112 194 289 769 7 725 696 265 1156 540 485 759 25 95 1050 202 197 262 210 200 37 604 853 345 2 132 4 263 149 439 6 2 256 1052 512 1974 370 930 95 898 361 141 180 423 1136 513 601 1655 417 836 453 156 854 41 145 1504 165 4 446 16 1758 519 613 358 12 182 878 14 924 5 513 42 219 694 37 884 144 181 15 1 491 4 517 487 302 1289 233 849 137 787 305 410 10 3 37 1252 1085 0 1032 431 1132 519 150 10 665 221 1753 49 0 1749 36 123 3 4 753 659 992 917 190 922 161 720 885 192 157 61 116 370 1070 736 294 584 795 761 1117 250 713 1394 982 1703 1 163 541 214 3 1474 289 266 374 5 942 1359 414 236 486 180 192 89 1105 1017 13 8 3 1101 307 3 24 249 8 1333 1101 464 2 2411 411 1507 5 1730 218 642 124 752 367 303 17 577 515 2 331 10 5 240 1104 2 71 87 1301 304 412 460 254 918 25 803 140 3 1004 18 163 6 416 981 1031 473 10 310 1786 5 7 483 278 669 1388 276 9 312 1360 944 473 8 682 1297 367 607 119 292 1322 3 37 485 362 448 158 666 180 889 1208 93 174 780 4 1017 588 715 829 521 405 1471 183 448 707 23 505 465 795 971 47 85 3 340 250 312 149 447 11 1102 1765 303 2 3 603 503 773 522 546 972 664 558 523 2 431 2 1212 1003 239 205 748 212 10 1358 1 177 311 304 311 11 59 65 647 1008 1011 627 9 391 586 238 3 260 3 366 1955 666 1676 382 892 9 172 2 178 154 761 427 1305 682 5 9 670 5 316 349 6 452 112 2 905 468 413 5 6 131 555 575 9 548 221 218 807 4 358 912 10384 1131 268 719 12 10 534 54 373 97 451 1 202 3 991 9 1194 1362 155 69 2 732 258 368 7 173 415 173 645 967 25 428 408 90 1256 10 82 410 684 880 62 1331 446 300 248 257 262 1085 824 1185 550 194 2 1979 147 1025 495 631 165 584 45 7 3 723 761 1178 3 1080 380 882 4 348 1555 1 247 811 86 690 254 699 9 501 46 428 820 702 167 427 137 3 78 482 3 1330 268 5 532 120 3 433 499 68 278 349 293 32 100 85 398 337 506 5 265 611 2 4 100 2 17 3 207 6 4 661 2 503 205 257 613 420 228 1006 3 214 494 328 1203 717 425 1406 58 203 519 236 512 130 1425 1888 1344 66 799 249 1313 270 633 793 238 339 842 5 310 376 413 972 470 452 1152 888 915 736 192 18 452 901 872 69 201 495 187 4 357 9 425 86 10 139 1497 440 1944 433 353 5 737 508 152 248 1097 539 418 582 666 234 475 962 1066 152 449 993 561 2296 7 267 211 16 2 765 2 276 368 552 655 847 553 57 2 308 211 200 659 3 178 269 1821 1177 541 487 171 2 714 2 636 278 326 191 233 9 279 294 255 2 176 403 424 2 299 560 46 13 4 996 266 286 65 6 397 965 196 170 557 4 452 906 74 1322 1029 305 433 103 901 1440 520 495 685 337 990 401 96 288 2197 1564 11 484 1941 1138 879 908 594 962 56 431 1246 114 103 355 6 803 17 425 9 3 366 3 729 343 7 6 585 909 353 365 6 56 320 1415 350 241 15 8 1749 138 206 1051 1 7 20 403 355 634 1358 180 773 411 541 674 723 11 150 11 282 427 228 359 568 436 1861 720 182 298 2 890 609 776 261 1507 906 979 115 960 116 382 566 2047 288 5 929 92 817 824 1901 1285 2 107 1028 518 722 1259 531 1245 3 531 46 744 161 148 980 252 604 7 797 5 6 259 197 12 459 420 832 221 6 965 390 272 15 2 353 7 411 97 1144 759 889 321 324 410 190 5 893 462 468 1013 5 75 333 4 583 345 1260 209 1471 429 240 74 661 7 440 1024 5 208 441 137 294 5 530 518 110 128 616 91 418 245 474 351 561 660 431 983 131 1391 388 11 643 1250 268 172 197 6 749 781 6 207 721 663 996 201 844 133 2 3 151 372 573 1318 162 785 653 1329 37 287 5 5 788 555 131 749 681 408 489 6 919 501 339 487 259 88 246 564 626 813 831 435 339 5 150 405 4 895 390 2 215 185 256 3 13 351 429 1 624 5 342 291 6 291 2 1 158 174 445 2964 157 395 892 3 244 400 3 5 359 534 161 54 294 87 2 8 1006 978 182 4 45 1 194 606 563 434 226 4 359 416 387 1 292 10 1907 218 462 430 385 171 308 193 94 71 209 122 628 395 5 666 612 199 26 924 5 152 807 507 1134 280 538 841 3 3 9 116 604 1 1 8 728 503 1178 3 1077 333 514 734 699 1489 328 5 4 418 1351 0 346 63 871 166 2041 494 665 2 763 2776 478 293 291 4 1042 3 915 3 401 403 594 565 81 4 577 264 281 3 4 7 1 285 2 869 3 815 512 379 4 172 6 12 343 122 911 117 322 558 1043 177 707 936 101 567 100 244 1319 5 689 162 6 349 778 551 1184 390 433 213 318 370 1306 778 721 8 1302 3 386 339 728 5 6 222 946 1903 491 3 76 805 277 406 751 2 869 12056 246 134 1320 276 1273 624 5 407 1274 679 1540 582 407 485 10 606 1401 626 512 58 263 7 3 4 799 13 1022 1 426 791 240 3 313 300 186 135 323 5 1 3 1374 2 119 593 610 72 1245 508 80 137 1231 171 354 849 2 431 1218 1 667 1235 142 1 1 651 684 4 395 600 1176 85 332 633 336 667 128 1280 374 179 2 419 330 300 1199 302 708 1276 239 287 86 2 810 198 608 738 421 363 1697 642 1372 1402 1105 996 175 175 623 3341 809 310 738 514 1610 4 675 425 1703 11 231 445 1397 201 634 512 230 44 6 1128 1622 456 577 83 521 4 313 75 545 7 303 1370 471 652 262 1 103 397 1173 153 225 6 1160 491 734 307 1642 390 914 3 1173 1486 156 550 11 8 1777 118 212 475 505 157 2705 190 1271 100 562 463 7 86 286 732 1004 
To predecode: 0
Predecoding something: 0
Predecode request dropped: 0
sizeofblock_0 0
sizeofblock_1 502661
sizeofblock_2 146210
sizeofblock_3 29377
sizeofblock_4 7634
sizeofblock_5 0
sizeofblock_6 0
sizeofblock_7 0
sizeofblock_8 0
Variant_0 Correct: 1311301 Incorrect: 0 Accuracy: 1
Variant_1 Correct: 1826713 Incorrect: 0 Accuracy: 1
Variant_2 Correct: 3354686 Incorrect: 0 Accuracy: 1
Variant_3 Correct: 0 Incorrect: 0 Accuracy: -nan
