
*** ChampSim Multicore Out-of-Order Simulator ***

Warmup Instructions: 50000000
Simulation Instructions: 50000000
Number of CPUs: 1
LLC sets: 2048
LLC ways: 16
Off-chip DRAM Size: 4096 MB Channels: 1 Width: 64-bit Data Rate: 6400 MT/s
CPU 0 runs ./micro_traces/srv193.trace.gz
.gz
ITLB has LRU replacement policy
DTLB has LRU replacement policy
STLB has LRU replacement policy
FDIP Prefetcher at L1I
L1I has LRU replacement policy
L1D has LRU replacement policy
Initialize SRRIP state for L2C
Initialize DRRIP state for LLC
Heartbeat_Variant_0 : 1342 0.327637 per_variant_size: 0 1342 0 0 0 0 0 0 0 
Heartbeat_Variant_1 : 2580 0.629883 per_variant_size: 0 536 2044 0 0 0 0 0 0 
Heartbeat_Variant_2 : 0 0 per_variant_size: 0 0 0 0 0 0 0 0 0 
Heartbeat_Variant_3 : 0 0 per_variant_size: 0 0 0 0 0 0 0 0 0 
Heartbeat_Variant_0_evicts 0 : 5785 1 : 578 2 : 0 3 : 0 
Heartbeat_Variant_1_evicts 0 : 510 1 : 0 2 : 0 3 : 0 
Heartbeat_Variant_2_evicts 0 : 0 1 : 0 2 : 0 3 : 0 
Heartbeat_Variant_3_evicts 0 : 0 1 : 0 2 : 0 3 : 0 
Heartbeat CPU 0 instructions: 10000002 cycles: 2794959 heartbeat IPC: 3.57787 cumulative IPC: 3.57787 (Simulation time: 0 hr 1 min 58 sec) 
Heartbeat_Variant_0 : 1346 0.328613 per_variant_size: 0 1346 0 0 0 0 0 0 0 
Heartbeat_Variant_1 : 2592 0.632812 per_variant_size: 0 521 2071 0 0 0 0 0 0 
Heartbeat_Variant_2 : 0 0 per_variant_size: 0 0 0 0 0 0 0 0 0 
Heartbeat_Variant_3 : 0 0 per_variant_size: 0 0 0 0 0 0 0 0 0 
Heartbeat_Variant_0_evicts 0 : 5519 1 : 100 2 : 0 3 : 0 
Heartbeat_Variant_1_evicts 0 : 97 1 : 0 2 : 0 3 : 0 
Heartbeat_Variant_2_evicts 0 : 0 1 : 0 2 : 0 3 : 0 
Heartbeat_Variant_3_evicts 0 : 0 1 : 0 2 : 0 3 : 0 
Heartbeat CPU 0 instructions: 20000001 cycles: 5589895 heartbeat IPC: 3.5779 cumulative IPC: 3.57788 (Simulation time: 0 hr 3 min 34 sec) 
Heartbeat_Variant_0 : 1374 0.335449 per_variant_size: 0 1374 0 0 0 0 0 0 0 
Heartbeat_Variant_1 : 2642 0.64502 per_variant_size: 0 471 2171 0 0 0 0 0 0 
Heartbeat_Variant_2 : 0 0 per_variant_size: 0 0 0 0 0 0 0 0 0 
Heartbeat_Variant_3 : 0 0 per_variant_size: 0 0 0 0 0 0 0 0 0 
Heartbeat_Variant_0_evicts 0 : 5708 1 : 478 2 : 0 3 : 0 
Heartbeat_Variant_1_evicts 0 : 468 1 : 0 2 : 0 3 : 0 
Heartbeat_Variant_2_evicts 0 : 0 1 : 0 2 : 0 3 : 0 
Heartbeat_Variant_3_evicts 0 : 0 1 : 0 2 : 0 3 : 0 
Heartbeat CPU 0 instructions: 30000001 cycles: 8384444 heartbeat IPC: 3.57839 cumulative IPC: 3.57805 (Simulation time: 0 hr 5 min 11 sec) 
Heartbeat_Variant_0 : 1376 0.335938 per_variant_size: 0 1376 0 0 0 0 0 0 0 
Heartbeat_Variant_1 : 2671 0.6521 per_variant_size: 0 472 2199 0 0 0 0 0 0 
Heartbeat_Variant_2 : 0 0 per_variant_size: 0 0 0 0 0 0 0 0 0 
Heartbeat_Variant_3 : 0 0 per_variant_size: 0 0 0 0 0 0 0 0 0 
Heartbeat_Variant_0_evicts 0 : 5880 1 : 454 2 : 0 3 : 0 
Heartbeat_Variant_1_evicts 0 : 462 1 : 0 2 : 0 3 : 0 
Heartbeat_Variant_2_evicts 0 : 0 1 : 0 2 : 0 3 : 0 
Heartbeat_Variant_3_evicts 0 : 0 1 : 0 2 : 0 3 : 0 
Heartbeat CPU 0 instructions: 40000001 cycles: 11178574 heartbeat IPC: 3.57893 cumulative IPC: 3.57827 (Simulation time: 0 hr 6 min 48 sec) 
Heartbeat_Variant_0 : 1381 0.337158 per_variant_size: 0 1381 0 0 0 0 0 0 0 
Heartbeat_Variant_1 : 2673 0.652588 per_variant_size: 0 471 2202 0 0 0 0 0 0 
Heartbeat_Variant_2 : 0 0 per_variant_size: 0 0 0 0 0 0 0 0 0 
Heartbeat_Variant_3 : 0 0 per_variant_size: 0 0 0 0 0 0 0 0 0 
Heartbeat_Variant_0_evicts 0 : 5620 1 : 314 2 : 0 3 : 0 
Heartbeat_Variant_1_evicts 0 : 310 1 : 0 2 : 0 3 : 0 
Heartbeat_Variant_2_evicts 0 : 0 1 : 0 2 : 0 3 : 0 
Heartbeat_Variant_3_evicts 0 : 0 1 : 0 2 : 0 3 : 0 
Heartbeat CPU 0 instructions: 50000002 cycles: 13974405 heartbeat IPC: 3.57675 cumulative IPC: 3.57797 (Simulation time: 0 hr 8 min 27 sec) 

Warmup complete CPU 0 instructions: 50000002 cycles: 13974405 (Simulation time: 0 hr 8 min 27 sec) 

Cycle: 20000000 FTQ IN: 57874930 FTQ occupancy: 18.6098 DECODE IN: 57874914 DECODE occupancy: 48.0404 ROB IN: 57874896 ROB occupancy: 295.471 ROB OUT: 57874839
*** Reached end of trace for Core: 0 Repeating trace: ./micro_traces/srv193.trace.gz
Heartbeat_Variant_0 : 1382 0.337402 per_variant_size: 0 1382 0 0 0 0 0 0 0 
Heartbeat_Variant_1 : 2680 0.654297 per_variant_size: 0 447 2233 0 0 0 0 0 0 
Heartbeat_Variant_2 : 0 0 per_variant_size: 0 0 0 0 0 0 0 0 0 
Heartbeat_Variant_3 : 0 0 per_variant_size: 0 0 0 0 0 0 0 0 0 
Heartbeat_Variant_0_evicts 0 : 5683 1 : 383 2 : 0 3 : 0 
Heartbeat_Variant_1_evicts 0 : 385 1 : 0 2 : 0 3 : 0 
Heartbeat_Variant_2_evicts 0 : 0 1 : 0 2 : 0 3 : 0 
Heartbeat_Variant_3_evicts 0 : 0 1 : 0 2 : 0 3 : 0 
Heartbeat CPU 0 instructions: 60000003 cycles: 21747737 heartbeat IPC: 1.28645 cumulative IPC: 1.28645 (Simulation time: 0 hr 9 min 59 sec) 
Heartbeat_Variant_0 : 1382 0.337402 per_variant_size: 0 1382 0 0 0 0 0 0 0 
Heartbeat_Variant_1 : 2683 0.655029 per_variant_size: 0 445 2238 0 0 0 0 0 0 
Heartbeat_Variant_2 : 0 0 per_variant_size: 0 0 0 0 0 0 0 0 0 
Heartbeat_Variant_3 : 0 0 per_variant_size: 0 0 0 0 0 0 0 0 0 
Heartbeat_Variant_0_evicts 0 : 5634 1 : 171 2 : 0 3 : 0 
Heartbeat_Variant_1_evicts 0 : 171 1 : 0 2 : 0 3 : 0 
Heartbeat_Variant_2_evicts 0 : 0 1 : 0 2 : 0 3 : 0 
Heartbeat_Variant_3_evicts 0 : 0 1 : 0 2 : 0 3 : 0 
Heartbeat CPU 0 instructions: 70000001 cycles: 29330257 heartbeat IPC: 1.31882 cumulative IPC: 1.30244 (Simulation time: 0 hr 11 min 29 sec) 
Cycle: 30000000 FTQ IN: 13002797 FTQ occupancy: 8.78196 DECODE IN: 13002756 DECODE occupancy: 20.8697 ROB IN: 13002774 ROB occupancy: 175.879 ROB OUT: 13002751
Heartbeat_Variant_0 : 1384 0.337891 per_variant_size: 0 1384 0 0 0 0 0 0 0 
Heartbeat_Variant_1 : 2682 0.654785 per_variant_size: 0 457 2225 0 0 0 0 0 0 
Heartbeat_Variant_2 : 0 0 per_variant_size: 0 0 0 0 0 0 0 0 0 
Heartbeat_Variant_3 : 0 0 per_variant_size: 0 0 0 0 0 0 0 0 0 
Heartbeat_Variant_0_evicts 0 : 5505 1 : 94 2 : 0 3 : 0 
Heartbeat_Variant_1_evicts 0 : 93 1 : 0 2 : 0 3 : 0 
Heartbeat_Variant_2_evicts 0 : 0 1 : 0 2 : 0 3 : 0 
Heartbeat_Variant_3_evicts 0 : 0 1 : 0 2 : 0 3 : 0 
Heartbeat CPU 0 instructions: 80000001 cycles: 36897495 heartbeat IPC: 1.32149 cumulative IPC: 1.30872 (Simulation time: 0 hr 13 min 1 sec) 
Cycle: 40000000 FTQ IN: 13085960 FTQ occupancy: 8.59077 DECODE IN: 13085966 DECODE occupancy: 20.3208 ROB IN: 13085966 ROB occupancy: 172.076 ROB OUT: 13085906
Heartbeat_Variant_0 : 1384 0.337891 per_variant_size: 0 1384 0 0 0 0 0 0 0 
Heartbeat_Variant_1 : 2689 0.656494 per_variant_size: 0 460 2229 0 0 0 0 0 0 
Heartbeat_Variant_2 : 0 0 per_variant_size: 0 0 0 0 0 0 0 0 0 
Heartbeat_Variant_3 : 0 0 per_variant_size: 0 0 0 0 0 0 0 0 0 
Heartbeat_Variant_0_evicts 0 : 5762 1 : 529 2 : 0 3 : 0 
Heartbeat_Variant_1_evicts 0 : 529 1 : 0 2 : 0 3 : 0 
Heartbeat_Variant_2_evicts 0 : 0 1 : 0 2 : 0 3 : 0 
Heartbeat_Variant_3_evicts 0 : 0 1 : 0 2 : 0 3 : 0 
Heartbeat CPU 0 instructions: 90000002 cycles: 44613533 heartbeat IPC: 1.296 cumulative IPC: 1.30552 (Simulation time: 0 hr 14 min 35 sec) 
Cycle: 50000000 FTQ IN: 13172293 FTQ occupancy: 8.48406 DECODE IN: 13172206 DECODE occupancy: 20.1879 ROB IN: 13172146 ROB occupancy: 172.359 ROB OUT: 13172151
Heartbeat_Variant_0 : 1392 0.339844 per_variant_size: 0 1392 0 0 0 0 0 0 0 
Heartbeat_Variant_1 : 2684 0.655273 per_variant_size: 0 466 2218 0 0 0 0 0 0 
Heartbeat_Variant_2 : 0 0 per_variant_size: 0 0 0 0 0 0 0 0 0 
Heartbeat_Variant_3 : 0 0 per_variant_size: 0 0 0 0 0 0 0 0 0 
Heartbeat_Variant_0_evicts 0 : 5876 1 : 399 2 : 0 3 : 0 
Heartbeat_Variant_1_evicts 0 : 392 1 : 0 2 : 0 3 : 0 
Heartbeat_Variant_2_evicts 0 : 0 1 : 0 2 : 0 3 : 0 
Heartbeat_Variant_3_evicts 0 : 0 1 : 0 2 : 0 3 : 0 
Heartbeat CPU 0 instructions: 100000001 cycles: 52200001 heartbeat IPC: 1.31814 cumulative IPC: 1.30802 (Simulation time: 0 hr 16 min 1 sec) 
Finished CPU 0 instructions: 50000003 cycles: 38225597 cumulative IPC: 1.30802 (Simulation time: 0 hr 16 min 1 sec) 

ChampSim completed all CPUs

Region of Interest Statistics

CPU 0 cumulative IPC: 1.30802 instructions: 50000003 cycles: 38225597
 Fetch stage stalled: 64.6023  Sim cycles: 38225597 fetch stall cycle: 24694599
 Empty decode stage: 62.974  Sim cycles: 38225597 fetch stall cycle: 24072170
ITLB TOTAL     ACCESS:    5865573  HIT:    5373993  MISS:     491580  HIT %:    91.6192  MISS %:    8.38077   MPKI: 9.8316
ITLB LOAD TRANSLATION INSTRUCTION	ACCESS:    5755043  HIT:    5263463  MISS:     491580  HIT %:    91.4583  MISS %:    8.54173  MPKI: 9.8316
ITLB TRANSLATION FROM L1D PREFETCHER INSTRUCTION	ACCESS:     110530  HIT:     110530  MISS:          0  HIT %:        100  MISS %:          0  MPKI: 0

ITLB AVERAGE MISS LATENCY: 9.06549 cycles
ITLB RQ	ACCESS:    7978411	FORWARD:          0	MERGED:    1705018	TO_CACHE:    6273393

DTLB TOTAL     ACCESS:    9070164  HIT:    8593598  MISS:     476566  HIT %:    94.7458  MISS %:    5.25422   MPKI: 9.53132
DTLB LOAD TRANSLATION DATA	ACCESS:    9070164  HIT:    8593598  MISS:     476566  HIT %:    94.7458  MISS %:    5.25422  MPKI: 9.53132

DTLB AVERAGE MISS LATENCY: 9.31477 cycles
DTLB RQ	ACCESS:   13404693	FORWARD:          0	MERGED:    4297176	TO_CACHE:    9107517

STLB TOTAL     ACCESS:    1222896  HIT:    1220646  MISS:       2250  HIT %:     99.816  MISS %:   0.183989   MPKI: 0.045
STLB LOAD TRANSLATION INSTRUCTION	ACCESS:     491581  HIT:     491268  MISS:        313  HIT %:    99.9363  MISS %:  0.0636721  MPKI: 0.00626
STLB LOAD TRANSLATION DATA	ACCESS:     476508  HIT:     474613  MISS:       1895  HIT %:    99.6023  MISS %:   0.397685  MPKI: 0.0379
STLB TRANSLATION FROM L1D PREFETCHER DATA	ACCESS:     254807  HIT:     254765  MISS:         42  HIT %:    99.9835  MISS %:  0.0164831  MPKI: 0.00084

STLB AVERAGE MISS LATENCY: 68.512 cycles
STLB RQ	ACCESS:    1370121	FORWARD:          0	MERGED:     147195	TO_CACHE:    1222926

STLB Hit, L1D data hit: 0
STLB Hit, L2C data hit: 0
STLB Hit, LLC data hit: 0
STLB Hit, LLC data miss: 0
STLB STLB hints to L2: 0
L1D TOTAL     ACCESS:   13161872  HIT:   11992730  MISS:    1169142  HIT %:    91.1172  MISS %:    8.88279   MPKI: 23.3828
L1D LOAD DATA	ACCESS:    6651715  HIT:    5882348  MISS:     769367  HIT %:    88.4336  MISS %:    11.5664  MPKI: 15.3873
L1D RFO DATA	ACCESS:    6173813  HIT:    5880249  MISS:     293564  HIT %:     95.245  MISS %:    4.75499  MPKI: 5.87128
L1D PREFETCH DATA	ACCESS:     336344  HIT:     230133  MISS:     106211  HIT %:    68.4219  MISS %:    31.5781  MPKI: 2.12422

L1D PREFETCH  REQUESTED:     804227  ISSUED:     804227  USEFUL:      49141  USELESS:      71130
L1D USEFUL LOAD PREFETCHES:      49141 PREFETCH ISSUED TO LOWER LEVEL:     120305  ACCURACY: 40.847
 TIMELY PREFETCHES:      49141 LATE PREFETCHES: 14051 DROPPED PREFETCHES: 3
L1D AVERAGE MISS LATENCY: 387599 cycles
L1D RQ	ACCESS:   10730721	FORWARD:          0	MERGED:    3882697	TO_CACHE:    6686860
L1D WQ	ACCESS:    6906510	FORWARD:     161445	MERGED:     188677	TO_CACHE:    6717833
L1D PQ	ACCESS:     402254	FORWARD:          0	MERGED:          0	TO_CACHE:     401973

L1D UNIQUE REGIONS ACCESSED: 0
L1D REGIONS CONFLICTS: 0
L1D Cross Page Prefetch Requests: 8036
L1D Same Page Prefetch Requests: 811166
L1D ROI Sum of L1D PQ occupancy: 5142049
L1D PREFETCHES PUSHED FROM L2C: 0
L1I TOTAL     ACCESS:    7230745  HIT:    4477130  MISS:    2753615  HIT %:     61.918  MISS %:     38.082   MPKI: 55.0723
L1I LOAD INSTRUCTION	ACCESS:    6593144  HIT:    3839529  MISS:    2753615  HIT %:    58.2352  MISS %:    41.7648  MPKI: 55.0723
L1I PREFETCH INSTRUCTION	ACCESS:     637601  HIT:     637601  MISS:          0  HIT %:        100  MISS %:          0  MPKI: 0

L1I PREFETCH  REQUESTED:    1527843  ISSUED:    1527843  USEFUL:          0  USELESS:          0
L1I USEFUL LOAD PREFETCHES:          0 PREFETCH ISSUED TO LOWER LEVEL:          0  ACCURACY: -nan
 TIMELY PREFETCHES:          0 LATE PREFETCHES: 0 DROPPED PREFETCHES: 0
L1I AVERAGE MISS LATENCY: 17.0711 cycles
L1I RQ	ACCESS:    9450349	FORWARD:          0	MERGED:    2575509	TO_CACHE:    6874840
L1I PQ	ACCESS:    1527843	FORWARD:          0	MERGED:     424272	TO_CACHE:    1103571

L1BTB TOTAL     ACCESS:    5683290  HIT:    2072670  MISS:    3610620  HIT %:    36.4695  MISS %:    63.5305   MPKI: 72.2124
L1BTB BRANCH_DIRECT_JUMP	ACCESS:     543933 HIT:     143533 MISS:     400400 AVERAGE STALL: 36.4304 AVERAGE FETCH STALL: 14.2935 AVERAGE FETCH QUEUE STALL: 6.83499 AVERAGE DECODE STALL: 14.3846 AVERAGE EXECUTE STALL: 1.91555e+15
L1BTB BRANCH_INDIRECT	ACCESS:     181519 HIT:      65560 MISS:     115959 AVERAGE STALL: 77.0048 AVERAGE FETCH STALL: 10.6427 AVERAGE FETCH QUEUE STALL: 8.71772 AVERAGE DECODE STALL: 7.56386 AVERAGE EXECUTE STALL: 49.118
L1BTB BRANCH_CONDITIONAL	ACCESS:    2736723 HIT:    1450206 MISS:    1286517 AVERAGE STALL: 41.7107 AVERAGE FETCH STALL: 22.3981 AVERAGE FETCH QUEUE STALL: 9.80411 AVERAGE DECODE STALL: 8.75004 AVERAGE EXECUTE STALL: 3.15599e+15
L1BTB BRANCH_DIRECT_CALL	ACCESS:     940050 HIT:     103443 MISS:     836607 AVERAGE STALL: 50.7403 AVERAGE FETCH STALL: 28.0314 AVERAGE FETCH QUEUE STALL: 11.4137 AVERAGE DECODE STALL: 10.5404 AVERAGE EXECUTE STALL: 6.8934e+15
L1BTB BRANCH_INDIRECT_CALL	ACCESS:     170506 HIT:      20998 MISS:     149508 AVERAGE STALL: 101.924 AVERAGE FETCH STALL: 12.7295 AVERAGE FETCH QUEUE STALL: 5.1331 AVERAGE DECODE STALL: 7.2001 AVERAGE EXECUTE STALL: 76.3723
L1BTB BRANCH_RETURN	ACCESS:    1110559 HIT:     288930 MISS:     821629 AVERAGE STALL: 38.425 AVERAGE FETCH STALL: 16.6767 AVERAGE FETCH QUEUE STALL: 2.51318 AVERAGE DECODE STALL: 5.07957 AVERAGE EXECUTE STALL: 4.31452e+14
L1BTB BRANCH_OTHER ACCESS:          0 HIT:          0 MISS:          0 AVERAGE STALL: -nan AVERAGE FETCH STALL: -nan AVERAGE FETCH QUEUE STALL: -nan AVERAGE DECODE STALL: -nan AVERAGE EXECUTE STALL: -nan
L1BTB TOTAL ROB OCCUPANCY AT BTB MISS: 1.96803

L2BTB TOTAL     ACCESS:    3585652  HIT:    3516952  MISS:      68700  HIT %:     98.084  MISS %:    1.91597   MPKI: 1.374
L2BTB BRANCH_DIRECT_JUMP	ACCESS:     396305 HIT:     390763 MISS:       5542 AVERAGE STALL: 36.4304 AVERAGE FETCH STALL: 14.2935 AVERAGE FETCH QUEUE STALL: 6.83499 AVERAGE DECODE STALL: 14.3846 AVERAGE EXECUTE STALL: 1.91555e+15
L2BTB BRANCH_INDIRECT	ACCESS:     105737 HIT:     103064 MISS:       2673 AVERAGE STALL: 77.0048 AVERAGE FETCH STALL: 10.6427 AVERAGE FETCH QUEUE STALL: 8.71772 AVERAGE DECODE STALL: 7.56386 AVERAGE EXECUTE STALL: 49.118
L2BTB BRANCH_CONDITIONAL	ACCESS:    1286517 HIT:    1280565 MISS:       5952 AVERAGE STALL: 41.7107 AVERAGE FETCH STALL: 22.3981 AVERAGE FETCH QUEUE STALL: 9.80411 AVERAGE DECODE STALL: 8.75004 AVERAGE EXECUTE STALL: 3.15599e+15
L2BTB BRANCH_DIRECT_CALL	ACCESS:     836607 HIT:     833893 MISS:       2714 AVERAGE STALL: 50.7403 AVERAGE FETCH STALL: 28.0314 AVERAGE FETCH QUEUE STALL: 11.4137 AVERAGE DECODE STALL: 10.5404 AVERAGE EXECUTE STALL: 6.8934e+15
L2BTB BRANCH_INDIRECT_CALL	ACCESS:     140079 HIT:     129820 MISS:      10259 AVERAGE STALL: 101.924 AVERAGE FETCH STALL: 12.7295 AVERAGE FETCH QUEUE STALL: 5.1331 AVERAGE DECODE STALL: 7.2001 AVERAGE EXECUTE STALL: 76.3723
L2BTB BRANCH_RETURN	ACCESS:     820407 HIT:     778847 MISS:      41560 AVERAGE STALL: 38.425 AVERAGE FETCH STALL: 16.6767 AVERAGE FETCH QUEUE STALL: 2.51318 AVERAGE DECODE STALL: 5.07957 AVERAGE EXECUTE STALL: 4.31452e+14
L2BTB BRANCH_OTHER ACCESS:          0 HIT:          0 MISS:          0 AVERAGE STALL: -nan AVERAGE FETCH STALL: -nan AVERAGE FETCH QUEUE STALL: -nan AVERAGE DECODE STALL: -nan AVERAGE EXECUTE STALL: -nan
L2BTB TOTAL ROB OCCUPANCY AT BTB MISS: 103.432

L2C TOTAL     ACCESS:    4545282  HIT:    4058513  MISS:     486769  HIT %:    89.2907  MISS %:    10.7093   MPKI: 9.73538
L2C LOAD INSTRUCTION	ACCESS:    2753615  HIT:    2501104  MISS:     252511  HIT %:    90.8298  MISS %:    9.17016  MPKI: 5.05022
L2C LOAD TRANSLATION INSTRUCTION	ACCESS:        370  HIT:        104  MISS:        266  HIT %:    28.1081  MISS %:    71.8919  MPKI: 0.00532
L2C LOAD DATA	ACCESS:     755291  HIT:     676118  MISS:      79173  HIT %:    89.5176  MISS %:    10.4824  MPKI: 1.58346
L2C RFO DATA	ACCESS:     293507  HIT:     232582  MISS:      60925  HIT %:    79.2424  MISS %:    20.7576  MPKI: 1.2185
L2C PREFETCH DATA	ACCESS:     207775  HIT:     131083  MISS:      76692  HIT %:    63.0889  MISS %:    36.9111  MPKI: 1.53384
L2C WRITEBACK DATA	ACCESS:     532619  HIT:     516977  MISS:      15642  HIT %:    97.0632  MISS %:    2.93681  MPKI: 0.31284
L2C LOAD TRANSLATION DATA	ACCESS:       2047  HIT:        499  MISS:       1548  HIT %:    24.3771  MISS %:    75.6229  MPKI: 0.03096
L2C TRANSLATION FROM L1D PREFETCHER DATA	ACCESS:         58  HIT:         46  MISS:         12  HIT %:    79.3103  MISS %:    20.6897  MPKI: 0.00024

L2C PREFETCH  REQUESTED:      95597  ISSUED:      95597  USEFUL:       9385  USELESS:      68062
L2C USEFUL LOAD PREFETCHES:       9385 PREFETCH ISSUED TO LOWER LEVEL:      77228  ACCURACY: 12.1523
 TIMELY PREFETCHES:       9385 LATE PREFETCHES: 536 DROPPED PREFETCHES: 0
L2C AVERAGE MISS LATENCY: 41.7166 cycles
L2C RQ	ACCESS:    3804929	FORWARD:          0	MERGED:          0	TO_CACHE:    3804890
L2C WQ	ACCESS:     532619	FORWARD:         39	MERGED:          0	TO_CACHE:     532619
L2C PQ	ACCESS:     215902	FORWARD:          0	MERGED:       3545	TO_CACHE:     212357

L2C Dense regions hint from L2: 0
PSCL5 TOTAL     ACCESS:       4508  HIT:       2254  MISS:       2254  HIT %:         50  MISS %:         50   MPKI: 0.04508
PSCL5 LOAD TRANSLATION INSTRUCTION	ACCESS:       4394  HIT:       2197  MISS:       2197  HIT %:         50  MISS %:         50  MPKI: 0.04394
PSCL5 TRANSLATION FROM L1D PREFETCHER INSTRUCTION	ACCESS:        114  HIT:         57  MISS:         57  HIT %:         50  MISS %:         50  MPKI: 0.00114


PSCL4 TOTAL     ACCESS:       4290  HIT:       2140  MISS:       2150  HIT %:    49.8834  MISS %:    50.1166   MPKI: 0.043
PSCL4 LOAD TRANSLATION INSTRUCTION	ACCESS:       3640  HIT:       2083  MISS:       1557  HIT %:    57.2253  MISS %:    42.7747  MPKI: 0.03114
PSCL4 TRANSLATION FROM L1D PREFETCHER INSTRUCTION	ACCESS:        112  HIT:         57  MISS:         55  HIT %:    50.8929  MISS %:    49.1071  MPKI: 0.0011
PSCL4 LOAD TRANSLATION DATA	ACCESS:        536  HIT:          0  MISS:        536  HIT %:          0  MISS %:        100  MPKI: 0.01072
PSCL4 TRANSLATION FROM L1D PREFETCHER DATA	ACCESS:          2  HIT:          0  MISS:          2  HIT %:          0  MISS %:        100  MPKI: 4e-05


PSCL3 TOTAL     ACCESS:       4305  HIT:       2140  MISS:       2165  HIT %:    49.7096  MISS %:    50.2904   MPKI: 0.0433
PSCL3 LOAD TRANSLATION INSTRUCTION	ACCESS:       2766  HIT:       2099  MISS:        667  HIT %:    75.8858  MISS %:    24.1142  MPKI: 0.01334
PSCL3 TRANSLATION FROM L1D PREFETCHER INSTRUCTION	ACCESS:         59  HIT:         41  MISS:         18  HIT %:    69.4915  MISS %:    30.5085  MPKI: 0.00036
PSCL3 LOAD TRANSLATION DATA	ACCESS:       1457  HIT:          0  MISS:       1457  HIT %:          0  MISS %:        100  MPKI: 0.02914
PSCL3 TRANSLATION FROM L1D PREFETCHER DATA	ACCESS:         23  HIT:          0  MISS:         23  HIT %:          0  MISS %:        100  MPKI: 0.00046


PSCL2 TOTAL     ACCESS:       4322  HIT:       2068  MISS:       2254  HIT %:    47.8482  MISS %:    52.1518   MPKI: 0.04508
PSCL2 LOAD TRANSLATION INSTRUCTION	ACCESS:       2326  HIT:       2012  MISS:        314  HIT %:    86.5004  MISS %:    13.4996  MPKI: 0.00628
PSCL2 TRANSLATION FROM L1D PREFETCHER INSTRUCTION	ACCESS:         56  HIT:         56  MISS:          0  HIT %:        100  MISS %:          0  MPKI: 0
PSCL2 LOAD TRANSLATION DATA	ACCESS:       1884  HIT:          0  MISS:       1884  HIT %:          0  MISS %:        100  MPKI: 0.03768
PSCL2 TRANSLATION FROM L1D PREFETCHER DATA	ACCESS:         56  HIT:          0  MISS:         56  HIT %:          0  MISS %:        100  MPKI: 0.00112


LLC TOTAL     ACCESS:     555413  HIT:     525638  MISS:      29775  HIT %:    94.6391  MISS %:    5.36088   MPKI: 0.5955
LLC LOAD INSTRUCTION	ACCESS:     252511  HIT:     251659  MISS:        852  HIT %:    99.6626  MISS %:   0.337411  MPKI: 0.01704
LLC LOAD TRANSLATION INSTRUCTION	ACCESS:        266  HIT:        232  MISS:         34  HIT %:     87.218  MISS %:     12.782  MPKI: 0.00068
LLC LOAD DATA	ACCESS:      78666  HIT:      75117  MISS:       3549  HIT %:    95.4885  MISS %:    4.51148  MPKI: 0.07098
LLC RFO DATA	ACCESS:      60878  HIT:      46380  MISS:      14498  HIT %:    76.1852  MISS %:    23.8148  MPKI: 0.28996
LLC PREFETCH DATA	ACCESS:      77226  HIT:      66704  MISS:      10522  HIT %:    86.3751  MISS %:    13.6249  MPKI: 0.21044
LLC WRITEBACK DATA	ACCESS:      84306  HIT:      84079  MISS:        227  HIT %:    99.7307  MISS %:   0.269257  MPKI: 0.00454
LLC LOAD TRANSLATION DATA	ACCESS:       1548  HIT:       1456  MISS:         92  HIT %:    94.0568  MISS %:    5.94315  MPKI: 0.00184
LLC TRANSLATION FROM L1D PREFETCHER DATA	ACCESS:         12  HIT:         11  MISS:          1  HIT %:    91.6667  MISS %:    8.33333  MPKI: 2e-05

LLC AVERAGE MISS LATENCY: 207.188 cycles
LLC RQ	ACCESS:     393899	FORWARD:          0	MERGED:          0	TO_CACHE:     393881
LLC WQ	ACCESS:      84306	FORWARD:         20	MERGED:          0	TO_CACHE:      84306
LLC PQ	ACCESS:      77228	FORWARD:          0	MERGED:          0	TO_CACHE:      77226

LLC Dense regions hint to LLC: 0

RAW hits: 1870314
Loads Generated: 12601036
Loads sent to L1D: 10730721
Stores Generated: 6906488
Stores sent to L1D: 6906510
Major fault: 0 Minor fault: 2387
Allocated PAGES: 2387

stream: 
stream:times selected: 1246020
stream:pref_filled: 128313
stream:pref_useful: 28799
stream:pref_late: 9504
stream:misses: 10764
stream:misses_by_poll: 0

CS: 
CS:times selected: 198249
CS:pref_filled: 75217
CS:pref_useful: 52037
CS:pref_late: 9977
CS:misses: 24303
CS:misses_by_poll: 2

CPLX: 
CPLX:times selected: 1046646
CPLX:pref_filled: 25620
CPLX:pref_useful: 7904
CPLX:pref_late: 4106
CPLX:misses: 132635
CPLX:misses_by_poll: 0

NL_L1: 
NL:times selected: 21648
NL:pref_filled: 1105
NL:pref_useful: 488
NL:pref_late: 786
NL:misses: 3231
NL:misses_by_poll: 0

total selections: 2512563
total_filled: 106211
total_useful: 49141
total_late: 27029
total_polluted: 2
total_misses_after_warmup: 804512
conflicts: 5537956

test: 117543

DRAM Statistics
 CHANNEL 0
 RQ ROW_BUFFER_HIT:      10884  ROW_BUFFER_MISS:      18662
 DBUS_CONGESTED:         16
 WQ ROW_BUFFER_HIT:       2059  ROW_BUFFER_MISS:      13969  FULL:          0

 AVG_CONGESTED_CYCLE: 3

CPU 0 Branch Prediction Accuracy: 99.8222% MPKI: 0.32582 Average ROB Occupancy at Mispredict: 157.065
Branch types
NOT_BRANCH: 40836581 81.6732%
BRANCH_DIRECT_JUMP: 543933 1.08787%
BRANCH_INDIRECT: 181519 0.363038%
BRANCH_CONDITIONAL: 6216755 12.4335%
BRANCH_DIRECT_CALL: 940050 1.8801%
BRANCH_INDIRECT_CALL: 170506 0.341012%
BRANCH_RETURN: 1110559 2.22112%
BRANCH_OTHER: 0 0%

DRAM PAGES: 1048576
Allocated PAGES: 2387
Average_ROB_Occupancy: 174.624
Average_Decode_Occupancy: 20.4208
Average_FTQ_Occupancy: 8.58701
Indirect max targets: 14 Average targets: 1.15563
Branch_type:  BRANCH_DIRECT_JUMP:  Count Percentage: 4.13897 5.12003 3.97698 8.46497 2.40668 6.32723 1.55263 68.0125 
Branch_type:  BRANCH_INDIRECT:  Count Percentage: 6.11545 3.53349 8.13041 9.68367 3.33861 2.80496 1.73821 64.6552 
Branch_type:  BRANCH_CONDITIONAL:  Count Percentage: 22.8197 2.76049 1.65328 7.56646 2.91521 3.56898 2.0386 56.6772 
Branch_type:  BRANCH_DIRECT_CALL:  Count Percentage: 0.391087 1.2553 0.737933 4.49537 2.99523 2.60552 2.82928 84.6903 
Branch_type:  BRANCH_INDIRECT_CALL:  Count Percentage: 9.54814 0 3.003 0.00410887 0.999924 1.71135 2.7054 82.0281 
Branch_type:  BRANCH_RETURN:  Count Percentage: 4.25869 4.66015 1.24136 4.75128 5.54162 3.53596 2.6988 73.3121 
Branch_type:  BRANCH_DIRECT_JUMP:  Total Count: 44969 55628 43209 91970 26148 68744 16869 738941 
Branch_type:  BRANCH_INDIRECT:  Total Count: 22186 12819 29496 35131 12112 10176 6306 234560 
Branch_type:  BRANCH_CONDITIONAL:  Total Count: 2834992 342947 205394 940013 362169 443389 253264 7041252 
Branch_type:  BRANCH_DIRECT_CALL:  Total Count: 7346 23579 13861 84439 56261 48941 53144 1590785 
Branch_type:  BRANCH_INDIRECT_CALL:  Total Count: 32533 0 10232 14 3407 5831 9218 279491 
Branch_type:  BRANCH_RETURN:  Total Count: 94539 103451 27557 105474 123019 78495 59911 1627463 
Number of unique branch instructions: 10480
Upper 32 bits: 
aaaa
ffff
ffff0000
Unique upper 32 bits: 3
Unique upper 36 bits: 3
Unique upper 40 bits: 5
Unique upper 44 bits: 32
Unique upper 48 bits: 159
Variant_0 : 1392 0.339844
Variant_1 : 2684 0.655273
Variant_2 : 0 0
Variant_3 : 0 0
Offset_3 4329
Offset_4 269
Offset_5 477
Offset_6 537
Offset_7 614
Offset_8 534
Offset_9 506
Offset_10 415
Offset_11 342
Offset_12 277
Offset_13 218
Offset_14 228
Offset_15 203
Offset_16 234
Offset_17 165
Offset_18 135
Offset_19 254
Offset_20 145
Offset_21 267
Offset_22 403
Offset_23 241
Offset_24 348
Offset_25 88
Offset_47 84
decode_dispatch_called: 21836082 57.1242
Dispatch_width: 0 11301013 51.7538 29.564
Dispatch_width: 1 676688 3.09894 1.77025
Dispatch_width: 2 693067 3.17395 1.8131
Dispatch_width: 3 472973 2.16602 1.23732
Dispatch_width: 4 2672053 12.2369 6.99022
Dispatch_width: 5 291678 1.33576 0.763044
Dispatch_width: 6 5728610 26.2346 14.9863
Empty_decode_cycles: 16389515 42.8758
ROB_full_cycles: 4098135 10.7209
Starvation_cycles_per_kilo_instr: 283.989
Starvation_cycles_per_kilo_instr_3: 254.351
Starvation_cycles_per_kilo_instr_0: 235.924
Branch_type_1  (3,1)  (4,8)  (5,39)  (6,77)  (7,121)  (8,130)  (9,134)  (10,108)  (11,79)  (12,43)  (13,7)  (14,2)  (15,3)  (16,4)  (18,1)  (19,4)  (20,2)  (21,1)  (22,3)  (23,2)  (24,10)  (25,12) 
Branch_type_2  (3,1)  (5,1)  (8,3)  (9,3)  (12,1)  (13,1)  (14,1)  (16,3)  (17,2)  (20,2)  (21,2)  (23,5)  (24,1)  (47,38) 
Branch_type_3  (3,4327)  (4,261)  (5,433)  (6,444)  (7,460)  (8,342)  (9,281)  (10,173)  (11,136)  (12,49)  (13,7) 
Branch_type_4  (6,4)  (7,8)  (8,26)  (9,53)  (10,62)  (11,64)  (12,100)  (13,94)  (14,101)  (15,98)  (16,106)  (17,76)  (18,62)  (19,122)  (20,74)  (21,144)  (22,217)  (23,136)  (24,199)  (25,72) 
Branch_type_5  (8,2)  (9,1)  (10,4)  (11,6)  (12,3)  (13,14)  (14,16)  (15,11)  (16,20)  (17,12)  (18,16)  (19,13)  (20,11)  (21,13)  (22,42)  (23,26)  (24,40) 
Branch_type_6  (5,4)  (6,12)  (7,25)  (8,31)  (9,34)  (10,68)  (11,57)  (12,81)  (13,95)  (14,108)  (15,91)  (16,101)  (17,75)  (18,56)  (19,115)  (20,56)  (21,107)  (22,141)  (23,72)  (24,98)  (25,4)  (47,46) 
Unique trigger count: 
Variant_0_evicts_0 : 0
Variant_0_evicts_1 : 0
Variant_0_evicts_2 : 0
Variant_0_evicts_3 : 0
Variant_1_evicts_0 : 0
Variant_1_evicts_1 : 0
Variant_1_evicts_2 : 0
Variant_1_evicts_3 : 0
Variant_2_evicts_0 : 0
Variant_2_evicts_1 : 0
Variant_2_evicts_2 : 0
Variant_2_evicts_3 : 0
Variant_3_evicts_0 : 0
Variant_3_evicts_1 : 0
Variant_3_evicts_2 : 0
Variant_3_evicts_3 : 0
BTB PER SET UNIQUE ADDR: 14 15 12 14 11 15 14 15 10 14 11 15 17 11 13 10 14 16 14 15 12 14 16 19 10 13 14 12 14 14 13 16 13 12 9 11 11 18 6 13 12 12 11 18 15 14 18 10 15 10 15 8 11 11 13 9 8 13 11 18 13 17 11 16 15 14 12 13 20 14 13 16 18 15 11 12 10 15 11 15 18 13 11 16 12 12 15 8 13 24 11 10 12 14 10 10 12 14 16 11 16 19 13 13 16 10 13 14 8 11 13 15 14 17 12 9 18 14 14 14 14 10 11 10 11 12 6 9 17 16 14 16 14 14 10 18 14 19 14 16 12 13 9 10 15 15 18 16 8 16 14 16 8 16 12 13 16 16 16 16 17 10 14 17 14 12 17 10 14 11 16 16 8 17 14 13 13 14 17 15 14 11 14 19 13 19 10 16 13 15 16 13 13 17 15 11 8 11 10 13 16 18 9 9 11 12 13 12 9 14 13 17 12 16 14 17 12 17 9 22 10 11 8 10 11 15 18 15 13 14 13 11 13 16 13 11 17 12 11 10 15 11 17 14 17 13 11 14 11 12 16 19 13 10 15 17 11 11 11 18 16 15 5 17 16 9 12 14 16 13 11 15 14 10 9 13 17 18 11 15 13 13 13 11 15 13 11 19 16 15 9 11 11 18 9 11 15 12 15 15 12 17 11 21 14 20 17 13 18 12 11 14 10 21 16 11 16 16 17 14 12 11 12 15 13 14 15 8 11 9 14 13 13 12 12 14 10 13 11 17 8 13 6 16 10 13 13 13 12 13 11 10 14 13 12 15 10 15 12 12 16 14 10 15 15 14 7 10 13 16 13 6 17 15 11 16 12 14 14 14 14 11 11 9 9 11 20 21 16 13 18 10 17 19 13 12 9 14 13 18 11 12 11 10 17 17 14 16 17 14 10 13 10 13 13 10 11 15 16 20 12 16 16 13 18 9 15 14 16 13 20 16 15 13 15 17 18 18 13 18 15 15 12 14 18 10 12 16 15 15 19 23 18 12 15 14 15 13 9 19 13 15 14 13 20 16 13 10 18 14 12 21 14 15 14 14 11 21 14 11 16 12 11 16 13 15 21 18 19 16 12 14 12 12 12 12 16 18 13 13 14 16 10 16 13 13 13 17 19 12 13 18 13 13 11 16 13 15 10 10 8 11 16 9 16 16 20 11 9 19 15 13 16 17 19 17 11 19 18 13 18 13 11 12 14 15 10 19 12 13 10 20 13 12 11 12 13 12 18 12 14 22 12 16 14 15 16 13 16 16 13 15 17 14 15 13 16 19 12 14 16 15 11 10 13 13 16 16 20 16 13 13 15 12 15 15 8 14 16 13 14 13 12 10 11 12 19 15 12 11 14 18 8 12 8 17 8 14 18 12 18 10 10 8 16 14 12 17 8 14 9 14 16 13 10 11 13 16 13 20 13 15 11 18 13 19 12 12 18 15 13 14 13 10 15 17 12 14 18 14 15 7 10 19 14 12 9 12 11 13 18 10 13 12 17 18 14 19 13 16 10 17 15 13 14 11 17 13 17 17 14 20 13 9 11 13 14 18 14 12 9 13 15 21 8 18 14 13 9 9 9 17 12 11 9 12 18 15 10 12 14 16 7 9 10 11 11 14 13 12 17 11 12 14 10 17 24 11 18 12 12 14 14 13 18 20 17 13 10 10 13 13 13 14 13 12 19 14 11 10 9 12 10 14 13 18 12 19 14 18 11 14 11 10 11 14 13 11 18 17 10 16 12 11 12 11 13 11 15 7 6 14 17 11 13 15 13 12 17 15 22 17 19 19 17 12 16 18 11 14 15 26 10 16 15 16 16 23 9 24 18 19 8 11 13 12 8 13 19 23 13 19 15 14 10 18 11 16 13 7 14 14 14 13 18 15 12 21 14 13 14 18 13 16 16 12 17 20 16 18 14 11 10 16 20 13 18 12 15 15 14 16 16 17 17 8 12 16 11 12 14 7 13 14 17 13 11 15 12 12 15 11 17 14 14 16 21 17 15 10 15 10 13 16 9 18 13 16 15 16 12 12 20 17 18 17 15 14 17 16 12 14 11 12 10 14 8 16 13 11 19 19 12 10 16 19 12 14 15 14 10 22 14 13 12 10 17 19 12 14 15 13 13 15 12 14 11 18 15 18 12 15 7 20 16 12 16 16 11 18 18 13 17 13 14 15 16 14 14 19 14 14 15 13 14 17 15 11 15 12 20 16 14 20 14 12 12 8 20 14 18 18 10 16 18 15 13 18 11 16 16 14 11 10 18 17 6 13 9 10 13 16 16 10 
BTB PER SET COUNT: 523 27 1690 18 1472 26 1430 300 1195 23 17 435 20347 14 20 20 355 22 23 21 23 420 640 448 21 16 20 15 16 21 14 21 19 19 15 499 16 26 6 23 19 15 12 69 109 22 68 12 62 16 28 8 19 17 15 10 14 19 326 25 16 39 59 23 23 24 20 2751 29 34 1481 19 31 23 12 22 12 665 14 28 574 18 16 39 20 18 26 8 881 58 12 804 19 138 12 10 17 129 30 7083 23 219 18 20 459 15 26 20 19 533 15 24 33 27 24 9 37 22 1893 884 247 12 14 19 14 74 10 11 30 900 23 840 27 21 19 32 234 23 22 31 24 23 10 17 21 33 245 574 12 35 36 185 1106 20 15 21 316 26 234 1643 33 352 602 26 20 1030 27 15 22 1770 25 32 8 35 20 15 21 29 239 411 151 14 527 30 177 852 14 34 977 164 26 20 22 809 22 11 12 20 19 20 19 149 993 19 20 22 14 20 17 15 22 29 17 1297 25 33 23 27 425 34 17 18 16 12 19 39 30 22 20 22 20 14 15 27 19 17 32 38 27 11 878 12 628 28 26 22 895 22 13 24 18 25 14 11 21 33 57 18 12 28 821 24 5 505 24 15 16 26 31 26 15 23 630 11 11 24 21 21 18 184 30 21 22 14 22 25 14 37 18 23 14 12 11 425 15 12 22 14 26 303 17 29 177 37 19 32 40 19 49 364 300 20 11 30 1184 957 23 28 33 24 31 14 15 19 296 24 30 11 16 10 25 16 29 16 19 114 15 427 15 24 8 2190 6 20 11 25 17 22 16 20 14 12 24 28 12 24 10 24 104 13 21 19 10 30 25 688 7 12 23 19 15 308 29 527 992 35 18 21 18 1135 26 18 139 11 9 18 1553 38 22 24 32 12 28 31 20 16 10 18 282 227 18 13 12 18 23 20 20 441 26 18 15 15 12 19 15 11 18 82 315 35 14 33 34 20 29 14 325 23 24 19 78 19 21 24 501 21 35 35 15 24 22 24 29 19 24 1471 59 27 24 25 1220 270 32 15 316 1496 25 15 11 35 15 267 23 13 30 128 13331 14 34 17 19 29 16 26 29 19 23 135 15 17 26 549 12 23 516 24 139 29 41 41 465 41 564 200 21 23 362 29 18 15 25 24 11 41 19 23 21 23 24 21 284 52 1174 1183 15 31 31 30 19 11 10 15 25 327 19 18 331 18 15 1208 33 25 256 23 23 33 1448 432 27 23 33 19 50 17 17 356 11 23 14 597 12 34 227 467 16 15 22 18 36 28 19 31 14 26 28 18 26 22 22 255 25 29 21 19 46 22 29 43 20 27 21 23 26 2420 18 22 238 29 30 20 20 153 27 15 26 29 140 330 27 15 21 24 16 15 16 14 29 2076 14 18 20 626 16 17 8 28 194 20 371 18 31 11 10 8 25 20 23 32 879 20 15 41 243 22 12 16 19 28 21 34 22 21 13 365 27 174 20 13 354 15 24 27 17 17 29 395 21 22 28 888 25 7 12 28 89 14 13 1971 100 23 29 10 469 12 346 28 21 32 18 36 17 24 987 151 1370 14 33 14 119 29 20 29 16 15 538 22 439 1542 20 22 502 33 17 27 8 102 25 22 12 13 9 32 665 13 10 125 329 520 18 15 22 369 7 1322 13 16 12 31 15 705 143 15 15 150 18 1507 385 12 24 23 354 21 521 17 69 40 399 15 13 10 613 16 50 1483 20 14 31 265 14 13 15 26 17 32 2652 30 19 27 20 27 70 29 21 12 16 20 19 766 23 33 1450 27 703 17 13 17 19 13 25 9 6 199 25 17 836 34 36 24 20 888 32 37 32 334 77 22 20 29 18 26 20 2555 14 22 22 172 33 74 9 1575 31 956 14 17 23 15 14 21 34 37 18 34 24 23 214 607 16 20 471 7 19 1150 15 19 59 19 54 30 19 21 360 608 20 22 1003 14 164 41 39 26 28 14 10 17 571 16 24 24 35 19 258 32 34 30 26 8 16 20 13 23 14 9 289 21 24 665 11 22 16 43 20 20 589 670 19 29 46 29 24 12 21 17 17 661 11 23 27 32 64 25 17 642 37 31 42 321 43 43 22 32 13 443 432 16 17 225 16 23 18 16 60 33 1017 11 23 29 17 19 1431 26 13 575 27 22 15 20 95 24 21 18 452 16 19 2626 14 23 18 31 29 492 338 25 9 30 23 14 22 21 16 23 29 748 26 15 486 19 246 24 305 30 748 25 1086 22 20 829 1125 22 23 20 34 24 31 437 450 17 15 1475 37 18 38 41 20 18 27 29 24 38 15 28 415 756 15 11 28 26 6 71 11 10 16 154 22 16 
To predecode: 0
Predecoding something: 0
Predecode request dropped: 0
sizeofblock_0 0
sizeofblock_1 44702
sizeofblock_2 94722
sizeofblock_3 0
sizeofblock_4 0
sizeofblock_5 0
sizeofblock_6 0
sizeofblock_7 0
sizeofblock_8 0
Variant_0 Correct: 1598764 Incorrect: 0 Accuracy: 1
Variant_1 Correct: 5702087 Incorrect: 0 Accuracy: 1
Variant_2 Correct: 0 Incorrect: 0 Accuracy: -nan
Variant_3 Correct: 0 Incorrect: 0 Accuracy: -nan
