
*** ChampSim Multicore Out-of-Order Simulator ***

Warmup Instructions: 50000000
Simulation Instructions: 50000000
Number of CPUs: 1
LLC sets: 2048
LLC ways: 16
Off-chip DRAM Size: 4096 MB Channels: 1 Width: 64-bit Data Rate: 6400 MT/s
CPU 0 runs ./micro_traces/srv109.trace.gz
.gz
ITLB has LRU replacement policy
DTLB has LRU replacement policy
STLB has LRU replacement policy
FDIP Prefetcher at L1I
L1I has LRU replacement policy
L1D has LRU replacement policy
Initialize SRRIP state for L2C
Initialize DRRIP state for LLC
Heartbeat CPU 0 instructions: 10000001 cycles: 2797499 heartbeat IPC: 3.57462 cumulative IPC: 3.57462 (Simulation time: 0 hr 1 min 50 sec) 
Heartbeat CPU 0 instructions: 20000003 cycles: 5593406 heartbeat IPC: 3.57666 cumulative IPC: 3.57564 (Simulation time: 0 hr 3 min 47 sec) 
Heartbeat CPU 0 instructions: 30000001 cycles: 8390564 heartbeat IPC: 3.57506 cumulative IPC: 3.57545 (Simulation time: 0 hr 5 min 39 sec) 
Heartbeat CPU 0 instructions: 40000003 cycles: 11187300 heartbeat IPC: 3.5756 cumulative IPC: 3.57548 (Simulation time: 0 hr 7 min 33 sec) 
Heartbeat CPU 0 instructions: 50000000 cycles: 13984962 heartbeat IPC: 3.57441 cumulative IPC: 3.57527 (Simulation time: 0 hr 9 min 28 sec) 

Warmup complete CPU 0 instructions: 50000004 cycles: 13984963 (Simulation time: 0 hr 9 min 28 sec) 

Cycle: 20000000 FTQ IN: 58207129 FTQ occupancy: 19.944 DECODE IN: 58207129 DECODE occupancy: 51.6255 ROB IN: 58207120 ROB occupancy: 310.671 ROB OUT: 58206904
Heartbeat CPU 0 instructions: 60000000 cycles: 21324434 heartbeat IPC: 1.3625 cumulative IPC: 1.3625 (Simulation time: 0 hr 11 min 38 sec) 
Heartbeat CPU 0 instructions: 70000001 cycles: 28679505 heartbeat IPC: 1.35961 cumulative IPC: 1.36105 (Simulation time: 0 hr 13 min 42 sec) 
Cycle: 30000000 FTQ IN: 13609596 FTQ occupancy: 13.0197 DECODE IN: 13609596 DECODE occupancy: 32.3965 ROB IN: 13609605 ROB occupancy: 225.149 ROB OUT: 13609733
Heartbeat CPU 0 instructions: 80000002 cycles: 35933590 heartbeat IPC: 1.37853 cumulative IPC: 1.36683 (Simulation time: 0 hr 15 min 54 sec) 
Cycle: 40000000 FTQ IN: 13792826 FTQ occupancy: 12.9741 DECODE IN: 13792694 DECODE occupancy: 32.4547 ROB IN: 13792634 ROB occupancy: 224.697 ROB OUT: 13792370
Heartbeat CPU 0 instructions: 90000003 cycles: 43271882 heartbeat IPC: 1.36272 cumulative IPC: 1.3658 (Simulation time: 0 hr 18 min 13 sec) 
Cycle: 50000000 FTQ IN: 13660002 FTQ occupancy: 13.0486 DECODE IN: 13660082 DECODE occupancy: 32.4384 ROB IN: 13660142 ROB occupancy: 225.027 ROB OUT: 13660259
Heartbeat CPU 0 instructions: 100000001 cycles: 50541713 heartbeat IPC: 1.37555 cumulative IPC: 1.36774 (Simulation time: 0 hr 20 min 17 sec) 
Finished CPU 0 instructions: 50000001 cycles: 36556751 cumulative IPC: 1.36774 (Simulation time: 0 hr 20 min 17 sec) 

ChampSim completed all CPUs

Region of Interest Statistics

CPU 0 cumulative IPC: 1.36774 instructions: 50000001 cycles: 36556751
 Fetch stage stalled: 52.59  Sim cycles: 36556751 fetch stall cycle: 19225193
 Empty decode stage: 33.7224  Sim cycles: 36556751 fetch stall cycle: 12327824
ITLB TOTAL     ACCESS:    5759132  HIT:    5265248  MISS:     493884  HIT %:    91.4243  MISS %:    8.57567   MPKI: 9.87768
ITLB LOAD TRANSLATION INSTRUCTION	ACCESS:    5623271  HIT:    5129387  MISS:     493884  HIT %:    91.2171  MISS %:    8.78286  MPKI: 9.87768
ITLB TRANSLATION FROM L1D PREFETCHER INSTRUCTION	ACCESS:     135861  HIT:     135861  MISS:          0  HIT %:        100  MISS %:          0  MPKI: 0

ITLB AVERAGE MISS LATENCY: 9.0687 cycles
ITLB RQ	ACCESS:    7823796	FORWARD:          0	MERGED:    1578200	TO_CACHE:    6245596

DTLB TOTAL     ACCESS:    8990080  HIT:    8517294  MISS:     472786  HIT %:     94.741  MISS %:    5.25897   MPKI: 9.45572
DTLB LOAD TRANSLATION DATA	ACCESS:    8990080  HIT:    8517294  MISS:     472786  HIT %:     94.741  MISS %:    5.25897  MPKI: 9.45572

DTLB AVERAGE MISS LATENCY: 9.34717 cycles
DTLB RQ	ACCESS:   13374620	FORWARD:          0	MERGED:    4346073	TO_CACHE:    9028547

STLB TOTAL     ACCESS:    1215310  HIT:    1213120  MISS:       2190  HIT %:    99.8198  MISS %:   0.180201   MPKI: 0.0438
STLB LOAD TRANSLATION INSTRUCTION	ACCESS:     493884  HIT:     493612  MISS:        272  HIT %:    99.9449  MISS %:  0.0550737  MPKI: 0.00544
STLB LOAD TRANSLATION DATA	ACCESS:     472784  HIT:     470894  MISS:       1890  HIT %:    99.6002  MISS %:    0.39976  MPKI: 0.0378
STLB TRANSLATION FROM L1D PREFETCHER DATA	ACCESS:     248642  HIT:     248614  MISS:         28  HIT %:    99.9887  MISS %:  0.0112612  MPKI: 0.00056

STLB AVERAGE MISS LATENCY: 76.7429 cycles
STLB RQ	ACCESS:    1334658	FORWARD:          0	MERGED:     119304	TO_CACHE:    1215354

STLB Hit, L1D data hit: 0
STLB Hit, L2C data hit: 0
STLB Hit, LLC data hit: 0
STLB Hit, LLC data miss: 0
STLB STLB hints to L2: 0
L1D TOTAL     ACCESS:   13130310  HIT:   12016487  MISS:    1113823  HIT %:    91.5172  MISS %:    8.48284   MPKI: 22.2765
L1D LOAD DATA	ACCESS:    6589603  HIT:    5855477  MISS:     734126  HIT %:    88.8593  MISS %:    11.1407  MPKI: 14.6825
L1D RFO DATA	ACCESS:    6210241  HIT:    5924601  MISS:     285640  HIT %:    95.4005  MISS %:     4.5995  MPKI: 5.7128
L1D PREFETCH DATA	ACCESS:     330466  HIT:     236409  MISS:      94057  HIT %:    71.5381  MISS %:    28.4619  MPKI: 1.88114

L1D PREFETCH  REQUESTED:     736393  ISSUED:     736393  USEFUL:      32337  USELESS:      69005
L1D USEFUL LOAD PREFETCHES:      32337 PREFETCH ISSUED TO LOWER LEVEL:     101413  ACCURACY: 31.8864
 TIMELY PREFETCHES:      32337 LATE PREFETCHES: 7293 DROPPED PREFETCHES: 9
L1D AVERAGE MISS LATENCY: 214378 cycles
L1D RQ	ACCESS:   10698919	FORWARD:          0	MERGED:    3909170	TO_CACHE:    6623882
L1D WQ	ACCESS:    6947098	FORWARD:     166282	MERGED:     196360	TO_CACHE:    6750738
L1D PQ	ACCESS:     368404	FORWARD:          0	MERGED:          0	TO_CACHE:     367989

L1D UNIQUE REGIONS ACCESSED: 0
L1D REGIONS CONFLICTS: 0
L1D Cross Page Prefetch Requests: 6065
L1D Same Page Prefetch Requests: 744382
L1D ROI Sum of L1D PQ occupancy: 4680135
L1D PREFETCHES PUSHED FROM L2C: 0
L1I TOTAL     ACCESS:    7044151  HIT:    4279796  MISS:    2764355  HIT %:    60.7567  MISS %:    39.2433   MPKI: 55.2871
L1I LOAD INSTRUCTION	ACCESS:    6406210  HIT:    3641855  MISS:    2764355  HIT %:    56.8488  MISS %:    43.1512  MPKI: 55.2871
L1I PREFETCH INSTRUCTION	ACCESS:     637941  HIT:     637941  MISS:          0  HIT %:        100  MISS %:          0  MPKI: 0

L1I PREFETCH  REQUESTED:    1535416  ISSUED:    1535416  USEFUL:          0  USELESS:          0
L1I USEFUL LOAD PREFETCHES:          0 PREFETCH ISSUED TO LOWER LEVEL:          0  ACCURACY: -nan
 TIMELY PREFETCHES:          0 LATE PREFETCHES: 0 DROPPED PREFETCHES: 0
L1I AVERAGE MISS LATENCY: 17.5625 cycles
L1I RQ	ACCESS:    9536791	FORWARD:          0	MERGED:    2835847	TO_CACHE:    6700944
L1I PQ	ACCESS:    1535416	FORWARD:          0	MERGED:     412564	TO_CACHE:    1122852

L1BTB TOTAL     ACCESS:    5675006  HIT:    2046213  MISS:    3628793  HIT %:    36.0566  MISS %:    63.9434   MPKI: 72.5759
L1BTB BRANCH_DIRECT_JUMP	ACCESS:     549424  HIT:     144984  MISS:     404440	AVERAGE STALL: 53.5945
L1BTB BRANCH_INDIRECT	ACCESS:     183349  HIT:      66299  MISS:     117050	AVERAGE STALL: 109.21
L1BTB BRANCH_CONDITIONAL	ACCESS:    2714251  HIT:    1420632  MISS:    1293619	AVERAGE STALL: 62.3764
L1BTB BRANCH_DIRECT_CALL	ACCESS:     942884  HIT:     104286  MISS:     838598	AVERAGE STALL: 71.923
L1BTB BRANCH_INDIRECT_CALL	ACCESS:     171110  HIT:      20865  MISS:     150245	AVERAGE STALL: 137.226
L1BTB BRANCH_RETURN	ACCESS:    1113988  HIT:     289147  MISS:     824841	AVERAGE STALL: 50.4331
L1BTB BRANCH_OTHER ACCESS:          0  HIT:          0  MISS:          0	AVERAGE STALL: -nan
L1BTB TOTAL ROB OCCUPANCY AT BTB MISS: 5.3147

L2BTB TOTAL     ACCESS:    3603281  HIT:    3490083  MISS:     113198  HIT %:    96.8585  MISS %:    3.14153   MPKI: 2.26396
L2BTB BRANCH_DIRECT_JUMP	ACCESS:     400228  HIT:     390212  MISS:      10016	AVERAGE STALL: 53.5945
L2BTB BRANCH_INDIRECT	ACCESS:     106769  HIT:     103413  MISS:       3356	AVERAGE STALL: 109.21
L2BTB BRANCH_CONDITIONAL	ACCESS:    1293618  HIT:    1270856  MISS:      22762	AVERAGE STALL: 62.3764
L2BTB BRANCH_DIRECT_CALL	ACCESS:     838597  HIT:     821852  MISS:      16745	AVERAGE STALL: 71.923
L2BTB BRANCH_INDIRECT_CALL	ACCESS:     140667  HIT:     129035  MISS:      11632	AVERAGE STALL: 137.226
L2BTB BRANCH_RETURN	ACCESS:     823402  HIT:     774715  MISS:      48687	AVERAGE STALL: 50.4331
L2BTB BRANCH_OTHER ACCESS:          0  HIT:          0  MISS:          0	AVERAGE STALL: -nan
L2BTB TOTAL ROB OCCUPANCY AT BTB MISS: 170.374

L2C TOTAL     ACCESS:    4496342  HIT:    3985011  MISS:     511331  HIT %:    88.6278  MISS %:    11.3722   MPKI: 10.2266
L2C LOAD INSTRUCTION	ACCESS:    2764355  HIT:    2477492  MISS:     286863  HIT %:    89.6228  MISS %:    10.3772  MPKI: 5.73726
L2C LOAD TRANSLATION INSTRUCTION	ACCESS:        306  HIT:         68  MISS:        238  HIT %:    22.2222  MISS %:    77.7778  MPKI: 0.00476
L2C LOAD DATA	ACCESS:     726821  HIT:     643501  MISS:      83320  HIT %:    88.5364  MISS %:    11.4636  MPKI: 1.6664
L2C RFO DATA	ACCESS:     285549  HIT:     238615  MISS:      46934  HIT %:    83.5636  MISS %:    16.4364  MPKI: 0.93868
L2C PREFETCH DATA	ACCESS:     193121  HIT:     114105  MISS:      79016  HIT %:    59.0847  MISS %:    40.9153  MPKI: 1.58032
L2C WRITEBACK DATA	ACCESS:     524160  HIT:     510748  MISS:      13412  HIT %:    97.4412  MISS %:    2.55876  MPKI: 0.26824
L2C LOAD TRANSLATION DATA	ACCESS:       1977  HIT:        447  MISS:       1530  HIT %:      22.61  MISS %:      77.39  MPKI: 0.0306
L2C TRANSLATION FROM L1D PREFETCHER DATA	ACCESS:         53  HIT:         35  MISS:         18  HIT %:    66.0377  MISS %:    33.9623  MPKI: 0.00036

L2C PREFETCH  REQUESTED:      99932  ISSUED:      99932  USEFUL:       9747  USELESS:      69876
L2C USEFUL LOAD PREFETCHES:       9747 PREFETCH ISSUED TO LOWER LEVEL:      79495  ACCURACY: 12.2611
 TIMELY PREFETCHES:       9747 LATE PREFETCHES: 479 DROPPED PREFETCHES: 0
L2C AVERAGE MISS LATENCY: 38.0599 cycles
L2C RQ	ACCESS:    3779101	FORWARD:          0	MERGED:          0	TO_CACHE:    3779061
L2C WQ	ACCESS:     524160	FORWARD:         42	MERGED:          0	TO_CACHE:     524160
L2C PQ	ACCESS:     201345	FORWARD:          0	MERGED:       3685	TO_CACHE:     197658

L2C Dense regions hint from L2: 0
PSCL5 TOTAL     ACCESS:       4406  HIT:       2203  MISS:       2203  HIT %:         50  MISS %:         50   MPKI: 0.04406
PSCL5 LOAD TRANSLATION INSTRUCTION	ACCESS:       4300  HIT:       2150  MISS:       2150  HIT %:         50  MISS %:         50  MPKI: 0.043
PSCL5 TRANSLATION FROM L1D PREFETCHER INSTRUCTION	ACCESS:        106  HIT:         53  MISS:         53  HIT %:         50  MISS %:         50  MPKI: 0.00106


PSCL4 TOTAL     ACCESS:       4234  HIT:       2111  MISS:       2123  HIT %:    49.8583  MISS %:    50.1417   MPKI: 0.04246
PSCL4 LOAD TRANSLATION INSTRUCTION	ACCESS:       2152  HIT:       2058  MISS:         94  HIT %:     95.632  MISS %:    4.36803  MPKI: 0.00188
PSCL4 TRANSLATION FROM L1D PREFETCHER INSTRUCTION	ACCESS:         53  HIT:         53  MISS:          0  HIT %:        100  MISS %:          0  MPKI: 0
PSCL4 LOAD TRANSLATION DATA	ACCESS:       1976  HIT:          0  MISS:       1976  HIT %:          0  MISS %:        100  MPKI: 0.03952
PSCL4 TRANSLATION FROM L1D PREFETCHER DATA	ACCESS:         53  HIT:          0  MISS:         53  HIT %:          0  MISS %:        100  MPKI: 0.00106


PSCL3 TOTAL     ACCESS:       4302  HIT:       2145  MISS:       2157  HIT %:    49.8605  MISS %:    50.1395   MPKI: 0.04314
PSCL3 LOAD TRANSLATION INSTRUCTION	ACCESS:       2186  HIT:       2092  MISS:         94  HIT %:    95.6999  MISS %:    4.30009  MPKI: 0.00188
PSCL3 TRANSLATION FROM L1D PREFETCHER INSTRUCTION	ACCESS:         53  HIT:         53  MISS:          0  HIT %:        100  MISS %:          0  MPKI: 0
PSCL3 LOAD TRANSLATION DATA	ACCESS:       2010  HIT:          0  MISS:       2010  HIT %:          0  MISS %:        100  MPKI: 0.0402
PSCL3 TRANSLATION FROM L1D PREFETCHER DATA	ACCESS:         53  HIT:          0  MISS:         53  HIT %:          0  MISS %:        100  MPKI: 0.00106


PSCL2 TOTAL     ACCESS:       4296  HIT:       2093  MISS:       2203  HIT %:    48.7197  MISS %:    51.2803   MPKI: 0.04406
PSCL2 LOAD TRANSLATION INSTRUCTION	ACCESS:       2310  HIT:       2040  MISS:        270  HIT %:    88.3117  MISS %:    11.6883  MPKI: 0.0054
PSCL2 TRANSLATION FROM L1D PREFETCHER INSTRUCTION	ACCESS:         53  HIT:         53  MISS:          0  HIT %:        100  MISS %:          0  MPKI: 0
PSCL2 LOAD TRANSLATION DATA	ACCESS:       1880  HIT:          0  MISS:       1880  HIT %:          0  MISS %:        100  MPKI: 0.0376
PSCL2 TRANSLATION FROM L1D PREFETCHER DATA	ACCESS:         53  HIT:          0  MISS:         53  HIT %:          0  MISS %:        100  MPKI: 0.00106


LLC TOTAL     ACCESS:     571817  HIT:     543213  MISS:      28604  HIT %:    94.9977  MISS %:     5.0023   MPKI: 0.57208
LLC LOAD INSTRUCTION	ACCESS:     286863  HIT:     285961  MISS:        902  HIT %:    99.6856  MISS %:   0.314436  MPKI: 0.01804
LLC LOAD TRANSLATION INSTRUCTION	ACCESS:        238  HIT:        198  MISS:         40  HIT %:    83.1933  MISS %:    16.8067  MPKI: 0.0008
LLC LOAD DATA	ACCESS:      82876  HIT:      79369  MISS:       3507  HIT %:    95.7684  MISS %:    4.23162  MPKI: 0.07014
LLC RFO DATA	ACCESS:      46897  HIT:      33361  MISS:      13536  HIT %:    71.1367  MISS %:    28.8633  MPKI: 0.27072
LLC PREFETCH DATA	ACCESS:      79494  HIT:      69282  MISS:      10212  HIT %:    87.1537  MISS %:    12.8463  MPKI: 0.20424
LLC WRITEBACK DATA	ACCESS:      73901  HIT:      73578  MISS:        323  HIT %:    99.5629  MISS %:   0.437071  MPKI: 0.00646
LLC LOAD TRANSLATION DATA	ACCESS:       1530  HIT:       1446  MISS:         84  HIT %:    94.5098  MISS %:     5.4902  MPKI: 0.00168
LLC TRANSLATION FROM L1D PREFETCHER DATA	ACCESS:         18  HIT:         18  MISS:          0  HIT %:        100  MISS %:          0  MPKI: 0

LLC AVERAGE MISS LATENCY: 156.693 cycles
LLC RQ	ACCESS:     418424	FORWARD:          0	MERGED:          0	TO_CACHE:     418422
LLC WQ	ACCESS:      73901	FORWARD:          3	MERGED:          0	TO_CACHE:      73901
LLC PQ	ACCESS:      79495	FORWARD:          0	MERGED:          0	TO_CACHE:      79494

LLC Dense regions hint to LLC: 0

RAW hits: 1936606
Loads Generated: 12635525
Loads sent to L1D: 10698919
Stores Generated: 6947086
Stores sent to L1D: 6947098
Major fault: 0 Minor fault: 2601
Allocated PAGES: 2601

stream: 
stream:times selected: 1176543
stream:pref_filled: 122304
stream:pref_useful: 24149
stream:pref_late: 6530
stream:misses: 6836
stream:misses_by_poll: 0

CS: 
CS:times selected: 175848
CS:pref_filled: 59639
CS:pref_useful: 36696
CS:pref_late: 6170
CS:misses: 15138
CS:misses_by_poll: 7

CPLX: 
CPLX:times selected: 999416
CPLX:pref_filled: 20325
CPLX:pref_useful: 4953
CPLX:pref_late: 2897
CPLX:misses: 90441
CPLX:misses_by_poll: 1

NL_L1: 
NL:times selected: 19916
NL:pref_filled: 740
NL:pref_useful: 318
NL:pref_late: 212
NL:misses: 1078
NL:misses_by_poll: 0

total selections: 2371723
total_filled: 94057
total_useful: 32337
total_late: 17044
total_polluted: 8
total_misses_after_warmup: 768411
conflicts: 5544736

test: 115092

DRAM Statistics
 CHANNEL 0
 RQ ROW_BUFFER_HIT:      10423  ROW_BUFFER_MISS:      17854
 DBUS_CONGESTED:         13
 WQ ROW_BUFFER_HIT:       1440  ROW_BUFFER_MISS:      12667  FULL:          0

 AVG_CONGESTED_CYCLE: 4

CPU 0 Branch Prediction Accuracy: 99.8092% MPKI: 0.34894 Average ROB Occupancy at Mispredict: 182.87
Branch types
NOT_BRANCH: 40857279 81.7146%
BRANCH_DIRECT_JUMP: 549424 1.09885%
BRANCH_INDIRECT: 183349 0.366698%
BRANCH_CONDITIONAL: 6181908 12.3638%
BRANCH_DIRECT_CALL: 942884 1.88577%
BRANCH_INDIRECT_CALL: 171110 0.34222%
BRANCH_RETURN: 1113988 2.22798%
BRANCH_OTHER: 0 0%

DRAM PAGES: 1048576
Allocated PAGES: 2601
Average_ROB_Occupancy: 225.686
Average_Decode_Occupancy: 32.3357
Average_FTQ_Occupancy: 12.9785
Indirect max targets: 14 Average targets: 1.1505
Branch_type:  BRANCH_DIRECT_JUMP:  Count Percentage: 3.24829 5.53099 5.12363 9.12238 1.74016 5.96783 0.891939 68.3748 
Branch_type:  BRANCH_INDIRECT:  Count Percentage: 11.7458 3.46491 2.55452 0 2.5452 9.67468 19.2228 50.7921 
Branch_type:  BRANCH_CONDITIONAL:  Count Percentage: 21.4516 2.58987 1.84245 8.41923 1.23162 5.06895 1.95747 57.4388 
Branch_type:  BRANCH_DIRECT_CALL:  Count Percentage: 0.257349 1.79076 1.44555 4.83602 2.15601 2.75191 0.751905 86.0105 
Branch_type:  BRANCH_INDIRECT_CALL:  Count Percentage: 9.53326 0.571582 2.98674 4.83994 0.000291475 2.01875 1.28307 78.7664 
Branch_type:  BRANCH_RETURN:  Count Percentage: 3.18859 1.30476 1.27108 9.31576 2.84213 6.55351 3.12936 72.3948 
Branch_type:  BRANCH_DIRECT_JUMP:  Total Count: 35588 60597 56134 99944 19065 65383 9772 749108 
Branch_type:  BRANCH_INDIRECT:  Total Count: 42886 12651 9327 0 9293 35324 70186 185451 
Branch_type:  BRANCH_CONDITIONAL:  Total Count: 2648867 319799 227508 1039615 152082 625919 241710 7092595 
Branch_type:  BRANCH_DIRECT_CALL:  Total Count: 4868 33874 27344 91478 40783 52055 14223 1626970 
Branch_type:  BRANCH_INDIRECT_CALL:  Total Count: 32707 1961 10247 16605 1 6926 4402 270234 
Branch_type:  BRANCH_RETURN:  Total Count: 71281 29168 28415 208254 63536 146504 69957 1618388 
Number of unique branch instructions: 10308
Upper 32 bits: 
aaaa
ffff
ffff0000
Unique upper 32 bits: 3
Unique upper 36 bits: 3
Unique upper 40 bits: 5
Unique upper 44 bits: 32
Unique upper 48 bits: 154
Offset_3 4268
Offset_4 260
Offset_5 469
Offset_6 531
Offset_7 612
Offset_8 540
Offset_9 491
Offset_10 399
Offset_11 338
Offset_12 297
Offset_13 225
Offset_14 232
Offset_15 201
Offset_16 230
Offset_17 162
Offset_18 128
Offset_19 252
Offset_20 144
Offset_21 236
Offset_22 404
Offset_23 245
Offset_24 346
Offset_25 88
Offset_47 84
Offset_64 21
decode_dispatch_called: 24418984 66.7975
Dispatch_width: 0 13076067 53.5488 35.7692
Dispatch_width: 1 826283 3.38377 2.26027
Dispatch_width: 2 761355 3.11788 2.08267
Dispatch_width: 3 433078 1.77353 1.18467
Dispatch_width: 4 4716381 19.3144 12.9015
Dispatch_width: 5 148670 0.60883 0.406683
Dispatch_width: 6 4457150 18.2528 12.1924
Empty_decode_cycles: 12137767 33.2025
ROB_full_cycles: 7649920 20.9261
Starvation_cycles_per_kilo_instr: 244.497
Starvation_cycles_per_kilo_instr_3: 195.846
Starvation_cycles_per_kilo_instr_0: 175.639
Branch_type_1  (3,1)  (4,9)  (5,37)  (6,73)  (7,118)  (8,138)  (9,129)  (10,102)  (11,76)  (12,51)  (13,8)  (14,2)  (15,3)  (16,4)  (18,1)  (19,4)  (20,2)  (21,1)  (22,3)  (23,2)  (24,10)  (25,12)  (64,3) 
Branch_type_2  (3,1)  (5,1)  (8,3)  (9,3)  (12,1)  (13,1)  (14,1)  (16,3)  (17,2)  (20,2)  (21,2)  (23,5)  (24,1)  (47,39) 
Branch_type_3  (3,4266)  (4,251)  (5,427)  (6,441)  (7,460)  (8,333)  (9,270)  (10,164)  (11,140)  (12,58)  (13,7)  (24,3)  (64,11) 
Branch_type_4  (6,4)  (7,8)  (8,30)  (9,54)  (10,63)  (11,63)  (12,105)  (13,96)  (14,102)  (15,96)  (16,104)  (17,73)  (18,58)  (19,124)  (20,74)  (21,124)  (22,215)  (23,138)  (24,202)  (25,72)  (64,4) 
Branch_type_5  (8,2)  (9,1)  (10,3)  (11,5)  (12,3)  (13,14)  (14,16)  (15,11)  (16,20)  (17,13)  (18,16)  (19,12)  (20,11)  (21,13)  (22,42)  (23,26)  (24,37) 
Branch_type_6  (5,4)  (6,13)  (7,26)  (8,34)  (9,34)  (10,67)  (11,54)  (12,79)  (13,99)  (14,111)  (15,91)  (16,99)  (17,74)  (18,53)  (19,112)  (20,55)  (21,96)  (22,144)  (23,74)  (24,93)  (25,4)  (47,45)  (64,3) 
aaaaab1fc620: 2ac9e77e 2aca717c 2aca8eff 2acaf6bc 2acaf9aa 2acaf9f1 2acb1abc 2acb1b7f 2acd4e22 2acdb712 2acf5f9e 2ad0ef44 2ad3f15c 2ad414e6 2ad60e42 2ad8609c 2ad99830 2ada35cc 2ada4676 2ada6612 2adf183e 2adf30e5 2adf5602 2adf785c 2ae11572 2aeb2dcf 2aee101b 2aee1ae1 2aee9456 2b156a8c 2b156b61 2b156bea 2b167f35 2b177656 2b17feec 2b1a3e5a 
aaaaab1fc740: 2aca1fb0 2aca45b3 2aca5aa1 2aca5c69 2aca66f9 2aca9426 2acaeecb 2acf3d2d 2acf3d64 2acf6089 2ad017ea 2ad5e7ef 2ad61064 2ad87373 2ad9bf84 2ad9c093 2ae9b606 2aea9ffa 2aee99f5 2aee9a2c 2aeece4b 
aaaaac68f310: 2ac9ec8c 2ac9fb44 2ac9fbd2 2aca59ab 2acac04c 2acaf6e0 2acaf6ec 2acaf6f9 2acaf700 2acaf708 2acf2d90 2ad3cfbd 2ad3cfc4 2ad3d000 2ad3f35f 2ad4955d 2ad49571 2ad4f3f2 2ad4f400 2ad5f240 2ad5f37c 2ad5f86a 2ad5f86f 2ad5f880 2ad5fc0d 2ad5fc14 2ad5fc21 2ad5fe1b 2ad873bb 2ad873e3 2ad8a6b2 2ad9086e 2ad93096 2ad9bbb2 2ada152c 2ada1554 2ada3332 2ada5522 2adf3130 2adf313c 2adf3a3f 2adf3bd9 2adf5788 2adf7a8d 2ae07f6b 2ae0857a 2ae0857e 2ae08630 2ae08634 2ae08637 2ae08642 2ae0866f 2ae086e4 2ae086ec 2ae08717 2ae0871b 2aee0170 2aee1d38 2aee75f4 2aee7662 2aee85ca 2aee85e4 2aee8eef 2aee9a0a 2af70b84 2af74e8f 2b17d843 
aaaaac690ef0: 2aca598b 2acb111b 2acb175f 2acb1772 2acbfaf4 2acbfb00 2acf374f 2acf6d43 2acfa5c8 2ad3baf1 2ad3d4ac 2ad3d4b8 2ad3f1cf 2ad486b2 2ad5a59b 2ad5fc64 2ad5fcf9 2ad6121c 2ad906e9 2ad907bf 2ad9bada 2ada16ce 2ada1ad5 2ada43df 2ada64c0 2ada72ee 2adeb71a 2adf3bcb 2adf7a38 2adf7c6a 2adf8872 2adf8880 2adf9959 2adf9abe 2ae07f78 2ae08503 2ae08754 2ae12e80 2aea3bea 2aecb509 2aee00b0 2aee2bdd 2aee5467 2aee5601 2aee8f20 2af703fd 2af7048b 2af74e74 2dfba627 
ffff000008082480: 2acbfb00 2acf7baa 2ad3f42c 2ad49548 2ad60e59 2ad7f5c7 2adf55e6 2adf7a36 2adf7a6b 2adf7d26 2ae8592f 2aea30cd 2aeb1bf5 2aeb1c92 2aee10a4 2aee8686 2af74ef4 2b168aa4 2b18d41a 2b1a3cd1 2dee8cf7 
Unique trigger count: 
1 9793
2 555
3 105
4 30
5 9
6 9
7 8
9 3
10 2
11 1
12 1
13 3
14 1
16 2
18 2
19 2
21 2
36 1
49 1
67 1
BTB PER SET UNIQUE ADDR: 1 2 2 2 0 0 1 1 3 0 2 0 1 1 0 1 2 1 1 2 0 1 1 2 1 2 2 2 2 2 2 2 2 1 2 0 0 3 4 0 1 2 2 3 1 0 2 1 4 1 2 2 2 0 0 2 3 3 1 1 1 3 2 2 0 4 4 0 2 2 5 1 1 2 1 1 2 6 2 1 1 1 1 4 3 1 1 4 3 2 3 3 2 3 3 0 1 3 0 1 3 2 2 4 2 2 1 1 3 0 1 1 3 2 1 3 1 2 1 0 2 2 2 0 1 1 1 1 2 3 3 0 1 1 2 1 0 0 1 2 2 2 2 1 1 0 1 3 3 2 1 5 1 2 1 0 0 2 2 1 0 0 0 1 3 2 0 1 5 1 2 2 2 1 1 0 1 1 3 1 1 2 5 2 2 2 2 0 1 1 4 1 1 2 1 2 2 1 0 2 2 1 1 0 0 0 1 0 0 0 0 2 2 1 2 1 1 2 1 0 0 0 1 2 2 0 2 2 0 2 5 2 1 1 1 2 2 1 1 1 1 0 1 1 5 3 1 1 2 1 1 1 1 1 0 4 2 2 2 2 3 3 2 2 2 4 3 0 2 1 2 2 1 2 3 2 2 0 3 2 2 2 1 1 2 3 2 1 1 1 0 0 1 3 0 1 3 2 0 1 2 2 1 1 2 2 3 2 3 3 2 1 2 2 3 0 2 2 1 1 1 2 2 3 0 2 1 3 0 0 3 0 2 2 3 1 1 3 4 0 3 0 0 1 1 2 1 2 0 2 1 2 2 2 2 2 1 0 3 0 0 2 1 2 3 2 1 0 0 0 3 1 2 0 1 2 2 1 2 3 0 0 1 3 0 0 3 1 2 2 1 2 2 2 2 0 3 0 0 2 3 1 3 1 1 0 2 3 0 1 0 1 1 1 1 0 4 1 1 2 1 1 2 2 2 3 0 0 1 3 1 0 5 2 3 3 2 1 0 0 0 4 3 3 2 1 1 3 1 1 3 0 0 0 3 0 1 3 2 1 3 0 3 2 0 0 1 0 1 3 0 1 1 1 2 1 0 1 0 0 0 1 1 2 0 2 2 0 4 1 3 1 1 3 0 3 1 1 3 0 3 0 0 1 0 2 1 0 0 2 3 2 2 3 1 0 1 3 1 4 1 1 3 1 2 3 0 4 3 1 4 1 2 2 1 4 0 0 3 0 0 4 3 1 5 1 6 3 4 4 1 3 2 3 0 1 1 0 1 2 6 0 1 2 1 0 0 1 2 4 4 0 1 5 2 0 0 1 0 0 0 1 0 0 1 0 0 4 2 2 2 3 0 1 1 2 2 0 1 1 0 0 1 3 1 0 1 1 3 0 2 1 3 1 2 1 2 0 2 1 3 1 4 0 2 2 1 2 1 0 3 1 0 1 2 2 0 0 1 2 4 1 3 3 0 0 1 0 2 1 1 1 3 1 1 0 3 0 1 3 3 2 4 3 2 1 1 1 0 0 4 1 1 0 5 2 0 1 3 2 2 0 1 2 3 2 1 2 2 1 0 3 1 1 1 3 3 3 2 3 0 2 0 2 1 1 0 1 0 0 1 2 0 1 2 0 1 1 0 2 1 0 1 1 0 1 1 1 0 3 2 2 1 0 1 1 5 1 1 0 1 2 1 2 1 1 3 1 2 2 0 0 1 2 0 1 2 3 1 0 1 1 0 2 0 1 3 1 0 1 2 2 0 0 1 2 3 1 1 1 2 1 0 0 3 3 3 4 0 0 1 3 0 0 3 3 3 1 1 1 2 2 2 2 1 1 1 4 0 2 0 2 1 1 2 1 1 0 0 3 3 0 1 0 2 1 2 1 1 4 1 1 2 1 3 0 1 0 3 2 0 1 0 1 0 2 3 2 3 0 2 0 3 1 2 2 0 0 1 1 0 0 0 1 4 1 1 0 2 0 1 1 1 2 1 0 2 2 3 1 2 1 2 0 0 0 1 2 0 0 2 0 2 2 1 2 4 0 2 1 1 0 1 1 1 3 1 1 0 4 3 3 0 0 1 2 0 1 1 2 4 1 3 1 2 0 3 0 2 1 3 1 4 2 2 1 1 2 0 1 1 1 0 3 2 2 1 2 1 1 1 1 4 1 1 0 4 2 2 1 2 1 2 2 2 4 8 2 2 2 1 1 0 2 2 1 3 4 1 2 3 2 1 4 1 1 1 1 2 1 3 1 1 2 2 1 2 2 1 4 0 1 2 1 2 3 3 2 1 2 2 0 3 0 2 2 3 2 1 3 3 1 7 4 0 2 2 1 1 1 3 4 2 1 3 0 0 1 1 0 2 0 1 3 0 2 4 1 3 3 0 1 3 2 1 3 2 1 2 1 0 1 2 0 2 0 1 2 3 3 1 4 3 2 0 1 7 0 1 1 1 1 2 2 1 4 3 3 3 4 1 4 2 2 1 0 4 0 1 2 1 5 1 0 4 1 1 1 2 1 1 2 3 4 2 2 2 1 1 3 4 2 1 2 1 1 3 2 1 4 1 2 2 1 3 3 0 1 4 1 0 2 1 0 1 2 1 1 1 2 1 3 2 0 1 1 3 2 1 0 2 0 0 3 2 1 2 2 1 4 0 1 4 0 4 1 2 2 2 4 2 4 0 6 4 0 3 1 2 0 0 1 3 0 1 1 2 5 1 0 0 2 3 1 1 2 0 0 1 4 1 4 2 2 0 2 0 0 2 4 6 0 4 0 0 1 2 1 4 0 2 3 2 1 1 1 0 4 1 3 0 1 2 5 3 1 2 2 0 2 4 3 1 3 3 2 0 0 3 3 4 1 2 2 1 1 3 2 3 1 1 1 1 1 5 3 4 0 0 2 1 1 2 1 3 0 0 1 2 3 2 0 3 1 1 0 1 1 5 0 1 1 0 4 2 0 2 1 3 2 1 1 2 1 2 2 0 3 2 1 0 3 1 1 2 2 1 1 1 2 1 1 1 2 1 2 3 1 1 2 0 1 3 0 2 2 0 1 1 1 2 2 1 0 2 0 1 1 2 2 1 1 1 1 1 4 1 3 2 1 2 0 1 2 1 3 2 3 1 2 1 2 0 1 3 2 3 1 4 2 1 0 1 2 3 1 1 1 3 0 5 2 1 3 1 0 3 3 1 1 1 3 0 2 2 1 1 1 2 2 0 1 1 4 2 1 2 2 0 2 1 0 1 2 1 1 1 0 0 2 1 0 1 1 0 2 1 3 4 1 1 0 1 1 1 0 1 0 0 4 1 0 1 1 0 1 1 0 0 0 0 0 0 1 0 0 2 0 2 0 2 1 2 0 1 0 0 5 1 0 2 1 3 2 1 0 1 2 1 0 2 0 1 1 1 1 1 0 2 0 3 1 0 1 4 1 0 1 0 3 1 2 2 1 2 2 3 2 0 1 1 0 1 0 4 0 1 1 0 0 0 1 0 1 1 0 1 2 2 1 1 1 2 2 1 1 1 0 0 2 1 0 0 1 2 1 2 1 0 1 1 4 3 0 0 1 2 1 0 0 4 1 3 0 2 1 2 2 1 2 3 3 5 0 1 1 2 2 1 5 4 3 2 3 4 0 0 2 2 1 1 1 1 1 2 0 2 1 0 1 3 0 1 1 3 1 2 3 3 1 0 1 4 0 2 3 2 2 2 1 3 3 1 1 1 2 2 2 1 5 2 1 1 1 1 3 3 1 1 1 1 0 2 1 2 3 0 0 1 1 0 3 3 1 0 2 3 0 1 2 2 1 1 2 1 0 0 3 2 1 0 0 0 3 1 0 2 2 4 3 2 1 4 1 2 7 3 2 3 2 1 3 3 1 1 1 1 0 0 2 3 1 2 0 0 3 3 2 2 2 0 0 1 2 2 2 2 1 2 2 2 1 0 2 0 1 2 1 0 0 1 1 0 1 2 0 3 0 3 1 2 0 3 2 1 4 0 3 0 0 0 1 1 1 6 0 2 1 0 1 3 1 1 1 0 1 1 1 1 1 2 2 3 0 3 0 0 1 2 1 1 6 1 0 3 1 3 2 2 2 5 1 3 3 0 2 0 3 2 4 4 0 2 1 5 0 4 0 3 2 2 2 2 1 1 0 1 2 0 2 0 1 3 3 2 1 4 2 2 2 4 0 2 0 3 1 3 2 2 2 2 1 0 2 3 2 1 1 1 2 0 0 0 3 0 1 1 2 0 2 2 1 3 1 2 1 2 2 4 0 1 2 3 1 0 2 2 2 3 0 0 1 1 0 1 0 0 1 1 1 2 1 1 2 0 0 1 2 2 1 2 1 2 1 2 3 2 0 2 1 0 2 1 2 1 2 1 0 1 0 4 1 0 1 3 1 3 2 2 2 0 3 1 1 0 0 2 2 0 5 2 4 0 2 2 5 1 0 0 1 4 2 2 0 1 0 3 1 0 1 2 3 1 6 2 0 3 0 1 1 1 1 2 1 0 2 0 1 2 3 1 0 0 3 4 1 0 0 2 3 1 0 3 3 1 0 3 3 0 1 2 4 0 0 0 2 1 0 3 0 1 0 2 2 2 0 2 1 2 1 2 1 0 2 4 2 3 0 1 2 1 0 1 0 2 1 1 0 0 0 4 2 1 2 1 1 3 2 3 3 1 1 3 3 0 2 2 1 4 4 2 2 2 2 1 2 2 2 3 2 1 4 5 2 2 2 2 2 2 1 1 1 0 1 1 0 3 2 0 2 0 1 1 0 2 2 1 3 0 0 0 2 1 2 1 1 0 2 1 1 0 0 1 2 1 1 0 1 3 1 1 2 0 0 3 0 1 2 1 0 1 0 1 0 0 1 0 2 1 0 0 4 1 3 1 3 3 1 2 2 0 0 0 1 1 0 4 3 2 2 3 2 3 2 2 1 2 1 3 1 1 2 1 4 1 2 1 1 2 3 2 3 1 0 3 1 2 1 3 5 4 3 3 1 2 1 3 0 1 0 2 1 0 1 2 4 2 0 2 1 1 1 2 4 1 1 1 2 1 2 2 2 3 3 2 2 3 5 1 1 3 1 3 3 1 4 2 1 2 2 3 3 1 1 3 3 3 0 1 1 1 1 1 2 1 1 0 1 3 1 2 0 2 1 3 2 0 1 0 0 4 2 4 5 0 0 1 2 2 1 0 2 2 2 1 3 2 1 1 1 2 0 1 3 0 1 2 1 1 0 1 2 2 0 0 2 0 1 2 0 5 1 4 2 1 2 0 0 0 3 0 4 1 0 2 1 2 1 1 1 0 1 2 0 1 0 3 2 1 0 1 0 2 1 4 4 1 1 2 5 1 2 2 0 0 3 1 1 1 0 0 3 2 1 2 2 1 0 1 0 1 3 4 0 0 3 4 1 2 4 2 1 3 1 1 0 1 1 2 4 1 2 3 3 0 1 2 2 0 1 1 4 3 2 1 3 2 1 6 3 1 3 3 3 3 1 2 0 4 3 2 0 0 1 2 0 1 2 1 1 1 1 1 3 2 0 1 0 1 3 4 2 1 2 2 2 0 1 0 0 1 2 3 0 3 0 1 2 1 2 4 1 2 2 1 2 3 0 2 0 2 1 2 5 1 1 2 1 1 3 1 2 2 1 0 1 6 1 0 3 1 4 2 3 4 3 2 1 0 3 4 2 1 0 4 4 1 1 2 0 1 0 0 2 1 0 3 0 2 1 3 2 1 3 2 2 0 2 2 2 1 1 2 0 1 2 2 1 1 0 1 4 0 1 1 2 3 1 2 4 1 2 3 3 0 3 3 2 0 2 1 4 3 0 1 2 1 1 2 1 3 2 0 1 2 0 2 5 2 3 1 3 1 2 2 1 2 2 1 2 4 0 1 1 4 1 0 3 0 2 2 3 1 2 3 2 1 6 4 1 1 0 0 0 0 5 3 1 3 4 2 0 1 1 3 3 3 1 4 3 3 5 2 3 3 3 0 2 3 1 0 1 0 1 0 0 1 0 2 3 3 2 0 2 1 3 1 3 2 3 4 1 3 1 2 3 1 1 3 0 1 1 0 0 2 3 1 3 3 2 1 1 2 0 1 3 1 0 3 0 2 1 4 3 4 2 1 4 2 2 3 3 1 4 3 2 0 1 2 2 3 0 3 2 4 1 2 2 1 2 1 1 1 0 3 1 3 2 0 4 0 1 2 1 4 0 3 1 2 1 3 1 0 1 6 1 0 1 1 0 0 0 1 0 0 3 2 1 3 3 1 2 1 3 0 2 1 2 0 1 1 2 1 1 1 1 1 0 0 2 0 1 2 1 0 3 3 1 2 2 1 3 4 3 5 2 2 2 3 2 0 3 2 2 2 1 0 2 1 3 0 3 5 3 0 0 0 3 1 1 2 1 2 4 4 1 1 3 3 1 4 1 4 2 2 1 2 1 1 2 3 0 2 3 0 2 0 1 1 2 4 2 0 0 1 1 3 0 2 0 1 1 2 2 1 1 2 0 2 0 3 2 1 3 4 2 2 2 4 2 2 3 2 3 3 2 4 4 3 6 2 0 5 2 2 4 3 3 1 2 2 4 3 0 0 1 2 3 1 4 3 4 6 4 1 0 3 5 2 3 2 2 2 0 2 3 0 1 4 2 1 2 3 2 3 4 3 0 2 1 0 3 0 3 0 0 4 0 2 4 2 2 2 2 0 2 3 6 1 3 5 5 3 3 5 4 1 5 3 1 0 1 2 3 4 3 2 1 6 0 1 4 1 3 2 3 2 1 1 2 2 3 0 2 1 2 4 1 2 3 0 3 4 0 4 1 0 1 4 3 2 2 1 0 1 2 2 1 2 3 1 5 3 4 2 3 2 1 1 2 3 2 1 2 1 1 3 1 3 3 1 4 4 0 2 0 1 1 2 1 2 1 2 2 1 2 1 2 1 3 4 1 0 2 3 2 3 1 1 2 3 1 3 2 1 4 1 3 0 2 0 1 2 1 0 0 1 1 3 0 0 1 2 1 2 1 0 2 1 4 2 1 2 0 3 1 1 3 0 1 4 3 2 2 0 2 2 2 1 1 0 0 0 1 1 0 3 2 2 2 4 1 3 3 5 1 2 3 4 1 2 4 2 2 4 0 3 1 3 2 2 1 3 2 3 4 2 2 5 4 2 2 2 0 1 1 0 4 1 1 1 1 2 2 1 1 4 0 1 2 2 1 4 0 4 1 2 2 1 1 3 2 1 3 1 2 1 2 2 2 2 3 0 2 2 3 0 4 1 1 3 2 2 1 4 0 3 2 1 1 1 4 2 0 1 0 1 1 2 0 1 2 2 1 3 4 1 1 1 1 2 3 0 3 3 2 0 2 2 0 3 0 1 3 3 1 1 1 1 0 2 0 0 1 4 1 2 1 1 3 2 1 2 0 2 1 3 4 6 1 1 3 3 3 1 1 0 2 2 2 0 0 3 2 1 2 2 2 0 3 1 1 1 5 1 3 3 4 0 1 3 1 1 1 3 1 4 5 1 3 0 2 3 4 1 4 1 6 3 1 1 1 1 2 2 2 1 2 3 3 5 2 3 2 3 2 3 2 1 4 3 3 1 1 2 1 3 1 1 1 4 2 2 0 2 0 0 1 3 7 2 2 1 2 2 2 2 2 2 1 1 1 1 2 3 1 3 1 3 3 1 0 1 2 0 2 0 3 0 4 5 0 0 1 3 1 2 2 4 0 3 3 1 3 1 3 0 1 2 2 1 1 2 1 3 0 0 0 3 1 1 3 3 4 2 4 2 1 2 0 1 0 2 0 3 1 2 1 0 5 0 1 0 1 1 2 3 0 3 2 3 0 2 0 4 2 0 1 3 1 0 2 1 2 1 0 2 2 0 2 1 2 1 2 5 2 3 2 2 3 2 3 2 1 2 0 2 2 2 3 2 1 2 0 2 0 2 2 2 3 1 3 1 1 2 0 3 2 5 0 0 2 1 2 3 3 1 2 3 0 0 1 2 0 0 2 1 3 2 2 1 0 3 2 1 3 1 4 0 2 1 2 4 0 0 0 1 2 2 1 0 3 1 2 2 2 1 2 0 4 1 2 2 0 2 0 3 2 3 2 1 2 0 2 1 2 1 1 2 0 2 2 0 2 1 0 3 2 1 6 3 2 2 1 2 0 1 3 2 1 0 0 1 1 1 0 2 2 2 3 2 0 3 1 4 2 3 0 0 5 0 1 4 3 0 4 1 2 2 3 2 2 0 1 0 3 2 1 0 3 1 2 2 2 3 1 3 0 1 4 2 3 1 1 3 2 4 1 2 2 1 5 2 1 1 0 2 2 3 2 1 2 2 0 0 3 1 2 2 2 1 0 1 5 0 2 1 2 3 1 2 2 4 0 3 1 1 0 4 1 3 3 7 1 1 4 1 3 3 3 4 4 1 3 0 2 4 0 3 2 1 2 3 3 1 2 1 3 1 2 1 2 1 2 0 2 2 1 1 2 0 3 3 2 1 1 2 7 0 3 1 2 2 2 1 3 1 4 1 4 1 3 2 2 2 2 3 0 2 4 0 6 0 5 2 1 1 2 1 0 2 1 2 2 3 3 2 2 2 0 2 3 2 1 2 2 0 2 0 3 5 2 1 3 4 1 2 1 4 1 1 1 2 3 0 1 2 0 0 2 1 0 2 0 1 1 1 1 1 2 0 3 1 3 3 2 0 1 0 2 1 1 2 1 0 0 0 1 2 2 2 2 1 1 1 1 0 1 0 2 2 3 0 1 1 0 1 1 0 1 1 2 1 1 1 0 3 1 0 2 1 0 0 1 2 2 2 2 2 1 1 1 2 4 0 2 1 3 2 1 0 0 2 0 0 1 2 2 2 2 2 4 3 1 1 2 1 2 0 2 2 0 1 1 2 1 3 1 3 1 1 1 4 1 2 2 2 1 2 7 1 1 5 4 2 2 2 0 2 4 2 2 4 0 3 0 0 2 2 2 2 3 1 1 2 1 2 5 4 0 0 3 1 0 0 1 0 0 2 2 1 1 2 1 3 0 2 1 0 0 2 1 2 2 5 2 1 2 1 4 1 1 1 4 4 0 0 2 0 3 0 0 0 0 3 3 3 2 0 0 3 1 1 0 2 1 1 3 1 1 2 1 2 3 2 1 1 5 1 2 2 1 2 0 1 2 2 1 2 1 1 0 1 1 3 1 3 2 2 1 1 1 1 2 1 0 
BTB PER SET COUNT: 1 2 2 2 0 0 2 1 7 0 2 0 1 1 0 1 2 1 1 2 0 1 1 2 1 5 2 2 1465 2 3 4 3 1 2 0 0 4 4 0 1 7 3 3 1 0 3 3 5 1 3 2 2 0 0 2 6 3 2 1 1 3 2 4 0 540 4 0 2 2 775 1 1 2 2 1 497 791 2 1 1 2 1 4 3 1 1 5 3 2 5 473 4 4 4 0 1 5 0 1 5 2 2 4 2 2 1 1 3 0 2 1 3 2 1 3 1 2 1 0 2 3 2 0 5 1 1 2 2 3 499 0 1 1 2 1 0 0 1 2 5 2 2 1 1 0 1 3 3 2 1 1348 1 2 1 0 0 2 2 1 0 0 0 1 3 3 0 1 2358 1 2 2 2 1 1 0 1 1 976 1 2 2 5822 2 2 2 3 0 1 1 4 1 2 2 1 7 2 1 0 2 2 1 1 0 0 0 1 0 0 0 0 3 2 5 4 2 1 3 1 0 0 0 1 2 2 0 2 29 0 2 2021 2 1 5 1 2 3 1 1 1 2 0 1 2 1305 5 1 1 2 1 1 1 1 1 0 4 3 3 2 2 3 3 2 2 2 4 3 0 2 1 2 2 1 2 3 4 2 0 5 2 2 2 1 1 2 984 2 1 1 1 0 0 1 7 0 1 6 2 0 1 2 2 1 2 2 2 3 2 3 4 2 1 2 2 3 0 2 2 1 1 1 2 2 3 0 3 1 4 0 0 1093 0 2 5 976 1 983 3 4 0 3 0 0 980 980 2 1 2 0 4 1 25 2 2 2 2 1 0 3 0 0 2 1 2 4 2 1 0 0 0 22 1 2 0 1 2 2 1 2 3 0 0 1 3 0 0 3 1 2 2 1 2 2 2 2 0 3 0 0 4 3 1 3 1 1 0 1465 3 0 974 0 1 1 1 1 0 4 1 1 91 1 1 2 2 4 3 0 0 1 3 1 0 20 2 3 3 2 1 0 0 0 5 3 3 2 1 1 3 1 1 3 0 0 0 3 0 1 3 3 1 3 0 3 2 0 0 1 0 1 3 0 1 1 490 2 1 0 1 0 0 0 1 1 496 0 2 2 0 4 1 3 1 3 3 0 3 1 2 3 0 3 0 0 1 0 3 1 0 0 3 3 2 2 3 4 0 1 6 1 501 1 1 3 1 2 3 0 4 4 2 4 1 3 4 1 626 0 0 70 0 0 5 4 1 16 1 14 27 4 4 1 7 5 22 0 1 5 0 1 2 5851 0 1 2 1 0 0 1 2 5 4 0 1 13 2 0 0 1 0 0 0 1 0 0 4 0 0 4 2 2 3 7 0 4 974 2 3 0 1 1 0 0 1 3 1 0 1 1 3 0 2 1 3 5 2 1 1209 0 3 1 4 1 4 0 5 2 1 2 1 0 497 1 0 6 2 2 0 0 1 2 5 1 3 3 0 0 1 0 2 1 1 1 3 1 3 0 3 0 1 3 7827 3 4 4 2 1 2 980 0 0 6 1 1 0 13 981 0 1 7 2 2 0 4 981 3 2 1 1465 2 1 0 982 3 1 1 3 3 3 3 6 0 2 0 2 1 982 0 1 0 0 1 2 0 1 981 0 1464 1 0 4 1 0 1 1 0 1 1 1 0 4 2 2 968 0 1 1 12 1 1 0 1 2 1 2 1 1 3 2 3 907 0 0 1 3 0 1 2 7 1 0 1 1 0 2 0 1 4 1 0 1 2 2 0 0 1 2 11 5 1 1 2 2 0 0 3 3 6 5 0 0 1 28 0 0 4 4 3 1 1 1 2 3 2 2 1 1 2 28 0 7 0 2 1 1 4 2 1 0 0 3 4 0 1 0 3 1 3 1 1 107 1 1 2 1 3 0 73 0 4 3 0 1 0 1 0 2 3 2 3 0 2 0 7 1 2 2 0 0 1 1 0 0 0 19 5 1 1 0 2 0 1 1 1 5 1 0 3 2 5 1 6 1 4 0 0 0 1 2 0 0 4 0 2 2 1 4 4 0 2 1 1 0 1 1 1 3 1 1 0 6 3 3 0 0 1 2 0 1 1 2 6 1 3 1 6 0 3 0 2 1 3 1 6 472 4 1 40 7 0 1 1 1 0 970 2 2 1 3 2 1 1 1 5 1 1 0 7 12 2 1 2 621 2 2 2 4 1109 3 2 4 1 1 0 537 2 1 3 6 1 2 3 3 3 5 1 3 1 1 3 1 26 1 1 2 2 1 2 2 1 11 0 2 3 1 2 4 3 51 1 2 1923 0 2429 0 4 3 3 4 1 3 3 1 3071 5 0 2 2 1 1 1 3 4 2 1 3 0 0 1 1 0 2 0 1 3 0 2 4 3 3 3 0 1 3 2 1 544 2 1 2 1 0 1 3 0 4 0 1 2 3 8 1 6 3 3 0 1 7255 0 1 1 1 1 2 9 1 4 4 3 3 4 1 4 2 2 24 0 4 0 1 2 1 19 1 0 5 1 1 1 497 1 1 2 3 4 2 2 2 1 1 3 5 2 1 2 2 1 4 2 1 7 1 7 2 1 3 8 0 1 4 1 0 2 1 0 1 3 1 1 3 2 1 3 2 0 1 1 3 2 1 0 2 0 0 3 2 1 2 2 2 6 0 1 16 0 5 5 2 2 2 34 2 4 0 2523 25 0 5 1 2 0 0 13 623 0 1 1 2 95 1 0 0 494 3 1 1 3 0 0 1 4 1 5 3 2 0 66 0 0 2 7 994 0 8 0 0 1 2 4 4 0 2 908 3 1 1 1 0 6 2 3 0 1 2 2387 3 1 2 2 0 2 5 1967 1 3 3 2 0 0 6 3 5 2 2 2 3 1 3 2 5 1 1 1 1 1 3136 7 5 0 0 2 1 2 2 1 3 0 0 1 2 1466 2 0 3 1 65 0 1 1 21 0 1 1 0 5 2 0 2 1 3 2 2 1 2 1 2 3 0 3 2 1 0 5 1 1 3 3 1 65 2 2 1 1 1 2 4 2 3 1 1 2 0 1 5 0 2 2 0 1 1 1 2 2 1 0 2 0 1 1 2 3 3 1 1 1 1 4 2 3 3 1 2 0 1 2 1 3 2 3 1 2 1 2 0 1 14 2 3 1 4 2 1 0 1 2 3 1 1 1 3 0 18 2 1 3 1 0 3 132 1 1 1 3 0 2 2 1 1 4 67 5 0 2 3 4 2 1 2 2 0 2 1464 0 1 1505 1 1 1 0 0 2 1 0 1 1504 0 2 2 3 4 1 1 0 1 1 1 0 2 0 0 4 3 0 1 1 0 1 1 0 0 0 0 0 0 1 0 0 4 0 2 0 2 1 2 0 1 0 0 6 29 0 2 1 3 2 1 0 1 2 129 0 4 0 1 1 1 1 1 0 3 0 3 399 0 1 106 1 0 1 0 4 1 2 2 1 19 2 4 2 0 1 1 0 1 0 5 0 1 1 0 0 0 1 0 1 1 0 2 431 4 1 1 1 2 2 1 3 1 0 0 2 1 0 0 1 2 1 10 1 0 1 1 31 3 0 0 1 2 1 0 0 5 1 3 0 3 1 2 2 1 2 3 3 1717 0 1 1 2 3 1 21 4 3 2 6 1594 0 0 2 1465 1 2 2 2 1 2 0 2 974 0 1 4 0 1 1 3 20 2 5 3 2927 0 1 5 0 3 7 2 2 3 2 4 3 1 1 1 251 2 2 1 15 2 1 6 1 1 4 3 1 1 1 1 0 2 1 3 3 0 0 1 1 0 3 3 1 0 2 4 0 1 19 2 2 982 2 1 0 0 3 2 983 0 0 0 5 623 0 21 2 4 4 2 1 605 1 2 5023 4 2 14644 983 1 3 3 131 1 1 1 0 0 2 4 1 2 0 0 3 3 2 155 2 0 0 1 1465 237 3 2 1 2 2 2 732 0 2 0 1 2 1 0 0 1 662 0 1 3 0 3 0 4 1 4 0 3 2 65 5 0 3 0 0 0 1 1 1 73 0 2 524 0 1 3 1 1 1 0 1 969 1 1 1 4 2 4 0 5 0 0 1 2 1464 2 2909 1 0 3 1 3 5 2 2 1755 1 419 3 0 2 0 3 221 4 73 0 2 1 2124 0 188 0 5 1596 2 2 2 1 1 0 1 2 0 2 0 1 4 5 2 1 5 405 3 2 977 0 2 0 4 1 3 2 2 2 2 1 0 2 186 2 1 1 1 2 0 0 0 3 0 1 1 2 0 2 2 1 9 6 2 1 2 2 4 0 1 2 3 1 0 2 2 3 3 0 0 1 1 0 1 0 0 1 1 1 2 1 1 2 0 0 1 2 2 1 2 1 2 1 2 3 149 0 2 1 0 2 1 2 1 2 1 0 1 0 4 1 0 1 3 1 3 2 2 2 0 3 1 1 0 0 2 2 0 26 1466 5 0 2 2 1725 1 0 0 1 19 2 2 0 2 0 3 1 0 1 2 3 2 2771 2 0 3 0 1 1 1 1 2 1 0 2 0 1 2 4 2 0 0 4 4 1 0 0 2 3 1 0 3 3 1 0 3 4 0 1 2 4 0 0 0 2 1 0 3 0 1 0 2 2 2 0 2 1 217 1 2 1 0 2 1474 2 4 0 1 2 1 0 1 0 2 1 1 0 0 0 4 2 1 2 1 3 3 1596 4 4 1 1 3 4 0 2 2 1 4 6 2 2 4 2 2930 2 2 2 3 2 1 4 4636 2 3 2 2 2 2 1 1 1 0 1 1 0 3 2 0 2 0 1 1 0 3 2 1 3 0 0 0 2 1 3 1 1 0 2 1 1 0 0 2 3 1 1 0 1 3 1 1 2 0 0 3 0 1 2 3 0 2 0 1 0 0 1 0 23 1 0 0 8 1 3 2 3 3 1 2 4 0 0 0 1 1 0 4 4 2 2 3 3 3 2 2 1 3 1 4 1 1 3 1 7 1 3 1 1 2 3 2 3 1 0 3 1 2 2 3 1034 5 4 4 1939 3 1 3 0 1 0 8 1 0 1 2 5 2 0 2 1 1 1 2 4 1 1 1 3 1 2 2 2 3 5 2 2 4 5 2 1 3 1 8 5 1 1598 2 1 2 2 3 4 1 1 3 4 3 0 1 1 1 1 1 2 1 1 0 1 3 6 2 0 2 1 4 2 0 1 0 0 4 2 5 5 0 0 2 2 2 1 0 2 2 2 1 4 2 1 4 1 2 0 1464 3 0 1 2 1 1 0 1 2 2 0 0 2 0 1 26 0 12 1 9 2 1 2 0 0 0 4 0 5 1 0 4 1 2 1 1 1 0 1 2 0 1 0 3 2 1 0 2 0 2 3 5 7 1 2 2 1050 1 2 2 0 0 3 1 1 1 0 0 3 2 1 2 2 1 0 1 0 1 3 5 0 0 3 4 1 2 7 2 1 3 2 1 0 2 1 2 4 1 6 3 6 0 2 2 2 0 1 1 5 4 3 1 5 2 1 27 3 1 5 3 3 3 1 2 0 6 4 2 0 0 1 1464 0 1 2 1 1 3 1 1 3 2 0 1 0 1 3 5 3 974 2 112 2 0 1 0 0 1 2 3 0 10 0 1 3 131 2 7 1 2 2 2 3 4 0 4 0 2 1 4 38 1 1 2 1 1 4 1 2 3 1 0 1 502 3 0 5 1 5 2 3 4 3 4 1 0 5 26 2 1 0 6 4 1 1 2 0 1 0 0 2 1 0 3 0 2 1 3 2 1 4 51 3 0 2 2 11 1 1 3 0 1 2 2 1 1 0 1 4 0 1 1 2 4 1 2 1468 1 2 5 4 0 3 3 4 0 2 1 6 3 0 1 2 1 1 3 1 3 8 0 2 2 0 2 1888 2 3 2 5 1 2 3 2 2 2 1 2 4 0 1 1 4 1 0 3 0 4 2 5 1 2 3 3 24 41 4 45 1 0 0 0 0 2137 3 4 3 132 2 0 1 2 3 3 3 1 4 3 5 7 2 4 3 3 0 2 3 1 0 1 0 1 0 0 1 0 2 498 3 2 0 2 1 5 1 3 2 1466 4 1 3 1 2 3 1 1 4 0 1 1 0 0 2 6 1 5 3 2 2 1 2 0 1 3 1 0 6 0 2 1 4 5 2945 5 1 7 2 3 6 5 1 4 3 3 0 1 2 3 5 0 3 2 4 1 3 2 4 4 3 20 1 0 4 1 4 40 0 5 0 1 3 1 5 0 3 1 2 2 6 1 0 1 25 1 0 1 1 0 0 0 1 0 0 6 2 1 3 3 1 2 2 4 0 4 1 2 0 1 3 2 1 2 621 1 1 0 0 2 0 1 2 1 0 3 4 2 2 2 1 3 5 3 25 2 4 3 5 2 0 119 2 2 2 1 0 2 1 7 0 3 16 5 0 0 0 3 3 1 26 1 2 6 7 1 1 3 3 3 6 1 1966 3 2 1 2 1 1 3 3 0 2 3 0 2 0 1 2 2 4 2 0 0 1 1 4 0 2 0 1 1 24 3 1 1 3 0 4 0 3 1471 1 6 5 2 2 2 5 2 2 3 2 3 3 2 5 4 3 4393 2 0 26 977 4 4 4 12 1 2 2 5 4 0 0 1 2 3 1 7 5 4 80 4 1 0 3 7 2 3 2 2 2 0 2 3 0 1 4 2 2 77 4 2 3 4 3 0 2 3 0 3 0 4 0 0 4 0 4 6 3 2 8 3 0 2 3 596 1 500 328 1272 3 3 2001 7 2 124 4 1 0 1 2 52 4 247 2 1 794 0 1 7 1 3 2 3 2 1 1 2 2 3 0 2 1 2 4 1 2 3 0 3 4 0 972 1 0 1 4 4 493 2 1 0 1 2 2 1 2 3 1 1812 3 4 3 3 2 1 1 4 3 2 1 2 1 1 3 1 3 3 1 537 908 0 2 0 1 2 2 1 2 1 2 2 1 2 1 2 1 3 6 5 0 2 3 2 3 1 1 2 3 1 3 3 1 4 1 3 0 2 0 1 1465 1 0 0 1 1 3 0 0 1 2 1 4 1 0 2 1 4 2 2 2 0 4 1 1 4 0 1 5 99 3 2 0 2 2 2 1 1 0 0 0 1 1 0 4 3 2 2 4 1 3 3 25 1 2 3 4 1 2 4 3 2 4 0 4 2 3 2 3 2 3 2 3 4 4 2 7 4 2 2 2 0 1 1 0 5 1 1 1 1 13 2 1 2 626 0 1 2 2 1 4 0 146 1 2 2 1 1 3 21 1 4 1 2 1 2 2 2 3 3 0 2 3 3 0 4 1 1 3 2 2 1 971 0 5 2 1 1 1 5 2 0 1 0 1 1 2 0 1 2 2 1 3 5 1 1 1 1 2 3 0 3 3 3 0 2 2 0 6 0 1 3 3 1 1 1 1 0 2 0 0 1 5 1 4 3 1 3 2 1 2 0 2 1 3 5 4489 2 1 1470 3 5 1 1 0 2 2 2 0 0 3 2 1 2 2 2 0 3 1 1 1 429 1 3 5 4 0 1 3 1 1 1 3 1 4 1187 974 5 0 2 3 5 1 4 1 2385 5 1 1 1 1 2 6 2 1 3 3 3 13 2 3 2 500 2 3 11 1 73 3 3 1 1 2 1 6 2 1 1 6 2 2 0 2 0 0 1 5 2986 2 2 1 2 3 2 31 2 2 1 1 2 1 2 3 1 3 1 4 3 1 0 1 2 0 2 0 3 0 4 20 0 0 1 3 968 2 2 8 0 3 50 1 4 1 5 0 2 3 2 1 1 3 3 22 0 0 0 5 1 1 3 3 4 2 10 2 1 2 0 1 0 5 0 3 1 2 1 0 85 0 1 0 1 1 2 4 0 4 2 3 0 2 0 605 2 0 1 3 1 0 2 1 2 1 0 2 3 0 2 1 2 1 2 2131 5 3 7 2 3 2 4 2 1 2 0 4 2 2 971 2 1 2 0 4 0 2 2 2 3 1 3 906 1 15 0 3 2 1301 0 0 2 1 2 6 5 1 2 20505 0 0 1 2 0 0 2 1 4 269 2 1 0 3 2 1 4 1 4 0 2 1 2 7 0 0 0 1 2 2 1 0 3 1 2 2 2 1 2 0 4 1 2 3 0 2 0 3 2 3 2 1 2 0 2 1 2 5 1 2 0 2 2 0 3 1 0 4 2 1 2066 3 2 2 1 2 0 1 3 975 2 0 0 1 2 1 0 2 2 2 5 2 0 3 1 4 2 4 0 0 12 0 1 20 3 0 4 1 2 3 3 2 3 0 1 0 3 2 1 0 3 1 2 3 3 3 2 7 0 1 30 2 3 1 1 3 2 5 1 2 2 1 25 2 1 534 0 1465 2 3 144 1 2 2 0 0 3 1 2 2 2 1 0 1 12 0 2 1 6 4 1 498 2 4 0 23 1 1 0 4 1 499 3 2011 1 1 4 1 3 3 5 4 4 2 5 0 2 4 0 499 2 1 2 3 3 1 3 1 4 2 536 1464 2 1 2 0 4 2 1 1 2 0 4 3 2 1 1 2 2796 0 1466 1 2 2 2 1 3 1 4 1 4 1 4 2 4 2 2 4 0 2 23 0 4078 0 1202 4 1 1 2 1 0 2 1 2 2 3 3 2 2 2 0 2 3 2 1 2 2 0 2 0 3 1734 969 1 3 4 1 3 1 4 1 1 1 2 3 0 1 2 0 0 2 1 0 2 0 4 1 1 1 1 2 0 3 1 3 3 2 0 1 0 2 1 1 2 4 0 0 0 1 2 4 2 3 1 4 1 602 0 1 0 2 2 6 0 1 3 0 1 2 0 1 1 2 1 1 1 0 21 1 0 2 1 0 0 2 2 2 2 2 2 1 2 1 2 5 0 2 1 3 2 1 0 0 3 0 0 1 2 2 25 911 3 4 3 1 1 2 1 2 0 2 3 0 1 1 2 1 3 3 3 1 1 1 4 1 3 2 2 1 2 2997 1 1 1294 4 2 2 2 0 2 7 2 3 135 0 9 0 0 2 2 923 2 3 1 1 2 24 3 152 4 0 0 4 1 0 0 1 0 0 2 2 1 1 2 1 3 0 66 1 0 0 2 1 2 2 1203 3 1 3 1 626 1 1 1 4 6 0 0 2 0 4 0 0 0 0 3 3 3 2 0 0 4 1 1 0 2 1 1 3 1 1 4 1 2 5 2 1 1 25 1 2 2 1 2 0 1 2 2 3 2 1 1 0 1 1 4 1 12 2 3 1 1 1 9 2 1 0 
