
*** ChampSim Multicore Out-of-Order Simulator ***

Warmup Instructions: 50000000
Simulation Instructions: 50000000
Number of CPUs: 1
LLC sets: 2048
LLC ways: 16
Off-chip DRAM Size: 4096 MB Channels: 1 Width: 64-bit Data Rate: 6400 MT/s
CPU 0 runs ./micro_traces/srv149.trace.gz
.gz
ITLB has LRU replacement policy
DTLB has LRU replacement policy
STLB has LRU replacement policy
FDIP Prefetcher at L1I
L1I has LRU replacement policy
L1D has LRU replacement policy
Initialize SRRIP state for L2C
Initialize DRRIP state for LLC
Heartbeat_Variant_0 : 1319 0.322021 per_variant_size: 0 1319 0 0 0 0 0 0 0 
Heartbeat_Variant_1 : 996 0.243164 per_variant_size: 0 193 803 0 0 0 0 0 0 
Heartbeat_Variant_2 : 819 0.199951 per_variant_size: 0 121 96 83 519 0 0 0 0 
Heartbeat_Variant_3 : 0 0 per_variant_size: 0 0 0 0 0 0 0 0 0 
Heartbeat_Variant_0_evicts 0 : 5407 1 : 0 2 : 0 3 : 0 
Heartbeat_Variant_1_evicts 0 : 0 1 : 0 2 : 193 3 : 0 
Heartbeat_Variant_2_evicts 0 : 0 1 : 191 2 : 0 3 : 0 
Heartbeat_Variant_3_evicts 0 : 0 1 : 0 2 : 0 3 : 0 
Heartbeat CPU 0 instructions: 10000001 cycles: 2794003 heartbeat IPC: 3.57909 cumulative IPC: 3.57909 (Simulation time: 0 hr 2 min 19 sec) 
Heartbeat_Variant_0 : 1434 0.350098 per_variant_size: 0 1434 0 0 0 0 0 0 0 
Heartbeat_Variant_1 : 1106 0.27002 per_variant_size: 0 178 928 0 0 0 0 0 0 
Heartbeat_Variant_2 : 893 0.218018 per_variant_size: 0 112 104 103 574 0 0 0 0 
Heartbeat_Variant_3 : 0 0 per_variant_size: 0 0 0 0 0 0 0 0 0 
Heartbeat_Variant_0_evicts 0 : 5427 1 : 0 2 : 0 3 : 0 
Heartbeat_Variant_1_evicts 0 : 0 1 : 0 2 : 191 3 : 0 
Heartbeat_Variant_2_evicts 0 : 0 1 : 191 2 : 0 3 : 0 
Heartbeat_Variant_3_evicts 0 : 0 1 : 0 2 : 0 3 : 0 
Heartbeat CPU 0 instructions: 20000000 cycles: 5588351 heartbeat IPC: 3.57865 cumulative IPC: 3.57887 (Simulation time: 0 hr 4 min 20 sec) 
Heartbeat_Variant_0 : 1434 0.350098 per_variant_size: 0 1434 0 0 0 0 0 0 0 
Heartbeat_Variant_1 : 1112 0.271484 per_variant_size: 0 181 931 0 0 0 0 0 0 
Heartbeat_Variant_2 : 895 0.218506 per_variant_size: 0 114 105 100 576 0 0 0 0 
Heartbeat_Variant_3 : 0 0 per_variant_size: 0 0 0 0 0 0 0 0 0 
Heartbeat_Variant_0_evicts 0 : 5488 1 : 0 2 : 0 3 : 0 
Heartbeat_Variant_1_evicts 0 : 0 1 : 0 2 : 194 3 : 0 
Heartbeat_Variant_2_evicts 0 : 0 1 : 194 2 : 0 3 : 0 
Heartbeat_Variant_3_evicts 0 : 0 1 : 0 2 : 0 3 : 0 
Heartbeat CPU 0 instructions: 30000003 cycles: 8382882 heartbeat IPC: 3.57842 cumulative IPC: 3.57872 (Simulation time: 0 hr 6 min 25 sec) 
Heartbeat_Variant_0 : 1438 0.351074 per_variant_size: 0 1438 0 0 0 0 0 0 0 
Heartbeat_Variant_1 : 1127 0.275146 per_variant_size: 0 180 947 0 0 0 0 0 0 
Heartbeat_Variant_2 : 904 0.220703 per_variant_size: 0 114 101 114 575 0 0 0 0 
Heartbeat_Variant_3 : 0 0 per_variant_size: 0 0 0 0 0 0 0 0 0 
Heartbeat_Variant_0_evicts 0 : 5549 1 : 0 2 : 0 3 : 0 
Heartbeat_Variant_1_evicts 0 : 0 1 : 0 2 : 194 3 : 0 
Heartbeat_Variant_2_evicts 0 : 0 1 : 194 2 : 0 3 : 0 
Heartbeat_Variant_3_evicts 0 : 0 1 : 0 2 : 0 3 : 0 
Heartbeat CPU 0 instructions: 40000002 cycles: 11178072 heartbeat IPC: 3.57757 cumulative IPC: 3.57843 (Simulation time: 0 hr 8 min 37 sec) 
*** Reached end of trace for Core: 0 Repeating trace: ./micro_traces/srv149.trace.gz
Heartbeat_Variant_0 : 1448 0.353516 per_variant_size: 0 1448 0 0 0 0 0 0 0 
Heartbeat_Variant_1 : 1137 0.277588 per_variant_size: 0 181 956 0 0 0 0 0 0 
Heartbeat_Variant_2 : 908 0.22168 per_variant_size: 0 111 105 109 583 0 0 0 0 
Heartbeat_Variant_3 : 0 0 per_variant_size: 0 0 0 0 0 0 0 0 0 
Heartbeat_Variant_0_evicts 0 : 5444 1 : 0 2 : 0 3 : 0 
Heartbeat_Variant_1_evicts 0 : 0 1 : 0 2 : 192 3 : 0 
Heartbeat_Variant_2_evicts 0 : 0 1 : 192 2 : 0 3 : 0 
Heartbeat_Variant_3_evicts 0 : 0 1 : 0 2 : 0 3 : 0 
Heartbeat CPU 0 instructions: 50000000 cycles: 13972843 heartbeat IPC: 3.57811 cumulative IPC: 3.57837 (Simulation time: 0 hr 10 min 49 sec) 

Warmup complete CPU 0 instructions: 50000004 cycles: 13972844 (Simulation time: 0 hr 10 min 49 sec) 

Cycle: 20000000 FTQ IN: 58225751 FTQ occupancy: 19.9252 DECODE IN: 58225685 DECODE occupancy: 51.9041 ROB IN: 58225625 ROB occupancy: 314.884 ROB OUT: 58225276
Heartbeat_Variant_0 : 1448 0.353516 per_variant_size: 0 1448 0 0 0 0 0 0 0 
Heartbeat_Variant_1 : 1137 0.277588 per_variant_size: 0 190 947 0 0 0 0 0 0 
Heartbeat_Variant_2 : 908 0.22168 per_variant_size: 0 112 103 118 575 0 0 0 0 
Heartbeat_Variant_3 : 0 0 per_variant_size: 0 0 0 0 0 0 0 0 0 
Heartbeat_Variant_0_evicts 0 : 5468 1 : 0 2 : 0 3 : 0 
Heartbeat_Variant_1_evicts 0 : 0 1 : 0 2 : 192 3 : 0 
Heartbeat_Variant_2_evicts 0 : 0 1 : 192 2 : 0 3 : 0 
Heartbeat_Variant_3_evicts 0 : 0 1 : 0 2 : 0 3 : 0 
Heartbeat CPU 0 instructions: 60000003 cycles: 21297212 heartbeat IPC: 1.36531 cumulative IPC: 1.36531 (Simulation time: 0 hr 13 min 11 sec) 
Heartbeat_Variant_0 : 1448 0.353516 per_variant_size: 0 1448 0 0 0 0 0 0 0 
Heartbeat_Variant_1 : 1136 0.277344 per_variant_size: 0 183 953 0 0 0 0 0 0 
Heartbeat_Variant_2 : 909 0.221924 per_variant_size: 0 113 103 126 567 0 0 0 0 
Heartbeat_Variant_3 : 0 0 per_variant_size: 0 0 0 0 0 0 0 0 0 
Heartbeat_Variant_0_evicts 0 : 5480 1 : 0 2 : 0 3 : 0 
Heartbeat_Variant_1_evicts 0 : 0 1 : 0 2 : 192 3 : 0 
Heartbeat_Variant_2_evicts 0 : 0 1 : 193 2 : 0 3 : 0 
Heartbeat_Variant_3_evicts 0 : 0 1 : 0 2 : 0 3 : 0 
Heartbeat CPU 0 instructions: 70000001 cycles: 28531167 heartbeat IPC: 1.38237 cumulative IPC: 1.37378 (Simulation time: 0 hr 15 min 28 sec) 
Cycle: 30000000 FTQ IN: 13825606 FTQ occupancy: 12.6079 DECODE IN: 13825593 DECODE occupancy: 32.8261 ROB IN: 13825593 ROB occupancy: 234.948 ROB OUT: 13825594
Heartbeat_Variant_0 : 1448 0.353516 per_variant_size: 0 1448 0 0 0 0 0 0 0 
Heartbeat_Variant_1 : 1136 0.277344 per_variant_size: 0 182 954 0 0 0 0 0 0 
Heartbeat_Variant_2 : 909 0.221924 per_variant_size: 0 113 103 122 571 0 0 0 0 
Heartbeat_Variant_3 : 0 0 per_variant_size: 0 0 0 0 0 0 0 0 0 
Heartbeat_Variant_0_evicts 0 : 5538 1 : 0 2 : 0 3 : 0 
Heartbeat_Variant_1_evicts 0 : 0 1 : 0 2 : 194 3 : 0 
Heartbeat_Variant_2_evicts 0 : 0 1 : 194 2 : 0 3 : 0 
Heartbeat_Variant_3_evicts 0 : 0 1 : 0 2 : 0 3 : 0 
Heartbeat CPU 0 instructions: 80000000 cycles: 35782915 heartbeat IPC: 1.37898 cumulative IPC: 1.37551 (Simulation time: 0 hr 17 min 57 sec) 
Cycle: 40000000 FTQ IN: 13811057 FTQ occupancy: 12.7963 DECODE IN: 13810999 DECODE occupancy: 33.0301 ROB IN: 13810999 ROB occupancy: 235.59 ROB OUT: 13810999
Heartbeat_Variant_0 : 1448 0.353516 per_variant_size: 0 1448 0 0 0 0 0 0 0 
Heartbeat_Variant_1 : 1136 0.277344 per_variant_size: 0 186 950 0 0 0 0 0 0 
Heartbeat_Variant_2 : 909 0.221924 per_variant_size: 0 113 103 122 571 0 0 0 0 
Heartbeat_Variant_3 : 0 0 per_variant_size: 0 0 0 0 0 0 0 0 0 
Heartbeat_Variant_0_evicts 0 : 5560 1 : 0 2 : 0 3 : 0 
Heartbeat_Variant_1_evicts 0 : 0 1 : 0 2 : 194 3 : 0 
Heartbeat_Variant_2_evicts 0 : 0 1 : 194 2 : 0 3 : 0 
Heartbeat_Variant_3_evicts 0 : 0 1 : 0 2 : 0 3 : 0 
Heartbeat CPU 0 instructions: 90000002 cycles: 43000261 heartbeat IPC: 1.38555 cumulative IPC: 1.37801 (Simulation time: 0 hr 20 min 14 sec) 
*** Reached end of trace for Core: 0 Repeating trace: ./micro_traces/srv149.trace.gz
Cycle: 50000000 FTQ IN: 13865469 FTQ occupancy: 12.6841 DECODE IN: 13865581 DECODE occupancy: 33.0288 ROB IN: 13865641 ROB occupancy: 236.562 ROB OUT: 13865926
Heartbeat_Variant_0 : 1448 0.353516 per_variant_size: 0 1448 0 0 0 0 0 0 0 
Heartbeat_Variant_1 : 1137 0.277588 per_variant_size: 0 185 952 0 0 0 0 0 0 
Heartbeat_Variant_2 : 908 0.22168 per_variant_size: 0 112 103 114 579 0 0 0 0 
Heartbeat_Variant_3 : 0 0 per_variant_size: 0 0 0 0 0 0 0 0 0 
Heartbeat_Variant_0_evicts 0 : 5447 1 : 0 2 : 0 3 : 0 
Heartbeat_Variant_1_evicts 0 : 0 1 : 0 2 : 193 3 : 0 
Heartbeat_Variant_2_evicts 0 : 0 1 : 192 2 : 0 3 : 0 
Heartbeat_Variant_3_evicts 0 : 0 1 : 0 2 : 0 3 : 0 
Heartbeat CPU 0 instructions: 100000000 cycles: 50202964 heartbeat IPC: 1.38837 cumulative IPC: 1.38007 (Simulation time: 0 hr 21 min 55 sec) 
Finished CPU 0 instructions: 50000000 cycles: 36230121 cumulative IPC: 1.38007 (Simulation time: 0 hr 21 min 55 sec) 

ChampSim completed all CPUs

Region of Interest Statistics

CPU 0 cumulative IPC: 1.38007 instructions: 50000000 cycles: 36230121
 Fetch stage stalled: 54.0548  Sim cycles: 36230121 fetch stall cycle: 19584134
 Empty decode stage: 36.6015  Sim cycles: 36230121 fetch stall cycle: 13260780
ITLB TOTAL     ACCESS:    5851630  HIT:    5359340  MISS:     492290  HIT %:    91.5871  MISS %:    8.41287   MPKI: 9.8458
ITLB LOAD TRANSLATION INSTRUCTION	ACCESS:    5719324  HIT:    5227034  MISS:     492290  HIT %:    91.3925  MISS %:    8.60749  MPKI: 9.8458
ITLB TRANSLATION FROM L1D PREFETCHER INSTRUCTION	ACCESS:     132306  HIT:     132306  MISS:          0  HIT %:        100  MISS %:          0  MPKI: 0

ITLB AVERAGE MISS LATENCY: 9.06193 cycles
ITLB RQ	ACCESS:    7975905	FORWARD:          0	MERGED:    1682674	TO_CACHE:    6293231

DTLB TOTAL     ACCESS:    8924653  HIT:    8448474  MISS:     476179  HIT %:    94.6645  MISS %:    5.33555   MPKI: 9.52358
DTLB LOAD TRANSLATION DATA	ACCESS:    8924653  HIT:    8448474  MISS:     476179  HIT %:    94.6645  MISS %:    5.33555  MPKI: 9.52358

DTLB AVERAGE MISS LATENCY: 9.28693 cycles
DTLB RQ	ACCESS:   13286014	FORWARD:          0	MERGED:    4325025	TO_CACHE:    8960989

STLB TOTAL     ACCESS:    1224622  HIT:    1222291  MISS:       2331  HIT %:    99.8097  MISS %:   0.190344   MPKI: 0.04662
STLB LOAD TRANSLATION INSTRUCTION	ACCESS:     492290  HIT:     491953  MISS:        337  HIT %:    99.9315  MISS %:  0.0684556  MPKI: 0.00674
STLB LOAD TRANSLATION DATA	ACCESS:     476179  HIT:     474229  MISS:       1950  HIT %:    99.5905  MISS %:    0.40951  MPKI: 0.039
STLB TRANSLATION FROM L1D PREFETCHER DATA	ACCESS:     256153  HIT:     256109  MISS:         44  HIT %:    99.9828  MISS %:  0.0171772  MPKI: 0.00088

STLB AVERAGE MISS LATENCY: 60.0674 cycles
STLB RQ	ACCESS:    1381091	FORWARD:          0	MERGED:     156438	TO_CACHE:    1224653

STLB Hit, L1D data hit: 0
STLB Hit, L2C data hit: 0
STLB Hit, LLC data hit: 0
STLB Hit, LLC data miss: 0
STLB STLB hints to L2: 0
L1D TOTAL     ACCESS:   13037260  HIT:   11840906  MISS:    1196354  HIT %:    90.8236  MISS %:    9.17642   MPKI: 23.9271
L1D LOAD DATA	ACCESS:    6546856  HIT:    5758328  MISS:     788528  HIT %:    87.9556  MISS %:    12.0444  MPKI: 15.7706
L1D RFO DATA	ACCESS:    6151890  HIT:    5855975  MISS:     295915  HIT %:    95.1899  MISS %:    4.81015  MPKI: 5.9183
L1D PREFETCH DATA	ACCESS:     338514  HIT:     226603  MISS:     111911  HIT %:    66.9405  MISS %:    33.0595  MPKI: 2.23822

L1D PREFETCH  REQUESTED:     825628  ISSUED:     825628  USEFUL:      54911  USELESS:      72467
L1D USEFUL LOAD PREFETCHES:      54911 PREFETCH ISSUED TO LOWER LEVEL:     127456  ACCURACY: 43.0823
 TIMELY PREFETCHES:      54911 LATE PREFETCHES: 15468 DROPPED PREFETCHES: 2
L1D AVERAGE MISS LATENCY: 408120 cycles
L1D RQ	ACCESS:   10655976	FORWARD:          0	MERGED:    3909643	TO_CACHE:    6582792
L1D WQ	ACCESS:    6899288	FORWARD:     163925	MERGED:     196066	TO_CACHE:    6703222
L1D PQ	ACCESS:     413006	FORWARD:          0	MERGED:          0	TO_CACHE:     412622

L1D UNIQUE REGIONS ACCESSED: 0
L1D REGIONS CONFLICTS: 0
L1D Cross Page Prefetch Requests: 7888
L1D Same Page Prefetch Requests: 831522
L1D ROI Sum of L1D PQ occupancy: 5227092
L1D PREFETCHES PUSHED FROM L2C: 0
L1I TOTAL     ACCESS:    7154561  HIT:    4397596  MISS:    2756965  HIT %:    61.4656  MISS %:    38.5344   MPKI: 55.1393
L1I LOAD INSTRUCTION	ACCESS:    6483014  HIT:    3726049  MISS:    2756965  HIT %:     57.474  MISS %:     42.526  MPKI: 55.1393
L1I PREFETCH INSTRUCTION	ACCESS:     671547  HIT:     671547  MISS:          0  HIT %:        100  MISS %:          0  MPKI: 0

L1I PREFETCH  REQUESTED:    1606859  ISSUED:    1606859  USEFUL:          0  USELESS:          0
L1I USEFUL LOAD PREFETCHES:          0 PREFETCH ISSUED TO LOWER LEVEL:          0  ACCURACY: -nan
 TIMELY PREFETCHES:          0 LATE PREFETCHES: 0 DROPPED PREFETCHES: 0
L1I AVERAGE MISS LATENCY: 17.0535 cycles
L1I RQ	ACCESS:    9516664	FORWARD:          0	MERGED:    2712091	TO_CACHE:    6804573
L1I PQ	ACCESS:    1606859	FORWARD:          0	MERGED:     435527	TO_CACHE:    1171332

L1BTB TOTAL     ACCESS:    5687280  HIT:    2073077  MISS:    3614203  HIT %:    36.4511  MISS %:    63.5489   MPKI: 72.2841
L1BTB BRANCH_DIRECT_JUMP	ACCESS:     541789  HIT:     141973  MISS:     399816	AVERAGE STALL: 48.162
L1BTB BRANCH_INDIRECT	ACCESS:     180368  HIT:      64656  MISS:     115712	AVERAGE STALL: 95.4983
L1BTB BRANCH_CONDITIONAL	ACCESS:    2738389  HIT:    1452547  MISS:    1285842	AVERAGE STALL: 52.8281
L1BTB BRANCH_DIRECT_CALL	ACCESS:     942516  HIT:     103589  MISS:     838927	AVERAGE STALL: 83.1776
L1BTB BRANCH_INDIRECT_CALL	ACCESS:     170854  HIT:      21207  MISS:     149647	AVERAGE STALL: 135.981
L1BTB BRANCH_RETURN	ACCESS:    1113364  HIT:     289105  MISS:     824259	AVERAGE STALL: 49.9981
L1BTB BRANCH_OTHER ACCESS:          0  HIT:          0  MISS:          0	AVERAGE STALL: -nan
L1BTB TOTAL ROB OCCUPANCY AT BTB MISS: 2.87091

L2BTB TOTAL     ACCESS:    3589347  HIT:    3518786  MISS:      70561  HIT %:    98.0342  MISS %:    1.96585   MPKI: 1.41122
L2BTB BRANCH_DIRECT_JUMP	ACCESS:     395782  HIT:     389844  MISS:       5938	AVERAGE STALL: 48.162
L2BTB BRANCH_INDIRECT	ACCESS:     105480  HIT:     102845  MISS:       2635	AVERAGE STALL: 95.4983
L2BTB BRANCH_CONDITIONAL	ACCESS:    1285842  HIT:    1278138  MISS:       7704	AVERAGE STALL: 52.8281
L2BTB BRANCH_DIRECT_CALL	ACCESS:     838927  HIT:     838327  MISS:        600	AVERAGE STALL: 83.1776
L2BTB BRANCH_INDIRECT_CALL	ACCESS:     140289  HIT:     129485  MISS:      10804	AVERAGE STALL: 135.981
L2BTB BRANCH_RETURN	ACCESS:     823027  HIT:     780147  MISS:      42880	AVERAGE STALL: 49.9981
L2BTB BRANCH_OTHER ACCESS:          0  HIT:          0  MISS:          0	AVERAGE STALL: -nan
L2BTB TOTAL ROB OCCUPANCY AT BTB MISS: 147.051

L2C TOTAL     ACCESS:    4582876  HIT:    4103256  MISS:     479620  HIT %:    89.5345  MISS %:    10.4655   MPKI: 9.5924
L2C LOAD INSTRUCTION	ACCESS:    2756965  HIT:    2509569  MISS:     247396  HIT %:    91.0265  MISS %:    8.97349  MPKI: 4.94792
L2C LOAD TRANSLATION INSTRUCTION	ACCESS:        387  HIT:        103  MISS:        284  HIT %:     26.615  MISS %:     73.385  MPKI: 0.00568
L2C LOAD DATA	ACCESS:     773042  HIT:     691082  MISS:      81960  HIT %:    89.3977  MISS %:    10.6023  MPKI: 1.6392
L2C RFO DATA	ACCESS:     295807  HIT:     239069  MISS:      56738  HIT %:    80.8193  MISS %:    19.1807  MPKI: 1.13476
L2C PREFETCH DATA	ACCESS:     215239  HIT:     136714  MISS:      78525  HIT %:    63.5173  MISS %:    36.4827  MPKI: 1.5705
L2C WRITEBACK DATA	ACCESS:     539311  HIT:     526140  MISS:      13171  HIT %:    97.5578  MISS %:    2.44219  MPKI: 0.26342
L2C LOAD TRANSLATION DATA	ACCESS:       2071  HIT:        537  MISS:       1534  HIT %:    25.9295  MISS %:    74.0705  MPKI: 0.03068
L2C TRANSLATION FROM L1D PREFETCHER DATA	ACCESS:         54  HIT:         42  MISS:         12  HIT %:    77.7778  MISS %:    22.2222  MPKI: 0.00024

L2C PREFETCH  REQUESTED:      95663  ISSUED:      95663  USEFUL:       9018  USELESS:      70038
L2C USEFUL LOAD PREFETCHES:       9018 PREFETCH ISSUED TO LOWER LEVEL:      78895  ACCURACY: 11.4304
 TIMELY PREFETCHES:       9018 LATE PREFETCHES: 370 DROPPED PREFETCHES: 0
L2C AVERAGE MISS LATENCY: 39.3039 cycles
L2C RQ	ACCESS:    3828375	FORWARD:          0	MERGED:          0	TO_CACHE:    3828326
L2C WQ	ACCESS:     539311	FORWARD:         50	MERGED:          0	TO_CACHE:     539311
L2C PQ	ACCESS:     223119	FORWARD:          0	MERGED:       3878	TO_CACHE:     219240

L2C Dense regions hint from L2: 0
PSCL5 TOTAL     ACCESS:       4666  HIT:       2333  MISS:       2333  HIT %:         50  MISS %:         50   MPKI: 0.04666
PSCL5 LOAD TRANSLATION INSTRUCTION	ACCESS:       4558  HIT:       2279  MISS:       2279  HIT %:         50  MISS %:         50  MPKI: 0.04558
PSCL5 TRANSLATION FROM L1D PREFETCHER INSTRUCTION	ACCESS:        108  HIT:         54  MISS:         54  HIT %:         50  MISS %:         50  MPKI: 0.00108


PSCL4 TOTAL     ACCESS:       4370  HIT:       2181  MISS:       2189  HIT %:    49.9085  MISS %:    50.0915   MPKI: 0.04378
PSCL4 LOAD TRANSLATION INSTRUCTION	ACCESS:       3274  HIT:       2145  MISS:       1129  HIT %:    65.5162  MISS %:    34.4838  MPKI: 0.02258
PSCL4 TRANSLATION FROM L1D PREFETCHER INSTRUCTION	ACCESS:         59  HIT:         36  MISS:         23  HIT %:    61.0169  MISS %:    38.9831  MPKI: 0.00046
PSCL4 LOAD TRANSLATION DATA	ACCESS:       1024  HIT:          0  MISS:       1024  HIT %:          0  MISS %:        100  MPKI: 0.02048
PSCL4 TRANSLATION FROM L1D PREFETCHER DATA	ACCESS:         13  HIT:          0  MISS:         13  HIT %:          0  MISS %:        100  MPKI: 0.00026


PSCL3 TOTAL     ACCESS:       4230  HIT:       2106  MISS:       2124  HIT %:    49.7872  MISS %:    50.2128   MPKI: 0.04248
PSCL3 LOAD TRANSLATION INSTRUCTION	ACCESS:       2523  HIT:       2071  MISS:        452  HIT %:    82.0848  MISS %:    17.9152  MPKI: 0.00904
PSCL3 TRANSLATION FROM L1D PREFETCHER INSTRUCTION	ACCESS:         42  HIT:         35  MISS:          7  HIT %:    83.3333  MISS %:    16.6667  MPKI: 0.00014
PSCL3 LOAD TRANSLATION DATA	ACCESS:       1637  HIT:          0  MISS:       1637  HIT %:          0  MISS %:        100  MPKI: 0.03274
PSCL3 TRANSLATION FROM L1D PREFETCHER DATA	ACCESS:         28  HIT:          0  MISS:         28  HIT %:          0  MISS %:        100  MPKI: 0.00056


PSCL2 TOTAL     ACCESS:       4513  HIT:       2180  MISS:       2333  HIT %:    48.3049  MISS %:    51.6951   MPKI: 0.04666
PSCL2 LOAD TRANSLATION INSTRUCTION	ACCESS:       2462  HIT:       2126  MISS:        336  HIT %:    86.3526  MISS %:    13.6474  MPKI: 0.00672
PSCL2 TRANSLATION FROM L1D PREFETCHER INSTRUCTION	ACCESS:         54  HIT:         54  MISS:          0  HIT %:        100  MISS %:          0  MPKI: 0
PSCL2 LOAD TRANSLATION DATA	ACCESS:       1943  HIT:          0  MISS:       1943  HIT %:          0  MISS %:        100  MPKI: 0.03886
PSCL2 TRANSLATION FROM L1D PREFETCHER DATA	ACCESS:         54  HIT:          0  MISS:         54  HIT %:          0  MISS %:        100  MPKI: 0.00108


LLC TOTAL     ACCESS:     547157  HIT:     522334  MISS:      24823  HIT %:    95.4633  MISS %:    4.53672   MPKI: 0.49646
LLC LOAD INSTRUCTION	ACCESS:     247396  HIT:     246656  MISS:        740  HIT %:    99.7009  MISS %:   0.299116  MPKI: 0.0148
LLC LOAD TRANSLATION INSTRUCTION	ACCESS:        284  HIT:        264  MISS:         20  HIT %:    92.9577  MISS %:    7.04225  MPKI: 0.0004
LLC LOAD DATA	ACCESS:      81593  HIT:      78667  MISS:       2926  HIT %:    96.4139  MISS %:    3.58609  MPKI: 0.05852
LLC RFO DATA	ACCESS:      56731  HIT:      44757  MISS:      11974  HIT %:    78.8934  MISS %:    21.1066  MPKI: 0.23948
LLC PREFETCH DATA	ACCESS:      78895  HIT:      69962  MISS:       8933  HIT %:    88.6774  MISS %:    11.3226  MPKI: 0.17866
LLC WRITEBACK DATA	ACCESS:      80712  HIT:      80557  MISS:        155  HIT %:     99.808  MISS %:   0.192041  MPKI: 0.0031
LLC LOAD TRANSLATION DATA	ACCESS:       1534  HIT:       1459  MISS:         75  HIT %:    95.1108  MISS %:    4.88918  MPKI: 0.0015
LLC TRANSLATION FROM L1D PREFETCHER DATA	ACCESS:         12  HIT:         12  MISS:          0  HIT %:        100  MISS %:          0  MPKI: 0

LLC AVERAGE MISS LATENCY: 195.929 cycles
LLC RQ	ACCESS:     387554	FORWARD:          0	MERGED:          0	TO_CACHE:     387550
LLC WQ	ACCESS:      80712	FORWARD:          4	MERGED:          0	TO_CACHE:      80712
LLC PQ	ACCESS:      78895	FORWARD:          0	MERGED:          0	TO_CACHE:      78895

LLC Dense regions hint to LLC: 0

RAW hits: 1931792
Loads Generated: 12587770
Loads sent to L1D: 10655976
Stores Generated: 6899276
Stores sent to L1D: 6899288
Major fault: 0 Minor fault: 2244
Allocated PAGES: 2244

stream: 
stream:times selected: 1254928
stream:pref_filled: 131479
stream:pref_useful: 31250
stream:pref_late: 10715
stream:misses: 10775
stream:misses_by_poll: 0

CS: 
CS:times selected: 198520
CS:pref_filled: 80577
CS:pref_useful: 56619
CS:pref_late: 9555
CS:misses: 26196
CS:misses_by_poll: 4

CPLX: 
CPLX:times selected: 1055326
CPLX:pref_filled: 28392
CPLX:pref_useful: 9445
CPLX:pref_late: 4992
CPLX:misses: 147867
CPLX:misses_by_poll: 1

NL_L1: 
NL:times selected: 21535
NL:pref_filled: 1059
NL:pref_useful: 653
NL:pref_late: 713
NL:misses: 2987
NL:misses_by_poll: 0

total selections: 2530309
total_filled: 111911
total_useful: 54911
total_late: 28798
total_polluted: 5
total_misses_after_warmup: 824463
conflicts: 5495598

test: 122771

DRAM Statistics
 CHANNEL 0
 RQ ROW_BUFFER_HIT:       9175  ROW_BUFFER_MISS:      15481
 DBUS_CONGESTED:          9
 WQ ROW_BUFFER_HIT:       1680  ROW_BUFFER_MISS:      11119  FULL:          0

 AVG_CONGESTED_CYCLE: 4

CPU 0 Branch Prediction Accuracy: 99.8274% MPKI: 0.31662 Average ROB Occupancy at Mispredict: 202.673
Branch types
NOT_BRANCH: 40827532 81.6551%
BRANCH_DIRECT_JUMP: 541789 1.08358%
BRANCH_INDIRECT: 180368 0.360736%
BRANCH_CONDITIONAL: 6223451 12.4469%
BRANCH_DIRECT_CALL: 942516 1.88503%
BRANCH_INDIRECT_CALL: 170854 0.341708%
BRANCH_RETURN: 1113364 2.22673%
BRANCH_OTHER: 0 0%

DRAM PAGES: 1048576
Allocated PAGES: 2244
Average_ROB_Occupancy: 237.336
Average_Decode_Occupancy: 32.9901
Average_FTQ_Occupancy: 12.7172
Indirect max targets: 14 Average targets: 1.14865
Branch_type:  BRANCH_DIRECT_JUMP:  Count Percentage: 2.86204 6.18563 4.88073 8.11617 1.86457 2.74081 0.815904 72.5342 
Branch_type:  BRANCH_INDIRECT:  Count Percentage: 11.7684 3.32375 2.44112 9.68703 3.36066 4.02403 2.03227 63.3627 
Branch_type:  BRANCH_CONDITIONAL:  Count Percentage: 22.401 5.52967 2.24576 4.83256 5.88061 2.72985 0.636041 55.7445 
Branch_type:  BRANCH_DIRECT_CALL:  Count Percentage: 0.778294 1.30272 1.38008 4.2185 2.57512 2.05472 0.684129 87.0064 
Branch_type:  BRANCH_INDIRECT_CALL:  Count Percentage: 9.55813 0.541959 2.99701 4.82498 1.25531 2.97536 0.99208 76.8552 
Branch_type:  BRANCH_RETURN:  Count Percentage: 4.26032 3.76632 1.81321 5.58007 7.86494 4.2566 1.02367 71.4349 
Branch_type:  BRANCH_DIRECT_JUMP:  Total Count: 30974 66943 52821 87836 20179 29662 8830 784990 
Branch_type:  BRANCH_INDIRECT:  Total Count: 42400 11975 8795 34901 12108 14498 7322 228287 
Branch_type:  BRANCH_CONDITIONAL:  Total Count: 2786241 687782 279328 601076 731433 339540 79111 6933525 
Branch_type:  BRANCH_DIRECT_CALL:  Total Count: 14679 24570 26029 79563 48568 38753 12903 1640983 
Branch_type:  BRANCH_INDIRECT_CALL:  Total Count: 32680 1853 10247 16497 4292 10173 3392 262774 
Branch_type:  BRANCH_RETURN:  Total Count: 94952 83942 40412 124366 175290 94869 22815 1592106 
Number of unique branch instructions: 10250
Upper 32 bits: 
aaaa
ffff
ffff0000
Unique upper 32 bits: 3
Unique upper 36 bits: 3
Unique upper 40 bits: 5
Unique upper 44 bits: 32
Unique upper 48 bits: 156
Variant_0 : 1448 0.353516
Variant_1 : 1137 0.277588
Variant_2 : 908 0.22168
Variant_3 : 0 0
Offset_3 4224
Offset_4 255
Offset_5 460
Offset_6 526
Offset_7 610
Offset_8 533
Offset_9 487
Offset_10 402
Offset_11 332
Offset_12 273
Offset_13 211
Offset_14 227
Offset_15 199
Offset_16 231
Offset_17 156
Offset_18 135
Offset_19 242
Offset_20 142
Offset_21 241
Offset_22 401
Offset_23 243
Offset_24 334
Offset_25 88
Offset_47 82
decode_dispatch_called: 25220657 69.6124
Dispatch_width: 0 13449689 53.3281 37.1229
Dispatch_width: 1 948270 3.75989 2.61735
Dispatch_width: 2 823463 3.26503 2.27287
Dispatch_width: 3 504798 2.00153 1.39331
Dispatch_width: 4 5454086 21.6255 15.054
Dispatch_width: 5 168040 0.666279 0.463813
Dispatch_width: 6 3872311 15.3537 10.6881
Empty_decode_cycles: 11009464 30.3876
ROB_full_cycles: 8697159 24.0053
Starvation_cycles_per_kilo_instr: 236.607
Starvation_cycles_per_kilo_instr_3: 180.385
Starvation_cycles_per_kilo_instr_0: 157.62
Branch_type_1  (3,1)  (4,9)  (5,36)  (6,76)  (7,123)  (8,129)  (9,127)  (10,103)  (11,78)  (12,44)  (13,4)  (14,2)  (15,3)  (16,4)  (18,1)  (19,4)  (20,2)  (21,1)  (22,3)  (23,2)  (24,10)  (25,12) 
Branch_type_2  (3,1)  (5,1)  (8,3)  (9,3)  (12,1)  (13,1)  (14,1)  (16,3)  (17,2)  (20,2)  (21,2)  (23,5)  (24,1)  (47,38) 
Branch_type_3  (3,4222)  (4,246)  (5,419)  (6,434)  (7,455)  (8,341)  (9,271)  (10,167)  (11,136)  (12,51)  (13,4) 
Branch_type_4  (6,4)  (7,8)  (8,27)  (9,52)  (10,63)  (11,58)  (12,98)  (13,93)  (14,100)  (15,95)  (16,105)  (17,71)  (18,62)  (19,117)  (20,74)  (21,127)  (22,215)  (23,137)  (24,196)  (25,72) 
Branch_type_5  (8,2)  (9,1)  (10,3)  (11,5)  (12,3)  (13,14)  (14,16)  (15,11)  (16,20)  (17,12)  (18,16)  (19,12)  (20,10)  (21,13)  (22,42)  (23,26)  (24,36) 
Branch_type_6  (5,4)  (6,12)  (7,24)  (8,31)  (9,33)  (10,66)  (11,55)  (12,76)  (13,95)  (14,108)  (15,90)  (16,99)  (17,71)  (18,56)  (19,109)  (20,54)  (21,98)  (22,141)  (23,73)  (24,91)  (25,4)  (47,44) 
Unique trigger count: 
Variant_0_evicts_0 : 0
Variant_0_evicts_1 : 0
Variant_0_evicts_2 : 0
Variant_0_evicts_3 : 0
Variant_1_evicts_0 : 0
Variant_1_evicts_1 : 0
Variant_1_evicts_2 : 0
Variant_1_evicts_3 : 0
Variant_2_evicts_0 : 0
Variant_2_evicts_1 : 0
Variant_2_evicts_2 : 0
Variant_2_evicts_3 : 0
Variant_3_evicts_0 : 0
Variant_3_evicts_1 : 0
Variant_3_evicts_2 : 0
Variant_3_evicts_3 : 0
BTB PER SET UNIQUE ADDR: 21 22 27 27 32 26 30 19 35 24 28 21 21 29 28 26 33 24 33 25 19 21 22 26 29 27 28 33 33 22 28 24 30 27 29 34 22 16 25 22 28 21 25 26 26 29 29 30 21 23 31 31 26 33 31 21 25 28 29 28 29 24 28 21 28 25 29 30 32 28 32 26 26 23 20 27 22 17 27 23 22 27 26 27 28 23 23 26 25 21 26 30 25 22 26 25 28 25 21 26 24 21 25 30 27 25 22 29 24 22 27 27 31 28 28 29 30 21 27 20 37 24 25 30 28 22 31 29 21 32 22 22 24 28 25 30 21 26 32 20 21 25 18 16 16 30 19 29 27 28 21 28 29 26 27 24 30 21 24 32 28 23 22 26 24 31 20 19 19 28 25 30 30 29 23 24 25 24 28 23 30 30 22 27 27 19 22 36 26 31 28 30 25 27 26 25 23 25 25 28 19 27 22 25 25 25 23 24 26 26 29 25 30 26 27 25 27 28 26 26 27 33 26 19 31 23 21 28 25 22 29 29 27 27 28 20 20 24 29 29 24 19 29 25 24 26 30 30 22 22 28 22 29 30 30 27 
BTB PER SET COUNT: 21 28 1511 94 1596 33 31 21 373 25 498 418 23 2655 30 29 2387 1043 2002 25 24 22 23 2510 30 28 2946 1640 2956 1010 29 24 3064 31 8238 39 596 17 1046 26 953 283 27 611 27 1418 29 958 29 26 160 211 1028 1034 34 25 27 490 580 1576 56 25 2060 22 1583 29 32 30 34 1014 34 32 27 23 22 1415 26 20 1950 25 1483 29 36 1030 31 24 949 39 957 26 63 30 29 949 28 1487 32 25 25 39 35 23 853 30 30 25 1184 31 34 24 1493 1360 6582 28 958 37 49 1818 36 951 51 948 25 1467 1127 1025 34 1944 21 1537 22 568 27 496 27 32 21 1004 1032 20 486 28 21 998 18 32 19 37 34 3839 21 34 37 28 1490 2809 1659 23 24 32 297 25 1880 652 29 2806 75 20 21 76 376 962 1422 2235 23 26 27 30 29 25 36 1887 52 923 1027 19 23 42 250 497 3505 4028 14666 109 528 28 23 490 28 2369 944 1527 1410 2039 2219 958 23764 29 953 27 958 126 38 4039 534 28 36 35 489 782 3435 110 954 20 2050 31 947 3326 26 22 896 2044 27 471 29 21 23 26 404 62 952 24 30 25 953 27 35 31 1486 35 1293 25 555 31 33 103 
To predecode: 0
Predecoding something: 0
Predecode request dropped: 0
sizeofblock_0 0
sizeofblock_1 20577
sizeofblock_2 23787
sizeofblock_3 54707
sizeofblock_4 48852
sizeofblock_5 0
sizeofblock_6 0
sizeofblock_7 0
sizeofblock_8 0
Variant_0 Correct: 1607630 Incorrect: 0 Accuracy: 1
Variant_1 Correct: 2078687 Incorrect: 0 Accuracy: 1
Variant_2 Correct: 3627311 Incorrect: 4 Accuracy: 0.999999
Variant_3 Correct: 0 Incorrect: 0 Accuracy: -nan
