
*** ChampSim Multicore Out-of-Order Simulator ***

Warmup Instructions: 50000000
Simulation Instructions: 50000000
Number of CPUs: 1
LLC sets: 2048
LLC ways: 16
Off-chip DRAM Size: 4096 MB Channels: 1 Width: 64-bit Data Rate: 6400 MT/s
CPU 0 runs ./micro_traces/srv163.trace.gz
.gz
ITLB has LRU replacement policy
DTLB has LRU replacement policy
STLB has LRU replacement policy
L1I has LRU replacement policy
L1D has LRU replacement policy
Initialize SRRIP state for L2C
Initialize DRRIP state for LLC
Heartbeat_Variant_0 : 1329 0.324463 per_variant_size: 0 1329 0 0 0 0 0 0 0 
Heartbeat_Variant_1 : 1223 0.298584 per_variant_size: 0 598 625 0 0 0 0 0 0 
Heartbeat_Variant_2 : 1320 0.322266 per_variant_size: 0 545 370 221 184 0 0 0 0 
Heartbeat_Variant_3 : 0 0 per_variant_size: 0 0 0 0 0 0 0 0 0 
Heartbeat_Variant_0_evicts 0 : 5813 1 : 260 2 : 277 3 : 0 
Heartbeat_Variant_1_evicts 0 : 275 1 : 0 2 : 420 3 : 0 
Heartbeat_Variant_2_evicts 0 : 258 1 : 436 2 : 0 3 : 0 
Heartbeat_Variant_3_evicts 0 : 0 1 : 0 2 : 0 3 : 0 
Heartbeat CPU 0 instructions: 10000001 cycles: 2798644 heartbeat IPC: 3.57316 cumulative IPC: 3.57316 (Simulation time: 0 hr 1 min 19 sec) 
Heartbeat_Variant_0 : 1356 0.331055 per_variant_size: 0 1356 0 0 0 0 0 0 0 
Heartbeat_Variant_1 : 1238 0.302246 per_variant_size: 0 578 660 0 0 0 0 0 0 
Heartbeat_Variant_2 : 1336 0.326172 per_variant_size: 0 520 387 230 199 0 0 0 0 
Heartbeat_Variant_3 : 0 0 per_variant_size: 0 0 0 0 0 0 0 0 0 
Heartbeat_Variant_0_evicts 0 : 5760 1 : 105 2 : 86 3 : 0 
Heartbeat_Variant_1_evicts 0 : 102 1 : 0 2 : 289 3 : 0 
Heartbeat_Variant_2_evicts 0 : 79 1 : 289 2 : 0 3 : 0 
Heartbeat_Variant_3_evicts 0 : 0 1 : 0 2 : 0 3 : 0 
Heartbeat CPU 0 instructions: 20000001 cycles: 5595632 heartbeat IPC: 3.57527 cumulative IPC: 3.57422 (Simulation time: 0 hr 2 min 36 sec) 
Heartbeat_Variant_0 : 1384 0.337891 per_variant_size: 0 1384 0 0 0 0 0 0 0 
Heartbeat_Variant_1 : 1303 0.318115 per_variant_size: 0 565 738 0 0 0 0 0 0 
Heartbeat_Variant_2 : 1338 0.32666 per_variant_size: 0 477 375 258 228 0 0 0 0 
Heartbeat_Variant_3 : 0 0 per_variant_size: 0 0 0 0 0 0 0 0 0 
Heartbeat_Variant_0_evicts 0 : 5873 1 : 382 2 : 377 3 : 0 
Heartbeat_Variant_1_evicts 0 : 387 1 : 0 2 : 542 3 : 0 
Heartbeat_Variant_2_evicts 0 : 372 1 : 515 2 : 0 3 : 0 
Heartbeat_Variant_3_evicts 0 : 0 1 : 0 2 : 0 3 : 0 
Heartbeat CPU 0 instructions: 30000003 cycles: 8391708 heartbeat IPC: 3.57644 cumulative IPC: 3.57496 (Simulation time: 0 hr 3 min 54 sec) 
Heartbeat_Variant_0 : 1382 0.337402 per_variant_size: 0 1382 0 0 0 0 0 0 0 
Heartbeat_Variant_1 : 1304 0.318359 per_variant_size: 0 555 749 0 0 0 0 0 0 
Heartbeat_Variant_2 : 1344 0.328125 per_variant_size: 0 486 373 261 224 0 0 0 0 
Heartbeat_Variant_3 : 0 0 per_variant_size: 0 0 0 0 0 0 0 0 0 
Heartbeat_Variant_0_evicts 0 : 5555 1 : 39 2 : 33 3 : 0 
Heartbeat_Variant_1_evicts 0 : 39 1 : 0 2 : 223 3 : 0 
Heartbeat_Variant_2_evicts 0 : 36 1 : 223 2 : 0 3 : 0 
Heartbeat_Variant_3_evicts 0 : 0 1 : 0 2 : 0 3 : 0 
Heartbeat CPU 0 instructions: 40000002 cycles: 11188471 heartbeat IPC: 3.57556 cumulative IPC: 3.57511 (Simulation time: 0 hr 5 min 9 sec) 
Heartbeat_Variant_0 : 1393 0.340088 per_variant_size: 0 1393 0 0 0 0 0 0 0 
Heartbeat_Variant_1 : 1297 0.31665 per_variant_size: 0 538 759 0 0 0 0 0 0 
Heartbeat_Variant_2 : 1353 0.330322 per_variant_size: 0 482 380 261 230 0 0 0 0 
Heartbeat_Variant_3 : 0 0 per_variant_size: 0 0 0 0 0 0 0 0 0 
Heartbeat_Variant_0_evicts 0 : 5727 1 : 154 2 : 136 3 : 0 
Heartbeat_Variant_1_evicts 0 : 142 1 : 0 2 : 337 3 : 0 
Heartbeat_Variant_2_evicts 0 : 139 1 : 338 2 : 0 3 : 0 
Heartbeat_Variant_3_evicts 0 : 0 1 : 0 2 : 0 3 : 0 
Heartbeat CPU 0 instructions: 50000001 cycles: 13985229 heartbeat IPC: 3.57557 cumulative IPC: 3.5752 (Simulation time: 0 hr 6 min 26 sec) 

Warmup complete CPU 0 instructions: 50000001 cycles: 13985229 (Simulation time: 0 hr 6 min 26 sec) 

Cycle: 20000000 FTQ IN: 55066649 FTQ occupancy: 15.5587 DECODE IN: 55066631 DECODE occupancy: 9.41701 ROB IN: 55066631 ROB occupancy: 257.502 ROB OUT: 55066617
Heartbeat_Variant_0 : 1393 0.340088 per_variant_size: 0 1393 0 0 0 0 0 0 0 
Heartbeat_Variant_1 : 1303 0.318115 per_variant_size: 0 556 747 0 0 0 0 0 0 
Heartbeat_Variant_2 : 1349 0.329346 per_variant_size: 0 480 369 276 224 0 0 0 0 
Heartbeat_Variant_3 : 0 0 per_variant_size: 0 0 0 0 0 0 0 0 0 
Heartbeat_Variant_0_evicts 0 : 5594 1 : 42 2 : 38 3 : 0 
Heartbeat_Variant_1_evicts 0 : 45 1 : 0 2 : 241 3 : 0 
Heartbeat_Variant_2_evicts 0 : 35 1 : 239 2 : 0 3 : 0 
Heartbeat_Variant_3_evicts 0 : 0 1 : 0 2 : 0 3 : 0 
Heartbeat CPU 0 instructions: 60000002 cycles: 25813366 heartbeat IPC: 0.845442 cumulative IPC: 0.845442 (Simulation time: 0 hr 7 min 37 sec) 
Cycle: 30000000 FTQ IN: 8497132 FTQ occupancy: 13.8715 DECODE IN: 8497137 DECODE occupancy: 4.66375 ROB IN: 8497137 ROB occupancy: 47.0784 ROB OUT: 8497151
Heartbeat_Variant_0 : 1396 0.34082 per_variant_size: 0 1396 0 0 0 0 0 0 0 
Heartbeat_Variant_1 : 1304 0.318359 per_variant_size: 0 569 735 0 0 0 0 0 0 
Heartbeat_Variant_2 : 1351 0.329834 per_variant_size: 0 492 359 267 233 0 0 0 0 
Heartbeat_Variant_3 : 0 0 per_variant_size: 0 0 0 0 0 0 0 0 0 
Heartbeat_Variant_0_evicts 0 : 5731 1 : 85 2 : 70 3 : 0 
Heartbeat_Variant_1_evicts 0 : 78 1 : 0 2 : 273 3 : 0 
Heartbeat_Variant_2_evicts 0 : 75 1 : 268 2 : 0 3 : 0 
Heartbeat_Variant_3_evicts 0 : 0 1 : 0 2 : 0 3 : 0 
Heartbeat CPU 0 instructions: 70000001 cycles: 37689297 heartbeat IPC: 0.842039 cumulative IPC: 0.843737 (Simulation time: 0 hr 8 min 47 sec) 
Cycle: 40000000 FTQ IN: 8384393 FTQ occupancy: 13.8967 DECODE IN: 8384399 DECODE occupancy: 4.66043 ROB IN: 8384399 ROB occupancy: 49.2408 ROB OUT: 8384383
Heartbeat_Variant_0 : 1397 0.341064 per_variant_size: 0 1397 0 0 0 0 0 0 0 
Heartbeat_Variant_1 : 1311 0.320068 per_variant_size: 0 574 737 0 0 0 0 0 0 
Heartbeat_Variant_2 : 1345 0.328369 per_variant_size: 0 473 380 266 226 0 0 0 0 
Heartbeat_Variant_3 : 0 0 per_variant_size: 0 0 0 0 0 0 0 0 0 
Heartbeat_Variant_0_evicts 0 : 5662 1 : 82 2 : 76 3 : 0 
Heartbeat_Variant_1_evicts 0 : 78 1 : 0 2 : 264 3 : 0 
Heartbeat_Variant_2_evicts 0 : 80 1 : 254 2 : 0 3 : 0 
Heartbeat_Variant_3_evicts 0 : 0 1 : 0 2 : 0 3 : 0 
Heartbeat CPU 0 instructions: 80000003 cycles: 49493456 heartbeat IPC: 0.847159 cumulative IPC: 0.844875 (Simulation time: 0 hr 10 min 0 sec) 
Cycle: 50000000 FTQ IN: 8472069 FTQ occupancy: 13.8484 DECODE IN: 8472058 DECODE occupancy: 4.65848 ROB IN: 8472058 ROB occupancy: 46.8243 ROB OUT: 8472060
Cycle: 60000000 FTQ IN: 8476328 FTQ occupancy: 13.8646 DECODE IN: 8476330 DECODE occupancy: 4.65624 ROB IN: 8476330 ROB occupancy: 46.805 ROB OUT: 8476314
Heartbeat_Variant_0 : 1397 0.341064 per_variant_size: 0 1397 0 0 0 0 0 0 0 
Heartbeat_Variant_1 : 1313 0.320557 per_variant_size: 0 584 729 0 0 0 0 0 0 
Heartbeat_Variant_2 : 1345 0.328369 per_variant_size: 0 467 388 263 227 0 0 0 0 
Heartbeat_Variant_3 : 0 0 per_variant_size: 0 0 0 0 0 0 0 0 0 
Heartbeat_Variant_0_evicts 0 : 5464 1 : 27 2 : 27 3 : 0 
Heartbeat_Variant_1_evicts 0 : 27 1 : 0 2 : 220 3 : 0 
Heartbeat_Variant_2_evicts 0 : 27 1 : 219 2 : 0 3 : 0 
Heartbeat_Variant_3_evicts 0 : 0 1 : 0 2 : 0 3 : 0 
Heartbeat CPU 0 instructions: 90000002 cycles: 61443593 heartbeat IPC: 0.83681 cumulative IPC: 0.842844 (Simulation time: 0 hr 11 min 13 sec) 
Cycle: 70000000 FTQ IN: 8321579 FTQ occupancy: 13.9021 DECODE IN: 8321585 DECODE occupancy: 4.64819 ROB IN: 8321577 ROB occupancy: 49.026 ROB OUT: 8321533
Heartbeat_Variant_0 : 1400 0.341797 per_variant_size: 0 1400 0 0 0 0 0 0 0 
Heartbeat_Variant_1 : 1311 0.320068 per_variant_size: 0 573 738 0 0 0 0 0 0 
Heartbeat_Variant_2 : 1349 0.329346 per_variant_size: 0 468 396 258 227 0 0 0 0 
Heartbeat_Variant_3 : 0 0 per_variant_size: 0 0 0 0 0 0 0 0 0 
Heartbeat_Variant_0_evicts 0 : 5696 1 : 111 2 : 102 3 : 0 
Heartbeat_Variant_1_evicts 0 : 94 1 : 0 2 : 310 3 : 0 
Heartbeat_Variant_2_evicts 0 : 116 1 : 298 2 : 0 3 : 0 
Heartbeat_Variant_3_evicts 0 : 0 1 : 0 2 : 0 3 : 0 
Heartbeat CPU 0 instructions: 100000003 cycles: 73271275 heartbeat IPC: 0.845474 cumulative IPC: 0.843369 (Simulation time: 0 hr 12 min 27 sec) 
Finished CPU 0 instructions: 50000002 cycles: 59286046 cumulative IPC: 0.843369 (Simulation time: 0 hr 12 min 27 sec) 

ChampSim completed all CPUs

Region of Interest Statistics

CPU 0 cumulative IPC: 0.843369 instructions: 50000002 cycles: 59286046
 Fetch stage stalled: 37.5355  Sim cycles: 59286046 fetch stall cycle: 22253321
 Empty decode stage: 70.8744  Sim cycles: 59286046 fetch stall cycle: 42018654
ITLB TOTAL     ACCESS:    7250699  HIT:    6754222  MISS:     496477  HIT %:    93.1527  MISS %:     6.8473   MPKI: 9.92954
ITLB LOAD TRANSLATION INSTRUCTION	ACCESS:    7250699  HIT:    6754222  MISS:     496477  HIT %:    93.1527  MISS %:     6.8473  MPKI: 9.92954

ITLB AVERAGE MISS LATENCY: 9.03766 cycles
ITLB RQ	ACCESS:    8395963	FORWARD:          0	MERGED:     941474	TO_CACHE:    7454489

DTLB TOTAL     ACCESS:   10480513  HIT:   10001601  MISS:     478912  HIT %:    95.4305  MISS %:    4.56955   MPKI: 9.57824
DTLB LOAD TRANSLATION DATA	ACCESS:   10480513  HIT:   10001601  MISS:     478912  HIT %:    95.4305  MISS %:    4.56955  MPKI: 9.57824

DTLB AVERAGE MISS LATENCY: 9.2796 cycles
DTLB RQ	ACCESS:   14552113	FORWARD:          0	MERGED:    4041789	TO_CACHE:   10510324

STLB TOTAL     ACCESS:    1230982  HIT:    1229093  MISS:       1889  HIT %:    99.8465  MISS %:   0.153455   MPKI: 0.03778
STLB LOAD TRANSLATION INSTRUCTION	ACCESS:     496477  HIT:     496259  MISS:        218  HIT %:    99.9561  MISS %:  0.0439094  MPKI: 0.00436
STLB LOAD TRANSLATION DATA	ACCESS:     478910  HIT:     477258  MISS:       1652  HIT %:    99.6551  MISS %:    0.34495  MPKI: 0.03304
STLB TRANSLATION FROM L1D PREFETCHER DATA	ACCESS:     255595  HIT:     255576  MISS:         19  HIT %:    99.9926  MISS %: 0.00743364  MPKI: 0.00038

STLB AVERAGE MISS LATENCY: 69.9714 cycles
STLB RQ	ACCESS:    1347364	FORWARD:          0	MERGED:     116337	TO_CACHE:    1231027

STLB Hit, L1D data hit: 0
STLB Hit, L2C data hit: 0
STLB Hit, LLC data hit: 0
STLB Hit, LLC data miss: 0
STLB STLB hints to L2: 0
L1D TOTAL     ACCESS:   14346605  HIT:   13230709  MISS:    1115896  HIT %:    92.2219  MISS %:    7.77812   MPKI: 22.3179
L1D LOAD DATA	ACCESS:    7687786  HIT:    6953351  MISS:     734435  HIT %:    90.4467  MISS %:    9.55327  MPKI: 14.6887
L1D RFO DATA	ACCESS:    6327922  HIT:    6040072  MISS:     287850  HIT %:    95.4511  MISS %:    4.54889  MPKI: 5.757
L1D PREFETCH DATA	ACCESS:     330897  HIT:     237286  MISS:      93611  HIT %:    71.7099  MISS %:    28.2901  MPKI: 1.87222

L1D PREFETCH  REQUESTED:     744142  ISSUED:     744142  USEFUL:      34240  USELESS:      67676
L1D USEFUL LOAD PREFETCHES:      34240 PREFETCH ISSUED TO LOWER LEVEL:     102044  ACCURACY: 33.5542
 TIMELY PREFETCHES:      34240 LATE PREFETCHES: 8303 DROPPED PREFETCHES: 10
L1D AVERAGE MISS LATENCY: 337707 cycles
L1D RQ	ACCESS:   11481388	FORWARD:          0	MERGED:    3610840	TO_CACHE:    7718605
L1D WQ	ACCESS:    6949899	FORWARD:     152135	MERGED:     116391	TO_CACHE:    6833508
L1D PQ	ACCESS:     372167	FORWARD:          0	MERGED:          0	TO_CACHE:     371975

L1D UNIQUE REGIONS ACCESSED: 0
L1D REGIONS CONFLICTS: 0
L1D Cross Page Prefetch Requests: 6663
L1D Same Page Prefetch Requests: 747529
L1D ROI Sum of L1D PQ occupancy: 4718206
L1D PREFETCHES PUSHED FROM L2C: 0
L1I TOTAL     ACCESS:    7899650  HIT:    5127681  MISS:    2771969  HIT %:    64.9102  MISS %:    35.0898   MPKI: 55.4394
L1I LOAD INSTRUCTION	ACCESS:    7899650  HIT:    5127681  MISS:    2771969  HIT %:    64.9102  MISS %:    35.0898  MPKI: 55.4394

L1I AVERAGE MISS LATENCY: 16.9663 cycles
L1I RQ	ACCESS:   15243310	FORWARD:          0	MERGED:    6847347	TO_CACHE:    8395963

L1BTB TOTAL     ACCESS:    5671439  HIT:    2033318  MISS:    3638121  HIT %:    35.8519  MISS %:    64.1481   MPKI: 72.7624
L1BTB BRANCH_DIRECT_JUMP	ACCESS:     547552  HIT:     143677  MISS:     403875	AVERAGE STALL: 21.2645
L1BTB BRANCH_INDIRECT	ACCESS:     182352  HIT:      65576  MISS:     116776	AVERAGE STALL: 48.0686
L1BTB BRANCH_CONDITIONAL	ACCESS:    2697907  HIT:    1402946  MISS:    1294961	AVERAGE STALL: 25.6847
L1BTB BRANCH_DIRECT_CALL	ACCESS:     949025  HIT:     106962  MISS:     842063	AVERAGE STALL: 30.9479
L1BTB BRANCH_INDIRECT_CALL	ACCESS:     172786  HIT:      21966  MISS:     150820	AVERAGE STALL: 63.5659
L1BTB BRANCH_RETURN	ACCESS:    1121817  HIT:     292191  MISS:     829626	AVERAGE STALL: 32.9228
L1BTB BRANCH_OTHER ACCESS:          0  HIT:          0  MISS:          0	AVERAGE STALL: -nan
L1BTB TOTAL ROB OCCUPANCY AT BTB MISS: 0.535015

L2BTB TOTAL     ACCESS:    3612837  HIT:    3548075  MISS:      64762  HIT %:    98.2074  MISS %:    1.79255   MPKI: 1.29524
L2BTB BRANCH_DIRECT_JUMP	ACCESS:     399772  HIT:     396056  MISS:       3716	AVERAGE STALL: 21.2645
L2BTB BRANCH_INDIRECT	ACCESS:     106482  HIT:     103792  MISS:       2690	AVERAGE STALL: 48.0686
L2BTB BRANCH_CONDITIONAL	ACCESS:    1294961  HIT:    1290731  MISS:       4230	AVERAGE STALL: 25.6847
L2BTB BRANCH_DIRECT_CALL	ACCESS:     842063  HIT:     840671  MISS:       1392	AVERAGE STALL: 30.9479
L2BTB BRANCH_INDIRECT_CALL	ACCESS:     141347  HIT:     131246  MISS:      10101	AVERAGE STALL: 63.5659
L2BTB BRANCH_RETURN	ACCESS:     828212  HIT:     785579  MISS:      42633	AVERAGE STALL: 32.9228
L2BTB BRANCH_OTHER ACCESS:          0  HIT:          0  MISS:          0	AVERAGE STALL: -nan
L2BTB TOTAL ROB OCCUPANCY AT BTB MISS: 30.0554

L2C TOTAL     ACCESS:    4500032  HIT:    4036171  MISS:     463861  HIT %:    89.6921  MISS %:    10.3079   MPKI: 9.27722
L2C LOAD INSTRUCTION	ACCESS:    2771968  HIT:    2512792  MISS:     259176  HIT %:    90.6501  MISS %:    9.34989  MPKI: 5.18352
L2C LOAD TRANSLATION INSTRUCTION	ACCESS:        242  HIT:         56  MISS:        186  HIT %:    23.1405  MISS %:    76.8595  MPKI: 0.00372
L2C LOAD DATA	ACCESS:     726122  HIT:     651082  MISS:      75040  HIT %:    89.6656  MISS %:    10.3344  MPKI: 1.5008
L2C RFO DATA	ACCESS:     287708  HIT:     241235  MISS:      46473  HIT %:    83.8472  MISS %:    16.1528  MPKI: 0.92946
L2C PREFETCH DATA	ACCESS:     190808  HIT:     121054  MISS:      69754  HIT %:    63.4428  MISS %:    36.5572  MPKI: 1.39508
L2C WRITEBACK DATA	ACCESS:     521444  HIT:     509437  MISS:      12007  HIT %:    97.6974  MISS %:    2.30264  MPKI: 0.24014
L2C LOAD TRANSLATION DATA	ACCESS:       1698  HIT:        487  MISS:       1211  HIT %:    28.6808  MISS %:    71.3192  MPKI: 0.02422
L2C TRANSLATION FROM L1D PREFETCHER DATA	ACCESS:         42  HIT:         28  MISS:         14  HIT %:    66.6667  MISS %:    33.3333  MPKI: 0.00028

L2C PREFETCH  REQUESTED:      95917  ISSUED:      95917  USEFUL:       8342  USELESS:      61933
L2C USEFUL LOAD PREFETCHES:       8342 PREFETCH ISSUED TO LOWER LEVEL:      70263  ACCURACY: 11.8725
 TIMELY PREFETCHES:       8342 LATE PREFETCHES: 509 DROPPED PREFETCHES: 0
L2C AVERAGE MISS LATENCY: 38.3665 cycles
L2C RQ	ACCESS:    3787803	FORWARD:          0	MERGED:          0	TO_CACHE:    3787781
L2C WQ	ACCESS:     521444	FORWARD:         22	MERGED:          0	TO_CACHE:     521444
L2C PQ	ACCESS:     197961	FORWARD:          0	MERGED:       3897	TO_CACHE:     194064

L2C Dense regions hint from L2: 0
PSCL5 TOTAL     ACCESS:       3806  HIT:       1903  MISS:       1903  HIT %:         50  MISS %:         50   MPKI: 0.03806
PSCL5 LOAD TRANSLATION INSTRUCTION	ACCESS:       3722  HIT:       1861  MISS:       1861  HIT %:         50  MISS %:         50  MPKI: 0.03722
PSCL5 TRANSLATION FROM L1D PREFETCHER INSTRUCTION	ACCESS:         84  HIT:         42  MISS:         42  HIT %:         50  MISS %:         50  MPKI: 0.00084


PSCL4 TOTAL     ACCESS:       3705  HIT:       1850  MISS:       1855  HIT %:    49.9325  MISS %:    50.0675   MPKI: 0.0371
PSCL4 LOAD TRANSLATION INSTRUCTION	ACCESS:       2139  HIT:       1813  MISS:        326  HIT %:    84.7592  MISS %:    15.2408  MPKI: 0.00652
PSCL4 TRANSLATION FROM L1D PREFETCHER INSTRUCTION	ACCESS:         40  HIT:         37  MISS:          3  HIT %:       92.5  MISS %:        7.5  MPKI: 6e-05
PSCL4 LOAD TRANSLATION DATA	ACCESS:       1492  HIT:          0  MISS:       1492  HIT %:          0  MISS %:        100  MPKI: 0.02984
PSCL4 TRANSLATION FROM L1D PREFETCHER DATA	ACCESS:         34  HIT:          0  MISS:         34  HIT %:          0  MISS %:        100  MPKI: 0.00068


PSCL3 TOTAL     ACCESS:       3761  HIT:       1878  MISS:       1883  HIT %:    49.9335  MISS %:    50.0665   MPKI: 0.03766
PSCL3 LOAD TRANSLATION INSTRUCTION	ACCESS:       2167  HIT:       1841  MISS:        326  HIT %:    84.9562  MISS %:    15.0438  MPKI: 0.00652
PSCL3 TRANSLATION FROM L1D PREFETCHER INSTRUCTION	ACCESS:         40  HIT:         37  MISS:          3  HIT %:       92.5  MISS %:        7.5  MPKI: 6e-05
PSCL3 LOAD TRANSLATION DATA	ACCESS:       1520  HIT:          0  MISS:       1520  HIT %:          0  MISS %:        100  MPKI: 0.0304
PSCL3 TRANSLATION FROM L1D PREFETCHER DATA	ACCESS:         34  HIT:          0  MISS:         34  HIT %:          0  MISS %:        100  MPKI: 0.00068


PSCL2 TOTAL     ACCESS:       3737  HIT:       1834  MISS:       1903  HIT %:    49.0768  MISS %:    50.9232   MPKI: 0.03806
PSCL2 LOAD TRANSLATION INSTRUCTION	ACCESS:       2011  HIT:       1792  MISS:        219  HIT %:    89.1099  MISS %:    10.8901  MPKI: 0.00438
PSCL2 TRANSLATION FROM L1D PREFETCHER INSTRUCTION	ACCESS:         42  HIT:         42  MISS:          0  HIT %:        100  MISS %:          0  MPKI: 0
PSCL2 LOAD TRANSLATION DATA	ACCESS:       1642  HIT:          0  MISS:       1642  HIT %:          0  MISS %:        100  MPKI: 0.03284
PSCL2 TRANSLATION FROM L1D PREFETCHER DATA	ACCESS:         42  HIT:          0  MISS:         42  HIT %:          0  MISS %:        100  MPKI: 0.00084


LLC TOTAL     ACCESS:     520625  HIT:     493297  MISS:      27328  HIT %:    94.7509  MISS %:    5.24908   MPKI: 0.54656
LLC LOAD INSTRUCTION	ACCESS:     259176  HIT:     258503  MISS:        673  HIT %:    99.7403  MISS %:   0.259669  MPKI: 0.01346
LLC LOAD TRANSLATION INSTRUCTION	ACCESS:        186  HIT:        155  MISS:         31  HIT %:    83.3333  MISS %:    16.6667  MPKI: 0.00062
LLC LOAD DATA	ACCESS:      74538  HIT:      71039  MISS:       3499  HIT %:    95.3058  MISS %:    4.69425  MPKI: 0.06998
LLC RFO DATA	ACCESS:      46457  HIT:      33451  MISS:      13006  HIT %:    72.0042  MISS %:    27.9958  MPKI: 0.26012
LLC PREFETCH DATA	ACCESS:      70262  HIT:      60510  MISS:       9752  HIT %:    86.1205  MISS %:    13.8795  MPKI: 0.19504
LLC WRITEBACK DATA	ACCESS:      68781  HIT:      68487  MISS:        294  HIT %:    99.5726  MISS %:   0.427444  MPKI: 0.00588
LLC LOAD TRANSLATION DATA	ACCESS:       1211  HIT:       1138  MISS:         73  HIT %:    93.9719  MISS %:    6.02808  MPKI: 0.00146
LLC TRANSLATION FROM L1D PREFETCHER DATA	ACCESS:         14  HIT:         14  MISS:          0  HIT %:        100  MISS %:          0  MPKI: 0

LLC AVERAGE MISS LATENCY: 153.906 cycles
LLC RQ	ACCESS:     381591	FORWARD:          0	MERGED:          0	TO_CACHE:     381582
LLC WQ	ACCESS:      68781	FORWARD:         10	MERGED:          0	TO_CACHE:      68781
LLC PQ	ACCESS:      70263	FORWARD:          0	MERGED:          0	TO_CACHE:      70262

LLC Dense regions hint to LLC: 0

RAW hits: 1148879
Loads Generated: 12630267
Loads sent to L1D: 11481388
Stores Generated: 6949886
Stores sent to L1D: 6949899
Major fault: 0 Minor fault: 2589
Allocated PAGES: 2589

stream: 
stream:times selected: 1173744
stream:pref_filled: 121500
stream:pref_useful: 25246
stream:pref_late: 6168
stream:misses: 7360
stream:misses_by_poll: 0

CS: 
CS:times selected: 177876
CS:pref_filled: 58495
CS:pref_useful: 35842
CS:pref_late: 7098
CS:misses: 16516
CS:misses_by_poll: 2

CPLX: 
CPLX:times selected: 994814
CPLX:pref_filled: 21858
CPLX:pref_useful: 5049
CPLX:pref_late: 3107
CPLX:misses: 92026
CPLX:misses_by_poll: 0

NL_L1: 
NL:times selected: 19333
NL:pref_filled: 590
NL:pref_useful: 292
NL:pref_late: 329
NL:misses: 1395
NL:misses_by_poll: 0

total selections: 2365767
total_filled: 93611
total_useful: 34240
total_late: 18025
total_polluted: 2
total_misses_after_warmup: 765252
conflicts: 6043572

test: 116074

DRAM Statistics
 CHANNEL 0
 RQ ROW_BUFFER_HIT:      10070  ROW_BUFFER_MISS:      16964
 DBUS_CONGESTED:          7
 WQ ROW_BUFFER_HIT:       1272  ROW_BUFFER_MISS:      11531  FULL:          0

 AVG_CONGESTED_CYCLE: 4

CPU 0 Branch Prediction Accuracy: 99.8272% MPKI: 0.3162 Average ROB Occupancy at Mispredict: 68.6052
Branch types
NOT_BRANCH: 40848026 81.696%
BRANCH_DIRECT_JUMP: 547552 1.0951%
BRANCH_INDIRECT: 182352 0.364704%
BRANCH_CONDITIONAL: 6178092 12.3562%
BRANCH_DIRECT_CALL: 949025 1.89805%
BRANCH_INDIRECT_CALL: 172786 0.345572%
BRANCH_RETURN: 1121817 2.24363%
BRANCH_OTHER: 0 0%

DRAM PAGES: 1048576
Allocated PAGES: 2589
Average_ROB_Occupancy: 48.4886
Average_Decode_Occupancy: 4.65402
Average_FTQ_Occupancy: 13.8622
Indirect max targets: 14 Average targets: 1.17778
Branch_type:  BRANCH_DIRECT_JUMP:  Count Percentage: 4.12616 5.68841 3.63391 2.28158 8.16701 6.32443 1.45656 68.3219 
Branch_type:  BRANCH_INDIRECT:  Count Percentage: 11.7649 3.39009 2.49567 13.3009 3.35471 2.81794 0.939132 61.9366 
Branch_type:  BRANCH_CONDITIONAL:  Count Percentage: 25.7841 2.25495 2.06737 3.01979 3.25032 4.63142 3.73058 55.2615 
Branch_type:  BRANCH_DIRECT_CALL:  Count Percentage: 0.386717 1.80401 0.716855 1.46601 5.2319 2.60505 1.0282 86.7613 
Branch_type:  BRANCH_INDIRECT_CALL:  Count Percentage: 9.53175 0 2.98761 0.000869923 1.36056 1.70998 0.992872 83.4164 
Branch_type:  BRANCH_RETURN:  Count Percentage: 7.49508 2.02348 2.23353 3.08556 3.44563 5.11457 3.61051 72.9916 
Branch_type:  BRANCH_DIRECT_JUMP:  Total Count: 45172 62275 39783 24978 89410 69238 15946 747968 
Branch_type:  BRANCH_INDIRECT:  Total Count: 42894 12360 9099 48494 12231 10274 3424 225816 
Branch_type:  BRANCH_CONDITIONAL:  Total Count: 3184467 278498 255331 372960 401432 572005 460747 6825090 
Branch_type:  BRANCH_DIRECT_CALL:  Total Count: 7327 34180 13582 27776 99127 49357 19481 1643836 
Branch_type:  BRANCH_INDIRECT_CALL:  Total Count: 32871 0 10303 3 4692 5897 3424 287668 
Branch_type:  BRANCH_RETURN:  Total Count: 167920 45334 50040 69129 77196 114587 80890 1635306 
Number of unique branch instructions: 10811
Upper 32 bits: 
aaaa
ffff
ffff0000
Unique upper 32 bits: 3
Unique upper 36 bits: 3
Unique upper 40 bits: 5
Unique upper 44 bits: 32
Unique upper 48 bits: 158
Variant_0 : 1400 0.341797
Variant_1 : 1311 0.320068
Variant_2 : 1349 0.329346
Variant_3 : 0 0
Offset_3 4470
Offset_4 255
Offset_5 484
Offset_6 541
Offset_7 643
Offset_8 577
Offset_9 523
Offset_10 426
Offset_11 360
Offset_12 327
Offset_13 240
Offset_14 247
Offset_15 194
Offset_16 233
Offset_17 169
Offset_18 149
Offset_19 257
Offset_20 143
Offset_21 235
Offset_22 413
Offset_23 241
Offset_24 351
Offset_25 117
Offset_47 94
Offset_64 2
decode_dispatch_called: 30683470 51.755
Dispatch_width: 0 18563250 60.4992 31.3113
Dispatch_width: 1 2325678 7.57958 3.92281
Dispatch_width: 2 1143188 3.72575 1.92826
Dispatch_width: 3 1087362 3.5438 1.83409
Dispatch_width: 4 1003326 3.26992 1.69235
Dispatch_width: 5 1251774 4.07964 2.11141
Dispatch_width: 6 5308892 17.3021 8.95471
Empty_decode_cycles: 28602576 48.245
ROB_full_cycles: 462385 0.779922
Starvation_cycles_per_kilo_instr: 535.148
Starvation_cycles_per_kilo_instr_3: 512.597
Starvation_cycles_per_kilo_instr_0: 467.034
Branch_type_1  (3,1)  (4,9)  (5,39)  (6,74)  (7,126)  (8,148)  (9,136)  (10,110)  (11,78)  (12,55)  (13,11)  (14,2)  (15,3)  (16,4)  (18,1)  (19,5)  (20,2)  (21,1)  (22,3)  (23,2)  (24,10)  (25,12) 
Branch_type_2  (3,1)  (4,1)  (5,1)  (8,4)  (9,4)  (10,1)  (12,1)  (13,1)  (14,1)  (16,3)  (17,2)  (20,2)  (21,2)  (23,5)  (24,1)  (47,43) 
Branch_type_3  (3,4468)  (4,245)  (5,440)  (6,451)  (7,487)  (8,360)  (9,288)  (10,172)  (11,146)  (12,62)  (13,10)  (64,2) 
Branch_type_4  (6,3)  (7,8)  (8,25)  (9,56)  (10,68)  (11,70)  (12,117)  (13,102)  (14,112)  (15,92)  (16,102)  (17,79)  (18,65)  (19,125)  (20,73)  (21,124)  (22,219)  (23,136)  (24,206)  (25,101) 
Branch_type_5  (8,3)  (9,1)  (10,4)  (11,5)  (12,3)  (13,14)  (14,16)  (15,11)  (16,22)  (17,11)  (18,23)  (19,14)  (20,11)  (21,13)  (22,43)  (23,26)  (24,38) 
Branch_type_6  (5,4)  (6,13)  (7,22)  (8,37)  (9,38)  (10,71)  (11,61)  (12,89)  (13,102)  (14,116)  (15,88)  (16,102)  (17,77)  (18,60)  (19,113)  (20,55)  (21,95)  (22,148)  (23,72)  (24,96)  (25,4)  (47,51) 
Unique trigger count: 
Variant_0_evicts_0 : 0
Variant_0_evicts_1 : 0
Variant_0_evicts_2 : 0
Variant_0_evicts_3 : 0
Variant_1_evicts_0 : 0
Variant_1_evicts_1 : 0
Variant_1_evicts_2 : 0
Variant_1_evicts_3 : 0
Variant_2_evicts_0 : 0
Variant_2_evicts_1 : 0
Variant_2_evicts_2 : 0
Variant_2_evicts_3 : 0
Variant_3_evicts_0 : 0
Variant_3_evicts_1 : 0
Variant_3_evicts_2 : 0
Variant_3_evicts_3 : 0
BTB PER SET UNIQUE ADDR: 12 15 9 16 13 15 11 13 15 11 13 16 16 14 13 11 12 11 12 14 10 11 14 14 13 16 12 8 16 11 11 16 14 7 10 15 10 17 8 13 8 5 9 19 6 12 11 11 14 11 14 12 13 18 15 6 13 12 10 10 10 17 9 15 13 17 13 10 10 11 11 14 16 12 9 6 8 13 10 20 16 9 10 14 13 15 13 7 9 19 5 8 12 11 7 14 11 8 14 16 19 21 17 11 16 13 13 15 8 5 8 16 15 13 10 7 16 10 10 8 13 12 11 16 14 15 5 13 17 11 7 18 16 15 12 9 9 10 12 19 7 19 11 11 11 10 9 8 6 14 14 16 12 9 8 18 14 14 13 9 11 13 16 16 11 15 11 9 12 11 15 8 10 9 12 8 15 12 12 17 10 14 15 18 17 16 4 12 14 13 15 10 10 11 16 13 8 14 8 13 8 14 11 10 10 9 14 13 10 11 11 17 13 16 9 14 15 18 14 19 10 15 8 12 10 11 20 11 8 15 9 8 12 15 15 14 12 15 11 9 19 9 15 16 13 16 13 12 16 12 14 12 11 11 17 13 10 8 11 15 12 15 6 13 13 11 14 11 9 14 11 13 11 9 9 11 9 14 13 13 10 15 6 11 14 8 12 18 20 16 12 7 14 16 10 14 16 12 15 12 11 9 11 22 8 16 15 12 19 11 12 16 9 17 13 9 15 13 14 18 10 15 13 11 12 14 12 11 13 11 14 17 10 13 9 13 9 8 8 20 15 17 11 18 10 19 15 13 14 11 15 15 11 11 12 19 13 12 12 10 14 18 5 16 13 12 8 12 12 11 15 8 10 13 11 13 15 14 14 16 17 14 8 11 12 13 12 17 13 10 16 15 11 16 13 11 15 10 15 13 13 17 7 13 19 13 16 19 12 15 14 11 11 12 11 10 15 12 15 18 11 15 7 13 16 8 13 11 7 12 12 11 11 12 11 15 17 11 11 9 13 9 11 14 22 9 10 12 14 15 16 10 18 11 14 17 18 15 12 16 9 14 15 10 21 11 9 8 13 14 13 16 11 14 12 21 11 16 9 14 18 14 14 16 8 17 16 15 16 14 9 13 9 11 11 13 16 19 12 13 12 11 12 15 10 9 13 12 16 14 13 18 15 14 17 12 12 21 10 9 10 11 15 8 12 18 23 11 6 18 19 15 16 14 11 15 13 10 8 12 17 8 14 12 19 17 12 15 11 9 21 14 15 12 11 13 13 10 18 14 11 17 11 11 13 17 13 17 17 12 12 13 15 17 12 17 22 16 8 11 17 11 9 11 15 15 16 11 18 19 10 13 13 13 18 11 10 15 10 8 14 14 8 11 12 18 19 7 14 13 14 12 12 10 6 14 12 15 12 11 16 19 10 13 12 17 10 20 9 14 14 16 19 11 15 13 14 22 10 15 9 14 8 16 13 12 10 18 21 9 8 18 10 10 12 18 10 13 12 10 14 10 13 13 13 15 14 14 11 11 13 12 9 14 17 13 11 20 14 19 11 15 12 10 20 15 12 14 11 14 13 14 15 9 9 14 10 18 15 13 9 12 12 17 8 14 12 7 16 11 11 14 7 10 10 10 18 12 12 12 16 9 11 17 6 10 16 15 11 8 14 9 15 11 9 14 13 16 15 14 10 10 15 8 23 20 13 15 11 9 12 14 12 15 12 14 16 10 11 9 12 11 9 12 20 17 12 12 15 22 12 10 8 8 6 9 12 10 17 14 8 14 13 10 12 8 9 10 12 9 10 8 17 10 16 16 10 12 14 11 20 14 21 15 20 8 13 10 14 11 11 14 12 20 9 14 18 12 7 12 12 19 8 14 14 13 12 12 13 11 13 18 13 14 7 18 9 10 12 12 16 14 11 14 11 16 11 14 12 8 11 14 10 14 11 21 12 9 12 17 13 9 12 10 18 12 16 11 16 12 13 14 16 11 13 7 10 10 12 11 17 9 13 16 13 12 17 10 15 13 18 16 12 11 13 11 16 12 12 10 15 10 16 14 8 11 8 14 12 14 7 15 10 11 17 15 21 16 15 11 14 12 15 13 14 11 8 15 13 10 15 17 19 15 15 20 14 12 12 16 8 13 10 13 14 15 12 13 9 12 18 13 8 11 9 14 9 14 15 13 11 15 12 17 17 10 18 17 9 19 15 14 15 12 18 12 17 11 17 18 13 16 12 15 12 20 16 11 16 17 12 11 12 14 13 11 11 14 17 13 18 14 12 14 16 13 12 17 9 16 9 13 12 6 10 12 8 9 10 12 12 13 16 8 
BTB PER SET COUNT: 14 19 1934 19 614 21 1010 286 802 14 15 1362 27 28 13 18 1128 1872 16 19 11 12 752 15 23 24 15 11 20 12 14 444 23 8 14 499 10 28 8 552 9 5 10 581 1477 17 14 11 136 11 15 482 18 23 277 6 18 24 21 11 11 41 29 17 22 34 16 13 17 15 1488 377 30 17 14 6 13 974 14 28 265 12 12 533 18 45 15 11 12 24 5 810 21 101 8 20 729 13 17 26 34 179 23 13 24 16 23 21 965 5 11 28 382 19 15 1090 18 20 1484 15 1005 14 13 20 16 121 6 17 34 969 8 5946 23 30 110 9 1006 19 12 37 12 29 13 13 12 12 11 727 6 25 20 267 1051 14 9 29 23 18 22 9 14 21 27 25 1486 26 16 11 24 1667 26 8 13 11 16 15 17 14 15 26 252 147 870 20 495 20 6 19 944 27 20 10 10 16 20 14 12 498 12 23 9 118 1005 15 11 12 19 76 15 12 14 188 15 224 14 956 24 26 1487 33 17 25 15 12 20 28 32 17 8 20 15 11 16 20 771 206 17 25 170 17 27 12 23 513 16 460 814 20 275 20 19 16 12 15 39 13 14 16 12 17 1005 19 6 146 17 15 21 13 2035 18 11 17 12 11 263 11 11 15 16 967 11 26 12 17 23 9 13 812 28 25 24 12 20 18 13 22 1483 15 18 272 12 9 14 35 8 81 171 17 215 962 14 19 10 25 794 77 19 18 19 28 11 2962 17 23 15 19 18 19 15 12 18 26 17 13 10 23 14 965 11 29 15 2322 18 27 13 29 17 23 16 22 26 120 20 15 13 33 20 15 404 21 22 24 7 19 15 14 9 23 17 14 18 12 16 18 1006 20 28 24 17 48 422 15 14 16 14 14 16 25 21 11 26 22 13 383 22 51 22 17 19 15 14 21 13 15 31 18 22 30 14 27 16 11 16 18 12 18 23 14188 19 27 11 26 8 16 26 8 22 15 11 20 63 17 18 23 490 24 22 257 11 13 14 11 17 20 641 9 140 18 18 22 140 12 33 12 17 1490 32 26 20 20 37 37 19 13 26 17 9 10 13 25 19 27 12 23 15 24 17 26 12 18 26 28 17 24 692 95 23 19 21 92 674 15 4008 25 12 17 740 25 16 16 12 11 14 48 11 9 15 12 22 19 15 29 21 501 22 17 27 39 13 69 11 18 21 8 14 34 37 229 7 37 27 29 22 23 19 20 14 13 9 422 35 9 15 16 26 18 12 20 19 667 34 20 541 21 18 14 24 10 33 23 13 25 15 15 18 28 156 26 24 69 18 24 18 21 2478 20 33 24 9 18 24 14 18 4211 24 19 720 14 34 33 17 19 14 15 36 17 1867 417 252 8 16 23 8 14 14 29 34 10 14 20 27 1433 19 10 7 23 13 22 13 54 17 25 10 19 21 38 13 31 12 18 15 24 28 166 19 19 21 41 14 440 13 15 8 19 14 78 734 31 292 9 12 23 11 12 18 521 10 121 851 1005 125 12 19 21 6796 19 17 492 1488 21 16 16 1001 14 31 500 18 46 26 30 13 24 710 23 36 20 12 18 89 22 18 24 19 13 797 26 10 2399 31 16 755 15 1490 21 10 21 18 10 52 16 379 24 1013 11 12 131 161 14 16 17 281 12 16 1497 7 14 26 15 255 8 172 14532 21 14 11 15 972 22 413 16 39 13 508 9 257 31 19 19 22 16 1487 24 13 1760 14 18 29 1482 13 9 18 11 9 378 716 30 17 1415 23 37 74 14 8 8 9 12 18 10 20 17 1416 24 835 11 17 8 14 12 14 14 14 13 18 13 150 22 11 19 20 12 34 19 34 21 546 11 16 13 22 21 14 3794 22 26 18 750 31 85 7 87 22 29 10 18 24 22 16 18 18 17 16 44 22 15 524 27 10 942 55 12 21 1007 11 23 1385 20 17 18 15 11 19 1127 20 18 699 24 20 20 19 18 285 13 16 17 72 16 32 14 22 15 497 39 25 15 24 8 14 10 2154 15 25 9 111 23 354 435 23 12 19 402 34 259 88 17 16 14 18 15 23 13 24 15 43 46 9 12 9 24 17 106 484 501 19 13 25 277 26 131 31 37 22 16 19 1276 20 15 9 25 16 21 51 23 38 20 68 70 24 18 501 22 8 26 11 16 21 21 17 16 9 14 411 646 47 1487 12 19 74 19 17 19 13 28 31 24 38 16 458 19 57 25 82 18 21 23 1165 16 22 18 32 22 22 23 14 892 14 1451 29 14 29 27 17 19 16 911 17 20 12 1490 27 19 27 894 16 26 30 15 30 33 10 1014 9 449 18 7 15 13 13 10 13 15 13 70 23 11 
To predecode: 0
Predecoding something: 0
Predecode request dropped: 0
sizeofblock_0 0
sizeofblock_1 32799
sizeofblock_2 43232
sizeofblock_3 42520
sizeofblock_4 21834
sizeofblock_5 0
sizeofblock_6 0
sizeofblock_7 0
sizeofblock_8 0
Variant_0 Correct: 1615388 Incorrect: 0 Accuracy: 1
Variant_1 Correct: 2092467 Incorrect: 0 Accuracy: 1
Variant_2 Correct: 3654380 Incorrect: 0 Accuracy: 1
Variant_3 Correct: 0 Incorrect: 0 Accuracy: -nan
