
*** ChampSim Multicore Out-of-Order Simulator ***

Warmup Instructions: 50000000
Simulation Instructions: 50000000
Number of CPUs: 1
LLC sets: 2048
LLC ways: 16
Off-chip DRAM Size: 4096 MB Channels: 1 Width: 64-bit Data Rate: 6400 MT/s
CPU 0 runs ./micro_traces/srv109.trace.gz
.gz
ITLB has LRU replacement policy
DTLB has LRU replacement policy
STLB has LRU replacement policy
FDIP Prefetcher at L1I
L1I has LRU replacement policy
L1D has LRU replacement policy
Initialize SRRIP state for L2C
Initialize DRRIP state for LLC
Heartbeat CPU 0 instructions: 10000001 cycles: 2798198 heartbeat IPC: 3.57373 cumulative IPC: 3.57373 (Simulation time: 0 hr 1 min 58 sec) 
Heartbeat CPU 0 instructions: 20000003 cycles: 5594354 heartbeat IPC: 3.57634 cumulative IPC: 3.57503 (Simulation time: 0 hr 3 min 37 sec) 
Heartbeat CPU 0 instructions: 30000001 cycles: 8391888 heartbeat IPC: 3.57458 cumulative IPC: 3.57488 (Simulation time: 0 hr 5 min 22 sec) 
Heartbeat CPU 0 instructions: 40000001 cycles: 11188999 heartbeat IPC: 3.57512 cumulative IPC: 3.57494 (Simulation time: 0 hr 6 min 59 sec) 
Heartbeat CPU 0 instructions: 50000000 cycles: 13986932 heartbeat IPC: 3.57407 cumulative IPC: 3.57477 (Simulation time: 0 hr 8 min 38 sec) 

Warmup complete CPU 0 instructions: 50000004 cycles: 13986933 (Simulation time: 0 hr 8 min 38 sec) 

Cycle: 20000000 FTQ IN: 54933653 FTQ occupancy: 15.4762 DECODE IN: 54933635 DECODE occupancy: 9.33418 ROB IN: 54933628 ROB occupancy: 257.814 ROB OUT: 54933615
Heartbeat CPU 0 instructions: 60000000 cycles: 26141122 heartbeat IPC: 0.822762 cumulative IPC: 0.822761 (Simulation time: 0 hr 10 min 25 sec) 
Cycle: 30000000 FTQ IN: 8256746 FTQ occupancy: 13.5569 DECODE IN: 8256754 DECODE occupancy: 4.40927 ROB IN: 8256761 ROB occupancy: 47.9337 ROB OUT: 8256728
Heartbeat CPU 0 instructions: 70000001 cycles: 38386091 heartbeat IPC: 0.816662 cumulative IPC: 0.8197 (Simulation time: 0 hr 12 min 1 sec) 
Cycle: 40000000 FTQ IN: 8139413 FTQ occupancy: 13.523 DECODE IN: 8139415 DECODE occupancy: 4.4034 ROB IN: 8139403 ROB occupancy: 49.5029 ROB OUT: 8139440
Cycle: 50000000 FTQ IN: 8255328 FTQ occupancy: 13.4806 DECODE IN: 8255318 DECODE occupancy: 4.39679 ROB IN: 8255318 ROB occupancy: 48.1331 ROB OUT: 8255215
Heartbeat CPU 0 instructions: 80000002 cycles: 50501919 heartbeat IPC: 0.825367 cumulative IPC: 0.82158 (Simulation time: 0 hr 13 min 50 sec) 
Cycle: 60000000 FTQ IN: 8171347 FTQ occupancy: 13.5356 DECODE IN: 8171349 DECODE occupancy: 4.43064 ROB IN: 8171353 ROB occupancy: 50.4727 ROB OUT: 8171351
Heartbeat CPU 0 instructions: 90000003 cycles: 62747758 heartbeat IPC: 0.816604 cumulative IPC: 0.820331 (Simulation time: 0 hr 15 min 27 sec) 
Cycle: 70000000 FTQ IN: 8207212 FTQ occupancy: 13.4929 DECODE IN: 8207210 DECODE occupancy: 4.38273 ROB IN: 8207217 ROB occupancy: 47.865 ROB OUT: 8207299
Heartbeat CPU 0 instructions: 100000001 cycles: 74919402 heartbeat IPC: 0.821582 cumulative IPC: 0.820581 (Simulation time: 0 hr 17 min 28 sec) 
Finished CPU 0 instructions: 50000001 cycles: 60932470 cumulative IPC: 0.820581 (Simulation time: 0 hr 17 min 28 sec) 

ChampSim completed all CPUs

Region of Interest Statistics

CPU 0 cumulative IPC: 0.820581 instructions: 50000001 cycles: 60932470
 Fetch stage stalled: 35.7203  Sim cycles: 60932470 fetch stall cycle: 21765236
 Empty decode stage: 68.2889  Sim cycles: 60932470 fetch stall cycle: 41610124
ITLB TOTAL     ACCESS:    7202258  HIT:    6707740  MISS:     494518  HIT %:    93.1338  MISS %:    6.86615   MPKI: 9.89036
ITLB LOAD TRANSLATION INSTRUCTION	ACCESS:    7202258  HIT:    6707740  MISS:     494518  HIT %:    93.1338  MISS %:    6.86615  MPKI: 9.89036

ITLB AVERAGE MISS LATENCY: 9.04674 cycles
ITLB RQ	ACCESS:    8285011	FORWARD:          0	MERGED:     878676	TO_CACHE:    7406335

DTLB TOTAL     ACCESS:   10417820  HIT:    9942012  MISS:     475808  HIT %:    95.4327  MISS %:    4.56725   MPKI: 9.51616
DTLB LOAD TRANSLATION DATA	ACCESS:   10417820  HIT:    9942012  MISS:     475808  HIT %:    95.4327  MISS %:    4.56725  MPKI: 9.51616

DTLB AVERAGE MISS LATENCY: 9.30816 cycles
DTLB RQ	ACCESS:   14512118	FORWARD:          0	MERGED:    4064891	TO_CACHE:   10447227

STLB TOTAL     ACCESS:    1229555  HIT:    1227365  MISS:       2190  HIT %:    99.8219  MISS %:   0.178113   MPKI: 0.0438
STLB LOAD TRANSLATION INSTRUCTION	ACCESS:     494518  HIT:     494246  MISS:        272  HIT %:     99.945  MISS %:  0.0550031  MPKI: 0.00544
STLB LOAD TRANSLATION DATA	ACCESS:     475791  HIT:     473897  MISS:       1894  HIT %:    99.6019  MISS %:   0.398074  MPKI: 0.03788
STLB TRANSLATION FROM L1D PREFETCHER DATA	ACCESS:     259246  HIT:     259222  MISS:         24  HIT %:    99.9907  MISS %: 0.00925762  MPKI: 0.00048

STLB AVERAGE MISS LATENCY: 69.0904 cycles
STLB RQ	ACCESS:    1344760	FORWARD:          0	MERGED:     115161	TO_CACHE:    1229599

STLB Hit, L1D data hit: 0
STLB Hit, L2C data hit: 0
STLB Hit, LLC data hit: 0
STLB Hit, LLC data miss: 0
STLB STLB hints to L2: 0
L1D TOTAL     ACCESS:   14309194  HIT:   13197148  MISS:    1112046  HIT %:    92.2285  MISS %:    7.77155   MPKI: 22.2409
L1D LOAD DATA	ACCESS:    7652048  HIT:    6920931  MISS:     731117  HIT %:    90.4455  MISS %:    9.55453  MPKI: 14.6223
L1D RFO DATA	ACCESS:    6320335  HIT:    6032921  MISS:     287414  HIT %:    95.4526  MISS %:    4.54745  MPKI: 5.74828
L1D PREFETCH DATA	ACCESS:     336811  HIT:     243296  MISS:      93515  HIT %:    72.2352  MISS %:    27.7648  MPKI: 1.8703

L1D PREFETCH  REQUESTED:     748949  ISSUED:     748949  USEFUL:      34363  USELESS:      68051
L1D USEFUL LOAD PREFETCHES:      34363 PREFETCH ISSUED TO LOWER LEVEL:     102456  ACCURACY: 33.5393
 TIMELY PREFETCHES:      34363 LATE PREFETCHES: 8908 DROPPED PREFETCHES: 6
L1D AVERAGE MISS LATENCY: 358895 cycles
L1D RQ	ACCESS:   11461117	FORWARD:          0	MERGED:    3617674	TO_CACHE:    7683861
L1D WQ	ACCESS:    6947098	FORWARD:     159661	MERGED:     118841	TO_CACHE:    6828257
L1D PQ	ACCESS:     374514	FORWARD:          0	MERGED:          0	TO_CACHE:     374435

L1D UNIQUE REGIONS ACCESSED: 0
L1D REGIONS CONFLICTS: 0
L1D Cross Page Prefetch Requests: 5924
L1D Same Page Prefetch Requests: 751767
L1D ROI Sum of L1D PQ occupancy: 4759181
L1D PREFETCHES PUSHED FROM L2C: 0
L1I TOTAL     ACCESS:    7880982  HIT:    5115933  MISS:    2765049  HIT %:    64.9149  MISS %:    35.0851   MPKI: 55.301
L1I LOAD INSTRUCTION	ACCESS:    7880982  HIT:    5115933  MISS:    2765049  HIT %:    64.9149  MISS %:    35.0851  MPKI: 55.301

L1I AVERAGE MISS LATENCY: 17.2011 cycles
L1I RQ	ACCESS:   15503443	FORWARD:          0	MERGED:    7218432	TO_CACHE:    8285011

L1BTB TOTAL     ACCESS:    5674731  HIT:    2045962  MISS:    3628769  HIT %:    36.0539  MISS %:    63.9461   MPKI: 72.5754
L1BTB BRANCH_DIRECT_JUMP	ACCESS:     549428 HIT:     144980 MISS:     404448 AVERAGE STALL: 25.6406 AVERAGE FETCH STALL: 16.7631 AVERAGE FETCH QUEUE STALL: 3.09395 AVERAGE DECODE STALL: 4.78351 AVERAGE EXECUTE STALL: 3.50459e+14
L1BTB BRANCH_INDIRECT	ACCESS:     183349 HIT:      66342 MISS:     117007 AVERAGE STALL: 54.493 AVERAGE FETCH STALL: 12.7552 AVERAGE FETCH QUEUE STALL: 4.77276 AVERAGE DECODE STALL: 4.24218 AVERAGE EXECUTE STALL: 31.7228
L1BTB BRANCH_CONDITIONAL	ACCESS:    2713965 HIT:    1420348 MISS:    1293617 AVERAGE STALL: 26.7368 AVERAGE FETCH STALL: 18.1466 AVERAGE FETCH QUEUE STALL: 3.25101 AVERAGE DECODE STALL: 4.33855 AVERAGE EXECUTE STALL: 1.29746e+14
L1BTB BRANCH_DIRECT_CALL	ACCESS:     942888 HIT:     104285 MISS:     838603 AVERAGE STALL: 28.5681 AVERAGE FETCH STALL: 19.2069 AVERAGE FETCH QUEUE STALL: 3.62494 AVERAGE DECODE STALL: 4.73631 AVERAGE EXECUTE STALL: 1.61372e+14
L1BTB BRANCH_INDIRECT_CALL	ACCESS:     171110 HIT:      20855 MISS:     150255 AVERAGE STALL: 69.4989 AVERAGE FETCH STALL: 13.3783 AVERAGE FETCH QUEUE STALL: 3.11925 AVERAGE DECODE STALL: 4.72629 AVERAGE EXECUTE STALL: 47.2751
L1BTB BRANCH_RETURN	ACCESS:    1113991 HIT:     289152 MISS:     824839 AVERAGE STALL: 29.151 AVERAGE FETCH STALL: 15.6307 AVERAGE FETCH QUEUE STALL: 3.57591 AVERAGE DECODE STALL: 4.49823 AVERAGE EXECUTE STALL: 1.80428e+14
L1BTB BRANCH_OTHER ACCESS:          0 HIT:          0 MISS:          0 AVERAGE STALL: -nan AVERAGE FETCH STALL: -nan AVERAGE FETCH QUEUE STALL: -nan AVERAGE DECODE STALL: -nan AVERAGE EXECUTE STALL: -nan
L1BTB TOTAL ROB OCCUPANCY AT BTB MISS: 4.56083

L2BTB TOTAL     ACCESS:    3603218  HIT:    3170060  MISS:     433158  HIT %:    87.9786  MISS %:    12.0214   MPKI: 8.66316
L2BTB BRANCH_DIRECT_JUMP	ACCESS:     400231 HIT:     351800 MISS:      48431 AVERAGE STALL: 25.6406 AVERAGE FETCH STALL: 16.7631 AVERAGE FETCH QUEUE STALL: 3.09395 AVERAGE DECODE STALL: 4.78351 AVERAGE EXECUTE STALL: 3.50459e+14
L2BTB BRANCH_INDIRECT	ACCESS:     106711 HIT:     101475 MISS:       5236 AVERAGE STALL: 54.493 AVERAGE FETCH STALL: 12.7552 AVERAGE FETCH QUEUE STALL: 4.77276 AVERAGE DECODE STALL: 4.24218 AVERAGE EXECUTE STALL: 31.7228
L2BTB BRANCH_CONDITIONAL	ACCESS:    1293616 HIT:    1150553 MISS:     143063 AVERAGE STALL: 26.7368 AVERAGE FETCH STALL: 18.1466 AVERAGE FETCH QUEUE STALL: 3.25101 AVERAGE DECODE STALL: 4.33855 AVERAGE EXECUTE STALL: 1.29746e+14
L2BTB BRANCH_DIRECT_CALL	ACCESS:     838602 HIT:     724249 MISS:     114353 AVERAGE STALL: 28.5681 AVERAGE FETCH STALL: 19.2069 AVERAGE FETCH QUEUE STALL: 3.62494 AVERAGE DECODE STALL: 4.73631 AVERAGE EXECUTE STALL: 1.61372e+14
L2BTB BRANCH_INDIRECT_CALL	ACCESS:     140658 HIT:     119442 MISS:      21216 AVERAGE STALL: 69.4989 AVERAGE FETCH STALL: 13.3783 AVERAGE FETCH QUEUE STALL: 3.11925 AVERAGE DECODE STALL: 4.72629 AVERAGE EXECUTE STALL: 47.2751
L2BTB BRANCH_RETURN	ACCESS:     823400 HIT:     722541 MISS:     100859 AVERAGE STALL: 29.151 AVERAGE FETCH STALL: 15.6307 AVERAGE FETCH QUEUE STALL: 3.57591 AVERAGE DECODE STALL: 4.49823 AVERAGE EXECUTE STALL: 1.80428e+14
L2BTB BRANCH_OTHER ACCESS:          0 HIT:          0 MISS:          0 AVERAGE STALL: -nan AVERAGE FETCH STALL: -nan AVERAGE FETCH QUEUE STALL: -nan AVERAGE DECODE STALL: -nan AVERAGE EXECUTE STALL: -nan
L2BTB TOTAL ROB OCCUPANCY AT BTB MISS: 38.2082

L2C TOTAL     ACCESS:    4494748  HIT:    4000860  MISS:     493888  HIT %:    89.0119  MISS %:    10.9881   MPKI: 9.87776
L2C LOAD INSTRUCTION	ACCESS:    2765049  HIT:    2488457  MISS:     276592  HIT %:    89.9968  MISS %:    10.0032  MPKI: 5.53184
L2C LOAD TRANSLATION INSTRUCTION	ACCESS:        306  HIT:         75  MISS:        231  HIT %:    24.5098  MISS %:    75.4902  MPKI: 0.00462
L2C LOAD DATA	ACCESS:     722202  HIT:     644103  MISS:      78099  HIT %:     89.186  MISS %:     10.814  MPKI: 1.56198
L2C RFO DATA	ACCESS:     287377  HIT:     239504  MISS:      47873  HIT %:    83.3414  MISS %:    16.6586  MPKI: 0.95746
L2C PREFETCH DATA	ACCESS:     194093  HIT:     119130  MISS:      74963  HIT %:    61.3778  MISS %:    38.6222  MPKI: 1.49926
L2C WRITEBACK DATA	ACCESS:     523697  HIT:     509010  MISS:      14687  HIT %:    97.1955  MISS %:    2.80448  MPKI: 0.29374
L2C LOAD TRANSLATION DATA	ACCESS:       1979  HIT:        550  MISS:       1429  HIT %:    27.7918  MISS %:    72.2082  MPKI: 0.02858
L2C TRANSLATION FROM L1D PREFETCHER DATA	ACCESS:         45  HIT:         31  MISS:         14  HIT %:    68.8889  MISS %:    31.1111  MPKI: 0.00028

L2C PREFETCH  REQUESTED:      98756  ISSUED:      98756  USEFUL:       8942  USELESS:      66564
L2C USEFUL LOAD PREFETCHES:       8942 PREFETCH ISSUED TO LOWER LEVEL:      75436  ACCURACY: 11.8538
 TIMELY PREFETCHES:       8942 LATE PREFETCHES: 473 DROPPED PREFETCHES: 0
L2C AVERAGE MISS LATENCY: 38.1006 cycles
L2C RQ	ACCESS:    3776969	FORWARD:          0	MERGED:          0	TO_CACHE:    3776959
L2C WQ	ACCESS:     523697	FORWARD:         12	MERGED:          0	TO_CACHE:     523697
L2C PQ	ACCESS:     201212	FORWARD:          0	MERGED:       3661	TO_CACHE:     197549

L2C Dense regions hint from L2: 0
PSCL5 TOTAL     ACCESS:       4394  HIT:       2197  MISS:       2197  HIT %:         50  MISS %:         50   MPKI: 0.04394
PSCL5 LOAD TRANSLATION INSTRUCTION	ACCESS:       4304  HIT:       2152  MISS:       2152  HIT %:         50  MISS %:         50  MPKI: 0.04304
PSCL5 TRANSLATION FROM L1D PREFETCHER INSTRUCTION	ACCESS:         90  HIT:         45  MISS:         45  HIT %:         50  MISS %:         50  MPKI: 0.0009


PSCL4 TOTAL     ACCESS:       4226  HIT:       2107  MISS:       2119  HIT %:     49.858  MISS %:     50.142   MPKI: 0.04238
PSCL4 LOAD TRANSLATION INSTRUCTION	ACCESS:       2156  HIT:       2062  MISS:         94  HIT %:    95.6401  MISS %:    4.35993  MPKI: 0.00188
PSCL4 TRANSLATION FROM L1D PREFETCHER INSTRUCTION	ACCESS:         45  HIT:         45  MISS:          0  HIT %:        100  MISS %:          0  MPKI: 0
PSCL4 LOAD TRANSLATION DATA	ACCESS:       1980  HIT:          0  MISS:       1980  HIT %:          0  MISS %:        100  MPKI: 0.0396
PSCL4 TRANSLATION FROM L1D PREFETCHER DATA	ACCESS:         45  HIT:          0  MISS:         45  HIT %:          0  MISS %:        100  MPKI: 0.0009


PSCL3 TOTAL     ACCESS:       4294  HIT:       2141  MISS:       2153  HIT %:    49.8603  MISS %:    50.1397   MPKI: 0.04306
PSCL3 LOAD TRANSLATION INSTRUCTION	ACCESS:       2190  HIT:       2096  MISS:         94  HIT %:    95.7078  MISS %:    4.29224  MPKI: 0.00188
PSCL3 TRANSLATION FROM L1D PREFETCHER INSTRUCTION	ACCESS:         45  HIT:         45  MISS:          0  HIT %:        100  MISS %:          0  MPKI: 0
PSCL3 LOAD TRANSLATION DATA	ACCESS:       2014  HIT:          0  MISS:       2014  HIT %:          0  MISS %:        100  MPKI: 0.04028
PSCL3 TRANSLATION FROM L1D PREFETCHER DATA	ACCESS:         45  HIT:          0  MISS:         45  HIT %:          0  MISS %:        100  MPKI: 0.0009


PSCL2 TOTAL     ACCESS:       4284  HIT:       2087  MISS:       2197  HIT %:    48.7162  MISS %:    51.2838   MPKI: 0.04394
PSCL2 LOAD TRANSLATION INSTRUCTION	ACCESS:       2312  HIT:       2042  MISS:        270  HIT %:    88.3218  MISS %:    11.6782  MPKI: 0.0054
PSCL2 TRANSLATION FROM L1D PREFETCHER INSTRUCTION	ACCESS:         45  HIT:         45  MISS:          0  HIT %:        100  MISS %:          0  MPKI: 0
PSCL2 LOAD TRANSLATION DATA	ACCESS:       1882  HIT:          0  MISS:       1882  HIT %:          0  MISS %:        100  MPKI: 0.03764
PSCL2 TRANSLATION FROM L1D PREFETCHER DATA	ACCESS:         45  HIT:          0  MISS:         45  HIT %:          0  MISS %:        100  MPKI: 0.0009


LLC TOTAL     ACCESS:     551494  HIT:     522990  MISS:      28504  HIT %:    94.8315  MISS %:    5.16851   MPKI: 0.57008
LLC LOAD INSTRUCTION	ACCESS:     276592  HIT:     275605  MISS:        987  HIT %:    99.6432  MISS %:   0.356843  MPKI: 0.01974
LLC LOAD TRANSLATION INSTRUCTION	ACCESS:        231  HIT:        197  MISS:         34  HIT %:    85.2814  MISS %:    14.7186  MPKI: 0.00068
LLC LOAD DATA	ACCESS:      77639  HIT:      74185  MISS:       3454  HIT %:    95.5512  MISS %:     4.4488  MPKI: 0.06908
LLC RFO DATA	ACCESS:      47856  HIT:      34350  MISS:      13506  HIT %:    71.7778  MISS %:    28.2222  MPKI: 0.27012
LLC PREFETCH DATA	ACCESS:      75435  HIT:      65302  MISS:      10133  HIT %:    86.5672  MISS %:    13.4328  MPKI: 0.20266
LLC WRITEBACK DATA	ACCESS:      72298  HIT:      71987  MISS:        311  HIT %:    99.5698  MISS %:   0.430164  MPKI: 0.00622
LLC LOAD TRANSLATION DATA	ACCESS:       1429  HIT:       1350  MISS:         79  HIT %:    94.4717  MISS %:    5.52834  MPKI: 0.00158
LLC TRANSLATION FROM L1D PREFETCHER DATA	ACCESS:         14  HIT:         14  MISS:          0  HIT %:        100  MISS %:          0  MPKI: 0

LLC AVERAGE MISS LATENCY: 154.731 cycles
LLC RQ	ACCESS:     403765	FORWARD:          0	MERGED:          0	TO_CACHE:     403761
LLC WQ	ACCESS:      72298	FORWARD:          5	MERGED:          0	TO_CACHE:      72298
LLC PQ	ACCESS:      75436	FORWARD:          0	MERGED:          0	TO_CACHE:      75435

LLC Dense regions hint to LLC: 0

RAW hits: 1174408
Loads Generated: 12635525
Loads sent to L1D: 11461117
Stores Generated: 6947086
Stores sent to L1D: 6947098
Major fault: 0 Minor fault: 2601
Allocated PAGES: 2601

stream: 
stream:times selected: 1177877
stream:pref_filled: 122169
stream:pref_useful: 25066
stream:pref_late: 6524
stream:misses: 6163
stream:misses_by_poll: 0

CS: 
CS:times selected: 177709
CS:pref_filled: 57935
CS:pref_useful: 35105
CS:pref_late: 8038
CS:misses: 17162
CS:misses_by_poll: 3

CPLX: 
CPLX:times selected: 998978
CPLX:pref_filled: 21439
CPLX:pref_useful: 5218
CPLX:pref_late: 3160
CPLX:misses: 89988
CPLX:misses_by_poll: 0

NL_L1: 
NL:times selected: 19035
NL:pref_filled: 617
NL:pref_useful: 325
NL:pref_late: 216
NL:misses: 750
NL:misses_by_poll: 0

total selections: 2373599
total_filled: 93515
total_useful: 34363
total_late: 19369
total_polluted: 3
total_misses_after_warmup: 762936
conflicts: 6029704

test: 116467

DRAM Statistics
 CHANNEL 0
 RQ ROW_BUFFER_HIT:      10358  ROW_BUFFER_MISS:      17829
 DBUS_CONGESTED:         14
 WQ ROW_BUFFER_HIT:       1325  ROW_BUFFER_MISS:      12486  FULL:          0

 AVG_CONGESTED_CYCLE: 5

CPU 0 Branch Prediction Accuracy: 99.8092% MPKI: 0.34892 Average ROB Occupancy at Mispredict: 69.1452
Branch types
NOT_BRANCH: 40857128 81.7143%
BRANCH_DIRECT_JUMP: 549428 1.09886%
BRANCH_INDIRECT: 183349 0.366698%
BRANCH_CONDITIONAL: 6181884 12.3638%
BRANCH_DIRECT_CALL: 942888 1.88578%
BRANCH_INDIRECT_CALL: 171110 0.34222%
BRANCH_RETURN: 1113991 2.22798%
BRANCH_OTHER: 0 0%

DRAM PAGES: 1048576
Allocated PAGES: 2601
Average_ROB_Occupancy: 49.3541
Average_Decode_Occupancy: 4.39571
Average_FTQ_Occupancy: 13.5056
Indirect max targets: 14 Average targets: 1.1505
Branch_type:  BRANCH_DIRECT_JUMP:  Count Percentage: 3.24829 5.53099 5.12363 9.12238 1.74016 5.96783 0.891939 68.3748 
Branch_type:  BRANCH_INDIRECT:  Count Percentage: 11.7458 3.46491 2.55452 0 2.5452 9.67468 19.2228 50.7921 
Branch_type:  BRANCH_CONDITIONAL:  Count Percentage: 21.4514 2.58987 1.84246 8.41926 1.23163 5.06897 1.95747 57.4389 
Branch_type:  BRANCH_DIRECT_CALL:  Count Percentage: 0.257349 1.79076 1.44555 4.83602 2.15601 2.75191 0.751905 86.0105 
Branch_type:  BRANCH_INDIRECT_CALL:  Count Percentage: 9.53326 0.571582 2.98674 4.83994 0.000291475 2.01875 1.28307 78.7664 
Branch_type:  BRANCH_RETURN:  Count Percentage: 3.18859 1.30476 1.27108 9.31576 2.84213 6.55351 3.12936 72.3948 
Branch_type:  BRANCH_DIRECT_JUMP:  Total Count: 35588 60597 56134 99944 19065 65383 9772 749108 
Branch_type:  BRANCH_INDIRECT:  Total Count: 42886 12651 9327 0 9293 35324 70186 185451 
Branch_type:  BRANCH_CONDITIONAL:  Total Count: 2648831 319799 227508 1039615 152082 625919 241710 7092595 
Branch_type:  BRANCH_DIRECT_CALL:  Total Count: 4868 33874 27344 91478 40783 52055 14223 1626970 
Branch_type:  BRANCH_INDIRECT_CALL:  Total Count: 32707 1961 10247 16605 1 6926 4402 270234 
Branch_type:  BRANCH_RETURN:  Total Count: 71281 29168 28415 208254 63536 146504 69957 1618388 
Number of unique branch instructions: 10308
Upper 32 bits: 
aaaa
ffff
ffff0000
Unique upper 32 bits: 3
Unique upper 36 bits: 3
Unique upper 40 bits: 5
Unique upper 44 bits: 32
Unique upper 48 bits: 154
Offset_3 4268
Offset_4 260
Offset_5 469
Offset_6 531
Offset_7 612
Offset_8 540
Offset_9 491
Offset_10 399
Offset_11 338
Offset_12 297
Offset_13 225
Offset_14 232
Offset_15 201
Offset_16 230
Offset_17 162
Offset_18 128
Offset_19 252
Offset_20 144
Offset_21 236
Offset_22 404
Offset_23 245
Offset_24 346
Offset_25 88
Offset_47 84
Offset_64 21
decode_dispatch_called: 29689369 48.725
Dispatch_width: 0 17582048 59.22 28.855
Dispatch_width: 1 2151227 7.24578 3.53051
Dispatch_width: 2 1245825 4.1962 2.0446
Dispatch_width: 3 1141944 3.84631 1.87411
Dispatch_width: 4 1140187 3.84039 1.87123
Dispatch_width: 5 1198506 4.03682 1.96694
Dispatch_width: 6 5229632 17.6145 8.58267
Empty_decode_cycles: 31243101 51.275
ROB_full_cycles: 464295 0.761983
Starvation_cycles_per_kilo_instr: 552.385
Starvation_cycles_per_kilo_instr_3: 528.998
Starvation_cycles_per_kilo_instr_0: 483.609
Branch_type_1  (3,1)  (4,9)  (5,37)  (6,73)  (7,118)  (8,138)  (9,129)  (10,102)  (11,76)  (12,51)  (13,8)  (14,2)  (15,3)  (16,4)  (18,1)  (19,4)  (20,2)  (21,1)  (22,3)  (23,2)  (24,10)  (25,12)  (64,3) 
Branch_type_2  (3,1)  (5,1)  (8,3)  (9,3)  (12,1)  (13,1)  (14,1)  (16,3)  (17,2)  (20,2)  (21,2)  (23,5)  (24,1)  (47,39) 
Branch_type_3  (3,4266)  (4,251)  (5,427)  (6,441)  (7,460)  (8,333)  (9,270)  (10,164)  (11,140)  (12,58)  (13,7)  (24,3)  (64,11) 
Branch_type_4  (6,4)  (7,8)  (8,30)  (9,54)  (10,63)  (11,63)  (12,105)  (13,96)  (14,102)  (15,96)  (16,104)  (17,73)  (18,58)  (19,124)  (20,74)  (21,124)  (22,215)  (23,138)  (24,202)  (25,72)  (64,4) 
Branch_type_5  (8,2)  (9,1)  (10,3)  (11,5)  (12,3)  (13,14)  (14,16)  (15,11)  (16,20)  (17,13)  (18,16)  (19,12)  (20,11)  (21,13)  (22,42)  (23,26)  (24,37) 
Branch_type_6  (5,4)  (6,13)  (7,26)  (8,34)  (9,34)  (10,67)  (11,54)  (12,79)  (13,99)  (14,111)  (15,91)  (16,99)  (17,74)  (18,53)  (19,112)  (20,55)  (21,96)  (22,144)  (23,74)  (24,93)  (25,4)  (47,45)  (64,3) 
aaaaab1fc620: 2ac9e77e 2aca717c 2aca8eff 2acaf6bc 2acaf9aa 2acaf9f1 2acb1abc 2acb1b7f 2acd4e22 2acdb712 2acf5f9e 2ad0ef44 2ad3f15c 2ad414e6 2ad60e42 2ad8609c 2ad99830 2ada35cc 2ada4676 2ada6612 2adf183e 2adf30e5 2adf5602 2adf785c 2ae11572 2aeb2dcf 2aee101b 2aee1ae1 2aee9456 2b156a8c 2b156b61 2b156bea 2b167f35 2b177656 2b17feec 2b1a3e5a 
aaaaab1fc740: 2aca1fb0 2aca45b3 2aca5aa1 2aca5c69 2aca66f9 2aca9426 2acaeecb 2acf3d2d 2acf3d64 2acf6089 2ad017ea 2ad5e7ef 2ad61064 2ad87373 2ad9bf84 2ad9c093 2ae9b606 2aea9ffa 2aee99f5 2aee9a2c 2aeece4b 
aaaaac68f310: 2ac9ec8c 2ac9fb44 2ac9fbd2 2aca59ab 2acac04c 2acaf6e0 2acaf6ec 2acaf6f9 2acaf700 2acaf708 2acf2d90 2ad3cfbd 2ad3cfc4 2ad3d000 2ad3f35f 2ad4955d 2ad49571 2ad4f3f2 2ad4f400 2ad5f240 2ad5f37c 2ad5f86a 2ad5f86f 2ad5f880 2ad5fc0d 2ad5fc14 2ad5fc21 2ad5fe1b 2ad873bb 2ad873e3 2ad8a6b2 2ad9086e 2ad93096 2ad9bbb2 2ada152c 2ada1554 2ada3332 2ada5522 2adf3130 2adf313c 2adf3a3f 2adf3bd9 2adf5788 2adf7a8d 2ae07f6b 2ae0857a 2ae0857e 2ae08630 2ae08634 2ae08637 2ae08642 2ae0866f 2ae086e4 2ae086ec 2ae08717 2ae0871b 2aee0170 2aee1d38 2aee75f4 2aee7662 2aee85ca 2aee85e4 2aee8eef 2aee9a0a 2af70b84 2af74e8f 2b17d843 
aaaaac690ef0: 2aca598b 2acb111b 2acb175f 2acb1772 2acbfaf4 2acbfb00 2acf374f 2acf6d43 2acfa5c8 2ad3baf1 2ad3d4ac 2ad3d4b8 2ad3f1cf 2ad486b2 2ad5a59b 2ad5fc64 2ad5fcf9 2ad6121c 2ad906e9 2ad907bf 2ad9bada 2ada16ce 2ada1ad5 2ada43df 2ada64c0 2ada72ee 2adeb71a 2adf3bcb 2adf7a38 2adf7c6a 2adf8872 2adf8880 2adf9959 2adf9abe 2ae07f78 2ae08503 2ae08754 2ae12e80 2aea3bea 2aecb509 2aee00b0 2aee2bdd 2aee5467 2aee5601 2aee8f20 2af703fd 2af7048b 2af74e74 2dfba627 
ffff000008082480: 2acbfb00 2acf7baa 2ad3f42c 2ad49548 2ad60e59 2ad7f5c7 2adf55e6 2adf7a36 2adf7a6b 2adf7d26 2ae8592f 2aea30cd 2aeb1bf5 2aeb1c92 2aee10a4 2aee8686 2af74ef4 2b168aa4 2b18d41a 2b1a3cd1 2dee8cf7 
Unique trigger count: 
1 9793
2 555
3 105
4 30
5 9
6 9
7 8
9 3
10 2
11 1
12 1
13 3
14 1
16 2
18 2
19 2
21 2
36 1
49 1
67 1
BTB PER SET UNIQUE ADDR: 2 4 3 2 1 0 3 2 4 0 2 0 5 3 1 3 3 2 4 4 3 4 2 3 4 5 2 4 4 3 6 6 4 3 4 2 1 5 6 2 4 4 3 7 6 2 4 3 6 3 4 3 3 1 0 3 4 3 4 3 1 5 2 3 1 4 6 2 3 5 5 1 1 4 2 3 3 7 2 3 2 2 1 4 4 3 2 5 3 3 6 4 3 5 3 0 4 3 1 3 4 2 3 4 3 2 1 2 3 2 2 1 3 6 2 6 2 5 4 1 4 4 2 0 1 2 2 1 6 6 5 2 4 3 5 3 2 1 3 3 5 3 3 3 2 4 2 5 4 3 3 8 3 5 2 0 3 3 4 2 3 5 4 4 6 3 2 2 8 1 3 2 4 2 1 1 3 5 5 1 3 3 6 3 4 6 3 1 2 3 5 3 3 4 4 5 4 3 3 7 3 2 4 1 3 3 2 4 2 1 2 4 5 4 3 2 4 5 4 0 1 1 2 3 3 2 3 3 0 3 8 3 3 1 3 3 5 3 1 2 1 0 5 3 9 8 1 1 3 3 3 2 1 3 2 6 3 5 4 3 4 4 4 2 3 7 3 1 4 2 3 2 2 4 5 2 2 2 3 3 4 2 6 2 6 5 3 3 1 1 0 3 1 7 1 1 5 3 2 2 3 3 1 2 4 2 4 2 6 5 3 1 3 2 5 1 6 6 2 2 3 7 3 5 2 2 1 6 1 1 4 0 2 5 5 2 3 5 5 0 4 0 1 4 5 2 1 5 4 3 3 6 4 3 5 3 2 0 4 1 2 6 2 4 6 5 1 1 2 2 3 2 3 4 4 4 3 4 4 4 6 3 2 6 3 3 6 2 4 2 5 5 4 2 2 1 5 0 1 4 4 2 4 2 2 3 4 3 1 1 1 4 5 3 2 2 6 3 1 3 1 1 3 4 5 3 3 0 2 5 2 2 9 3 5 5 3 3 3 0 2 4 5 4 4 6 2 4 3 2 4 3 1 2 5 1 1 4 8 2 3 3 4 6 2 3 5 3 3 4 0 4 5 3 3 1 4 5 1 1 2 1 2 2 0 4 3 0 7 1 5 2 4 5 1 6 3 3 3 2 5 2 1 2 2 2 2 2 2 3 4 2 3 7 1 1 2 5 4 5 3 5 4 3 5 6 0 7 6 3 4 3 3 6 4 4 1 2 4 1 2 5 6 3 5 2 8 3 6 9 3 6 3 6 1 3 3 1 3 4 7 2 5 2 2 1 4 2 2 7 4 2 3 8 3 2 3 3 1 6 4 2 1 0 1 0 0 9 5 3 5 7 2 1 2 3 5 3 4 2 4 3 4 8 3 3 4 4 3 2 5 2 3 2 2 2 2 0 3 1 5 4 7 2 2 4 2 5 2 3 5 4 4 2 5 3 2 3 2 3 7 1 4 4 0 0 3 3 3 4 4 3 4 2 3 0 4 3 2 3 6 2 6 4 6 4 5 3 1 4 6 3 4 3 6 6 3 3 3 3 4 2 4 2 6 4 5 3 4 3 1 5 2 2 2 3 6 4 5 5 0 6 0 3 3 2 4 1 3 1 3 3 3 2 2 1 7 2 0 3 2 0 1 1 1 1 1 4 2 4 5 5 2 2 2 4 5 3 2 2 1 3 2 4 2 2 4 2 3 2 0 2 1 3 2 2 2 6 4 1 3 3 1 5 4 4 8 3 2 3 5 4 0 3 3 4 5 2 1 3 3 4 0 3 8 6 3 4 0 3 2 4 2 1 5 7 7 2 2 4 5 3 6 3 5 3 3 5 2 3 1 4 4 1 4 4 1 2 0 4 4 2 5 2 2 1 3 2 4 4 3 1 3 2 5 2 2 1 5 2 2 1 3 3 1 5 7 4 5 2 6 2 5 4 4 5 3 2 5 5 3 6 2 1 9 3 3 4 5 3 2 3 3 6 4 0 2 3 5 4 3 5 5 4 6 4 2 2 3 5 4 3 4 4 3 2 6 3 2 2 5 2 2 3 4 5 4 5 3 4 5 4 0 3 1 5 0 1 5 2 6 5 5 3 4 2 3 2 5 7 4 4 9 7 5 4 6 6 1 6 4 2 0 4 4 5 5 5 3 2 7 1 5 5 2 3 6 5 4 2 3 3 4 5 2 6 9 4 6 3 3 4 0 5 6 1 7 5 1 3 7 5 3 6 2 1 2 3 4 2 5 4 2 7 5 5 4 5 3 5 1 3 5 3 3 5 4 3 4 3 5 3 4 4 6 2 5 2 2 4 5 2 9 5 2 4 3 3 2 3 4 7 6 2 3 2 3 3 4 1 3 2 4 4 3 4 5 5 4 6 0 3 3 3 3 4 2 1 3 2 3 1 2 1 4 1 3 3 3 5 2 8 5 3 2 1 10 1 2 4 1 2 6 5 3 6 3 5 5 6 2 5 2 2 1 1 5 0 4 4 3 7 5 1 7 4 6 2 4 4 5 3 5 8 4 4 6 1 4 4 7 4 3 3 4 3 6 6 3 6 6 6 4 3 5 3 1 2 4 5 1 3 2 1 3 4 2 2 5 2 2 5 4 1 5 1 7 3 3 2 3 1 3 5 3 4 3 4 2 6 2 3 6 3 4 3 4 5 2 8 3 5 3 8 6 1 7 1 5 2 1 2 4 4 3 1 3 5 2 1 2 2 4 3 3 3 3 4 2 5 2 5 4 5 0 5 3 2 2 6 8 0 7 0 1 4 5 2 5 1 3 3 4 1 1 2 4 5 3 4 1 4 4 6 5 1 4 3 3 6 10 4 2 6 6 5 1 1 3 5 6 3 2 2 4 3 4 4 5 3 1 4 2 2 6 8 5 3 3 6 1 2 5 2 4 1 3 2 6 8 3 3 3 3 4 4 2 5 6 6 4 2 1 5 3 2 4 3 4 4 4 4 7 3 5 4 3 5 5 3 1 7 4 4 3 3 3 2 4 3 2 2 5 4 3 2 5 1 1 3 3 8 5 2 3 4 2 3 3 3 4 3 2 1 3 2 4 2 5 3 4 4 2 1 2 6 1 5 2 4 2 4 6 2 1 4 5 4 3 4 5 2 3 4 4 5 4 4 4 3 3 2 2 3 5 2 4 1 3 0 8 3 2 6 4 4 5 7 3 2 3 3 1 2 4 1 4 2 4 3 0 6 1 5 2 2 3 4 3 2 4 2 4 2 3 1 5 2 0 3 4 1 1 3 1 4 2 3 6 3 1 2 2 3 2 2 6 2 3 6 3 3 3 4 2 2 3 0 2 2 2 3 2 2 2 0 4 0 4 2 4 4 3 3 2 1 2 5 4 2 7 1 3 4 2 2 4 5 2 2 5 0 1 2 3 1 1 2 3 3 5 3 1 1 7 3 1 4 1 7 1 4 3 3 6 2 3 2 1 3 3 1 1 3 5 2 3 3 1 2 0 5 1 3 3 0 3 2 5 3 4 3 3 4 1 3 2 2 1 3 3 0 2 3 2 3 3 1 3 3 2 10 6 2 2 2 4 1 1 3 6 2 3 0 3 2 3 2 3 4 5 6 7 0 4 2 6 4 4 5 4 8 2 4 8 3 0 6 3 3 3 4 3 3 2 1 2 4 2 2 3 3 2 3 5 3 5 4 6 1 1 5 6 3 3 4 5 4 6 2 5 5 2 6 3 3 3 2 3 7 5 3 2 3 3 3 3 4 2 3 3 2 3 1 3 8 0 2 2 3 3 4 5 3 4 2 6 1 2 2 6 2 4 5 8 1 1 7 3 4 3 3 4 7 2 3 2 4 8 3 5 3 5 3 5 10 4 4 4 5 2 5 4 3 2 3 1 2 2 3 4 3 2 3 3 5 4 3 4 9 0 3 2 4 4 4 3 4 3 6 3 5 1 5 2 3 4 3 3 0 3 5 0 7 2 5 5 1 4 3 3 0 5 3 3 6 3 6 2 2 2 1 3 4 8 1 4 3 0 3 3 4 6 3 1 4 5 2 3 2 6 3 4 1 5 3 0 2 4 1 1 8 2 0 5 1 4 3 3 3 6 3 3 6 1 5 3 5 2 5 4 2 3 2 7 1 4 0 3 3 4 4 4 3 2 1 2 3 0 3 0 3 5 6 2 2 5 2 3 3 4 1 3 2 4 2 4 2 5 3 2 3 1 2 3 3 3 3 3 4 2 1 1 4 2 5 1 4 1 5 4 2 3 1 4 1 2 3 6 2 3 4 5 5 3 3 3 4 4 2 0 3 3 0 2 1 2 2 4 2 5 2 2 3 4 1 3 4 4 2 4 8 3 2 7 7 4 2 4 1 2 6 3 4 5 2 4 0 1 2 6 3 2 4 4 2 5 3 4 7 4 3 1 4 1 0 2 3 0 5 4 6 1 3 4 6 4 0 2 2 4 2 4 1 3 2 8 3 1 3 3 7 2 7 3 4 7 0 1 3 1 4 2 1 0 2 3 4 5 5 1 0 3 4 5 1 2 1 3 6 2 1 5 4 3 3 5 4 1 6 3 6 2 1 2 2 2 2 5 1 3 1 3 2 3 1 5 2 5 3 4 2 1 3 5 4 4 0 
BTB PER SET COUNT: 2 4 3 2 1 0 4 2 8 0 2 0 2356 3 1 3 3 4 4 1598 4 5 2 3 4 20 2 4 1467 3 2785 28 5 3 6 2 2930 793 829 2 4 9 4 2142 5105 2 6 5 1406 3 5 3 3 1 0 3 7 3 5 3 1 6 2 5 1 540 362 2 3 1062 775 1 1 4 3 4 498 793 2 3 2 3 1 4 5 4 2 12 3 3 2317 474 5 3645 4 0 4 5 1 3 8 2 4 4 3 2 1 2 3 23 3 1 3 1986 2 1782 3 8 4 1 4 7 2 0 5 2 2 2 2571 11 1956 2 4 4 938 3 2 1 4 3 976 3 3 4 2 7 2 3795 4 3 3 6591 3 2309 2 0 3 3 4 3 3 1034 5 5 10 1942 3 2 7907 1 3 2 10 2 1 1 3 8 985 1 4 3 6475 3 4 10 4 1 2 4 46 3 4 4 4 12 4 3 4 10 4 2 4 1 8 5 2 1598 2 1 2 5 16 9 5 3 4 462 4 0 1 1 2 3 3 2 3 30 0 3 5788 8 3 5 3 3 8 3 1 2 2 0 2318 4 8717 1908 1 1 4 3 3 2 1 3 2 1943 4 16 4 3 7 4 4 2 1466 1463 3 1 4 2 3 2 2 4 6 4 2 2 5 3 28 2 1811 2 773 2406 3 3 1 1 0 4 1 23 1 1 16 3 2 2 3 3 1 3 4 2 4 2 1802 1037 3 1 4 2 1030 3 2342 1314 2 3 3 2205 3 6 2 3 1 366 1 1 1094 0 2 19 1514 2 985 6 22 0 4 0 1 983 985 2 1 6 4 5 3 157 4 3 58 4 2 0 5 1 2 291 2 8 2613 1085 1 2 2 2 22 2 3 5 5 5 3 6 4 4 27 3 2 1079 3 3 15 2 4 2 20 7 4 2 2 1 3357 0 1 6 4 2 6 2 2 3 1467 3 1 974 1 4 10 4 975 2 144 3 1 92 1 1 3 4 8 3 10 0 2 6 132 2 2606 3 1065 2155 4 4 4 0 4 5 1277 4 6 1078 2 4 3 2 4 4 1 2 1742 1 1 4 1407 4 3 5 4 1788 2 3 5 3 5 4 0 6 28 492 3 1 6 1065 1 1 2 1 2 496 0 4 3 0 34 1 7 2 6 9 1 25 52 5 3 2 1729 11 1 2 3 3 2 2 2 4 4 2 3 38 4 1 2 2306 5 509 3 1472 4 3 15 1413 0 1747 4609 6 4 3 4 24 4 626 1 2 71 1 3 1476 190 9 16 3 67 27 893 8884 3 1340 7 2796 1 3 8 2 3 4 6363 2 1794 2 2 1 4 2 2 2685 4 4 3 5148 3 2 3 4 24 41 4 46 1 0 4 0 0 3762 6 6 1799 2934 2 4 975 4 7 3 4 2 4 3 6 1544 3 4 4 4 3 2 2287 2 3 6 2 2 1209 0 4 1 21 499 3298 2 5 4 2 16 2 3 1882 1467 4 7 964 3 2 3 2 3 2906 1 4 4 0 0 3 6 3 6 4 3 5 2 5 0 4 3 2 3 7851 3 29 5 1878 6 2959 985 1 7 1012 4 7 5 1402 2835 3 4 7 3 4 3 9 981 1475 4 15 1466 5 3 4 987 6 21 2 3 1762 4 20 47 0 2310 0 3 4 983 5 1 3 1 3 4 6 2 981 1 2469 2 0 5 2 0 1 1 1 1 1 7 2 5 1364 9 969 2 3 5 12 5 2 2 1 3 4 4 2 3 624 3 4 907 0 2 1 4 2 2 2 2747 5 2 3 3 1 17 5 4 5308 3 4 4 9 4 0 119 3 4 2777 6 1 3 3 9 0 3 3196 4450 6 5 0 3 4 29 26 1 7 3375 1861 2 2 4 12 6 12 3 1968 4 4 41 2 8 1 5 4 1 6 5 1 2 0 4 6 2 13 2 3 1 4 2 5 107 3 1 3 2 1904 3 74 1 1417 3 4 1 3 1472 1 11 2016 4 8 2 2415 2 1750 4 4 21 3 2 7 9 3 4393 2 19 6314 978 5 4 1496 12 2 3 3 2306 5 0 3 3 28 4 7 4320 11 4 80 4 2 2 3 7 6 3 4 4 3 4 775 3 2 2 1646 2 3 78 5 2358 4 1039 3 6 49 6 0 3 1 1309 0 1 933 2 53 387 1303 3 14 3 3 2 1753 644 4 501 5476 3600 1439 4 2103 27 2 142 5 2 0 971 4 2369 47 1440 4 2 828 1 351 10 2 3 1257 1866 4 2 3 623 4 4634 2 329 1122 5 1995 5 3 4 0 541 22 1 7134 19 1 3 2037 19 496 10 2 3 2 3 5 2 1459 4 2 3360 6 7 5 1776 3 33 1 6 7 3 3 21 4 52 4 3 1935 3 2430 537 1662 3 22 4 2 5 1670 2 4955 24 2 4 3 3 2 3 4 2708 1741 6 3 2 3 3 4 1 3 2 4 4 3 5 21 1905 4 1320 0 3 3 3 1466 545 2 1 3 2 3 1 3 1 6 1 5 3 3 14 2 3743 1475 5 2 1 11018 1 2 5 1 2 1826 117 4 5103 4 24 11 2341 2 24 2 2 24 1 27 0 5 5 3 2004 8 1 1851 4 2237 2 499 4 13 3 2178 1633 5 4 2276 1 5 5 4612 4 4 4 5 3 1428 1822 5 2297 1350 1593 4 3 21 8 1 2 4 1954 1 3 2 1 14 5 2 3 636 2 2 321 4 1 13 1 5421 3 3 2 3 1 3 230 3 5 3 4 3 27 2 3 1570 3 5 7 5 1854 2 5301 3 1412 3 2639 6951 1 4933 1 21 2 1 14 624 5 3 1 3 95 2 1 2 494 4 3 3 4 3 5 2 1447 2 14 5 19 0 1823 3 3 2 42 7140 0 349 0 1 4 11 5 21 1 3 908 5 1 1 2 5 17 6 6 1 4 4 6812 16 1 4 3 3 3104 10084 1969 2 7188 25 1803 1 1 6 1743 2296 4 2 2 6 3 4 4 20 3 1 4 2 2 3153 7586 3716 3 5 317 1 3 22 2 4 1 3 2 2838 6482 976 5 3 3 68 5 2 1708 1877 2385 6 2 1 22 3 2 8 3 4 5 5 4 1736 3 1827 5 500 1752 2352 12 1 2993 4 4 4 4 3 66 8 4 2 2 20 4 6 2 1023 1 1 3 5 2997 16 2 3 4 3 3 32 3 4 3 2 2 3 2 4 2 12 4 7 4 2 1 2 1048 2 12 3 4 2 4 354 2 1 4 7 971 3 4 2406 2 3 51 15 8 4 6 4 4 4 2 2 3 1966 4 23 1 3 0 5342 3 2 2620 4 4 2172 6922 3 2 3 3 1 2 7 1 4 5 69 6 0 3750 3 22 2 2 3 4 4 2 1468 2 4 1505 3 1 628 2 0 3 4 1 1 1506 1 4 3 3 1738 4 1 2 2 3 2 2 2575 5 3 67 5 3 3 5 2 2 3 0 4 2 2 971 2 2 2 0 8 0 4 2 4 4 3 3 907 1 15 6 32 2 2394 1 3 4 2 2 7 11 130 2 21438 0 1 2 3 1 1 2 4 4 1883 401 1 1 1376 3 1 5 1 2295 1 4 3 3 1988 2 4 2 1 3 3 1 1 3 6 2 3 3 1 2 0 3626 1 3 4 0 4 431 1864 3 4 3 3 4 1 5 2 2 5 3 3 0 2 3 2 4 11 1 4 3 2 3637 2902 2 2 2 4 1 1 3 1765 3 3 0 4 3 3 2 3 4 2166 21 5410 0 4 2 2008 5 5 21 4 3301 2 7 8623 3 0 2825 1466 3 5 5 4 4 2 1 2 977 2 2 4 3 2 3 1802 23 1783 7 1019 2945 1 1243 6273 3 4 8 14 4 3428 3 1626 1799 2 1813 3 252 536 2 1466 1437 15 145 7 3 3 4 3 4 2 3 3 2 3 1 4 2370 0 2 2 7 4 4 521 3 4 2 3550 1 2 19 1302 3 1481 1551 2911 1 1 5923 3 986 3 5 4 1872 625 5 21 4 2727 4 502 3 4242 3 30 8361 5 5 14645 2841 3 1905 1467 133 2 3 1 4 2 3 5 3 2 4 3 409 4 3 157 3476 0 1466 2 1467 239 5 3 4 3 2191 3 741 1 2305 2 5 4 3 4 0 3 3003 0 5037 3 1202 2435 1 5 3 5 0 7 3 67 2361 3 4499 2 2 2 1 3 4 7020 1 4 526 0 3 3 4 1735 970 1 4 1903 2 4 2 2068 3 5 1 28 3 0 2 4 1464 2 3891 2 0 7 1 7 6 3 3 2399 3 419 2247 1 2243 3 1825 221 1761 73 2 3 2 3832 4 188 0 5 1597 4 6 4 4 2 4 2 604 0 3 0 3 7 3041 2 2 803 405 4 4 977 1 3 2 5 2 4 2 101 3 2 3 1 2 185 4 3 3 3 4 2 1 2 4 2 1441 1 4 1 3607 4 2 9 6 5 1 2 3 27 2 26 913 8 948 3 3 3 5 4 2 0 3 4 0 2 1 2 2 4 4 2302 2 2 3 4 1 4 4 4 2 4 2998 3 2 3096 2166 151 2 4 1 2 25 3 5 140 2 10 0 1 2 11 924 2 4 4 2 7 26 5 2467 4 3 1 5 1 0 2 3 0 26 1468 1138 1 3 4 2334 4 0 66 2 19 2 4 1 4 2 3545 4 1 4 3 2486 3 3309 3 4 5255 0 1 3 1 5 2 1 0 2 3 4 19 7 2 0 4 5 1458 1 2 1 3 2338 2 1 19 4 3 5 1748 5 1 2340 3 1740 2 1 2 2 2 2 5 3 3 1 3 2 3 1 22 2 230 3 5 2 1 3 1486 4 5 0 
