
*** ChampSim Multicore Out-of-Order Simulator ***

Warmup Instructions: 50000000
Simulation Instructions: 50000000
Number of CPUs: 1
LLC sets: 2048
LLC ways: 16
Off-chip DRAM Size: 4096 MB Channels: 1 Width: 64-bit Data Rate: 6400 MT/s
CPU 0 runs ./micro_traces/srv149.trace.gz
.gz
ITLB has LRU replacement policy
DTLB has LRU replacement policy
STLB has LRU replacement policy
FDIP Prefetcher at L1I
L1I has LRU replacement policy
L1D has LRU replacement policy
Initialize SRRIP state for L2C
Initialize DRRIP state for LLC
Heartbeat_Variant_0 : 1062 0.259277 per_variant_size: 0 1062 0 0 0 0 0 0 0 
Heartbeat_Variant_1 : 1221 0.298096 per_variant_size: 0 874 347 0 0 0 0 0 0 
Heartbeat_Variant_2 : 1506 0.367676 per_variant_size: 0 889 433 132 52 0 0 0 0 
Heartbeat_Variant_3 : 0 0 per_variant_size: 0 0 0 0 0 0 0 0 0 
Heartbeat_Variant_0_evicts 0 : 13581 1 : 9580 2 : 11793 3 : 0 
Heartbeat_Variant_1_evicts 0 : 9543 1 : 0 2 : 11039 3 : 0 
Heartbeat_Variant_2_evicts 0 : 11794 1 : 10980 2 : 0 3 : 0 
Heartbeat_Variant_3_evicts 0 : 0 1 : 0 2 : 0 3 : 0 
Heartbeat CPU 0 instructions: 10000001 cycles: 2793937 heartbeat IPC: 3.57918 cumulative IPC: 3.57918 (Simulation time: 0 hr 4 min 0 sec) 
Heartbeat_Variant_0 : 1056 0.257812 per_variant_size: 0 1056 0 0 0 0 0 0 0 
Heartbeat_Variant_1 : 1204 0.293945 per_variant_size: 0 807 397 0 0 0 0 0 0 
Heartbeat_Variant_2 : 1599 0.390381 per_variant_size: 0 940 443 152 64 0 0 0 0 
Heartbeat_Variant_3 : 0 0 per_variant_size: 0 0 0 0 0 0 0 0 0 
Heartbeat_Variant_0_evicts 0 : 13782 1 : 9546 2 : 11718 3 : 0 
Heartbeat_Variant_1_evicts 0 : 9595 1 : 0 2 : 11568 3 : 0 
Heartbeat_Variant_2_evicts 0 : 11687 1 : 11659 2 : 0 3 : 0 
Heartbeat_Variant_3_evicts 0 : 0 1 : 0 2 : 0 3 : 0 
Heartbeat CPU 0 instructions: 20000000 cycles: 5588413 heartbeat IPC: 3.57849 cumulative IPC: 3.57883 (Simulation time: 0 hr 6 min 20 sec) 
Heartbeat_Variant_0 : 1054 0.257324 per_variant_size: 0 1054 0 0 0 0 0 0 0 
Heartbeat_Variant_1 : 1221 0.298096 per_variant_size: 0 824 397 0 0 0 0 0 0 
Heartbeat_Variant_2 : 1585 0.386963 per_variant_size: 0 935 444 144 62 0 0 0 0 
Heartbeat_Variant_3 : 0 0 per_variant_size: 0 0 0 0 0 0 0 0 0 
Heartbeat_Variant_0_evicts 0 : 13514 1 : 9626 2 : 12069 3 : 0 
Heartbeat_Variant_1_evicts 0 : 9612 1 : 0 2 : 11438 3 : 0 
Heartbeat_Variant_2_evicts 0 : 12085 1 : 11408 2 : 0 3 : 0 
Heartbeat_Variant_3_evicts 0 : 0 1 : 0 2 : 0 3 : 0 
Heartbeat CPU 0 instructions: 30000003 cycles: 8382894 heartbeat IPC: 3.57848 cumulative IPC: 3.57872 (Simulation time: 0 hr 8 min 26 sec) 
Heartbeat_Variant_0 : 1044 0.254883 per_variant_size: 0 1044 0 0 0 0 0 0 0 
Heartbeat_Variant_1 : 1238 0.302246 per_variant_size: 0 838 400 0 0 0 0 0 0 
Heartbeat_Variant_2 : 1597 0.389893 per_variant_size: 0 941 439 148 69 0 0 0 0 
Heartbeat_Variant_3 : 0 0 per_variant_size: 0 0 0 0 0 0 0 0 0 
Heartbeat_Variant_0_evicts 0 : 13924 1 : 9879 2 : 11896 3 : 0 
Heartbeat_Variant_1_evicts 0 : 9804 1 : 0 2 : 11521 3 : 0 
Heartbeat_Variant_2_evicts 0 : 11983 1 : 11438 2 : 0 3 : 0 
Heartbeat_Variant_3_evicts 0 : 0 1 : 0 2 : 0 3 : 0 
Heartbeat CPU 0 instructions: 40000002 cycles: 11178029 heartbeat IPC: 3.57764 cumulative IPC: 3.57845 (Simulation time: 0 hr 10 min 21 sec) 
*** Reached end of trace for Core: 0 Repeating trace: ./micro_traces/srv149.trace.gz
Heartbeat_Variant_0 : 1094 0.26709 per_variant_size: 0 1094 0 0 0 0 0 0 0 
Heartbeat_Variant_1 : 1225 0.299072 per_variant_size: 0 830 395 0 0 0 0 0 0 
Heartbeat_Variant_2 : 1564 0.381836 per_variant_size: 0 915 433 153 63 0 0 0 0 
Heartbeat_Variant_3 : 0 0 per_variant_size: 0 0 0 0 0 0 0 0 0 
Heartbeat_Variant_0_evicts 0 : 13636 1 : 9523 2 : 11771 3 : 0 
Heartbeat_Variant_1_evicts 0 : 9423 1 : 0 2 : 11015 3 : 0 
Heartbeat_Variant_2_evicts 0 : 11822 1 : 10931 2 : 0 3 : 0 
Heartbeat_Variant_3_evicts 0 : 0 1 : 0 2 : 0 3 : 0 
Heartbeat CPU 0 instructions: 50000000 cycles: 13972715 heartbeat IPC: 3.57822 cumulative IPC: 3.5784 (Simulation time: 0 hr 12 min 15 sec) 

Warmup complete CPU 0 instructions: 50000004 cycles: 13972716 (Simulation time: 0 hr 12 min 15 sec) 

Cycle: 20000000 FTQ IN: 56641651 FTQ occupancy: 17.9302 DECODE IN: 56641651 DECODE occupancy: 45.9035 ROB IN: 56641651 ROB occupancy: 277.661 ROB OUT: 56641573
Heartbeat_Variant_0 : 1079 0.263428 per_variant_size: 0 1079 0 0 0 0 0 0 0 
Heartbeat_Variant_1 : 1244 0.303711 per_variant_size: 0 843 401 0 0 0 0 0 0 
Heartbeat_Variant_2 : 1562 0.381348 per_variant_size: 0 900 434 163 65 0 0 0 0 
Heartbeat_Variant_3 : 0 0 per_variant_size: 0 0 0 0 0 0 0 0 0 
Heartbeat_Variant_0_evicts 0 : 13596 1 : 9606 2 : 11851 3 : 0 
Heartbeat_Variant_1_evicts 0 : 9577 1 : 0 2 : 11403 3 : 0 
Heartbeat_Variant_2_evicts 0 : 11895 1 : 11356 2 : 0 3 : 0 
Heartbeat_Variant_3_evicts 0 : 0 1 : 0 2 : 0 3 : 0 
Heartbeat CPU 0 instructions: 60000003 cycles: 23199972 heartbeat IPC: 1.08375 cumulative IPC: 1.08375 (Simulation time: 0 hr 14 min 11 sec) 
Cycle: 30000000 FTQ IN: 10784746 FTQ occupancy: 6.38174 DECODE IN: 10784720 DECODE occupancy: 13.5012 ROB IN: 10784660 ROB occupancy: 113.728 ROB OUT: 10784651
Heartbeat_Variant_0 : 1083 0.264404 per_variant_size: 0 1083 0 0 0 0 0 0 0 
Heartbeat_Variant_1 : 1223 0.298584 per_variant_size: 0 838 385 0 0 0 0 0 0 
Heartbeat_Variant_2 : 1579 0.385498 per_variant_size: 0 928 436 148 67 0 0 0 0 
Heartbeat_Variant_3 : 0 0 per_variant_size: 0 0 0 0 0 0 0 0 0 
Heartbeat_Variant_0_evicts 0 : 13622 1 : 9797 2 : 12013 3 : 0 
Heartbeat_Variant_1_evicts 0 : 9700 1 : 0 2 : 11612 3 : 0 
Heartbeat_Variant_2_evicts 0 : 12106 1 : 11536 2 : 0 3 : 0 
Heartbeat_Variant_3_evicts 0 : 0 1 : 0 2 : 0 3 : 0 
Heartbeat CPU 0 instructions: 70000001 cycles: 32349122 heartbeat IPC: 1.093 cumulative IPC: 1.08835 (Simulation time: 0 hr 15 min 48 sec) 
Cycle: 40000000 FTQ IN: 11006914 FTQ occupancy: 6.24062 DECODE IN: 11006901 DECODE occupancy: 13.2152 ROB IN: 11006961 ROB occupancy: 112.318 ROB OUT: 11007028
Heartbeat_Variant_0 : 1088 0.265625 per_variant_size: 0 1088 0 0 0 0 0 0 0 
Heartbeat_Variant_1 : 1248 0.304688 per_variant_size: 0 844 404 0 0 0 0 0 0 
Heartbeat_Variant_2 : 1552 0.378906 per_variant_size: 0 880 453 153 66 0 0 0 0 
Heartbeat_Variant_3 : 0 0 per_variant_size: 0 0 0 0 0 0 0 0 0 
Heartbeat_Variant_0_evicts 0 : 13833 1 : 9623 2 : 11942 3 : 0 
Heartbeat_Variant_1_evicts 0 : 9623 1 : 0 2 : 11512 3 : 0 
Heartbeat_Variant_2_evicts 0 : 11937 1 : 11489 2 : 0 3 : 0 
Heartbeat_Variant_3_evicts 0 : 0 1 : 0 2 : 0 3 : 0 
Heartbeat CPU 0 instructions: 80000000 cycles: 41529760 heartbeat IPC: 1.08925 cumulative IPC: 1.08865 (Simulation time: 0 hr 17 min 37 sec) 
Cycle: 50000000 FTQ IN: 10797628 FTQ occupancy: 6.39972 DECODE IN: 10797652 DECODE occupancy: 13.4532 ROB IN: 10797652 ROB occupancy: 111.105 ROB OUT: 10797672
Heartbeat_Variant_0 : 1072 0.261719 per_variant_size: 0 1072 0 0 0 0 0 0 0 
Heartbeat_Variant_1 : 1239 0.30249 per_variant_size: 0 844 395 0 0 0 0 0 0 
Heartbeat_Variant_2 : 1578 0.385254 per_variant_size: 0 930 434 148 66 0 0 0 0 
Heartbeat_Variant_3 : 0 0 per_variant_size: 0 0 0 0 0 0 0 0 0 
Heartbeat_Variant_0_evicts 0 : 13982 1 : 10168 2 : 11888 3 : 0 
Heartbeat_Variant_1_evicts 0 : 10148 1 : 0 2 : 11437 3 : 0 
Heartbeat_Variant_2_evicts 0 : 11924 1 : 11426 2 : 0 3 : 0 
Heartbeat_Variant_3_evicts 0 : 0 1 : 0 2 : 0 3 : 0 
Heartbeat CPU 0 instructions: 90000002 cycles: 50698404 heartbeat IPC: 1.09067 cumulative IPC: 1.08916 (Simulation time: 0 hr 19 min 17 sec) 
*** Reached end of trace for Core: 0 Repeating trace: ./micro_traces/srv149.trace.gz
Heartbeat_Variant_0 : 1074 0.262207 per_variant_size: 0 1074 0 0 0 0 0 0 0 
Heartbeat_Variant_1 : 1254 0.306152 per_variant_size: 0 868 386 0 0 0 0 0 0 
Heartbeat_Variant_2 : 1563 0.381592 per_variant_size: 0 884 459 154 66 0 0 0 0 
Heartbeat_Variant_3 : 0 0 per_variant_size: 0 0 0 0 0 0 0 0 0 
Heartbeat_Variant_0_evicts 0 : 13227 1 : 9387 2 : 11306 3 : 0 
Heartbeat_Variant_1_evicts 0 : 9383 1 : 0 2 : 10860 3 : 0 
Heartbeat_Variant_2_evicts 0 : 11308 1 : 10842 2 : 0 3 : 0 
Heartbeat_Variant_3_evicts 0 : 0 1 : 0 2 : 0 3 : 0 
Heartbeat CPU 0 instructions: 100000000 cycles: 59669190 heartbeat IPC: 1.11473 cumulative IPC: 1.09418 (Simulation time: 0 hr 21 min 17 sec) 
Finished CPU 0 instructions: 50000000 cycles: 45696475 cumulative IPC: 1.09418 (Simulation time: 0 hr 21 min 17 sec) 

ChampSim completed all CPUs

Region of Interest Statistics

CPU 0 cumulative IPC: 1.09418 instructions: 50000000 cycles: 45696475
 Fetch stage stalled: 72.3088  Sim cycles: 45696475 fetch stall cycle: 33042578
 Empty decode stage: 63.6725  Sim cycles: 45696475 fetch stall cycle: 29096081
ITLB TOTAL     ACCESS:    5726084  HIT:    5233649  MISS:     492435  HIT %:    91.4001  MISS %:    8.59986   MPKI: 9.8487
ITLB LOAD TRANSLATION INSTRUCTION	ACCESS:    5621498  HIT:    5129063  MISS:     492435  HIT %:    91.2401  MISS %:    8.75985  MPKI: 9.8487
ITLB TRANSLATION FROM L1D PREFETCHER INSTRUCTION	ACCESS:     104586  HIT:     104586  MISS:          0  HIT %:        100  MISS %:          0  MPKI: 0

ITLB AVERAGE MISS LATENCY: 9.04097 cycles
ITLB RQ	ACCESS:    7526887	FORWARD:          0	MERGED:    1361635	TO_CACHE:    6165252

DTLB TOTAL     ACCESS:    9335530  HIT:    8857867  MISS:     477663  HIT %:    94.8834  MISS %:    5.11661   MPKI: 9.55326
DTLB LOAD TRANSLATION DATA	ACCESS:    9335530  HIT:    8857867  MISS:     477663  HIT %:    94.8834  MISS %:    5.11661  MPKI: 9.55326

DTLB AVERAGE MISS LATENCY: 9.25102 cycles
DTLB RQ	ACCESS:   13598943	FORWARD:          0	MERGED:    4230612	TO_CACHE:    9368331

STLB TOTAL     ACCESS:    1227653  HIT:    1225321  MISS:       2332  HIT %:      99.81  MISS %:   0.189956   MPKI: 0.04664
STLB LOAD TRANSLATION INSTRUCTION	ACCESS:     492435  HIT:     492098  MISS:        337  HIT %:    99.9316  MISS %:  0.0684354  MPKI: 0.00674
STLB LOAD TRANSLATION DATA	ACCESS:     477385  HIT:     475428  MISS:       1957  HIT %:    99.5901  MISS %:   0.409942  MPKI: 0.03914
STLB TRANSLATION FROM L1D PREFETCHER DATA	ACCESS:     257833  HIT:     257795  MISS:         38  HIT %:    99.9853  MISS %:  0.0147382  MPKI: 0.00076

STLB AVERAGE MISS LATENCY: 50.2697 cycles
STLB RQ	ACCESS:    1383282	FORWARD:          0	MERGED:     155595	TO_CACHE:    1227687

STLB Hit, L1D data hit: 0
STLB Hit, L2C data hit: 0
STLB Hit, LLC data hit: 0
STLB Hit, LLC data miss: 0
STLB STLB hints to L2: 0
L1D TOTAL     ACCESS:   13369571  HIT:   12173499  MISS:    1196072  HIT %:    91.0538  MISS %:    8.94623   MPKI: 23.9214
L1D LOAD DATA	ACCESS:    6839344  HIT:    6050786  MISS:     788558  HIT %:    88.4703  MISS %:    11.5297  MPKI: 15.7712
L1D RFO DATA	ACCESS:    6191472  HIT:    5895175  MISS:     296297  HIT %:    95.2144  MISS %:    4.78557  MPKI: 5.92594
L1D PREFETCH DATA	ACCESS:     338755  HIT:     227538  MISS:     111217  HIT %:    67.1689  MISS %:    32.8311  MPKI: 2.22434

L1D PREFETCH  REQUESTED:     826595  ISSUED:     826595  USEFUL:      54702  USELESS:      72057
L1D USEFUL LOAD PREFETCHES:      54702 PREFETCH ISSUED TO LOWER LEVEL:     126795  ACCURACY: 43.1421
 TIMELY PREFETCHES:      54702 LATE PREFETCHES: 15539 DROPPED PREFETCHES: 2
L1D AVERAGE MISS LATENCY: 469965 cycles
L1D RQ	ACCESS:   10875676	FORWARD:          0	MERGED:    3842814	TO_CACHE:    6870525
L1D WQ	ACCESS:    6899288	FORWARD:     162564	MERGED:     170870	TO_CACHE:    6728418
L1D PQ	ACCESS:     413411	FORWARD:          0	MERGED:          0	TO_CACHE:     413184

L1D UNIQUE REGIONS ACCESSED: 0
L1D REGIONS CONFLICTS: 0
L1D Cross Page Prefetch Requests: 7978
L1D Same Page Prefetch Requests: 831742
L1D ROI Sum of L1D PQ occupancy: 5224192
L1D PREFETCHES PUSHED FROM L2C: 0
L1I TOTAL     ACCESS:    7015754  HIT:    4258048  MISS:    2757706  HIT %:    60.6927  MISS %:    39.3073   MPKI: 55.1541
L1I LOAD INSTRUCTION	ACCESS:    6527052  HIT:    3769346  MISS:    2757706  HIT %:    57.7496  MISS %:    42.2504  MPKI: 55.1541
L1I PREFETCH INSTRUCTION	ACCESS:     488702  HIT:     488702  MISS:          0  HIT %:        100  MISS %:          0  MPKI: 0

L1I PREFETCH  REQUESTED:    1077583  ISSUED:    1077583  USEFUL:          0  USELESS:          0
L1I USEFUL LOAD PREFETCHES:          0 PREFETCH ISSUED TO LOWER LEVEL:          0  ACCURACY: -nan
 TIMELY PREFETCHES:          0 LATE PREFETCHES: 0 DROPPED PREFETCHES: 0
L1I AVERAGE MISS LATENCY: 17.0998 cycles
L1I RQ	ACCESS:    9455928	FORWARD:          0	MERGED:    2694413	TO_CACHE:    6761515
L1I PQ	ACCESS:    1077583	FORWARD:          0	MERGED:     312211	TO_CACHE:     765372

L1BTB TOTAL     ACCESS:    5687796  HIT:    2073600  MISS:    3614196  HIT %:     36.457  MISS %:     63.543   MPKI: 72.2839
L1BTB BRANCH_DIRECT_JUMP	ACCESS:     541789  HIT:     141971  MISS:     399818	AVERAGE STALL: 34.6815
L1BTB BRANCH_INDIRECT	ACCESS:     180366  HIT:      64661  MISS:     115705	AVERAGE STALL: 84.3003
L1BTB BRANCH_CONDITIONAL	ACCESS:    2738907  HIT:    1453063  MISS:    1285844	AVERAGE STALL: 36.0341
L1BTB BRANCH_DIRECT_CALL	ACCESS:     942516  HIT:     103588  MISS:     838928	AVERAGE STALL: 37.333
L1BTB BRANCH_INDIRECT_CALL	ACCESS:     170854  HIT:      21208  MISS:     149646	AVERAGE STALL: 110.304
L1BTB BRANCH_RETURN	ACCESS:    1113364  HIT:     289109  MISS:     824255	AVERAGE STALL: 36.6987
L1BTB BRANCH_OTHER ACCESS:          0  HIT:          0  MISS:          0	AVERAGE STALL: -nan
L1BTB TOTAL ROB OCCUPANCY AT BTB MISS: 12.7669

L2BTB TOTAL     ACCESS:    3589339  HIT:    3105281  MISS:     484058  HIT %:     86.514  MISS %:     13.486   MPKI: 9.68116
L2BTB BRANCH_DIRECT_JUMP	ACCESS:     395784  HIT:     346249  MISS:      49535	AVERAGE STALL: 34.6815
L2BTB BRANCH_INDIRECT	ACCESS:     105472  HIT:      96691  MISS:       8781	AVERAGE STALL: 84.3003
L2BTB BRANCH_CONDITIONAL	ACCESS:    1285844  HIT:    1147044  MISS:     138800	AVERAGE STALL: 36.0341
L2BTB BRANCH_DIRECT_CALL	ACCESS:     838928  HIT:     682588  MISS:     156340	AVERAGE STALL: 37.333
L2BTB BRANCH_INDIRECT_CALL	ACCESS:     140288  HIT:     106708  MISS:      33580	AVERAGE STALL: 110.304
L2BTB BRANCH_RETURN	ACCESS:     823023  HIT:     726001  MISS:      97022	AVERAGE STALL: 36.6987
L2BTB BRANCH_OTHER ACCESS:          0  HIT:          0  MISS:          0	AVERAGE STALL: -nan
L2BTB TOTAL ROB OCCUPANCY AT BTB MISS: 95.3234

L2C TOTAL     ACCESS:    4583026  HIT:    4089583  MISS:     493443  HIT %:    89.2332  MISS %:    10.7668   MPKI: 9.86886
L2C LOAD INSTRUCTION	ACCESS:    2757706  HIT:    2504216  MISS:     253490  HIT %:    90.8079  MISS %:    9.19206  MPKI: 5.0698
L2C LOAD TRANSLATION INSTRUCTION	ACCESS:        387  HIT:         97  MISS:        290  HIT %:    25.0646  MISS %:    74.9354  MPKI: 0.0058
L2C LOAD DATA	ACCESS:     772988  HIT:     690346  MISS:      82642  HIT %:    89.3088  MISS %:    10.6912  MPKI: 1.65284
L2C RFO DATA	ACCESS:     296240  HIT:     236160  MISS:      60080  HIT %:    79.7191  MISS %:    20.2809  MPKI: 1.2016
L2C PREFETCH DATA	ACCESS:     214320  HIT:     133375  MISS:      80945  HIT %:    62.2317  MISS %:    37.7683  MPKI: 1.6189
L2C WRITEBACK DATA	ACCESS:     539259  HIT:     524749  MISS:      14510  HIT %:    97.3093  MISS %:    2.69073  MPKI: 0.2902
L2C LOAD TRANSLATION DATA	ACCESS:       2079  HIT:        599  MISS:       1480  HIT %:    28.8119  MISS %:    71.1881  MPKI: 0.0296
L2C TRANSLATION FROM L1D PREFETCHER DATA	ACCESS:         47  HIT:         41  MISS:          6  HIT %:     87.234  MISS %:     12.766  MPKI: 0.00012

L2C PREFETCH  REQUESTED:      94923  ISSUED:      94923  USEFUL:       8300  USELESS:      73181
L2C USEFUL LOAD PREFETCHES:       8300 PREFETCH ISSUED TO LOWER LEVEL:      81324  ACCURACY: 10.2061
 TIMELY PREFETCHES:       8300 LATE PREFETCHES: 379 DROPPED PREFETCHES: 0
L2C AVERAGE MISS LATENCY: 39.0092 cycles
L2C RQ	ACCESS:    3829497	FORWARD:          0	MERGED:          0	TO_CACHE:    3829448
L2C WQ	ACCESS:     539260	FORWARD:         49	MERGED:          0	TO_CACHE:     539260
L2C PQ	ACCESS:     221718	FORWARD:          0	MERGED:       3509	TO_CACHE:     218209

L2C Dense regions hint from L2: 0
PSCL5 TOTAL     ACCESS:       4668  HIT:       2334  MISS:       2334  HIT %:         50  MISS %:         50   MPKI: 0.04668
PSCL5 LOAD TRANSLATION INSTRUCTION	ACCESS:       4574  HIT:       2287  MISS:       2287  HIT %:         50  MISS %:         50  MPKI: 0.04574
PSCL5 TRANSLATION FROM L1D PREFETCHER INSTRUCTION	ACCESS:         94  HIT:         47  MISS:         47  HIT %:         50  MISS %:         50  MPKI: 0.00094


PSCL4 TOTAL     ACCESS:       4374  HIT:       2183  MISS:       2191  HIT %:    49.9086  MISS %:    50.0914   MPKI: 0.04382
PSCL4 LOAD TRANSLATION INSTRUCTION	ACCESS:       3292  HIT:       2155  MISS:       1137  HIT %:    65.4617  MISS %:    34.5383  MPKI: 0.02274
PSCL4 TRANSLATION FROM L1D PREFETCHER INSTRUCTION	ACCESS:         44  HIT:         28  MISS:         16  HIT %:    63.6364  MISS %:    36.3636  MPKI: 0.00032
PSCL4 LOAD TRANSLATION DATA	ACCESS:       1026  HIT:          0  MISS:       1026  HIT %:          0  MISS %:        100  MPKI: 0.02052
PSCL4 TRANSLATION FROM L1D PREFETCHER DATA	ACCESS:         12  HIT:          0  MISS:         12  HIT %:          0  MISS %:        100  MPKI: 0.00024


PSCL3 TOTAL     ACCESS:       4222  HIT:       2102  MISS:       2120  HIT %:    49.7868  MISS %:    50.2132   MPKI: 0.0424
PSCL3 LOAD TRANSLATION INSTRUCTION	ACCESS:       2526  HIT:       2074  MISS:        452  HIT %:    82.1061  MISS %:    17.8939  MPKI: 0.00904
PSCL3 TRANSLATION FROM L1D PREFETCHER INSTRUCTION	ACCESS:         33  HIT:         28  MISS:          5  HIT %:    84.8485  MISS %:    15.1515  MPKI: 0.0001
PSCL3 LOAD TRANSLATION DATA	ACCESS:       1640  HIT:          0  MISS:       1640  HIT %:          0  MISS %:        100  MPKI: 0.0328
PSCL3 TRANSLATION FROM L1D PREFETCHER DATA	ACCESS:         23  HIT:          0  MISS:         23  HIT %:          0  MISS %:        100  MPKI: 0.00046


PSCL2 TOTAL     ACCESS:       4515  HIT:       2181  MISS:       2334  HIT %:    48.3056  MISS %:    51.6944   MPKI: 0.04668
PSCL2 LOAD TRANSLATION INSTRUCTION	ACCESS:       2470  HIT:       2134  MISS:        336  HIT %:    86.3968  MISS %:    13.6032  MPKI: 0.00672
PSCL2 TRANSLATION FROM L1D PREFETCHER INSTRUCTION	ACCESS:         47  HIT:         47  MISS:          0  HIT %:        100  MISS %:          0  MPKI: 0
PSCL2 LOAD TRANSLATION DATA	ACCESS:       1951  HIT:          0  MISS:       1951  HIT %:          0  MISS %:        100  MPKI: 0.03902
PSCL2 TRANSLATION FROM L1D PREFETCHER DATA	ACCESS:         47  HIT:          0  MISS:         47  HIT %:          0  MISS %:        100  MPKI: 0.00094


LLC TOTAL     ACCESS:     560131  HIT:     535305  MISS:      24826  HIT %:    95.5678  MISS %:    4.43218   MPKI: 0.49652
LLC LOAD INSTRUCTION	ACCESS:     253490  HIT:     252800  MISS:        690  HIT %:    99.7278  MISS %:     0.2722  MPKI: 0.0138
LLC LOAD TRANSLATION INSTRUCTION	ACCESS:        290  HIT:        276  MISS:         14  HIT %:    95.1724  MISS %:    4.82759  MPKI: 0.00028
LLC LOAD DATA	ACCESS:      82277  HIT:      79337  MISS:       2940  HIT %:    96.4267  MISS %:     3.5733  MPKI: 0.0588
LLC RFO DATA	ACCESS:      60056  HIT:      47848  MISS:      12208  HIT %:    79.6723  MISS %:    20.3277  MPKI: 0.24416
LLC PREFETCH DATA	ACCESS:      81324  HIT:      72542  MISS:       8782  HIT %:    89.2012  MISS %:    10.7988  MPKI: 0.17564
LLC WRITEBACK DATA	ACCESS:      81208  HIT:      81072  MISS:        136  HIT %:    99.8325  MISS %:   0.167471  MPKI: 0.00272
LLC LOAD TRANSLATION DATA	ACCESS:       1480  HIT:       1424  MISS:         56  HIT %:    96.2162  MISS %:    3.78378  MPKI: 0.00112
LLC TRANSLATION FROM L1D PREFETCHER DATA	ACCESS:          6  HIT:          6  MISS:          0  HIT %:        100  MISS %:          0  MPKI: 0

LLC AVERAGE MISS LATENCY: 196.852 cycles
LLC RQ	ACCESS:     397609	FORWARD:          0	MERGED:          0	TO_CACHE:     397599
LLC WQ	ACCESS:      81208	FORWARD:         10	MERGED:          0	TO_CACHE:      81208
LLC PQ	ACCESS:      81324	FORWARD:          0	MERGED:          0	TO_CACHE:      81324

LLC Dense regions hint to LLC: 0

RAW hits: 1712092
Loads Generated: 12587770
Loads sent to L1D: 10875676
Stores Generated: 6899276
Stores sent to L1D: 6899288
Major fault: 0 Minor fault: 2244
Allocated PAGES: 2244

stream: 
stream:times selected: 1254910
stream:pref_filled: 131468
stream:pref_useful: 31072
stream:pref_late: 10565
stream:misses: 10841
stream:misses_by_poll: 0

CS: 
CS:times selected: 197856
CS:pref_filled: 80114
CS:pref_useful: 56259
CS:pref_late: 10009
CS:misses: 26550
CS:misses_by_poll: 8

CPLX: 
CPLX:times selected: 1055906
CPLX:pref_filled: 28532
CPLX:pref_useful: 9542
CPLX:pref_late: 4943
CPLX:misses: 147936
CPLX:misses_by_poll: 2

NL_L1: 
NL:times selected: 21575
NL:pref_filled: 1071
NL:pref_useful: 650
NL:pref_late: 746
NL:misses: 2952
NL:misses_by_poll: 0

total selections: 2530247
total_filled: 111217
total_useful: 54702
total_late: 29175
total_polluted: 10
total_misses_after_warmup: 819739
conflicts: 5630364

test: 122590

DRAM Statistics
 CHANNEL 0
 RQ ROW_BUFFER_HIT:       8939  ROW_BUFFER_MISS:      15744
 DBUS_CONGESTED:         10
 WQ ROW_BUFFER_HIT:       1861  ROW_BUFFER_MISS:      11205  FULL:          0

 AVG_CONGESTED_CYCLE: 4

CPU 0 Branch Prediction Accuracy: 99.8274% MPKI: 0.3166 Average ROB Occupancy at Mispredict: 139.039
Branch types
NOT_BRANCH: 40827474 81.6549%
BRANCH_DIRECT_JUMP: 541789 1.08358%
BRANCH_INDIRECT: 180366 0.360732%
BRANCH_CONDITIONAL: 6223437 12.4469%
BRANCH_DIRECT_CALL: 942516 1.88503%
BRANCH_INDIRECT_CALL: 170854 0.341708%
BRANCH_RETURN: 1113364 2.22673%
BRANCH_OTHER: 0 0%

DRAM PAGES: 1048576
Allocated PAGES: 2244
Average_ROB_Occupancy: 114.353
Average_Decode_Occupancy: 13.4008
Average_FTQ_Occupancy: 6.32322
Indirect max targets: 14 Average targets: 1.14865
Branch_type:  BRANCH_DIRECT_JUMP:  Count Percentage: 2.86204 6.18563 4.88073 8.11617 1.86457 2.74081 0.815904 72.5342 
Branch_type:  BRANCH_INDIRECT:  Count Percentage: 5.69051 3.32377 2.44113 15.7645 3.36068 4.02405 2.03229 63.3631 
Branch_type:  BRANCH_CONDITIONAL:  Count Percentage: 21.5799 5.52967 2.24576 5.18465 5.88062 2.72986 0.636042 56.2135 
Branch_type:  BRANCH_DIRECT_CALL:  Count Percentage: 0.778294 1.30272 1.38008 4.2185 2.57512 2.05472 0.684129 87.0064 
Branch_type:  BRANCH_INDIRECT_CALL:  Count Percentage: 9.55813 0.541959 2.99701 4.82498 1.25531 2.97536 0.99208 76.8552 
Branch_type:  BRANCH_RETURN:  Count Percentage: 4.26032 3.76632 1.81321 5.58007 7.86494 4.2566 1.02367 71.4349 
Branch_type:  BRANCH_DIRECT_JUMP:  Total Count: 30974 66943 52821 87836 20179 29662 8830 784990 
Branch_type:  BRANCH_INDIRECT:  Total Count: 20502 11975 8795 56797 12108 14498 7322 228287 
Branch_type:  BRANCH_CONDITIONAL:  Total Count: 2684111 687782 279328 644868 731433 339540 79111 6991849 
Branch_type:  BRANCH_DIRECT_CALL:  Total Count: 14679 24570 26029 79563 48568 38753 12903 1640983 
Branch_type:  BRANCH_INDIRECT_CALL:  Total Count: 32680 1853 10247 16497 4292 10173 3392 262774 
Branch_type:  BRANCH_RETURN:  Total Count: 94952 83942 40412 124366 175290 94869 22815 1592106 
Number of unique branch instructions: 10250
Upper 32 bits: 
aaaa
ffff
ffff0000
Unique upper 32 bits: 3
Unique upper 36 bits: 3
Unique upper 40 bits: 5
Unique upper 44 bits: 32
Unique upper 48 bits: 156
Variant_0 : 1074 0.262207
Variant_1 : 1254 0.306152
Variant_2 : 1563 0.381592
Variant_3 : 0 0
Offset_3 4224
Offset_4 255
Offset_5 460
Offset_6 526
Offset_7 610
Offset_8 533
Offset_9 487
Offset_10 402
Offset_11 332
Offset_12 273
Offset_13 211
Offset_14 227
Offset_15 199
Offset_16 231
Offset_17 156
Offset_18 135
Offset_19 242
Offset_20 142
Offset_21 241
Offset_22 401
Offset_23 243
Offset_24 334
Offset_25 88
Offset_47 82
decode_dispatch_called: 20357439 44.5493
Dispatch_width: 0 10296308 50.5776 22.532
Dispatch_width: 1 545326 2.67876 1.19337
Dispatch_width: 2 690303 3.39091 1.51063
Dispatch_width: 3 475193 2.33425 1.03989
Dispatch_width: 4 1551038 7.61902 3.39422
Dispatch_width: 5 351382 1.72606 0.768948
Dispatch_width: 6 6447889 31.6734 14.1103
Empty_decode_cycles: 25339036 55.4507
ROB_full_cycles: 2020227 4.42097
Starvation_cycles_per_kilo_instr: 372.284
Starvation_cycles_per_kilo_instr_3: 353.259
Starvation_cycles_per_kilo_instr_0: 336.151
Branch_type_1  (3,1)  (4,9)  (5,36)  (6,76)  (7,123)  (8,129)  (9,127)  (10,103)  (11,78)  (12,44)  (13,4)  (14,2)  (15,3)  (16,4)  (18,1)  (19,4)  (20,2)  (21,1)  (22,3)  (23,2)  (24,10)  (25,12) 
Branch_type_2  (3,1)  (5,1)  (8,3)  (9,3)  (12,1)  (13,1)  (14,1)  (16,3)  (17,2)  (20,2)  (21,2)  (23,5)  (24,1)  (47,38) 
Branch_type_3  (3,4222)  (4,246)  (5,419)  (6,434)  (7,455)  (8,341)  (9,271)  (10,167)  (11,136)  (12,51)  (13,4) 
Branch_type_4  (6,4)  (7,8)  (8,27)  (9,52)  (10,63)  (11,58)  (12,98)  (13,93)  (14,100)  (15,95)  (16,105)  (17,71)  (18,62)  (19,117)  (20,74)  (21,127)  (22,215)  (23,137)  (24,196)  (25,72) 
Branch_type_5  (8,2)  (9,1)  (10,3)  (11,5)  (12,3)  (13,14)  (14,16)  (15,11)  (16,20)  (17,12)  (18,16)  (19,12)  (20,10)  (21,13)  (22,42)  (23,26)  (24,36) 
Branch_type_6  (5,4)  (6,12)  (7,24)  (8,31)  (9,33)  (10,66)  (11,55)  (12,76)  (13,95)  (14,108)  (15,90)  (16,99)  (17,71)  (18,56)  (19,109)  (20,54)  (21,98)  (22,141)  (23,73)  (24,91)  (25,4)  (47,44) 
Unique trigger count: 
Variant_0_evicts_0 : 0
Variant_0_evicts_1 : 0
Variant_0_evicts_2 : 0
Variant_0_evicts_3 : 0
Variant_1_evicts_0 : 0
Variant_1_evicts_1 : 0
Variant_1_evicts_2 : 0
Variant_1_evicts_3 : 0
Variant_2_evicts_0 : 0
Variant_2_evicts_1 : 0
Variant_2_evicts_2 : 0
Variant_2_evicts_3 : 0
Variant_3_evicts_0 : 0
Variant_3_evicts_1 : 0
Variant_3_evicts_2 : 0
Variant_3_evicts_3 : 0
BTB PER SET UNIQUE ADDR: 2 7 4 7 5 6 7 6 3 8 5 4 3 7 11 8 4 4 5 2 6 9 7 9 4 7 5 4 5 7 6 5 6 7 5 8 6 3 6 9 4 7 3 5 8 6 4 4 8 7 12 4 7 3 2 7 5 3 8 6 6 7 4 7 7 2 7 4 4 8 6 5 5 7 7 9 3 6 5 7 8 7 5 10 8 3 5 3 5 8 6 9 8 7 5 2 6 3 4 8 5 1 4 7 5 4 5 6 6 10 8 2 4 8 2 5 4 7 5 10 5 4 6 4 9 7 3 7 5 2 5 6 4 5 7 6 5 2 6 5 3 4 9 6 4 10 5 5 6 7 3 2 3 11 3 4 6 3 7 4 2 6 4 7 10 2 1 3 9 10 6 6 5 4 4 6 3 6 5 5 7 5 6 9 5 6 5 5 6 5 5 3 5 7 3 6 6 6 5 4 6 7 3 7 1 9 3 4 7 4 2 2 8 6 5 5 7 4 3 6 5 8 6 8 6 10 7 5 7 9 3 7 5 12 4 6 4 8 5 7 5 6 5 4 6 4 4 4 6 6 2 7 4 5 5 6 5 4 7 1 8 7 7 5 4 3 6 5 9 6 7 9 7 6 6 5 5 2 5 10 8 2 6 7 2 5 10 5 8 5 6 3 9 8 7 5 6 3 7 5 14 3 6 9 4 3 7 8 7 4 7 3 8 5 5 5 7 7 8 4 8 7 3 5 9 5 4 6 3 8 4 10 3 6 5 5 7 7 5 8 4 5 7 3 5 4 4 7 2 4 6 9 5 2 8 4 3 5 5 5 11 6 6 6 5 8 6 7 5 2 9 8 10 5 5 6 7 7 5 1 4 5 6 4 10 4 4 6 6 5 6 3 4 8 3 4 6 2 5 5 7 8 5 4 4 10 11 6 10 4 5 4 2 7 6 4 4 4 5 5 5 1 3 9 7 5 6 8 6 8 8 3 4 5 7 2 5 3 2 5 9 5 2 4 4 1 3 5 7 5 9 2 6 5 5 2 6 3 13 4 5 7 5 12 2 9 4 4 4 7 7 9 3 6 4 8 3 2 6 6 6 3 6 5 4 5 5 6 6 7 6 5 6 7 8 4 7 6 3 8 4 3 3 4 6 7 8 5 2 4 6 5 5 3 6 5 9 6 7 5 6 8 9 3 6 12 2 3 5 3 9 6 5 3 3 5 7 9 4 6 4 9 11 13 5 4 7 10 5 3 2 8 2 6 6 7 7 2 5 6 4 3 5 8 6 4 5 5 10 4 5 4 1 8 2 7 10 3 5 4 1 9 2 9 1 3 3 3 5 9 7 8 6 9 3 7 11 8 5 6 9 3 4 2 5 11 7 1 3 5 4 5 5 6 1 6 10 3 9 8 4 5 5 1 8 7 3 5 4 5 5 6 5 5 7 7 3 11 7 11 4 7 5 3 4 6 7 6 5 4 5 5 6 8 5 7 7 3 3 7 4 5 7 8 4 8 5 10 9 6 10 6 7 4 8 4 5 7 5 7 7 9 3 7 9 8 5 7 6 4 7 2 4 6 4 10 5 7 4 10 8 6 3 4 10 3 2 6 7 8 5 2 2 8 4 5 8 6 6 5 6 6 4 8 8 8 8 7 4 8 5 6 10 5 6 2 7 6 3 10 4 11 5 6 6 4 8 4 5 6 6 5 5 4 8 9 10 1 2 9 7 6 6 8 8 5 8 13 6 5 7 5 1 6 7 6 5 7 4 7 8 5 6 5 10 5 6 7 5 8 7 4 6 4 8 7 8 3 5 5 8 6 7 4 5 2 6 4 6 4 6 2 0 5 8 5 11 3 7 5 8 4 4 4 5 6 7 6 9 4 7 7 3 7 6 4 8 4 3 5 1 11 7 5 6 5 4 5 2 4 4 8 4 3 6 3 9 6 4 5 1 6 4 7 8 8 8 7 5 5 6 6 6 3 2 4 4 7 1 7 6 6 7 4 6 5 7 11 4 0 12 3 3 2 5 7 3 8 6 2 8 3 7 5 5 2 5 9 8 12 7 5 6 9 8 9 4 8 11 7 8 2 7 8 2 3 6 6 6 5 4 7 8 6 5 8 4 4 3 6 8 6 4 3 5 4 3 3 7 4 9 8 6 3 11 5 7 4 5 3 6 3 9 4 7 4 9 4 2 4 6 1 2 7 2 4 3 10 6 7 4 5 8 4 8 3 3 5 6 4 4 6 7 11 7 4 5 5 3 4 9 5 8 5 4 5 5 9 4 7 5 11 10 6 7 4 6 7 3 4 5 3 8 8 9 4 6 7 3 5 5 3 7 6 5 8 8 6 3 4 8 5 5 9 8 6 5 6 3 3 4 5 6 5 3 6 11 8 4 4 3 8 7 5 4 9 8 6 10 8 2 5 2 8 8 4 5 6 9 3 9 2 4 6 7 6 4 3 3 10 8 10 4 5 6 4 4 3 4 3 5 12 8 9 4 8 3 5 2 3 6 6 4 5 9 3 6 6 4 6 5 5 3 7 3 7 6 7 4 3 6 5 6 3 4 4 4 7 3 7 9 9 7 3 5 6 3 7 5 5 5 6 2 5 2 3 6 8 7 5 4 2 7 5 3 4 6 9 8 8 10 5 4 4 5 9 4 6 6 6 9 2 12 4 4 3 7 3 8 9 9 10 4 2 8 4 7 6 4 3 6 4 4 3 7 7 6 2 8 3 6 4 6 7 1 6 7 3 8 6 9 2 7 5 6 8 8 5 7 5 6 4 5 1 8 5 6 5 3 2 5 5 7 5 8 6 7 5 3 6 7 6 3 4 5 3 4 2 2 4 3 4 5 5 5 3 7 5 4 9 6 4 9 3 7 5 6 7 7 4 10 5 9 9 6 5 5 6 12 10 7 6 5 9 5 6 7 6 5 7 2 6 4 8 7 6 8 7 10 9 12 7 5 5 13 7 4 4 4 4 2 6 5 7 6 2 5 4 10 11 5 7 4 7 10 4 6 7 6 6 7 5 6 5 8 13 4 5 8 8 5 3 5 7 5 2 8 3 6 6 4 9 8 7 6 2 4 6 5 7 3 6 4 14 8 9 4 5 2 6 2 5 3 6 4 4 6 6 6 2 3 6 8 8 1 6 7 5 5 4 10 5 12 3 4 6 9 8 5 6 5 4 8 4 10 6 3 2 2 6 7 7 6 10 7 8 6 5 3 6 7 4 6 6 10 6 7 12 9 3 8 8 9 3 5 5 8 5 7 4 5 7 1 6 6 2 6 7 12 6 6 5 6 5 11 7 5 7 2 9 5 6 9 1 4 3 8 5 6 12 4 7 4 8 9 5 7 4 7 5 6 5 5 9 6 11 8 4 7 3 8 4 9 7 9 7 11 5 8 3 7 6 9 3 3 5 7 9 8 11 9 2 4 6 5 5 13 6 9 3 4 6 4 2 5 7 6 5 3 6 7 3 6 4 6 6 5 8 7 1 5 6 4 4 3 6 4 9 5 4 3 10 5 6 4 4 4 9 7 6 8 3 6 4 1 6 4 8 8 2 6 5 4 6 4 7 7 4 4 7 6 6 3 5 7 4 5 7 3 7 7 6 8 6 5 5 11 7 8 7 4 7 8 4 5 6 3 4 7 3 3 10 7 8 5 7 3 4 3 3 4 8 8 4 7 6 9 4 7 7 5 6 9 2 7 8 7 7 5 8 8 4 5 5 5 3 4 5 8 5 3 7 4 6 7 4 5 5 3 2 7 5 4 3 6 5 1 5 5 3 7 4 7 3 2 4 4 6 13 3 3 8 3 3 5 5 1 5 5 4 4 5 4 2 4 7 8 4 4 4 2 2 6 7 5 3 4 6 5 8 1 4 3 10 7 5 7 4 4 3 5 3 4 5 3 4 4 5 8 7 6 4 7 5 3 6 5 8 5 6 7 3 3 4 4 8 1 2 3 4 8 9 2 7 5 7 5 6 7 4 4 4 8 10 0 5 4 9 7 9 5 11 1 6 10 7 6 6 2 5 4 7 3 8 4 7 6 5 4 6 4 5 3 4 2 1 4 2 7 2 6 4 7 2 6 3 3 8 4 6 4 4 8 8 6 7 6 4 6 4 5 8 3 3 5 6 4 4 5 8 4 4 4 3 7 5 4 7 6 8 3 4 5 7 6 3 4 8 7 6 2 4 8 4 6 7 2 7 4 3 3 9 3 8 6 4 4 8 5 10 4 5 3 4 6 11 6 6 4 3 3 3 3 5 2 11 1 6 2 6 4 4 3 3 6 5 2 1 3 8 3 5 6 4 3 7 6 4 4 6 7 7 8 2 5 8 2 6 11 4 1 2 8 11 3 7 7 9 5 6 7 6 7 6 7 8 4 0 5 3 5 8 6 7 8 10 4 6 2 7 4 8 5 7 7 9 6 4 7 9 7 4 5 6 7 4 6 6 3 11 3 9 5 13 7 3 5 8 4 4 4 6 3 3 8 8 4 6 3 6 2 4 11 6 3 4 3 3 7 4 2 4 7 11 3 4 5 8 8 7 5 11 9 4 2 9 5 6 8 4 3 11 5 3 8 5 5 15 4 9 6 7 4 6 3 3 8 7 
BTB PER SET COUNT: 2 1841 1041 1120 979 284 460 948 4 821 972 350 12 798 1079 225 661 142 1254 11 486 1410 964 508 556 482 321 278 614 958 784 89 237 1185 668 942 865 138 466 1609 9 1666 5 9 2965 950 159 232 163 1036 1689 469 1008 3 2 821 944 1073 686 67 1145 1031 224 264 177 3 323 249 5 1166 686 252 211 654 367 1532 3 783 1198 222 731 441 197 1475 867 150 770 3 667 1662 694 1069 1003 1230 12 52 252 4 189 671 547 1 361 163 68 196 72 641 662 948 382 2 150 1323 3 222 376 36 449 2641 402 577 1715 253 372 1198 4 484 861 2 87 476 7 329 588 604 236 123 936 774 8 659 1482 506 4 399 5 396 424 805 290 550 4 926 8 800 191 605 599 276 2 422 6 461 761 71 1 3 322 802 183 813 292 211 364 442 95 183 63 919 166 714 279 608 511 460 24 16 16 198 89 3 974 660 3 385 219 657 823 4 380 441 153 221 1 1097 3 520 664 4 4 3 974 620 263 449 968 312 332 205 208 986 353 1237 1940 1326 180 161 192 1684 323 200 235 5613 231 680 10 436 530 882 651 105 684 231 361 349 187 631 231 436 2 776 12 247 444 103 797 437 360 1 476 525 519 369 172 596 513 562 805 178 472 640 179 515 648 921 196 289 157 742 657 2 318 1003 2 436 1773 350 558 10 7 10 1268 627 935 215 48 77 488 193 1139 243 1399 482 188 4 678 58 544 103 190 4 785 345 5 455 20 677 353 18 640 451 252 372 1640 375 366 200 12 519 4 1791 180 771 202 203 972 368 249 631 7 352 350 5 731 335 4 816 2 274 299 194 356 2 729 5 347 638 800 191 1773 621 391 1101 282 2853 834 1345 11 2 734 519 2333 26 430 390 634 623 332 1 138 1259 127 548 897 270 6 460 90 255 386 5 700 422 114 5 1588 2 495 77 692 727 320 263 381 1258 2542 808 789 11 191 310 11 515 972 219 480 418 279 776 194 1 10 637 902 728 359 703 1231 415 1460 32 4 518 866 2 413 4 2 120 1940 321 2 12 420 1 4 38 705 413 1672 353 320 359 477 2 668 4 1560 224 1183 335 35 888 4 1115 364 212 4 655 391 645 3 530 1003 176 129 2 298 475 117 141 251 528 8 343 245 328 214 873 534 498 112 624 772 1003 1086 520 97 816 5 214 3 265 749 543 200 113 2 73 971 343 1111 1071 22 523 998 1421 1083 696 300 501 1488 3 452 2021 59 3 279 7 2436 707 180 21 3 114 545 662 621 268 341 623 1317 1671 570 1109 1133 1668 749 93 2 1274 927 710 448 671 1121 2 217 314 943 7592 353 857 499 8 1150 129 2104 597 246 314 1 1342 2 1147 1293 13 418 157 2 655 2 913 1 304 236 8 7 2390 752 409 855 1363 223 1783 819 766 353 221 915 3 605 98 203 779 1072 1 182 215 409 119 1218 384 1 337 1154 342 10794 811 336 289 466 1 652 345 497 185 557 460 511 1009 78 801 560 797 3 1077 608 2329 4 299 461 3 5 1119 206 186 215 750 738 384 311 966 101 422 413 274 3 116 505 486 347 100 268 824 6 1658 801 823 522 336 700 263 880 389 334 1267 301 847 1152 605 104 1521 534 1079 370 1065 130 124 540 2 427 967 197 1326 119 1782 387 1722 598 1345 3 12 1268 68 2 435 1471 650 380 3 255 943 94 934 489 367 381 141 370 538 752 782 495 852 909 891 1194 734 306 361 870 388 31 2 11 507 168 2504 15 2045 239 344 290 18 423 170 8 765 1540 344 258 279 259 690 798 1 2 768 607 303 302 91 237 22 726 2071 615 5 155 382 1 384 775 1044 298 593 387 621 747 117 184 255 786 8 682 633 332 1122 508 525 862 4 219 1083 218 200 359 171 155 58 638 794 353 3 159 4 333 174 426 2 0 245 956 554 1946 414 823 101 884 300 118 190 392 1039 370 505 1417 432 752 485 194 773 28 128 1367 170 16 472 15 1753 462 611 381 15 184 858 7 1064 9 560 40 250 415 9 1033 145 220 13 1 471 153 390 513 250 1511 245 943 175 770 280 437 6 2 35 1260 1173 1 943 392 947 547 121 15 622 234 1559 57 0 1783 46 104 2 5 674 497 969 835 236 913 195 874 881 221 134 55 122 377 959 659 255 663 632 712 968 200 651 1420 964 1628 11 92 609 212 14 1455 369 325 362 7 831 1345 428 249 483 214 183 134 1011 965 239 9 3 1139 275 3 19 296 4 1417 1101 524 6 2305 390 1464 22 1831 233 614 150 698 363 409 27 578 461 2 307 8 1 218 1270 2 66 98 1133 76 399 424 255 865 10 552 115 3 859 40 263 17 426 1002 1115 371 10 323 1697 3 13 595 386 692 1319 284 12 303 1186 1090 503 7 759 1348 383 530 143 238 1146 4 32 372 322 506 159 624 239 881 1304 3 133 779 3 932 595 551 827 565 423 1449 120 495 663 11 525 426 722 461 29 119 3 334 273 290 136 445 17 818 1893 300 4 3 682 533 494 530 565 876 698 415 562 2 441 2 1118 922 277 161 699 207 8 1215 2 200 381 507 372 12 52 42 681 980 1013 598 6 461 564 271 3 300 3 325 1991 691 1724 268 822 11 171 2 163 179 837 169 1207 739 14 9 681 4 285 331 9 450 120 3 877 433 426 6 6 140 545 527 6 454 222 191 817 4 347 943 10711 1215 279 717 14 4 580 68 393 94 461 2 208 2 902 41 1294 1261 141 52 2 630 297 363 5 217 396 121 856 904 5 422 414 102 1205 10 94 416 810 791 74 1482 325 321 251 275 292 1123 778 1048 574 207 2 1877 138 1050 383 447 165 512 69 6 5 864 733 1197 3 1081 256 696 4 295 1665 1 203 894 132 783 225 793 3 588 71 535 855 833 196 303 149 9 102 620 1 1297 258 10 446 186 2 381 468 69 395 591 201 26 132 107 391 366 517 3 260 447 6 11 118 2 19 3 245 5 7 597 19 471 193 255 632 408 213 1130 3 326 476 276 1135 808 359 1255 42 193 546 231 554 127 1367 2058 1360 83 869 259 1361 243 643 792 198 283 775 3 332 311 380 1052 566 452 1116 926 925 746 137 31 447 937 896 61 117 549 177 2 382 11 439 79 2 123 1495 443 1823 388 427 4 667 615 176 279 1065 485 268 640 686 250 466 1080 1161 176 505 1126 657 2441 3 295 211 16 2 724 4 12 216 499 569 804 616 99 2 241 273 202 731 3 204 257 1878 1259 511 386 129 2 682 2 673 251 236 192 262 9 257 314 194 4 159 453 509 1 349 550 28 15 4 951 256 368 79 13 423 945 225 113 509 15 412 938 56 1290 1071 215 232 100 901 1331 478 405 721 332 939 396 78 269 2095 1431 13 462 1983 1058 1064 977 551 960 141 414 1233 108 138 328 16 590 38 401 9 22 294 1 791 330 2 10 577 933 351 420 7 39 312 1658 472 244 17 2 1534 167 224 965 1 5 8 296 441 602 1432 259 656 394 581 867 629 65 213 32 255 440 213 316 567 450 1748 687 205 278 4 906 632 521 278 1543 958 1049 140 892 85 450 527 1937 271 11 941 72 758 969 1873 1387 2 82 1176 468 651 1290 511 1269 4 448 42 848 140 165 963 229 571 16 720 26 3 216 155 16 410 436 795 241 1 990 421 181 5 97 370 4 473 85 992 745 877 274 398 422 162 3857 874 432 409 952 12 81 368 1 572 323 1235 164 1427 480 138 88 572 17 309 984 21 213 444 172 398 3 549 501 135 182 699 121 396 203 424 376 656 703 530 1030 220 1415 416 6 493 1152 244 239 232 3 634 834 11 225 708 599 1114 190 778 137 5 3 193 285 563 1330 136 775 648 1271 34 271 32 5 745 704 132 779 1024 394 478 7 820 476 255 500 212 81 174 464 657 770 644 381 343 13 116 402 5 955 447 12 265 219 243 5 5 398 354 1 588 5 349 260 4 271 3 2 138 184 421 3052 91 320 973 3 245 302 17 1 276 510 176 34 364 82 3 7 934 994 122 4 41 3 156 652 510 409 204 4 340 402 341 1 280 7 1726 413 459 310 377 196 340 270 102 56 207 184 657 367 6 415 546 170 25 876 16 109 673 556 1228 235 452 831 3 3 6 105 538 1 2 6 673 432 1105 2 1103 320 408 725 750 1395 326 32 4 382 1257 0 329 80 718 216 2002 431 688 1 666 2765 537 319 260 2 1079 12 905 3 387 374 509 514 80 4 530 279 322 5 4 2 1 229 2 877 2 686 490 390 3 173 3 20 380 141 919 134 367 566 937 175 796 1027 109 499 117 208 1314 22 605 155 7 277 899 526 1178 338 450 291 288 299 1043 810 654 9 1325 7 458 354 674 16 4 250 975 1790 424 2 124 785 309 431 781 2 785 11487 289 114 1307 277 1197 764 4 365 1240 646 1268 588 473 457 12 586 1301 607 492 74 197 8 3 22 877 10 955 1 430 637 227 4 260 278 190 253 349 2 1 3 1141 7 131 750 547 73 1209 427 88 186 1224 106 320 802 2 415 1178 5 598 1080 111 3 2 529 738 7 400 633 1262 51 291 611 341 558 101 1326 452 189 0 474 305 388 1215 228 563 1277 213 331 106 2 748 218 609 790 340 371 1674 564 1210 1116 1218 1009 212 214 598 3103 783 323 618 508 1589 3 682 429 1549 47 212 422 1117 244 582 489 173 66 128 1076 1462 489 597 64 589 2 278 300 524 3 266 522 439 732 255 6 87 366 1484 203 179 5 1176 453 768 310 1790 351 844 2 986 1493 146 475 7 4 1808 23 184 444 498 299 2611 203 1153 162 642 478 30 87 323 752 930 
To predecode: 0
Predecoding something: 0
Predecode request dropped: 0
sizeofblock_0 0
sizeofblock_1 496931
sizeofblock_2 145171
sizeofblock_3 27111
sizeofblock_4 6971
sizeofblock_5 0
sizeofblock_6 0
sizeofblock_7 0
sizeofblock_8 0
Variant_0 Correct: 1305556 Incorrect: 0 Accuracy: 1
Variant_1 Correct: 1820257 Incorrect: 0 Accuracy: 1
Variant_2 Correct: 3342245 Incorrect: 0 Accuracy: 1
Variant_3 Correct: 0 Incorrect: 0 Accuracy: -nan
