Set 35: way: 00
Set 35: way: 11
Set 35: way: 22
Set 35: way: 33

*** ChampSim Multicore Out-of-Order Simulator ***

Warmup Instructions: 50000000
Simulation Instructions: 50000000
Number of CPUs: 1
LLC sets: 2048
LLC ways: 16
Off-chip DRAM Size: 4096 MB Channels: 1 Width: 64-bit Data Rate: 6400 MT/s
CPU 0 runs ./micro_traces/srv115.trace.gz
.gz
ITLB has LRU replacement policy
DTLB has LRU replacement policy
STLB has LRU replacement policy
L1I has LRU replacement policy
L1D has LRU replacement policy
Initialize SRRIP state for L2C
Initialize DRRIP state for LLC
Heartbeat CPU 0 instructions: 10000001 cycles: 2796392 heartbeat IPC: 3.57604 cumulative IPC: 3.57604 (Simulation time: 0 hr 1 min 35 sec) 
Heartbeat CPU 0 instructions: 20000003 cycles: 5593192 heartbeat IPC: 3.57552 cumulative IPC: 3.57578 (Simulation time: 0 hr 3 min 12 sec) 
Heartbeat CPU 0 instructions: 30000000 cycles: 8388593 heartbeat IPC: 3.5773 cumulative IPC: 3.57629 (Simulation time: 0 hr 4 min 50 sec) 
Heartbeat CPU 0 instructions: 40000000 cycles: 11184333 heartbeat IPC: 3.57687 cumulative IPC: 3.57643 (Simulation time: 0 hr 6 min 30 sec) 
Heartbeat CPU 0 instructions: 50000002 cycles: 13980105 heartbeat IPC: 3.57683 cumulative IPC: 3.57651 (Simulation time: 0 hr 8 min 8 sec) 

Warmup complete CPU 0 instructions: 50000002 cycles: 13980105 (Simulation time: 0 hr 8 min 8 sec) 

Cycle: 20000000 FTQ IN: 56988643 FTQ occupancy: 17.8376 DECODE IN: 56988643 DECODE occupancy: 45.8922 ROB IN: 56988643 ROB occupancy: 280.917 ROB OUT: 56988637
Heartbeat CPU 0 instructions: 60000003 cycles: 22592820 heartbeat IPC: 1.16107 cumulative IPC: 1.16107 (Simulation time: 0 hr 9 min 30 sec) 
Cycle: 30000000 FTQ IN: 11613048 FTQ occupancy: 5.84287 DECODE IN: 11612905 DECODE occupancy: 13.0158 ROB IN: 11612845 ROB occupancy: 124.238 ROB OUT: 11612658
Heartbeat CPU 0 instructions: 70000002 cycles: 31293248 heartbeat IPC: 1.14937 cumulative IPC: 1.15519 (Simulation time: 0 hr 10 min 50 sec) 
Heartbeat CPU 0 instructions: 80000002 cycles: 39925176 heartbeat IPC: 1.15849 cumulative IPC: 1.15629 (Simulation time: 0 hr 12 min 9 sec) 
Cycle: 40000000 FTQ IN: 11481286 FTQ occupancy: 6.05975 DECODE IN: 11481417 DECODE occupancy: 13.47 ROB IN: 11481461 ROB occupancy: 124.085 ROB OUT: 11481525
Heartbeat CPU 0 instructions: 90000000 cycles: 48527360 heartbeat IPC: 1.1625 cumulative IPC: 1.15783 (Simulation time: 0 hr 13 min 32 sec) 
Cycle: 50000000 FTQ IN: 11512949 FTQ occupancy: 6.02634 DECODE IN: 11512961 DECODE occupancy: 13.4241 ROB IN: 11512973 ROB occupancy: 124.293 ROB OUT: 11513065
Heartbeat CPU 0 instructions: 100000002 cycles: 57210429 heartbeat IPC: 1.15167 cumulative IPC: 1.1566 (Simulation time: 0 hr 14 min 50 sec) 
Finished CPU 0 instructions: 50000000 cycles: 43230324 cumulative IPC: 1.1566 (Simulation time: 0 hr 14 min 50 sec) 

ChampSim completed all CPUs

Region of Interest Statistics

CPU 0 cumulative IPC: 1.1566 instructions: 50000000 cycles: 43230324
 Fetch stage stalled: 72.4724  Sim cycles: 43230324 fetch stall cycle: 31330045
 Empty decode stage: 67.1005  Sim cycles: 43230324 fetch stall cycle: 29007748
ITLB TOTAL     ACCESS:    9171948  HIT:    8673299  MISS:     498649  HIT %:    94.5633  MISS %:    5.43667   MPKI: 9.97298
ITLB LOAD TRANSLATION INSTRUCTION	ACCESS:    5885044  HIT:    5463731  MISS:     421313  HIT %:     92.841  MISS %:    7.15905  MPKI: 8.42626
ITLB TRANSLATION FROM L1D PREFETCHER INSTRUCTION	ACCESS:    3286904  HIT:    3209568  MISS:      77336  HIT %:    97.6471  MISS %:    2.35285  MPKI: 1.54672

ITLB AVERAGE MISS LATENCY: 2.90415e+07 cycles
ITLB RQ	ACCESS:   11258286	FORWARD:          0	MERGED:    1318417	TO_CACHE:    9939869

DTLB TOTAL     ACCESS:    9401510  HIT:    8929364  MISS:     472146  HIT %:     94.978  MISS %:    5.02202   MPKI: 9.44292
DTLB LOAD TRANSLATION DATA	ACCESS:    9401510  HIT:    8929364  MISS:     472146  HIT %:     94.978  MISS %:    5.02202  MPKI: 9.44292

DTLB AVERAGE MISS LATENCY: 9.31277 cycles
DTLB RQ	ACCESS:   13676530	FORWARD:          0	MERGED:    4242992	TO_CACHE:    9433538

STLB TOTAL     ACCESS:    1222754  HIT:    1220720  MISS:       2034  HIT %:    99.8337  MISS %:   0.166346   MPKI: 0.04068
STLB LOAD TRANSLATION INSTRUCTION	ACCESS:      15732  HIT:      15722  MISS:         10  HIT %:    99.9364  MISS %:  0.0635647  MPKI: 0.0002
STLB TRANSLATION FROM L1D PREFETCHER INSTRUCTION	ACCESS:     482917  HIT:     482713  MISS:        204  HIT %:    99.9578  MISS %:  0.0422433  MPKI: 0.00408
STLB LOAD TRANSLATION DATA	ACCESS:     472109  HIT:     470318  MISS:       1791  HIT %:    99.6206  MISS %:   0.379362  MPKI: 0.03582
STLB TRANSLATION FROM L1D PREFETCHER DATA	ACCESS:     251996  HIT:     251967  MISS:         29  HIT %:    99.9885  MISS %:  0.0115081  MPKI: 0.00058

STLB AVERAGE MISS LATENCY: 69.9739 cycles
STLB RQ	ACCESS:    1341525	FORWARD:          0	MERGED:     118734	TO_CACHE:    1222791

STLB Hit, L1D data hit: 0
STLB Hit, L2C data hit: 0
STLB Hit, LLC data hit: 0
STLB Hit, LLC data miss: 0
STLB STLB hints to L2: 0
L1D TOTAL     ACCESS:   13442001  HIT:   12329391  MISS:    1112610  HIT %:    91.7229  MISS %:    8.27712   MPKI: 22.2522
L1D LOAD DATA	ACCESS:    6867329  HIT:    6133333  MISS:     733996  HIT %:    89.3118  MISS %:    10.6882  MPKI: 14.6799
L1D RFO DATA	ACCESS:    6247575  HIT:    5962403  MISS:     285172  HIT %:    95.4355  MISS %:    4.56452  MPKI: 5.70344
L1D PREFETCH DATA	ACCESS:     327097  HIT:     233655  MISS:      93442  HIT %:    71.4329  MISS %:    28.5671  MPKI: 1.86884

L1D PREFETCH  REQUESTED:     741762  ISSUED:     741762  USEFUL:      34845  USELESS:      68920
L1D USEFUL LOAD PREFETCHES:      34845 PREFETCH ISSUED TO LOWER LEVEL:     103805  ACCURACY: 33.5677
 TIMELY PREFETCHES:      34845 LATE PREFETCHES: 10324 DROPPED PREFETCHES: 5
L1D AVERAGE MISS LATENCY: 340677 cycles
L1D RQ	ACCESS:   10901771	FORWARD:          0	MERGED:    3830644	TO_CACHE:    6904224
L1D WQ	ACCESS:    6945943	FORWARD:     167205	MERGED:     173637	TO_CACHE:    6772306
L1D PQ	ACCESS:     371032	FORWARD:          0	MERGED:          0	TO_CACHE:     370730

L1D UNIQUE REGIONS ACCESSED: 0
L1D REGIONS CONFLICTS: 0
L1D Cross Page Prefetch Requests: 7056
L1D Same Page Prefetch Requests: 749799
L1D ROI Sum of L1D PQ occupancy: 4703466
L1D PREFETCHES PUSHED FROM L2C: 0
L1I TOTAL     ACCESS:    9788956  HIT:    7022042  MISS:    2766914  HIT %:    71.7343  MISS %:    28.2657   MPKI: 55.3383
L1I LOAD INSTRUCTION	ACCESS:    6743300  HIT:    4237065  MISS:    2506235  HIT %:    62.8337  MISS %:    37.1663  MPKI: 50.1247
L1I PREFETCH INSTRUCTION	ACCESS:    3045656  HIT:    2784977  MISS:     260679  HIT %:     91.441  MISS %:    8.55904  MPKI: 5.21358

L1I PREFETCH  REQUESTED:    4599954  ISSUED:    4599954  USEFUL:    1027741  USELESS:       1920
L1I USEFUL LOAD PREFETCHES:    1027741 PREFETCH ISSUED TO LOWER LEVEL:    1029662  ACCURACY: 99.8134
 TIMELY PREFETCHES:    1027741 LATE PREFETCHES: 768982 DROPPED PREFETCHES: 0
L1I AVERAGE MISS LATENCY: 9.90818e+06 cycles
L1I RQ	ACCESS:    9444669	FORWARD:          0	MERGED:    2541770	TO_CACHE:    6902899
L1I PQ	ACCESS:    4599954	FORWARD:          0	MERGED:     244567	TO_CACHE:    4355387

BTB TOTAL     ACCESS:    6784191  HIT:    6246389  MISS:     463299  MISS TARGET:      74503  HIT %:    92.0727  MISS %:     6.8291   MPKI: 9.26598
BTB BRANCH_DIRECT_JUMP	ACCESS:     548559  HIT:     510375  MISS:      32189  MISS TARGET:       5995	AVERAGE STALL: 30.6855
BTB BRANCH_INDIRECT	ACCESS:     183053  HIT:     168005  MISS:       2576  MISS TARGET:      12472	AVERAGE STALL: 73.8525
BTB BRANCH_CONDITIONAL	ACCESS:    3817908  HIT:    3514389  MISS:     303491  MISS TARGET:         28	AVERAGE STALL: 33.7811
BTB BRANCH_DIRECT_CALL	ACCESS:     945267  HIT:     866641  MISS:      78626  MISS TARGET:          0	AVERAGE STALL: 36.0799
BTB BRANCH_INDIRECT_CALL	ACCESS:     172067  HIT:     141699  MISS:      12247  MISS TARGET:      18121	AVERAGE STALL: 111.691
BTB BRANCH_RETURN	ACCESS:    1117337  HIT:    1045280  MISS:      34170  MISS TARGET:      37887	AVERAGE STALL: 34.2757
BTB BRANCH_OTHER ACCESS:          0  HIT:          0  MISS:          0  MISS TARGET:          0	AVERAGE STALL: -nan
L2C TOTAL     ACCESS:    5394553  HIT:    4762441  MISS:     632112  HIT %:    88.2824  MISS %:    11.7176   MPKI: 12.6422
L2C LOAD INSTRUCTION	ACCESS:    1737254  HIT:    1548210  MISS:     189044  HIT %:    89.1182  MISS %:    10.8818  MPKI: 3.78088
L2C PREFETCH INSTRUCTION	ACCESS:    1029661  HIT:     910712  MISS:     118949  HIT %:    88.4478  MISS %:    11.5522  MPKI: 2.37898
L2C LOAD TRANSLATION INSTRUCTION	ACCESS:         12  HIT:          3  MISS:          9  HIT %:         25  MISS %:         75  MPKI: 0.00018
L2C TRANSLATION FROM L1D PREFETCHER INSTRUCTION	ACCESS:        226  HIT:         65  MISS:        161  HIT %:    28.7611  MISS %:    71.2389  MPKI: 0.00322
L2C LOAD DATA	ACCESS:     723639  HIT:     630706  MISS:      92933  HIT %:    87.1575  MISS %:    12.8425  MPKI: 1.85866
L2C RFO DATA	ACCESS:     285104  HIT:     222101  MISS:      63003  HIT %:    77.9017  MISS %:    22.0983  MPKI: 1.26006
L2C PREFETCH DATA	ACCESS:    1097390  HIT:     949987  MISS:     147403  HIT %:    86.5679  MISS %:    13.4321  MPKI: 2.94806
L2C WRITEBACK DATA	ACCESS:     519362  HIT:     500165  MISS:      19197  HIT %:    96.3037  MISS %:    3.69627  MPKI: 0.38394
L2C LOAD TRANSLATION DATA	ACCESS:       1856  HIT:        459  MISS:       1397  HIT %:    24.7306  MISS %:    75.2694  MPKI: 0.02794
L2C TRANSLATION FROM L1D PREFETCHER DATA	ACCESS:         49  HIT:         33  MISS:         16  HIT %:    67.3469  MISS %:    32.6531  MPKI: 0.00032

L2C PREFETCH  REQUESTED:    1103744  ISSUED:    1103744  USEFUL:      35516  USELESS:     243081
L2C USEFUL LOAD PREFETCHES:      35516 PREFETCH ISSUED TO LOWER LEVEL:     278017  ACCURACY: 12.7748
 TIMELY PREFETCHES:      35516 LATE PREFETCHES: 11665 DROPPED PREFETCHES: 0
L2C AVERAGE MISS LATENCY: 35.9567 cycles
L2C RQ	ACCESS:    2748203	FORWARD:          0	MERGED:          0	TO_CACHE:    2748141
L2C WQ	ACCESS:     519362	FORWARD:         62	MERGED:          0	TO_CACHE:     519362
L2C PQ	ACCESS:    2237211	FORWARD:          0	MERGED:      63562	TO_CACHE:    2173649

L2C Dense regions hint from L2: 0
PSCL5 TOTAL     ACCESS:       4084  HIT:       2042  MISS:       2042  HIT %:         50  MISS %:         50   MPKI: 0.04084
PSCL5 LOAD TRANSLATION INSTRUCTION	ACCESS:       3578  HIT:       1789  MISS:       1789  HIT %:         50  MISS %:         50  MPKI: 0.03578
PSCL5 TRANSLATION FROM L1D PREFETCHER INSTRUCTION	ACCESS:        506  HIT:        253  MISS:        253  HIT %:         50  MISS %:         50  MPKI: 0.00506


PSCL4 TOTAL     ACCESS:       3705  HIT:       1847  MISS:       1858  HIT %:    49.8516  MISS %:    50.1484   MPKI: 0.03716
PSCL4 LOAD TRANSLATION INSTRUCTION	ACCESS:       1615  HIT:       1615  MISS:          0  HIT %:        100  MISS %:          0  MPKI: 0
PSCL4 TRANSLATION FROM L1D PREFETCHER INSTRUCTION	ACCESS:        232  HIT:        232  MISS:          0  HIT %:        100  MISS %:          0  MPKI: 0
PSCL4 LOAD TRANSLATION DATA	ACCESS:       1626  HIT:          0  MISS:       1626  HIT %:          0  MISS %:        100  MPKI: 0.03252
PSCL4 TRANSLATION FROM L1D PREFETCHER DATA	ACCESS:        232  HIT:          0  MISS:        232  HIT %:          0  MISS %:        100  MPKI: 0.00464


PSCL3 TOTAL     ACCESS:       3717  HIT:       1853  MISS:       1864  HIT %:     49.852  MISS %:     50.148   MPKI: 0.03728
PSCL3 LOAD TRANSLATION INSTRUCTION	ACCESS:       1621  HIT:       1621  MISS:          0  HIT %:        100  MISS %:          0  MPKI: 0
PSCL3 TRANSLATION FROM L1D PREFETCHER INSTRUCTION	ACCESS:        232  HIT:        232  MISS:          0  HIT %:        100  MISS %:          0  MPKI: 0
PSCL3 LOAD TRANSLATION DATA	ACCESS:       1632  HIT:          0  MISS:       1632  HIT %:          0  MISS %:        100  MPKI: 0.03264
PSCL3 TRANSLATION FROM L1D PREFETCHER DATA	ACCESS:        232  HIT:          0  MISS:        232  HIT %:          0  MISS %:        100  MPKI: 0.00464


PSCL2 TOTAL     ACCESS:       4004  HIT:       1962  MISS:       2042  HIT %:     49.001  MISS %:     50.999   MPKI: 0.04084
PSCL2 LOAD TRANSLATION INSTRUCTION	ACCESS:       1763  HIT:       1731  MISS:         32  HIT %:    98.1849  MISS %:    1.81509  MPKI: 0.00064
PSCL2 TRANSLATION FROM L1D PREFETCHER INSTRUCTION	ACCESS:        413  HIT:        231  MISS:        182  HIT %:    55.9322  MISS %:    44.0678  MPKI: 0.00364
PSCL2 LOAD TRANSLATION DATA	ACCESS:       1779  HIT:          0  MISS:       1779  HIT %:          0  MISS %:        100  MPKI: 0.03558
PSCL2 TRANSLATION FROM L1D PREFETCHER DATA	ACCESS:         49  HIT:          0  MISS:         49  HIT %:          0  MISS %:        100  MPKI: 0.00098


LLC TOTAL     ACCESS:     705692  HIT:     678061  MISS:      27631  HIT %:    96.0846  MISS %:    3.91545   MPKI: 0.55262
LLC LOAD INSTRUCTION	ACCESS:     177865  HIT:     177539  MISS:        326  HIT %:    99.8167  MISS %:   0.183285  MPKI: 0.00652
LLC PREFETCH INSTRUCTION	ACCESS:     117038  HIT:     116839  MISS:        199  HIT %:      99.83  MISS %:    0.17003  MPKI: 0.00398
LLC LOAD TRANSLATION INSTRUCTION	ACCESS:          9  HIT:          7  MISS:          2  HIT %:    77.7778  MISS %:    22.2222  MPKI: 4e-05
LLC TRANSLATION FROM L1D PREFETCHER INSTRUCTION	ACCESS:        161  HIT:        142  MISS:         19  HIT %:    88.1988  MISS %:    11.8012  MPKI: 0.00038
LLC LOAD DATA	ACCESS:      92460  HIT:      88921  MISS:       3539  HIT %:    96.1724  MISS %:     3.8276  MPKI: 0.07078
LLC RFO DATA	ACCESS:      62983  HIT:      49800  MISS:      13183  HIT %:     79.069  MISS %:     20.931  MPKI: 0.26366
LLC PREFETCH DATA	ACCESS:     160979  HIT:     150970  MISS:      10009  HIT %:    93.7824  MISS %:    6.21758  MPKI: 0.20018
LLC WRITEBACK DATA	ACCESS:      92784  HIT:      92506  MISS:        278  HIT %:    99.7004  MISS %:   0.299621  MPKI: 0.00556
LLC LOAD TRANSLATION DATA	ACCESS:       1397  HIT:       1321  MISS:         76  HIT %:    94.5598  MISS %:    5.44023  MPKI: 0.00152
LLC TRANSLATION FROM L1D PREFETCHER DATA	ACCESS:         16  HIT:         16  MISS:          0  HIT %:        100  MISS %:          0  MPKI: 0

LLC AVERAGE MISS LATENCY: 157.075 cycles
LLC RQ	ACCESS:     334898	FORWARD:          0	MERGED:          0	TO_CACHE:     334891
LLC WQ	ACCESS:      92784	FORWARD:          7	MERGED:          0	TO_CACHE:      92784
LLC PQ	ACCESS:     278017	FORWARD:          0	MERGED:          0	TO_CACHE:     278017

LLC Dense regions hint to LLC: 0

RAW hits: 1731698
Loads Generated: 12633469
Loads sent to L1D: 10901771
Stores Generated: 6945939
Stores sent to L1D: 6945943
Major fault: 0 Minor fault: 2559
Allocated PAGES: 2559

stream: 
stream:times selected: 1185967
stream:pref_filled: 120580
stream:pref_useful: 22712
stream:pref_late: 8907
stream:misses: 8104
stream:misses_by_poll: 0

CS: 
CS:times selected: 179381
CS:pref_filled: 57882
CS:pref_useful: 34738
CS:pref_late: 10114
CS:misses: 18521
CS:misses_by_poll: 5

CPLX: 
CPLX:times selected: 1005465
CPLX:pref_filled: 19380
CPLX:pref_useful: 3784
CPLX:pref_late: 4026
CPLX:misses: 96111
CPLX:misses_by_poll: 1

NL_L1: 
NL:times selected: 21071
NL:pref_filled: 699
NL:pref_useful: 256
NL:pref_late: 405
NL:misses: 1762
NL:misses_by_poll: 0

total selections: 2391884
total_filled: 93442
total_useful: 34845
total_late: 24799
total_polluted: 6
total_misses_after_warmup: 770891
conflicts: 5665727

test: 117415

DRAM Statistics
 CHANNEL 0
 RQ ROW_BUFFER_HIT:       9751  ROW_BUFFER_MISS:      17601
 DBUS_CONGESTED:          3
 WQ ROW_BUFFER_HIT:       1297  ROW_BUFFER_MISS:      11917  FULL:          0

 AVG_CONGESTED_CYCLE: 5

CPU 0 Branch Prediction Accuracy: 99.8238% MPKI: 0.3225 Average ROB Occupancy at Mispredict: 148.558
Branch types
NOT_BRANCH: 40850082 81.7002%
BRANCH_DIRECT_JUMP: 548559 1.09712%
BRANCH_INDIRECT: 183053 0.366106%
BRANCH_CONDITIONAL: 6183301 12.3666%
BRANCH_DIRECT_CALL: 945267 1.89053%
BRANCH_INDIRECT_CALL: 172067 0.344134%
BRANCH_RETURN: 1117337 2.23467%
BRANCH_OTHER: 0 0%

DRAM PAGES: 1048576
Allocated PAGES: 2559
Average_ROB_Occupancy: 125.286
Average_Decode_Occupancy: 13.2295
Average_FTQ_Occupancy: 5.93787
Indirect max targets: 14 Average targets: 1.15282
Branch_type:  BRANCH_DIRECT_JUMP:  Count Percentage: 5.30489 5.78692 3.60888 3.01027 2.76597 11.1281 6.97181 61.4231 
Branch_type:  BRANCH_INDIRECT:  Count Percentage: 16.3955 0.803001 10.6147 0 1.33606 27.834 15.4729 27.5438 
Branch_type:  BRANCH_CONDITIONAL:  Count Percentage: 26.4922 2.48251 1.71658 5.80978 1.20284 8.10197 3.38926 50.8049 
Branch_type:  BRANCH_DIRECT_CALL:  Count Percentage: 0.884897 1.26771 0.428699 2.31331 2.25423 3.48051 2.50787 86.8628 
Branch_type:  BRANCH_INDIRECT_CALL:  Count Percentage: 9.5499 0 2.99351 0.00174923 0.000583075 2.37428 0.99735 84.0826 
Branch_type:  BRANCH_RETURN:  Count Percentage: 9.96528 1.41949 1.35702 5.36056 1.75358 10.4956 3.15855 66.4899 
Branch_type:  BRANCH_DIRECT_JUMP:  Total Count: 58153 63437 39561 32999 30321 121988 76426 673329 
Branch_type:  BRANCH_INDIRECT:  Total Count: 60008 2939 38850 0 4890 101873 56631 100811 
Branch_type:  BRANCH_CONDITIONAL:  Total Count: 3274443 306839 212170 718090 148671 1001405 418913 6279494 
Branch_type:  BRANCH_DIRECT_CALL:  Total Count: 16701 23926 8091 43660 42545 65689 47332 1639394 
Branch_type:  BRANCH_INDIRECT_CALL:  Total Count: 32757 0 10268 6 2 8144 3421 288411 
Branch_type:  BRANCH_RETURN:  Total Count: 222340 31671 30277 119602 39125 234173 70472 1483487 
To Predecode: 22801425 Predecode_something: 33997588 Conditional: 14595227 Direct call: 8440085 Direct Branch: 3780716
Number of unique branch instructions: 9958
Upper 32 bits: 
aaaa
ffff
ffff0000
Unique upper 32 bits: 3
Unique upper 36 bits: 3
Unique upper 40 bits: 5
Unique upper 44 bits: 32
Unique upper 48 bits: 156
Offset_3 4093
Offset_4 255
Offset_5 462
Offset_6 508
Offset_7 575
Offset_8 514
Offset_9 475
Offset_10 382
Offset_11 305
Offset_12 275
Offset_13 206
Offset_14 227
Offset_15 190
Offset_16 219
Offset_17 151
Offset_18 118
Offset_19 237
Offset_20 140
Offset_21 265
Offset_22 391
Offset_23 241
Offset_24 338
Offset_25 88
Offset_47 84
Offset_64 1
decode_dispatch_called: 21966185 50.812
Dispatch_width: 0 11595427 52.7876 26.8224
Dispatch_width: 1 611631 2.78442 1.41482
Dispatch_width: 2 881675 4.01378 2.03948
Dispatch_width: 3 555491 2.52885 1.28496
Dispatch_width: 4 1782257 8.11364 4.1227
Dispatch_width: 5 408926 1.86162 0.945924
Dispatch_width: 6 6130778 27.9101 14.1817
Empty_decode_cycles: 21264139 49.188
ROB_full_cycles: 2188078 5.06144
Starvation_cycles_per_kilo_instr: 349.115
Starvation_cycles_per_kilo_instr_3: 327.203
Starvation_cycles_per_kilo_instr_0: 306.715
Branch_type_1  (3,1)  (4,8)  (5,38)  (6,72)  (7,112)  (8,132)  (9,128)  (10,99)  (11,67)  (12,43)  (13,8)  (14,2)  (15,3)  (16,4)  (18,1)  (19,4)  (20,2)  (21,1)  (22,3)  (23,2)  (24,10)  (25,12) 
Branch_type_2  (3,1)  (5,1)  (8,3)  (9,3)  (12,1)  (13,1)  (14,1)  (16,3)  (17,2)  (20,2)  (21,2)  (23,5)  (24,1)  (47,38) 
Branch_type_3  (3,4091)  (4,247)  (5,419)  (6,421)  (7,431)  (8,319)  (9,261)  (10,152)  (11,120)  (12,50)  (13,7) 
Branch_type_4  (6,3)  (7,8)  (8,26)  (9,51)  (10,61)  (11,61)  (12,97)  (13,87)  (14,100)  (15,89)  (16,98)  (17,68)  (18,53)  (19,114)  (20,71)  (21,144)  (22,208)  (23,136)  (24,190)  (25,72) 
Branch_type_5  (8,2)  (9,1)  (10,4)  (11,5)  (12,3)  (13,14)  (14,16)  (15,11)  (16,20)  (17,11)  (18,16)  (19,13)  (20,12)  (21,13)  (22,42)  (23,26)  (24,40) 
Branch_type_6  (5,4)  (6,12)  (7,24)  (8,32)  (9,31)  (10,66)  (11,52)  (12,81)  (13,89)  (14,108)  (15,87)  (16,94)  (17,70)  (18,48)  (19,106)  (20,53)  (21,105)  (22,138)  (23,72)  (24,97)  (25,4)  (47,46)  (64,1) 
Unique trigger count: 
UBTB set used: 961
CBTB set used: 512
RIB set used: 460
UBTB PER SET UNIQUE ADDR: 5 4 3 3 3 3 4 4 4 2 1 6 3 4 3 3 0 1 2 0 4 1 3 2 3 1 0 4 2 4 2 4 2 2 3 1 3 5 1 3 2 1 3 0 6 1 4 4 2 2 3 2 4 0 3 4 4 1 4 0 2 4 5 0 3 4 1 3 2 4 3 1 5 3 2 1 5 1 2 6 2 6 5 1 4 0 2 2 3 2 2 3 4 1 4 5 5 4 7 0 7 6 1 4 2 4 6 2 3 2 5 5 4 5 3 2 1 2 2 5 0 5 0 4 2 3 2 1 7 3 2 2 5 2 1 3 5 2 3 5 4 1 3 2 1 3 2 1 4 0 5 3 2 5 4 2 6 3 5 4 3 4 4 4 4 1 3 3 2 2 0 3 3 1 2 0 3 5 0 3 3 3 1 2 4 2 2 3 3 3 1 4 6 1 3 3 3 2 2 1 2 5 0 1 4 1 2 3 1 0 3 2 4 2 1 4 1 3 1 3 2 0 2 3 2 0 3 4 3 4 3 1 4 2 2 4 4 3 1 6 2 3 4 3 2 1 3 3 1 5 2 4 0 2 2 1 4 1 1 1 4 1 2 4 4 2 0 5 2 0 0 3 2 3 4 1 5 6 2 5 5 2 2 2 3 1 4 2 6 1 4 0 4 3 6 0 2 2 1 1 3 3 4 1 1 0 2 0 0 0 3 1 3 4 2 3 4 2 3 2 3 3 4 3 1 2 4 2 1 3 4 4 4 1 5 3 4 2 1 2 6 5 2 3 1 2 4 3 2 3 2 3 2 1 3 4 3 1 1 0 2 1 1 2 4 2 3 1 4 1 5 4 3 0 0 2 1 0 3 4 3 2 3 1 1 3 1 5 2 2 1 4 3 3 1 7 1 2 1 3 2 6 4 2 3 6 2 4 2 4 2 4 5 3 3 0 3 2 3 3 0 3 0 1 2 2 3 3 3 1 3 1 2 3 1 4 4 1 5 5 2 3 1 3 4 6 2 5 1 2 3 2 1 3 1 2 3 5 5 5 6 3 3 7 4 1 0 4 2 3 1 1 4 3 3 4 2 4 1 1 3 1 1 3 6 3 2 2 0 1 3 1 2 5 1 2 2 2 5 5 7 2 3 3 2 4 2 2 2 3 2 4 4 3 2 4 2 3 5 2 3 4 1 2 0 2 1 3 3 4 5 4 2 2 3 3 4 4 2 2 6 1 7 2 1 2 2 5 7 4 2 2 1 3 1 6 2 0 2 1 7 2 2 2 3 1 2 5 3 3 1 0 1 3 4 2 4 3 7 2 4 2 4 2 4 3 2 3 3 5 4 5 1 1 4 1 3 3 3 5 3 3 6 2 5 3 5 4 2 2 6 6 2 5 2 6 1 1 1 7 4 1 4 3 1 4 1 2 3 1 3 2 7 3 3 2 4 2 3 3 5 2 1 0 3 2 1 3 0 1 2 3 3 1 2 4 3 2 1 2 3 6 5 1 2 2 0 2 2 3 2 1 1 2 1 2 5 4 4 1 4 3 2 5 3 2 0 4 0 0 2 3 0 2 1 1 2 3 2 1 3 3 2 2 2 1 3 4 4 1 2 6 2 3 1 4 2 3 3 4 1 2 1 1 1 3 4 3 2 2 2 2 2 1 2 5 4 5 1 3 3 4 0 1 5 6 3 3 6 3 5 5 4 2 2 3 3 4 1 2 2 4 3 2 3 2 0 3 4 4 4 4 2 2 1 1 3 4 1 2 3 2 2 3 3 0 3 3 4 1 1 3 4 1 2 1 3 0 3 3 6 2 1 2 2 4 0 0 2 1 2 5 0 5 1 0 5 1 3 6 2 3 2 3 2 1 2 3 1 1 5 1 2 1 0 1 6 1 4 1 1 2 3 2 4 3 0 4 2 4 2 6 3 4 2 2 7 1 2 7 4 4 3 6 1 2 2 3 4 4 4 3 4 2 2 6 5 2 2 1 2 2 5 2 2 3 4 2 2 4 2 4 4 5 5 2 4 1 3 4 4 2 7 4 4 4 2 5 1 2 3 1 3 6 4 4 2 1 3 3 5 2 2 4 5 4 3 3 1 1 2 6 2 1 5 5 3 1 4 4 4 1 1 4 3 1 5 1 2 6 3 1 3 3 1 5 4 5 1 6 4 4 5 3 5 4 1 3 1 0 0 4 4 1 1 2 4 2 4 6 1 2 2 2 2 3 2 4 2 5 1 2 7 2 1 5 3 2 1 1 1 4 4 0 2 1 4 4 3 3 2 3 0 3 4 2 0 5 5 2 8 3 7 2 
CBTB PER SET UNIQUE ADDR: 9 15 12 10 11 10 10 5 12 6 13 8 6 5 11 9 8 10 8 9 11 6 6 10 12 13 12 10 8 8 9 5 17 9 9 11 8 8 13 9 10 10 7 9 9 18 9 13 12 13 7 13 11 6 9 10 8 12 11 8 5 14 11 6 9 12 10 10 11 10 10 8 7 11 10 10 14 11 8 11 8 12 7 8 11 11 10 14 8 10 13 8 10 12 11 8 10 13 13 12 6 19 8 13 8 11 14 12 12 14 6 10 12 13 10 10 10 12 14 11 10 7 6 12 9 14 7 8 8 12 13 21 8 7 7 9 8 9 13 11 9 10 10 6 11 12 6 12 15 8 15 18 4 8 10 4 9 5 9 7 7 4 13 13 5 6 6 5 12 7 11 3 15 4 10 10 5 7 3 11 8 7 4 7 7 11 10 10 6 5 5 11 13 7 5 7 14 14 12 9 11 13 9 6 8 8 9 3 8 12 8 6 6 13 10 9 15 3 6 2 11 11 6 7 6 9 10 7 8 13 6 8 12 13 6 10 12 14 4 5 10 8 8 6 8 8 9 5 13 4 8 6 12 10 5 6 12 10 8 12 6 11 12 8 10 15 5 6 10 10 4 10 11 11 10 11 11 8 11 4 12 12 11 11 9 9 10 4 10 17 11 11 13 6 10 9 7 10 6 12 7 6 9 12 12 18 9 9 8 12 12 10 9 11 14 7 10 10 7 8 9 8 11 18 6 6 15 11 11 9 12 13 8 10 10 10 13 7 9 13 10 10 6 11 8 9 12 7 12 7 6 12 3 12 10 10 10 11 9 6 14 7 5 6 8 14 13 6 8 10 6 10 12 7 10 11 11 15 12 6 13 11 14 11 12 8 4 15 11 15 11 11 12 13 11 10 8 13 7 7 14 6 12 12 9 6 8 8 15 10 8 12 15 9 11 12 9 10 12 5 8 13 14 20 8 13 8 6 12 11 7 13 10 9 9 7 6 10 13 12 11 8 13 5 14 15 6 12 8 8 16 11 13 11 10 8 10 14 7 16 11 9 8 14 10 13 7 6 7 11 9 10 13 10 9 12 7 11 13 9 7 11 10 15 10 9 12 12 10 14 10 12 4 17 4 15 15 8 7 11 6 15 13 8 10 6 8 9 14 15 12 10 
RIB PER SET UNIQUE ADDR: 2 5 4 1 2 3 2 2 1 2 2 4 2 3 0 1 4 2 0 2 2 1 5 4 1 3 2 2 1 0 2 0 1 3 3 4 1 5 0 2 1 3 2 1 2 4 2 3 3 1 0 2 2 3 0 1 3 4 3 2 1 1 2 1 3 6 3 0 2 2 2 3 0 2 3 0 1 3 2 3 0 1 4 4 3 1 0 4 4 2 0 1 2 2 2 4 3 3 0 0 2 2 1 4 0 1 5 2 3 4 2 1 1 4 2 2 0 5 2 7 2 1 3 4 1 1 1 2 1 4 2 3 4 3 0 2 1 2 5 4 1 2 3 5 2 3 4 2 4 1 3 2 2 2 2 1 4 1 0 2 3 1 1 2 3 0 1 1 4 2 1 1 3 1 0 3 0 2 2 2 3 0 3 2 6 1 3 4 2 1 1 2 3 1 2 3 3 0 4 2 3 2 3 3 1 5 2 4 1 5 2 2 0 3 4 0 5 0 4 2 2 3 3 1 2 4 2 3 1 1 2 4 1 4 0 3 2 2 1 5 2 0 3 1 5 3 5 0 3 2 3 0 4 2 1 4 4 2 1 1 2 0 2 2 3 2 0 4 4 3 1 2 0 1 4 3 0 2 2 1 2 2 2 1 3 0 2 5 2 2 2 5 1 1 2 5 1 3 3 1 3 3 3 4 3 3 2 3 2 3 3 5 1 1 0 3 2 3 1 3 3 4 5 5 1 3 3 4 1 1 5 3 4 5 6 3 1 0 2 2 1 1 7 2 5 4 6 2 0 5 3 3 3 1 5 1 6 2 5 2 0 2 4 1 4 6 0 0 4 3 2 4 2 3 4 3 1 3 0 1 2 1 3 2 0 5 1 0 3 2 2 4 1 4 1 2 4 7 2 3 3 1 1 2 3 3 4 1 3 1 2 1 3 1 1 3 5 1 1 0 1 4 4 3 2 5 0 1 3 1 2 2 2 2 3 2 3 3 2 3 1 4 4 3 5 2 3 1 1 5 3 1 2 3 2 4 1 1 2 3 3 1 2 2 3 3 2 5 1 0 3 0 2 1 2 2 1 9 6 4 3 1 0 5 1 1 3 0 1 3 2 3 0 5 1 1 2 2 3 1 2 2 3 4 2 1 1 3 1 3 2 2 
UBTB PER SET COUNT: 5 4 3 3 3 3 4 4 4 2 1 2465 3 4 3 3 0 1 2 0 4 1 3 2 3 1 0 4 2 4 2 4 2 2 3 1 3 326 1 3 2 1 3 0 2942 1 4 4 2 2 3 2 4 0 3 4 4 1 4 0 2 4 2142 0 3 4 1 3 2 4 3 1 488 3 2 1 6 1 2 994 2 34 1119 1 4 0 2 2 3 2 2 3 4 1 4 6 1233 4 2949 0 2944 34 1 4 2 4 2945 2 3 2 984 38 4 7 3 2 1 2 2 16 0 1473 0 4 2 3 2 1 2945 3 2 2 1499 2 1 3 1473 2 3 6 4 1 3 2 1 3 2 1 4 0 29 3 2 1727 4 2 1964 3 1474 4 3 4 4 4 4 1 3 3 2 2 0 3 3 1 2 0 3 15 0 3 3 3 1 2 4 2 2 3 3 3 1 4 2698 1 3 3 3 2 2 1 2 1473 0 1 4 1 2 3 1 0 3 2 4 2 1 4 1 3 1 3 2 0 2 3 2 0 3 4 3 4 3 1 4 2 2 4 4 3 1 2452 2 3 4 3 2 1 3 3 1 1475 2 4 0 2 2 1 4 1 1 1 4 1 2 4 4 2 0 1474 2 0 0 3 2 3 4 1 7 987 2 608 537 2 2 2 3 1 4 2 992 1 4 0 4 3 2944 0 2 2 1 1 3 3 4 1 1 0 2 0 0 0 3 1 3 4 2 3 4 2 3 2 3 3 4 3 1 2 4 2 1 3 4 4 4 1 19 3 4 2 1 2 1031 24 2 3 1 2 4 3 2 3 2 3 2 1 3 4 3 1 1 0 2 1 1 2 4 2 3 1 4 1 44 4 3 0 0 2 1 0 3 4 3 2 3 1 1 3 1 1472 2 2 1 4 3 3 1 4398 1 2 1 3 2 7820 4 2 3 5861 2 4 2 4 2 4 1364 3 3 0 3 2 3 3 0 3 0 1 2 2 3 3 3 1 3 1 2 3 1 4 4 1 1964 112 2 3 1 3 4 3932 2 989 1 2 3 2 1 3 1 2 3 2264 982 24 2209 3 3 3439 4 1 0 4 2 3 1 1 4 3 3 4 2 4 1 1 3 1 1 3 5370 3 2 2 0 1 3 1 2 26 1 2 2 2 8 16 2947 2 3 3 2 4 2 2 2 3 2 4 4 3 2 4 2 3 1474 2 3 4 1 2 0 2 1 3 3 4 987 4 2 2 3 3 4 4 2 2 2454 1 6363 2 1 2 2 6 2949 4 2 2 1 3 1 2944 2 0 2 1 1978 2 2 2 3 1 2 10 3 3 1 0 1 3 4 2 4 3 3434 2 4 2 4 2 4 3 2 3 3 1232 4 1233 1 1 4 1 3 3 3 754 3 3 2510 2 29 3 29 4 2 2 4888 2453 2 19 2 2818 1 1 1 3434 4 1 4 3 1 4 1 2 3 1 3 2 3434 3 3 2 4 2 3 3 2453 2 1 0 3 2 1 3 0 1 2 3 3 1 2 4 3 2 1 2 3 2944 2453 1 2 2 0 2 2 3 2 1 1 2 1 2 6 4 4 1 4 3 2 9 3 2 0 4 0 0 2 3 0 2 1 1 2 3 2 1 3 3 2 2 2 1 3 4 4 1 2 1964 2 3 1 4 2 3 3 4 1 2 1 1 1 3 4 3 2 2 2 2 2 1 2 7 4 1964 1 3 3 4 0 1 1964 3907 3 3 2944 3 986 984 4 2 2 3 3 4 1 2 2 4 3 2 3 2 0 3 4 4 4 4 2 2 1 1 3 4 1 2 3 2 2 3 3 0 3 3 4 1 1 3 4 1 2 1 3 0 3 3 2454 2 1 2 2 4 0 0 2 1 2 987 0 2454 1 0 1964 1 3 4325 2 3 2 3 2 1 2 3 1 1 2453 1 2 1 0 1 2944 1 4 1 1 2 3 2 4 3 0 4 2 4 2 2455 3 4 2 2 3435 1 2 5739 4 4 3 1965 1 2 2 3 4 4 4 3 4 2 2 1964 7 2 2 1 2 2 8 2 2 3 4 2 2 4 2 4 4 1473 1964 2 4 1 3 4 4 2 2417 4 4 4 2 19 1 2 3 1 3 7205 4 4 2 1 3 3 16 2 2 4 756 4 3 3 1 1 2 2210 2 1 19 1717 3 1 4 4 4 1 1 4 3 1 1228 1 2 3928 3 1 3 3 1 754 4 1504 1 2942 4 4 1964 3 3901 4 1 3 1 0 0 4 4 1 1 2 4 2 4 2943 1 2 2 2 2 3 2 4 2 1474 1 2 6844 2 1 364 3 2 1 1 1 4 4 0 2 1 4 4 3 3 2 3 0 3 4 2 0 6 1964 2 2862 3 2947 2 
CBTB PER SET COUNT: 11 1032 116 182 15 13 17 48 4444 7 7455 3943 7 6 134 32 1484 22 19 1509 2469 10 8 67 2454 6632 6546 23 20 17 17 8 9792 1480 2461 23 20 16 5379 12 14 1974 22 17 618 6999 14 1975 40 8316 10 7830 4891 7 2458 3434 9 18 3008 21 9 2474 77 6 397 3941 2459 12 2458 3439 57 24 29 1004 21 4894 8315 39 26 2473 4401 5872 11 24 3440 25 26 8344 1124 715 4572 9 14 26 18 57 23 1985 25 1018 6 2248 1490 7345 10 2953 6255 1939 17 3950 15 4388 27 3953 29 39 38 2479 1030 2258 2462 1727 10 58 17 1988 12 34 29 23 3459 10284 38 10 9 1978 9 39 2467 19 14 7829 14 8 4405 2342 8 5398 8448 5871 7837 14192 4 326 4888 4 1399 7 13 598 15 4 5508 6851 5 8 9 5 2958 11 8320 3 7549 4 23 2466 288 11 3 1242 25 25 4 12 4400 24 32 18 8 7 5 9302 8572 10 5 11 3095 7117 2879 12 1484 2287 1645 13 1472 23 22 3 24 9289 1968 11 12 2958 24 18 6867 3 6 2 1481 32 15 1617 7 1726 38 14 9 3677 22 9 4549 395 8 2838 39 4397 4 5 17 20 34 6 1972 15 1989 7 770 4 10 7 1516 4899 12 10 1488 5380 10 2024 6 2467 1973 23 1492 1494 6 2427 1734 2950 4 21 40 26 2932 756 18 337 2532 4 25 1969 88 709 12 87 2960 4 6362 9301 1022 19 61 12 3686 1479 16 32 1967 28 31 10 15 5900 73 9797 24 40 1484 27 2462 28 2465 2455 6184 1475 2442 52 13 2476 5342 26 2984 6392 6 7 220 26 155 22 2958 1492 16 20 1974 162 59 957 2473 3955 651 31 13 23 10 14 6380 7 1973 10 8 42 3 9785 30 26 2679 3053 2217 1493 785 8 7 8 746 3336 2959 25 10 774 1979 24 1006 68 2867 2460 1499 3206 4159 7 7342 26 4924 16 2465 11 4 57 24 4654 1492 21 8200 10269 3898 2465 4646 3442 8 14 3573 10 4408 2955 19 16 12 12 12024 21 2457 4643 48 4892 10273 2536 19 249 2230 23 15 4803 2513 11755 18 2955 21 12 5875 133 8 5384 17 679 48 10 8 26 3221 35 4399 11 3921 6 3456 1674 8 1507 2941 104 3832 6365 1500 1487 13 27 3933 3931 1000 10283 2473 1968 28 1518 7826 1977 9 11 1596 2474 1488 998 1032 25 17 20 9 2665 5386 420 9 21 1509 11259 23 21 54 1977 21 7687 4387 4906 4 7326 4 2519 2961 9 7 2460 10 4518 2504 14 694 7 18 13 30 2470 2972 18 
RIB PER SET COUNT: 2 15 4 1 2 3 2 2 1 2 2 4 2 3 0 1 4 2 0 2 2 1 1962 4 1 3 2 2 1 0 2 0 1 3 3 4 1 2452 0 2 1 3 2 1 2 4 2 3 3 1 0 2 2 3 0 1 3 4 3 2 1 1 2 1 3 1974 3 0 2 2 2 3 0 2 3 0 1 3 2 3 0 1 4 4 3 1 0 4 4 2 0 1 2 2 2 4 3 3 0 0 2 2 1 4 0 1 2451 2 3 4 2 1 1 4 2 2 0 9 2 1981 2 1 3 4 1 1 1 2 1 4 2 3 4 3 0 2 1 2 19 4 1 2 3 12 2 3 4 2 4 1 3 2 2 2 2 1 4 1 0 2 3 1 1 2 3 0 1 1 4 2 1 1 3 1 0 3 0 2 2 2 3 0 3 2 1968 1 3 4 2 1 1 2 3 1 2 3 3 0 4 2 3 2 3 3 1 24 2 4 1 17 2 2 0 3 4 0 984 0 4 2 2 3 3 1 2 4 2 3 1 1 2 4 1 4 0 3 2 2 1 6 2 0 3 1 464 3 19 0 3 2 3 0 4 2 1 4 4 2 1 1 2 0 2 2 3 2 0 4 4 3 1 2 0 1 4 3 0 2 2 1 2 2 2 1 3 0 2 1474 2 2 2 1469 1 1 2 749 1 3 3 1 3 3 3 4 3 3 2 3 2 3 3 18 1 1 0 3 2 3 1 3 3 4 3903 1474 1 3 3 4 1 1 6 3 4 1474 6352 3 1 0 2 2 1 1 4141 2 1233 4 1477 2 0 19 3 3 3 1 6 1 3418 2 16 2 0 2 4 1 4 1488 0 0 4 3 2 4 2 3 4 3 1 3 0 1 2 1 3 2 0 16 1 0 3 2 2 4 1 4 1 2 4 3901 2 3 3 1 1 2 3 3 4 1 3 1 2 1 3 1 1 3 18 1 1 0 1 4 4 3 2 6353 0 1 3 1 2 2 2 2 3 2 3 3 2 3 1 4 4 3 984 2 3 1 1 14 3 1 2 3 2 4 1 1 2 3 3 1 2 2 3 3 2 1963 1 0 3 0 2 1 2 2 1 6557 2944 4 3 1 0 2276 1 1 3 0 1 3 2 3 0 14 1 1 2 2 3 1 2 2 3 4 2 1 1 3 1 3 2 2 
