
*** ChampSim Multicore Out-of-Order Simulator ***

Warmup Instructions: 50000000
Simulation Instructions: 50000000
Number of CPUs: 1
LLC sets: 2048
LLC ways: 16
Off-chip DRAM Size: 4096 MB Channels: 1 Width: 64-bit Data Rate: 6400 MT/s
CPU 0 runs ./micro_traces/srv163.trace.gz
.gz
ITLB has LRU replacement policy
DTLB has LRU replacement policy
STLB has LRU replacement policy
CPU 0 L1I next line prefetcher
L1I has LRU replacement policy
L1D has LRU replacement policy
Initialize SRRIP state for L2C
Initialize DRRIP state for LLC
Heartbeat CPU 0 instructions: 10000001 cycles: 2798451 heartbeat IPC: 3.57341 cumulative IPC: 3.57341 (Simulation time: 0 hr 1 min 39 sec) 
Heartbeat CPU 0 instructions: 20000001 cycles: 5595776 heartbeat IPC: 3.57484 cumulative IPC: 3.57412 (Simulation time: 0 hr 3 min 18 sec) 
Heartbeat CPU 0 instructions: 30000003 cycles: 8392105 heartbeat IPC: 3.57612 cumulative IPC: 3.57479 (Simulation time: 0 hr 4 min 56 sec) 
Heartbeat CPU 0 instructions: 40000002 cycles: 11189484 heartbeat IPC: 3.57477 cumulative IPC: 3.57479 (Simulation time: 0 hr 6 min 37 sec) 
Heartbeat CPU 0 instructions: 50000001 cycles: 13986671 heartbeat IPC: 3.57502 cumulative IPC: 3.57483 (Simulation time: 0 hr 8 min 15 sec) 

Warmup complete CPU 0 instructions: 50000001 cycles: 13986671 (Simulation time: 0 hr 8 min 15 sec) 

Cycle: 20000000 FTQ IN: 57674935 FTQ occupancy: 17.8482 DECODE IN: 57674933 DECODE occupancy: 47.083 ROB IN: 57674873 ROB occupancy: 296.498 ROB OUT: 57674848
Heartbeat CPU 0 instructions: 60000002 cycles: 21823967 heartbeat IPC: 1.27595 cumulative IPC: 1.27595 (Simulation time: 0 hr 9 min 39 sec) 
Heartbeat CPU 0 instructions: 70000001 cycles: 29726104 heartbeat IPC: 1.26548 cumulative IPC: 1.27069 (Simulation time: 0 hr 11 min 3 sec) 
Cycle: 30000000 FTQ IN: 12678493 FTQ occupancy: 6.08775 DECODE IN: 12678495 DECODE occupancy: 17.384 ROB IN: 12678555 ROB occupancy: 174.79 ROB OUT: 12678337
Heartbeat CPU 0 instructions: 80000003 cycles: 37559728 heartbeat IPC: 1.27655 cumulative IPC: 1.27264 (Simulation time: 0 hr 12 min 27 sec) 
Cycle: 40000000 FTQ IN: 12786690 FTQ occupancy: 5.92035 DECODE IN: 12786570 DECODE occupancy: 17.2813 ROB IN: 12786510 ROB occupancy: 176.641 ROB OUT: 12786401
Heartbeat CPU 0 instructions: 90000000 cycles: 45432084 heartbeat IPC: 1.27027 cumulative IPC: 1.27205 (Simulation time: 0 hr 13 min 53 sec) 
Cycle: 50000000 FTQ IN: 12696541 FTQ occupancy: 6.05122 DECODE IN: 12696623 DECODE occupancy: 17.3869 ROB IN: 12696672 ROB occupancy: 177.058 ROB OUT: 12696829
Heartbeat CPU 0 instructions: 100000003 cycles: 53274261 heartbeat IPC: 1.27516 cumulative IPC: 1.27267 (Simulation time: 0 hr 15 min 22 sec) 
Finished CPU 0 instructions: 50000002 cycles: 39287590 cumulative IPC: 1.27267 (Simulation time: 0 hr 15 min 22 sec) 

ChampSim completed all CPUs

Region of Interest Statistics

CPU 0 cumulative IPC: 1.27267 instructions: 50000002 cycles: 39287590
 Fetch stage stalled: 66.4586  Sim cycles: 39287590 fetch stall cycle: 26109990
 Empty decode stage: 49.6022  Sim cycles: 39287590 fetch stall cycle: 19487512
ITLB TOTAL     ACCESS:    7579331  HIT:    6962800  MISS:     616531  HIT %:    91.8656  MISS %:    8.13437   MPKI: 12.3306
ITLB LOAD TRANSLATION INSTRUCTION	ACCESS:    5832341  HIT:    5705608  MISS:     126733  HIT %:    97.8271  MISS %:    2.17294  MPKI: 2.53466
ITLB TRANSLATION FROM L1D PREFETCHER INSTRUCTION	ACCESS:    1746990  HIT:    1257192  MISS:     489798  HIT %:    71.9633  MISS %:    28.0367  MPKI: 9.79596

ITLB AVERAGE MISS LATENCY: 150411 cycles
ITLB RQ	ACCESS:   11477952	FORWARD:          0	MERGED:    3742719	TO_CACHE:    7735233

DTLB TOTAL     ACCESS:    9102475  HIT:    8627201  MISS:     475274  HIT %:    94.7786  MISS %:    5.22137   MPKI: 9.50548
DTLB LOAD TRANSLATION DATA	ACCESS:    9102475  HIT:    8627201  MISS:     475274  HIT %:    94.7786  MISS %:    5.22137  MPKI: 9.50548

DTLB AVERAGE MISS LATENCY: 9.31683 cycles
DTLB RQ	ACCESS:   13439651	FORWARD:          0	MERGED:    4301469	TO_CACHE:    9138182

STLB TOTAL     ACCESS:    1337306  HIT:    1335428  MISS:       1878  HIT %:    99.8596  MISS %:   0.140432   MPKI: 0.03756
STLB LOAD TRANSLATION INSTRUCTION	ACCESS:     123914  HIT:     123783  MISS:        131  HIT %:    99.8943  MISS %:   0.105718  MPKI: 0.00262
STLB TRANSLATION FROM L1D PREFETCHER INSTRUCTION	ACCESS:     492618  HIT:     492545  MISS:         73  HIT %:    99.9852  MISS %:  0.0148188  MPKI: 0.00146
STLB LOAD TRANSLATION DATA	ACCESS:     475274  HIT:     473615  MISS:       1659  HIT %:    99.6509  MISS %:   0.349062  MPKI: 0.03318
STLB TRANSLATION FROM L1D PREFETCHER DATA	ACCESS:     245500  HIT:     245485  MISS:         15  HIT %:    99.9939  MISS %: 0.00610998  MPKI: 0.0003

STLB AVERAGE MISS LATENCY: 75.8924 cycles
STLB RQ	ACCESS:    1462655	FORWARD:          0	MERGED:     121734	TO_CACHE:    1340921

STLB Hit, L1D data hit: 0
STLB Hit, L2C data hit: 0
STLB Hit, LLC data hit: 0
STLB Hit, LLC data miss: 0
STLB STLB hints to L2: 0
L1D TOTAL     ACCESS:   13177522  HIT:   12059688  MISS:    1117834  HIT %:    91.5171  MISS %:    8.48288   MPKI: 22.3567
L1D LOAD DATA	ACCESS:    6638405  HIT:    5900749  MISS:     737656  HIT %:    88.8881  MISS %:    11.1119  MPKI: 14.7531
L1D RFO DATA	ACCESS:    6213388  HIT:    5927681  MISS:     285707  HIT %:    95.4018  MISS %:    4.59825  MPKI: 5.71414
L1D PREFETCH DATA	ACCESS:     325729  HIT:     231258  MISS:      94471  HIT %:    70.9971  MISS %:    29.0029  MPKI: 1.88942

L1D PREFETCH  REQUESTED:     734969  ISSUED:     734969  USEFUL:      33694  USELESS:      69315
L1D USEFUL LOAD PREFETCHES:      33694 PREFETCH ISSUED TO LOWER LEVEL:     103102  ACCURACY: 32.6803
 TIMELY PREFETCHES:      33694 LATE PREFETCHES: 8539 DROPPED PREFETCHES: 9
L1D AVERAGE MISS LATENCY: 261832 cycles
L1D RQ	ACCESS:   10751629	FORWARD:          0	MERGED:    3909339	TO_CACHE:    6677843
L1D WQ	ACCESS:    6949899	FORWARD:     164856	MERGED:     188091	TO_CACHE:    6761808
L1D PQ	ACCESS:     367689	FORWARD:          0	MERGED:          0	TO_CACHE:     367280

L1D UNIQUE REGIONS ACCESSED: 0
L1D REGIONS CONFLICTS: 0
L1D Cross Page Prefetch Requests: 6497
L1D Same Page Prefetch Requests: 744986
L1D ROI Sum of L1D PQ occupancy: 4668839
L1D PREFETCHES PUSHED FROM L2C: 0
L1I TOTAL     ACCESS:   11085372  HIT:    7447459  MISS:    3637913  HIT %:    67.1828  MISS %:    32.8172   MPKI: 72.7583
L1I LOAD INSTRUCTION	ACCESS:    6576328  HIT:    5991772  MISS:     584556  HIT %:    91.1112  MISS %:    8.88879  MPKI: 11.6911
L1I PREFETCH INSTRUCTION	ACCESS:    4509044  HIT:    1455687  MISS:    3053357  HIT %:    32.2837  MISS %:    67.7163  MPKI: 61.0671

L1I PREFETCH  REQUESTED:    5207091  ISSUED:    5207057  USEFUL:    2370705  USELESS:     778403
L1I USEFUL LOAD PREFETCHES:    2370705 PREFETCH ISSUED TO LOWER LEVEL:    3149088  ACCURACY: 75.2823
 TIMELY PREFETCHES:    2370705 LATE PREFETCHES: 95734 DROPPED PREFETCHES: 9951
L1I AVERAGE MISS LATENCY: 878448 cycles
L1I RQ	ACCESS:    9444037	FORWARD:          0	MERGED:    2825511	TO_CACHE:    6618526
L1I PQ	ACCESS:    5207057	FORWARD:          0	MERGED:     347631	TO_CACHE:    4859426

L1BTB TOTAL     ACCESS:    5671475  HIT:    2033264  MISS:    3638211  HIT %:    35.8507  MISS %:    64.1493   MPKI: 72.7642
L1BTB BRANCH_DIRECT_JUMP	ACCESS:     547552  HIT:     143677  MISS:     403875	AVERAGE STALL: 25.7431
L1BTB BRANCH_INDIRECT	ACCESS:     182353  HIT:      65536  MISS:     116817	AVERAGE STALL: 110.343
L1BTB BRANCH_CONDITIONAL	ACCESS:    2697931  HIT:    1402931  MISS:    1295000	AVERAGE STALL: 28.2351
L1BTB BRANCH_DIRECT_CALL	ACCESS:     949031  HIT:     106963  MISS:     842068	AVERAGE STALL: 28.392
L1BTB BRANCH_INDIRECT_CALL	ACCESS:     172786  HIT:      21966  MISS:     150820	AVERAGE STALL: 124.784
L1BTB BRANCH_RETURN	ACCESS:    1121822  HIT:     292191  MISS:     829631	AVERAGE STALL: 29.9344
L1BTB BRANCH_OTHER ACCESS:          0  HIT:          0  MISS:          0	AVERAGE STALL: -nan
L1BTB TOTAL ROB OCCUPANCY AT BTB MISS: 16.7591

L2BTB1 TOTAL     ACCESS:    3612935  HIT:    3208968  MISS:     403967  HIT %:    88.8189  MISS %:    11.1811   MPKI: 8.07934
L2BTB1 BRANCH_DIRECT_JUMP	ACCESS:     399772  HIT:     363660  MISS:      36112	AVERAGE STALL: 25.7431
L2BTB1 BRANCH_INDIRECT	ACCESS:     106530  HIT:      84173  MISS:      22357	AVERAGE STALL: 110.343
L2BTB1 BRANCH_CONDITIONAL	ACCESS:    1295000  HIT:    1187712  MISS:     107288	AVERAGE STALL: 28.2351
L2BTB1 BRANCH_DIRECT_CALL	ACCESS:     842068  HIT:     727680  MISS:     114388	AVERAGE STALL: 28.392
L2BTB1 BRANCH_INDIRECT_CALL	ACCESS:     141348  HIT:     117051  MISS:      24297	AVERAGE STALL: 124.784
L2BTB1 BRANCH_RETURN	ACCESS:     828217  HIT:     728692  MISS:      99525	AVERAGE STALL: 29.9344
L2BTB1 BRANCH_OTHER ACCESS:          0  HIT:          0  MISS:          0	AVERAGE STALL: -nan
L2BTB1 TOTAL ROB OCCUPANCY AT BTB MISS: 150.936

L2C TOTAL     ACCESS:    6601756  HIT:    5673970  MISS:     927786  HIT %:    85.9464  MISS %:    14.0536   MPKI: 18.5557
L2C LOAD INSTRUCTION	ACCESS:     488822  HIT:     396317  MISS:      92505  HIT %:    81.0759  MISS %:    18.9241  MPKI: 1.8501
L2C PREFETCH INSTRUCTION	ACCESS:    3149090  HIT:    2800441  MISS:     348649  HIT %:    88.9286  MISS %:    11.0714  MPKI: 6.97298
L2C LOAD TRANSLATION INSTRUCTION	ACCESS:        145  HIT:         41  MISS:        104  HIT %:    28.2759  MISS %:    71.7241  MPKI: 0.00208
L2C TRANSLATION FROM L1D PREFETCHER INSTRUCTION	ACCESS:       4723  HIT:       4642  MISS:         81  HIT %:     98.285  MISS %:    1.71501  MPKI: 0.00162
L2C LOAD DATA	ACCESS:     729062  HIT:     598460  MISS:     130602  HIT %:    82.0863  MISS %:    17.9137  MPKI: 2.61204
L2C RFO DATA	ACCESS:     285577  HIT:     203022  MISS:      82555  HIT %:    71.0919  MISS %:    28.9081  MPKI: 1.6511
L2C PREFETCH DATA	ACCESS:    1420887  HIT:    1181568  MISS:     239319  HIT %:    83.1571  MISS %:    16.8429  MPKI: 4.78638
L2C WRITEBACK DATA	ACCESS:     521700  HIT:     489129  MISS:      32571  HIT %:    93.7568  MISS %:    6.24324  MPKI: 0.65142
L2C LOAD TRANSLATION DATA	ACCESS:       1711  HIT:        325  MISS:       1386  HIT %:    18.9947  MISS %:    81.0053  MPKI: 0.02772
L2C TRANSLATION FROM L1D PREFETCHER DATA	ACCESS:         39  HIT:         25  MISS:         14  HIT %:    64.1026  MISS %:    35.8974  MPKI: 0.00028

L2C PREFETCH  REQUESTED:    3253115  ISSUED:    3253115  USEFUL:      29315  USELESS:     560773
L2C USEFUL LOAD PREFETCHES:      29315 PREFETCH ISSUED TO LOWER LEVEL:     589256  ACCURACY: 4.97492
 TIMELY PREFETCHES:      29315 LATE PREFETCHES: 1288 DROPPED PREFETCHES: 0
L2C AVERAGE MISS LATENCY: 33.7867 cycles
L2C RQ	ACCESS:    1510172	FORWARD:          0	MERGED:          0	TO_CACHE:    1510079
L2C WQ	ACCESS:     521700	FORWARD:         93	MERGED:          0	TO_CACHE:     521700
L2C PQ	ACCESS:    6505305	FORWARD:          0	MERGED:    1918603	TO_CACHE:    4586702

L2C Dense regions hint from L2: 0
PSCL5 TOTAL     ACCESS:      10920  HIT:       5460  MISS:       5460  HIT %:         50  MISS %:         50   MPKI: 0.1092
PSCL5 LOAD TRANSLATION INSTRUCTION	ACCESS:       3564  HIT:       1782  MISS:       1782  HIT %:         50  MISS %:         50  MPKI: 0.03564
PSCL5 TRANSLATION FROM L1D PREFETCHER INSTRUCTION	ACCESS:       7356  HIT:       3678  MISS:       3678  HIT %:         50  MISS %:         50  MPKI: 0.07356


PSCL4 TOTAL     ACCESS:      10821  HIT:       5408  MISS:       5413  HIT %:    49.9769  MISS %:    50.0231   MPKI: 0.10826
PSCL4 LOAD TRANSLATION INSTRUCTION	ACCESS:       1822  HIT:       1732  MISS:         90  HIT %:    95.0604  MISS %:    4.93963  MPKI: 0.0018
PSCL4 TRANSLATION FROM L1D PREFETCHER INSTRUCTION	ACCESS:       3689  HIT:       3676  MISS:         13  HIT %:    99.6476  MISS %:   0.352399  MPKI: 0.00026
PSCL4 LOAD TRANSLATION DATA	ACCESS:       1647  HIT:          0  MISS:       1647  HIT %:          0  MISS %:        100  MPKI: 0.03294
PSCL4 TRANSLATION FROM L1D PREFETCHER DATA	ACCESS:       3663  HIT:          0  MISS:       3663  HIT %:          0  MISS %:        100  MPKI: 0.07326


PSCL3 TOTAL     ACCESS:      10891  HIT:       5443  MISS:       5448  HIT %:     49.977  MISS %:     50.023   MPKI: 0.10896
PSCL3 LOAD TRANSLATION INSTRUCTION	ACCESS:       1857  HIT:       1767  MISS:         90  HIT %:    95.1535  MISS %:    4.84653  MPKI: 0.0018
PSCL3 TRANSLATION FROM L1D PREFETCHER INSTRUCTION	ACCESS:       3689  HIT:       3676  MISS:         13  HIT %:    99.6476  MISS %:   0.352399  MPKI: 0.00026
PSCL3 LOAD TRANSLATION DATA	ACCESS:       1682  HIT:          0  MISS:       1682  HIT %:          0  MISS %:        100  MPKI: 0.03364
PSCL3 TRANSLATION FROM L1D PREFETCHER DATA	ACCESS:       3663  HIT:          0  MISS:       3663  HIT %:          0  MISS %:        100  MPKI: 0.07326


PSCL2 TOTAL     ACCESS:       8700  HIT:       4312  MISS:       4388  HIT %:    49.5632  MISS %:    50.4368   MPKI: 0.08776
PSCL2 LOAD TRANSLATION INSTRUCTION	ACCESS:       1857  HIT:       1716  MISS:        141  HIT %:    92.4071  MISS %:    7.59289  MPKI: 0.00282
PSCL2 TRANSLATION FROM L1D PREFETCHER INSTRUCTION	ACCESS:       5157  HIT:       2596  MISS:       2561  HIT %:    50.3393  MISS %:    49.6607  MPKI: 0.05122
PSCL2 LOAD TRANSLATION DATA	ACCESS:       1651  HIT:          0  MISS:       1651  HIT %:          0  MISS %:        100  MPKI: 0.03302
PSCL2 TRANSLATION FROM L1D PREFETCHER DATA	ACCESS:         35  HIT:          0  MISS:         35  HIT %:          0  MISS %:        100  MPKI: 0.0007


LLC TOTAL     ACCESS:    1018975  HIT:     990514  MISS:      28461  HIT %:    97.2069  MISS %:     2.7931   MPKI: 0.56922
LLC LOAD INSTRUCTION	ACCESS:      91949  HIT:      91739  MISS:        210  HIT %:    99.7716  MISS %:   0.228387  MPKI: 0.0042
LLC PREFETCH INSTRUCTION	ACCESS:     346752  HIT:     346297  MISS:        455  HIT %:    99.8688  MISS %:   0.131218  MPKI: 0.0091
LLC LOAD TRANSLATION INSTRUCTION	ACCESS:        104  HIT:         73  MISS:         31  HIT %:    70.1923  MISS %:    29.8077  MPKI: 0.00062
LLC TRANSLATION FROM L1D PREFETCHER INSTRUCTION	ACCESS:         81  HIT:         75  MISS:          6  HIT %:    92.5926  MISS %:    7.40741  MPKI: 0.00012
LLC LOAD DATA	ACCESS:     129971  HIT:     126326  MISS:       3645  HIT %:    97.1955  MISS %:    2.80447  MPKI: 0.0729
LLC RFO DATA	ACCESS:      82441  HIT:      69357  MISS:      13084  HIT %:    84.1293  MISS %:    15.8707  MPKI: 0.26168
LLC PREFETCH DATA	ACCESS:     242503  HIT:     231811  MISS:      10692  HIT %:     95.591  MISS %:    4.40902  MPKI: 0.21384
LLC WRITEBACK DATA	ACCESS:     123774  HIT:     123517  MISS:        257  HIT %:    99.7924  MISS %:   0.207636  MPKI: 0.00514
LLC LOAD TRANSLATION DATA	ACCESS:       1386  HIT:       1307  MISS:         79  HIT %:    94.3001  MISS %:    5.69986  MPKI: 0.00158
LLC TRANSLATION FROM L1D PREFETCHER DATA	ACCESS:         14  HIT:         12  MISS:          2  HIT %:    85.7143  MISS %:    14.2857  MPKI: 4e-05

LLC AVERAGE MISS LATENCY: 156.482 cycles
LLC RQ	ACCESS:     305959	FORWARD:          0	MERGED:          0	TO_CACHE:     305946
LLC WQ	ACCESS:     123774	FORWARD:         14	MERGED:          0	TO_CACHE:     123774
LLC PQ	ACCESS:     589256	FORWARD:          0	MERGED:          0	TO_CACHE:     589255

LLC Dense regions hint to LLC: 0

RAW hits: 1878643
Loads Generated: 12630272
Loads sent to L1D: 10751629
Stores Generated: 6949891
Stores sent to L1D: 6949899
Major fault: 0 Minor fault: 2589
Allocated PAGES: 2589
I-Shadow cache 408 bytes
Touched + WorthPF tables 12288 bytes 
MMA filter 174 bytes 
FNL filter 272 bytes 
TOTAL PREFETCHER STORAGE SIZE: 31318 bytes
CPU 0 L1I next line prefetcher final stats

stream: 
stream:times selected: 1173601
stream:pref_filled: 117986
stream:pref_useful: 21938
stream:pref_late: 7520
stream:misses: 8076
stream:misses_by_poll: 0

CS: 
CS:times selected: 175174
CS:pref_filled: 54432
CS:pref_useful: 30697
CS:pref_late: 13049
CS:misses: 22294
CS:misses_by_poll: 5

CPLX: 
CPLX:times selected: 997252
CPLX:pref_filled: 20113
CPLX:pref_useful: 4217
CPLX:pref_late: 3302
CPLX:misses: 95278
CPLX:misses_by_poll: 2

NL_L1: 
NL:times selected: 19425
NL:pref_filled: 528
NL:pref_useful: 197
NL:pref_late: 408
NL:misses: 1751
NL:misses_by_poll: 0

total selections: 2365452
total_filled: 94471
total_useful: 33694
total_late: 25979
total_polluted: 7
total_misses_after_warmup: 777092
conflicts: 5574048

test: 114751

DRAM Statistics
 CHANNEL 0
 RQ ROW_BUFFER_HIT:      10110  ROW_BUFFER_MISS:      18079
 DBUS_CONGESTED:          9
 WQ ROW_BUFFER_HIT:       1315  ROW_BUFFER_MISS:      12305  FULL:          0

 AVG_CONGESTED_CYCLE: 5

CPU 0 Branch Prediction Accuracy: 99.8272% MPKI: 0.31622 Average ROB Occupancy at Mispredict: 174.732
Branch types
NOT_BRANCH: 40848211 81.6964%
BRANCH_DIRECT_JUMP: 547552 1.0951%
BRANCH_INDIRECT: 182353 0.364706%
BRANCH_CONDITIONAL: 6178107 12.3562%
BRANCH_DIRECT_CALL: 949031 1.89806%
BRANCH_INDIRECT_CALL: 172786 0.345572%
BRANCH_RETURN: 1121822 2.24364%
BRANCH_OTHER: 0 0%

DRAM PAGES: 1048576
Allocated PAGES: 2589
Average_ROB_Occupancy: 177.137
Average_Decode_Occupancy: 17.2597
Average_FTQ_Occupancy: 5.98962
Indirect max targets: 14 Average targets: 1.17778
Branch_type:  BRANCH_DIRECT_JUMP:  Count Percentage: 4.12616 5.6884 3.63391 2.28157 8.167 6.32442 1.45656 68.322 
Branch_type:  BRANCH_INDIRECT:  Count Percentage: 11.7649 3.39008 2.49566 13.3009 3.3547 2.81794 0.939129 61.9367 
Branch_type:  BRANCH_CONDITIONAL:  Count Percentage: 21.9163 2.25494 2.06736 2.73447 3.25031 4.63141 3.63547 59.5098 
Branch_type:  BRANCH_DIRECT_CALL:  Count Percentage: 0.386716 1.80401 0.716852 1.466 5.23188 2.60504 0.40825 87.3813 
Branch_type:  BRANCH_INDIRECT_CALL:  Count Percentage: 9.53172 0 2.9876 0.000869921 1.36056 1.70997 0.99287 83.4164 
Branch_type:  BRANCH_RETURN:  Count Percentage: 3.9341 2.02347 2.23352 2.03699 3.44562 5.11455 3.6105 77.6013 
Branch_type:  BRANCH_DIRECT_JUMP:  Total Count: 45172 62275 39783 24978 89410 69238 15946 747970 
Branch_type:  BRANCH_INDIRECT:  Total Count: 42894 12360 9099 48494 12231 10274 3424 225817 
Branch_type:  BRANCH_CONDITIONAL:  Total Count: 2706780 278498 255331 337722 401432 572005 449001 7349792 
Branch_type:  BRANCH_DIRECT_CALL:  Total Count: 7327 34180 13582 27776 99127 49357 7735 1655589 
Branch_type:  BRANCH_INDIRECT_CALL:  Total Count: 32871 0 10303 3 4692 5897 3424 287669 
Branch_type:  BRANCH_RETURN:  Total Count: 88140 45334 50040 45637 77196 114587 80890 1738587 
Number of unique branch instructions: 10811
Upper 32 bits: 
aaaa
ffff
ffff0000
Unique upper 32 bits: 3
Unique upper 36 bits: 3
Unique upper 40 bits: 5
Unique upper 44 bits: 32
Unique upper 48 bits: 158
Offset_3 4470
Offset_4 255
Offset_5 484
Offset_6 541
Offset_7 643
Offset_8 577
Offset_9 523
Offset_10 426
Offset_11 360
Offset_12 327
Offset_13 240
Offset_14 247
Offset_15 194
Offset_16 233
Offset_17 169
Offset_18 149
Offset_19 257
Offset_20 143
Offset_21 235
Offset_22 413
Offset_23 241
Offset_24 351
Offset_25 117
Offset_47 94
Offset_64 2
decode_dispatch_called: 21752309 55.3669
Dispatch_width: 0 10802483 49.6613 27.4959
Dispatch_width: 1 751302 3.4539 1.91231
Dispatch_width: 2 909089 4.17928 2.31393
Dispatch_width: 3 607999 2.7951 1.54756
Dispatch_width: 4 3044916 13.9981 7.75033
Dispatch_width: 5 392282 1.8034 0.998488
Dispatch_width: 6 5244238 24.1089 13.3483
Empty_decode_cycles: 17535281 44.6331
ROB_full_cycles: 4554363 11.5924
Starvation_cycles_per_kilo_instr: 294.89
Starvation_cycles_per_kilo_instr_3: 260.518
Starvation_cycles_per_kilo_instr_0: 237.834
Branch_type_1  (3,1)  (4,9)  (5,39)  (6,74)  (7,126)  (8,148)  (9,136)  (10,110)  (11,78)  (12,55)  (13,11)  (14,2)  (15,3)  (16,4)  (18,1)  (19,5)  (20,2)  (21,1)  (22,3)  (23,2)  (24,10)  (25,12) 
Branch_type_2  (3,1)  (4,1)  (5,1)  (8,4)  (9,4)  (10,1)  (12,1)  (13,1)  (14,1)  (16,3)  (17,2)  (20,2)  (21,2)  (23,5)  (24,1)  (47,43) 
Branch_type_3  (3,4468)  (4,245)  (5,440)  (6,451)  (7,487)  (8,360)  (9,288)  (10,172)  (11,146)  (12,62)  (13,10)  (64,2) 
Branch_type_4  (6,3)  (7,8)  (8,25)  (9,56)  (10,68)  (11,70)  (12,117)  (13,102)  (14,112)  (15,92)  (16,102)  (17,79)  (18,65)  (19,125)  (20,73)  (21,124)  (22,219)  (23,136)  (24,206)  (25,101) 
Branch_type_5  (8,3)  (9,1)  (10,4)  (11,5)  (12,3)  (13,14)  (14,16)  (15,11)  (16,22)  (17,11)  (18,23)  (19,14)  (20,11)  (21,13)  (22,43)  (23,26)  (24,38) 
Branch_type_6  (5,4)  (6,13)  (7,22)  (8,37)  (9,38)  (10,71)  (11,61)  (12,89)  (13,102)  (14,116)  (15,88)  (16,102)  (17,77)  (18,60)  (19,113)  (20,55)  (21,95)  (22,148)  (23,72)  (24,96)  (25,4)  (47,51) 
Unique trigger count: 
L2BTB1 768 4
L2BTB2 768 4
L2BTB3 768 4
L2BTB4 112 4
