
*** ChampSim Multicore Out-of-Order Simulator ***

Warmup Instructions: 50000000
Simulation Instructions: 50000000
Number of CPUs: 1
LLC sets: 2048
LLC ways: 16
Off-chip DRAM Size: 4096 MB Channels: 1 Width: 64-bit Data Rate: 6400 MT/s
CPU 0 runs ./micro_traces/srv15.trace.gz
.gz
ITLB has LRU replacement policy
DTLB has LRU replacement policy
STLB has LRU replacement policy
FDIP Prefetcher at L1I
L1I has LRU replacement policy
L1D has LRU replacement policy
Initialize SRRIP state for L2C
Initialize DRRIP state for LLC
Heartbeat CPU 0 instructions: 10000002 cycles: 2796877 heartbeat IPC: 3.57542 cumulative IPC: 3.57542 (Simulation time: 0 hr 3 min 43 sec) 
Heartbeat CPU 0 instructions: 20000000 cycles: 5593557 heartbeat IPC: 3.57567 cumulative IPC: 3.57554 (Simulation time: 0 hr 7 min 7 sec) 
Heartbeat CPU 0 instructions: 30000003 cycles: 8390330 heartbeat IPC: 3.57555 cumulative IPC: 3.57555 (Simulation time: 0 hr 9 min 7 sec) 
Heartbeat CPU 0 instructions: 40000002 cycles: 11186159 heartbeat IPC: 3.57676 cumulative IPC: 3.57585 (Simulation time: 0 hr 10 min 59 sec) 
Heartbeat CPU 0 instructions: 50000000 cycles: 13982614 heartbeat IPC: 3.57596 cumulative IPC: 3.57587 (Simulation time: 0 hr 13 min 3 sec) 

Warmup complete CPU 0 instructions: 50000004 cycles: 13982615 (Simulation time: 0 hr 13 min 3 sec) 

Cycle: 20000000 FTQ IN: 58295706 FTQ occupancy: 17.7483 DECODE IN: 58295706 DECODE occupancy: 47.7639 ROB IN: 58295695 ROB occupancy: 309.424 ROB OUT: 58295347
Heartbeat CPU 0 instructions: 60000002 cycles: 21227167 heartbeat IPC: 1.38035 cumulative IPC: 1.38035 (Simulation time: 0 hr 14 min 50 sec) 
Heartbeat CPU 0 instructions: 70000003 cycles: 28530363 heartbeat IPC: 1.36926 cumulative IPC: 1.37478 (Simulation time: 0 hr 16 min 32 sec) 
Cycle: 30000000 FTQ IN: 13734476 FTQ occupancy: 5.68347 DECODE IN: 13734407 DECODE occupancy: 19.3441 ROB IN: 13734358 ROB occupancy: 217.43 ROB OUT: 13734354
Heartbeat CPU 0 instructions: 80000001 cycles: 35755759 heartbeat IPC: 1.38401 cumulative IPC: 1.37784 (Simulation time: 0 hr 18 min 21 sec) 
Cycle: 40000000 FTQ IN: 13818441 FTQ occupancy: 5.5929 DECODE IN: 13818468 DECODE occupancy: 19.2429 ROB IN: 13818524 ROB occupancy: 217.906 ROB OUT: 13818577
Heartbeat CPU 0 instructions: 90000000 cycles: 43076863 heartbeat IPC: 1.36591 cumulative IPC: 1.37484 (Simulation time: 0 hr 20 min 0 sec) 
Cycle: 50000000 FTQ IN: 13706181 FTQ occupancy: 5.71587 DECODE IN: 13706223 DECODE occupancy: 19.5921 ROB IN: 13706227 ROB occupancy: 219.808 ROB OUT: 13706475
Heartbeat CPU 0 instructions: 100000002 cycles: 50322452 heartbeat IPC: 1.38015 cumulative IPC: 1.3759 (Simulation time: 0 hr 21 min 41 sec) 
Finished CPU 0 instructions: 50000002 cycles: 36339838 cumulative IPC: 1.3759 (Simulation time: 0 hr 21 min 41 sec) 

ChampSim completed all CPUs

Region of Interest Statistics

CPU 0 cumulative IPC: 1.3759 instructions: 50000002 cycles: 36339838
 Fetch stage stalled: 64.1015  Sim cycles: 36339838 fetch stall cycle: 23294375
 Empty decode stage: 48.4669  Sim cycles: 36339838 fetch stall cycle: 17612796
ITLB TOTAL     ACCESS:    5579404  HIT:    5085800  MISS:     493604  HIT %:    91.1531  MISS %:    8.84689   MPKI: 9.87208
ITLB LOAD TRANSLATION INSTRUCTION	ACCESS:    5463169  HIT:    4969565  MISS:     493604  HIT %:    90.9649  MISS %:    9.03512  MPKI: 9.87208
ITLB TRANSLATION FROM L1D PREFETCHER INSTRUCTION	ACCESS:     116235  HIT:     116235  MISS:          0  HIT %:        100  MISS %:          0  MPKI: 0

ITLB AVERAGE MISS LATENCY: 9.04497 cycles
ITLB RQ	ACCESS:    7427042	FORWARD:          0	MERGED:    1360151	TO_CACHE:    6066891

DTLB TOTAL     ACCESS:    8991581  HIT:    8519203  MISS:     472378  HIT %:    94.7464  MISS %:    5.25356   MPKI: 9.44756
DTLB LOAD TRANSLATION DATA	ACCESS:    8991581  HIT:    8519203  MISS:     472378  HIT %:    94.7464  MISS %:    5.25356  MPKI: 9.44756

DTLB AVERAGE MISS LATENCY: 9.31018 cycles
DTLB RQ	ACCESS:   13351751	FORWARD:          0	MERGED:    4324160	TO_CACHE:    9027591

STLB TOTAL     ACCESS:    1212128  HIT:    1210060  MISS:       2068  HIT %:    99.8294  MISS %:   0.170609   MPKI: 0.04136
STLB LOAD TRANSLATION INSTRUCTION	ACCESS:     493604  HIT:     493341  MISS:        263  HIT %:    99.9467  MISS %:  0.0532816  MPKI: 0.00526
STLB LOAD TRANSLATION DATA	ACCESS:     472288  HIT:     470509  MISS:       1779  HIT %:    99.6233  MISS %:   0.376677  MPKI: 0.03558
STLB TRANSLATION FROM L1D PREFETCHER DATA	ACCESS:     246236  HIT:     246210  MISS:         26  HIT %:    99.9894  MISS %:   0.010559  MPKI: 0.00052

STLB AVERAGE MISS LATENCY: 68.5658 cycles
STLB RQ	ACCESS:    1333407	FORWARD:          0	MERGED:     121239	TO_CACHE:    1212168

STLB Hit, L1D data hit: 0
STLB Hit, L2C data hit: 0
STLB Hit, LLC data hit: 0
STLB Hit, LLC data miss: 0
STLB STLB hints to L2: 0
L1D TOTAL     ACCESS:   13101145  HIT:   11988413  MISS:    1112732  HIT %:    91.5066  MISS %:     8.4934   MPKI: 22.2546
L1D LOAD DATA	ACCESS:    6566175  HIT:    5830608  MISS:     735567  HIT %:    88.7976  MISS %:    11.2024  MPKI: 14.7113
L1D RFO DATA	ACCESS:    6208892  HIT:    5925075  MISS:     283817  HIT %:    95.4289  MISS %:    4.57114  MPKI: 5.67634
L1D PREFETCH DATA	ACCESS:     326078  HIT:     232730  MISS:      93348  HIT %:    71.3725  MISS %:    28.6275  MPKI: 1.86696

L1D PREFETCH  REQUESTED:     735230  ISSUED:     735230  USEFUL:      33225  USELESS:      68290
L1D USEFUL LOAD PREFETCHES:      33225 PREFETCH ISSUED TO LOWER LEVEL:     101558  ACCURACY: 32.7153
 TIMELY PREFETCHES:      33225 LATE PREFETCHES: 8174 DROPPED PREFETCHES: 9
L1D AVERAGE MISS LATENCY: 240237 cycles
L1D RQ	ACCESS:   10705041	FORWARD:          0	MERGED:    3940645	TO_CACHE:    6599768
L1D WQ	ACCESS:    6943640	FORWARD:     165008	MERGED:     191657	TO_CACHE:    6751983
L1D PQ	ACCESS:     367805	FORWARD:          0	MERGED:          0	TO_CACHE:     367425

L1D UNIQUE REGIONS ACCESSED: 0
L1D REGIONS CONFLICTS: 0
L1D Cross Page Prefetch Requests: 7003
L1D Same Page Prefetch Requests: 745810
L1D ROI Sum of L1D PQ occupancy: 4661446
L1D PREFETCHES PUSHED FROM L2C: 0
L1I TOTAL     ACCESS:    6864329  HIT:    4103125  MISS:    2761204  HIT %:    59.7746  MISS %:    40.2254   MPKI: 55.2241
L1I LOAD INSTRUCTION	ACCESS:    6351649  HIT:    3590445  MISS:    2761204  HIT %:    56.5278  MISS %:    43.4722  MPKI: 55.2241
L1I PREFETCH INSTRUCTION	ACCESS:     512680  HIT:     512680  MISS:          0  HIT %:        100  MISS %:          0  MPKI: 0

L1I PREFETCH  REQUESTED:    1121595  ISSUED:    1121595  USEFUL:          0  USELESS:          0
L1I USEFUL LOAD PREFETCHES:          0 PREFETCH ISSUED TO LOWER LEVEL:          0  ACCURACY: -nan
 TIMELY PREFETCHES:          0 LATE PREFETCHES: 0 DROPPED PREFETCHES: 0
L1I AVERAGE MISS LATENCY: 17.4598 cycles
L1I RQ	ACCESS:    9439909	FORWARD:          0	MERGED:    2818045	TO_CACHE:    6621864
L1I PQ	ACCESS:    1121595	FORWARD:          0	MERGED:     316417	TO_CACHE:     805178

L1BTB TOTAL     ACCESS:    5671186  HIT:    2043146  MISS:    3628040  HIT %:    36.0268  MISS %:    63.9732   MPKI: 72.5608
L1BTB BRANCH_DIRECT_JUMP	ACCESS:     548494  HIT:     144880  MISS:     403614	AVERAGE STALL: 25.0404
L1BTB BRANCH_INDIRECT	ACCESS:     182795  HIT:      65964  MISS:     116831	AVERAGE STALL: 89.9885
L1BTB BRANCH_CONDITIONAL	ACCESS:    2704693  HIT:    1412148  MISS:    1292545	AVERAGE STALL: 22.8351
L1BTB BRANCH_DIRECT_CALL	ACCESS:     945369  HIT:     106724  MISS:     838645	AVERAGE STALL: 25.7691
L1BTB BRANCH_INDIRECT_CALL	ACCESS:     172232  HIT:      21837  MISS:     150395	AVERAGE STALL: 125.977
L1BTB BRANCH_RETURN	ACCESS:    1117603  HIT:     291593  MISS:     826010	AVERAGE STALL: 25.828
L1BTB BRANCH_OTHER ACCESS:          0  HIT:          0  MISS:          0	AVERAGE STALL: -nan
L1BTB TOTAL ROB OCCUPANCY AT BTB MISS: 23.209

L2BTB TOTAL     ACCESS:    3602707  HIT:    3171585  MISS:     431122  HIT %:    88.0334  MISS %:    11.9666   MPKI: 8.62244
L2BTB BRANCH_DIRECT_JUMP	ACCESS:     399453  HIT:     350941  MISS:      48512	AVERAGE STALL: 25.0404
L2BTB BRANCH_INDIRECT	ACCESS:     106587  HIT:     101491  MISS:       5096	AVERAGE STALL: 89.9885
L2BTB BRANCH_CONDITIONAL	ACCESS:    1292545  HIT:    1151126  MISS:     141419	AVERAGE STALL: 22.8351
L2BTB BRANCH_DIRECT_CALL	ACCESS:     838645  HIT:     723258  MISS:     115387	AVERAGE STALL: 25.7691
L2BTB BRANCH_INDIRECT_CALL	ACCESS:     140869  HIT:     119460  MISS:      21409	AVERAGE STALL: 125.977
L2BTB BRANCH_RETURN	ACCESS:     824608  HIT:     725309  MISS:      99299	AVERAGE STALL: 25.828
L2BTB BRANCH_OTHER ACCESS:          0  HIT:          0  MISS:          0	AVERAGE STALL: -nan
L2BTB TOTAL ROB OCCUPANCY AT BTB MISS: 195.311

L2C TOTAL     ACCESS:    4488202  HIT:    3963407  MISS:     524795  HIT %:    88.3072  MISS %:    11.6928   MPKI: 10.4959
L2C LOAD INSTRUCTION	ACCESS:    2761204  HIT:    2482215  MISS:     278989  HIT %:    89.8961  MISS %:    10.1039  MPKI: 5.57978
L2C LOAD TRANSLATION INSTRUCTION	ACCESS:        294  HIT:         72  MISS:        222  HIT %:    24.4898  MISS %:    75.5102  MPKI: 0.00444
L2C LOAD DATA	ACCESS:     727378  HIT:     642873  MISS:      84505  HIT %:    88.3822  MISS %:    11.6178  MPKI: 1.6901
L2C RFO DATA	ACCESS:     283732  HIT:     223282  MISS:      60450  HIT %:    78.6947  MISS %:    21.3053  MPKI: 1.209
L2C PREFETCH DATA	ACCESS:     193948  HIT:     115545  MISS:      78403  HIT %:    59.5752  MISS %:    40.4248  MPKI: 1.56806
L2C WRITEBACK DATA	ACCESS:     519746  HIT:     498830  MISS:      20916  HIT %:    95.9757  MISS %:    4.02427  MPKI: 0.41832
L2C LOAD TRANSLATION DATA	ACCESS:       1851  HIT:        558  MISS:       1293  HIT %:    30.1459  MISS %:    69.8541  MPKI: 0.02586
L2C TRANSLATION FROM L1D PREFETCHER DATA	ACCESS:         49  HIT:         32  MISS:         17  HIT %:    65.3061  MISS %:    34.6939  MPKI: 0.00034

L2C PREFETCH  REQUESTED:      99935  ISSUED:      99935  USEFUL:       9353  USELESS:      69597
L2C USEFUL LOAD PREFETCHES:       9353 PREFETCH ISSUED TO LOWER LEVEL:      78990  ACCURACY: 11.8407
 TIMELY PREFETCHES:       9353 LATE PREFETCHES: 587 DROPPED PREFETCHES: 0
L2C AVERAGE MISS LATENCY: 36.9335 cycles
L2C RQ	ACCESS:    3774574	FORWARD:          0	MERGED:          0	TO_CACHE:    3774510
L2C WQ	ACCESS:     519746	FORWARD:         64	MERGED:          0	TO_CACHE:     519746
L2C PQ	ACCESS:     201493	FORWARD:          0	MERGED:       3485	TO_CACHE:     198008

L2C Dense regions hint from L2: 0
PSCL5 TOTAL     ACCESS:       4164  HIT:       2082  MISS:       2082  HIT %:         50  MISS %:         50   MPKI: 0.04164
PSCL5 LOAD TRANSLATION INSTRUCTION	ACCESS:       4066  HIT:       2033  MISS:       2033  HIT %:         50  MISS %:         50  MPKI: 0.04066
PSCL5 TRANSLATION FROM L1D PREFETCHER INSTRUCTION	ACCESS:         98  HIT:         49  MISS:         49  HIT %:         50  MISS %:         50  MPKI: 0.00098


PSCL4 TOTAL     ACCESS:       3874  HIT:       1933  MISS:       1941  HIT %:    49.8967  MISS %:    50.1033   MPKI: 0.03882
PSCL4 LOAD TRANSLATION INSTRUCTION	ACCESS:       1903  HIT:       1884  MISS:         19  HIT %:    99.0016  MISS %:   0.998424  MPKI: 0.00038
PSCL4 TRANSLATION FROM L1D PREFETCHER INSTRUCTION	ACCESS:         49  HIT:         49  MISS:          0  HIT %:        100  MISS %:          0  MPKI: 0
PSCL4 LOAD TRANSLATION DATA	ACCESS:       1873  HIT:          0  MISS:       1873  HIT %:          0  MISS %:        100  MPKI: 0.03746
PSCL4 TRANSLATION FROM L1D PREFETCHER DATA	ACCESS:         49  HIT:          0  MISS:         49  HIT %:          0  MISS %:        100  MPKI: 0.00098


PSCL3 TOTAL     ACCESS:       3988  HIT:       1990  MISS:       1998  HIT %:    49.8997  MISS %:    50.1003   MPKI: 0.03996
PSCL3 LOAD TRANSLATION INSTRUCTION	ACCESS:       1960  HIT:       1941  MISS:         19  HIT %:    99.0306  MISS %:   0.969388  MPKI: 0.00038
PSCL3 TRANSLATION FROM L1D PREFETCHER INSTRUCTION	ACCESS:         49  HIT:         49  MISS:          0  HIT %:        100  MISS %:          0  MPKI: 0
PSCL3 LOAD TRANSLATION DATA	ACCESS:       1930  HIT:          0  MISS:       1930  HIT %:          0  MISS %:        100  MPKI: 0.0386
PSCL3 TRANSLATION FROM L1D PREFETCHER DATA	ACCESS:         49  HIT:          0  MISS:         49  HIT %:          0  MISS %:        100  MPKI: 0.00098


PSCL2 TOTAL     ACCESS:       4068  HIT:       1986  MISS:       2082  HIT %:    48.8201  MISS %:    51.1799   MPKI: 0.04164
PSCL2 LOAD TRANSLATION INSTRUCTION	ACCESS:       2200  HIT:       1937  MISS:        263  HIT %:    88.0455  MISS %:    11.9545  MPKI: 0.00526
PSCL2 TRANSLATION FROM L1D PREFETCHER INSTRUCTION	ACCESS:         49  HIT:         49  MISS:          0  HIT %:        100  MISS %:          0  MPKI: 0
PSCL2 LOAD TRANSLATION DATA	ACCESS:       1770  HIT:          0  MISS:       1770  HIT %:          0  MISS %:        100  MPKI: 0.0354
PSCL2 TRANSLATION FROM L1D PREFETCHER DATA	ACCESS:         49  HIT:          0  MISS:         49  HIT %:          0  MISS %:        100  MPKI: 0.00098


LLC TOTAL     ACCESS:     591918  HIT:     564670  MISS:      27248  HIT %:    95.3967  MISS %:    4.60334   MPKI: 0.54496
LLC LOAD INSTRUCTION	ACCESS:     278989  HIT:     278396  MISS:        593  HIT %:    99.7874  MISS %:   0.212553  MPKI: 0.01186
LLC LOAD TRANSLATION INSTRUCTION	ACCESS:        222  HIT:        195  MISS:         27  HIT %:    87.8378  MISS %:    12.1622  MPKI: 0.00054
LLC LOAD DATA	ACCESS:      83991  HIT:      80677  MISS:       3314  HIT %:    96.0543  MISS %:    3.94566  MPKI: 0.06628
LLC RFO DATA	ACCESS:      60354  HIT:      47137  MISS:      13217  HIT %:    78.1009  MISS %:    21.8991  MPKI: 0.26434
LLC PREFETCH DATA	ACCESS:      78988  HIT:      69283  MISS:       9705  HIT %:    87.7133  MISS %:    12.2867  MPKI: 0.1941
LLC WRITEBACK DATA	ACCESS:      88064  HIT:      87745  MISS:        319  HIT %:    99.6378  MISS %:   0.362237  MPKI: 0.00638
LLC LOAD TRANSLATION DATA	ACCESS:       1293  HIT:       1220  MISS:         73  HIT %:    94.3542  MISS %:    5.64578  MPKI: 0.00146
LLC TRANSLATION FROM L1D PREFETCHER DATA	ACCESS:         17  HIT:         17  MISS:          0  HIT %:        100  MISS %:          0  MPKI: 0

LLC AVERAGE MISS LATENCY: 155.162 cycles
LLC RQ	ACCESS:     424889	FORWARD:          0	MERGED:          0	TO_CACHE:     424866
LLC WQ	ACCESS:      88064	FORWARD:         25	MERGED:          0	TO_CACHE:      88064
LLC PQ	ACCESS:      78990	FORWARD:          0	MERGED:          0	TO_CACHE:      78988

LLC Dense regions hint to LLC: 0

RAW hits: 1925885
Loads Generated: 12630925
Loads sent to L1D: 10705041
Stores Generated: 6943632
Stores sent to L1D: 6943640
Major fault: 0 Minor fault: 2629
Allocated PAGES: 2629

stream: 
stream:times selected: 1181432
stream:pref_filled: 121101
stream:pref_useful: 24040
stream:pref_late: 7196
stream:misses: 7946
stream:misses_by_poll: 0

CS: 
CS:times selected: 177554
CS:pref_filled: 60707
CS:pref_useful: 36663
CS:pref_late: 7156
CS:misses: 16131
CS:misses_by_poll: 11

CPLX: 
CPLX:times selected: 1002698
CPLX:pref_filled: 19870
CPLX:pref_useful: 4848
CPLX:pref_late: 3098
CPLX:misses: 93672
CPLX:misses_by_poll: 0

NL_L1: 
NL:times selected: 21134
NL:pref_filled: 772
NL:pref_useful: 366
NL:pref_late: 291
NL:misses: 1761
NL:misses_by_poll: 0

total selections: 2382818
total_filled: 93348
total_useful: 33225
total_late: 19111
total_polluted: 11
total_misses_after_warmup: 769166
conflicts: 5529191

test: 115752

DRAM Statistics
 CHANNEL 0
 RQ ROW_BUFFER_HIT:      10101  ROW_BUFFER_MISS:      16826
 DBUS_CONGESTED:          4
 WQ ROW_BUFFER_HIT:       1193  ROW_BUFFER_MISS:      11940  FULL:          0

 AVG_CONGESTED_CYCLE: 6

CPU 0 Branch Prediction Accuracy: 99.8242% MPKI: 0.3217 Average ROB Occupancy at Mispredict: 192.271
Branch types
NOT_BRANCH: 40851642 81.7033%
BRANCH_DIRECT_JUMP: 548494 1.09699%
BRANCH_INDIRECT: 182795 0.36559%
BRANCH_CONDITIONAL: 6181573 12.3631%
BRANCH_DIRECT_CALL: 945369 1.89074%
BRANCH_INDIRECT_CALL: 172232 0.344464%
BRANCH_RETURN: 1117603 2.23521%
BRANCH_OTHER: 0 0%

DRAM PAGES: 1048576
Allocated PAGES: 2629
Average_ROB_Occupancy: 219.592
Average_Decode_Occupancy: 19.36
Average_FTQ_Occupancy: 5.64681
Indirect max targets: 14 Average targets: 1.17516
Branch_type:  BRANCH_DIRECT_JUMP:  Count Percentage: 1.60033 7.78035 3.43175 8.08773 2.93618 5.9597 6.02651 64.1774 
Branch_type:  BRANCH_INDIRECT:  Count Percentage: 11.7438 5.58745 2.52736 0 1.33759 9.68975 17.6387 51.4754 
Branch_type:  BRANCH_CONDITIONAL:  Count Percentage: 20.6462 7.67925 1.58095 4.7251 1.897 4.75847 2.97875 55.7342 
Branch_type:  BRANCH_DIRECT_CALL:  Count Percentage: 0.257882 1.47839 1.27867 3.36448 3.36856 2.22198 0.729511 87.3005 
Branch_type:  BRANCH_INDIRECT_CALL:  Count Percentage: 9.51451 2.27185 2.98138 8.65563 1.4182 1.70759 1.27583 72.175 
Branch_type:  BRANCH_RETURN:  Count Percentage: 4.38529 5.10012 1.15677 5.64682 3.74977 6.1115 3.81125 70.0385 
Branch_type:  BRANCH_DIRECT_JUMP:  Total Count: 17535 85250 37602 88618 32172 65301 66033 703198 
Branch_type:  BRANCH_INDIRECT:  Total Count: 42898 20410 9232 0 4886 35395 64431 188031 
Branch_type:  BRANCH_CONDITIONAL:  Total Count: 2550751 948738 195320 583766 234366 587888 368011 6885722 
Branch_type:  BRANCH_DIRECT_CALL:  Total Count: 4873 27936 24162 63576 63653 41987 13785 1649650 
Branch_type:  BRANCH_INDIRECT_CALL:  Total Count: 32746 7819 10261 29790 4881 5877 4391 248404 
Branch_type:  BRANCH_RETURN:  Total Count: 97997 113971 25850 126188 83795 136572 85169 1565131 
Number of unique branch instructions: 10553
Upper 32 bits: 
aaaa
ffff
ffff0000
Unique upper 32 bits: 3
Unique upper 36 bits: 3
Unique upper 40 bits: 5
Unique upper 44 bits: 32
Unique upper 48 bits: 157
Offset_3 4373
Offset_4 252
Offset_5 472
Offset_6 529
Offset_7 619
Offset_8 568
Offset_9 504
Offset_10 409
Offset_11 337
Offset_12 303
Offset_13 238
Offset_14 240
Offset_15 194
Offset_16 222
Offset_17 165
Offset_18 144
Offset_19 251
Offset_20 139
Offset_21 235
Offset_22 405
Offset_23 241
Offset_24 346
Offset_25 117
Offset_47 94
Offset_64 2
decode_dispatch_called: 22969442 63.2073
Dispatch_width: 0 11457079 49.8797 31.5276
Dispatch_width: 1 903376 3.93295 2.48591
Dispatch_width: 2 1033751 4.50055 2.84468
Dispatch_width: 3 689148 3.00028 1.8964
Dispatch_width: 4 3973000 17.2969 10.9329
Dispatch_width: 5 408987 1.78057 1.12545
Dispatch_width: 6 4504101 19.6091 12.3944
Empty_decode_cycles: 13370396 36.7927
ROB_full_cycles: 6074302 16.7153
Starvation_cycles_per_kilo_instr: 257.614
Starvation_cycles_per_kilo_instr_3: 213.794
Starvation_cycles_per_kilo_instr_0: 187.532
Branch_type_1  (3,1)  (4,7)  (5,38)  (6,71)  (7,122)  (8,147)  (9,133)  (10,109)  (11,75)  (12,47)  (13,11)  (14,2)  (15,3)  (16,4)  (18,1)  (19,5)  (20,2)  (21,1)  (22,3)  (23,2)  (24,10)  (25,12) 
Branch_type_2  (3,1)  (4,1)  (5,1)  (8,4)  (9,4)  (10,1)  (12,1)  (13,1)  (14,1)  (16,3)  (17,2)  (20,2)  (21,2)  (23,5)  (24,1)  (47,43) 
Branch_type_3  (3,4371)  (4,244)  (5,429)  (6,442)  (7,469)  (8,354)  (9,277)  (10,164)  (11,128)  (12,54)  (13,10)  (64,2) 
Branch_type_4  (6,3)  (7,8)  (8,24)  (9,53)  (10,64)  (11,68)  (12,111)  (13,101)  (14,108)  (15,92)  (16,97)  (17,76)  (18,61)  (19,122)  (20,71)  (21,124)  (22,212)  (23,136)  (24,202)  (25,101) 
Branch_type_5  (8,3)  (9,1)  (10,4)  (11,5)  (12,3)  (13,14)  (14,16)  (15,11)  (16,22)  (17,11)  (18,23)  (19,14)  (20,11)  (21,13)  (22,43)  (23,26)  (24,37) 
Branch_type_6  (5,4)  (6,13)  (7,20)  (8,36)  (9,36)  (10,67)  (11,61)  (12,87)  (13,101)  (14,113)  (15,88)  (16,96)  (17,76)  (18,59)  (19,110)  (20,53)  (21,95)  (22,147)  (23,72)  (24,96)  (25,4)  (47,51) 
aaaaab1fc620: 2ac9e77e 2aca717c 2aca8eff 2acaf6bc 2acaf9aa 2acaf9f1 2acb1abc 2acb1b7f 2acd4e22 2acdb712 2acf5f9e 2ad0ef44 2ad3f15c 2ad414e6 2ad60e42 2ad8609c 2ad99830 2ada35cc 2ada4676 2ada6612 2adf183e 2adf30e5 2adf5602 2adf785c 2ae11572 2aeb2dcf 2aee101b 2aee1ae1 2aee9456 2b156a8c 2b156b61 2b156bea 2b167f35 2b177656 2b17feec 2b1a3e5a 
aaaaab1fc640: 2ac9ec07 2aca656e 2aca801d 2acaea11 2acaee73 2acb13ee 2acb1470 2acd462b 2ad0ef5d 2ad3f3fe 2ad86e9b 2ada1641 2ada4115 2ada6638 2adf30d4 2ae12e57 2aee1033 2b1693ab 2b16948c 2b169491 2b17d915 2b17fa85 2b17fccd 
aaaaab1fc740: 2aca1fb0 2aca45b3 2aca5aa1 2aca5c69 2aca66f9 2aca9426 2acaeecb 2acf3d2d 2acf3d64 2acf6089 2ad017ea 2ad5e7ef 2ad61064 2ad87373 2ad9bf84 2ad9c093 2ae9b606 2aea9ffa 2aee99f5 2aee9a2c 2aeece4b 
aaaaab1fcb00: 2acf2d72 2acf3734 2acf604c 2acfa5b7 2ad397b5 2ad3b800 2ae8af7d 2ae8aff0 2ae9aaba 2aea9fc6 2aeaa358 2aee910b 2aee91cf 2aee928e 2aee92e4 2aee99de 2af6fe87 2af70dfe 2b16850c 2b16c4a2 2b1765f4 2b178094 2b17d925 2b17db06 2b17ec8f 
aaaaab1fcb10: 2acf2d95 2acf3758 2acf6052 2acfa5f4 2ad397c3 2ad3b81c 2ae8af88 2ae8affe 2ae9aacf 2aeaa017 2aeaa36d 2aee9114 2aee91d8 2aee934d 2aee9353 2aee9a14 2af6fe8c 2af70e22 2b168526 2b16c542 2b176609 2b1780a3 2b17d95d 2b17db44 2b17ecac 
aaaaac68f310: 2ac9ec8c 2ac9fb44 2ac9fbd2 2aca59ab 2acac04c 2acaf6e0 2acaf6ec 2acaf6f9 2acaf700 2acaf708 2acf2d90 2ad3cfbd 2ad3cfc4 2ad3d000 2ad3f35f 2ad4955d 2ad49571 2ad4f3f2 2ad4f400 2ad5f240 2ad5f37c 2ad5f86a 2ad5f86f 2ad5f880 2ad5fc0d 2ad5fc14 2ad5fc21 2ad5fe1b 2ad873bb 2ad873e3 2ad8a6b2 2ad9086e 2ad93096 2ad9bbb2 2ada152c 2ada1554 2ada3332 2ada5522 2adf3130 2adf313c 2adf3a3f 2adf3bd9 2adf5788 2adf7a8d 2ae07f6b 2ae0857a 2ae0857e 2ae08630 2ae08634 2ae08637 2ae08642 2ae0866f 2ae086e4 2ae086ec 2ae08717 2ae0871b 2aee0170 2aee1d38 2aee75f4 2aee7662 2aee85ca 2aee85e4 2aee8eef 2aee9a0a 2af70b84 2af74e8f 2b17d843 
aaaaac690ef0: 2aca598b 2acb111b 2acb175f 2acb1772 2acbfaf4 2acbfb00 2acf374f 2acf6d43 2acfa5c8 2ad3baf1 2ad3d4ac 2ad3d4b8 2ad3f1cf 2ad486b2 2ad5a59b 2ad5fc64 2ad5fcf9 2ad6121c 2ad906e9 2ad907bf 2ad9bada 2ada16ce 2ada1ad5 2ada43df 2ada64c0 2ada72ee 2adeb71a 2adf3bcb 2adf7a38 2adf7c6a 2adf8872 2adf8880 2adf9959 2adf9abe 2ae07f78 2ae08503 2ae08754 2ae12e80 2aea3bea 2aecb509 2aee00b0 2aee2bdd 2aee5467 2aee5601 2aee8f20 2af703fd 2af7048b 2af74e74 2dfba627 
Unique trigger count: 
1 10054
2 540
3 86
4 31
5 15
6 9
7 8
8 2
9 2
10 2
11 1
12 1
13 2
14 2
16 2
19 1
21 1
23 1
25 2
36 1
49 1
67 1
BTB PER SET UNIQUE ADDR: 3 4 3 3 1 1 3 2 4 0 2 0 5 3 1 3 3 2 3 5 3 4 2 3 4 5 1 4 3 2 6 6 4 3 5 2 1 6 5 2 4 4 4 6 6 4 4 4 6 3 3 2 3 1 0 3 4 3 3 3 1 4 2 3 1 4 5 4 3 5 5 1 1 4 2 3 3 6 1 4 2 2 1 4 3 3 2 5 3 3 6 5 3 5 2 0 3 4 2 3 4 4 3 3 3 2 1 2 3 2 2 2 3 6 2 6 2 4 4 1 5 4 2 0 1 2 2 2 7 4 6 2 4 2 6 4 2 2 3 3 5 4 4 2 3 5 3 5 5 5 3 9 3 5 4 1 4 4 3 3 5 6 5 4 6 5 2 2 9 3 3 3 5 3 1 2 4 4 6 1 3 4 7 4 7 6 4 1 2 3 5 3 3 4 4 4 3 3 3 5 3 2 4 2 3 3 2 5 3 1 2 4 5 4 4 2 3 5 4 0 1 3 2 4 3 2 4 3 0 4 8 4 3 4 4 4 5 2 2 3 1 0 6 4 11 8 1 3 4 4 2 2 1 4 2 7 3 5 4 3 4 4 4 2 3 7 3 2 4 2 3 2 2 3 4 2 1 1 3 3 4 3 6 2 5 5 3 3 1 1 0 3 1 5 2 1 5 3 2 2 3 3 2 2 3 2 4 2 8 5 4 1 3 2 5 2 6 6 2 4 4 7 3 4 2 3 2 7 1 2 5 0 2 5 5 1 3 3 6 0 3 0 1 5 5 3 1 3 4 5 4 7 6 3 5 3 2 0 5 1 2 5 2 4 7 5 1 1 2 1 3 2 2 4 4 4 3 4 3 4 5 3 1 5 3 2 5 2 6 1 5 4 4 2 2 1 5 0 1 3 4 2 5 2 2 3 4 3 1 1 1 3 6 4 2 3 6 3 1 3 1 1 4 4 4 6 2 0 2 5 2 2 9 3 5 5 3 3 4 0 3 4 5 4 5 6 2 4 3 2 4 3 1 3 5 1 1 4 7 3 3 3 4 6 1 3 5 2 3 3 0 4 5 2 2 1 4 5 2 1 2 1 2 2 0 4 3 0 6 1 5 2 3 4 0 6 3 3 3 1 5 1 1 1 1 2 2 2 2 3 3 2 5 8 2 1 2 5 4 6 4 5 4 3 6 6 1 7 6 4 5 3 4 6 3 4 2 1 4 1 2 5 6 3 6 2 8 3 7 9 4 6 3 6 1 3 3 1 4 4 8 3 5 3 2 1 4 3 3 7 3 2 3 7 2 2 3 4 1 6 5 2 2 0 1 0 0 9 5 3 6 8 2 2 3 3 6 2 4 2 6 2 6 7 2 4 3 4 3 2 5 3 3 2 2 3 2 0 3 1 4 3 8 2 2 4 3 5 2 3 5 4 3 3 5 5 3 5 3 3 8 1 4 4 1 0 4 4 3 4 3 2 5 2 3 0 5 3 2 3 6 2 5 4 6 3 5 3 2 3 5 5 4 4 5 6 3 3 3 3 3 2 5 2 5 3 5 3 4 3 1 5 2 3 3 3 6 4 5 5 0 6 0 3 3 3 3 1 3 1 3 3 3 1 2 1 8 2 0 3 2 0 1 1 1 3 1 4 2 4 6 4 2 1 3 4 8 3 2 2 2 3 2 4 2 2 4 2 3 2 0 2 1 4 2 2 3 6 4 1 3 3 1 5 4 4 8 2 2 2 3 3 0 3 3 3 5 2 1 3 4 4 0 3 8 6 3 4 0 3 2 4 1 1 4 6 7 2 2 2 5 3 4 3 4 3 3 5 1 2 1 3 4 0 5 3 1 2 0 4 5 2 4 2 2 2 3 2 4 4 3 1 3 2 5 2 2 2 5 3 2 2 3 4 2 4 7 5 5 2 6 3 5 4 5 4 3 2 4 4 2 6 2 1 8 3 3 4 5 3 1 3 3 6 4 0 2 3 5 4 3 6 4 5 6 3 2 3 3 4 5 2 3 4 2 1 6 4 2 2 5 2 1 4 5 5 4 5 3 5 5 4 1 3 1 5 0 2 6 2 6 4 5 3 4 2 3 2 5 8 5 4 9 7 6 4 6 5 2 6 4 2 1 4 4 6 5 5 4 4 7 1 5 4 2 4 6 6 4 2 3 2 4 5 2 6 9 5 6 3 3 3 0 5 6 1 7 5 1 3 6 5 3 4 2 1 2 4 4 2 5 4 2 7 4 5 4 5 3 5 3 3 4 2 2 5 4 3 3 3 5 3 4 3 6 2 5 3 2 5 5 2 10 5 3 4 3 2 2 3 4 7 6 2 3 2 3 2 3 1 3 2 4 4 2 4 5 5 4 6 0 3 3 4 4 4 2 1 2 2 3 1 0 1 4 1 2 3 3 4 1 8 5 3 2 1 10 1 2 4 1 2 6 5 3 7 2 5 4 5 3 5 3 2 1 1 5 1 4 4 3 8 4 1 6 4 6 2 3 4 5 3 5 7 4 4 6 1 4 5 7 4 3 2 4 3 6 6 3 6 6 6 4 3 4 5 1 2 3 5 1 3 2 1 3 5 2 3 5 2 2 5 4 2 5 1 7 3 3 2 3 1 3 5 3 4 3 4 2 6 2 3 7 3 4 5 3 5 2 8 3 5 3 8 6 2 6 1 5 2 1 2 4 4 3 1 3 4 3 1 2 3 4 4 3 2 3 4 2 5 2 5 4 5 0 5 3 3 2 6 7 1 8 0 1 4 4 2 5 1 3 3 4 1 1 2 4 5 3 4 1 4 3 6 5 1 4 3 3 6 9 4 3 7 5 5 1 1 3 5 6 3 2 2 3 3 4 4 5 3 1 4 2 3 6 8 5 3 3 6 1 2 6 3 4 1 3 2 6 8 2 3 3 3 4 5 2 5 6 5 5 2 1 5 4 2 4 3 4 4 3 4 7 3 5 4 3 5 5 2 1 7 4 4 3 3 3 2 3 3 2 2 5 4 2 3 5 2 1 3 3 7 4 2 3 4 2 4 3 3 4 3 2 1 4 2 4 2 5 3 4 4 2 1 2 6 1 5 2 4 2 4 7 1 1 5 4 3 3 3 5 2 3 4 5 5 4 4 4 3 3 3 2 3 5 2 4 1 4 0 8 3 3 6 4 4 5 7 3 2 3 3 2 3 4 1 4 2 4 2 0 5 1 5 3 3 3 4 3 2 5 3 4 2 4 1 6 3 0 3 3 1 1 4 1 5 3 3 6 3 2 2 2 3 2 2 7 2 3 5 3 3 3 3 2 2 5 0 2 3 4 3 2 1 2 0 3 0 4 2 4 3 2 3 2 1 2 5 4 2 6 1 3 3 2 2 5 5 2 2 6 0 1 2 3 1 1 2 3 3 5 3 1 1 7 2 1 4 1 6 1 4 2 3 6 2 3 2 1 3 3 1 2 3 4 2 3 3 1 3 0 5 2 3 3 0 4 3 5 3 5 3 3 4 1 3 2 2 2 2 5 0 2 3 3 3 4 1 3 3 2 9 7 2 3 2 4 1 1 3 6 2 3 0 3 2 4 2 3 5 6 5 8 0 4 1 8 4 4 5 3 8 2 4 8 3 0 6 4 3 3 5 3 3 2 1 2 5 2 2 3 3 2 3 6 3 5 4 6 1 1 5 5 3 3 5 5 3 6 2 5 5 2 6 4 3 3 1 3 6 5 3 2 3 3 3 4 4 2 2 3 2 3 1 3 7 0 2 2 3 3 3 5 3 4 2 5 1 2 2 5 2 4 5 6 1 1 7 2 4 2 3 4 7 2 3 2 4 6 2 5 3 5 3 5 9 4 4 3 5 1 5 3 3 2 3 0 2 2 4 4 3 2 4 3 5 4 2 4 9 0 3 2 4 4 4 3 4 3 6 3 4 1 5 3 3 4 3 3 0 2 5 0 7 2 6 6 1 4 3 2 0 4 2 3 5 3 6 2 3 2 2 3 5 6 1 3 3 0 3 2 4 5 3 2 3 5 2 3 2 6 4 4 1 5 3 0 2 4 1 1 8 2 0 4 2 4 3 2 3 6 3 3 6 1 5 4 6 2 6 5 3 3 2 7 1 4 1 3 3 4 4 3 4 2 1 2 5 0 3 0 3 4 6 2 2 5 2 3 3 3 1 2 2 4 2 4 2 5 3 2 3 1 2 3 3 3 2 3 3 2 1 1 2 2 5 1 5 1 6 4 3 3 2 5 1 2 3 4 4 3 4 5 6 3 3 3 3 3 2 0 3 2 0 0 1 2 2 4 2 5 2 2 3 4 1 1 3 3 2 2 7 3 2 7 6 4 2 3 2 3 5 3 3 5 3 4 1 2 4 5 4 2 4 3 2 4 3 5 7 3 3 0 4 1 0 2 3 0 4 4 6 1 3 4 7 5 0 2 2 4 2 5 2 3 2 8 3 2 2 3 7 2 7 3 4 7 0 1 3 1 4 4 2 0 2 3 4 6 4 1 0 3 4 6 1 1 1 3 6 2 1 5 5 3 3 5 4 1 6 2 6 2 1 2 2 2 2 6 1 3 3 3 3 4 1 5 3 5 3 4 2 1 3 6 4 4 0 
BTB PER SET COUNT: 3 4 3 3 1 1 3 2 4 0 2 0 2431 3 1 3 3 2 3 1472 3 4 2 3 4 16 1 4 1469 2 2917 28 4 3 9 2 2934 701 700 2 4 4 7 2176 5412 4 4 4 1587 3 3 2 3 1 0 3 4 3 3 3 1 4 2 3 1 363 510 4 3 946 700 1 1 4 2 3 488 712 1 4 2 2 1 4 3 5 2 11 3 3 2514 501 3 3935 3 0 3 4 2 3 5 4 5 3 3 3 1 2 3 2 2 2 3 1924 2 1777 2 4 4 1 6 4 2 0 1 2 2 2 1951 5 1945 2 4 2 980 4 2 2 3 3 9 6 4 2 3 11 3 4422 6 6 3 6802 3 2432 4 1 4 4 3 3 6 935 6 4 9 1968 2 2 8325 3 3 3 6 3 1 2 4 4 990 1 3 4 6841 4 10 10 4 1 2 4 44 3 3 4 4 7 3 3 3 6 3 2 4 2 6 3 2 1474 3 1 2 5 17 4 4 2 3 8 4 0 1 3 2 4 3 2 4 18 0 4 5828 4 3 4 4 4 7 2 2 3 1 0 2433 4 9297 1954 1 3 4 4 2 2 1 4 2 1955 3 7 5 3 4 4 4 2 1469 1459 3 2 4 2 4 2 2 3 4 3 1 1 4 3 5 3 1947 2 700 2432 3 3 1 1 0 3 1 16 2 1 10 3 2 2 3 3 2 2 3 2 4 2 1950 932 4 1 3 2 932 2 2433 1173 3 4 4 2157 4 4 2 3 2 32 1 2 976 0 2 17 1522 2 975 3 24 0 3 0 1 980 977 3 1 3 4 7 4 115 8 3 54 3 2 0 8 1 2 6 2 4 2693 8 1 1 2 1 3 2 2 4 4 4 3 4 3 4 23 3 1 41 3 2 12 2 12 1 19 4 4 2 2 1 3420 0 1 3 4 2 5 2 2 3 1470 3 1 981 1 3 13 4 982 3 140 3 1 91 1 1 4 4 4 9 4 0 2 6 132 2 2672 3 927 2431 3 3 4 0 3 5 1163 4 7 943 2 4 3 2 4 3 1 3 1945 1 1 4 1486 3 3 3 4 1954 1 3 7 2 3 3 0 4 39 487 2 1 4 932 2 1 2 1 2 487 0 4 3 0 29 1 5 2 3 4 0 28 3 4 3 1 1946 11 1 1 1 2 2 2 2 3 3 2 7 36 3 1 2 2431 4 501 4 1473 4 3 20 1461 1 1949 4914 4 6 3 4 22 3 489 2 1 5 1 3 1460 209 5 17 2 98 3 997 9272 4 1475 5 2915 1 3 6 1 4 4 6850 4 1946 3 2 1 4 3 3 2964 3 3 3 5401 2 2 3 4 1 25 8 49 2 0 1 0 0 3896 6 3 1946 2918 2 2 983 4 10 2 4 2 9 2 10 1401 2 4 3 4 3 2 2430 3 3 2 2 4 993 0 3 1 4 488 3409 2 3 4 3 12 2 3 1945 1470 3 7 976 6 3 6 3 3 2933 1 4 4 1 0 4 5 3 4 3 2 11 2 3 0 6 3 2 3 7818 2 22 5 1946 3 2951 975 2 3 700 6 5 5 1460 2996 3 3 5 3 3 2 5 974 1460 3 19 1469 4 3 1 981 2 3 3 3 1950 5 16 47 0 2435 0 3 3 975 3 1 3 1 3 3 5 1 974 1 2459 2 0 3 2 0 1 1 1 3 1 4 2 4 1465 4 982 1 3 4 12 3 2 2 2 3 2 4 2 2 489 2 3 973 0 2 1 5 2 2 3 2916 4 1 3 3 1 19 4 4 5894 2 3 2 3 4 0 142 3 4 2955 3 1 3 4 4 0 3 3057 4913 3 4 0 3 2 44 1 1 4 1473 1956 2 2 2 12 3 4 3 1949 3 5 19 1 4 1 3 5 0 6 4 2 2 0 4 8 2 4 2 3 2 3 2 4 84 3 1 3 2 1946 2 3 2 1460 3 2 2 3 1470 2 6 1966 6 8 2 2431 3 1945 6 8 4 3 2 4 4 2 4897 2 1 6391 983 3 4 1460 4 1 3 3 2490 4 0 3 3 22 4 3 4908 5 8 66 3 2 3 3 4 8 2 3 5 2 1 705 4 3 2 1680 2 1 58 8 2473 4 932 4 8 47 4 1 3 1 1465 0 2 980 2 49 4 1464 3 6 2 3 2 1945 86 6 490 5410 3951 1460 4 2065 6 2 24 4 2 1 984 4 2432 25 1459 4 4 726 1 366 4 3 4 1387 1949 4 2 3 487 4 4905 2 21 1076 7 1954 3 3 3 0 365 26 1 7343 20 1 3 1951 17 490 4 2 3 2 4 4 2 1692 4 2 3407 4 6 4 1945 4 24 3 3 4 2 2 21 4 3 3 3 1959 3 2450 362 1674 4 23 4 2 7 1681 2 5184 22 3 4 3 2 2 3 4 2920 1950 3 3 3 3 2 3 2 3 2 4 5 2 4 6 1946 4 1472 0 3 3 4 1470 366 2 1 2 5 3 1 0 1 4 1 2 3 3 5 1 3888 1460 3 2 2 11252 1 2 4 1 2 1946 115 3 5392 2 23 4 2431 3 26 3 2 1 1 27 1 4 4 3 1963 4 1 2028 4 2435 2 488 4 14 3 2431 1837 4 4 2434 1 5 7 4922 6 3 2 5 3 1465 1933 3 2433 1461 2304 4 3 4 7 1 3 3 1947 1 3 2 1 3 8 2 3 502 2 2 27 4 2 12 1 5640 3 3 3 3 1 3 6 3 4 4 5 2 26 2 3 1715 3 4 6 3 1944 2 5881 3 1459 3 2565 7343 2 5393 1 19 2 1 2 489 4 3 1 4 157 3 1 3 488 5 4 3 2 3 4 2 1460 2 5 4 17 0 1945 3 3 2 43 7356 1 40 0 1 5 4 3 22 1 3 974 4 1 1 2 4 20 3 4 1 4 3 7336 14 1 4 3 3 2881 10259 1977 3 7344 24 1945 1 1 4 1946 2431 3 2 2 3 4 4 4 17 3 1 4 2 3 3447 7950 3936 3 3 387 1 2 25 3 4 1 3 2 2916 6624 982 5 3 3 4 7 2 1945 1950 2429 6 2 1 21 4 2 8 3 4 4 3 4 1956 3 1945 4 488 1945 2430 6 1 3000 4 4 3 4 3 2 3 3 2 2 16 4 2 3 929 2 1 4 3 2917 8 2 3 4 2 4 3 3 4 3 4 1 4 2 4 2 9 3 6 4 2 1 2 940 1 6 2 4 2 4 362 1 1 9 4 983 3 3 2433 3 3 46 6 17 5 4 5 3 3 3 2 3 1946 4 4 1 4 0 5894 3 3 2917 4 4 2430 6869 4 2 4 3 2 4 4 2 4 3 4 4 0 3914 1 5 3 3 3 4 3 2 1473 3 4 1342 4 2 525 3 0 3 3 1 2 1344 1 6 3 3 1950 4 2 2 2 3 2 2 2921 2 3 59 4 3 3 5 2 2 7 0 4 3 4 983 2 1 2 0 3 0 4 2 4 3 2 3 973 1 9 9 36 2 2432 1 3 3 2 2 10 14 137 2 21512 0 1 2 3 1 1 2 3 3 2031 361 1 1 1399 2 1 4 1 2437 1 4 2 3 1943 2 3 2 1 3 3 1 2 3 4 2 3 3 1 3 0 3935 2 3 5 0 4 451 1947 3 7 3 3 4 1 4 2 2 2 2 7 0 2 3 3 3 11 1 3 3 2 3644 2917 2 3 2 4 1 1 3 1684 2 3 0 3 2 4 2 3 9 2431 17 5878 0 5 1 2181 4 4 24 3 3407 2 4 8452 3 0 2917 1470 3 3 7 3 3 2 1 2 987 2 2 3 3 2 3 1682 5 1944 4 985 2911 1 1206 6850 3 9 10 7 3 3445 2 1564 1945 2 1954 4 272 362 1 1469 1470 11 98 8 3 3 3 6 4 3 2 4 2 3 1 3 2544 0 2 2 3 4 3 506 3 4 2 3928 1 2 3 1460 2 1460 1460 2918 1 1 6350 2 976 3 4 4 1950 487 3 2 4 2918 2 490 3 4565 3 6 8818 4 4 14662 2916 1 1946 1469 4 2 3 0 3 2 4 4 3 2 5 3 8 4 2 169 3406 0 1469 2 1470 101 4 3 4 4 2304 3 774 1 2430 3 4 4 3 3 0 2 2988 0 5391 2 1208 2436 1 4 3 2 0 4 2 3 2429 3 4895 2 3 2 2 3 6 7334 1 3 514 0 3 2 4 1945 983 2 4 1955 2 3 2 2177 5 4 1 25 3 0 2 5 1467 1 3849 2 0 4 2 4 3 4 3 2390 3 441 2430 1 2430 4 1950 224 1947 109 3 4 2 4202 1 199 1 3 1469 4 4 3 4 2 1 2 500 0 3 0 3 5 3242 2 2 706 390 3 3 983 1 2 2 5 2 4 2 102 3 2 3 1 2 197 3 3 2 4 3 2 1 1 2 2 1450 1 7 1 3937 4 3 3 10 6 1 2 3 4 4 3 976 6 980 3 3 3 3 3 2 0 3 2 0 0 1 2 2 4 9 2431 2 2 3 4 1 1 3 3 2 2 3226 3 2 3148 2432 137 2 3 2 3 22 3 3 9 3 4 1 2 4 6 974 2 4 3 2 4 3 9 2514 3 4 0 4 1 0 2 3 0 4 1470 991 1 3 4 2408 7 0 2 2 4 3 6 2 4 2 3851 3 2 2 3 2437 2 3407 3 4 5162 0 1 3 1 4 4 2 0 2 3 4 20 4 1 0 3 4 1466 1 1 1 3 2431 2 1 19 7 3 3 1945 4 1 2435 2 1949 2 1 2 2 2 2 6 1 3 3 3 3 4 1 18 3 221 3 4 2 1 3 1499 4 4 0 
