
*** ChampSim Multicore Out-of-Order Simulator ***

Warmup Instructions: 50000000
Simulation Instructions: 50000000
Number of CPUs: 1
LLC sets: 2048
LLC ways: 16
Off-chip DRAM Size: 4096 MB Channels: 1 Width: 64-bit Data Rate: 6400 MT/s
CPU 0 runs ./micro_traces/srv191.trace.gz
.gz
ITLB has LRU replacement policy
DTLB has LRU replacement policy
STLB has LRU replacement policy
FDIP Prefetcher at L1I
L1I has LRU replacement policy
L1D has LRU replacement policy
Initialize SRRIP state for L2C
Initialize DRRIP state for LLC
Heartbeat_Variant_0 : 1302 0.211914 per_variant_size: 0 1302 0 0 0 0 0 0 0 
Heartbeat_Variant_1 : 2675 0.435384 per_variant_size: 0 972 1703 0 0 0 0 0 0 
Heartbeat_Variant_2 : 0 0 per_variant_size: 0 0 0 0 0 0 0 0 0 
Heartbeat_Variant_3 : 0 0 per_variant_size: 0 0 0 0 0 0 0 0 0 
Heartbeat_Variant_0_evicts 0 : 5356 1 : 25 2 : 0 3 : 0 
Heartbeat_Variant_1_evicts 0 : 15 1 : 0 2 : 0 3 : 0 
Heartbeat_Variant_2_evicts 0 : 0 1 : 0 2 : 0 3 : 0 
Heartbeat_Variant_3_evicts 0 : 0 1 : 0 2 : 0 3 : 0 
Heartbeat CPU 0 instructions: 10000002 cycles: 2791304 heartbeat IPC: 3.58256 cumulative IPC: 3.58256 (Simulation time: 0 hr 1 min 54 sec) 
Heartbeat_Variant_0 : 1383 0.225098 per_variant_size: 0 1383 0 0 0 0 0 0 0 
Heartbeat_Variant_1 : 2851 0.46403 per_variant_size: 0 978 1873 0 0 0 0 0 0 
Heartbeat_Variant_2 : 0 0 per_variant_size: 0 0 0 0 0 0 0 0 0 
Heartbeat_Variant_3 : 0 0 per_variant_size: 0 0 0 0 0 0 0 0 0 
Heartbeat_Variant_0_evicts 0 : 5376 1 : 11 2 : 0 3 : 0 
Heartbeat_Variant_1_evicts 0 : 9 1 : 0 2 : 0 3 : 0 
Heartbeat_Variant_2_evicts 0 : 0 1 : 0 2 : 0 3 : 0 
Heartbeat_Variant_3_evicts 0 : 0 1 : 0 2 : 0 3 : 0 
Heartbeat CPU 0 instructions: 20000000 cycles: 5581778 heartbeat IPC: 3.58362 cumulative IPC: 3.58309 (Simulation time: 0 hr 3 min 33 sec) 
Heartbeat_Variant_0 : 1383 0.225098 per_variant_size: 0 1383 0 0 0 0 0 0 0 
Heartbeat_Variant_1 : 2852 0.464193 per_variant_size: 0 976 1876 0 0 0 0 0 0 
Heartbeat_Variant_2 : 0 0 per_variant_size: 0 0 0 0 0 0 0 0 0 
Heartbeat_Variant_3 : 0 0 per_variant_size: 0 0 0 0 0 0 0 0 0 
Heartbeat_Variant_0_evicts 0 : 5387 1 : 1 2 : 0 3 : 0 
Heartbeat_Variant_1_evicts 0 : 2 1 : 0 2 : 0 3 : 0 
Heartbeat_Variant_2_evicts 0 : 0 1 : 0 2 : 0 3 : 0 
Heartbeat_Variant_3_evicts 0 : 0 1 : 0 2 : 0 3 : 0 
Heartbeat CPU 0 instructions: 30000002 cycles: 8372488 heartbeat IPC: 3.58332 cumulative IPC: 3.58316 (Simulation time: 0 hr 5 min 11 sec) 
Heartbeat_Variant_0 : 1400 0.227865 per_variant_size: 0 1400 0 0 0 0 0 0 0 
Heartbeat_Variant_1 : 2908 0.473307 per_variant_size: 0 965 1943 0 0 0 0 0 0 
Heartbeat_Variant_2 : 0 0 per_variant_size: 0 0 0 0 0 0 0 0 0 
Heartbeat_Variant_3 : 0 0 per_variant_size: 0 0 0 0 0 0 0 0 0 
Heartbeat_Variant_0_evicts 0 : 5319 1 : 7 2 : 0 3 : 0 
Heartbeat_Variant_1_evicts 0 : 7 1 : 0 2 : 0 3 : 0 
Heartbeat_Variant_2_evicts 0 : 0 1 : 0 2 : 0 3 : 0 
Heartbeat_Variant_3_evicts 0 : 0 1 : 0 2 : 0 3 : 0 
Heartbeat CPU 0 instructions: 40000000 cycles: 11162217 heartbeat IPC: 3.58458 cumulative IPC: 3.58352 (Simulation time: 0 hr 6 min 50 sec) 
Heartbeat_Variant_0 : 1401 0.228027 per_variant_size: 0 1401 0 0 0 0 0 0 0 
Heartbeat_Variant_1 : 2917 0.474772 per_variant_size: 0 966 1951 0 0 0 0 0 0 
Heartbeat_Variant_2 : 0 0 per_variant_size: 0 0 0 0 0 0 0 0 0 
Heartbeat_Variant_3 : 0 0 per_variant_size: 0 0 0 0 0 0 0 0 0 
Heartbeat_Variant_0_evicts 0 : 5382 1 : 2 2 : 0 3 : 0 
Heartbeat_Variant_1_evicts 0 : 2 1 : 0 2 : 0 3 : 0 
Heartbeat_Variant_2_evicts 0 : 0 1 : 0 2 : 0 3 : 0 
Heartbeat_Variant_3_evicts 0 : 0 1 : 0 2 : 0 3 : 0 
Heartbeat CPU 0 instructions: 50000000 cycles: 13954261 heartbeat IPC: 3.58161 cumulative IPC: 3.58313 (Simulation time: 0 hr 8 min 29 sec) 

Warmup complete CPU 0 instructions: 50000004 cycles: 13954262 (Simulation time: 0 hr 8 min 29 sec) 

Cycle: 20000000 FTQ IN: 58548404 FTQ occupancy: 20.5961 DECODE IN: 58548404 DECODE occupancy: 53.7173 ROB IN: 58548404 ROB occupancy: 319.933 ROB OUT: 58548145
Heartbeat_Variant_0 : 1401 0.228027 per_variant_size: 0 1401 0 0 0 0 0 0 0 
Heartbeat_Variant_1 : 2918 0.474935 per_variant_size: 0 980 1938 0 0 0 0 0 0 
Heartbeat_Variant_2 : 0 0 per_variant_size: 0 0 0 0 0 0 0 0 0 
Heartbeat_Variant_3 : 0 0 per_variant_size: 0 0 0 0 0 0 0 0 0 
Heartbeat_Variant_0_evicts 0 : 5397 1 : 0 2 : 0 3 : 0 
Heartbeat_Variant_1_evicts 0 : 0 1 : 0 2 : 0 3 : 0 
Heartbeat_Variant_2_evicts 0 : 0 1 : 0 2 : 0 3 : 0 
Heartbeat_Variant_3_evicts 0 : 0 1 : 0 2 : 0 3 : 0 
Heartbeat CPU 0 instructions: 60000001 cycles: 21112254 heartbeat IPC: 1.39704 cumulative IPC: 1.39704 (Simulation time: 0 hr 10 min 29 sec) 
Heartbeat_Variant_0 : 1402 0.22819 per_variant_size: 0 1402 0 0 0 0 0 0 0 
Heartbeat_Variant_1 : 2920 0.47526 per_variant_size: 0 978 1942 0 0 0 0 0 0 
Heartbeat_Variant_2 : 0 0 per_variant_size: 0 0 0 0 0 0 0 0 0 
Heartbeat_Variant_3 : 0 0 per_variant_size: 0 0 0 0 0 0 0 0 0 
Heartbeat_Variant_0_evicts 0 : 5474 1 : 1 2 : 0 3 : 0 
Heartbeat_Variant_1_evicts 0 : 0 1 : 0 2 : 0 3 : 0 
Heartbeat_Variant_2_evicts 0 : 0 1 : 0 2 : 0 3 : 0 
Heartbeat_Variant_3_evicts 0 : 0 1 : 0 2 : 0 3 : 0 
Heartbeat CPU 0 instructions: 70000003 cycles: 28183474 heartbeat IPC: 1.41418 cumulative IPC: 1.40556 (Simulation time: 0 hr 12 min 27 sec) 
Cycle: 30000000 FTQ IN: 14003135 FTQ occupancy: 15.2184 DECODE IN: 14003028 DECODE occupancy: 39.1345 ROB IN: 14002968 ROB occupancy: 253.108 ROB OUT: 14002875
Heartbeat_Variant_0 : 1403 0.228353 per_variant_size: 0 1403 0 0 0 0 0 0 0 
Heartbeat_Variant_1 : 2933 0.477376 per_variant_size: 0 980 1953 0 0 0 0 0 0 
Heartbeat_Variant_2 : 0 0 per_variant_size: 0 0 0 0 0 0 0 0 0 
Heartbeat_Variant_3 : 0 0 per_variant_size: 0 0 0 0 0 0 0 0 0 
Heartbeat_Variant_0_evicts 0 : 5379 1 : 1 2 : 0 3 : 0 
Heartbeat_Variant_1_evicts 0 : 1 1 : 0 2 : 0 3 : 0 
Heartbeat_Variant_2_evicts 0 : 0 1 : 0 2 : 0 3 : 0 
Heartbeat_Variant_3_evicts 0 : 0 1 : 0 2 : 0 3 : 0 
Heartbeat CPU 0 instructions: 80000003 cycles: 35374084 heartbeat IPC: 1.3907 cumulative IPC: 1.40057 (Simulation time: 0 hr 14 min 28 sec) 
Cycle: 40000000 FTQ IN: 13988195 FTQ occupancy: 15.2116 DECODE IN: 13988302 DECODE occupancy: 39.0135 ROB IN: 13988362 ROB occupancy: 253.346 ROB OUT: 13988580
Heartbeat_Variant_0 : 1403 0.228353 per_variant_size: 0 1403 0 0 0 0 0 0 0 
Heartbeat_Variant_1 : 2934 0.477539 per_variant_size: 0 972 1962 0 0 0 0 0 0 
Heartbeat_Variant_2 : 0 0 per_variant_size: 0 0 0 0 0 0 0 0 0 
Heartbeat_Variant_3 : 0 0 per_variant_size: 0 0 0 0 0 0 0 0 0 
Heartbeat_Variant_0_evicts 0 : 5483 1 : 0 2 : 0 3 : 0 
Heartbeat_Variant_1_evicts 0 : 0 1 : 0 2 : 0 3 : 0 
Heartbeat_Variant_2_evicts 0 : 0 1 : 0 2 : 0 3 : 0 
Heartbeat_Variant_3_evicts 0 : 0 1 : 0 2 : 0 3 : 0 
Heartbeat CPU 0 instructions: 90000000 cycles: 42533771 heartbeat IPC: 1.39671 cumulative IPC: 1.3996 (Simulation time: 0 hr 16 min 29 sec) 
Heartbeat_Variant_0 : 1413 0.22998 per_variant_size: 0 1413 0 0 0 0 0 0 0 
Heartbeat_Variant_1 : 2942 0.478841 per_variant_size: 0 979 1963 0 0 0 0 0 0 
Heartbeat_Variant_2 : 0 0 per_variant_size: 0 0 0 0 0 0 0 0 0 
Heartbeat_Variant_3 : 0 0 per_variant_size: 0 0 0 0 0 0 0 0 0 
Heartbeat_Variant_0_evicts 0 : 5410 1 : 2 2 : 0 3 : 0 
Heartbeat_Variant_1_evicts 0 : 2 1 : 0 2 : 0 3 : 0 
Heartbeat_Variant_2_evicts 0 : 0 1 : 0 2 : 0 3 : 0 
Heartbeat_Variant_3_evicts 0 : 0 1 : 0 2 : 0 3 : 0 
Heartbeat CPU 0 instructions: 100000000 cycles: 49615138 heartbeat IPC: 1.41216 cumulative IPC: 1.4021 (Simulation time: 0 hr 18 min 27 sec) 
Finished CPU 0 instructions: 50000001 cycles: 35660915 cumulative IPC: 1.4021 (Simulation time: 0 hr 18 min 27 sec) 

ChampSim completed all CPUs

Region of Interest Statistics

CPU 0 cumulative IPC: 1.4021 instructions: 50000001 cycles: 35660915
 Fetch stage stalled: 44.0056  Sim cycles: 35660915 fetch stall cycle: 15692805
 Empty decode stage: 23.5334  Sim cycles: 35660915 fetch stall cycle: 8392229
ITLB TOTAL     ACCESS:    5833053  HIT:    5387075  MISS:     445978  HIT %:    92.3543  MISS %:     7.6457   MPKI: 8.91956
ITLB LOAD TRANSLATION INSTRUCTION	ACCESS:    5685831  HIT:    5239853  MISS:     445978  HIT %:    92.1563  MISS %:    7.84367  MPKI: 8.91956
ITLB TRANSLATION FROM L1D PREFETCHER INSTRUCTION	ACCESS:     147222  HIT:     147222  MISS:          0  HIT %:        100  MISS %:          0  MPKI: 0

ITLB AVERAGE MISS LATENCY: 9.09245 cycles
ITLB RQ	ACCESS:    7807410	FORWARD:          0	MERGED:    1537153	TO_CACHE:    6270257

DTLB TOTAL     ACCESS:    8809421  HIT:    8343468  MISS:     465953  HIT %:    94.7107  MISS %:    5.28926   MPKI: 9.31906
DTLB LOAD TRANSLATION DATA	ACCESS:    8809421  HIT:    8343468  MISS:     465953  HIT %:    94.7107  MISS %:    5.28926  MPKI: 9.31906

DTLB AVERAGE MISS LATENCY: 9.39778 cycles
DTLB RQ	ACCESS:   13121066	FORWARD:          0	MERGED:    4273818	TO_CACHE:    8847248

STLB TOTAL     ACCESS:    1210407  HIT:    1207540  MISS:       2867  HIT %:    99.7631  MISS %:   0.236862   MPKI: 0.05734
STLB LOAD TRANSLATION INSTRUCTION	ACCESS:     445978  HIT:     445478  MISS:        500  HIT %:    99.8879  MISS %:   0.112113  MPKI: 0.01
STLB LOAD TRANSLATION DATA	ACCESS:     465953  HIT:     463618  MISS:       2335  HIT %:    99.4989  MISS %:   0.501124  MPKI: 0.0467
STLB TRANSLATION FROM L1D PREFETCHER DATA	ACCESS:     298476  HIT:     298444  MISS:         32  HIT %:    99.9893  MISS %:  0.0107211  MPKI: 0.00064

STLB AVERAGE MISS LATENCY: 66.2881 cycles
STLB RQ	ACCESS:    1387937	FORWARD:          0	MERGED:     177460	TO_CACHE:    1210477

STLB Hit, L1D data hit: 0
STLB Hit, L2C data hit: 0
STLB Hit, LLC data hit: 0
STLB Hit, LLC data miss: 0
STLB STLB hints to L2: 0
L1D TOTAL     ACCESS:   12965343  HIT:   11869410  MISS:    1095933  HIT %:    91.5472  MISS %:    8.45279   MPKI: 21.9187
L1D LOAD DATA	ACCESS:    6493864  HIT:    5785915  MISS:     707949  HIT %:    89.0982  MISS %:    10.9018  MPKI: 14.159
L1D RFO DATA	ACCESS:    6073718  HIT:    5797026  MISS:     276692  HIT %:    95.4444  MISS %:    4.55556  MPKI: 5.53384
L1D PREFETCH DATA	ACCESS:     397761  HIT:     286469  MISS:     111292  HIT %:    72.0204  MISS %:    27.9796  MPKI: 2.22584

L1D PREFETCH  REQUESTED:     952428  ISSUED:     952428  USEFUL:      56542  USELESS:      72688
L1D USEFUL LOAD PREFETCHES:      56542 PREFETCH ISSUED TO LOWER LEVEL:     129273  ACCURACY: 43.7384
 TIMELY PREFETCHES:      56542 LATE PREFETCHES: 17933 DROPPED PREFETCHES: 37
L1D AVERAGE MISS LATENCY: 523272 cycles
L1D RQ	ACCESS:   10618261	FORWARD:          0	MERGED:    3932138	TO_CACHE:    6534029
L1D WQ	ACCESS:    6768845	FORWARD:     152510	MERGED:     181808	TO_CACHE:    6587037
L1D PQ	ACCESS:     476422	FORWARD:          0	MERGED:          0	TO_CACHE:     476006

L1D UNIQUE REGIONS ACCESSED: 0
L1D REGIONS CONFLICTS: 0
L1D Cross Page Prefetch Requests: 10627
L1D Same Page Prefetch Requests: 957948
L1D ROI Sum of L1D PQ occupancy: 6042629
L1D PREFETCHES PUSHED FROM L2C: 0
L1I TOTAL     ACCESS:    7050001  HIT:    4537360  MISS:    2512641  HIT %:    64.3597  MISS %:    35.6403   MPKI: 50.2528
L1I LOAD INSTRUCTION	ACCESS:    6353637  HIT:    3840996  MISS:    2512641  HIT %:    60.4535  MISS %:    39.5465  MPKI: 50.2528
L1I PREFETCH INSTRUCTION	ACCESS:     696364  HIT:     696364  MISS:          0  HIT %:        100  MISS %:          0  MPKI: 0

L1I PREFETCH  REQUESTED:    1611333  ISSUED:    1611333  USEFUL:          0  USELESS:          0
L1I USEFUL LOAD PREFETCHES:          0 PREFETCH ISSUED TO LOWER LEVEL:          0  ACCURACY: -nan
 TIMELY PREFETCHES:          0 LATE PREFETCHES: 0 DROPPED PREFETCHES: 0
L1I AVERAGE MISS LATENCY: 17.4253 cycles
L1I RQ	ACCESS:    9547283	FORWARD:          0	MERGED:    2913820	TO_CACHE:    6633463
L1I PQ	ACCESS:    1611333	FORWARD:          0	MERGED:     437386	TO_CACHE:    1173947

L1BTB TOTAL     ACCESS:    5845028  HIT:    2451424  MISS:    3393604  HIT %:    41.9403  MISS %:    58.0597   MPKI: 67.8721
L1BTB BRANCH_DIRECT_JUMP	ACCESS:     590790 HIT:     198016 MISS:     392774 AVERAGE STALL: 51.1921 AVERAGE FETCH STALL: 14.3197 AVERAGE FETCH QUEUE STALL: 15.1908 AVERAGE DECODE STALL: 20.7636 AVERAGE EXECUTE STALL: 2.21609e+15
L1BTB BRANCH_INDIRECT	ACCESS:     172329 HIT:      56750 MISS:     115579 AVERAGE STALL: 113.51 AVERAGE FETCH STALL: 10.9543 AVERAGE FETCH QUEUE STALL: 18.107 AVERAGE DECODE STALL: 12.1698 AVERAGE EXECUTE STALL: 71.3343
L1BTB BRANCH_CONDITIONAL	ACCESS:    2995468 HIT:    1783511 MISS:    1211957 AVERAGE STALL: 90.5153 AVERAGE FETCH STALL: 25.2967 AVERAGE FETCH QUEUE STALL: 40.4168 AVERAGE DECODE STALL: 24.173 AVERAGE EXECUTE STALL: 3.80816e+15
L1BTB BRANCH_DIRECT_CALL	ACCESS:     883446 HIT:     106626 MISS:     776820 AVERAGE STALL: 57.0807 AVERAGE FETCH STALL: 20.0124 AVERAGE FETCH QUEUE STALL: 20.6253 AVERAGE DECODE STALL: 15.4725 AVERAGE EXECUTE STALL: 1.43109e+16
L1BTB BRANCH_INDIRECT_CALL	ACCESS:     159773 HIT:      20316 MISS:     139457 AVERAGE STALL: 134.831 AVERAGE FETCH STALL: 11.9451 AVERAGE FETCH QUEUE STALL: 16.0884 AVERAGE DECODE STALL: 12.255 AVERAGE EXECUTE STALL: 94.1236
L1BTB BRANCH_RETURN	ACCESS:    1043222 HIT:     286205 MISS:     757017 AVERAGE STALL: 51.5815 AVERAGE FETCH STALL: 17.3693 AVERAGE FETCH QUEUE STALL: 6.30517 AVERAGE DECODE STALL: 6.19704 AVERAGE EXECUTE STALL: 5.86449e+14
L1BTB BRANCH_OTHER ACCESS:          0 HIT:          0 MISS:          0 AVERAGE STALL: -nan AVERAGE FETCH STALL: -nan AVERAGE FETCH QUEUE STALL: -nan AVERAGE DECODE STALL: -nan AVERAGE EXECUTE STALL: -nan
L1BTB TOTAL ROB OCCUPANCY AT BTB MISS: 2.56162

L2BTB TOTAL     ACCESS:    3368214  HIT:    3316432  MISS:      51782  HIT %:    98.4626  MISS %:    1.53737   MPKI: 1.03564
L2BTB BRANCH_DIRECT_JUMP	ACCESS:     387698 HIT:     384449 MISS:       3249 AVERAGE STALL: 51.1921 AVERAGE FETCH STALL: 14.3197 AVERAGE FETCH QUEUE STALL: 15.1908 AVERAGE DECODE STALL: 20.7636 AVERAGE EXECUTE STALL: 2.21609e+15
L2BTB BRANCH_INDIRECT	ACCESS:     105777 HIT:     103325 MISS:       2452 AVERAGE STALL: 113.51 AVERAGE FETCH STALL: 10.9543 AVERAGE FETCH QUEUE STALL: 18.107 AVERAGE DECODE STALL: 12.1698 AVERAGE EXECUTE STALL: 71.3343
L2BTB BRANCH_CONDITIONAL	ACCESS:    1211957 HIT:    1207091 MISS:       4866 AVERAGE STALL: 90.5153 AVERAGE FETCH STALL: 25.2967 AVERAGE FETCH QUEUE STALL: 40.4168 AVERAGE DECODE STALL: 24.173 AVERAGE EXECUTE STALL: 3.80816e+15
L2BTB BRANCH_DIRECT_CALL	ACCESS:     776820 HIT:     775525 MISS:       1295 AVERAGE STALL: 57.0807 AVERAGE FETCH STALL: 20.0124 AVERAGE FETCH QUEUE STALL: 20.6253 AVERAGE DECODE STALL: 15.4725 AVERAGE EXECUTE STALL: 1.43109e+16
L2BTB BRANCH_INDIRECT_CALL	ACCESS:     129979 HIT:     120491 MISS:       9488 AVERAGE STALL: 134.831 AVERAGE FETCH STALL: 11.9451 AVERAGE FETCH QUEUE STALL: 16.0884 AVERAGE DECODE STALL: 12.255 AVERAGE EXECUTE STALL: 94.1236
L2BTB BRANCH_RETURN	ACCESS:     755983 HIT:     725551 MISS:      30432 AVERAGE STALL: 51.5815 AVERAGE FETCH STALL: 17.3693 AVERAGE FETCH QUEUE STALL: 6.30517 AVERAGE DECODE STALL: 6.19704 AVERAGE EXECUTE STALL: 5.86449e+14
L2BTB BRANCH_OTHER ACCESS:          0 HIT:          0 MISS:          0 AVERAGE STALL: -nan AVERAGE FETCH STALL: -nan AVERAGE FETCH QUEUE STALL: -nan AVERAGE DECODE STALL: -nan AVERAGE EXECUTE STALL: -nan
L2BTB TOTAL ROB OCCUPANCY AT BTB MISS: 167.879

L2C TOTAL     ACCESS:    4181124  HIT:    3688686  MISS:     492438  HIT %:    88.2224  MISS %:    11.7776   MPKI: 9.84876
L2C LOAD INSTRUCTION	ACCESS:    2512640  HIT:    2264687  MISS:     247953  HIT %:    90.1318  MISS %:    9.86823  MPKI: 4.95906
L2C LOAD TRANSLATION INSTRUCTION	ACCESS:        555  HIT:        233  MISS:        322  HIT %:     41.982  MISS %:     58.018  MPKI: 0.00644
L2C LOAD DATA	ACCESS:     689867  HIT:     602079  MISS:      87788  HIT %:    87.2746  MISS %:    12.7254  MPKI: 1.75576
L2C RFO DATA	ACCESS:     276614  HIT:     219650  MISS:      56964  HIT %:    79.4067  MISS %:    20.5933  MPKI: 1.13928
L2C PREFETCH DATA	ACCESS:     215720  HIT:     130402  MISS:      85318  HIT %:    60.4497  MISS %:    39.5503  MPKI: 1.70636
L2C WRITEBACK DATA	ACCESS:     483163  HIT:     470879  MISS:      12284  HIT %:    97.4576  MISS %:    2.54241  MPKI: 0.24568
L2C LOAD TRANSLATION DATA	ACCESS:       2490  HIT:        721  MISS:       1769  HIT %:    28.9558  MISS %:    71.0442  MPKI: 0.03538
L2C TRANSLATION FROM L1D PREFETCHER DATA	ACCESS:         75  HIT:         35  MISS:         40  HIT %:    46.6667  MISS %:    53.3333  MPKI: 0.0008

L2C PREFETCH  REQUESTED:      95703  ISSUED:      95703  USEFUL:       9905  USELESS:      76053
L2C USEFUL LOAD PREFETCHES:       9905 PREFETCH ISSUED TO LOWER LEVEL:      85876  ACCURACY: 11.5341
 TIMELY PREFETCHES:       9905 LATE PREFETCHES: 558 DROPPED PREFETCHES: 0
L2C AVERAGE MISS LATENCY: 42.0696 cycles
L2C RQ	ACCESS:    3482422	FORWARD:          0	MERGED:          0	TO_CACHE:    3482243
L2C WQ	ACCESS:     483164	FORWARD:        179	MERGED:          0	TO_CACHE:     483164
L2C PQ	ACCESS:     224976	FORWARD:          0	MERGED:       3939	TO_CACHE:     221037

L2C Dense regions hint from L2: 0
PSCL5 TOTAL     ACCESS:       5808  HIT:       2904  MISS:       2904  HIT %:         50  MISS %:         50   MPKI: 0.05808
PSCL5 LOAD TRANSLATION INSTRUCTION	ACCESS:       5662  HIT:       2831  MISS:       2831  HIT %:         50  MISS %:         50  MPKI: 0.05662
PSCL5 TRANSLATION FROM L1D PREFETCHER INSTRUCTION	ACCESS:        146  HIT:         73  MISS:         73  HIT %:         50  MISS %:         50  MPKI: 0.00146


PSCL4 TOTAL     ACCESS:       5783  HIT:       2891  MISS:       2892  HIT %:    49.9914  MISS %:    50.0086   MPKI: 0.05784
PSCL4 LOAD TRANSLATION INSTRUCTION	ACCESS:       2981  HIT:       2818  MISS:        163  HIT %:     94.532  MISS %:    5.46796  MPKI: 0.00326
PSCL4 TRANSLATION FROM L1D PREFETCHER INSTRUCTION	ACCESS:         73  HIT:         73  MISS:          0  HIT %:        100  MISS %:          0  MPKI: 0
PSCL4 LOAD TRANSLATION DATA	ACCESS:       2656  HIT:          0  MISS:       2656  HIT %:          0  MISS %:        100  MPKI: 0.05312
PSCL4 TRANSLATION FROM L1D PREFETCHER DATA	ACCESS:         73  HIT:          0  MISS:         73  HIT %:          0  MISS %:        100  MPKI: 0.00146


PSCL3 TOTAL     ACCESS:       5783  HIT:       2891  MISS:       2892  HIT %:    49.9914  MISS %:    50.0086   MPKI: 0.05784
PSCL3 LOAD TRANSLATION INSTRUCTION	ACCESS:       2981  HIT:       2818  MISS:        163  HIT %:     94.532  MISS %:    5.46796  MPKI: 0.00326
PSCL3 TRANSLATION FROM L1D PREFETCHER INSTRUCTION	ACCESS:         73  HIT:         73  MISS:          0  HIT %:        100  MISS %:          0  MPKI: 0
PSCL3 LOAD TRANSLATION DATA	ACCESS:       2656  HIT:          0  MISS:       2656  HIT %:          0  MISS %:        100  MPKI: 0.05312
PSCL3 TRANSLATION FROM L1D PREFETCHER DATA	ACCESS:         73  HIT:          0  MISS:         73  HIT %:          0  MISS %:        100  MPKI: 0.00146


PSCL2 TOTAL     ACCESS:       5593  HIT:       2690  MISS:       2903  HIT %:    48.0958  MISS %:    51.9042   MPKI: 0.05806
PSCL2 LOAD TRANSLATION INSTRUCTION	ACCESS:       3118  HIT:       2619  MISS:        499  HIT %:    83.9962  MISS %:    16.0038  MPKI: 0.00998
PSCL2 TRANSLATION FROM L1D PREFETCHER INSTRUCTION	ACCESS:         71  HIT:         71  MISS:          0  HIT %:        100  MISS %:          0  MPKI: 0
PSCL2 LOAD TRANSLATION DATA	ACCESS:       2333  HIT:          0  MISS:       2333  HIT %:          0  MISS %:        100  MPKI: 0.04666
PSCL2 TRANSLATION FROM L1D PREFETCHER DATA	ACCESS:         71  HIT:          0  MISS:         71  HIT %:          0  MISS %:        100  MPKI: 0.00142


LLC TOTAL     ACCESS:     561752  HIT:     522914  MISS:      38838  HIT %:    93.0863  MISS %:    6.91373   MPKI: 0.77676
LLC LOAD INSTRUCTION	ACCESS:     247953  HIT:     246844  MISS:       1109  HIT %:    99.5527  MISS %:   0.447262  MPKI: 0.02218
LLC LOAD TRANSLATION INSTRUCTION	ACCESS:        322  HIT:        290  MISS:         32  HIT %:    90.0621  MISS %:    9.93789  MPKI: 0.00064
LLC LOAD DATA	ACCESS:      87253  HIT:      82231  MISS:       5022  HIT %:    94.2443  MISS %:    5.75568  MPKI: 0.10044
LLC RFO DATA	ACCESS:      56927  HIT:      38073  MISS:      18854  HIT %:    66.8804  MISS %:    33.1196  MPKI: 0.37708
LLC PREFETCH DATA	ACCESS:      85875  HIT:      72536  MISS:      13339  HIT %:     84.467  MISS %:     15.533  MPKI: 0.26678
LLC WRITEBACK DATA	ACCESS:      81613  HIT:      81246  MISS:        367  HIT %:    99.5503  MISS %:   0.449683  MPKI: 0.00734
LLC LOAD TRANSLATION DATA	ACCESS:       1769  HIT:       1657  MISS:        112  HIT %:    93.6687  MISS %:    6.33126  MPKI: 0.00224
LLC TRANSLATION FROM L1D PREFETCHER DATA	ACCESS:         40  HIT:         37  MISS:          3  HIT %:       92.5  MISS %:        7.5  MPKI: 6e-05

LLC AVERAGE MISS LATENCY: 161.632 cycles
LLC RQ	ACCESS:     394278	FORWARD:          0	MERGED:          0	TO_CACHE:     394264
LLC WQ	ACCESS:      81613	FORWARD:         15	MERGED:          0	TO_CACHE:      81613
LLC PQ	ACCESS:      85876	FORWARD:          0	MERGED:          0	TO_CACHE:      85875

LLC Dense regions hint to LLC: 0

RAW hits: 1837183
Loads Generated: 12455444
Loads sent to L1D: 10618261
Stores Generated: 6768846
Stores sent to L1D: 6768845
Major fault: 0 Minor fault: 2501
Allocated PAGES: 2501

stream: 
stream:times selected: 1492689
stream:pref_filled: 127401
stream:pref_useful: 29554
stream:pref_late: 10023
stream:misses: 12969
stream:misses_by_poll: 0

CS: 
CS:times selected: 236126
CS:pref_filled: 85130
CS:pref_useful: 60082
CS:pref_late: 10701
CS:misses: 28510
CS:misses_by_poll: 11

CPLX: 
CPLX:times selected: 1254448
CPLX:pref_filled: 28306
CPLX:pref_useful: 8942
CPLX:pref_late: 4976
CPLX:misses: 146788
CPLX:misses_by_poll: 0

NL_L1: 
NL:times selected: 29615
NL:pref_filled: 1941
NL:pref_useful: 931
NL:pref_late: 688
NL:misses: 3795
NL:misses_by_poll: 0

total selections: 3012878
total_filled: 111292
total_useful: 56542
total_late: 29630
total_polluted: 11
total_misses_after_warmup: 748115
conflicts: 5209379

test: 180052

DRAM Statistics
 CHANNEL 0
 RQ ROW_BUFFER_HIT:      13565  ROW_BUFFER_MISS:      24901
 DBUS_CONGESTED:         16
 WQ ROW_BUFFER_HIT:       2300  ROW_BUFFER_MISS:      18767  FULL:          0

 AVG_CONGESTED_CYCLE: 4

CPU 0 Branch Prediction Accuracy: 99.7649% MPKI: 0.4307 Average ROB Occupancy at Mispredict: 190.253
Branch types
NOT_BRANCH: 40840110 81.6802%
BRANCH_DIRECT_JUMP: 590790 1.18158%
BRANCH_INDIRECT: 172329 0.344658%
BRANCH_CONDITIONAL: 6310333 12.6207%
BRANCH_DIRECT_CALL: 883446 1.76689%
BRANCH_INDIRECT_CALL: 159773 0.319546%
BRANCH_RETURN: 1043222 2.08644%
BRANCH_OTHER: 0 0%

DRAM PAGES: 1048576
Allocated PAGES: 2501
Average_ROB_Occupancy: 254.674
Average_Decode_Occupancy: 39.0933
Average_FTQ_Occupancy: 15.2009
Indirect max targets: 14 Average targets: 1.14626
Branch_type:  BRANCH_DIRECT_JUMP:  Count Percentage: 8.89502 5.97181 4.49272 11.4118 1.74309 4.40077 1.66028 61.4245 
Branch_type:  BRANCH_INDIRECT:  Count Percentage: 5.47426 1.18803 3.76243 3.51341 1.37045 0 3.90894 80.7825 
Branch_type:  BRANCH_CONDITIONAL:  Count Percentage: 25.8239 2.42373 2.46594 5.45136 1.33318 5.21568 3.08549 54.2007 
Branch_type:  BRANCH_DIRECT_CALL:  Count Percentage: 0.344156 1.52674 1.69165 5.75772 1.96457 1.87186 3.14336 83.6999 
Branch_type:  BRANCH_INDIRECT_CALL:  Count Percentage: 8.70415 0 2.96305 11.2417 0 2.46571 5.35099 69.2744 
Branch_type:  BRANCH_RETURN:  Count Percentage: 4.71225 1.36448 0.873909 6.89786 2.03093 6.06334 4.57311 73.4841 
Branch_type:  BRANCH_DIRECT_JUMP:  Total Count: 105056 70531 53062 134781 20587 51976 19609 725464 
Branch_type:  BRANCH_INDIRECT:  Total Count: 18906 4103 12994 12134 4733 0 13500 278992 
Branch_type:  BRANCH_CONDITIONAL:  Total Count: 3257822 305766 311091 687717 168188 657985 389251 6837703 
Branch_type:  BRANCH_DIRECT_CALL:  Total Count: 6073 26941 29851 101601 34667 33031 55468 1476974 
Branch_type:  BRANCH_INDIRECT_CALL:  Total Count: 27757 0 9449 35849 0 7863 17064 220912 
Branch_type:  BRANCH_RETURN:  Total Count: 98218 28440 18215 143773 42331 126379 95318 1531640 
Number of unique branch instructions: 9878
Upper 32 bits: 
aaaa
ffff
ffff0000
Unique upper 32 bits: 3
Unique upper 36 bits: 3
Unique upper 40 bits: 5
Unique upper 44 bits: 32
Unique upper 48 bits: 153
Variant_0 : 1413 0.22998
Variant_1 : 2942 0.478841
Variant_2 : 0 0
Variant_3 : 0 0
Offset_3 4067
Offset_4 238
Offset_5 460
Offset_6 501
Offset_7 585
Offset_8 501
Offset_9 471
Offset_10 368
Offset_11 328
Offset_12 289
Offset_13 205
Offset_14 227
Offset_15 188
Offset_16 222
Offset_17 145
Offset_18 123
Offset_19 229
Offset_20 138
Offset_21 239
Offset_22 394
Offset_23 241
Offset_24 333
Offset_25 88
Offset_47 82
Offset_64 1
decode_dispatch_called: 26549662 74.4503
Dispatch_width: 0 14312180 53.9072 40.1341
Dispatch_width: 1 1042064 3.92496 2.92215
Dispatch_width: 2 887260 3.34189 2.48805
Dispatch_width: 3 506295 1.90697 1.41975
Dispatch_width: 4 6520650 24.5602 18.2851
Dispatch_width: 5 105346 0.396788 0.29541
Dispatch_width: 6 3175867 11.962 8.90574
Empty_decode_cycles: 9111253 25.5497
ROB_full_cycles: 10421903 29.225
Starvation_cycles_per_kilo_instr: 220.631
Starvation_cycles_per_kilo_instr_3: 154.371
Starvation_cycles_per_kilo_instr_0: 130.015
Branch_type_1  (3,1)  (4,8)  (5,35)  (6,68)  (7,115)  (8,129)  (9,123)  (10,89)  (11,74)  (12,52)  (13,6)  (14,2)  (15,3)  (16,4)  (18,1)  (19,4)  (20,2)  (21,1)  (22,3)  (23,2)  (24,10)  (25,12) 
Branch_type_2  (3,1)  (5,1)  (8,2)  (9,3)  (12,1)  (13,1)  (14,1)  (16,3)  (17,2)  (20,2)  (21,2)  (23,5)  (24,1)  (47,38) 
Branch_type_3  (3,4065)  (4,230)  (5,420)  (6,418)  (7,440)  (8,311)  (9,262)  (10,151)  (11,136)  (12,62)  (13,5)  (64,1) 
Branch_type_4  (6,3)  (7,8)  (8,25)  (9,50)  (10,60)  (11,60)  (12,96)  (13,88)  (14,103)  (15,89)  (16,99)  (17,65)  (18,57)  (19,112)  (20,71)  (21,127)  (22,209)  (23,136)  (24,194)  (25,72) 
Branch_type_5  (8,2)  (9,1)  (10,3)  (11,5)  (12,3)  (13,14)  (14,16)  (15,11)  (16,20)  (17,11)  (18,16)  (19,12)  (20,10)  (21,13)  (22,42)  (23,26)  (24,36) 
Branch_type_6  (5,4)  (6,12)  (7,22)  (8,32)  (9,32)  (10,65)  (11,53)  (12,75)  (13,91)  (14,105)  (15,85)  (16,96)  (17,67)  (18,49)  (19,101)  (20,53)  (21,96)  (22,140)  (23,72)  (24,92)  (25,4)  (47,44) 
Unique trigger count: 
Variant_0_evicts_0 : 0
Variant_0_evicts_1 : 0
Variant_0_evicts_2 : 0
Variant_0_evicts_3 : 0
Variant_1_evicts_0 : 0
Variant_1_evicts_1 : 0
Variant_1_evicts_2 : 0
Variant_1_evicts_3 : 0
Variant_2_evicts_0 : 0
Variant_2_evicts_1 : 0
Variant_2_evicts_2 : 0
Variant_2_evicts_3 : 0
Variant_3_evicts_0 : 0
Variant_3_evicts_1 : 0
Variant_3_evicts_2 : 0
Variant_3_evicts_3 : 0
BTB PER SET UNIQUE ADDR: 6 6 5 8 8 3 5 4 2 5 7 5 4 3 4 10 3 4 5 4 5 5 5 5 4 3 5 3 4 5 7 6 6 6 6 4 3 3 5 4 5 4 7 8 2 4 3 5 7 6 6 6 5 4 6 7 5 5 4 4 7 4 6 4 5 4 5 3 5 3 5 4 5 5 6 4 5 6 7 5 6 5 6 7 6 5 4 4 4 4 5 5 4 6 5 5 6 6 5 6 7 6 5 7 5 5 4 4 6 6 5 3 5 4 4 5 5 5 5 6 4 7 5 6 7 6 3 4 6 4 6 6 7 4 5 5 7 2 5 7 6 5 6 6 3 5 4 6 4 5 7 3 4 5 8 8 3 5 5 4 5 5 4 7 4 7 5 6 3 5 7 2 7 5 7 6 5 3 4 4 5 4 5 6 3 5 4 4 6 7 4 5 5 5 5 5 4 3 5 4 6 7 6 5 4 6 5 5 6 6 7 8 6 5 3 5 5 5 7 4 4 5 4 5 4 3 5 6 6 4 8 6 6 6 3 6 5 5 5 6 7 7 6 6 5 5 8 4 7 6 6 5 5 3 4 5 4 2 4 9 6 4 4 4 6 6 6 6 4 6 8 5 6 5 5 4 10 3 7 6 3 6 5 6 4 6 6 5 5 3 4 6 6 4 3 6 7 5 5 3 7 4 3 6 5 5 6 5 8 5 5 4 6 4 5 6 6 5 6 5 5 4 4 4 5 6 7 5 6 4 5 4 4 3 3 4 8 3 7 6 6 4 7 4 4 8 6 3 5 5 5 9 4 7 7 7 4 5 4 6 6 5 5 5 4 4 5 6 2 5 4 4 7 4 4 4 5 3 4 4 6 4 5 3 5 5 6 4 7 7 4 4 5 7 3 4 5 6 5 4 7 7 7 6 7 5 4 6 10 5 4 5 8 6 8 6 5 4 7 5 5 5 5 7 7 7 4 4 6 6 5 5 6 5 5 2 6 4 3 5 4 3 5 5 5 5 4 6 7 5 7 5 6 5 5 4 6 4 6 4 6 5 2 4 3 5 7 5 6 4 4 6 7 4 6 5 5 5 5 6 5 5 7 7 6 5 5 6 7 4 7 5 4 5 8 6 6 3 6 5 6 4 6 5 6 6 3 3 4 4 3 4 5 3 4 5 6 3 5 4 5 5 3 4 6 4 2 3 1 6 4 3 5 4 4 4 1 2 3 5 3 4 6 4 4 5 5 3 2 3 3 5 3 5 4 4 5 3 4 3 2 4 4 6 4 2 4 3 4 3 4 4 2 2 5 5 5 3 5 4 1 4 2 4 4 3 4 4 4 4 4 4 3 3 2 4 4 5 6 4 4 5 2 3 2 3 5 2 4 3 4 3 4 2 2 3 4 3 4 2 4 2 5 5 5 6 2 5 4 4 3 2 5 3 3 3 3 3 5 3 2 6 1 4 4 5 4 3 4 2 3 2 2 3 4 4 8 4 5 2 4 3 4 3 3 3 2 3 6 5 4 3 3 5 4 3 3 6 5 8 4 4 3 5 5 4 2 6 5 3 4 2 3 4 4 5 4 2 6 7 5 2 2 3 4 2 2 3 3 4 5 1 4 4 5 2 5 4 3 3 4 4 2 3 7 4 6 3 2 4 3 2 5 4 5 4 4 5 2 6 3 5 6 5 3 2 5 2 4 4 3 3 3 3 5 4 2 3 2 4 5 4 4 3 2 5 3 3 2 4 3 3 4 2 6 3 2 5 1 4 4 3 5 4 4 3 2 3 5 5 3 3 5 3 5 3 5 1 4 4 4 4 6 3 3 2 5 3 5 4 3 1 0 2 4 2 4 1 2 5 4 3 6 2 3 2 4 3 4 5 3 5 3 6 4 4 6 5 4 4 3 4 4 3 3 5 5 4 2 3 5 5 5 6 6 4 3 3 2 4 5 6 3 6 6 3 3 1 5 5 4 3 4 4 4 4 2 3 3 4 5 5 3 4 4 5 5 2 3 1 5 2 3 1 2 4 2 3 4 2 4 2 5 4 4 1 4 4 4 5 4 6 2 4 3 5 2 4 5 3 4 4 4 3 4 5 5 3 3 5 1 6 5 4 4 4 3 3 2 3 5 4 5 7 3 3 3 2 6 4 5 4 4 4 4 3 3 3 1 2 3 4 4 4 4 3 4 4 2 4 4 4 5 6 2 6 4 4 2 4 3 4 3 5 5 2 3 4 5 3 3 2 3 5 6 4 2 3 3 5 5 3 5 3 4 5 4 5 2 3 4 5 7 5 5 6 4 4 4 3 3 5 4 4 4 2 5 5 3 2 4 3 3 2 3 4 5 3 3 3 3 3 4 5 5 3 3 4 5 4 2 3 5 4 2 4 5 5 3 2 6 4 6 3 2 4 3 3 6 4 3 4 4 4 6 3 4 4 2 3 6 2 3 3 3 3 4 1 2 3 5 4 4 7 4 4 2 6 4 3 3 4 5 6 4 5 3 6 3 2 6 4 5 1 3 5 6 3 4 6 4 3 3 5 4 6 4 4 3 2 5 4 5 1 5 2 3 1 5 4 4 6 4 2 2 4 3 4 6 5 6 5 4 1 2 3 5 4 6 3 6 3 6 5 4 4 6 4 4 4 4 4 6 5 3 3 4 3 2 3 5 3 4 4 5 4 5 3 3 4 4 4 2 2 5 5 4 4 3 2 3 2 2 2 4 4 3 1 5 3 4 5 5 5 5 5 5 5 6 5 7 1 5 5 3 4 2 6 6 1 5 4 5 3 4 4 3 4 3 4 3 3 6 4 6 3 4 4 2 4 4 6 5 3 3 2 5 4 3 7 3 4 4 6 4 3 6 3 4 4 4 6 5 1 2 3 5 3 3 4 5 6 4 4 4 4 5 2 4 3 3 4 3 5 3 5 4 5 3 5 2 3 5 4 4 4 4 3 6 4 3 5 6 2 4 3 5 3 2 4 5 2 4 3 4 3 3 5 6 5 2 3 4 4 3 3 6 3 3 4 5 5 2 5 6 5 3 4 6 3 2 2 6 4 3 2 5 2 5 4 3 5 4 4 4 4 2 6 4 5 4 4 1 5 6 5 5 5 2 4 3 3 4 3 5 6 3 4 5 2 3 3 3 4 2 4 3 4 1 3 3 3 5 3 4 5 3 4 5 4 4 5 5 6 4 2 1 3 3 3 4 4 5 5 4 2 2 6 4 7 4 4 2 4 3 3 6 5 5 3 6 5 2 2 2 3 4 6 5 5 3 3 3 2 3 4 4 3 4 7 4 3 4 4 5 4 2 3 3 5 2 3 4 3 6 3 3 4 6 6 3 5 5 4 5 4 5 4 5 4 4 3 2 3 4 6 2 4 2 3 3 3 4 5 7 2 3 4 4 4 7 3 3 5 4 4 6 5 2 6 3 2 3 5 4 2 3 5 4 4 3 4 4 2 4 5 
BTB PER SET COUNT: 6 2095 5 8 13 3 6 4 2 5 7 5 4 3 282 10 3 4 5 4 8 7 5 5 372 3 7 3 4 306 2706 6 7 7 6 5 4 3 6 4 8 4 8 1759 2 4 371 5 391 6 7 8 374 4 7 7 7 2056 4 4 674 4 6 4 5 4 5 4 6 3 5 4 5 5 6 4 8 6 7 5 6 5 6 7 6 5 1369 4 5 1372 83 5 5 6 6 5 6 6 5 6 7 7 5 7 5 5 4 4 6 7 5 3 5 4 4 5 5 6 15 6 4 7 2056 6 8 8 4 4 6 4 6 692 10 4 5 7 7 2 5 7 6 5 6 6 3 5 4 6 4 5 9 3 4 5 12 1391 3 5 5 4 5 5 4 10 4 7 5 10 3 5 8 2 69 5 7 6 5 3 4 4 5 4 5 6 3 5 4 1649 6 7 307 6 5 5 8 5 4 731 5 4 6 7 6 5 9 6 5 5 6 6 7 13 6 5 3 5 5 5 8 5 4 5 8 425 5 3 5 385 9 4 9 7 7 6 3 14 5 7 5 6 9 52 7 384 7 5 8845 279 7 6 781 5 87 3 4 5 1090 2 9 2324 6 4 4 4 8 81 8 6 4 6 9 6 8 7 5 4 696 4 10 6 3 42 7 2056 31 6 6 5 7 3 4 6 6 5 3 8 7 6 6 3 9 4 3 6 7 5 7 5 12 5 5 4 7 5 5 6 6 5 6 5 81 4 187 4 5 6 7 9 1092 4 5 4 18910 4 3 4 8 3 7 6 6 4 9 4 5 8 11 3 150 50 5 11 4 7 7 7 4 2055 8 80 7 5 5 11 10873 4 5 611 2 5 4 13 7 6 5 4 1051 4 4 4 6 6 6 3 5 29 6 4 7 9 4 4 58 7 3 4 1251 434 7 4 9 7 10 286 7 5 5 7 10 6 4 5 12 7 9 6 6 66 8 5 5 9 6 430 10 7 4 8 569 6 5 5 6 5 5 36 7 4 4094 11 4 123 5 5 5 5 4 17 7 14 7 5 9 5 5 4 6 4 6 4 1757 849 2 5 3 1091 7 5 6 5 4 76 720 4 671 5 5 5 5 6 5 43 7 1050 7 11 5 6 9 4 2057 5 22 5 9 6 1739 5 7 5 7 4 22 5 950 15 3 3 4 4 3 4 5 2100 4 5 6 425 5 4 5 5 3 4 7 4 2 4 1 8 4 5 5 5 37 8 1 52 3 5 4 4 6 4 4 1094 5 3 2 4 9 736 1370 10 4 4 6 3 4 3 1369 4 4 568 4 4 1460 4 4 3 4 4 3 2 6 5 7 4 5 4 3 4 2 4 8 3 5 4 4 4 6 4 4 3 2 4 4 5 7 4 4 6 2 3 2 3 5 2 4 3 4 3 673 2 2 3 1090 3 5 2 400 2 5 9 5 6 2 5 41 4 3 2 7 3 4 3 3 3 5 3 2 6 1 4 7 5 4 3 4 730 3 7 2 5 4 4 12 4 5 2 4 3 4 5 5 370 2 3 8 6 4 3 3 6 4 1090 3 6 5 337 4 4 3 6 5 4 2 8 5 3 4 4 3 6 4 5 4 2 8 9 5 2 2 3 4 2 2 3 3 4 5 1 4 4 7 379 5 4 4 3 4 5 2 4 7 4 8 3 2 6 3 2 8 5 5 5 4 20 2 1097 3 5 6 5 3 2 5 2 7 6 3 3 4 3 733 4 2 3 153 4 10 4 4 3 3 5 3 2177 2 6 5 3 4 2 7 3 2 5 1 4 4 3 5 6 5 3 2 3 327 5 7 3 5 3 5 3 5 1 4 4 4 4 65 3 3 3 6 3 6 6 3 1 0 2 4 2 4 1 2 5 4 3 6 2 3 2 4 3 4 15 3 5 3 672 4 4 6 5 4 7 9 4 1372 3 3 6 675 4 2 3 5 671 5 9 8 4 3 3 2 5 7 7 3 6 385 3 3 1 6 5 4 3 109 4 4 4 2 3 3 4 6 6 77 5 4 9 1372 3 3 1 5 2 3 1 6 4 2 3 4 3 4 2 6 4 4 1 4 5 6 850 4 7 2 4 3 7 2 4 6 3 4 669 5 3 4 7 1095 3 4 5 1 6 5 5 4 4 4 668 2 5 5 5 5 11 3 3 3 2 8 4 5 5 4 5 790 3 3 3 2736 2 3 4 4 4 5 3 383 4 2 5 4 4 7 15 5 7 4 5 2 6 3 4 3 8 5 2 3 57 5 3 3 2 3 5 6 5 2 3 3 237 5 3 6 3 5 5 4 1092 2 3 4 5 7 5 5 6 4 4 6 3 3 6 4 4 4 2 5 306 4 2 6 3 3 2 3 4 5 3 3 3 3 381 4 5 5 3 4 4 5 4 2 3 5 4 2 4 6 1091 1089 2 9 4 6 3 2 4 3 4 6 6 3 608 4 4 6 3 11 5 2 10 6 2 3 668 3 3 7 1 2 3 5 4 4 11 4 4 2 6 5 5 4 4 8 1718 282 5 3 8 4 4 284 4 6 1 3 5 6 3 5 6 4 3 3 5 4 9 4 4 3 2 5 4 5 1 5 2 3 1 5 6 4 6 4 2 2 4 4 1371 7 5 6 5 4 1 2 3 5 4 6 3 6 3 7 5 4 4 6 5 4 4 424 4 6 5 3 3 4 3 3 3 1125 3 4 4 5 4 5 3 3 4 4 4 4 2 1351 425 4 4 126 2 3 2 2 2 4 4 3 1 6 282 1090 5 5 1091 670 5 7 8 35 5 720 1 5 5 3 4 2 6 1094 1 670 4 5 3 9 4 3 4 3 4 24 3 6 8 8 3 4 4 2 4 4 57 5 18 3 2 5 4 3 8 3 89 4 6 670 3 6 3 6 172 4 7 5 1 2 4 1799 3 3 4 5 6 4 4 4 4 5 2 4 3 3 9 4 5 3 5 4 5 3 1373 3 4 7 4 4 4 4 3 6 4 4 6 6 2 4 3 5 3 2 4 5 2 4 732 5 3 3 1096 7 5 2 3 5 5 3 4 1092 3 3 283 5 5 2 7 1093 5 4 4 49 3 2 2 7 4 609 3 12 2 5 4 25 372 4 4 4 5 2 9 5 5 4 4 1 5 6 5 6 5 2 427 6 3 4 3 6 7 5 4 7 2 3 4 3 4 2 4 3 4 1 3 3 3 22 3 4 5 3 4 5 70 4 8 5 1049 8 2 1 4 3 3 7 4 17 5 4 2 2 9 4 1701 4 4 2 2001 3 3 6 5 6 3 8 7 2 2 2 3 5 14 5 7 3 4 3 2 3 4 4 3 4 7 4 3 6 4 5 5 2 4 4 5 2 3 4 3 7 3 3 4 11 384 4 5 670 4 7 4 5 6 5 4 34 3 2 3 4 8 2 4 2 3 186 668 4 5 7 2 3 4 4 16 8 3 3 7 4 4 10 7 2 9 3 2 3 1758 7 2 3 5 670 4 3 4 4 2 5 5 
To predecode: 0
Predecoding something: 0
Predecode request dropped: 0
sizeofblock_0 0
sizeofblock_1 43830
sizeofblock_2 68308
sizeofblock_3 0
sizeofblock_4 0
sizeofblock_5 0
sizeofblock_6 0
sizeofblock_7 0
sizeofblock_8 0
Variant_0 Correct: 1526107 Incorrect: 0 Accuracy: 1
Variant_1 Correct: 5321240 Incorrect: 0 Accuracy: 1
Variant_2 Correct: 0 Incorrect: 0 Accuracy: -nan
Variant_3 Correct: 0 Incorrect: 0 Accuracy: -nan
