
*** ChampSim Multicore Out-of-Order Simulator ***

Warmup Instructions: 50000000
Simulation Instructions: 50000000
Number of CPUs: 1
LLC sets: 2048
LLC ways: 16
Off-chip DRAM Size: 4096 MB Channels: 1 Width: 64-bit Data Rate: 6400 MT/s
CPU 0 runs ./micro_traces/srv163.trace.gz
.gz
ITLB has LRU replacement policy
DTLB has LRU replacement policy
STLB has LRU replacement policy
FDIP Prefetcher at L1I
L1I has LRU replacement policy
L1D has LRU replacement policy
Initialize SRRIP state for L2C
Initialize DRRIP state for LLC
Heartbeat_Variant_0 : 1351 0.329834 per_variant_size: 0 1351 0 0 0 0 0 0 0 
Heartbeat_Variant_1 : 2375 0.579834 per_variant_size: 0 159 2216 0 0 0 0 0 0 
Heartbeat_Variant_2 : 0 0 per_variant_size: 0 0 0 0 0 0 0 0 0 
Heartbeat_Variant_3 : 0 0 per_variant_size: 0 0 0 0 0 0 0 0 0 
Heartbeat_Variant_0_evicts 0 : 5515 1 : 1 2 : 0 3 : 0 
Heartbeat_Variant_1_evicts 0 : 2 1 : 0 2 : 0 3 : 0 
Heartbeat_Variant_2_evicts 0 : 0 1 : 0 2 : 0 3 : 0 
Heartbeat_Variant_3_evicts 0 : 0 1 : 0 2 : 0 3 : 0 
Heartbeat CPU 0 instructions: 10000001 cycles: 2797977 heartbeat IPC: 3.57401 cumulative IPC: 3.57401 (Simulation time: 0 hr 1 min 44 sec) 
Heartbeat_Variant_0 : 1388 0.338867 per_variant_size: 0 1388 0 0 0 0 0 0 0 
Heartbeat_Variant_1 : 2459 0.600342 per_variant_size: 0 147 2312 0 0 0 0 0 0 
Heartbeat_Variant_2 : 0 0 per_variant_size: 0 0 0 0 0 0 0 0 0 
Heartbeat_Variant_3 : 0 0 per_variant_size: 0 0 0 0 0 0 0 0 0 
Heartbeat_Variant_0_evicts 0 : 5640 1 : 6 2 : 0 3 : 0 
Heartbeat_Variant_1_evicts 0 : 6 1 : 0 2 : 0 3 : 0 
Heartbeat_Variant_2_evicts 0 : 0 1 : 0 2 : 0 3 : 0 
Heartbeat_Variant_3_evicts 0 : 0 1 : 0 2 : 0 3 : 0 
Heartbeat CPU 0 instructions: 20000001 cycles: 5594634 heartbeat IPC: 3.5757 cumulative IPC: 3.57485 (Simulation time: 0 hr 3 min 24 sec) 
Heartbeat_Variant_0 : 1459 0.356201 per_variant_size: 0 1459 0 0 0 0 0 0 0 
Heartbeat_Variant_1 : 2634 0.643066 per_variant_size: 0 91 2543 0 0 0 0 0 0 
Heartbeat_Variant_2 : 0 0 per_variant_size: 0 0 0 0 0 0 0 0 0 
Heartbeat_Variant_3 : 0 0 per_variant_size: 0 0 0 0 0 0 0 0 0 
Heartbeat_Variant_0_evicts 0 : 5620 1 : 207 2 : 0 3 : 0 
Heartbeat_Variant_1_evicts 0 : 204 1 : 0 2 : 0 3 : 0 
Heartbeat_Variant_2_evicts 0 : 0 1 : 0 2 : 0 3 : 0 
Heartbeat_Variant_3_evicts 0 : 0 1 : 0 2 : 0 3 : 0 
Heartbeat CPU 0 instructions: 30000003 cycles: 8390353 heartbeat IPC: 3.5769 cumulative IPC: 3.57554 (Simulation time: 0 hr 5 min 4 sec) 
Heartbeat_Variant_0 : 1457 0.355713 per_variant_size: 0 1457 0 0 0 0 0 0 0 
Heartbeat_Variant_1 : 2636 0.643555 per_variant_size: 0 95 2541 0 0 0 0 0 0 
Heartbeat_Variant_2 : 0 0 per_variant_size: 0 0 0 0 0 0 0 0 0 
Heartbeat_Variant_3 : 0 0 per_variant_size: 0 0 0 0 0 0 0 0 0 
Heartbeat_Variant_0_evicts 0 : 5533 1 : 20 2 : 0 3 : 0 
Heartbeat_Variant_1_evicts 0 : 22 1 : 0 2 : 0 3 : 0 
Heartbeat_Variant_2_evicts 0 : 0 1 : 0 2 : 0 3 : 0 
Heartbeat_Variant_3_evicts 0 : 0 1 : 0 2 : 0 3 : 0 
Heartbeat CPU 0 instructions: 40000002 cycles: 11186645 heartbeat IPC: 3.57616 cumulative IPC: 3.57569 (Simulation time: 0 hr 6 min 44 sec) 
Heartbeat_Variant_0 : 1460 0.356445 per_variant_size: 0 1460 0 0 0 0 0 0 0 
Heartbeat_Variant_1 : 2636 0.643555 per_variant_size: 0 83 2553 0 0 0 0 0 0 
Heartbeat_Variant_2 : 0 0 per_variant_size: 0 0 0 0 0 0 0 0 0 
Heartbeat_Variant_3 : 0 0 per_variant_size: 0 0 0 0 0 0 0 0 0 
Heartbeat_Variant_0_evicts 0 : 5677 1 : 125 2 : 0 3 : 0 
Heartbeat_Variant_1_evicts 0 : 123 1 : 0 2 : 0 3 : 0 
Heartbeat_Variant_2_evicts 0 : 0 1 : 0 2 : 0 3 : 0 
Heartbeat_Variant_3_evicts 0 : 0 1 : 0 2 : 0 3 : 0 
Heartbeat CPU 0 instructions: 50000001 cycles: 13982844 heartbeat IPC: 3.57628 cumulative IPC: 3.57581 (Simulation time: 0 hr 8 min 26 sec) 

Warmup complete CPU 0 instructions: 50000001 cycles: 13982844 (Simulation time: 0 hr 8 min 26 sec) 

Cycle: 20000000 FTQ IN: 58460274 FTQ occupancy: 20.5576 DECODE IN: 58460198 DECODE occupancy: 53.5166 ROB IN: 58460138 ROB occupancy: 319.447 ROB OUT: 58459790
Heartbeat_Variant_0 : 1461 0.356689 per_variant_size: 0 1461 0 0 0 0 0 0 0 
Heartbeat_Variant_1 : 2635 0.643311 per_variant_size: 0 92 2543 0 0 0 0 0 0 
Heartbeat_Variant_2 : 0 0 per_variant_size: 0 0 0 0 0 0 0 0 0 
Heartbeat_Variant_3 : 0 0 per_variant_size: 0 0 0 0 0 0 0 0 0 
Heartbeat_Variant_0_evicts 0 : 5551 1 : 10 2 : 0 3 : 0 
Heartbeat_Variant_1_evicts 0 : 9 1 : 0 2 : 0 3 : 0 
Heartbeat_Variant_2_evicts 0 : 0 1 : 0 2 : 0 3 : 0 
Heartbeat_Variant_3_evicts 0 : 0 1 : 0 2 : 0 3 : 0 
Heartbeat CPU 0 instructions: 60000002 cycles: 21108256 heartbeat IPC: 1.40343 cumulative IPC: 1.40343 (Simulation time: 0 hr 10 min 26 sec) 
Heartbeat_Variant_0 : 1461 0.356689 per_variant_size: 0 1461 0 0 0 0 0 0 0 
Heartbeat_Variant_1 : 2635 0.643311 per_variant_size: 0 86 2549 0 0 0 0 0 0 
Heartbeat_Variant_2 : 0 0 per_variant_size: 0 0 0 0 0 0 0 0 0 
Heartbeat_Variant_3 : 0 0 per_variant_size: 0 0 0 0 0 0 0 0 0 
Heartbeat_Variant_0_evicts 0 : 5686 1 : 32 2 : 0 3 : 0 
Heartbeat_Variant_1_evicts 0 : 32 1 : 0 2 : 0 3 : 0 
Heartbeat_Variant_2_evicts 0 : 0 1 : 0 2 : 0 3 : 0 
Heartbeat_Variant_3_evicts 0 : 0 1 : 0 2 : 0 3 : 0 
Heartbeat CPU 0 instructions: 70000001 cycles: 28263804 heartbeat IPC: 1.39752 cumulative IPC: 1.40047 (Simulation time: 0 hr 12 min 25 sec) 
Cycle: 30000000 FTQ IN: 13974134 FTQ occupancy: 14.9585 DECODE IN: 13974144 DECODE occupancy: 38.2311 ROB IN: 13974204 ROB occupancy: 251.861 ROB OUT: 13974464
Heartbeat_Variant_0 : 1460 0.356445 per_variant_size: 0 1460 0 0 0 0 0 0 0 
Heartbeat_Variant_1 : 2636 0.643555 per_variant_size: 0 102 2534 0 0 0 0 0 0 
Heartbeat_Variant_2 : 0 0 per_variant_size: 0 0 0 0 0 0 0 0 0 
Heartbeat_Variant_3 : 0 0 per_variant_size: 0 0 0 0 0 0 0 0 0 
Heartbeat_Variant_0_evicts 0 : 5602 1 : 74 2 : 0 3 : 0 
Heartbeat_Variant_1_evicts 0 : 75 1 : 0 2 : 0 3 : 0 
Heartbeat_Variant_2_evicts 0 : 0 1 : 0 2 : 0 3 : 0 
Heartbeat_Variant_3_evicts 0 : 0 1 : 0 2 : 0 3 : 0 
Heartbeat CPU 0 instructions: 80000003 cycles: 35366336 heartbeat IPC: 1.40795 cumulative IPC: 1.40295 (Simulation time: 0 hr 14 min 25 sec) 
Cycle: 40000000 FTQ IN: 14082032 FTQ occupancy: 14.9182 DECODE IN: 14082077 DECODE occupancy: 38.3878 ROB IN: 14082077 ROB occupancy: 252.54 ROB OUT: 14082165
Heartbeat_Variant_0 : 1459 0.356201 per_variant_size: 0 1459 0 0 0 0 0 0 0 
Heartbeat_Variant_1 : 2637 0.643799 per_variant_size: 0 104 2533 0 0 0 0 0 0 
Heartbeat_Variant_2 : 0 0 per_variant_size: 0 0 0 0 0 0 0 0 0 
Heartbeat_Variant_3 : 0 0 per_variant_size: 0 0 0 0 0 0 0 0 0 
Heartbeat_Variant_0_evicts 0 : 5436 1 : 4 2 : 0 3 : 0 
Heartbeat_Variant_1_evicts 0 : 5 1 : 0 2 : 0 3 : 0 
Heartbeat_Variant_2_evicts 0 : 0 1 : 0 2 : 0 3 : 0 
Heartbeat_Variant_3_evicts 0 : 0 1 : 0 2 : 0 3 : 0 
Heartbeat CPU 0 instructions: 90000000 cycles: 42566679 heartbeat IPC: 1.38882 cumulative IPC: 1.39939 (Simulation time: 0 hr 16 min 26 sec) 
Heartbeat_Variant_0 : 1460 0.356445 per_variant_size: 0 1460 0 0 0 0 0 0 0 
Heartbeat_Variant_1 : 2636 0.643555 per_variant_size: 0 97 2539 0 0 0 0 0 0 
Heartbeat_Variant_2 : 0 0 per_variant_size: 0 0 0 0 0 0 0 0 0 
Heartbeat_Variant_3 : 0 0 per_variant_size: 0 0 0 0 0 0 0 0 0 
Heartbeat_Variant_0_evicts 0 : 5639 1 : 81 2 : 0 3 : 0 
Heartbeat_Variant_1_evicts 0 : 80 1 : 0 2 : 0 3 : 0 
Heartbeat_Variant_2_evicts 0 : 0 1 : 0 2 : 0 3 : 0 
Heartbeat_Variant_3_evicts 0 : 0 1 : 0 2 : 0 3 : 0 
Heartbeat CPU 0 instructions: 100000003 cycles: 49680676 heartbeat IPC: 1.40568 cumulative IPC: 1.40065 (Simulation time: 0 hr 18 min 31 sec) 
Finished CPU 0 instructions: 50000002 cycles: 35697832 cumulative IPC: 1.40065 (Simulation time: 0 hr 18 min 31 sec) 

ChampSim completed all CPUs

Region of Interest Statistics

CPU 0 cumulative IPC: 1.40065 instructions: 50000002 cycles: 35697832
 Fetch stage stalled: 45.7195  Sim cycles: 35697832 fetch stall cycle: 16320886
 Empty decode stage: 25.1795  Sim cycles: 35697832 fetch stall cycle: 8988547
ITLB TOTAL     ACCESS:    5832820  HIT:    5337000  MISS:     495820  HIT %:    91.4995  MISS %:    8.50052   MPKI: 9.9164
ITLB LOAD TRANSLATION INSTRUCTION	ACCESS:    5695172  HIT:    5199352  MISS:     495820  HIT %:     91.294  MISS %:    8.70597  MPKI: 9.9164
ITLB TRANSLATION FROM L1D PREFETCHER INSTRUCTION	ACCESS:     137648  HIT:     137648  MISS:          0  HIT %:        100  MISS %:          0  MPKI: 0

ITLB AVERAGE MISS LATENCY: 9.0462 cycles
ITLB RQ	ACCESS:    7940213	FORWARD:          0	MERGED:    1623791	TO_CACHE:    6316422

DTLB TOTAL     ACCESS:    8947260  HIT:    8472706  MISS:     474554  HIT %:    94.6961  MISS %:     5.3039   MPKI: 9.49108
DTLB LOAD TRANSLATION DATA	ACCESS:    8947260  HIT:    8472706  MISS:     474554  HIT %:    94.6961  MISS %:     5.3039  MPKI: 9.49108

DTLB AVERAGE MISS LATENCY: 9.31023 cycles
DTLB RQ	ACCESS:   13323104	FORWARD:          0	MERGED:    4339100	TO_CACHE:    8984004

STLB TOTAL     ACCESS:    1214673  HIT:    1212785  MISS:       1888  HIT %:    99.8446  MISS %:   0.155433   MPKI: 0.03776
STLB LOAD TRANSLATION INSTRUCTION	ACCESS:     495820  HIT:     495604  MISS:        216  HIT %:    99.9564  MISS %:  0.0435642  MPKI: 0.00432
STLB LOAD TRANSLATION DATA	ACCESS:     474554  HIT:     472900  MISS:       1654  HIT %:    99.6515  MISS %:   0.348538  MPKI: 0.03308
STLB TRANSLATION FROM L1D PREFETCHER DATA	ACCESS:     244299  HIT:     244281  MISS:         18  HIT %:    99.9926  MISS %: 0.00736802  MPKI: 0.00036

STLB AVERAGE MISS LATENCY: 74.3835 cycles
STLB RQ	ACCESS:    1334669	FORWARD:          0	MERGED:     119951	TO_CACHE:    1214718

STLB Hit, L1D data hit: 0
STLB Hit, L2C data hit: 0
STLB Hit, LLC data hit: 0
STLB Hit, LLC data miss: 0
STLB STLB hints to L2: 0
L1D TOTAL     ACCESS:   13066555  HIT:   11949151  MISS:    1117404  HIT %:    91.4484  MISS %:    8.55163   MPKI: 22.3481
L1D LOAD DATA	ACCESS:    6536792  HIT:    5799401  MISS:     737391  HIT %:    88.7194  MISS %:    11.2806  MPKI: 14.7478
L1D RFO DATA	ACCESS:    6205599  HIT:    5920577  MISS:     285022  HIT %:     95.407  MISS %:    4.59298  MPKI: 5.70044
L1D PREFETCH DATA	ACCESS:     324164  HIT:     229173  MISS:      94991  HIT %:    70.6966  MISS %:    29.3034  MPKI: 1.89982

L1D PREFETCH  REQUESTED:     728917  ISSUED:     728917  USEFUL:      33474  USELESS:      68854
L1D USEFUL LOAD PREFETCHES:      33474 PREFETCH ISSUED TO LOWER LEVEL:     102387  ACCURACY: 32.6936
 TIMELY PREFETCHES:      33474 LATE PREFETCHES: 7340 DROPPED PREFETCHES: 8
L1D AVERAGE MISS LATENCY: 214122 cycles
L1D RQ	ACCESS:   10671717	FORWARD:          0	MERGED:    3934774	TO_CACHE:    6571377
L1D WQ	ACCESS:    6949899	FORWARD:     165895	MERGED:     198172	TO_CACHE:    6751727
L1D PQ	ACCESS:     364623	FORWARD:          0	MERGED:          0	TO_CACHE:     364294

L1D UNIQUE REGIONS ACCESSED: 0
L1D REGIONS CONFLICTS: 0
L1D Cross Page Prefetch Requests: 6794
L1D Same Page Prefetch Requests: 741412
L1D ROI Sum of L1D PQ occupancy: 4618202
L1D PREFETCHES PUSHED FROM L2C: 0
L1I TOTAL     ACCESS:    7116106  HIT:    4345607  MISS:    2770499  HIT %:    61.0672  MISS %:    38.9328   MPKI: 55.41
L1I LOAD INSTRUCTION	ACCESS:    6449294  HIT:    3678795  MISS:    2770499  HIT %:    57.0418  MISS %:    42.9582  MPKI: 55.41
L1I PREFETCH INSTRUCTION	ACCESS:     666812  HIT:     666812  MISS:          0  HIT %:        100  MISS %:          0  MPKI: 0

L1I PREFETCH  REQUESTED:    1620967  ISSUED:    1620967  USEFUL:          0  USELESS:          0
L1I USEFUL LOAD PREFETCHES:          0 PREFETCH ISSUED TO LOWER LEVEL:          0  ACCURACY: -nan
 TIMELY PREFETCHES:          0 LATE PREFETCHES: 0 DROPPED PREFETCHES: 0
L1I AVERAGE MISS LATENCY: 17.0082 cycles
L1I RQ	ACCESS:    9567221	FORWARD:          0	MERGED:    2814591	TO_CACHE:    6752630
L1I PQ	ACCESS:    1620967	FORWARD:          0	MERGED:     433384	TO_CACHE:    1187583

L1BTB TOTAL     ACCESS:    5671501  HIT:    2033282  MISS:    3638219  HIT %:    35.8509  MISS %:    64.1491   MPKI: 72.7644
L1BTB BRANCH_DIRECT_JUMP	ACCESS:     547554 HIT:     143676 MISS:     403878 AVERAGE STALL: 65.1924 AVERAGE FETCH STALL: 13.1697 AVERAGE FETCH QUEUE STALL: 27.2217 AVERAGE DECODE STALL: 23.8655 AVERAGE EXECUTE STALL: 2.38176e+15
L1BTB BRANCH_INDIRECT	ACCESS:     182354 HIT:      65533 MISS:     116821 AVERAGE STALL: 110.216 AVERAGE FETCH STALL: 11.5364 AVERAGE FETCH QUEUE STALL: 17.4772 AVERAGE DECODE STALL: 13.2559 AVERAGE EXECUTE STALL: 66.9835
L1BTB BRANCH_CONDITIONAL	ACCESS:    2697949 HIT:    1402950 MISS:    1294999 AVERAGE STALL: 70.2338 AVERAGE FETCH STALL: 22.2307 AVERAGE FETCH QUEUE STALL: 25.3677 AVERAGE DECODE STALL: 21.7708 AVERAGE EXECUTE STALL: 4.69741e+15
L1BTB BRANCH_DIRECT_CALL	ACCESS:     949034 HIT:     106963 MISS:     842071 AVERAGE STALL: 72.1462 AVERAGE FETCH STALL: 20.3658 AVERAGE FETCH QUEUE STALL: 31.8385 AVERAGE DECODE STALL: 19.3905 AVERAGE EXECUTE STALL: 1.08319e+16
L1BTB BRANCH_INDIRECT_CALL	ACCESS:     172786 HIT:      21966 MISS:     150820 AVERAGE STALL: 140.269 AVERAGE FETCH STALL: 12.4926 AVERAGE FETCH QUEUE STALL: 18.4664 AVERAGE DECODE STALL: 11.6632 AVERAGE EXECUTE STALL: 97.1561
L1BTB BRANCH_RETURN	ACCESS:    1121824 HIT:     292194 MISS:     829630 AVERAGE STALL: 50.4413 AVERAGE FETCH STALL: 16.7427 AVERAGE FETCH QUEUE STALL: 5.51268 AVERAGE DECODE STALL: 6.44157 AVERAGE EXECUTE STALL: 4.3346e+14
L1BTB BRANCH_OTHER ACCESS:          0 HIT:          0 MISS:          0 AVERAGE STALL: -nan AVERAGE FETCH STALL: -nan AVERAGE FETCH QUEUE STALL: -nan AVERAGE DECODE STALL: -nan AVERAGE EXECUTE STALL: -nan
L1BTB TOTAL ROB OCCUPANCY AT BTB MISS: 2.62635

L2BTB TOTAL     ACCESS:    3612956  HIT:    3549740  MISS:      63216  HIT %:    98.2503  MISS %:     1.7497   MPKI: 1.26432
L2BTB BRANCH_DIRECT_JUMP	ACCESS:     399775 HIT:     396131 MISS:       3644 AVERAGE STALL: 65.1924 AVERAGE FETCH STALL: 13.1697 AVERAGE FETCH QUEUE STALL: 27.2217 AVERAGE DECODE STALL: 23.8655 AVERAGE EXECUTE STALL: 2.38176e+15
L2BTB BRANCH_INDIRECT	ACCESS:     106548 HIT:     103869 MISS:       2679 AVERAGE STALL: 110.216 AVERAGE FETCH STALL: 11.5364 AVERAGE FETCH QUEUE STALL: 17.4772 AVERAGE DECODE STALL: 13.2559 AVERAGE EXECUTE STALL: 66.9835
L2BTB BRANCH_CONDITIONAL	ACCESS:    1294999 HIT:    1290992 MISS:       4007 AVERAGE STALL: 70.2338 AVERAGE FETCH STALL: 22.2307 AVERAGE FETCH QUEUE STALL: 25.3677 AVERAGE DECODE STALL: 21.7708 AVERAGE EXECUTE STALL: 4.69741e+15
L2BTB BRANCH_DIRECT_CALL	ACCESS:     842071 HIT:     840362 MISS:       1709 AVERAGE STALL: 72.1462 AVERAGE FETCH STALL: 20.3658 AVERAGE FETCH QUEUE STALL: 31.8385 AVERAGE DECODE STALL: 19.3905 AVERAGE EXECUTE STALL: 1.08319e+16
L2BTB BRANCH_INDIRECT_CALL	ACCESS:     141347 HIT:     131328 MISS:      10019 AVERAGE STALL: 140.269 AVERAGE FETCH STALL: 12.4926 AVERAGE FETCH QUEUE STALL: 18.4664 AVERAGE DECODE STALL: 11.6632 AVERAGE EXECUTE STALL: 97.1561
L2BTB BRANCH_RETURN	ACCESS:     828216 HIT:     787058 MISS:      41158 AVERAGE STALL: 50.4413 AVERAGE FETCH STALL: 16.7427 AVERAGE FETCH QUEUE STALL: 5.51268 AVERAGE DECODE STALL: 6.44157 AVERAGE EXECUTE STALL: 4.3346e+14
L2BTB BRANCH_OTHER ACCESS:          0 HIT:          0 MISS:          0 AVERAGE STALL: -nan AVERAGE FETCH STALL: -nan AVERAGE FETCH QUEUE STALL: -nan AVERAGE DECODE STALL: -nan AVERAGE EXECUTE STALL: -nan
L2BTB TOTAL ROB OCCUPANCY AT BTB MISS: 151.152

L2C TOTAL     ACCESS:    4489417  HIT:    4050779  MISS:     438638  HIT %:    90.2295  MISS %:    9.77049   MPKI: 8.77276
L2C LOAD INSTRUCTION	ACCESS:    2770498  HIT:    2532130  MISS:     238368  HIT %:    91.3962  MISS %:     8.6038  MPKI: 4.76736
L2C LOAD TRANSLATION INSTRUCTION	ACCESS:        239  HIT:         60  MISS:        179  HIT %:    25.1046  MISS %:    74.8954  MPKI: 0.00358
L2C LOAD DATA	ACCESS:     730031  HIT:     664241  MISS:      65790  HIT %:    90.9881  MISS %:    9.01195  MPKI: 1.3158
L2C RFO DATA	ACCESS:     284933  HIT:     232305  MISS:      52628  HIT %:    81.5297  MISS %:    18.4703  MPKI: 1.05256
L2C PREFETCH DATA	ACCESS:     180111  HIT:     112926  MISS:      67185  HIT %:     62.698  MISS %:     37.302  MPKI: 1.3437
L2C WRITEBACK DATA	ACCESS:     521858  HIT:     508695  MISS:      13163  HIT %:    97.4777  MISS %:    2.52233  MPKI: 0.26326
L2C LOAD TRANSLATION DATA	ACCESS:       1703  HIT:        395  MISS:       1308  HIT %:    23.1944  MISS %:    76.8056  MPKI: 0.02616
L2C TRANSLATION FROM L1D PREFETCHER DATA	ACCESS:         44  HIT:         27  MISS:         17  HIT %:    61.3636  MISS %:    38.6364  MPKI: 0.00034

L2C PREFETCH  REQUESTED:      84969  ISSUED:      84969  USEFUL:       7257  USELESS:      60252
L2C USEFUL LOAD PREFETCHES:       7257 PREFETCH ISSUED TO LOWER LEVEL:      67485  ACCURACY: 10.7535
 TIMELY PREFETCHES:       7257 LATE PREFETCHES: 300 DROPPED PREFETCHES: 0
L2C AVERAGE MISS LATENCY: 38.7788 cycles
L2C RQ	ACCESS:    3787502	FORWARD:          0	MERGED:          0	TO_CACHE:    3787449
L2C WQ	ACCESS:     521858	FORWARD:         53	MERGED:          0	TO_CACHE:     521858
L2C PQ	ACCESS:     187356	FORWARD:          0	MERGED:       3761	TO_CACHE:     183595

L2C Dense regions hint from L2: 0
PSCL5 TOTAL     ACCESS:       3800  HIT:       1900  MISS:       1900  HIT %:         50  MISS %:         50   MPKI: 0.038
PSCL5 LOAD TRANSLATION INSTRUCTION	ACCESS:       3718  HIT:       1859  MISS:       1859  HIT %:         50  MISS %:         50  MPKI: 0.03718
PSCL5 TRANSLATION FROM L1D PREFETCHER INSTRUCTION	ACCESS:         82  HIT:         41  MISS:         41  HIT %:         50  MISS %:         50  MPKI: 0.00082


PSCL4 TOTAL     ACCESS:       3713  HIT:       1854  MISS:       1859  HIT %:    49.9327  MISS %:    50.0673   MPKI: 0.03718
PSCL4 LOAD TRANSLATION INSTRUCTION	ACCESS:       1819  HIT:       1814  MISS:          5  HIT %:    99.7251  MISS %:   0.274876  MPKI: 0.0001
PSCL4 TRANSLATION FROM L1D PREFETCHER INSTRUCTION	ACCESS:         40  HIT:         40  MISS:          0  HIT %:        100  MISS %:          0  MPKI: 0
PSCL4 LOAD TRANSLATION DATA	ACCESS:       1814  HIT:          0  MISS:       1814  HIT %:          0  MISS %:        100  MPKI: 0.03628
PSCL4 TRANSLATION FROM L1D PREFETCHER DATA	ACCESS:         40  HIT:          0  MISS:         40  HIT %:          0  MISS %:        100  MPKI: 0.0008


PSCL3 TOTAL     ACCESS:       3769  HIT:       1882  MISS:       1887  HIT %:    49.9337  MISS %:    50.0663   MPKI: 0.03774
PSCL3 LOAD TRANSLATION INSTRUCTION	ACCESS:       1847  HIT:       1842  MISS:          5  HIT %:    99.7293  MISS %:   0.270709  MPKI: 0.0001
PSCL3 TRANSLATION FROM L1D PREFETCHER INSTRUCTION	ACCESS:         40  HIT:         40  MISS:          0  HIT %:        100  MISS %:          0  MPKI: 0
PSCL3 LOAD TRANSLATION DATA	ACCESS:       1842  HIT:          0  MISS:       1842  HIT %:          0  MISS %:        100  MPKI: 0.03684
PSCL3 TRANSLATION FROM L1D PREFETCHER DATA	ACCESS:         40  HIT:          0  MISS:         40  HIT %:          0  MISS %:        100  MPKI: 0.0008


PSCL2 TOTAL     ACCESS:       3724  HIT:       1824  MISS:       1900  HIT %:    48.9796  MISS %:    51.0204   MPKI: 0.038
PSCL2 LOAD TRANSLATION INSTRUCTION	ACCESS:       2001  HIT:       1784  MISS:        217  HIT %:    89.1554  MISS %:    10.8446  MPKI: 0.00434
PSCL2 TRANSLATION FROM L1D PREFETCHER INSTRUCTION	ACCESS:         40  HIT:         40  MISS:          0  HIT %:        100  MISS %:          0  MPKI: 0
PSCL2 LOAD TRANSLATION DATA	ACCESS:       1643  HIT:          0  MISS:       1643  HIT %:          0  MISS %:        100  MPKI: 0.03286
PSCL2 TRANSLATION FROM L1D PREFETCHER DATA	ACCESS:         40  HIT:          0  MISS:         40  HIT %:          0  MISS %:        100  MPKI: 0.0008


LLC TOTAL     ACCESS:     498378  HIT:     471272  MISS:      27106  HIT %:    94.5612  MISS %:    5.43884   MPKI: 0.54212
LLC LOAD INSTRUCTION	ACCESS:     238368  HIT:     237676  MISS:        692  HIT %:    99.7097  MISS %:   0.290307  MPKI: 0.01384
LLC LOAD TRANSLATION INSTRUCTION	ACCESS:        179  HIT:        156  MISS:         23  HIT %:    87.1508  MISS %:    12.8492  MPKI: 0.00046
LLC LOAD DATA	ACCESS:      65495  HIT:      62167  MISS:       3328  HIT %:    94.9187  MISS %:     5.0813  MPKI: 0.06656
LLC RFO DATA	ACCESS:      52616  HIT:      39623  MISS:      12993  HIT %:     75.306  MISS %:     24.694  MPKI: 0.25986
LLC PREFETCH DATA	ACCESS:      67485  HIT:      57784  MISS:       9701  HIT %:     85.625  MISS %:     14.375  MPKI: 0.19402
LLC WRITEBACK DATA	ACCESS:      72910  HIT:      72610  MISS:        300  HIT %:    99.5885  MISS %:   0.411466  MPKI: 0.006
LLC LOAD TRANSLATION DATA	ACCESS:       1308  HIT:       1240  MISS:         68  HIT %:    94.8012  MISS %:    5.19878  MPKI: 0.00136
LLC TRANSLATION FROM L1D PREFETCHER DATA	ACCESS:         17  HIT:         16  MISS:          1  HIT %:    94.1176  MISS %:    5.88235  MPKI: 2e-05

LLC AVERAGE MISS LATENCY: 155.334 cycles
LLC RQ	ACCESS:     357990	FORWARD:          0	MERGED:          0	TO_CACHE:     357983
LLC WQ	ACCESS:      72910	FORWARD:          7	MERGED:          0	TO_CACHE:      72910
LLC PQ	ACCESS:      67485	FORWARD:          0	MERGED:          0	TO_CACHE:      67485

LLC Dense regions hint to LLC: 0

RAW hits: 1958555
Loads Generated: 12630272
Loads sent to L1D: 10671717
Stores Generated: 6949891
Stores sent to L1D: 6949899
Major fault: 0 Minor fault: 2589
Allocated PAGES: 2589

stream: 
stream:times selected: 1173432
stream:pref_filled: 122895
stream:pref_useful: 24324
stream:pref_late: 6748
stream:misses: 7989
stream:misses_by_poll: 0

CS: 
CS:times selected: 175560
CS:pref_filled: 59798
CS:pref_useful: 36553
CS:pref_late: 6579
CS:misses: 15666
CS:misses_by_poll: 4

CPLX: 
CPLX:times selected: 996706
CPLX:pref_filled: 19554
CPLX:pref_useful: 4745
CPLX:pref_late: 3062
CPLX:misses: 93408
CPLX:misses_by_poll: 0

NL_L1: 
NL:times selected: 20379
NL:pref_filled: 707
NL:pref_useful: 305
NL:pref_late: 297
NL:misses: 1736
NL:misses_by_poll: 0

total selections: 2366077
total_filled: 94991
total_useful: 33474
total_late: 17907
total_polluted: 4
total_misses_after_warmup: 771974
conflicts: 5522904

test: 114715

DRAM Statistics
 CHANNEL 0
 RQ ROW_BUFFER_HIT:      10049  ROW_BUFFER_MISS:      16753
 DBUS_CONGESTED:         10
 WQ ROW_BUFFER_HIT:       1259  ROW_BUFFER_MISS:      11622  FULL:          0

 AVG_CONGESTED_CYCLE: 6

CPU 0 Branch Prediction Accuracy: 99.8272% MPKI: 0.31622 Average ROB Occupancy at Mispredict: 198.262
Branch types
NOT_BRANCH: 40848303 81.6966%
BRANCH_DIRECT_JUMP: 547554 1.09511%
BRANCH_INDIRECT: 182354 0.364708%
BRANCH_CONDITIONAL: 6178123 12.3562%
BRANCH_DIRECT_CALL: 949034 1.89807%
BRANCH_INDIRECT_CALL: 172786 0.345572%
BRANCH_RETURN: 1121824 2.24365%
BRANCH_OTHER: 0 0%

DRAM PAGES: 1048576
Allocated PAGES: 2589
Average_ROB_Occupancy: 252.998
Average_Decode_Occupancy: 38.2617
Average_FTQ_Occupancy: 14.9332
Indirect max targets: 14 Average targets: 1.17778
Branch_type:  BRANCH_DIRECT_JUMP:  Count Percentage: 4.12615 5.68839 3.6339 2.28157 8.16698 6.32441 1.45656 68.322 
Branch_type:  BRANCH_INDIRECT:  Count Percentage: 11.7649 3.39007 2.49565 13.3008 3.35469 2.81793 0.939127 61.9368 
Branch_type:  BRANCH_CONDITIONAL:  Count Percentage: 21.9162 2.25494 1.81251 2.73446 2.01931 4.6314 3.63547 60.9957 
Branch_type:  BRANCH_DIRECT_CALL:  Count Percentage: 0.386715 1.804 0.716851 1.466 4.32633 2.60504 0.408249 88.2868 
Branch_type:  BRANCH_INDIRECT_CALL:  Count Percentage: 9.53172 0 2.9876 0.000869921 1.36056 1.70997 0.99287 83.4164 
Branch_type:  BRANCH_RETURN:  Count Percentage: 3.9341 2.02347 2.23352 2.03699 3.44561 5.11455 3.6105 77.6013 
Branch_type:  BRANCH_DIRECT_JUMP:  Total Count: 45172 62275 39783 24978 89410 69238 15946 747972 
Branch_type:  BRANCH_INDIRECT:  Total Count: 42894 12360 9099 48494 12231 10274 3424 225818 
Branch_type:  BRANCH_CONDITIONAL:  Total Count: 2706780 278498 223856 337722 249397 572005 449001 7533318 
Branch_type:  BRANCH_DIRECT_CALL:  Total Count: 7327 34180 13582 27776 81970 49357 7735 1672749 
Branch_type:  BRANCH_INDIRECT_CALL:  Total Count: 32871 0 10303 3 4692 5897 3424 287669 
Branch_type:  BRANCH_RETURN:  Total Count: 88140 45334 50040 45637 77196 114587 80890 1738589 
Number of unique branch instructions: 10811
Upper 32 bits: 
aaaa
ffff
ffff0000
Unique upper 32 bits: 3
Unique upper 36 bits: 3
Unique upper 40 bits: 5
Unique upper 44 bits: 32
Unique upper 48 bits: 158
Variant_0 : 1460 0.356445
Variant_1 : 2636 0.643555
Variant_2 : 0 0
Variant_3 : 0 0
Offset_3 4470
Offset_4 255
Offset_5 484
Offset_6 541
Offset_7 643
Offset_8 577
Offset_9 523
Offset_10 426
Offset_11 360
Offset_12 327
Offset_13 240
Offset_14 247
Offset_15 194
Offset_16 233
Offset_17 169
Offset_18 149
Offset_19 257
Offset_20 143
Offset_21 235
Offset_22 413
Offset_23 241
Offset_24 351
Offset_25 117
Offset_47 94
Offset_64 2
decode_dispatch_called: 26357982 73.8364
Dispatch_width: 0 14154960 53.7027 39.6522
Dispatch_width: 1 1043785 3.96003 2.92395
Dispatch_width: 2 857637 3.2538 2.40249
Dispatch_width: 3 507098 1.92389 1.42053
Dispatch_width: 4 6467946 24.5389 18.1186
Dispatch_width: 5 111471 0.422912 0.312263
Dispatch_width: 6 3215085 12.1978 9.00639
Empty_decode_cycles: 9339850 26.1636
ROB_full_cycles: 10227075 28.649
Starvation_cycles_per_kilo_instr: 222.557
Starvation_cycles_per_kilo_instr_3: 156.763
Starvation_cycles_per_kilo_instr_0: 132.677
Branch_type_1  (3,1)  (4,9)  (5,39)  (6,74)  (7,126)  (8,148)  (9,136)  (10,110)  (11,78)  (12,55)  (13,11)  (14,2)  (15,3)  (16,4)  (18,1)  (19,5)  (20,2)  (21,1)  (22,3)  (23,2)  (24,10)  (25,12) 
Branch_type_2  (3,1)  (4,1)  (5,1)  (8,4)  (9,4)  (10,1)  (12,1)  (13,1)  (14,1)  (16,3)  (17,2)  (20,2)  (21,2)  (23,5)  (24,1)  (47,43) 
Branch_type_3  (3,4468)  (4,245)  (5,440)  (6,451)  (7,487)  (8,360)  (9,288)  (10,172)  (11,146)  (12,62)  (13,10)  (64,2) 
Branch_type_4  (6,3)  (7,8)  (8,25)  (9,56)  (10,68)  (11,70)  (12,117)  (13,102)  (14,112)  (15,92)  (16,102)  (17,79)  (18,65)  (19,125)  (20,73)  (21,124)  (22,219)  (23,136)  (24,206)  (25,101) 
Branch_type_5  (8,3)  (9,1)  (10,4)  (11,5)  (12,3)  (13,14)  (14,16)  (15,11)  (16,22)  (17,11)  (18,23)  (19,14)  (20,11)  (21,13)  (22,43)  (23,26)  (24,38) 
Branch_type_6  (5,4)  (6,13)  (7,22)  (8,37)  (9,38)  (10,71)  (11,61)  (12,89)  (13,102)  (14,116)  (15,88)  (16,102)  (17,77)  (18,60)  (19,113)  (20,55)  (21,95)  (22,148)  (23,72)  (24,96)  (25,4)  (47,51) 
Unique trigger count: 
Variant_0_evicts_0 : 0
Variant_0_evicts_1 : 0
Variant_0_evicts_2 : 0
Variant_0_evicts_3 : 0
Variant_1_evicts_0 : 0
Variant_1_evicts_1 : 0
Variant_1_evicts_2 : 0
Variant_1_evicts_3 : 0
Variant_2_evicts_0 : 0
Variant_2_evicts_1 : 0
Variant_2_evicts_2 : 0
Variant_2_evicts_3 : 0
Variant_3_evicts_0 : 0
Variant_3_evicts_1 : 0
Variant_3_evicts_2 : 0
Variant_3_evicts_3 : 0
BTB PER SET UNIQUE ADDR: 39 30 40 36 35 31 37 34 33 40 39 35 33 31 31 38 39 37 44 33 33 28 35 39 47 33 31 37 45 42 38 33 36 42 41 29 39 31 40 42 34 30 32 41 30 36 38 36 44 30 37 34 42 35 36 37 35 37 41 36 33 35 28 29 37 36 45 39 40 41 33 32 36 36 31 40 32 34 39 33 39 36 33 44 32 41 32 38 37 38 33 33 44 33 29 45 35 33 33 40 29 37 32 33 40 34 40 39 39 31 35 41 30 33 38 34 44 33 38 37 40 28 42 39 37 37 45 38 37 45 37 35 39 35 40 37 38 33 31 40 41 34 40 40 34 36 34 41 33 33 40 38 30 42 35 32 46 31 36 43 32 28 29 40 35 31 37 29 37 35 44 35 38 33 36 36 39 39 36 33 41 37 31 33 36 40 30 35 34 35 30 37 46 29 37 35 32 35 41 33 34 38 43 39 37 30 36 39 27 30 41 31 35 34 32 39 39 28 36 42 28 41 38 35 31 43 38 38 32 35 31 39 27 34 33 36 32 34 32 35 40 30 28 40 35 35 43 31 40 42 35 36 38 35 39 34 
BTB PER SET COUNT: 40 471 1597 37 182 37 40 37 34 1082 1151 2063 40 123 1267 45 2508 1142 1006 36 34 988 41 60 51 185 989 43 3705 304 45 156 385 137 2035 30 39 32 3153 46 992 33 36 45 31 1473 39 191 1010 1321 44 35 44 1035 37 523 37 45 46 1684 40 295 29 89 41 39 15728 565 46 45 77 32 904 39 1134 42 33 582 42 187 1742 1486 36 48 32 797 34 41 743 42 576 33 2479 961 30 1367 39 35 992 44 1518 821 34 33 41 40 557 728 1000 952 40 53 36 272 2232 35 47 36 1080 2278 45 28 2598 1874 260 43 170 1732 686 50 3346 46 279 37 1731 2563 204 1057 35 47 2194 517 42 525 34 41 94 44 39 638 2469 42 989 215 120 48 2705 2023 39 51 34 32 1500 140 823 36 519 32 43 56 50 998 283 512 40 36 4270 49 1775 33 408 908 1504 1206 44 2092 33 41 37 36 1515 1576 837 30 848 1869 38 40 80 59 322 40 1070 1692 41 519 2987 456 506 1502 1178 1504 2052 4408 528 43 1080 33 50 45 390 603 1529 37 357 50 1327 967 1506 37 1316 2993 30 166 37 37 3899 519 271 38 42 31 155 43 768 130 45 20650 41 750 38 38 386 40 43 39 
To predecode: 0
Predecoding something: 0
Predecode request dropped: 0
sizeofblock_0 0
sizeofblock_1 27013
sizeofblock_2 106112
sizeofblock_3 0
sizeofblock_4 0
sizeofblock_5 0
sizeofblock_6 0
sizeofblock_7 0
sizeofblock_8 0
Variant_0 Correct: 1618398 Incorrect: 0 Accuracy: 1
Variant_1 Correct: 5753184 Incorrect: 0 Accuracy: 1
Variant_2 Correct: 0 Incorrect: 0 Accuracy: -nan
Variant_3 Correct: 0 Incorrect: 0 Accuracy: -nan
