
*** ChampSim Multicore Out-of-Order Simulator ***

Warmup Instructions: 50000000
Simulation Instructions: 50000000
Number of CPUs: 1
LLC sets: 2048
LLC ways: 16
Off-chip DRAM Size: 4096 MB Channels: 1 Width: 64-bit Data Rate: 6400 MT/s
CPU 0 runs ./micro_traces/srv183.trace.gz
.gz
ITLB has LRU replacement policy
DTLB has LRU replacement policy
STLB has LRU replacement policy
FDIP Prefetcher at L1I
L1I has LRU replacement policy
L1D has LRU replacement policy
Initialize SRRIP state for L2C
Initialize DRRIP state for LLC
Heartbeat_Variant_0 : 1391 0.1698 per_variant_size: 0 1391 0 0 0 0 0 0 0 
Heartbeat_Variant_1 : 1452 0.177246 per_variant_size: 0 940 512 0 0 0 0 0 0 
Heartbeat_Variant_2 : 1719 0.209839 per_variant_size: 0 959 462 206 92 0 0 0 0 
Heartbeat_Variant_3 : 0 0 per_variant_size: 0 0 0 0 0 0 0 0 0 
Heartbeat_Variant_0_evicts 0 : 5473 1 : 1 2 : 11 3 : 0 
Heartbeat_Variant_1_evicts 0 : 2 1 : 0 2 : 186 3 : 0 
Heartbeat_Variant_2_evicts 0 : 6 1 : 190 2 : 0 3 : 0 
Heartbeat_Variant_3_evicts 0 : 0 1 : 0 2 : 0 3 : 0 
Heartbeat CPU 0 instructions: 10000002 cycles: 2797708 heartbeat IPC: 3.57436 cumulative IPC: 3.57436 (Simulation time: 0 hr 1 min 30 sec) 
Heartbeat_Variant_0 : 1394 0.170166 per_variant_size: 0 1394 0 0 0 0 0 0 0 
Heartbeat_Variant_1 : 1457 0.177856 per_variant_size: 0 939 518 0 0 0 0 0 0 
Heartbeat_Variant_2 : 1725 0.210571 per_variant_size: 0 963 463 206 93 0 0 0 0 
Heartbeat_Variant_3 : 0 0 per_variant_size: 0 0 0 0 0 0 0 0 0 
Heartbeat_Variant_0_evicts 0 : 5539 1 : 0 2 : 0 3 : 0 
Heartbeat_Variant_1_evicts 0 : 0 1 : 0 2 : 192 3 : 0 
Heartbeat_Variant_2_evicts 0 : 0 1 : 190 2 : 0 3 : 0 
Heartbeat_Variant_3_evicts 0 : 0 1 : 0 2 : 0 3 : 0 
Heartbeat CPU 0 instructions: 20000003 cycles: 5594161 heartbeat IPC: 3.57596 cumulative IPC: 3.57516 (Simulation time: 0 hr 2 min 57 sec) 
Heartbeat_Variant_0 : 1407 0.171753 per_variant_size: 0 1407 0 0 0 0 0 0 0 
Heartbeat_Variant_1 : 1469 0.179321 per_variant_size: 0 945 524 0 0 0 0 0 0 
Heartbeat_Variant_2 : 1738 0.212158 per_variant_size: 0 965 473 204 96 0 0 0 0 
Heartbeat_Variant_3 : 0 0 per_variant_size: 0 0 0 0 0 0 0 0 0 
Heartbeat_Variant_0_evicts 0 : 5529 1 : 0 2 : 0 3 : 0 
Heartbeat_Variant_1_evicts 0 : 0 1 : 0 2 : 193 3 : 0 
Heartbeat_Variant_2_evicts 0 : 0 1 : 193 2 : 0 3 : 0 
Heartbeat_Variant_3_evicts 0 : 0 1 : 0 2 : 0 3 : 0 
Heartbeat CPU 0 instructions: 30000000 cycles: 8391720 heartbeat IPC: 3.57454 cumulative IPC: 3.57495 (Simulation time: 0 hr 4 min 33 sec) 
Heartbeat_Variant_0 : 1409 0.171997 per_variant_size: 0 1409 0 0 0 0 0 0 0 
Heartbeat_Variant_1 : 1476 0.180176 per_variant_size: 0 949 527 0 0 0 0 0 0 
Heartbeat_Variant_2 : 1743 0.212769 per_variant_size: 0 966 474 206 97 0 0 0 0 
Heartbeat_Variant_3 : 0 0 per_variant_size: 0 0 0 0 0 0 0 0 0 
Heartbeat_Variant_0_evicts 0 : 5625 1 : 2 2 : 0 3 : 0 
Heartbeat_Variant_1_evicts 0 : 2 1 : 0 2 : 193 3 : 0 
Heartbeat_Variant_2_evicts 0 : 0 1 : 193 2 : 0 3 : 0 
Heartbeat_Variant_3_evicts 0 : 0 1 : 0 2 : 0 3 : 0 
Heartbeat CPU 0 instructions: 40000002 cycles: 11187622 heartbeat IPC: 3.57666 cumulative IPC: 3.57538 (Simulation time: 0 hr 6 min 16 sec) 
Heartbeat_Variant_0 : 1409 0.171997 per_variant_size: 0 1409 0 0 0 0 0 0 0 
Heartbeat_Variant_1 : 1478 0.18042 per_variant_size: 0 949 529 0 0 0 0 0 0 
Heartbeat_Variant_2 : 1744 0.212891 per_variant_size: 0 967 474 209 94 0 0 0 0 
Heartbeat_Variant_3 : 0 0 per_variant_size: 0 0 0 0 0 0 0 0 0 
Heartbeat_Variant_0_evicts 0 : 5566 1 : 0 2 : 0 3 : 0 
Heartbeat_Variant_1_evicts 0 : 0 1 : 0 2 : 190 3 : 0 
Heartbeat_Variant_2_evicts 0 : 0 1 : 190 2 : 0 3 : 0 
Heartbeat_Variant_3_evicts 0 : 0 1 : 0 2 : 0 3 : 0 
Heartbeat CPU 0 instructions: 50000003 cycles: 13984827 heartbeat IPC: 3.575 cumulative IPC: 3.5753 (Simulation time: 0 hr 7 min 55 sec) 

Warmup complete CPU 0 instructions: 50000003 cycles: 13984827 (Simulation time: 0 hr 7 min 55 sec) 

Cycle: 20000000 FTQ IN: 58189117 FTQ occupancy: 20.002 DECODE IN: 58189023 DECODE occupancy: 52.1699 ROB IN: 58188993 ROB occupancy: 315.053 ROB OUT: 58188645
Heartbeat_Variant_0 : 1420 0.17334 per_variant_size: 0 1420 0 0 0 0 0 0 0 
Heartbeat_Variant_1 : 1495 0.182495 per_variant_size: 0 953 542 0 0 0 0 0 0 
Heartbeat_Variant_2 : 1755 0.214233 per_variant_size: 0 962 484 207 102 0 0 0 0 
Heartbeat_Variant_3 : 0 0 per_variant_size: 0 0 0 0 0 0 0 0 0 
Heartbeat_Variant_0_evicts 0 : 5534 1 : 0 2 : 0 3 : 0 
Heartbeat_Variant_1_evicts 0 : 0 1 : 0 2 : 190 3 : 0 
Heartbeat_Variant_2_evicts 0 : 0 1 : 190 2 : 0 3 : 0 
Heartbeat_Variant_3_evicts 0 : 0 1 : 0 2 : 0 3 : 0 
Heartbeat CPU 0 instructions: 60000002 cycles: 21307604 heartbeat IPC: 1.3656 cumulative IPC: 1.3656 (Simulation time: 0 hr 9 min 45 sec) 
Heartbeat_Variant_0 : 1420 0.17334 per_variant_size: 0 1420 0 0 0 0 0 0 0 
Heartbeat_Variant_1 : 1495 0.182495 per_variant_size: 0 953 542 0 0 0 0 0 0 
Heartbeat_Variant_2 : 1757 0.214478 per_variant_size: 0 964 484 210 99 0 0 0 0 
Heartbeat_Variant_3 : 0 0 per_variant_size: 0 0 0 0 0 0 0 0 0 
Heartbeat_Variant_0_evicts 0 : 5561 1 : 0 2 : 0 3 : 0 
Heartbeat_Variant_1_evicts 0 : 0 1 : 0 2 : 192 3 : 0 
Heartbeat_Variant_2_evicts 0 : 0 1 : 192 2 : 0 3 : 0 
Heartbeat_Variant_3_evicts 0 : 0 1 : 0 2 : 0 3 : 0 
Heartbeat CPU 0 instructions: 70000002 cycles: 28503315 heartbeat IPC: 1.38972 cumulative IPC: 1.37755 (Simulation time: 0 hr 11 min 37 sec) 
Cycle: 30000000 FTQ IN: 13777154 FTQ occupancy: 13.0496 DECODE IN: 13777211 DECODE occupancy: 34.1464 ROB IN: 13777181 ROB occupancy: 239.552 ROB OUT: 13777471
Heartbeat_Variant_0 : 1456 0.177734 per_variant_size: 0 1456 0 0 0 0 0 0 0 
Heartbeat_Variant_1 : 1530 0.186768 per_variant_size: 0 967 563 0 0 0 0 0 0 
Heartbeat_Variant_2 : 1785 0.217896 per_variant_size: 0 968 492 220 105 0 0 0 0 
Heartbeat_Variant_3 : 0 0 per_variant_size: 0 0 0 0 0 0 0 0 0 
Heartbeat_Variant_0_evicts 0 : 5586 1 : 0 2 : 2 3 : 0 
Heartbeat_Variant_1_evicts 0 : 1 1 : 0 2 : 192 3 : 0 
Heartbeat_Variant_2_evicts 0 : 2 1 : 192 2 : 0 3 : 0 
Heartbeat_Variant_3_evicts 0 : 0 1 : 0 2 : 0 3 : 0 
Heartbeat CPU 0 instructions: 80000001 cycles: 35789099 heartbeat IPC: 1.37254 cumulative IPC: 1.37588 (Simulation time: 0 hr 13 min 24 sec) 
Cycle: 40000000 FTQ IN: 13868297 FTQ occupancy: 13.0132 DECODE IN: 13868281 DECODE occupancy: 34.2843 ROB IN: 13868334 ROB occupancy: 240.393 ROB OUT: 13868318
Heartbeat_Variant_0 : 1481 0.180786 per_variant_size: 0 1481 0 0 0 0 0 0 0 
Heartbeat_Variant_1 : 1570 0.19165 per_variant_size: 0 987 583 0 0 0 0 0 0 
Heartbeat_Variant_2 : 1800 0.219727 per_variant_size: 0 971 498 220 111 0 0 0 0 
Heartbeat_Variant_3 : 0 0 per_variant_size: 0 0 0 0 0 0 0 0 0 
Heartbeat_Variant_0_evicts 0 : 5571 1 : 1 2 : 1 3 : 0 
Heartbeat_Variant_1_evicts 0 : 0 1 : 0 2 : 194 3 : 0 
Heartbeat_Variant_2_evicts 0 : 0 1 : 194 2 : 0 3 : 0 
Heartbeat_Variant_3_evicts 0 : 0 1 : 0 2 : 0 3 : 0 
Heartbeat CPU 0 instructions: 90000002 cycles: 42988107 heartbeat IPC: 1.38908 cumulative IPC: 1.37915 (Simulation time: 0 hr 15 min 19 sec) 
Cycle: 50000000 FTQ IN: 13586697 FTQ occupancy: 13.0374 DECODE IN: 13586660 DECODE occupancy: 33.9844 ROB IN: 13586607 ROB occupancy: 236.664 ROB OUT: 13586333
Heartbeat_Variant_0 : 1563 0.190796 per_variant_size: 0 1563 0 0 0 0 0 0 0 
Heartbeat_Variant_1 : 1676 0.20459 per_variant_size: 0 1014 662 0 0 0 0 0 0 
Heartbeat_Variant_2 : 1866 0.227783 per_variant_size: 0 984 510 254 118 0 0 0 0 
Heartbeat_Variant_3 : 0 0 per_variant_size: 0 0 0 0 0 0 0 0 0 
Heartbeat_Variant_0_evicts 0 : 5546 1 : 5 2 : 1 3 : 0 
Heartbeat_Variant_1_evicts 0 : 5 1 : 0 2 : 194 3 : 0 
Heartbeat_Variant_2_evicts 0 : 1 1 : 194 2 : 0 3 : 0 
Heartbeat_Variant_3_evicts 0 : 0 1 : 0 2 : 0 3 : 0 
Heartbeat CPU 0 instructions: 100000000 cycles: 50411085 heartbeat IPC: 1.34717 cumulative IPC: 1.37264 (Simulation time: 0 hr 17 min 10 sec) 
Finished CPU 0 instructions: 50000001 cycles: 36426259 cumulative IPC: 1.37264 (Simulation time: 0 hr 17 min 10 sec) 

ChampSim completed all CPUs

Region of Interest Statistics

CPU 0 cumulative IPC: 1.37264 instructions: 50000001 cycles: 36426259
 Fetch stage stalled: 53.4261  Sim cycles: 36426259 fetch stall cycle: 19461116
 Empty decode stage: 34.3538  Sim cycles: 36426259 fetch stall cycle: 12513795
ITLB TOTAL     ACCESS:    5860792  HIT:    5364702  MISS:     496090  HIT %:    91.5354  MISS %:    8.46456   MPKI: 9.9218
ITLB LOAD TRANSLATION INSTRUCTION	ACCESS:    5734864  HIT:    5238774  MISS:     496090  HIT %:    91.3496  MISS %:    8.65042  MPKI: 9.9218
ITLB TRANSLATION FROM L1D PREFETCHER INSTRUCTION	ACCESS:     125928  HIT:     125928  MISS:          0  HIT %:        100  MISS %:          0  MPKI: 0

ITLB AVERAGE MISS LATENCY: 9.07551 cycles
ITLB RQ	ACCESS:    8007011	FORWARD:          0	MERGED:    1700121	TO_CACHE:    6306890

DTLB TOTAL     ACCESS:    8972422  HIT:    8499836  MISS:     472586  HIT %:    94.7329  MISS %:     5.2671   MPKI: 9.45172
DTLB LOAD TRANSLATION DATA	ACCESS:    8972422  HIT:    8499836  MISS:     472586  HIT %:    94.7329  MISS %:     5.2671  MPKI: 9.45172

DTLB AVERAGE MISS LATENCY: 9.39043 cycles
DTLB RQ	ACCESS:   13348371	FORWARD:          0	MERGED:    4338001	TO_CACHE:    9010370

STLB TOTAL     ACCESS:    1216389  HIT:    1214104  MISS:       2285  HIT %:    99.8121  MISS %:   0.187851   MPKI: 0.0457
STLB LOAD TRANSLATION INSTRUCTION	ACCESS:     496090  HIT:     495770  MISS:        320  HIT %:    99.9355  MISS %:  0.0645044  MPKI: 0.0064
STLB LOAD TRANSLATION DATA	ACCESS:     472586  HIT:     470665  MISS:       1921  HIT %:    99.5935  MISS %:   0.406487  MPKI: 0.03842
STLB TRANSLATION FROM L1D PREFETCHER DATA	ACCESS:     247713  HIT:     247669  MISS:         44  HIT %:    99.9822  MISS %:  0.0177625  MPKI: 0.00088

STLB AVERAGE MISS LATENCY: 83.0302 cycles
STLB RQ	ACCESS:    1337238	FORWARD:          0	MERGED:     120810	TO_CACHE:    1216428

STLB Hit, L1D data hit: 0
STLB Hit, L2C data hit: 0
STLB Hit, LLC data hit: 0
STLB Hit, LLC data miss: 0
STLB STLB hints to L2: 0
L1D TOTAL     ACCESS:   13093329  HIT:   11967019  MISS:    1126310  HIT %:    91.3978  MISS %:    8.60217   MPKI: 22.5262
L1D LOAD DATA	ACCESS:    6556162  HIT:    5813953  MISS:     742209  HIT %:    88.6792  MISS %:    11.3208  MPKI: 14.8442
L1D RFO DATA	ACCESS:    6210074  HIT:    5921069  MISS:     289005  HIT %:    95.3462  MISS %:    4.65381  MPKI: 5.7801
L1D PREFETCH DATA	ACCESS:     327093  HIT:     231997  MISS:      95096  HIT %:    70.9269  MISS %:    29.0731  MPKI: 1.90192

L1D PREFETCH  REQUESTED:     737478  ISSUED:     737478  USEFUL:      35055  USELESS:      67977
L1D USEFUL LOAD PREFETCHES:      35055 PREFETCH ISSUED TO LOWER LEVEL:     103147  ACCURACY: 33.9855
 TIMELY PREFETCHES:      35055 LATE PREFETCHES: 7977 DROPPED PREFETCHES: 11
L1D AVERAGE MISS LATENCY: 228312 cycles
L1D RQ	ACCESS:   10694790	FORWARD:          0	MERGED:    3939057	TO_CACHE:    6591653
L1D WQ	ACCESS:    6954528	FORWARD:     164434	MERGED:     197810	TO_CACHE:    6756718
L1D PQ	ACCESS:     368916	FORWARD:          0	MERGED:          0	TO_CACHE:     368562

L1D UNIQUE REGIONS ACCESSED: 0
L1D REGIONS CONFLICTS: 0
L1D Cross Page Prefetch Requests: 6973
L1D Same Page Prefetch Requests: 747973
L1D ROI Sum of L1D PQ occupancy: 4687842
L1D PREFETCHES PUSHED FROM L2C: 0
L1I TOTAL     ACCESS:    7169287  HIT:    4395447  MISS:    2773840  HIT %:    61.3094  MISS %:    38.6906   MPKI: 55.4768
L1I LOAD INSTRUCTION	ACCESS:    6500054  HIT:    3726214  MISS:    2773840  HIT %:    57.3259  MISS %:    42.6741  MPKI: 55.4768
L1I PREFETCH INSTRUCTION	ACCESS:     669233  HIT:     669233  MISS:          0  HIT %:        100  MISS %:          0  MPKI: 0

L1I PREFETCH  REQUESTED:    1619305  ISSUED:    1619305  USEFUL:          0  USELESS:          0
L1I USEFUL LOAD PREFETCHES:          0 PREFETCH ISSUED TO LOWER LEVEL:          0  ACCURACY: -nan
 TIMELY PREFETCHES:          0 LATE PREFETCHES: 0 DROPPED PREFETCHES: 0
L1I AVERAGE MISS LATENCY: 17.0944 cycles
L1I RQ	ACCESS:    9506622	FORWARD:          0	MERGED:    2681895	TO_CACHE:    6824727
L1I PQ	ACCESS:    1619305	FORWARD:          0	MERGED:     437021	TO_CACHE:    1182284

L1BTB TOTAL     ACCESS:    5670141  HIT:    2034385  MISS:    3635756  HIT %:    35.8789  MISS %:    64.1211   MPKI: 72.7151
L1BTB BRANCH_DIRECT_JUMP	ACCESS:     546743  HIT:     143375  MISS:     403368	AVERAGE STALL: 53.2344
L1BTB BRANCH_INDIRECT	ACCESS:     182459  HIT:      65639  MISS:     116820	AVERAGE STALL: 103.916
L1BTB BRANCH_CONDITIONAL	ACCESS:    2705179  HIT:    1411055  MISS:    1294124	AVERAGE STALL: 59.2589
L1BTB BRANCH_DIRECT_CALL	ACCESS:     946771  HIT:     104164  MISS:     842607	AVERAGE STALL: 80.8283
L1BTB BRANCH_INDIRECT_CALL	ACCESS:     171107  HIT:      20728  MISS:     150379	AVERAGE STALL: 132.705
L1BTB BRANCH_RETURN	ACCESS:    1117882  HIT:     289424  MISS:     828458	AVERAGE STALL: 49.6986
L1BTB BRANCH_OTHER ACCESS:          0  HIT:          0  MISS:          0	AVERAGE STALL: -nan
L1BTB TOTAL ROB OCCUPANCY AT BTB MISS: 2.21417

L2BTB TOTAL     ACCESS:    3610375  HIT:    3549559  MISS:      60816  HIT %:    98.3155  MISS %:    1.68448   MPKI: 1.21632
L2BTB BRANCH_DIRECT_JUMP	ACCESS:     399224  HIT:     395960  MISS:       3264	AVERAGE STALL: 53.2344
L2BTB BRANCH_INDIRECT	ACCESS:     106498  HIT:     103840  MISS:       2658	AVERAGE STALL: 103.916
L2BTB BRANCH_CONDITIONAL	ACCESS:    1294124  HIT:    1291663  MISS:       2461	AVERAGE STALL: 59.2589
L2BTB BRANCH_DIRECT_CALL	ACCESS:     842607  HIT:     841878  MISS:        729	AVERAGE STALL: 80.8283
L2BTB BRANCH_INDIRECT_CALL	ACCESS:     140895  HIT:     131043  MISS:       9852	AVERAGE STALL: 132.705
L2BTB BRANCH_RETURN	ACCESS:     827027  HIT:     785175  MISS:      41852	AVERAGE STALL: 49.6986
L2BTB BRANCH_OTHER ACCESS:          0  HIT:          0  MISS:          0	AVERAGE STALL: -nan
L2BTB TOTAL ROB OCCUPANCY AT BTB MISS: 132.37

L2C TOTAL     ACCESS:    4512158  HIT:    4046700  MISS:     465458  HIT %:    89.6844  MISS %:    10.3156   MPKI: 9.30916
L2C LOAD INSTRUCTION	ACCESS:    2773839  HIT:    2525874  MISS:     247965  HIT %:    91.0606  MISS %:    8.93942  MPKI: 4.9593
L2C LOAD TRANSLATION INSTRUCTION	ACCESS:        374  HIT:        124  MISS:        250  HIT %:    33.1551  MISS %:    66.8449  MPKI: 0.005
L2C LOAD DATA	ACCESS:     734208  HIT:     662560  MISS:      71648  HIT %:    90.2415  MISS %:    9.75854  MPKI: 1.43296
L2C RFO DATA	ACCESS:     288907  HIT:     233012  MISS:      55895  HIT %:    80.6529  MISS %:    19.3471  MPKI: 1.1179
L2C PREFETCH DATA	ACCESS:     185832  HIT:     112759  MISS:      73073  HIT %:    60.6779  MISS %:    39.3221  MPKI: 1.46146
L2C WRITEBACK DATA	ACCESS:     526877  HIT:     511727  MISS:      15150  HIT %:    97.1246  MISS %:    2.87543  MPKI: 0.303
L2C LOAD TRANSLATION DATA	ACCESS:       2051  HIT:        593  MISS:       1458  HIT %:    28.9127  MISS %:    71.0873  MPKI: 0.02916
L2C TRANSLATION FROM L1D PREFETCHER DATA	ACCESS:         70  HIT:         51  MISS:         19  HIT %:    72.8571  MISS %:    27.1429  MPKI: 0.00038

L2C PREFETCH  REQUESTED:      89919  ISSUED:      89919  USEFUL:       7409  USELESS:      66072
L2C USEFUL LOAD PREFETCHES:       7409 PREFETCH ISSUED TO LOWER LEVEL:      73464  ACCURACY: 10.0852
 TIMELY PREFETCHES:       7409 LATE PREFETCHES: 391 DROPPED PREFETCHES: 0
L2C AVERAGE MISS LATENCY: 40.1563 cycles
L2C RQ	ACCESS:    3799498	FORWARD:          0	MERGED:          0	TO_CACHE:    3799450
L2C WQ	ACCESS:     526877	FORWARD:         50	MERGED:          0	TO_CACHE:     526877
L2C PQ	ACCESS:     193066	FORWARD:          0	MERGED:       3255	TO_CACHE:     189809

L2C Dense regions hint from L2: 0
PSCL5 TOTAL     ACCESS:       4598  HIT:       2299  MISS:       2299  HIT %:         50  MISS %:         50   MPKI: 0.04598
PSCL5 LOAD TRANSLATION INSTRUCTION	ACCESS:       4460  HIT:       2230  MISS:       2230  HIT %:         50  MISS %:         50  MPKI: 0.0446
PSCL5 TRANSLATION FROM L1D PREFETCHER INSTRUCTION	ACCESS:        138  HIT:         69  MISS:         69  HIT %:         50  MISS %:         50  MPKI: 0.00138


PSCL4 TOTAL     ACCESS:       4448  HIT:       2217  MISS:       2231  HIT %:    49.8426  MISS %:    50.1574   MPKI: 0.04462
PSCL4 LOAD TRANSLATION INSTRUCTION	ACCESS:       3548  HIT:       2148  MISS:       1400  HIT %:    60.5411  MISS %:    39.4589  MPKI: 0.028
PSCL4 TRANSLATION FROM L1D PREFETCHER INSTRUCTION	ACCESS:        119  HIT:         69  MISS:         50  HIT %:    57.9832  MISS %:    42.0168  MPKI: 0.001
PSCL4 LOAD TRANSLATION DATA	ACCESS:        762  HIT:          0  MISS:        762  HIT %:          0  MISS %:        100  MPKI: 0.01524
PSCL4 TRANSLATION FROM L1D PREFETCHER DATA	ACCESS:         19  HIT:          0  MISS:         19  HIT %:          0  MISS %:        100  MPKI: 0.00038


PSCL3 TOTAL     ACCESS:       4516  HIT:       2251  MISS:       2265  HIT %:     49.845  MISS %:     50.155   MPKI: 0.0453
PSCL3 LOAD TRANSLATION INSTRUCTION	ACCESS:       3582  HIT:       2182  MISS:       1400  HIT %:    60.9157  MISS %:    39.0843  MPKI: 0.028
PSCL3 TRANSLATION FROM L1D PREFETCHER INSTRUCTION	ACCESS:        119  HIT:         69  MISS:         50  HIT %:    57.9832  MISS %:    42.0168  MPKI: 0.001
PSCL3 LOAD TRANSLATION DATA	ACCESS:        796  HIT:          0  MISS:        796  HIT %:          0  MISS %:        100  MPKI: 0.01592
PSCL3 TRANSLATION FROM L1D PREFETCHER DATA	ACCESS:         19  HIT:          0  MISS:         19  HIT %:          0  MISS %:        100  MPKI: 0.00038


PSCL2 TOTAL     ACCESS:       4424  HIT:       2125  MISS:       2299  HIT %:    48.0335  MISS %:    51.9665   MPKI: 0.04598
PSCL2 LOAD TRANSLATION INSTRUCTION	ACCESS:       2393  HIT:       2057  MISS:        336  HIT %:     85.959  MISS %:     14.041  MPKI: 0.00672
PSCL2 TRANSLATION FROM L1D PREFETCHER INSTRUCTION	ACCESS:         68  HIT:         68  MISS:          0  HIT %:        100  MISS %:          0  MPKI: 0
PSCL2 LOAD TRANSLATION DATA	ACCESS:       1895  HIT:          0  MISS:       1895  HIT %:          0  MISS %:        100  MPKI: 0.0379
PSCL2 TRANSLATION FROM L1D PREFETCHER DATA	ACCESS:         68  HIT:          0  MISS:         68  HIT %:          0  MISS %:        100  MPKI: 0.00136


LLC TOTAL     ACCESS:     525743  HIT:     493636  MISS:      32107  HIT %:     93.893  MISS %:    6.10698   MPKI: 0.64214
LLC LOAD INSTRUCTION	ACCESS:     247965  HIT:     246554  MISS:       1411  HIT %:     99.431  MISS %:   0.569032  MPKI: 0.02822
LLC LOAD TRANSLATION INSTRUCTION	ACCESS:        250  HIT:        207  MISS:         43  HIT %:       82.8  MISS %:       17.2  MPKI: 0.00086
LLC LOAD DATA	ACCESS:      71275  HIT:      67318  MISS:       3957  HIT %:    94.4483  MISS %:    5.55174  MPKI: 0.07914
LLC RFO DATA	ACCESS:      55875  HIT:      40289  MISS:      15586  HIT %:    72.1056  MISS %:    27.8944  MPKI: 0.31172
LLC PREFETCH DATA	ACCESS:      73464  HIT:      62887  MISS:      10577  HIT %:    85.6025  MISS %:    14.3975  MPKI: 0.21154
LLC WRITEBACK DATA	ACCESS:      75437  HIT:      75035  MISS:        402  HIT %:    99.4671  MISS %:   0.532895  MPKI: 0.00804
LLC LOAD TRANSLATION DATA	ACCESS:       1458  HIT:       1327  MISS:        131  HIT %:    91.0151  MISS %:    8.98491  MPKI: 0.00262
LLC TRANSLATION FROM L1D PREFETCHER DATA	ACCESS:         19  HIT:         19  MISS:          0  HIT %:        100  MISS %:          0  MPKI: 0

LLC AVERAGE MISS LATENCY: 160.07 cycles
LLC RQ	ACCESS:     376844	FORWARD:          0	MERGED:          0	TO_CACHE:     376842
LLC WQ	ACCESS:      75437	FORWARD:          2	MERGED:          0	TO_CACHE:      75437
LLC PQ	ACCESS:      73464	FORWARD:          0	MERGED:          0	TO_CACHE:      73464

LLC Dense regions hint to LLC: 0

RAW hits: 1943974
Loads Generated: 12638764
Loads sent to L1D: 10694790
Stores Generated: 6954524
Stores sent to L1D: 6954528
Major fault: 0 Minor fault: 2672
Allocated PAGES: 2672

stream: 
stream:times selected: 1188287
stream:pref_filled: 122277
stream:pref_useful: 24863
stream:pref_late: 6834
stream:misses: 8148
stream:misses_by_poll: 0

CS: 
CS:times selected: 179085
CS:pref_filled: 59909
CS:pref_useful: 36603
CS:pref_late: 6842
CS:misses: 16149
CS:misses_by_poll: 10

CPLX: 
CPLX:times selected: 1008012
CPLX:pref_filled: 19258
CPLX:pref_useful: 4570
CPLX:pref_late: 2942
CPLX:misses: 93853
CPLX:misses_by_poll: 0

NL_L1: 
NL:times selected: 21440
NL:pref_filled: 620
NL:pref_useful: 260
NL:pref_late: 369
NL:misses: 1808
NL:misses_by_poll: 0

total selections: 2396824
total_filled: 95096
total_useful: 35055
total_late: 18398
total_polluted: 10
total_misses_after_warmup: 777702
conflicts: 5523444

test: 115885

DRAM Statistics
 CHANNEL 0
 RQ ROW_BUFFER_HIT:      11502  ROW_BUFFER_MISS:      20184
 DBUS_CONGESTED:          8
 WQ ROW_BUFFER_HIT:       1722  ROW_BUFFER_MISS:      13857  FULL:          0

 AVG_CONGESTED_CYCLE: 5

CPU 0 Branch Prediction Accuracy: 99.7901% MPKI: 0.3838 Average ROB Occupancy at Mispredict: 171.513
Branch types
NOT_BRANCH: 40858638 81.7173%
BRANCH_DIRECT_JUMP: 546743 1.09349%
BRANCH_INDIRECT: 182459 0.364918%
BRANCH_CONDITIONAL: 6176392 12.3528%
BRANCH_DIRECT_CALL: 946771 1.89354%
BRANCH_INDIRECT_CALL: 171107 0.342214%
BRANCH_RETURN: 1117882 2.23576%
BRANCH_OTHER: 0 0%

DRAM PAGES: 1048576
Allocated PAGES: 2672
Average_ROB_Occupancy: 239.743
Average_Decode_Occupancy: 34.0721
Average_FTQ_Occupancy: 13.0249
Indirect max targets: 14 Average targets: 1.18266
Branch_type:  BRANCH_DIRECT_JUMP:  Count Percentage: 2.117 7.16123 4.13221 8.54386 9.65518 4.36117 0.90289 63.1265 
Branch_type:  BRANCH_INDIRECT:  Count Percentage: 11.7457 3.43481 2.55791 0 16.6757 9.68397 2.27217 53.6298 
Branch_type:  BRANCH_CONDITIONAL:  Count Percentage: 25.2881 2.75396 1.70479 5.25749 4.90105 4.53203 0.510389 55.0522 
Branch_type:  BRANCH_DIRECT_CALL:  Count Percentage: 0.774726 1.29441 1.37467 3.9975 4.18531 0.988976 0.938116 86.4463 
Branch_type:  BRANCH_INDIRECT_CALL:  Count Percentage: 9.56615 0 2.99692 8.72297 2.42915 0.00292668 1.28862 74.9933 
Branch_type:  BRANCH_RETURN:  Count Percentage: 8.40549 1.09493 1.32088 5.8674 6.58122 5.20846 1.47697 70.0447 
Branch_type:  BRANCH_DIRECT_JUMP:  Total Count: 23189 78442 45263 93587 105760 47771 9890 691469 
Branch_type:  BRANCH_INDIRECT:  Total Count: 42916 12550 9346 0 60929 35383 8302 195951 
Branch_type:  BRANCH_CONDITIONAL:  Total Count: 3125748 340405 210722 649855 605798 560185 63087 6804765 
Branch_type:  BRANCH_DIRECT_CALL:  Total Count: 14623 24432 25947 75453 78998 18667 17707 1631680 
Branch_type:  BRANCH_INDIRECT_CALL:  Total Count: 32686 0 10240 29805 8300 10 4403 256240 
Branch_type:  BRANCH_RETURN:  Total Count: 187451 24418 29457 130849 146768 116154 32938 1562068 
Number of unique branch instructions: 11118
Upper 32 bits: 
aaaa
ffff
ffff0000
Unique upper 32 bits: 3
Unique upper 36 bits: 3
Unique upper 40 bits: 5
Unique upper 44 bits: 32
Unique upper 48 bits: 160
Variant_0 : 1563 0.190796
Variant_1 : 1676 0.20459
Variant_2 : 1866 0.227783
Variant_3 : 0 0
Offset_3 4608
Offset_4 284
Offset_5 501
Offset_6 557
Offset_7 661
Offset_8 615
Offset_9 547
Offset_10 433
Offset_11 357
Offset_12 336
Offset_13 248
Offset_14 252
Offset_15 203
Offset_16 234
Offset_17 178
Offset_18 152
Offset_19 270
Offset_20 148
Offset_21 262
Offset_22 412
Offset_23 245
Offset_24 373
Offset_25 117
Offset_47 100
Offset_64 21
decode_dispatch_called: 25642005 70.3943
Dispatch_width: 0 13730734 53.5478 37.6946
Dispatch_width: 1 977313 3.81138 2.68299
Dispatch_width: 2 840824 3.27909 2.30829
Dispatch_width: 3 504093 1.96589 1.38387
Dispatch_width: 4 5776154 22.5261 15.8571
Dispatch_width: 5 153177 0.597367 0.420513
Dispatch_width: 6 3659710 14.2723 10.0469
Empty_decode_cycles: 10784254 29.6057
ROB_full_cycles: 9152941 25.1273
Starvation_cycles_per_kilo_instr: 236.136
Starvation_cycles_per_kilo_instr_3: 176.843
Starvation_cycles_per_kilo_instr_0: 153.62
Branch_type_1  (3,1)  (4,10)  (5,41)  (6,75)  (7,129)  (8,159)  (9,144)  (10,113)  (11,79)  (12,55)  (13,11)  (14,2)  (15,3)  (16,4)  (18,1)  (19,5)  (20,2)  (21,1)  (22,3)  (23,2)  (24,10)  (25,12)  (64,2) 
Branch_type_2  (3,1)  (4,1)  (5,1)  (8,4)  (9,4)  (10,1)  (12,1)  (13,1)  (14,1)  (16,3)  (17,2)  (20,2)  (21,2)  (23,5)  (24,1)  (47,46) 
Branch_type_3  (3,4606)  (4,273)  (5,455)  (6,464)  (7,498)  (8,381)  (9,302)  (10,175)  (11,138)  (12,62)  (13,10)  (24,3)  (64,15) 
Branch_type_4  (6,4)  (7,8)  (8,30)  (9,58)  (10,68)  (11,73)  (12,121)  (13,106)  (14,113)  (15,97)  (16,103)  (17,84)  (18,65)  (19,130)  (20,74)  (21,141)  (22,218)  (23,138)  (24,216)  (25,101)  (64,2) 
Branch_type_5  (8,3)  (9,1)  (10,4)  (11,5)  (12,3)  (13,14)  (14,16)  (15,11)  (16,22)  (17,11)  (18,23)  (19,15)  (20,12)  (21,13)  (22,43)  (23,26)  (24,42)  (64,1) 
Branch_type_6  (5,4)  (6,14)  (7,26)  (8,38)  (9,38)  (10,72)  (11,62)  (12,94)  (13,106)  (14,120)  (15,92)  (16,102)  (17,81)  (18,63)  (19,120)  (20,58)  (21,105)  (22,148)  (23,74)  (24,101)  (25,4)  (47,54)  (64,1) 
Unique trigger count: 
Variant_0_evicts_0 : 0
Variant_0_evicts_1 : 0
Variant_0_evicts_2 : 0
Variant_0_evicts_3 : 0
Variant_1_evicts_0 : 0
Variant_1_evicts_1 : 0
Variant_1_evicts_2 : 0
Variant_1_evicts_3 : 0
Variant_2_evicts_0 : 0
Variant_2_evicts_1 : 0
Variant_2_evicts_2 : 0
Variant_2_evicts_3 : 0
Variant_3_evicts_0 : 0
Variant_3_evicts_1 : 0
Variant_3_evicts_2 : 0
Variant_3_evicts_3 : 0
BTB PER SET UNIQUE ADDR: 3 3 3 6 1 3 5 3 2 4 4 4 2 5 5 6 2 2 3 2 1 5 3 5 7 4 2 3 3 5 4 3 2 2 4 5 3 3 3 3 4 5 5 3 1 3 3 4 4 3 5 5 2 3 2 4 2 3 3 3 3 4 2 5 7 2 4 5 4 4 3 3 4 4 3 7 4 2 7 5 5 4 4 3 4 5 4 3 3 3 4 3 3 2 4 1 5 3 2 4 2 3 4 3 3 6 4 3 2 5 6 2 1 2 1 2 3 5 4 5 4 3 3 2 7 4 4 3 5 2 2 4 5 2 2 4 4 2 3 2 2 4 3 3 5 4 6 3 5 4 2 3 3 4 3 3 2 1 8 4 3 4 3 5 2 3 1 5 5 7 5 4 6 3 4 4 4 6 2 1 3 3 4 4 2 2 2 5 3 2 3 4 5 2 1 3 3 4 4 3 3 5 2 1 2 5 2 3 5 5 2 3 5 3 2 6 5 4 2 5 4 3 2 3 4 2 4 1 5 3 1 5 4 2 2 2 5 4 4 5 3 5 6 5 5 5 3 2 5 4 3 6 4 3 2 7 3 4 4 3 7 4 5 6 1 2 4 2 4 2 7 5 4 4 3 1 5 2 5 4 5 5 2 9 4 4 5 5 5 4 4 2 2 4 3 7 3 1 2 3 6 4 3 5 3 4 2 6 2 3 4 2 4 4 5 4 4 4 1 2 7 5 2 3 7 4 2 4 2 7 3 5 2 3 5 3 2 1 5 3 3 3 5 4 3 6 4 3 2 4 3 5 2 3 5 2 3 5 2 3 4 6 2 5 3 5 4 4 3 3 9 3 7 5 1 4 5 2 3 4 3 4 4 4 4 5 3 4 4 5 5 3 2 4 2 4 2 4 3 3 4 4 6 4 1 6 4 3 5 4 3 2 1 3 3 4 6 3 3 3 3 4 5 4 5 2 3 4 2 4 5 2 5 3 5 3 3 4 3 5 4 2 2 3 2 1 4 3 4 4 3 3 4 2 4 4 2 3 7 3 3 6 3 4 2 3 3 6 3 3 7 3 4 4 4 5 1 4 2 3 2 3 4 2 2 4 2 4 5 5 6 3 4 3 5 5 8 4 3 4 3 2 4 3 6 3 3 4 3 3 5 2 4 3 4 2 5 3 4 3 3 3 5 4 4 3 1 4 2 5 3 2 5 5 3 5 4 6 6 4 3 4 5 5 4 3 3 5 2 4 3 4 1 4 2 7 7 1 7 2 2 2 3 5 3 2 3 3 2 3 3 3 2 3 1 3 4 2 3 2 1 3 2 4 4 3 3 2 5 6 4 4 5 4 4 4 5 4 3 3 5 2 2 2 3 2 5 3 2 3 2 4 4 3 2 1 4 3 6 6 3 1 3 2 4 3 1 4 2 5 5 4 4 3 5 2 4 3 5 2 4 5 1 2 2 3 4 3 3 2 2 2 3 3 2 6 1 3 2 2 2 2 5 3 2 1 3 3 6 2 4 2 3 3 4 1 2 4 3 5 4 5 2 4 4 4 3 6 5 4 6 4 2 2 1 4 5 4 2 8 3 4 4 2 5 3 3 4 4 4 4 3 2 4 5 5 2 3 3 3 5 4 2 4 3 3 5 4 1 3 3 4 5 2 2 5 6 2 2 3 6 3 5 5 3 1 5 2 3 3 4 4 4 4 5 7 2 3 3 3 3 2 4 5 3 5 7 10 2 6 4 3 1 4 3 3 3 5 1 4 2 4 2 5 6 7 3 3 4 4 3 4 3 6 6 2 7 1 5 3 3 2 4 1 5 4 8 1 3 6 5 3 2 3 3 4 3 3 2 4 6 4 4 3 3 4 4 2 4 6 4 5 5 3 5 2 4 4 3 2 1 5 3 2 3 2 2 4 2 4 5 4 2 4 4 4 4 5 3 4 1 5 3 4 6 3 5 4 4 4 5 1 5 4 2 2 3 2 1 4 4 3 2 3 4 4 8 3 5 1 8 3 3 2 3 2 2 5 4 2 3 4 4 4 4 2 4 4 7 3 5 2 3 3 4 4 2 3 2 2 4 1 3 6 2 4 6 5 2 2 3 5 2 2 3 5 4 3 1 3 4 5 5 5 2 2 3 2 4 3 4 4 3 2 6 4 5 5 2 3 4 2 3 3 3 2 5 5 2 3 5 4 4 3 3 5 3 5 6 4 4 3 3 4 3 3 4 2 6 3 2 3 3 3 4 3 3 4 2 4 4 2 1 2 2 4 3 3 3 3 3 5 7 3 5 2 4 3 3 2 4 2 8 5 6 4 5 3 4 2 2 6 2 4 2 3 4 4 2 4 4 3 5 4 7 3 3 5 1 2 3 3 5 2 5 5 7 5 2 3 3 4 3 2 2 3 6 3 3 5 4 5 2 5 4 2 5 3 4 2 6 1 3 3 3 4 4 3 1 6 2 7 4 5 4 1 6 5 1 3 4 5 4 8 5 2 2 3 2 3 3 3 4 3 6 3 6 3 4 3 3 6 2 6 1 4 2 5 5 1 5 3 4 1 2 2 5 2 2 3 4 4 3 2 2 5 2 5 3 3 4 5 2 2 2 1 4 5 4 2 5 2 4 2 1 4 4 5 4 4 9 4 5 4 2 2 2 5 2 3 5 1 5 4 3 3 5 1 2 6 3 6 3 0 4 3 5 4 3 2 4 3 2 4 4 3 4 2 3 3 3 4 4 3 3 4 6 3 4 4 6 2 3 7 4 5 5 4 2 3 4 2 3 3 4 3 2 3 3 2 3 4 4 4 3 3 3 3 2 6 3 4 4 2 4 1 4 2 2 6 4 3 5 3 1 3 2 6 2 6 6 4 5 2 3 3 3 4 4 2 3 3 4 4 5 4 2 3 5 3 5 3 6 3 4 2 4 4 4 4 2 3 3 7 3 3 2 3 2 4 3 7 6 3 4 5 5 3 2 5 5 4 3 4 7 2 2 3 3 4 3 2 3 4 7 2 4 4 3 8 5 3 4 2 5 6 5 2 6 2 2 3 3 7 5 2 3 3 4 3 3 3 5 4 4 1 2 4 5 4 2 3 2 4 2 5 3 4 3 5 1 2 4 2 2 3 3 5 4 3 2 4 5 3 2 5 2 3 5 5 3 4 5 1 1 2 5 6 2 6 4 3 3 5 3 3 5 1 2 5 3 3 6 3 7 4 3 4 1 6 3 3 3 4 4 4 2 4 5 2 4 2 3 1 4 5 3 3 3 3 3 4 3 3 3 6 5 1 4 4 3 2 4 6 4 7 5 3 6 4 4 3 3 2 4 2 4 2 4 8 4 4 4 5 4 3 4 2 3 3 2 3 2 7 3 4 5 3 2 4 4 3 6 6 4 6 3 4 4 2 2 6 3 3 3 4 4 2 3 6 4 2 4 6 3 2 5 4 5 4 3 5 3 2 4 3 7 1 2 4 5 3 5 4 5 6 2 4 1 2 3 4 3 4 4 2 5 2 3 2 2 7 6 3 1 3 4 6 4 6 4 4 5 4 4 3 4 3 2 3 3 4 5 3 2 3 1 4 3 4 5 2 6 3 5 3 2 3 3 4 4 3 2 3 4 3 2 5 3 3 4 4 5 3 3 5 5 2 3 3 1 6 2 5 4 2 3 4 1 2 3 5 5 6 5 3 4 4 4 6 3 4 4 2 3 7 2 3 3 2 7 3 3 6 3 2 1 3 2 3 5 2 4 2 2 4 2 4 3 1 3 3 4 3 2 2 3 3 3 3 4 3 3 0 1 2 7 5 5 3 3 3 4 4 2 4 2 3 5 4 2 4 3 3 2 5 5 2 4 3 2 1 4 5 3 3 4 2 4 5 1 3 3 2 4 4 3 2 3 2 3 4 2 4 3 3 2 5 3 7 4 4 3 3 2 6 2 6 2 4 4 3 3 3 2 3 2 3 5 4 3 2 4 5 5 2 3 3 2 4 5 3 4 6 1 6 6 6 6 6 4 6 3 6 5 6 3 5 5 2 3 5 3 4 3 5 4 3 7 3 2 3 4 4 2 3 5 3 6 3 5 2 6 2 5 4 2 4 1 4 3 4 4 2 7 4 3 3 5 3 3 3 4 1 3 5 5 3 3 3 3 4 3 3 3 3 2 2 2 2 2 2 3 7 5 3 2 5 4 4 1 3 5 3 4 3 3 4 5 0 1 3 3 4 4 5 3 4 4 3 1 3 2 3 3 3 4 3 3 2 4 3 3 4 3 4 4 2 3 2 3 3 2 3 3 2 3 0 3 4 2 3 3 3 3 6 3 1 5 3 6 6 5 3 3 4 1 2 5 3 1 2 7 2 1 3 4 2 3 1 4 5 5 4 4 3 4 2 4 3 2 3 1 3 5 4 1 4 2 4 3 5 3 6 5 3 5 4 5 3 2 2 5 3 5 3 4 3 2 7 4 2 3 5 5 3 5 4 3 2 2 4 3 3 4 6 4 3 3 4 3 4 5 5 5 3 2 2 3 4 1 3 5 6 3 3 4 3 3 4 3 7 4 3 3 4 4 5 3 3 2 3 3 3 3 3 5 3 3 4 3 2 2 4 2 2 6 3 
BTB PER SET COUNT: 5 1556 1465 981 1 3 7 4 2 603 74 4 2 5 966 6 2 6 3 2 1 6 3 101 501 212 2 3 3 9 8 5 2 973 5 5 3 4 3 3 5 1962 5 4 1 795 497 4 4 5 7 8 2 3 2 5 592 987 3 3 3 17 2 10 7 2 9 5 5 4 7 3 4 4 3 281 7 2 984 5 91 5 7 3 7 9 4 4 503 972 4 3 3 2 48 1 5 3 3 5 3 3 6 4 3 11 5 3 2 7 10 2 1 2 1 2 3 5 4 1497 6 3 1539 3 19 4 9 3 464 2 3 4 5 2 2 5 5 2 3 2 2 5 3 3 7 4 6 5 5 18 2 594 4 4 3 971 2 1 8 8 3 4 3 5 3 3 1 10 12 11 6 5 8 3 6 4 4 26 2 3 4 3 4 5 2 2 2 6 3 3 5 4 7 3 1 487 3 5 4 5 6 1471 6 2 3 6 2 3 39 5 5 7 6 4 4 10 5 498 2 6 4 4 2 3 5 2 4 1 6 3 1 6 4 14631 3 2 11 5 13 6 4 15 9 6 20 5 7838 75 10 4 4 8 4 3 2 29 3 7 7 4 7 4 6 6 1 2 19 2 4 2 41 5 6 4 3 1 10 2 7 4 8 5 2 14 5 4 5 5 5 5 11 3 2 5 602 10 16 1 2 3 7 10 3 6 111 5 3 6 2 6 4 3 6 4 7 4 7 5 1 2 9 6 3 3 1858 9 2 8 2 7 3 9 3 3 9 3 2 1 6 3 4 3 5 8 3 25 4 3 2 5 3 11 2 3 5 3 3 8 16 11 4 266 2 9 3 5 7 4 5 4 9 3 1469 6 1 28 5 2 3 5 4 415 5 5 4 7 3 6 4 8 6 3 2 5 2 5 1452 6 3 5 5 303 6 4 3 10 4 32 7 4 5 2 1 3 3 4 9 4 4 3 4 4 7 4 7 359 3 5 4 5 5 2 5 3 5 3 5 6 4 5 4 2 2 3 368 1 1470 28 4 7 3 317 4 2 492 4 2 3 991 3 988 8 929 4 2 3 4 12 3 3 7 490 4 4 5 17 1 6 2 10 2 3 4 2 99 4 3 4 7 5 8 4 5 4 8 972 9 13 4 5 3 2 5 3 9 3 3 4 7 3 5 2 4 9 4 2 5 602 4 3 3 4 9 5 281 3 1 50 2 5 5 2 6 9 4 9 4 91 13 4 47 4 5 7 6 1565 3 5 2 6 4 4 985 4 2 8 9 1 11 4 986 2 3 9 4 2 898 4 986 4 3 4 2 4 1 4 4 2 3 4 6 4 3 4 4 5 4 2 5 1207 4 4 6 988 7 4 1467 5 3 3 6 2 986 2 5 2 894 3 2 3 2 4 5 3 2 1 4 4 6 7 3 1 5 6 5 3 1 4 2 5 894 9 4 4 6 2 6 3 6 2 5 5 1 4 2 4 5 5 3 3 2 2 3 3 6 6 1 3 2 2 2 2 7 3 2 1 3 3 11 2 4 2 3 5 4 2 2 5 3 8 971 367 3 4 4 4 3 1468 7 4 7 5 2 2 1 4 7 5 2 10 3 5 4 5 8 3 4 5 5 4 5 5 2 4 5 497 5 5 3 5 5 4 5 4 3 3 6 10 1 11 3 5 9 2 3 5 6 2 2 3 8 3 7 5 3 1 5 3 4 3 4 4 5 4 5 9 3 3 3 3 5 10 4 24 3 6 9 3434 2 8 8 3 2 4 7 3 8 7 1 4 2 4 2 5 7 9 7 3 300 4 6 4 3 8 6 970 14 2 5 3 3 2 6 1 5 4 17 1 3 242 7 6 3 3 4 4 3 4 3 5 9 4 4 3 3 4 47 3 151 508 12 7 6 3 6 4 4 4 3 4 1 972 4 2 4 2 2 4 5 975 38 972 3 8 1974 7 4 5 3 5 2 7 3 4 497 4 5 5 5 4 5 1 127 5 2 2 3 2 1 4 4 3 4 9 4 4 10 3 5 1 1471 3 3 2930 5 2 482 8 4 2 3 32 4 918 6 2 8 5 36 3 10 2 3 3 5 599 3 3 2 2 499 1 3 49 3 6 1469 6 2 2 46 5 2 2 3 6 4 3 1 3 5 7 7 6 2 3 3 11 6 3 6 14 4 3 1183 4 5 6 5 3 5 2 3 4 4 2 501 10 2 4 8 4 5 5 5 8 4 14 71 4 4 4 4 5 4 5 4 997 7 3 2 5 4 4 4 3 6 1468 2 4 4 3 1 1913 2 5 3 5 1465 3 3 7 24 3 5 3 5 3 4 2 5 2 10 5 7 4 7 3 4 3 93 6 3 4 3 3 4 5 2 8 4 497 5 5 11 3 600 9 1 2 3 3 6 3 5 5 7 1467 2 45 5 4 5 2 2 5 6 3 3 6 4 502 2 5 6 2 7 3 6 4 6 1 3 3 4 5 11 3 2 6 2 12 12 6 4 1 24 5 1 3 6 5 10 2438 486 2 2 4 2 4 4 3 4 3 8 5 8 3 4 3 3 15 13 12 1 5 2 6 7 1 5 3 6 1 2 2 6 2 2 4 4 20493 3 2 2 29 5 5 3 3 4 7 2 2 3 1 5 6 4 2 6 2 5 3 1 7 5 5 4 6 1093 8 6 11 2 3 3 5 4 3 1468 1 5 5 4 3 976 1 2 13 3 9 3 0 1974 5 6 5 4 2 5 3 2 5 5 3 5 2 4 483 3 4 5 1466 3 4 6 3 5 5 360 2 6 7 4 7 5 5 2 3 4 2 5 4 4 11 2 3 3 3 3 12 5 5 3 3 1465 3 3 6 3 503 4 2 6 1 4 2 2 10 4 3 5 3 1 3 3 7 2 135 8 4 5 2 3 3 4 5 5 2 6 3 4 976 8 12 2 3 5 3 6 3 10 4 4 2 4 4 5 4 5 3 3 7 3 3 2 3 2 4 3 8 6 3 4 5 8 3 2 9 10 4 3 4 9 2 3 1564 116 4 3 2 4 4 11 3 17 8 3 513 6 4 4 2 6 7 14 2 7 3 2 3 3 8 6 3 3 3 7 3 6 3 15 4 5 1 2 4 7 4 2 5 2 12 3 6 3 5 3 605 1 2 4 3 2 3 3 13 12 3 2 4 5 6 2 7 2 4 9 5 3 6 5 1 1 2 5 6 2 65 5 4 3 5 3 3 10 1 3 974 3 3 10 3 9 5 7 4 1 2259 53 4 5 2906 4 5 2 5 6 2 4 47 5 1 4 6 3 6 5 3 3 6 7 3 3 7 7 1 4 4 3 2 8 6 10 1764 5 3 101 4 9 3 3 2 4 2 4 2 4 14 4 4 5 9 6 3 4 2 3 4 2 3 3 7 3 6 5 3 2 4 4 3 15 8 4 977 3 6 4 2 10 7 3 3 3 4 6 2 3 40 6 10 4 1567 3 2 5 6 972 5 3 28 3 3 4 4 9 1 2 5 5 3 7 7 6 6 2 5 1 2 3 4 3 6 5 2 6 3 4 2 2 8 94 3 2 3 3930 503 5 7 4 4 5 8 5 6 6 3 2 4 4 7 43 3 2 3 1 7 3 10 7 2 6 5 5 4 2 3 3 4 4 3 2 3 4 3 2 6 6 3 4 5 6 3 3 6 5 2 900 3 1 6 2 5 4 2 3 4 1 2 4 5 5 12 47 3 5 4 6 6 3 5 4 2 3 2818 2 4 20 2 7 6 5 6 5 2 1 3 2 7 7 3 4 2 2 5 2 14 4 1 3 3 4 3 2 2 5 3 3 3 4 4 6 0 1 2 14 5 9 3 3 3 4 7 2 5 4 5 6 4 2 4 5 3 2 992 122 2 25 3 2 1 4 5 4 3 4 2 8 5 1 3 4 3 5 4 4 2 3 986 5 4 3 6 3 3 2 6 3 10 4 15 3 3 2 6 2 19 5 5 5 3 3 3 2 3 3 4 5 5 3 2 4 6 6 4 3 3 4 6 7 3 4 6 1 7 8 6 6 504 6 8 3 10 1467 7 3 5 5 2 3 5 3 4 4 5 6 5 24 3 2 4 5 4 2 4 5 4 9 25 5 2 72 4 8 6 2 5 1 987 4 5 5 2 37 5 3 3 6 4 3 6 4 1 5 6 5 3 5 137 4 5 3 3 3 3 2 2 2 4 2 2 3 8 9 5 2 5 1467 4 1 3 7 3 5 4 3 4 13 0 1 5 5 4 4 36 3 976 4 3 1 3 2 4 179 3 4 3 3 2 4 3 3 5 12 103 5 3 1465 2 5 3 3 3 3 2 5 0 3 4 4 3 4 3 3 7 5 1 7 3 6 8 5 3 4 4 2 2 5 4 1 2 7 2 1 3 4 2 3 1 4 5 5 20 6 5 4 2 4 3 4 5 1 20 5 4 1 4 2 5 3 5 3 6 5 5 8 988 6 3 2 2 10 3 18 4 4 148 492 7 4 3 3 6 6 6 15 6 3 2 3 5 7 4 4 692 4 3 3 5 3 4 7 5 5 3 1451 2 3 4 1 3 6 6 3 5 7 3 3 1466 3 15 5 3 4 9 4 5 4 3 2 4 4 3 3 3 111 3 3 4 3 2 2 4 2 2 10 775 
To predecode: 0
Predecoding something: 0
Predecode request dropped: 0
sizeofblock_0 0
sizeofblock_1 47523
sizeofblock_2 44306
sizeofblock_3 26332
sizeofblock_4 12206
sizeofblock_5 0
sizeofblock_6 0
sizeofblock_7 0
sizeofblock_8 0
