
*** ChampSim Multicore Out-of-Order Simulator ***

Warmup Instructions: 50000000
Simulation Instructions: 50000000
Number of CPUs: 1
LLC sets: 2048
LLC ways: 16
Off-chip DRAM Size: 4096 MB Channels: 1 Width: 64-bit Data Rate: 6400 MT/s
CPU 0 runs ./micro_traces/srv15.trace.gz
.gz
ITLB has LRU replacement policy
DTLB has LRU replacement policy
STLB has LRU replacement policy
CPU 0 L1I next line prefetcher
L1I has LRU replacement policy
L1D has LRU replacement policy
Initialize SRRIP state for L2C
Initialize DRRIP state for LLC
Heartbeat CPU 0 instructions: 10000002 cycles: 2797038 heartbeat IPC: 3.57521 cumulative IPC: 3.57521 (Simulation time: 0 hr 1 min 38 sec) 
Heartbeat CPU 0 instructions: 20000000 cycles: 5594170 heartbeat IPC: 3.57509 cumulative IPC: 3.57515 (Simulation time: 0 hr 3 min 13 sec) 
Heartbeat CPU 0 instructions: 30000003 cycles: 8391922 heartbeat IPC: 3.5743 cumulative IPC: 3.57487 (Simulation time: 0 hr 4 min 48 sec) 
Heartbeat CPU 0 instructions: 40000002 cycles: 11188141 heartbeat IPC: 3.57626 cumulative IPC: 3.57521 (Simulation time: 0 hr 6 min 26 sec) 
Heartbeat CPU 0 instructions: 50000000 cycles: 13984862 heartbeat IPC: 3.57562 cumulative IPC: 3.57529 (Simulation time: 0 hr 8 min 3 sec) 

Warmup complete CPU 0 instructions: 50000004 cycles: 13984863 (Simulation time: 0 hr 8 min 3 sec) 

Cycle: 20000000 FTQ IN: 58109631 FTQ occupancy: 18.6494 DECODE IN: 58109550 DECODE occupancy: 49.7891 ROB IN: 58109490 ROB occupancy: 309.159 ROB OUT: 58109138
Heartbeat CPU 0 instructions: 60000002 cycles: 21389912 heartbeat IPC: 1.35043 cumulative IPC: 1.35043 (Simulation time: 0 hr 9 min 41 sec) 
Heartbeat CPU 0 instructions: 70000002 cycles: 28873073 heartbeat IPC: 1.33633 cumulative IPC: 1.34334 (Simulation time: 0 hr 11 min 16 sec) 
Cycle: 30000000 FTQ IN: 13410596 FTQ occupancy: 9.01193 DECODE IN: 13410581 DECODE occupancy: 26.4935 ROB IN: 13410581 ROB occupancy: 214.64 ROB OUT: 13410581
Heartbeat CPU 0 instructions: 80000001 cycles: 36276944 heartbeat IPC: 1.35064 cumulative IPC: 1.34577 (Simulation time: 0 hr 12 min 54 sec) 
Cycle: 40000000 FTQ IN: 13490670 FTQ occupancy: 8.88765 DECODE IN: 13490766 DECODE occupancy: 26.4233 ROB IN: 13490826 ROB occupancy: 215.163 ROB OUT: 13491107
Heartbeat CPU 0 instructions: 90000000 cycles: 43770357 heartbeat IPC: 1.33451 cumulative IPC: 1.34294 (Simulation time: 0 hr 14 min 30 sec) 
Cycle: 50000000 FTQ IN: 13389512 FTQ occupancy: 8.85248 DECODE IN: 13389491 DECODE occupancy: 26.2725 ROB IN: 13389432 ROB occupancy: 217.423 ROB OUT: 13389155
Heartbeat CPU 0 instructions: 100000002 cycles: 51176168 heartbeat IPC: 1.35029 cumulative IPC: 1.3444 (Simulation time: 0 hr 16 min 4 sec) 
Finished CPU 0 instructions: 50000002 cycles: 37191306 cumulative IPC: 1.3444 (Simulation time: 0 hr 16 min 4 sec) 

ChampSim completed all CPUs

Region of Interest Statistics

CPU 0 cumulative IPC: 1.3444 instructions: 50000002 cycles: 37191306
 Fetch stage stalled: 60.4285  Sim cycles: 37191306 fetch stall cycle: 22474152
 Empty decode stage: 41.3601  Sim cycles: 37191306 fetch stall cycle: 15382380
ITLB TOTAL     ACCESS:    7739402  HIT:    7128875  MISS:     610527  HIT %:    92.1114  MISS %:    7.88856   MPKI: 12.2105
ITLB LOAD TRANSLATION INSTRUCTION	ACCESS:    5995313  HIT:    5871155  MISS:     124158  HIT %:    97.9291  MISS %:    2.07092  MPKI: 2.48316
ITLB TRANSLATION FROM L1D PREFETCHER INSTRUCTION	ACCESS:    1744089  HIT:    1257720  MISS:     486369  HIT %:    72.1133  MISS %:    27.8867  MPKI: 9.72738

ITLB AVERAGE MISS LATENCY: 87847.7 cycles
ITLB RQ	ACCESS:   11625181	FORWARD:          0	MERGED:    3750096	TO_CACHE:    7875085

DTLB TOTAL     ACCESS:    9007558  HIT:    8535067  MISS:     472491  HIT %:    94.7545  MISS %:    5.24549   MPKI: 9.44982
DTLB LOAD TRANSLATION DATA	ACCESS:    9007558  HIT:    8535067  MISS:     472491  HIT %:    94.7545  MISS %:    5.24549  MPKI: 9.44982

DTLB AVERAGE MISS LATENCY: 9.32488 cycles
DTLB RQ	ACCESS:   13370229	FORWARD:          0	MERGED:    4327203	TO_CACHE:    9043026

STLB TOTAL     ACCESS:    1330132  HIT:    1328082  MISS:       2050  HIT %:    99.8459  MISS %:    0.15412   MPKI: 0.041
STLB LOAD TRANSLATION INSTRUCTION	ACCESS:     122474  HIT:     122340  MISS:        134  HIT %:    99.8906  MISS %:   0.109411  MPKI: 0.00268
STLB TRANSLATION FROM L1D PREFETCHER INSTRUCTION	ACCESS:     488053  HIT:     487944  MISS:        109  HIT %:    99.9777  MISS %:  0.0223336  MPKI: 0.00218
STLB LOAD TRANSLATION DATA	ACCESS:     472491  HIT:     470707  MISS:       1784  HIT %:    99.6224  MISS %:   0.377573  MPKI: 0.03568
STLB TRANSLATION FROM L1D PREFETCHER DATA	ACCESS:     247114  HIT:     247091  MISS:         23  HIT %:    99.9907  MISS %: 0.00930745  MPKI: 0.00046

STLB AVERAGE MISS LATENCY: 71.9698 cycles
STLB RQ	ACCESS:    1455050	FORWARD:          0	MERGED:     121293	TO_CACHE:    1333757

STLB Hit, L1D data hit: 0
STLB Hit, L2C data hit: 0
STLB Hit, LLC data hit: 0
STLB Hit, LLC data miss: 0
STLB STLB hints to L2: 0
L1D TOTAL     ACCESS:   13094417  HIT:   11980699  MISS:    1113718  HIT %:    91.4947  MISS %:    8.50529   MPKI: 22.2744
L1D LOAD DATA	ACCESS:    6578584  HIT:    5841602  MISS:     736982  HIT %:    88.7973  MISS %:    11.2027  MPKI: 14.7396
L1D RFO DATA	ACCESS:    6191280  HIT:    5906776  MISS:     284504  HIT %:    95.4048  MISS %:    4.59524  MPKI: 5.69008
L1D PREFETCH DATA	ACCESS:     324553  HIT:     232321  MISS:      92232  HIT %:    71.5818  MISS %:    28.4182  MPKI: 1.84464

L1D PREFETCH  REQUESTED:     737341  ISSUED:     737341  USEFUL:      33804  USELESS:      68690
L1D USEFUL LOAD PREFETCHES:      33804 PREFETCH ISSUED TO LOWER LEVEL:     102556  ACCURACY: 32.9615
 TIMELY PREFETCHES:      33804 LATE PREFETCHES: 10272 DROPPED PREFETCHES: 8
L1D AVERAGE MISS LATENCY: 306050 cycles
L1D RQ	ACCESS:   10706097	FORWARD:          0	MERGED:    3924191	TO_CACHE:    6620945
L1D WQ	ACCESS:    6943640	FORWARD:     161406	MERGED:     194356	TO_CACHE:    6749284
L1D PQ	ACCESS:     368893	FORWARD:          0	MERGED:          0	TO_CACHE:     368448

L1D UNIQUE REGIONS ACCESSED: 0
L1D REGIONS CONFLICTS: 0
L1D Cross Page Prefetch Requests: 6881
L1D Same Page Prefetch Requests: 747327
L1D ROI Sum of L1D PQ occupancy: 4689818
L1D PREFETCHES PUSHED FROM L2C: 0
L1I TOTAL     ACCESS:   11200735  HIT:    7546929  MISS:    3653806  HIT %:    67.3789  MISS %:    32.6211   MPKI: 73.0761
L1I LOAD INSTRUCTION	ACCESS:    6713866  HIT:    6121408  MISS:     592458  HIT %:    91.1756  MISS %:    8.82439  MPKI: 11.8492
L1I PREFETCH INSTRUCTION	ACCESS:    4486869  HIT:    1425521  MISS:    3061348  HIT %:     31.771  MISS %:     68.229  MPKI: 61.227

L1I PREFETCH  REQUESTED:    5157408  ISSUED:    5157278  USEFUL:    2373105  USELESS:     799656
L1I USEFUL LOAD PREFETCHES:    2373105 PREFETCH ISSUED TO LOWER LEVEL:    3172723  ACCURACY: 74.7971
 TIMELY PREFETCHES:    2373105 LATE PREFETCHES: 111374 DROPPED PREFETCHES: 9216
L1I AVERAGE MISS LATENCY: 991942 cycles
L1I RQ	ACCESS:    9466981	FORWARD:          0	MERGED:    2692394	TO_CACHE:    6774587
L1I PQ	ACCESS:    5157278	FORWARD:          0	MERGED:     306684	TO_CACHE:    4850594

L1BTB TOTAL     ACCESS:    5671206  HIT:    2043197  MISS:    3628009  HIT %:    36.0276  MISS %:    63.9724   MPKI: 72.5602
L1BTB BRANCH_DIRECT_JUMP	ACCESS:     548494  HIT:     144886  MISS:     403608	AVERAGE STALL: 31.173
L1BTB BRANCH_INDIRECT	ACCESS:     182795  HIT:      65967  MISS:     116828	AVERAGE STALL: 123.932
L1BTB BRANCH_CONDITIONAL	ACCESS:    2704707  HIT:    1412184  MISS:    1292523	AVERAGE STALL: 41.4857
L1BTB BRANCH_DIRECT_CALL	ACCESS:     945371  HIT:     106725  MISS:     838646	AVERAGE STALL: 46.2416
L1BTB BRANCH_INDIRECT_CALL	ACCESS:     172233  HIT:      21837  MISS:     150396	AVERAGE STALL: 143.079
L1BTB BRANCH_RETURN	ACCESS:    1117606  HIT:     291598  MISS:     826008	AVERAGE STALL: 40.2563
L1BTB BRANCH_OTHER ACCESS:          0  HIT:          0  MISS:          0	AVERAGE STALL: -nan
L1BTB TOTAL ROB OCCUPANCY AT BTB MISS: 5.68075

L2BTB1 TOTAL     ACCESS:    3602671  HIT:    3479073  MISS:     123598  HIT %:    96.5693  MISS %:    3.43073   MPKI: 2.47196
L2BTB1 BRANCH_DIRECT_JUMP	ACCESS:     399447  HIT:     391233  MISS:       8214	AVERAGE STALL: 31.173
L2BTB1 BRANCH_INDIRECT	ACCESS:     106579  HIT:      95629  MISS:      10950	AVERAGE STALL: 123.932
L2BTB1 BRANCH_CONDITIONAL	ACCESS:    1292523  HIT:    1277696  MISS:      14827	AVERAGE STALL: 41.4857
L2BTB1 BRANCH_DIRECT_CALL	ACCESS:     838646  HIT:     815660  MISS:      22986	AVERAGE STALL: 46.2416
L2BTB1 BRANCH_INDIRECT_CALL	ACCESS:     140870  HIT:     127468  MISS:      13402	AVERAGE STALL: 143.079
L2BTB1 BRANCH_RETURN	ACCESS:     824606  HIT:     771387  MISS:      53219	AVERAGE STALL: 40.2563
L2BTB1 BRANCH_OTHER ACCESS:          0  HIT:          0  MISS:          0	AVERAGE STALL: -nan
L2BTB1 TOTAL ROB OCCUPANCY AT BTB MISS: 166.749

L2C TOTAL     ACCESS:    6629918  HIT:    5588974  MISS:    1040944  HIT %:    84.2993  MISS %:    15.7007   MPKI: 20.8189
L2C LOAD INSTRUCTION	ACCESS:     481084  HIT:     383779  MISS:      97305  HIT %:    79.7738  MISS %:    20.2262  MPKI: 1.9461
L2C PREFETCH INSTRUCTION	ACCESS:    3172722  HIT:    2798628  MISS:     374094  HIT %:    88.2091  MISS %:    11.7909  MPKI: 7.48188
L2C LOAD TRANSLATION INSTRUCTION	ACCESS:        149  HIT:         37  MISS:        112  HIT %:    24.8322  MISS %:    75.1678  MPKI: 0.00224
L2C TRANSLATION FROM L1D PREFETCHER INSTRUCTION	ACCESS:       6045  HIT:       5825  MISS:        220  HIT %:    96.3606  MISS %:    3.63937  MPKI: 0.0044
L2C LOAD DATA	ACCESS:     726665  HIT:     573577  MISS:     153088  HIT %:    78.9328  MISS %:    21.0672  MPKI: 3.06176
L2C RFO DATA	ACCESS:     284407  HIT:     192715  MISS:      91692  HIT %:    67.7603  MISS %:    32.2397  MPKI: 1.83384
L2C PREFETCH DATA	ACCESS:    1437062  HIT:    1160046  MISS:     277016  HIT %:    80.7234  MISS %:    19.2766  MPKI: 5.54032
L2C WRITEBACK DATA	ACCESS:     519894  HIT:     473897  MISS:      45997  HIT %:    91.1526  MISS %:    8.84738  MPKI: 0.91994
L2C LOAD TRANSLATION DATA	ACCESS:       1845  HIT:        441  MISS:       1404  HIT %:    23.9024  MISS %:    76.0976  MPKI: 0.02808
L2C TRANSLATION FROM L1D PREFETCHER DATA	ACCESS:         45  HIT:         29  MISS:         16  HIT %:    64.4444  MISS %:    35.5556  MPKI: 0.00032

L2C PREFETCH  REQUESTED:    3289296  ISSUED:    3289296  USEFUL:      34550  USELESS:     619117
L2C USEFUL LOAD PREFETCHES:      34550 PREFETCH ISSUED TO LOWER LEVEL:     652678  ACCURACY: 5.29358
 TIMELY PREFETCHES:      34550 LATE PREFETCHES: 1568 DROPPED PREFETCHES: 0
L2C AVERAGE MISS LATENCY: 33.0141 cycles
L2C RQ	ACCESS:    1500331	FORWARD:          0	MERGED:          0	TO_CACHE:    1500241
L2C WQ	ACCESS:     519894	FORWARD:         90	MERGED:          0	TO_CACHE:     519894
L2C PQ	ACCESS:    6564575	FORWARD:          0	MERGED:    1932579	TO_CACHE:    4631996

L2C Dense regions hint from L2: 0
PSCL5 TOTAL     ACCESS:      11294  HIT:       5647  MISS:       5647  HIT %:         50  MISS %:         50   MPKI: 0.11294
PSCL5 LOAD TRANSLATION INSTRUCTION	ACCESS:       3818  HIT:       1909  MISS:       1909  HIT %:         50  MISS %:         50  MPKI: 0.03818
PSCL5 TRANSLATION FROM L1D PREFETCHER INSTRUCTION	ACCESS:       7476  HIT:       3738  MISS:       3738  HIT %:         50  MISS %:         50  MPKI: 0.07476


PSCL4 TOTAL     ACCESS:      11150  HIT:       5572  MISS:       5578  HIT %:    49.9731  MISS %:    50.0269   MPKI: 0.11156
PSCL4 LOAD TRANSLATION INSTRUCTION	ACCESS:       2961  HIT:       1847  MISS:       1114  HIT %:    62.3776  MISS %:    37.6224  MPKI: 0.02228
PSCL4 TRANSLATION FROM L1D PREFETCHER INSTRUCTION	ACCESS:       6266  HIT:       3725  MISS:       2541  HIT %:    59.4478  MISS %:    40.5522  MPKI: 0.05082
PSCL4 LOAD TRANSLATION DATA	ACCESS:        739  HIT:          0  MISS:        739  HIT %:          0  MISS %:        100  MPKI: 0.01478
PSCL4 TRANSLATION FROM L1D PREFETCHER DATA	ACCESS:       1184  HIT:          0  MISS:       1184  HIT %:          0  MISS %:        100  MPKI: 0.02368


PSCL3 TOTAL     ACCESS:      11240  HIT:       5617  MISS:       5623  HIT %:    49.9733  MISS %:    50.0267   MPKI: 0.11246
PSCL3 LOAD TRANSLATION INSTRUCTION	ACCESS:       3006  HIT:       1892  MISS:       1114  HIT %:    62.9408  MISS %:    37.0592  MPKI: 0.02228
PSCL3 TRANSLATION FROM L1D PREFETCHER INSTRUCTION	ACCESS:       6266  HIT:       3725  MISS:       2541  HIT %:    59.4478  MISS %:    40.5522  MPKI: 0.05082
PSCL3 LOAD TRANSLATION DATA	ACCESS:        784  HIT:          0  MISS:        784  HIT %:          0  MISS %:        100  MPKI: 0.01568
PSCL3 TRANSLATION FROM L1D PREFETCHER DATA	ACCESS:       1184  HIT:          0  MISS:       1184  HIT %:          0  MISS %:        100  MPKI: 0.02368


PSCL2 TOTAL     ACCESS:       6538  HIT:       3226  MISS:       3312  HIT %:    49.3423  MISS %:    50.6577   MPKI: 0.06624
PSCL2 LOAD TRANSLATION INSTRUCTION	ACCESS:       1983  HIT:       1836  MISS:        147  HIT %:     92.587  MISS %:    7.41301  MPKI: 0.00294
PSCL2 TRANSLATION FROM L1D PREFETCHER INSTRUCTION	ACCESS:       2735  HIT:       1390  MISS:       1345  HIT %:    50.8227  MISS %:    49.1773  MPKI: 0.0269
PSCL2 LOAD TRANSLATION DATA	ACCESS:       1775  HIT:          0  MISS:       1775  HIT %:          0  MISS %:        100  MPKI: 0.0355
PSCL2 TRANSLATION FROM L1D PREFETCHER DATA	ACCESS:         45  HIT:          0  MISS:         45  HIT %:          0  MISS %:        100  MPKI: 0.0009


LLC TOTAL     ACCESS:    1135342  HIT:    1107140  MISS:      28202  HIT %:     97.516  MISS %:    2.48401   MPKI: 0.56404
LLC LOAD INSTRUCTION	ACCESS:      96459  HIT:      96236  MISS:        223  HIT %:    99.7688  MISS %:   0.231186  MPKI: 0.00446
LLC PREFETCH INSTRUCTION	ACCESS:     371130  HIT:     370714  MISS:        416  HIT %:    99.8879  MISS %:    0.11209  MPKI: 0.00832
LLC LOAD TRANSLATION INSTRUCTION	ACCESS:        112  HIT:         90  MISS:         22  HIT %:    80.3571  MISS %:    19.6429  MPKI: 0.00044
LLC TRANSLATION FROM L1D PREFETCHER INSTRUCTION	ACCESS:        220  HIT:        206  MISS:         14  HIT %:    93.6364  MISS %:    6.36364  MPKI: 0.00028
LLC LOAD DATA	ACCESS:     152444  HIT:     148922  MISS:       3522  HIT %:    97.6896  MISS %:    2.31036  MPKI: 0.07044
LLC RFO DATA	ACCESS:      91606  HIT:      78245  MISS:      13361  HIT %:    85.4147  MISS %:    14.5853  MPKI: 0.26722
LLC PREFETCH DATA	ACCESS:     281548  HIT:     271221  MISS:      10327  HIT %:    96.3321  MISS %:    3.66794  MPKI: 0.20654
LLC WRITEBACK DATA	ACCESS:     140403  HIT:     140153  MISS:        250  HIT %:    99.8219  MISS %:   0.178059  MPKI: 0.005
LLC LOAD TRANSLATION DATA	ACCESS:       1404  HIT:       1337  MISS:         67  HIT %:    95.2279  MISS %:    4.77208  MPKI: 0.00134
LLC TRANSLATION FROM L1D PREFETCHER DATA	ACCESS:         16  HIT:         16  MISS:          0  HIT %:        100  MISS %:          0  MPKI: 0

LLC AVERAGE MISS LATENCY: 158.711 cycles
LLC RQ	ACCESS:     342269	FORWARD:          0	MERGED:          0	TO_CACHE:     342261
LLC WQ	ACCESS:     140403	FORWARD:          8	MERGED:          0	TO_CACHE:     140403
LLC PQ	ACCESS:     652678	FORWARD:          0	MERGED:          0	TO_CACHE:     652678

LLC Dense regions hint to LLC: 0

RAW hits: 1924829
Loads Generated: 12630925
Loads sent to L1D: 10706097
Stores Generated: 6943632
Stores sent to L1D: 6943640
Major fault: 0 Minor fault: 2629
Allocated PAGES: 2629
I-Shadow cache 408 bytes
Touched + WorthPF tables 12288 bytes 
MMA filter 174 bytes 
FNL filter 272 bytes 
TOTAL PREFETCHER STORAGE SIZE: 31318 bytes
CPU 0 L1I next line prefetcher final stats

stream: 
stream:times selected: 1185279
stream:pref_filled: 118479
stream:pref_useful: 22808
stream:pref_late: 8131
stream:misses: 8006
stream:misses_by_poll: 0

CS: 
CS:times selected: 179175
CS:pref_filled: 54080
CS:pref_useful: 30056
CS:pref_late: 14109
CS:misses: 23072
CS:misses_by_poll: 6

CPLX: 
CPLX:times selected: 1004971
CPLX:pref_filled: 19557
CPLX:pref_useful: 4149
CPLX:pref_late: 3243
CPLX:misses: 95733
CPLX:misses_by_poll: 0

NL_L1: 
NL:times selected: 20993
NL:pref_filled: 600
NL:pref_useful: 235
NL:pref_late: 414
NL:misses: 1746
NL:misses_by_poll: 0

total selections: 2390418
total_filled: 92232
total_useful: 33804
total_late: 27428
total_polluted: 6
total_misses_after_warmup: 779349
conflicts: 5536586

test: 115747

DRAM Statistics
 CHANNEL 0
 RQ ROW_BUFFER_HIT:      10132  ROW_BUFFER_MISS:      17813
 DBUS_CONGESTED:          6
 WQ ROW_BUFFER_HIT:       1388  ROW_BUFFER_MISS:      12505  FULL:          0

 AVG_CONGESTED_CYCLE: 5

CPU 0 Branch Prediction Accuracy: 99.8242% MPKI: 0.3217 Average ROB Occupancy at Mispredict: 190.388
Branch types
NOT_BRANCH: 40851690 81.7034%
BRANCH_DIRECT_JUMP: 548494 1.09699%
BRANCH_INDIRECT: 182795 0.36559%
BRANCH_CONDITIONAL: 6181585 12.3632%
BRANCH_DIRECT_CALL: 945371 1.89074%
BRANCH_INDIRECT_CALL: 172233 0.344466%
BRANCH_RETURN: 1117606 2.23521%
BRANCH_OTHER: 0 0%

DRAM PAGES: 1048576
Allocated PAGES: 2629
Average_ROB_Occupancy: 217.346
Average_Decode_Occupancy: 26.3262
Average_FTQ_Occupancy: 8.85534
Indirect max targets: 14 Average targets: 1.17516
Branch_type:  BRANCH_DIRECT_JUMP:  Count Percentage: 1.60033 7.78035 3.43175 8.08773 2.93618 5.9597 6.02651 64.1774 
Branch_type:  BRANCH_INDIRECT:  Count Percentage: 11.7438 5.58745 2.52736 0 1.33759 9.68975 17.6387 51.4754 
Branch_type:  BRANCH_CONDITIONAL:  Count Percentage: 20.6462 7.67924 1.58095 4.7251 1.897 4.75846 2.97874 55.7343 
Branch_type:  BRANCH_DIRECT_CALL:  Count Percentage: 0.257882 1.47839 1.27867 3.36448 3.36855 2.22198 0.72951 87.3005 
Branch_type:  BRANCH_INDIRECT_CALL:  Count Percentage: 9.51448 2.27184 2.98138 8.65561 1.41819 1.70759 1.27582 72.1751 
Branch_type:  BRANCH_RETURN:  Count Percentage: 4.38529 5.10011 1.15677 5.64681 3.74976 6.11149 3.81125 70.0385 
Branch_type:  BRANCH_DIRECT_JUMP:  Total Count: 17535 85250 37602 88618 32172 65301 66033 703198 
Branch_type:  BRANCH_INDIRECT:  Total Count: 42898 20410 9232 0 4886 35395 64431 188031 
Branch_type:  BRANCH_CONDITIONAL:  Total Count: 2550751 948738 195320 583766 234366 587888 368011 6885734 
Branch_type:  BRANCH_DIRECT_CALL:  Total Count: 4873 27936 24162 63576 63653 41987 13785 1649652 
Branch_type:  BRANCH_INDIRECT_CALL:  Total Count: 32746 7819 10261 29790 4881 5877 4391 248405 
Branch_type:  BRANCH_RETURN:  Total Count: 97997 113971 25850 126188 83795 136572 85169 1565134 
Number of unique branch instructions: 10553
Upper 32 bits: 
aaaa
ffff
ffff0000
Unique upper 32 bits: 3
Unique upper 36 bits: 3
Unique upper 40 bits: 5
Unique upper 44 bits: 32
Unique upper 48 bits: 157
Offset_3 4373
Offset_4 252
Offset_5 472
Offset_6 529
Offset_7 619
Offset_8 568
Offset_9 504
Offset_10 409
Offset_11 337
Offset_12 303
Offset_13 238
Offset_14 240
Offset_15 194
Offset_16 222
Offset_17 165
Offset_18 144
Offset_19 251
Offset_20 139
Offset_21 235
Offset_22 405
Offset_23 241
Offset_24 346
Offset_25 117
Offset_47 94
Offset_64 2
decode_dispatch_called: 25077384 67.4281
Dispatch_width: 0 13557699 54.0635 36.4539
Dispatch_width: 1 888567 3.5433 2.38918
Dispatch_width: 2 915561 3.65094 2.46176
Dispatch_width: 3 588349 2.34613 1.58195
Dispatch_width: 4 4479775 17.8638 12.0452
Dispatch_width: 5 288518 1.15051 0.775767
Dispatch_width: 6 4358915 17.3819 11.7203
Empty_decode_cycles: 12113922 32.5719
ROB_full_cycles: 7039105 18.9267
Starvation_cycles_per_kilo_instr: 257.933
Starvation_cycles_per_kilo_instr_3: 210.25
Starvation_cycles_per_kilo_instr_0: 186.325
Branch_type_1  (3,1)  (4,7)  (5,38)  (6,71)  (7,122)  (8,147)  (9,133)  (10,109)  (11,75)  (12,47)  (13,11)  (14,2)  (15,3)  (16,4)  (18,1)  (19,5)  (20,2)  (21,1)  (22,3)  (23,2)  (24,10)  (25,12) 
Branch_type_2  (3,1)  (4,1)  (5,1)  (8,4)  (9,4)  (10,1)  (12,1)  (13,1)  (14,1)  (16,3)  (17,2)  (20,2)  (21,2)  (23,5)  (24,1)  (47,43) 
Branch_type_3  (3,4371)  (4,244)  (5,429)  (6,442)  (7,469)  (8,354)  (9,277)  (10,164)  (11,128)  (12,54)  (13,10)  (64,2) 
Branch_type_4  (6,3)  (7,8)  (8,24)  (9,53)  (10,64)  (11,68)  (12,111)  (13,101)  (14,108)  (15,92)  (16,97)  (17,76)  (18,61)  (19,122)  (20,71)  (21,124)  (22,212)  (23,136)  (24,202)  (25,101) 
Branch_type_5  (8,3)  (9,1)  (10,4)  (11,5)  (12,3)  (13,14)  (14,16)  (15,11)  (16,22)  (17,11)  (18,23)  (19,14)  (20,11)  (21,13)  (22,43)  (23,26)  (24,37) 
Branch_type_6  (5,4)  (6,13)  (7,20)  (8,36)  (9,36)  (10,67)  (11,61)  (12,87)  (13,101)  (14,113)  (15,88)  (16,96)  (17,76)  (18,59)  (19,110)  (20,53)  (21,95)  (22,147)  (23,72)  (24,96)  (25,4)  (47,51) 
Unique trigger count: 
L2BTB1 1536 4
L2BTB2 1536 4
L2BTB3 1536 4
L2BTB4 224 4
