
*** ChampSim Multicore Out-of-Order Simulator ***

Warmup Instructions: 50000000
Simulation Instructions: 50000000
Number of CPUs: 1
LLC sets: 2048
LLC ways: 16
Off-chip DRAM Size: 4096 MB Channels: 1 Width: 64-bit Data Rate: 6400 MT/s
CPU 0 runs ./micro_traces/srv102.trace.gz
.gz
ITLB has LRU replacement policy
DTLB has LRU replacement policy
STLB has LRU replacement policy
FDIP Prefetcher at L1I
L1I has LRU replacement policy
L1D has LRU replacement policy
Initialize SRRIP state for L2C
Initialize DRRIP state for LLC
Heartbeat CPU 0 instructions: 10000000 cycles: 2796959 heartbeat IPC: 3.57531 cumulative IPC: 3.57531 (Simulation time: 0 hr 2 min 7 sec) 
Heartbeat CPU 0 instructions: 20000001 cycles: 5593036 heartbeat IPC: 3.57644 cumulative IPC: 3.57588 (Simulation time: 0 hr 3 min 58 sec) 
Heartbeat CPU 0 instructions: 30000000 cycles: 8389467 heartbeat IPC: 3.57599 cumulative IPC: 3.57591 (Simulation time: 0 hr 5 min 47 sec) 
Heartbeat CPU 0 instructions: 40000001 cycles: 11186982 heartbeat IPC: 3.5746 cumulative IPC: 3.57558 (Simulation time: 0 hr 7 min 44 sec) 
Heartbeat CPU 0 instructions: 50000002 cycles: 13983512 heartbeat IPC: 3.57586 cumulative IPC: 3.57564 (Simulation time: 0 hr 9 min 41 sec) 

Warmup complete CPU 0 instructions: 50000002 cycles: 13983512 (Simulation time: 0 hr 9 min 41 sec) 

Cycle: 20000000 FTQ IN: 58295040 FTQ occupancy: 19.9144 DECODE IN: 58295040 DECODE occupancy: 51.679 ROB IN: 58295040 ROB occupancy: 312.229 ROB OUT: 58294966
Heartbeat CPU 0 instructions: 60000001 cycles: 21230401 heartbeat IPC: 1.3799 cumulative IPC: 1.3799 (Simulation time: 0 hr 11 min 49 sec) 
Heartbeat CPU 0 instructions: 70000001 cycles: 28534796 heartbeat IPC: 1.36904 cumulative IPC: 1.37445 (Simulation time: 0 hr 13 min 49 sec) 
Cycle: 30000000 FTQ IN: 13729117 FTQ occupancy: 12.9478 DECODE IN: 13729109 DECODE occupancy: 32.4046 ROB IN: 13729109 ROB occupancy: 227.687 ROB OUT: 13729183
Heartbeat CPU 0 instructions: 80000002 cycles: 35792175 heartbeat IPC: 1.37791 cumulative IPC: 1.3756 (Simulation time: 0 hr 15 min 58 sec) 
Cycle: 40000000 FTQ IN: 13781639 FTQ occupancy: 12.7751 DECODE IN: 13781510 DECODE occupancy: 32.0707 ROB IN: 13781450 ROB occupancy: 225.474 ROB OUT: 13781102
Heartbeat CPU 0 instructions: 90000000 cycles: 43117780 heartbeat IPC: 1.36507 cumulative IPC: 1.37295 (Simulation time: 0 hr 17 min 57 sec) 
Cycle: 50000000 FTQ IN: 13497392 FTQ occupancy: 12.8434 DECODE IN: 13497501 DECODE occupancy: 32.0465 ROB IN: 13497501 ROB occupancy: 224.61 ROB OUT: 13497497
Heartbeat CPU 0 instructions: 100000003 cycles: 50509360 heartbeat IPC: 1.35289 cumulative IPC: 1.36889 (Simulation time: 0 hr 18 min 52 sec) 
Finished CPU 0 instructions: 50000001 cycles: 36525848 cumulative IPC: 1.36889 (Simulation time: 0 hr 18 min 52 sec) 

ChampSim completed all CPUs

Region of Interest Statistics

CPU 0 cumulative IPC: 1.36889 instructions: 50000001 cycles: 36525848
 Fetch stage stalled: 52.7759  Sim cycles: 36525848 fetch stall cycle: 19276858
 Empty decode stage: 34.0351  Sim cycles: 36525848 fetch stall cycle: 12431603
ITLB TOTAL     ACCESS:    5760550  HIT:    5262031  MISS:     498519  HIT %:     91.346  MISS %:    8.65402   MPKI: 9.97038
ITLB LOAD TRANSLATION INSTRUCTION	ACCESS:    5626039  HIT:    5127520  MISS:     498519  HIT %:    91.1391  MISS %:    8.86092  MPKI: 9.97038
ITLB TRANSLATION FROM L1D PREFETCHER INSTRUCTION	ACCESS:     134511  HIT:     134511  MISS:          0  HIT %:        100  MISS %:          0  MPKI: 0

ITLB AVERAGE MISS LATENCY: 9.06244 cycles
ITLB RQ	ACCESS:    7839664	FORWARD:          0	MERGED:    1586348	TO_CACHE:    6253316

DTLB TOTAL     ACCESS:    8990333  HIT:    8518334  MISS:     471999  HIT %:    94.7499  MISS %:    5.25007   MPKI: 9.43998
DTLB LOAD TRANSLATION DATA	ACCESS:    8990333  HIT:    8518334  MISS:     471999  HIT %:    94.7499  MISS %:    5.25007  MPKI: 9.43998

DTLB AVERAGE MISS LATENCY: 9.33334 cycles
DTLB RQ	ACCESS:   13356518	FORWARD:          0	MERGED:    4329124	TO_CACHE:    9027394

STLB TOTAL     ACCESS:    1215089  HIT:    1213096  MISS:       1993  HIT %:     99.836  MISS %:   0.164021   MPKI: 0.03986
STLB LOAD TRANSLATION INSTRUCTION	ACCESS:     498519  HIT:     498259  MISS:        260  HIT %:    99.9478  MISS %:  0.0521545  MPKI: 0.0052
STLB LOAD TRANSLATION DATA	ACCESS:     471997  HIT:     470288  MISS:       1709  HIT %:    99.6379  MISS %:   0.362079  MPKI: 0.03418
STLB TRANSLATION FROM L1D PREFETCHER DATA	ACCESS:     244573  HIT:     244549  MISS:         24  HIT %:    99.9902  MISS %: 0.00981302  MPKI: 0.00048

STLB AVERAGE MISS LATENCY: 79.1269 cycles
STLB RQ	ACCESS:    1334240	FORWARD:          0	MERGED:     119103	TO_CACHE:    1215137

STLB Hit, L1D data hit: 0
STLB Hit, L2C data hit: 0
STLB Hit, LLC data hit: 0
STLB Hit, LLC data miss: 0
STLB STLB hints to L2: 0
L1D TOTAL     ACCESS:   13100261  HIT:   11971828  MISS:    1128433  HIT %:    91.3862  MISS %:    8.61382   MPKI: 22.5687
L1D LOAD DATA	ACCESS:    6559939  HIT:    5812634  MISS:     747305  HIT %:     88.608  MISS %:     11.392  MPKI: 14.9461
L1D RFO DATA	ACCESS:    6217570  HIT:    5931221  MISS:     286349  HIT %:    95.3945  MISS %:    4.60548  MPKI: 5.72698
L1D PREFETCH DATA	ACCESS:     322752  HIT:     227973  MISS:      94779  HIT %:    70.6341  MISS %:    29.3659  MPKI: 1.89558

L1D PREFETCH  REQUESTED:     727790  ISSUED:     727790  USEFUL:      33882  USELESS:      68606
L1D USEFUL LOAD PREFETCHES:      33882 PREFETCH ISSUED TO LOWER LEVEL:     102527  ACCURACY: 33.0469
 TIMELY PREFETCHES:      33882 LATE PREFETCHES: 7695 DROPPED PREFETCHES: 11
L1D AVERAGE MISS LATENCY: 222829 cycles
L1D RQ	ACCESS:   10690337	FORWARD:          0	MERGED:    3926699	TO_CACHE:    6594854
L1D WQ	ACCESS:    6959238	FORWARD:     169130	MERGED:     197574	TO_CACHE:    6761664
L1D PQ	ACCESS:     364068	FORWARD:          0	MERGED:          0	TO_CACHE:     363722

L1D UNIQUE REGIONS ACCESSED: 0
L1D REGIONS CONFLICTS: 0
L1D Cross Page Prefetch Requests: 6976
L1D Same Page Prefetch Requests: 743127
L1D ROI Sum of L1D PQ occupancy: 4632709
L1D PREFETCHES PUSHED FROM L2C: 0
L1I TOTAL     ACCESS:    7059612  HIT:    4275082  MISS:    2784530  HIT %:    60.5569  MISS %:    39.4431   MPKI: 55.6906
L1I LOAD INSTRUCTION	ACCESS:    6420515  HIT:    3635985  MISS:    2784530  HIT %:    56.6307  MISS %:    43.3693  MPKI: 55.6906
L1I PREFETCH INSTRUCTION	ACCESS:     639097  HIT:     639097  MISS:          0  HIT %:        100  MISS %:          0  MPKI: 0

L1I PREFETCH  REQUESTED:    1540354  ISSUED:    1540354  USEFUL:          0  USELESS:          0
L1I USEFUL LOAD PREFETCHES:          0 PREFETCH ISSUED TO LOWER LEVEL:          0  ACCURACY: -nan
 TIMELY PREFETCHES:          0 LATE PREFETCHES: 0 DROPPED PREFETCHES: 0
L1I AVERAGE MISS LATENCY: 17.1536 cycles
L1I RQ	ACCESS:    9540445	FORWARD:          0	MERGED:    2827442	TO_CACHE:    6713003
L1I PQ	ACCESS:    1540354	FORWARD:          0	MERGED:     413693	TO_CACHE:    1126661

L1BTB TOTAL     ACCESS:    5672324  HIT:    2022022  MISS:    3650302  HIT %:    35.6472  MISS %:    64.3528   MPKI: 73.006
L1BTB BRANCH_DIRECT_JUMP	ACCESS:     547906  HIT:     142988  MISS:     404918	AVERAGE STALL: 53.1139
L1BTB BRANCH_INDIRECT	ACCESS:     182092  HIT:      65217  MISS:     116875	AVERAGE STALL: 107.604
L1BTB BRANCH_CONDITIONAL	ACCESS:    2695993  HIT:    1397135  MISS:    1298858	AVERAGE STALL: 61.9679
L1BTB BRANCH_DIRECT_CALL	ACCESS:     950809  HIT:     105395  MISS:     845414	AVERAGE STALL: 73.7248
L1BTB BRANCH_INDIRECT_CALL	ACCESS:     172365  HIT:      21117  MISS:     151248	AVERAGE STALL: 139.107
L1BTB BRANCH_RETURN	ACCESS:    1123159  HIT:     290170  MISS:     832989	AVERAGE STALL: 50.5664
L1BTB BRANCH_OTHER ACCESS:          0  HIT:          0  MISS:          0	AVERAGE STALL: -nan
L1BTB TOTAL ROB OCCUPANCY AT BTB MISS: 5.37147

L2BTB TOTAL     ACCESS:    3625091  HIT:    3512092  MISS:     112999  HIT %:    96.8829  MISS %:    3.11714   MPKI: 2.25998
L2BTB BRANCH_DIRECT_JUMP	ACCESS:     400883  HIT:     390999  MISS:       9884	AVERAGE STALL: 53.1139
L2BTB BRANCH_INDIRECT	ACCESS:     106523  HIT:     103045  MISS:       3478	AVERAGE STALL: 107.604
L2BTB BRANCH_CONDITIONAL	ACCESS:    1298858  HIT:    1276102  MISS:      22756	AVERAGE STALL: 61.9679
L2BTB BRANCH_DIRECT_CALL	ACCESS:     845414  HIT:     828407  MISS:      17007	AVERAGE STALL: 73.7248
L2BTB BRANCH_INDIRECT_CALL	ACCESS:     141850  HIT:     130193  MISS:      11657	AVERAGE STALL: 139.107
L2BTB BRANCH_RETURN	ACCESS:     831563  HIT:     783346  MISS:      48217	AVERAGE STALL: 50.5664
L2BTB BRANCH_OTHER ACCESS:          0  HIT:          0  MISS:          0	AVERAGE STALL: -nan
L2BTB TOTAL ROB OCCUPANCY AT BTB MISS: 173.519

L2C TOTAL     ACCESS:    4522219  HIT:    4069785  MISS:     452434  HIT %:    89.9953  MISS %:    10.0047   MPKI: 9.04868
L2C LOAD INSTRUCTION	ACCESS:    2784531  HIT:    2535093  MISS:     249438  HIT %:     91.042  MISS %:    8.95799  MPKI: 4.98876
L2C LOAD TRANSLATION INSTRUCTION	ACCESS:        295  HIT:         72  MISS:        223  HIT %:    24.4068  MISS %:    75.5932  MPKI: 0.00446
L2C LOAD DATA	ACCESS:     739565  HIT:     671910  MISS:      67655  HIT %:    90.8521  MISS %:    9.14795  MPKI: 1.3531
L2C RFO DATA	ACCESS:     286278  HIT:     233987  MISS:      52291  HIT %:    81.7342  MISS %:    18.2658  MPKI: 1.04582
L2C PREFETCH DATA	ACCESS:     183454  HIT:     115844  MISS:      67610  HIT %:    63.1461  MISS %:    36.8539  MPKI: 1.3522
L2C WRITEBACK DATA	ACCESS:     526277  HIT:     512356  MISS:      13921  HIT %:    97.3548  MISS %:    2.64518  MPKI: 0.27842
L2C LOAD TRANSLATION DATA	ACCESS:       1768  HIT:        489  MISS:       1279  HIT %:    27.6584  MISS %:    72.3416  MPKI: 0.02558
L2C TRANSLATION FROM L1D PREFETCHER DATA	ACCESS:         51  HIT:         34  MISS:         17  HIT %:    66.6667  MISS %:    33.3333  MPKI: 0.00034

L2C PREFETCH  REQUESTED:      87738  ISSUED:      87738  USEFUL:       7169  USELESS:      60697
L2C USEFUL LOAD PREFETCHES:       7169 PREFETCH ISSUED TO LOWER LEVEL:      67894  ACCURACY: 10.5591
 TIMELY PREFETCHES:       7169 LATE PREFETCHES: 284 DROPPED PREFETCHES: 0
L2C AVERAGE MISS LATENCY: 39.0599 cycles
L2C RQ	ACCESS:    3812555	FORWARD:          0	MERGED:          0	TO_CACHE:    3812492
L2C WQ	ACCESS:     526277	FORWARD:         63	MERGED:          0	TO_CACHE:     526277
L2C PQ	ACCESS:     190265	FORWARD:          0	MERGED:       3281	TO_CACHE:     186984

L2C Dense regions hint from L2: 0
PSCL5 TOTAL     ACCESS:       4012  HIT:       2006  MISS:       2006  HIT %:         50  MISS %:         50   MPKI: 0.04012
PSCL5 LOAD TRANSLATION INSTRUCTION	ACCESS:       3912  HIT:       1956  MISS:       1956  HIT %:         50  MISS %:         50  MPKI: 0.03912
PSCL5 TRANSLATION FROM L1D PREFETCHER INSTRUCTION	ACCESS:        100  HIT:         50  MISS:         50  HIT %:         50  MISS %:         50  MPKI: 0.001


PSCL4 TOTAL     ACCESS:       3944  HIT:       1970  MISS:       1974  HIT %:    49.9493  MISS %:    50.0507   MPKI: 0.03948
PSCL4 LOAD TRANSLATION INSTRUCTION	ACCESS:       2089  HIT:       1920  MISS:        169  HIT %:      91.91  MISS %:       8.09  MPKI: 0.00338
PSCL4 TRANSLATION FROM L1D PREFETCHER INSTRUCTION	ACCESS:         50  HIT:         50  MISS:          0  HIT %:        100  MISS %:          0  MPKI: 0
PSCL4 LOAD TRANSLATION DATA	ACCESS:       1755  HIT:          0  MISS:       1755  HIT %:          0  MISS %:        100  MPKI: 0.0351
PSCL4 TRANSLATION FROM L1D PREFETCHER DATA	ACCESS:         50  HIT:          0  MISS:         50  HIT %:          0  MISS %:        100  MPKI: 0.001


PSCL3 TOTAL     ACCESS:       3962  HIT:       1979  MISS:       1983  HIT %:    49.9495  MISS %:    50.0505   MPKI: 0.03966
PSCL3 LOAD TRANSLATION INSTRUCTION	ACCESS:       2098  HIT:       1929  MISS:        169  HIT %:    91.9447  MISS %:    8.05529  MPKI: 0.00338
PSCL3 TRANSLATION FROM L1D PREFETCHER INSTRUCTION	ACCESS:         50  HIT:         50  MISS:          0  HIT %:        100  MISS %:          0  MPKI: 0
PSCL3 LOAD TRANSLATION DATA	ACCESS:       1764  HIT:          0  MISS:       1764  HIT %:          0  MISS %:        100  MPKI: 0.03528
PSCL3 TRANSLATION FROM L1D PREFETCHER DATA	ACCESS:         50  HIT:          0  MISS:         50  HIT %:          0  MISS %:        100  MPKI: 0.001


PSCL2 TOTAL     ACCESS:       3909  HIT:       1903  MISS:       2006  HIT %:    48.6825  MISS %:    51.3175   MPKI: 0.04012
PSCL2 LOAD TRANSLATION INSTRUCTION	ACCESS:       2136  HIT:       1854  MISS:        282  HIT %:    86.7978  MISS %:    13.2022  MPKI: 0.00564
PSCL2 TRANSLATION FROM L1D PREFETCHER INSTRUCTION	ACCESS:         49  HIT:         49  MISS:          0  HIT %:        100  MISS %:          0  MPKI: 0
PSCL2 LOAD TRANSLATION DATA	ACCESS:       1675  HIT:          0  MISS:       1675  HIT %:          0  MISS %:        100  MPKI: 0.0335
PSCL2 TRANSLATION FROM L1D PREFETCHER DATA	ACCESS:         49  HIT:          0  MISS:         49  HIT %:          0  MISS %:        100  MPKI: 0.00098


LLC TOTAL     ACCESS:     511202  HIT:     483045  MISS:      28157  HIT %:     94.492  MISS %:      5.508   MPKI: 0.56314
LLC LOAD INSTRUCTION	ACCESS:     249438  HIT:     248309  MISS:       1129  HIT %:    99.5474  MISS %:   0.452617  MPKI: 0.02258
LLC LOAD TRANSLATION INSTRUCTION	ACCESS:        223  HIT:        176  MISS:         47  HIT %:    78.9238  MISS %:    21.0762  MPKI: 0.00094
LLC LOAD DATA	ACCESS:      67399  HIT:      63772  MISS:       3627  HIT %:    94.6186  MISS %:    5.38139  MPKI: 0.07254
LLC RFO DATA	ACCESS:      52258  HIT:      39225  MISS:      13033  HIT %:    75.0603  MISS %:    24.9397  MPKI: 0.26066
LLC PREFETCH DATA	ACCESS:      67893  HIT:      57994  MISS:       9899  HIT %:    85.4197  MISS %:    14.5803  MPKI: 0.19798
LLC WRITEBACK DATA	ACCESS:      72695  HIT:      72377  MISS:        318  HIT %:    99.5626  MISS %:   0.437444  MPKI: 0.00636
LLC LOAD TRANSLATION DATA	ACCESS:       1279  HIT:       1176  MISS:        103  HIT %:    91.9468  MISS %:    8.05317  MPKI: 0.00206
LLC TRANSLATION FROM L1D PREFETCHER DATA	ACCESS:         17  HIT:         16  MISS:          1  HIT %:    94.1176  MISS %:    5.88235  MPKI: 2e-05

LLC AVERAGE MISS LATENCY: 158.742 cycles
LLC RQ	ACCESS:     370619	FORWARD:          0	MERGED:          0	TO_CACHE:     370614
LLC WQ	ACCESS:      72695	FORWARD:          6	MERGED:          0	TO_CACHE:      72695
LLC PQ	ACCESS:      67894	FORWARD:          0	MERGED:          0	TO_CACHE:      67893

LLC Dense regions hint to LLC: 0

RAW hits: 1941572
Loads Generated: 12631909
Loads sent to L1D: 10690337
Stores Generated: 6959228
Stores sent to L1D: 6959238
Major fault: 0 Minor fault: 2635
Allocated PAGES: 2635

stream: 
stream:times selected: 1177475
stream:pref_filled: 122392
stream:pref_useful: 24600
stream:pref_late: 6685
stream:misses: 7937
stream:misses_by_poll: 0

CS: 
CS:times selected: 178304
CS:pref_filled: 60857
CS:pref_useful: 37616
CS:pref_late: 6833
CS:misses: 15947
CS:misses_by_poll: 1

CPLX: 
CPLX:times selected: 997980
CPLX:pref_filled: 20009
CPLX:pref_useful: 4892
CPLX:pref_late: 3063
CPLX:misses: 94494
CPLX:misses_by_poll: 0

NL_L1: 
NL:times selected: 20598
NL:pref_filled: 802
NL:pref_useful: 372
NL:pref_late: 262
NL:misses: 1761
NL:misses_by_poll: 0

total selections: 2374357
total_filled: 94779
total_useful: 33882
total_late: 18225
total_polluted: 1
total_misses_after_warmup: 782221
conflicts: 5531436

test: 117380

DRAM Statistics
 CHANNEL 0
 RQ ROW_BUFFER_HIT:      10119  ROW_BUFFER_MISS:      17706
 DBUS_CONGESTED:         11
 WQ ROW_BUFFER_HIT:       1434  ROW_BUFFER_MISS:      11822  FULL:          0

 AVG_CONGESTED_CYCLE: 6

CPU 0 Branch Prediction Accuracy: 99.8084% MPKI: 0.35088 Average ROB Occupancy at Mispredict: 175.013
Branch types
NOT_BRANCH: 40844550 81.6891%
BRANCH_DIRECT_JUMP: 547906 1.09581%
BRANCH_INDIRECT: 182092 0.364184%
BRANCH_CONDITIONAL: 6178943 12.3579%
BRANCH_DIRECT_CALL: 950809 1.90162%
BRANCH_INDIRECT_CALL: 172365 0.34473%
BRANCH_RETURN: 1123159 2.24632%
BRANCH_OTHER: 0 0%

DRAM PAGES: 1048576
Allocated PAGES: 2635
Average_ROB_Occupancy: 227.499
Average_Decode_Occupancy: 32.1718
Average_FTQ_Occupancy: 12.8288
Indirect max targets: 14 Average targets: 1.17891
Branch_type:  BRANCH_DIRECT_JUMP:  Count Percentage: 3.77612 4.78446 4.81562 8.46362 2.40745 6.01231 1.56597 68.1745 
Branch_type:  BRANCH_INDIRECT:  Count Percentage: 6.10758 3.37609 8.14042 9.6785 3.35386 2.81766 3.90159 62.6243 
Branch_type:  BRANCH_CONDITIONAL:  Count Percentage: 25.4249 2.35006 1.55286 4.60623 2.44851 3.59381 2.11989 57.9037 
Branch_type:  BRANCH_DIRECT_CALL:  Count Percentage: 0.916119 1.32111 0.714232 3.88468 3.20291 2.6904 3.03686 84.2337 
Branch_type:  BRANCH_INDIRECT_CALL:  Count Percentage: 9.57683 0 3.00511 0.00087324 0.922724 1.71999 4.99639 79.7781 
Branch_type:  BRANCH_RETURN:  Count Percentage: 8.33508 1.23035 1.01714 3.87703 4.217 3.48128 2.68701 75.1551 
Branch_type:  BRANCH_DIRECT_JUMP:  Total Count: 41321 52355 52696 92615 26344 65791 17136 746014 
Branch_type:  BRANCH_INDIRECT:  Total Count: 22257 12303 29665 35270 12222 10268 14218 228213 
Branch_type:  BRANCH_CONDITIONAL:  Total Count: 3139812 290218 191768 568840 302376 443813 261793 7150746 
Branch_type:  BRANCH_DIRECT_CALL:  Total Count: 17357 25030 13532 73600 60683 50973 57537 1595911 
Branch_type:  BRANCH_INDIRECT_CALL:  Total Count: 32901 0 10324 3 3170 5909 17165 274076 
Branch_type:  BRANCH_RETURN:  Total Count: 186625 27548 22774 86808 94420 77947 60163 1682746 
Number of unique branch instructions: 10759
Upper 32 bits: 
aaaa
ffff
ffff0000
Unique upper 32 bits: 3
Unique upper 36 bits: 3
Unique upper 40 bits: 5
Unique upper 44 bits: 32
Unique upper 48 bits: 158
Offset_3 4455
Offset_4 260
Offset_5 482
Offset_6 538
Offset_7 639
Offset_8 578
Offset_9 511
Offset_10 421
Offset_11 352
Offset_12 325
Offset_13 240
Offset_14 247
Offset_15 199
Offset_16 231
Offset_17 165
Offset_18 152
Offset_19 262
Offset_20 146
Offset_21 235
Offset_22 410
Offset_23 241
Offset_24 346
Offset_25 117
Offset_47 92
Offset_64 2
decode_dispatch_called: 24454224 66.9505
Dispatch_width: 0 13089923 53.5283 35.8374
Dispatch_width: 1 837461 3.42461 2.29279
Dispatch_width: 2 756265 3.09257 2.07049
Dispatch_width: 3 450133 1.84072 1.23237
Dispatch_width: 4 4734314 19.3599 12.9615
Dispatch_width: 5 154592 0.632169 0.42324
Dispatch_width: 6 4431536 18.1218 12.1326
Empty_decode_cycles: 12071624 33.0495
ROB_full_cycles: 7710050 21.1085
Starvation_cycles_per_kilo_instr: 243.843
Starvation_cycles_per_kilo_instr_3: 194.954
Starvation_cycles_per_kilo_instr_0: 174.515
Branch_type_1  (3,1)  (4,9)  (5,39)  (6,72)  (7,124)  (8,149)  (9,134)  (10,110)  (11,79)  (12,55)  (13,11)  (14,2)  (15,3)  (16,4)  (18,1)  (19,5)  (20,2)  (21,1)  (22,3)  (23,2)  (24,10)  (25,12)  (64,1) 
Branch_type_2  (3,1)  (4,1)  (5,1)  (8,4)  (9,4)  (10,1)  (12,1)  (13,1)  (14,1)  (16,3)  (17,2)  (20,2)  (21,2)  (23,5)  (24,1)  (47,41) 
Branch_type_3  (3,4453)  (4,250)  (5,438)  (6,449)  (7,484)  (8,358)  (9,278)  (10,169)  (11,137)  (12,62)  (13,10)  (24,1)  (64,1) 
Branch_type_4  (6,4)  (7,8)  (8,26)  (9,57)  (10,67)  (11,70)  (12,116)  (13,102)  (14,112)  (15,95)  (16,102)  (17,76)  (18,65)  (19,127)  (20,74)  (21,124)  (22,216)  (23,136)  (24,200)  (25,101) 
Branch_type_5  (8,3)  (9,1)  (10,4)  (11,5)  (12,3)  (13,14)  (14,16)  (15,11)  (16,22)  (17,11)  (18,23)  (19,14)  (20,11)  (21,13)  (22,43)  (23,26)  (24,38) 
Branch_type_6  (5,4)  (6,13)  (7,23)  (8,38)  (9,37)  (10,70)  (11,61)  (12,88)  (13,102)  (14,116)  (15,90)  (16,100)  (17,76)  (18,63)  (19,116)  (20,57)  (21,95)  (22,148)  (23,72)  (24,96)  (25,4)  (47,51) 
aaaaab1fc620: 2ac9e77e 2aca717c 2aca8eff 2acaf6bc 2acaf9aa 2acaf9f1 2acb1abc 2acb1b7f 2acd4e22 2acdb712 2acf5f9e 2ad0ef44 2ad3f15c 2ad414e6 2ad60e42 2ad8609c 2ad99830 2ada35cc 2ada4676 2ada6612 2adf183e 2adf30e5 2adf5602 2adf785c 2ae11572 2aeb2dcf 2aee101b 2aee1ae1 2b156a8c 2b156b61 2b156bea 2b167f35 2b177656 2b17feec 2b1a3e5a 
aaaaab1fc640: 2ac9ec07 2aca656e 2aca801d 2acaea11 2acaee73 2acb13ee 2acb1470 2acd462b 2ad0ef5d 2ad3f3fe 2ad86e9b 2ada1641 2ada4115 2ada6638 2adf30d4 2ae12e57 2aee1033 2b1693ab 2b16948c 2b169491 2b17d915 2b17fa85 2b17fccd 
aaaaab1fcb00: 2acf2d72 2acf3734 2acf604c 2acfa5b7 2ad397b5 2ad3b800 2ae8af7d 2ae8aff0 2ae9aaba 2aea9fc6 2aeaa358 2aee910b 2aee91cf 2aee928e 2aee92e4 2af6fe87 2af70dfe 2b16850c 2b16c4a2 2b1765f4 2b178094 2b17d925 2b17db06 2b17ec8f 
aaaaab1fcb10: 2acf2d95 2acf3758 2acf6052 2acfa5f4 2ad397c3 2ad3b81c 2ae8af88 2ae8affe 2ae9aacf 2aeaa017 2aeaa36d 2aee9114 2aee91d8 2aee934d 2aee9353 2af6fe8c 2af70e22 2b168526 2b16c542 2b176609 2b1780a3 2b17d95d 2b17db44 2b17ecac 
aaaaac68f310: 2ac9ec8c 2ac9fb44 2ac9fbd2 2aca59ab 2acac04c 2acaf6e0 2acaf6ec 2acaf6f9 2acaf700 2acaf708 2acf2d90 2ad3cfbd 2ad3cfc4 2ad3d000 2ad3f35f 2ad4955d 2ad49571 2ad4f3f2 2ad4f400 2ad5f240 2ad5f37c 2ad5f86a 2ad5f86f 2ad5f880 2ad5fc0d 2ad5fc14 2ad5fc21 2ad5fe1b 2ad873bb 2ad873e3 2ad8a6b2 2ad9086e 2ad93096 2ad9bbb2 2ada152c 2ada1554 2ada3332 2ada5522 2adf3130 2adf313c 2adf3a3f 2adf3bd9 2adf5788 2adf7a8d 2ae07f6b 2ae0857a 2ae0857e 2ae08630 2ae08634 2ae08637 2ae08642 2ae0866f 2ae086e4 2ae086ec 2ae08717 2ae0871b 2aee0170 2aee1d38 2aee75f4 2aee7662 2aee85ca 2aee85e4 2aee8eef 2af70b84 2af74e8f 2b17d843 
aaaaac690ef0: 2aca598b 2acb111b 2acb175f 2acb1772 2acbfaf4 2acbfb00 2acf374f 2acf6d43 2acfa5c8 2ad3baf1 2ad3d4ac 2ad3d4b8 2ad3f1cf 2ad486b2 2ad5a59b 2ad5fc64 2ad5fcf9 2ad6121c 2ad906e9 2ad907bf 2ad9bada 2ada16ce 2ada1ad5 2ada43df 2ada64c0 2ada72ee 2adeb71a 2adf3bcb 2adf7a38 2adf7c6a 2adf8872 2adf8880 2adf9959 2adf9abe 2ae07f78 2ae08503 2ae08754 2ae12e80 2aea3bea 2aecb509 2aee00b0 2aee2bdd 2aee5467 2aee5601 2aee8f20 2af703fd 2af7048b 2af74e74 
Unique trigger count: 
1 10248
2 563
3 92
4 30
5 15
6 10
7 8
8 1
9 3
10 3
11 1
12 1
13 1
14 3
16 2
19 2
23 1
24 2
35 1
48 1
66 1
BTB PER SET UNIQUE ADDR: 1 2 2 2 0 0 1 1 3 0 2 0 1 1 0 1 2 1 1 2 0 1 1 2 1 2 1 2 1 1 2 2 2 1 3 0 0 3 4 0 1 2 3 3 1 1 2 1 4 1 1 1 2 0 0 2 3 3 1 1 1 2 2 2 0 4 4 0 2 2 5 1 1 2 1 1 2 6 2 1 1 2 1 4 3 2 1 4 3 2 3 4 2 3 3 0 1 3 0 1 3 2 2 3 3 2 1 1 3 0 1 2 3 2 1 3 1 2 1 0 3 2 2 0 1 1 1 1 3 3 3 0 1 1 2 1 0 0 1 2 2 3 3 1 2 1 2 3 3 2 1 6 1 2 2 1 0 3 2 1 0 0 0 1 4 3 0 1 5 2 2 2 2 1 1 0 1 1 3 1 1 3 6 2 3 2 3 0 1 1 4 1 1 2 1 1 1 1 0 1 2 1 1 0 0 0 1 1 1 0 0 2 2 1 2 1 0 2 1 0 0 1 1 3 2 0 2 2 0 3 5 3 1 2 1 3 3 1 1 2 1 0 2 2 6 3 1 1 3 1 1 1 1 1 0 5 2 2 2 2 3 3 2 2 2 4 3 0 2 1 2 2 1 2 3 2 2 0 3 2 2 2 1 1 2 3 2 1 1 1 0 0 1 3 0 1 3 2 0 1 2 2 1 1 2 2 3 2 3 3 2 1 2 2 3 0 2 2 1 2 1 2 2 3 0 3 1 4 0 0 3 0 2 2 3 1 2 3 4 0 3 0 0 1 2 3 1 2 1 3 1 3 3 2 2 2 1 0 3 0 0 2 1 2 4 2 1 0 0 0 3 1 2 0 1 2 2 2 2 3 0 0 1 3 0 0 2 1 2 1 1 2 2 2 2 0 3 0 0 2 3 1 3 1 1 0 1 2 0 1 0 0 1 2 1 0 4 1 1 2 1 1 3 2 2 4 0 0 1 3 0 0 4 2 3 3 2 1 1 0 0 4 3 2 2 1 1 2 1 1 3 0 0 1 3 0 1 2 2 2 3 0 3 2 0 0 2 0 1 3 0 1 1 1 2 1 0 1 1 0 0 1 1 2 0 2 2 0 3 1 3 1 1 2 0 2 1 1 2 0 3 0 0 1 0 2 1 0 0 2 3 2 4 4 2 0 1 3 1 5 1 1 3 1 3 3 1 4 3 2 5 1 2 2 1 4 0 0 3 0 0 4 3 1 5 1 6 3 4 4 2 3 2 3 0 1 1 0 2 2 6 0 1 2 1 0 0 1 3 4 4 0 1 5 2 0 0 2 0 0 1 1 1 0 1 0 0 4 1 1 3 2 0 2 1 2 3 0 2 2 1 0 1 3 0 1 1 1 2 0 2 2 2 1 2 1 2 0 2 1 3 1 5 0 2 2 2 2 1 0 3 1 0 2 2 4 0 1 1 2 5 1 3 3 0 0 2 1 2 1 1 1 3 1 1 0 4 0 1 3 3 2 3 3 2 1 1 1 0 0 4 2 1 0 4 2 0 1 3 2 1 0 2 2 2 1 1 2 2 1 0 3 1 1 1 3 3 3 2 3 0 2 0 2 1 1 0 1 0 0 1 2 0 1 2 0 1 1 0 2 1 0 1 1 0 1 1 1 0 3 3 2 1 0 1 1 6 1 1 0 1 2 1 2 1 0 3 1 2 2 0 0 1 2 0 1 2 3 1 0 1 1 0 2 0 1 3 1 0 0 2 2 0 0 1 2 3 1 1 1 2 1 0 0 3 3 3 4 0 0 1 3 0 0 2 3 3 1 1 0 2 2 1 2 1 1 1 4 0 2 0 2 1 0 2 1 1 0 0 3 3 0 1 0 2 1 1 1 1 4 1 1 2 1 3 0 1 0 3 2 0 1 0 2 0 1 3 2 3 0 2 1 3 1 3 2 0 0 1 0 0 0 0 1 4 1 1 0 2 0 1 1 1 2 1 0 2 2 3 1 2 1 1 0 0 0 1 2 0 0 2 0 1 2 1 1 4 0 1 1 1 0 0 1 1 3 0 1 0 4 3 3 0 0 1 2 0 1 1 2 4 1 3 1 2 0 3 0 2 1 3 1 4 2 2 1 1 1 0 1 1 1 0 3 2 2 1 2 1 1 1 0 4 1 1 1 4 2 2 1 2 1 2 2 2 4 8 2 2 2 1 1 0 2 3 1 3 4 1 2 3 2 1 3 1 1 1 3 2 1 3 1 1 2 2 1 2 2 1 4 0 1 2 1 2 3 3 2 0 1 2 0 3 0 1 2 3 3 1 3 3 1 7 4 0 2 2 1 1 1 3 4 2 1 3 0 0 1 0 0 2 0 1 3 0 2 5 1 3 3 0 1 3 2 1 3 2 1 2 1 0 1 2 0 2 0 1 2 3 3 1 4 3 2 0 1 7 0 1 1 1 1 2 2 1 5 3 3 3 4 2 4 2 2 1 0 4 1 1 2 1 6 1 0 4 1 1 1 2 1 1 2 3 4 2 2 2 1 1 4 4 2 1 2 1 1 3 2 1 4 2 2 2 1 3 4 0 1 4 1 0 2 1 0 1 3 1 2 1 2 1 3 2 0 1 1 3 2 1 0 2 0 0 3 2 1 2 2 1 4 0 1 5 0 3 3 1 2 2 4 2 4 0 6 4 0 2 1 2 0 0 1 3 0 1 1 2 4 1 0 0 3 3 2 1 2 0 0 1 4 1 4 2 2 0 2 0 1 2 4 6 1 5 0 0 1 2 1 4 0 2 3 2 1 1 1 0 4 1 3 0 1 2 5 3 1 2 2 0 2 4 3 2 4 3 2 0 0 3 3 4 1 2 2 1 1 3 2 3 1 1 1 1 2 5 3 4 0 0 2 1 1 3 2 3 0 0 1 2 3 2 0 3 1 1 1 1 1 5 0 1 1 0 4 3 0 2 1 3 2 1 1 2 1 2 2 0 3 2 1 0 3 1 1 2 2 1 1 0 2 1 1 1 2 1 3 3 2 1 2 0 1 3 0 2 2 0 2 1 1 2 2 1 0 3 0 1 1 2 2 1 1 1 1 1 4 1 3 2 1 2 0 1 1 1 4 2 2 1 2 1 2 0 1 4 2 3 1 4 2 1 1 1 2 3 1 1 1 4 0 5 2 2 3 1 0 3 3 1 1 1 3 0 2 2 1 1 1 2 2 0 1 1 5 2 1 2 2 0 2 2 0 1 2 1 1 1 0 0 2 0 0 1 1 0 2 1 3 4 1 1 0 1 1 1 0 1 0 0 3 1 0 1 1 0 1 1 0 0 0 1 0 0 1 0 0 1 0 2 0 2 1 1 0 1 0 0 5 1 0 1 1 3 2 1 0 2 2 1 0 3 0 1 1 1 1 1 0 2 0 3 1 0 1 4 0 0 1 0 2 1 2 2 1 2 2 3 2 0 1 1 0 0 0 4 0 1 1 0 0 0 1 0 1 1 0 1 3 2 1 2 1 2 2 2 1 1 0 1 2 2 0 0 1 2 1 3 1 0 1 1 4 3 0 0 1 2 1 0 0 3 1 3 0 2 1 3 2 1 3 4 3 5 0 1 1 3 2 1 5 4 3 2 3 4 0 0 2 2 1 1 1 1 1 2 0 2 1 0 1 3 0 1 1 3 1 2 3 3 1 0 1 4 0 2 3 2 2 2 1 3 3 1 1 1 2 2 2 1 4 2 1 1 1 1 3 3 1 1 1 1 0 2 1 2 3 0 0 1 1 0 3 3 1 0 2 2 0 1 2 2 1 1 2 1 0 0 3 2 1 0 0 0 3 1 0 2 1 3 3 2 1 4 1 2 7 3 2 3 2 1 3 3 1 1 1 1 0 0 2 3 1 2 0 0 3 3 1 2 2 0 0 1 2 2 2 2 1 2 2 2 1 0 2 0 1 2 1 0 0 1 1 0 1 2 0 3 0 3 1 1 0 2 1 1 3 0 3 0 1 0 1 1 1 4 0 2 1 0 1 2 1 0 1 0 0 1 1 1 1 2 2 3 0 3 0 0 1 2 1 1 6 1 0 2 2 3 2 1 2 5 1 3 3 0 2 1 3 2 5 4 0 2 1 5 0 4 0 3 2 2 2 1 1 1 0 1 2 0 2 0 1 3 3 2 1 4 2 2 2 3 0 2 0 3 1 3 2 2 2 2 1 0 2 3 2 1 0 1 2 0 0 0 2 0 1 1 3 0 2 2 2 3 2 2 1 2 2 3 1 1 2 2 1 0 2 2 2 2 0 0 1 0 0 1 0 0 1 1 1 2 1 1 2 0 0 0 2 1 1 1 1 2 1 2 2 2 0 3 1 1 2 1 2 1 2 1 0 1 0 3 1 0 1 2 1 3 2 2 2 0 2 0 1 0 0 2 2 0 4 2 4 0 2 2 6 1 0 0 1 4 3 3 1 1 1 3 1 0 1 2 4 1 6 2 0 3 0 1 1 1 1 2 1 0 2 0 1 2 3 1 0 0 3 4 1 0 0 2 3 1 0 3 3 1 0 3 3 0 1 2 4 0 0 0 2 1 0 4 0 1 0 2 2 3 0 2 1 2 1 2 1 0 2 4 2 3 0 2 2 1 1 1 1 2 1 1 0 0 0 4 2 1 2 1 1 3 3 3 3 1 1 3 3 0 2 2 1 4 4 2 3 2 2 1 3 1 2 3 2 1 4 5 3 2 3 2 2 2 1 1 1 0 1 1 0 2 2 0 2 0 1 1 0 1 4 1 3 0 0 0 2 1 2 1 1 0 3 1 1 0 0 0 2 1 1 0 1 3 1 1 2 0 0 3 1 2 2 1 2 1 0 1 0 0 1 0 2 1 0 0 4 1 3 1 3 3 1 2 2 0 0 0 1 1 1 4 3 3 2 3 2 4 3 2 2 2 1 3 1 1 2 1 4 1 2 2 3 2 3 2 3 2 0 4 1 2 2 5 6 5 3 3 2 2 1 4 1 1 1 3 2 0 2 3 4 4 0 2 1 1 2 4 5 1 1 1 2 1 2 2 2 3 3 3 2 3 5 1 1 3 2 3 3 1 4 2 1 2 2 3 3 2 1 3 3 3 0 1 2 1 1 1 2 2 1 0 1 3 1 2 2 2 1 2 2 1 1 0 0 4 2 5 5 0 2 1 3 2 1 0 3 2 2 1 3 2 1 1 1 2 0 1 3 0 2 2 1 1 0 1 1 2 0 0 1 0 1 2 1 5 1 3 2 1 2 0 0 0 3 0 3 2 0 2 1 2 1 1 1 1 1 2 0 1 0 5 2 2 0 1 0 2 2 5 4 1 2 3 5 1 2 2 0 1 3 1 2 2 0 0 3 2 1 2 2 2 0 1 0 1 4 3 0 0 4 4 2 3 5 3 1 3 1 1 0 2 1 2 4 1 2 3 3 0 1 2 2 0 1 1 4 3 2 1 2 1 1 6 3 1 3 3 2 3 1 4 0 4 3 2 0 0 1 2 0 1 1 1 1 1 1 1 3 2 0 1 0 1 3 4 2 1 3 2 2 0 1 0 0 1 2 3 2 3 0 1 3 1 2 4 1 2 2 1 2 3 0 3 0 2 1 3 5 1 1 2 1 1 3 1 2 2 1 0 1 5 1 0 3 1 4 2 3 4 3 2 0 0 3 4 2 1 0 4 4 1 1 2 0 1 0 0 2 1 0 3 0 2 1 2 2 0 3 2 2 0 1 2 1 1 1 1 0 1 2 2 1 0 0 1 4 0 1 1 2 3 1 3 4 1 2 3 3 0 3 3 2 0 2 2 4 2 1 2 1 1 1 2 1 3 2 1 1 2 0 3 5 2 3 1 3 1 2 2 1 2 2 1 3 4 1 1 1 4 2 0 3 0 2 2 3 1 2 3 2 1 5 4 1 1 0 0 0 0 5 3 1 3 5 2 0 2 1 3 2 2 0 5 2 5 4 1 3 2 3 0 2 3 1 0 1 0 2 0 0 1 0 2 2 3 2 0 2 1 3 1 3 2 3 3 1 3 1 3 4 2 1 3 0 1 1 1 0 2 3 1 3 2 1 2 1 2 0 1 3 1 0 3 0 2 1 3 3 4 2 2 4 1 3 3 3 1 4 3 2 0 1 2 2 3 0 3 2 4 1 2 2 1 2 1 2 2 0 3 1 3 2 0 4 0 1 2 2 4 0 3 1 2 1 3 1 0 1 7 1 0 1 1 0 0 0 1 2 0 3 2 1 3 3 1 2 2 3 2 2 1 2 1 1 1 2 1 2 1 1 1 0 0 2 0 2 2 1 1 3 3 1 2 2 1 3 4 3 5 2 2 2 3 2 0 3 2 2 2 1 0 2 2 3 0 3 5 3 0 0 0 3 1 1 1 1 2 4 4 1 1 3 3 1 3 1 4 2 2 1 1 0 1 2 3 0 3 3 0 2 0 1 2 2 3 2 0 1 2 1 3 0 2 0 1 1 2 2 1 2 2 1 2 1 3 2 2 3 4 3 2 2 4 2 2 3 2 3 3 2 3 4 2 6 2 0 5 2 2 4 3 3 0 2 2 4 3 0 0 1 2 3 1 5 3 5 6 3 1 1 3 5 3 3 2 2 2 0 2 4 1 1 4 2 1 3 4 2 4 4 3 1 2 1 1 3 0 3 0 1 5 0 2 4 2 2 2 1 0 2 3 7 2 3 5 5 4 3 5 4 2 6 3 1 1 1 2 4 4 3 3 3 6 1 1 4 1 3 2 4 2 1 1 2 2 3 0 2 1 3 4 1 2 3 0 4 4 0 4 1 0 1 4 3 2 2 1 0 1 1 2 1 2 3 1 5 3 4 2 3 2 1 3 2 3 1 0 2 1 1 3 2 3 3 1 4 5 0 2 0 1 2 2 1 3 1 3 1 1 1 1 2 1 3 4 1 0 2 3 1 2 1 1 2 3 1 3 2 1 4 1 3 0 2 0 2 3 1 0 0 1 1 3 0 0 1 2 1 2 1 0 2 1 4 2 1 2 0 3 1 1 3 0 1 4 3 2 2 0 2 2 2 1 1 1 0 0 1 1 0 3 2 2 2 3 1 3 3 5 1 1 3 4 1 2 4 2 2 4 0 3 1 3 2 2 1 3 2 3 4 2 2 4 4 2 2 2 1 1 1 0 4 1 1 1 1 2 2 1 1 4 0 1 2 2 2 4 0 4 1 2 2 1 1 3 2 1 3 1 2 1 2 2 2 2 3 1 2 2 3 0 4 1 1 3 2 2 2 4 0 3 2 1 1 1 4 2 0 1 0 2 1 2 0 1 2 2 1 3 4 1 1 1 1 2 3 0 3 3 2 0 2 2 0 3 0 1 3 3 1 1 1 1 0 2 0 0 1 4 1 2 1 1 3 2 1 2 0 2 1 3 4 6 1 1 3 3 3 1 1 0 2 2 2 0 0 3 2 1 2 2 2 0 3 1 1 1 5 1 3 3 4 0 1 3 1 1 1 3 1 4 5 1 3 0 2 3 4 1 4 1 6 4 1 1 1 1 2 2 2 1 2 3 3 5 2 3 2 3 2 3 2 1 4 3 3 1 1 2 1 3 1 1 1 4 2 2 0 2 0 0 1 3 7 2 2 1 2 2 2 2 2 2 1 1 1 1 2 3 1 3 1 3 3 1 0 1 2 0 2 0 3 0 4 6 0 0 1 3 1 2 2 4 0 3 3 1 3 1 3 0 1 2 2 1 1 2 1 3 0 0 0 3 1 1 3 3 4 2 4 2 1 2 0 2 1 2 0 3 1 2 1 0 4 0 1 1 2 1 3 3 0 3 3 2 0 3 0 5 3 0 1 3 1 0 3 1 3 2 0 2 2 1 2 1 2 1 2 6 2 3 2 2 3 2 3 2 1 4 0 2 3 3 3 2 1 2 0 2 0 2 2 2 3 1 3 1 1 2 1 3 2 5 0 0 2 1 2 3 3 1 2 3 0 0 1 2 0 0 2 1 3 2 2 1 0 4 2 1 3 1 4 0 2 1 2 4 0 1 0 1 2 2 1 2 3 1 2 2 2 1 3 0 4 2 2 2 0 3 0 3 2 3 2 1 2 0 2 1 2 1 1 3 0 2 2 1 2 1 0 3 2 1 6 4 2 3 1 2 0 1 3 3 1 0 0 1 1 1 0 2 2 2 3 3 0 3 1 5 2 3 0 0 5 0 1 4 3 0 4 2 2 2 4 2 2 0 1 0 4 2 1 0 3 1 2 3 2 3 1 3 0 1 4 2 3 1 2 3 2 4 1 2 2 1 5 3 1 1 0 2 2 3 2 1 2 2 0 1 3 1 2 2 2 1 0 1 4 0 2 1 2 3 1 2 2 4 0 3 1 1 0 4 1 3 3 5 1 1 4 0 3 2 3 4 5 1 3 0 3 3 0 3 2 1 2 3 3 1 2 0 3 1 2 1 2 1 2 0 2 2 2 1 2 0 4 3 2 1 1 2 7 0 3 1 2 2 2 1 3 1 4 2 3 1 3 3 2 2 2 3 0 2 4 0 6 0 6 3 1 1 2 1 0 2 1 2 2 3 3 2 2 2 1 2 4 2 1 2 2 0 2 0 3 5 2 2 3 4 1 2 1 4 2 1 1 2 3 0 1 2 0 0 2 1 0 2 0 1 1 1 1 1 2 0 3 1 3 3 3 0 1 1 3 1 1 2 1 0 1 0 1 2 2 2 3 1 1 1 3 0 1 0 2 2 3 0 1 1 0 1 1 0 1 1 2 1 1 1 0 3 1 0 2 1 0 0 1 3 2 2 2 2 1 1 1 2 4 0 2 1 4 2 1 0 0 3 0 0 1 2 3 2 2 3 5 3 1 1 2 1 2 0 2 2 0 1 1 2 1 3 1 3 1 1 1 4 1 2 2 2 1 2 8 1 1 5 5 1 2 2 1 2 4 2 2 3 1 3 1 1 4 3 3 2 3 1 1 2 1 3 5 4 1 0 3 1 0 0 1 0 0 2 2 1 1 2 1 4 0 2 1 0 0 2 1 2 2 5 2 2 2 1 3 1 1 1 4 3 0 0 2 0 3 2 1 0 0 3 3 4 2 0 0 3 1 2 0 1 1 1 3 1 1 2 2 2 3 2 1 0 5 1 2 2 1 2 0 0 2 1 1 2 3 1 1 1 1 3 2 3 1 2 1 1 1 2 2 1 0 
BTB PER SET COUNT: 1 2 2 2 0 0 1 1 4 0 2 0 1 1 0 1 3 1 1 2 0 1 1 2 1 2 1 2 1474 1 2 2 2 1 3 0 0 3 7 0 1 2 8 6 1 1 3 1 4 1 1 1 2 0 0 2 3 3 1 1 1 2 2 2 0 362 6 0 2 2 789 1 1 2 1 1 477 801 3 1 1 2 2 4 3 3 1 5 3 2 9 534 2 3 3 0 1 5 0 1 3 2 2 3 3 2 1 1 3 0 1 2 3 2 1 4 1 2 1 0 3 3 2 0 3 1 1 1 3 3 478 0 1 1 3 1 0 0 1 2 2 4 4 1 3 4 4 3 3 2 1 1466 1 2 8 1 0 3 2 1 0 0 0 1 8 4 0 1 2497 2 2 2 2 1 1 0 1 1 1000 1 1 3 6319 2 3 2 4 0 1 1 4 1 1 2 1 5 1 1 0 1 2 1 1 0 0 0 1 1 1 0 0 4 2 1 2 1 0 2 1 0 0 1 1 4 2 0 2 34 0 3 2121 3 1 2 1 3 3 1 1 2 1 0 2 2 1412 3 1 1 3 1 1 1 1 1 0 7 3 2 2 2 3 3 2 2 3 4 4 0 2 1 2 2 1 2 3 3 2 0 3 2 3 2 1 1 2 952 2 1 1 1 0 0 1 4 0 1 3 2 0 1 2 2 1 1 2 2 5 2 3 3 2 1 2 2 3 0 2 2 1 3 1 2 2 3 0 3 1 7 0 0 962 0 2 3 1000 1 952 3 4 0 4 0 0 952 953 3 1 2 1 7 1 5 3 3 2 2 1 0 3 0 0 2 1 2 5 2 1 0 0 0 4 1 2 0 1 2 2 2 3 3 0 0 1 4 0 0 2 1 2 1 1 2 2 2 2 0 3 0 0 3 3 1 4 1 1 0 1474 3 0 998 0 0 1 2 1 0 5 1 1 85 1 1 3 2 2 4 0 0 1 3 0 0 4 2 3 3 2 1 2 0 0 4 3 2 2 1 1 2 1 1 3 0 0 2 3 0 1 2 2 2 3 0 3 2 0 0 2 0 1 3 0 1 1 476 2 1 0 1 1 0 0 1 1 477 0 2 2 0 3 1 3 1 2 2 0 2 1 1 2 0 3 0 0 1 0 2 1 0 0 2 3 2 4 4 5 0 1 3 1 483 1 1 3 1 3 3 1 4 3 2 6 1 2 3 1 494 0 0 12 0 0 4 3 1 12 1 12 3 4 4 2 4 4 3 0 1 1 0 2 2 6362 0 1 2 1 0 0 1 3 4 4 0 1 6 2 0 0 4 0 0 1 1 1 0 2 0 0 5 1 1 5 2 0 2 998 2 3 0 2 2 1 0 1 3 0 1 1 1 4 0 2 2 2 1 2 1 1090 0 2 1 5 1 6 0 2 2 2 2 1 0 478 1 0 8 2 4 0 1 1 2 8 1 3 3 0 0 3 1 2 1 3 1 4 1 1 0 7 0 1 3 7751 2 3 3 2 2 2 952 0 0 5 2 1 0 4 953 0 1 4 2 1 0 2 953 2 1 1 1475 2 1 0 954 1 1 1 3 3 3 2 3 0 2 0 2 1 952 0 1 0 0 1 2 0 1 953 0 1474 1 0 2 2 0 1 1 0 1 1 1 0 3 3 2 999 0 1 1 10 1 1 0 1 2 1 2 1 0 3 1 2 941 0 0 2 3 0 1 2 4 1 0 1 1 0 2 0 1 3 1 0 0 2 2 0 0 1 2 5 5 1 1 2 1 0 0 3 4 6 4 0 0 1 40 0 0 3 4 4 1 1 0 2 2 1 2 1 1 2 6 0 5 0 2 1 0 3 1 1 0 0 3 4 0 1 0 3 1 1 1 1 89 1 1 2 1 3 0 15 0 3 2 0 1 0 2 0 1 3 2 3 0 3 1 4 1 3 3 0 0 1 0 0 0 0 1 4 1 1 0 2 0 1 1 1 4 1 0 4 3 4 1 2 1 3 0 0 0 1 2 0 0 3 0 1 2 1 2 6 0 1 1 1 0 0 2 1 4 0 1 0 7 3 3 0 0 1 2 0 1 1 2 4 1 3 1 3 0 3 0 2 1 4 1 4 530 2 1 53 2 0 1 1 1 0 1000 4 2 1 2 2 1 1 0 4 1 3 1 10 5 2 1 2 491 2 2 2 4 1053 2 2 2 1 1 0 359 3 2 3 4 1 2 3 2 2 4 1 3 1 4 2 1 9 1 1 2 2 1 2 2 1 4 0 1 2 1 2 4 4 8 0 1 1907 0 2474 0 1 2 4 6 1 4 4 4 3297 4 0 2 3 1 1 1 3 4 2 1 3 0 0 1 0 0 2 0 1 3 0 2 6 1 3 3 0 1 3 2 1 362 2 1 2 3 0 1 2 0 4 0 1 3 4 5 1 4 3 2 0 1 7829 0 1 1 1 1 2 5 1 8 3 3 3 4 2 4 2 2 3 0 6 1 1 2 1 25 1 0 4 1 1 1 478 1 1 2 3 5 2 2 2 2 2 6 5 2 1 2 2 1 4 3 1 4 2 3 2 1 3 5 0 1 4 1 0 2 1 0 1 3 2 3 1 2 1 3 2 0 1 1 3 3 1 0 2 0 0 3 2 1 2 2 1 4 0 1 7 0 4 6 1 2 2 6 2 5 0 2392 11 0 2 1 2 0 0 1 492 0 1 1 4 105 1 0 0 477 3 2 1 2 0 0 1 4 1 5 2 2 0 8 0 1 2 8 1020 1 7 0 0 1 2 4 4 0 2 942 2 1 1 1 0 7 1 3 0 1 2 2382 3 1 2 2 0 2 5 2014 4 5 4 2 0 0 5 3 5 1 2 2 1 1 3 2 4 1 1 1 1 2 3419 3 4 0 0 2 1 1 3 2 3 0 0 1 2 1476 2 0 4 1 7 1 1 1 14 0 1 1 0 5 3 0 2 1 3 2 1 1 2 1 2 2 0 3 2 1 0 3 1 1 2 3 1 7 0 2 1 1 1 2 1 3 3 2 1 2 0 1 4 0 2 2 0 2 1 1 3 2 2 0 3 0 1 1 2 2 3 1 1 1 1 4 1 3 2 1 2 0 1 1 1 4 2 2 1 2 1 4 0 1 4 2 3 1 4 2 1 1 1 2 3 1 1 1 4 0 19 2 2 3 1 0 3 159 1 1 1 3 0 2 2 2 2 3 8 4 0 1 1 5 2 1 2 2 0 2 1475 0 1 1358 1 1 2 0 0 2 0 0 2 1356 0 2 1 3 4 1 1 0 1 1 1 0 1 0 0 3 2 0 1 1 0 1 1 0 0 0 1 0 0 1 0 0 1 0 2 0 2 1 1 0 1 0 0 5 21 0 1 1 3 2 1 0 2 2 153 0 5 0 1 1 1 1 1 0 2 0 3 375 0 1 18 0 0 1 0 3 1 2 2 1 29 4 3 2 0 1 1 0 0 0 4 0 1 1 0 0 0 1 0 1 1 0 2 412 2 1 2 1 2 2 2 2 1 0 1 2 2 0 0 1 2 1 10 1 0 1 1 12 3 0 0 1 2 1 0 0 3 1 3 0 2 1 3 2 1 3 4 3 1871 0 1 1 3 2 1 19 4 3 2 3 1489 0 0 2 1475 1 1 2 1 1 2 0 3 998 0 1 3 0 1 1 3 1 2 3 3 2851 0 1 4 0 2 6 2 2 2 2 3 3 1 1 1 274 2 2 1 7 2 1 11 1 1 3 5 1 1 1 3 0 2 1 3 3 0 0 1 1 0 3 3 1 0 2 2 0 1 5 2 1 950 2 1 0 0 3 2 951 0 0 0 3 491 0 2 1 3 3 3 1 625 1 2 5420 3 2 14745 951 1 3 3 16 1 1 1 0 0 2 3 1 2 0 0 3 3 1 152 2 0 0 1 1475 197 3 2 1 2 2 2 821 0 2 0 1 2 1 0 0 1 664 0 1 2 0 3 0 5 1 2 0 2 1 7 3 0 3 0 2 0 1 1 1 10 0 2 534 0 1 2 1 0 1 0 0 999 1 1 1 3 2 4 0 4 0 0 1 2 1474 1 2809 1 0 2 4 4 3 3 2 1723 1 444 3 0 2 1 3 206 8 113 0 3 1 2161 0 240 0 3 1489 2 2 1 1 1 0 1 2 0 2 0 1 5 5 2 1 6 409 2 4 1000 0 2 0 4 1 3 2 2 2 2 1 0 2 238 2 1 0 1 2 0 0 0 2 0 1 1 3 0 2 2 2 3 8 3 1 2 2 3 1 1 2 2 1 0 2 2 2 2 0 0 1 0 0 1 0 0 1 1 1 2 1 1 2 0 0 0 2 1 1 1 1 2 1 2 2 135 0 5 1 1 2 1 3 1 2 1 0 1 0 4 1 0 1 2 1 3 2 2 2 0 2 0 1 0 0 2 3 0 4 1475 4 0 2 3 1767 1 0 0 1 12 3 3 1 2 1 3 1 0 1 2 4 5 2852 2 0 3 0 1 1 1 1 2 1 0 2 0 1 2 3 2 0 0 4 4 1 0 0 2 3 1 0 3 3 1 0 3 3 0 1 2 4 0 0 0 2 2 0 4 0 1 0 2 2 3 0 2 2 225 1 2 1 0 2 1490 2 3 0 2 2 1 1 1 2 2 1 1 0 0 0 4 2 1 4 1 3 3 1490 3 6 3 1 3 4 0 2 2 1 5 5 2 3 2 2 2948 3 1 2 4 2 1 4 4948 4 2 3 3 2 2 1 2 1 0 1 1 0 3 2 0 2 0 1 1 0 1 4 1 3 0 0 0 2 1 2 1 1 0 3 1 1 0 0 0 2 1 1 0 1 3 1 1 2 0 0 3 1 2 2 1 2 2 0 1 0 0 1 0 3 1 0 0 4 1 3 1 3 3 1 2 2 0 0 0 2 1 1 4 4 3 2 3 4 5 3 2 2 2 1 3 1 1 2 1 9 1 2 2 3 3 3 2 3 2 0 4 1 2 4 6 1050 7 5 3 1999 2 1 4 1 1 1 4 2 0 5 3 6 4 0 2 1 1 2 4 5 1 1 1 3 1 2 2 2 3 4 3 2 4 5 2 2 3 2 6 3 1 1491 2 1 5 4 3 3 2 1 3 5 3 0 1 2 1 1 1 2 6 1 0 1 3 1 2 4 2 1 2 2 1 1 0 0 4 2 7 8 0 2 1 3 2 1 0 3 3 2 1 3 2 1 4 1 2 0 1474 3 0 2 2 1 1 0 2 1 2 0 0 1 0 1 5 1 7 1 4 2 1 2 0 0 0 3 0 3 4 0 7 1 3 1 1 1 1 1 3 0 1 0 5 4 4 0 1 0 2 3 5 7 1 2 3 1051 1 2 2 0 1 4 1 2 4 0 0 3 2 1 2 2 2 0 1 0 1 4 3 0 0 4 6 2 3 8 4 2 3 1 1 0 3 1 2 4 1 2 5 4 0 3 2 2 0 1 1 4 4 2 2 2 1 1 31 3 1 3 3 2 5 1 4 0 4 3 2 0 0 1 1478 0 1 1 1 1 1 1 1 3 3 0 1 0 1 3 4 3 998 3 121 2 0 2 0 0 1 4 3 2 7 0 1 5 141 2 6 1 2 2 1 2 3 0 4 0 2 1 3 17 1 1 2 1 1 3 1 3 2 1 0 1 485 1 0 3 1 4 2 4 6 3 4 0 0 4 26 2 1 0 5 4 1 1 2 0 1 0 0 2 1 0 3 0 2 1 2 2 0 4 8 2 0 2 2 10 1 1 1 0 1 3 2 1 0 0 1 4 0 1 1 2 3 1 4 1477 1 2 4 3 0 3 3 3 0 3 2 7 2 1 2 1 1 1 3 1 3 5 2 1 2 0 3 1882 3 5 1 3 1 2 6 1 2 2 1 3 4 2 1 1 4 2 0 3 0 4 2 6 1 2 3 2 1 27 4 34 1 0 0 0 0 2331 3 1 3 17 4 0 2 2 3 2 2 0 6 2 7 4 1 3 2 3 0 2 3 1 0 1 0 3 0 0 1 0 2 477 3 2 0 2 1 3 1 3 2 1476 3 1 3 1 3 4 2 1 3 0 1 1 1 0 2 3 1 5 2 1 2 1 2 0 1 3 1 0 3 0 2 1 3 4 2952 3 2 4 1 3 3 5 1 4 3 2 0 1 3 5 3 0 3 2 4 1 2 2 1 4 1 2 2 0 3 1 6 28 0 4 0 1 3 3 4 0 3 2 2 1 5 1 0 1 24 1 0 1 1 0 0 0 1 4 0 3 2 1 3 3 1 2 3 4 2 3 1 2 1 1 1 2 1 2 490 1 1 0 0 2 0 3 2 1 1 3 3 2 2 2 1 3 4 3 19 2 5 2 3 2 0 111 2 5 2 1 0 2 2 4 0 3 16 3 0 0 0 3 1 1 1 2 2 5 5 1 1 3 3 1 4 3 1905 3 3 1 2 0 1 3 3 0 3 5 0 2 0 1 2 2 3 2 0 1 2 1 3 0 2 0 1 1 2 4 1 2 2 1 2 1 3 1479 2 8 4 3 2 3 4 2 2 5 2 5 3 3 4 4 2 4915 2 0 10 1000 3 4 3 5 0 2 2 5 3 0 0 1 2 4 1 10 3 9 100 3 1 1 3 8 3 3 2 2 2 0 2 4 1 1 4 2 1 57 6 2 4 4 3 1 2 1 1 3 0 3 0 1 7 0 2 4 2 2 4 1 0 2 3 106 2 479 41 1312 4 3 1901 4 3 20 3 1 1 1 2 10 4 235 3 3 794 1 1 6 1 3 2 4 2 1 1 2 2 3 0 2 1 3 4 1 2 3 0 4 4 0 1002 1 0 1 5 3 477 2 1 0 1 1 2 1 3 4 1 1902 3 5 3 3 2 1 3 4 3 1 0 2 1 1 3 2 3 3 1 361 957 0 2 0 1 2 2 1 3 1 3 1 1 1 1 2 1 4 4 1 0 2 3 1 2 2 1 2 3 1 3 2 1 4 1 3 0 2 0 2 1476 1 0 0 1 1 3 0 0 1 2 1 2 1 0 3 1 4 2 1 2 0 3 1 1 3 0 1 4 99 3 2 0 2 2 2 1 1 1 0 0 1 1 0 3 2 2 2 3 1 3 3 34 1 1 3 4 1 3 4 2 2 4 0 4 1 3 2 2 1 3 2 3 4 3 2 4 4 2 2 2 1 1 2 0 4 1 1 1 1 2 2 1 1 494 0 1 2 2 2 4 0 4 1 2 2 1 1 3 2 1 3 1 2 1 2 2 2 4 3 1 2 2 3 0 4 1 1 3 2 3 2 1001 0 5 2 1 1 1 4 2 0 1 0 2 1 2 0 1 2 2 1 3 4 1 1 1 1 2 3 0 3 3 2 0 2 2 0 3 0 1 3 3 1 1 1 1 0 4 0 0 1 4 1 2 1 1 3 2 1 2 0 2 1 3 4 4496 2 1 1476 3 3 1 1 0 2 3 2 0 0 3 2 1 2 2 2 0 4 1 1 1 388 1 4 3 4 0 1 3 1 1 1 3 1 4 1168 998 3 0 2 3 5 1 4 1 2382 6 1 1 1 1 2 4 2 1 2 3 3 13 2 3 2 478 2 3 8 1 85 3 3 1 1 2 1 3 1 1 1 4 2 2 0 2 0 0 1 3 2849 2 2 1 2 2 2 2 2 3 1 1 1 1 3 3 1 3 1 4 3 1 0 1 2 0 2 0 3 0 4 14 0 0 1 3 998 2 2 7 0 3 34 1 3 1 3 0 1 3 2 1 1 3 1 3 0 0 0 3 1 1 4 3 4 2 10 2 1 2 0 2 1 2 0 3 1 2 1 0 4 0 1 1 3 1 4 4 0 3 4 2 0 12 0 551 4 0 1 4 2 0 3 1 4 2 0 3 3 2 2 1 3 1 2 2340 2 3 8 2 3 2 3 2 1 7 0 5 7 4 1002 2 1 2 0 3 0 2 2 2 3 1 3 940 1 12 2 3 2 1410 0 0 4 1 2 4 6 1 2 20645 0 0 1 2 0 0 2 1 4 251 2 1 0 33 2 1 3 1 5 0 2 1 2 4 0 9 0 1 2 2 1 2 3 1 4 2 2 1 3 0 4 2 2 4 0 5 0 3 2 3 2 1 2 0 2 1 2 2 1 4 0 2 2 2 2 1 0 3 2 1 2165 4 2 5 1 2 0 1 3 1000 1 0 0 1 1 1 0 2 2 2 6 4 0 3 1 11 2 4 0 0 13 0 1 18 3 0 4 2 2 3 4 2 2 0 1 0 4 4 1 0 3 1 2 5 3 3 1 4 0 1 4 2 4 1 4 3 2 4 1 3 2 1 28 3 1 359 0 1475 2 3 199 1 2 2 0 1 3 1 2 2 2 2 0 1 5 0 2 1 2 4 1 478 2 4 0 8 1 1 0 4 1 479 4 1902 1 1 4 0 3 2 4 4 8 1 3 0 4 3 0 479 2 1 2 3 4 1 3 0 5 1 361 1474 2 1 2 0 3 2 2 1 2 0 6 3 2 1 1 2 2847 0 1476 1 2 2 2 1 3 1 4 2 3 1 3 8 3 2 2 3 0 2 4 0 4456 0 1177 3 1 1 2 1 0 2 1 3 2 3 4 2 2 2 2 2 4 2 1 2 2 0 2 0 4 1880 1000 2 5 4 1 3 1 4 2 1 1 2 3 0 1 2 0 0 2 1 0 2 0 2 1 1 1 1 2 0 3 1 3 3 4 0 1 2 3 1 1 2 2 0 1 0 1 4 2 2 3 1 3 1 545 0 1 0 2 2 3 0 1 1 0 1 1 0 1 1 2 1 1 1 0 28 1 0 2 1 0 0 1 3 2 2 2 2 1 1 1 2 4 0 2 1 4 2 1 0 0 4 0 0 1 2 3 2 941 4 8 3 1 2 2 1 2 0 2 4 0 1 1 2 1 3 2 3 1 1 1 4 1 2 2 2 1 2 3216 1 1 1312 5 1 2 3 3 2 5 2 2 16 2 4 2 2 4 3 942 2 3 1 1 2 1 3 186 5 2 0 3 2 0 0 2 0 0 3 2 1 1 2 1 4 0 8 1 0 0 2 1 2 2 1233 3 3 3 1 493 1 1 1 4 4 0 0 2 0 4 2 1 0 0 3 3 4 2 0 0 3 1 2 0 1 1 1 4 1 1 2 2 2 4 2 1 0 33 1 2 2 1 2 0 0 3 1 1 2 3 1 2 1 1 3 2 3 1 2 1 1 1 9 2 1 0 
