
*** ChampSim Multicore Out-of-Order Simulator ***

Warmup Instructions: 50000000
Simulation Instructions: 50000000
Number of CPUs: 1
LLC sets: 2048
LLC ways: 16
Off-chip DRAM Size: 4096 MB Channels: 1 Width: 64-bit Data Rate: 6400 MT/s
CPU 0 runs ./micro_traces/srv149.trace.gz
.gz
ITLB has LRU replacement policy
DTLB has LRU replacement policy
STLB has LRU replacement policy
FDIP Prefetcher at L1I
L1I has LRU replacement policy
L1D has LRU replacement policy
Initialize SRRIP state for L2C
Initialize DRRIP state for LLC
Heartbeat_Variant_0 : 1313 0.320557 per_variant_size: 0 1313 0 0 0 0 0 0 0 
Heartbeat_Variant_1 : 1188 0.290039 per_variant_size: 0 583 605 0 0 0 0 0 0 
Heartbeat_Variant_2 : 1308 0.319336 per_variant_size: 0 569 344 202 193 0 0 0 0 
Heartbeat_Variant_3 : 0 0 per_variant_size: 0 0 0 0 0 0 0 0 0 
Heartbeat_Variant_0_evicts 0 : 5642 1 : 216 2 : 219 3 : 0 
Heartbeat_Variant_1_evicts 0 : 199 1 : 0 2 : 359 3 : 0 
Heartbeat_Variant_2_evicts 0 : 213 1 : 362 2 : 0 3 : 0 
Heartbeat_Variant_3_evicts 0 : 0 1 : 0 2 : 0 3 : 0 
Heartbeat CPU 0 instructions: 10000001 cycles: 2794166 heartbeat IPC: 3.57889 cumulative IPC: 3.57889 (Simulation time: 0 hr 1 min 38 sec) 
Heartbeat_Variant_0 : 1365 0.333252 per_variant_size: 0 1365 0 0 0 0 0 0 0 
Heartbeat_Variant_1 : 1263 0.30835 per_variant_size: 0 569 694 0 0 0 0 0 0 
Heartbeat_Variant_2 : 1368 0.333984 per_variant_size: 0 528 395 234 211 0 0 0 0 
Heartbeat_Variant_3 : 0 0 per_variant_size: 0 0 0 0 0 0 0 0 0 
Heartbeat_Variant_0_evicts 0 : 5808 1 : 347 2 : 340 3 : 0 
Heartbeat_Variant_1_evicts 0 : 362 1 : 0 2 : 487 3 : 0 
Heartbeat_Variant_2_evicts 0 : 328 1 : 497 2 : 0 3 : 0 
Heartbeat_Variant_3_evicts 0 : 0 1 : 0 2 : 0 3 : 0 
Heartbeat CPU 0 instructions: 20000000 cycles: 5588515 heartbeat IPC: 3.57865 cumulative IPC: 3.57877 (Simulation time: 0 hr 3 min 13 sec) 
Heartbeat_Variant_0 : 1370 0.334473 per_variant_size: 0 1370 0 0 0 0 0 0 0 
Heartbeat_Variant_1 : 1266 0.309082 per_variant_size: 0 557 709 0 0 0 0 0 0 
Heartbeat_Variant_2 : 1367 0.33374 per_variant_size: 0 520 410 225 212 0 0 0 0 
Heartbeat_Variant_3 : 0 0 per_variant_size: 0 0 0 0 0 0 0 0 0 
Heartbeat_Variant_0_evicts 0 : 5551 1 : 71 2 : 79 3 : 0 
Heartbeat_Variant_1_evicts 0 : 76 1 : 0 2 : 243 3 : 0 
Heartbeat_Variant_2_evicts 0 : 73 1 : 246 2 : 0 3 : 0 
Heartbeat_Variant_3_evicts 0 : 0 1 : 0 2 : 0 3 : 0 
Heartbeat CPU 0 instructions: 30000003 cycles: 8383037 heartbeat IPC: 3.57843 cumulative IPC: 3.57866 (Simulation time: 0 hr 4 min 53 sec) 
Heartbeat_Variant_0 : 1377 0.336182 per_variant_size: 0 1377 0 0 0 0 0 0 0 
Heartbeat_Variant_1 : 1280 0.3125 per_variant_size: 0 574 706 0 0 0 0 0 0 
Heartbeat_Variant_2 : 1370 0.334473 per_variant_size: 0 525 398 234 213 0 0 0 0 
Heartbeat_Variant_3 : 0 0 per_variant_size: 0 0 0 0 0 0 0 0 0 
Heartbeat_Variant_0_evicts 0 : 5712 1 : 161 2 : 186 3 : 0 
Heartbeat_Variant_1_evicts 0 : 164 1 : 0 2 : 364 3 : 0 
Heartbeat_Variant_2_evicts 0 : 180 1 : 359 2 : 0 3 : 0 
Heartbeat_Variant_3_evicts 0 : 0 1 : 0 2 : 0 3 : 0 
Heartbeat CPU 0 instructions: 40000002 cycles: 11178204 heartbeat IPC: 3.5776 cumulative IPC: 3.57839 (Simulation time: 0 hr 6 min 31 sec) 
*** Reached end of trace for Core: 0 Repeating trace: ./micro_traces/srv149.trace.gz
Heartbeat_Variant_0 : 1385 0.338135 per_variant_size: 0 1385 0 0 0 0 0 0 0 
Heartbeat_Variant_1 : 1285 0.313721 per_variant_size: 0 573 712 0 0 0 0 0 0 
Heartbeat_Variant_2 : 1380 0.336914 per_variant_size: 0 546 380 237 217 0 0 0 0 
Heartbeat_Variant_3 : 0 0 per_variant_size: 0 0 0 0 0 0 0 0 0 
Heartbeat_Variant_0_evicts 0 : 5693 1 : 242 2 : 239 3 : 0 
Heartbeat_Variant_1_evicts 0 : 230 1 : 0 2 : 455 3 : 0 
Heartbeat_Variant_2_evicts 0 : 246 1 : 446 2 : 0 3 : 0 
Heartbeat_Variant_3_evicts 0 : 0 1 : 0 2 : 0 3 : 0 
Heartbeat CPU 0 instructions: 50000000 cycles: 13972968 heartbeat IPC: 3.57812 cumulative IPC: 3.57834 (Simulation time: 0 hr 8 min 9 sec) 

Warmup complete CPU 0 instructions: 50000004 cycles: 13972969 (Simulation time: 0 hr 8 min 9 sec) 

Cycle: 20000000 FTQ IN: 58214810 FTQ occupancy: 19.9613 DECODE IN: 58214739 DECODE occupancy: 52.0496 ROB IN: 58214739 ROB occupancy: 315.33 ROB OUT: 58214634
Heartbeat_Variant_0 : 1391 0.3396 per_variant_size: 0 1391 0 0 0 0 0 0 0 
Heartbeat_Variant_1 : 1283 0.313232 per_variant_size: 0 567 716 0 0 0 0 0 0 
Heartbeat_Variant_2 : 1378 0.336426 per_variant_size: 0 521 397 249 211 0 0 0 0 
Heartbeat_Variant_3 : 0 0 per_variant_size: 0 0 0 0 0 0 0 0 0 
Heartbeat_Variant_0_evicts 0 : 5562 1 : 114 2 : 117 3 : 0 
Heartbeat_Variant_1_evicts 0 : 109 1 : 0 2 : 294 3 : 0 
Heartbeat_Variant_2_evicts 0 : 116 1 : 292 2 : 0 3 : 0 
Heartbeat_Variant_3_evicts 0 : 0 1 : 0 2 : 0 3 : 0 
Heartbeat CPU 0 instructions: 60000003 cycles: 21307166 heartbeat IPC: 1.36348 cumulative IPC: 1.36348 (Simulation time: 0 hr 9 min 59 sec) 
Heartbeat_Variant_0 : 1387 0.338623 per_variant_size: 0 1387 0 0 0 0 0 0 0 
Heartbeat_Variant_1 : 1302 0.317871 per_variant_size: 0 586 716 0 0 0 0 0 0 
Heartbeat_Variant_2 : 1366 0.333496 per_variant_size: 0 507 393 266 200 0 0 0 0 
Heartbeat_Variant_3 : 0 0 per_variant_size: 0 0 0 0 0 0 0 0 0 
Heartbeat_Variant_0_evicts 0 : 5669 1 : 183 2 : 191 3 : 0 
Heartbeat_Variant_1_evicts 0 : 198 1 : 0 2 : 400 3 : 0 
Heartbeat_Variant_2_evicts 0 : 180 1 : 397 2 : 0 3 : 0 
Heartbeat_Variant_3_evicts 0 : 0 1 : 0 2 : 0 3 : 0 
Heartbeat CPU 0 instructions: 70000000 cycles: 28560090 heartbeat IPC: 1.37875 cumulative IPC: 1.37107 (Simulation time: 0 hr 11 min 44 sec) 
Cycle: 30000000 FTQ IN: 13795756 FTQ occupancy: 12.5722 DECODE IN: 13795766 DECODE occupancy: 32.8383 ROB IN: 13795738 ROB occupancy: 235.538 ROB OUT: 13795491
Heartbeat_Variant_0 : 1387 0.338623 per_variant_size: 0 1387 0 0 0 0 0 0 0 
Heartbeat_Variant_1 : 1311 0.320068 per_variant_size: 0 595 716 0 0 0 0 0 0 
Heartbeat_Variant_2 : 1360 0.332031 per_variant_size: 0 489 391 279 201 0 0 0 0 
Heartbeat_Variant_3 : 0 0 per_variant_size: 0 0 0 0 0 0 0 0 0 
Heartbeat_Variant_0_evicts 0 : 5600 1 : 71 2 : 71 3 : 0 
Heartbeat_Variant_1_evicts 0 : 87 1 : 0 2 : 252 3 : 0 
Heartbeat_Variant_2_evicts 0 : 55 1 : 261 2 : 0 3 : 0 
Heartbeat_Variant_3_evicts 0 : 0 1 : 0 2 : 0 3 : 0 
Heartbeat CPU 0 instructions: 80000000 cycles: 35824588 heartbeat IPC: 1.37656 cumulative IPC: 1.3729 (Simulation time: 0 hr 13 min 36 sec) 
Cycle: 40000000 FTQ IN: 13771400 FTQ occupancy: 12.9116 DECODE IN: 13771354 DECODE occupancy: 33.4449 ROB IN: 13771382 ROB occupancy: 236.849 ROB OUT: 13771728
Heartbeat_Variant_0 : 1392 0.339844 per_variant_size: 0 1392 0 0 0 0 0 0 0 
Heartbeat_Variant_1 : 1309 0.31958 per_variant_size: 0 602 707 0 0 0 0 0 0 
Heartbeat_Variant_2 : 1365 0.333252 per_variant_size: 0 493 396 267 209 0 0 0 0 
Heartbeat_Variant_3 : 0 0 per_variant_size: 0 0 0 0 0 0 0 0 0 
Heartbeat_Variant_0_evicts 0 : 5856 1 : 262 2 : 260 3 : 0 
Heartbeat_Variant_1_evicts 0 : 263 1 : 0 2 : 424 3 : 0 
Heartbeat_Variant_2_evicts 0 : 256 1 : 429 2 : 0 3 : 0 
Heartbeat_Variant_3_evicts 0 : 0 1 : 0 2 : 0 3 : 0 
Heartbeat CPU 0 instructions: 90000002 cycles: 43073701 heartbeat IPC: 1.37948 cumulative IPC: 1.37454 (Simulation time: 0 hr 15 min 25 sec) 
*** Reached end of trace for Core: 0 Repeating trace: ./micro_traces/srv149.trace.gz
Cycle: 50000000 FTQ IN: 13846258 FTQ occupancy: 12.8442 DECODE IN: 13846319 DECODE occupancy: 33.5384 ROB IN: 13846259 ROB occupancy: 237.293 ROB OUT: 13845917
Heartbeat_Variant_0 : 1392 0.339844 per_variant_size: 0 1392 0 0 0 0 0 0 0 
Heartbeat_Variant_1 : 1303 0.318115 per_variant_size: 0 591 712 0 0 0 0 0 0 
Heartbeat_Variant_2 : 1373 0.335205 per_variant_size: 0 509 395 261 208 0 0 0 0 
Heartbeat_Variant_3 : 0 0 per_variant_size: 0 0 0 0 0 0 0 0 0 
Heartbeat_Variant_0_evicts 0 : 5499 1 : 57 2 : 56 3 : 0 
Heartbeat_Variant_1_evicts 0 : 55 1 : 0 2 : 233 3 : 0 
Heartbeat_Variant_2_evicts 0 : 58 1 : 237 2 : 0 3 : 0 
Heartbeat_Variant_3_evicts 0 : 0 1 : 0 2 : 0 3 : 0 
Heartbeat CPU 0 instructions: 100000000 cycles: 50272347 heartbeat IPC: 1.38915 cumulative IPC: 1.37743 (Simulation time: 0 hr 17 min 39 sec) 
Finished CPU 0 instructions: 50000000 cycles: 36299379 cumulative IPC: 1.37743 (Simulation time: 0 hr 17 min 39 sec) 

ChampSim completed all CPUs

Region of Interest Statistics

CPU 0 cumulative IPC: 1.37743 instructions: 50000000 cycles: 36299379
 Fetch stage stalled: 54.042  Sim cycles: 36299379 fetch stall cycle: 19616906
 Empty decode stage: 35.9215  Sim cycles: 36299379 fetch stall cycle: 13039272
ITLB TOTAL     ACCESS:    5849539  HIT:    5357211  MISS:     492328  HIT %:    91.5835  MISS %:    8.41653   MPKI: 9.84656
ITLB LOAD TRANSLATION INSTRUCTION	ACCESS:    5724633  HIT:    5232305  MISS:     492328  HIT %:    91.3998  MISS %:    8.60017  MPKI: 9.84656
ITLB TRANSLATION FROM L1D PREFETCHER INSTRUCTION	ACCESS:     124906  HIT:     124906  MISS:          0  HIT %:        100  MISS %:          0  MPKI: 0

ITLB AVERAGE MISS LATENCY: 9.05884 cycles
ITLB RQ	ACCESS:    7973079	FORWARD:          0	MERGED:    1678611	TO_CACHE:    6294468

DTLB TOTAL     ACCESS:    8924720  HIT:    8448530  MISS:     476190  HIT %:    94.6644  MISS %:    5.33563   MPKI: 9.5238
DTLB LOAD TRANSLATION DATA	ACCESS:    8924720  HIT:    8448530  MISS:     476190  HIT %:    94.6644  MISS %:    5.33563  MPKI: 9.5238

DTLB AVERAGE MISS LATENCY: 9.27229 cycles
DTLB RQ	ACCESS:   13283765	FORWARD:          0	MERGED:    4322897	TO_CACHE:    8960868

STLB TOTAL     ACCESS:    1225121  HIT:    1222790  MISS:       2331  HIT %:    99.8097  MISS %:   0.190267   MPKI: 0.04662
STLB LOAD TRANSLATION INSTRUCTION	ACCESS:     492328  HIT:     491991  MISS:        337  HIT %:    99.9315  MISS %:  0.0684503  MPKI: 0.00674
STLB LOAD TRANSLATION DATA	ACCESS:     476183  HIT:     474231  MISS:       1952  HIT %:    99.5901  MISS %:   0.409926  MPKI: 0.03904
STLB TRANSLATION FROM L1D PREFETCHER DATA	ACCESS:     256610  HIT:     256568  MISS:         42  HIT %:    99.9836  MISS %:  0.0163672  MPKI: 0.00084

STLB AVERAGE MISS LATENCY: 56.3771 cycles
STLB RQ	ACCESS:    1381555	FORWARD:          0	MERGED:     156403	TO_CACHE:    1225152

STLB Hit, L1D data hit: 0
STLB Hit, L2C data hit: 0
STLB Hit, LLC data hit: 0
STLB Hit, LLC data miss: 0
STLB STLB hints to L2: 0
L1D TOTAL     ACCESS:   13035129  HIT:   11838018  MISS:    1197111  HIT %:    90.8163  MISS %:    9.18373   MPKI: 23.9422
L1D LOAD DATA	ACCESS:    6544281  HIT:    5755373  MISS:     788908  HIT %:    87.9451  MISS %:    12.0549  MPKI: 15.7782
L1D RFO DATA	ACCESS:    6152633  HIT:    5856272  MISS:     296361  HIT %:    95.1832  MISS %:    4.81682  MPKI: 5.92722
L1D PREFETCH DATA	ACCESS:     338215  HIT:     226373  MISS:     111842  HIT %:    66.9317  MISS %:    33.0683  MPKI: 2.23684

L1D PREFETCH  REQUESTED:     826467  ISSUED:     826467  USEFUL:      55002  USELESS:      73039
L1D USEFUL LOAD PREFETCHES:      55002 PREFETCH ISSUED TO LOWER LEVEL:     128120  ACCURACY: 42.9301
 TIMELY PREFETCHES:      55002 LATE PREFETCHES: 16201 DROPPED PREFETCHES: 2
L1D AVERAGE MISS LATENCY: 428019 cycles
L1D RQ	ACCESS:   10654493	FORWARD:          0	MERGED:    3910366	TO_CACHE:    6580883
L1D WQ	ACCESS:    6899288	FORWARD:     163637	MERGED:     196406	TO_CACHE:    6702882
L1D PQ	ACCESS:     413430	FORWARD:          0	MERGED:          0	TO_CACHE:     413037

L1D UNIQUE REGIONS ACCESSED: 0
L1D REGIONS CONFLICTS: 0
L1D Cross Page Prefetch Requests: 7922
L1D Same Page Prefetch Requests: 832018
L1D ROI Sum of L1D PQ occupancy: 5230585
L1D PREFETCHES PUSHED FROM L2C: 0
L1I TOTAL     ACCESS:    7139735  HIT:    4382796  MISS:    2756939  HIT %:     61.386  MISS %:     38.614   MPKI: 55.1388
L1I LOAD INSTRUCTION	ACCESS:    6483807  HIT:    3726868  MISS:    2756939  HIT %:    57.4796  MISS %:    42.5204  MPKI: 55.1388
L1I PREFETCH INSTRUCTION	ACCESS:     655928  HIT:     655928  MISS:          0  HIT %:        100  MISS %:          0  MPKI: 0

L1I PREFETCH  REQUESTED:    1601068  ISSUED:    1601068  USEFUL:          0  USELESS:          0
L1I USEFUL LOAD PREFETCHES:          0 PREFETCH ISSUED TO LOWER LEVEL:          0  ACCURACY: -nan
 TIMELY PREFETCHES:          0 LATE PREFETCHES: 0 DROPPED PREFETCHES: 0
L1I AVERAGE MISS LATENCY: 17.0647 cycles
L1I RQ	ACCESS:    9518912	FORWARD:          0	MERGED:    2709780	TO_CACHE:    6809132
L1I PQ	ACCESS:    1601068	FORWARD:          0	MERGED:     437121	TO_CACHE:    1163947

L1BTB TOTAL     ACCESS:    5687286  HIT:    2073080  MISS:    3614206  HIT %:    36.4511  MISS %:    63.5489   MPKI: 72.2841
L1BTB BRANCH_DIRECT_JUMP	ACCESS:     541789  HIT:     141971  MISS:     399818	AVERAGE STALL: 50.2502
L1BTB BRANCH_INDIRECT	ACCESS:     180368  HIT:      64655  MISS:     115713	AVERAGE STALL: 101.318
L1BTB BRANCH_CONDITIONAL	ACCESS:    2738395  HIT:    1452549  MISS:    1285846	AVERAGE STALL: 65.4914
L1BTB BRANCH_DIRECT_CALL	ACCESS:     942516  HIT:     103589  MISS:     838927	AVERAGE STALL: 65.0483
L1BTB BRANCH_INDIRECT_CALL	ACCESS:     170854  HIT:      21208  MISS:     149646	AVERAGE STALL: 133.104
L1BTB BRANCH_RETURN	ACCESS:    1113364  HIT:     289108  MISS:     824256	AVERAGE STALL: 51.3951
L1BTB BRANCH_OTHER ACCESS:          0  HIT:          0  MISS:          0	AVERAGE STALL: -nan
L1BTB TOTAL ROB OCCUPANCY AT BTB MISS: 2.85155

L2BTB TOTAL     ACCESS:    3589350  HIT:    3520574  MISS:      68776  HIT %:    98.0839  MISS %:    1.91611   MPKI: 1.37552
L2BTB BRANCH_DIRECT_JUMP	ACCESS:     395783  HIT:     391413  MISS:       4370	AVERAGE STALL: 50.2502
L2BTB BRANCH_INDIRECT	ACCESS:     105482  HIT:     102781  MISS:       2701	AVERAGE STALL: 101.318
L2BTB BRANCH_CONDITIONAL	ACCESS:    1285846  HIT:    1279075  MISS:       6771	AVERAGE STALL: 65.4914
L2BTB BRANCH_DIRECT_CALL	ACCESS:     838927  HIT:     836532  MISS:       2395	AVERAGE STALL: 65.0483
L2BTB BRANCH_INDIRECT_CALL	ACCESS:     140288  HIT:     130092  MISS:      10196	AVERAGE STALL: 133.104
L2BTB BRANCH_RETURN	ACCESS:     823024  HIT:     780681  MISS:      42343	AVERAGE STALL: 51.3951
L2BTB BRANCH_OTHER ACCESS:          0  HIT:          0  MISS:          0	AVERAGE STALL: -nan
L2BTB TOTAL ROB OCCUPANCY AT BTB MISS: 149.85

L2C TOTAL     ACCESS:    4587965  HIT:    4098941  MISS:     489024  HIT %:    89.3412  MISS %:    10.6588   MPKI: 9.78048
L2C LOAD INSTRUCTION	ACCESS:    2756939  HIT:    2508718  MISS:     248221  HIT %:    90.9965  MISS %:     9.0035  MPKI: 4.96442
L2C LOAD TRANSLATION INSTRUCTION	ACCESS:        387  HIT:        110  MISS:        277  HIT %:    28.4238  MISS %:    71.5762  MPKI: 0.00554
L2C LOAD DATA	ACCESS:     772684  HIT:     685535  MISS:      87149  HIT %:    88.7213  MISS %:    11.2787  MPKI: 1.74298
L2C RFO DATA	ACCESS:     296259  HIT:     240195  MISS:      56064  HIT %:     81.076  MISS %:     18.924  MPKI: 1.12128
L2C PREFETCH DATA	ACCESS:     220232  HIT:     137161  MISS:      83071  HIT %:    62.2802  MISS %:    37.7198  MPKI: 1.66142
L2C WRITEBACK DATA	ACCESS:     539339  HIT:     526613  MISS:      12726  HIT %:    97.6404  MISS %:    2.35955  MPKI: 0.25452
L2C LOAD TRANSLATION DATA	ACCESS:       2076  HIT:        566  MISS:       1510  HIT %:     27.264  MISS %:     72.736  MPKI: 0.0302
L2C TRANSLATION FROM L1D PREFETCHER DATA	ACCESS:         49  HIT:         43  MISS:          6  HIT %:    87.7551  MISS %:    12.2449  MPKI: 0.00012

L2C PREFETCH  REQUESTED:     100264  ISSUED:     100264  USEFUL:       9466  USELESS:      74252
L2C USEFUL LOAD PREFETCHES:       9466 PREFETCH ISSUED TO LOWER LEVEL:      83630  ACCURACY: 11.3189
 TIMELY PREFETCHES:       9466 LATE PREFETCHES: 559 DROPPED PREFETCHES: 0
L2C AVERAGE MISS LATENCY: 39.3311 cycles
L2C RQ	ACCESS:    3828442	FORWARD:          0	MERGED:          0	TO_CACHE:    3828394
L2C WQ	ACCESS:     539339	FORWARD:         50	MERGED:          0	TO_CACHE:     539339
L2C PQ	ACCESS:     228384	FORWARD:          0	MERGED:       3831	TO_CACHE:     224551

L2C Dense regions hint from L2: 0
PSCL5 TOTAL     ACCESS:       4666  HIT:       2333  MISS:       2333  HIT %:         50  MISS %:         50   MPKI: 0.04666
PSCL5 LOAD TRANSLATION INSTRUCTION	ACCESS:       4568  HIT:       2284  MISS:       2284  HIT %:         50  MISS %:         50  MPKI: 0.04568
PSCL5 TRANSLATION FROM L1D PREFETCHER INSTRUCTION	ACCESS:         98  HIT:         49  MISS:         49  HIT %:         50  MISS %:         50  MPKI: 0.00098


PSCL4 TOTAL     ACCESS:       4372  HIT:       2182  MISS:       2190  HIT %:    49.9085  MISS %:    50.0915   MPKI: 0.0438
PSCL4 LOAD TRANSLATION INSTRUCTION	ACCESS:       3285  HIT:       2151  MISS:       1134  HIT %:    65.4795  MISS %:    34.5205  MPKI: 0.02268
PSCL4 TRANSLATION FROM L1D PREFETCHER INSTRUCTION	ACCESS:         50  HIT:         31  MISS:         19  HIT %:         62  MISS %:         38  MPKI: 0.00038
PSCL4 LOAD TRANSLATION DATA	ACCESS:       1025  HIT:          0  MISS:       1025  HIT %:          0  MISS %:        100  MPKI: 0.0205
PSCL4 TRANSLATION FROM L1D PREFETCHER DATA	ACCESS:         12  HIT:          0  MISS:         12  HIT %:          0  MISS %:        100  MPKI: 0.00024


PSCL3 TOTAL     ACCESS:       4226  HIT:       2104  MISS:       2122  HIT %:     49.787  MISS %:     50.213   MPKI: 0.04244
PSCL3 LOAD TRANSLATION INSTRUCTION	ACCESS:       2527  HIT:       2073  MISS:        454  HIT %:     82.034  MISS %:     17.966  MPKI: 0.00908
PSCL3 TRANSLATION FROM L1D PREFETCHER INSTRUCTION	ACCESS:         36  HIT:         31  MISS:          5  HIT %:    86.1111  MISS %:    13.8889  MPKI: 0.0001
PSCL3 LOAD TRANSLATION DATA	ACCESS:       1637  HIT:          0  MISS:       1637  HIT %:          0  MISS %:        100  MPKI: 0.03274
PSCL3 TRANSLATION FROM L1D PREFETCHER DATA	ACCESS:         26  HIT:          0  MISS:         26  HIT %:          0  MISS %:        100  MPKI: 0.00052


PSCL2 TOTAL     ACCESS:       4513  HIT:       2180  MISS:       2333  HIT %:    48.3049  MISS %:    51.6951   MPKI: 0.04666
PSCL2 LOAD TRANSLATION INSTRUCTION	ACCESS:       2467  HIT:       2131  MISS:        336  HIT %:    86.3802  MISS %:    13.6198  MPKI: 0.00672
PSCL2 TRANSLATION FROM L1D PREFETCHER INSTRUCTION	ACCESS:         49  HIT:         49  MISS:          0  HIT %:        100  MISS %:          0  MPKI: 0
PSCL2 LOAD TRANSLATION DATA	ACCESS:       1948  HIT:          0  MISS:       1948  HIT %:          0  MISS %:        100  MPKI: 0.03896
PSCL2 TRANSLATION FROM L1D PREFETCHER DATA	ACCESS:         49  HIT:          0  MISS:         49  HIT %:          0  MISS %:        100  MPKI: 0.00098


LLC TOTAL     ACCESS:     555355  HIT:     530264  MISS:      25091  HIT %:     95.482  MISS %:    4.51801   MPKI: 0.50182
LLC LOAD INSTRUCTION	ACCESS:     248221  HIT:     247482  MISS:        739  HIT %:    99.7023  MISS %:   0.297719  MPKI: 0.01478
LLC LOAD TRANSLATION INSTRUCTION	ACCESS:        277  HIT:        251  MISS:         26  HIT %:    90.6137  MISS %:    9.38628  MPKI: 0.00052
LLC LOAD DATA	ACCESS:      86592  HIT:      83663  MISS:       2929  HIT %:    96.6175  MISS %:    3.38253  MPKI: 0.05858
LLC RFO DATA	ACCESS:      56052  HIT:      43822  MISS:      12230  HIT %:     78.181  MISS %:     21.819  MPKI: 0.2446
LLC PREFETCH DATA	ACCESS:      83628  HIT:      74662  MISS:       8966  HIT %:    89.2787  MISS %:    10.7213  MPKI: 0.17932
LLC WRITEBACK DATA	ACCESS:      79069  HIT:      78927  MISS:        142  HIT %:    99.8204  MISS %:    0.17959  MPKI: 0.00284
LLC LOAD TRANSLATION DATA	ACCESS:       1510  HIT:       1451  MISS:         59  HIT %:    96.0927  MISS %:    3.90728  MPKI: 0.00118
LLC TRANSLATION FROM L1D PREFETCHER DATA	ACCESS:          6  HIT:          6  MISS:          0  HIT %:        100  MISS %:          0  MPKI: 0

LLC AVERAGE MISS LATENCY: 197.488 cycles
LLC RQ	ACCESS:     392668	FORWARD:          0	MERGED:          0	TO_CACHE:     392658
LLC WQ	ACCESS:      79069	FORWARD:         12	MERGED:          0	TO_CACHE:      79069
LLC PQ	ACCESS:      83630	FORWARD:          0	MERGED:          0	TO_CACHE:      83628

LLC Dense regions hint to LLC: 0

RAW hits: 1933275
Loads Generated: 12587770
Loads sent to L1D: 10654493
Stores Generated: 6899276
Stores sent to L1D: 6899288
Major fault: 0 Minor fault: 2244
Allocated PAGES: 2244

stream: 
stream:times selected: 1255825
stream:pref_filled: 132169
stream:pref_useful: 31277
stream:pref_late: 10628
stream:misses: 10784
stream:misses_by_poll: 0

CS: 
CS:times selected: 198637
CS:pref_filled: 79772
CS:pref_useful: 55912
CS:pref_late: 10212
CS:misses: 26806
CS:misses_by_poll: 3

CPLX: 
CPLX:times selected: 1056100
CPLX:pref_filled: 28311
CPLX:pref_useful: 9375
CPLX:pref_late: 5082
CPLX:misses: 148239
CPLX:misses_by_poll: 0

NL_L1: 
NL:times selected: 21272
NL:pref_filled: 1016
NL:pref_useful: 623
NL:pref_late: 725
NL:misses: 2966
NL:misses_by_poll: 0

total selections: 2531834
total_filled: 111842
total_useful: 55002
total_late: 29638
total_polluted: 3
total_misses_after_warmup: 825510
conflicts: 5493725

test: 123215

DRAM Statistics
 CHANNEL 0
 RQ ROW_BUFFER_HIT:       9236  ROW_BUFFER_MISS:      15707
 DBUS_CONGESTED:         10
 WQ ROW_BUFFER_HIT:       1874  ROW_BUFFER_MISS:      11275  FULL:          0

 AVG_CONGESTED_CYCLE: 5

CPU 0 Branch Prediction Accuracy: 99.8274% MPKI: 0.31662 Average ROB Occupancy at Mispredict: 201.283
Branch types
NOT_BRANCH: 40827532 81.6551%
BRANCH_DIRECT_JUMP: 541789 1.08358%
BRANCH_INDIRECT: 180368 0.360736%
BRANCH_CONDITIONAL: 6223451 12.4469%
BRANCH_DIRECT_CALL: 942516 1.88503%
BRANCH_INDIRECT_CALL: 170854 0.341708%
BRANCH_RETURN: 1113364 2.22673%
BRANCH_OTHER: 0 0%

DRAM PAGES: 1048576
Allocated PAGES: 2244
Average_ROB_Occupancy: 238.308
Average_Decode_Occupancy: 33.3355
Average_FTQ_Occupancy: 12.8064
Indirect max targets: 14 Average targets: 1.14865
Branch_type:  BRANCH_DIRECT_JUMP:  Count Percentage: 2.86204 6.18563 4.88073 8.11617 1.86457 2.74081 0.815904 72.5342 
Branch_type:  BRANCH_INDIRECT:  Count Percentage: 11.7684 3.32375 2.44112 9.68703 3.36066 4.02403 2.03227 63.3627 
Branch_type:  BRANCH_CONDITIONAL:  Count Percentage: 22.401 5.52967 2.24576 4.83256 5.88061 2.72985 0.636041 55.7445 
Branch_type:  BRANCH_DIRECT_CALL:  Count Percentage: 0.778294 1.30272 1.38008 4.2185 2.57512 2.05472 0.684129 87.0064 
Branch_type:  BRANCH_INDIRECT_CALL:  Count Percentage: 9.55813 0.541959 2.99701 4.82498 1.25531 2.97536 0.99208 76.8552 
Branch_type:  BRANCH_RETURN:  Count Percentage: 4.26032 3.76632 1.81321 5.58007 7.86494 4.2566 1.02367 71.4349 
Branch_type:  BRANCH_DIRECT_JUMP:  Total Count: 30974 66943 52821 87836 20179 29662 8830 784990 
Branch_type:  BRANCH_INDIRECT:  Total Count: 42400 11975 8795 34901 12108 14498 7322 228287 
Branch_type:  BRANCH_CONDITIONAL:  Total Count: 2786241 687782 279328 601076 731433 339540 79111 6933525 
Branch_type:  BRANCH_DIRECT_CALL:  Total Count: 14679 24570 26029 79563 48568 38753 12903 1640983 
Branch_type:  BRANCH_INDIRECT_CALL:  Total Count: 32680 1853 10247 16497 4292 10173 3392 262774 
Branch_type:  BRANCH_RETURN:  Total Count: 94952 83942 40412 124366 175290 94869 22815 1592106 
Number of unique branch instructions: 10250
Upper 32 bits: 
aaaa
ffff
ffff0000
Unique upper 32 bits: 3
Unique upper 36 bits: 3
Unique upper 40 bits: 5
Unique upper 44 bits: 32
Unique upper 48 bits: 156
Variant_0 : 1392 0.339844
Variant_1 : 1303 0.318115
Variant_2 : 1373 0.335205
Variant_3 : 0 0
Offset_3 4224
Offset_4 255
Offset_5 460
Offset_6 526
Offset_7 610
Offset_8 533
Offset_9 487
Offset_10 402
Offset_11 332
Offset_12 273
Offset_13 211
Offset_14 227
Offset_15 199
Offset_16 231
Offset_17 156
Offset_18 135
Offset_19 242
Offset_20 142
Offset_21 241
Offset_22 401
Offset_23 243
Offset_24 334
Offset_25 88
Offset_47 82
decode_dispatch_called: 25307640 69.7192
Dispatch_width: 0 13570668 53.6228 37.3854
Dispatch_width: 1 940151 3.71489 2.58999
Dispatch_width: 2 808361 3.19414 2.22693
Dispatch_width: 3 494831 1.95526 1.36319
Dispatch_width: 4 5422255 21.4254 14.9376
Dispatch_width: 5 158630 0.626807 0.437005
Dispatch_width: 6 3912744 15.4607 10.7791
Empty_decode_cycles: 10991739 30.2808
ROB_full_cycles: 8727792 24.0439
Starvation_cycles_per_kilo_instr: 236.588
Starvation_cycles_per_kilo_instr_3: 180.78
Starvation_cycles_per_kilo_instr_0: 158.346
Branch_type_1  (3,1)  (4,9)  (5,36)  (6,76)  (7,123)  (8,129)  (9,127)  (10,103)  (11,78)  (12,44)  (13,4)  (14,2)  (15,3)  (16,4)  (18,1)  (19,4)  (20,2)  (21,1)  (22,3)  (23,2)  (24,10)  (25,12) 
Branch_type_2  (3,1)  (5,1)  (8,3)  (9,3)  (12,1)  (13,1)  (14,1)  (16,3)  (17,2)  (20,2)  (21,2)  (23,5)  (24,1)  (47,38) 
Branch_type_3  (3,4222)  (4,246)  (5,419)  (6,434)  (7,455)  (8,341)  (9,271)  (10,167)  (11,136)  (12,51)  (13,4) 
Branch_type_4  (6,4)  (7,8)  (8,27)  (9,52)  (10,63)  (11,58)  (12,98)  (13,93)  (14,100)  (15,95)  (16,105)  (17,71)  (18,62)  (19,117)  (20,74)  (21,127)  (22,215)  (23,137)  (24,196)  (25,72) 
Branch_type_5  (8,2)  (9,1)  (10,3)  (11,5)  (12,3)  (13,14)  (14,16)  (15,11)  (16,20)  (17,12)  (18,16)  (19,12)  (20,10)  (21,13)  (22,42)  (23,26)  (24,36) 
Branch_type_6  (5,4)  (6,12)  (7,24)  (8,31)  (9,33)  (10,66)  (11,55)  (12,76)  (13,95)  (14,108)  (15,90)  (16,99)  (17,71)  (18,56)  (19,109)  (20,54)  (21,98)  (22,141)  (23,73)  (24,91)  (25,4)  (47,44) 
Unique trigger count: 
Variant_0_evicts_0 : 0
Variant_0_evicts_1 : 0
Variant_0_evicts_2 : 0
Variant_0_evicts_3 : 0
Variant_1_evicts_0 : 0
Variant_1_evicts_1 : 0
Variant_1_evicts_2 : 0
Variant_1_evicts_3 : 0
Variant_2_evicts_0 : 0
Variant_2_evicts_1 : 0
Variant_2_evicts_2 : 0
Variant_2_evicts_3 : 0
Variant_3_evicts_0 : 0
Variant_3_evicts_1 : 0
Variant_3_evicts_2 : 0
Variant_3_evicts_3 : 0
BTB PER SET UNIQUE ADDR: 9 16 14 16 14 20 13 17 10 15 10 18 15 14 12 12 16 14 15 14 12 11 18 15 13 16 13 13 15 11 15 20 15 7 10 13 14 14 10 14 12 6 13 17 10 14 15 11 11 14 17 14 16 15 14 7 8 11 9 15 13 19 19 13 13 16 12 11 13 15 15 12 12 10 11 8 10 15 8 20 14 9 16 22 16 19 19 12 13 21 8 9 15 11 7 15 16 15 17 19 22 16 22 17 14 11 12 15 9 7 12 18 12 12 9 8 13 15 14 19 13 14 11 11 12 17 7 16 23 15 9 16 14 17 12 22 10 16 13 18 11 15 15 15 16 15 14 8 11 12 11 16 14 8 8 16 15 13 18 16 15 16 21 15 13 14 16 11 18 13 12 13 11 15 20 12 11 13 13 17 9 16 15 18 19 18 13 12 15 13 12 14 14 19 15 14 11 17 11 18 16 15 11 15 8 11 17 12 12 12 14 16 13 14 13 19 16 15 10 21 7 11 11 14 10 14 19 18 8 18 10 9 11 19 14 16 17 14 11 14 14 14 19 16 12 13 9 12 17 13 17 17 13 14 18 13 13 12 11 12 15 13 6 11 16 13 11 13 16 10 11 16 12 11 12 11 12 21 10 14 13 16 9 17 14 12 11 14 18 16 14 7 11 16 6 19 16 14 18 11 11 17 12 18 15 16 14 14 21 16 18 20 13 14 14 9 18 13 11 19 11 14 14 15 17 20 12 13 13 13 16 22 13 10 13 11 12 14 6 23 10 12 10 14 17 17 12 14 15 13 12 14 11 10 14 13 14 14 12 12 12 19 14 14 12 16 8 12 12 15 12 13 15 14 9 18 13 12 13 18 14 13 11 9 13 17 19 17 17 13 15 12 21 20 11 11 13 14 20 10 14 14 11 13 23 18 14 17 16 17 15 10 12 17 14 13 16 11 22 23 12 14 15 17 21 15 15 8 14 11 13 14 10 15 19 14 19 13 14 13 13 9 10 15 16 12 13 10 15 14 15 16 19 11 17 24 18 13 11 15 12 14 13 15 26 13 10 13 22 16 12 21 16 13 11 21 12 17 9 13 13 15 12 17 10 18 15 17 14 17 12 16 13 10 15 11 20 18 15 9 13 16 12 13 11 13 15 17 20 13 12 21 16 18 15 22 14 21 13 11 11 12 15 12 15 19 19 13 13 26 12 15 17 12 13 19 13 14 20 12 20 17 17 10 23 21 9 17 8 11 14 19 15 10 15 15 13 13 20 14 16 19 14 15 18 17 18 14 14 18 10 19 21 16 16 16 20 19 12 14 20 15 8 17 18 11 20 17 12 19 12 17 17 13 14 15 10 15 15 12 16 16 12 9 12 15 16 19 14 14 22 17 13 11 7 18 15 20 15 13 23 17 9 12 14 12 17 18 10 18 11 20 21 17 11 14 11 20 8 18 13 19 18 19 17 17 12 17 20 16 10 19 17 14 20 15 18 10 17 17 16 6 16 18 16 18 9 13 11 13 19 13 14 15 19 9 15 16 18 14 13 14 17 14 16 16 14 14 13 16 16 16 18 10 13 10 13 18 14 17 9 16 16 15 10 17 13 11 10 13 11 15 11 14 15 9 17 11 8 22 12 8 14 15 14 9 11 19 6 11 14 16 12 14 17 19 16 17 20 13 13 12 18 17 22 17 17 12 12 14 17 12 12 15 10 16 19 17 15 11 14 7 8 15 19 21 10 16 17 18 12 17 14 16 12 11 17 13 20 14 9 20 21 11 15 11 10 13 13 7 15 7 18 17 14 23 14 11 16 13 23 16 20 17 17 14 13 10 15 14 16 19 18 11 10 15 21 20 9 16 15 17 8 14 17 18 13 20 16 20 17 15 20 12 10 18 12 16 12 12 14 17 14 13 14 20 13 18 15 15 13 15 12 15 15 21 16 18 16 14 15 10 8 9 14 16 16 9 18 14 10 24 16 11 16 4 12 17 16 12 15 10 20 19 12 16 16 12 15 15 17 10 16 13 18 19 20 13 10 16 18 12 14 13 11 15 10 15 13 20 12 13 13 18 16 12 21 16 15 15 19 18 11 13 13 15 7 15 17 11 14 19 21 12 10 19 14 14 9 16 11 16 18 15 14 15 15 14 14 19 17 16 12 18 14 14 16 13 13 19 14 15 15 19 17 12 15 17 14 19 11 17 15 14 19 12 19 17 17 25 11 20 18 17 10 25 14 12 18 14 18 14 17 13 14 13 7 17 17 16 13 19 8 14 19 16 12 22 12 24 17 16 12 10 12 15 8 9 8 11 7 21 16 11 
BTB PER SET COUNT: 294 30 1755 24 1481 27 1013 23 594 27 23 906 18729 32 23 15 999 505 17 16 25 13 734 17 36 27 15 16 177 14 20 520 26 8 12 484 16 16 18 1873 21 6 13 47 1483 54 23 16 2011 212 37 223 24 22 26 7 12 17 15 30 28 29 28 16 17 136 15 15 27 24 1474 599 27 17 17 11 14 810 16 25 130 11 31 34 19 36 24 22 696 51 9 821 30 126 10 20 92 25 27 878 38 18 27 28 1298 14 32 21 336 7 18 41 18 14 13 117 28 17 2528 31 28 20 19 17 12 65 13 376 44 880 13 5687 21 31 15 32 1012 24 20 31 22 18 36 18 20 19 21 936 21 29 11 22 1236 12 8 35 29 19 223 22 26 21 144 20 1478 16 26 14 37 1569 16 17 17 31 34 26 32 17 354 507 13 241 666 32 39 32 17 18 193 53 20 22 23 245 17 20 17 646 18 30 22 59 655 16 11 21 26 13 21 16 24 29 16 3391 26 694 26 25 22 30 10 19 293 21 16 34 35 32 10 37 19 9 14 43 404 25 17 208 22 25 15 36 28 837 20 658 64 17 242 19 30 32 19 18 28 22 25 19 14 31 22 20 9 17 17 18 27 18 218 14 17 404 14 16 18 12 14 30 15 716 24 25 19 783 26 18 11 25 25 22 31 8 20 488 7 26 26 32 44 409 12 25 12 31 18 23 99 29 41 465 94 27 20 24 1934 185 25 20 12 37 14 2945 24 24 878 393 22 20 23 17 36 35 18 20 15 18 18 1021 7 35 13 24 19 25 35 30 12 22 21 81 22 136 24 13 23 15 21 19 110 20 12 36 17 29 21 1017 13 14 17 23 20 91 28 15 625 159 17 18 19 37 703 18 12 10 20 25 2559 27 25 19 20 13 37 32 15 518 17 25 1378 16 20 21 502 14 40 28 27 29 22 32 300 12 17 164 17 24 27 1831 40 33 13 18 21 28 34 21 338 9 18 17 17 22 14 24 302 29 30 48 15 15 26 15 14 25 29 20 265 13 28 17 1457 1072 26 16 38 48 28 24 19 23 34 157 23 459 42 46 9901 14 32 25 33 49 20 27 20 38 17 28 14 17 18 215 16 24 11 23 27 31 26 118 48 552 3412 18 25 14 794 864 21 15 17 30 14 17 14 16 19 32 34 17 280 1065 1281 300 32 38 20 37 16 1018 13 22 38 217 27 25 439 18 23 783 21 40 322 20 17 257 1178 21 31 341 34 37 31 14 49 209 15 29 10 767 19 31 30 12 18 24 21 20 38 19 25 31 19 28 25 24 37 17 18 34 13 34 35 21 2482 18 54 782 13 20 37 24 8 1595 30 19 271 27 23 32 18 101 31 15 20 18 905 286 29 13 25 32 26 12 21 16 28 1652 14 22 38 34 251 18 9 28 18 27 30 22 59 29 19 15 21 21 24 31 10 28 13 46 156 21 12 27 17 30 9 497 20 36 21 739 181 165 310 30 261 20 14 33 24 27 1068 487 33 119 38 317 55 10 22 21 838 33 15 17 25 24 30 20 148 25 80 12 28 24 41 36 19 17 40 19 22 20 29 20 239 28 24 22 24 18 1115 15 23 495 19 22 146 24 20 22 12 31 17 13 12 29 27 18 995 19 23 113 385 14 8 375 18 15 20 2330 492 12 11 25 932 1578 26 1014 19 22 24 31 955 25 26 19 931 16 1033 105 813 21 476 17 20 28 631 18 160 1944 17 21 36 1489 25 15 22 12 12 31 31 36 13 1157 22 28 70 32 22 28 19 14 27 21 26 21 1334 30 795 16 20 13 10 17 21 8 22 1007 21 20 834 40 15 15 26 500 50 19 118 109 374 24 19 14 28 26 25 4038 23 147 19 938 35 120 9 20 26 634 10 21 32 37 24 29 23 44 23 31 31 13 560 73 18 27 14 24 19 1028 21 21 27 27 22 24 20 745 162 205 29 20 22 26 105 28 23 27 558 21 12 11 702 22 25 11 23 23 15 79 23 12 21 4 15 23 1757 14 20 12 338 165 476 142 22 23 27 27 22 977 258 241 32 29 44 19 17 30 32 23 22 336 15 27 15 19 19 83 16 476 24 24 30 180 2005 404 24 72 32 278 13 21 16 19 14 22 25 17 19 31 173 29 17 34 18 22 1151 36 17 244 36 15 21 23 28 21 21 25 198 253 22 803 22 18 228 15 15 30 19 16 30 32 22 15 371 20 21 48 47 59 19 24 912 17 272 22 589 45 17 425 351 32 12 618 21 478 28 20 28 406 33 397 24 17 8 1483 32 26 14 29 13 23 34 271 16 37 13 1043 679 458 23 14 18 24 13 154 8 13 8 435 27 12 
To predecode: 0
Predecoding something: 0
Predecode request dropped: 0
sizeofblock_0 0
sizeofblock_1 44804
sizeofblock_2 40779
sizeofblock_3 37805
sizeofblock_4 20258
sizeofblock_5 0
sizeofblock_6 0
sizeofblock_7 0
sizeofblock_8 0
Variant_0 Correct: 1602363 Incorrect: 0 Accuracy: 1
Variant_1 Correct: 2078818 Incorrect: 0 Accuracy: 1
Variant_2 Correct: 3633155 Incorrect: 0 Accuracy: 1
Variant_3 Correct: 0 Incorrect: 0 Accuracy: -nan
