
*** ChampSim Multicore Out-of-Order Simulator ***

Warmup Instructions: 50000000
Simulation Instructions: 50000000
Number of CPUs: 1
LLC sets: 2048
LLC ways: 16
Off-chip DRAM Size: 4096 MB Channels: 1 Width: 64-bit Data Rate: 6400 MT/s
CPU 0 runs ./micro_traces/srv163.trace.gz
.gz
ITLB has LRU replacement policy
DTLB has LRU replacement policy
STLB has LRU replacement policy
FDIP Prefetcher at L1I
L1I has LRU replacement policy
L1D has LRU replacement policy
Initialize SRRIP state for L2C
Initialize DRRIP state for LLC
Heartbeat_Variant_0 : 1333 0.325439 per_variant_size: 0 1333 0 0 0 0 0 0 0 
Heartbeat_Variant_1 : 2545 0.621338 per_variant_size: 0 562 1983 0 0 0 0 0 0 
Heartbeat_Variant_2 : 0 0 per_variant_size: 0 0 0 0 0 0 0 0 0 
Heartbeat_Variant_3 : 0 0 per_variant_size: 0 0 0 0 0 0 0 0 0 
Heartbeat_Variant_0_evicts 0 : 5776 1 : 485 2 : 0 3 : 0 
Heartbeat_Variant_1_evicts 0 : 453 1 : 0 2 : 0 3 : 0 
Heartbeat_Variant_2_evicts 0 : 0 1 : 0 2 : 0 3 : 0 
Heartbeat_Variant_3_evicts 0 : 0 1 : 0 2 : 0 3 : 0 
Heartbeat CPU 0 instructions: 10000001 cycles: 2797959 heartbeat IPC: 3.57403 cumulative IPC: 3.57403 (Simulation time: 0 hr 1 min 37 sec) 
Heartbeat_Variant_0 : 1353 0.330322 per_variant_size: 0 1353 0 0 0 0 0 0 0 
Heartbeat_Variant_1 : 2587 0.631592 per_variant_size: 0 500 2087 0 0 0 0 0 0 
Heartbeat_Variant_2 : 0 0 per_variant_size: 0 0 0 0 0 0 0 0 0 
Heartbeat_Variant_3 : 0 0 per_variant_size: 0 0 0 0 0 0 0 0 0 
Heartbeat_Variant_0_evicts 0 : 5710 1 : 180 2 : 0 3 : 0 
Heartbeat_Variant_1_evicts 0 : 169 1 : 0 2 : 0 3 : 0 
Heartbeat_Variant_2_evicts 0 : 0 1 : 0 2 : 0 3 : 0 
Heartbeat_Variant_3_evicts 0 : 0 1 : 0 2 : 0 3 : 0 
Heartbeat CPU 0 instructions: 20000001 cycles: 5594497 heartbeat IPC: 3.57585 cumulative IPC: 3.57494 (Simulation time: 0 hr 3 min 13 sec) 
Heartbeat_Variant_0 : 1380 0.336914 per_variant_size: 0 1380 0 0 0 0 0 0 0 
Heartbeat_Variant_1 : 2672 0.652344 per_variant_size: 0 394 2278 0 0 0 0 0 0 
Heartbeat_Variant_2 : 0 0 per_variant_size: 0 0 0 0 0 0 0 0 0 
Heartbeat_Variant_3 : 0 0 per_variant_size: 0 0 0 0 0 0 0 0 0 
Heartbeat_Variant_0_evicts 0 : 5990 1 : 874 2 : 0 3 : 0 
Heartbeat_Variant_1_evicts 0 : 866 1 : 0 2 : 0 3 : 0 
Heartbeat_Variant_2_evicts 0 : 0 1 : 0 2 : 0 3 : 0 
Heartbeat_Variant_3_evicts 0 : 0 1 : 0 2 : 0 3 : 0 
Heartbeat CPU 0 instructions: 30000003 cycles: 8390168 heartbeat IPC: 3.57696 cumulative IPC: 3.57561 (Simulation time: 0 hr 4 min 54 sec) 
Heartbeat_Variant_0 : 1377 0.336182 per_variant_size: 0 1377 0 0 0 0 0 0 0 
Heartbeat_Variant_1 : 2678 0.653809 per_variant_size: 0 405 2273 0 0 0 0 0 0 
Heartbeat_Variant_2 : 0 0 per_variant_size: 0 0 0 0 0 0 0 0 0 
Heartbeat_Variant_3 : 0 0 per_variant_size: 0 0 0 0 0 0 0 0 0 
Heartbeat_Variant_0_evicts 0 : 5589 1 : 95 2 : 0 3 : 0 
Heartbeat_Variant_1_evicts 0 : 99 1 : 0 2 : 0 3 : 0 
Heartbeat_Variant_2_evicts 0 : 0 1 : 0 2 : 0 3 : 0 
Heartbeat_Variant_3_evicts 0 : 0 1 : 0 2 : 0 3 : 0 
Heartbeat CPU 0 instructions: 40000002 cycles: 11186324 heartbeat IPC: 3.57634 cumulative IPC: 3.57579 (Simulation time: 0 hr 6 min 35 sec) 
Heartbeat_Variant_0 : 1384 0.337891 per_variant_size: 0 1384 0 0 0 0 0 0 0 
Heartbeat_Variant_1 : 2681 0.654541 per_variant_size: 0 393 2288 0 0 0 0 0 0 
Heartbeat_Variant_2 : 0 0 per_variant_size: 0 0 0 0 0 0 0 0 0 
Heartbeat_Variant_3 : 0 0 per_variant_size: 0 0 0 0 0 0 0 0 0 
Heartbeat_Variant_0_evicts 0 : 5842 1 : 477 2 : 0 3 : 0 
Heartbeat_Variant_1_evicts 0 : 473 1 : 0 2 : 0 3 : 0 
Heartbeat_Variant_2_evicts 0 : 0 1 : 0 2 : 0 3 : 0 
Heartbeat_Variant_3_evicts 0 : 0 1 : 0 2 : 0 3 : 0 
Heartbeat CPU 0 instructions: 50000001 cycles: 13982411 heartbeat IPC: 3.57643 cumulative IPC: 3.57592 (Simulation time: 0 hr 8 min 14 sec) 

Warmup complete CPU 0 instructions: 50000001 cycles: 13982411 (Simulation time: 0 hr 8 min 14 sec) 

Cycle: 20000000 FTQ IN: 58451192 FTQ occupancy: 20.5416 DECODE IN: 58451174 DECODE occupancy: 53.5329 ROB IN: 58451114 ROB occupancy: 319.029 ROB OUT: 58450949
Heartbeat_Variant_0 : 1384 0.337891 per_variant_size: 0 1384 0 0 0 0 0 0 0 
Heartbeat_Variant_1 : 2682 0.654785 per_variant_size: 0 399 2283 0 0 0 0 0 0 
Heartbeat_Variant_2 : 0 0 per_variant_size: 0 0 0 0 0 0 0 0 0 
Heartbeat_Variant_3 : 0 0 per_variant_size: 0 0 0 0 0 0 0 0 0 
Heartbeat_Variant_0_evicts 0 : 5562 1 : 40 2 : 0 3 : 0 
Heartbeat_Variant_1_evicts 0 : 40 1 : 0 2 : 0 3 : 0 
Heartbeat_Variant_2_evicts 0 : 0 1 : 0 2 : 0 3 : 0 
Heartbeat_Variant_3_evicts 0 : 0 1 : 0 2 : 0 3 : 0 
Heartbeat CPU 0 instructions: 60000002 cycles: 21110824 heartbeat IPC: 1.40284 cumulative IPC: 1.40284 (Simulation time: 0 hr 10 min 11 sec) 
Heartbeat_Variant_0 : 1388 0.338867 per_variant_size: 0 1388 0 0 0 0 0 0 0 
Heartbeat_Variant_1 : 2680 0.654297 per_variant_size: 0 416 2264 0 0 0 0 0 0 
Heartbeat_Variant_2 : 0 0 per_variant_size: 0 0 0 0 0 0 0 0 0 
Heartbeat_Variant_3 : 0 0 per_variant_size: 0 0 0 0 0 0 0 0 0 
Heartbeat_Variant_0_evicts 0 : 5737 1 : 191 2 : 0 3 : 0 
Heartbeat_Variant_1_evicts 0 : 187 1 : 0 2 : 0 3 : 0 
Heartbeat_Variant_2_evicts 0 : 0 1 : 0 2 : 0 3 : 0 
Heartbeat_Variant_3_evicts 0 : 0 1 : 0 2 : 0 3 : 0 
Heartbeat CPU 0 instructions: 70000001 cycles: 28276091 heartbeat IPC: 1.39562 cumulative IPC: 1.39922 (Simulation time: 0 hr 12 min 9 sec) 
Cycle: 30000000 FTQ IN: 13963429 FTQ occupancy: 14.7835 DECODE IN: 13963447 DECODE occupancy: 37.9746 ROB IN: 13963507 ROB occupancy: 249.658 ROB OUT: 13963348
Heartbeat_Variant_0 : 1383 0.337646 per_variant_size: 0 1383 0 0 0 0 0 0 0 
Heartbeat_Variant_1 : 2689 0.656494 per_variant_size: 0 429 2260 0 0 0 0 0 0 
Heartbeat_Variant_2 : 0 0 per_variant_size: 0 0 0 0 0 0 0 0 0 
Heartbeat_Variant_3 : 0 0 per_variant_size: 0 0 0 0 0 0 0 0 0 
Heartbeat_Variant_0_evicts 0 : 5682 1 : 198 2 : 0 3 : 0 
Heartbeat_Variant_1_evicts 0 : 203 1 : 0 2 : 0 3 : 0 
Heartbeat_Variant_2_evicts 0 : 0 1 : 0 2 : 0 3 : 0 
Heartbeat_Variant_3_evicts 0 : 0 1 : 0 2 : 0 3 : 0 
Heartbeat CPU 0 instructions: 80000003 cycles: 35389605 heartbeat IPC: 1.40578 cumulative IPC: 1.4014 (Simulation time: 0 hr 14 min 6 sec) 
Cycle: 40000000 FTQ IN: 14066346 FTQ occupancy: 14.779 DECODE IN: 14066328 DECODE occupancy: 38.3118 ROB IN: 14066268 ROB occupancy: 251.818 ROB OUT: 14066251
Heartbeat_Variant_0 : 1387 0.338623 per_variant_size: 0 1387 0 0 0 0 0 0 0 
Heartbeat_Variant_1 : 2685 0.655518 per_variant_size: 0 412 2273 0 0 0 0 0 0 
Heartbeat_Variant_2 : 0 0 per_variant_size: 0 0 0 0 0 0 0 0 0 
Heartbeat_Variant_3 : 0 0 per_variant_size: 0 0 0 0 0 0 0 0 0 
Heartbeat_Variant_0_evicts 0 : 5480 1 : 85 2 : 0 3 : 0 
Heartbeat_Variant_1_evicts 0 : 81 1 : 0 2 : 0 3 : 0 
Heartbeat_Variant_2_evicts 0 : 0 1 : 0 2 : 0 3 : 0 
Heartbeat_Variant_3_evicts 0 : 0 1 : 0 2 : 0 3 : 0 
Heartbeat CPU 0 instructions: 90000000 cycles: 42589774 heartbeat IPC: 1.38886 cumulative IPC: 1.39824 (Simulation time: 0 hr 16 min 5 sec) 
Heartbeat_Variant_0 : 1381 0.337158 per_variant_size: 0 1381 0 0 0 0 0 0 0 
Heartbeat_Variant_1 : 2697 0.658447 per_variant_size: 0 452 2245 0 0 0 0 0 0 
Heartbeat_Variant_2 : 0 0 per_variant_size: 0 0 0 0 0 0 0 0 0 
Heartbeat_Variant_3 : 0 0 per_variant_size: 0 0 0 0 0 0 0 0 0 
Heartbeat_Variant_0_evicts 0 : 5781 1 : 340 2 : 0 3 : 0 
Heartbeat_Variant_1_evicts 0 : 348 1 : 0 2 : 0 3 : 0 
Heartbeat_Variant_2_evicts 0 : 0 1 : 0 2 : 0 3 : 0 
Heartbeat_Variant_3_evicts 0 : 0 1 : 0 2 : 0 3 : 0 
Heartbeat CPU 0 instructions: 100000003 cycles: 49712386 heartbeat IPC: 1.40398 cumulative IPC: 1.39939 (Simulation time: 0 hr 18 min 3 sec) 
Finished CPU 0 instructions: 50000002 cycles: 35729975 cumulative IPC: 1.39939 (Simulation time: 0 hr 18 min 3 sec) 

ChampSim completed all CPUs

Region of Interest Statistics

CPU 0 cumulative IPC: 1.39939 instructions: 50000002 cycles: 35729975
 Fetch stage stalled: 46.3485  Sim cycles: 35729975 fetch stall cycle: 16560307
 Empty decode stage: 25.3269  Sim cycles: 35729975 fetch stall cycle: 9049289
ITLB TOTAL     ACCESS:    5836240  HIT:    5340395  MISS:     495845  HIT %:     91.504  MISS %:    8.49597   MPKI: 9.9169
ITLB LOAD TRANSLATION INSTRUCTION	ACCESS:    5699280  HIT:    5203435  MISS:     495845  HIT %:    91.2999  MISS %:    8.70013  MPKI: 9.9169
ITLB TRANSLATION FROM L1D PREFETCHER INSTRUCTION	ACCESS:     136960  HIT:     136960  MISS:          0  HIT %:        100  MISS %:          0  MPKI: 0

ITLB AVERAGE MISS LATENCY: 9.04353 cycles
ITLB RQ	ACCESS:    7944407	FORWARD:          0	MERGED:    1621119	TO_CACHE:    6323288

DTLB TOTAL     ACCESS:    8944722  HIT:    8470131  MISS:     474591  HIT %:    94.6942  MISS %:    5.30582   MPKI: 9.49182
DTLB LOAD TRANSLATION DATA	ACCESS:    8944722  HIT:    8470131  MISS:     474591  HIT %:    94.6942  MISS %:    5.30582  MPKI: 9.49182

DTLB AVERAGE MISS LATENCY: 9.30923 cycles
DTLB RQ	ACCESS:   13322733	FORWARD:          0	MERGED:    4341256	TO_CACHE:    8981477

STLB TOTAL     ACCESS:    1214483  HIT:    1212595  MISS:       1888  HIT %:    99.8445  MISS %:   0.155457   MPKI: 0.03776
STLB LOAD TRANSLATION INSTRUCTION	ACCESS:     495845  HIT:     495629  MISS:        216  HIT %:    99.9564  MISS %:   0.043562  MPKI: 0.00432
STLB LOAD TRANSLATION DATA	ACCESS:     474590  HIT:     472936  MISS:       1654  HIT %:    99.6515  MISS %:   0.348511  MPKI: 0.03308
STLB TRANSLATION FROM L1D PREFETCHER DATA	ACCESS:     244048  HIT:     244030  MISS:         18  HIT %:    99.9926  MISS %:  0.0073756  MPKI: 0.00036

STLB AVERAGE MISS LATENCY: 73.3888 cycles
STLB RQ	ACCESS:    1334471	FORWARD:          0	MERGED:     119942	TO_CACHE:    1214529

STLB Hit, L1D data hit: 0
STLB Hit, L2C data hit: 0
STLB Hit, LLC data hit: 0
STLB Hit, LLC data miss: 0
STLB STLB hints to L2: 0
L1D TOTAL     ACCESS:   13066953  HIT:   11949805  MISS:    1117148  HIT %:    91.4506  MISS %:    8.54941   MPKI: 22.343
L1D LOAD DATA	ACCESS:    6536866  HIT:    5799063  MISS:     737803  HIT %:    88.7132  MISS %:    11.2868  MPKI: 14.7561
L1D RFO DATA	ACCESS:    6206855  HIT:    5922023  MISS:     284832  HIT %:     95.411  MISS %:    4.58899  MPKI: 5.69664
L1D PREFETCH DATA	ACCESS:     323232  HIT:     228719  MISS:      94513  HIT %:      70.76  MISS %:      29.24  MPKI: 1.89026

L1D PREFETCH  REQUESTED:     728368  ISSUED:     728368  USEFUL:      33609  USELESS:      68742
L1D USEFUL LOAD PREFETCHES:      33609 PREFETCH ISSUED TO LOWER LEVEL:     102388  ACCURACY: 32.8251
 TIMELY PREFETCHES:      33609 LATE PREFETCHES: 7845 DROPPED PREFETCHES: 9
L1D AVERAGE MISS LATENCY: 227177 cycles
L1D RQ	ACCESS:   10671453	FORWARD:          0	MERGED:    3934737	TO_CACHE:    6570686
L1D WQ	ACCESS:    6949899	FORWARD:     166330	MERGED:     197852	TO_CACHE:    6752047
L1D PQ	ACCESS:     364334	FORWARD:          0	MERGED:          0	TO_CACHE:     364034

L1D UNIQUE REGIONS ACCESSED: 0
L1D REGIONS CONFLICTS: 0
L1D Cross Page Prefetch Requests: 6808
L1D Same Page Prefetch Requests: 740465
L1D ROI Sum of L1D PQ occupancy: 4620208
L1D PREFETCHES PUSHED FROM L2C: 0
L1I TOTAL     ACCESS:    7131272  HIT:    4360875  MISS:    2770397  HIT %:    61.1514  MISS %:    38.8486   MPKI: 55.4079
L1I LOAD INSTRUCTION	ACCESS:    6462532  HIT:    3692135  MISS:    2770397  HIT %:    57.1314  MISS %:    42.8686  MPKI: 55.4079
L1I PREFETCH INSTRUCTION	ACCESS:     668740  HIT:     668740  MISS:          0  HIT %:        100  MISS %:          0  MPKI: 0

L1I PREFETCH  REQUESTED:    1613409  ISSUED:    1613409  USEFUL:          0  USELESS:          0
L1I USEFUL LOAD PREFETCHES:          0 PREFETCH ISSUED TO LOWER LEVEL:          0  ACCURACY: -nan
 TIMELY PREFETCHES:          0 LATE PREFETCHES: 0 DROPPED PREFETCHES: 0
L1I AVERAGE MISS LATENCY: 17.0651 cycles
L1I RQ	ACCESS:    9570614	FORWARD:          0	MERGED:    2811277	TO_CACHE:    6759337
L1I PQ	ACCESS:    1613409	FORWARD:          0	MERGED:     428339	TO_CACHE:    1185070

L1BTB TOTAL     ACCESS:    5671501  HIT:    2033279  MISS:    3638222  HIT %:    35.8508  MISS %:    64.1492   MPKI: 72.7644
L1BTB BRANCH_DIRECT_JUMP	ACCESS:     547554 HIT:     143675 MISS:     403879 AVERAGE STALL: 55.7191 AVERAGE FETCH STALL: 14.5599 AVERAGE FETCH QUEUE STALL: 19.975 AVERAGE DECODE STALL: 20.2523 AVERAGE EXECUTE STALL: 2.37471e+15
L1BTB BRANCH_INDIRECT	ACCESS:     182354 HIT:      65533 MISS:     116821 AVERAGE STALL: 107.56 AVERAGE FETCH STALL: 11.9411 AVERAGE FETCH QUEUE STALL: 17.8653 AVERAGE DECODE STALL: 12.8089 AVERAGE EXECUTE STALL: 63.9817
L1BTB BRANCH_CONDITIONAL	ACCESS:    2697949 HIT:    1402948 MISS:    1295001 AVERAGE STALL: 75.839 AVERAGE FETCH STALL: 22.1204 AVERAGE FETCH QUEUE STALL: 30.2295 AVERAGE DECODE STALL: 22.7305 AVERAGE EXECUTE STALL: 4.45143e+15
L1BTB BRANCH_DIRECT_CALL	ACCESS:     949034 HIT:     106964 MISS:     842070 AVERAGE STALL: 71.2327 AVERAGE FETCH STALL: 25.8237 AVERAGE FETCH QUEUE STALL: 25.736 AVERAGE DECODE STALL: 18.9033 AVERAGE EXECUTE STALL: 9.29307e+15
L1BTB BRANCH_INDIRECT_CALL	ACCESS:     172786 HIT:      21966 MISS:     150820 AVERAGE STALL: 142.386 AVERAGE FETCH STALL: 12.6271 AVERAGE FETCH QUEUE STALL: 17.8576 AVERAGE DECODE STALL: 12.5854 AVERAGE EXECUTE STALL: 98.8232
L1BTB BRANCH_RETURN	ACCESS:    1121824 HIT:     292193 MISS:     829631 AVERAGE STALL: 52.1526 AVERAGE FETCH STALL: 17.1116 AVERAGE FETCH QUEUE STALL: 6.85144 AVERAGE DECODE STALL: 7.62804 AVERAGE EXECUTE STALL: 4.07978e+14
L1BTB BRANCH_OTHER ACCESS:          0 HIT:          0 MISS:          0 AVERAGE STALL: -nan AVERAGE FETCH STALL: -nan AVERAGE FETCH QUEUE STALL: -nan AVERAGE DECODE STALL: -nan AVERAGE EXECUTE STALL: -nan
L1BTB TOTAL ROB OCCUPANCY AT BTB MISS: 2.79681

L2BTB TOTAL     ACCESS:    3612959  HIT:    3546338  MISS:      66621  HIT %:    98.1561  MISS %:    1.84395   MPKI: 1.33242
L2BTB BRANCH_DIRECT_JUMP	ACCESS:     399776 HIT:     396109 MISS:       3667 AVERAGE STALL: 55.7191 AVERAGE FETCH STALL: 14.5599 AVERAGE FETCH QUEUE STALL: 19.975 AVERAGE DECODE STALL: 20.2523 AVERAGE EXECUTE STALL: 2.37471e+15
L2BTB BRANCH_INDIRECT	ACCESS:     106548 HIT:     103825 MISS:       2723 AVERAGE STALL: 107.56 AVERAGE FETCH STALL: 11.9411 AVERAGE FETCH QUEUE STALL: 17.8653 AVERAGE DECODE STALL: 12.8089 AVERAGE EXECUTE STALL: 63.9817
L2BTB BRANCH_CONDITIONAL	ACCESS:    1295001 HIT:    1290816 MISS:       4185 AVERAGE STALL: 75.839 AVERAGE FETCH STALL: 22.1204 AVERAGE FETCH QUEUE STALL: 30.2295 AVERAGE DECODE STALL: 22.7305 AVERAGE EXECUTE STALL: 4.45143e+15
L2BTB BRANCH_DIRECT_CALL	ACCESS:     842070 HIT:     840072 MISS:       1998 AVERAGE STALL: 71.2327 AVERAGE FETCH STALL: 25.8237 AVERAGE FETCH QUEUE STALL: 25.736 AVERAGE DECODE STALL: 18.9033 AVERAGE EXECUTE STALL: 9.29307e+15
L2BTB BRANCH_INDIRECT_CALL	ACCESS:     141347 HIT:     131119 MISS:      10228 AVERAGE STALL: 142.386 AVERAGE FETCH STALL: 12.6271 AVERAGE FETCH QUEUE STALL: 17.8576 AVERAGE DECODE STALL: 12.5854 AVERAGE EXECUTE STALL: 98.8232
L2BTB BRANCH_RETURN	ACCESS:     828217 HIT:     784397 MISS:      43820 AVERAGE STALL: 52.1526 AVERAGE FETCH STALL: 17.1116 AVERAGE FETCH QUEUE STALL: 6.85144 AVERAGE DECODE STALL: 7.62804 AVERAGE EXECUTE STALL: 4.07978e+14
L2BTB BRANCH_OTHER ACCESS:          0 HIT:          0 MISS:          0 AVERAGE STALL: -nan AVERAGE FETCH STALL: -nan AVERAGE FETCH QUEUE STALL: -nan AVERAGE DECODE STALL: -nan AVERAGE EXECUTE STALL: -nan
L2BTB TOTAL ROB OCCUPANCY AT BTB MISS: 152.736

L2C TOTAL     ACCESS:    4486268  HIT:    4047748  MISS:     438520  HIT %:    90.2253  MISS %:    9.77472   MPKI: 8.7704
L2C LOAD INSTRUCTION	ACCESS:    2770397  HIT:    2526751  MISS:     243646  HIT %:    91.2054  MISS %:    8.79462  MPKI: 4.87292
L2C LOAD TRANSLATION INSTRUCTION	ACCESS:        239  HIT:         58  MISS:        181  HIT %:    24.2678  MISS %:    75.7322  MPKI: 0.00362
L2C LOAD DATA	ACCESS:     729937  HIT:     664917  MISS:      65020  HIT %:    91.0924  MISS %:    8.90762  MPKI: 1.3004
L2C RFO DATA	ACCESS:     284784  HIT:     235976  MISS:      48808  HIT %:    82.8614  MISS %:    17.1386  MPKI: 0.97616
L2C PREFETCH DATA	ACCESS:     177429  HIT:     110731  MISS:      66698  HIT %:    62.4086  MISS %:    37.5914  MPKI: 1.33396
L2C WRITEBACK DATA	ACCESS:     521734  HIT:     508942  MISS:      12792  HIT %:    97.5482  MISS %:    2.45182  MPKI: 0.25584
L2C LOAD TRANSLATION DATA	ACCESS:       1703  HIT:        346  MISS:       1357  HIT %:    20.3171  MISS %:    79.6829  MPKI: 0.02714
L2C TRANSLATION FROM L1D PREFETCHER DATA	ACCESS:         45  HIT:         27  MISS:         18  HIT %:         60  MISS %:         40  MPKI: 0.00036

L2C PREFETCH  REQUESTED:      82127  ISSUED:      82127  USEFUL:       7270  USELESS:      59768
L2C USEFUL LOAD PREFETCHES:       7270 PREFETCH ISSUED TO LOWER LEVEL:      67072  ACCURACY: 10.8391
 TIMELY PREFETCHES:       7270 LATE PREFETCHES: 374 DROPPED PREFETCHES: 0
L2C AVERAGE MISS LATENCY: 38.6897 cycles
L2C RQ	ACCESS:    3787144	FORWARD:          0	MERGED:          0	TO_CACHE:    3787105
L2C WQ	ACCESS:     521734	FORWARD:         39	MERGED:          0	TO_CACHE:     521734
L2C PQ	ACCESS:     184515	FORWARD:          0	MERGED:       3647	TO_CACHE:     180868

L2C Dense regions hint from L2: 0
PSCL5 TOTAL     ACCESS:       3802  HIT:       1901  MISS:       1901  HIT %:         50  MISS %:         50   MPKI: 0.03802
PSCL5 LOAD TRANSLATION INSTRUCTION	ACCESS:       3718  HIT:       1859  MISS:       1859  HIT %:         50  MISS %:         50  MPKI: 0.03718
PSCL5 TRANSLATION FROM L1D PREFETCHER INSTRUCTION	ACCESS:         84  HIT:         42  MISS:         42  HIT %:         50  MISS %:         50  MPKI: 0.00084


PSCL4 TOTAL     ACCESS:       3715  HIT:       1855  MISS:       1860  HIT %:    49.9327  MISS %:    50.0673   MPKI: 0.0372
PSCL4 LOAD TRANSLATION INSTRUCTION	ACCESS:       1819  HIT:       1814  MISS:          5  HIT %:    99.7251  MISS %:   0.274876  MPKI: 0.0001
PSCL4 TRANSLATION FROM L1D PREFETCHER INSTRUCTION	ACCESS:         41  HIT:         41  MISS:          0  HIT %:        100  MISS %:          0  MPKI: 0
PSCL4 LOAD TRANSLATION DATA	ACCESS:       1814  HIT:          0  MISS:       1814  HIT %:          0  MISS %:        100  MPKI: 0.03628
PSCL4 TRANSLATION FROM L1D PREFETCHER DATA	ACCESS:         41  HIT:          0  MISS:         41  HIT %:          0  MISS %:        100  MPKI: 0.00082


PSCL3 TOTAL     ACCESS:       3771  HIT:       1883  MISS:       1888  HIT %:    49.9337  MISS %:    50.0663   MPKI: 0.03776
PSCL3 LOAD TRANSLATION INSTRUCTION	ACCESS:       1847  HIT:       1842  MISS:          5  HIT %:    99.7293  MISS %:   0.270709  MPKI: 0.0001
PSCL3 TRANSLATION FROM L1D PREFETCHER INSTRUCTION	ACCESS:         41  HIT:         41  MISS:          0  HIT %:        100  MISS %:          0  MPKI: 0
PSCL3 LOAD TRANSLATION DATA	ACCESS:       1842  HIT:          0  MISS:       1842  HIT %:          0  MISS %:        100  MPKI: 0.03684
PSCL3 TRANSLATION FROM L1D PREFETCHER DATA	ACCESS:         41  HIT:          0  MISS:         41  HIT %:          0  MISS %:        100  MPKI: 0.00082


PSCL2 TOTAL     ACCESS:       3726  HIT:       1825  MISS:       1901  HIT %:    48.9801  MISS %:    51.0199   MPKI: 0.03802
PSCL2 LOAD TRANSLATION INSTRUCTION	ACCESS:       2001  HIT:       1784  MISS:        217  HIT %:    89.1554  MISS %:    10.8446  MPKI: 0.00434
PSCL2 TRANSLATION FROM L1D PREFETCHER INSTRUCTION	ACCESS:         41  HIT:         41  MISS:          0  HIT %:        100  MISS %:          0  MPKI: 0
PSCL2 LOAD TRANSLATION DATA	ACCESS:       1643  HIT:          0  MISS:       1643  HIT %:          0  MISS %:        100  MPKI: 0.03286
PSCL2 TRANSLATION FROM L1D PREFETCHER DATA	ACCESS:         41  HIT:          0  MISS:         41  HIT %:          0  MISS %:        100  MPKI: 0.00082


LLC TOTAL     ACCESS:     493820  HIT:     466796  MISS:      27024  HIT %:    94.5276  MISS %:    5.47244   MPKI: 0.54048
LLC LOAD INSTRUCTION	ACCESS:     243646  HIT:     242958  MISS:        688  HIT %:    99.7176  MISS %:   0.282377  MPKI: 0.01376
LLC LOAD TRANSLATION INSTRUCTION	ACCESS:        181  HIT:        151  MISS:         30  HIT %:    83.4254  MISS %:    16.5746  MPKI: 0.0006
LLC LOAD DATA	ACCESS:      64679  HIT:      61299  MISS:       3380  HIT %:    94.7742  MISS %:    5.22581  MPKI: 0.0676
LLC RFO DATA	ACCESS:      48773  HIT:      35782  MISS:      12991  HIT %:    73.3644  MISS %:    26.6356  MPKI: 0.25982
LLC PREFETCH DATA	ACCESS:      67072  HIT:      57534  MISS:       9538  HIT %:    85.7795  MISS %:    14.2205  MPKI: 0.19076
LLC WRITEBACK DATA	ACCESS:      68094  HIT:      67771  MISS:        323  HIT %:    99.5257  MISS %:   0.474344  MPKI: 0.00646
LLC LOAD TRANSLATION DATA	ACCESS:       1357  HIT:       1285  MISS:         72  HIT %:    94.6942  MISS %:    5.30582  MPKI: 0.00144
LLC TRANSLATION FROM L1D PREFETCHER DATA	ACCESS:         18  HIT:         16  MISS:          2  HIT %:    88.8889  MISS %:    11.1111  MPKI: 4e-05

LLC AVERAGE MISS LATENCY: 153.99 cycles
LLC RQ	ACCESS:     358655	FORWARD:          0	MERGED:          0	TO_CACHE:     358653
LLC WQ	ACCESS:      68094	FORWARD:          2	MERGED:          0	TO_CACHE:      68094
LLC PQ	ACCESS:      67072	FORWARD:          0	MERGED:          0	TO_CACHE:      67072

LLC Dense regions hint to LLC: 0

RAW hits: 1958819
Loads Generated: 12630272
Loads sent to L1D: 10671453
Stores Generated: 6949891
Stores sent to L1D: 6949899
Major fault: 0 Minor fault: 2589
Allocated PAGES: 2589

stream: 
stream:times selected: 1172740
stream:pref_filled: 122601
stream:pref_useful: 24358
stream:pref_late: 6918
stream:misses: 7931
stream:misses_by_poll: 0

CS: 
CS:times selected: 175031
CS:pref_filled: 59403
CS:pref_useful: 36121
CS:pref_late: 6944
CS:misses: 16001
CS:misses_by_poll: 2

CPLX: 
CPLX:times selected: 996612
CPLX:pref_filled: 19566
CPLX:pref_useful: 4678
CPLX:pref_late: 3214
CPLX:misses: 93799
CPLX:misses_by_poll: 0

NL_L1: 
NL:times selected: 20397
NL:pref_filled: 838
NL:pref_useful: 360
NL:pref_late: 256
NL:misses: 1760
NL:misses_by_poll: 0

total selections: 2364780
total_filled: 94513
total_useful: 33609
total_late: 18638
total_polluted: 2
total_misses_after_warmup: 771621
conflicts: 5522081

test: 114683

DRAM Statistics
 CHANNEL 0
 RQ ROW_BUFFER_HIT:      10131  ROW_BUFFER_MISS:      16565
 DBUS_CONGESTED:         14
 WQ ROW_BUFFER_HIT:       1219  ROW_BUFFER_MISS:      11554  FULL:          0

 AVG_CONGESTED_CYCLE: 5

CPU 0 Branch Prediction Accuracy: 99.8272% MPKI: 0.31622 Average ROB Occupancy at Mispredict: 199.375
Branch types
NOT_BRANCH: 40848303 81.6966%
BRANCH_DIRECT_JUMP: 547554 1.09511%
BRANCH_INDIRECT: 182354 0.364708%
BRANCH_CONDITIONAL: 6178123 12.3562%
BRANCH_DIRECT_CALL: 949034 1.89807%
BRANCH_INDIRECT_CALL: 172786 0.345572%
BRANCH_RETURN: 1121824 2.24365%
BRANCH_OTHER: 0 0%

DRAM PAGES: 1048576
Allocated PAGES: 2589
Average_ROB_Occupancy: 251.074
Average_Decode_Occupancy: 38.0594
Average_FTQ_Occupancy: 14.7717
Indirect max targets: 14 Average targets: 1.17778
Branch_type:  BRANCH_DIRECT_JUMP:  Count Percentage: 4.12615 5.68839 3.6339 2.28157 8.16698 6.32441 1.45656 68.322 
Branch_type:  BRANCH_INDIRECT:  Count Percentage: 11.7649 3.39007 2.49565 13.3008 3.35469 2.81793 0.939127 61.9368 
Branch_type:  BRANCH_CONDITIONAL:  Count Percentage: 21.9162 2.25494 1.81251 2.73446 2.01931 4.6314 3.63547 60.9957 
Branch_type:  BRANCH_DIRECT_CALL:  Count Percentage: 0.386715 1.804 0.716851 1.466 4.32633 2.60504 0.408249 88.2868 
Branch_type:  BRANCH_INDIRECT_CALL:  Count Percentage: 9.53172 0 2.9876 0.000869921 1.36056 1.70997 0.99287 83.4164 
Branch_type:  BRANCH_RETURN:  Count Percentage: 3.9341 2.02347 2.23352 2.03699 3.44561 5.11455 3.6105 77.6013 
Branch_type:  BRANCH_DIRECT_JUMP:  Total Count: 45172 62275 39783 24978 89410 69238 15946 747972 
Branch_type:  BRANCH_INDIRECT:  Total Count: 42894 12360 9099 48494 12231 10274 3424 225818 
Branch_type:  BRANCH_CONDITIONAL:  Total Count: 2706780 278498 223856 337722 249397 572005 449001 7533318 
Branch_type:  BRANCH_DIRECT_CALL:  Total Count: 7327 34180 13582 27776 81970 49357 7735 1672749 
Branch_type:  BRANCH_INDIRECT_CALL:  Total Count: 32871 0 10303 3 4692 5897 3424 287669 
Branch_type:  BRANCH_RETURN:  Total Count: 88140 45334 50040 45637 77196 114587 80890 1738589 
Number of unique branch instructions: 10811
Upper 32 bits: 
aaaa
ffff
ffff0000
Unique upper 32 bits: 3
Unique upper 36 bits: 3
Unique upper 40 bits: 5
Unique upper 44 bits: 32
Unique upper 48 bits: 158
Variant_0 : 1381 0.337158
Variant_1 : 2697 0.658447
Variant_2 : 0 0
Variant_3 : 0 0
Offset_3 4470
Offset_4 255
Offset_5 484
Offset_6 541
Offset_7 643
Offset_8 577
Offset_9 523
Offset_10 426
Offset_11 360
Offset_12 327
Offset_13 240
Offset_14 247
Offset_15 194
Offset_16 233
Offset_17 169
Offset_18 149
Offset_19 257
Offset_20 143
Offset_21 235
Offset_22 413
Offset_23 241
Offset_24 351
Offset_25 117
Offset_47 94
Offset_64 2
decode_dispatch_called: 26267267 73.5161
Dispatch_width: 0 14120363 53.7565 39.5197
Dispatch_width: 1 1034157 3.93706 2.89437
Dispatch_width: 2 852422 3.24519 2.38573
Dispatch_width: 3 500095 1.90387 1.39965
Dispatch_width: 4 6344026 24.1518 17.7555
Dispatch_width: 5 112612 0.428716 0.315175
Dispatch_width: 6 3303592 12.5768 9.246
Empty_decode_cycles: 9462708 26.4839
ROB_full_cycles: 10016902 28.035
Starvation_cycles_per_kilo_instr: 224.095
Starvation_cycles_per_kilo_instr_3: 159.528
Starvation_cycles_per_kilo_instr_0: 135.662
Branch_type_1  (3,1)  (4,9)  (5,39)  (6,74)  (7,126)  (8,148)  (9,136)  (10,110)  (11,78)  (12,55)  (13,11)  (14,2)  (15,3)  (16,4)  (18,1)  (19,5)  (20,2)  (21,1)  (22,3)  (23,2)  (24,10)  (25,12) 
Branch_type_2  (3,1)  (4,1)  (5,1)  (8,4)  (9,4)  (10,1)  (12,1)  (13,1)  (14,1)  (16,3)  (17,2)  (20,2)  (21,2)  (23,5)  (24,1)  (47,43) 
Branch_type_3  (3,4468)  (4,245)  (5,440)  (6,451)  (7,487)  (8,360)  (9,288)  (10,172)  (11,146)  (12,62)  (13,10)  (64,2) 
Branch_type_4  (6,3)  (7,8)  (8,25)  (9,56)  (10,68)  (11,70)  (12,117)  (13,102)  (14,112)  (15,92)  (16,102)  (17,79)  (18,65)  (19,125)  (20,73)  (21,124)  (22,219)  (23,136)  (24,206)  (25,101) 
Branch_type_5  (8,3)  (9,1)  (10,4)  (11,5)  (12,3)  (13,14)  (14,16)  (15,11)  (16,22)  (17,11)  (18,23)  (19,14)  (20,11)  (21,13)  (22,43)  (23,26)  (24,38) 
Branch_type_6  (5,4)  (6,13)  (7,22)  (8,37)  (9,38)  (10,71)  (11,61)  (12,89)  (13,102)  (14,116)  (15,88)  (16,102)  (17,77)  (18,60)  (19,113)  (20,55)  (21,95)  (22,148)  (23,72)  (24,96)  (25,4)  (47,51) 
Unique trigger count: 
Variant_0_evicts_0 : 0
Variant_0_evicts_1 : 0
Variant_0_evicts_2 : 0
Variant_0_evicts_3 : 0
Variant_1_evicts_0 : 0
Variant_1_evicts_1 : 0
Variant_1_evicts_2 : 0
Variant_1_evicts_3 : 0
Variant_2_evicts_0 : 0
Variant_2_evicts_1 : 0
Variant_2_evicts_2 : 0
Variant_2_evicts_3 : 0
Variant_3_evicts_0 : 0
Variant_3_evicts_1 : 0
Variant_3_evicts_2 : 0
Variant_3_evicts_3 : 0
BTB PER SET UNIQUE ADDR: 8 15 9 18 13 13 11 15 9 12 13 17 16 14 9 10 15 14 14 16 18 11 18 15 11 14 13 13 12 9 14 14 15 6 12 12 12 13 12 14 14 12 14 15 10 12 13 9 13 14 15 10 9 13 14 4 12 11 13 13 16 18 14 11 11 17 17 11 15 15 12 12 17 12 13 7 11 15 8 21 16 9 12 18 15 13 18 13 12 22 8 10 14 16 10 18 9 12 15 13 15 11 13 12 17 15 10 12 9 12 9 17 16 12 12 6 16 9 13 13 16 9 13 10 12 12 7 8 19 13 10 15 11 16 16 9 7 14 11 18 10 18 14 14 12 6 14 11 11 15 13 17 11 11 11 16 14 15 11 11 17 12 15 17 16 12 14 9 14 13 8 10 12 14 13 11 14 11 10 16 9 14 12 16 20 17 12 15 18 12 12 11 9 16 14 11 9 15 7 9 12 13 16 9 10 10 17 12 14 15 11 15 8 15 9 10 14 19 10 21 8 13 13 12 10 16 16 16 7 16 12 9 12 13 11 15 15 12 13 10 10 15 16 17 10 10 10 9 15 13 15 15 13 12 15 15 9 9 14 18 13 9 8 14 15 11 12 8 16 14 16 17 11 8 9 8 10 15 14 13 14 14 9 14 11 10 13 13 18 15 11 8 12 16 12 11 14 15 14 15 12 14 10 17 12 15 15 13 24 13 9 16 10 22 19 14 19 15 16 15 10 12 10 11 10 15 11 11 10 11 13 18 13 16 12 18 10 16 6 16 11 10 9 17 11 15 12 11 14 17 14 14 15 12 12 14 12 10 15 12 11 17 9 17 14 17 8 14 12 13 17 11 11 11 11 14 14 15 16 14 16 8 6 14 13 13 17 21 10 15 14 15 17 19 11 11 9 12 18 16 10 13 10 18 17 13 12 16 13 16 15 11 12 12 11 15 12 20 21 15 12 11 14 15 17 10 12 11 17 10 19 11 11 10 15 19 18 13 13 12 16 10 12 17 19 10 10 14 15 14 17 17 15 12 17 21 15 14 12 13 12 11 12 16 17 12 12 15 16 20 13 9 13 12 14 16 14 18 10 7 14 17 12 11 13 15 19 17 13 17 11 14 14 11 15 12 13 14 9 12 10 16 10 15 10 10 12 14 14 15 14 18 15 12 10 14 11 18 11 10 14 13 10 10 12 14 27 10 7 17 13 14 15 14 17 14 10 14 13 13 16 9 13 9 15 16 10 14 15 14 14 15 12 15 13 14 12 15 16 18 12 21 10 13 15 18 16 18 16 16 16 14 15 16 14 12 14 16 12 13 15 10 10 17 16 14 9 13 10 16 12 10 15 13 11 10 11 11 13 11 16 14 10 10 10 14 19 14 16 13 15 17 8 11 5 18 9 12 8 16 17 18 8 8 11 17 13 20 11 14 12 17 17 18 15 13 13 16 10 15 12 15 10 16 13 13 8 12 17 11 10 17 11 9 11 15 12 14 16 14 16 9 12 16 14 14 11 13 13 14 11 15 13 12 17 14 17 19 15 14 9 16 14 14 12 11 13 11 12 14 12 10 13 11 12 12 13 14 10 11 11 15 15 14 8 19 14 12 10 14 13 15 14 12 11 11 16 13 11 14 15 13 13 10 10 12 10 12 12 15 15 12 13 13 12 20 16 14 15 11 11 14 16 19 19 8 12 10 14 13 18 14 13 13 9 15 17 8 9 14 15 11 10 16 18 16 9 14 18 13 14 14 11 10 11 11 16 15 18 11 8 15 14 9 11 12 10 13 11 8 11 9 15 13 14 15 17 11 14 15 20 15 16 20 19 12 15 15 10 11 13 18 18 14 11 12 19 15 8 15 15 18 11 15 12 9 12 13 13 19 14 17 17 14 9 16 17 16 14 9 17 13 10 9 14 19 14 19 12 16 16 9 10 11 15 20 13 14 12 12 16 15 10 11 17 10 16 8 17 9 13 14 17 11 17 10 13 14 12 14 12 8 15 17 11 13 12 16 17 15 14 13 14 11 13 15 17 14 12 15 13 13 15 20 8 13 7 14 15 14 14 11 15 15 9 14 19 12 14 16 12 13 13 15 11 9 9 19 13 12 15 20 21 12 13 13 11 14 17 16 10 18 13 13 11 13 17 16 11 14 14 15 9 10 10 14 16 13 18 12 19 10 12 19 15 13 14 11 11 18 16 15 12 14 12 13 17 14 15 19 14 12 15 10 11 18 18 12 16 16 15 17 17 17 12 14 13 18 16 11 16 16 12 12 17 16 10 17 17 18 15 16 11 11 12 11 6 10 9 11 13 16 12 11 
BTB PER SET COUNT: 969 23 1926 31 31 20 1401 31 1486 16 18 20 15577 29 13 11 126 25 18 23 30 14 167 29 19 15 27 21 19 12 17 22 19 6 15 131 17 15 16 1079 21 12 31 38 11 13 19 9 498 18 23 565 10 18 19 364 15 18 15 24 20 21 21 12 13 64 28 947 17 20 1488 22 21 13 15 11 15 1098 13 31 236 17 16 26 20 15 32 21 1030 38 8 16 21 51 13 25 1036 22 24 19 25 264 15 15 1632 18 20 19 1679 2233 11 32 38 16 17 1446 23 12 1488 18 21 25 17 10 17 21 9 9 32 974 12 3064 25 21 31 11 1000 25 11 22 14 25 19 16 14 7 21 14 12 25 18 319 1050 14 13 27 15 20 15 15 24 222 451 20 1502 14 17 12 26 1796 9 11 14 18 20 15 17 16 969 713 17 154 827 25 30 22 15 23 44 500 20 13 12 20 26 96 13 979 7 272 13 119 1014 13 10 10 28 18 545 1491 13 22 9 7219 13 14 21 26 2953 32 11 21 427 16 16 27 20 23 627 25 16 9 14 19 14 23 139 21 20 15 23 21 20 267 20 13 12 13 18 19 26 19 13 18 28 25 94 13 19 28 25 11 8 159 19 14 12 10 1824 18 23 77 309 8 615 13 10 24 16 20 27 25 258 695 14 16 15 17 29 17 14 8 14 315 16 14 16 21 23 277 13 16 186 27 21 160 23 243 149 270 1007 21 10 34 1639 173 29 25 26 20 11 898 15 17 1483 419 45 14 13 18 18 23 41 23 18 33 13 26 11 21 15 1991 9 20 407 21 19 18 18 29 22 1489 26 18 19 18 18 16 124 18 20 34 10 30 16 1582 10 20 16 18 19 373 21 20 14 17 25 27 157 23 427 11 11 15 17 16 559 29 16 389 19 20 24 69 11 332 11 19 1144 1645 13 14 14 34 31 20 17 350 20 20 929 13 12 13 16 27 22 3116 137 25 19 14 20 26 24 16 20 13 34 11 59 12 13 11 21 35 212 532 18 16 258 12 48 23 448 12 424 25 24 21 28 40 23 14 399 257 17 19 15 21 38 108 23 716 30 14 14 20 30 29 17 10 19 12 21 20 23 33 14 10 22 28 18 13 632 24 27 35 22 23 53 22 52 22 17 15 567 519 9 16 13 22 11 89 18 13 14 18 16 20 14 37 144 718 12 21 14 29 15 16 16 16 12 21 18 17 1218 1487 12 2327 22 225 19 20 30 24 14 17 19 508 26 9 46 13 36 22 13 26 22 1963 19 26 1009 19 16 24 17 24 25 43 16 44 11 16 405 46 117 27 24 18 28 16 26 21 18 13 23 27 17 21 22 12 11 769 29 23 729 20 14 22 167 13 337 16 12 10 1963 13 260 18 24 25 14 10 16 18 32 1129 18 22 25 27 1820 14 5 24 10 21 10 26 22 19 9 295 13 20 16 29 15 513 13 32 61 111 22 14 24 513 15 23 17 16 13 312 1276 21 488 16 38 21 12 24 12 15 20 23 18 70 705 172 25 10 14 27 1994 16 15 1601 1063 19 13 22 1010 15 58 137 31 30 25 17 10 22 139 56 19 14 21 16 19 20 12 13 17 24 620 22 19 126 15 12 714 21 87 15 10 29 18 16 12 21 114 22 1005 15 269 20 1530 15 12 22 17 293 17 377 11 12 11 18 355 111 157 7531 20 116 13 35 497 21 24 14 71 27 480 23 34 9 425 10 28 16 413 43 484 17 13 16 23 1479 10 18 22 25 11 223 2154 27 9 24 22 248 18 16 16 14 12 14 21 20 26 13 1931 25 107 11 14 18 11 15 15 9 354 851 19 17 373 483 22 14 23 974 327 17 19 54 403 21 20 17 16 11 16 2009 26 19 13 19 178 27 10 20 20 1036 16 19 20 11 24 21 20 48 17 23 29 21 154 24 27 536 19 113 30 34 21 9 159 25 27 31 12 27 392 10 11 14 25 27 19 22 26 14 741 20 290 14 277 13 20 11 24 39 141 23 23 14 21 10 13 22 13 19 16 13 112 61 13 799 19 26 24 19 24 1253 24 5954 19 20 27 20 15 21 15 18 24 400 10 22 7 18 149 15 31 13 22 24 13 20 501 264 21 69 16 48 20 25 13 12 11 31 19 13 16 40 36 19 17 764 14 75 22 29 14 937 18 21 18 970 27 20 11 23 318 1016 166 13 12 18 18 17 26 13 316 16 350 31 25 15 1489 13 13 28 76 22 14 22 13 16 429 18 503 34 17 1448 25 486 21 814 25 19 20 37 23 3051 60 756 1492 22 19 392 32 16 22 40 14 28 33 24 17 33 21 492 916 22 15 14 16 16 7 12 11 12 13 99 13 17 
To predecode: 0
Predecoding something: 0
Predecode request dropped: 0
sizeofblock_0 0
sizeofblock_1 56421
sizeofblock_2 84641
sizeofblock_3 0
sizeofblock_4 0
sizeofblock_5 0
sizeofblock_6 0
sizeofblock_7 0
sizeofblock_8 0
Variant_0 Correct: 1614788 Incorrect: 0 Accuracy: 1
Variant_1 Correct: 5746020 Incorrect: 0 Accuracy: 1
Variant_2 Correct: 0 Incorrect: 0 Accuracy: -nan
Variant_3 Correct: 0 Incorrect: 0 Accuracy: -nan
