
*** ChampSim Multicore Out-of-Order Simulator ***

Warmup Instructions: 50000000
Simulation Instructions: 50000000
Number of CPUs: 1
LLC sets: 2048
LLC ways: 16
Off-chip DRAM Size: 4096 MB Channels: 1 Width: 64-bit Data Rate: 6400 MT/s
CPU 0 runs ./micro_traces/srv115.trace.gz
.gz
ITLB has LRU replacement policy
DTLB has LRU replacement policy
STLB has LRU replacement policy
FDIP Prefetcher at L1I
L1I has LRU replacement policy
L1D has LRU replacement policy
Initialize SRRIP state for L2C
Initialize DRRIP state for LLC
Heartbeat_Variant_0 : 1332 0.325195 per_variant_size: 0 1332 0 0 0 0 0 0 0 
Heartbeat_Variant_1 : 2417 0.590088 per_variant_size: 0 303 2114 0 0 0 0 0 0 
Heartbeat_Variant_2 : 0 0 per_variant_size: 0 0 0 0 0 0 0 0 0 
Heartbeat_Variant_3 : 0 0 per_variant_size: 0 0 0 0 0 0 0 0 0 
Heartbeat_Variant_0_evicts 0 : 5588 1 : 39 2 : 0 3 : 0 
Heartbeat_Variant_1_evicts 0 : 26 1 : 0 2 : 0 3 : 0 
Heartbeat_Variant_2_evicts 0 : 0 1 : 0 2 : 0 3 : 0 
Heartbeat_Variant_3_evicts 0 : 0 1 : 0 2 : 0 3 : 0 
Heartbeat CPU 0 instructions: 10000001 cycles: 2796926 heartbeat IPC: 3.57535 cumulative IPC: 3.57535 (Simulation time: 0 hr 1 min 40 sec) 
Heartbeat_Variant_0 : 1368 0.333984 per_variant_size: 0 1368 0 0 0 0 0 0 0 
Heartbeat_Variant_1 : 2505 0.611572 per_variant_size: 0 293 2212 0 0 0 0 0 0 
Heartbeat_Variant_2 : 0 0 per_variant_size: 0 0 0 0 0 0 0 0 0 
Heartbeat_Variant_3 : 0 0 per_variant_size: 0 0 0 0 0 0 0 0 0 
Heartbeat_Variant_0_evicts 0 : 5677 1 : 35 2 : 0 3 : 0 
Heartbeat_Variant_1_evicts 0 : 35 1 : 0 2 : 0 3 : 0 
Heartbeat_Variant_2_evicts 0 : 0 1 : 0 2 : 0 3 : 0 
Heartbeat_Variant_3_evicts 0 : 0 1 : 0 2 : 0 3 : 0 
Heartbeat CPU 0 instructions: 20000003 cycles: 5593794 heartbeat IPC: 3.57543 cumulative IPC: 3.57539 (Simulation time: 0 hr 3 min 20 sec) 
Heartbeat_Variant_0 : 1372 0.334961 per_variant_size: 0 1372 0 0 0 0 0 0 0 
Heartbeat_Variant_1 : 2508 0.612305 per_variant_size: 0 292 2216 0 0 0 0 0 0 
Heartbeat_Variant_2 : 0 0 per_variant_size: 0 0 0 0 0 0 0 0 0 
Heartbeat_Variant_3 : 0 0 per_variant_size: 0 0 0 0 0 0 0 0 0 
Heartbeat_Variant_0_evicts 0 : 5627 1 : 7 2 : 0 3 : 0 
Heartbeat_Variant_1_evicts 0 : 4 1 : 0 2 : 0 3 : 0 
Heartbeat_Variant_2_evicts 0 : 0 1 : 0 2 : 0 3 : 0 
Heartbeat_Variant_3_evicts 0 : 0 1 : 0 2 : 0 3 : 0 
Heartbeat CPU 0 instructions: 30000000 cycles: 8389492 heartbeat IPC: 3.57692 cumulative IPC: 3.5759 (Simulation time: 0 hr 4 min 56 sec) 
Heartbeat_Variant_0 : 1376 0.335938 per_variant_size: 0 1376 0 0 0 0 0 0 0 
Heartbeat_Variant_1 : 2517 0.614502 per_variant_size: 0 295 2222 0 0 0 0 0 0 
Heartbeat_Variant_2 : 0 0 per_variant_size: 0 0 0 0 0 0 0 0 0 
Heartbeat_Variant_3 : 0 0 per_variant_size: 0 0 0 0 0 0 0 0 0 
Heartbeat_Variant_0_evicts 0 : 5502 1 : 12 2 : 0 3 : 0 
Heartbeat_Variant_1_evicts 0 : 12 1 : 0 2 : 0 3 : 0 
Heartbeat_Variant_2_evicts 0 : 0 1 : 0 2 : 0 3 : 0 
Heartbeat_Variant_3_evicts 0 : 0 1 : 0 2 : 0 3 : 0 
Heartbeat CPU 0 instructions: 40000000 cycles: 11185347 heartbeat IPC: 3.57672 cumulative IPC: 3.57611 (Simulation time: 0 hr 6 min 32 sec) 
Heartbeat_Variant_0 : 1409 0.343994 per_variant_size: 0 1409 0 0 0 0 0 0 0 
Heartbeat_Variant_1 : 2577 0.62915 per_variant_size: 0 272 2305 0 0 0 0 0 0 
Heartbeat_Variant_2 : 0 0 per_variant_size: 0 0 0 0 0 0 0 0 0 
Heartbeat_Variant_3 : 0 0 per_variant_size: 0 0 0 0 0 0 0 0 0 
Heartbeat_Variant_0_evicts 0 : 5613 1 : 108 2 : 0 3 : 0 
Heartbeat_Variant_1_evicts 0 : 98 1 : 0 2 : 0 3 : 0 
Heartbeat_Variant_2_evicts 0 : 0 1 : 0 2 : 0 3 : 0 
Heartbeat_Variant_3_evicts 0 : 0 1 : 0 2 : 0 3 : 0 
Heartbeat CPU 0 instructions: 50000002 cycles: 13981425 heartbeat IPC: 3.57644 cumulative IPC: 3.57617 (Simulation time: 0 hr 8 min 5 sec) 

Warmup complete CPU 0 instructions: 50000002 cycles: 13981425 (Simulation time: 0 hr 8 min 5 sec) 

Cycle: 20000000 FTQ IN: 58410764 FTQ occupancy: 20.0107 DECODE IN: 58410652 DECODE occupancy: 52.1968 ROB IN: 58410652 ROB occupancy: 315.383 ROB OUT: 58410535
Heartbeat_Variant_0 : 1408 0.34375 per_variant_size: 0 1408 0 0 0 0 0 0 0 
Heartbeat_Variant_1 : 2581 0.630127 per_variant_size: 0 292 2289 0 0 0 0 0 0 
Heartbeat_Variant_2 : 0 0 per_variant_size: 0 0 0 0 0 0 0 0 0 
Heartbeat_Variant_3 : 0 0 per_variant_size: 0 0 0 0 0 0 0 0 0 
Heartbeat_Variant_0_evicts 0 : 5709 1 : 2 2 : 0 3 : 0 
Heartbeat_Variant_1_evicts 0 : 5 1 : 0 2 : 0 3 : 0 
Heartbeat_Variant_2_evicts 0 : 0 1 : 0 2 : 0 3 : 0 
Heartbeat_Variant_3_evicts 0 : 0 1 : 0 2 : 0 3 : 0 
Heartbeat CPU 0 instructions: 60000000 cycles: 21141478 heartbeat IPC: 1.39664 cumulative IPC: 1.39664 (Simulation time: 0 hr 9 min 53 sec) 
Heartbeat_Variant_0 : 1414 0.345215 per_variant_size: 0 1414 0 0 0 0 0 0 0 
Heartbeat_Variant_1 : 2582 0.630371 per_variant_size: 0 283 2299 0 0 0 0 0 0 
Heartbeat_Variant_2 : 0 0 per_variant_size: 0 0 0 0 0 0 0 0 0 
Heartbeat_Variant_3 : 0 0 per_variant_size: 0 0 0 0 0 0 0 0 0 
Heartbeat_Variant_0_evicts 0 : 5522 1 : 17 2 : 0 3 : 0 
Heartbeat_Variant_1_evicts 0 : 14 1 : 0 2 : 0 3 : 0 
Heartbeat_Variant_2_evicts 0 : 0 1 : 0 2 : 0 3 : 0 
Heartbeat_Variant_3_evicts 0 : 0 1 : 0 2 : 0 3 : 0 
Heartbeat CPU 0 instructions: 70000002 cycles: 28409901 heartbeat IPC: 1.37581 cumulative IPC: 1.38615 (Simulation time: 0 hr 11 min 48 sec) 
Cycle: 30000000 FTQ IN: 13796879 FTQ occupancy: 13.0816 DECODE IN: 13796936 DECODE occupancy: 33.8363 ROB IN: 13796876 ROB occupancy: 239.37 ROB OUT: 13796645
Heartbeat_Variant_0 : 1418 0.346191 per_variant_size: 0 1418 0 0 0 0 0 0 0 
Heartbeat_Variant_1 : 2591 0.632568 per_variant_size: 0 276 2315 0 0 0 0 0 0 
Heartbeat_Variant_2 : 0 0 per_variant_size: 0 0 0 0 0 0 0 0 0 
Heartbeat_Variant_3 : 0 0 per_variant_size: 0 0 0 0 0 0 0 0 0 
Heartbeat_Variant_0_evicts 0 : 5699 1 : 16 2 : 0 3 : 0 
Heartbeat_Variant_1_evicts 0 : 17 1 : 0 2 : 0 3 : 0 
Heartbeat_Variant_2_evicts 0 : 0 1 : 0 2 : 0 3 : 0 
Heartbeat_Variant_3_evicts 0 : 0 1 : 0 2 : 0 3 : 0 
Heartbeat CPU 0 instructions: 80000002 cycles: 35569214 heartbeat IPC: 1.39678 cumulative IPC: 1.38967 (Simulation time: 0 hr 13 min 36 sec) 
Cycle: 40000000 FTQ IN: 13944548 FTQ occupancy: 13.022 DECODE IN: 13944537 DECODE occupancy: 33.9114 ROB IN: 13944537 ROB occupancy: 239.544 ROB OUT: 13944732
Heartbeat_Variant_0 : 1418 0.346191 per_variant_size: 0 1418 0 0 0 0 0 0 0 
Heartbeat_Variant_1 : 2592 0.632812 per_variant_size: 0 275 2317 0 0 0 0 0 0 
Heartbeat_Variant_2 : 0 0 per_variant_size: 0 0 0 0 0 0 0 0 0 
Heartbeat_Variant_3 : 0 0 per_variant_size: 0 0 0 0 0 0 0 0 0 
Heartbeat_Variant_0_evicts 0 : 5533 1 : 11 2 : 0 3 : 0 
Heartbeat_Variant_1_evicts 0 : 11 1 : 0 2 : 0 3 : 0 
Heartbeat_Variant_2_evicts 0 : 0 1 : 0 2 : 0 3 : 0 
Heartbeat_Variant_3_evicts 0 : 0 1 : 0 2 : 0 3 : 0 
Heartbeat CPU 0 instructions: 90000000 cycles: 42755419 heartbeat IPC: 1.39155 cumulative IPC: 1.39014 (Simulation time: 0 hr 15 min 25 sec) 
Cycle: 50000000 FTQ IN: 13825602 FTQ occupancy: 13.1777 DECODE IN: 13825571 DECODE occupancy: 34.1123 ROB IN: 13825631 ROB occupancy: 240.317 ROB OUT: 13825744
Heartbeat_Variant_0 : 1418 0.346191 per_variant_size: 0 1418 0 0 0 0 0 0 0 
Heartbeat_Variant_1 : 2592 0.632812 per_variant_size: 0 272 2320 0 0 0 0 0 0 
Heartbeat_Variant_2 : 0 0 per_variant_size: 0 0 0 0 0 0 0 0 0 
Heartbeat_Variant_3 : 0 0 per_variant_size: 0 0 0 0 0 0 0 0 0 
Heartbeat_Variant_0_evicts 0 : 5509 1 : 1 2 : 0 3 : 0 
Heartbeat_Variant_1_evicts 0 : 1 1 : 0 2 : 0 3 : 0 
Heartbeat_Variant_2_evicts 0 : 0 1 : 0 2 : 0 3 : 0 
Heartbeat_Variant_3_evicts 0 : 0 1 : 0 2 : 0 3 : 0 
Heartbeat CPU 0 instructions: 100000002 cycles: 50015383 heartbeat IPC: 1.37742 cumulative IPC: 1.38758 (Simulation time: 0 hr 17 min 17 sec) 
Finished CPU 0 instructions: 50000000 cycles: 36033958 cumulative IPC: 1.38758 (Simulation time: 0 hr 17 min 17 sec) 

ChampSim completed all CPUs

Region of Interest Statistics

CPU 0 cumulative IPC: 1.38758 instructions: 50000000 cycles: 36033958
 Fetch stage stalled: 53.2434  Sim cycles: 36033958 fetch stall cycle: 19185707
 Empty decode stage: 35.1398  Sim cycles: 36033958 fetch stall cycle: 12662267
ITLB TOTAL     ACCESS:    5865001  HIT:    5370920  MISS:     494081  HIT %:    91.5758  MISS %:    8.42423   MPKI: 9.88162
ITLB LOAD TRANSLATION INSTRUCTION	ACCESS:    5736025  HIT:    5241944  MISS:     494081  HIT %:    91.3864  MISS %:    8.61365  MPKI: 9.88162
ITLB TRANSLATION FROM L1D PREFETCHER INSTRUCTION	ACCESS:     128976  HIT:     128976  MISS:          0  HIT %:        100  MISS %:          0  MPKI: 0

ITLB AVERAGE MISS LATENCY: 9.04523 cycles
ITLB RQ	ACCESS:    8008683	FORWARD:          0	MERGED:    1697752	TO_CACHE:    6310931

DTLB TOTAL     ACCESS:    8969262  HIT:    8498627  MISS:     470635  HIT %:    94.7528  MISS %:     5.2472   MPKI: 9.4127
DTLB LOAD TRANSLATION DATA	ACCESS:    8969262  HIT:    8498627  MISS:     470635  HIT %:    94.7528  MISS %:     5.2472  MPKI: 9.4127

DTLB AVERAGE MISS LATENCY: 9.31629 cycles
DTLB RQ	ACCESS:   13341806	FORWARD:          0	MERGED:    4336347	TO_CACHE:    9005459

STLB TOTAL     ACCESS:    1211797  HIT:    1209763  MISS:       2034  HIT %:    99.8322  MISS %:    0.16785   MPKI: 0.04068
STLB LOAD TRANSLATION INSTRUCTION	ACCESS:     494081  HIT:     493867  MISS:        214  HIT %:    99.9567  MISS %:  0.0433127  MPKI: 0.00428
STLB LOAD TRANSLATION DATA	ACCESS:     470634  HIT:     468843  MISS:       1791  HIT %:    99.6194  MISS %:    0.38055  MPKI: 0.03582
STLB TRANSLATION FROM L1D PREFETCHER DATA	ACCESS:     247082  HIT:     247053  MISS:         29  HIT %:    99.9883  MISS %:   0.011737  MPKI: 0.00058

STLB AVERAGE MISS LATENCY: 68.8348 cycles
STLB RQ	ACCESS:    1331796	FORWARD:          0	MERGED:     119965	TO_CACHE:    1211831

STLB Hit, L1D data hit: 0
STLB Hit, L2C data hit: 0
STLB Hit, LLC data hit: 0
STLB Hit, LLC data miss: 0
STLB STLB hints to L2: 0
L1D TOTAL     ACCESS:   13094376  HIT:   11982309  MISS:    1112067  HIT %:    91.5073  MISS %:    8.49271   MPKI: 22.2413
L1D LOAD DATA	ACCESS:    6557557  HIT:    5824503  MISS:     733054  HIT %:    88.8212  MISS %:    11.1788  MPKI: 14.6611
L1D RFO DATA	ACCESS:    6210320  HIT:    5925408  MISS:     284912  HIT %:    95.4123  MISS %:    4.58772  MPKI: 5.69824
L1D PREFETCH DATA	ACCESS:     326499  HIT:     232398  MISS:      94101  HIT %:    71.1788  MISS %:    28.8212  MPKI: 1.88202

L1D PREFETCH  REQUESTED:     734519  ISSUED:     734519  USEFUL:      33384  USELESS:      68725
L1D USEFUL LOAD PREFETCHES:      33384 PREFETCH ISSUED TO LOWER LEVEL:     102179  ACCURACY: 32.6721
 TIMELY PREFETCHES:      33384 LATE PREFETCHES: 8003 DROPPED PREFETCHES: 7
L1D AVERAGE MISS LATENCY: 238799 cycles
L1D RQ	ACCESS:   10690436	FORWARD:          0	MERGED:    3933620	TO_CACHE:    6592067
L1D WQ	ACCESS:    6945943	FORWARD:     165108	MERGED:     196204	TO_CACHE:    6749739
L1D PQ	ACCESS:     367439	FORWARD:          0	MERGED:          0	TO_CACHE:     367080

L1D UNIQUE REGIONS ACCESSED: 0
L1D REGIONS CONFLICTS: 0
L1D Cross Page Prefetch Requests: 7002
L1D Same Page Prefetch Requests: 746921
L1D ROI Sum of L1D PQ occupancy: 4655138
L1D PREFETCHES PUSHED FROM L2C: 0
L1I TOTAL     ACCESS:    7169649  HIT:    4406005  MISS:    2763644  HIT %:    61.4536  MISS %:    38.5464   MPKI: 55.2729
L1I LOAD INSTRUCTION	ACCESS:    6500338  HIT:    3736694  MISS:    2763644  HIT %:    57.4846  MISS %:    42.5154  MPKI: 55.2729
L1I PREFETCH INSTRUCTION	ACCESS:     669311  HIT:     669311  MISS:          0  HIT %:        100  MISS %:          0  MPKI: 0

L1I PREFETCH  REQUESTED:    1613593  ISSUED:    1613593  USEFUL:          0  USELESS:          0
L1I USEFUL LOAD PREFETCHES:          0 PREFETCH ISSUED TO LOWER LEVEL:          0  ACCURACY: -nan
 TIMELY PREFETCHES:          0 LATE PREFETCHES: 0 DROPPED PREFETCHES: 0
L1I AVERAGE MISS LATENCY: 17.2063 cycles
L1I RQ	ACCESS:    9509060	FORWARD:          0	MERGED:    2683765	TO_CACHE:    6825295
L1I PQ	ACCESS:    1613593	FORWARD:          0	MERGED:     430205	TO_CACHE:    1183388

L1BTB TOTAL     ACCESS:    5670923  HIT:    2040950  MISS:    3629973  HIT %:    35.9897  MISS %:    64.0103   MPKI: 72.5995
L1BTB BRANCH_DIRECT_JUMP	ACCESS:     548561 HIT:     144654 MISS:     403907 AVERAGE STALL: 47.9314 AVERAGE FETCH STALL: 14.2152 AVERAGE FETCH QUEUE STALL: 15.5666 AVERAGE DECODE STALL: 17.2345 AVERAGE EXECUTE STALL: 2.05009e+15
L1BTB BRANCH_INDIRECT	ACCESS:     183057 HIT:      66075 MISS:     116982 AVERAGE STALL: 103.824 AVERAGE FETCH STALL: 10.8502 AVERAGE FETCH QUEUE STALL: 15.0726 AVERAGE DECODE STALL: 12.7826 AVERAGE EXECUTE STALL: 64.1562
L1BTB BRANCH_CONDITIONAL	ACCESS:    2704624 HIT:    1411401 MISS:    1293223 AVERAGE STALL: 67.9691 AVERAGE FETCH STALL: 30.3798 AVERAGE FETCH QUEUE STALL: 17.6557 AVERAGE DECODE STALL: 19.1237 AVERAGE EXECUTE STALL: 5.64985e+15
L1BTB BRANCH_DIRECT_CALL	ACCESS:     945272 HIT:     106290 MISS:     838982 AVERAGE STALL: 59.5519 AVERAGE FETCH STALL: 21.4976 AVERAGE FETCH QUEUE STALL: 14.7842 AVERAGE DECODE STALL: 22.7193 AVERAGE EXECUTE STALL: 2.17532e+16
L1BTB BRANCH_INDIRECT_CALL	ACCESS:     172067 HIT:      21567 MISS:     150500 AVERAGE STALL: 130.489 AVERAGE FETCH STALL: 12.8436 AVERAGE FETCH QUEUE STALL: 12.9819 AVERAGE DECODE STALL: 10.2335 AVERAGE EXECUTE STALL: 93.9416
L1BTB BRANCH_RETURN	ACCESS:    1117342 HIT:     290963 MISS:     826379 AVERAGE STALL: 44.7056 AVERAGE FETCH STALL: 15.8686 AVERAGE FETCH QUEUE STALL: 4.37161 AVERAGE DECODE STALL: 5.6173 AVERAGE EXECUTE STALL: 4.31624e+14
L1BTB BRANCH_OTHER ACCESS:          0 HIT:          0 MISS:          0 AVERAGE STALL: -nan AVERAGE FETCH STALL: -nan AVERAGE FETCH QUEUE STALL: -nan AVERAGE DECODE STALL: -nan AVERAGE EXECUTE STALL: -nan
L1BTB TOTAL ROB OCCUPANCY AT BTB MISS: 2.43616

L2BTB TOTAL     ACCESS:    3604562  HIT:    3541518  MISS:      63044  HIT %:     98.251  MISS %:    1.74901   MPKI: 1.26088
L2BTB BRANCH_DIRECT_JUMP	ACCESS:     399744 HIT:     394907 MISS:       4837 AVERAGE STALL: 47.9314 AVERAGE FETCH STALL: 14.2152 AVERAGE FETCH QUEUE STALL: 15.5666 AVERAGE DECODE STALL: 17.2345 AVERAGE EXECUTE STALL: 2.05009e+15
L2BTB BRANCH_INDIRECT	ACCESS:     106683 HIT:     104018 MISS:       2665 AVERAGE STALL: 103.824 AVERAGE FETCH STALL: 10.8502 AVERAGE FETCH QUEUE STALL: 15.0726 AVERAGE DECODE STALL: 12.7826 AVERAGE EXECUTE STALL: 64.1562
L2BTB BRANCH_CONDITIONAL	ACCESS:    1293223 HIT:    1289939 MISS:       3284 AVERAGE STALL: 67.9691 AVERAGE FETCH STALL: 30.3798 AVERAGE FETCH QUEUE STALL: 17.6557 AVERAGE DECODE STALL: 19.1237 AVERAGE EXECUTE STALL: 5.64985e+15
L2BTB BRANCH_DIRECT_CALL	ACCESS:     838982 HIT:     838130 MISS:        852 AVERAGE STALL: 59.5519 AVERAGE FETCH STALL: 21.4976 AVERAGE FETCH QUEUE STALL: 14.7842 AVERAGE DECODE STALL: 22.7193 AVERAGE EXECUTE STALL: 2.17532e+16
L2BTB BRANCH_INDIRECT_CALL	ACCESS:     140954 HIT:     130894 MISS:      10060 AVERAGE STALL: 130.489 AVERAGE FETCH STALL: 12.8436 AVERAGE FETCH QUEUE STALL: 12.9819 AVERAGE DECODE STALL: 10.2335 AVERAGE EXECUTE STALL: 93.9416
L2BTB BRANCH_RETURN	ACCESS:     824976 HIT:     783630 MISS:      41346 AVERAGE STALL: 44.7056 AVERAGE FETCH STALL: 15.8686 AVERAGE FETCH QUEUE STALL: 4.37161 AVERAGE DECODE STALL: 5.6173 AVERAGE EXECUTE STALL: 4.31624e+14
L2BTB BRANCH_OTHER ACCESS:          0 HIT:          0 MISS:          0 AVERAGE STALL: -nan AVERAGE FETCH STALL: -nan AVERAGE FETCH QUEUE STALL: -nan AVERAGE DECODE STALL: -nan AVERAGE EXECUTE STALL: -nan
L2BTB TOTAL ROB OCCUPANCY AT BTB MISS: 140.27

L2C TOTAL     ACCESS:    4475980  HIT:    4009605  MISS:     466375  HIT %:    89.5805  MISS %:    10.4195   MPKI: 9.3275
L2C LOAD INSTRUCTION	ACCESS:    2763644  HIT:    2501870  MISS:     261774  HIT %:    90.5279  MISS %:    9.47206  MPKI: 5.23548
L2C LOAD TRANSLATION INSTRUCTION	ACCESS:        238  HIT:         66  MISS:        172  HIT %:    27.7311  MISS %:    72.2689  MPKI: 0.00344
L2C LOAD DATA	ACCESS:     725023  HIT:     654498  MISS:      70525  HIT %:    90.2727  MISS %:    9.72728  MPKI: 1.4105
L2C RFO DATA	ACCESS:     284819  HIT:     235100  MISS:      49719  HIT %:    82.5437  MISS %:    17.4563  MPKI: 0.99438
L2C PREFETCH DATA	ACCESS:     180944  HIT:     112619  MISS:      68325  HIT %:    62.2397  MISS %:    37.7603  MPKI: 1.3665
L2C WRITEBACK DATA	ACCESS:     519406  HIT:     504887  MISS:      14519  HIT %:    97.2047  MISS %:    2.79531  MPKI: 0.29038
L2C LOAD TRANSLATION DATA	ACCESS:       1856  HIT:        533  MISS:       1323  HIT %:    28.7177  MISS %:    71.2823  MPKI: 0.02646
L2C TRANSLATION FROM L1D PREFETCHER DATA	ACCESS:         50  HIT:         32  MISS:         18  HIT %:         64  MISS %:         36  MPKI: 0.00036

L2C PREFETCH  REQUESTED:      86378  ISSUED:      86378  USEFUL:       6905  USELESS:      61637
L2C USEFUL LOAD PREFETCHES:       6905 PREFETCH ISSUED TO LOWER LEVEL:      68716  ACCURACY: 10.0486
 TIMELY PREFETCHES:       6905 LATE PREFETCHES: 391 DROPPED PREFETCHES: 0
L2C AVERAGE MISS LATENCY: 38.3931 cycles
L2C RQ	ACCESS:    3775678	FORWARD:          0	MERGED:          0	TO_CACHE:    3775632
L2C WQ	ACCESS:     519406	FORWARD:         46	MERGED:          0	TO_CACHE:     519406
L2C PQ	ACCESS:     188557	FORWARD:          0	MERGED:       3402	TO_CACHE:     185155

L2C Dense regions hint from L2: 0
PSCL5 TOTAL     ACCESS:       4086  HIT:       2043  MISS:       2043  HIT %:         50  MISS %:         50   MPKI: 0.04086
PSCL5 LOAD TRANSLATION INSTRUCTION	ACCESS:       3986  HIT:       1993  MISS:       1993  HIT %:         50  MISS %:         50  MPKI: 0.03986
PSCL5 TRANSLATION FROM L1D PREFETCHER INSTRUCTION	ACCESS:        100  HIT:         50  MISS:         50  HIT %:         50  MISS %:         50  MPKI: 0.001


PSCL4 TOTAL     ACCESS:       3703  HIT:       1846  MISS:       1857  HIT %:    49.8515  MISS %:    50.1485   MPKI: 0.03714
PSCL4 LOAD TRANSLATION INSTRUCTION	ACCESS:       1799  HIT:       1799  MISS:          0  HIT %:        100  MISS %:          0  MPKI: 0
PSCL4 TRANSLATION FROM L1D PREFETCHER INSTRUCTION	ACCESS:         47  HIT:         47  MISS:          0  HIT %:        100  MISS %:          0  MPKI: 0
PSCL4 LOAD TRANSLATION DATA	ACCESS:       1810  HIT:          0  MISS:       1810  HIT %:          0  MISS %:        100  MPKI: 0.0362
PSCL4 TRANSLATION FROM L1D PREFETCHER DATA	ACCESS:         47  HIT:          0  MISS:         47  HIT %:          0  MISS %:        100  MPKI: 0.00094


PSCL3 TOTAL     ACCESS:       3715  HIT:       1852  MISS:       1863  HIT %:     49.852  MISS %:     50.148   MPKI: 0.03726
PSCL3 LOAD TRANSLATION INSTRUCTION	ACCESS:       1805  HIT:       1805  MISS:          0  HIT %:        100  MISS %:          0  MPKI: 0
PSCL3 TRANSLATION FROM L1D PREFETCHER INSTRUCTION	ACCESS:         47  HIT:         47  MISS:          0  HIT %:        100  MISS %:          0  MPKI: 0
PSCL3 LOAD TRANSLATION DATA	ACCESS:       1816  HIT:          0  MISS:       1816  HIT %:          0  MISS %:        100  MPKI: 0.03632
PSCL3 TRANSLATION FROM L1D PREFETCHER DATA	ACCESS:         47  HIT:          0  MISS:         47  HIT %:          0  MISS %:        100  MPKI: 0.00094


PSCL2 TOTAL     ACCESS:       4006  HIT:       1963  MISS:       2043  HIT %:    49.0015  MISS %:    50.9985   MPKI: 0.04086
PSCL2 LOAD TRANSLATION INSTRUCTION	ACCESS:       2127  HIT:       1913  MISS:        214  HIT %:    89.9389  MISS %:    10.0611  MPKI: 0.00428
PSCL2 TRANSLATION FROM L1D PREFETCHER INSTRUCTION	ACCESS:         50  HIT:         50  MISS:          0  HIT %:        100  MISS %:          0  MPKI: 0
PSCL2 LOAD TRANSLATION DATA	ACCESS:       1779  HIT:          0  MISS:       1779  HIT %:          0  MISS %:        100  MPKI: 0.03558
PSCL2 TRANSLATION FROM L1D PREFETCHER DATA	ACCESS:         50  HIT:          0  MISS:         50  HIT %:          0  MISS %:        100  MPKI: 0.001


LLC TOTAL     ACCESS:     524565  HIT:     497166  MISS:      27399  HIT %:    94.7768  MISS %:    5.22318   MPKI: 0.54798
LLC LOAD INSTRUCTION	ACCESS:     261774  HIT:     261135  MISS:        639  HIT %:    99.7559  MISS %:   0.244104  MPKI: 0.01278
LLC LOAD TRANSLATION INSTRUCTION	ACCESS:        172  HIT:        151  MISS:         21  HIT %:    87.7907  MISS %:    12.2093  MPKI: 0.00042
LLC LOAD DATA	ACCESS:      70142  HIT:      66678  MISS:       3464  HIT %:    95.0614  MISS %:    4.93855  MPKI: 0.06928
LLC RFO DATA	ACCESS:      49703  HIT:      36565  MISS:      13138  HIT %:     73.567  MISS %:     26.433  MPKI: 0.26276
LLC PREFETCH DATA	ACCESS:      68716  HIT:      58968  MISS:       9748  HIT %:    85.8141  MISS %:    14.1859  MPKI: 0.19496
LLC WRITEBACK DATA	ACCESS:      72717  HIT:      72392  MISS:        325  HIT %:    99.5531  MISS %:   0.446938  MPKI: 0.0065
LLC LOAD TRANSLATION DATA	ACCESS:       1323  HIT:       1260  MISS:         63  HIT %:    95.2381  MISS %:     4.7619  MPKI: 0.00126
LLC TRANSLATION FROM L1D PREFETCHER DATA	ACCESS:         18  HIT:         17  MISS:          1  HIT %:    94.4444  MISS %:    5.55556  MPKI: 2e-05

LLC AVERAGE MISS LATENCY: 157.369 cycles
LLC RQ	ACCESS:     383140	FORWARD:          0	MERGED:          0	TO_CACHE:     383132
LLC WQ	ACCESS:      72717	FORWARD:          8	MERGED:          0	TO_CACHE:      72717
LLC PQ	ACCESS:      68716	FORWARD:          0	MERGED:          0	TO_CACHE:      68716

LLC Dense regions hint to LLC: 0

RAW hits: 1943033
Loads Generated: 12633469
Loads sent to L1D: 10690436
Stores Generated: 6945939
Stores sent to L1D: 6945943
Major fault: 0 Minor fault: 2559
Allocated PAGES: 2559

stream: 
stream:times selected: 1186145
stream:pref_filled: 122488
stream:pref_useful: 23872
stream:pref_late: 6747
stream:misses: 8185
stream:misses_by_poll: 0

CS: 
CS:times selected: 179455
CS:pref_filled: 60245
CS:pref_useful: 36842
CS:pref_late: 7116
CS:misses: 16150
CS:misses_by_poll: 2

CPLX: 
CPLX:times selected: 1005545
CPLX:pref_filled: 19568
CPLX:pref_useful: 4660
CPLX:pref_late: 3267
CPLX:misses: 93256
CPLX:misses_by_poll: 0

NL_L1: 
NL:times selected: 21109
NL:pref_filled: 736
NL:pref_useful: 352
NL:pref_late: 303
NL:misses: 1750
NL:misses_by_poll: 0

total selections: 2392254
total_filled: 94101
total_useful: 33384
total_late: 18883
total_polluted: 2
total_misses_after_warmup: 767564
conflicts: 5520285

test: 117305

DRAM Statistics
 CHANNEL 0
 RQ ROW_BUFFER_HIT:       9885  ROW_BUFFER_MISS:      17184
 DBUS_CONGESTED:         16
 WQ ROW_BUFFER_HIT:       1353  ROW_BUFFER_MISS:      11985  FULL:          0

 AVG_CONGESTED_CYCLE: 5

CPU 0 Branch Prediction Accuracy: 99.8238% MPKI: 0.3225 Average ROB Occupancy at Mispredict: 195.175
Branch types
NOT_BRANCH: 40850214 81.7004%
BRANCH_DIRECT_JUMP: 548561 1.09712%
BRANCH_INDIRECT: 183057 0.366114%
BRANCH_CONDITIONAL: 6183320 12.3666%
BRANCH_DIRECT_CALL: 945272 1.89054%
BRANCH_INDIRECT_CALL: 172067 0.344134%
BRANCH_RETURN: 1117342 2.23468%
BRANCH_OTHER: 0 0%

DRAM PAGES: 1048576
Allocated PAGES: 2559
Average_ROB_Occupancy: 240.706
Average_Decode_Occupancy: 33.9359
Average_FTQ_Occupancy: 13.083
Indirect max targets: 14 Average targets: 1.15282
Branch_type:  BRANCH_DIRECT_JUMP:  Count Percentage: 5.30489 5.78691 3.60887 3.01026 2.76597 11.1281 6.9718 61.4232 
Branch_type:  BRANCH_INDIRECT:  Count Percentage: 16.3954 0.802992 10.6146 0 1.33604 18.1377 2.13658 50.5768 
Branch_type:  BRANCH_CONDITIONAL:  Count Percentage: 26.4922 2.48251 1.71658 5.80977 1.20284 7.52772 2.93103 51.8374 
Branch_type:  BRANCH_DIRECT_CALL:  Count Percentage: 0.884895 1.26771 0.428698 2.31331 2.25423 3.4805 2.50786 86.8628 
Branch_type:  BRANCH_INDIRECT_CALL:  Count Percentage: 9.5499 0 2.99351 0.00174923 0.000583075 2.37428 0.99735 84.0826 
Branch_type:  BRANCH_RETURN:  Count Percentage: 9.96526 1.41949 1.35701 4.59337 1.75358 8.90504 3.15855 68.8477 
Branch_type:  BRANCH_DIRECT_JUMP:  Total Count: 58153 63437 39561 32999 30321 121988 76426 673331 
Branch_type:  BRANCH_INDIRECT:  Total Count: 60008 2939 38850 0 4890 66385 7820 185114 
Branch_type:  BRANCH_CONDITIONAL:  Total Count: 3274443 306839 212170 718090 148671 930429 362276 6407126 
Branch_type:  BRANCH_DIRECT_CALL:  Total Count: 16701 23926 8091 43660 42545 65689 47332 1639399 
Branch_type:  BRANCH_INDIRECT_CALL:  Total Count: 32757 0 10268 6 2 8144 3421 288411 
Branch_type:  BRANCH_RETURN:  Total Count: 222340 31671 30277 102485 39125 198685 70472 1536097 
Number of unique branch instructions: 9958
Upper 32 bits: 
aaaa
ffff
ffff0000
Unique upper 32 bits: 3
Unique upper 36 bits: 3
Unique upper 40 bits: 5
Unique upper 44 bits: 32
Unique upper 48 bits: 156
Variant_0 : 1418 0.346191
Variant_1 : 2592 0.632812
Variant_2 : 0 0
Variant_3 : 0 0
Offset_3 4093
Offset_4 255
Offset_5 462
Offset_6 508
Offset_7 575
Offset_8 514
Offset_9 475
Offset_10 382
Offset_11 305
Offset_12 275
Offset_13 206
Offset_14 227
Offset_15 190
Offset_16 219
Offset_17 151
Offset_18 118
Offset_19 237
Offset_20 140
Offset_21 265
Offset_22 391
Offset_23 241
Offset_24 338
Offset_25 88
Offset_47 84
Offset_64 1
decode_dispatch_called: 25413697 70.5271
Dispatch_width: 0 13535134 53.2592 37.5622
Dispatch_width: 1 972172 3.82539 2.69793
Dispatch_width: 2 832382 3.27533 2.30999
Dispatch_width: 3 507024 1.99508 1.40707
Dispatch_width: 4 5701640 22.4353 15.823
Dispatch_width: 5 156691 0.616561 0.434843
Dispatch_width: 6 3708654 14.5931 10.2921
Empty_decode_cycles: 10620261 29.4729
ROB_full_cycles: 8963435 24.875
Starvation_cycles_per_kilo_instr: 233.619
Starvation_cycles_per_kilo_instr_3: 175.035
Starvation_cycles_per_kilo_instr_0: 151.92
Branch_type_1  (3,1)  (4,8)  (5,38)  (6,72)  (7,112)  (8,132)  (9,128)  (10,99)  (11,67)  (12,43)  (13,8)  (14,2)  (15,3)  (16,4)  (18,1)  (19,4)  (20,2)  (21,1)  (22,3)  (23,2)  (24,10)  (25,12) 
Branch_type_2  (3,1)  (5,1)  (8,3)  (9,3)  (12,1)  (13,1)  (14,1)  (16,3)  (17,2)  (20,2)  (21,2)  (23,5)  (24,1)  (47,38) 
Branch_type_3  (3,4091)  (4,247)  (5,419)  (6,421)  (7,431)  (8,319)  (9,261)  (10,152)  (11,120)  (12,50)  (13,7) 
Branch_type_4  (6,3)  (7,8)  (8,26)  (9,51)  (10,61)  (11,61)  (12,97)  (13,87)  (14,100)  (15,89)  (16,98)  (17,68)  (18,53)  (19,114)  (20,71)  (21,144)  (22,208)  (23,136)  (24,190)  (25,72) 
Branch_type_5  (8,2)  (9,1)  (10,4)  (11,5)  (12,3)  (13,14)  (14,16)  (15,11)  (16,20)  (17,11)  (18,16)  (19,13)  (20,12)  (21,13)  (22,42)  (23,26)  (24,40) 
Branch_type_6  (5,4)  (6,12)  (7,24)  (8,32)  (9,31)  (10,66)  (11,52)  (12,81)  (13,89)  (14,108)  (15,87)  (16,94)  (17,70)  (18,48)  (19,106)  (20,53)  (21,105)  (22,138)  (23,72)  (24,97)  (25,4)  (47,46)  (64,1) 
Unique trigger count: 
Variant_0_evicts_0 : 0
Variant_0_evicts_1 : 0
Variant_0_evicts_2 : 0
Variant_0_evicts_3 : 0
Variant_1_evicts_0 : 0
Variant_1_evicts_1 : 0
Variant_1_evicts_2 : 0
Variant_1_evicts_3 : 0
Variant_2_evicts_0 : 0
Variant_2_evicts_1 : 0
Variant_2_evicts_2 : 0
Variant_2_evicts_3 : 0
Variant_3_evicts_0 : 0
Variant_3_evicts_1 : 0
Variant_3_evicts_2 : 0
Variant_3_evicts_3 : 0
BTB PER SET UNIQUE ADDR: 17 11 14 15 10 14 13 13 13 19 15 13 16 15 12 13 14 16 13 12 15 14 19 20 17 14 14 17 12 17 17 13 13 16 13 15 14 11 15 16 15 16 13 15 16 14 16 13 15 9 13 12 13 16 14 15 16 14 12 15 14 13 12 15 11 14 12 12 13 13 14 16 19 16 13 15 13 15 16 11 14 14 18 18 14 14 15 13 15 16 16 16 20 11 14 14 13 11 14 16 14 18 13 14 15 13 14 11 14 10 13 17 14 17 16 13 12 13 13 15 15 14 14 13 13 16 13 13 15 14 16 14 15 15 19 15 15 13 11 16 16 13 18 15 12 15 14 17 14 16 13 11 12 17 15 18 16 13 15 18 13 13 13 13 12 16 15 12 14 16 18 16 16 13 13 17 15 13 11 12 15 14 13 16 16 12 15 17 12 16 13 13 14 15 17 12 10 14 18 17 15 21 14 14 15 12 12 15 15 15 20 15 16 14 11 13 18 10 14 13 14 16 17 13 14 13 20 16 11 12 13 12 21 14 12 12 12 14 17 12 14 13 13 10 12 16 14 13 17 14 14 17 13 12 14 19 13 15 14 15 17 15 13 17 19 13 15 15 14 17 19 15 17 16 15 18 13 15 11 13 10 15 13 13 17 10 12 18 20 16 16 19 10 15 17 10 13 19 19 19 12 13 15 16 12 11 14 16 14 12 14 13 17 12 11 16 11 15 14 15 14 14 15 17 13 13 13 14 12 12 18 15 17 12 12 15 13 18 17 13 17 15 12 16 15 12 16 18 17 16 18 17 12 19 14 13 15 12 11 13 10 11 15 14 14 17 19 13 14 12 13 15 12 17 16 14 13 17 15 12 17 14 11 19 18 15 13 14 11 18 11 14 13 15 12 14 14 14 16 19 13 20 13 14 17 13 11 13 14 14 11 15 16 17 14 12 15 13 14 12 16 19 15 17 14 12 11 15 17 16 14 13 13 13 14 20 9 16 13 14 11 15 14 13 14 13 12 22 12 12 15 15 15 14 14 18 11 12 14 10 10 14 18 15 12 14 14 19 15 13 16 16 12 18 13 13 17 13 12 15 14 16 14 15 13 14 11 16 11 15 17 12 17 15 14 16 14 17 13 16 15 14 11 18 16 15 9 15 14 16 13 12 
BTB PER SET COUNT: 178 11 574 601 10 423 15 13 14 21 19 14 16 996 12 13 14 2457 13 178 17 14 22 438 499 20 14 1484 16 17 2458 1327 16 16 15 16 15 12 15 889 601 17 994 15 1026 14 991 13 17 11 46 21 15 16 15 18 20 15 1974 17 14 997 12 2456 11 14 16 993 13 13 380 23 22 467 13 1896 14 17 522 11 989 16 307 1002 627 16 15 1965 18 16 19 1483 456 12 15 37 991 14 22 16 14 1216 13 99 113 14 21 1223 996 10 14 467 15 1295 17 14 12 14 505 16 15 19 3439 12734 13 2067 13 25 396 468 18 14 17 17 58 15 15 13 155 18 16 2548 20 506 12 9412 1481 17 15 16 62 11 17 56 17 18 17 13 15 1003 989 16 13 458 1480 17 659 16 15 166 18 70 17 119 995 512 16 14 470 12 15 16 13 16 17 13 16 1030 13 17 15 13 642 996 24 12 10 17 38 19 17 699 14 544 15 13 503 27 1989 212 23 15 18 15 13 13 18 4911 17 15 16 20 21 994 14 290 136 34 11 12 65 987 21 14 14 60 17 14 18 987 14 15 14 10 12 508 14 15 2460 1481 15 411 16 299 500 22 991 15 15 996 18 15 13 17 1264 15 65 16 15 17 758 16 19 17 18 18 13 17 12 15 10 17 13 13 19 10 12 1000 87 17 16 754 10 1481 23 980 1975 995 21 2032 12 14 15 16 15 15 14 1359 14 12 3395 17 2456 56 13 762 11 895 17 775 13388 15 15 8227 13 13 13 15 12 14 31 505 19 12 12 1485 13 18 18 14 17 16 13 17 503 12 16 18 1486 545 47 20 12 21 14 13 17 12 12 15 10 11 382 1136 15 19 22 16 656 13 13 999 13 23 18 14 1140 1489 15 12 345 14 29 19 1628 15 13 14 11 443 11 14 396 19 992 3437 661 507 1848 21 14 20 13 16 19 13 11 13 19 14 12 15 16 18 15 23 17 15 995 1963 507 21 381 21 16 12 11 17 23 17 3752 19 13 16 14 24 9 17 751 15 11 16 16 13 14 14 12 26 504 16 17 15 15 14 14 19 11 13 994 10 12 27 18 20 12 316 20 21 15 996 19 16 12 18 13 1491 17 14 13 1483 1380 18 1483 15 18 508 15 762 11 15 17 12 27 15 14 19 14 17 13 22 15 14 11 18 384 15 9 15 14 21 14 38 
To predecode: 0
Predecoding something: 0
Predecode request dropped: 0
sizeofblock_0 0
sizeofblock_1 36766
sizeofblock_2 95928
sizeofblock_3 0
sizeofblock_4 0
sizeofblock_5 0
sizeofblock_6 0
sizeofblock_7 0
sizeofblock_8 0
Variant_0 Correct: 1614622 Incorrect: 0 Accuracy: 1
Variant_1 Correct: 5736684 Incorrect: 0 Accuracy: 1
Variant_2 Correct: 0 Incorrect: 0 Accuracy: -nan
Variant_3 Correct: 0 Incorrect: 0 Accuracy: -nan
