
*** ChampSim Multicore Out-of-Order Simulator ***

Warmup Instructions: 50000000
Simulation Instructions: 50000000
Number of CPUs: 1
LLC sets: 2048
LLC ways: 16
Off-chip DRAM Size: 4096 MB Channels: 1 Width: 64-bit Data Rate: 6400 MT/s
CPU 0 runs ./micro_traces/srv193.trace.gz
.gz
ITLB has LRU replacement policy
DTLB has LRU replacement policy
STLB has LRU replacement policy
FDIP Prefetcher at L1I
L1I has LRU replacement policy
L1D has LRU replacement policy
Initialize SRRIP state for L2C
Initialize DRRIP state for LLC
Heartbeat CPU 0 instructions: 10000002 cycles: 2795007 heartbeat IPC: 3.57781 cumulative IPC: 3.57781 (Simulation time: 0 hr 2 min 8 sec) 
Heartbeat CPU 0 instructions: 20000001 cycles: 5589933 heartbeat IPC: 3.57791 cumulative IPC: 3.57786 (Simulation time: 0 hr 4 min 5 sec) 
Heartbeat CPU 0 instructions: 30000001 cycles: 8384663 heartbeat IPC: 3.57816 cumulative IPC: 3.57796 (Simulation time: 0 hr 6 min 2 sec) 
Heartbeat CPU 0 instructions: 40000001 cycles: 11178781 heartbeat IPC: 3.57895 cumulative IPC: 3.57821 (Simulation time: 0 hr 7 min 54 sec) 
Heartbeat CPU 0 instructions: 50000002 cycles: 13974736 heartbeat IPC: 3.5766 cumulative IPC: 3.57789 (Simulation time: 0 hr 10 min 7 sec) 

Warmup complete CPU 0 instructions: 50000002 cycles: 13974736 (Simulation time: 0 hr 10 min 7 sec) 

Cycle: 20000000 FTQ IN: 57817156 FTQ occupancy: 19.1494 DECODE IN: 57817142 DECODE occupancy: 49.4538 ROB IN: 57817082 ROB occupancy: 301.366 ROB OUT: 57816730
*** Reached end of trace for Core: 0 Repeating trace: ./micro_traces/srv193.trace.gz
Heartbeat CPU 0 instructions: 60000001 cycles: 21804332 heartbeat IPC: 1.2772 cumulative IPC: 1.2772 (Simulation time: 0 hr 12 min 23 sec) 
Heartbeat CPU 0 instructions: 70000001 cycles: 29490430 heartbeat IPC: 1.30105 cumulative IPC: 1.28902 (Simulation time: 0 hr 14 min 29 sec) 
Cycle: 30000000 FTQ IN: 12855985 FTQ occupancy: 10.4731 DECODE IN: 12855877 DECODE occupancy: 25.2974 ROB IN: 12855877 ROB occupancy: 192.184 ROB OUT: 12856070
Heartbeat CPU 0 instructions: 80000001 cycles: 37115899 heartbeat IPC: 1.31139 cumulative IPC: 1.29639 (Simulation time: 0 hr 16 min 39 sec) 
Cycle: 40000000 FTQ IN: 12955373 FTQ occupancy: 10.3558 DECODE IN: 12955460 DECODE occupancy: 25.0523 ROB IN: 12955520 ROB occupancy: 192.776 ROB OUT: 12955527
Heartbeat CPU 0 instructions: 90000002 cycles: 44898536 heartbeat IPC: 1.28491 cumulative IPC: 1.2935 (Simulation time: 0 hr 18 min 41 sec) 
Cycle: 50000000 FTQ IN: 13050961 FTQ occupancy: 10.2357 DECODE IN: 13050950 DECODE occupancy: 24.8024 ROB IN: 13050950 ROB occupancy: 189.502 ROB OUT: 13050830
Heartbeat CPU 0 instructions: 100000003 cycles: 52556873 heartbeat IPC: 1.30577 cumulative IPC: 1.29594 (Simulation time: 0 hr 20 min 50 sec) 
Finished CPU 0 instructions: 50000001 cycles: 38582137 cumulative IPC: 1.29594 (Simulation time: 0 hr 20 min 50 sec) 

ChampSim completed all CPUs

Region of Interest Statistics

CPU 0 cumulative IPC: 1.29594 instructions: 50000001 cycles: 38582137
 Fetch stage stalled: 59.8165  Sim cycles: 38582137 fetch stall cycle: 23078495
 Empty decode stage: 45.8767  Sim cycles: 38582137 fetch stall cycle: 17700224
ITLB TOTAL     ACCESS:    5659400  HIT:    5168524  MISS:     490876  HIT %:    91.3264  MISS %:    8.67364   MPKI: 9.81752
ITLB LOAD TRANSLATION INSTRUCTION	ACCESS:    5532610  HIT:    5041734  MISS:     490876  HIT %:    91.1276  MISS %:    8.87241  MPKI: 9.81752
ITLB TRANSLATION FROM L1D PREFETCHER INSTRUCTION	ACCESS:     126790  HIT:     126790  MISS:          0  HIT %:        100  MISS %:          0  MPKI: 0

ITLB AVERAGE MISS LATENCY: 9.06994 cycles
ITLB RQ	ACCESS:    7628475	FORWARD:          0	MERGED:    1475464	TO_CACHE:    6153011

DTLB TOTAL     ACCESS:    9036604  HIT:    8560403  MISS:     476201  HIT %:    94.7303  MISS %:    5.26969   MPKI: 9.52402
DTLB LOAD TRANSLATION DATA	ACCESS:    9036604  HIT:    8560403  MISS:     476201  HIT %:    94.7303  MISS %:    5.26969  MPKI: 9.52402

DTLB AVERAGE MISS LATENCY: 9.31369 cycles
DTLB RQ	ACCESS:   13371710	FORWARD:          0	MERGED:    4298483	TO_CACHE:    9073227

STLB TOTAL     ACCESS:    1221111  HIT:    1218861  MISS:       2250  HIT %:    99.8157  MISS %:   0.184258   MPKI: 0.045
STLB LOAD TRANSLATION INSTRUCTION	ACCESS:     490876  HIT:     490563  MISS:        313  HIT %:    99.9362  MISS %:  0.0637636  MPKI: 0.00626
STLB LOAD TRANSLATION DATA	ACCESS:     476101  HIT:     474206  MISS:       1895  HIT %:     99.602  MISS %:   0.398025  MPKI: 0.0379
STLB TRANSLATION FROM L1D PREFETCHER DATA	ACCESS:     254134  HIT:     254092  MISS:         42  HIT %:    99.9835  MISS %:  0.0165267  MPKI: 0.00084

STLB AVERAGE MISS LATENCY: 70.4573 cycles
STLB RQ	ACCESS:    1368504	FORWARD:          0	MERGED:     147357	TO_CACHE:    1221147

STLB Hit, L1D data hit: 0
STLB Hit, L2C data hit: 0
STLB Hit, LLC data hit: 0
STLB Hit, LLC data miss: 0
STLB STLB hints to L2: 0
L1D TOTAL     ACCESS:   13129113  HIT:   11960319  MISS:    1168794  HIT %:    91.0977  MISS %:    8.90231   MPKI: 23.3759
L1D LOAD DATA	ACCESS:    6619897  HIT:    5850028  MISS:     769869  HIT %:    88.3704  MISS %:    11.6296  MPKI: 15.3974
L1D RFO DATA	ACCESS:    6172989  HIT:    5879881  MISS:     293108  HIT %:    95.2518  MISS %:    4.74823  MPKI: 5.86216
L1D PREFETCH DATA	ACCESS:     336227  HIT:     230410  MISS:     105817  HIT %:    68.5281  MISS %:    31.4719  MPKI: 2.11634

L1D PREFETCH  REQUESTED:     803149  ISSUED:     803149  USEFUL:      48690  USELESS:      70991
L1D USEFUL LOAD PREFETCHES:      48690 PREFETCH ISSUED TO LOWER LEVEL:     119710  ACCURACY: 40.6733
 TIMELY PREFETCHES:      48690 LATE PREFETCHES: 13848 DROPPED PREFETCHES: 5
L1D AVERAGE MISS LATENCY: 382981 cycles
L1D RQ	ACCESS:   10722299	FORWARD:          0	MERGED:    3904773	TO_CACHE:    6654549
L1D WQ	ACCESS:    6906510	FORWARD:     163274	MERGED:     189349	TO_CACHE:    6717161
L1D PQ	ACCESS:     401723	FORWARD:          0	MERGED:          0	TO_CACHE:     401426

L1D UNIQUE REGIONS ACCESSED: 0
L1D REGIONS CONFLICTS: 0
L1D Cross Page Prefetch Requests: 8003
L1D Same Page Prefetch Requests: 810457
L1D ROI Sum of L1D PQ occupancy: 5135547
L1D PREFETCHES PUSHED FROM L2C: 0
L1I TOTAL     ACCESS:    6971022  HIT:    4218168  MISS:    2752854  HIT %:      60.51  MISS %:      39.49   MPKI: 55.0571
L1I LOAD INSTRUCTION	ACCESS:    6382751  HIT:    3629897  MISS:    2752854  HIT %:    56.8704  MISS %:    43.1296  MPKI: 55.0571
L1I PREFETCH INSTRUCTION	ACCESS:     588271  HIT:     588271  MISS:          0  HIT %:        100  MISS %:          0  MPKI: 0

L1I PREFETCH  REQUESTED:    1376578  ISSUED:    1376578  USEFUL:          0  USELESS:          0
L1I USEFUL LOAD PREFETCHES:          0 PREFETCH ISSUED TO LOWER LEVEL:          0  ACCURACY: -nan
 TIMELY PREFETCHES:          0 LATE PREFETCHES: 0 DROPPED PREFETCHES: 0
L1I AVERAGE MISS LATENCY: 16.9942 cycles
L1I RQ	ACCESS:    9504168	FORWARD:          0	MERGED:    2858906	TO_CACHE:    6645262
L1I PQ	ACCESS:    1376578	FORWARD:          0	MERGED:     393365	TO_CACHE:     983213

L1BTB TOTAL     ACCESS:    5683273  HIT:    2072631  MISS:    3610642  HIT %:     36.469  MISS %:     63.531   MPKI: 72.2128
L1BTB BRANCH_DIRECT_JUMP	ACCESS:     543933 HIT:     143536 MISS:     400397 AVERAGE STALL: 42.1622 AVERAGE FETCH STALL: 19.1638 AVERAGE FETCH QUEUE STALL: 10.2644 AVERAGE DECODE STALL: 11.8922 AVERAGE EXECUTE STALL: 6.39335e+14
L1BTB BRANCH_INDIRECT	ACCESS:     181518 HIT:      65558 MISS:     115960 AVERAGE STALL: 98.6479 AVERAGE FETCH STALL: 12.7148 AVERAGE FETCH QUEUE STALL: 12.4124 AVERAGE DECODE STALL: 10.2652 AVERAGE EXECUTE STALL: 62.3171
L1BTB BRANCH_CONDITIONAL	ACCESS:    2736708 HIT:    1450179 MISS:    1286529 AVERAGE STALL: 47.239 AVERAGE FETCH STALL: 22.6573 AVERAGE FETCH QUEUE STALL: 13.5222 AVERAGE DECODE STALL: 10.3032 AVERAGE EXECUTE STALL: 2.60669e+14
L1BTB BRANCH_DIRECT_CALL	ACCESS:     940050 HIT:     103444 MISS:     836606 AVERAGE STALL: 45.3075 AVERAGE FETCH STALL: 22.0876 AVERAGE FETCH QUEUE STALL: 12.2548 AVERAGE DECODE STALL: 10.2126 AVERAGE EXECUTE STALL: 3.48387e+14
L1BTB BRANCH_INDIRECT_CALL	ACCESS:     170505 HIT:      20996 MISS:     149509 AVERAGE STALL: 122.401 AVERAGE FETCH STALL: 14.7618 AVERAGE FETCH QUEUE STALL: 11.2624 AVERAGE DECODE STALL: 8.50132 AVERAGE EXECUTE STALL: 87.3441
L1BTB BRANCH_RETURN	ACCESS:    1110559 HIT:     288918 MISS:     821641 AVERAGE STALL: 42.3961 AVERAGE FETCH STALL: 18.5748 AVERAGE FETCH QUEUE STALL: 5.98899 AVERAGE DECODE STALL: 6.45552 AVERAGE EXECUTE STALL: 2.69036e+14
L1BTB BRANCH_OTHER ACCESS:          0 HIT:          0 MISS:          0 AVERAGE STALL: -nan AVERAGE FETCH STALL: -nan AVERAGE FETCH QUEUE STALL: -nan AVERAGE DECODE STALL: -nan AVERAGE EXECUTE STALL: -nan
L1BTB TOTAL ROB OCCUPANCY AT BTB MISS: 9.46464

L2BTB TOTAL     ACCESS:    3585684  HIT:    3349495  MISS:     236189  HIT %:     93.413  MISS %:      6.587   MPKI: 4.72378
L2BTB BRANCH_DIRECT_JUMP	ACCESS:     396305 HIT:     371537 MISS:      24768 AVERAGE STALL: 42.1622 AVERAGE FETCH STALL: 19.1638 AVERAGE FETCH QUEUE STALL: 10.2644 AVERAGE DECODE STALL: 11.8922 AVERAGE EXECUTE STALL: 6.39335e+14
L2BTB BRANCH_INDIRECT	ACCESS:     105747 HIT:     100951 MISS:       4796 AVERAGE STALL: 98.6479 AVERAGE FETCH STALL: 12.7148 AVERAGE FETCH QUEUE STALL: 12.4124 AVERAGE DECODE STALL: 10.2652 AVERAGE EXECUTE STALL: 62.3171
L2BTB BRANCH_CONDITIONAL	ACCESS:    1286529 HIT:    1215122 MISS:      71407 AVERAGE STALL: 47.239 AVERAGE FETCH STALL: 22.6573 AVERAGE FETCH QUEUE STALL: 13.5222 AVERAGE DECODE STALL: 10.3032 AVERAGE EXECUTE STALL: 2.60669e+14
L2BTB BRANCH_DIRECT_CALL	ACCESS:     836606 HIT:     783626 MISS:      52980 AVERAGE STALL: 45.3075 AVERAGE FETCH STALL: 22.0876 AVERAGE FETCH QUEUE STALL: 12.2548 AVERAGE DECODE STALL: 10.2126 AVERAGE EXECUTE STALL: 3.48387e+14
L2BTB BRANCH_INDIRECT_CALL	ACCESS:     140078 HIT:     125215 MISS:      14863 AVERAGE STALL: 122.401 AVERAGE FETCH STALL: 14.7618 AVERAGE FETCH QUEUE STALL: 11.2624 AVERAGE DECODE STALL: 8.50132 AVERAGE EXECUTE STALL: 87.3441
L2BTB BRANCH_RETURN	ACCESS:     820419 HIT:     753044 MISS:      67375 AVERAGE STALL: 42.3961 AVERAGE FETCH STALL: 18.5748 AVERAGE FETCH QUEUE STALL: 5.98899 AVERAGE DECODE STALL: 6.45552 AVERAGE EXECUTE STALL: 2.69036e+14
L2BTB BRANCH_OTHER ACCESS:          0 HIT:          0 MISS:          0 AVERAGE STALL: -nan AVERAGE FETCH STALL: -nan AVERAGE FETCH QUEUE STALL: -nan AVERAGE DECODE STALL: -nan AVERAGE EXECUTE STALL: -nan
L2BTB TOTAL ROB OCCUPANCY AT BTB MISS: 144.687

L2C TOTAL     ACCESS:    4545536  HIT:    4067058  MISS:     478478  HIT %:    89.4737  MISS %:    10.5263   MPKI: 9.56956
L2C LOAD INSTRUCTION	ACCESS:    2752854  HIT:    2518362  MISS:     234492  HIT %:    91.4819  MISS %:    8.51814  MPKI: 4.68984
L2C LOAD TRANSLATION INSTRUCTION	ACCESS:        370  HIT:        103  MISS:        267  HIT %:    27.8378  MISS %:    72.1622  MPKI: 0.00534
L2C LOAD DATA	ACCESS:     755994  HIT:     675922  MISS:      80072  HIT %:    89.4084  MISS %:    10.5916  MPKI: 1.60144
L2C RFO DATA	ACCESS:     293055  HIT:     225622  MISS:      67433  HIT %:    76.9896  MISS %:    23.0104  MPKI: 1.34866
L2C PREFETCH DATA	ACCESS:     208609  HIT:     131271  MISS:      77338  HIT %:    62.9268  MISS %:    37.0732  MPKI: 1.54676
L2C WRITEBACK DATA	ACCESS:     532547  HIT:     515234  MISS:      17313  HIT %:     96.749  MISS %:    3.25098  MPKI: 0.34626
L2C LOAD TRANSLATION DATA	ACCESS:       2047  HIT:        495  MISS:       1552  HIT %:    24.1817  MISS %:    75.8183  MPKI: 0.03104
L2C TRANSLATION FROM L1D PREFETCHER DATA	ACCESS:         60  HIT:         49  MISS:         11  HIT %:    81.6667  MISS %:    18.3333  MPKI: 0.00022

L2C PREFETCH  REQUESTED:      97106  ISSUED:      97106  USEFUL:       9325  USELESS:      68569
L2C USEFUL LOAD PREFETCHES:       9325 PREFETCH ISSUED TO LOWER LEVEL:      77714  ACCURACY: 11.9991
 TIMELY PREFETCHES:       9325 LATE PREFETCHES: 376 DROPPED PREFETCHES: 0
L2C AVERAGE MISS LATENCY: 41.8795 cycles
L2C RQ	ACCESS:    3804416	FORWARD:          0	MERGED:          0	TO_CACHE:    3804381
L2C WQ	ACCESS:     532547	FORWARD:         35	MERGED:          0	TO_CACHE:     532547
L2C PQ	ACCESS:     216816	FORWARD:          0	MERGED:       3467	TO_CACHE:     213349

L2C Dense regions hint from L2: 0
PSCL5 TOTAL     ACCESS:       4512  HIT:       2256  MISS:       2256  HIT %:         50  MISS %:         50   MPKI: 0.04512
PSCL5 LOAD TRANSLATION INSTRUCTION	ACCESS:       4394  HIT:       2197  MISS:       2197  HIT %:         50  MISS %:         50  MPKI: 0.04394
PSCL5 TRANSLATION FROM L1D PREFETCHER INSTRUCTION	ACCESS:        118  HIT:         59  MISS:         59  HIT %:         50  MISS %:         50  MPKI: 0.00118


PSCL4 TOTAL     ACCESS:       4294  HIT:       2142  MISS:       2152  HIT %:    49.8836  MISS %:    50.1164   MPKI: 0.04304
PSCL4 LOAD TRANSLATION INSTRUCTION	ACCESS:       3640  HIT:       2083  MISS:       1557  HIT %:    57.2253  MISS %:    42.7747  MPKI: 0.03114
PSCL4 TRANSLATION FROM L1D PREFETCHER INSTRUCTION	ACCESS:        116  HIT:         59  MISS:         57  HIT %:    50.8621  MISS %:    49.1379  MPKI: 0.00114
PSCL4 LOAD TRANSLATION DATA	ACCESS:        536  HIT:          0  MISS:        536  HIT %:          0  MISS %:        100  MPKI: 0.01072
PSCL4 TRANSLATION FROM L1D PREFETCHER DATA	ACCESS:          2  HIT:          0  MISS:          2  HIT %:          0  MISS %:        100  MPKI: 4e-05


PSCL3 TOTAL     ACCESS:       4305  HIT:       2140  MISS:       2165  HIT %:    49.7096  MISS %:    50.2904   MPKI: 0.0433
PSCL3 LOAD TRANSLATION INSTRUCTION	ACCESS:       2765  HIT:       2097  MISS:        668  HIT %:    75.8409  MISS %:    24.1591  MPKI: 0.01336
PSCL3 TRANSLATION FROM L1D PREFETCHER INSTRUCTION	ACCESS:         60  HIT:         43  MISS:         17  HIT %:    71.6667  MISS %:    28.3333  MPKI: 0.00034
PSCL3 LOAD TRANSLATION DATA	ACCESS:       1454  HIT:          0  MISS:       1454  HIT %:          0  MISS %:        100  MPKI: 0.02908
PSCL3 TRANSLATION FROM L1D PREFETCHER DATA	ACCESS:         26  HIT:          0  MISS:         26  HIT %:          0  MISS %:        100  MPKI: 0.00052


PSCL2 TOTAL     ACCESS:       4326  HIT:       2070  MISS:       2256  HIT %:    47.8502  MISS %:    52.1498   MPKI: 0.04512
PSCL2 LOAD TRANSLATION INSTRUCTION	ACCESS:       2326  HIT:       2012  MISS:        314  HIT %:    86.5004  MISS %:    13.4996  MPKI: 0.00628
PSCL2 TRANSLATION FROM L1D PREFETCHER INSTRUCTION	ACCESS:         58  HIT:         58  MISS:          0  HIT %:        100  MISS %:          0  MPKI: 0
PSCL2 LOAD TRANSLATION DATA	ACCESS:       1884  HIT:          0  MISS:       1884  HIT %:          0  MISS %:        100  MPKI: 0.03768
PSCL2 TRANSLATION FROM L1D PREFETCHER DATA	ACCESS:         58  HIT:          0  MISS:         58  HIT %:          0  MISS %:        100  MPKI: 0.00116


LLC TOTAL     ACCESS:     551900  HIT:     521941  MISS:      29959  HIT %:    94.5717  MISS %:    5.42834   MPKI: 0.59918
LLC LOAD INSTRUCTION	ACCESS:     234492  HIT:     233551  MISS:        941  HIT %:    99.5987  MISS %:   0.401293  MPKI: 0.01882
LLC LOAD TRANSLATION INSTRUCTION	ACCESS:        267  HIT:        225  MISS:         42  HIT %:    84.2697  MISS %:    15.7303  MPKI: 0.00084
LLC LOAD DATA	ACCESS:      79714  HIT:      76200  MISS:       3514  HIT %:    95.5917  MISS %:    4.40826  MPKI: 0.07028
LLC RFO DATA	ACCESS:      67408  HIT:      52779  MISS:      14629  HIT %:    78.2978  MISS %:    21.7022  MPKI: 0.29258
LLC PREFETCH DATA	ACCESS:      77713  HIT:      67175  MISS:      10538  HIT %:    86.4398  MISS %:    13.5602  MPKI: 0.21076
LLC WRITEBACK DATA	ACCESS:      90743  HIT:      90550  MISS:        193  HIT %:    99.7873  MISS %:   0.212689  MPKI: 0.00386
LLC LOAD TRANSLATION DATA	ACCESS:       1552  HIT:       1452  MISS:        100  HIT %:    93.5567  MISS %:     6.4433  MPKI: 0.002
LLC TRANSLATION FROM L1D PREFETCHER DATA	ACCESS:         11  HIT:          9  MISS:          2  HIT %:    81.8182  MISS %:    18.1818  MPKI: 4e-05

LLC AVERAGE MISS LATENCY: 206.816 cycles
LLC RQ	ACCESS:     383451	FORWARD:          0	MERGED:          0	TO_CACHE:     383444
LLC WQ	ACCESS:      90743	FORWARD:          8	MERGED:          0	TO_CACHE:      90743
LLC PQ	ACCESS:      77714	FORWARD:          0	MERGED:          0	TO_CACHE:      77713

LLC Dense regions hint to LLC: 0

RAW hits: 1878736
Loads Generated: 12601035
Loads sent to L1D: 10722299
Stores Generated: 6906488
Stores sent to L1D: 6906510
Major fault: 0 Minor fault: 2387
Allocated PAGES: 2387

stream: 
stream:times selected: 1244027
stream:pref_filled: 128568
stream:pref_useful: 28921
stream:pref_late: 9600
stream:misses: 10742
stream:misses_by_poll: 0

CS: 
CS:times selected: 194652
CS:pref_filled: 75100
CS:pref_useful: 51867
CS:pref_late: 9738
CS:misses: 23972
CS:misses_by_poll: 3

CPLX: 
CPLX:times selected: 1048214
CPLX:pref_filled: 25436
CPLX:pref_useful: 7868
CPLX:pref_late: 4136
CPLX:misses: 132972
CPLX:misses_by_poll: 1

NL_L1: 
NL:times selected: 21796
NL:pref_filled: 1144
NL:pref_useful: 464
NL:pref_late: 817
NL:misses: 3219
NL:misses_by_poll: 0

total selections: 2508689
total_filled: 105817
total_useful: 48690
total_late: 26705
total_polluted: 4
total_misses_after_warmup: 804521
conflicts: 5525716

test: 118076

DRAM Statistics
 CHANNEL 0
 RQ ROW_BUFFER_HIT:      11209  ROW_BUFFER_MISS:      18554
 DBUS_CONGESTED:         16
 WQ ROW_BUFFER_HIT:       2166  ROW_BUFFER_MISS:      14047  FULL:          0

 AVG_CONGESTED_CYCLE: 5

CPU 0 Branch Prediction Accuracy: 99.8222% MPKI: 0.32582 Average ROB Occupancy at Mispredict: 181.296
Branch types
NOT_BRANCH: 40836566 81.6731%
BRANCH_DIRECT_JUMP: 543933 1.08787%
BRANCH_INDIRECT: 181518 0.363036%
BRANCH_CONDITIONAL: 6216754 12.4335%
BRANCH_DIRECT_CALL: 940050 1.8801%
BRANCH_INDIRECT_CALL: 170505 0.34101%
BRANCH_RETURN: 1110559 2.22112%
BRANCH_OTHER: 0 0%

DRAM PAGES: 1048576
Allocated PAGES: 2387
Average_ROB_Occupancy: 193.081
Average_Decode_Occupancy: 25.0629
Average_FTQ_Occupancy: 10.34
Indirect max targets: 14 Average targets: 1.15563
Branch_type:  BRANCH_DIRECT_JUMP:  Count Percentage: 4.13897 5.12003 3.97698 8.46497 2.40668 6.32723 1.55263 68.0125 
Branch_type:  BRANCH_INDIRECT:  Count Percentage: 6.11547 3.5335 8.13044 9.6837 3.33862 2.80497 3.87916 62.5142 
Branch_type:  BRANCH_CONDITIONAL:  Count Percentage: 22.8197 2.76049 1.65328 7.56646 2.91521 3.56898 2.10112 56.6147 
Branch_type:  BRANCH_DIRECT_CALL:  Count Percentage: 0.391087 1.2553 0.737933 4.49537 2.99523 2.60552 2.82928 84.6903 
Branch_type:  BRANCH_INDIRECT_CALL:  Count Percentage: 9.54817 0 3.00301 0.00410889 0.999927 1.71135 4.98496 79.7485 
Branch_type:  BRANCH_RETURN:  Count Percentage: 4.25869 4.66015 1.24136 4.75128 5.54162 3.53596 2.6988 73.3121 
Branch_type:  BRANCH_DIRECT_JUMP:  Total Count: 44969 55628 43209 91970 26148 68744 16869 738941 
Branch_type:  BRANCH_INDIRECT:  Total Count: 22186 12819 29496 35131 12112 10176 14073 226792 
Branch_type:  BRANCH_CONDITIONAL:  Total Count: 2834992 342947 205394 940013 362169 443389 261031 7033484 
Branch_type:  BRANCH_DIRECT_CALL:  Total Count: 7346 23579 13861 84439 56261 48941 53144 1590785 
Branch_type:  BRANCH_INDIRECT_CALL:  Total Count: 32533 0 10232 14 3407 5831 16985 271723 
Branch_type:  BRANCH_RETURN:  Total Count: 94539 103451 27557 105474 123019 78495 59911 1627463 
Number of unique branch instructions: 10480
Upper 32 bits: 
aaaa
ffff
ffff0000
Unique upper 32 bits: 3
Unique upper 36 bits: 3
Unique upper 40 bits: 5
Unique upper 44 bits: 32
Unique upper 48 bits: 159
Offset_3 4329
Offset_4 269
Offset_5 477
Offset_6 537
Offset_7 614
Offset_8 534
Offset_9 506
Offset_10 415
Offset_11 342
Offset_12 277
Offset_13 218
Offset_14 228
Offset_15 203
Offset_16 234
Offset_17 165
Offset_18 135
Offset_19 254
Offset_20 145
Offset_21 267
Offset_22 403
Offset_23 241
Offset_24 348
Offset_25 88
Offset_47 84
decode_dispatch_called: 22677694 58.7777
Dispatch_width: 0 11804638 52.054 30.5961
Dispatch_width: 1 735634 3.24387 1.90667
Dispatch_width: 2 726406 3.20317 1.88275
Dispatch_width: 3 440688 1.94327 1.14221
Dispatch_width: 4 3556690 15.6836 9.21849
Dispatch_width: 5 219117 0.966223 0.567923
Dispatch_width: 6 5194521 22.9059 13.4635
Empty_decode_cycles: 15904443 41.2223
ROB_full_cycles: 5793726 15.0166
Starvation_cycles_per_kilo_instr: 275.939
Starvation_cycles_per_kilo_instr_3: 238.181
Starvation_cycles_per_kilo_instr_0: 219.154
Branch_type_1  (3,1)  (4,8)  (5,39)  (6,77)  (7,121)  (8,130)  (9,134)  (10,108)  (11,79)  (12,43)  (13,7)  (14,2)  (15,3)  (16,4)  (18,1)  (19,4)  (20,2)  (21,1)  (22,3)  (23,2)  (24,10)  (25,12) 
Branch_type_2  (3,1)  (5,1)  (8,3)  (9,3)  (12,1)  (13,1)  (14,1)  (16,3)  (17,2)  (20,2)  (21,2)  (23,5)  (24,1)  (47,38) 
Branch_type_3  (3,4327)  (4,261)  (5,433)  (6,444)  (7,460)  (8,342)  (9,281)  (10,173)  (11,136)  (12,49)  (13,7) 
Branch_type_4  (6,4)  (7,8)  (8,26)  (9,53)  (10,62)  (11,64)  (12,100)  (13,94)  (14,101)  (15,98)  (16,106)  (17,76)  (18,62)  (19,122)  (20,74)  (21,144)  (22,217)  (23,136)  (24,199)  (25,72) 
Branch_type_5  (8,2)  (9,1)  (10,4)  (11,6)  (12,3)  (13,14)  (14,16)  (15,11)  (16,20)  (17,12)  (18,16)  (19,13)  (20,11)  (21,13)  (22,42)  (23,26)  (24,40) 
Branch_type_6  (5,4)  (6,12)  (7,25)  (8,31)  (9,34)  (10,68)  (11,57)  (12,81)  (13,95)  (14,108)  (15,91)  (16,101)  (17,75)  (18,56)  (19,115)  (20,56)  (21,107)  (22,141)  (23,72)  (24,98)  (25,4)  (47,46) 
aaaaab1fc620: 2ac9e77e 2aca717c 2aca8eff 2acaf6bc 2acaf9aa 2acaf9f1 2acb1abc 2acb1b7f 2acd4e22 2acdb712 2acf5f9e 2ad0ef44 2ad3f15c 2ad414e6 2ad60e42 2ad8609c 2ad99830 2ada35cc 2ada4676 2ada6612 2adf183e 2adf30e5 2adf5602 2adf785c 2ae11572 2aeb2dcf 2aee101b 2aee1ae1 2b156a8c 2b156b61 2b156bea 2b167f35 2b177656 2b17feec 2b1a3e5a 
aaaaac68f310: 2ac9ec8c 2ac9fb44 2ac9fbd2 2aca59ab 2acac04c 2acaf6e0 2acaf6ec 2acaf6f9 2acaf700 2acaf708 2acf2d90 2ad3cfbd 2ad3cfc4 2ad3d000 2ad3f35f 2ad4955d 2ad49571 2ad4f3f2 2ad4f400 2ad5f240 2ad5f37c 2ad5f86a 2ad5f86f 2ad5f880 2ad5fc0d 2ad5fc14 2ad5fc21 2ad5fe1b 2ad873bb 2ad873e3 2ad8a6b2 2ad9086e 2ad93096 2ad9bbb2 2ada152c 2ada1554 2ada3332 2ada5522 2adf3130 2adf313c 2adf3a3f 2adf3bd9 2adf5788 2adf7a8d 2ae07f6b 2ae0857a 2ae0857e 2ae08630 2ae08634 2ae08637 2ae08642 2ae0866f 2ae086e4 2ae086ec 2ae08717 2ae0871b 2aee0170 2aee1d38 2aee75f4 2aee7662 2aee85ca 2aee85e4 2aee8eef 2af70b84 2af74e8f 2b17d843 
aaaaac690ef0: 2aca598b 2acb111b 2acb175f 2acb1772 2acbfaf4 2acbfb00 2acf374f 2acf6d43 2acfa5c8 2ad3baf1 2ad3d4ac 2ad3d4b8 2ad3f1cf 2ad486b2 2ad5a59b 2ad5fc64 2ad5fcf9 2ad6121c 2ad906e9 2ad907bf 2ad9bada 2ada16ce 2ada1ad5 2ada43df 2ada64c0 2ada72ee 2adeb71a 2adf3bcb 2adf7a38 2adf7c6a 2adf8872 2adf8880 2adf9959 2adf9abe 2ae07f78 2ae08503 2ae08754 2ae12e80 2aea3bea 2aecb509 2aee00b0 2aee2bdd 2aee5467 2aee5601 2aee8f20 2af703fd 2af7048b 2af74e74 
Unique trigger count: 
1 9997
2 538
3 89
4 31
5 10
6 6
7 10
8 1
9 2
10 3
11 1
12 1
13 3
14 1
16 2
17 2
19 3
35 1
48 1
66 1
BTB PER SET UNIQUE ADDR: 4 7 7 4 3 4 8 11 10 2 7 2 8 5 5 4 7 4 8 8 5 8 6 8 9 12 1 7 6 5 10 10 6 7 8 4 4 7 7 4 8 5 5 11 9 6 6 12 11 7 6 3 13 4 4 9 5 6 8 9 4 13 5 9 5 12 8 7 5 7 6 2 6 5 6 9 6 14 6 4 8 8 8 6 6 8 8 10 8 11 10 8 9 6 9 4 11 8 4 7 8 6 9 9 6 8 7 8 7 6 6 4 5 8 6 11 3 7 7 2 8 10 4 2 6 5 5 7 11 8 10 3 12 4 8 8 5 2 6 8 8 7 6 7 4 10 4 9 10 6 6 11 6 11 6 8 9 9 7 10 10 6 10 5 11 5 3 4 14 5 5 4 8 8 3 2 7 6 9 5 7 6 10 7 7 10 5 7 9 9 5 8 6 6 6 10 10 3 10 4 4 7 8 3 8 4 5 7 6 2 3 6 9 9 6 6 4 9 8 6 6 2 7 7 6 8 12 7 2 9 13 8 5 3 6 8 9 6 3 4 4 4 10 8 14 10 1 5 5 5 9 10 8 7 5 11 4 6 9 5 8 5 7 4 9 16 6 4 7 5 7 6 4 8 10 9 6 4 4 8 7 5 9 5 9 9 6 7 9 4 6 8 5 11 6 5 5 10 6 6 6 6 4 4 8 4 5 4 10 10 5 3 8 3 6 4 9 14 7 3 6 12 6 9 5 6 7 9 4 0 8 2 5 7 9 6 7 8 7 1 7 6 3 8 6 7 3 9 9 5 5 10 9 6 8 7 8 3 8 5 7 11 7 9 11 9 4 3 4 5 9 5 7 5 7 6 12 7 7 10 10 7 8 13 6 5 8 6 5 3 10 7 8 4 7 4 6 5 2 8 6 4 6 6 7 6 7 4 4 3 5 5 9 5 3 5 9 4 3 6 3 5 5 7 12 6 4 2 6 7 2 3 15 5 9 11 6 6 6 5 4 7 9 3 6 8 4 6 6 4 6 4 4 3 9 4 5 9 9 5 5 5 6 11 7 5 11 4 6 8 2 6 9 9 9 3 10 5 2 5 5 3 3 4 3 7 10 3 6 3 9 3 4 9 2 12 4 7 5 4 11 3 3 4 2 5 5 3 2 7 7 4 5 9 2 4 3 12 7 9 6 3 8 5 10 11 4 10 9 7 5 7 4 9 4 7 4 1 6 5 4 9 9 3 8 5 11 14 12 12 5 8 7 8 2 6 8 3 6 4 10 4 8 5 5 5 9 8 9 7 9 5 9 11 7 7 7 11 3 9 13 5 1 6 4 3 2 14 7 6 7 9 3 5 4 5 6 6 4 5 8 5 9 9 7 5 6 8 7 5 9 7 6 5 8 4 7 6 5 7 7 7 9 3 6 9 6 8 4 6 8 8 7 6 7 6 5 4 5 3 10 7 6 6 2 3 6 7 9 9 9 5 9 5 7 3 10 5 6 9 11 2 6 12 7 7 8 6 5 9 7 6 7 7 11 9 7 6 8 6 8 10 9 7 8 8 7 8 7 8 3 7 4 4 4 8 11 8 6 8 3 11 6 5 7 10 5 5 5 5 8 9 7 7 5 6 10 6 1 8 4 3 6 3 4 1 4 9 2 11 8 10 7 3 7 8 6 3 6 4 4 8 5 10 4 3 5 3 8 6 7 4 5 6 3 5 4 10 9 4 6 7 7 7 7 6 15 6 6 3 10 8 0 6 7 5 6 10 4 4 8 6 4 6 11 9 9 8 4 8 3 10 5 6 6 12 12 4 6 5 13 4 9 3 8 7 7 9 5 6 5 5 6 3 4 7 1 5 6 10 6 5 11 4 6 4 6 4 7 6 8 4 7 4 10 5 4 4 8 4 6 5 8 5 4 8 8 6 7 4 8 7 8 9 6 9 7 4 8 5 6 7 5 5 12 5 6 8 10 9 4 7 7 9 8 4 3 7 7 5 3 6 7 6 9 6 7 4 4 8 8 5 4 8 6 3 9 10 3 3 12 7 4 5 10 6 5 11 6 7 9 6 4 3 2 8 5 5 7 7 9 7 9 6 8 8 6 4 5 12 5 4 11 10 5 8 10 10 3 10 8 8 5 4 7 8 10 8 8 3 9 1 13 8 3 6 9 11 6 9 5 8 10 5 3 9 10 8 9 4 2 7 3 9 12 6 8 5 4 7 12 6 5 6 7 6 4 6 8 7 8 10 8 11 5 10 7 11 5 6 3 5 6 5 6 7 8 6 7 5 8 4 9 7 10 4 9 4 3 7 11 6 14 5 
BTB PER SET COUNT: 4 7 8 4 3 5 8 91 2878 4 8 2 8 5 5 7 8 4 8 1465 5 8 6 9 10 2413 1 7 1463 5 4338 318 7 11 9 5 2916 7 11 4 11 5 6 57 1900 7 7 5272 3153 9 6 3 11684 5 8 13 6 7 8 126 4 2549 5 17 6 1235 9 7 5 7 6 2 6 5 7 18 485 3426 6 4 8 9 8 7 485 9 8 14 8 502 2098 506 38 6 14 5 3342 9 4 8 9 6 13 2140 8 10 7 13 7 7 6 4 5 9 7 4546 3 7 7 2 8 22 5 2 485 5 6 8 2078 12 531 4 8100 6 8 8 5 2 6 15 8 8 6 7 5 20 4 71 3265 6 7 2757 6 3396 6 13 14 14 7 842 1326 8 3056 5 44 1961 3 4 6810 6 6 5 9 113 3 2 7 487 1003 6 7 6 790 7 7 1924 5 7 15 12 5 8 6 6 6 20 1004 3 16 4 4 7 8 4 8 4 5 2422 6 2 3 10 11 13 8 6 4 912 8 6 6 2 7 7 6 8 5362 2003 2 3859 8181 10 5 5 6 8 3354 6 3 4 4 5 1458 8 12155 956 1 5 5 6 15 557 8 7 5 3155 4 6 13 7 10 5 7 4 2218 9778 985 4 7 5 8 7 4 8 38 16 6 4 4 8 9 5 23 6 1377 3357 6 7 13 4 7 8 484 2892 6 8 7 4381 6 6 6 6 4 4 13 4 5 4 1388 1396 5 3 9 3 6 4 32 4569 13 3 6 427 6 11 7 6 15 10 5 0 966 2 5 9 998 10 968 8 7 1 7 6 5 966 964 8 3 14 22 6 5 84 56 984 8 8 10 3 9 44 10 27 8 18 37 32 4 3 4 6 11 5 9 7 7 6 4101 8 8 2089 60 8 8 6415 8 6 8 7 5 5 52 10 8 4 7 4 1463 9 2 8 7 4 10 6 10 8 2921 5 4 2261 7 5 551 8 981 5 132 5 5 1372 3 6 5 8 90 8 9 2 6 8 2 3 5517 5 44 1977 6 6 6 7 4 8 35 4 9 10 5 986 6 4 6 4 5 4 333 5 6 12 489 5 963 6 17 107 40 5 1491 6 7 10 2 6 36 496 118 3 21194 5 2 6 5 5 3 482 3 7 286 374 6 3 25 3 5 12 2 2450 6 9 5 7 3815 12 3 6 2 5 5 3 2 8 7 5 6 27 2 4 3 6950 9 492 7 1460 10 437 228 32 4 83 38 7 5 7 4 13 4 488 4 1 9 5 5 35 22 4 8 5 19 4083 4797 4792 6 9 8 8 2 6 990 3 7 4 4542 5 8 6 5 5 43 12 2878 7 12 6 1380 3367 8 7 7 3360 5 26 7210 51 1 6 1461 3 2 5273 7 7 7 12 3 984 983 7 7 6 5 5 8 8 1152 50 7 2877 6 10 8 5 25 10 6 5 8 5 1008 8 5 7 8 752 2886 3 1463 26 6 102 8 6 487 1465 7 6 8 9 6 4 5 3 2415 8 6 6 2 6 7 9 492 12 11 5 967 6 9 3 2467 5 1443 71 11078 2 6 5940 7 966 2927 964 5 35 488 6 8 9 3837 970 486 6 599 6 8 1299 12 966 14589 966 7 1768 1464 11 4 966 5 7 4 9 2880 8 7 39 3 1945 7 5 133 4317 6 1463 5 1462 232 11 7 8 963 6 1471 645 1 8 4 4 6 3 4 1 4 515 2 3363 8 38 987 6 8 8 6 5 6 4 4 8 5 6369 4 3 484 3 9 964 7 4 7 442 3 5 4 2862 2401 984 7 9 985 7 7 6 8341 6 8 3 60 8 0 141 7 1462 6 3479 7 5 8 8 4 6 1555 29 41 9 395 8 4 2295 9 6 190 4287 3263 4 7 5 3843 4 202 3 1926 1464 10 25 5 9 5 5 6 501 6 8 2 7 8 1148 7 5 1173 357 6 4 984 5 9 82 9 4 7 4 1076 7 5 5 8 4 196 5 10 1468 4 13 10 6 8 4 9 7 10 10 6 6372 7 4 9 8 6 8 5 6 6433 983 10 967 2428 26 5 8 7 11 8 4 3 9 7 6 3 8 8 6 81 9 7 4 5 8 10 6 4 8 6 3 11 1385 3 3 5370 7 273 66 23 7 5 1850 6 8 90 6 4 3 3 10 7 964 7 7 11 7 53 8 12 9 6 6 5 147 5 486 3344 2332 5 10 4924 1162 4 27 10 12 5 982 7 10 18 249 11 4 14 1 5440 13 3 6 46 4319 10 2642 5 489 2878 5 6 11 31 8 11 6 2 9 3 317 74 6 988 5 4 7 3385 6 485 6 7 7 4 6 9 8 8 18 8 3358 5 54 8 3833 9 10 3 6 7 5 8 9 9 9 7 5 1925 4 2449 310 1139 4 35 6 3 8 1505 9 3809 5 
