
*** ChampSim Multicore Out-of-Order Simulator ***

Warmup Instructions: 50000000
Simulation Instructions: 50000000
Number of CPUs: 1
LLC sets: 2048
LLC ways: 16
Off-chip DRAM Size: 4096 MB Channels: 1 Width: 64-bit Data Rate: 6400 MT/s
CPU 0 runs ./micro_traces/srv189.trace.gz
.gz
ITLB has LRU replacement policy
DTLB has LRU replacement policy
STLB has LRU replacement policy
L1I has LRU replacement policy
L1D has LRU replacement policy
Initialize SRRIP state for L2C
Initialize DRRIP state for LLC
Heartbeat_Variant_0 : 1324 0.323242 per_variant_size: 0 1324 0 0 0 0 0 0 0 
Heartbeat_Variant_1 : 1212 0.295898 per_variant_size: 0 584 628 0 0 0 0 0 0 
Heartbeat_Variant_2 : 1293 0.315674 per_variant_size: 0 515 353 242 183 0 0 0 0 
Heartbeat_Variant_3 : 0 0 per_variant_size: 0 0 0 0 0 0 0 0 0 
Heartbeat_Variant_0_evicts 0 : 5948 1 : 261 2 : 267 3 : 0 
Heartbeat_Variant_1_evicts 0 : 236 1 : 0 2 : 402 3 : 0 
Heartbeat_Variant_2_evicts 0 : 240 1 : 406 2 : 0 3 : 0 
Heartbeat_Variant_3_evicts 0 : 0 1 : 0 2 : 0 3 : 0 
Heartbeat CPU 0 instructions: 10000001 cycles: 2798979 heartbeat IPC: 3.57273 cumulative IPC: 3.57273 (Simulation time: 0 hr 1 min 11 sec) 
Heartbeat_Variant_0 : 1325 0.323486 per_variant_size: 0 1325 0 0 0 0 0 0 0 
Heartbeat_Variant_1 : 1218 0.297363 per_variant_size: 0 581 637 0 0 0 0 0 0 
Heartbeat_Variant_2 : 1299 0.317139 per_variant_size: 0 520 350 241 188 0 0 0 0 
Heartbeat_Variant_3 : 0 0 per_variant_size: 0 0 0 0 0 0 0 0 0 
Heartbeat_Variant_0_evicts 0 : 5667 1 : 14 2 : 9 3 : 0 
Heartbeat_Variant_1_evicts 0 : 15 1 : 0 2 : 211 3 : 0 
Heartbeat_Variant_2_evicts 0 : 9 1 : 212 2 : 0 3 : 0 
Heartbeat_Variant_3_evicts 0 : 0 1 : 0 2 : 0 3 : 0 
Heartbeat CPU 0 instructions: 20000001 cycles: 5596237 heartbeat IPC: 3.57493 cumulative IPC: 3.57383 (Simulation time: 0 hr 2 min 34 sec) 
Heartbeat_Variant_0 : 1355 0.330811 per_variant_size: 0 1355 0 0 0 0 0 0 0 
Heartbeat_Variant_1 : 1234 0.30127 per_variant_size: 0 562 672 0 0 0 0 0 0 
Heartbeat_Variant_2 : 1326 0.32373 per_variant_size: 0 524 359 232 211 0 0 0 0 
Heartbeat_Variant_3 : 0 0 per_variant_size: 0 0 0 0 0 0 0 0 0 
Heartbeat_Variant_0_evicts 0 : 5726 1 : 128 2 : 153 3 : 0 
Heartbeat_Variant_1_evicts 0 : 123 1 : 0 2 : 326 3 : 0 
Heartbeat_Variant_2_evicts 0 : 146 1 : 332 2 : 0 3 : 0 
Heartbeat_Variant_3_evicts 0 : 0 1 : 0 2 : 0 3 : 0 
Heartbeat CPU 0 instructions: 30000002 cycles: 8393893 heartbeat IPC: 3.57442 cumulative IPC: 3.57403 (Simulation time: 0 hr 3 min 53 sec) 
Heartbeat_Variant_0 : 1355 0.330811 per_variant_size: 0 1355 0 0 0 0 0 0 0 
Heartbeat_Variant_1 : 1234 0.30127 per_variant_size: 0 562 672 0 0 0 0 0 0 
Heartbeat_Variant_2 : 1326 0.32373 per_variant_size: 0 524 359 231 212 0 0 0 0 
Heartbeat_Variant_3 : 0 0 per_variant_size: 0 0 0 0 0 0 0 0 0 
Heartbeat_Variant_0_evicts 0 : 5505 1 : 3 2 : 0 3 : 0 
Heartbeat_Variant_1_evicts 0 : 3 1 : 0 2 : 197 3 : 0 
Heartbeat_Variant_2_evicts 0 : 0 1 : 197 2 : 0 3 : 0 
Heartbeat_Variant_3_evicts 0 : 0 1 : 0 2 : 0 3 : 0 
Heartbeat CPU 0 instructions: 40000001 cycles: 11190517 heartbeat IPC: 3.57574 cumulative IPC: 3.57446 (Simulation time: 0 hr 5 min 1 sec) 
Heartbeat_Variant_0 : 1359 0.331787 per_variant_size: 0 1359 0 0 0 0 0 0 0 
Heartbeat_Variant_1 : 1247 0.304443 per_variant_size: 0 577 670 0 0 0 0 0 0 
Heartbeat_Variant_2 : 1344 0.328125 per_variant_size: 0 525 385 232 202 0 0 0 0 
Heartbeat_Variant_3 : 0 0 per_variant_size: 0 0 0 0 0 0 0 0 0 
Heartbeat_Variant_0_evicts 0 : 5645 1 : 109 2 : 101 3 : 0 
Heartbeat_Variant_1_evicts 0 : 110 1 : 0 2 : 308 3 : 0 
Heartbeat_Variant_2_evicts 0 : 104 1 : 307 2 : 0 3 : 0 
Heartbeat_Variant_3_evicts 0 : 0 1 : 0 2 : 0 3 : 0 
Heartbeat CPU 0 instructions: 50000002 cycles: 13987608 heartbeat IPC: 3.57514 cumulative IPC: 3.57459 (Simulation time: 0 hr 6 min 18 sec) 

Warmup complete CPU 0 instructions: 50000002 cycles: 13987608 (Simulation time: 0 hr 6 min 18 sec) 

Cycle: 20000000 FTQ IN: 55450199 FTQ occupancy: 15.8944 DECODE IN: 55450191 DECODE occupancy: 9.53333 ROB IN: 55450179 ROB occupancy: 259.578 ROB OUT: 55450154
Heartbeat_Variant_0 : 1359 0.331787 per_variant_size: 0 1359 0 0 0 0 0 0 0 
Heartbeat_Variant_1 : 1250 0.305176 per_variant_size: 0 583 667 0 0 0 0 0 0 
Heartbeat_Variant_2 : 1341 0.327393 per_variant_size: 0 518 387 244 192 0 0 0 0 
Heartbeat_Variant_3 : 0 0 per_variant_size: 0 0 0 0 0 0 0 0 0 
Heartbeat_Variant_0_evicts 0 : 5544 1 : 6 2 : 10 3 : 0 
Heartbeat_Variant_1_evicts 0 : 11 1 : 0 2 : 209 3 : 0 
Heartbeat_Variant_2_evicts 0 : 5 1 : 211 2 : 0 3 : 0 
Heartbeat_Variant_3_evicts 0 : 0 1 : 0 2 : 0 3 : 0 
Heartbeat CPU 0 instructions: 60000000 cycles: 25009323 heartbeat IPC: 0.9073 cumulative IPC: 0.9073 (Simulation time: 0 hr 7 min 31 sec) 
Cycle: 30000000 FTQ IN: 8956935 FTQ occupancy: 14.9242 DECODE IN: 8956925 DECODE occupancy: 4.98699 ROB IN: 8956937 ROB occupancy: 55.242 ROB OUT: 8956951
Heartbeat_Variant_0 : 1363 0.332764 per_variant_size: 0 1363 0 0 0 0 0 0 0 
Heartbeat_Variant_1 : 1269 0.309814 per_variant_size: 0 579 690 0 0 0 0 0 0 
Heartbeat_Variant_2 : 1342 0.327637 per_variant_size: 0 500 395 249 198 0 0 0 0 
Heartbeat_Variant_3 : 0 0 per_variant_size: 0 0 0 0 0 0 0 0 0 
Heartbeat_Variant_0_evicts 0 : 5609 1 : 47 2 : 43 3 : 0 
Heartbeat_Variant_1_evicts 0 : 49 1 : 0 2 : 250 3 : 0 
Heartbeat_Variant_2_evicts 0 : 44 1 : 246 2 : 0 3 : 0 
Heartbeat_Variant_3_evicts 0 : 0 1 : 0 2 : 0 3 : 0 
Heartbeat CPU 0 instructions: 70000001 cycles: 36210804 heartbeat IPC: 0.892739 cumulative IPC: 0.899961 (Simulation time: 0 hr 8 min 41 sec) 
Cycle: 40000000 FTQ IN: 9016493 FTQ occupancy: 14.87 DECODE IN: 9016493 DECODE occupancy: 4.96759 ROB IN: 9016487 ROB occupancy: 53.5388 ROB OUT: 9016396
Heartbeat_Variant_0 : 1367 0.33374 per_variant_size: 0 1367 0 0 0 0 0 0 0 
Heartbeat_Variant_1 : 1268 0.30957 per_variant_size: 0 580 688 0 0 0 0 0 0 
Heartbeat_Variant_2 : 1343 0.327881 per_variant_size: 0 502 391 251 199 0 0 0 0 
Heartbeat_Variant_3 : 0 0 per_variant_size: 0 0 0 0 0 0 0 0 0 
Heartbeat_Variant_0_evicts 0 : 5638 1 : 21 2 : 9 3 : 0 
Heartbeat_Variant_1_evicts 0 : 15 1 : 0 2 : 218 3 : 0 
Heartbeat_Variant_2_evicts 0 : 12 1 : 215 2 : 0 3 : 0 
Heartbeat_Variant_3_evicts 0 : 0 1 : 0 2 : 0 3 : 0 
Heartbeat CPU 0 instructions: 80000001 cycles: 47230668 heartbeat IPC: 0.907452 cumulative IPC: 0.902444 (Simulation time: 0 hr 9 min 56 sec) 
Cycle: 50000000 FTQ IN: 9105550 FTQ occupancy: 14.9078 DECODE IN: 9105550 DECODE occupancy: 4.98636 ROB IN: 9105556 ROB occupancy: 54.0193 ROB OUT: 9105624
Heartbeat_Variant_0 : 1368 0.333984 per_variant_size: 0 1368 0 0 0 0 0 0 0 
Heartbeat_Variant_1 : 1272 0.310547 per_variant_size: 0 584 688 0 0 0 0 0 0 
Heartbeat_Variant_2 : 1338 0.32666 per_variant_size: 0 494 390 254 200 0 0 0 0 
Heartbeat_Variant_3 : 0 0 per_variant_size: 0 0 0 0 0 0 0 0 0 
Heartbeat_Variant_0_evicts 0 : 5618 1 : 9 2 : 15 3 : 0 
Heartbeat_Variant_1_evicts 0 : 15 1 : 0 2 : 213 3 : 0 
Heartbeat_Variant_2_evicts 0 : 8 1 : 215 2 : 0 3 : 0 
Heartbeat_Variant_3_evicts 0 : 0 1 : 0 2 : 0 3 : 0 
Heartbeat CPU 0 instructions: 90000000 cycles: 58400782 heartbeat IPC: 0.895246 cumulative IPC: 0.900634 (Simulation time: 0 hr 11 min 6 sec) 
Cycle: 60000000 FTQ IN: 8927448 FTQ occupancy: 14.9474 DECODE IN: 8927448 DECODE occupancy: 4.97873 ROB IN: 8927436 ROB occupancy: 55.2929 ROB OUT: 8927329
Heartbeat_Variant_0 : 1371 0.334717 per_variant_size: 0 1371 0 0 0 0 0 0 0 
Heartbeat_Variant_1 : 1270 0.310059 per_variant_size: 0 573 697 0 0 0 0 0 0 
Heartbeat_Variant_2 : 1346 0.328613 per_variant_size: 0 503 382 260 201 0 0 0 0 
Heartbeat_Variant_3 : 0 0 per_variant_size: 0 0 0 0 0 0 0 0 0 
Heartbeat_Variant_0_evicts 0 : 5709 1 : 46 2 : 40 3 : 0 
Heartbeat_Variant_1_evicts 0 : 50 1 : 0 2 : 234 3 : 0 
Heartbeat_Variant_2_evicts 0 : 35 1 : 240 2 : 0 3 : 0 
Heartbeat_Variant_3_evicts 0 : 0 1 : 0 2 : 0 3 : 0 
Heartbeat CPU 0 instructions: 100000003 cycles: 69431270 heartbeat IPC: 0.906578 cumulative IPC: 0.901816 (Simulation time: 0 hr 12 min 19 sec) 
Finished CPU 0 instructions: 50000001 cycles: 55443662 cumulative IPC: 0.901816 (Simulation time: 0 hr 12 min 19 sec) 

ChampSim completed all CPUs

Region of Interest Statistics

CPU 0 cumulative IPC: 0.901816 instructions: 50000001 cycles: 55443662
 Fetch stage stalled: 27.5201  Sim cycles: 55443662 fetch stall cycle: 15258179
 Empty decode stage: 68.4182  Sim cycles: 55443662 fetch stall cycle: 37933557
ITLB TOTAL     ACCESS:    7345964  HIT:    6852121  MISS:     493843  HIT %:    93.2774  MISS %:    6.72264   MPKI: 9.87686
ITLB LOAD TRANSLATION INSTRUCTION	ACCESS:    7345964  HIT:    6852121  MISS:     493843  HIT %:    93.2774  MISS %:    6.72264  MPKI: 9.87686

ITLB AVERAGE MISS LATENCY: 9.03799 cycles
ITLB RQ	ACCESS:    8467247	FORWARD:          0	MERGED:     921352	TO_CACHE:    7545895

DTLB TOTAL     ACCESS:   10293842  HIT:    9819874  MISS:     473968  HIT %:    95.3956  MISS %:    4.60438   MPKI: 9.47936
DTLB LOAD TRANSLATION DATA	ACCESS:   10293842  HIT:    9819874  MISS:     473968  HIT %:    95.3956  MISS %:    4.60438  MPKI: 9.47936

DTLB AVERAGE MISS LATENCY: 9.29424 cycles
DTLB RQ	ACCESS:   14420516	FORWARD:          0	MERGED:    4097067	TO_CACHE:   10323449

STLB TOTAL     ACCESS:    1226154  HIT:    1224169  MISS:       1985  HIT %:    99.8381  MISS %:   0.161888   MPKI: 0.0397
STLB LOAD TRANSLATION INSTRUCTION	ACCESS:     493843  HIT:     493628  MISS:        215  HIT %:    99.9565  MISS %:  0.0435361  MPKI: 0.0043
STLB LOAD TRANSLATION DATA	ACCESS:     473959  HIT:     472217  MISS:       1742  HIT %:    99.6325  MISS %:   0.367542  MPKI: 0.03484
STLB TRANSLATION FROM L1D PREFETCHER DATA	ACCESS:     258352  HIT:     258324  MISS:         28  HIT %:    99.9892  MISS %:  0.0108379  MPKI: 0.00056

STLB AVERAGE MISS LATENCY: 69.7904 cycles
STLB RQ	ACCESS:    1343310	FORWARD:          0	MERGED:     117109	TO_CACHE:    1226201

STLB Hit, L1D data hit: 0
STLB Hit, L2C data hit: 0
STLB Hit, LLC data hit: 0
STLB Hit, LLC data miss: 0
STLB STLB hints to L2: 0
L1D TOTAL     ACCESS:   14218075  HIT:   13105416  MISS:    1112659  HIT %:    92.1743  MISS %:    7.82567   MPKI: 22.2532
L1D LOAD DATA	ACCESS:    7566185  HIT:    6833695  MISS:     732490  HIT %:    90.3189  MISS %:     9.6811  MPKI: 14.6498
L1D RFO DATA	ACCESS:    6316067  HIT:    6029082  MISS:     286985  HIT %:    95.4563  MISS %:    4.54373  MPKI: 5.7397
L1D PREFETCH DATA	ACCESS:     335823  HIT:     242639  MISS:      93184  HIT %:     72.252  MISS %:     27.748  MPKI: 1.86368

L1D PREFETCH  REQUESTED:     751082  ISSUED:     751082  USEFUL:      34214  USELESS:      67004
L1D USEFUL LOAD PREFETCHES:      34214 PREFETCH ISSUED TO LOWER LEVEL:     101311  ACCURACY: 33.7713
 TIMELY PREFETCHES:      34214 LATE PREFETCHES: 8038 DROPPED PREFETCHES: 10
L1D AVERAGE MISS LATENCY: 302829 cycles
L1D RQ	ACCESS:   11402054	FORWARD:          0	MERGED:    3646179	TO_CACHE:    7597716
L1D WQ	ACCESS:    6945323	FORWARD:     158243	MERGED:     122523	TO_CACHE:    6822800
L1D PQ	ACCESS:     375583	FORWARD:          0	MERGED:          0	TO_CACHE:     375499

L1D UNIQUE REGIONS ACCESSED: 0
L1D REGIONS CONFLICTS: 0
L1D Cross Page Prefetch Requests: 6891
L1D Same Page Prefetch Requests: 757472
L1D ROI Sum of L1D PQ occupancy: 4765485
L1D PREFETCHES PUSHED FROM L2C: 0
L1I TOTAL     ACCESS:    7923172  HIT:    5161344  MISS:    2761828  HIT %:    65.1424  MISS %:    34.8576   MPKI: 55.2366
L1I LOAD INSTRUCTION	ACCESS:    7923172  HIT:    5161344  MISS:    2761828  HIT %:    65.1424  MISS %:    34.8576  MPKI: 55.2366

L1I AVERAGE MISS LATENCY: 16.9116 cycles
L1I RQ	ACCESS:   15499114	FORWARD:          0	MERGED:    7031867	TO_CACHE:    8467247

L1BTB TOTAL     ACCESS:    5672193  HIT:    2046424  MISS:    3625769  HIT %:    36.0782  MISS %:    63.9218   MPKI: 72.5154
L1BTB BRANCH_DIRECT_JUMP	ACCESS:     548976  HIT:     145259  MISS:     403717	AVERAGE STALL: 21.5148
L1BTB BRANCH_INDIRECT	ACCESS:     183387  HIT:      66291  MISS:     117096	AVERAGE STALL: 49.9145
L1BTB BRANCH_CONDITIONAL	ACCESS:    2711606  HIT:    1419533  MISS:    1292073	AVERAGE STALL: 28.2982
L1BTB BRANCH_DIRECT_CALL	ACCESS:     943068  HIT:     104845  MISS:     838223	AVERAGE STALL: 35.5514
L1BTB BRANCH_INDIRECT_CALL	ACCESS:     171046  HIT:      20776  MISS:     150270	AVERAGE STALL: 66.115
L1BTB BRANCH_RETURN	ACCESS:    1114110  HIT:     289720  MISS:     824390	AVERAGE STALL: 32.5262
L1BTB BRANCH_OTHER ACCESS:          0  HIT:          0  MISS:          0	AVERAGE STALL: -nan
L1BTB TOTAL ROB OCCUPANCY AT BTB MISS: 0.623401

L2BTB TOTAL     ACCESS:    3600305  HIT:    3535182  MISS:      65123  HIT %:    98.1912  MISS %:    1.80882   MPKI: 1.30246
L2BTB BRANCH_DIRECT_JUMP	ACCESS:     399525  HIT:     395466  MISS:       4059	AVERAGE STALL: 21.5148
L2BTB BRANCH_INDIRECT	ACCESS:     106792  HIT:     104136  MISS:       2656	AVERAGE STALL: 49.9145
L2BTB BRANCH_CONDITIONAL	ACCESS:    1292073  HIT:    1287690  MISS:       4383	AVERAGE STALL: 28.2982
L2BTB BRANCH_DIRECT_CALL	ACCESS:     838223  HIT:     837717  MISS:        506	AVERAGE STALL: 35.5514
L2BTB BRANCH_INDIRECT_CALL	ACCESS:     140702  HIT:     130577  MISS:      10125	AVERAGE STALL: 66.115
L2BTB BRANCH_RETURN	ACCESS:     822990  HIT:     779596  MISS:      43394	AVERAGE STALL: 32.5262
L2BTB BRANCH_OTHER ACCESS:          0  HIT:          0  MISS:          0	AVERAGE STALL: -nan
L2BTB TOTAL ROB OCCUPANCY AT BTB MISS: 34.7083

L2C TOTAL     ACCESS:    4484032  HIT:    4019586  MISS:     464446  HIT %:    89.6422  MISS %:    10.3578   MPKI: 9.28892
L2C LOAD INSTRUCTION	ACCESS:    2761830  HIT:    2508679  MISS:     253151  HIT %:    90.8339  MISS %:    9.16606  MPKI: 5.06302
L2C LOAD TRANSLATION INSTRUCTION	ACCESS:        244  HIT:         78  MISS:        166  HIT %:    31.9672  MISS %:    68.0328  MPKI: 0.00332
L2C LOAD DATA	ACCESS:     724440  HIT:     651655  MISS:      72785  HIT %:    89.9529  MISS %:    10.0471  MPKI: 1.4557
L2C RFO DATA	ACCESS:     286885  HIT:     235899  MISS:      50986  HIT %:    82.2277  MISS %:    17.7723  MPKI: 1.01972
L2C PREFETCH DATA	ACCESS:     188603  HIT:     115303  MISS:      73300  HIT %:    61.1353  MISS %:    38.8647  MPKI: 1.466
L2C WRITEBACK DATA	ACCESS:     520169  HIT:     507480  MISS:      12689  HIT %:    97.5606  MISS %:     2.4394  MPKI: 0.25378
L2C LOAD TRANSLATION DATA	ACCESS:       1808  HIT:        457  MISS:       1351  HIT %:    25.2765  MISS %:    74.7235  MPKI: 0.02702
L2C TRANSLATION FROM L1D PREFETCHER DATA	ACCESS:         53  HIT:         35  MISS:         18  HIT %:    66.0377  MISS %:    33.9623  MPKI: 0.00036

L2C PREFETCH  REQUESTED:      94102  ISSUED:      94102  USEFUL:       8524  USELESS:      65161
L2C USEFUL LOAD PREFETCHES:       8524 PREFETCH ISSUED TO LOWER LEVEL:      73698  ACCURACY: 11.5661
 TIMELY PREFETCHES:       8524 LATE PREFETCHES: 398 DROPPED PREFETCHES: 0
L2C AVERAGE MISS LATENCY: 38.3968 cycles
L2C RQ	ACCESS:    3775284	FORWARD:          0	MERGED:          0	TO_CACHE:    3775261
L2C WQ	ACCESS:     520169	FORWARD:         23	MERGED:          0	TO_CACHE:     520169
L2C PQ	ACCESS:     195413	FORWARD:          0	MERGED:       3526	TO_CACHE:     191887

L2C Dense regions hint from L2: 0
PSCL5 TOTAL     ACCESS:       3998  HIT:       1999  MISS:       1999  HIT %:         50  MISS %:         50   MPKI: 0.03998
PSCL5 LOAD TRANSLATION INSTRUCTION	ACCESS:       3894  HIT:       1947  MISS:       1947  HIT %:         50  MISS %:         50  MPKI: 0.03894
PSCL5 TRANSLATION FROM L1D PREFETCHER INSTRUCTION	ACCESS:        104  HIT:         52  MISS:         52  HIT %:         50  MISS %:         50  MPKI: 0.00104


PSCL4 TOTAL     ACCESS:       3901  HIT:       1947  MISS:       1954  HIT %:    49.9103  MISS %:    50.0897   MPKI: 0.03908
PSCL4 LOAD TRANSLATION INSTRUCTION	ACCESS:       3482  HIT:       1896  MISS:       1586  HIT %:    54.4515  MISS %:    45.5485  MPKI: 0.03172
PSCL4 TRANSLATION FROM L1D PREFETCHER INSTRUCTION	ACCESS:        102  HIT:         51  MISS:         51  HIT %:         50  MISS %:         50  MPKI: 0.00102
PSCL4 LOAD TRANSLATION DATA	ACCESS:        317  HIT:          0  MISS:        317  HIT %:          0  MISS %:        100  MPKI: 0.00634


PSCL3 TOTAL     ACCESS:       3957  HIT:       1975  MISS:       1982  HIT %:    49.9115  MISS %:    50.0885   MPKI: 0.03964
PSCL3 LOAD TRANSLATION INSTRUCTION	ACCESS:       3510  HIT:       1924  MISS:       1586  HIT %:    54.8148  MISS %:    45.1852  MPKI: 0.03172
PSCL3 TRANSLATION FROM L1D PREFETCHER INSTRUCTION	ACCESS:        102  HIT:         51  MISS:         51  HIT %:         50  MISS %:         50  MPKI: 0.00102
PSCL3 LOAD TRANSLATION DATA	ACCESS:        345  HIT:          0  MISS:        345  HIT %:          0  MISS %:        100  MPKI: 0.0069


PSCL2 TOTAL     ACCESS:       3905  HIT:       1906  MISS:       1999  HIT %:    48.8092  MISS %:    51.1908   MPKI: 0.03998
PSCL2 LOAD TRANSLATION INSTRUCTION	ACCESS:       2071  HIT:       1855  MISS:        216  HIT %:    89.5703  MISS %:    10.4297  MPKI: 0.00432
PSCL2 TRANSLATION FROM L1D PREFETCHER INSTRUCTION	ACCESS:         51  HIT:         51  MISS:          0  HIT %:        100  MISS %:          0  MPKI: 0
PSCL2 LOAD TRANSLATION DATA	ACCESS:       1732  HIT:          0  MISS:       1732  HIT %:          0  MISS %:        100  MPKI: 0.03464
PSCL2 TRANSLATION FROM L1D PREFETCHER DATA	ACCESS:         51  HIT:          0  MISS:         51  HIT %:          0  MISS %:        100  MPKI: 0.00102


LLC TOTAL     ACCESS:     524228  HIT:     496911  MISS:      27317  HIT %:    94.7891  MISS %:     5.2109   MPKI: 0.54634
LLC LOAD INSTRUCTION	ACCESS:     253151  HIT:     252463  MISS:        688  HIT %:    99.7282  MISS %:   0.271775  MPKI: 0.01376
LLC LOAD TRANSLATION INSTRUCTION	ACCESS:        166  HIT:        139  MISS:         27  HIT %:    83.7349  MISS %:    16.2651  MPKI: 0.00054
LLC LOAD DATA	ACCESS:      72394  HIT:      69046  MISS:       3348  HIT %:    95.3753  MISS %:    4.62469  MPKI: 0.06696
LLC RFO DATA	ACCESS:      50979  HIT:      37598  MISS:      13381  HIT %:    73.7519  MISS %:    26.2481  MPKI: 0.26762
LLC PREFETCH DATA	ACCESS:      73698  HIT:      64175  MISS:       9523  HIT %:    87.0783  MISS %:    12.9217  MPKI: 0.19046
LLC WRITEBACK DATA	ACCESS:      72471  HIT:      72187  MISS:        284  HIT %:    99.6081  MISS %:   0.391881  MPKI: 0.00568
LLC LOAD TRANSLATION DATA	ACCESS:       1351  HIT:       1285  MISS:         66  HIT %:    95.1147  MISS %:    4.88527  MPKI: 0.00132
LLC TRANSLATION FROM L1D PREFETCHER DATA	ACCESS:         18  HIT:         18  MISS:          0  HIT %:        100  MISS %:          0  MPKI: 0

LLC AVERAGE MISS LATENCY: 155.272 cycles
LLC RQ	ACCESS:     378060	FORWARD:          0	MERGED:          0	TO_CACHE:     378059
LLC WQ	ACCESS:      72471	FORWARD:          1	MERGED:          0	TO_CACHE:      72471
LLC PQ	ACCESS:      73698	FORWARD:          0	MERGED:          0	TO_CACHE:      73698

LLC Dense regions hint to LLC: 0

RAW hits: 1232511
Loads Generated: 12634564
Loads sent to L1D: 11402054
Stores Generated: 6945329
Stores sent to L1D: 6945323
Major fault: 0 Minor fault: 2570
Allocated PAGES: 2570

stream: 
stream:times selected: 1190785
stream:pref_filled: 119931
stream:pref_useful: 24699
stream:pref_late: 6260
stream:misses: 7347
stream:misses_by_poll: 0

CS: 
CS:times selected: 179566
CS:pref_filled: 59756
CS:pref_useful: 37024
CS:pref_late: 6735
CS:misses: 15916
CS:misses_by_poll: 6

CPLX: 
CPLX:times selected: 1010210
CPLX:pref_filled: 22186
CPLX:pref_useful: 5204
CPLX:pref_late: 2965
CPLX:misses: 91213
CPLX:misses_by_poll: 3

NL_L1: 
NL:times selected: 19892
NL:pref_filled: 627
NL:pref_useful: 305
NL:pref_late: 404
NL:misses: 1490
NL:misses_by_poll: 0

total selections: 2400453
total_filled: 93184
total_useful: 34214
total_late: 17574
total_polluted: 9
total_misses_after_warmup: 764024
conflicts: 5977208

test: 118151

DRAM Statistics
 CHANNEL 0
 RQ ROW_BUFFER_HIT:       9827  ROW_BUFFER_MISS:      17191
 DBUS_CONGESTED:          6
 WQ ROW_BUFFER_HIT:       1312  ROW_BUFFER_MISS:      12058  FULL:          0

 AVG_CONGESTED_CYCLE: 4

CPU 0 Branch Prediction Accuracy: 99.821% MPKI: 0.32738 Average ROB Occupancy at Mispredict: 74.0542
Branch types
NOT_BRANCH: 40853399 81.7068%
BRANCH_DIRECT_JUMP: 548976 1.09795%
BRANCH_INDIRECT: 183387 0.366774%
BRANCH_CONDITIONAL: 6185691 12.3714%
BRANCH_DIRECT_CALL: 943068 1.88614%
BRANCH_INDIRECT_CALL: 171046 0.342092%
BRANCH_RETURN: 1114110 2.22822%
BRANCH_OTHER: 0 0%

DRAM PAGES: 1048576
Allocated PAGES: 2570
Average_ROB_Occupancy: 55.2581
Average_Decode_Occupancy: 4.97663
Average_FTQ_Occupancy: 14.8975
Indirect max targets: 14 Average targets: 1.15017
Branch_type:  BRANCH_DIRECT_JUMP:  Count Percentage: 3.32081 5.83787 4.10525 8.79818 2.41135 6.33571 2.15008 67.0407 
Branch_type:  BRANCH_INDIRECT:  Count Percentage: 6.15279 3.45228 8.1678 9.69318 3.33717 2.80252 3.86527 62.529 
Branch_type:  BRANCH_CONDITIONAL:  Count Percentage: 25.0011 3.37071 1.52679 4.33431 2.09338 3.67673 2.5112 57.4858 
Branch_type:  BRANCH_DIRECT_CALL:  Count Percentage: 0.390425 1.75511 0.756096 4.18711 2.53675 2.74158 3.39739 84.2356 
Branch_type:  BRANCH_INDIRECT_CALL:  Count Percentage: 9.56474 0 2.9992 0 0 2.03047 5.00949 80.3961 
Branch_type:  BRANCH_RETURN:  Count Percentage: 7.54089 1.80349 1.03903 3.70719 3.80557 3.55908 3.34849 75.1963 
Branch_type:  BRANCH_DIRECT_JUMP:  Total Count: 36441 64062 45049 96547 26461 69525 23594 735673 
Branch_type:  BRANCH_INDIRECT:  Total Count: 22556 12656 29943 35535 12234 10274 14170 229230 
Branch_type:  BRANCH_CONDITIONAL:  Total Count: 3091156 416758 188774 535898 258827 454594 310487 7107596 
Branch_type:  BRANCH_DIRECT_CALL:  Total Count: 7350 33041 14234 78825 47756 51612 63958 1585789 
Branch_type:  BRANCH_INDIRECT_CALL:  Total Count: 32701 0 10254 0 0 6942 17127 274867 
Branch_type:  BRANCH_RETURN:  Total Count: 167803 40132 23121 82494 84683 79198 74512 1673298 
Number of unique branch instructions: 9834
Upper 32 bits: 
aaaa
ffff
ffff0000
Unique upper 32 bits: 3
Unique upper 36 bits: 3
Unique upper 40 bits: 5
Unique upper 44 bits: 32
Unique upper 48 bits: 153
Variant_0 : 1371 0.334717
Variant_1 : 1270 0.310059
Variant_2 : 1346 0.328613
Variant_3 : 0 0
Offset_3 4049
Offset_4 243
Offset_5 448
Offset_6 501
Offset_7 579
Offset_8 510
Offset_9 465
Offset_10 375
Offset_11 313
Offset_12 284
Offset_13 199
Offset_14 228
Offset_15 189
Offset_16 219
Offset_17 142
Offset_18 126
Offset_19 235
Offset_20 139
Offset_21 235
Offset_22 390
Offset_23 241
Offset_24 324
Offset_25 88
Offset_47 80
decode_dispatch_called: 30277856 54.6101
Dispatch_width: 0 18184371 60.0583 32.7979
Dispatch_width: 1 2290134 7.56373 4.13056
Dispatch_width: 2 1130384 3.73337 2.0388
Dispatch_width: 3 1087837 3.59285 1.96206
Dispatch_width: 4 1036869 3.42451 1.87013
Dispatch_width: 5 1251766 4.13426 2.25773
Dispatch_width: 6 5296495 17.493 9.55293
Empty_decode_cycles: 25165806 45.3899
ROB_full_cycles: 484681 0.874186
Starvation_cycles_per_kilo_instr: 496.625
Starvation_cycles_per_kilo_instr_3: 473.738
Starvation_cycles_per_kilo_instr_0: 428.655
Branch_type_1  (3,1)  (4,7)  (5,36)  (6,70)  (7,114)  (8,127)  (9,124)  (10,98)  (11,70)  (12,51)  (13,5)  (14,2)  (15,3)  (16,4)  (18,1)  (19,4)  (20,2)  (21,1)  (22,3)  (23,2)  (24,10)  (25,12) 
Branch_type_2  (3,1)  (5,1)  (8,3)  (9,3)  (12,1)  (13,1)  (14,1)  (16,3)  (17,2)  (20,2)  (21,2)  (23,5)  (24,1)  (47,36) 
Branch_type_3  (3,4047)  (4,236)  (5,407)  (6,415)  (7,434)  (8,319)  (9,255)  (10,150)  (11,128)  (12,59)  (13,4) 
Branch_type_4  (6,4)  (7,8)  (8,26)  (9,51)  (10,60)  (11,59)  (12,95)  (13,86)  (14,101)  (15,89)  (16,98)  (17,63)  (18,57)  (19,114)  (20,72)  (21,124)  (22,207)  (23,136)  (24,186)  (25,72) 
Branch_type_5  (8,2)  (9,1)  (10,3)  (11,5)  (12,3)  (13,14)  (14,16)  (15,11)  (16,20)  (17,11)  (18,16)  (19,12)  (20,10)  (21,13)  (22,42)  (23,26)  (24,36) 
Branch_type_6  (5,4)  (6,12)  (7,23)  (8,33)  (9,31)  (10,64)  (11,51)  (12,75)  (13,89)  (14,108)  (15,86)  (16,94)  (17,66)  (18,52)  (19,105)  (20,53)  (21,95)  (22,138)  (23,72)  (24,91)  (25,4)  (47,44) 
Unique trigger count: 
Variant_0_evicts_0 : 0
Variant_0_evicts_1 : 0
Variant_0_evicts_2 : 0
Variant_0_evicts_3 : 0
Variant_1_evicts_0 : 0
Variant_1_evicts_1 : 0
Variant_1_evicts_2 : 0
Variant_1_evicts_3 : 0
Variant_2_evicts_0 : 0
Variant_2_evicts_1 : 0
Variant_2_evicts_2 : 0
Variant_2_evicts_3 : 0
Variant_3_evicts_0 : 0
Variant_3_evicts_1 : 0
Variant_3_evicts_2 : 0
Variant_3_evicts_3 : 0
BTB PER SET UNIQUE ADDR: 9 13 7 8 11 9 7 9 10 9 8 18 7 12 10 10 10 7 10 12 5 10 11 10 8 9 8 14 7 13 15 13 10 5 8 9 10 11 7 8 7 8 8 13 8 8 10 8 5 10 10 9 8 9 8 4 12 9 7 11 11 12 11 12 8 10 12 10 15 13 8 13 13 10 8 6 8 14 9 11 11 5 14 10 11 13 10 8 8 15 7 5 13 8 8 16 10 11 9 10 10 20 12 8 8 7 9 7 6 9 11 16 14 8 11 7 8 12 10 9 10 7 13 7 10 12 5 9 13 10 10 10 9 9 7 12 9 12 5 17 8 12 9 11 10 11 10 7 6 11 13 13 10 10 8 12 12 14 10 11 11 10 13 12 10 11 11 7 11 9 11 9 9 9 9 9 9 9 11 9 5 8 9 11 14 15 5 6 7 10 13 9 7 9 12 11 8 12 10 16 11 14 10 10 9 10 10 10 6 6 7 10 10 14 8 6 12 7 9 12 6 11 8 6 9 9 17 10 8 14 8 8 5 11 9 11 14 12 10 8 11 8 14 10 8 9 7 7 10 6 10 10 10 10 10 12 8 6 7 10 11 4 5 9 12 8 10 11 5 7 10 9 6 7 7 12 10 15 12 8 10 9 9 10 10 9 10 11 12 11 7 9 11 12 8 12 13 15 8 11 7 9 7 12 12 15 9 5 8 11 9 14 3 10 8 9 18 7 8 13 4 11 7 11 11 18 12 10 9 8 12 10 7 10 9 9 7 13 8 8 10 9 7 9 11 10 8 9 8 11 10 8 6 15 10 11 7 14 11 10 11 8 9 13 12 8 7 9 12 10 7 8 11 12 6 10 12 15 7 10 12 11 9 9 11 12 12 8 12 10 5 7 6 10 5 6 9 7 7 7 5 10 10 8 10 12 11 14 9 8 11 6 8 9 7 9 11 13 17 10 8 11 8 8 12 7 9 10 9 8 12 11 8 10 9 13 15 8 9 9 14 9 8 9 15 9 13 9 11 10 10 10 12 10 8 15 11 14 9 14 8 11 16 15 12 12 8 9 9 9 12 9 15 9 13 14 11 11 4 9 17 8 10 10 8 6 13 11 11 8 6 10 11 7 10 9 10 14 9 10 12 12 12 14 9 9 8 14 13 10 14 11 12 8 7 12 10 10 7 9 6 10 12 8 10 13 16 10 9 15 13 7 11 8 7 11 9 11 12 12 12 10 10 10 10 8 6 7 6 10 8 16 7 11 8 12 12 14 13 11 9 12 7 12 11 11 10 11 9 8 10 12 13 12 9 10 11 10 10 9 10 7 7 11 10 9 12 6 13 12 5 10 14 9 12 9 8 12 11 10 9 10 8 6 7 9 11 10 11 7 13 11 12 11 3 10 11 12 11 9 14 10 5 4 12 13 9 15 9 11 8 9 10 9 11 10 12 13 9 11 11 11 14 14 7 8 14 11 12 9 7 11 8 11 12 12 10 10 10 15 9 7 12 7 10 11 8 11 11 7 12 13 10 10 13 5 13 10 9 10 11 12 8 11 10 9 7 7 13 10 12 13 9 4 8 8 10 12 3 9 5 12 12 9 5 11 12 11 8 8 11 11 7 7 7 7 13 10 5 12 9 10 10 9 12 4 11 7 8 8 12 8 9 7 7 9 7 11 11 13 7 7 9 12 10 12 12 7 9 7 13 6 13 12 11 7 11 11 8 4 12 6 6 7 7 11 10 9 6 9 9 17 6 3 8 6 8 9 16 12 5 13 14 11 12 11 8 11 6 9 8 10 13 10 13 18 8 6 15 10 19 8 14 11 16 12 15 7 7 7 9 12 6 9 6 12 12 9 8 12 10 13 7 12 11 10 6 10 8 13 7 7 10 9 10 10 8 9 11 10 13 13 10 8 9 13 9 16 8 9 7 10 8 9 12 11 12 8 13 10 14 5 8 5 19 5 9 7 12 8 10 13 15 10 10 6 11 10 11 12 15 7 11 16 9 7 15 7 12 12 12 8 10 8 11 10 14 11 14 6 11 8 11 14 6 15 10 11 9 13 12 13 8 8 9 9 14 8 9 11 9 10 4 9 6 11 7 16 13 7 14 15 17 10 11 12 7 10 6 12 7 13 12 8 12 10 9 10 6 9 12 9 9 15 8 8 6 10 11 16 9 6 7 9 13 10 10 10 6 13 10 14 8 10 9 10 12 13 9 14 9 14 15 10 8 12 11 11 8 7 13 9 11 12 6 8 5 9 11 16 10 11 9 11 9 10 7 16 6 11 14 13 10 6 9 13 6 8 5 11 9 11 11 9 
BTB PER SET COUNT: 992 23 1997 8 11 15 7 9 1473 10 10 1011 51 1478 10 13 411 7 498 12 8 10 746 11 8 10 8 20 12 707 385 1429 11 8 13 10 11 12 10 9 8 8 10 24 9 9 13 8 5 10 10 10 10 12 10 6 13 9 11 16 11 16 12 12 9 13 16 11 21 14 8 1031 19 13 9 7 11 21 12 18 996 10 17 13 15 25 11 10 10 17 10 5 515 15 9 17 510 981 12 2839 10 1506 14 12 1952 7 18 7 6 11 11 23 789 10 14 10 10 15 1460 12 14 7 30 8 10 92 5 18 14 667 11 15 11 12 7 14 10 13 9 23 9 18 12 12 12 210 13 7 6 132 15 152 745 16 8 16 1920 17 13 30 17 12 17 14 15 20 14 8 12 1816 19 9 14 11 10 13 17 9 1652 9 999 8 3431 18 510 23 5 7 7 1026 17 13 7 9 16 112 8 740 12 19 21 16 17 14 11 13 10 38 7 1000 7 13 14 24 10 7 17 11 1712 17 7 16 9 10 11 19 20 258 188 22 10 11 7 18 12 25 19 17 409 8 249 9 20 12 14 9 7 7 12 6 12 13 11 13 11 13 8 7 10 11 218 4 5 11 18 9 15 11 1969 7 16 11 502 7 900 12 12 15 16 560 15 13 975 11 14 9 12 17 13 11 7 10 12 17 11 14 15 21 10 66 9 10 477 19 16 137 157 7 11 585 9 19 3 12 1475 480 23 8 10 30 4 6218 7 16 12 587 12 14 11 9 13 12 9 10 11 13 7 19 11 11 12 1002 7 11 19 13 12 10 10 14 17 618 7 19 12 14 8 15 11 18 12 10 9 15 12 28 7 9 17 12 7 489 12 19 8 13 16 16 8 1480 508 16 973 9 16 13 1320 9 13 817 5 8 9 11 5 10 10 9 9 7 5 12 11 11 16 16 15 15 10 9 99 6 9 9 8 14 12 2102 20 14 11 13 11 8 13 7 10 12 12 10 15 14 12 10 11 17 25 36 11 11 224 9 43 11 759 10 28 13 13 10 1038 13 18 10 506 18 13 16 14 18 29 12 22 18 19 12 15510 12 14 10 22 12 15 15 19 38 14 1943 5 11 25 975 11 12 8 24 17 11 17 9 683 13 34 7 15 9 1473 19 10 15 14 12 13 17 10 9 8 21 16 10 24 3439 67 12 11 12 10 14 13 977 6 10 16 9 12 15 24 11 9 320 21 8 18 12 10 64 11 1005 12 467 13 21 15 10 13 13 7 7 7 981 8 20 266 31 9 14 17 16 19 11 15 26 7 13 15 15 141 15 9 9 83 14 15 13 2439 13 20 13 15 12 13 9 7 14 11 15 20 6 16 15 6 14 617 10 16 10 1684 383 14 11 9 16 10 6 11 9 18 1675 13 9 15 12 15 13 3 16 380 15 14 11 17 13 5 998 16 24 9 22 862 16 10 11 462 157 12 12 14 21 15 11 13 13 16 15 7 21 227 16 1943 10 10 13 10 14 15 511 14 11 215 158 9 12 15 10 18372 16 9 979 1484 8 12 16 17 10 21 5 19 17 12 13 19 14 8 12 15 11 7 7 82 14 13 20 9 4 1947 9 11 3406 3 10 6 17 545 9 9 16 16 14 8 9 380 12 8 8 8 7 24 14 5 450 14 787 14 502 17 6 12 8 9 11 12 8 11 10 7 12 9 13 14 14 15 15 13 93 10 12 339 7 14 7 1491 6 950 1575 1126 8 12 1406 10 4 17 6 8 7 2975 22 10 11 8 144 77 27 8 3 9 6 9 483 23 26 997 20 254 18 16 11 10 16 6 11 10 772 16 14 76 294 102 11 20 13 256 8 563 379 17 14 20 8 7 7 9 14 8 12 7 19 13 1482 10 18 10 24 8 14 1176 12 6 13 8 20 8 11 12 14 480 12 11 9 791 12 18 15 13 12 10 15 21 19 8 12 8 724 10 13 1582 11 510 8 17 15 17 5 10 5 794 5 9 7 19 12 10 16 17 11 12 8 12 10 16 12 20 9 158 26 11 8 22 7 15 12 15 9 12 5032 14 12 20 11 821 8 11 8 17 301 6 21 11 12 12 41 17 854 20 9 17 22 1083 979 10 16 14 11 4 12 6 224 9 18 30 7 85 18 33 20 12 12 10 46 779 15 8 799 13 8 19 12 13 16 10 10 507 67 1473 1396 9 11 9 11 19 814 9 6 516 11 21 10 12 10 8 14 29 232 8 10 12 18 14 14 13 50 12 20 18 978 8 1130 15 508 15 978 15 10 11 26 6 9 5 1478 19 986 10 1475 10 11 9 10 9 23 8 15 776 294 17 6 10 17 12 42 5 14 792 15 11 11 
To predecode: 0
Predecoding something: 0
Predecode request dropped: 0
sizeofblock_0 0
sizeofblock_1 42752
sizeofblock_2 26478
sizeofblock_3 46088
sizeofblock_4 22920
sizeofblock_5 0
sizeofblock_6 0
sizeofblock_7 0
sizeofblock_8 0
Variant_0 Correct: 1611907 Incorrect: 0 Accuracy: 1
Variant_1 Correct: 2089083 Incorrect: 0 Accuracy: 1
Variant_2 Correct: 3636693 Incorrect: 0 Accuracy: 1
Variant_3 Correct: 0 Incorrect: 0 Accuracy: -nan
