
*** ChampSim Multicore Out-of-Order Simulator ***

Warmup Instructions: 50000000
Simulation Instructions: 50000000
Number of CPUs: 1
LLC sets: 2048
LLC ways: 16
Off-chip DRAM Size: 4096 MB Channels: 1 Width: 64-bit Data Rate: 6400 MT/s
CPU 0 runs ./micro_traces/srv149.trace.gz
.gz
ITLB has LRU replacement policy
DTLB has LRU replacement policy
STLB has LRU replacement policy
FDIP Prefetcher at L1I
L1I has LRU replacement policy
L1D has LRU replacement policy
Initialize SRRIP state for L2C
Initialize DRRIP state for LLC
Heartbeat_Variant_0 : 1314 0.1604 per_variant_size: 0 1314 0 0 0 0 0 0 0 
Heartbeat_Variant_1 : 1375 0.167847 per_variant_size: 0 926 449 0 0 0 0 0 0 
Heartbeat_Variant_2 : 1494 0.182373 per_variant_size: 0 829 440 195 30 0 0 0 0 
Heartbeat_Variant_3 : 0 0 per_variant_size: 0 0 0 0 0 0 0 0 0 
Heartbeat_Variant_0_evicts 0 : 7127 1 : 602 2 : 1463 3 : 0 
Heartbeat_Variant_1_evicts 0 : 640 1 : 0 2 : 639 3 : 0 
Heartbeat_Variant_2_evicts 0 : 1324 1 : 519 2 : 0 3 : 0 
Heartbeat_Variant_3_evicts 0 : 0 1 : 0 2 : 0 3 : 0 
Heartbeat CPU 0 instructions: 10000001 cycles: 2794003 heartbeat IPC: 3.57909 cumulative IPC: 3.57909 (Simulation time: 0 hr 1 min 38 sec) 
Heartbeat_Variant_0 : 1413 0.172485 per_variant_size: 0 1413 0 0 0 0 0 0 0 
Heartbeat_Variant_1 : 1521 0.185669 per_variant_size: 0 981 540 0 0 0 0 0 0 
Heartbeat_Variant_2 : 1568 0.191406 per_variant_size: 0 804 481 239 44 0 0 0 0 
Heartbeat_Variant_3 : 0 0 per_variant_size: 0 0 0 0 0 0 0 0 0 
Heartbeat_Variant_0_evicts 0 : 7184 1 : 611 2 : 1426 3 : 0 
Heartbeat_Variant_1_evicts 0 : 661 1 : 0 2 : 513 3 : 0 
Heartbeat_Variant_2_evicts 0 : 1361 1 : 527 2 : 0 3 : 0 
Heartbeat_Variant_3_evicts 0 : 0 1 : 0 2 : 0 3 : 0 
Heartbeat CPU 0 instructions: 20000000 cycles: 5588351 heartbeat IPC: 3.57865 cumulative IPC: 3.57887 (Simulation time: 0 hr 3 min 12 sec) 
Heartbeat_Variant_0 : 1416 0.172852 per_variant_size: 0 1416 0 0 0 0 0 0 0 
Heartbeat_Variant_1 : 1524 0.186035 per_variant_size: 0 979 545 0 0 0 0 0 0 
Heartbeat_Variant_2 : 1567 0.191284 per_variant_size: 0 799 485 239 44 0 0 0 0 
Heartbeat_Variant_3 : 0 0 per_variant_size: 0 0 0 0 0 0 0 0 0 
Heartbeat_Variant_0_evicts 0 : 7241 1 : 600 2 : 1378 3 : 0 
Heartbeat_Variant_1_evicts 0 : 638 1 : 0 2 : 497 3 : 0 
Heartbeat_Variant_2_evicts 0 : 1337 1 : 535 2 : 0 3 : 0 
Heartbeat_Variant_3_evicts 0 : 0 1 : 0 2 : 0 3 : 0 
Heartbeat CPU 0 instructions: 30000003 cycles: 8382882 heartbeat IPC: 3.57842 cumulative IPC: 3.57872 (Simulation time: 0 hr 4 min 49 sec) 
Heartbeat_Variant_0 : 1422 0.173584 per_variant_size: 0 1422 0 0 0 0 0 0 0 
Heartbeat_Variant_1 : 1539 0.187866 per_variant_size: 0 979 560 0 0 0 0 0 0 
Heartbeat_Variant_2 : 1569 0.191528 per_variant_size: 0 788 483 248 50 0 0 0 0 
Heartbeat_Variant_3 : 0 0 per_variant_size: 0 0 0 0 0 0 0 0 0 
Heartbeat_Variant_0_evicts 0 : 7325 1 : 612 2 : 1396 3 : 0 
Heartbeat_Variant_1_evicts 0 : 652 1 : 0 2 : 506 3 : 0 
Heartbeat_Variant_2_evicts 0 : 1354 1 : 540 2 : 0 3 : 0 
Heartbeat_Variant_3_evicts 0 : 0 1 : 0 2 : 0 3 : 0 
Heartbeat CPU 0 instructions: 40000002 cycles: 11178072 heartbeat IPC: 3.57757 cumulative IPC: 3.57843 (Simulation time: 0 hr 6 min 24 sec) 
*** Reached end of trace for Core: 0 Repeating trace: ./micro_traces/srv149.trace.gz
Heartbeat_Variant_0 : 1427 0.174194 per_variant_size: 0 1427 0 0 0 0 0 0 0 
Heartbeat_Variant_1 : 1550 0.189209 per_variant_size: 0 984 566 0 0 0 0 0 0 
Heartbeat_Variant_2 : 1580 0.192871 per_variant_size: 0 789 488 256 47 0 0 0 0 
Heartbeat_Variant_3 : 0 0 per_variant_size: 0 0 0 0 0 0 0 0 0 
Heartbeat_Variant_0_evicts 0 : 7174 1 : 589 2 : 1390 3 : 0 
Heartbeat_Variant_1_evicts 0 : 654 1 : 0 2 : 473 3 : 0 
Heartbeat_Variant_2_evicts 0 : 1325 1 : 537 2 : 0 3 : 0 
Heartbeat_Variant_3_evicts 0 : 0 1 : 0 2 : 0 3 : 0 
Heartbeat CPU 0 instructions: 50000000 cycles: 13972843 heartbeat IPC: 3.57811 cumulative IPC: 3.57837 (Simulation time: 0 hr 8 min 0 sec) 

Warmup complete CPU 0 instructions: 50000004 cycles: 13972844 (Simulation time: 0 hr 8 min 0 sec) 

Cycle: 20000000 FTQ IN: 58020969 FTQ occupancy: 19.2809 DECODE IN: 58020844 DECODE occupancy: 49.8796 ROB IN: 58020784 ROB occupancy: 304.66 ROB OUT: 58020745
Heartbeat_Variant_0 : 1434 0.175049 per_variant_size: 0 1434 0 0 0 0 0 0 0 
Heartbeat_Variant_1 : 1550 0.189209 per_variant_size: 0 985 565 0 0 0 0 0 0 
Heartbeat_Variant_2 : 1573 0.192017 per_variant_size: 0 783 486 257 47 0 0 0 0 
Heartbeat_Variant_3 : 0 0 per_variant_size: 0 0 0 0 0 0 0 0 0 
Heartbeat_Variant_0_evicts 0 : 7234 1 : 602 2 : 1407 3 : 0 
Heartbeat_Variant_1_evicts 0 : 650 1 : 0 2 : 464 3 : 0 
Heartbeat_Variant_2_evicts 0 : 1352 1 : 512 2 : 0 3 : 0 
Heartbeat_Variant_3_evicts 0 : 0 1 : 0 2 : 0 3 : 0 
Heartbeat CPU 0 instructions: 60000003 cycles: 21486593 heartbeat IPC: 1.33089 cumulative IPC: 1.33089 (Simulation time: 0 hr 9 min 31 sec) 
Heartbeat_Variant_0 : 1434 0.175049 per_variant_size: 0 1434 0 0 0 0 0 0 0 
Heartbeat_Variant_1 : 1545 0.188599 per_variant_size: 0 981 564 0 0 0 0 0 0 
Heartbeat_Variant_2 : 1578 0.192627 per_variant_size: 0 789 485 257 47 0 0 0 0 
Heartbeat_Variant_3 : 0 0 per_variant_size: 0 0 0 0 0 0 0 0 0 
Heartbeat_Variant_0_evicts 0 : 7230 1 : 591 2 : 1399 3 : 0 
Heartbeat_Variant_1_evicts 0 : 649 1 : 0 2 : 459 3 : 0 
Heartbeat_Variant_2_evicts 0 : 1341 1 : 522 2 : 0 3 : 0 
Heartbeat_Variant_3_evicts 0 : 0 1 : 0 2 : 0 3 : 0 
Heartbeat CPU 0 instructions: 70000001 cycles: 28909611 heartbeat IPC: 1.34716 cumulative IPC: 1.33898 (Simulation time: 0 hr 10 min 59 sec) 
Cycle: 30000000 FTQ IN: 13457924 FTQ occupancy: 10.4286 DECODE IN: 13457996 DECODE occupancy: 25.9569 ROB IN: 13458056 ROB occupancy: 201.822 ROB OUT: 13458067
Heartbeat_Variant_0 : 1433 0.174927 per_variant_size: 0 1433 0 0 0 0 0 0 0 
Heartbeat_Variant_1 : 1546 0.188721 per_variant_size: 0 981 565 0 0 0 0 0 0 
Heartbeat_Variant_2 : 1578 0.192627 per_variant_size: 0 787 487 256 48 0 0 0 0 
Heartbeat_Variant_3 : 0 0 per_variant_size: 0 0 0 0 0 0 0 0 0 
Heartbeat_Variant_0_evicts 0 : 7327 1 : 605 2 : 1417 3 : 0 
Heartbeat_Variant_1_evicts 0 : 651 1 : 0 2 : 479 3 : 0 
Heartbeat_Variant_2_evicts 0 : 1372 1 : 524 2 : 0 3 : 0 
Heartbeat_Variant_3_evicts 0 : 0 1 : 0 2 : 0 3 : 0 
Heartbeat CPU 0 instructions: 80000000 cycles: 36359416 heartbeat IPC: 1.34232 cumulative IPC: 1.34009 (Simulation time: 0 hr 12 min 36 sec) 
Cycle: 40000000 FTQ IN: 13451789 FTQ occupancy: 10.6791 DECODE IN: 13451751 DECODE occupancy: 26.3925 ROB IN: 13451717 ROB occupancy: 201.099 ROB OUT: 13451722
Heartbeat_Variant_0 : 1431 0.174683 per_variant_size: 0 1431 0 0 0 0 0 0 0 
Heartbeat_Variant_1 : 1549 0.189087 per_variant_size: 0 987 562 0 0 0 0 0 0 
Heartbeat_Variant_2 : 1578 0.192627 per_variant_size: 0 789 486 256 47 0 0 0 0 
Heartbeat_Variant_3 : 0 0 per_variant_size: 0 0 0 0 0 0 0 0 0 
Heartbeat_Variant_0_evicts 0 : 7329 1 : 603 2 : 1424 3 : 0 
Heartbeat_Variant_1_evicts 0 : 666 1 : 0 2 : 489 3 : 0 
Heartbeat_Variant_2_evicts 0 : 1363 1 : 549 2 : 0 3 : 0 
Heartbeat_Variant_3_evicts 0 : 0 1 : 0 2 : 0 3 : 0 
Heartbeat CPU 0 instructions: 90000002 cycles: 43767096 heartbeat IPC: 1.34995 cumulative IPC: 1.34254 (Simulation time: 0 hr 14 min 13 sec) 
*** Reached end of trace for Core: 0 Repeating trace: ./micro_traces/srv149.trace.gz
Cycle: 50000000 FTQ IN: 13544646 FTQ occupancy: 10.451 DECODE IN: 13544737 DECODE occupancy: 26.0693 ROB IN: 13544771 ROB occupancy: 201.712 ROB OUT: 13544753
Heartbeat_Variant_0 : 1428 0.174316 per_variant_size: 0 1428 0 0 0 0 0 0 0 
Heartbeat_Variant_1 : 1552 0.189453 per_variant_size: 0 988 564 0 0 0 0 0 0 
Heartbeat_Variant_2 : 1578 0.192627 per_variant_size: 0 788 487 256 47 0 0 0 0 
Heartbeat_Variant_3 : 0 0 per_variant_size: 0 0 0 0 0 0 0 0 0 
Heartbeat_Variant_0_evicts 0 : 7166 1 : 582 2 : 1373 3 : 0 
Heartbeat_Variant_1_evicts 0 : 643 1 : 0 2 : 451 3 : 0 
Heartbeat_Variant_2_evicts 0 : 1315 1 : 509 2 : 0 3 : 0 
Heartbeat_Variant_3_evicts 0 : 0 1 : 0 2 : 0 3 : 0 
Heartbeat CPU 0 instructions: 100000000 cycles: 51144769 heartbeat IPC: 1.35544 cumulative IPC: 1.3451 (Simulation time: 0 hr 15 min 53 sec) 
Finished CPU 0 instructions: 50000000 cycles: 37171926 cumulative IPC: 1.3451 (Simulation time: 0 hr 15 min 53 sec) 

ChampSim completed all CPUs

Region of Interest Statistics

CPU 0 cumulative IPC: 1.3451 instructions: 50000000 cycles: 37171926
 Fetch stage stalled: 59.9758  Sim cycles: 37171926 fetch stall cycle: 22294173
 Empty decode stage: 47.3625  Sim cycles: 37171926 fetch stall cycle: 17605550
ITLB TOTAL     ACCESS:    5806977  HIT:    5314723  MISS:     492254  HIT %:    91.5231  MISS %:    8.47694   MPKI: 9.84508
ITLB LOAD TRANSLATION INSTRUCTION	ACCESS:    5685774  HIT:    5193520  MISS:     492254  HIT %:    91.3424  MISS %:    8.65764  MPKI: 9.84508
ITLB TRANSLATION FROM L1D PREFETCHER INSTRUCTION	ACCESS:     121203  HIT:     121203  MISS:          0  HIT %:        100  MISS %:          0  MPKI: 0

ITLB AVERAGE MISS LATENCY: 9.06405 cycles
ITLB RQ	ACCESS:    7882122	FORWARD:          0	MERGED:    1629143	TO_CACHE:    6252979

DTLB TOTAL     ACCESS:    8978018  HIT:    8501879  MISS:     476139  HIT %:    94.6966  MISS %:    5.30339   MPKI: 9.52278
DTLB LOAD TRANSLATION DATA	ACCESS:    8978018  HIT:    8501879  MISS:     476139  HIT %:    94.6966  MISS %:    5.30339  MPKI: 9.52278

DTLB AVERAGE MISS LATENCY: 9.27896 cycles
DTLB RQ	ACCESS:   13328492	FORWARD:          0	MERGED:    4314633	TO_CACHE:    9013859

STLB TOTAL     ACCESS:    1224773  HIT:    1222441  MISS:       2332  HIT %:    99.8096  MISS %:   0.190403   MPKI: 0.04664
STLB LOAD TRANSLATION INSTRUCTION	ACCESS:     492254  HIT:     491917  MISS:        337  HIT %:    99.9315  MISS %:  0.0684606  MPKI: 0.00674
STLB LOAD TRANSLATION DATA	ACCESS:     475940  HIT:     473985  MISS:       1955  HIT %:    99.5892  MISS %:   0.410766  MPKI: 0.0391
STLB TRANSLATION FROM L1D PREFETCHER DATA	ACCESS:     256579  HIT:     256539  MISS:         40  HIT %:    99.9844  MISS %:  0.0155897  MPKI: 0.0008

STLB AVERAGE MISS LATENCY: 59.1467 cycles
STLB RQ	ACCESS:    1381212	FORWARD:          0	MERGED:     156406	TO_CACHE:    1224806

STLB Hit, L1D data hit: 0
STLB Hit, L2C data hit: 0
STLB Hit, LLC data hit: 0
STLB Hit, LLC data miss: 0
STLB STLB hints to L2: 0
L1D TOTAL     ACCESS:   13082550  HIT:   11885907  MISS:    1196643  HIT %:    90.8531  MISS %:    9.14686   MPKI: 23.9329
L1D LOAD DATA	ACCESS:    6585704  HIT:    5797163  MISS:     788541  HIT %:    88.0265  MISS %:    11.9735  MPKI: 15.7708
L1D RFO DATA	ACCESS:    6158182  HIT:    5862235  MISS:     295947  HIT %:    95.1942  MISS %:    4.80575  MPKI: 5.91894
L1D PREFETCH DATA	ACCESS:     338664  HIT:     226509  MISS:     112155  HIT %:    66.8831  MISS %:    33.1169  MPKI: 2.2431

L1D PREFETCH  REQUESTED:     825964  ISSUED:     825964  USEFUL:      55118  USELESS:      72512
L1D USEFUL LOAD PREFETCHES:      55118 PREFETCH ISSUED TO LOWER LEVEL:     127710  ACCURACY: 43.1587
 TIMELY PREFETCHES:      55118 LATE PREFETCHES: 15478 DROPPED PREFETCHES: 2
L1D AVERAGE MISS LATENCY: 413404 cycles
L1D RQ	ACCESS:   10678130	FORWARD:          0	MERGED:    3895001	TO_CACHE:    6620895
L1D WQ	ACCESS:    6899288	FORWARD:     162560	MERGED:     191691	TO_CACHE:    6707597
L1D PQ	ACCESS:     413145	FORWARD:          0	MERGED:          0	TO_CACHE:     412819

L1D UNIQUE REGIONS ACCESSED: 0
L1D REGIONS CONFLICTS: 0
L1D Cross Page Prefetch Requests: 7933
L1D Same Page Prefetch Requests: 831616
L1D ROI Sum of L1D PQ occupancy: 5224430
L1D PREFETCHES PUSHED FROM L2C: 0
L1I TOTAL     ACCESS:    7119630  HIT:    4362688  MISS:    2756942  HIT %:    61.2769  MISS %:    38.7231   MPKI: 55.1388
L1I LOAD INSTRUCTION	ACCESS:    6489718  HIT:    3732776  MISS:    2756942  HIT %:    57.5183  MISS %:    42.4817  MPKI: 55.1388
L1I PREFETCH INSTRUCTION	ACCESS:     629912  HIT:     629912  MISS:          0  HIT %:        100  MISS %:          0  MPKI: 0

L1I PREFETCH  REQUESTED:    1492606  ISSUED:    1492606  USEFUL:          0  USELESS:          0
L1I USEFUL LOAD PREFETCHES:          0 PREFETCH ISSUED TO LOWER LEVEL:          0  ACCURACY: -nan
 TIMELY PREFETCHES:          0 LATE PREFETCHES: 0 DROPPED PREFETCHES: 0
L1I AVERAGE MISS LATENCY: 17.0517 cycles
L1I RQ	ACCESS:    9496785	FORWARD:          0	MERGED:    2701159	TO_CACHE:    6795626
L1I PQ	ACCESS:    1492606	FORWARD:          0	MERGED:     406110	TO_CACHE:    1086496

L1BTB TOTAL     ACCESS:    5688192  HIT:    2073965  MISS:    3614227  HIT %:    36.4609  MISS %:    63.5391   MPKI: 72.2845
L1BTB BRANCH_DIRECT_JUMP	ACCESS:     541789  HIT:     141968  MISS:     399821	AVERAGE STALL: 47.8285
L1BTB BRANCH_INDIRECT	ACCESS:     180368  HIT:      64656  MISS:     115712	AVERAGE STALL: 95.8003
L1BTB BRANCH_CONDITIONAL	ACCESS:    2739301  HIT:    1453436  MISS:    1285865	AVERAGE STALL: 47.9276
L1BTB BRANCH_DIRECT_CALL	ACCESS:     942516  HIT:     103589  MISS:     838927	AVERAGE STALL: 51.5716
L1BTB BRANCH_INDIRECT_CALL	ACCESS:     170854  HIT:      21208  MISS:     149646	AVERAGE STALL: 122.137
L1BTB BRANCH_RETURN	ACCESS:    1113364  HIT:     289108  MISS:     824256	AVERAGE STALL: 45.0343
L1BTB BRANCH_OTHER ACCESS:          0  HIT:          0  MISS:          0	AVERAGE STALL: -nan
L1BTB TOTAL ROB OCCUPANCY AT BTB MISS: 6.40129

L2BTB TOTAL     ACCESS:    3589369  HIT:    3444362  MISS:     145007  HIT %:    95.9601  MISS %:     4.0399   MPKI: 2.90014
L2BTB BRANCH_DIRECT_JUMP	ACCESS:     395785  HIT:     381758  MISS:      14027	AVERAGE STALL: 47.8285
L2BTB BRANCH_INDIRECT	ACCESS:     105480  HIT:     102379  MISS:       3101	AVERAGE STALL: 95.8003
L2BTB BRANCH_CONDITIONAL	ACCESS:    1285865  HIT:    1232441  MISS:      53424	AVERAGE STALL: 47.9276
L2BTB BRANCH_DIRECT_CALL	ACCESS:     838927  HIT:     820040  MISS:      18887	AVERAGE STALL: 51.5716
L2BTB BRANCH_INDIRECT_CALL	ACCESS:     140288  HIT:     128817  MISS:      11471	AVERAGE STALL: 122.137
L2BTB BRANCH_RETURN	ACCESS:     823024  HIT:     778927  MISS:      44097	AVERAGE STALL: 45.0343
L2BTB BRANCH_OTHER ACCESS:          0  HIT:          0  MISS:          0	AVERAGE STALL: -nan
L2BTB TOTAL ROB OCCUPANCY AT BTB MISS: 159.549

L2C TOTAL     ACCESS:    4583068  HIT:    4103257  MISS:     479811  HIT %:    89.5308  MISS %:    10.4692   MPKI: 9.59622
L2C LOAD INSTRUCTION	ACCESS:    2756942  HIT:    2509646  MISS:     247296  HIT %:    91.0301  MISS %:    8.96994  MPKI: 4.94592
L2C LOAD TRANSLATION INSTRUCTION	ACCESS:        387  HIT:        100  MISS:        287  HIT %:    25.8398  MISS %:    74.1602  MPKI: 0.00574
L2C LOAD DATA	ACCESS:     773042  HIT:     691385  MISS:      81657  HIT %:    89.4369  MISS %:    10.5631  MPKI: 1.63314
L2C RFO DATA	ACCESS:     295835  HIT:     239116  MISS:      56719  HIT %:    80.8275  MISS %:    19.1725  MPKI: 1.13438
L2C PREFETCH DATA	ACCESS:     215332  HIT:     136242  MISS:      79090  HIT %:    63.2707  MISS %:    36.7293  MPKI: 1.5818
L2C WRITEBACK DATA	ACCESS:     539404  HIT:     526192  MISS:      13212  HIT %:    97.5506  MISS %:    2.44937  MPKI: 0.26424
L2C LOAD TRANSLATION DATA	ACCESS:       2077  HIT:        538  MISS:       1539  HIT %:    25.9027  MISS %:    74.0973  MPKI: 0.03078
L2C TRANSLATION FROM L1D PREFETCHER DATA	ACCESS:         49  HIT:         38  MISS:         11  HIT %:     77.551  MISS %:     22.449  MPKI: 0.00022

L2C PREFETCH  REQUESTED:      95556  ISSUED:      95556  USEFUL:       9010  USELESS:      70616
L2C USEFUL LOAD PREFETCHES:       9010 PREFETCH ISSUED TO LOWER LEVEL:      79457  ACCURACY: 11.3395
 TIMELY PREFETCHES:       9010 LATE PREFETCHES: 367 DROPPED PREFETCHES: 0
L2C AVERAGE MISS LATENCY: 39.3005 cycles
L2C RQ	ACCESS:    3828388	FORWARD:          0	MERGED:          0	TO_CACHE:    3828332
L2C WQ	ACCESS:     539404	FORWARD:         56	MERGED:          0	TO_CACHE:     539404
L2C PQ	ACCESS:     223266	FORWARD:          0	MERGED:       3925	TO_CACHE:     219341

L2C Dense regions hint from L2: 0
PSCL5 TOTAL     ACCESS:       4668  HIT:       2334  MISS:       2334  HIT %:         50  MISS %:         50   MPKI: 0.04668
PSCL5 LOAD TRANSLATION INSTRUCTION	ACCESS:       4570  HIT:       2285  MISS:       2285  HIT %:         50  MISS %:         50  MPKI: 0.0457
PSCL5 TRANSLATION FROM L1D PREFETCHER INSTRUCTION	ACCESS:         98  HIT:         49  MISS:         49  HIT %:         50  MISS %:         50  MPKI: 0.00098


PSCL4 TOTAL     ACCESS:       4372  HIT:       2182  MISS:       2190  HIT %:    49.9085  MISS %:    50.0915   MPKI: 0.0438
PSCL4 LOAD TRANSLATION INSTRUCTION	ACCESS:       3285  HIT:       2151  MISS:       1134  HIT %:    65.4795  MISS %:    34.5205  MPKI: 0.02268
PSCL4 TRANSLATION FROM L1D PREFETCHER INSTRUCTION	ACCESS:         49  HIT:         31  MISS:         18  HIT %:    63.2653  MISS %:    36.7347  MPKI: 0.00036
PSCL4 LOAD TRANSLATION DATA	ACCESS:       1025  HIT:          0  MISS:       1025  HIT %:          0  MISS %:        100  MPKI: 0.0205
PSCL4 TRANSLATION FROM L1D PREFETCHER DATA	ACCESS:         13  HIT:          0  MISS:         13  HIT %:          0  MISS %:        100  MPKI: 0.00026


PSCL3 TOTAL     ACCESS:       4224  HIT:       2103  MISS:       2121  HIT %:    49.7869  MISS %:    50.2131   MPKI: 0.04242
PSCL3 LOAD TRANSLATION INSTRUCTION	ACCESS:       2523  HIT:       2072  MISS:        451  HIT %:    82.1245  MISS %:    17.8755  MPKI: 0.00902
PSCL3 TRANSLATION FROM L1D PREFETCHER INSTRUCTION	ACCESS:         38  HIT:         31  MISS:          7  HIT %:    81.5789  MISS %:    18.4211  MPKI: 0.00014
PSCL3 LOAD TRANSLATION DATA	ACCESS:       1639  HIT:          0  MISS:       1639  HIT %:          0  MISS %:        100  MPKI: 0.03278
PSCL3 TRANSLATION FROM L1D PREFETCHER DATA	ACCESS:         24  HIT:          0  MISS:         24  HIT %:          0  MISS %:        100  MPKI: 0.00048


PSCL2 TOTAL     ACCESS:       4515  HIT:       2181  MISS:       2334  HIT %:    48.3056  MISS %:    51.6944   MPKI: 0.04668
PSCL2 LOAD TRANSLATION INSTRUCTION	ACCESS:       2468  HIT:       2132  MISS:        336  HIT %:    86.3857  MISS %:    13.6143  MPKI: 0.00672
PSCL2 TRANSLATION FROM L1D PREFETCHER INSTRUCTION	ACCESS:         49  HIT:         49  MISS:          0  HIT %:        100  MISS %:          0  MPKI: 0
PSCL2 LOAD TRANSLATION DATA	ACCESS:       1949  HIT:          0  MISS:       1949  HIT %:          0  MISS %:        100  MPKI: 0.03898
PSCL2 TRANSLATION FROM L1D PREFETCHER DATA	ACCESS:         49  HIT:          0  MISS:         49  HIT %:          0  MISS %:        100  MPKI: 0.00098


LLC TOTAL     ACCESS:     547358  HIT:     522464  MISS:      24894  HIT %:     95.452  MISS %:    4.54803   MPKI: 0.49788
LLC LOAD INSTRUCTION	ACCESS:     247296  HIT:     246563  MISS:        733  HIT %:    99.7036  MISS %:   0.296406  MPKI: 0.01466
LLC LOAD TRANSLATION INSTRUCTION	ACCESS:        287  HIT:        267  MISS:         20  HIT %:    93.0314  MISS %:    6.96864  MPKI: 0.0004
LLC LOAD DATA	ACCESS:      81295  HIT:      78367  MISS:       2928  HIT %:    96.3983  MISS %:     3.6017  MPKI: 0.05856
LLC RFO DATA	ACCESS:      56713  HIT:      44713  MISS:      12000  HIT %:    78.8408  MISS %:    21.1592  MPKI: 0.24
LLC PREFETCH DATA	ACCESS:      79457  HIT:      70471  MISS:       8986  HIT %:    88.6907  MISS %:    11.3093  MPKI: 0.17972
LLC WRITEBACK DATA	ACCESS:      80760  HIT:      80606  MISS:        154  HIT %:    99.8093  MISS %:   0.190688  MPKI: 0.00308
LLC LOAD TRANSLATION DATA	ACCESS:       1539  HIT:       1466  MISS:         73  HIT %:    95.2567  MISS %:    4.74334  MPKI: 0.00146
LLC TRANSLATION FROM L1D PREFETCHER DATA	ACCESS:         11  HIT:         11  MISS:          0  HIT %:        100  MISS %:          0  MPKI: 0

LLC AVERAGE MISS LATENCY: 195.424 cycles
LLC RQ	ACCESS:     387142	FORWARD:          0	MERGED:          0	TO_CACHE:     387141
LLC WQ	ACCESS:      80760	FORWARD:          1	MERGED:          0	TO_CACHE:      80760
LLC PQ	ACCESS:      79457	FORWARD:          0	MERGED:          0	TO_CACHE:      79457

LLC Dense regions hint to LLC: 0

RAW hits: 1909638
Loads Generated: 12587770
Loads sent to L1D: 10678130
Stores Generated: 6899276
Stores sent to L1D: 6899288
Major fault: 0 Minor fault: 2244
Allocated PAGES: 2244

stream: 
stream:times selected: 1255578
stream:pref_filled: 131511
stream:pref_useful: 31349
stream:pref_late: 10701
stream:misses: 10858
stream:misses_by_poll: 0

CS: 
CS:times selected: 198642
CS:pref_filled: 80401
CS:pref_useful: 56596
CS:pref_late: 9599
CS:misses: 26259
CS:misses_by_poll: 11

CPLX: 
CPLX:times selected: 1055814
CPLX:pref_filled: 28760
CPLX:pref_useful: 9591
CPLX:pref_late: 4965
CPLX:misses: 147832
CPLX:misses_by_poll: 4

NL_L1: 
NL:times selected: 21602
NL:pref_filled: 1045
NL:pref_useful: 649
NL:pref_late: 712
NL:misses: 2976
NL:misses_by_poll: 0

total selections: 2531636
total_filled: 112155
total_useful: 55118
total_late: 28808
total_polluted: 15
total_misses_after_warmup: 823732
conflicts: 5511738

test: 122959

DRAM Statistics
 CHANNEL 0
 RQ ROW_BUFFER_HIT:       9209  ROW_BUFFER_MISS:      15520
 DBUS_CONGESTED:          4
 WQ ROW_BUFFER_HIT:       1689  ROW_BUFFER_MISS:      11210  FULL:          0

 AVG_CONGESTED_CYCLE: 5

CPU 0 Branch Prediction Accuracy: 99.8274% MPKI: 0.31662 Average ROB Occupancy at Mispredict: 183.316
Branch types
NOT_BRANCH: 40827532 81.6551%
BRANCH_DIRECT_JUMP: 541789 1.08358%
BRANCH_INDIRECT: 180368 0.360736%
BRANCH_CONDITIONAL: 6223451 12.4469%
BRANCH_DIRECT_CALL: 942516 1.88503%
BRANCH_INDIRECT_CALL: 170854 0.341708%
BRANCH_RETURN: 1113364 2.22673%
BRANCH_OTHER: 0 0%

DRAM PAGES: 1048576
Allocated PAGES: 2244
Average_ROB_Occupancy: 203.277
Average_Decode_Occupancy: 26.2055
Average_FTQ_Occupancy: 10.5561
Indirect max targets: 14 Average targets: 1.14865
Branch_type:  BRANCH_DIRECT_JUMP:  Count Percentage: 2.86204 6.18563 4.88073 8.11617 1.86457 2.74081 0.815904 72.5342 
Branch_type:  BRANCH_INDIRECT:  Count Percentage: 11.7684 3.32375 2.44112 9.68703 3.36066 4.02403 2.03227 63.3627 
Branch_type:  BRANCH_CONDITIONAL:  Count Percentage: 22.401 5.52967 2.24576 4.83256 5.88061 2.72985 0.636041 55.7445 
Branch_type:  BRANCH_DIRECT_CALL:  Count Percentage: 0.778294 1.30272 1.38008 4.2185 2.57512 2.05472 0.684129 87.0064 
Branch_type:  BRANCH_INDIRECT_CALL:  Count Percentage: 9.55813 0.541959 2.99701 4.82498 1.25531 2.97536 0.99208 76.8552 
Branch_type:  BRANCH_RETURN:  Count Percentage: 4.26032 3.76632 1.81321 5.58007 7.86494 4.2566 1.02367 71.4349 
Branch_type:  BRANCH_DIRECT_JUMP:  Total Count: 30974 66943 52821 87836 20179 29662 8830 784990 
Branch_type:  BRANCH_INDIRECT:  Total Count: 42400 11975 8795 34901 12108 14498 7322 228287 
Branch_type:  BRANCH_CONDITIONAL:  Total Count: 2786241 687782 279328 601076 731433 339540 79111 6933525 
Branch_type:  BRANCH_DIRECT_CALL:  Total Count: 14679 24570 26029 79563 48568 38753 12903 1640983 
Branch_type:  BRANCH_INDIRECT_CALL:  Total Count: 32680 1853 10247 16497 4292 10173 3392 262774 
Branch_type:  BRANCH_RETURN:  Total Count: 94952 83942 40412 124366 175290 94869 22815 1592106 
Number of unique branch instructions: 10250
Upper 32 bits: 
aaaa
ffff
ffff0000
Unique upper 32 bits: 3
Unique upper 36 bits: 3
Unique upper 40 bits: 5
Unique upper 44 bits: 32
Unique upper 48 bits: 156
Variant_0 : 1428 0.174316
Variant_1 : 1552 0.189453
Variant_2 : 1578 0.192627
Variant_3 : 0 0
Offset_3 4224
Offset_4 255
Offset_5 460
Offset_6 526
Offset_7 610
Offset_8 533
Offset_9 487
Offset_10 402
Offset_11 332
Offset_12 273
Offset_13 211
Offset_14 227
Offset_15 199
Offset_16 231
Offset_17 156
Offset_18 135
Offset_19 242
Offset_20 142
Offset_21 241
Offset_22 401
Offset_23 243
Offset_24 334
Offset_25 88
Offset_47 82
decode_dispatch_called: 23116121 62.187
Dispatch_width: 0 12273843 53.0965 33.0191
Dispatch_width: 1 735814 3.18312 1.97949
Dispatch_width: 2 705042 3.05 1.89671
Dispatch_width: 3 455171 1.96906 1.2245
Dispatch_width: 4 3486083 15.0807 9.37827
Dispatch_width: 5 216751 0.937662 0.583104
Dispatch_width: 6 5243417 22.6829 14.1059
Empty_decode_cycles: 14055805 37.813
ROB_full_cycles: 5729322 15.413
Starvation_cycles_per_kilo_instr: 261.992
Starvation_cycles_per_kilo_instr_3: 224.964
Starvation_cycles_per_kilo_instr_0: 206.003
Branch_type_1  (3,1)  (4,9)  (5,36)  (6,76)  (7,123)  (8,129)  (9,127)  (10,103)  (11,78)  (12,44)  (13,4)  (14,2)  (15,3)  (16,4)  (18,1)  (19,4)  (20,2)  (21,1)  (22,3)  (23,2)  (24,10)  (25,12) 
Branch_type_2  (3,1)  (5,1)  (8,3)  (9,3)  (12,1)  (13,1)  (14,1)  (16,3)  (17,2)  (20,2)  (21,2)  (23,5)  (24,1)  (47,38) 
Branch_type_3  (3,4222)  (4,246)  (5,419)  (6,434)  (7,455)  (8,341)  (9,271)  (10,167)  (11,136)  (12,51)  (13,4) 
Branch_type_4  (6,4)  (7,8)  (8,27)  (9,52)  (10,63)  (11,58)  (12,98)  (13,93)  (14,100)  (15,95)  (16,105)  (17,71)  (18,62)  (19,117)  (20,74)  (21,127)  (22,215)  (23,137)  (24,196)  (25,72) 
Branch_type_5  (8,2)  (9,1)  (10,3)  (11,5)  (12,3)  (13,14)  (14,16)  (15,11)  (16,20)  (17,12)  (18,16)  (19,12)  (20,10)  (21,13)  (22,42)  (23,26)  (24,36) 
Branch_type_6  (5,4)  (6,12)  (7,24)  (8,31)  (9,33)  (10,66)  (11,55)  (12,76)  (13,95)  (14,108)  (15,90)  (16,99)  (17,71)  (18,56)  (19,109)  (20,54)  (21,98)  (22,141)  (23,73)  (24,91)  (25,4)  (47,44) 
Unique trigger count: 
Variant_0_evicts_0 : 0
Variant_0_evicts_1 : 0
Variant_0_evicts_2 : 0
Variant_0_evicts_3 : 0
Variant_1_evicts_0 : 0
Variant_1_evicts_1 : 0
Variant_1_evicts_2 : 0
Variant_1_evicts_3 : 0
Variant_2_evicts_0 : 0
Variant_2_evicts_1 : 0
Variant_2_evicts_2 : 0
Variant_2_evicts_3 : 0
Variant_3_evicts_0 : 0
Variant_3_evicts_1 : 0
Variant_3_evicts_2 : 0
Variant_3_evicts_3 : 0
BTB PER SET UNIQUE ADDR: 2 4 3 2 1 0 3 2 4 0 3 0 5 3 1 3 4 2 4 4 3 4 2 3 4 5 1 3 3 2 6 5 4 3 4 2 1 5 5 2 3 4 3 7 6 2 4 3 6 3 3 2 3 1 0 3 4 3 3 3 1 4 2 3 1 4 5 2 3 5 5 1 1 4 2 4 3 6 2 3 2 3 1 4 3 4 2 6 3 3 6 4 3 5 3 0 4 3 1 3 3 2 3 3 3 2 1 2 3 2 2 1 3 6 2 6 2 4 4 1 4 4 2 0 1 3 2 1 7 5 5 2 3 1 5 3 2 1 3 3 4 3 3 3 0 3 2 5 4 4 3 8 3 5 3 0 4 4 4 2 4 5 3 4 5 3 2 2 8 1 1 3 5 3 1 1 4 3 5 1 3 4 7 3 5 4 3 2 3 3 5 2 3 4 4 4 2 3 1 3 3 3 3 1 3 3 2 4 2 1 2 4 5 3 3 2 2 5 3 0 1 1 2 3 3 2 3 3 0 3 7 3 2 2 3 3 3 2 1 2 1 0 5 3 9 6 1 1 3 2 3 1 2 3 2 6 3 4 4 3 4 4 4 2 3 7 3 1 4 2 3 2 2 3 4 2 2 1 3 3 4 2 5 2 5 5 3 3 1 1 0 3 1 6 1 1 4 3 1 2 3 3 1 2 4 2 3 2 5 5 3 1 3 2 5 1 6 6 2 1 3 7 4 5 2 2 2 6 1 0 4 0 2 5 5 2 3 4 5 0 4 0 1 4 4 3 1 5 4 3 3 6 4 3 5 3 2 0 4 1 2 5 2 4 6 5 1 1 2 3 2 2 3 4 4 4 3 3 3 3 6 3 2 6 3 3 5 2 4 1 5 6 4 2 3 1 5 0 0 3 4 2 4 2 3 4 4 3 1 1 1 4 5 4 3 2 5 3 1 3 1 1 3 4 4 3 3 0 2 4 1 1 9 3 5 5 3 3 3 0 1 5 5 4 4 6 2 4 3 2 4 3 1 1 5 1 2 5 7 2 3 3 4 6 3 3 5 3 2 3 0 4 4 4 5 1 4 5 1 2 2 1 2 2 0 4 3 0 5 2 3 1 4 4 0 7 3 3 3 1 4 1 1 2 1 2 2 2 2 3 3 2 2 6 2 1 2 5 5 5 3 3 5 2 5 5 0 6 6 3 4 3 3 6 4 5 1 1 4 2 2 5 6 2 5 2 8 3 5 9 3 6 3 5 1 5 3 1 2 4 7 2 5 2 2 1 4 2 2 7 4 3 3 7 2 2 3 3 1 5 4 2 1 0 1 0 0 9 4 4 5 7 1 1 2 3 5 2 2 1 4 2 5 6 2 3 4 4 2 2 5 3 3 2 2 1 2 0 3 1 4 4 6 2 3 3 2 4 2 3 5 5 3 2 5 3 2 3 2 2 7 1 4 3 0 0 3 3 3 4 3 2 4 3 4 0 4 3 2 4 5 2 5 5 6 3 6 2 1 3 5 3 5 3 5 7 3 3 3 2 3 2 4 2 5 3 6 3 4 5 1 4 2 2 2 3 6 4 4 3 0 6 1 3 3 2 4 2 3 1 3 5 4 3 2 1 7 2 0 3 2 0 1 1 1 1 1 3 2 3 6 6 2 2 2 5 4 3 2 2 1 3 2 4 2 1 3 2 5 2 1 3 1 3 3 2 2 6 4 1 3 3 2 5 4 4 9 3 2 2 5 5 0 3 3 4 4 2 2 3 3 4 0 3 7 6 3 5 0 2 2 4 2 1 4 7 8 2 3 3 5 3 5 3 5 4 3 3 2 3 2 5 4 0 4 4 1 1 0 4 4 2 4 2 2 2 3 3 4 4 3 2 3 2 5 2 2 1 5 2 3 1 3 3 1 4 6 4 5 2 6 2 6 4 4 4 3 2 5 4 3 7 2 2 8 3 2 4 5 4 1 4 4 6 4 1 3 3 5 4 3 4 3 3 5 3 2 2 2 5 4 3 3 3 2 1 6 3 1 1 5 2 1 3 5 5 3 5 3 4 5 4 0 3 1 6 0 1 5 2 5 3 6 3 4 1 3 2 5 6 4 4 8 6 5 4 6 4 1 7 4 2 0 4 5 6 6 4 4 2 6 0 5 5 2 3 6 5 4 2 2 3 4 5 2 5 9 4 6 3 2 5 0 5 6 1 6 5 1 3 6 5 3 5 3 1 2 2 3 3 5 6 3 7 5 3 4 5 3 5 1 2 5 2 2 5 5 3 3 2 5 2 4 4 5 2 5 2 2 3 5 2 9 5 2 3 3 2 2 3 3 8 6 2 3 2 3 2 2 1 3 2 4 4 2 4 4 5 5 7 0 3 3 3 3 4 2 3 3 2 3 1 1 1 3 1 2 3 3 4 1 9 5 3 2 1 9 1 2 5 1 2 5 5 3 8 2 5 4 6 2 5 2 2 1 1 5 1 4 4 3 7 4 1 6 4 6 2 4 4 5 3 5 8 4 4 6 1 6 4 7 4 3 3 4 3 6 6 2 5 5 6 4 3 4 3 2 2 3 5 1 3 2 1 4 4 2 2 5 3 2 6 4 3 5 1 7 3 3 4 3 1 3 5 3 4 3 4 3 6 2 4 6 3 1 3 3 6 2 8 4 5 3 7 6 1 6 1 6 2 1 2 4 3 3 1 3 4 2 1 3 1 4 4 4 2 3 4 2 5 2 5 5 5 0 5 3 2 2 6 7 0 7 0 1 5 4 2 5 1 3 3 4 1 1 2 4 5 3 4 1 4 3 6 5 1 5 3 3 6 9 4 2 6 5 5 2 1 3 5 6 3 2 2 3 3 4 4 5 3 0 4 2 2 5 8 6 3 3 5 1 2 5 2 4 1 3 2 6 9 3 3 3 3 4 4 2 5 5 5 4 3 1 5 3 2 4 3 4 3 3 4 6 3 5 4 3 5 5 2 1 7 4 4 3 3 3 2 3 2 2 2 5 5 2 2 5 1 1 3 3 8 5 1 4 5 2 3 3 3 4 3 2 0 3 2 3 2 4 4 3 4 2 1 3 6 1 4 2 4 3 2 6 1 1 4 5 3 3 4 6 2 4 4 5 5 4 5 4 4 3 2 2 3 6 2 4 1 3 2 9 3 3 6 4 4 5 7 3 2 3 4 1 2 4 1 4 2 4 3 0 6 1 4 1 2 3 4 4 2 4 2 4 2 4 2 5 1 0 3 4 1 2 3 1 4 2 3 6 3 1 2 3 3 2 2 6 2 4 5 3 3 3 4 2 2 4 0 2 2 2 3 2 2 2 0 3 0 4 2 4 4 3 3 2 1 2 5 4 2 7 1 3 3 2 2 4 5 3 2 5 0 1 2 3 1 1 2 3 3 5 3 1 1 5 3 1 4 1 6 1 4 3 3 6 2 2 2 1 3 3 1 1 3 4 1 3 3 1 3 0 5 1 3 3 0 3 2 5 3 4 4 3 4 0 4 1 1 1 3 2 0 2 3 2 4 3 1 3 3 2 10 6 3 2 2 4 1 1 3 5 2 3 0 3 2 3 2 3 4 5 6 7 0 4 2 6 4 4 5 4 7 2 4 8 3 0 6 3 3 2 5 3 3 2 2 2 4 2 2 2 3 1 3 4 3 5 3 6 1 1 4 4 3 3 4 4 3 5 2 5 5 2 6 3 3 3 1 3 7 4 4 2 3 3 3 4 4 2 3 3 1 3 1 3 6 1 2 2 3 3 4 5 3 4 3 6 1 2 3 6 2 5 5 5 0 1 7 2 4 2 3 4 6 2 3 2 3 6 2 3 3 5 3 5 8 3 4 3 5 2 5 3 3 2 3 2 2 2 4 5 3 2 3 3 4 5 2 3 7 0 4 2 5 5 4 3 4 4 5 3 5 1 5 2 3 5 2 3 0 3 5 0 7 2 4 5 1 5 3 2 0 4 2 3 5 3 6 2 2 2 1 3 4 6 1 4 3 0 3 2 5 5 3 1 4 6 3 3 3 6 3 4 1 4 3 0 2 3 1 1 8 2 0 4 2 4 3 4 3 6 3 2 6 1 5 3 5 2 5 4 2 3 2 7 1 5 0 3 3 4 4 3 3 2 0 2 3 0 3 0 3 5 6 2 3 6 2 4 3 3 1 3 3 4 2 4 2 5 3 2 3 3 1 4 3 3 2 3 4 2 2 0 2 2 5 1 4 1 5 4 2 3 1 4 1 3 4 4 2 2 4 5 5 3 4 3 3 5 2 1 3 2 1 0 1 3 2 4 3 5 2 2 3 4 1 1 4 3 2 2 7 4 2 7 6 4 2 5 1 2 7 3 3 5 2 5 0 1 2 5 3 2 5 3 2 4 2 4 7 2 2 0 4 2 0 2 3 0 4 4 6 2 3 3 6 4 0 2 2 4 1 4 1 4 1 9 3 1 3 3 6 4 7 3 3 7 0 1 4 2 4 2 1 0 2 2 4 7 5 1 0 3 4 5 1 1 1 4 5 2 2 5 4 3 3 5 4 1 6 4 6 1 1 2 2 2 3 4 1 3 2 3 2 3 1 5 2 4 3 4 2 1 3 5 4 3 0 
BTB PER SET COUNT: 2 4 3 2 1 0 3 2 5 0 3 0 7 3 1 3 5 2 4 1470 3 4 3 3 4 6 1 3 1466 2 7 8 4 3 6 2 2930 5 11 2 3 4 4 1351 4936 2 4 3 7 3 3 2 3 1 0 3 6 3 3 3 1 4 2 3 1 267 88 2 3 5 988 1 1 4 2 6 465 762 2 3 2 3 2 4 3 8 2 6 3 3 9 551 3 5 3 0 4 3 1 3 3 2 3 3 3 3 1 2 4 2 2 1 3 9 2 7 3 6 4 1 4 4 2 0 1 3 2 1 10 20 928 2 3 1 7 3 2 1 3 3 4 7 3 3 0 924 2 6 4 4 3 75 3 5 3 0 5 6 929 2 5 9 929 6 5 2006 2 2 3948 1 1 3 6 20 1 1 8 3 1006 1 3 4 9 4 5 4 3 2 3 3 7 2 3 4 4 9 2 3 1 4 3 3 3 1 4 3 2 1473 2 1 2 9 6 3 3 2 3 5 3 0 1 1 3 3 3 2 5 43 0 3 1118 3 2 2 3 4 3 2 1 2 1 0 6 3 16 8 1 1 3 2 3 1 2 3 3 6 3 5 4 3 4 4 4 2 1467 16 6 1 4 2 3 2 2 3 6 3 2 1 4 4 4 927 5 2 5 1392 3 3 1 1 0 2004 1 6 1 1 5 3 1 2 3 3 1 2 4 3 3 2 1853 6 3 1 4 2 5 3 8 9 2 1 5 7 5 5 2 2 2 8 1 0 931 0 2 7 2008 4 929 5 8 0 5 0 1 929 929 3 1 5 4 3 3 8 4 3 5 4 2 0 4 1 2 5 2 4 8 5 1 1 3 6 2 2 3 6 6 4 3 3 3 4 24 3 2 7 4 5 11 2 4 1 7 10 4 2 4 1 1470 0 0 3 5 2 4 2 3 5 1467 4 1 1001 1 4 5 7 1003 2 219 3 1 85 1 1 3 5 4 3 8 0 2 4 1 1 2593 3 7 5 4 3 3 0 1 7 5 4 4 19 2 5 3 2 4 5 2 1 6 1 2 12 939 2 3 5 4 9 3 3 5 5 3 3 0 4 2935 468 5 1 4 6 1 2 3 1 2 464 0 7 3 0 8 2 4 1 4 6 0 13 3 4 3 1 4 15 1 4 1 2 2 2 2 3 3 2 2 7 5 1 2 5 5 930 3 1466 5 2 7 5 0 6 6 3 4 3 3 9 4 936 1 1 7 2 3 5 9 3 931 3 31 3 7 2782 6 17 5 6 1 8 5 1 2 4 13 2002 5 2 2 1 5 2 2 938 5 6 3 1859 2 2 3 3 1 6 4 12 1 0 2 0 0 2209 4 7 10 27 2 1 1002 4 7 2 3 1 4 3 5 6 3 3 5 4 2 2 5 3 6 2 2 1 1097 0 3 1 8 467 7 2 4 3 2 5 2 4 467 1468 3 8 5 3 2 3 2 2 1873 1 4 3 0 0 3 3 3 4 3 2 6 3 6 0 5 5 2 5 7647 2 12 7 9 3 2938 928 2 3 1096 4 6 3 5 944 3 3 9 2 3 2 6 928 5 4 12 1466 4 6 2 930 2 2 2 3 10 5 4 37 0 6 1 3 3 927 5 2 3 1 3 5 8 3 927 1 1479 2 0 3 2 0 1 1 1 1 1 923 2 3 2015 6 1002 4 3 8 5 3 2 2 1 3 2 4 2 1 468 2 8 927 2 5 1 5 3 2 2 6 6 1 3 3 2 5 4 6 29 4 4 2 5 21 0 117 4 6 7 4 3 3 3 7 0 2012 534 14 4 15 0 2 2 1190 25 1 4 7 822 2 3 3 5 5 6 928 1861 4 3 4 3 5 2 8 4 0 5 7 2 1 0 5 7 2 4 3 3 2 5 3 6 96 4 2 4 2 5 915 2 1 5 2 3 1 4 1467 1 11 2952 4 7 2 6 2 10 6 4 7 4 2 13 7 3 12 2 2 3021 1003 3 4 7 8 1 34 4 12 8 1 6 4 5 4 3 4 4 4 8 3 2 2 2 7 4 4 3 3 2 1 8 3 1 1 5 2 1 38 5 5 3 5 3 7 9 4 0 3 2 8 0 2 9 2 9 3 50 3 10 1 3 2 7 931 4 467 2649 1643 5 4 57 7 1 32 4 2 0 1006 5 6 6 238 4 2 6 0 6 8 3 3 11 8 6 2 2 468 4 8 3 8 20 4 6 4 2 8 0 267 20 1 1009 5 1 3 930 5 466 5 3 2 2 2 4 3 5 932 3 931 5 3 5 1830 3 6 1 2 7 2 2 6 5 4 3 2 1861 2 2468 266 1710 4 9 5 2 3 584 4 2119 9 2 929 3 2 2 3 3 84 7 2 4 2003 3 2 2 2 929 2 4 5 2 4 4 6 5 8 0 3 3 3 1466 268 2 7 3 2 3 1 1 1 3 1 3 3 3 5 1 12 8 3 2 1 2012 1 2 10 1 2 5 131 3 25 2 10 4 8 2 5 2 2 1 1 8 1 927 4 3 10 4 1 6 4 16 2 469 4 8 4 5 636 4 6 10 1 6 4 13 5 3 3 4 4 6 915 2 5 5 142 6 3 4 7 2 2 3 6 1 3 2 1 4 6 2 2 2472 4 3 8 4 3 6 1 532 3 3 4 4 1 3 12 3 8 4 4 3 8 2 4 506 3 1 3 4 8 2 10 5 930 3 934 10 1 1009 1 13 2 1 2 469 930 3 1 3 113 2 1 4 463 4 5 4 2 528 4 2 1392 2 5 5 6 0 8 3 2 2 12 1013 0 15 0 1 9 4 4 7 1 3 928 4 1 1 2 6 4858 4 4 1 4 4 6 6 1 5 3 3 6 25 2014 2 1472 5 5 2 1 4 6 7 3 2 2 3 3 4 4 5 3 0 4 2 2 6 82 6 3 3 6 1 2 5 2 4 1 3 2 6 1482 1003 5 3 3 4 7 2 5 6 5 4 3 1 22 3 2 5 3 2930 3 3 4 6 3 5 4 928 5 2317 933 1 2003 4 4 3 3 3 2 3 2 2 2 8 8 2 2 5 1 1 3 5 1005 34 1 8 5 2 4 3 3 4 3 2 0 3 2 3 2 4 5 929 4 2 1 3 6 1 4 2 4 3 3 6 1 1 4 5 1004 3 4 17 2 4 14 9 6 6 6 4 4 3 2 2 3 8 2 8 1 3 2 103 3 3 7 6 6 8 2649 3 2 4 5 1 2 4 1 8 2 929 4 0 27 2 5 1 2 3 4 5 3 1467 2 5 1265 4 2 552 1 0 3 4 1 3 1266 1 926 2 3 6 3 1 2 3 3 2 2 3324 2 8 11 6 3 3 10 2 2 5 0 2 927 2 1003 2 2 2 0 3 0 4 2 4 4 3 4 927 1 11 19 27 2 2323 1 4 3 2 2 5 933 137 2 20510 0 1 2 3 1 1 2 3 3 267 369 1 1 8 3 1 4 1 10 1 4 3 3 36 2 2 2 1 3 3 1 2 3 4 1 3 3 1 3 0 4081 1 3 3 0 5 423 5 3 4 4 3 5 0 33 1 1 1 3 2 0 2 3 2 4 17 1 1089 3 2 137 6 3 2 2 4 1 1 7 1007 2 3 0 3 2 3 2 3 4 5 11 11 0 1099 2 9 4 4 8 8 12 2 7 4841 3 0 930 1466 3 2 7 3 5 2 2 2 1007 3 2 2 3 1 4 4 4 5 3 2935 2784 1 4 4 3 3 6 4 3 5 2 930 8 2 6 3 1161 266 1 1466 14 4 108 7 3 3 3 5 4 2 10 4 1 3 1 3 6 1 3 2 6 3 6 468 3 4 3 8 1 2 4 40 2 1395 7 5 0 1 9 2 930 2 3 4 7 467 3 2 927 6 2 468 4 927 3 2466 6542 3 4 14643 934 3 1859 1466 3 2 927 5 2 2 4 5 3 2 3 3 4 5 2 135 11 0 2471 3 1468 208 4 3 4 4 5 3 608 1 5 2 4 6 2 2003 0 928 554 0 2350 2 4 5 1 9 3 2 0 4 2 6 5 3 6 2 2 2 1 3 4 6 1 4 403 0 3 2 8 5 2003 1 7 1009 3 5 3 1246 3 4 1 4 3 0 2 3 1464 1 2539 2 0 4 2 4 3 7 4 6 3 438 11 1 5 3 5 225 929 66 2 3 2 1103 1 443 0 3 2933 5 7 3 5 2 0 2 549 0 4 0 3 6 8 2 3 2029 356 4 7 1003 1 4 6 4 2 4 2 30 5 927 3 4 1 460 3 8 2 3 4 2 29 0 2 2 5 1 8 1 4082 4 2 3 3 5 2 3 15 4 2 2 929 5 5 3 5 3 3 5 2 1 3 3 1 0 1 3 2 4 7 5 2 2 3 6 1 1 4 3 2 2 11 7 2 1565 11 295 2 9 1 2 13 3 3 5 3 9 0 1 2 6 928 2 7 3 2 6 2 4 22 2 2 0 2004 2 0 3 3 0 5 2930 13 3 3 3 906 4 0 3 2 6 2 4 1 4 1 3993 3 1 3 3 480 13 934 3 3 5206 0 1 4 2 5 3 1 0 2 2 2931 12 6 1 0 3 4 6 1 1 1 4 6 2 2 8 4 3 5 5 5 1 21 13 9 1 1 2 2 2 5 5 1 3 2 3 2 3 1 5 3 357 3 4 2 1 3 1491 4 6 0 
To predecode: 0
Predecoding something: 0
Predecode request dropped: 0
sizeofblock_0 0
sizeofblock_1 110061
sizeofblock_2 81477
sizeofblock_3 58775
sizeofblock_4 9580
sizeofblock_5 0
sizeofblock_6 0
sizeofblock_7 0
sizeofblock_8 0
