
*** ChampSim Multicore Out-of-Order Simulator ***

Warmup Instructions: 50000000
Simulation Instructions: 50000000
Number of CPUs: 1
LLC sets: 2048
LLC ways: 16
Off-chip DRAM Size: 4096 MB Channels: 1 Width: 64-bit Data Rate: 6400 MT/s
CPU 0 runs ./micro_traces/srv149.trace.gz
.gz
ITLB has LRU replacement policy
DTLB has LRU replacement policy
STLB has LRU replacement policy
FDIP Prefetcher at L1I
L1I has LRU replacement policy
L1D has LRU replacement policy
Initialize SRRIP state for L2C
Initialize DRRIP state for LLC
Heartbeat_Variant_0 : 1285 0.15686 per_variant_size: 0 1285 0 0 0 0 0 0 0 
Heartbeat_Variant_1 : 2723 0.332397 per_variant_size: 0 1022 1701 0 0 0 0 0 0 
Heartbeat_Variant_2 : 0 0 per_variant_size: 0 0 0 0 0 0 0 0 0 
Heartbeat_Variant_3 : 0 0 per_variant_size: 0 0 0 0 0 0 0 0 0 
Heartbeat_Variant_0_evicts 0 : 7688 1 : 1663 2 : 0 3 : 0 
Heartbeat_Variant_1_evicts 0 : 1678 1 : 0 2 : 0 3 : 0 
Heartbeat_Variant_2_evicts 0 : 0 1 : 0 2 : 0 3 : 0 
Heartbeat_Variant_3_evicts 0 : 0 1 : 0 2 : 0 3 : 0 
Heartbeat CPU 0 instructions: 10000001 cycles: 2794003 heartbeat IPC: 3.57909 cumulative IPC: 3.57909 (Simulation time: 0 hr 1 min 57 sec) 
Heartbeat_Variant_0 : 1393 0.170044 per_variant_size: 0 1393 0 0 0 0 0 0 0 
Heartbeat_Variant_1 : 2983 0.364136 per_variant_size: 0 1025 1958 0 0 0 0 0 0 
Heartbeat_Variant_2 : 0 0 per_variant_size: 0 0 0 0 0 0 0 0 0 
Heartbeat_Variant_3 : 0 0 per_variant_size: 0 0 0 0 0 0 0 0 0 
Heartbeat_Variant_0_evicts 0 : 7750 1 : 1697 2 : 0 3 : 0 
Heartbeat_Variant_1_evicts 0 : 1694 1 : 0 2 : 0 3 : 0 
Heartbeat_Variant_2_evicts 0 : 0 1 : 0 2 : 0 3 : 0 
Heartbeat_Variant_3_evicts 0 : 0 1 : 0 2 : 0 3 : 0 
Heartbeat CPU 0 instructions: 20000000 cycles: 5588351 heartbeat IPC: 3.57865 cumulative IPC: 3.57887 (Simulation time: 0 hr 4 min 3 sec) 
Heartbeat_Variant_0 : 1393 0.170044 per_variant_size: 0 1393 0 0 0 0 0 0 0 
Heartbeat_Variant_1 : 2987 0.364624 per_variant_size: 0 1020 1967 0 0 0 0 0 0 
Heartbeat_Variant_2 : 0 0 per_variant_size: 0 0 0 0 0 0 0 0 0 
Heartbeat_Variant_3 : 0 0 per_variant_size: 0 0 0 0 0 0 0 0 0 
Heartbeat_Variant_0_evicts 0 : 7833 1 : 1654 2 : 0 3 : 0 
Heartbeat_Variant_1_evicts 0 : 1654 1 : 0 2 : 0 3 : 0 
Heartbeat_Variant_2_evicts 0 : 0 1 : 0 2 : 0 3 : 0 
Heartbeat_Variant_3_evicts 0 : 0 1 : 0 2 : 0 3 : 0 
Heartbeat CPU 0 instructions: 30000003 cycles: 8382882 heartbeat IPC: 3.57842 cumulative IPC: 3.57872 (Simulation time: 0 hr 6 min 10 sec) 
Heartbeat_Variant_0 : 1402 0.171143 per_variant_size: 0 1402 0 0 0 0 0 0 0 
Heartbeat_Variant_1 : 3014 0.36792 per_variant_size: 0 1023 1991 0 0 0 0 0 0 
Heartbeat_Variant_2 : 0 0 per_variant_size: 0 0 0 0 0 0 0 0 0 
Heartbeat_Variant_3 : 0 0 per_variant_size: 0 0 0 0 0 0 0 0 0 
Heartbeat_Variant_0_evicts 0 : 7975 1 : 1648 2 : 0 3 : 0 
Heartbeat_Variant_1_evicts 0 : 1643 1 : 0 2 : 0 3 : 0 
Heartbeat_Variant_2_evicts 0 : 0 1 : 0 2 : 0 3 : 0 
Heartbeat_Variant_3_evicts 0 : 0 1 : 0 2 : 0 3 : 0 
Heartbeat CPU 0 instructions: 40000002 cycles: 11178072 heartbeat IPC: 3.57757 cumulative IPC: 3.57843 (Simulation time: 0 hr 8 min 21 sec) 
*** Reached end of trace for Core: 0 Repeating trace: ./micro_traces/srv149.trace.gz
Heartbeat_Variant_0 : 1409 0.171997 per_variant_size: 0 1409 0 0 0 0 0 0 0 
Heartbeat_Variant_1 : 3029 0.369751 per_variant_size: 0 1019 2010 0 0 0 0 0 0 
Heartbeat_Variant_2 : 0 0 per_variant_size: 0 0 0 0 0 0 0 0 0 
Heartbeat_Variant_3 : 0 0 per_variant_size: 0 0 0 0 0 0 0 0 0 
Heartbeat_Variant_0_evicts 0 : 7771 1 : 1563 2 : 0 3 : 0 
Heartbeat_Variant_1_evicts 0 : 1564 1 : 0 2 : 0 3 : 0 
Heartbeat_Variant_2_evicts 0 : 0 1 : 0 2 : 0 3 : 0 
Heartbeat_Variant_3_evicts 0 : 0 1 : 0 2 : 0 3 : 0 
Heartbeat CPU 0 instructions: 50000000 cycles: 13972843 heartbeat IPC: 3.57811 cumulative IPC: 3.57837 (Simulation time: 0 hr 10 min 33 sec) 

Warmup complete CPU 0 instructions: 50000004 cycles: 13972844 (Simulation time: 0 hr 10 min 33 sec) 

Cycle: 20000000 FTQ IN: 58099418 FTQ occupancy: 19.6484 DECODE IN: 58099396 DECODE occupancy: 51.1344 ROB IN: 58099378 ROB occupancy: 310.087 ROB OUT: 58099119
Heartbeat_Variant_0 : 1408 0.171875 per_variant_size: 0 1408 0 0 0 0 0 0 0 
Heartbeat_Variant_1 : 3030 0.369873 per_variant_size: 0 1041 1989 0 0 0 0 0 0 
Heartbeat_Variant_2 : 0 0 per_variant_size: 0 0 0 0 0 0 0 0 0 
Heartbeat_Variant_3 : 0 0 per_variant_size: 0 0 0 0 0 0 0 0 0 
Heartbeat_Variant_0_evicts 0 : 7939 1 : 1641 2 : 0 3 : 0 
Heartbeat_Variant_1_evicts 0 : 1642 1 : 0 2 : 0 3 : 0 
Heartbeat_Variant_2_evicts 0 : 0 1 : 0 2 : 0 3 : 0 
Heartbeat_Variant_3_evicts 0 : 0 1 : 0 2 : 0 3 : 0 
Heartbeat CPU 0 instructions: 60000003 cycles: 21410111 heartbeat IPC: 1.34458 cumulative IPC: 1.34458 (Simulation time: 0 hr 12 min 48 sec) 
Heartbeat_Variant_0 : 1410 0.172119 per_variant_size: 0 1410 0 0 0 0 0 0 0 
Heartbeat_Variant_1 : 3028 0.369629 per_variant_size: 0 1038 1990 0 0 0 0 0 0 
Heartbeat_Variant_2 : 0 0 per_variant_size: 0 0 0 0 0 0 0 0 0 
Heartbeat_Variant_3 : 0 0 per_variant_size: 0 0 0 0 0 0 0 0 0 
Heartbeat_Variant_0_evicts 0 : 7947 1 : 1654 2 : 0 3 : 0 
Heartbeat_Variant_1_evicts 0 : 1652 1 : 0 2 : 0 3 : 0 
Heartbeat_Variant_2_evicts 0 : 0 1 : 0 2 : 0 3 : 0 
Heartbeat_Variant_3_evicts 0 : 0 1 : 0 2 : 0 3 : 0 
Heartbeat CPU 0 instructions: 70000001 cycles: 28761139 heartbeat IPC: 1.36035 cumulative IPC: 1.35242 (Simulation time: 0 hr 15 min 3 sec) 
Cycle: 30000000 FTQ IN: 13602748 FTQ occupancy: 11.634 DECODE IN: 13602726 DECODE occupancy: 30.1819 ROB IN: 13602729 ROB occupancy: 220.797 ROB OUT: 13602657
Heartbeat_Variant_0 : 1407 0.171753 per_variant_size: 0 1407 0 0 0 0 0 0 0 
Heartbeat_Variant_1 : 3031 0.369995 per_variant_size: 0 1035 1996 0 0 0 0 0 0 
Heartbeat_Variant_2 : 0 0 per_variant_size: 0 0 0 0 0 0 0 0 0 
Heartbeat_Variant_3 : 0 0 per_variant_size: 0 0 0 0 0 0 0 0 0 
Heartbeat_Variant_0_evicts 0 : 8004 1 : 1627 2 : 0 3 : 0 
Heartbeat_Variant_1_evicts 0 : 1630 1 : 0 2 : 0 3 : 0 
Heartbeat_Variant_2_evicts 0 : 0 1 : 0 2 : 0 3 : 0 
Heartbeat_Variant_3_evicts 0 : 0 1 : 0 2 : 0 3 : 0 
Heartbeat CPU 0 instructions: 80000000 cycles: 36125431 heartbeat IPC: 1.3579 cumulative IPC: 1.35424 (Simulation time: 0 hr 17 min 24 sec) 
Cycle: 40000000 FTQ IN: 13600291 FTQ occupancy: 11.8832 DECODE IN: 13600335 DECODE occupancy: 30.4755 ROB IN: 13600350 ROB occupancy: 220.952 ROB OUT: 13600565
Heartbeat_Variant_0 : 1408 0.171875 per_variant_size: 0 1408 0 0 0 0 0 0 0 
Heartbeat_Variant_1 : 3030 0.369873 per_variant_size: 0 1038 1992 0 0 0 0 0 0 
Heartbeat_Variant_2 : 0 0 per_variant_size: 0 0 0 0 0 0 0 0 0 
Heartbeat_Variant_3 : 0 0 per_variant_size: 0 0 0 0 0 0 0 0 0 
Heartbeat_Variant_0_evicts 0 : 7979 1 : 1628 2 : 0 3 : 0 
Heartbeat_Variant_1_evicts 0 : 1627 1 : 0 2 : 0 3 : 0 
Heartbeat_Variant_2_evicts 0 : 0 1 : 0 2 : 0 3 : 0 
Heartbeat_Variant_3_evicts 0 : 0 1 : 0 2 : 0 3 : 0 
Heartbeat CPU 0 instructions: 90000002 cycles: 43451443 heartbeat IPC: 1.365 cumulative IPC: 1.35692 (Simulation time: 0 hr 19 min 47 sec) 
*** Reached end of trace for Core: 0 Repeating trace: ./micro_traces/srv149.trace.gz
Cycle: 50000000 FTQ IN: 13666443 FTQ occupancy: 11.76 DECODE IN: 13666383 DECODE occupancy: 30.4489 ROB IN: 13666323 ROB occupancy: 221.831 ROB OUT: 13666091
Heartbeat_Variant_0 : 1410 0.172119 per_variant_size: 0 1410 0 0 0 0 0 0 0 
Heartbeat_Variant_1 : 3028 0.369629 per_variant_size: 0 1029 1999 0 0 0 0 0 0 
Heartbeat_Variant_2 : 0 0 per_variant_size: 0 0 0 0 0 0 0 0 0 
Heartbeat_Variant_3 : 0 0 per_variant_size: 0 0 0 0 0 0 0 0 0 
Heartbeat_Variant_0_evicts 0 : 7814 1 : 1540 2 : 0 3 : 0 
Heartbeat_Variant_1_evicts 0 : 1538 1 : 0 2 : 0 3 : 0 
Heartbeat_Variant_2_evicts 0 : 0 1 : 0 2 : 0 3 : 0 
Heartbeat_Variant_3_evicts 0 : 0 1 : 0 2 : 0 3 : 0 
Heartbeat CPU 0 instructions: 100000000 cycles: 50756437 heartbeat IPC: 1.36893 cumulative IPC: 1.3593 (Simulation time: 0 hr 22 min 9 sec) 
Finished CPU 0 instructions: 50000000 cycles: 36783594 cumulative IPC: 1.3593 (Simulation time: 0 hr 22 min 9 sec) 

ChampSim completed all CPUs

Region of Interest Statistics

CPU 0 cumulative IPC: 1.3593 instructions: 50000000 cycles: 36783594
 Fetch stage stalled: 57.1565  Sim cycles: 36783594 fetch stall cycle: 21024213
 Empty decode stage: 39.9575  Sim cycles: 36783594 fetch stall cycle: 14697805
ITLB TOTAL     ACCESS:    5816434  HIT:    5324135  MISS:     492299  HIT %:    91.5361  MISS %:    8.46393   MPKI: 9.84598
ITLB LOAD TRANSLATION INSTRUCTION	ACCESS:    5697195  HIT:    5204896  MISS:     492299  HIT %:    91.3589  MISS %:    8.64108  MPKI: 9.84598
ITLB TRANSLATION FROM L1D PREFETCHER INSTRUCTION	ACCESS:     119239  HIT:     119239  MISS:          0  HIT %:        100  MISS %:          0  MPKI: 0

ITLB AVERAGE MISS LATENCY: 9.05984 cycles
ITLB RQ	ACCESS:    7916306	FORWARD:          0	MERGED:    1654488	TO_CACHE:    6261818

DTLB TOTAL     ACCESS:    8951836  HIT:    8475782  MISS:     476054  HIT %:    94.6821  MISS %:    5.31795   MPKI: 9.52108
DTLB LOAD TRANSLATION DATA	ACCESS:    8951836  HIT:    8475782  MISS:     476054  HIT %:    94.6821  MISS %:    5.31795  MPKI: 9.52108

DTLB AVERAGE MISS LATENCY: 9.28484 cycles
DTLB RQ	ACCESS:   13308247	FORWARD:          0	MERGED:    4320534	TO_CACHE:    8987713

STLB TOTAL     ACCESS:    1225177  HIT:    1222845  MISS:       2332  HIT %:    99.8097  MISS %:    0.19034   MPKI: 0.04664
STLB LOAD TRANSLATION INSTRUCTION	ACCESS:     492299  HIT:     491962  MISS:        337  HIT %:    99.9315  MISS %:  0.0684543  MPKI: 0.00674
STLB LOAD TRANSLATION DATA	ACCESS:     476054  HIT:     474099  MISS:       1955  HIT %:    99.5893  MISS %:   0.410668  MPKI: 0.0391
STLB TRANSLATION FROM L1D PREFETCHER DATA	ACCESS:     256824  HIT:     256784  MISS:         40  HIT %:    99.9844  MISS %:  0.0155749  MPKI: 0.0008

STLB AVERAGE MISS LATENCY: 59.3422 cycles
STLB RQ	ACCESS:    1381563	FORWARD:          0	MERGED:     156354	TO_CACHE:    1225209

STLB Hit, L1D data hit: 0
STLB Hit, L2C data hit: 0
STLB Hit, LLC data hit: 0
STLB Hit, LLC data miss: 0
STLB STLB hints to L2: 0
L1D TOTAL     ACCESS:   13060526  HIT:   11864108  MISS:    1196418  HIT %:    90.8394  MISS %:    9.16057   MPKI: 23.9284
L1D LOAD DATA	ACCESS:    6565267  HIT:    5776493  MISS:     788774  HIT %:    87.9857  MISS %:    12.0143  MPKI: 15.7755
L1D RFO DATA	ACCESS:    6156246  HIT:    5860455  MISS:     295791  HIT %:    95.1953  MISS %:    4.80473  MPKI: 5.91582
L1D PREFETCH DATA	ACCESS:     339013  HIT:     227160  MISS:     111853  HIT %:    67.0063  MISS %:    32.9937  MPKI: 2.23706

L1D PREFETCH  REQUESTED:     826811  ISSUED:     826811  USEFUL:      54943  USELESS:      72493
L1D USEFUL LOAD PREFETCHES:      54943 PREFETCH ISSUED TO LOWER LEVEL:     127513  ACCURACY: 43.0882
 TIMELY PREFETCHES:      54943 LATE PREFETCHES: 15586 DROPPED PREFETCHES: 2
L1D AVERAGE MISS LATENCY: 414528 cycles
L1D RQ	ACCESS:   10668168	FORWARD:          0	MERGED:    3903568	TO_CACHE:    6601065
L1D WQ	ACCESS:    6899288	FORWARD:     163926	MERGED:     192106	TO_CACHE:    6707182
L1D PQ	ACCESS:     413601	FORWARD:          0	MERGED:          0	TO_CACHE:     413210

L1D UNIQUE REGIONS ACCESSED: 0
L1D REGIONS CONFLICTS: 0
L1D Cross Page Prefetch Requests: 7904
L1D Same Page Prefetch Requests: 832101
L1D ROI Sum of L1D PQ occupancy: 5233268
L1D PREFETCHES PUSHED FROM L2C: 0
L1I TOTAL     ACCESS:    7123482  HIT:    4366392  MISS:    2757090  HIT %:    61.2958  MISS %:    38.7042   MPKI: 55.1418
L1I LOAD INSTRUCTION	ACCESS:    6473239  HIT:    3716149  MISS:    2757090  HIT %:    57.4079  MISS %:    42.5921  MPKI: 55.1418
L1I PREFETCH INSTRUCTION	ACCESS:     650243  HIT:     650243  MISS:          0  HIT %:        100  MISS %:          0  MPKI: 0

L1I PREFETCH  REQUESTED:    1558884  ISSUED:    1558884  USEFUL:          0  USELESS:          0
L1I USEFUL LOAD PREFETCHES:          0 PREFETCH ISSUED TO LOWER LEVEL:          0  ACCURACY: -nan
 TIMELY PREFETCHES:          0 LATE PREFETCHES: 0 DROPPED PREFETCHES: 0
L1I AVERAGE MISS LATENCY: 17.0507 cycles
L1I RQ	ACCESS:    9503670	FORWARD:          0	MERGED:    2712823	TO_CACHE:    6790847
L1I PQ	ACCESS:    1558884	FORWARD:          0	MERGED:     433425	TO_CACHE:    1125459

L1BTB TOTAL     ACCESS:    5687273  HIT:    2073062  MISS:    3614211  HIT %:    36.4509  MISS %:    63.5491   MPKI: 72.2842
L1BTB BRANCH_DIRECT_JUMP	ACCESS:     541789 HIT:     141969 MISS:     399820 AVERAGE STALL: 46.2947 AVERAGE FETCH STALL: 16.6636 AVERAGE FETCH QUEUE STALL: 15.0301 AVERAGE DECODE STALL: 13.7451 AVERAGE EXECUTE STALL: 1.70362e+15
L1BTB BRANCH_INDIRECT	ACCESS:     180368 HIT:      64654 MISS:     115714 AVERAGE STALL: 103.561 AVERAGE FETCH STALL: 11.2356 AVERAGE FETCH QUEUE STALL: 12.4864 AVERAGE DECODE STALL: 11.7306 AVERAGE EXECUTE STALL: 67.1434
L1BTB BRANCH_CONDITIONAL	ACCESS:    2738382 HIT:    1452539 MISS:    1285843 AVERAGE STALL: 47.6952 AVERAGE FETCH STALL: 20.5907 AVERAGE FETCH QUEUE STALL: 14.9858 AVERAGE DECODE STALL: 11.4119 AVERAGE EXECUTE STALL: 1.41865e+15
L1BTB BRANCH_DIRECT_CALL	ACCESS:     942516 HIT:     103587 MISS:     838929 AVERAGE STALL: 56.5681 AVERAGE FETCH STALL: 20.32 AVERAGE FETCH QUEUE STALL: 19.6921 AVERAGE DECODE STALL: 15.8271 AVERAGE EXECUTE STALL: 9.30479e+14
L1BTB BRANCH_INDIRECT_CALL	ACCESS:     170854 HIT:      21207 MISS:     149647 AVERAGE STALL: 132.539 AVERAGE FETCH STALL: 13.4924 AVERAGE FETCH QUEUE STALL: 11.3117 AVERAGE DECODE STALL: 9.65137 AVERAGE EXECUTE STALL: 97.5783
L1BTB BRANCH_RETURN	ACCESS:    1113364 HIT:     289106 MISS:     824258 AVERAGE STALL: 48.1467 AVERAGE FETCH STALL: 17.3754 AVERAGE FETCH QUEUE STALL: 6.47419 AVERAGE DECODE STALL: 7.14752 AVERAGE EXECUTE STALL: 4.04215e+14
L1BTB BRANCH_OTHER ACCESS:          0 HIT:          0 MISS:          0 AVERAGE STALL: -nan AVERAGE FETCH STALL: -nan AVERAGE FETCH QUEUE STALL: -nan AVERAGE DECODE STALL: -nan AVERAGE EXECUTE STALL: -nan
L1BTB TOTAL ROB OCCUPANCY AT BTB MISS: 4.12817

L2BTB TOTAL     ACCESS:    3589353  HIT:    3490400  MISS:      98953  HIT %:    97.2432  MISS %:    2.75685   MPKI: 1.97906
L2BTB BRANCH_DIRECT_JUMP	ACCESS:     395784 HIT:     388990 MISS:       6794 AVERAGE STALL: 46.2947 AVERAGE FETCH STALL: 16.6636 AVERAGE FETCH QUEUE STALL: 15.0301 AVERAGE DECODE STALL: 13.7451 AVERAGE EXECUTE STALL: 1.70362e+15
L2BTB BRANCH_INDIRECT	ACCESS:     105482 HIT:     102469 MISS:       3013 AVERAGE STALL: 103.561 AVERAGE FETCH STALL: 11.2356 AVERAGE FETCH QUEUE STALL: 12.4864 AVERAGE DECODE STALL: 11.7306 AVERAGE EXECUTE STALL: 67.1434
L2BTB BRANCH_CONDITIONAL	ACCESS:    1285843 HIT:    1272815 MISS:      13028 AVERAGE STALL: 47.6952 AVERAGE FETCH STALL: 20.5907 AVERAGE FETCH QUEUE STALL: 14.9858 AVERAGE DECODE STALL: 11.4119 AVERAGE EXECUTE STALL: 1.41865e+15
L2BTB BRANCH_DIRECT_CALL	ACCESS:     838929 HIT:     819094 MISS:      19835 AVERAGE STALL: 56.5681 AVERAGE FETCH STALL: 20.32 AVERAGE FETCH QUEUE STALL: 19.6921 AVERAGE DECODE STALL: 15.8271 AVERAGE EXECUTE STALL: 9.30479e+14
L2BTB BRANCH_INDIRECT_CALL	ACCESS:     140289 HIT:     128418 MISS:      11871 AVERAGE STALL: 132.539 AVERAGE FETCH STALL: 13.4924 AVERAGE FETCH QUEUE STALL: 11.3117 AVERAGE DECODE STALL: 9.65137 AVERAGE EXECUTE STALL: 97.5783
L2BTB BRANCH_RETURN	ACCESS:     823026 HIT:     778614 MISS:      44412 AVERAGE STALL: 48.1467 AVERAGE FETCH STALL: 17.3754 AVERAGE FETCH QUEUE STALL: 6.47419 AVERAGE DECODE STALL: 7.14752 AVERAGE EXECUTE STALL: 4.04215e+14
L2BTB BRANCH_OTHER ACCESS:          0 HIT:          0 MISS:          0 AVERAGE STALL: -nan AVERAGE FETCH STALL: -nan AVERAGE FETCH QUEUE STALL: -nan AVERAGE DECODE STALL: -nan AVERAGE EXECUTE STALL: -nan
L2BTB TOTAL ROB OCCUPANCY AT BTB MISS: 150.78

L2C TOTAL     ACCESS:    4583112  HIT:    4103055  MISS:     480057  HIT %:    89.5255  MISS %:    10.4745   MPKI: 9.60114
L2C LOAD INSTRUCTION	ACCESS:    2757090  HIT:    2510052  MISS:     247038  HIT %:    91.0399  MISS %:     8.9601  MPKI: 4.94076
L2C LOAD TRANSLATION INSTRUCTION	ACCESS:        387  HIT:        101  MISS:        286  HIT %:    26.0982  MISS %:    73.9018  MPKI: 0.00572
L2C LOAD DATA	ACCESS:     773167  HIT:     691199  MISS:      81968  HIT %:    89.3984  MISS %:    10.6016  MPKI: 1.63936
L2C RFO DATA	ACCESS:     295686  HIT:     239040  MISS:      56646  HIT %:    80.8425  MISS %:    19.1575  MPKI: 1.13292
L2C PREFETCH DATA	ACCESS:     215416  HIT:     136084  MISS:      79332  HIT %:    63.1727  MISS %:    36.8273  MPKI: 1.58664
L2C WRITEBACK DATA	ACCESS:     539240  HIT:     525995  MISS:      13245  HIT %:    97.5438  MISS %:    2.45623  MPKI: 0.2649
L2C LOAD TRANSLATION DATA	ACCESS:       2077  HIT:        545  MISS:       1532  HIT %:    26.2398  MISS %:    73.7602  MPKI: 0.03064
L2C TRANSLATION FROM L1D PREFETCHER DATA	ACCESS:         49  HIT:         39  MISS:         10  HIT %:    79.5918  MISS %:    20.4082  MPKI: 0.0002

L2C PREFETCH  REQUESTED:      95677  ISSUED:      95677  USEFUL:       9087  USELESS:      70790
L2C USEFUL LOAD PREFETCHES:       9087 PREFETCH ISSUED TO LOWER LEVEL:      79716  ACCURACY: 11.3992
 TIMELY PREFETCHES:       9087 LATE PREFETCHES: 384 DROPPED PREFETCHES: 0
L2C AVERAGE MISS LATENCY: 39.2558 cycles
L2C RQ	ACCESS:    3828508	FORWARD:          0	MERGED:          0	TO_CACHE:    3828456
L2C WQ	ACCESS:     539240	FORWARD:         53	MERGED:          0	TO_CACHE:     539240
L2C PQ	ACCESS:     223190	FORWARD:          0	MERGED:       3805	TO_CACHE:     219384

L2C Dense regions hint from L2: 0
PSCL5 TOTAL     ACCESS:       4668  HIT:       2334  MISS:       2334  HIT %:         50  MISS %:         50   MPKI: 0.04668
PSCL5 LOAD TRANSLATION INSTRUCTION	ACCESS:       4570  HIT:       2285  MISS:       2285  HIT %:         50  MISS %:         50  MPKI: 0.0457
PSCL5 TRANSLATION FROM L1D PREFETCHER INSTRUCTION	ACCESS:         98  HIT:         49  MISS:         49  HIT %:         50  MISS %:         50  MPKI: 0.00098


PSCL4 TOTAL     ACCESS:       4372  HIT:       2182  MISS:       2190  HIT %:    49.9085  MISS %:    50.0915   MPKI: 0.0438
PSCL4 LOAD TRANSLATION INSTRUCTION	ACCESS:       3285  HIT:       2151  MISS:       1134  HIT %:    65.4795  MISS %:    34.5205  MPKI: 0.02268
PSCL4 TRANSLATION FROM L1D PREFETCHER INSTRUCTION	ACCESS:         49  HIT:         31  MISS:         18  HIT %:    63.2653  MISS %:    36.7347  MPKI: 0.00036
PSCL4 LOAD TRANSLATION DATA	ACCESS:       1025  HIT:          0  MISS:       1025  HIT %:          0  MISS %:        100  MPKI: 0.0205
PSCL4 TRANSLATION FROM L1D PREFETCHER DATA	ACCESS:         13  HIT:          0  MISS:         13  HIT %:          0  MISS %:        100  MPKI: 0.00026


PSCL3 TOTAL     ACCESS:       4230  HIT:       2106  MISS:       2124  HIT %:    49.7872  MISS %:    50.2128   MPKI: 0.04248
PSCL3 LOAD TRANSLATION INSTRUCTION	ACCESS:       2528  HIT:       2075  MISS:        453  HIT %:    82.0807  MISS %:    17.9193  MPKI: 0.00906
PSCL3 TRANSLATION FROM L1D PREFETCHER INSTRUCTION	ACCESS:         36  HIT:         31  MISS:          5  HIT %:    86.1111  MISS %:    13.8889  MPKI: 0.0001
PSCL3 LOAD TRANSLATION DATA	ACCESS:       1640  HIT:          0  MISS:       1640  HIT %:          0  MISS %:        100  MPKI: 0.0328
PSCL3 TRANSLATION FROM L1D PREFETCHER DATA	ACCESS:         26  HIT:          0  MISS:         26  HIT %:          0  MISS %:        100  MPKI: 0.00052


PSCL2 TOTAL     ACCESS:       4515  HIT:       2181  MISS:       2334  HIT %:    48.3056  MISS %:    51.6944   MPKI: 0.04668
PSCL2 LOAD TRANSLATION INSTRUCTION	ACCESS:       2468  HIT:       2132  MISS:        336  HIT %:    86.3857  MISS %:    13.6143  MPKI: 0.00672
PSCL2 TRANSLATION FROM L1D PREFETCHER INSTRUCTION	ACCESS:         49  HIT:         49  MISS:          0  HIT %:        100  MISS %:          0  MPKI: 0
PSCL2 LOAD TRANSLATION DATA	ACCESS:       1949  HIT:          0  MISS:       1949  HIT %:          0  MISS %:        100  MPKI: 0.03898
PSCL2 TRANSLATION FROM L1D PREFETCHER DATA	ACCESS:         49  HIT:          0  MISS:         49  HIT %:          0  MISS %:        100  MPKI: 0.00098


LLC TOTAL     ACCESS:     547583  HIT:     522695  MISS:      24888  HIT %:    95.4549  MISS %:    4.54506   MPKI: 0.49776
LLC LOAD INSTRUCTION	ACCESS:     247038  HIT:     246276  MISS:        762  HIT %:    99.6915  MISS %:   0.308455  MPKI: 0.01524
LLC LOAD TRANSLATION INSTRUCTION	ACCESS:        286  HIT:        266  MISS:         20  HIT %:     93.007  MISS %:    6.99301  MPKI: 0.0004
LLC LOAD DATA	ACCESS:      81591  HIT:      78634  MISS:       2957  HIT %:    96.3758  MISS %:    3.62417  MPKI: 0.05914
LLC RFO DATA	ACCESS:      56636  HIT:      44657  MISS:      11979  HIT %:    78.8491  MISS %:    21.1509  MPKI: 0.23958
LLC PREFETCH DATA	ACCESS:      79716  HIT:      70785  MISS:       8931  HIT %:    88.7965  MISS %:    11.2035  MPKI: 0.17862
LLC WRITEBACK DATA	ACCESS:      80774  HIT:      80609  MISS:        165  HIT %:    99.7957  MISS %:   0.204274  MPKI: 0.0033
LLC LOAD TRANSLATION DATA	ACCESS:       1532  HIT:       1458  MISS:         74  HIT %:    95.1697  MISS %:    4.83029  MPKI: 0.00148
LLC TRANSLATION FROM L1D PREFETCHER DATA	ACCESS:         10  HIT:         10  MISS:          0  HIT %:        100  MISS %:          0  MPKI: 0

LLC AVERAGE MISS LATENCY: 194.821 cycles
LLC RQ	ACCESS:     387096	FORWARD:          0	MERGED:          0	TO_CACHE:     387093
LLC WQ	ACCESS:      80774	FORWARD:          3	MERGED:          0	TO_CACHE:      80774
LLC PQ	ACCESS:      79716	FORWARD:          0	MERGED:          0	TO_CACHE:      79716

LLC Dense regions hint to LLC: 0

RAW hits: 1919600
Loads Generated: 12587770
Loads sent to L1D: 10668168
Stores Generated: 6899276
Stores sent to L1D: 6899288
Major fault: 0 Minor fault: 2244
Allocated PAGES: 2244

stream: 
stream:times selected: 1255753
stream:pref_filled: 131616
stream:pref_useful: 31221
stream:pref_late: 10727
stream:misses: 10826
stream:misses_by_poll: 0

CS: 
CS:times selected: 199092
CS:pref_filled: 80376
CS:pref_useful: 56540
CS:pref_late: 9595
CS:misses: 26229
CS:misses_by_poll: 4

CPLX: 
CPLX:times selected: 1055565
CPLX:pref_filled: 28547
CPLX:pref_useful: 9490
CPLX:pref_late: 5042
CPLX:misses: 147916
CPLX:misses_by_poll: 3

NL_L1: 
NL:times selected: 21642
NL:pref_filled: 1021
NL:pref_useful: 647
NL:pref_late: 709
NL:misses: 2976
NL:misses_by_poll: 0

total selections: 2532052
total_filled: 111853
total_useful: 54943
total_late: 28916
total_polluted: 7
total_misses_after_warmup: 824572
conflicts: 5503331

test: 122917

DRAM Statistics
 CHANNEL 0
 RQ ROW_BUFFER_HIT:       9199  ROW_BUFFER_MISS:      15511
 DBUS_CONGESTED:          6
 WQ ROW_BUFFER_HIT:       1705  ROW_BUFFER_MISS:      11149  FULL:          0

 AVG_CONGESTED_CYCLE: 5

CPU 0 Branch Prediction Accuracy: 99.8274% MPKI: 0.31662 Average ROB Occupancy at Mispredict: 195.223
Branch types
NOT_BRANCH: 40827532 81.6551%
BRANCH_DIRECT_JUMP: 541789 1.08358%
BRANCH_INDIRECT: 180368 0.360736%
BRANCH_CONDITIONAL: 6223451 12.4469%
BRANCH_DIRECT_CALL: 942516 1.88503%
BRANCH_INDIRECT_CALL: 170854 0.341708%
BRANCH_RETURN: 1113364 2.22673%
BRANCH_OTHER: 0 0%

DRAM PAGES: 1048576
Allocated PAGES: 2244
Average_ROB_Occupancy: 222.59
Average_Decode_Occupancy: 30.4069
Average_FTQ_Occupancy: 11.7835
Indirect max targets: 14 Average targets: 1.14865
Branch_type:  BRANCH_DIRECT_JUMP:  Count Percentage: 2.86204 6.18563 4.88073 8.11617 1.86457 2.74081 0.815904 72.5342 
Branch_type:  BRANCH_INDIRECT:  Count Percentage: 11.7684 3.32375 2.44112 9.68703 3.36066 4.02403 2.03227 63.3627 
Branch_type:  BRANCH_CONDITIONAL:  Count Percentage: 22.401 5.52967 2.24576 4.83256 5.88061 2.72985 0.636041 55.7445 
Branch_type:  BRANCH_DIRECT_CALL:  Count Percentage: 0.778294 1.30272 1.38008 4.2185 2.57512 2.05472 0.684129 87.0064 
Branch_type:  BRANCH_INDIRECT_CALL:  Count Percentage: 9.55813 0.541959 2.99701 4.82498 1.25531 2.97536 0.99208 76.8552 
Branch_type:  BRANCH_RETURN:  Count Percentage: 4.26032 3.76632 1.81321 5.58007 7.86494 4.2566 1.02367 71.4349 
Branch_type:  BRANCH_DIRECT_JUMP:  Total Count: 30974 66943 52821 87836 20179 29662 8830 784990 
Branch_type:  BRANCH_INDIRECT:  Total Count: 42400 11975 8795 34901 12108 14498 7322 228287 
Branch_type:  BRANCH_CONDITIONAL:  Total Count: 2786241 687782 279328 601076 731433 339540 79111 6933525 
Branch_type:  BRANCH_DIRECT_CALL:  Total Count: 14679 24570 26029 79563 48568 38753 12903 1640983 
Branch_type:  BRANCH_INDIRECT_CALL:  Total Count: 32680 1853 10247 16497 4292 10173 3392 262774 
Branch_type:  BRANCH_RETURN:  Total Count: 94952 83942 40412 124366 175290 94869 22815 1592106 
Number of unique branch instructions: 10250
Upper 32 bits: 
aaaa
ffff
ffff0000
Unique upper 32 bits: 3
Unique upper 36 bits: 3
Unique upper 40 bits: 5
Unique upper 44 bits: 32
Unique upper 48 bits: 156
Variant_0 : 1410 0.172119
Variant_1 : 3028 0.369629
Variant_2 : 0 0
Variant_3 : 0 0
Offset_3 4224
Offset_4 255
Offset_5 460
Offset_6 526
Offset_7 610
Offset_8 533
Offset_9 487
Offset_10 402
Offset_11 332
Offset_12 273
Offset_13 211
Offset_14 227
Offset_15 199
Offset_16 231
Offset_17 156
Offset_18 135
Offset_19 242
Offset_20 142
Offset_21 241
Offset_22 401
Offset_23 243
Offset_24 334
Offset_25 88
Offset_47 82
decode_dispatch_called: 24413590 66.3709
Dispatch_width: 0 12993562 53.2227 35.3243
Dispatch_width: 1 862303 3.53206 2.34426
Dispatch_width: 2 786341 3.22092 2.13775
Dispatch_width: 3 480587 1.96852 1.30653
Dispatch_width: 4 4722596 19.3441 12.8389
Dispatch_width: 5 176336 0.722286 0.479388
Dispatch_width: 6 4391865 17.9894 11.9397
Empty_decode_cycles: 12370004 33.6291
ROB_full_cycles: 7599560 20.6602
Starvation_cycles_per_kilo_instr: 247.922
Starvation_cycles_per_kilo_instr_3: 198.932
Starvation_cycles_per_kilo_instr_0: 177.64
Branch_type_1  (3,1)  (4,9)  (5,36)  (6,76)  (7,123)  (8,129)  (9,127)  (10,103)  (11,78)  (12,44)  (13,4)  (14,2)  (15,3)  (16,4)  (18,1)  (19,4)  (20,2)  (21,1)  (22,3)  (23,2)  (24,10)  (25,12) 
Branch_type_2  (3,1)  (5,1)  (8,3)  (9,3)  (12,1)  (13,1)  (14,1)  (16,3)  (17,2)  (20,2)  (21,2)  (23,5)  (24,1)  (47,38) 
Branch_type_3  (3,4222)  (4,246)  (5,419)  (6,434)  (7,455)  (8,341)  (9,271)  (10,167)  (11,136)  (12,51)  (13,4) 
Branch_type_4  (6,4)  (7,8)  (8,27)  (9,52)  (10,63)  (11,58)  (12,98)  (13,93)  (14,100)  (15,95)  (16,105)  (17,71)  (18,62)  (19,117)  (20,74)  (21,127)  (22,215)  (23,137)  (24,196)  (25,72) 
Branch_type_5  (8,2)  (9,1)  (10,3)  (11,5)  (12,3)  (13,14)  (14,16)  (15,11)  (16,20)  (17,12)  (18,16)  (19,12)  (20,10)  (21,13)  (22,42)  (23,26)  (24,36) 
Branch_type_6  (5,4)  (6,12)  (7,24)  (8,31)  (9,33)  (10,66)  (11,55)  (12,76)  (13,95)  (14,108)  (15,90)  (16,99)  (17,71)  (18,56)  (19,109)  (20,54)  (21,98)  (22,141)  (23,73)  (24,91)  (25,4)  (47,44) 
Unique trigger count: 
Variant_0_evicts_0 : 0
Variant_0_evicts_1 : 0
Variant_0_evicts_2 : 0
Variant_0_evicts_3 : 0
Variant_1_evicts_0 : 0
Variant_1_evicts_1 : 0
Variant_1_evicts_2 : 0
Variant_1_evicts_3 : 0
Variant_2_evicts_0 : 0
Variant_2_evicts_1 : 0
Variant_2_evicts_2 : 0
Variant_2_evicts_3 : 0
Variant_3_evicts_0 : 0
Variant_3_evicts_1 : 0
Variant_3_evicts_2 : 0
Variant_3_evicts_3 : 0
BTB PER SET UNIQUE ADDR: 2 4 3 2 1 0 3 2 4 0 3 0 5 3 1 3 4 2 4 4 3 4 2 3 4 5 1 3 3 2 6 6 4 3 4 2 1 5 5 2 3 4 3 7 6 2 4 3 6 3 3 2 3 1 0 3 4 3 3 3 1 4 2 3 1 4 5 2 3 5 5 1 1 4 2 4 3 6 2 3 2 3 1 4 3 4 2 6 3 3 6 4 3 5 3 0 4 3 1 3 4 2 3 3 3 2 1 2 3 2 2 1 3 6 2 6 2 4 4 1 4 4 2 0 1 3 2 1 7 5 5 2 3 1 5 3 2 1 3 3 5 3 3 3 0 3 2 5 4 4 3 8 3 5 3 0 4 4 4 2 4 5 4 4 5 3 2 2 8 1 1 3 6 3 1 1 4 4 5 1 3 4 7 3 5 4 3 2 3 3 5 3 3 4 4 4 2 3 2 3 3 3 3 1 3 3 2 4 2 1 2 4 5 3 3 2 2 5 3 0 1 1 2 3 3 2 3 3 0 3 8 3 2 2 3 3 3 2 1 2 1 0 5 3 9 6 1 1 3 2 3 1 2 3 2 6 3 4 4 3 4 4 4 2 3 7 3 1 4 2 3 2 2 3 4 2 2 1 3 3 4 2 5 2 5 5 3 3 1 1 0 3 1 6 1 1 4 3 1 2 3 3 1 2 4 2 3 2 5 5 3 1 3 2 5 1 6 6 2 1 3 7 4 5 2 2 2 6 1 0 4 0 2 5 5 2 3 4 5 0 4 0 1 4 4 3 1 5 4 3 3 6 4 3 5 3 2 0 4 1 2 5 2 4 6 5 1 1 2 3 2 2 3 4 4 4 3 3 3 4 6 3 2 6 3 3 5 2 4 1 5 6 4 2 3 1 5 0 0 3 4 2 4 2 3 4 4 3 1 1 1 4 5 4 3 2 5 3 1 3 1 1 3 4 4 3 3 0 2 4 1 1 9 3 5 5 3 3 3 0 2 5 5 4 4 6 2 4 3 2 4 3 1 1 5 1 2 5 7 2 3 3 4 6 3 3 5 3 3 3 0 4 4 4 5 1 4 5 1 2 2 1 2 2 0 4 3 0 5 2 3 1 4 4 0 7 3 3 3 1 5 1 1 2 1 2 2 2 2 3 3 2 2 6 2 1 2 6 5 5 3 3 5 2 5 5 0 6 6 3 4 3 3 6 4 5 1 1 4 2 2 5 6 2 5 2 8 3 6 9 3 6 3 6 1 5 3 1 2 4 7 2 5 2 2 1 4 2 2 7 4 3 3 7 2 2 3 3 1 5 4 2 1 0 1 0 0 9 5 4 5 7 1 1 2 3 5 2 2 1 4 2 5 6 2 3 4 4 2 2 5 3 3 2 2 1 2 0 3 1 4 4 6 2 3 3 2 4 2 3 5 5 3 2 5 3 2 3 2 2 7 1 4 3 0 0 3 3 3 4 3 2 4 3 4 0 4 3 2 4 5 2 5 5 6 3 6 2 1 3 5 3 5 4 5 7 3 3 3 3 3 2 4 2 5 3 6 3 4 5 1 4 2 2 2 3 6 4 4 3 0 6 1 3 3 2 4 2 3 1 3 5 4 3 2 1 7 2 0 3 2 0 1 1 1 1 1 3 2 3 6 6 2 2 2 5 4 3 2 2 1 3 2 4 2 1 3 2 5 2 1 3 1 3 3 2 2 6 4 1 3 3 2 5 4 4 9 3 2 2 5 5 0 3 3 4 5 2 2 3 3 4 0 3 8 6 3 5 0 2 2 4 2 1 4 7 8 2 3 3 6 3 5 3 5 4 3 5 2 3 2 5 4 0 4 4 1 1 0 4 4 2 4 2 2 2 3 3 4 4 3 2 3 2 5 2 2 1 5 2 3 1 3 3 1 4 6 4 5 2 6 2 6 4 4 4 3 2 5 4 3 7 2 2 8 3 2 4 5 4 1 4 4 6 4 1 3 3 5 4 3 5 3 4 5 3 2 2 2 5 4 3 3 3 2 1 6 3 1 1 5 2 1 3 5 5 3 5 3 4 5 4 0 3 1 6 0 1 5 2 5 4 6 3 4 1 3 2 5 6 4 4 8 7 5 4 6 4 1 7 4 2 0 4 5 6 6 5 4 2 6 0 5 5 2 3 6 5 4 2 2 3 4 5 2 5 9 4 6 3 2 5 0 5 6 1 6 5 1 3 6 5 3 5 3 1 2 2 3 3 5 6 3 7 5 3 4 5 3 5 1 2 5 2 2 5 5 3 3 2 5 2 4 4 5 2 5 2 2 3 5 2 9 5 2 3 3 2 2 3 4 8 6 2 3 2 3 2 3 1 3 2 4 4 2 4 4 5 5 7 0 3 3 3 3 4 2 3 3 2 3 1 1 1 4 1 2 3 3 4 1 9 5 3 2 1 10 1 2 5 1 2 5 5 3 8 2 6 4 6 2 5 2 2 1 1 5 1 4 4 3 7 4 1 6 4 6 2 4 4 5 3 5 8 4 4 6 1 6 4 7 4 3 3 4 3 6 6 2 6 5 6 4 3 4 3 2 2 3 5 1 3 2 1 4 4 2 2 5 3 2 6 4 3 5 1 8 3 3 4 3 1 3 5 3 4 3 4 3 6 2 4 6 3 3 3 3 6 2 8 5 5 3 8 6 1 6 1 6 2 1 2 4 4 3 1 3 4 2 1 3 1 4 4 4 2 3 4 2 5 2 5 5 5 0 5 3 2 2 6 7 0 7 0 1 5 4 2 5 1 3 3 4 1 1 2 4 5 3 4 1 4 3 6 5 1 5 3 3 6 9 4 2 6 5 5 2 1 3 5 6 3 2 2 3 3 4 4 5 3 0 4 2 2 6 8 6 3 3 5 1 2 5 2 4 1 3 2 6 9 3 3 3 3 4 4 2 5 6 5 4 3 1 5 3 2 4 3 4 4 3 4 7 3 5 4 3 5 5 2 1 7 4 4 3 3 3 2 3 2 2 2 5 5 2 2 5 1 1 3 3 8 5 1 4 5 2 3 3 4 4 3 2 0 3 2 3 2 4 4 4 4 2 1 3 6 1 4 2 4 3 3 6 1 1 4 5 3 3 4 6 2 4 4 5 5 4 5 4 4 3 2 2 3 6 2 4 1 3 2 9 3 3 6 4 4 5 7 3 2 3 4 1 2 4 1 4 2 4 3 0 6 1 4 2 2 3 4 4 2 4 2 4 2 4 2 5 1 0 3 4 1 2 3 1 4 2 3 6 3 1 2 3 3 2 2 6 2 4 5 3 3 3 4 2 2 4 0 2 2 2 3 2 2 2 0 3 0 4 2 4 4 3 3 2 1 2 5 4 2 7 1 3 3 2 2 4 5 3 2 5 0 1 2 3 1 1 2 3 3 5 3 1 1 5 3 1 4 1 6 1 4 3 3 6 2 2 2 1 3 3 1 1 3 4 1 3 3 1 3 0 5 1 3 3 0 3 2 5 3 4 4 3 4 0 4 1 2 1 3 3 0 2 3 2 4 3 1 3 3 2 11 6 3 2 2 4 1 1 3 5 2 3 0 3 2 3 2 3 4 5 6 7 0 4 2 6 4 4 5 4 7 2 4 8 3 0 6 3 3 2 5 3 3 2 2 2 4 2 2 2 3 1 3 4 3 5 3 6 1 1 4 5 3 3 4 4 3 6 2 5 5 2 6 3 3 3 1 3 7 4 4 2 3 3 3 4 4 2 3 3 1 3 1 3 6 1 2 2 3 3 4 5 3 4 3 6 1 2 3 6 2 5 5 6 0 1 7 2 4 2 3 4 6 2 3 2 3 6 2 3 3 5 3 5 8 4 4 3 5 2 5 3 3 2 3 2 2 2 4 5 3 2 3 3 4 5 2 3 7 0 4 2 5 5 4 3 4 4 5 3 5 1 5 2 3 5 2 3 0 3 5 0 7 2 4 5 1 5 3 2 0 4 2 3 5 3 6 2 2 2 1 3 4 6 1 4 3 0 3 2 5 5 3 1 4 6 3 3 3 6 3 4 1 5 3 0 2 3 1 1 8 2 0 4 2 4 3 4 3 6 3 3 6 1 5 3 5 2 5 4 2 3 2 7 1 5 0 3 3 4 4 3 3 2 0 2 3 0 3 0 3 5 6 2 3 6 2 4 3 3 1 3 3 4 2 4 2 5 3 2 3 3 2 4 4 4 2 3 4 2 2 0 2 2 5 1 4 1 5 4 2 3 1 4 1 3 4 4 2 3 4 5 5 3 4 3 3 5 3 1 3 2 1 0 1 3 2 4 3 5 2 2 3 4 1 1 4 4 2 2 7 4 2 7 6 4 2 5 1 2 7 3 3 5 2 5 0 1 2 5 3 2 5 3 2 4 3 4 7 3 2 0 4 2 0 2 3 0 4 4 6 2 3 4 6 4 0 2 2 4 1 4 1 4 1 9 3 1 3 3 6 4 7 3 3 7 0 1 4 2 4 2 1 0 2 3 4 7 5 1 0 3 4 5 1 1 1 5 5 2 2 5 4 3 3 5 4 1 6 4 6 1 1 2 2 2 3 4 1 3 2 3 2 3 1 5 2 4 3 4 2 1 3 6 4 4 0 
BTB PER SET COUNT: 2 4 3 2 1 0 3 2 4 0 3 0 5 3 1 3 5 2 4 1471 3 4 3 3 4 6 1 3 1466 2 7 6 4 3 6 2 2930 5 5 2 3 4 4 794 1006 2 4 3 7 3 3 2 3 1 0 3 6 3 3 3 1 4 2 3 1 266 5 2 3 5 5 1 1 4 2 4 465 762 2 3 2 3 2 4 3 4 2 6 3 3 12 551 3 5 3 0 4 3 1 3 4 2 3 3 3 3 1 2 3 2 2 1 3 6 2 7 3 4 4 1 4 4 2 0 1 3 2 1 7 10 467 2 3 1 5 3 2 1 3 3 5 4 3 3 0 5 2 5 4 4 3 1015 3 5 3 0 4 4 4 2 5 5 5 6 5 3006 2 2 3236 1 1 3 7 3 1 1 7 4 1300 1 3 4 1867 4 5 4 3 2 3 3 6 3 3 4 4 9 2 3 2 4 3 3 3 1 5 3 2 2018 2 1 2 10 6 3 3 2 3 5 3 0 1 1 3 3 3 2 3 40 0 3 2988 3 2 2 3 3 3 2 1 2 1 0 5 3 791 7 1 1 3 2 3 1 2 3 2 6 3 5 4 3 4 4 4 2 2930 8 4 1 4 2 3 2 2 3 4 3 2 1 4 4 4 2 5 2 5 931 3 3 1 1 0 3 1 6 1 1 5 3 1 2 3 3 1 2 4 2 3 2 1853 6 3 1 4 2 5 3 8 6 2 1 3 7 5 5 2 2 2 8 1 0 1393 0 2 6 1005 4 1391 4 5 0 4 0 1 929 929 3 1 5 4 3 3 6 4 3 5 3 2 0 4 1 2 5 2 4 7 5 1 1 2 5 2 2 3 5 4 4 3 3 3 4 20 3 2 7 4 5 5 2 4 1 5 6 4 2 3 1 1469 0 0 3 4 2 4 2 3 5 1467 4 1 1001 1 4 5 4 1464 2 247 3 1 85 1 1 3 5 4 3 9 0 2 4 1 1 1084 3 7 5 3 3 3 0 2 5 5 4 4 6 2 4 3 2 4 3 2 1 6 1 2 5 471 2 3 5 4 6 3 3 5 5 4 3 0 4 9 468 5 1 4 6 1 2 2 1 2 464 0 4 3 0 5 2 4 1 4 4 0 10 3 4 3 1 5 15 1 4 1 2 2 2 2 3 3 2 2 6 6 1 2 6 5 468 3 1466 5 2 6 5 0 6 6 3 4 3 3 11 4 936 1 1 4 2 2 5 6 2 5 4 16 3 6 3236 4 6 5 7 1 9 5 1 2 4 8 2 5 2 2 1 4 2 2 60 4 7 3 26 2 2 3 3 1 6 4 12 1 0 2 0 0 2427 5 6 7 21 2 1 1002 4 7 2 2 1 4 2 5 6 4 3 5 4 2 2 5 3 4 2 2 1 1097 0 3 1 4 917 6 2 4 3 2 4 2 3 929 1468 3 8 5 3 2 3 2 2 933 1 4 3 0 0 3 3 3 4 3 2 4 3 4 0 6 3 2 4 7647 2 5 7 7 3 2934 928 2 3 6 3 7 4 5 1521 3 3 8 3 3 2 4 927 5 3 6 1466 4 5 2 930 2 2 2 3 6 4 4 69 0 6 1 3 3 927 4 2 3 1 3 5 6 3 927 1 1479 2 0 3 2 0 1 1 1 1 1 3 2 3 6 6 1002 4 3 5 4 3 2 2 1 3 2 4 2 1 933 2 5 927 2 3 1 7 3 2 2 6 4 1 3 3 2 5 4 6 34 4 4 2 5 6 0 117 3 6 5 4 3 3 3 4 0 3 26 10 4 8 0 2 2 64 7 1 4 18 480 2 3 3 6 4 6 4 1858 4 3 7 2 7 2 5 4 0 5 6 2 1 0 4 4 2 4 3 3 2 3 3 4 93 3 2 4 2 5 2 2 1 5 2 3 1 4 1467 1 17 10 4 5 2 1394 2 6 7 4 4 3 2 5 4 3 7 2 2 1581 1010 3 4 5 4 1 4 4 7 4 1 6 4 5 4 3 5 3 4 5 3 2 2 2 5 4 4 3 3 2 1 6 3 1 1 5 2 1 68 5 5 3 5 3 4 5 4 0 3 2 7 0 2 5 2 5 4 23 3 10 1 3 2 6 7 4 467 1211 1096 5 4 104 7 1 24 4 2 0 1004 5 6 6 473 4 2 6 0 5 9 3 3 10 5 4 2 2 468 4 7 4 5 26 4 6 4 2 5 0 527 12 1 1006 5 1 3 6 5 726 5 3 2 2 2 4 3 5 7 3 7 5 3 4 5 3 6 1 2 7 2 2 6 5 5 3 2 1860 2 2468 266 931 3 5 5 2 3 5 4 1284 5 2 3 3 2 2 3 4 90 7 2 3 2 3 2 3 2 3 2 4 5 2 4 4 5 5 8 0 3 3 3 1466 268 2 8 3 2 3 1 1 1 4 1 3 3 3 5 1 18 7 3 2 1 1413 1 2 7 1 2 5 131 3 8 2 6 4 7 2 5 2 2 1 1 5 1 6 4 3 19 4 1 6 4 6 2 467 4 5 3 5 354 4 5 6 1 6 4 9 5 3 3 4 3 6 6 2 6 5 6 4 3 4 5 2 2 3 6 1 3 2 1 4 6 2 2 933 4 3 6 4 3 7 1 341 3 3 4 3 1 3 10 3 4 4 4 3 6 2 4 518 3 3 3 3 6 2 678 5 5 3 23 6 1 1006 1 8 2 1 2 934 6 3 1 3 107 2 1 4 463 4 5 4 2 3 4 2 5 2 5 5 6 0 5 3 2 2 8 1008 0 14 0 1 5 4 4 5 1 3 1391 4 1 1 2 6 5 4 4 1 4 3 6 7 1 5 3 3 6 1396 2014 2 1470 5 5 2 1 4 5 6 3 2 2 3 3 4 4 5 3 0 4 2 2 6 2009 6 3 3 5 1 2 5 2 4 1 3 2 6 1551 1016 5 3 3 4 4 2 5 6 5 4 3 1 22 3 2 6 3 4 4 3 4 7 3 5 4 466 5 2317 7 1 1547 4 4 3 3 3 2 3 2 2 2 6 5 2 2 5 1 1 3 5 44 7 1 5 5 2 4 3 4 4 3 2 0 3 2 3 2 4 5 6 4 2 1 3 6 1 4 2 4 3 5 6 1 1 4 5 1005 3 4 10 2 4 14 8 5 4 6 4 4 3 2 2 3 6 2 4 1 3 2 1658 3 3 8 4 4 5 1086 3 2 4 5 1 2 4 1 4 2 4 5 0 33 2 4 2 2 3 4 5 3 1467 2 5 1265 4 2 551 1 0 3 4 1 4 1266 1 5 2 3 6 3 1 2 3 3 2 2 1859 2 6 9 6 3 3 10 2 2 5 0 2 2 2 1003 2 2 2 0 3 0 4 2 4 4 3 3 927 1 20 8 27 2 1395 1 3 3 2 2 5 8 137 2 20510 0 1 2 3 1 1 2 3 3 475 369 1 1 5 3 1 4 1 6 1 4 3 3 33 2 2 2 1 3 3 1 2 3 4 1 3 3 1 3 0 5 1 3 3 0 5 755 5 3 4 4 3 4 0 5 1 2 1 3 3 0 2 3 2 4 17 1 3 3 2 910 6 3 2 2 4 1 1 4 1550 2 3 0 3 2 3 2 3 4 5 13 8 0 4 2 9 4 4 5 8 1394 2 5 5912 3 0 1393 1466 3 2 7 3 3 2 2 2 1004 4 2 2 3 1 3 4 4 5 3 9 2784 1 4 5 3 3 6 4 3 6 2 5 5 2 6 3 411 266 1 1466 7 4 210 7 3 3 3 5 4 2 3 4 1 3 1 3 6 1 2 2 6 3 5 468 3 4 3 7 1 2 5 7 2 1553 5 6 0 1 7 2 930 2 3 4 6 932 3 2 4 6 2 467 3 989 3 5 5475 4 4 14643 1394 3 268 1466 3 2 3 4 2 2 4 5 3 2 3 3 4 5 2 257 8 0 1468 3 1468 410 4 3 4 4 5 3 799 1 5 2 4 5 2 3 0 3 912 0 931 2 4 5 1 9 3 2 0 4 2 3 5 3 6 2 2 2 1 3 4 6 1 4 703 0 3 2 8 5 1003 1 7 1007 3 5 3 768 3 4 1 5 3 0 2 3 1464 1 2457 2 0 4 2 4 3 4 3 6 3 673 6 1 5 3 5 225 5 127 2 3 2 7 1 351 0 3 2470 5 4 3 3 2 0 2 549 0 3 0 3 6 6 2 3 8 634 4 7 1003 1 4 3 4 2 4 2 53 3 2 3 5 2 460 4 7 2 3 4 2 2 0 2 2 5 1 4 1 4082 4 2 3 3 4 2 3 7 4 2 3 929 5 5 3 4 3 3 5 3 1 3 4 1 0 1 3 2 4 7 5 2 2 3 4 1 1 4 4 2 2 70 7 2 1298 29 295 2 7 1 2 8 3 3 5 2 6 0 1 2 6 928 2 5 3 2 8 3 4 527 3 2 0 4 2 0 2 3 0 6 1924 6 3 3 4 28 4 0 2 2 4 2 4 1 4 1 2791 3 1 3 3 471 13 1120 3 3 1180 0 1 4 2 5 4 1 0 2 3 4 7 5 1 0 3 4 5 1 1 1 5 5 2 2 8 4 3 5 5 5 1 21 7 15 1 1 2 2 2 5 4 1 3 2 3 2 3 1 5 3 370 3 4 2 1 3 1495 4 6 0 
To predecode: 0
Predecoding something: 0
Predecode request dropped: 0
sizeofblock_0 0
sizeofblock_1 74237
sizeofblock_2 87714
sizeofblock_3 0
sizeofblock_4 0
sizeofblock_5 0
sizeofblock_6 0
sizeofblock_7 0
sizeofblock_8 0
Variant_0 Correct: 0 Incorrect: 0 Accuracy: -nan
Variant_1 Correct: 0 Incorrect: 0 Accuracy: -nan
Variant_2 Correct: 0 Incorrect: 0 Accuracy: -nan
Variant_3 Correct: 0 Incorrect: 0 Accuracy: -nan
