
*** ChampSim Multicore Out-of-Order Simulator ***

Warmup Instructions: 50000000
Simulation Instructions: 50000000
Number of CPUs: 1
LLC sets: 2048
LLC ways: 16
Off-chip DRAM Size: 4096 MB Channels: 1 Width: 64-bit Data Rate: 6400 MT/s
CPU 0 runs ./micro_traces/srv189.trace.gz
.gz
ITLB has LRU replacement policy
DTLB has LRU replacement policy
STLB has LRU replacement policy
FDIP Prefetcher at L1I
L1I has LRU replacement policy
L1D has LRU replacement policy
Initialize SRRIP state for L2C
Initialize DRRIP state for LLC
Heartbeat CPU 0 instructions: 10000001 cycles: 2798424 heartbeat IPC: 3.57344 cumulative IPC: 3.57344 (Simulation time: 0 hr 1 min 37 sec) 
Heartbeat CPU 0 instructions: 20000001 cycles: 5595237 heartbeat IPC: 3.5755 cumulative IPC: 3.57447 (Simulation time: 0 hr 3 min 12 sec) 
Heartbeat CPU 0 instructions: 30000002 cycles: 8392776 heartbeat IPC: 3.57457 cumulative IPC: 3.5745 (Simulation time: 0 hr 4 min 47 sec) 
Heartbeat CPU 0 instructions: 40000001 cycles: 11188860 heartbeat IPC: 3.57643 cumulative IPC: 3.57498 (Simulation time: 0 hr 6 min 23 sec) 
Heartbeat CPU 0 instructions: 50000002 cycles: 13985422 heartbeat IPC: 3.57582 cumulative IPC: 3.57515 (Simulation time: 0 hr 7 min 59 sec) 

Warmup complete CPU 0 instructions: 50000002 cycles: 13985422 (Simulation time: 0 hr 7 min 59 sec) 

Cycle: 20000000 FTQ IN: 58378959 FTQ occupancy: 20.1166 DECODE IN: 58378947 DECODE occupancy: 52.5422 ROB IN: 58378947 ROB occupancy: 316.105 ROB OUT: 58378929
Heartbeat CPU 0 instructions: 60000000 cycles: 21150357 heartbeat IPC: 1.39569 cumulative IPC: 1.39569 (Simulation time: 0 hr 9 min 48 sec) 
Heartbeat CPU 0 instructions: 70000002 cycles: 28439008 heartbeat IPC: 1.372 cumulative IPC: 1.38374 (Simulation time: 0 hr 11 min 39 sec) 
Cycle: 30000000 FTQ IN: 13780489 FTQ occupancy: 13.5554 DECODE IN: 13780501 DECODE occupancy: 35.0672 ROB IN: 13780501 ROB occupancy: 238.981 ROB OUT: 13780294
Heartbeat CPU 0 instructions: 80000001 cycles: 35593302 heartbeat IPC: 1.39776 cumulative IPC: 1.38838 (Simulation time: 0 hr 13 min 30 sec) 
Cycle: 40000000 FTQ IN: 13878022 FTQ occupancy: 13.571 DECODE IN: 13877879 DECODE occupancy: 35.186 ROB IN: 13877819 ROB occupancy: 241.091 ROB OUT: 13877892
Heartbeat CPU 0 instructions: 90000000 cycles: 42841959 heartbeat IPC: 1.37957 cumulative IPC: 1.38617 (Simulation time: 0 hr 15 min 19 sec) 
Cycle: 50000000 FTQ IN: 13956882 FTQ occupancy: 13.4604 DECODE IN: 13956921 DECODE occupancy: 35.0715 ROB IN: 13956921 ROB occupancy: 241.194 ROB OUT: 13956935
Heartbeat CPU 0 instructions: 100000003 cycles: 50004141 heartbeat IPC: 1.39622 cumulative IPC: 1.38817 (Simulation time: 0 hr 16 min 56 sec) 
Finished CPU 0 instructions: 50000001 cycles: 36018719 cumulative IPC: 1.38817 (Simulation time: 0 hr 16 min 56 sec) 

ChampSim completed all CPUs

Region of Interest Statistics

CPU 0 cumulative IPC: 1.38817 instructions: 50000001 cycles: 36018719
 Fetch stage stalled: 52.3784  Sim cycles: 36018719 fetch stall cycle: 18866016
 Empty decode stage: 33.1676  Sim cycles: 36018719 fetch stall cycle: 11946562
ITLB TOTAL     ACCESS:    5873208  HIT:    5380016  MISS:     493192  HIT %:    91.6027  MISS %:    8.39732   MPKI: 9.86384
ITLB LOAD TRANSLATION INSTRUCTION	ACCESS:    5751173  HIT:    5257981  MISS:     493192  HIT %:    91.4245  MISS %:     8.5755  MPKI: 9.86384
ITLB TRANSLATION FROM L1D PREFETCHER INSTRUCTION	ACCESS:     122035  HIT:     122035  MISS:          0  HIT %:        100  MISS %:          0  MPKI: 0

ITLB AVERAGE MISS LATENCY: 9.05885 cycles
ITLB RQ	ACCESS:    8020028	FORWARD:          0	MERGED:    1706466	TO_CACHE:    6313562

DTLB TOTAL     ACCESS:    8968442  HIT:    8497587  MISS:     470855  HIT %:    94.7499  MISS %:    5.25013   MPKI: 9.4171
DTLB LOAD TRANSLATION DATA	ACCESS:    8968442  HIT:    8497587  MISS:     470855  HIT %:    94.7499  MISS %:    5.25013  MPKI: 9.4171

DTLB AVERAGE MISS LATENCY: 9.32908 cycles
DTLB RQ	ACCESS:   13341306	FORWARD:          0	MERGED:    4336006	TO_CACHE:    9005300

STLB TOTAL     ACCESS:    1213357  HIT:    1211371  MISS:       1986  HIT %:    99.8363  MISS %:   0.163678   MPKI: 0.03972
STLB LOAD TRANSLATION INSTRUCTION	ACCESS:     493192  HIT:     492976  MISS:        216  HIT %:    99.9562  MISS %:  0.0437963  MPKI: 0.00432
STLB LOAD TRANSLATION DATA	ACCESS:     470855  HIT:     469119  MISS:       1736  HIT %:    99.6313  MISS %:   0.368691  MPKI: 0.03472
STLB TRANSLATION FROM L1D PREFETCHER DATA	ACCESS:     249310  HIT:     249276  MISS:         34  HIT %:    99.9864  MISS %:  0.0136376  MPKI: 0.00068

STLB AVERAGE MISS LATENCY: 77.0841 cycles
STLB RQ	ACCESS:    1333631	FORWARD:          0	MERGED:     120229	TO_CACHE:    1213402

STLB Hit, L1D data hit: 0
STLB Hit, L2C data hit: 0
STLB Hit, LLC data hit: 0
STLB Hit, LLC data miss: 0
STLB STLB hints to L2: 0
L1D TOTAL     ACCESS:   13092845  HIT:   11978742  MISS:    1114103  HIT %:    91.4907  MISS %:    8.50925   MPKI: 22.2821
L1D LOAD DATA	ACCESS:    6558356  HIT:    5822932  MISS:     735424  HIT %:    88.7865  MISS %:    11.2135  MPKI: 14.7085
L1D RFO DATA	ACCESS:    6205517  HIT:    5920450  MISS:     285067  HIT %:    95.4062  MISS %:    4.59377  MPKI: 5.70134
L1D PREFETCH DATA	ACCESS:     328972  HIT:     235360  MISS:      93612  HIT %:    71.5441  MISS %:    28.4559  MPKI: 1.87224

L1D PREFETCH  REQUESTED:     739547  ISSUED:     739547  USEFUL:      33655  USELESS:      68193
L1D USEFUL LOAD PREFETCHES:      33655 PREFETCH ISSUED TO LOWER LEVEL:     101894  ACCURACY: 33.0294
 TIMELY PREFETCHES:      33655 LATE PREFETCHES: 8241 DROPPED PREFETCHES: 12
L1D AVERAGE MISS LATENCY: 235731 cycles
L1D RQ	ACCESS:   10691964	FORWARD:          0	MERGED:    3935510	TO_CACHE:    6593637
L1D WQ	ACCESS:    6945323	FORWARD:     163196	MERGED:     197654	TO_CACHE:    6747669
L1D PQ	ACCESS:     369963	FORWARD:          0	MERGED:          0	TO_CACHE:     369584

L1D UNIQUE REGIONS ACCESSED: 0
L1D REGIONS CONFLICTS: 0
L1D Cross Page Prefetch Requests: 7052
L1D Same Page Prefetch Requests: 752332
L1D ROI Sum of L1D PQ occupancy: 4688524
L1D PREFETCHES PUSHED FROM L2C: 0
L1I TOTAL     ACCESS:    7169859  HIT:    4409050  MISS:    2760809  HIT %:    61.4942  MISS %:    38.5058   MPKI: 55.2162
L1I LOAD INSTRUCTION	ACCESS:    6499074  HIT:    3738265  MISS:    2760809  HIT %:      57.52  MISS %:      42.48  MPKI: 55.2162
L1I PREFETCH INSTRUCTION	ACCESS:     670785  HIT:     670785  MISS:          0  HIT %:        100  MISS %:          0  MPKI: 0

L1I PREFETCH  REQUESTED:    1628179  ISSUED:    1628179  USEFUL:          0  USELESS:          0
L1I USEFUL LOAD PREFETCHES:          0 PREFETCH ISSUED TO LOWER LEVEL:          0  ACCURACY: -nan
 TIMELY PREFETCHES:          0 LATE PREFETCHES: 0 DROPPED PREFETCHES: 0
L1I AVERAGE MISS LATENCY: 17.4739 cycles
L1I RQ	ACCESS:    9510792	FORWARD:          0	MERGED:    2683039	TO_CACHE:    6827753
L1I PQ	ACCESS:    1628179	FORWARD:          0	MERGED:     435904	TO_CACHE:    1192275

L1BTB TOTAL     ACCESS:    5672281  HIT:    2046396  MISS:    3625885  HIT %:    36.0771  MISS %:    63.9229   MPKI: 72.5177
L1BTB BRANCH_DIRECT_JUMP	ACCESS:     548977  HIT:     145258  MISS:     403719	AVERAGE STALL: 50.8136
L1BTB BRANCH_INDIRECT	ACCESS:     183386  HIT:      66226  MISS:     117160	AVERAGE STALL: 107.213
L1BTB BRANCH_CONDITIONAL	ACCESS:    2711690  HIT:    1419574  MISS:    1292116	AVERAGE STALL: 111.681
L1BTB BRANCH_DIRECT_CALL	ACCESS:     943070  HIT:     104845  MISS:     838225	AVERAGE STALL: 94.3167
L1BTB BRANCH_INDIRECT_CALL	ACCESS:     171046  HIT:      20775  MISS:     150271	AVERAGE STALL: 131.762
L1BTB BRANCH_RETURN	ACCESS:    1114112  HIT:     289718  MISS:     824394	AVERAGE STALL: 47.0221
L1BTB BRANCH_OTHER ACCESS:          0  HIT:          0  MISS:          0	AVERAGE STALL: -nan
L1BTB TOTAL ROB OCCUPANCY AT BTB MISS: 1.96885

L2BTB TOTAL     ACCESS:    3600429  HIT:    3545661  MISS:      54768  HIT %:    98.4788  MISS %:    1.52115   MPKI: 1.09536
L2BTB BRANCH_DIRECT_JUMP	ACCESS:     399527  HIT:     396774  MISS:       2753	AVERAGE STALL: 50.8136
L2BTB BRANCH_INDIRECT	ACCESS:     106864  HIT:     104221  MISS:       2643	AVERAGE STALL: 107.213
L2BTB BRANCH_CONDITIONAL	ACCESS:    1292116  HIT:    1292013  MISS:        103	AVERAGE STALL: 111.681
L2BTB BRANCH_DIRECT_CALL	ACCESS:     838225  HIT:     838154  MISS:         71	AVERAGE STALL: 94.3167
L2BTB BRANCH_INDIRECT_CALL	ACCESS:     140703  HIT:     130606  MISS:      10097	AVERAGE STALL: 131.762
L2BTB BRANCH_RETURN	ACCESS:     822994  HIT:     783893  MISS:      39101	AVERAGE STALL: 47.0221
L2BTB BRANCH_OTHER ACCESS:          0  HIT:          0  MISS:          0	AVERAGE STALL: -nan
L2BTB TOTAL ROB OCCUPANCY AT BTB MISS: 130.346

L2C TOTAL     ACCESS:    4481403  HIT:    3983560  MISS:     497843  HIT %:    88.8909  MISS %:    11.1091   MPKI: 9.95686
L2C LOAD INSTRUCTION	ACCESS:    2760809  HIT:    2475187  MISS:     285622  HIT %:    89.6544  MISS %:    10.3456  MPKI: 5.71244
L2C LOAD TRANSLATION INSTRUCTION	ACCESS:        247  HIT:         61  MISS:        186  HIT %:    24.6964  MISS %:    75.3036  MPKI: 0.00372
L2C LOAD DATA	ACCESS:     727160  HIT:     654140  MISS:      73020  HIT %:    89.9582  MISS %:    10.0418  MPKI: 1.4604
L2C RFO DATA	ACCESS:     284984  HIT:     231390  MISS:      53594  HIT %:     81.194  MISS %:     18.806  MPKI: 1.07188
L2C PREFETCH DATA	ACCESS:     185781  HIT:     115967  MISS:      69814  HIT %:    62.4213  MISS %:    37.5787  MPKI: 1.39628
L2C WRITEBACK DATA	ACCESS:     520561  HIT:     506312  MISS:      14249  HIT %:    97.2628  MISS %:    2.73724  MPKI: 0.28498
L2C LOAD TRANSLATION DATA	ACCESS:       1797  HIT:        457  MISS:       1340  HIT %:    25.4313  MISS %:    74.5687  MPKI: 0.0268
L2C TRANSLATION FROM L1D PREFETCHER DATA	ACCESS:         64  HIT:         46  MISS:         18  HIT %:     71.875  MISS %:     28.125  MPKI: 0.00036

L2C PREFETCH  REQUESTED:      91654  ISSUED:      91654  USEFUL:       8033  USELESS:      62289
L2C USEFUL LOAD PREFETCHES:       8033 PREFETCH ISSUED TO LOWER LEVEL:      70297  ACCURACY: 11.4272
 TIMELY PREFETCHES:       8033 LATE PREFETCHES: 483 DROPPED PREFETCHES: 0
L2C AVERAGE MISS LATENCY: 37.7763 cycles
L2C RQ	ACCESS:    3775127	FORWARD:          0	MERGED:          0	TO_CACHE:    3775063
L2C WQ	ACCESS:     520561	FORWARD:         64	MERGED:          0	TO_CACHE:     520561
L2C PQ	ACCESS:     193548	FORWARD:          0	MERGED:       3298	TO_CACHE:     190250

L2C Dense regions hint from L2: 0
PSCL5 TOTAL     ACCESS:       4004  HIT:       2002  MISS:       2002  HIT %:         50  MISS %:         50   MPKI: 0.04004
PSCL5 LOAD TRANSLATION INSTRUCTION	ACCESS:       3876  HIT:       1938  MISS:       1938  HIT %:         50  MISS %:         50  MPKI: 0.03876
PSCL5 TRANSLATION FROM L1D PREFETCHER INSTRUCTION	ACCESS:        128  HIT:         64  MISS:         64  HIT %:         50  MISS %:         50  MPKI: 0.00128


PSCL4 TOTAL     ACCESS:       3905  HIT:       1949  MISS:       1956  HIT %:    49.9104  MISS %:    50.0896   MPKI: 0.03912
PSCL4 LOAD TRANSLATION INSTRUCTION	ACCESS:       3546  HIT:       1886  MISS:       1660  HIT %:    53.1867  MISS %:    46.8133  MPKI: 0.0332
PSCL4 TRANSLATION FROM L1D PREFETCHER INSTRUCTION	ACCESS:        126  HIT:         63  MISS:         63  HIT %:         50  MISS %:         50  MPKI: 0.00126
PSCL4 LOAD TRANSLATION DATA	ACCESS:        233  HIT:          0  MISS:        233  HIT %:          0  MISS %:        100  MPKI: 0.00466


PSCL3 TOTAL     ACCESS:       3971  HIT:       1982  MISS:       1989  HIT %:    49.9119  MISS %:    50.0881   MPKI: 0.03978
PSCL3 LOAD TRANSLATION INSTRUCTION	ACCESS:       3579  HIT:       1919  MISS:       1660  HIT %:    53.6183  MISS %:    46.3817  MPKI: 0.0332
PSCL3 TRANSLATION FROM L1D PREFETCHER INSTRUCTION	ACCESS:        126  HIT:         63  MISS:         63  HIT %:         50  MISS %:         50  MPKI: 0.00126
PSCL3 LOAD TRANSLATION DATA	ACCESS:        266  HIT:          0  MISS:        266  HIT %:          0  MISS %:        100  MPKI: 0.00532


PSCL2 TOTAL     ACCESS:       3911  HIT:       1909  MISS:       2002  HIT %:     48.811  MISS %:     51.189   MPKI: 0.04004
PSCL2 LOAD TRANSLATION INSTRUCTION	ACCESS:       2062  HIT:       1845  MISS:        217  HIT %:    89.4762  MISS %:    10.5238  MPKI: 0.00434
PSCL2 TRANSLATION FROM L1D PREFETCHER INSTRUCTION	ACCESS:         64  HIT:         64  MISS:          0  HIT %:        100  MISS %:          0  MPKI: 0
PSCL2 LOAD TRANSLATION DATA	ACCESS:       1721  HIT:          0  MISS:       1721  HIT %:          0  MISS %:        100  MPKI: 0.03442
PSCL2 TRANSLATION FROM L1D PREFETCHER DATA	ACCESS:         64  HIT:          0  MISS:         64  HIT %:          0  MISS %:        100  MPKI: 0.00128


LLC TOTAL     ACCESS:     559453  HIT:     532191  MISS:      27262  HIT %:     95.127  MISS %:    4.87297   MPKI: 0.54524
LLC LOAD INSTRUCTION	ACCESS:     285622  HIT:     284906  MISS:        716  HIT %:    99.7493  MISS %:   0.250681  MPKI: 0.01432
LLC LOAD TRANSLATION INSTRUCTION	ACCESS:        186  HIT:        168  MISS:         18  HIT %:    90.3226  MISS %:    9.67742  MPKI: 0.00036
LLC LOAD DATA	ACCESS:      72551  HIT:      69324  MISS:       3227  HIT %:    95.5521  MISS %:    4.44791  MPKI: 0.06454
LLC RFO DATA	ACCESS:      53569  HIT:      40182  MISS:      13387  HIT %:    75.0098  MISS %:    24.9902  MPKI: 0.26774
LLC PREFETCH DATA	ACCESS:      70297  HIT:      60754  MISS:       9543  HIT %:    86.4247  MISS %:    13.5753  MPKI: 0.19086
LLC WRITEBACK DATA	ACCESS:      75870  HIT:      75584  MISS:        286  HIT %:     99.623  MISS %:   0.376961  MPKI: 0.00572
LLC LOAD TRANSLATION DATA	ACCESS:       1340  HIT:       1255  MISS:         85  HIT %:    93.6567  MISS %:    6.34328  MPKI: 0.0017
LLC TRANSLATION FROM L1D PREFETCHER DATA	ACCESS:         18  HIT:         18  MISS:          0  HIT %:        100  MISS %:          0  MPKI: 0

LLC AVERAGE MISS LATENCY: 156.486 cycles
LLC RQ	ACCESS:     413298	FORWARD:          0	MERGED:          0	TO_CACHE:     413287
LLC WQ	ACCESS:      75870	FORWARD:         11	MERGED:          0	TO_CACHE:      75870
LLC PQ	ACCESS:      70297	FORWARD:          0	MERGED:          0	TO_CACHE:      70297

LLC Dense regions hint to LLC: 0

RAW hits: 1942601
Loads Generated: 12634564
Loads sent to L1D: 10691964
Stores Generated: 6945327
Stores sent to L1D: 6945323
Major fault: 0 Minor fault: 2570
Allocated PAGES: 2570

stream: 
stream:times selected: 1192512
stream:pref_filled: 122156
stream:pref_useful: 24054
stream:pref_late: 6749
stream:misses: 8060
stream:misses_by_poll: 0

CS: 
CS:times selected: 179262
CS:pref_filled: 59750
CS:pref_useful: 36488
CS:pref_late: 7317
CS:misses: 16078
CS:misses_by_poll: 2

CPLX: 
CPLX:times selected: 1012124
CPLX:pref_filled: 19191
CPLX:pref_useful: 4633
CPLX:pref_late: 3061
CPLX:misses: 92976
CPLX:misses_by_poll: 4

NL_L1: 
NL:times selected: 21039
NL:pref_filled: 817
NL:pref_useful: 400
NL:pref_late: 270
NL:misses: 1809
NL:misses_by_poll: 0

total selections: 2404937
total_filled: 93612
total_useful: 33655
total_late: 18631
total_polluted: 6
total_misses_after_warmup: 770708
conflicts: 5518718

test: 117163

DRAM Statistics
 CHANNEL 0
 RQ ROW_BUFFER_HIT:       9931  ROW_BUFFER_MISS:      17034
 DBUS_CONGESTED:          8
 WQ ROW_BUFFER_HIT:       1288  ROW_BUFFER_MISS:      11932  FULL:          0

 AVG_CONGESTED_CYCLE: 5

CPU 0 Branch Prediction Accuracy: 99.821% MPKI: 0.32738 Average ROB Occupancy at Mispredict: 191.787
Branch types
NOT_BRANCH: 40853661 81.7073%
BRANCH_DIRECT_JUMP: 548977 1.09795%
BRANCH_INDIRECT: 183386 0.366772%
BRANCH_CONDITIONAL: 6185713 12.3714%
BRANCH_DIRECT_CALL: 943070 1.88614%
BRANCH_INDIRECT_CALL: 171046 0.342092%
BRANCH_RETURN: 1114112 2.22822%
BRANCH_OTHER: 0 0%

DRAM PAGES: 1048576
Allocated PAGES: 2570
Average_ROB_Occupancy: 241.654
Average_Decode_Occupancy: 35.0871
Average_FTQ_Occupancy: 13.5039
Indirect max targets: 14 Average targets: 1.15017
Branch_type:  BRANCH_DIRECT_JUMP:  Count Percentage: 3.32081 5.83787 4.10524 8.79817 2.41135 6.3357 2.15008 67.0408 
Branch_type:  BRANCH_INDIRECT:  Count Percentage: 6.15279 3.45228 8.1678 9.69318 3.33717 2.80252 3.86527 62.529 
Branch_type:  BRANCH_CONDITIONAL:  Count Percentage: 25.0011 3.3707 1.52679 4.3343 2.09337 3.67672 2.51119 57.4859 
Branch_type:  BRANCH_DIRECT_CALL:  Count Percentage: 0.390424 1.7551 0.756094 4.1871 2.53674 2.74157 3.39738 84.2356 
Branch_type:  BRANCH_INDIRECT_CALL:  Count Percentage: 9.56474 0 2.9992 0 0 2.03047 5.00949 80.3961 
Branch_type:  BRANCH_RETURN:  Count Percentage: 7.54088 1.80349 1.03903 3.70719 3.80556 3.55907 3.34849 75.1963 
Branch_type:  BRANCH_DIRECT_JUMP:  Total Count: 36441 64062 45049 96547 26461 69525 23594 735674 
Branch_type:  BRANCH_INDIRECT:  Total Count: 22556 12656 29943 35535 12234 10274 14170 229230 
Branch_type:  BRANCH_CONDITIONAL:  Total Count: 3091167 416758 188774 535898 258827 454594 310487 7107628 
Branch_type:  BRANCH_DIRECT_CALL:  Total Count: 7350 33041 14234 78825 47756 51612 63958 1585794 
Branch_type:  BRANCH_INDIRECT_CALL:  Total Count: 32701 0 10254 0 0 6942 17127 274867 
Branch_type:  BRANCH_RETURN:  Total Count: 167803 40132 23121 82494 84683 79198 74512 1673302 
Number of unique branch instructions: 9834
Upper 32 bits: 
aaaa
ffff
ffff0000
Unique upper 32 bits: 3
Unique upper 36 bits: 3
Unique upper 40 bits: 5
Unique upper 44 bits: 32
Unique upper 48 bits: 153
Offset_3 4049
Offset_4 243
Offset_5 448
Offset_6 501
Offset_7 579
Offset_8 510
Offset_9 465
Offset_10 375
Offset_11 313
Offset_12 284
Offset_13 199
Offset_14 228
Offset_15 189
Offset_16 219
Offset_17 142
Offset_18 126
Offset_19 235
Offset_20 139
Offset_21 235
Offset_22 390
Offset_23 241
Offset_24 324
Offset_25 88
Offset_47 80
decode_dispatch_called: 25772933 71.5543
Dispatch_width: 0 13840483 53.7016 38.4258
Dispatch_width: 1 984526 3.82 2.73337
Dispatch_width: 2 833453 3.23383 2.31394
Dispatch_width: 3 495155 1.92122 1.37472
Dispatch_width: 4 5853691 22.7126 16.2518
Dispatch_width: 5 145472 0.564437 0.403879
Dispatch_width: 6 3620153 14.0463 10.0508
Empty_decode_cycles: 10245786 28.4457
ROB_full_cycles: 9247280 25.6735
Starvation_cycles_per_kilo_instr: 231.513
Starvation_cycles_per_kilo_instr_3: 171.521
Starvation_cycles_per_kilo_instr_0: 148.39
Branch_type_1  (3,1)  (4,7)  (5,36)  (6,70)  (7,114)  (8,127)  (9,124)  (10,98)  (11,70)  (12,51)  (13,5)  (14,2)  (15,3)  (16,4)  (18,1)  (19,4)  (20,2)  (21,1)  (22,3)  (23,2)  (24,10)  (25,12) 
Branch_type_2  (3,1)  (5,1)  (8,3)  (9,3)  (12,1)  (13,1)  (14,1)  (16,3)  (17,2)  (20,2)  (21,2)  (23,5)  (24,1)  (47,36) 
Branch_type_3  (3,4047)  (4,236)  (5,407)  (6,415)  (7,434)  (8,319)  (9,255)  (10,150)  (11,128)  (12,59)  (13,4) 
Branch_type_4  (6,4)  (7,8)  (8,26)  (9,51)  (10,60)  (11,59)  (12,95)  (13,86)  (14,101)  (15,89)  (16,98)  (17,63)  (18,57)  (19,114)  (20,72)  (21,124)  (22,207)  (23,136)  (24,186)  (25,72) 
Branch_type_5  (8,2)  (9,1)  (10,3)  (11,5)  (12,3)  (13,14)  (14,16)  (15,11)  (16,20)  (17,11)  (18,16)  (19,12)  (20,10)  (21,13)  (22,42)  (23,26)  (24,36) 
Branch_type_6  (5,4)  (6,12)  (7,23)  (8,33)  (9,31)  (10,64)  (11,51)  (12,75)  (13,89)  (14,108)  (15,86)  (16,94)  (17,66)  (18,52)  (19,105)  (20,53)  (21,95)  (22,138)  (23,72)  (24,91)  (25,4)  (47,44) 
Unique trigger count: 
BTB PER SET UNIQUE ADDR: 4 3 4 6 2 2 2 3 3 3 4 3 3 5 4 5 2 5 3 3 3 2 4 4 3 4 4 4 3 5 3 4 2 4 4 4 3 3 4 3 3 4 3 4 1 2 2 4 4 3 3 5 3 3 2 4 4 4 4 5 3 2 3 3 4 1 3 2 3 3 3 4 3 4 4 4 4 2 4 3 3 3 4 5 3 2 5 3 3 3 3 4 3 2 3 2 5 3 4 7 2 4 3 4 5 5 5 3 4 3 3 2 3 4 4 2 4 3 2 3 3 5 3 2 3 3 3 3 4 4 4 2 4 3 3 5 4 2 4 5 3 3 4 4 4 3 3 3 4 5 4 3 3 3 4 4 4 3 5 4 3 2 1 3 2 2 2 4 5 4 3 4 4 3 3 4 3 3 3 1 3 4 3 3 5 2 3 3 4 2 3 4 3 2 3 2 4 4 2 3 4 2 4 4 1 5 2 4 3 3 4 3 4 3 2 4 4 3 6 3 4 3 4 2 2 4 2 2 5 4 2 5 4 3 4 3 3 5 3 4 4 4 4 5 2 3 4 2 4 3 2 5 4 4 3 4 4 5 5 3 4 3 3 3 5 4 3 4 4 3 3 2 4 3 5 5 8 3 4 4 4 2 3 5 4 3 5 5 3 4 3 3 2 3 4 5 3 4 4 2 6 3 4 3 3 4 3 5 4 3 3 3 4 2 3 3 5 3 3 2 4 4 3 3 4 4 5 2 4 4 1 3 3 3 2 4 4 2 4 4 3 4 4 2 3 4 2 4 3 4 2 3 3 2 3 5 4 4 3 3 3 4 3 2 4 4 5 4 2 2 4 3 4 3 1 3 4 3 3 2 4 5 3 4 4 4 4 4 5 3 3 4 4 4 3 4 3 2 3 4 4 4 3 2 3 3 3 4 5 4 3 2 1 4 4 2 3 2 4 2 2 2 3 6 3 1 4 4 2 3 3 3 3 3 3 2 4 2 2 3 3 3 3 3 3 3 4 2 3 3 4 1 4 4 4 3 4 3 3 4 3 3 3 3 3 4 3 3 3 3 4 4 5 4 4 4 2 2 3 2 3 2 3 2 2 4 2 5 4 6 4 3 4 3 4 4 5 2 3 5 4 3 3 3 4 3 4 4 4 4 2 3 3 4 2 4 5 4 5 4 4 4 3 2 4 3 1 3 2 4 4 2 4 3 4 3 2 4 3 3 4 5 3 3 3 2 3 2 3 3 3 4 4 4 4 3 3 3 4 2 3 3 3 4 3 4 3 4 2 3 3 3 2 4 2 5 4 4 3 3 1 4 3 2 3 4 3 2 4 4 3 2 5 4 4 3 3 5 4 2 2 4 3 2 3 3 4 3 3 4 3 3 2 3 2 2 4 3 5 4 3 2 3 3 4 3 1 4 2 4 3 4 3 3 3 2 3 5 4 4 5 4 1 2 3 5 2 3 2 4 3 3 4 3 2 4 4 4 4 3 2 3 4 4 4 4 4 2 3 3 4 3 2 3 3 2 4 3 4 4 3 3 2 4 4 3 2 4 4 2 3 2 3 5 3 3 2 4 2 5 2 3 5 2 5 4 3 2 4 4 3 2 3 4 3 3 4 2 3 3 6 4 2 3 4 4 4 3 2 4 5 4 3 4 4 3 3 4 3 4 3 5 5 4 4 2 3 4 3 3 4 5 3 5 4 3 3 3 1 3 4 3 3 4 5 4 3 5 3 4 4 4 2 4 3 4 3 4 2 4 5 3 5 4 4 3 2 4 4 3 3 3 3 3 5 4 4 2 3 3 5 3 4 2 3 4 4 5 2 5 2 2 1 5 5 2 2 2 5 4 4 4 5 4 4 3 4 3 4 4 6 3 3 3 3 4 4 5 3 2 2 3 2 2 4 2 4 4 2 4 3 3 2 4 4 3 2 3 2 2 2 6 3 4 4 2 2 3 4 4 3 3 3 4 3 3 5 4 3 4 5 4 4 3 4 4 3 4 2 2 3 2 2 2 2 3 2 2 4 2 5 3 2 3 4 3 4 4 3 2 5 2 3 3 5 4 3 2 3 2 3 2 4 3 4 4 4 4 4 4 3 3 4 4 4 3 4 2 3 3 5 3 3 4 4 3 2 5 5 3 4 5 3 2 3 3 3 3 3 2 5 4 4 3 3 3 4 4 2 4 2 3 2 3 4 4 2 2 3 3 4 4 3 4 5 3 4 2 5 4 4 2 5 4 5 3 3 3 3 3 3 2 4 2 3 3 4 4 2 3 4 3 5 2 4 4 4 3 3 4 2 3 3 3 4 3 3 4 3 2 5 4 3 3 4 3 2 3 5 3 3 3 3 4 4 3 4 4 2 4 3 3 4 4 3 2 5 3 3 4 4 3 4 3 3 2 2 4 4 3 5 4 3 2 3 4 3 2 3 4 3 3 4 2 4 3 5 3 2 2 2 4 3 6 4 4 3 4 3 2 4 3 4 3 4 3 2 5 3 2 4 6 3 2 4 2 4 4 5 3 3 2 2 4 4 5 4 4 4 3 2 3 3 2 2 3 4 2 3 2 4 3 3 3 3 2 3 4 5 4 2 3 2 3 3 2 3 3 3 3 3 3 4 4 3 3 5 4 2 4 3 2 4 4 2 2 4 2 4 6 3 2 5 4 4 2 4 3 6 4 3 2 3 1 3 5 4 5 4 2 3 2 1 3 4 3 3 1 4 3 3 4 3 3 3 3 4 3 4 4 5 1 3 4 3 4 2 5 3 3 3 2 2 3 4 5 4 2 4 4 2 5 4 3 2 4 4 3 3 3 3 5 3 3 4 3 3 4 2 3 3 4 6 4 3 5 3 3 4 3 4 4 2 2 3 3 4 3 4 4 4 4 4 4 4 4 4 2 4 4 4 3 4 4 3 4 4 4 3 5 4 3 3 3 3 3 2 3 3 5 3 4 4 2 3 5 5 3 3 3 3 3 2 3 4 3 3 4 3 2 2 3 5 5 2 4 2 4 4 4 3 3 3 3 4 3 2 3 4 2 4 3 4 5 3 3 3 1 4 4 3 4 3 2 3 4 2 5 4 4 3 4 1 3 2 3 3 4 3 3 2 3 2 1 4 3 4 4 4 3 4 4 2 3 1 3 3 4 3 2 4 3 4 2 3 4 4 2 4 3 4 4 5 4 3 4 4 5 2 3 3 3 2 3 3 2 2 2 5 5 4 3 3 3 2 5 3 3 3 3 3 4 2 2 3 4 5 4 3 3 5 4 3 3 2 5 4 4 3 4 4 4 3 4 3 4 3 3 4 5 5 2 3 3 3 4 2 2 3 4 4 5 3 3 3 4 3 3 4 4 2 3 2 2 5 3 3 4 2 4 3 5 2 3 4 2 4 3 3 4 3 3 5 3 2 3 4 5 3 4 3 3 3 5 3 2 3 3 3 4 3 3 4 2 3 2 3 2 2 3 3 4 5 4 2 4 3 3 2 3 3 2 4 4 3 3 3 3 4 2 4 2 3 3 1 3 2 5 7 4 5 4 3 3 2 2 5 2 3 3 2 2 3 2 3 4 4 3 3 3 4 2 5 3 3 2 3 3 3 4 3 3 3 3 4 2 4 3 3 2 4 4 4 2 6 3 3 4 4 3 3 3 2 3 3 5 3 3 3 4 3 5 4 4 2 3 4 2 4 3 2 3 2 3 3 3 5 3 3 3 4 2 3 3 3 2 5 4 3 3 3 4 3 4 3 4 3 5 4 2 3 3 3 3 3 4 2 3 3 3 4 4 3 3 2 2 3 3 2 3 2 5 4 3 2 4 3 3 4 3 4 5 6 2 2 5 5 4 4 2 4 2 2 3 3 4 4 2 4 5 3 2 4 2 3 4 5 2 4 2 4 4 4 3 4 3 3 4 3 4 4 4 4 4 2 4 4 3 3 4 3 3 3 3 5 3 2 2 4 3 4 2 4 3 3 3 3 4 2 3 4 2 4 4 2 4 5 5 4 3 3 5 3 5 2 4 3 3 3 3 2 4 2 3 4 4 3 2 3 3 3 3 5 4 2 4 4 3 4 3 3 4 5 3 2 3 4 4 2 3 3 5 4 3 4 3 3 5 4 2 3 3 3 1 4 3 4 3 3 3 3 3 4 4 4 2 3 4 4 4 5 5 4 4 3 4 4 3 3 3 2 4 5 5 2 3 3 4 4 2 2 3 4 3 3 3 4 4 2 4 3 3 3 2 3 4 2 3 4 3 3 4 3 4 3 3 3 5 3 2 3 4 2 3 4 3 2 1 3 4 3 3 4 3 3 3 4 3 3 3 3 2 2 4 3 4 3 3 4 4 3 2 4 3 3 3 4 4 3 5 3 3 4 5 4 3 4 2 5 2 4 4 4 4 4 3 4 4 3 4 5 4 3 3 4 3 5 4 3 3 2 4 4 2 4 5 6 4 1 4 3 4 4 3 5 5 3 4 4 3 4 3 4 4 4 3 3 3 1 3 4 3 2 3 2 3 2 1 4 3 1 5 4 4 2 2 3 3 4 2 4 4 3 3 3 3 4 3 3 3 4 3 4 3 4 3 4 6 4 3 3 4 3 3 2 2 3 5 
BTB PER SET COUNT: 4 1467 1467 8 2 2 2 3 4 3 4 3 3 992 4 5 2 5 3 4 3 2 4 5 500 347 5 4 3 6 3 4 2 970 4 4 4 3 4 3 3 998 3 4 1 605 2 4 4 3 3 5 3 3 2 4 501 998 4 5 969 2 3 3 4 1 3 2 3 6 3 4 3 4 5 4 4 3 972 3 3 4 5 6 3 3 5 3 502 3 3 13 3 2 3 2 6 3 4 7 4 6 3 4 6 5 6 5 5 3 3 2 3 4 7 2 4 3 2 1963 4 7 1472 2 3 3 4 3 4 5 4 2 4 3 3 5 4 2 4 5 5 3 5 4 4 3 5 3 4 8 4 473 4 3 4 971 4 3 5 6 3 2 1 3 2 2 450 4 6 5 4 5 5 3 3 5 3 3 3 1 3 4 3 3 141 2 3 3 4 3 3 4 4 2 3 2 6 4 1465 3 4 1466 4 4 1 5 2 5 37 3 6 4 4 3 2 4 4 4 6 3 4 3 4 2 2 4 2 2 638 4 80 5 4 22 4 3 3 11 4 4 4 4 4 5 2 3 4 105 4 3 2 29 8 4 3 8 1467 5 5 3 4 3 3 3 5 4 3 5 4 4 3 2 4 3 5 7 8 3 7 4 4 2 3 6 4 3 7 7 3 4 3 3 2 3 501 6 3 5 4 2 7 3 1469 3 3 4 3 5 5 9 4 7 4 2 3 3 5 3 3 2 4 6 3 3 4 9 23 2 5 4 1 3 3 3 2 4 4 2 4 4 4 4 4 2 3 4 2 5 4 4 2 3 3 2 4 373 7 4 4 12 3 5 3 2 5 2435 5 5 2 2 4 3 970 3 1 3 4 3 3 2 5 237 3 4 5 5 6 4 5 4 3 4 4 4 3 4 1337 2 3 5 4 214 3 2 3 3 3 13 5 5 4 2 1 4 4 2 3 2 4 2 3 2 3 7 3 209 4 4 2 4 3 9 3 3 3 2 5 3 2 3 7 3 5 3 381 3 1468 2 3 6 4 213 4 4 4 3 4 3 997 4 997 3 996 3 5 4 4 3 3 3 4 473 5 4 970 4 2 2 4 2 3 2 3 2 2 6 2 6 4 6 970 5 8 3 5 970 5 2 3 5 4 3 3 3 4 3 6 4 4 5 2 3 3 4 2 4 9 501 5 4 5 5 3 2 4 3 1 3 2 4 4 2 4 5 25 3 2 4 5 3 4 5 3 3 3 2 3 2 4 3 4 4 998 4 4 3 3 3 4 4 998 7873 4 4 3 4 998 4 996 3 3 3 2 6 2 5 5 4 3 3 5 4 3 2 6 4 4 2 4 944 3 2 5 998 779 3 3 5 6 2 2 4 997 2 4 3 998 3 3 5 3 4 968 3 3 2 4 4 6 4 4 2 381 3 4 3 1 4 2 4 997 4 3 3 3 2 4 5 4 4 5 5 1 2 4 5 2 3 3 501 3 3 4 4 2 4 4 6 4 3 2 3 4 4 4 500 4 2 3 3 4 3 2 4 3 2 4 3 4 5 969 4 2 6 4 3 2 4 4 2 3 2 3 5 3 3 2 4 3 5 2 3 5 2 5 5 4 2 5 4 3 4 3 4 3 998 4 2 3 3 6 4 2 3 4 4 6 3 2 477 5 4 3 4 4 3 3 7 3 4 3 5 5 4 5 2 4 4 3 3 4 5 3 5 4 3 3 3 1 969 6 373 3 36 7 4 3 1084 3 4 4 4 3 4 3 4 3 4 2 4 6 3 5 4 4 3 2 4 133 3 4 3 3 3 551 6 4 2 3 3 5 3 4 2 3 5 4 5 2 6 2 2 1 6 7 4 2 2 7 4 4 4 5 4 4 3 4 3 4 501 7 3 3 3 3 4 4 5 3 2 2 3 2 2 4 2 4 5 2 4 3 3 2 501 5 3 2 4 2 3 2 7 3 4 4 2 2 3 4 4 4 3 3 5 3 3 5 7 3 5 5 4 4 3 6 5 3 4 2 2 1466 2 2 2 2 3 369 2 4 2 7 3 2 996 4 3 4 4 3 2 5 2 3 4 5 6 3 2 3 3 500 2 4 3 4 4 16 4 5 6 3 3 971 4 4 3 4 2 3 3 5 3 3 4 4 3 2 5 7 3 4 10 3 2 3 3 3 3 1991 2 5 4 4 4 3 3 501 4 2 11 2 3 2 5 5 4 2 2 3 5 4 4 3 5 5 4 5 968 6 4 5 3 5 4 6 3 3 3 3 54 3 3 6 1989 4 4 4 4 1465 3 4 3 7 2 5 4 6 3 4 4 2 3 3 3 4 3 3 5 4 3 5 4 3 6 4 4 2 3 7 3 3 501 968 4 4 3 501 501 2 5 3 3 4 6 3 2 5 3 1466 4 4 3 4 4 3 2 2 4 6 3 5 4 4 2 3 4 3 2 3 7 4 3 4 2 4 3 6 3 2 2 2 4 3 7 4 4 4 4 102 2 5 4 5 3 4 3 40 7 3 2 372 8 3 2 5 2 5 4 6 3 3 2 2 4 4 5 4 5 4 3 2 4 3 2 2 3 4 2 4 2 4 20525 3 3 500 2 3 4 5 4 2 3 2 3 3 2 3 3 3 3 3 3 4 4 4 3 5 4 2 6 500 3 4 4 2 2 4 2 10 11 1466 2 5 4 265 2 4 3 6 4 3 2 3 1 1947 7 4 5 98 2 5 2 1 4 4 3 3 1 4 409 3 4 3 1466 3 3 4 3 4 4 6 1 3 4 3 4 2 5 3 3 3 2 2 3 2350 5 1456 2 4 4 2 13 4 3 2 4 1467 3 3 3 3 505 3 471 5 4 3 4 2 3 3 34 8 4 3 5 3 3 4 3 4 4 2 2 3 3 4 3 4 4 5 123 4 6 4 4 4 2 4 4 5 3 5 4 4 4 4 4 3 5 6 3 3 3 3 4 2 3 3 6 3 4 4 31 3 6 6 3 4 3 3 3 2 3 4 3 3 1468 3 1465 2 5 5 5 3 4 1465 4 4 4 3 3 3 3 4 3 2 3 5 2 4 3 4 5 3 4 4 1 4 4 3 4 3 2 3 4 2 6 4 4 3 5 1 3 6 3 3 5 3 3 2 3 2 1 4 4 4 4 4 9 5 4 2 3 1 3 3 4 3 2 6 3 4 2 3 6 4 2 5 3 4 4 5 4 3 5 4 5 2 3 3 3 2 3 3 2 3 2 6 1938 48 3 3 1937 2 253 3 3 4 3 3 5 4 2 3 4 6 5 3 3 5 111 3 3 2 5 4 4 3 4 4 4 3 4 3 4 4 3 4 5 5 2 3 3 3 4 2 2 6 4 4 5 969 3 4 4 3 3 4 5 2 3 2 2 6 3 3 4 2 4 3 5 2 3 4 968 4 3 3 7 3 3 5 3 2 3 5 5 3 4 4 3 3 5 3 3 3 3 970 4 3 3 4 2 3 2 3 2 5 3 3 5 7 4 2 6 4 3 2 3 3 3 4 5 3 3 3 3 6 2 4 2 3 3 1 3 2929 9 8 5 5 5 3 3 2 2 7 2 3 1466 2 2 3 2 3 4 5 3 3 3 4 2 6 5 3 2 3 4 4 4 3 3 3 188 5 2 5 3 3 3 4 4 4 2 6 3 6 4 452 4 3 3 2 3 3 8 3 3 3 4 3 7 105 4 2 3 4 2 4 3 2 3 3 790 3 3 6 4 3 3 4 461 3 3 4 2 5 4 4 4 3 5 3 4 3 4 75 5 4 2 3 5 3 4 3 4 2 7 5 3 4 5 3 3 2 2 3 3 2 3 2 6 4 3 2 5 3 3 5 3 5 10 8 3 2 222 242 4 4 2 5 2 2 3 3 4 5 2 4 5 3 2 4 2 3 4 5 261 4 2 5 4 6 3 4 3 4 4 3 4 4 5 4 4 2 4 132 3 7 6 3 3 3 3 5 3 2 2 4 3 5 2 4 5 3 3 3 5 2 3 5 2 4 5 2 4 6 5 4 500 3 5 3 201 2 4 151 3 3 3 2 4 2 3 4 4 3 3 3 3 3 3 971 4 2 4 4 3 4 3 4 4 5 3 2 3 4 93 2 3 3 5 4 4 4 3 1466 5 4 2 500 4 3 1 5 3 4 3 3 3 4 3 4 4 6 1465 3 4 4 4 5 8 4 4 3 4 4 3 1467 3 2 4 5 6 2 3 3 4 11 2 2 3 5 3 3 3 4 970 2 5 4 3 3 2 3 4 2 3 4 3 3 4 3 5 9 3 3 5 1467 2 14622 4 2 3 5 3 2 1 3 4 4 3 4 3 3 3 6 3 3 3 4 2 2 4 3 4 3 3 4 6 3 2 4 4 4 3 5 4 4 5 3 3 4 5 4 3 4 2 5 2 4 4 4 30 4 3 4 4 3 4 5 4 3 3 4 3 6 998 4 3 5 4 5 2 2981 5 8 5 1 5 896 4 4 4 7 5 3 4 4 3 4 4 4 4 5 3 3 500 2 4 4 3 2 3 2 3 1336 1 4 3 1 5 4 4 2 3 3 3 14 1465 5 5 3 1466 5 4 4 3 3 3 4 3 1000 3 8 4 145 6 4 3 3 4 3 3 3 2 3 5 
