
*** ChampSim Multicore Out-of-Order Simulator ***

Warmup Instructions: 50000000
Simulation Instructions: 50000000
Number of CPUs: 1
LLC sets: 2048
LLC ways: 16
Off-chip DRAM Size: 4096 MB Channels: 1 Width: 64-bit Data Rate: 6400 MT/s
CPU 0 runs ./micro_traces/srv163.trace.gz
.gz
ITLB has LRU replacement policy
DTLB has LRU replacement policy
STLB has LRU replacement policy
FDIP Prefetcher at L1I
L1I has LRU replacement policy
L1D has LRU replacement policy
Initialize SRRIP state for L2C
Initialize DRRIP state for LLC
Heartbeat CPU 0 instructions: 10000001 cycles: 2798151 heartbeat IPC: 3.57379 cumulative IPC: 3.57379 (Simulation time: 0 hr 1 min 58 sec) 
Heartbeat CPU 0 instructions: 20000001 cycles: 5594906 heartbeat IPC: 3.57557 cumulative IPC: 3.57468 (Simulation time: 0 hr 3 min 55 sec) 
Heartbeat CPU 0 instructions: 30000003 cycles: 8390683 heartbeat IPC: 3.57682 cumulative IPC: 3.57539 (Simulation time: 0 hr 5 min 48 sec) 
Heartbeat CPU 0 instructions: 40000002 cycles: 11187125 heartbeat IPC: 3.57597 cumulative IPC: 3.57554 (Simulation time: 0 hr 7 min 45 sec) 
Heartbeat CPU 0 instructions: 50000001 cycles: 13983365 heartbeat IPC: 3.57623 cumulative IPC: 3.57568 (Simulation time: 0 hr 9 min 44 sec) 

Warmup complete CPU 0 instructions: 50000001 cycles: 13983365 (Simulation time: 0 hr 9 min 44 sec) 

Cycle: 20000000 FTQ IN: 58826312 FTQ occupancy: 21.2474 DECODE IN: 58826187 DECODE occupancy: 55.6905 ROB IN: 58826127 ROB occupancy: 332.298 ROB OUT: 58825779
Heartbeat CPU 0 instructions: 60000002 cycles: 20811804 heartbeat IPC: 1.46446 cumulative IPC: 1.46446 (Simulation time: 0 hr 12 min 12 sec) 
Heartbeat CPU 0 instructions: 70000001 cycles: 27657968 heartbeat IPC: 1.46067 cumulative IPC: 1.46257 (Simulation time: 0 hr 14 min 37 sec) 
Cycle: 30000000 FTQ IN: 14607399 FTQ occupancy: 17.2431 DECODE IN: 14607420 DECODE occupancy: 45.6631 ROB IN: 14607420 ROB occupancy: 294.942 ROB OUT: 14607417
Heartbeat CPU 0 instructions: 80000002 cycles: 34462595 heartbeat IPC: 1.46959 cumulative IPC: 1.4649 (Simulation time: 0 hr 17 min 12 sec) 
Cycle: 40000000 FTQ IN: 14703295 FTQ occupancy: 17.3291 DECODE IN: 14703399 DECODE occupancy: 45.8834 ROB IN: 14703459 ROB occupancy: 295.948 ROB OUT: 14703776
Heartbeat CPU 0 instructions: 90000000 cycles: 41349263 heartbeat IPC: 1.45208 cumulative IPC: 1.46167 (Simulation time: 0 hr 19 min 30 sec) 
Heartbeat CPU 0 instructions: 100000003 cycles: 48156704 heartbeat IPC: 1.46898 cumulative IPC: 1.46313 (Simulation time: 0 hr 21 min 55 sec) 
Finished CPU 0 instructions: 50000002 cycles: 34173339 cumulative IPC: 1.46313 (Simulation time: 0 hr 21 min 55 sec) 

ChampSim completed all CPUs

Region of Interest Statistics

CPU 0 cumulative IPC: 1.46313 instructions: 50000002 cycles: 34173339
 Fetch stage stalled: 23.8618  Sim cycles: 34173339 fetch stall cycle: 8154391
 Empty decode stage: 8.27632  Sim cycles: 34173339 fetch stall cycle: 2828296
ITLB TOTAL     ACCESS:    5829859  HIT:    5334824  MISS:     495035  HIT %:    91.5086  MISS %:    8.49137   MPKI: 9.9007
ITLB LOAD TRANSLATION INSTRUCTION	ACCESS:    5671994  HIT:    5176959  MISS:     495035  HIT %:    91.2723  MISS %:    8.72771  MPKI: 9.9007
ITLB TRANSLATION FROM L1D PREFETCHER INSTRUCTION	ACCESS:     157865  HIT:     157865  MISS:          0  HIT %:        100  MISS %:          0  MPKI: 0

ITLB AVERAGE MISS LATENCY: 9.04695 cycles
ITLB RQ	ACCESS:    7859554	FORWARD:          0	MERGED:    1450000	TO_CACHE:    6409554

DTLB TOTAL     ACCESS:    8905011  HIT:    8430371  MISS:     474640  HIT %:      94.67  MISS %:    5.33003   MPKI: 9.4928
DTLB LOAD TRANSLATION DATA	ACCESS:    8905011  HIT:    8430371  MISS:     474640  HIT %:      94.67  MISS %:    5.33003  MPKI: 9.4928

DTLB AVERAGE MISS LATENCY: 9.31401 cycles
DTLB RQ	ACCESS:   13289761	FORWARD:          0	MERGED:    4347279	TO_CACHE:    8942482

STLB TOTAL     ACCESS:    1213742  HIT:    1211856  MISS:       1886  HIT %:    99.8446  MISS %:   0.155387   MPKI: 0.03772
STLB LOAD TRANSLATION INSTRUCTION	ACCESS:     495035  HIT:     494819  MISS:        216  HIT %:    99.9564  MISS %:  0.0436333  MPKI: 0.00432
STLB LOAD TRANSLATION DATA	ACCESS:     474640  HIT:     472983  MISS:       1657  HIT %:    99.6509  MISS %:   0.349107  MPKI: 0.03314
STLB TRANSLATION FROM L1D PREFETCHER DATA	ACCESS:     244067  HIT:     244054  MISS:         13  HIT %:    99.9947  MISS %: 0.00532641  MPKI: 0.00026

STLB AVERAGE MISS LATENCY: 72.8001 cycles
STLB RQ	ACCESS:    1333742	FORWARD:          0	MERGED:     119952	TO_CACHE:    1213790

STLB Hit, L1D data hit: 0
STLB Hit, L2C data hit: 0
STLB Hit, LLC data hit: 0
STLB Hit, LLC data miss: 0
STLB STLB hints to L2: 0
L1D TOTAL     ACCESS:   13032868  HIT:   11915630  MISS:    1117238  HIT %:    91.4275  MISS %:    8.57246   MPKI: 22.3448
L1D LOAD DATA	ACCESS:    6507388  HIT:    5769811  MISS:     737577  HIT %:    88.6655  MISS %:    11.3345  MPKI: 14.7515
L1D RFO DATA	ACCESS:    6201281  HIT:    5916504  MISS:     284777  HIT %:    95.4078  MISS %:    4.59223  MPKI: 5.69554
L1D PREFETCH DATA	ACCESS:     324199  HIT:     229315  MISS:      94884  HIT %:    70.7328  MISS %:    29.2672  MPKI: 1.89768

L1D PREFETCH  REQUESTED:     728452  ISSUED:     728452  USEFUL:      33110  USELESS:      68820
L1D USEFUL LOAD PREFETCHES:      33110 PREFETCH ISSUED TO LOWER LEVEL:     101985  ACCURACY: 32.4656
 TIMELY PREFETCHES:      33110 LATE PREFETCHES: 7049 DROPPED PREFETCHES: 7
L1D AVERAGE MISS LATENCY: 200291 cycles
L1D RQ	ACCESS:   10653504	FORWARD:          0	MERGED:    3949562	TO_CACHE:    6541146
L1D WQ	ACCESS:    6949899	FORWARD:     163114	MERGED:     201284	TO_CACHE:    6748615
L1D PQ	ACCESS:     364385	FORWARD:          0	MERGED:          0	TO_CACHE:     364067

L1D UNIQUE REGIONS ACCESSED: 0
L1D REGIONS CONFLICTS: 0
L1D Cross Page Prefetch Requests: 6731
L1D Same Page Prefetch Requests: 741552
L1D ROI Sum of L1D PQ occupancy: 4625002
L1D PREFETCHES PUSHED FROM L2C: 0
L1I TOTAL     ACCESS:    7021825  HIT:    4251862  MISS:    2769963  HIT %:    60.5521  MISS %:    39.4479   MPKI: 55.3993
L1I LOAD INSTRUCTION	ACCESS:    6353351  HIT:    3583388  MISS:    2769963  HIT %:    56.4015  MISS %:    43.5985  MPKI: 55.3993
L1I PREFETCH INSTRUCTION	ACCESS:     668474  HIT:     668474  MISS:          0  HIT %:        100  MISS %:          0  MPKI: 0

L1I PREFETCH  REQUESTED:    1676768  ISSUED:    1676768  USEFUL:          0  USELESS:          0
L1I USEFUL LOAD PREFETCHES:          0 PREFETCH ISSUED TO LOWER LEVEL:          0  ACCURACY: -nan
 TIMELY PREFETCHES:          0 LATE PREFETCHES: 0 DROPPED PREFETCHES: 0
L1I AVERAGE MISS LATENCY: 17.27 cycles
L1I RQ	ACCESS:    9801476	FORWARD:          0	MERGED:    3182361	TO_CACHE:    6619115
L1I PQ	ACCESS:    1676768	FORWARD:          0	MERGED:     436329	TO_CACHE:    1240439

L1BTB TOTAL     ACCESS:    5373316  HIT:    5340938  MISS:      32378  HIT %:    99.3974  MISS %:    0.60257   MPKI: 0.64756
L1BTB BRANCH_DIRECT_JUMP	ACCESS:     547550  HIT:     547550  MISS:          0	AVERAGE STALL: -nan
L1BTB BRANCH_INDIRECT	ACCESS:     182352  HIT:     169407  MISS:      12945	AVERAGE STALL: 121.898
L1BTB BRANCH_CONDITIONAL	ACCESS:    2399792  HIT:    2399792  MISS:          0	AVERAGE STALL: -nan
L1BTB BRANCH_DIRECT_CALL	ACCESS:     949024  HIT:     949024  MISS:          0	AVERAGE STALL: -nan
L1BTB BRANCH_INDIRECT_CALL	ACCESS:     172785  HIT:     153352  MISS:      19433	AVERAGE STALL: 164.396
L1BTB BRANCH_RETURN	ACCESS:    1121813  HIT:    1121813  MISS:          0	AVERAGE STALL: -nan
L1BTB BRANCH_OTHER ACCESS:          0  HIT:          0  MISS:          0	AVERAGE STALL: -nan
L1BTB TOTAL ROB OCCUPANCY AT BTB MISS: 148.984

L2BTB BRANCH_DIRECT_JUMP	ACCESS:          0  HIT:          0  MISS:          0	AVERAGE STALL: -nan
L2BTB BRANCH_INDIRECT	ACCESS:          0  HIT:          0  MISS:          0	AVERAGE STALL: 121.898
L2BTB BRANCH_CONDITIONAL	ACCESS:          0  HIT:          0  MISS:          0	AVERAGE STALL: -nan
L2BTB BRANCH_DIRECT_CALL	ACCESS:          0  HIT:          0  MISS:          0	AVERAGE STALL: -nan
L2BTB BRANCH_INDIRECT_CALL	ACCESS:          0  HIT:          0  MISS:          0	AVERAGE STALL: 164.396
L2BTB BRANCH_RETURN	ACCESS:          0  HIT:          0  MISS:          0	AVERAGE STALL: -nan
L2BTB BRANCH_OTHER ACCESS:          0  HIT:          0  MISS:          0	AVERAGE STALL: -nan
L2BTB TOTAL ROB OCCUPANCY AT BTB MISS: inf

L2C TOTAL     ACCESS:    4493049  HIT:    4033804  MISS:     459245  HIT %:    89.7788  MISS %:    10.2212   MPKI: 9.1849
L2C LOAD INSTRUCTION	ACCESS:    2769962  HIT:    2521723  MISS:     248239  HIT %:    91.0382  MISS %:    8.96182  MPKI: 4.96478
L2C LOAD TRANSLATION INSTRUCTION	ACCESS:        239  HIT:         64  MISS:        175  HIT %:    26.7782  MISS %:    73.2218  MPKI: 0.0035
L2C LOAD DATA	ACCESS:     730506  HIT:     659751  MISS:      70755  HIT %:    90.3142  MISS %:    9.68575  MPKI: 1.4151
L2C RFO DATA	ACCESS:     284694  HIT:     228701  MISS:      55993  HIT %:    80.3322  MISS %:    19.6678  MPKI: 1.11986
L2C PREFETCH DATA	ACCESS:     184197  HIT:     116564  MISS:      67633  HIT %:    63.2822  MISS %:    36.7178  MPKI: 1.35266
L2C WRITEBACK DATA	ACCESS:     521709  HIT:     506576  MISS:      15133  HIT %:    97.0993  MISS %:    2.90066  MPKI: 0.30266
L2C LOAD TRANSLATION DATA	ACCESS:       1708  HIT:        406  MISS:       1302  HIT %:    23.7705  MISS %:    76.2295  MPKI: 0.02604
L2C TRANSLATION FROM L1D PREFETCHER DATA	ACCESS:         34  HIT:         19  MISS:         15  HIT %:    55.8824  MISS %:    44.1176  MPKI: 0.0003

L2C PREFETCH  REQUESTED:      89469  ISSUED:      89469  USEFUL:       7609  USELESS:      60252
L2C USEFUL LOAD PREFETCHES:       7609 PREFETCH ISSUED TO LOWER LEVEL:      67873  ACCURACY: 11.2106
 TIMELY PREFETCHES:       7609 LATE PREFETCHES: 240 DROPPED PREFETCHES: 0
L2C AVERAGE MISS LATENCY: 38.2869 cycles
L2C RQ	ACCESS:    3787196	FORWARD:          0	MERGED:          0	TO_CACHE:    3787143
L2C WQ	ACCESS:     521709	FORWARD:         53	MERGED:          0	TO_CACHE:     521709
L2C PQ	ACCESS:     191454	FORWARD:          0	MERGED:       3873	TO_CACHE:     187581

L2C Dense regions hint from L2: 0
PSCL5 TOTAL     ACCESS:       3790  HIT:       1895  MISS:       1895  HIT %:         50  MISS %:         50   MPKI: 0.0379
PSCL5 LOAD TRANSLATION INSTRUCTION	ACCESS:       3728  HIT:       1864  MISS:       1864  HIT %:         50  MISS %:         50  MPKI: 0.03728
PSCL5 TRANSLATION FROM L1D PREFETCHER INSTRUCTION	ACCESS:         62  HIT:         31  MISS:         31  HIT %:         50  MISS %:         50  MPKI: 0.00062


PSCL4 TOTAL     ACCESS:       3703  HIT:       1849  MISS:       1854  HIT %:    49.9325  MISS %:    50.0675   MPKI: 0.03708
PSCL4 LOAD TRANSLATION INSTRUCTION	ACCESS:       1824  HIT:       1819  MISS:          5  HIT %:    99.7259  MISS %:   0.274123  MPKI: 0.0001
PSCL4 TRANSLATION FROM L1D PREFETCHER INSTRUCTION	ACCESS:         30  HIT:         30  MISS:          0  HIT %:        100  MISS %:          0  MPKI: 0
PSCL4 LOAD TRANSLATION DATA	ACCESS:       1819  HIT:          0  MISS:       1819  HIT %:          0  MISS %:        100  MPKI: 0.03638
PSCL4 TRANSLATION FROM L1D PREFETCHER DATA	ACCESS:         30  HIT:          0  MISS:         30  HIT %:          0  MISS %:        100  MPKI: 0.0006


PSCL3 TOTAL     ACCESS:       3759  HIT:       1877  MISS:       1882  HIT %:    49.9335  MISS %:    50.0665   MPKI: 0.03764
PSCL3 LOAD TRANSLATION INSTRUCTION	ACCESS:       1852  HIT:       1847  MISS:          5  HIT %:      99.73  MISS %:   0.269978  MPKI: 0.0001
PSCL3 TRANSLATION FROM L1D PREFETCHER INSTRUCTION	ACCESS:         30  HIT:         30  MISS:          0  HIT %:        100  MISS %:          0  MPKI: 0
PSCL3 LOAD TRANSLATION DATA	ACCESS:       1847  HIT:          0  MISS:       1847  HIT %:          0  MISS %:        100  MPKI: 0.03694
PSCL3 TRANSLATION FROM L1D PREFETCHER DATA	ACCESS:         30  HIT:          0  MISS:         30  HIT %:          0  MISS %:        100  MPKI: 0.0006


PSCL2 TOTAL     ACCESS:       3714  HIT:       1819  MISS:       1895  HIT %:    48.9768  MISS %:    51.0232   MPKI: 0.0379
PSCL2 LOAD TRANSLATION INSTRUCTION	ACCESS:       2006  HIT:       1789  MISS:        217  HIT %:    89.1825  MISS %:    10.8175  MPKI: 0.00434
PSCL2 TRANSLATION FROM L1D PREFETCHER INSTRUCTION	ACCESS:         30  HIT:         30  MISS:          0  HIT %:        100  MISS %:          0  MPKI: 0
PSCL2 LOAD TRANSLATION DATA	ACCESS:       1648  HIT:          0  MISS:       1648  HIT %:          0  MISS %:        100  MPKI: 0.03296
PSCL2 TRANSLATION FROM L1D PREFETCHER DATA	ACCESS:         30  HIT:          0  MISS:         30  HIT %:          0  MISS %:        100  MPKI: 0.0006


LLC TOTAL     ACCESS:     521114  HIT:     493894  MISS:      27220  HIT %:    94.7766  MISS %:    5.22343   MPKI: 0.5444
LLC LOAD INSTRUCTION	ACCESS:     248239  HIT:     247645  MISS:        594  HIT %:    99.7607  MISS %:   0.239286  MPKI: 0.01188
LLC LOAD TRANSLATION INSTRUCTION	ACCESS:        175  HIT:        157  MISS:         18  HIT %:    89.7143  MISS %:    10.2857  MPKI: 0.00036
LLC LOAD DATA	ACCESS:      70513  HIT:      67071  MISS:       3442  HIT %:    95.1186  MISS %:    4.88137  MPKI: 0.06884
LLC RFO DATA	ACCESS:      55984  HIT:      42969  MISS:      13015  HIT %:    76.7523  MISS %:    23.2477  MPKI: 0.2603
LLC PREFETCH DATA	ACCESS:      67873  HIT:      58089  MISS:       9784  HIT %:    85.5848  MISS %:    14.4152  MPKI: 0.19568
LLC WRITEBACK DATA	ACCESS:      77013  HIT:      76726  MISS:        287  HIT %:    99.6273  MISS %:   0.372664  MPKI: 0.00574
LLC LOAD TRANSLATION DATA	ACCESS:       1302  HIT:       1225  MISS:         77  HIT %:     94.086  MISS %:    5.91398  MPKI: 0.00154
LLC TRANSLATION FROM L1D PREFETCHER DATA	ACCESS:         15  HIT:         12  MISS:          3  HIT %:         80  MISS %:         20  MPKI: 6e-05

LLC AVERAGE MISS LATENCY: 155.399 cycles
LLC RQ	ACCESS:     376239	FORWARD:          0	MERGED:          0	TO_CACHE:     376228
LLC WQ	ACCESS:      77013	FORWARD:         11	MERGED:          0	TO_CACHE:      77013
LLC PQ	ACCESS:      67873	FORWARD:          0	MERGED:          0	TO_CACHE:      67873

LLC Dense regions hint to LLC: 0

RAW hits: 1976768
Loads Generated: 12630272
Loads sent to L1D: 10653504
Stores Generated: 6949891
Stores sent to L1D: 6949899
Major fault: 0 Minor fault: 2589
Allocated PAGES: 2589

stream: 
stream:times selected: 1173046
stream:pref_filled: 123114
stream:pref_useful: 24201
stream:pref_late: 6568
stream:misses: 7984
stream:misses_by_poll: 0

CS: 
CS:times selected: 174522
CS:pref_filled: 59793
CS:pref_useful: 36574
CS:pref_late: 6385
CS:misses: 15608
CS:misses_by_poll: 6

CPLX: 
CPLX:times selected: 997386
CPLX:pref_filled: 19518
CPLX:pref_useful: 4766
CPLX:pref_late: 3085
CPLX:misses: 93389
CPLX:misses_by_poll: 1

NL_L1: 
NL:times selected: 20424
NL:pref_filled: 741
NL:pref_useful: 325
NL:pref_late: 281
NL:misses: 1703
NL:misses_by_poll: 0

total selections: 2365378
total_filled: 94884
total_useful: 33110
total_late: 17509
total_polluted: 7
total_misses_after_warmup: 771333
conflicts: 5510541

test: 115642

DRAM Statistics
 CHANNEL 0
 RQ ROW_BUFFER_HIT:      10161  ROW_BUFFER_MISS:      16765
 DBUS_CONGESTED:         11
 WQ ROW_BUFFER_HIT:       1227  ROW_BUFFER_MISS:      11616  FULL:          0

 AVG_CONGESTED_CYCLE: 5

CPU 0 Branch Prediction Accuracy: 99.8272% MPKI: 0.31622 Average ROB Occupancy at Mispredict: 207.056
Branch types
NOT_BRANCH: 40847927 81.6959%
BRANCH_DIRECT_JUMP: 547550 1.0951%
BRANCH_INDIRECT: 182352 0.364704%
BRANCH_CONDITIONAL: 6178077 12.3562%
BRANCH_DIRECT_CALL: 949024 1.89805%
BRANCH_INDIRECT_CALL: 172785 0.34557%
BRANCH_RETURN: 1121813 2.24363%
BRANCH_OTHER: 0 0%

DRAM PAGES: 1048576
Allocated PAGES: 2589
Average_ROB_Occupancy: 296.435
Average_Decode_Occupancy: 45.6857
Average_FTQ_Occupancy: 17.2505
Indirect max targets: 14 Average targets: 1.17778
Branch_type:  BRANCH_DIRECT_JUMP:  Count Percentage: 4.12616 5.68841 3.63391 2.28158 8.16701 6.32443 1.45656 68.3219 
Branch_type:  BRANCH_INDIRECT:  Count Percentage: 11.7649 3.39009 2.49567 13.3009 3.35471 2.81794 0.939132 61.9366 
Branch_type:  BRANCH_CONDITIONAL:  Count Percentage: 25.784 2.25495 2.06737 3.01979 3.25032 4.63142 3.73058 55.2615 
Branch_type:  BRANCH_DIRECT_CALL:  Count Percentage: 0.386717 1.80401 0.716855 1.46601 5.2319 2.60505 1.0282 86.7613 
Branch_type:  BRANCH_INDIRECT_CALL:  Count Percentage: 9.53175 0 2.98761 0.000869923 1.36056 1.70998 0.992872 83.4164 
Branch_type:  BRANCH_RETURN:  Count Percentage: 7.49508 2.02348 2.23353 3.08556 3.44563 5.11457 3.61051 72.9916 
Branch_type:  BRANCH_DIRECT_JUMP:  Total Count: 45172 62275 39783 24978 89410 69238 15946 747968 
Branch_type:  BRANCH_INDIRECT:  Total Count: 42894 12360 9099 48494 12231 10274 3424 225816 
Branch_type:  BRANCH_CONDITIONAL:  Total Count: 3184467 278498 255331 372960 401432 572005 460747 6825091 
Branch_type:  BRANCH_DIRECT_CALL:  Total Count: 7327 34180 13582 27776 99127 49357 19481 1643836 
Branch_type:  BRANCH_INDIRECT_CALL:  Total Count: 32871 0 10303 3 4692 5897 3424 287668 
Branch_type:  BRANCH_RETURN:  Total Count: 167920 45334 50040 69129 77196 114587 80890 1635306 
Number of unique branch instructions: 10811
Upper 32 bits: 
aaaa
ffff
ffff0000
Unique upper 32 bits: 3
Unique upper 36 bits: 3
Unique upper 40 bits: 5
Unique upper 44 bits: 32
Unique upper 48 bits: 158
Offset_3 4470
Offset_4 255
Offset_5 484
Offset_6 541
Offset_7 643
Offset_8 577
Offset_9 523
Offset_10 426
Offset_11 360
Offset_12 327
Offset_13 240
Offset_14 247
Offset_15 194
Offset_16 233
Offset_17 169
Offset_18 149
Offset_19 257
Offset_20 143
Offset_21 235
Offset_22 413
Offset_23 241
Offset_24 351
Offset_25 117
Offset_47 94
Offset_64 2
decode_dispatch_called: 27647784 80.9045
Dispatch_width: 0 14347033 51.8922 41.9831
Dispatch_width: 1 1276961 4.61867 3.73672
Dispatch_width: 2 1032416 3.73417 3.02112
Dispatch_width: 3 605592 2.19038 1.77212
Dispatch_width: 4 8701545 31.4728 25.463
Dispatch_width: 5 70487 0.254946 0.206263
Dispatch_width: 6 1613750 5.83681 4.72225
Empty_decode_cycles: 6525555 19.0955
ROB_full_cycles: 13890636 40.6476
Starvation_cycles_per_kilo_instr: 186.69
Starvation_cycles_per_kilo_instr_3: 98.9692
Starvation_cycles_per_kilo_instr_0: 69.8195
Branch_type_1  (3,1)  (4,9)  (5,39)  (6,74)  (7,126)  (8,148)  (9,136)  (10,110)  (11,78)  (12,55)  (13,11)  (14,2)  (15,3)  (16,4)  (18,1)  (19,5)  (20,2)  (21,1)  (22,3)  (23,2)  (24,10)  (25,12) 
Branch_type_2  (3,1)  (4,1)  (5,1)  (8,4)  (9,4)  (10,1)  (12,1)  (13,1)  (14,1)  (16,3)  (17,2)  (20,2)  (21,2)  (23,5)  (24,1)  (47,43) 
Branch_type_3  (3,4468)  (4,245)  (5,440)  (6,451)  (7,487)  (8,360)  (9,288)  (10,172)  (11,146)  (12,62)  (13,10)  (64,2) 
Branch_type_4  (6,3)  (7,8)  (8,25)  (9,56)  (10,68)  (11,70)  (12,117)  (13,102)  (14,112)  (15,92)  (16,102)  (17,79)  (18,65)  (19,125)  (20,73)  (21,124)  (22,219)  (23,136)  (24,206)  (25,101) 
Branch_type_5  (8,3)  (9,1)  (10,4)  (11,5)  (12,3)  (13,14)  (14,16)  (15,11)  (16,22)  (17,11)  (18,23)  (19,14)  (20,11)  (21,13)  (22,43)  (23,26)  (24,38) 
Branch_type_6  (5,4)  (6,13)  (7,22)  (8,37)  (9,38)  (10,71)  (11,61)  (12,89)  (13,102)  (14,116)  (15,88)  (16,102)  (17,77)  (18,60)  (19,113)  (20,55)  (21,95)  (22,148)  (23,72)  (24,96)  (25,4)  (47,51) 
Unique trigger count: 
BTB PER SET UNIQUE ADDR: 0 0 0 0 0 0 0 0 0 0 0 0 0 0 0 0 0 0 0 0 0 0 0 0 0 0 0 0 0 0 0 0 0 0 0 0 0 0 0 0 0 0 0 0 0 0 0 0 0 0 0 0 0 0 0 0 0 0 0 0 0 0 0 0 0 0 0 0 0 0 0 0 0 0 0 0 0 0 0 0 0 0 0 0 0 0 0 0 0 0 0 0 0 0 0 0 0 0 0 0 0 0 0 0 0 0 0 0 0 0 0 0 0 0 0 0 0 0 0 0 0 0 0 0 0 0 0 0 0 0 0 0 0 0 0 0 0 0 0 0 0 0 0 0 0 0 0 0 0 0 0 0 0 0 0 0 0 0 0 0 0 0 0 0 0 0 0 0 0 0 0 0 0 0 0 0 0 0 0 0 0 0 0 0 0 0 0 0 0 0 0 0 0 0 0 0 0 0 0 0 0 0 0 0 0 0 0 0 0 0 0 0 0 0 0 0 0 0 0 0 0 0 0 0 0 0 0 0 0 0 0 0 0 0 0 0 0 0 0 0 0 0 0 0 0 0 0 0 0 0 0 0 0 0 0 0 0 0 0 0 0 0 0 0 0 0 0 0 0 0 0 0 0 0 0 0 0 0 0 0 0 0 0 0 0 0 0 0 0 0 0 0 0 0 0 0 0 0 0 0 0 0 0 0 0 0 0 0 0 0 0 0 0 0 0 0 0 0 0 0 0 0 0 0 0 0 0 0 0 0 0 0 0 0 0 0 0 0 0 0 0 0 0 0 0 0 0 0 0 0 0 0 0 0 0 0 0 0 0 0 0 0 0 0 0 0 0 0 0 0 0 0 0 0 0 0 0 0 0 0 0 0 0 0 0 0 0 0 0 0 0 0 0 0 0 0 0 0 0 0 0 0 0 0 0 0 0 0 0 0 0 0 0 0 0 0 0 0 0 0 0 0 0 0 0 0 0 0 0 0 0 0 0 0 0 0 0 0 0 0 0 0 0 0 0 0 0 0 0 0 0 0 0 0 0 0 0 0 0 0 0 0 0 0 0 0 0 0 0 0 0 0 0 0 0 0 0 0 0 0 0 0 0 0 0 0 0 0 0 0 0 0 0 0 0 0 0 0 0 0 0 0 0 0 0 0 0 0 0 0 0 0 0 0 0 0 0 0 0 0 0 0 0 0 0 0 0 0 0 0 0 0 0 0 0 0 0 0 0 0 0 0 0 0 0 0 0 0 0 0 0 0 0 0 0 0 0 0 0 0 0 0 0 0 0 0 0 0 0 0 0 0 0 0 0 0 0 0 0 0 0 0 0 0 0 0 0 0 0 0 0 0 0 0 0 0 0 0 0 0 0 0 0 0 0 0 0 0 0 0 0 0 0 0 0 0 0 0 0 0 0 0 0 0 0 0 0 0 0 0 0 0 0 0 0 0 0 0 0 0 0 0 0 0 0 0 0 0 0 0 0 0 0 0 0 0 0 0 0 0 0 0 0 0 0 0 0 0 0 0 0 0 0 0 0 0 0 0 0 0 0 0 0 0 0 0 0 0 0 0 0 0 0 0 0 0 0 0 0 0 0 0 0 0 0 0 0 0 0 0 0 0 0 0 0 0 0 0 0 0 0 0 0 0 0 0 0 0 0 0 0 0 0 0 0 0 0 0 0 0 0 0 0 0 0 0 0 0 0 0 0 0 0 0 0 0 0 0 0 0 0 0 0 0 0 0 0 0 0 0 0 0 0 0 0 0 0 0 0 0 0 0 0 0 0 0 0 0 0 0 0 0 0 0 0 0 0 0 0 0 0 0 0 0 0 0 0 0 0 0 0 0 0 0 0 0 0 0 0 0 0 0 0 0 0 0 0 0 0 0 0 0 0 0 0 0 0 0 0 0 0 0 0 0 0 0 0 0 0 0 0 0 0 0 0 0 0 0 0 0 0 0 0 0 0 0 0 0 0 0 0 0 0 0 0 0 0 0 0 0 0 0 0 0 0 0 0 0 0 0 0 0 0 0 0 0 0 0 0 0 0 0 0 0 0 0 0 0 0 0 0 0 0 0 0 0 0 0 0 0 0 0 0 0 0 0 0 0 0 0 0 0 0 0 0 0 0 0 0 0 0 0 0 0 0 0 0 0 0 0 0 0 0 0 0 0 0 0 0 0 0 0 0 0 0 0 0 0 0 0 0 0 0 0 0 0 0 0 0 0 0 0 0 0 0 0 0 0 0 0 0 0 0 0 0 0 0 0 0 0 0 0 0 0 0 0 0 0 0 0 0 0 0 0 0 0 0 0 0 0 0 0 0 0 0 0 0 0 0 0 0 0 0 0 0 0 0 0 0 0 0 0 0 0 0 0 0 0 0 0 0 0 0 0 0 0 0 0 0 0 0 0 0 0 0 0 0 0 0 0 0 0 0 0 0 0 0 0 0 0 0 0 0 0 0 0 0 0 0 0 0 0 0 0 0 0 0 0 0 0 0 0 0 0 0 0 0 0 0 0 0 0 0 0 0 0 0 0 0 0 0 0 0 0 0 0 0 0 0 0 0 0 0 0 0 0 0 0 0 0 0 0 0 0 0 0 0 0 0 0 0 0 0 0 0 0 0 0 0 0 0 0 0 0 0 0 0 0 0 0 0 0 0 0 0 0 0 0 0 0 0 0 0 0 0 0 0 0 0 0 0 0 0 0 0 0 0 0 0 0 0 0 0 0 0 0 0 0 0 0 0 0 0 0 0 0 0 0 0 0 0 0 0 0 0 0 0 0 0 0 0 0 0 0 0 0 0 0 0 0 0 0 0 0 0 0 0 0 0 0 0 0 0 0 0 0 0 0 0 0 0 0 0 0 0 0 0 0 0 0 0 0 0 0 0 0 0 0 0 0 0 0 0 0 0 0 0 0 0 0 0 0 0 0 0 0 0 0 0 0 0 0 0 0 0 0 0 0 0 0 0 0 0 0 0 0 0 0 0 0 0 0 0 0 0 0 0 0 0 0 0 0 0 0 0 0 0 0 0 0 0 0 0 0 0 0 0 0 0 0 0 0 0 0 0 0 0 0 0 0 0 0 0 0 0 0 0 0 0 0 0 0 0 0 0 0 0 0 0 0 0 0 0 0 0 0 0 0 0 0 0 0 0 0 0 0 0 0 0 0 0 0 0 0 0 0 0 0 0 0 0 0 0 0 0 0 0 0 0 0 0 0 0 0 0 0 0 0 0 0 0 0 0 0 0 0 0 0 0 0 0 0 0 0 0 0 0 0 0 0 0 0 0 0 0 0 0 0 0 0 0 0 0 0 0 0 0 0 0 0 0 0 0 0 0 0 0 0 0 0 0 0 0 0 0 0 0 0 0 0 0 0 0 0 0 0 0 0 0 0 0 0 0 0 0 0 0 0 0 0 0 0 0 0 0 0 0 0 0 0 0 0 0 0 0 0 0 0 0 0 0 0 0 0 0 0 0 0 0 0 0 0 0 0 0 0 0 0 0 0 0 0 0 0 0 0 0 0 0 0 0 0 0 0 0 0 0 0 0 0 0 0 0 0 0 0 0 0 0 0 0 0 0 0 0 0 0 0 0 0 0 0 0 0 0 0 0 0 0 0 0 0 0 0 0 0 0 0 0 0 0 0 0 0 0 0 0 0 0 0 0 0 0 0 0 0 0 0 0 0 0 0 0 0 0 0 0 0 0 0 0 0 0 0 0 0 0 0 0 0 0 0 0 0 0 0 0 0 0 0 0 0 0 0 0 0 0 0 0 0 0 0 0 0 0 0 0 0 0 0 0 0 0 0 0 0 0 0 0 0 0 0 0 0 0 0 0 0 0 0 0 0 0 0 0 0 0 0 0 0 0 0 0 0 0 0 0 0 0 0 0 0 0 0 0 0 0 0 0 0 0 0 0 0 0 0 0 0 0 0 0 0 0 0 0 0 0 0 0 0 0 0 0 0 0 0 0 0 0 0 0 0 0 0 0 0 0 0 0 0 0 0 0 0 0 0 0 0 0 0 0 0 0 0 0 0 0 0 0 0 0 0 0 0 0 0 0 0 0 0 0 0 0 0 0 0 0 0 0 0 0 0 0 0 0 0 0 0 0 0 0 0 0 0 0 0 0 0 0 0 0 0 0 0 0 0 0 0 0 0 0 0 0 0 0 0 0 0 0 0 0 0 0 0 0 0 0 0 0 0 0 0 0 0 0 0 0 0 0 0 0 0 0 0 0 0 0 0 0 0 0 0 0 0 0 0 0 0 0 0 0 0 0 0 0 0 0 0 0 0 0 0 0 0 0 0 0 0 0 0 0 0 0 0 0 0 0 0 0 0 0 0 0 0 0 0 0 0 0 0 0 0 0 0 0 0 0 0 0 0 0 0 0 0 0 0 0 0 0 0 0 0 0 0 0 0 0 0 0 0 0 0 0 0 0 0 0 0 0 0 0 0 0 0 0 0 0 0 0 0 0 0 0 0 0 0 0 0 0 0 0 0 0 0 0 0 0 0 0 0 0 0 0 0 0 0 0 0 0 0 0 0 0 0 0 0 0 0 0 0 0 0 0 0 0 0 0 0 0 0 0 0 0 0 0 0 0 0 0 0 0 0 0 0 0 0 0 0 
BTB PER SET COUNT: 0 0 0 0 0 0 0 0 0 0 0 0 0 0 0 0 0 0 0 0 0 0 0 0 0 0 0 0 0 0 0 0 0 0 0 0 0 0 0 0 0 0 0 0 0 0 0 0 0 0 0 0 0 0 0 0 0 0 0 0 0 0 0 0 0 0 0 0 0 0 0 0 0 0 0 0 0 0 0 0 0 0 0 0 0 0 0 0 0 0 0 0 0 0 0 0 0 0 0 0 0 0 0 0 0 0 0 0 0 0 0 0 0 0 0 0 0 0 0 0 0 0 0 0 0 0 0 0 0 0 0 0 0 0 0 0 0 0 0 0 0 0 0 0 0 0 0 0 0 0 0 0 0 0 0 0 0 0 0 0 0 0 0 0 0 0 0 0 0 0 0 0 0 0 0 0 0 0 0 0 0 0 0 0 0 0 0 0 0 0 0 0 0 0 0 0 0 0 0 0 0 0 0 0 0 0 0 0 0 0 0 0 0 0 0 0 0 0 0 0 0 0 0 0 0 0 0 0 0 0 0 0 0 0 0 0 0 0 0 0 0 0 0 0 0 0 0 0 0 0 0 0 0 0 0 0 0 0 0 0 0 0 0 0 0 0 0 0 0 0 0 0 0 0 0 0 0 0 0 0 0 0 0 0 0 0 0 0 0 0 0 0 0 0 0 0 0 0 0 0 0 0 0 0 0 0 0 0 0 0 0 0 0 0 0 0 0 0 0 0 0 0 0 0 0 0 0 0 0 0 0 0 0 0 0 0 0 0 0 0 0 0 0 0 0 0 0 0 0 0 0 0 0 0 0 0 0 0 0 0 0 0 0 0 0 0 0 0 0 0 0 0 0 0 0 0 0 0 0 0 0 0 0 0 0 0 0 0 0 0 0 0 0 0 0 0 0 0 0 0 0 0 0 0 0 0 0 0 0 0 0 0 0 0 0 0 0 0 0 0 0 0 0 0 0 0 0 0 0 0 0 0 0 0 0 0 0 0 0 0 0 0 0 0 0 0 0 0 0 0 0 0 0 0 0 0 0 0 0 0 0 0 0 0 0 0 0 0 0 0 0 0 0 0 0 0 0 0 0 0 0 0 0 0 0 0 0 0 0 0 0 0 0 0 0 0 0 0 0 0 0 0 0 0 0 0 0 0 0 0 0 0 0 0 0 0 0 0 0 0 0 0 0 0 0 0 0 0 0 0 0 0 0 0 0 0 0 0 0 0 0 0 0 0 0 0 0 0 0 0 0 0 0 0 0 0 0 0 0 0 0 0 0 0 0 0 0 0 0 0 0 0 0 0 0 0 0 0 0 0 0 0 0 0 0 0 0 0 0 0 0 0 0 0 0 0 0 0 0 0 0 0 0 0 0 0 0 0 0 0 0 0 0 0 0 0 0 0 0 0 0 0 0 0 0 0 0 0 0 0 0 0 0 0 0 0 0 0 0 0 0 0 0 0 0 0 0 0 0 0 0 0 0 0 0 0 0 0 0 0 0 0 0 0 0 0 0 0 0 0 0 0 0 0 0 0 0 0 0 0 0 0 0 0 0 0 0 0 0 0 0 0 0 0 0 0 0 0 0 0 0 0 0 0 0 0 0 0 0 0 0 0 0 0 0 0 0 0 0 0 0 0 0 0 0 0 0 0 0 0 0 0 0 0 0 0 0 0 0 0 0 0 0 0 0 0 0 0 0 0 0 0 0 0 0 0 0 0 0 0 0 0 0 0 0 0 0 0 0 0 0 0 0 0 0 0 0 0 0 0 0 0 0 0 0 0 0 0 0 0 0 0 0 0 0 0 0 0 0 0 0 0 0 0 0 0 0 0 0 0 0 0 0 0 0 0 0 0 0 0 0 0 0 0 0 0 0 0 0 0 0 0 0 0 0 0 0 0 0 0 0 0 0 0 0 0 0 0 0 0 0 0 0 0 0 0 0 0 0 0 0 0 0 0 0 0 0 0 0 0 0 0 0 0 0 0 0 0 0 0 0 0 0 0 0 0 0 0 0 0 0 0 0 0 0 0 0 0 0 0 0 0 0 0 0 0 0 0 0 0 0 0 0 0 0 0 0 0 0 0 0 0 0 0 0 0 0 0 0 0 0 0 0 0 0 0 0 0 0 0 0 0 0 0 0 0 0 0 0 0 0 0 0 0 0 0 0 0 0 0 0 0 0 0 0 0 0 0 0 0 0 0 0 0 0 0 0 0 0 0 0 0 0 0 0 0 0 0 0 0 0 0 0 0 0 0 0 0 0 0 0 0 0 0 0 0 0 0 0 0 0 0 0 0 0 0 0 0 0 0 0 0 0 0 0 0 0 0 0 0 0 0 0 0 0 0 0 0 0 0 0 0 0 0 0 0 0 0 0 0 0 0 0 0 0 0 0 0 0 0 0 0 0 0 0 0 0 0 0 0 0 0 0 0 0 0 0 0 0 0 0 0 0 0 0 0 0 0 0 0 0 0 0 0 0 0 0 0 0 0 0 0 0 0 0 0 0 0 0 0 0 0 0 0 0 0 0 0 0 0 0 0 0 0 0 0 0 0 0 0 0 0 0 0 0 0 0 0 0 0 0 0 0 0 0 0 0 0 0 0 0 0 0 0 0 0 0 0 0 0 0 0 0 0 0 0 0 0 0 0 0 0 0 0 0 0 0 0 0 0 0 0 0 0 0 0 0 0 0 0 0 0 0 0 0 0 0 0 0 0 0 0 0 0 0 0 0 0 0 0 0 0 0 0 0 0 0 0 0 0 0 0 0 0 0 0 0 0 0 0 0 0 0 0 0 0 0 0 0 0 0 0 0 0 0 0 0 0 0 0 0 0 0 0 0 0 0 0 0 0 0 0 0 0 0 0 0 0 0 0 0 0 0 0 0 0 0 0 0 0 0 0 0 0 0 0 0 0 0 0 0 0 0 0 0 0 0 0 0 0 0 0 0 0 0 0 0 0 0 0 0 0 0 0 0 0 0 0 0 0 0 0 0 0 0 0 0 0 0 0 0 0 0 0 0 0 0 0 0 0 0 0 0 0 0 0 0 0 0 0 0 0 0 0 0 0 0 0 0 0 0 0 0 0 0 0 0 0 0 0 0 0 0 0 0 0 0 0 0 0 0 0 0 0 0 0 0 0 0 0 0 0 0 0 0 0 0 0 0 0 0 0 0 0 0 0 0 0 0 0 0 0 0 0 0 0 0 0 0 0 0 0 0 0 0 0 0 0 0 0 0 0 0 0 0 0 0 0 0 0 0 0 0 0 0 0 0 0 0 0 0 0 0 0 0 0 0 0 0 0 0 0 0 0 0 0 0 0 0 0 0 0 0 0 0 0 0 0 0 0 0 0 0 0 0 0 0 0 0 0 0 0 0 0 0 0 0 0 0 0 0 0 0 0 0 0 0 0 0 0 0 0 0 0 0 0 0 0 0 0 0 0 0 0 0 0 0 0 0 0 0 0 0 0 0 0 0 0 0 0 0 0 0 0 0 0 0 0 0 0 0 0 0 0 0 0 0 0 0 0 0 0 0 0 0 0 0 0 0 0 0 0 0 0 0 0 0 0 0 0 0 0 0 0 0 0 0 0 0 0 0 0 0 0 0 0 0 0 0 0 0 0 0 0 0 0 0 0 0 0 0 0 0 0 0 0 0 0 0 0 0 0 0 0 0 0 0 0 0 0 0 0 0 0 0 0 0 0 0 0 0 0 0 0 0 0 0 0 0 0 0 0 0 0 0 0 0 0 0 0 0 0 0 0 0 0 0 0 0 0 0 0 0 0 0 0 0 0 0 0 0 0 0 0 0 0 0 0 0 0 0 0 0 0 0 0 0 0 0 0 0 0 0 0 0 0 0 0 0 0 0 0 0 0 0 0 0 0 0 0 0 0 0 0 0 0 0 0 0 0 0 0 0 0 0 0 0 0 0 0 0 0 0 0 0 0 0 0 0 0 0 0 0 0 0 0 0 0 0 0 0 0 0 0 0 0 0 0 0 0 0 0 0 0 0 0 0 0 0 0 0 0 0 0 0 0 0 0 0 0 0 0 0 0 0 0 0 0 0 0 0 0 0 0 0 0 0 0 0 0 0 0 0 0 0 0 0 0 0 0 0 0 0 0 0 0 0 0 0 0 0 0 0 0 0 0 0 0 0 0 0 0 0 0 0 0 0 0 0 0 0 0 0 0 0 0 0 0 0 0 0 0 0 0 0 0 0 0 0 0 0 0 0 0 0 0 0 0 0 0 0 0 0 0 0 0 0 0 0 0 0 0 0 0 0 0 0 0 0 0 0 0 0 0 0 0 0 0 0 0 0 0 0 0 0 0 0 0 0 0 0 0 0 0 0 0 0 0 0 0 0 0 0 0 0 0 0 0 0 0 0 0 0 0 0 0 0 0 0 0 0 0 0 0 0 0 0 0 0 0 0 0 0 0 0 0 0 0 0 0 0 0 0 0 0 0 0 0 0 0 0 0 0 0 0 0 0 0 0 0 0 0 0 0 0 0 0 0 0 0 0 0 0 0 0 0 0 0 0 0 0 0 0 0 0 0 0 0 0 0 0 0 0 0 0 0 0 0 0 0 0 0 0 0 0 0 0 0 0 0 0 0 0 0 0 0 0 0 
