
*** ChampSim Multicore Out-of-Order Simulator ***

Warmup Instructions: 50000000
Simulation Instructions: 50000000
Number of CPUs: 1
LLC sets: 2048
LLC ways: 16
Off-chip DRAM Size: 4096 MB Channels: 1 Width: 64-bit Data Rate: 6400 MT/s
CPU 0 runs ./micro_traces/srv17.trace.gz
.gz
ITLB has LRU replacement policy
DTLB has LRU replacement policy
STLB has LRU replacement policy
FDIP Prefetcher at L1I
L1I has LRU replacement policy
L1D has LRU replacement policy
Initialize SRRIP state for L2C
Initialize DRRIP state for LLC
Heartbeat_Variant_0 : 1296 0.316406 per_variant_size: 0 1296 0 0 0 0 0 0 0 
Heartbeat_Variant_1 : 2461 0.60083 per_variant_size: 0 580 1881 0 0 0 0 0 0 
Heartbeat_Variant_2 : 0 0 per_variant_size: 0 0 0 0 0 0 0 0 0 
Heartbeat_Variant_3 : 0 0 per_variant_size: 0 0 0 0 0 0 0 0 0 
Heartbeat_Variant_0_evicts 0 : 5894 1 : 376 2 : 0 3 : 0 
Heartbeat_Variant_1_evicts 0 : 323 1 : 0 2 : 0 3 : 0 
Heartbeat_Variant_2_evicts 0 : 0 1 : 0 2 : 0 3 : 0 
Heartbeat_Variant_3_evicts 0 : 0 1 : 0 2 : 0 3 : 0 
Heartbeat CPU 0 instructions: 10000000 cycles: 2798608 heartbeat IPC: 3.5732 cumulative IPC: 3.5732 (Simulation time: 0 hr 1 min 38 sec) 
Heartbeat_Variant_0 : 1320 0.322266 per_variant_size: 0 1320 0 0 0 0 0 0 0 
Heartbeat_Variant_1 : 2533 0.618408 per_variant_size: 0 544 1989 0 0 0 0 0 0 
Heartbeat_Variant_2 : 0 0 per_variant_size: 0 0 0 0 0 0 0 0 0 
Heartbeat_Variant_3 : 0 0 per_variant_size: 0 0 0 0 0 0 0 0 0 
Heartbeat_Variant_0_evicts 0 : 5599 1 : 142 2 : 0 3 : 0 
Heartbeat_Variant_1_evicts 0 : 143 1 : 0 2 : 0 3 : 0 
Heartbeat_Variant_2_evicts 0 : 0 1 : 0 2 : 0 3 : 0 
Heartbeat_Variant_3_evicts 0 : 0 1 : 0 2 : 0 3 : 0 
Heartbeat CPU 0 instructions: 20000000 cycles: 5596136 heartbeat IPC: 3.57458 cumulative IPC: 3.57389 (Simulation time: 0 hr 3 min 16 sec) 
Heartbeat_Variant_0 : 1342 0.327637 per_variant_size: 0 1342 0 0 0 0 0 0 0 
Heartbeat_Variant_1 : 2605 0.635986 per_variant_size: 0 532 2073 0 0 0 0 0 0 
Heartbeat_Variant_2 : 0 0 per_variant_size: 0 0 0 0 0 0 0 0 0 
Heartbeat_Variant_3 : 0 0 per_variant_size: 0 0 0 0 0 0 0 0 0 
Heartbeat_Variant_0_evicts 0 : 5684 1 : 258 2 : 0 3 : 0 
Heartbeat_Variant_1_evicts 0 : 259 1 : 0 2 : 0 3 : 0 
Heartbeat_Variant_2_evicts 0 : 0 1 : 0 2 : 0 3 : 0 
Heartbeat_Variant_3_evicts 0 : 0 1 : 0 2 : 0 3 : 0 
Heartbeat CPU 0 instructions: 30000002 cycles: 8394315 heartbeat IPC: 3.57375 cumulative IPC: 3.57385 (Simulation time: 0 hr 4 min 58 sec) 
Heartbeat_Variant_0 : 1348 0.329102 per_variant_size: 0 1348 0 0 0 0 0 0 0 
Heartbeat_Variant_1 : 2618 0.63916 per_variant_size: 0 543 2075 0 0 0 0 0 0 
Heartbeat_Variant_2 : 0 0 per_variant_size: 0 0 0 0 0 0 0 0 0 
Heartbeat_Variant_3 : 0 0 per_variant_size: 0 0 0 0 0 0 0 0 0 
Heartbeat_Variant_0_evicts 0 : 5691 1 : 100 2 : 0 3 : 0 
Heartbeat_Variant_1_evicts 0 : 99 1 : 0 2 : 0 3 : 0 
Heartbeat_Variant_2_evicts 0 : 0 1 : 0 2 : 0 3 : 0 
Heartbeat_Variant_3_evicts 0 : 0 1 : 0 2 : 0 3 : 0 
Heartbeat CPU 0 instructions: 40000003 cycles: 11192438 heartbeat IPC: 3.57382 cumulative IPC: 3.57384 (Simulation time: 0 hr 6 min 39 sec) 
Heartbeat_Variant_0 : 1361 0.332275 per_variant_size: 0 1361 0 0 0 0 0 0 0 
Heartbeat_Variant_1 : 2628 0.641602 per_variant_size: 0 480 2148 0 0 0 0 0 0 
Heartbeat_Variant_2 : 0 0 per_variant_size: 0 0 0 0 0 0 0 0 0 
Heartbeat_Variant_3 : 0 0 per_variant_size: 0 0 0 0 0 0 0 0 0 
Heartbeat_Variant_0_evicts 0 : 5550 1 : 105 2 : 0 3 : 0 
Heartbeat_Variant_1_evicts 0 : 97 1 : 0 2 : 0 3 : 0 
Heartbeat_Variant_2_evicts 0 : 0 1 : 0 2 : 0 3 : 0 
Heartbeat_Variant_3_evicts 0 : 0 1 : 0 2 : 0 3 : 0 
Heartbeat CPU 0 instructions: 50000003 cycles: 13990051 heartbeat IPC: 3.57448 cumulative IPC: 3.57397 (Simulation time: 0 hr 8 min 16 sec) 

Warmup complete CPU 0 instructions: 50000003 cycles: 13990051 (Simulation time: 0 hr 8 min 16 sec) 

Cycle: 20000000 FTQ IN: 58290315 FTQ occupancy: 19.9906 DECODE IN: 58290220 DECODE occupancy: 52.2758 ROB IN: 58290160 ROB occupancy: 314.88 ROB OUT: 58289907
Heartbeat_Variant_0 : 1361 0.332275 per_variant_size: 0 1361 0 0 0 0 0 0 0 
Heartbeat_Variant_1 : 2628 0.641602 per_variant_size: 0 494 2134 0 0 0 0 0 0 
Heartbeat_Variant_2 : 0 0 per_variant_size: 0 0 0 0 0 0 0 0 0 
Heartbeat_Variant_3 : 0 0 per_variant_size: 0 0 0 0 0 0 0 0 0 
Heartbeat_Variant_0_evicts 0 : 5507 1 : 6 2 : 0 3 : 0 
Heartbeat_Variant_1_evicts 0 : 6 1 : 0 2 : 0 3 : 0 
Heartbeat_Variant_2_evicts 0 : 0 1 : 0 2 : 0 3 : 0 
Heartbeat_Variant_3_evicts 0 : 0 1 : 0 2 : 0 3 : 0 
Heartbeat CPU 0 instructions: 60000002 cycles: 21241299 heartbeat IPC: 1.37907 cumulative IPC: 1.37907 (Simulation time: 0 hr 10 min 2 sec) 
Heartbeat_Variant_0 : 1371 0.334717 per_variant_size: 0 1371 0 0 0 0 0 0 0 
Heartbeat_Variant_1 : 2631 0.642334 per_variant_size: 0 483 2148 0 0 0 0 0 0 
Heartbeat_Variant_2 : 0 0 per_variant_size: 0 0 0 0 0 0 0 0 0 
Heartbeat_Variant_3 : 0 0 per_variant_size: 0 0 0 0 0 0 0 0 0 
Heartbeat_Variant_0_evicts 0 : 5622 1 : 140 2 : 0 3 : 0 
Heartbeat_Variant_1_evicts 0 : 133 1 : 0 2 : 0 3 : 0 
Heartbeat_Variant_2_evicts 0 : 0 1 : 0 2 : 0 3 : 0 
Heartbeat_Variant_3_evicts 0 : 0 1 : 0 2 : 0 3 : 0 
Heartbeat CPU 0 instructions: 70000003 cycles: 28580677 heartbeat IPC: 1.36251 cumulative IPC: 1.37074 (Simulation time: 0 hr 11 min 55 sec) 
Cycle: 30000000 FTQ IN: 13589976 FTQ occupancy: 12.9123 DECODE IN: 13589993 DECODE occupancy: 33.4881 ROB IN: 13589993 ROB occupancy: 233.523 ROB OUT: 13589898
Heartbeat_Variant_0 : 1378 0.336426 per_variant_size: 0 1378 0 0 0 0 0 0 0 
Heartbeat_Variant_1 : 2649 0.646729 per_variant_size: 0 483 2166 0 0 0 0 0 0 
Heartbeat_Variant_2 : 0 0 per_variant_size: 0 0 0 0 0 0 0 0 0 
Heartbeat_Variant_3 : 0 0 per_variant_size: 0 0 0 0 0 0 0 0 0 
Heartbeat_Variant_0_evicts 0 : 5746 1 : 191 2 : 0 3 : 0 
Heartbeat_Variant_1_evicts 0 : 189 1 : 0 2 : 0 3 : 0 
Heartbeat_Variant_2_evicts 0 : 0 1 : 0 2 : 0 3 : 0 
Heartbeat_Variant_3_evicts 0 : 0 1 : 0 2 : 0 3 : 0 
Heartbeat CPU 0 instructions: 80000000 cycles: 35858818 heartbeat IPC: 1.37398 cumulative IPC: 1.37182 (Simulation time: 0 hr 13 min 45 sec) 
Cycle: 40000000 FTQ IN: 13615465 FTQ occupancy: 12.9361 DECODE IN: 13615440 DECODE occupancy: 33.5593 ROB IN: 13615440 ROB occupancy: 232.463 ROB OUT: 13615674
Heartbeat_Variant_0 : 1379 0.33667 per_variant_size: 0 1379 0 0 0 0 0 0 0 
Heartbeat_Variant_1 : 2669 0.651611 per_variant_size: 0 458 2211 0 0 0 0 0 0 
Heartbeat_Variant_2 : 0 0 per_variant_size: 0 0 0 0 0 0 0 0 0 
Heartbeat_Variant_3 : 0 0 per_variant_size: 0 0 0 0 0 0 0 0 0 
Heartbeat_Variant_0_evicts 0 : 5759 1 : 300 2 : 0 3 : 0 
Heartbeat_Variant_1_evicts 0 : 302 1 : 0 2 : 0 3 : 0 
Heartbeat_Variant_2_evicts 0 : 0 1 : 0 2 : 0 3 : 0 
Heartbeat_Variant_3_evicts 0 : 0 1 : 0 2 : 0 3 : 0 
Heartbeat CPU 0 instructions: 90000002 cycles: 43267863 heartbeat IPC: 1.3497 cumulative IPC: 1.36622 (Simulation time: 0 hr 15 min 34 sec) 
Cycle: 50000000 FTQ IN: 13815475 FTQ occupancy: 13.0131 DECODE IN: 13815497 DECODE occupancy: 34.1614 ROB IN: 13815557 ROB occupancy: 234.913 ROB OUT: 13815533
Heartbeat_Variant_0 : 1379 0.33667 per_variant_size: 0 1379 0 0 0 0 0 0 0 
Heartbeat_Variant_1 : 2677 0.653564 per_variant_size: 0 467 2210 0 0 0 0 0 0 
Heartbeat_Variant_2 : 0 0 per_variant_size: 0 0 0 0 0 0 0 0 0 
Heartbeat_Variant_3 : 0 0 per_variant_size: 0 0 0 0 0 0 0 0 0 
Heartbeat_Variant_0_evicts 0 : 5754 1 : 184 2 : 0 3 : 0 
Heartbeat_Variant_1_evicts 0 : 185 1 : 0 2 : 0 3 : 0 
Heartbeat_Variant_2_evicts 0 : 0 1 : 0 2 : 0 3 : 0 
Heartbeat_Variant_3_evicts 0 : 0 1 : 0 2 : 0 3 : 0 
Heartbeat CPU 0 instructions: 100000003 cycles: 50502236 heartbeat IPC: 1.38229 cumulative IPC: 1.36941 (Simulation time: 0 hr 17 min 15 sec) 
Finished CPU 0 instructions: 50000000 cycles: 36512185 cumulative IPC: 1.36941 (Simulation time: 0 hr 17 min 15 sec) 

ChampSim completed all CPUs

Region of Interest Statistics

CPU 0 cumulative IPC: 1.36941 instructions: 50000000 cycles: 36512185
 Fetch stage stalled: 54.2118  Sim cycles: 36512185 fetch stall cycle: 19793908
 Empty decode stage: 34.5662  Sim cycles: 36512185 fetch stall cycle: 12620889
ITLB TOTAL     ACCESS:    5867107  HIT:    5371640  MISS:     495467  HIT %:    91.5552  MISS %:    8.44483   MPKI: 9.90934
ITLB LOAD TRANSLATION INSTRUCTION	ACCESS:    5741426  HIT:    5245959  MISS:     495467  HIT %:    91.3703  MISS %:    8.62969  MPKI: 9.90934
ITLB TRANSLATION FROM L1D PREFETCHER INSTRUCTION	ACCESS:     125681  HIT:     125681  MISS:          0  HIT %:        100  MISS %:          0  MPKI: 0

ITLB AVERAGE MISS LATENCY: 9.0644 cycles
ITLB RQ	ACCESS:    8008144	FORWARD:          0	MERGED:    1692614	TO_CACHE:    6315530

DTLB TOTAL     ACCESS:    8984742  HIT:    8513208  MISS:     471534  HIT %:    94.7518  MISS %:    5.24816   MPKI: 9.43068
DTLB LOAD TRANSLATION DATA	ACCESS:    8984742  HIT:    8513208  MISS:     471534  HIT %:    94.7518  MISS %:    5.24816  MPKI: 9.43068

DTLB AVERAGE MISS LATENCY: 9.34646 cycles
DTLB RQ	ACCESS:   13382765	FORWARD:          0	MERGED:    4359095	TO_CACHE:    9023670

STLB TOTAL     ACCESS:    1212951  HIT:    1210596  MISS:       2355  HIT %:    99.8058  MISS %:   0.194155   MPKI: 0.0471
STLB LOAD TRANSLATION INSTRUCTION	ACCESS:     495467  HIT:     495087  MISS:        380  HIT %:    99.9233  MISS %:  0.0766953  MPKI: 0.0076
STLB LOAD TRANSLATION DATA	ACCESS:     471533  HIT:     469586  MISS:       1947  HIT %:    99.5871  MISS %:   0.412909  MPKI: 0.03894
STLB TRANSLATION FROM L1D PREFETCHER DATA	ACCESS:     245951  HIT:     245923  MISS:         28  HIT %:    99.9886  MISS %:  0.0113844  MPKI: 0.00056

STLB AVERAGE MISS LATENCY: 69.4344 cycles
STLB RQ	ACCESS:    1330425	FORWARD:          0	MERGED:     117419	TO_CACHE:    1213006

STLB Hit, L1D data hit: 0
STLB Hit, L2C data hit: 0
STLB Hit, LLC data hit: 0
STLB Hit, LLC data miss: 0
STLB STLB hints to L2: 0
L1D TOTAL     ACCESS:   13133260  HIT:   12018250  MISS:    1115010  HIT %:      91.51  MISS %:    8.48997   MPKI: 22.3002
L1D LOAD DATA	ACCESS:    6588186  HIT:    5850728  MISS:     737458  HIT %:    88.8064  MISS %:    11.1936  MPKI: 14.7492
L1D RFO DATA	ACCESS:    6218813  HIT:    5933725  MISS:     285088  HIT %:    95.4157  MISS %:    4.58428  MPKI: 5.70176
L1D PREFETCH DATA	ACCESS:     326261  HIT:     233797  MISS:      92464  HIT %:    71.6595  MISS %:    28.3405  MPKI: 1.84928

L1D PREFETCH  REQUESTED:     727223  ISSUED:     727223  USEFUL:      31707  USELESS:      68022
L1D USEFUL LOAD PREFETCHES:      31707 PREFETCH ISSUED TO LOWER LEVEL:      99816  ACCURACY: 31.7654
 TIMELY PREFETCHES:      31707 LATE PREFETCHES: 7300 DROPPED PREFETCHES: 15
L1D AVERAGE MISS LATENCY: 208717 cycles
L1D RQ	ACCESS:   10689810	FORWARD:          0	MERGED:    3902889	TO_CACHE:    6624137
L1D WQ	ACCESS:    6955247	FORWARD:     163161	MERGED:     196619	TO_CACHE:    6758628
L1D PQ	ACCESS:     363800	FORWARD:          0	MERGED:          0	TO_CACHE:     363423

L1D UNIQUE REGIONS ACCESSED: 0
L1D REGIONS CONFLICTS: 0
L1D Cross Page Prefetch Requests: 5846
L1D Same Page Prefetch Requests: 738378
L1D ROI Sum of L1D PQ occupancy: 4618822
L1D PREFETCHES PUSHED FROM L2C: 0
L1I TOTAL     ACCESS:    7183665  HIT:    4411860  MISS:    2771805  HIT %:    61.4152  MISS %:    38.5848   MPKI: 55.4361
L1I LOAD INSTRUCTION	ACCESS:    6509297  HIT:    3737492  MISS:    2771805  HIT %:    57.4178  MISS %:    42.5822  MPKI: 55.4361
L1I PREFETCH INSTRUCTION	ACCESS:     674368  HIT:     674368  MISS:          0  HIT %:        100  MISS %:          0  MPKI: 0

L1I PREFETCH  REQUESTED:    1606749  ISSUED:    1606749  USEFUL:          0  USELESS:          0
L1I USEFUL LOAD PREFETCHES:          0 PREFETCH ISSUED TO LOWER LEVEL:          0  ACCURACY: -nan
 TIMELY PREFETCHES:          0 LATE PREFETCHES: 0 DROPPED PREFETCHES: 0
L1I AVERAGE MISS LATENCY: 17.2103 cycles
L1I RQ	ACCESS:    9507190	FORWARD:          0	MERGED:    2677469	TO_CACHE:    6829721
L1I PQ	ACCESS:    1606749	FORWARD:          0	MERGED:     428326	TO_CACHE:    1178423

L1BTB TOTAL     ACCESS:    5673886  HIT:    2034637  MISS:    3639249  HIT %:    35.8597  MISS %:    64.1403   MPKI: 72.785
L1BTB BRANCH_DIRECT_JUMP	ACCESS:     548886 HIT:     144021 MISS:     404865 AVERAGE STALL: 48.8309 AVERAGE FETCH STALL: 14.8834 AVERAGE FETCH QUEUE STALL: 16.0113 AVERAGE DECODE STALL: 17.0036 AVERAGE EXECUTE STALL: 2.08839e+15
L1BTB BRANCH_INDIRECT	ACCESS:     183186 HIT:      66079 MISS:     117107 AVERAGE STALL: 107.542 AVERAGE FETCH STALL: 10.918 AVERAGE FETCH QUEUE STALL: 16.3283 AVERAGE DECODE STALL: 11.5257 AVERAGE EXECUTE STALL: 67.8075
L1BTB BRANCH_CONDITIONAL	ACCESS:    2707259 HIT:    1410513 MISS:    1296746 AVERAGE STALL: 56.8393 AVERAGE FETCH STALL: 24.426 AVERAGE FETCH QUEUE STALL: 20.5477 AVERAGE DECODE STALL: 11.2076 AVERAGE EXECUTE STALL: 3.06628e+15
L1BTB BRANCH_DIRECT_CALL	ACCESS:     945684 HIT:     104012 MISS:     841672 AVERAGE STALL: 66.6941 AVERAGE FETCH STALL: 31.5439 AVERAGE FETCH QUEUE STALL: 16.027 AVERAGE DECODE STALL: 18.5128 AVERAGE EXECUTE STALL: 8.29813e+15
L1BTB BRANCH_INDIRECT_CALL	ACCESS:     171596 HIT:      20825 MISS:     150771 AVERAGE STALL: 129.569 AVERAGE FETCH STALL: 12.6825 AVERAGE FETCH QUEUE STALL: 12.5385 AVERAGE DECODE STALL: 10.1476 AVERAGE EXECUTE STALL: 93.7095
L1BTB BRANCH_RETURN	ACCESS:    1117275 HIT:     289187 MISS:     828088 AVERAGE STALL: 49.4801 AVERAGE FETCH STALL: 17.0875 AVERAGE FETCH QUEUE STALL: 6.45296 AVERAGE DECODE STALL: 6.32627 AVERAGE EXECUTE STALL: 4.20151e+14
L1BTB BRANCH_OTHER ACCESS:          0 HIT:          0 MISS:          0 AVERAGE STALL: -nan AVERAGE FETCH STALL: -nan AVERAGE FETCH QUEUE STALL: -nan AVERAGE DECODE STALL: -nan AVERAGE EXECUTE STALL: -nan
L1BTB TOTAL ROB OCCUPANCY AT BTB MISS: 2.70822

L2BTB TOTAL     ACCESS:    3613818  HIT:    3545298  MISS:      68520  HIT %:    98.1039  MISS %:    1.89606   MPKI: 1.3704
L2BTB BRANCH_DIRECT_JUMP	ACCESS:     400704 HIT:     396018 MISS:       4686 AVERAGE STALL: 48.8309 AVERAGE FETCH STALL: 14.8834 AVERAGE FETCH QUEUE STALL: 16.0113 AVERAGE DECODE STALL: 17.0036 AVERAGE EXECUTE STALL: 2.08839e+15
L2BTB BRANCH_INDIRECT	ACCESS:     106797 HIT:     104095 MISS:       2702 AVERAGE STALL: 107.542 AVERAGE FETCH STALL: 10.918 AVERAGE FETCH QUEUE STALL: 16.3283 AVERAGE DECODE STALL: 11.5257 AVERAGE EXECUTE STALL: 67.8075
L2BTB BRANCH_CONDITIONAL	ACCESS:    1296746 HIT:    1290648 MISS:       6098 AVERAGE STALL: 56.8393 AVERAGE FETCH STALL: 24.426 AVERAGE FETCH QUEUE STALL: 20.5477 AVERAGE DECODE STALL: 11.2076 AVERAGE EXECUTE STALL: 3.06628e+15
L2BTB BRANCH_DIRECT_CALL	ACCESS:     841672 HIT:     839399 MISS:       2273 AVERAGE STALL: 66.6941 AVERAGE FETCH STALL: 31.5439 AVERAGE FETCH QUEUE STALL: 16.027 AVERAGE DECODE STALL: 18.5128 AVERAGE EXECUTE STALL: 8.29813e+15
L2BTB BRANCH_INDIRECT_CALL	ACCESS:     141225 HIT:     130992 MISS:      10233 AVERAGE STALL: 129.569 AVERAGE FETCH STALL: 12.6825 AVERAGE FETCH QUEUE STALL: 12.5385 AVERAGE DECODE STALL: 10.1476 AVERAGE EXECUTE STALL: 93.7095
L2BTB BRANCH_RETURN	ACCESS:     826674 HIT:     784146 MISS:      42528 AVERAGE STALL: 49.4801 AVERAGE FETCH STALL: 17.0875 AVERAGE FETCH QUEUE STALL: 6.45296 AVERAGE DECODE STALL: 6.32627 AVERAGE EXECUTE STALL: 4.20151e+14
L2BTB BRANCH_OTHER ACCESS:          0 HIT:          0 MISS:          0 AVERAGE STALL: -nan AVERAGE FETCH STALL: -nan AVERAGE FETCH QUEUE STALL: -nan AVERAGE DECODE STALL: -nan AVERAGE EXECUTE STALL: -nan
L2BTB TOTAL ROB OCCUPANCY AT BTB MISS: 143.839

L2C TOTAL     ACCESS:    4505357  HIT:    4019731  MISS:     485626  HIT %:    89.2211  MISS %:    10.7789   MPKI: 9.71252
L2C LOAD INSTRUCTION	ACCESS:    2771805  HIT:    2511471  MISS:     260334  HIT %:    90.6078  MISS %:    9.39222  MPKI: 5.20668
L2C LOAD TRANSLATION INSTRUCTION	ACCESS:        425  HIT:        102  MISS:        323  HIT %:         24  MISS %:         76  MPKI: 0.00646
L2C LOAD DATA	ACCESS:     730123  HIT:     648693  MISS:      81430  HIT %:    88.8471  MISS %:    11.1529  MPKI: 1.6286
L2C RFO DATA	ACCESS:     285001  HIT:     232710  MISS:      52291  HIT %:    81.6523  MISS %:    18.3477  MPKI: 1.04582
L2C PREFETCH DATA	ACCESS:     190761  HIT:     115621  MISS:      75140  HIT %:    60.6104  MISS %:    39.3896  MPKI: 1.5028
L2C WRITEBACK DATA	ACCESS:     525161  HIT:     510484  MISS:      14677  HIT %:    97.2052  MISS %:    2.79476  MPKI: 0.29354
L2C LOAD TRANSLATION DATA	ACCESS:       2021  HIT:        608  MISS:       1413  HIT %:    30.0841  MISS %:    69.9159  MPKI: 0.02826
L2C TRANSLATION FROM L1D PREFETCHER DATA	ACCESS:         60  HIT:         42  MISS:         18  HIT %:         70  MISS %:         30  MPKI: 0.00036

L2C PREFETCH  REQUESTED:      98860  ISSUED:      98860  USEFUL:       9081  USELESS:      66569
L2C USEFUL LOAD PREFETCHES:       9081 PREFETCH ISSUED TO LOWER LEVEL:      75520  ACCURACY: 12.0246
 TIMELY PREFETCHES:       9081 LATE PREFETCHES: 380 DROPPED PREFETCHES: 0
L2C AVERAGE MISS LATENCY: 38.2087 cycles
L2C RQ	ACCESS:    3789507	FORWARD:          0	MERGED:          0	TO_CACHE:    3789437
L2C WQ	ACCESS:     525161	FORWARD:         70	MERGED:          0	TO_CACHE:     525161
L2C PQ	ACCESS:     198676	FORWARD:          0	MERGED:       3695	TO_CACHE:     194981

L2C Dense regions hint from L2: 0
PSCL5 TOTAL     ACCESS:       4748  HIT:       2374  MISS:       2374  HIT %:         50  MISS %:         50   MPKI: 0.04748
PSCL5 LOAD TRANSLATION INSTRUCTION	ACCESS:       4628  HIT:       2314  MISS:       2314  HIT %:         50  MISS %:         50  MPKI: 0.04628
PSCL5 TRANSLATION FROM L1D PREFETCHER INSTRUCTION	ACCESS:        120  HIT:         60  MISS:         60  HIT %:         50  MISS %:         50  MPKI: 0.0012


PSCL4 TOTAL     ACCESS:       4459  HIT:       2228  MISS:       2231  HIT %:    49.9664  MISS %:    50.0336   MPKI: 0.04462
PSCL4 LOAD TRANSLATION INSTRUCTION	ACCESS:       3421  HIT:       2168  MISS:       1253  HIT %:    63.3733  MISS %:    36.6267  MPKI: 0.02506
PSCL4 TRANSLATION FROM L1D PREFETCHER INSTRUCTION	ACCESS:         98  HIT:         60  MISS:         38  HIT %:    61.2245  MISS %:    38.7755  MPKI: 0.00076
PSCL4 LOAD TRANSLATION DATA	ACCESS:        918  HIT:          0  MISS:        918  HIT %:          0  MISS %:        100  MPKI: 0.01836
PSCL4 TRANSLATION FROM L1D PREFETCHER DATA	ACCESS:         22  HIT:          0  MISS:         22  HIT %:          0  MISS %:        100  MPKI: 0.00044


PSCL3 TOTAL     ACCESS:       4586  HIT:       2287  MISS:       2299  HIT %:    49.8692  MISS %:    50.1308   MPKI: 0.04598
PSCL3 LOAD TRANSLATION INSTRUCTION	ACCESS:       4290  HIT:       2232  MISS:       2058  HIT %:     52.028  MISS %:     47.972  MPKI: 0.04116
PSCL3 TRANSLATION FROM L1D PREFETCHER INSTRUCTION	ACCESS:        110  HIT:         55  MISS:         55  HIT %:         50  MISS %:         50  MPKI: 0.0011
PSCL3 LOAD TRANSLATION DATA	ACCESS:        186  HIT:          0  MISS:        186  HIT %:          0  MISS %:        100  MPKI: 0.00372


PSCL2 TOTAL     ACCESS:       4629  HIT:       2255  MISS:       2374  HIT %:    48.7146  MISS %:    51.2854   MPKI: 0.04748
PSCL2 LOAD TRANSLATION INSTRUCTION	ACCESS:       2576  HIT:       2195  MISS:        381  HIT %:    85.2096  MISS %:    14.7904  MPKI: 0.00762
PSCL2 TRANSLATION FROM L1D PREFETCHER INSTRUCTION	ACCESS:         60  HIT:         60  MISS:          0  HIT %:        100  MISS %:          0  MPKI: 0
PSCL2 LOAD TRANSLATION DATA	ACCESS:       1933  HIT:          0  MISS:       1933  HIT %:          0  MISS %:        100  MPKI: 0.03866
PSCL2 TRANSLATION FROM L1D PREFETCHER DATA	ACCESS:         60  HIT:          0  MISS:         60  HIT %:          0  MISS %:        100  MPKI: 0.0012


LLC TOTAL     ACCESS:     549614  HIT:     520888  MISS:      28726  HIT %:    94.7734  MISS %:    5.22658   MPKI: 0.57452
LLC LOAD INSTRUCTION	ACCESS:     260334  HIT:     259199  MISS:       1135  HIT %:     99.564  MISS %:   0.435978  MPKI: 0.0227
LLC LOAD TRANSLATION INSTRUCTION	ACCESS:        323  HIT:        297  MISS:         26  HIT %:    91.9505  MISS %:    8.04954  MPKI: 0.00052
LLC LOAD DATA	ACCESS:      81045  HIT:      77424  MISS:       3621  HIT %:    95.5321  MISS %:    4.46789  MPKI: 0.07242
LLC RFO DATA	ACCESS:      52277  HIT:      38950  MISS:      13327  HIT %:     74.507  MISS %:     25.493  MPKI: 0.26654
LLC PREFETCH DATA	ACCESS:      75520  HIT:      65355  MISS:      10165  HIT %:      86.54  MISS %:      13.46  MPKI: 0.2033
LLC WRITEBACK DATA	ACCESS:      78684  HIT:      78315  MISS:        369  HIT %:     99.531  MISS %:   0.468964  MPKI: 0.00738
LLC LOAD TRANSLATION DATA	ACCESS:       1413  HIT:       1330  MISS:         83  HIT %:     94.126  MISS %:    5.87403  MPKI: 0.00166
LLC TRANSLATION FROM L1D PREFETCHER DATA	ACCESS:         18  HIT:         18  MISS:          0  HIT %:        100  MISS %:          0  MPKI: 0

LLC AVERAGE MISS LATENCY: 152.758 cycles
LLC RQ	ACCESS:     395430	FORWARD:          0	MERGED:          0	TO_CACHE:     395411
LLC WQ	ACCESS:      78684	FORWARD:         19	MERGED:          0	TO_CACHE:      78684
LLC PQ	ACCESS:      75520	FORWARD:          0	MERGED:          0	TO_CACHE:      75520

LLC Dense regions hint to LLC: 0

RAW hits: 1947936
Loads Generated: 12637746
Loads sent to L1D: 10689810
Stores Generated: 6955235
Stores sent to L1D: 6955247
Major fault: 0 Minor fault: 2552
Allocated PAGES: 2552

stream: 
stream:times selected: 1173787
stream:pref_filled: 120590
stream:pref_useful: 23711
stream:pref_late: 6474
stream:misses: 6663
stream:misses_by_poll: 0

CS: 
CS:times selected: 173461
CS:pref_filled: 58517
CS:pref_useful: 34087
CS:pref_late: 6142
CS:misses: 15172
CS:misses_by_poll: 4

CPLX: 
CPLX:times selected: 998959
CPLX:pref_filled: 19006
CPLX:pref_useful: 4035
CPLX:pref_late: 2866
CPLX:misses: 88057
CPLX:misses_by_poll: 1

NL_L1: 
NL:times selected: 19323
NL:pref_filled: 514
NL:pref_useful: 197
NL:pref_late: 193
NL:misses: 1016
NL:misses_by_poll: 0

total selections: 2365530
total_filled: 92464
total_useful: 31707
total_late: 16957
total_polluted: 5
total_misses_after_warmup: 773409
conflicts: 5555737

test: 112587

DRAM Statistics
 CHANNEL 0
 RQ ROW_BUFFER_HIT:      10604  ROW_BUFFER_MISS:      17751
 DBUS_CONGESTED:         10
 WQ ROW_BUFFER_HIT:       1456  ROW_BUFFER_MISS:      11727  FULL:          0

 AVG_CONGESTED_CYCLE: 6

CPU 0 Branch Prediction Accuracy: 99.8161% MPKI: 0.33636 Average ROB Occupancy at Mispredict: 183.84
Branch types
NOT_BRANCH: 40854692 81.7094%
BRANCH_DIRECT_JUMP: 548886 1.09777%
BRANCH_INDIRECT: 183186 0.366372%
BRANCH_CONDITIONAL: 6178589 12.3572%
BRANCH_DIRECT_CALL: 945684 1.89137%
BRANCH_INDIRECT_CALL: 171596 0.343192%
BRANCH_RETURN: 1117275 2.23455%
BRANCH_OTHER: 0 0%

DRAM PAGES: 1048576
Allocated PAGES: 2552
Average_ROB_Occupancy: 235.309
Average_Decode_Occupancy: 33.788
Average_FTQ_Occupancy: 12.9484
Indirect max targets: 14 Average targets: 1.15878
Branch_type:  BRANCH_DIRECT_JUMP:  Count Percentage: 2.90445 7.06577 3.67387 9.84561 1.96611 6.3021 0.992401 67.2497 
Branch_type:  BRANCH_INDIRECT:  Count Percentage: 11.7647 3.43857 3.74613 0 1.33894 9.67138 19.2163 50.8239 
Branch_type:  BRANCH_CONDITIONAL:  Count Percentage: 21.6939 6.34181 1.80389 8.73212 1.39315 5.13845 1.89696 52.9997 
Branch_type:  BRANCH_DIRECT_CALL:  Count Percentage: 0.766558 1.30145 1.42966 4.67873 2.44874 2.56093 0.88631 85.9276 
Branch_type:  BRANCH_INDIRECT_CALL:  Count Percentage: 9.57238 0.570298 3.0004 4.85525 0 2.26633 1.28543 78.4499 
Branch_type:  BRANCH_RETURN:  Count Percentage: 4.28474 4.27485 1.27147 9.57646 2.12869 6.44858 3.06914 68.9461 
Branch_type:  BRANCH_DIRECT_JUMP:  Total Count: 31860 77507 40300 108000 21567 69130 10886 737686 
Branch_type:  BRANCH_INDIRECT:  Total Count: 43072 12589 13715 0 4902 35408 70353 186072 
Branch_type:  BRANCH_CONDITIONAL:  Total Count: 2679373 783263 222795 1078486 172065 634639 234290 6545875 
Branch_type:  BRANCH_DIRECT_CALL:  Total Count: 14486 24594 27017 88416 46275 48395 16749 1623813 
Branch_type:  BRANCH_INDIRECT_CALL:  Total Count: 32848 1957 10296 16661 0 7777 4411 269204 
Branch_type:  BRANCH_RETURN:  Total Count: 95709 95488 28401 213911 47549 144043 68556 1540061 
Number of unique branch instructions: 10248
Upper 32 bits: 
aaaa
ffff
ffff0000
Unique upper 32 bits: 3
Unique upper 36 bits: 3
Unique upper 40 bits: 5
Unique upper 44 bits: 32
Unique upper 48 bits: 153
Variant_0 : 1379 0.33667
Variant_1 : 2677 0.653564
Variant_2 : 0 0
Variant_3 : 0 0
Offset_3 4259
Offset_4 250
Offset_5 460
Offset_6 516
Offset_7 611
Offset_8 533
Offset_9 479
Offset_10 397
Offset_11 337
Offset_12 299
Offset_13 221
Offset_14 240
Offset_15 195
Offset_16 224
Offset_17 155
Offset_18 134
Offset_19 243
Offset_20 141
Offset_21 235
Offset_22 405
Offset_23 241
Offset_24 336
Offset_25 92
Offset_47 84
Offset_64 1
decode_dispatch_called: 25414729 69.6062
Dispatch_width: 0 13646347 53.6946 37.3748
Dispatch_width: 1 945046 3.7185 2.5883
Dispatch_width: 2 812120 3.19547 2.22424
Dispatch_width: 3 486726 1.91513 1.33305
Dispatch_width: 4 5513300 21.6933 15.0999
Dispatch_width: 5 149819 0.589497 0.410326
Dispatch_width: 6 3861371 15.1934 10.5756
Empty_decode_cycles: 11097456 30.3938
ROB_full_cycles: 8692096 23.806
Starvation_cycles_per_kilo_instr: 239.587
Starvation_cycles_per_kilo_instr_3: 182.956
Starvation_cycles_per_kilo_instr_0: 160.517
Branch_type_1  (3,1)  (4,7)  (5,36)  (6,71)  (7,121)  (8,130)  (9,126)  (10,103)  (11,76)  (12,51)  (13,8)  (14,2)  (15,3)  (16,4)  (18,1)  (19,4)  (20,2)  (21,1)  (22,3)  (23,2)  (24,10)  (25,12) 
Branch_type_2  (3,1)  (4,1)  (5,1)  (8,3)  (9,3)  (12,1)  (13,1)  (14,1)  (16,3)  (17,2)  (20,2)  (21,2)  (23,5)  (24,1)  (47,39) 
Branch_type_3  (3,4257)  (4,242)  (5,419)  (6,429)  (7,459)  (8,339)  (9,261)  (10,160)  (11,137)  (12,58)  (13,7)  (64,1) 
Branch_type_4  (6,4)  (7,8)  (8,26)  (9,52)  (10,63)  (11,63)  (12,105)  (13,94)  (14,108)  (15,93)  (16,101)  (17,71)  (18,62)  (19,119)  (20,72)  (21,124)  (22,216)  (23,136)  (24,197)  (25,76) 
Branch_type_5  (8,2)  (9,1)  (10,4)  (11,5)  (12,3)  (13,14)  (14,16)  (15,11)  (16,20)  (17,11)  (18,16)  (19,12)  (20,11)  (21,13)  (22,42)  (23,26)  (24,36) 
Branch_type_6  (5,4)  (6,12)  (7,23)  (8,33)  (9,36)  (10,67)  (11,56)  (12,81)  (13,97)  (14,113)  (15,88)  (16,96)  (17,71)  (18,55)  (19,108)  (20,54)  (21,95)  (22,144)  (23,72)  (24,92)  (25,4)  (47,45) 
Unique trigger count: 
Variant_0_evicts_0 : 0
Variant_0_evicts_1 : 0
Variant_0_evicts_2 : 0
Variant_0_evicts_3 : 0
Variant_1_evicts_0 : 0
Variant_1_evicts_1 : 0
Variant_1_evicts_2 : 0
Variant_1_evicts_3 : 0
Variant_2_evicts_0 : 0
Variant_2_evicts_1 : 0
Variant_2_evicts_2 : 0
Variant_2_evicts_3 : 0
Variant_3_evicts_0 : 0
Variant_3_evicts_1 : 0
Variant_3_evicts_2 : 0
Variant_3_evicts_3 : 0
BTB PER SET UNIQUE ADDR: 10 12 8 10 10 10 8 9 8 12 10 9 11 12 9 9 7 7 10 10 10 12 11 10 10 10 11 15 11 12 10 15 14 8 6 11 13 12 6 5 10 10 15 12 11 6 10 11 11 8 15 11 10 14 9 8 9 8 10 11 12 13 13 10 11 12 9 7 11 7 8 10 12 11 8 10 8 10 11 14 13 8 6 10 12 13 15 9 10 13 9 9 10 8 5 14 10 11 11 12 10 16 10 10 9 7 10 11 10 7 7 15 8 12 12 9 10 11 9 9 12 12 5 10 9 11 7 9 10 9 7 12 11 14 7 11 10 12 11 11 9 11 10 11 10 10 9 12 5 15 9 17 7 10 11 12 15 16 15 11 9 9 9 9 8 11 12 8 13 14 14 15 12 9 9 9 9 9 11 7 7 9 10 13 10 13 8 7 12 8 12 8 10 10 12 11 10 13 6 12 16 11 8 7 9 7 10 9 8 10 9 11 11 12 10 10 11 10 9 15 7 11 8 10 6 6 13 12 5 13 12 6 11 11 11 11 8 9 11 7 7 14 13 23 11 11 10 10 16 11 17 11 11 7 13 15 7 11 11 7 10 4 6 13 11 8 12 12 8 9 9 9 12 8 6 9 13 12 10 8 12 10 11 11 15 9 9 15 17 10 9 12 12 9 8 10 8 12 15 10 6 11 10 16 9 11 12 8 13 7 8 12 9 19 12 7 9 11 12 13 8 11 9 12 15 15 9 7 11 8 11 14 9 8 11 14 8 12 9 13 6 12 7 13 14 8 10 17 10 10 10 12 8 11 11 7 8 13 11 10 12 11 7 17 9 8 9 10 14 11 12 10 9 9 9 18 13 14 13 11 11 10 7 9 8 11 14 13 11 11 11 10 9 16 5 11 13 10 10 10 7 12 9 10 10 11 13 14 8 11 9 10 9 12 11 11 12 13 17 14 11 11 7 11 12 12 12 10 8 9 11 11 12 11 14 13 13 12 8 13 8 9 9 8 15 10 8 11 11 12 12 8 11 9 14 14 15 12 9 15 13 10 12 11 16 12 13 12 9 14 14 14 12 7 10 12 9 10 8 11 13 9 11 12 7 14 10 9 15 9 10 12 9 9 10 10 12 15 10 11 13 11 10 18 8 9 6 14 8 12 13 12 11 10 10 12 9 12 8 8 10 8 8 13 9 12 14 9 11 15 16 13 13 10 7 14 8 13 9 12 12 7 11 9 12 7 8 12 11 8 8 15 11 11 8 12 11 7 11 10 10 15 8 13 13 8 9 18 13 16 12 10 11 13 11 6 12 11 7 9 8 7 10 8 12 9 10 8 12 8 6 7 13 9 17 11 9 14 8 7 12 8 9 5 11 11 10 11 8 12 14 11 8 7 7 14 9 10 11 13 11 8 10 8 11 10 8 13 10 7 8 12 15 11 10 12 13 11 10 12 12 12 10 12 9 12 12 9 11 9 9 13 10 11 12 10 12 11 12 11 10 7 11 12 12 11 10 12 14 9 10 10 7 17 13 8 13 12 10 15 8 11 12 13 11 9 11 12 16 10 9 10 9 10 11 9 8 13 8 17 5 13 9 12 9 12 12 9 9 6 9 14 10 11 7 10 12 11 5 11 14 11 10 7 8 14 11 9 7 10 14 10 8 8 9 10 9 7 19 10 9 9 9 10 13 9 10 11 10 9 10 11 8 9 7 8 13 10 8 9 11 8 10 14 10 13 9 13 13 12 13 16 13 10 11 10 10 10 9 13 6 10 10 8 9 7 10 11 9 9 13 7 12 10 11 14 8 10 17 9 16 11 16 10 12 8 10 13 13 10 9 17 11 9 11 10 10 14 8 11 9 10 9 10 8 9 7 14 9 14 13 12 12 9 9 11 11 9 8 9 12 12 9 12 11 12 9 14 15 11 6 9 10 14 14 14 11 11 14 10 10 8 9 10 13 8 10 12 10 7 9 15 11 7 10 11 11 9 9 11 8 7 9 13 13 14 12 11 15 7 9 10 12 10 13 12 13 14 9 6 14 14 14 14 6 9 9 11 10 14 9 13 7 10 14 12 20 11 13 14 7 11 9 8 9 9 9 8 10 7 11 18 12 12 12 9 12 13 11 12 7 15 10 11 8 8 12 11 9 12 9 14 9 15 9 11 9 11 13 8 11 10 8 11 10 10 11 10 9 10 10 11 11 9 12 9 16 7 10 15 12 14 10 11 8 17 12 9 9 14 18 12 10 12 13 8 11 15 11 11 18 14 11 15 12 11 7 13 7 11 11 16 9 8 8 12 5 5 5 10 10 14 11 9 
BTB PER SET COUNT: 191 17 1874 14 18 12 8 9 1480 21 10 506 42 20 9 15 1966 11 14 22 21 443 11 13 20 16 13 23 15 15 10 22 25 11 6 21 20 13 7 5 12 16 26 1697 19 6 12 12 11 496 27 89 11 20 11 379 14 10 396 15 14 18 216 13 13 13 10 2950 14 8 10 11 13 13 9 15 10 11 14 16 180 12 13 131 14 14 19 13 17 37 10 868 417 431 6 19 175 1000 17 7800 15 82 15 12 2466 7 11 13 943 10 10 29 13 12 16 996 12 15 1221 543 17 15 7 12 9 131 8 10 12 993 9 15 17 21 8 17 708 14 15 12 10 383 11 12 11 10 1480 15 7 109 11 292 631 11 15 19 770 17 19 138 9 9 11 9 59 12 15 9 17 276 20 18 16 12 12 1225 11 12 716 986 7 10 928 20 16 631 9 10 20 9 16 8 10 16 13 14 10 1004 6 134 26 14 820 7 9 7 12 307 15 835 15 15 15 8684 14 1224 11 11 1714 19 9 12 10 11 6 22 19 13 5 14 14 7 13 14 14 5866 12 10 18 7 7 17 19 173 18 1522 10 10 50 23 35 12 13 9 14 60 7 16 11 10 13 4 6 507 13 13 14 22 1634 11 9 11 644 9 8 9 16 16 17 988 23 13 14 11 21 9 10 749 20 13 10 16 16 10 9 10 10 21 22 602 9 14 425 21 10 19 15 10 400 9 10 16 11 28 278 10 10 12 18 19 8 4419 11 21 91 412 523 8 18 15 15 15 10 11 15 23 8 64 9 215 6 25 7 25 133 9 10 20 13 69 10 231 9 14 11 7 8 20 15 20 21 12 11 27 10 2202 11 11 21 13 14 311 9 11 169 30 18 17 13 1484 287 10 7 10 10 15 919 19 12 11 20 11 11 21 6 12 15 11 10 10 7 18 268 16 13 13 17 218 8 16 18 11 11 440 14 18 14 18 136 16 14 12 12 16 20 18 450 10 14 11 55 15 18 19 19 22 22 684 9 14 8 9 12 8 562 271 91 13 16 19 52 10 16 12 14 22 17 12 15 21 18 13 16 14 22 21 537 15 11 20 27 20 19 10 16 15 11 16 12 11 15 9 14 21 10 22 10 12 362 18 18 13 394 9 14 13 1098 994 16 16 18 13 11 41 11 9 9 20 9 15 16 16 1859 95 10 18 9 15 10 9 15 8 8 515 9 20 15 1475 17 817 26 21 23 18 13 18 83 1026 9 14 13 10 15 11 21 7 10 20 14 1377 9 18 205 29 10 15 14 7 15 13 15 18 9 18 476 8 55 26 16 330 14 10 16 16 13 7 14 996 7 11 11 7 23 2950 17 15 16 9 15 12 7 8 17 14 19 20 1795 390 10 7 15 10 9 7 13 13 11 26 11 16 22 15 18 10 7 16 251 11 12 31 11 10 17 982 13 15 16 16 10 7 15 18 22 14 11 165 22 22 18 16 17 23 12 245 11 20 355 11 13 9 16 16 10 16 14 11 13 341 16 395 85 7 15 19 14768 24 11 999 57 11 16 10 13 25 17 179 13 14 17 21 9 15 1224 16 14 9 14 18 47 13 10 10 14 20 2465 14 993 3887 8 28 6 18 12 12 10 16 18 10 12 6 263 253 992 14 8 129 115 802 6 12 22 992 11 2467 12 18 14 13 7 17 23 3391 12 11 14 1735 10 10 330 19 9 13 61 37 17 14 336 12 10 14 1484 14 1868 268 1474 8 24 11 8 12 20 12 11 393 14 20 10 13 16 14 20 182 22 11 20 12 13 10 17 114 1471 19 13 9 14 7 14 14 9 10 352 988 16 15 69 22 8 15 22 12 32 19 31 387 21 9 18 14 17 109 10 69 16 12 181 63 13 2441 14 11 12 13 18 14 8 31 11 20 13 26 17 23 17 13 40 1755 15 989 987 10 12 1106 10 19 15 16 506 16 18 2623 6 1334 11 20 27 23 506 13 35 11 994 1475 11 13 17 11 10 15 16 10 798 43 18 7 13 11 12 17 2949 17 9 7 121 91 105 24 19 11 20 11 10 16 16 14 14 19 22 22 10 8 16 24 24 21 7 18 10 13 142 19 12 884 7 13 15 18 363 165 20 22 8 991 11 8 13 11 11 10 14 32 15 26 23 15 52 16 17 25 11 13 15 787 14 17 11 986 30 14 13 14 101 19 552 2951 11 15 155 18 145 9 21 20 988 15 11 10 11 12 10 11 64 19 13 10 456 14 24 8 269 280 897 1033 13 15 8 1343 21 966 9 24 25 13 11 1348 703 9 19 1495 20 15 20 1406 16 19 16 1188 10 22 8 17 17 468 10 9 8 14 5 6 5 11 13 342 20 13 
To predecode: 0
Predecoding something: 0
Predecode request dropped: 0
sizeofblock_0 0
sizeofblock_1 50381
sizeofblock_2 92130
sizeofblock_3 0
sizeofblock_4 0
sizeofblock_5 0
sizeofblock_6 0
sizeofblock_7 0
sizeofblock_8 0
Variant_0 Correct: 1616686 Incorrect: 0 Accuracy: 1
Variant_1 Correct: 5742555 Incorrect: 0 Accuracy: 1
Variant_2 Correct: 0 Incorrect: 0 Accuracy: -nan
Variant_3 Correct: 0 Incorrect: 0 Accuracy: -nan
