
*** ChampSim Multicore Out-of-Order Simulator ***

Warmup Instructions: 50000000
Simulation Instructions: 50000000
Number of CPUs: 1
LLC sets: 2048
LLC ways: 16
Off-chip DRAM Size: 4096 MB Channels: 1 Width: 64-bit Data Rate: 6400 MT/s
CPU 0 runs ./micro_traces/srv122.trace.gz
.gz
ITLB has LRU replacement policy
DTLB has LRU replacement policy
STLB has LRU replacement policy
CPU 0 L1I next line prefetcher
./conditional/srv122.cond
L1I has LRU replacement policy
L1D has LRU replacement policy
Initialize SRRIP state for L2C
Initialize DRRIP state for LLC
Heartbeat_Variant_0 : 1293 0.315674 per_variant_size: 0 1293 0 0 0 0 0 0 0 
Heartbeat_Variant_1 : 1177 0.287354 per_variant_size: 0 586 591 0 0 0 0 0 0 
Heartbeat_Variant_2 : 1252 0.305664 per_variant_size: 0 533 303 341 75 0 0 0 0 
Heartbeat_Variant_3 : 0 0 per_variant_size: 0 0 0 0 0 0 0 0 0 
Heartbeat_Variant_0_evicts 0 : 5786 1 : 159 2 : 160 3 : 0 
Heartbeat_Variant_1_evicts 0 : 150 1 : 0 2 : 333 3 : 0 
Heartbeat_Variant_2_evicts 0 : 144 1 : 313 2 : 0 3 : 0 
Heartbeat_Variant_3_evicts 0 : 0 1 : 0 2 : 0 3 : 0 
Heartbeat CPU 0 instructions: 10000002 cycles: 2796739 heartbeat IPC: 3.57559 cumulative IPC: 3.57559 (Simulation time: 0 hr 1 min 42 sec) 
Heartbeat_Variant_0 : 1351 0.329834 per_variant_size: 0 1351 0 0 0 0 0 0 0 
Heartbeat_Variant_1 : 1235 0.301514 per_variant_size: 0 592 643 0 0 0 0 0 0 
Heartbeat_Variant_2 : 1314 0.320801 per_variant_size: 0 542 325 364 83 0 0 0 0 
Heartbeat_Variant_3 : 0 0 per_variant_size: 0 0 0 0 0 0 0 0 0 
Heartbeat_Variant_0_evicts 0 : 5681 1 : 166 2 : 156 3 : 0 
Heartbeat_Variant_1_evicts 0 : 165 1 : 0 2 : 348 3 : 0 
Heartbeat_Variant_2_evicts 0 : 144 1 : 346 2 : 0 3 : 0 
Heartbeat_Variant_3_evicts 0 : 0 1 : 0 2 : 0 3 : 0 
Heartbeat CPU 0 instructions: 20000003 cycles: 5591152 heartbeat IPC: 3.57857 cumulative IPC: 3.57708 (Simulation time: 0 hr 3 min 21 sec) 
Heartbeat_Variant_0 : 1354 0.330566 per_variant_size: 0 1354 0 0 0 0 0 0 0 
Heartbeat_Variant_1 : 1233 0.301025 per_variant_size: 0 587 646 0 0 0 0 0 0 
Heartbeat_Variant_2 : 1330 0.324707 per_variant_size: 0 560 321 361 88 0 0 0 0 
Heartbeat_Variant_3 : 0 0 per_variant_size: 0 0 0 0 0 0 0 0 0 
Heartbeat_Variant_0_evicts 0 : 5435 1 : 34 2 : 50 3 : 0 
Heartbeat_Variant_1_evicts 0 : 27 1 : 0 2 : 228 3 : 0 
Heartbeat_Variant_2_evicts 0 : 54 1 : 230 2 : 0 3 : 0 
Heartbeat_Variant_3_evicts 0 : 0 1 : 0 2 : 0 3 : 0 
Heartbeat CPU 0 instructions: 30000001 cycles: 8386766 heartbeat IPC: 3.57703 cumulative IPC: 3.57706 (Simulation time: 0 hr 5 min 0 sec) 
Heartbeat_Variant_0 : 1353 0.330322 per_variant_size: 0 1353 0 0 0 0 0 0 0 
Heartbeat_Variant_1 : 1239 0.30249 per_variant_size: 0 591 648 0 0 0 0 0 0 
Heartbeat_Variant_2 : 1331 0.324951 per_variant_size: 0 558 324 368 81 0 0 0 0 
Heartbeat_Variant_3 : 0 0 per_variant_size: 0 0 0 0 0 0 0 0 0 
Heartbeat_Variant_0_evicts 0 : 5571 1 : 7 2 : 13 3 : 0 
Heartbeat_Variant_1_evicts 0 : 10 1 : 0 2 : 206 3 : 0 
Heartbeat_Variant_2_evicts 0 : 11 1 : 207 2 : 0 3 : 0 
Heartbeat_Variant_3_evicts 0 : 0 1 : 0 2 : 0 3 : 0 
Heartbeat CPU 0 instructions: 40000003 cycles: 11183465 heartbeat IPC: 3.57564 cumulative IPC: 3.57671 (Simulation time: 0 hr 6 min 45 sec) 
Heartbeat_Variant_0 : 1359 0.331787 per_variant_size: 0 1359 0 0 0 0 0 0 0 
Heartbeat_Variant_1 : 1253 0.305908 per_variant_size: 0 600 653 0 0 0 0 0 0 
Heartbeat_Variant_2 : 1345 0.328369 per_variant_size: 0 559 338 364 84 0 0 0 0 
Heartbeat_Variant_3 : 0 0 per_variant_size: 0 0 0 0 0 0 0 0 0 
Heartbeat_Variant_0_evicts 0 : 5668 1 : 140 2 : 156 3 : 0 
Heartbeat_Variant_1_evicts 0 : 144 1 : 0 2 : 314 3 : 0 
Heartbeat_Variant_2_evicts 0 : 159 1 : 319 2 : 0 3 : 0 
Heartbeat_Variant_3_evicts 0 : 0 1 : 0 2 : 0 3 : 0 
Heartbeat CPU 0 instructions: 50000002 cycles: 13979554 heartbeat IPC: 3.57642 cumulative IPC: 3.57665 (Simulation time: 0 hr 8 min 30 sec) 

Warmup complete CPU 0 instructions: 50000002 cycles: 13979554 (Simulation time: 0 hr 8 min 30 sec) 

Cycle: 20000000 FTQ IN: 58275087 FTQ occupancy: 19.4378 DECODE IN: 58275067 DECODE occupancy: 50.9887 ROB IN: 58275009 ROB occupancy: 312.528 ROB OUT: 58274657
Heartbeat_Variant_0 : 1360 0.332031 per_variant_size: 0 1360 0 0 0 0 0 0 0 
Heartbeat_Variant_1 : 1253 0.305908 per_variant_size: 0 600 653 0 0 0 0 0 0 
Heartbeat_Variant_2 : 1344 0.328125 per_variant_size: 0 553 341 352 98 0 0 0 0 
Heartbeat_Variant_3 : 0 0 per_variant_size: 0 0 0 0 0 0 0 0 0 
Heartbeat_Variant_0_evicts 0 : 5595 1 : 4 2 : 10 3 : 0 
Heartbeat_Variant_1_evicts 0 : 5 1 : 0 2 : 201 3 : 0 
Heartbeat_Variant_2_evicts 0 : 8 1 : 202 2 : 0 3 : 0 
Heartbeat_Variant_3_evicts 0 : 0 1 : 0 2 : 0 3 : 0 
Heartbeat CPU 0 instructions: 60000000 cycles: 21256983 heartbeat IPC: 1.37411 cumulative IPC: 1.37411 (Simulation time: 0 hr 10 min 16 sec) 
Heartbeat_Variant_0 : 1374 0.335449 per_variant_size: 0 1374 0 0 0 0 0 0 0 
Heartbeat_Variant_1 : 1258 0.307129 per_variant_size: 0 585 673 0 0 0 0 0 0 
Heartbeat_Variant_2 : 1347 0.328857 per_variant_size: 0 531 360 349 107 0 0 0 0 
Heartbeat_Variant_3 : 0 0 per_variant_size: 0 0 0 0 0 0 0 0 0 
Heartbeat_Variant_0_evicts 0 : 5637 1 : 81 2 : 102 3 : 0 
Heartbeat_Variant_1_evicts 0 : 77 1 : 0 2 : 264 3 : 0 
Heartbeat_Variant_2_evicts 0 : 96 1 : 263 2 : 0 3 : 0 
Heartbeat_Variant_3_evicts 0 : 0 1 : 0 2 : 0 3 : 0 
Heartbeat CPU 0 instructions: 70000002 cycles: 28661647 heartbeat IPC: 1.3505 cumulative IPC: 1.3622 (Simulation time: 0 hr 12 min 6 sec) 
Cycle: 30000000 FTQ IN: 13561644 FTQ occupancy: 11.287 DECODE IN: 13561622 DECODE occupancy: 29.9529 ROB IN: 13561680 ROB occupancy: 227.276 ROB OUT: 13561856
Heartbeat_Variant_0 : 1372 0.334961 per_variant_size: 0 1372 0 0 0 0 0 0 0 
Heartbeat_Variant_1 : 1263 0.30835 per_variant_size: 0 591 672 0 0 0 0 0 0 
Heartbeat_Variant_2 : 1345 0.328369 per_variant_size: 0 529 360 353 103 0 0 0 0 
Heartbeat_Variant_3 : 0 0 per_variant_size: 0 0 0 0 0 0 0 0 0 
Heartbeat_Variant_0_evicts 0 : 5501 1 : 11 2 : 5 3 : 0 
Heartbeat_Variant_1_evicts 0 : 13 1 : 0 2 : 199 3 : 0 
Heartbeat_Variant_2_evicts 0 : 6 1 : 196 2 : 0 3 : 0 
Heartbeat_Variant_3_evicts 0 : 0 1 : 0 2 : 0 3 : 0 
Heartbeat CPU 0 instructions: 80000001 cycles: 35967262 heartbeat IPC: 1.36881 cumulative IPC: 1.3644 (Simulation time: 0 hr 13 min 57 sec) 
Cycle: 40000000 FTQ IN: 13562699 FTQ occupancy: 11.3643 DECODE IN: 13562638 DECODE occupancy: 30.351 ROB IN: 13562578 ROB occupancy: 230.065 ROB OUT: 13562402
Heartbeat_Variant_0 : 1377 0.336182 per_variant_size: 0 1377 0 0 0 0 0 0 0 
Heartbeat_Variant_1 : 1262 0.308105 per_variant_size: 0 591 671 0 0 0 0 0 0 
Heartbeat_Variant_2 : 1350 0.32959 per_variant_size: 0 531 369 350 100 0 0 0 0 
Heartbeat_Variant_3 : 0 0 per_variant_size: 0 0 0 0 0 0 0 0 0 
Heartbeat_Variant_0_evicts 0 : 5430 1 : 33 2 : 38 3 : 0 
Heartbeat_Variant_1_evicts 0 : 25 1 : 0 2 : 236 3 : 0 
Heartbeat_Variant_2_evicts 0 : 42 1 : 231 2 : 0 3 : 0 
Heartbeat_Variant_3_evicts 0 : 0 1 : 0 2 : 0 3 : 0 
Heartbeat CPU 0 instructions: 90000002 cycles: 43357956 heartbeat IPC: 1.35305 cumulative IPC: 1.36154 (Simulation time: 0 hr 15 min 48 sec) 
Cycle: 50000000 FTQ IN: 13695998 FTQ occupancy: 11.3026 DECODE IN: 13696049 DECODE occupancy: 30.2659 ROB IN: 13696109 ROB occupancy: 229.731 ROB OUT: 13696129
Heartbeat_Variant_0 : 1380 0.336914 per_variant_size: 0 1380 0 0 0 0 0 0 0 
Heartbeat_Variant_1 : 1270 0.310059 per_variant_size: 0 590 680 0 0 0 0 0 0 
Heartbeat_Variant_2 : 1349 0.329346 per_variant_size: 0 516 380 352 101 0 0 0 0 
Heartbeat_Variant_3 : 0 0 per_variant_size: 0 0 0 0 0 0 0 0 0 
Heartbeat_Variant_0_evicts 0 : 5628 1 : 51 2 : 56 3 : 0 
Heartbeat_Variant_1_evicts 0 : 50 1 : 0 2 : 245 3 : 0 
Heartbeat_Variant_2_evicts 0 : 56 1 : 239 2 : 0 3 : 0 
Heartbeat_Variant_3_evicts 0 : 0 1 : 0 2 : 0 3 : 0 
Heartbeat CPU 0 instructions: 100000000 cycles: 50661807 heartbeat IPC: 1.36914 cumulative IPC: 1.36306 (Simulation time: 0 hr 17 min 34 sec) 
Finished CPU 0 instructions: 50000002 cycles: 36682254 cumulative IPC: 1.36306 (Simulation time: 0 hr 17 min 34 sec) 

ChampSim completed all CPUs

Region of Interest Statistics

CPU 0 cumulative IPC: 1.36306 instructions: 50000002 cycles: 36682254
 Fetch stage stalled: 57.6317  Sim cycles: 36682254 fetch stall cycle: 21140607
 Empty decode stage: 40.6012  Sim cycles: 36682254 fetch stall cycle: 14893428
ITLB TOTAL     ACCESS:    6888808  HIT:    6379219  MISS:     509589  HIT %:    92.6027  MISS %:    7.39735   MPKI: 10.1918
ITLB LOAD TRANSLATION INSTRUCTION	ACCESS:    5656184  HIT:    5166339  MISS:     489845  HIT %:    91.3397  MISS %:    8.66034  MPKI: 9.7969
ITLB TRANSLATION FROM L1D PREFETCHER INSTRUCTION	ACCESS:    1232624  HIT:    1212880  MISS:      19744  HIT %:    98.3982  MISS %:    1.60179  MPKI: 0.39488

ITLB AVERAGE MISS LATENCY: 66234.6 cycles
ITLB RQ	ACCESS:   10174481	FORWARD:          0	MERGED:    2802962	TO_CACHE:    7371519

DTLB TOTAL     ACCESS:    8976459  HIT:    8504930  MISS:     471529  HIT %:     94.747  MISS %:    5.25295   MPKI: 9.43058
DTLB LOAD TRANSLATION DATA	ACCESS:    8976459  HIT:    8504930  MISS:     471529  HIT %:     94.747  MISS %:    5.25295  MPKI: 9.43058

DTLB AVERAGE MISS LATENCY: 9.33366 cycles
DTLB RQ	ACCESS:   13345949	FORWARD:          0	MERGED:    4333303	TO_CACHE:    9012646

STLB TOTAL     ACCESS:    1228497  HIT:    1226536  MISS:       1961  HIT %:    99.8404  MISS %:   0.159626   MPKI: 0.03922
STLB LOAD TRANSLATION INSTRUCTION	ACCESS:     488792  HIT:     488575  MISS:        217  HIT %:    99.9556  MISS %:  0.0443952  MPKI: 0.00434
STLB TRANSLATION FROM L1D PREFETCHER INSTRUCTION	ACCESS:      20796  HIT:      20765  MISS:         31  HIT %:    99.8509  MISS %:   0.149067  MPKI: 0.00062
STLB LOAD TRANSLATION DATA	ACCESS:     471529  HIT:     469825  MISS:       1704  HIT %:    99.6386  MISS %:   0.361378  MPKI: 0.03408
STLB TRANSLATION FROM L1D PREFETCHER DATA	ACCESS:     247380  HIT:     247371  MISS:          9  HIT %:    99.9964  MISS %: 0.00363813  MPKI: 0.00018

STLB AVERAGE MISS LATENCY: 74.8251 cycles
STLB RQ	ACCESS:    1388292	FORWARD:          0	MERGED:     128446	TO_CACHE:    1259846

STLB Hit, L1D data hit: 0
STLB Hit, L2C data hit: 0
STLB Hit, LLC data hit: 0
STLB Hit, LLC data miss: 0
STLB STLB hints to L2: 0
L1D TOTAL     ACCESS:   13078880  HIT:   11935134  MISS:    1143746  HIT %:     91.255  MISS %:    8.74498   MPKI: 22.8749
L1D LOAD DATA	ACCESS:    6559224  HIT:    5802711  MISS:     756513  HIT %:    88.4664  MISS %:    11.5336  MPKI: 15.1303
L1D RFO DATA	ACCESS:    6194796  HIT:    5907684  MISS:     287112  HIT %:    95.3653  MISS %:    4.63473  MPKI: 5.74224
L1D PREFETCH DATA	ACCESS:     324860  HIT:     224739  MISS:     100121  HIT %:    69.1803  MISS %:    30.8197  MPKI: 2.00242

L1D PREFETCH  REQUESTED:     752106  ISSUED:     752106  USEFUL:      39373  USELESS:      71451
L1D USEFUL LOAD PREFETCHES:      39373 PREFETCH ISSUED TO LOWER LEVEL:     110866  ACCURACY: 35.514
 TIMELY PREFETCHES:      39373 LATE PREFETCHES: 10682 DROPPED PREFETCHES: 3
L1D AVERAGE MISS LATENCY: 303318 cycles
L1D RQ	ACCESS:   10678702	FORWARD:          0	MERGED:    3915998	TO_CACHE:    6598011
L1D WQ	ACCESS:    6945468	FORWARD:     165069	MERGED:     197530	TO_CACHE:    6747938
L1D PQ	ACCESS:     376241	FORWARD:          0	MERGED:          0	TO_CACHE:     375865

L1D UNIQUE REGIONS ACCESSED: 0
L1D REGIONS CONFLICTS: 0
L1D Cross Page Prefetch Requests: 5306
L1D Same Page Prefetch Requests: 763281
L1D ROI Sum of L1D PQ occupancy: 4779909
L1D PREFETCHES PUSHED FROM L2C: 0
L1I TOTAL     ACCESS:    8784299  HIT:    5449612  MISS:    3334687  HIT %:    62.0381  MISS %:    37.9619   MPKI: 66.6937
L1I LOAD INSTRUCTION	ACCESS:    6559695  HIT:    4422922  MISS:    2136773  HIT %:    67.4257  MISS %:    32.5743  MPKI: 42.7355
L1I PREFETCH INSTRUCTION	ACCESS:    2224604  HIT:    1026690  MISS:    1197914  HIT %:    46.1516  MISS %:    53.8484  MPKI: 23.9583

L1I PREFETCH  REQUESTED:    3973283  ISSUED:    3969839  USEFUL:     940281  USELESS:     490571
L1I USEFUL LOAD PREFETCHES:     940281 PREFETCH ISSUED TO LOWER LEVEL:    1430871  ACCURACY: 65.7139
 TIMELY PREFETCHES:     940281 LATE PREFETCHES: 232957 DROPPED PREFETCHES: 71616
L1I AVERAGE MISS LATENCY: 2.25548e+06 cycles
L1I RQ	ACCESS:    9500118	FORWARD:          0	MERGED:    2738997	TO_CACHE:    6761121
L1I PQ	ACCESS:    3969839	FORWARD:          0	MERGED:     556479	TO_CACHE:    3413360

L1BTB TOTAL     ACCESS:    5676335  HIT:    2029565  MISS:    3646770  HIT %:    35.7548  MISS %:    64.2452   MPKI: 72.9354
L1BTB BRANCH_DIRECT_JUMP	ACCESS:     546511  HIT:     142151  MISS:     404360	AVERAGE STALL: 42.0014
L1BTB BRANCH_INDIRECT	ACCESS:     181659  HIT:      65038  MISS:     116621	AVERAGE STALL: 100.153
L1BTB BRANCH_CONDITIONAL	ACCESS:    2705090  HIT:    1407582  MISS:    1297508	AVERAGE STALL: 54.7707
L1BTB BRANCH_DIRECT_CALL	ACCESS:     949345  HIT:     104589  MISS:     844756	AVERAGE STALL: 66.923
L1BTB BRANCH_INDIRECT_CALL	ACCESS:     172193  HIT:      21010  MISS:     151183	AVERAGE STALL: 125.221
L1BTB BRANCH_RETURN	ACCESS:    1121537  HIT:     289195  MISS:     832342	AVERAGE STALL: 50.0341
L1BTB BRANCH_OTHER ACCESS:          0  HIT:          0  MISS:          0	AVERAGE STALL: -nan
L1BTB TOTAL ROB OCCUPANCY AT BTB MISS: 5.13706

L2BTB TOTAL     ACCESS:    3621608  HIT:    3514907  MISS:     106701  HIT %:    97.0538  MISS %:    2.94623   MPKI: 2.13402
L2BTB BRANCH_DIRECT_JUMP	ACCESS:     400334  HIT:     395119  MISS:       5215	AVERAGE STALL: 42.0014
L2BTB BRANCH_INDIRECT	ACCESS:     106293  HIT:     103574  MISS:       2719	AVERAGE STALL: 100.153
L2BTB BRANCH_CONDITIONAL	ACCESS:    1297508  HIT:    1273614  MISS:      23894	AVERAGE STALL: 54.7707
L2BTB BRANCH_DIRECT_CALL	ACCESS:     844756  HIT:     843928  MISS:        828	AVERAGE STALL: 66.923
L2BTB BRANCH_INDIRECT_CALL	ACCESS:     141798  HIT:     131869  MISS:       9929	AVERAGE STALL: 125.221
L2BTB BRANCH_RETURN	ACCESS:     830919  HIT:     766803  MISS:      64116	AVERAGE STALL: 50.0341
L2BTB BRANCH_OTHER ACCESS:          0  HIT:          0  MISS:          0	AVERAGE STALL: -nan
L2BTB TOTAL ROB OCCUPANCY AT BTB MISS: 175.572

L2C TOTAL     ACCESS:    5745386  HIT:    4995410  MISS:     749976  HIT %:    86.9465  MISS %:    13.0535   MPKI: 14.9995
L2C LOAD INSTRUCTION	ACCESS:    1903816  HIT:    1699395  MISS:     204421  HIT %:    89.2626  MISS %:    10.7374  MPKI: 4.08842
L2C PREFETCH INSTRUCTION	ACCESS:    1430871  HIT:    1277341  MISS:     153530  HIT %:    89.2702  MISS %:    10.7298  MPKI: 3.0706
L2C LOAD TRANSLATION INSTRUCTION	ACCESS:        238  HIT:         58  MISS:        180  HIT %:    24.3697  MISS %:    75.6303  MPKI: 0.0036
L2C TRANSLATION FROM L1D PREFETCHER INSTRUCTION	ACCESS:      45007  HIT:      29833  MISS:      15174  HIT %:    66.2852  MISS %:    33.7148  MPKI: 0.30348
L2C LOAD DATA	ACCESS:     745800  HIT:     632747  MISS:     113053  HIT %:    84.8414  MISS %:    15.1586  MPKI: 2.26106
L2C RFO DATA	ACCESS:     286998  HIT:     221411  MISS:      65587  HIT %:    77.1472  MISS %:    22.8528  MPKI: 1.31174
L2C PREFETCH DATA	ACCESS:     803555  HIT:     632815  MISS:     170740  HIT %:    78.7519  MISS %:    21.2481  MPKI: 3.4148
L2C WRITEBACK DATA	ACCESS:     527314  HIT:     501471  MISS:      25843  HIT %:    95.0991  MISS %:    4.90088  MPKI: 0.51686
L2C LOAD TRANSLATION DATA	ACCESS:       1765  HIT:        327  MISS:       1438  HIT %:    18.5269  MISS %:    81.4731  MPKI: 0.02876
L2C TRANSLATION FROM L1D PREFETCHER DATA	ACCESS:         22  HIT:         12  MISS:         10  HIT %:    54.5455  MISS %:    45.4545  MPKI: 0.0002

L2C PREFETCH  REQUESTED:    1491698  ISSUED:    1491698  USEFUL:      27458  USELESS:     314640
L2C USEFUL LOAD PREFETCHES:      27458 PREFETCH ISSUED TO LOWER LEVEL:     326077  ACCURACY: 8.42071
 TIMELY PREFETCHES:      27458 LATE PREFETCHES: 1807 DROPPED PREFETCHES: 0
L2C AVERAGE MISS LATENCY: 35.4951 cycles
L2C RQ	ACCESS:    2983732	FORWARD:          0	MERGED:          0	TO_CACHE:    2983650
L2C WQ	ACCESS:     527315	FORWARD:         82	MERGED:          0	TO_CACHE:     527315
L2C PQ	ACCESS:    3033435	FORWARD:          0	MERGED:     782601	TO_CACHE:    2250834

L2C Dense regions hint from L2: 0
PSCL5 TOTAL     ACCESS:      66552  HIT:      33276  MISS:      33276  HIT %:         50  MISS %:         50   MPKI: 0.66552
PSCL5 LOAD TRANSLATION INSTRUCTION	ACCESS:       3826  HIT:       1913  MISS:       1913  HIT %:         50  MISS %:         50  MPKI: 0.03826
PSCL5 TRANSLATION FROM L1D PREFETCHER INSTRUCTION	ACCESS:      62726  HIT:      31363  MISS:      31363  HIT %:         50  MISS %:         50  MPKI: 0.62726


PSCL4 TOTAL     ACCESS:      64051  HIT:      32023  MISS:      32028  HIT %:    49.9961  MISS %:    50.0039   MPKI: 0.64056
PSCL4 LOAD TRANSLATION INSTRUCTION	ACCESS:       1936  HIT:       1825  MISS:        111  HIT %:    94.2665  MISS %:    5.73347  MPKI: 0.00222
PSCL4 TRANSLATION FROM L1D PREFETCHER INSTRUCTION	ACCESS:      37919  HIT:      30198  MISS:       7721  HIT %:    79.6382  MISS %:    20.3618  MPKI: 0.15442
PSCL4 LOAD TRANSLATION DATA	ACCESS:       1719  HIT:          0  MISS:       1719  HIT %:          0  MISS %:        100  MPKI: 0.03438
PSCL4 TRANSLATION FROM L1D PREFETCHER DATA	ACCESS:      22477  HIT:          0  MISS:      22477  HIT %:          0  MISS %:        100  MPKI: 0.44954


PSCL3 TOTAL     ACCESS:      64131  HIT:      32063  MISS:      32068  HIT %:    49.9961  MISS %:    50.0039   MPKI: 0.64136
PSCL3 LOAD TRANSLATION INSTRUCTION	ACCESS:       1976  HIT:       1865  MISS:        111  HIT %:    94.3826  MISS %:    5.61741  MPKI: 0.00222
PSCL3 TRANSLATION FROM L1D PREFETCHER INSTRUCTION	ACCESS:      37919  HIT:      30198  MISS:       7721  HIT %:    79.6382  MISS %:    20.3618  MPKI: 0.15442
PSCL3 LOAD TRANSLATION DATA	ACCESS:       1759  HIT:          0  MISS:       1759  HIT %:          0  MISS %:        100  MPKI: 0.03518
PSCL3 TRANSLATION FROM L1D PREFETCHER DATA	ACCESS:      22477  HIT:          0  MISS:      22477  HIT %:          0  MISS %:        100  MPKI: 0.44954


PSCL2 TOTAL     ACCESS:      40514  HIT:      20214  MISS:      20300  HIT %:    49.8939  MISS %:    50.1061   MPKI: 0.406
PSCL2 LOAD TRANSLATION INSTRUCTION	ACCESS:       2056  HIT:       1833  MISS:        223  HIT %:    89.1537  MISS %:    10.8463  MPKI: 0.00446
PSCL2 TRANSLATION FROM L1D PREFETCHER INSTRUCTION	ACCESS:      35667  HIT:      18381  MISS:      17286  HIT %:     51.535  MISS %:     48.465  MPKI: 0.34572
PSCL2 LOAD TRANSLATION DATA	ACCESS:       1696  HIT:          0  MISS:       1696  HIT %:          0  MISS %:        100  MPKI: 0.03392
PSCL2 TRANSLATION FROM L1D PREFETCHER DATA	ACCESS:       1095  HIT:          0  MISS:       1095  HIT %:          0  MISS %:        100  MPKI: 0.0219


LLC TOTAL     ACCESS:     824101  HIT:     793513  MISS:      30588  HIT %:    96.2883  MISS %:    3.71168   MPKI: 0.61176
LLC LOAD INSTRUCTION	ACCESS:     203399  HIT:     202766  MISS:        633  HIT %:    99.6888  MISS %:   0.311211  MPKI: 0.01266
LLC PREFETCH INSTRUCTION	ACCESS:     151728  HIT:     150752  MISS:        976  HIT %:    99.3567  MISS %:   0.643256  MPKI: 0.01952
LLC LOAD TRANSLATION INSTRUCTION	ACCESS:        180  HIT:        178  MISS:          2  HIT %:    98.8889  MISS %:    1.11111  MPKI: 4e-05
LLC TRANSLATION FROM L1D PREFETCHER INSTRUCTION	ACCESS:      15174  HIT:      15084  MISS:         90  HIT %:    99.4069  MISS %:    0.59312  MPKI: 0.0018
LLC LOAD DATA	ACCESS:     112307  HIT:     108372  MISS:       3935  HIT %:    96.4962  MISS %:    3.50379  MPKI: 0.0787
LLC RFO DATA	ACCESS:      65538  HIT:      52681  MISS:      12857  HIT %:    80.3824  MISS %:    19.6176  MPKI: 0.25714
LLC PREFETCH DATA	ACCESS:     174349  HIT:     162641  MISS:      11708  HIT %:    93.2847  MISS %:    6.71527  MPKI: 0.23416
LLC WRITEBACK DATA	ACCESS:      99978  HIT:      99690  MISS:        288  HIT %:    99.7119  MISS %:   0.288063  MPKI: 0.00576
LLC LOAD TRANSLATION DATA	ACCESS:       1438  HIT:       1339  MISS:         99  HIT %:    93.1154  MISS %:    6.88456  MPKI: 0.00198
LLC TRANSLATION FROM L1D PREFETCHER DATA	ACCESS:         10  HIT:         10  MISS:          0  HIT %:        100  MISS %:          0  MPKI: 0

LLC AVERAGE MISS LATENCY: 159.115 cycles
LLC RQ	ACCESS:     398057	FORWARD:          0	MERGED:          0	TO_CACHE:     398047
LLC WQ	ACCESS:      99978	FORWARD:         10	MERGED:          0	TO_CACHE:      99978
LLC PQ	ACCESS:     326077	FORWARD:          0	MERGED:          0	TO_CACHE:     326077

LLC Dense regions hint to LLC: 0

RAW hits: 1944061
Loads Generated: 12622763
Loads sent to L1D: 10678702
Stores Generated: 6945471
Stores sent to L1D: 6945468
Major fault: 0 Minor fault: 2477
Allocated PAGES: 2477
I-Shadow cache 408 bytes
Touched + WorthPF tables 12288 bytes 
MMA filter 42 bytes 
FNL filter 272 bytes 
TOTAL PREFETCHER STORAGE SIZE: 19922 bytes
CPU 0 L1I next line prefetcher final stats

stream: 
stream:times selected: 1190468
stream:pref_filled: 122954
stream:pref_useful: 24305
stream:pref_late: 9612
stream:misses: 9353
stream:misses_by_poll: 0

CS: 
CS:times selected: 181351
CS:pref_filled: 60383
CS:pref_useful: 36242
CS:pref_late: 11563
CS:misses: 22996
CS:misses_by_poll: 3

CPLX: 
CPLX:times selected: 1007935
CPLX:pref_filled: 21991
CPLX:pref_useful: 5477
CPLX:pref_late: 4245
CPLX:misses: 111095
CPLX:misses_by_poll: 1

NL_L1: 
NL:times selected: 13041
NL:pref_filled: 757
NL:pref_useful: 161
NL:pref_late: 326
NL:misses: 1222
NL:misses_by_poll: 0

total selections: 2392795
total_filled: 100121
total_useful: 39373
total_late: 27533
total_polluted: 4
total_misses_after_warmup: 795303
conflicts: 5529700

test: 114561

DRAM Statistics
 CHANNEL 0
 RQ ROW_BUFFER_HIT:      10474  ROW_BUFFER_MISS:      19825
 DBUS_CONGESTED:         14
 WQ ROW_BUFFER_HIT:       1448  ROW_BUFFER_MISS:      12111  FULL:          0

 AVG_CONGESTED_CYCLE: 5

CPU 0 Branch Prediction Accuracy: 99.8244% MPKI: 0.3217 Average ROB Occupancy at Mispredict: 182.915
Branch types
NOT_BRANCH: 40838298 81.6766%
BRANCH_DIRECT_JUMP: 546511 1.09302%
BRANCH_INDIRECT: 181659 0.363318%
BRANCH_CONDITIONAL: 6190436 12.3809%
BRANCH_DIRECT_CALL: 949345 1.89869%
BRANCH_INDIRECT_CALL: 172193 0.344386%
BRANCH_RETURN: 1121537 2.24307%
BRANCH_OTHER: 0 0%

DRAM PAGES: 1048576
Allocated PAGES: 2477
Average_ROB_Occupancy: 230.262
Average_Decode_Occupancy: 30.1387
Average_FTQ_Occupancy: 11.2903
Indirect max targets: 14 Average targets: 1.14527
Branch_type:  BRANCH_DIRECT_JUMP:  Count Percentage: 3.59886 5.89908 4.35202 9.75361 2.75148 6.50234 1.64019 65.5024 
Branch_type:  BRANCH_INDIRECT:  Count Percentage: 19.726 3.35594 5.25442 3.80853 3.35594 10.8769 3.25105 50.3712 
Branch_type:  BRANCH_CONDITIONAL:  Count Percentage: 21.4842 6.55547 2.67338 4.89998 2.73745 8.57622 1.08029 51.993 
Branch_type:  BRANCH_DIRECT_CALL:  Count Percentage: 0.795755 1.301 0.982275 4.77922 2.96549 3.0043 0.775505 85.3965 
Branch_type:  BRANCH_INDIRECT_CALL:  Count Percentage: 9.56259 0 3.00024 4.30824 0 3.74726 0.991375 78.3903 
Branch_type:  BRANCH_RETURN:  Count Percentage: 5.13063 4.33377 2.69156 4.07276 5.66942 9.98441 1.4387 66.6787 
Branch_type:  BRANCH_DIRECT_JUMP:  Total Count: 39302 64422 47527 106516 30048 71010 17912 715331 
Branch_type:  BRANCH_INDIRECT:  Total Count: 71652 12190 19086 13834 12190 39509 11809 182967 
Branch_type:  BRANCH_CONDITIONAL:  Total Count: 2658193 811095 330772 606265 338699 1061118 133662 6432995 
Branch_type:  BRANCH_DIRECT_CALL:  Total Count: 15090 24671 18627 90629 56235 56971 14706 1619384 
Branch_type:  BRANCH_INDIRECT_CALL:  Total Count: 32950 0 10338 14845 0 12912 3416 270111 
Branch_type:  BRANCH_RETURN:  Total Count: 115012 97149 60336 91298 127090 223818 32251 1494720 
Number of unique branch instructions: 9804
Upper 32 bits: 
aaaa
ffff
ffff0000
Unique upper 32 bits: 3
Unique upper 36 bits: 3
Unique upper 40 bits: 5
Unique upper 44 bits: 32
Unique upper 48 bits: 154
Variant_0 : 1380 0.336914
Variant_1 : 1270 0.310059
Variant_2 : 1349 0.329346
Variant_3 : 0 0
Offset_3 4031
Offset_4 243
Offset_5 449
Offset_6 498
Offset_7 571
Offset_8 507
Offset_9 463
Offset_10 374
Offset_11 301
Offset_12 269
Offset_13 203
Offset_14 227
Offset_15 184
Offset_16 220
Offset_17 145
Offset_18 118
Offset_19 234
Offset_20 136
Offset_21 235
Offset_22 391
Offset_23 241
Offset_24 331
Offset_25 88
Offset_47 82
Offset_64 2
decode_dispatch_called: 24444245 66.6378
Dispatch_width: 0 12999347 53.1796 35.4377
Dispatch_width: 1 866613 3.54526 2.36249
Dispatch_width: 2 786289 3.21666 2.14351
Dispatch_width: 3 473281 1.93617 1.29022
Dispatch_width: 4 4788779 19.5906 13.0548
Dispatch_width: 5 193764 0.792677 0.528223
Dispatch_width: 6 4336172 17.739 11.8209
Empty_decode_cycles: 12238009 33.3622
ROB_full_cycles: 7594903 20.7046
Starvation_cycles_per_kilo_instr: 247.512
Starvation_cycles_per_kilo_instr_3: 197.686
Starvation_cycles_per_kilo_instr_0: 176.425
Branch_type_1  (3,1)  (4,9)  (5,37)  (6,68)  (7,112)  (8,128)  (9,122)  (10,97)  (11,67)  (12,43)  (13,5)  (14,2)  (15,3)  (16,4)  (18,1)  (19,4)  (20,2)  (21,1)  (22,3)  (23,2)  (24,10)  (25,12)  (64,1) 
Branch_type_2  (3,1)  (5,1)  (8,3)  (9,3)  (12,1)  (13,1)  (14,1)  (16,3)  (17,2)  (20,2)  (21,2)  (23,5)  (24,1)  (47,38) 
Branch_type_3  (3,4029)  (4,234)  (5,407)  (6,415)  (7,430)  (8,315)  (9,255)  (10,151)  (11,120)  (12,50)  (13,4)  (64,1) 
Branch_type_4  (6,3)  (7,8)  (8,25)  (9,51)  (10,60)  (11,58)  (12,96)  (13,88)  (14,100)  (15,86)  (16,98)  (17,64)  (18,53)  (19,115)  (20,71)  (21,124)  (22,208)  (23,136)  (24,192)  (25,72) 
Branch_type_5  (8,2)  (9,1)  (10,3)  (11,5)  (12,3)  (13,14)  (14,16)  (15,11)  (16,20)  (17,11)  (18,16)  (19,12)  (20,10)  (21,13)  (22,42)  (23,26)  (24,37) 
Branch_type_6  (5,4)  (6,12)  (7,21)  (8,34)  (9,31)  (10,63)  (11,51)  (12,76)  (13,91)  (14,108)  (15,84)  (16,95)  (17,68)  (18,48)  (19,103)  (20,51)  (21,95)  (22,138)  (23,72)  (24,91)  (25,4)  (47,44) 
Unique trigger count: 
Variant_0_evicts_0 : 0
Variant_0_evicts_1 : 0
Variant_0_evicts_2 : 0
Variant_0_evicts_3 : 0
Variant_1_evicts_0 : 0
Variant_1_evicts_1 : 0
Variant_1_evicts_2 : 0
Variant_1_evicts_3 : 0
Variant_2_evicts_0 : 0
Variant_2_evicts_1 : 0
Variant_2_evicts_2 : 0
Variant_2_evicts_3 : 0
Variant_3_evicts_0 : 0
Variant_3_evicts_1 : 0
Variant_3_evicts_2 : 0
Variant_3_evicts_3 : 0
BTB PER SET UNIQUE ADDR: 7 7 7 11 9 8 6 8 7 7 5 10 10 10 13 10 10 8 11 10 8 12 13 10 7 10 8 11 11 8 12 16 14 6 6 10 11 11 5 11 9 5 10 11 5 9 8 8 10 11 11 9 7 13 12 7 10 9 8 8 9 18 14 11 12 6 11 10 13 13 11 11 10 7 7 6 7 11 7 14 12 8 12 12 15 9 10 10 9 20 6 7 10 8 6 16 7 11 13 12 16 15 12 10 13 11 10 10 6 7 13 17 11 7 8 9 9 12 9 9 8 9 8 7 10 10 5 12 16 9 9 12 9 11 12 10 6 13 9 11 7 13 9 5 9 12 15 9 5 12 13 12 14 8 8 15 15 16 9 9 10 8 13 10 12 10 10 5 15 7 8 10 11 9 9 8 11 11 9 15 6 8 11 7 12 15 10 6 12 7 9 12 8 10 12 12 7 14 8 15 11 9 7 9 10 9 7 9 6 10 8 15 11 12 8 8 10 11 10 15 11 13 6 9 9 11 16 10 8 14 10 5 6 16 13 13 11 13 12 6 11 8 13 10 5 12 7 7 10 8 9 11 10 12 18 10 10 7 7 12 10 6 4 8 11 6 8 6 7 8 6 12 5 5 10 8 9 12 8 9 10 8 8 7 9 8 10 9 17 12 8 10 14 11 7 14 13 14 13 12 8 6 11 12 11 11 10 7 7 11 10 8 7 16 8 3 15 8 10 14 8 12 9 10 14 11 11 9 8 7 9 12 7 8 10 9 7 10 5 23 12 7 8 14 11 11 9 7 11 10 8 7 18 5 10 16 11 16 5 6 10 14 8 11 11 10 7 12 18 13 10 9 13 6 9 10 12 11 11 14 8 13 9 8 8 10 12 11 13 10 12 7 8 8 7 8 12 6 13 8 6 9 10 13 13 12 10 9 10 12 13 7 10 8 8 12 12 13 10 14 9 15 14 13 14 13 11 9 10 7 11 12 9 12 11 12 15 7 8 10 11 9 11 8 17 8 9 8 12 11 14 9 9 12 15 14 14 11 8 13 7 12 11 14 11 10 10 10 7 9 9 11 13 9 10 19 9 13 5 13 9 9 13 12 9 10 12 9 13 9 6 17 8 10 9 9 12 13 7 9 10 13 11 18 3 11 8 13 14 10 8 15 9 7 7 11 9 13 8 6 8 10 13 7 9 10 14 10 5 14 12 9 10 7 6 14 12 10 10 13 15 8 10 8 10 9 8 5 7 9 11 15 10 10 9 11 12 13 11 14 11 11 9 14 7 12 13 11 9 17 11 11 16 13 9 17 10 10 13 7 9 9 5 7 14 7 9 13 10 10 6 12 10 7 15 7 9 10 12 10 9 8 11 5 8 11 13 8 12 8 18 13 7 8 4 13 8 14 14 9 18 12 4 9 9 15 7 14 12 13 8 14 12 9 10 10 10 8 10 11 5 11 12 16 10 8 10 15 18 11 8 13 6 12 16 10 10 9 10 13 5 6 13 13 10 13 7 10 9 10 15 9 9 10 14 10 12 17 13 11 10 15 10 8 12 10 8 14 11 14 16 14 11 6 7 9 8 10 9 17 8 13 12 14 6 12 8 13 8 9 9 8 6 14 12 9 17 10 7 12 11 8 11 8 14 4 12 13 7 7 7 7 10 7 12 9 9 11 19 11 8 7 5 12 12 15 11 14 6 10 11 6 14 10 7 10 9 5 8 6 8 11 7 7 11 8 10 14 8 12 9 16 8 5 7 8 15 10 10 11 5 14 10 8 14 11 11 10 7 9 11 6 8 15 15 13 9 8 12 9 16 9 10 13 16 13 12 11 9 11 11 20 9 11 9 15 13 13 8 11 8 12 6 11 13 8 6 5 9 9 10 7 7 8 6 10 6 10 9 9 13 12 8 8 9 13 7 14 9 6 12 10 12 10 12 10 11 8 11 10 7 8 7 8 16 8 10 5 14 11 6 11 17 10 13 6 12 12 11 11 11 8 9 12 11 14 12 9 8 14 12 11 10 11 11 11 10 6 10 8 12 8 10 12 7 16 9 9 13 11 6 7 10 13 11 12 13 10 6 11 10 11 8 10 9 8 9 9 9 6 12 15 16 7 11 14 7 11 11 12 7 13 12 10 10 7 8 12 8 18 10 14 8 8 10 11 14 7 14 11 12 8 12 12 12 11 11 8 9 12 11 13 7 8 12 7 16 15 10 15 6 9 9 9 7 17 15 8 12 8 9 9 10 11 10 11 13 14 14 6 14 14 13 10 15 10 8 16 6 15 9 12 12 6 7 9 5 8 7 9 8 21 10 8 
BTB PER SET COUNT: 937 11 1987 242 3192 10 7 2959 3422 1017 7 3045 6692 3004 5506 484 10257 959 236 802 916 1113 703 109 2536 578 488 2751 2435 19 8133 1134 1296 1926 7 2725 21 17 17 2030 3055 236 668 2334 120 875 284 11 496 2170 16 1877 39 788 3470 1288 15 3027 187 8 241 1878 276 1930 899 129 1663 3034 367 925 830 2028 29 336 51 844 247 742 162 344 1855 825 1634 747 4240 3458 483 763 1589 1328 755 8 3818 133 883 3126 7 3688 992 42 2238 6664 4208 2355 2400 1417 3238 854 2467 3382 1935 32 2439 1862 1030 12 120 376 5176 2800 474 4348 297 1354 3496 2507 242 1364 5797 3670 1713 709 14 20 301 2025 660 579 193 14 7 1261 553 6 3161 1617 9972 475 6 1872 2017 6663 4216 362 59 269 2000 5533 15 8554 1905 61 504 1424 3513 1976 47 2063 915 2526 970 50 2260 110 2323 1551 39 6847 3171 3590 2325 9 2408 99 3979 1450 392 6 1708 6970 16 2099 1264 3744 1730 7608 1825 583 763 2876 3591 14 708 1239 4258 14 59 430 8 1408 1579 1959 4424 21 523 475 448 294 2919 497 1080 265 10 4260 1090 1069 3325 262 1921 6062 559 5 309 2684 464 9270 2079 1854 3629 8 99 22 151 3509 1618 8637 2045 8 629 8 465 3783 1270 5781 102 1653 3819 1482 104 18 4325 1944 12 8 1781 6 709 2425 14 2502 716 323 470 193 11 619 1578 5279 4223 563 2724 225 2271 60 2892 11 2942 637 9015 1920 2039 2552 852 1980 14 1992 5345 4356 2601 4865 2535 1460 2704 19 2756 1309 816 528 157 1994 4585 3463 795 2862 1888 2205 2315 10 831 1556 473 8872 16 81 8441 1041 1621 913 115 595 2314 1082 48 866 545 2103 4784 1308 1359 1629 2007 3048 2177 3473 57 2070 2839 1015 2228 14 11 4172 1632 9 4223 5140 2172 6320 124 8 35 18 105 1725 5160 666 5894 383 2190 2863 14 720 244 712 2821 500 3341 1298 2654 3232 477 2131 556 1353 970 4224 1036 457 134 1252 1582 4883 536 1170 846 1866 1309 6 3701 1092 935 156 37 5009 817 1745 850 42 1425 4913 18 733 38 499 480 17 595 9042 3256 3768 3482 2959 2311 3088 1851 2892 21 12 189 1720 4173 35 3380 2908 349 3875 3101 1200 9 21 2360 5360 2290 52 2123 9 464 1208 17 27 1619 13 516 1003 1401 4826 1005 4416 1196 2721 29 2876 1936 4982 12 2991 16805 1546 7 2370 952 20 2068 17 1470 2218 12 32 46 17 32 763 2807 408 260 543 2891 10 6968 4290 4446 2815 7705 1148 2943 3939 1951 9711 78 186 3777 9087 4131 4858 3 972 183 726 3711 47 296 2661 546 2498 1136 2046 2524 4399 477 2072 2167 715 23 7 649 2081 2646 2318 9 1671 676 813 1501 397 6 795 1243 1296 1071 4567 1062 2677 2545 1288 131 1632 587 8 583 3518 3456 2404 1728 5322 19 486 2528 5336 1048 131 2863 155 705 1625 8 509 132 527 351 2179 626 6689 5456 20 3370 3707 93 12 2103 2480 160 40 111 11 744 9 4363 846 585 683 320 8212 888 975 1930 333 1158 2769 2605 2552 2370 9 402 498 153 8509 763 949 3302 13 1118 94 48 1765 518 2943 2637 947 960 3496 3921 31 10 2548 1488 24 3330 1187 6306 9116 4519 771 1636 3610 3524 1465 4830 1135 126 2330 5 1652 2009 2812 1523 328 3163 4609 3701 470 1558 719 1440 1141 9095 513 75 2328 2931 3318 7 6 664 527 7001 4739 12 2699 4826 521 2288 231 2881 4030 3843 24 2517 5747 946 605 345 1664 40 1073 2635 5268 43 85 4411 3014 4048 1837 1927 450 2210 11 1411 557 3778 237 1671 22 786 3296 16 17 1751 247 1957 1774 271 8 522 4837 1303 481 2171 2055 18 406 18 2431 4638 3686 2651 2545 2191 24 7 7 1784 1901 1064 753 517 2905 4612 2146 4317 3616 738 1481 1677 1233 18 1919 1805 1307 1983 535 1715 6 5349 4007 4467 12 224 5 10 7 10 1852 1246 362 1345 10 3070 3521 90 17 1286 5945 2907 7 401 259 151 2972 94 212 764 2972 5260 391 2351 3568 123 1444 866 13 2185 80 174 1294 2760 2854 77 511 17 1936 2398 1107 501 34 2688 4093 290 2255 597 3738 442 900 358 1684 955 3517 1299 3591 178 4005 1744 2069 121 2611 1013 32 473 5 2318 1580 270 7 520 951 999 2321 1006 2455 1129 6496 548 3245 752 23 973 1177 7 1180 1167 6 762 1474 7587 13 4099 1862 865 956 22 1861 3415 2326 1956 452 1207 624 2966 709 4510 713 8 1447 7279 4591 1175 1660 3855 3630 6470 56 2900 2205 3091 20 990 3838 2365 19 4241 3759 3404 956 922 1136 757 265 2829 477 4561 18 1209 2337 2293 1498 9 422 3253 1087 2645 3806 11 1746 17 7401 4883 643 6878 1022 1227 780 3973 2516 4020 3939 59 1860 2815 4410 1945 1972 123 972 1849 1937 978 5661 1500 297 615 352 3097 6552 3527 40 5127 7 10 2152 949 1748 1803 1672 5172 10 1222 450 1855 7 1529 512 790 1297 776 578 6602 2342 1635 9 204 2938 1658 1475 12 797 5619 4145 1352 1593 877 1442 1171 1675 1341 1075 7 4777 753 4970 2577 3481 2375 2083 31 1448 54 3638 2082 1949 812 1013 2788 5714 864 22 654 4792 462 6277 9 756 289 2342 2134 379 835 77 6 472 1556 213 2247 2045 147 768 
To predecode: 1197914
Predecoding something: 746103
Predecode request dropped: 0
sizeofblock_0 0
sizeofblock_1 346001
sizeofblock_2 414595
sizeofblock_3 812957
sizeofblock_4 203200
sizeofblock_5 0
sizeofblock_6 0
sizeofblock_7 0
sizeofblock_8 0
Variant_0 Correct: 1617586 Incorrect: 0 Accuracy: 1
Variant_1 Correct: 2095205 Incorrect: 0 Accuracy: 1
Variant_2 Correct: 5062022 Incorrect: 0 Accuracy: 1
Variant_3 Correct: 0 Incorrect: 0 Accuracy: -nan
