
*** ChampSim Multicore Out-of-Order Simulator ***

Warmup Instructions: 50000000
Simulation Instructions: 50000000
Number of CPUs: 1
LLC sets: 2048
LLC ways: 16
Off-chip DRAM Size: 4096 MB Channels: 1 Width: 64-bit Data Rate: 6400 MT/s
CPU 0 runs ./micro_traces/srv163.trace.gz
.gz
ITLB has LRU replacement policy
DTLB has LRU replacement policy
STLB has LRU replacement policy
FDIP Prefetcher at L1I
L1I has LRU replacement policy
L1D has LRU replacement policy
Initialize SRRIP state for L2C
Initialize DRRIP state for LLC
Heartbeat CPU 0 instructions: 10000001 cycles: 2798038 heartbeat IPC: 3.57393 cumulative IPC: 3.57393 (Simulation time: 0 hr 1 min 43 sec) 
Heartbeat CPU 0 instructions: 20000001 cycles: 5594693 heartbeat IPC: 3.5757 cumulative IPC: 3.57482 (Simulation time: 0 hr 3 min 49 sec) 
Heartbeat CPU 0 instructions: 30000003 cycles: 8390415 heartbeat IPC: 3.57689 cumulative IPC: 3.57551 (Simulation time: 0 hr 5 min 42 sec) 
Heartbeat CPU 0 instructions: 40000002 cycles: 11186651 heartbeat IPC: 3.57624 cumulative IPC: 3.57569 (Simulation time: 0 hr 7 min 44 sec) 
Heartbeat CPU 0 instructions: 50000001 cycles: 13982814 heartbeat IPC: 3.57633 cumulative IPC: 3.57582 (Simulation time: 0 hr 9 min 39 sec) 

Warmup complete CPU 0 instructions: 50000001 cycles: 13982814 (Simulation time: 0 hr 9 min 39 sec) 

Cycle: 20000000 FTQ IN: 58659583 FTQ occupancy: 21.5055 DECODE IN: 58659521 DECODE occupancy: 55.3417 ROB IN: 58659461 ROB occupancy: 325.371 ROB OUT: 58659109
Heartbeat CPU 0 instructions: 60000002 cycles: 20941346 heartbeat IPC: 1.43708 cumulative IPC: 1.43708 (Simulation time: 0 hr 12 min 7 sec) 
Heartbeat CPU 0 instructions: 70000001 cycles: 27938021 heartbeat IPC: 1.42925 cumulative IPC: 1.43316 (Simulation time: 0 hr 14 min 40 sec) 
Cycle: 30000000 FTQ IN: 14294171 FTQ occupancy: 18.1134 DECODE IN: 14294217 DECODE occupancy: 44.3854 ROB IN: 14294262 ROB occupancy: 271.058 ROB OUT: 14294614
Heartbeat CPU 0 instructions: 80000003 cycles: 34882473 heartbeat IPC: 1.44 cumulative IPC: 1.43543 (Simulation time: 0 hr 17 min 3 sec) 
Cycle: 40000000 FTQ IN: 14423580 FTQ occupancy: 18.1935 DECODE IN: 14423504 DECODE occupancy: 44.7734 ROB IN: 14423459 ROB occupancy: 273.152 ROB OUT: 14423369
Heartbeat CPU 0 instructions: 90000000 cycles: 41914320 heartbeat IPC: 1.4221 cumulative IPC: 1.43207 (Simulation time: 0 hr 19 min 35 sec) 
Heartbeat CPU 0 instructions: 100000003 cycles: 48864456 heartbeat IPC: 1.43882 cumulative IPC: 1.43342 (Simulation time: 0 hr 23 min 1 sec) 
Finished CPU 0 instructions: 50000002 cycles: 34881642 cumulative IPC: 1.43342 (Simulation time: 0 hr 23 min 1 sec) 

ChampSim completed all CPUs

Region of Interest Statistics

CPU 0 cumulative IPC: 1.43342 instructions: 50000002 cycles: 34881642
 Fetch stage stalled: 23.2981  Sim cycles: 34881642 fetch stall cycle: 8126745
 Empty decode stage: 12.0441  Sim cycles: 34881642 fetch stall cycle: 4201173
ITLB TOTAL     ACCESS:    5957215  HIT:    5462187  MISS:     495028  HIT %:    91.6903  MISS %:    8.30972   MPKI: 9.90056
ITLB LOAD TRANSLATION INSTRUCTION	ACCESS:    5805435  HIT:    5310407  MISS:     495028  HIT %:     91.473  MISS %:    8.52698  MPKI: 9.90056
ITLB TRANSLATION FROM L1D PREFETCHER INSTRUCTION	ACCESS:     151780  HIT:     151780  MISS:          0  HIT %:        100  MISS %:          0  MPKI: 0

ITLB AVERAGE MISS LATENCY: 9.04704 cycles
ITLB RQ	ACCESS:    7941869	FORWARD:          0	MERGED:    1440137	TO_CACHE:    6501732

DTLB TOTAL     ACCESS:    8937546  HIT:    8462992  MISS:     474554  HIT %:    94.6903  MISS %:    5.30967   MPKI: 9.49108
DTLB LOAD TRANSLATION DATA	ACCESS:    8937546  HIT:    8462992  MISS:     474554  HIT %:    94.6903  MISS %:    5.30967  MPKI: 9.49108

DTLB AVERAGE MISS LATENCY: 9.30393 cycles
DTLB RQ	ACCESS:   13315654	FORWARD:          0	MERGED:    4341049	TO_CACHE:    8974605

STLB TOTAL     ACCESS:    1213869  HIT:    1211983  MISS:       1886  HIT %:    99.8446  MISS %:   0.155371   MPKI: 0.03772
STLB LOAD TRANSLATION INSTRUCTION	ACCESS:     495028  HIT:     494812  MISS:        216  HIT %:    99.9564  MISS %:  0.0436339  MPKI: 0.00432
STLB LOAD TRANSLATION DATA	ACCESS:     474554  HIT:     472905  MISS:       1649  HIT %:    99.6525  MISS %:   0.347484  MPKI: 0.03298
STLB TRANSLATION FROM L1D PREFETCHER DATA	ACCESS:     244287  HIT:     244266  MISS:         21  HIT %:    99.9914  MISS %: 0.00859645  MPKI: 0.00042

STLB AVERAGE MISS LATENCY: 72.4671 cycles
STLB RQ	ACCESS:    1334150	FORWARD:          0	MERGED:     120238	TO_CACHE:    1213912

STLB Hit, L1D data hit: 0
STLB Hit, L2C data hit: 0
STLB Hit, LLC data hit: 0
STLB Hit, LLC data miss: 0
STLB STLB hints to L2: 0
L1D TOTAL     ACCESS:   13061063  HIT:   11942960  MISS:    1118103  HIT %:    91.4394  MISS %:    8.56058   MPKI: 22.3621
L1D LOAD DATA	ACCESS:    6531606  HIT:    5793815  MISS:     737791  HIT %:    88.7043  MISS %:    11.2957  MPKI: 14.7558
L1D RFO DATA	ACCESS:    6204907  HIT:    5919916  MISS:     284991  HIT %:     95.407  MISS %:    4.59299  MPKI: 5.69982
L1D PREFETCH DATA	ACCESS:     324550  HIT:     229229  MISS:      95321  HIT %:    70.6298  MISS %:    29.3702  MPKI: 1.90642

L1D PREFETCH  REQUESTED:     729459  ISSUED:     729459  USEFUL:      33249  USELESS:      69343
L1D USEFUL LOAD PREFETCHES:      33249 PREFETCH ISSUED TO LOWER LEVEL:     102643  ACCURACY: 32.3929
 TIMELY PREFETCHES:      33249 LATE PREFETCHES: 7271 DROPPED PREFETCHES: 9
L1D AVERAGE MISS LATENCY: 208313 cycles
L1D RQ	ACCESS:   10665959	FORWARD:          0	MERGED:    3938341	TO_CACHE:    6564946
L1D WQ	ACCESS:    6949899	FORWARD:     162995	MERGED:     199191	TO_CACHE:    6750708
L1D PQ	ACCESS:     364891	FORWARD:          0	MERGED:          0	TO_CACHE:     364568

L1D UNIQUE REGIONS ACCESSED: 0
L1D REGIONS CONFLICTS: 0
L1D Cross Page Prefetch Requests: 6772
L1D Same Page Prefetch Requests: 741632
L1D ROI Sum of L1D PQ occupancy: 4628819
L1D PREFETCHES PUSHED FROM L2C: 0
L1I TOTAL     ACCESS:    7122972  HIT:    4352880  MISS:    2770092  HIT %:    61.1104  MISS %:    38.8896   MPKI: 55.4018
L1I LOAD INSTRUCTION	ACCESS:    6441235  HIT:    3671143  MISS:    2770092  HIT %:    56.9944  MISS %:    43.0056  MPKI: 55.4018
L1I PREFETCH INSTRUCTION	ACCESS:     681737  HIT:     681737  MISS:          0  HIT %:        100  MISS %:          0  MPKI: 0

L1I PREFETCH  REQUESTED:    1678511  ISSUED:    1678511  USEFUL:          0  USELESS:          0
L1I USEFUL LOAD PREFETCHES:          0 PREFETCH ISSUED TO LOWER LEVEL:          0  ACCURACY: -nan
 TIMELY PREFETCHES:          0 LATE PREFETCHES: 0 DROPPED PREFETCHES: 0
L1I AVERAGE MISS LATENCY: 17.0501 cycles
L1I RQ	ACCESS:    9846314	FORWARD:          0	MERGED:    3149479	TO_CACHE:    6696835
L1I PQ	ACCESS:    1678511	FORWARD:          0	MERGED:     433477	TO_CACHE:    1245034

L1BTB TOTAL     ACCESS:    5373316  HIT:    5340938  MISS:      32378  HIT %:    99.3974  MISS %:    0.60257   MPKI: 0.64756
L1BTB BRANCH_DIRECT_JUMP	ACCESS:     547550  HIT:     547550  MISS:          0	AVERAGE STALL: -nan
L1BTB BRANCH_INDIRECT	ACCESS:     182352  HIT:     169407  MISS:      12945	AVERAGE STALL: 124.347
L1BTB BRANCH_CONDITIONAL	ACCESS:    2399792  HIT:    2399792  MISS:          0	AVERAGE STALL: -nan
L1BTB BRANCH_DIRECT_CALL	ACCESS:     949024  HIT:     949024  MISS:          0	AVERAGE STALL: -nan
L1BTB BRANCH_INDIRECT_CALL	ACCESS:     172785  HIT:     153352  MISS:      19433	AVERAGE STALL: 163.119
L1BTB BRANCH_RETURN	ACCESS:    1121813  HIT:    1121813  MISS:          0	AVERAGE STALL: -nan
L1BTB BRANCH_OTHER ACCESS:          0  HIT:          0  MISS:          0	AVERAGE STALL: -nan
L1BTB TOTAL ROB OCCUPANCY AT BTB MISS: 125.897

L2BTB BRANCH_DIRECT_JUMP	ACCESS:          0  HIT:          0  MISS:          0	AVERAGE STALL: -nan
L2BTB BRANCH_INDIRECT	ACCESS:          0  HIT:          0  MISS:          0	AVERAGE STALL: 124.347
L2BTB BRANCH_CONDITIONAL	ACCESS:          0  HIT:          0  MISS:          0	AVERAGE STALL: -nan
L2BTB BRANCH_DIRECT_CALL	ACCESS:          0  HIT:          0  MISS:          0	AVERAGE STALL: -nan
L2BTB BRANCH_INDIRECT_CALL	ACCESS:          0  HIT:          0  MISS:          0	AVERAGE STALL: 163.119
L2BTB BRANCH_RETURN	ACCESS:          0  HIT:          0  MISS:          0	AVERAGE STALL: -nan
L2BTB BRANCH_OTHER ACCESS:          0  HIT:          0  MISS:          0	AVERAGE STALL: -nan
L2BTB TOTAL ROB OCCUPANCY AT BTB MISS: inf

L2C TOTAL     ACCESS:    4489430  HIT:    4053954  MISS:     435476  HIT %:       90.3  MISS %:    9.70003   MPKI: 8.70952
L2C LOAD INSTRUCTION	ACCESS:    2770091  HIT:    2534768  MISS:     235323  HIT %:    91.5049  MISS %:    8.49514  MPKI: 4.70646
L2C LOAD TRANSLATION INSTRUCTION	ACCESS:        239  HIT:         60  MISS:        179  HIT %:    25.1046  MISS %:    74.8954  MPKI: 0.00358
L2C LOAD DATA	ACCESS:     730467  HIT:     664925  MISS:      65542  HIT %:    91.0274  MISS %:    8.97262  MPKI: 1.31084
L2C RFO DATA	ACCESS:     284909  HIT:     232311  MISS:      52598  HIT %:    81.5387  MISS %:    18.4613  MPKI: 1.05196
L2C PREFETCH DATA	ACCESS:     180072  HIT:     112477  MISS:      67595  HIT %:    62.4622  MISS %:    37.5378  MPKI: 1.3519
L2C WRITEBACK DATA	ACCESS:     521906  HIT:     508978  MISS:      12928  HIT %:    97.5229  MISS %:    2.47707  MPKI: 0.25856
L2C LOAD TRANSLATION DATA	ACCESS:       1699  HIT:        405  MISS:       1294  HIT %:    23.8376  MISS %:    76.1624  MPKI: 0.02588
L2C TRANSLATION FROM L1D PREFETCHER DATA	ACCESS:         47  HIT:         30  MISS:         17  HIT %:    63.8298  MISS %:    36.1702  MPKI: 0.00034

L2C PREFETCH  REQUESTED:      84483  ISSUED:      84483  USEFUL:       7236  USELESS:      60608
L2C USEFUL LOAD PREFETCHES:       7236 PREFETCH ISSUED TO LOWER LEVEL:      67861  ACCURACY: 10.663
 TIMELY PREFETCHES:       7236 LATE PREFETCHES: 266 DROPPED PREFETCHES: 0
L2C AVERAGE MISS LATENCY: 38.8456 cycles
L2C RQ	ACCESS:    3787536	FORWARD:          0	MERGED:          0	TO_CACHE:    3787452
L2C WQ	ACCESS:     521906	FORWARD:         84	MERGED:          0	TO_CACHE:     521906
L2C PQ	ACCESS:     187126	FORWARD:          0	MERGED:       3763	TO_CACHE:     183363

L2C Dense regions hint from L2: 0
PSCL5 TOTAL     ACCESS:       3798  HIT:       1899  MISS:       1899  HIT %:         50  MISS %:         50   MPKI: 0.03798
PSCL5 LOAD TRANSLATION INSTRUCTION	ACCESS:       3710  HIT:       1855  MISS:       1855  HIT %:         50  MISS %:         50  MPKI: 0.0371
PSCL5 TRANSLATION FROM L1D PREFETCHER INSTRUCTION	ACCESS:         88  HIT:         44  MISS:         44  HIT %:         50  MISS %:         50  MPKI: 0.00088


PSCL4 TOTAL     ACCESS:       3711  HIT:       1853  MISS:       1858  HIT %:    49.9326  MISS %:    50.0674   MPKI: 0.03716
PSCL4 LOAD TRANSLATION INSTRUCTION	ACCESS:       1815  HIT:       1810  MISS:          5  HIT %:    99.7245  MISS %:   0.275482  MPKI: 0.0001
PSCL4 TRANSLATION FROM L1D PREFETCHER INSTRUCTION	ACCESS:         43  HIT:         43  MISS:          0  HIT %:        100  MISS %:          0  MPKI: 0
PSCL4 LOAD TRANSLATION DATA	ACCESS:       1810  HIT:          0  MISS:       1810  HIT %:          0  MISS %:        100  MPKI: 0.0362
PSCL4 TRANSLATION FROM L1D PREFETCHER DATA	ACCESS:         43  HIT:          0  MISS:         43  HIT %:          0  MISS %:        100  MPKI: 0.00086


PSCL3 TOTAL     ACCESS:       3767  HIT:       1881  MISS:       1886  HIT %:    49.9336  MISS %:    50.0664   MPKI: 0.03772
PSCL3 LOAD TRANSLATION INSTRUCTION	ACCESS:       1843  HIT:       1838  MISS:          5  HIT %:    99.7287  MISS %:   0.271297  MPKI: 0.0001
PSCL3 TRANSLATION FROM L1D PREFETCHER INSTRUCTION	ACCESS:         43  HIT:         43  MISS:          0  HIT %:        100  MISS %:          0  MPKI: 0
PSCL3 LOAD TRANSLATION DATA	ACCESS:       1838  HIT:          0  MISS:       1838  HIT %:          0  MISS %:        100  MPKI: 0.03676
PSCL3 TRANSLATION FROM L1D PREFETCHER DATA	ACCESS:         43  HIT:          0  MISS:         43  HIT %:          0  MISS %:        100  MPKI: 0.00086


PSCL2 TOTAL     ACCESS:       3722  HIT:       1823  MISS:       1899  HIT %:     48.979  MISS %:     51.021   MPKI: 0.03798
PSCL2 LOAD TRANSLATION INSTRUCTION	ACCESS:       1997  HIT:       1780  MISS:        217  HIT %:    89.1337  MISS %:    10.8663  MPKI: 0.00434
PSCL2 TRANSLATION FROM L1D PREFETCHER INSTRUCTION	ACCESS:         43  HIT:         43  MISS:          0  HIT %:        100  MISS %:          0  MPKI: 0
PSCL2 LOAD TRANSLATION DATA	ACCESS:       1639  HIT:          0  MISS:       1639  HIT %:          0  MISS %:        100  MPKI: 0.03278
PSCL2 TRANSLATION FROM L1D PREFETCHER DATA	ACCESS:         43  HIT:          0  MISS:         43  HIT %:          0  MISS %:        100  MPKI: 0.00086


LLC TOTAL     ACCESS:     495304  HIT:     467995  MISS:      27309  HIT %:    94.4864  MISS %:    5.51358   MPKI: 0.54618
LLC LOAD INSTRUCTION	ACCESS:     235323  HIT:     234677  MISS:        646  HIT %:    99.7255  MISS %:   0.274516  MPKI: 0.01292
LLC LOAD TRANSLATION INSTRUCTION	ACCESS:        179  HIT:        150  MISS:         29  HIT %:    83.7989  MISS %:    16.2011  MPKI: 0.00058
LLC LOAD DATA	ACCESS:      65276  HIT:      61882  MISS:       3394  HIT %:    94.8005  MISS %:    5.19946  MPKI: 0.06788
LLC RFO DATA	ACCESS:      52590  HIT:      39598  MISS:      12992  HIT %:    75.2957  MISS %:    24.7043  MPKI: 0.25984
LLC PREFETCH DATA	ACCESS:      67861  HIT:      57990  MISS:       9871  HIT %:    85.4541  MISS %:    14.5459  MPKI: 0.19742
LLC WRITEBACK DATA	ACCESS:      72764  HIT:      72455  MISS:        309  HIT %:    99.5753  MISS %:   0.424661  MPKI: 0.00618
LLC LOAD TRANSLATION DATA	ACCESS:       1294  HIT:       1228  MISS:         66  HIT %:    94.8995  MISS %:    5.10046  MPKI: 0.00132
LLC TRANSLATION FROM L1D PREFETCHER DATA	ACCESS:         17  HIT:         15  MISS:          2  HIT %:    88.2353  MISS %:    11.7647  MPKI: 4e-05

LLC AVERAGE MISS LATENCY: 154.054 cycles
LLC RQ	ACCESS:     354687	FORWARD:          0	MERGED:          0	TO_CACHE:     354679
LLC WQ	ACCESS:      72764	FORWARD:          8	MERGED:          0	TO_CACHE:      72764
LLC PQ	ACCESS:      67861	FORWARD:          0	MERGED:          0	TO_CACHE:      67861

LLC Dense regions hint to LLC: 0

RAW hits: 1964313
Loads Generated: 12630272
Loads sent to L1D: 10665959
Stores Generated: 6949891
Stores sent to L1D: 6949899
Major fault: 0 Minor fault: 2589
Allocated PAGES: 2589

stream: 
stream:times selected: 1172151
stream:pref_filled: 122744
stream:pref_useful: 24091
stream:pref_late: 6670
stream:misses: 7981
stream:misses_by_poll: 0

CS: 
CS:times selected: 174866
CS:pref_filled: 59894
CS:pref_useful: 36587
CS:pref_late: 6535
CS:misses: 15728
CS:misses_by_poll: 8

CPLX: 
CPLX:times selected: 996156
CPLX:pref_filled: 19989
CPLX:pref_useful: 4691
CPLX:pref_late: 3146
CPLX:misses: 93369
CPLX:misses_by_poll: 0

NL_L1: 
NL:times selected: 20411
NL:pref_filled: 740
NL:pref_useful: 323
NL:pref_late: 281
NL:misses: 1738
NL:misses_by_poll: 0

total selections: 2363584
total_filled: 95321
total_useful: 33249
total_late: 17848
total_polluted: 8
total_misses_after_warmup: 771129
conflicts: 5521275

test: 115083

DRAM Statistics
 CHANNEL 0
 RQ ROW_BUFFER_HIT:      10170  ROW_BUFFER_MISS:      16815
 DBUS_CONGESTED:          7
 WQ ROW_BUFFER_HIT:       1293  ROW_BUFFER_MISS:      11545  FULL:          0

 AVG_CONGESTED_CYCLE: 6

CPU 0 Branch Prediction Accuracy: 99.8272% MPKI: 0.31622 Average ROB Occupancy at Mispredict: 193.626
Branch types
NOT_BRANCH: 40847927 81.6959%
BRANCH_DIRECT_JUMP: 547550 1.0951%
BRANCH_INDIRECT: 182352 0.364704%
BRANCH_CONDITIONAL: 6178077 12.3562%
BRANCH_DIRECT_CALL: 949024 1.89805%
BRANCH_INDIRECT_CALL: 172785 0.34557%
BRANCH_RETURN: 1121813 2.24363%
BRANCH_OTHER: 0 0%

DRAM PAGES: 1048576
Allocated PAGES: 2589
Average_ROB_Occupancy: 272.785
Average_Decode_Occupancy: 44.4829
Average_FTQ_Occupancy: 18.129
Indirect max targets: 14 Average targets: 1.17778
Branch_type:  BRANCH_DIRECT_JUMP:  Count Percentage: 4.12616 5.68841 3.63391 2.28158 8.16701 6.32443 1.45656 68.3219 
Branch_type:  BRANCH_INDIRECT:  Count Percentage: 11.7649 3.39009 2.49567 13.3009 3.35471 2.81794 0.939132 61.9366 
Branch_type:  BRANCH_CONDITIONAL:  Count Percentage: 25.784 2.25495 2.06737 3.01979 3.25032 4.63142 3.73058 55.2615 
Branch_type:  BRANCH_DIRECT_CALL:  Count Percentage: 0.386717 1.80401 0.716855 1.46601 5.2319 2.60505 1.0282 86.7613 
Branch_type:  BRANCH_INDIRECT_CALL:  Count Percentage: 9.53175 0 2.98761 0.000869923 1.36056 1.70998 0.992872 83.4164 
Branch_type:  BRANCH_RETURN:  Count Percentage: 7.49508 2.02348 2.23353 3.08556 3.44563 5.11457 3.61051 72.9916 
Branch_type:  BRANCH_DIRECT_JUMP:  Total Count: 45172 62275 39783 24978 89410 69238 15946 747968 
Branch_type:  BRANCH_INDIRECT:  Total Count: 42894 12360 9099 48494 12231 10274 3424 225816 
Branch_type:  BRANCH_CONDITIONAL:  Total Count: 3184467 278498 255331 372960 401432 572005 460747 6825091 
Branch_type:  BRANCH_DIRECT_CALL:  Total Count: 7327 34180 13582 27776 99127 49357 19481 1643836 
Branch_type:  BRANCH_INDIRECT_CALL:  Total Count: 32871 0 10303 3 4692 5897 3424 287668 
Branch_type:  BRANCH_RETURN:  Total Count: 167920 45334 50040 69129 77196 114587 80890 1635306 
Number of unique branch instructions: 10811
Upper 32 bits: 
aaaa
ffff
ffff0000
Unique upper 32 bits: 3
Unique upper 36 bits: 3
Unique upper 40 bits: 5
Unique upper 44 bits: 32
Unique upper 48 bits: 158
Offset_3 4470
Offset_4 255
Offset_5 484
Offset_6 541
Offset_7 643
Offset_8 577
Offset_9 523
Offset_10 426
Offset_11 360
Offset_12 327
Offset_13 240
Offset_14 247
Offset_15 194
Offset_16 233
Offset_17 169
Offset_18 149
Offset_19 257
Offset_20 143
Offset_21 235
Offset_22 413
Offset_23 241
Offset_24 351
Offset_25 117
Offset_47 94
Offset_64 2
decode_dispatch_called: 27498209 78.8329
Dispatch_width: 0 14978259 54.4699 42.9402
Dispatch_width: 1 1100604 4.00246 3.15525
Dispatch_width: 2 861560 3.13315 2.46995
Dispatch_width: 3 501712 1.82453 1.43833
Dispatch_width: 4 7304260 26.5627 20.9401
Dispatch_width: 5 57100 0.20765 0.163696
Dispatch_width: 6 2694714 9.7996 7.72531
Empty_decode_cycles: 7383433 21.1671
ROB_full_cycles: 11838821 33.94
Starvation_cycles_per_kilo_instr: 203.481
Starvation_cycles_per_kilo_instr_3: 129.867
Starvation_cycles_per_kilo_instr_0: 105.229
Branch_type_1  (3,1)  (4,9)  (5,39)  (6,74)  (7,126)  (8,148)  (9,136)  (10,110)  (11,78)  (12,55)  (13,11)  (14,2)  (15,3)  (16,4)  (18,1)  (19,5)  (20,2)  (21,1)  (22,3)  (23,2)  (24,10)  (25,12) 
Branch_type_2  (3,1)  (4,1)  (5,1)  (8,4)  (9,4)  (10,1)  (12,1)  (13,1)  (14,1)  (16,3)  (17,2)  (20,2)  (21,2)  (23,5)  (24,1)  (47,43) 
Branch_type_3  (3,4468)  (4,245)  (5,440)  (6,451)  (7,487)  (8,360)  (9,288)  (10,172)  (11,146)  (12,62)  (13,10)  (64,2) 
Branch_type_4  (6,3)  (7,8)  (8,25)  (9,56)  (10,68)  (11,70)  (12,117)  (13,102)  (14,112)  (15,92)  (16,102)  (17,79)  (18,65)  (19,125)  (20,73)  (21,124)  (22,219)  (23,136)  (24,206)  (25,101) 
Branch_type_5  (8,3)  (9,1)  (10,4)  (11,5)  (12,3)  (13,14)  (14,16)  (15,11)  (16,22)  (17,11)  (18,23)  (19,14)  (20,11)  (21,13)  (22,43)  (23,26)  (24,38) 
Branch_type_6  (5,4)  (6,13)  (7,22)  (8,37)  (9,38)  (10,71)  (11,61)  (12,89)  (13,102)  (14,116)  (15,88)  (16,102)  (17,77)  (18,60)  (19,113)  (20,55)  (21,95)  (22,148)  (23,72)  (24,96)  (25,4)  (47,51) 
Unique trigger count: 
BTB PER SET UNIQUE ADDR: 0 0 0 0 0 0 0 0 0 0 0 0 0 0 0 0 0 0 0 0 0 0 0 0 0 0 0 0 0 0 0 0 0 0 0 0 0 0 0 0 0 0 0 0 0 0 0 0 0 0 0 0 0 0 0 0 0 0 0 0 0 0 0 0 0 0 0 0 0 0 0 0 0 0 0 0 0 0 0 0 0 0 0 0 0 0 0 0 0 0 0 0 0 0 0 0 0 0 0 0 0 0 0 0 0 0 0 0 0 0 0 0 0 0 0 0 0 0 0 0 0 0 0 0 0 0 0 0 0 0 0 0 0 0 0 0 0 0 0 0 0 0 0 0 0 0 0 0 0 0 0 0 0 0 0 0 0 0 0 0 0 0 0 0 0 0 0 0 0 0 0 0 0 0 0 0 0 0 0 0 0 0 0 0 0 0 0 0 0 0 0 0 0 0 0 0 0 0 0 0 0 0 0 0 0 0 0 0 0 0 0 0 0 0 0 0 0 0 0 0 0 0 0 0 0 0 0 0 0 0 0 0 0 0 0 0 0 0 0 0 0 0 0 0 0 0 0 0 0 0 0 0 0 0 0 0 0 0 0 0 0 0 0 0 0 0 0 0 0 0 0 0 0 0 0 0 0 0 0 0 0 0 0 0 0 0 0 0 0 0 0 0 0 0 0 0 0 0 0 0 0 0 0 0 0 0 0 0 0 0 0 0 0 0 0 0 0 0 0 0 0 0 0 0 0 0 0 0 0 0 0 0 0 0 0 0 0 0 0 0 0 0 0 0 0 0 0 0 0 0 0 0 0 0 0 0 0 0 0 0 0 0 0 0 0 0 0 0 0 0 0 0 0 0 0 0 0 0 0 0 0 0 0 0 0 0 0 0 0 0 0 0 0 0 0 0 0 0 0 0 0 0 0 0 0 0 0 0 0 0 0 0 0 0 0 0 0 0 0 0 0 0 0 0 0 0 0 0 0 0 0 0 0 0 0 0 0 0 0 0 0 0 0 0 0 0 0 0 0 0 0 0 0 0 0 0 0 0 0 0 0 0 0 0 0 0 0 0 0 0 0 0 0 0 0 0 0 0 0 0 0 0 0 0 0 0 0 0 0 0 0 0 0 0 0 0 0 0 0 0 0 0 0 0 0 0 0 0 0 0 0 0 0 0 0 0 0 0 0 0 0 0 0 0 0 0 0 0 0 0 0 0 0 0 0 0 0 0 0 0 0 0 0 0 0 0 0 0 0 0 0 0 0 0 0 0 0 0 0 0 0 0 0 0 0 0 0 0 0 0 0 0 0 0 0 0 0 0 0 0 0 0 0 0 0 0 0 0 0 0 0 0 0 0 0 0 0 0 0 0 0 0 0 0 0 0 0 0 0 0 0 0 0 0 0 0 0 0 0 0 0 0 0 0 0 0 0 0 0 0 0 0 0 0 0 0 0 0 0 0 0 0 0 0 0 0 0 0 0 0 0 0 0 0 0 0 0 0 0 0 0 0 0 0 0 0 0 0 0 0 0 0 0 0 0 0 0 0 0 0 0 0 0 0 0 0 0 0 0 0 0 0 0 0 0 0 0 0 0 0 0 0 0 0 0 0 0 0 0 0 0 0 0 0 0 0 0 0 0 0 0 0 0 0 0 0 0 0 0 0 0 0 0 0 0 0 0 0 0 0 0 0 0 0 0 0 0 0 0 0 0 0 0 0 0 0 0 0 0 0 0 0 0 0 0 0 0 0 0 0 0 0 0 0 0 0 0 0 0 0 0 0 0 0 0 0 0 0 0 0 0 0 0 0 0 0 0 0 0 0 0 0 0 0 0 0 0 0 0 0 0 0 0 0 0 0 0 0 0 0 0 0 0 0 0 0 0 0 0 0 0 0 0 0 0 0 0 0 0 0 0 0 0 0 0 0 0 0 0 0 0 0 0 0 0 0 0 0 0 0 0 0 0 0 0 0 0 0 0 0 0 0 0 0 0 0 0 0 0 0 0 0 0 0 0 0 0 0 0 0 0 0 0 0 0 0 0 0 0 0 0 0 0 0 0 0 0 0 0 0 0 0 0 0 0 0 0 0 0 0 0 0 0 0 0 0 0 0 0 0 0 0 0 0 0 0 0 0 0 0 0 0 0 0 0 0 0 0 0 0 0 0 0 0 0 0 0 0 0 0 0 0 0 0 0 0 0 0 0 0 0 0 0 0 0 0 0 0 0 0 0 0 0 0 0 0 0 0 0 0 0 0 0 0 0 0 0 0 0 0 0 0 0 0 0 0 0 0 0 0 0 0 0 0 0 0 0 0 0 0 0 0 0 0 0 0 0 0 0 0 0 0 0 0 0 0 0 0 0 0 0 0 0 0 0 0 0 0 0 0 0 0 0 0 0 0 0 0 0 0 0 0 0 0 0 0 0 0 0 0 0 0 0 0 0 0 0 0 0 0 0 0 0 0 0 0 0 0 0 0 0 0 0 0 0 0 0 0 0 0 0 0 0 0 0 0 0 0 0 0 0 0 0 0 0 0 0 0 0 0 0 0 0 0 0 0 0 0 0 0 0 0 0 0 0 0 0 0 0 0 0 0 0 0 0 0 0 0 0 0 0 0 0 0 0 0 0 0 0 0 0 0 0 0 0 0 0 0 0 0 0 0 0 0 0 0 0 0 0 0 0 0 0 0 0 0 0 0 0 0 0 0 0 0 0 0 0 0 0 0 0 0 0 0 0 0 0 0 0 0 0 0 0 0 0 0 0 0 0 0 0 0 0 0 0 0 0 0 0 0 0 0 0 0 0 0 0 0 0 0 0 0 0 0 0 0 0 0 0 0 0 0 0 0 0 0 0 0 0 0 0 0 0 0 0 0 0 0 0 0 0 0 0 0 0 0 0 0 0 0 0 0 0 0 0 0 0 0 0 0 0 0 0 0 0 0 0 0 0 0 0 0 0 0 0 0 0 0 0 0 0 0 0 0 0 0 0 0 0 0 0 0 0 0 0 0 0 0 0 0 0 0 0 0 0 0 0 0 0 0 0 0 0 0 0 0 0 0 0 0 0 0 0 0 0 0 0 0 0 0 0 0 0 0 0 0 0 0 0 0 0 0 0 0 0 0 0 0 0 0 0 0 0 0 0 0 0 0 0 0 0 0 0 0 0 0 0 0 0 0 0 0 0 0 0 0 0 0 0 0 0 0 0 0 0 0 0 0 0 0 0 0 0 0 0 0 0 0 0 0 0 0 0 0 0 0 0 0 0 0 0 0 0 0 0 0 0 0 0 0 0 0 0 0 0 0 0 0 0 0 0 0 0 0 0 0 0 0 0 0 0 0 0 0 0 0 0 0 0 0 0 0 0 0 0 0 0 0 0 0 0 0 0 0 0 0 0 0 0 0 0 0 0 0 0 0 0 0 0 0 0 0 0 0 0 0 0 0 0 0 0 0 0 0 0 0 0 0 0 0 0 0 0 0 0 0 0 0 0 0 0 0 0 0 0 0 0 0 0 0 0 0 0 0 0 0 0 0 0 0 0 0 0 0 0 0 0 0 0 0 0 0 0 0 0 0 0 0 0 0 0 0 0 0 0 0 0 0 0 0 0 0 0 0 0 0 0 0 0 0 0 0 0 0 0 0 0 0 0 0 0 0 0 0 0 0 0 0 0 0 0 0 0 0 0 0 0 0 0 0 0 0 0 0 0 0 0 0 0 0 0 0 0 0 0 0 0 0 0 0 0 0 0 0 0 0 0 0 0 0 0 0 0 0 0 0 0 0 0 0 0 0 0 0 0 0 0 0 0 0 0 0 0 0 0 0 0 0 0 0 0 0 0 0 0 0 0 0 0 0 0 0 0 0 0 0 0 0 0 0 0 0 0 0 0 0 0 0 0 0 0 0 0 0 0 0 0 0 0 0 0 0 0 0 0 0 0 0 0 0 0 0 0 0 0 0 0 0 0 0 0 0 0 0 0 0 0 0 0 0 0 0 0 0 0 0 0 0 0 0 0 0 0 0 0 0 0 0 0 0 0 0 0 0 0 0 0 0 0 0 0 0 0 0 0 0 0 0 0 0 0 0 0 0 0 0 0 0 0 0 0 0 0 0 0 0 0 0 0 0 0 0 0 0 0 0 0 0 0 0 0 0 0 0 0 0 0 0 0 0 0 0 0 0 0 0 0 0 0 0 0 0 0 0 0 0 0 0 0 0 0 0 0 0 0 0 0 0 0 0 0 0 0 0 0 0 0 0 0 0 0 0 0 0 0 0 0 0 0 0 0 0 0 0 0 0 0 0 0 0 0 0 0 0 0 0 0 0 0 0 0 0 0 0 0 0 0 0 0 0 0 0 0 0 0 0 0 0 0 0 0 0 0 0 0 0 0 0 0 0 0 0 0 0 0 0 0 0 0 0 0 0 0 0 0 0 0 0 0 0 0 0 0 0 0 0 0 0 0 0 0 0 0 0 0 0 0 0 0 0 0 0 0 0 0 0 0 0 0 0 0 0 0 0 0 0 0 0 0 0 0 0 0 0 0 0 0 0 0 0 0 0 0 0 0 0 0 0 0 0 0 0 0 0 0 0 0 0 0 0 0 0 0 0 0 0 0 0 0 0 0 0 0 0 0 0 0 0 
BTB PER SET COUNT: 0 0 0 0 0 0 0 0 0 0 0 0 0 0 0 0 0 0 0 0 0 0 0 0 0 0 0 0 0 0 0 0 0 0 0 0 0 0 0 0 0 0 0 0 0 0 0 0 0 0 0 0 0 0 0 0 0 0 0 0 0 0 0 0 0 0 0 0 0 0 0 0 0 0 0 0 0 0 0 0 0 0 0 0 0 0 0 0 0 0 0 0 0 0 0 0 0 0 0 0 0 0 0 0 0 0 0 0 0 0 0 0 0 0 0 0 0 0 0 0 0 0 0 0 0 0 0 0 0 0 0 0 0 0 0 0 0 0 0 0 0 0 0 0 0 0 0 0 0 0 0 0 0 0 0 0 0 0 0 0 0 0 0 0 0 0 0 0 0 0 0 0 0 0 0 0 0 0 0 0 0 0 0 0 0 0 0 0 0 0 0 0 0 0 0 0 0 0 0 0 0 0 0 0 0 0 0 0 0 0 0 0 0 0 0 0 0 0 0 0 0 0 0 0 0 0 0 0 0 0 0 0 0 0 0 0 0 0 0 0 0 0 0 0 0 0 0 0 0 0 0 0 0 0 0 0 0 0 0 0 0 0 0 0 0 0 0 0 0 0 0 0 0 0 0 0 0 0 0 0 0 0 0 0 0 0 0 0 0 0 0 0 0 0 0 0 0 0 0 0 0 0 0 0 0 0 0 0 0 0 0 0 0 0 0 0 0 0 0 0 0 0 0 0 0 0 0 0 0 0 0 0 0 0 0 0 0 0 0 0 0 0 0 0 0 0 0 0 0 0 0 0 0 0 0 0 0 0 0 0 0 0 0 0 0 0 0 0 0 0 0 0 0 0 0 0 0 0 0 0 0 0 0 0 0 0 0 0 0 0 0 0 0 0 0 0 0 0 0 0 0 0 0 0 0 0 0 0 0 0 0 0 0 0 0 0 0 0 0 0 0 0 0 0 0 0 0 0 0 0 0 0 0 0 0 0 0 0 0 0 0 0 0 0 0 0 0 0 0 0 0 0 0 0 0 0 0 0 0 0 0 0 0 0 0 0 0 0 0 0 0 0 0 0 0 0 0 0 0 0 0 0 0 0 0 0 0 0 0 0 0 0 0 0 0 0 0 0 0 0 0 0 0 0 0 0 0 0 0 0 0 0 0 0 0 0 0 0 0 0 0 0 0 0 0 0 0 0 0 0 0 0 0 0 0 0 0 0 0 0 0 0 0 0 0 0 0 0 0 0 0 0 0 0 0 0 0 0 0 0 0 0 0 0 0 0 0 0 0 0 0 0 0 0 0 0 0 0 0 0 0 0 0 0 0 0 0 0 0 0 0 0 0 0 0 0 0 0 0 0 0 0 0 0 0 0 0 0 0 0 0 0 0 0 0 0 0 0 0 0 0 0 0 0 0 0 0 0 0 0 0 0 0 0 0 0 0 0 0 0 0 0 0 0 0 0 0 0 0 0 0 0 0 0 0 0 0 0 0 0 0 0 0 0 0 0 0 0 0 0 0 0 0 0 0 0 0 0 0 0 0 0 0 0 0 0 0 0 0 0 0 0 0 0 0 0 0 0 0 0 0 0 0 0 0 0 0 0 0 0 0 0 0 0 0 0 0 0 0 0 0 0 0 0 0 0 0 0 0 0 0 0 0 0 0 0 0 0 0 0 0 0 0 0 0 0 0 0 0 0 0 0 0 0 0 0 0 0 0 0 0 0 0 0 0 0 0 0 0 0 0 0 0 0 0 0 0 0 0 0 0 0 0 0 0 0 0 0 0 0 0 0 0 0 0 0 0 0 0 0 0 0 0 0 0 0 0 0 0 0 0 0 0 0 0 0 0 0 0 0 0 0 0 0 0 0 0 0 0 0 0 0 0 0 0 0 0 0 0 0 0 0 0 0 0 0 0 0 0 0 0 0 0 0 0 0 0 0 0 0 0 0 0 0 0 0 0 0 0 0 0 0 0 0 0 0 0 0 0 0 0 0 0 0 0 0 0 0 0 0 0 0 0 0 0 0 0 0 0 0 0 0 0 0 0 0 0 0 0 0 0 0 0 0 0 0 0 0 0 0 0 0 0 0 0 0 0 0 0 0 0 0 0 0 0 0 0 0 0 0 0 0 0 0 0 0 0 0 0 0 0 0 0 0 0 0 0 0 0 0 0 0 0 0 0 0 0 0 0 0 0 0 0 0 0 0 0 0 0 0 0 0 0 0 0 0 0 0 0 0 0 0 0 0 0 0 0 0 0 0 0 0 0 0 0 0 0 0 0 0 0 0 0 0 0 0 0 0 0 0 0 0 0 0 0 0 0 0 0 0 0 0 0 0 0 0 0 0 0 0 0 0 0 0 0 0 0 0 0 0 0 0 0 0 0 0 0 0 0 0 0 0 0 0 0 0 0 0 0 0 0 0 0 0 0 0 0 0 0 0 0 0 0 0 0 0 0 0 0 0 0 0 0 0 0 0 0 0 0 0 0 0 0 0 0 0 0 0 0 0 0 0 0 0 0 0 0 0 0 0 0 0 0 0 0 0 0 0 0 0 0 0 0 0 0 0 0 0 0 0 0 0 0 0 0 0 0 0 0 0 0 0 0 0 0 0 0 0 0 0 0 0 0 0 0 0 0 0 0 0 0 0 0 0 0 0 0 0 0 0 0 0 0 0 0 0 0 0 0 0 0 0 0 0 0 0 0 0 0 0 0 0 0 0 0 0 0 0 0 0 0 0 0 0 0 0 0 0 0 0 0 0 0 0 0 0 0 0 0 0 0 0 0 0 0 0 0 0 0 0 0 0 0 0 0 0 0 0 0 0 0 0 0 0 0 0 0 0 0 0 0 0 0 0 0 0 0 0 0 0 0 0 0 0 0 0 0 0 0 0 0 0 0 0 0 0 0 0 0 0 0 0 0 0 0 0 0 0 0 0 0 0 0 0 0 0 0 0 0 0 0 0 0 0 0 0 0 0 0 0 0 0 0 0 0 0 0 0 0 0 0 0 0 0 0 0 0 0 0 0 0 0 0 0 0 0 0 0 0 0 0 0 0 0 0 0 0 0 0 0 0 0 0 0 0 0 0 0 0 0 0 0 0 0 0 0 0 0 0 0 0 0 0 0 0 0 0 0 0 0 0 0 0 0 0 0 0 0 0 0 0 0 0 0 0 0 0 0 0 0 0 0 0 0 0 0 0 0 0 0 0 0 0 0 0 0 0 0 0 0 0 0 0 0 0 0 0 0 0 0 0 0 0 0 0 0 0 0 0 0 0 0 0 0 0 0 0 0 0 0 0 0 0 0 0 0 0 0 0 0 0 0 0 0 0 0 0 0 0 0 0 0 0 0 0 0 0 0 0 0 0 0 0 0 0 0 0 0 0 0 0 0 0 0 0 0 0 0 0 0 0 0 0 0 0 0 0 0 0 0 0 0 0 0 0 0 0 0 0 0 0 0 0 0 0 0 0 0 0 0 0 0 0 0 0 0 0 0 0 0 0 0 0 0 0 0 0 0 0 0 0 0 0 0 0 0 0 0 0 0 0 0 0 0 0 0 0 0 0 0 0 0 0 0 0 0 0 0 0 0 0 0 0 0 0 0 0 0 0 0 0 0 0 0 0 0 0 0 0 0 0 0 0 0 0 0 0 0 0 0 0 0 0 0 0 0 0 0 0 0 0 0 0 0 0 0 0 0 0 0 0 0 0 0 0 0 0 0 0 0 0 0 0 0 0 0 0 0 0 0 0 0 0 0 0 0 0 0 0 0 0 0 0 0 0 0 0 0 0 0 0 0 0 0 0 0 0 0 0 0 0 0 0 0 0 0 0 0 0 0 0 0 0 0 0 0 0 0 0 0 0 0 0 0 0 0 0 0 0 0 0 0 0 0 0 0 0 0 0 0 0 0 0 0 0 0 0 0 0 0 0 0 0 0 0 0 0 0 0 0 0 0 0 0 0 0 0 0 0 0 0 0 0 0 0 0 0 0 0 0 0 0 0 0 0 0 0 0 0 0 0 0 0 0 0 0 0 0 0 0 0 0 0 0 0 0 0 0 0 0 0 0 0 0 0 0 0 0 0 0 0 0 0 0 0 0 0 0 0 0 0 0 0 0 0 0 0 0 0 0 0 0 0 0 0 0 0 0 0 0 0 0 0 0 0 0 0 0 0 0 0 0 0 0 0 0 0 0 0 0 0 0 0 0 0 0 0 0 0 0 0 0 0 0 0 0 0 0 0 0 0 0 0 0 0 0 0 0 0 0 0 0 0 0 0 0 0 0 0 0 0 0 0 0 0 0 0 0 0 0 0 0 0 0 0 0 0 0 0 0 0 0 0 0 0 0 0 0 0 0 0 0 0 0 0 0 0 0 0 0 0 0 0 0 0 0 0 0 0 0 0 0 0 0 0 0 0 0 0 0 0 0 0 0 0 0 0 0 0 0 0 0 0 0 0 0 0 0 0 0 0 0 0 0 0 0 0 0 0 0 0 0 0 0 0 0 0 0 0 0 0 0 0 0 0 0 0 0 0 0 0 0 0 0 0 0 0 0 0 0 0 0 0 0 0 0 0 0 0 0 0 0 0 0 0 0 0 0 0 0 0 0 0 0 0 0 0 0 
