
*** ChampSim Multicore Out-of-Order Simulator ***

Warmup Instructions: 50000000
Simulation Instructions: 50000000
Number of CPUs: 1
LLC sets: 2048
LLC ways: 16
Off-chip DRAM Size: 4096 MB Channels: 1 Width: 64-bit Data Rate: 6400 MT/s
CPU 0 runs ./micro_traces/srv15.trace.gz
.gz
ITLB has LRU replacement policy
DTLB has LRU replacement policy
STLB has LRU replacement policy
FDIP Prefetcher at L1I
L1I has LRU replacement policy
L1D has LRU replacement policy
Initialize SRRIP state for L2C
Initialize DRRIP state for LLC
Heartbeat CPU 0 instructions: 10000002 cycles: 2796857 heartbeat IPC: 3.57544 cumulative IPC: 3.57544 (Simulation time: 0 hr 2 min 32 sec) 
Heartbeat CPU 0 instructions: 20000000 cycles: 5593560 heartbeat IPC: 3.57564 cumulative IPC: 3.57554 (Simulation time: 0 hr 4 min 6 sec) 
Heartbeat CPU 0 instructions: 30000003 cycles: 8390386 heartbeat IPC: 3.57548 cumulative IPC: 3.57552 (Simulation time: 0 hr 5 min 41 sec) 
Heartbeat CPU 0 instructions: 40000002 cycles: 11186169 heartbeat IPC: 3.57682 cumulative IPC: 3.57584 (Simulation time: 0 hr 7 min 14 sec) 
Heartbeat CPU 0 instructions: 50000000 cycles: 13982638 heartbeat IPC: 3.57594 cumulative IPC: 3.57586 (Simulation time: 0 hr 8 min 47 sec) 

Warmup complete CPU 0 instructions: 50000004 cycles: 13982639 (Simulation time: 0 hr 8 min 47 sec) 

Cycle: 20000000 FTQ IN: 57026212 FTQ occupancy: 18.2916 DECODE IN: 57026187 DECODE occupancy: 46.8062 ROB IN: 57026187 ROB occupancy: 283.45 ROB OUT: 57026146
Heartbeat CPU 0 instructions: 60000002 cycles: 22547501 heartbeat IPC: 1.16756 cumulative IPC: 1.16756 (Simulation time: 0 hr 10 min 9 sec) 
Cycle: 30000000 FTQ IN: 11517312 FTQ occupancy: 7.55703 DECODE IN: 11517320 DECODE occupancy: 16.3712 ROB IN: 11517318 ROB occupancy: 130.81 ROB OUT: 11517181
Heartbeat CPU 0 instructions: 70000002 cycles: 31243431 heartbeat IPC: 1.14996 cumulative IPC: 1.1587 (Simulation time: 0 hr 11 min 31 sec) 
Heartbeat CPU 0 instructions: 80000001 cycles: 39810579 heartbeat IPC: 1.16725 cumulative IPC: 1.16153 (Simulation time: 0 hr 12 min 53 sec) 
Cycle: 40000000 FTQ IN: 11674716 FTQ occupancy: 7.40559 DECODE IN: 11674594 DECODE occupancy: 16.1589 ROB IN: 11674536 ROB occupancy: 131.8 ROB OUT: 11674366
Heartbeat CPU 0 instructions: 90000000 cycles: 48531470 heartbeat IPC: 1.14667 cumulative IPC: 1.15778 (Simulation time: 0 hr 14 min 15 sec) 
Cycle: 50000000 FTQ IN: 11495157 FTQ occupancy: 7.52363 DECODE IN: 11495200 DECODE occupancy: 16.3786 ROB IN: 11495260 ROB occupancy: 132.417 ROB OUT: 11495435
Heartbeat CPU 0 instructions: 100000002 cycles: 57096264 heartbeat IPC: 1.16757 cumulative IPC: 1.15973 (Simulation time: 0 hr 15 min 37 sec) 
Finished CPU 0 instructions: 50000002 cycles: 43113626 cumulative IPC: 1.15973 (Simulation time: 0 hr 15 min 37 sec) 

ChampSim completed all CPUs

Region of Interest Statistics

CPU 0 cumulative IPC: 1.15973 instructions: 50000002 cycles: 43113626
 Fetch stage stalled: 68.8813  Sim cycles: 43113626 fetch stall cycle: 29697241
 Empty decode stage: 56.1152  Sim cycles: 43113626 fetch stall cycle: 24193295
ITLB TOTAL     ACCESS:    5606754  HIT:    5112731  MISS:     494023  HIT %:    91.1888  MISS %:    8.81121   MPKI: 9.88046
ITLB LOAD TRANSLATION INSTRUCTION	ACCESS:    5497829  HIT:    5003806  MISS:     494023  HIT %:    91.0142  MISS %:    8.98578  MPKI: 9.88046
ITLB TRANSLATION FROM L1D PREFETCHER INSTRUCTION	ACCESS:     108925  HIT:     108925  MISS:          0  HIT %:        100  MISS %:          0  MPKI: 0

ITLB AVERAGE MISS LATENCY: 9.04234 cycles
ITLB RQ	ACCESS:    7491055	FORWARD:          0	MERGED:    1393632	TO_CACHE:    6097423

DTLB TOTAL     ACCESS:    9252380  HIT:    8779464  MISS:     472916  HIT %:    94.8887  MISS %:    5.11129   MPKI: 9.45832
DTLB LOAD TRANSLATION DATA	ACCESS:    9252380  HIT:    8779464  MISS:     472916  HIT %:    94.8887  MISS %:    5.11129  MPKI: 9.45832

DTLB AVERAGE MISS LATENCY: 9.2983 cycles
DTLB RQ	ACCESS:   13543777	FORWARD:          0	MERGED:    4257407	TO_CACHE:    9286370

STLB TOTAL     ACCESS:    1217750  HIT:    1215681  MISS:       2069  HIT %:    99.8301  MISS %:   0.169904   MPKI: 0.04138
STLB LOAD TRANSLATION INSTRUCTION	ACCESS:     494023  HIT:     493760  MISS:        263  HIT %:    99.9468  MISS %:  0.0532364  MPKI: 0.00526
STLB LOAD TRANSLATION DATA	ACCESS:     472797  HIT:     471014  MISS:       1783  HIT %:    99.6229  MISS %:   0.377117  MPKI: 0.03566
STLB TRANSLATION FROM L1D PREFETCHER DATA	ACCESS:     250930  HIT:     250907  MISS:         23  HIT %:    99.9908  MISS %:  0.0091659  MPKI: 0.00046

STLB AVERAGE MISS LATENCY: 67.7965 cycles
STLB RQ	ACCESS:    1336754	FORWARD:          0	MERGED:     118966	TO_CACHE:    1217788

STLB Hit, L1D data hit: 0
STLB Hit, L2C data hit: 0
STLB Hit, LLC data hit: 0
STLB Hit, LLC data miss: 0
STLB STLB hints to L2: 0
L1D TOTAL     ACCESS:   13305431  HIT:   12192262  MISS:    1113169  HIT %:    91.6337  MISS %:    8.36628   MPKI: 22.2634
L1D LOAD DATA	ACCESS:    6741685  HIT:    6007599  MISS:     734086  HIT %:    89.1112  MISS %:    10.8888  MPKI: 14.6817
L1D RFO DATA	ACCESS:    6235415  HIT:    5949469  MISS:     285946  HIT %:    95.4142  MISS %:    4.58584  MPKI: 5.71892
L1D PREFETCH DATA	ACCESS:     328331  HIT:     235194  MISS:      93137  HIT %:    71.6332  MISS %:    28.3668  MPKI: 1.86274

L1D PREFETCH  REQUESTED:     740005  ISSUED:     740005  USEFUL:      33136  USELESS:      68153
L1D USEFUL LOAD PREFETCHES:      33136 PREFETCH ISSUED TO LOWER LEVEL:     101330  ACCURACY: 32.7011
 TIMELY PREFETCHES:      33136 LATE PREFETCHES: 8156 DROPPED PREFETCHES: 9
L1D AVERAGE MISS LATENCY: 264061 cycles
L1D RQ	ACCESS:   10834644	FORWARD:          0	MERGED:    3896587	TO_CACHE:    6775515
L1D WQ	ACCESS:    6943640	FORWARD:     162917	MERGED:     175378	TO_CACHE:    6768262
L1D PQ	ACCESS:     370190	FORWARD:          0	MERGED:          0	TO_CACHE:     369815

L1D UNIQUE REGIONS ACCESSED: 0
L1D REGIONS CONFLICTS: 0
L1D Cross Page Prefetch Requests: 6974
L1D Same Page Prefetch Requests: 747836
L1D ROI Sum of L1D PQ occupancy: 4693605
L1D PREFETCHES PUSHED FROM L2C: 0
L1I TOTAL     ACCESS:    6925061  HIT:    4164230  MISS:    2760831  HIT %:    60.1328  MISS %:    39.8672   MPKI: 55.2166
L1I LOAD INSTRUCTION	ACCESS:    6411961  HIT:    3651130  MISS:    2760831  HIT %:    56.9425  MISS %:    43.0575  MPKI: 55.2166
L1I PREFETCH INSTRUCTION	ACCESS:     513100  HIT:     513100  MISS:          0  HIT %:        100  MISS %:          0  MPKI: 0

L1I PREFETCH  REQUESTED:    1176532  ISSUED:    1176532  USEFUL:          0  USELESS:          0
L1I USEFUL LOAD PREFETCHES:          0 PREFETCH ISSUED TO LOWER LEVEL:          0  ACCURACY: -nan
 TIMELY PREFETCHES:          0 LATE PREFETCHES: 0 DROPPED PREFETCHES: 0
L1I AVERAGE MISS LATENCY: 17.4655 cycles
L1I RQ	ACCESS:    9462080	FORWARD:          0	MERGED:    2815466	TO_CACHE:    6646614
L1I PQ	ACCESS:    1176532	FORWARD:          0	MERGED:     332091	TO_CACHE:     844441

L1BTB TOTAL     ACCESS:    5671095  HIT:    2043100  MISS:    3627995  HIT %:    36.0266  MISS %:    63.9734   MPKI: 72.5599
L1BTB BRANCH_DIRECT_JUMP	ACCESS:     548494  HIT:     144891  MISS:     403603	AVERAGE STALL: 38.1734
L1BTB BRANCH_INDIRECT	ACCESS:     182795  HIT:      65986  MISS:     116809	AVERAGE STALL: 106.971
L1BTB BRANCH_CONDITIONAL	ACCESS:    2704605  HIT:    1412074  MISS:    1292531	AVERAGE STALL: 39.8574
L1BTB BRANCH_DIRECT_CALL	ACCESS:     945367  HIT:     106723  MISS:     838644	AVERAGE STALL: 39.3925
L1BTB BRANCH_INDIRECT_CALL	ACCESS:     172232  HIT:      21837  MISS:     150395	AVERAGE STALL: 115.772
L1BTB BRANCH_RETURN	ACCESS:    1117602  HIT:     291589  MISS:     826013	AVERAGE STALL: 39.0172
L1BTB BRANCH_OTHER ACCESS:          0  HIT:          0  MISS:          0	AVERAGE STALL: -nan
L1BTB TOTAL ROB OCCUPANCY AT BTB MISS: 12.0457

L2BTB1 TOTAL     ACCESS:    3602644  HIT:    3194591  MISS:     408053  HIT %:    88.6735  MISS %:    11.3265   MPKI: 8.16106
L2BTB1 BRANCH_DIRECT_JUMP	ACCESS:     399446  HIT:     363016  MISS:      36430	AVERAGE STALL: 38.1734
L2BTB1 BRANCH_INDIRECT	ACCESS:     106543  HIT:      84275  MISS:      22268	AVERAGE STALL: 106.971
L2BTB1 BRANCH_CONDITIONAL	ACCESS:    1292531  HIT:    1183642  MISS:     108889	AVERAGE STALL: 39.8574
L2BTB1 BRANCH_DIRECT_CALL	ACCESS:     838644  HIT:     723094  MISS:     115550	AVERAGE STALL: 39.3925
L2BTB1 BRANCH_INDIRECT_CALL	ACCESS:     140869  HIT:     116344  MISS:      24525	AVERAGE STALL: 115.772
L2BTB1 BRANCH_RETURN	ACCESS:     824611  HIT:     724220  MISS:     100391	AVERAGE STALL: 39.0172
L2BTB1 BRANCH_OTHER ACCESS:          0  HIT:          0  MISS:          0	AVERAGE STALL: -nan
L2BTB1 TOTAL ROB OCCUPANCY AT BTB MISS: 107.098

L2C TOTAL     ACCESS:    4488944  HIT:    3962012  MISS:     526932  HIT %:    88.2616  MISS %:    11.7384   MPKI: 10.5386
L2C LOAD INSTRUCTION	ACCESS:    2760831  HIT:    2480514  MISS:     280317  HIT %:    89.8466  MISS %:    10.1534  MPKI: 5.60634
L2C LOAD TRANSLATION INSTRUCTION	ACCESS:        294  HIT:         75  MISS:        219  HIT %:    25.5102  MISS %:    74.4898  MPKI: 0.00438
L2C LOAD DATA	ACCESS:     725914  HIT:     640884  MISS:      85030  HIT %:    88.2865  MISS %:    11.7135  MPKI: 1.7006
L2C RFO DATA	ACCESS:     285871  HIT:     225780  MISS:      60091  HIT %:    78.9797  MISS %:    21.0203  MPKI: 1.20182
L2C PREFETCH DATA	ACCESS:     194341  HIT:     115531  MISS:      78810  HIT %:    59.4476  MISS %:    40.5524  MPKI: 1.5762
L2C WRITEBACK DATA	ACCESS:     519792  HIT:     498630  MISS:      21162  HIT %:    95.9288  MISS %:    4.07124  MPKI: 0.42324
L2C LOAD TRANSLATION DATA	ACCESS:       1857  HIT:        570  MISS:       1287  HIT %:    30.6947  MISS %:    69.3053  MPKI: 0.02574
L2C TRANSLATION FROM L1D PREFETCHER DATA	ACCESS:         44  HIT:         28  MISS:         16  HIT %:    63.6364  MISS %:    36.3636  MPKI: 0.00032

L2C PREFETCH  REQUESTED:     100403  ISSUED:     100403  USEFUL:       9365  USELESS:      69903
L2C USEFUL LOAD PREFETCHES:       9365 PREFETCH ISSUED TO LOWER LEVEL:      79325  ACCURACY: 11.8059
 TIMELY PREFETCHES:       9365 LATE PREFETCHES: 515 DROPPED PREFETCHES: 0
L2C AVERAGE MISS LATENCY: 36.8721 cycles
L2C RQ	ACCESS:    3774865	FORWARD:          0	MERGED:          0	TO_CACHE:    3774811
L2C WQ	ACCESS:     519792	FORWARD:         55	MERGED:          0	TO_CACHE:     519792
L2C PQ	ACCESS:     201733	FORWARD:          0	MERGED:       3531	TO_CACHE:     198201

L2C Dense regions hint from L2: 0
PSCL5 TOTAL     ACCESS:       4166  HIT:       2083  MISS:       2083  HIT %:         50  MISS %:         50   MPKI: 0.04166
PSCL5 LOAD TRANSLATION INSTRUCTION	ACCESS:       4078  HIT:       2039  MISS:       2039  HIT %:         50  MISS %:         50  MPKI: 0.04078
PSCL5 TRANSLATION FROM L1D PREFETCHER INSTRUCTION	ACCESS:         88  HIT:         44  MISS:         44  HIT %:         50  MISS %:         50  MPKI: 0.00088


PSCL4 TOTAL     ACCESS:       3876  HIT:       1934  MISS:       1942  HIT %:    49.8968  MISS %:    50.1032   MPKI: 0.03884
PSCL4 LOAD TRANSLATION INSTRUCTION	ACCESS:       1910  HIT:       1891  MISS:         19  HIT %:    99.0052  MISS %:   0.994764  MPKI: 0.00038
PSCL4 TRANSLATION FROM L1D PREFETCHER INSTRUCTION	ACCESS:         43  HIT:         43  MISS:          0  HIT %:        100  MISS %:          0  MPKI: 0
PSCL4 LOAD TRANSLATION DATA	ACCESS:       1880  HIT:          0  MISS:       1880  HIT %:          0  MISS %:        100  MPKI: 0.0376
PSCL4 TRANSLATION FROM L1D PREFETCHER DATA	ACCESS:         43  HIT:          0  MISS:         43  HIT %:          0  MISS %:        100  MPKI: 0.00086


PSCL3 TOTAL     ACCESS:       3990  HIT:       1991  MISS:       1999  HIT %:    49.8997  MISS %:    50.1003   MPKI: 0.03998
PSCL3 LOAD TRANSLATION INSTRUCTION	ACCESS:       1967  HIT:       1948  MISS:         19  HIT %:    99.0341  MISS %:   0.965938  MPKI: 0.00038
PSCL3 TRANSLATION FROM L1D PREFETCHER INSTRUCTION	ACCESS:         43  HIT:         43  MISS:          0  HIT %:        100  MISS %:          0  MPKI: 0
PSCL3 LOAD TRANSLATION DATA	ACCESS:       1937  HIT:          0  MISS:       1937  HIT %:          0  MISS %:        100  MPKI: 0.03874
PSCL3 TRANSLATION FROM L1D PREFETCHER DATA	ACCESS:         43  HIT:          0  MISS:         43  HIT %:          0  MISS %:        100  MPKI: 0.00086


PSCL2 TOTAL     ACCESS:       4070  HIT:       1987  MISS:       2083  HIT %:    48.8206  MISS %:    51.1794   MPKI: 0.04166
PSCL2 LOAD TRANSLATION INSTRUCTION	ACCESS:       2206  HIT:       1943  MISS:        263  HIT %:     88.078  MISS %:     11.922  MPKI: 0.00526
PSCL2 TRANSLATION FROM L1D PREFETCHER INSTRUCTION	ACCESS:         44  HIT:         44  MISS:          0  HIT %:        100  MISS %:          0  MPKI: 0
PSCL2 LOAD TRANSLATION DATA	ACCESS:       1776  HIT:          0  MISS:       1776  HIT %:          0  MISS %:        100  MPKI: 0.03552
PSCL2 TRANSLATION FROM L1D PREFETCHER DATA	ACCESS:         44  HIT:          0  MISS:         44  HIT %:          0  MISS %:        100  MPKI: 0.00088


LLC TOTAL     ACCESS:     593418  HIT:     566264  MISS:      27154  HIT %:    95.4241  MISS %:    4.57586   MPKI: 0.54308
LLC LOAD INSTRUCTION	ACCESS:     280317  HIT:     279711  MISS:        606  HIT %:    99.7838  MISS %:   0.216184  MPKI: 0.01212
LLC LOAD TRANSLATION INSTRUCTION	ACCESS:        219  HIT:        191  MISS:         28  HIT %:    87.2146  MISS %:    12.7854  MPKI: 0.00056
LLC LOAD DATA	ACCESS:      84559  HIT:      81268  MISS:       3291  HIT %:     96.108  MISS %:    3.89196  MPKI: 0.06582
LLC RFO DATA	ACCESS:      60045  HIT:      46829  MISS:      13216  HIT %:    77.9898  MISS %:    22.0102  MPKI: 0.26432
LLC PREFETCH DATA	ACCESS:      79325  HIT:      69707  MISS:       9618  HIT %:    87.8752  MISS %:    12.1248  MPKI: 0.19236
LLC WRITEBACK DATA	ACCESS:      87650  HIT:      87329  MISS:        321  HIT %:    99.6338  MISS %:   0.366229  MPKI: 0.00642
LLC LOAD TRANSLATION DATA	ACCESS:       1287  HIT:       1214  MISS:         73  HIT %:    94.3279  MISS %:    5.67211  MPKI: 0.00146
LLC TRANSLATION FROM L1D PREFETCHER DATA	ACCESS:         16  HIT:         15  MISS:          1  HIT %:      93.75  MISS %:       6.25  MPKI: 2e-05

LLC AVERAGE MISS LATENCY: 155.203 cycles
LLC RQ	ACCESS:     426445	FORWARD:          0	MERGED:          0	TO_CACHE:     426443
LLC WQ	ACCESS:      87650	FORWARD:          2	MERGED:          0	TO_CACHE:      87650
LLC PQ	ACCESS:      79325	FORWARD:          0	MERGED:          0	TO_CACHE:      79325

LLC Dense regions hint to LLC: 0

RAW hits: 1796282
Loads Generated: 12630925
Loads sent to L1D: 10834644
Stores Generated: 6943632
Stores sent to L1D: 6943640
Major fault: 0 Minor fault: 2629
Allocated PAGES: 2629

stream: 
stream:times selected: 1186263
stream:pref_filled: 121462
stream:pref_useful: 23976
stream:pref_late: 7157
stream:misses: 8089
stream:misses_by_poll: 0

CS: 
CS:times selected: 179825
CS:pref_filled: 60444
CS:pref_useful: 36757
CS:pref_late: 7044
CS:misses: 15998
CS:misses_by_poll: 4

CPLX: 
CPLX:times selected: 1005334
CPLX:pref_filled: 19632
CPLX:pref_useful: 4803
CPLX:pref_late: 3239
CPLX:misses: 93828
CPLX:misses_by_poll: 0

NL_L1: 
NL:times selected: 21019
NL:pref_filled: 728
NL:pref_useful: 363
NL:pref_late: 293
NL:misses: 1780
NL:misses_by_poll: 0

total selections: 2392441
total_filled: 93137
total_useful: 33136
total_late: 19059
total_polluted: 4
total_misses_after_warmup: 767922
conflicts: 5608703

test: 116348

DRAM Statistics
 CHANNEL 0
 RQ ROW_BUFFER_HIT:      10037  ROW_BUFFER_MISS:      16787
 DBUS_CONGESTED:          9
 WQ ROW_BUFFER_HIT:       1308  ROW_BUFFER_MISS:      11836  FULL:          0

 AVG_CONGESTED_CYCLE: 5

CPU 0 Branch Prediction Accuracy: 99.8242% MPKI: 0.3217 Average ROB Occupancy at Mispredict: 156.076
Branch types
NOT_BRANCH: 40851625 81.7032%
BRANCH_DIRECT_JUMP: 548494 1.09699%
BRANCH_INDIRECT: 182795 0.36559%
BRANCH_CONDITIONAL: 6181569 12.3631%
BRANCH_DIRECT_CALL: 945367 1.89073%
BRANCH_INDIRECT_CALL: 172232 0.344464%
BRANCH_RETURN: 1117602 2.2352%
BRANCH_OTHER: 0 0%

DRAM PAGES: 1048576
Allocated PAGES: 2629
Average_ROB_Occupancy: 133.028
Average_Decode_Occupancy: 16.222
Average_FTQ_Occupancy: 7.4517
Indirect max targets: 14 Average targets: 1.17516
Branch_type:  BRANCH_DIRECT_JUMP:  Count Percentage: 1.60033 7.78035 3.43175 8.08773 2.93618 5.9597 6.02651 64.1774 
Branch_type:  BRANCH_INDIRECT:  Count Percentage: 11.7438 5.58745 2.52736 0 1.33759 9.68975 17.6387 51.4754 
Branch_type:  BRANCH_CONDITIONAL:  Count Percentage: 20.6462 7.67925 1.58095 4.72511 1.897 4.75847 2.97875 55.7342 
Branch_type:  BRANCH_DIRECT_CALL:  Count Percentage: 0.257883 1.47839 1.27867 3.36449 3.36856 2.22198 0.729512 87.3005 
Branch_type:  BRANCH_INDIRECT_CALL:  Count Percentage: 9.51451 2.27185 2.98138 8.65563 1.4182 1.70759 1.27583 72.175 
Branch_type:  BRANCH_RETURN:  Count Percentage: 4.3853 5.10012 1.15677 5.64682 3.74977 6.1115 3.81125 70.0385 
Branch_type:  BRANCH_DIRECT_JUMP:  Total Count: 17535 85250 37602 88618 32172 65301 66033 703198 
Branch_type:  BRANCH_INDIRECT:  Total Count: 42898 20410 9232 0 4886 35395 64431 188031 
Branch_type:  BRANCH_CONDITIONAL:  Total Count: 2550751 948738 195320 583766 234366 587888 368011 6885718 
Branch_type:  BRANCH_DIRECT_CALL:  Total Count: 4873 27936 24162 63576 63653 41987 13785 1649648 
Branch_type:  BRANCH_INDIRECT_CALL:  Total Count: 32746 7819 10261 29790 4881 5877 4391 248404 
Branch_type:  BRANCH_RETURN:  Total Count: 97997 113971 25850 126188 83795 136572 85169 1565130 
Number of unique branch instructions: 10553
Upper 32 bits: 
aaaa
ffff
ffff0000
Unique upper 32 bits: 3
Unique upper 36 bits: 3
Unique upper 40 bits: 5
Unique upper 44 bits: 32
Unique upper 48 bits: 157
Offset_3 4373
Offset_4 252
Offset_5 472
Offset_6 529
Offset_7 619
Offset_8 568
Offset_9 504
Offset_10 409
Offset_11 337
Offset_12 303
Offset_13 238
Offset_14 240
Offset_15 194
Offset_16 222
Offset_17 165
Offset_18 144
Offset_19 251
Offset_20 139
Offset_21 235
Offset_22 405
Offset_23 241
Offset_24 346
Offset_25 117
Offset_47 94
Offset_64 2
decode_dispatch_called: 20155432 46.7496
Dispatch_width: 0 10002410 49.6264 23.2001
Dispatch_width: 1 542458 2.69137 1.25821
Dispatch_width: 2 685339 3.40027 1.58961
Dispatch_width: 3 426836 2.11772 0.990026
Dispatch_width: 4 1946745 9.65866 4.51538
Dispatch_width: 5 290682 1.4422 0.674223
Dispatch_width: 6 6260962 31.0634 14.522
Empty_decode_cycles: 22958194 53.2504
ROB_full_cycles: 2769608 6.42397
Starvation_cycles_per_kilo_instr: 340.831
Starvation_cycles_per_kilo_instr_3: 318.456
Starvation_cycles_per_kilo_instr_0: 301.91
Branch_type_1  (3,1)  (4,7)  (5,38)  (6,71)  (7,122)  (8,147)  (9,133)  (10,109)  (11,75)  (12,47)  (13,11)  (14,2)  (15,3)  (16,4)  (18,1)  (19,5)  (20,2)  (21,1)  (22,3)  (23,2)  (24,10)  (25,12) 
Branch_type_2  (3,1)  (4,1)  (5,1)  (8,4)  (9,4)  (10,1)  (12,1)  (13,1)  (14,1)  (16,3)  (17,2)  (20,2)  (21,2)  (23,5)  (24,1)  (47,43) 
Branch_type_3  (3,4371)  (4,244)  (5,429)  (6,442)  (7,469)  (8,354)  (9,277)  (10,164)  (11,128)  (12,54)  (13,10)  (64,2) 
Branch_type_4  (6,3)  (7,8)  (8,24)  (9,53)  (10,64)  (11,68)  (12,111)  (13,101)  (14,108)  (15,92)  (16,97)  (17,76)  (18,61)  (19,122)  (20,71)  (21,124)  (22,212)  (23,136)  (24,202)  (25,101) 
Branch_type_5  (8,3)  (9,1)  (10,4)  (11,5)  (12,3)  (13,14)  (14,16)  (15,11)  (16,22)  (17,11)  (18,23)  (19,14)  (20,11)  (21,13)  (22,43)  (23,26)  (24,37) 
Branch_type_6  (5,4)  (6,13)  (7,20)  (8,36)  (9,36)  (10,67)  (11,61)  (12,87)  (13,101)  (14,113)  (15,88)  (16,96)  (17,76)  (18,59)  (19,110)  (20,53)  (21,95)  (22,147)  (23,72)  (24,96)  (25,4)  (47,51) 
Unique trigger count: 
L2BTB1 768 4
L2BTB2 768 4
L2BTB3 768 4
L2BTB4 112 4
