
*** ChampSim Multicore Out-of-Order Simulator ***

Warmup Instructions: 50000000
Simulation Instructions: 50000000
Number of CPUs: 1
LLC sets: 2048
LLC ways: 16
Off-chip DRAM Size: 4096 MB Channels: 1 Width: 64-bit Data Rate: 6400 MT/s
CPU 0 runs ./micro_traces/srv192.trace.gz
.gz
ITLB has LRU replacement policy
DTLB has LRU replacement policy
STLB has LRU replacement policy
FDIP Prefetcher at L1I
L1I has LRU replacement policy
L1D has LRU replacement policy
Initialize SRRIP state for L2C
Initialize DRRIP state for LLC
Heartbeat_Variant_0 : 1344 0.328125 per_variant_size: 0 1344 0 0 0 0 0 0 0 
Heartbeat_Variant_1 : 1012 0.24707 per_variant_size: 0 163 849 0 0 0 0 0 0 
Heartbeat_Variant_2 : 850 0.20752 per_variant_size: 0 140 95 91 524 0 0 0 0 
Heartbeat_Variant_3 : 0 0 per_variant_size: 0 0 0 0 0 0 0 0 0 
Heartbeat_Variant_0_evicts 0 : 5551 1 : 0 2 : 0 3 : 0 
Heartbeat_Variant_1_evicts 0 : 0 1 : 0 2 : 195 3 : 0 
Heartbeat_Variant_2_evicts 0 : 0 1 : 195 2 : 0 3 : 0 
Heartbeat_Variant_3_evicts 0 : 0 1 : 0 2 : 0 3 : 0 
Heartbeat CPU 0 instructions: 10000000 cycles: 2797784 heartbeat IPC: 3.57426 cumulative IPC: 3.57426 (Simulation time: 0 hr 1 min 56 sec) 
Heartbeat_Variant_0 : 1382 0.337402 per_variant_size: 0 1382 0 0 0 0 0 0 0 
Heartbeat_Variant_1 : 1050 0.256348 per_variant_size: 0 170 880 0 0 0 0 0 0 
Heartbeat_Variant_2 : 878 0.214355 per_variant_size: 0 139 101 85 553 0 0 0 0 
Heartbeat_Variant_3 : 0 0 per_variant_size: 0 0 0 0 0 0 0 0 0 
Heartbeat_Variant_0_evicts 0 : 5680 1 : 0 2 : 0 3 : 0 
Heartbeat_Variant_1_evicts 0 : 0 1 : 0 2 : 198 3 : 0 
Heartbeat_Variant_2_evicts 0 : 0 1 : 198 2 : 0 3 : 0 
Heartbeat_Variant_3_evicts 0 : 0 1 : 0 2 : 0 3 : 0 
Heartbeat CPU 0 instructions: 20000001 cycles: 5594099 heartbeat IPC: 3.57614 cumulative IPC: 3.5752 (Simulation time: 0 hr 3 min 56 sec) 
Heartbeat_Variant_0 : 1382 0.337402 per_variant_size: 0 1382 0 0 0 0 0 0 0 
Heartbeat_Variant_1 : 1053 0.25708 per_variant_size: 0 174 879 0 0 0 0 0 0 
Heartbeat_Variant_2 : 878 0.214355 per_variant_size: 0 138 101 84 555 0 0 0 0 
Heartbeat_Variant_3 : 0 0 per_variant_size: 0 0 0 0 0 0 0 0 0 
Heartbeat_Variant_0_evicts 0 : 5588 1 : 0 2 : 0 3 : 0 
Heartbeat_Variant_1_evicts 0 : 0 1 : 0 2 : 196 3 : 0 
Heartbeat_Variant_2_evicts 0 : 0 1 : 196 2 : 0 3 : 0 
Heartbeat_Variant_3_evicts 0 : 0 1 : 0 2 : 0 3 : 0 
Heartbeat CPU 0 instructions: 30000002 cycles: 8390169 heartbeat IPC: 3.57645 cumulative IPC: 3.57561 (Simulation time: 0 hr 5 min 57 sec) 
Heartbeat_Variant_0 : 1382 0.337402 per_variant_size: 0 1382 0 0 0 0 0 0 0 
Heartbeat_Variant_1 : 1053 0.25708 per_variant_size: 0 174 879 0 0 0 0 0 0 
Heartbeat_Variant_2 : 879 0.2146 per_variant_size: 0 139 100 88 552 0 0 0 0 
Heartbeat_Variant_3 : 0 0 per_variant_size: 0 0 0 0 0 0 0 0 0 
Heartbeat_Variant_0_evicts 0 : 5414 1 : 0 2 : 0 3 : 0 
Heartbeat_Variant_1_evicts 0 : 0 1 : 0 2 : 192 3 : 0 
Heartbeat_Variant_2_evicts 0 : 0 1 : 192 2 : 0 3 : 0 
Heartbeat_Variant_3_evicts 0 : 0 1 : 0 2 : 0 3 : 0 
Heartbeat CPU 0 instructions: 40000001 cycles: 11186586 heartbeat IPC: 3.576 cumulative IPC: 3.57571 (Simulation time: 0 hr 7 min 54 sec) 
Heartbeat_Variant_0 : 1382 0.337402 per_variant_size: 0 1382 0 0 0 0 0 0 0 
Heartbeat_Variant_1 : 1053 0.25708 per_variant_size: 0 169 884 0 0 0 0 0 0 
Heartbeat_Variant_2 : 880 0.214844 per_variant_size: 0 139 101 100 540 0 0 0 0 
Heartbeat_Variant_3 : 0 0 per_variant_size: 0 0 0 0 0 0 0 0 0 
Heartbeat_Variant_0_evicts 0 : 5608 1 : 0 2 : 0 3 : 0 
Heartbeat_Variant_1_evicts 0 : 0 1 : 0 2 : 196 3 : 0 
Heartbeat_Variant_2_evicts 0 : 0 1 : 197 2 : 0 3 : 0 
Heartbeat_Variant_3_evicts 0 : 0 1 : 0 2 : 0 3 : 0 
Heartbeat CPU 0 instructions: 50000002 cycles: 13982031 heartbeat IPC: 3.57725 cumulative IPC: 3.57602 (Simulation time: 0 hr 9 min 50 sec) 

Warmup complete CPU 0 instructions: 50000002 cycles: 13982031 (Simulation time: 0 hr 9 min 50 sec) 

Cycle: 20000000 FTQ IN: 58253422 FTQ occupancy: 19.9744 DECODE IN: 58253293 DECODE occupancy: 51.8821 ROB IN: 58253233 ROB occupancy: 313.355 ROB OUT: 58252881
Heartbeat_Variant_0 : 1478 0.36084 per_variant_size: 0 1478 0 0 0 0 0 0 0 
Heartbeat_Variant_1 : 1169 0.2854 per_variant_size: 0 186 983 0 0 0 0 0 0 
Heartbeat_Variant_2 : 939 0.229248 per_variant_size: 0 137 114 93 595 0 0 0 0 
Heartbeat_Variant_3 : 0 0 per_variant_size: 0 0 0 0 0 0 0 0 0 
Heartbeat_Variant_0_evicts 0 : 5617 1 : 0 2 : 0 3 : 0 
Heartbeat_Variant_1_evicts 0 : 1 1 : 0 2 : 194 3 : 0 
Heartbeat_Variant_2_evicts 0 : 0 1 : 193 2 : 0 3 : 0 
Heartbeat_Variant_3_evicts 0 : 0 1 : 0 2 : 0 3 : 0 
Heartbeat CPU 0 instructions: 60000000 cycles: 21417623 heartbeat IPC: 1.34488 cumulative IPC: 1.34488 (Simulation time: 0 hr 11 min 59 sec) 
Heartbeat_Variant_0 : 1478 0.36084 per_variant_size: 0 1478 0 0 0 0 0 0 0 
Heartbeat_Variant_1 : 1168 0.285156 per_variant_size: 0 188 980 0 0 0 0 0 0 
Heartbeat_Variant_2 : 940 0.229492 per_variant_size: 0 139 113 99 589 0 0 0 0 
Heartbeat_Variant_3 : 0 0 per_variant_size: 0 0 0 0 0 0 0 0 0 
Heartbeat_Variant_0_evicts 0 : 5413 1 : 0 2 : 0 3 : 0 
Heartbeat_Variant_1_evicts 0 : 0 1 : 0 2 : 192 3 : 0 
Heartbeat_Variant_2_evicts 0 : 0 1 : 193 2 : 0 3 : 0 
Heartbeat_Variant_3_evicts 0 : 0 1 : 0 2 : 0 3 : 0 
Heartbeat CPU 0 instructions: 70000002 cycles: 28646679 heartbeat IPC: 1.38331 cumulative IPC: 1.36382 (Simulation time: 0 hr 14 min 18 sec) 
Cycle: 30000000 FTQ IN: 13633910 FTQ occupancy: 12.7939 DECODE IN: 13633940 DECODE occupancy: 32.8726 ROB IN: 13633940 ROB occupancy: 229.975 ROB OUT: 13633973
Heartbeat_Variant_0 : 1494 0.364746 per_variant_size: 0 1494 0 0 0 0 0 0 0 
Heartbeat_Variant_1 : 1204 0.293945 per_variant_size: 0 196 1008 0 0 0 0 0 0 
Heartbeat_Variant_2 : 951 0.232178 per_variant_size: 0 142 115 102 592 0 0 0 0 
Heartbeat_Variant_3 : 0 0 per_variant_size: 0 0 0 0 0 0 0 0 0 
Heartbeat_Variant_0_evicts 0 : 5648 1 : 2 2 : 0 3 : 0 
Heartbeat_Variant_1_evicts 0 : 0 1 : 0 2 : 197 3 : 0 
Heartbeat_Variant_2_evicts 0 : 0 1 : 197 2 : 0 3 : 0 
Heartbeat_Variant_3_evicts 0 : 0 1 : 0 2 : 0 3 : 0 
Heartbeat CPU 0 instructions: 80000001 cycles: 35843846 heartbeat IPC: 1.38944 cumulative IPC: 1.37226 (Simulation time: 0 hr 16 min 40 sec) 
Cycle: 40000000 FTQ IN: 13762988 FTQ occupancy: 13.0073 DECODE IN: 13763029 DECODE occupancy: 33.2224 ROB IN: 13763035 ROB occupancy: 231.609 ROB OUT: 13763115
Heartbeat_Variant_0 : 1494 0.364746 per_variant_size: 0 1494 0 0 0 0 0 0 0 
Heartbeat_Variant_1 : 1205 0.294189 per_variant_size: 0 196 1009 0 0 0 0 0 0 
Heartbeat_Variant_2 : 950 0.231934 per_variant_size: 0 140 116 96 598 0 0 0 0 
Heartbeat_Variant_3 : 0 0 per_variant_size: 0 0 0 0 0 0 0 0 0 
Heartbeat_Variant_0_evicts 0 : 5537 1 : 0 2 : 0 3 : 0 
Heartbeat_Variant_1_evicts 0 : 0 1 : 0 2 : 195 3 : 0 
Heartbeat_Variant_2_evicts 0 : 0 1 : 194 2 : 0 3 : 0 
Heartbeat_Variant_3_evicts 0 : 0 1 : 0 2 : 0 3 : 0 
Heartbeat CPU 0 instructions: 90000002 cycles: 43145290 heartbeat IPC: 1.36959 cumulative IPC: 1.37159 (Simulation time: 0 hr 18 min 52 sec) 
Cycle: 50000000 FTQ IN: 13859848 FTQ occupancy: 12.9013 DECODE IN: 13859871 DECODE occupancy: 33.2522 ROB IN: 13859925 ROB occupancy: 231.574 ROB OUT: 13859824
Heartbeat_Variant_0 : 1494 0.364746 per_variant_size: 0 1494 0 0 0 0 0 0 0 
Heartbeat_Variant_1 : 1205 0.294189 per_variant_size: 0 196 1009 0 0 0 0 0 0 
Heartbeat_Variant_2 : 950 0.231934 per_variant_size: 0 139 117 96 598 0 0 0 0 
Heartbeat_Variant_3 : 0 0 per_variant_size: 0 0 0 0 0 0 0 0 0 
Heartbeat_Variant_0_evicts 0 : 5640 1 : 0 2 : 0 3 : 0 
Heartbeat_Variant_1_evicts 0 : 0 1 : 0 2 : 197 3 : 0 
Heartbeat_Variant_2_evicts 0 : 0 1 : 197 2 : 0 3 : 0 
Heartbeat_Variant_3_evicts 0 : 0 1 : 0 2 : 0 3 : 0 
Heartbeat CPU 0 instructions: 100000001 cycles: 50350509 heartbeat IPC: 1.38788 cumulative IPC: 1.37482 (Simulation time: 0 hr 21 min 4 sec) 
Finished CPU 0 instructions: 50000003 cycles: 36368479 cumulative IPC: 1.37482 (Simulation time: 0 hr 21 min 4 sec) 

ChampSim completed all CPUs

Region of Interest Statistics

CPU 0 cumulative IPC: 1.37482 instructions: 50000003 cycles: 36368479
 Fetch stage stalled: 53.9466  Sim cycles: 36368479 fetch stall cycle: 19619545
 Empty decode stage: 36.4278  Sim cycles: 36368479 fetch stall cycle: 13248229
ITLB TOTAL     ACCESS:    5883048  HIT:    5387969  MISS:     495079  HIT %:    91.5847  MISS %:    8.41535   MPKI: 9.90158
ITLB LOAD TRANSLATION INSTRUCTION	ACCESS:    5761011  HIT:    5265932  MISS:     495079  HIT %:    91.4064  MISS %:    8.59361  MPKI: 9.90158
ITLB TRANSLATION FROM L1D PREFETCHER INSTRUCTION	ACCESS:     122037  HIT:     122037  MISS:          0  HIT %:        100  MISS %:          0  MPKI: 0

ITLB AVERAGE MISS LATENCY: 9.07074 cycles
ITLB RQ	ACCESS:    8020648	FORWARD:          0	MERGED:    1694387	TO_CACHE:    6326261

DTLB TOTAL     ACCESS:    8972701  HIT:    8503846  MISS:     468855  HIT %:    94.7747  MISS %:    5.22535   MPKI: 9.3771
DTLB LOAD TRANSLATION DATA	ACCESS:    8972701  HIT:    8503846  MISS:     468855  HIT %:    94.7747  MISS %:    5.22535  MPKI: 9.3771

DTLB AVERAGE MISS LATENCY: 9.36107 cycles
DTLB RQ	ACCESS:   13347564	FORWARD:          0	MERGED:    4338290	TO_CACHE:    9009274

STLB TOTAL     ACCESS:    1211175  HIT:    1209101  MISS:       2074  HIT %:    99.8288  MISS %:   0.171239   MPKI: 0.04148
STLB LOAD TRANSLATION INSTRUCTION	ACCESS:     495079  HIT:     494821  MISS:        258  HIT %:    99.9479  MISS %:  0.0521129  MPKI: 0.00516
STLB LOAD TRANSLATION DATA	ACCESS:     468855  HIT:     467072  MISS:       1783  HIT %:    99.6197  MISS %:   0.380288  MPKI: 0.03566
STLB TRANSLATION FROM L1D PREFETCHER DATA	ACCESS:     247241  HIT:     247208  MISS:         33  HIT %:    99.9867  MISS %:  0.0133473  MPKI: 0.00066

STLB AVERAGE MISS LATENCY: 83.8804 cycles
STLB RQ	ACCESS:    1331495	FORWARD:          0	MERGED:     120277	TO_CACHE:    1211218

STLB Hit, L1D data hit: 0
STLB Hit, L2C data hit: 0
STLB Hit, LLC data hit: 0
STLB Hit, LLC data miss: 0
STLB STLB hints to L2: 0
L1D TOTAL     ACCESS:   13093850  HIT:   11972295  MISS:    1121555  HIT %:    91.4345  MISS %:    8.56551   MPKI: 22.4311
L1D LOAD DATA	ACCESS:    6560991  HIT:    5820157  MISS:     740834  HIT %:    88.7085  MISS %:    11.2915  MPKI: 14.8167
L1D RFO DATA	ACCESS:    6206584  HIT:    5920930  MISS:     285654  HIT %:    95.3976  MISS %:    4.60244  MPKI: 5.71308
L1D PREFETCH DATA	ACCESS:     326275  HIT:     231208  MISS:      95067  HIT %:    70.8629  MISS %:    29.1371  MPKI: 1.90134

L1D PREFETCH  REQUESTED:     735515  ISSUED:     735515  USEFUL:      34338  USELESS:      68979
L1D USEFUL LOAD PREFETCHES:      34338 PREFETCH ISSUED TO LOWER LEVEL:     103375  ACCURACY: 33.2169
 TIMELY PREFETCHES:      34338 LATE PREFETCHES: 8255 DROPPED PREFETCHES: 8
L1D AVERAGE MISS LATENCY: 232458 cycles
L1D RQ	ACCESS:   10689262	FORWARD:          0	MERGED:    3930061	TO_CACHE:    6595296
L1D WQ	ACCESS:    6949231	FORWARD:     164298	MERGED:     196963	TO_CACHE:    6752268
L1D PQ	ACCESS:     367954	FORWARD:          0	MERGED:          0	TO_CACHE:     367561

L1D UNIQUE REGIONS ACCESSED: 0
L1D REGIONS CONFLICTS: 0
L1D Cross Page Prefetch Requests: 6788
L1D Same Page Prefetch Requests: 745694
L1D ROI Sum of L1D PQ occupancy: 4684450
L1D PREFETCHES PUSHED FROM L2C: 0
L1I TOTAL     ACCESS:    7186587  HIT:    4419274  MISS:    2767313  HIT %:    61.4934  MISS %:    38.5066   MPKI: 55.3463
L1I LOAD INSTRUCTION	ACCESS:    6522100  HIT:    3754787  MISS:    2767313  HIT %:    57.5702  MISS %:    42.4298  MPKI: 55.3463
L1I PREFETCH INSTRUCTION	ACCESS:     664487  HIT:     664487  MISS:          0  HIT %:        100  MISS %:          0  MPKI: 0

L1I PREFETCH  REQUESTED:    1602600  ISSUED:    1602600  USEFUL:          0  USELESS:          0
L1I USEFUL LOAD PREFETCHES:          0 PREFETCH ISSUED TO LOWER LEVEL:          0  ACCURACY: -nan
 TIMELY PREFETCHES:          0 LATE PREFETCHES: 0 DROPPED PREFETCHES: 0
L1I AVERAGE MISS LATENCY: 17.5459 cycles
L1I RQ	ACCESS:    9506060	FORWARD:          0	MERGED:    2658056	TO_CACHE:    6848004
L1I PQ	ACCESS:    1602600	FORWARD:          0	MERGED:     429956	TO_CACHE:    1172644

L1BTB TOTAL     ACCESS:    5669891  HIT:    2035146  MISS:    3634745  HIT %:    35.8939  MISS %:    64.1061   MPKI: 72.6949
L1BTB BRANCH_DIRECT_JUMP	ACCESS:     548319  HIT:     144307  MISS:     404012	AVERAGE STALL: 49.7831
L1BTB BRANCH_INDIRECT	ACCESS:     182415  HIT:      65643  MISS:     116772	AVERAGE STALL: 102.734
L1BTB BRANCH_CONDITIONAL	ACCESS:    2700564  HIT:    1405930  MISS:    1294634	AVERAGE STALL: 53.7832
L1BTB BRANCH_DIRECT_CALL	ACCESS:     946969  HIT:     106408  MISS:     840561	AVERAGE STALL: 64.0324
L1BTB BRANCH_INDIRECT_CALL	ACCESS:     172330  HIT:      21724  MISS:     150606	AVERAGE STALL: 132.238
L1BTB BRANCH_RETURN	ACCESS:    1119294  HIT:     291134  MISS:     828160	AVERAGE STALL: 44.7699
L1BTB BRANCH_OTHER ACCESS:          0  HIT:          0  MISS:          0	AVERAGE STALL: -nan
L1BTB TOTAL ROB OCCUPANCY AT BTB MISS: 2.68864

L2BTB TOTAL     ACCESS:    3609412  HIT:    3536152  MISS:      73260  HIT %:    97.9703  MISS %:    2.02969   MPKI: 1.4652
L2BTB BRANCH_DIRECT_JUMP	ACCESS:     399909  HIT:     396310  MISS:       3599	AVERAGE STALL: 49.7831
L2BTB BRANCH_INDIRECT	ACCESS:     106438  HIT:     103805  MISS:       2633	AVERAGE STALL: 102.734
L2BTB BRANCH_CONDITIONAL	ACCESS:    1294634  HIT:    1286382  MISS:       8252	AVERAGE STALL: 53.7832
L2BTB BRANCH_DIRECT_CALL	ACCESS:     840561  HIT:     839415  MISS:       1146	AVERAGE STALL: 64.0324
L2BTB BRANCH_INDIRECT_CALL	ACCESS:     141124  HIT:     131135  MISS:       9989	AVERAGE STALL: 132.238
L2BTB BRANCH_RETURN	ACCESS:     826746  HIT:     779105  MISS:      47641	AVERAGE STALL: 44.7699
L2BTB BRANCH_OTHER ACCESS:          0  HIT:          0  MISS:          0	AVERAGE STALL: -nan
L2BTB TOTAL ROB OCCUPANCY AT BTB MISS: 133.395

L2C TOTAL     ACCESS:    4498955  HIT:    3978843  MISS:     520112  HIT %:    88.4393  MISS %:    11.5607   MPKI: 10.4022
L2C LOAD INSTRUCTION	ACCESS:    2767314  HIT:    2477002  MISS:     290312  HIT %:    89.5092  MISS %:    10.4908  MPKI: 5.80624
L2C LOAD TRANSLATION INSTRUCTION	ACCESS:        294  HIT:         79  MISS:        215  HIT %:    26.8707  MISS %:    73.1293  MPKI: 0.0043
L2C LOAD DATA	ACCESS:     732558  HIT:     655304  MISS:      77254  HIT %:    89.4542  MISS %:    10.5458  MPKI: 1.54508
L2C RFO DATA	ACCESS:     285580  HIT:     226213  MISS:      59367  HIT %:    79.2118  MISS %:    20.7882  MPKI: 1.18734
L2C PREFETCH DATA	ACCESS:     188362  HIT:     116718  MISS:      71644  HIT %:    61.9647  MISS %:    38.0353  MPKI: 1.43288
L2C WRITEBACK DATA	ACCESS:     522934  HIT:     503013  MISS:      19921  HIT %:    96.1905  MISS %:    3.80947  MPKI: 0.39842
L2C LOAD TRANSLATION DATA	ACCESS:       1857  HIT:        474  MISS:       1383  HIT %:     25.525  MISS %:     74.475  MPKI: 0.02766
L2C TRANSLATION FROM L1D PREFETCHER DATA	ACCESS:         56  HIT:         40  MISS:         16  HIT %:    71.4286  MISS %:    28.5714  MPKI: 0.00032

L2C PREFETCH  REQUESTED:      92323  ISSUED:      92323  USEFUL:       7373  USELESS:      64686
L2C USEFUL LOAD PREFETCHES:       7373 PREFETCH ISSUED TO LOWER LEVEL:      72017  ACCURACY: 10.2379
 TIMELY PREFETCHES:       7373 LATE PREFETCHES: 373 DROPPED PREFETCHES: 0
L2C AVERAGE MISS LATENCY: 37.7785 cycles
L2C RQ	ACCESS:    3787708	FORWARD:          0	MERGED:          0	TO_CACHE:    3787666
L2C WQ	ACCESS:     522934	FORWARD:         42	MERGED:          0	TO_CACHE:     522934
L2C PQ	ACCESS:     195698	FORWARD:          0	MERGED:       3159	TO_CACHE:     192539

L2C Dense regions hint from L2: 0
PSCL5 TOTAL     ACCESS:       4174  HIT:       2087  MISS:       2087  HIT %:         50  MISS %:         50   MPKI: 0.04174
PSCL5 LOAD TRANSLATION INSTRUCTION	ACCESS:       4062  HIT:       2031  MISS:       2031  HIT %:         50  MISS %:         50  MPKI: 0.04062
PSCL5 TRANSLATION FROM L1D PREFETCHER INSTRUCTION	ACCESS:        112  HIT:         56  MISS:         56  HIT %:         50  MISS %:         50  MPKI: 0.00112


PSCL4 TOTAL     ACCESS:       3908  HIT:       1951  MISS:       1957  HIT %:    49.9232  MISS %:    50.0768   MPKI: 0.03914
PSCL4 LOAD TRANSLATION INSTRUCTION	ACCESS:       2876  HIT:       1899  MISS:        977  HIT %:    66.0292  MISS %:    33.9708  MPKI: 0.01954
PSCL4 TRANSLATION FROM L1D PREFETCHER INSTRUCTION	ACCESS:         80  HIT:         52  MISS:         28  HIT %:         65  MISS %:         35  MPKI: 0.00056
PSCL4 LOAD TRANSLATION DATA	ACCESS:        928  HIT:          0  MISS:        928  HIT %:          0  MISS %:        100  MPKI: 0.01856
PSCL4 TRANSLATION FROM L1D PREFETCHER DATA	ACCESS:         24  HIT:          0  MISS:         24  HIT %:          0  MISS %:        100  MPKI: 0.00048


PSCL3 TOTAL     ACCESS:       3954  HIT:       1974  MISS:       1980  HIT %:    49.9241  MISS %:    50.0759   MPKI: 0.0396
PSCL3 LOAD TRANSLATION INSTRUCTION	ACCESS:       2899  HIT:       1922  MISS:        977  HIT %:    66.2987  MISS %:    33.7013  MPKI: 0.01954
PSCL3 TRANSLATION FROM L1D PREFETCHER INSTRUCTION	ACCESS:         80  HIT:         52  MISS:         28  HIT %:         65  MISS %:         35  MPKI: 0.00056
PSCL3 LOAD TRANSLATION DATA	ACCESS:        951  HIT:          0  MISS:        951  HIT %:          0  MISS %:        100  MPKI: 0.01902
PSCL3 TRANSLATION FROM L1D PREFETCHER DATA	ACCESS:         24  HIT:          0  MISS:         24  HIT %:          0  MISS %:        100  MPKI: 0.00048


PSCL2 TOTAL     ACCESS:       4061  HIT:       1974  MISS:       2087  HIT %:    48.6087  MISS %:    51.3913   MPKI: 0.04174
PSCL2 LOAD TRANSLATION INSTRUCTION	ACCESS:       2181  HIT:       1918  MISS:        263  HIT %:    87.9413  MISS %:    12.0587  MPKI: 0.00526
PSCL2 TRANSLATION FROM L1D PREFETCHER INSTRUCTION	ACCESS:         56  HIT:         56  MISS:          0  HIT %:        100  MISS %:          0  MPKI: 0
PSCL2 LOAD TRANSLATION DATA	ACCESS:       1768  HIT:          0  MISS:       1768  HIT %:          0  MISS %:        100  MPKI: 0.03536
PSCL2 TRANSLATION FROM L1D PREFETCHER DATA	ACCESS:         56  HIT:          0  MISS:         56  HIT %:          0  MISS %:        100  MPKI: 0.00112


LLC TOTAL     ACCESS:     582146  HIT:     553139  MISS:      29007  HIT %:    95.0172  MISS %:    4.98277   MPKI: 0.58014
LLC LOAD INSTRUCTION	ACCESS:     290313  HIT:     289107  MISS:       1206  HIT %:    99.5846  MISS %:   0.415414  MPKI: 0.02412
LLC LOAD TRANSLATION INSTRUCTION	ACCESS:        215  HIT:        154  MISS:         61  HIT %:    71.6279  MISS %:    28.3721  MPKI: 0.00122
LLC LOAD DATA	ACCESS:      76890  HIT:      73254  MISS:       3636  HIT %:    95.2712  MISS %:    4.72883  MPKI: 0.07272
LLC RFO DATA	ACCESS:      59352  HIT:      45676  MISS:      13676  HIT %:    76.9578  MISS %:    23.0422  MPKI: 0.27352
LLC PREFETCH DATA	ACCESS:      72017  HIT:      62068  MISS:       9949  HIT %:    86.1852  MISS %:    13.8148  MPKI: 0.19898
LLC WRITEBACK DATA	ACCESS:      81960  HIT:      81594  MISS:        366  HIT %:    99.5534  MISS %:   0.446559  MPKI: 0.00732
LLC LOAD TRANSLATION DATA	ACCESS:       1383  HIT:       1271  MISS:        112  HIT %:    91.9017  MISS %:    8.09834  MPKI: 0.00224
LLC TRANSLATION FROM L1D PREFETCHER DATA	ACCESS:         16  HIT:         15  MISS:          1  HIT %:      93.75  MISS %:       6.25  MPKI: 2e-05

LLC AVERAGE MISS LATENCY: 158.69 cycles
LLC RQ	ACCESS:     428176	FORWARD:          0	MERGED:          0	TO_CACHE:     428170
LLC WQ	ACCESS:      81961	FORWARD:          6	MERGED:          0	TO_CACHE:      81961
LLC PQ	ACCESS:      72017	FORWARD:          0	MERGED:          0	TO_CACHE:      72017

LLC Dense regions hint to LLC: 0

RAW hits: 1942421
Loads Generated: 12631682
Loads sent to L1D: 10689262
Stores Generated: 6949229
Stores sent to L1D: 6949231
Major fault: 0 Minor fault: 2596
Allocated PAGES: 2596

stream: 
stream:times selected: 1180147
stream:pref_filled: 122648
stream:pref_useful: 24708
stream:pref_late: 7227
stream:misses: 8000
stream:misses_by_poll: 0

CS: 
CS:times selected: 176827
CS:pref_filled: 59179
CS:pref_useful: 35749
CS:pref_late: 6863
CS:misses: 15862
CS:misses_by_poll: 5

CPLX: 
CPLX:times selected: 1002097
CPLX:pref_filled: 19933
CPLX:pref_useful: 4675
CPLX:pref_late: 3192
CPLX:misses: 94475
CPLX:misses_by_poll: 2

NL_L1: 
NL:times selected: 21466
NL:pref_filled: 735
NL:pref_useful: 310
NL:pref_late: 351
NL:misses: 1726
NL:misses_by_poll: 0

total selections: 2380537
total_filled: 95067
total_useful: 34338
total_late: 18977
total_polluted: 7
total_misses_after_warmup: 775142
conflicts: 5529644

test: 114359

DRAM Statistics
 CHANNEL 0
 RQ ROW_BUFFER_HIT:      10634  ROW_BUFFER_MISS:      18004
 DBUS_CONGESTED:          6
 WQ ROW_BUFFER_HIT:       1538  ROW_BUFFER_MISS:      12044  FULL:          0

 AVG_CONGESTED_CYCLE: 5

CPU 0 Branch Prediction Accuracy: 99.8107% MPKI: 0.3463 Average ROB Occupancy at Mispredict: 175.5
Branch types
NOT_BRANCH: 40851036 81.7021%
BRANCH_DIRECT_JUMP: 548319 1.09664%
BRANCH_INDIRECT: 182415 0.36483%
BRANCH_CONDITIONAL: 6179580 12.3592%
BRANCH_DIRECT_CALL: 946969 1.89394%
BRANCH_INDIRECT_CALL: 172330 0.34466%
BRANCH_RETURN: 1119294 2.23859%
BRANCH_OTHER: 0 0%

DRAM PAGES: 1048576
Allocated PAGES: 2596
Average_ROB_Occupancy: 232.369
Average_Decode_Occupancy: 33.0723
Average_FTQ_Occupancy: 12.9049
Indirect max targets: 14 Average targets: 1.17949
Branch_type:  BRANCH_DIRECT_JUMP:  Count Percentage: 3.23342 6.23304 3.41641 5.78579 4.6884 5.96084 0.926259 69.7558 
Branch_type:  BRANCH_INDIRECT:  Count Percentage: 11.7558 3.40708 2.50286 9.68463 11.3361 4.01629 2.01527 55.282 
Branch_type:  BRANCH_CONDITIONAL:  Count Percentage: 20.964 3.81135 1.17721 4.19443 3.29439 4.35091 0.695033 61.5127 
Branch_type:  BRANCH_DIRECT_CALL:  Count Percentage: 0.769623 1.27911 1.11834 3.35523 3.18151 2.3497 0.699499 87.247 
Branch_type:  BRANCH_INDIRECT_CALL:  Count Percentage: 9.55496 0.559713 2.9957 4.83883 1.09791 2.98989 0.995563 76.9674 
Branch_type:  BRANCH_RETURN:  Count Percentage: 5.64002 0.829494 1.62737 6.04178 3.84412 4.62106 1.13061 76.2656 
Branch_type:  BRANCH_DIRECT_JUMP:  Total Count: 35446 68329 37452 63426 51396 65345 10154 764690 
Branch_type:  BRANCH_INDIRECT:  Total Count: 42916 12438 9137 35355 41384 14662 7357 201814 
Branch_type:  BRANCH_CONDITIONAL:  Total Count: 2590387 470945 145461 518280 407068 537615 85881 7600748 
Branch_type:  BRANCH_DIRECT_CALL:  Total Count: 14553 24187 21147 63445 60160 44431 13227 1649776 
Branch_type:  BRANCH_INDIRECT_CALL:  Total Count: 32862 1925 10303 16642 3776 10283 3424 264711 
Branch_type:  BRANCH_RETURN:  Total Count: 126094 18545 36383 135076 85943 103313 25277 1705069 
Number of unique branch instructions: 10649
Upper 32 bits: 
aaaa
ffff
ffff0000
Unique upper 32 bits: 3
Unique upper 36 bits: 3
Unique upper 40 bits: 5
Unique upper 44 bits: 32
Unique upper 48 bits: 157
Variant_0 : 1494 0.364746
Variant_1 : 1205 0.294189
Variant_2 : 950 0.231934
Variant_3 : 0 0
Offset_3 4410
Offset_4 251
Offset_5 474
Offset_6 534
Offset_7 629
Offset_8 564
Offset_9 513
Offset_10 418
Offset_11 353
Offset_12 322
Offset_13 232
Offset_14 245
Offset_15 194
Offset_16 227
Offset_17 164
Offset_18 149
Offset_19 251
Offset_20 140
Offset_21 235
Offset_22 410
Offset_23 241
Offset_24 341
Offset_25 117
Offset_47 92
decode_dispatch_called: 25157272 69.1733
Dispatch_width: 0 13490256 53.6237 37.0933
Dispatch_width: 1 937740 3.72751 2.57844
Dispatch_width: 2 780278 3.1016 2.14548
Dispatch_width: 3 482972 1.91981 1.328
Dispatch_width: 4 5288261 21.0208 14.5408
Dispatch_width: 5 166843 0.6632 0.458757
Dispatch_width: 6 4010922 15.9434 11.0286
Empty_decode_cycles: 11211207 30.8267
ROB_full_cycles: 8427085 23.1714
Starvation_cycles_per_kilo_instr: 239.305
Starvation_cycles_per_kilo_instr_3: 184.754
Starvation_cycles_per_kilo_instr_0: 162.744
Branch_type_1  (3,1)  (4,7)  (5,38)  (6,73)  (7,123)  (8,147)  (9,137)  (10,111)  (11,79)  (12,55)  (13,11)  (14,2)  (15,3)  (16,4)  (18,1)  (19,5)  (20,2)  (21,1)  (22,3)  (23,2)  (24,10)  (25,12) 
Branch_type_2  (3,1)  (4,1)  (5,1)  (8,4)  (9,4)  (10,1)  (12,1)  (13,1)  (14,1)  (16,3)  (17,2)  (20,2)  (21,2)  (23,5)  (24,1)  (47,41) 
Branch_type_3  (3,4408)  (4,243)  (5,431)  (6,445)  (7,477)  (8,350)  (9,280)  (10,167)  (11,138)  (12,62)  (13,10) 
Branch_type_4  (6,3)  (7,8)  (8,25)  (9,53)  (10,66)  (11,70)  (12,113)  (13,98)  (14,111)  (15,92)  (16,99)  (17,76)  (18,65)  (19,122)  (20,71)  (21,124)  (22,216)  (23,136)  (24,197)  (25,101) 
Branch_type_5  (8,3)  (9,1)  (10,4)  (11,5)  (12,3)  (13,14)  (14,16)  (15,11)  (16,22)  (17,11)  (18,23)  (19,14)  (20,11)  (21,13)  (22,43)  (23,26)  (24,37) 
Branch_type_6  (5,4)  (6,13)  (7,21)  (8,35)  (9,38)  (10,69)  (11,61)  (12,88)  (13,98)  (14,115)  (15,88)  (16,99)  (17,75)  (18,60)  (19,110)  (20,54)  (21,95)  (22,148)  (23,72)  (24,96)  (25,4)  (47,51) 
Unique trigger count: 
Variant_0_evicts_0 : 0
Variant_0_evicts_1 : 0
Variant_0_evicts_2 : 0
Variant_0_evicts_3 : 0
Variant_1_evicts_0 : 0
Variant_1_evicts_1 : 0
Variant_1_evicts_2 : 0
Variant_1_evicts_3 : 0
Variant_2_evicts_0 : 0
Variant_2_evicts_1 : 0
Variant_2_evicts_2 : 0
Variant_2_evicts_3 : 0
Variant_3_evicts_0 : 0
Variant_3_evicts_1 : 0
Variant_3_evicts_2 : 0
Variant_3_evicts_3 : 0
BTB PER SET UNIQUE ADDR: 20 26 21 20 29 20 22 29 25 23 30 30 29 24 25 27 34 26 28 28 21 37 24 35 27 24 30 23 32 29 25 22 22 20 25 28 25 29 23 26 26 28 30 29 24 25 31 20 27 25 22 28 27 14 27 26 28 27 32 28 28 26 32 27 24 31 26 30 30 26 32 22 26 25 28 24 25 24 28 28 33 23 21 28 26 32 22 24 18 25 29 26 35 36 28 35 33 28 28 32 28 28 28 24 29 29 28 26 29 33 28 32 28 24 23 21 28 24 22 22 32 22 33 23 30 26 30 31 23 29 27 30 32 33 23 25 29 23 23 23 23 24 29 28 32 27 21 28 31 26 27 22 35 27 27 32 30 35 34 31 35 29 27 29 29 28 27 29 28 30 26 28 26 24 20 24 30 23 22 22 32 24 28 26 31 29 28 23 23 23 29 29 31 26 23 26 26 24 33 23 20 25 28 24 30 25 27 25 27 28 32 27 30 29 26 22 27 29 26 27 33 28 27 25 32 32 22 26 26 27 27 27 23 25 26 24 28 26 23 31 34 30 28 29 18 29 22 30 29 23 36 25 26 28 23 26 
BTB PER SET COUNT: 25 1516 32 21 40 20 24 34 30 25 519 1027 32 25 2064 31 51 1012 31 31 21 1007 24 1036 28 28 34 1493 39 790 31 23 32 23 25 156 2487 31 1949 323 988 31 516 777 24 32 1532 22 864 1001 24 28 32 14 895 795 36 546 32 513 104 31 1002 1025 33 1032 15736 34 1954 26 92 25 26 28 2005 37 477 26 1502 153 241 23 266 35 27 79 25 2971 20 27 517 33 2344 39 28 2450 35 29 35 2369 43 34 301 47 35 32 32 1500 29 526 2008 35 4737 30 27 21 985 27 24 1494 1409 1039 1520 1013 2013 32 30 2492 27 34 996 30 35 20644 30 28 404 86 25 25 510 26 35 997 86 1952 984 1503 40 2492 1497 406 2396 30 35 2015 848 2036 39 35 1442 33 1510 2023 30 31 995 33 2029 1414 296 993 29 1019 22 29 53 25 40 173 7813 827 4568 726 2140 3947 31 25 29 523 30 39 2191 1469 991 27 36 995 44 25 983 29 511 112 2971 1952 30 83 624 996 32 2553 37 2980 27 22 37 32 2008 30 2014 29 4946 34 1145 1479 987 28 1783 31 6062 29 29 452 34 25 2541 29 168 1959 40 2918 35 485 38 90 30 36 31 25 1478 529 989 30 25 908 
To predecode: 0
Predecoding something: 0
Predecode request dropped: 0
sizeofblock_0 0
sizeofblock_1 16451
sizeofblock_2 18856
sizeofblock_3 54769
sizeofblock_4 62622
sizeofblock_5 0
sizeofblock_6 0
sizeofblock_7 0
sizeofblock_8 0
Variant_0 Correct: 1618167 Incorrect: 0 Accuracy: 1
Variant_1 Correct: 2095570 Incorrect: 0 Accuracy: 1
Variant_2 Correct: 3633584 Incorrect: 0 Accuracy: 1
Variant_3 Correct: 0 Incorrect: 0 Accuracy: -nan
