Set 35: way: 00
Set 35: way: 11
Set 35: way: 22
Set 35: way: 33

*** ChampSim Multicore Out-of-Order Simulator ***

Warmup Instructions: 50000000
Simulation Instructions: 50000000
Number of CPUs: 1
LLC sets: 2048
LLC ways: 16
Off-chip DRAM Size: 4096 MB Channels: 1 Width: 64-bit Data Rate: 6400 MT/s
CPU 0 runs ./micro_traces/srv149.trace.gz
.gz
ITLB has LRU replacement policy
DTLB has LRU replacement policy
STLB has LRU replacement policy
L1I has LRU replacement policy
L1D has LRU replacement policy
Initialize SRRIP state for L2C
Initialize DRRIP state for LLC
Heartbeat CPU 0 instructions: 10000001 cycles: 2793626 heartbeat IPC: 3.57958 cumulative IPC: 3.57958 (Simulation time: 0 hr 1 min 36 sec) 
Heartbeat CPU 0 instructions: 20000000 cycles: 5587859 heartbeat IPC: 3.5788 cumulative IPC: 3.57919 (Simulation time: 0 hr 3 min 14 sec) 
Heartbeat CPU 0 instructions: 30000003 cycles: 8382104 heartbeat IPC: 3.57879 cumulative IPC: 3.57905 (Simulation time: 0 hr 4 min 47 sec) 
Heartbeat CPU 0 instructions: 40000002 cycles: 11176909 heartbeat IPC: 3.57807 cumulative IPC: 3.57881 (Simulation time: 0 hr 6 min 24 sec) 
*** Reached end of trace for Core: 0 Repeating trace: ./micro_traces/srv149.trace.gz
Heartbeat CPU 0 instructions: 50000000 cycles: 13971267 heartbeat IPC: 3.57864 cumulative IPC: 3.57877 (Simulation time: 0 hr 8 min 1 sec) 

Warmup complete CPU 0 instructions: 50000004 cycles: 13971268 (Simulation time: 0 hr 8 min 1 sec) 

Cycle: 20000000 FTQ IN: 57017688 FTQ occupancy: 17.8356 DECODE IN: 57017616 DECODE occupancy: 45.9651 ROB IN: 57017616 ROB occupancy: 282.188 ROB OUT: 57017614
Heartbeat CPU 0 instructions: 60000003 cycles: 22697604 heartbeat IPC: 1.14596 cumulative IPC: 1.14596 (Simulation time: 0 hr 9 min 22 sec) 
Cycle: 30000000 FTQ IN: 11435818 FTQ occupancy: 6.03821 DECODE IN: 11435885 DECODE occupancy: 13.71 ROB IN: 11435878 ROB occupancy: 130.335 ROB OUT: 11435808
Heartbeat CPU 0 instructions: 70000001 cycles: 31325217 heartbeat IPC: 1.15907 cumulative IPC: 1.15248 (Simulation time: 0 hr 10 min 42 sec) 
Heartbeat CPU 0 instructions: 80000000 cycles: 39996982 heartbeat IPC: 1.15317 cumulative IPC: 1.15271 (Simulation time: 0 hr 12 min 3 sec) 
Cycle: 40000000 FTQ IN: 11550485 FTQ occupancy: 6.03619 DECODE IN: 11550422 DECODE occupancy: 13.6679 ROB IN: 11550427 ROB occupancy: 129.052 ROB OUT: 11550482
Heartbeat CPU 0 instructions: 90000002 cycles: 48633956 heartbeat IPC: 1.15781 cumulative IPC: 1.15398 (Simulation time: 0 hr 13 min 27 sec) 
*** Reached end of trace for Core: 0 Repeating trace: ./micro_traces/srv149.trace.gz
Cycle: 50000000 FTQ IN: 11603147 FTQ occupancy: 5.86352 DECODE IN: 11603214 DECODE occupancy: 13.2304 ROB IN: 11603216 ROB occupancy: 126.893 ROB OUT: 11603215
Heartbeat CPU 0 instructions: 100000000 cycles: 57178760 heartbeat IPC: 1.1703 cumulative IPC: 1.15721 (Simulation time: 0 hr 14 min 45 sec) 
Finished CPU 0 instructions: 50000000 cycles: 43207493 cumulative IPC: 1.15721 (Simulation time: 0 hr 14 min 45 sec) 

ChampSim completed all CPUs

Region of Interest Statistics

CPU 0 cumulative IPC: 1.15721 instructions: 50000000 cycles: 43207493
 Fetch stage stalled: 72.4765  Sim cycles: 43207493 fetch stall cycle: 31315287
 Empty decode stage: 66.3433  Sim cycles: 43207493 fetch stall cycle: 28665268
ITLB TOTAL     ACCESS:    9146587  HIT:    8649669  MISS:     496918  HIT %:    94.5672  MISS %:    5.43282   MPKI: 9.93836
ITLB LOAD TRANSLATION INSTRUCTION	ACCESS:    5862906  HIT:    5442541  MISS:     420365  HIT %:    92.8301  MISS %:    7.16991  MPKI: 8.4073
ITLB TRANSLATION FROM L1D PREFETCHER INSTRUCTION	ACCESS:    3283681  HIT:    3207128  MISS:      76553  HIT %:    97.6687  MISS %:    2.33132  MPKI: 1.53106

ITLB AVERAGE MISS LATENCY: 2.90209e+07 cycles
ITLB RQ	ACCESS:   11208206	FORWARD:          0	MERGED:    1297665	TO_CACHE:    9910541

DTLB TOTAL     ACCESS:    9330229  HIT:    8853140  MISS:     477089  HIT %:    94.8866  MISS %:    5.11337   MPKI: 9.54178
DTLB LOAD TRANSLATION DATA	ACCESS:    9330229  HIT:    8853140  MISS:     477089  HIT %:    94.8866  MISS %:    5.11337  MPKI: 9.54178

DTLB AVERAGE MISS LATENCY: 9.26752 cycles
DTLB RQ	ACCESS:   13600577	FORWARD:          0	MERGED:    4238454	TO_CACHE:    9362123

STLB TOTAL     ACCESS:    1233900  HIT:    1231567  MISS:       2333  HIT %:    99.8109  MISS %:   0.189075   MPKI: 0.04666
STLB LOAD TRANSLATION INSTRUCTION	ACCESS:      15787  HIT:      15769  MISS:         18  HIT %:     99.886  MISS %:   0.114018  MPKI: 0.00036
STLB TRANSLATION FROM L1D PREFETCHER INSTRUCTION	ACCESS:     481131  HIT:     480812  MISS:        319  HIT %:    99.9337  MISS %:  0.0663021  MPKI: 0.00638
STLB LOAD TRANSLATION DATA	ACCESS:     477065  HIT:     475112  MISS:       1953  HIT %:    99.5906  MISS %:   0.409378  MPKI: 0.03906
STLB TRANSLATION FROM L1D PREFETCHER DATA	ACCESS:     259917  HIT:     259874  MISS:         43  HIT %:    99.9835  MISS %:  0.0165437  MPKI: 0.00086

STLB AVERAGE MISS LATENCY: 58.5071 cycles
STLB RQ	ACCESS:    1390012	FORWARD:          0	MERGED:     156084	TO_CACHE:    1233928

STLB Hit, L1D data hit: 0
STLB Hit, L2C data hit: 0
STLB Hit, LLC data hit: 0
STLB Hit, LLC data miss: 0
STLB STLB hints to L2: 0
L1D TOTAL     ACCESS:   13368514  HIT:   12171452  MISS:    1197062  HIT %:    91.0457  MISS %:    8.95434   MPKI: 23.9412
L1D LOAD DATA	ACCESS:    6840491  HIT:    6051888  MISS:     788603  HIT %:    88.4715  MISS %:    11.5285  MPKI: 15.7721
L1D RFO DATA	ACCESS:    6187469  HIT:    5891681  MISS:     295788  HIT %:    95.2196  MISS %:    4.78044  MPKI: 5.91576
L1D PREFETCH DATA	ACCESS:     340554  HIT:     227883  MISS:     112671  HIT %:    66.9154  MISS %:    33.0846  MPKI: 2.25342

L1D PREFETCH  REQUESTED:     832278  ISSUED:     832278  USEFUL:      56923  USELESS:      72945
L1D USEFUL LOAD PREFETCHES:      56923 PREFETCH ISSUED TO LOWER LEVEL:     129921  ACCURACY: 43.8135
 TIMELY PREFETCHES:      56923 LATE PREFETCHES: 17196 DROPPED PREFETCHES: 1
L1D AVERAGE MISS LATENCY: 502096 cycles
L1D RQ	ACCESS:   10858288	FORWARD:          0	MERGED:    3816818	TO_CACHE:    6876615
L1D WQ	ACCESS:    6899288	FORWARD:     165123	MERGED:     175326	TO_CACHE:    6723962
L1D PQ	ACCESS:     416273	FORWARD:          0	MERGED:          0	TO_CACHE:     416005

L1D UNIQUE REGIONS ACCESSED: 0
L1D REGIONS CONFLICTS: 0
L1D Cross Page Prefetch Requests: 7974
L1D Same Page Prefetch Requests: 833079
L1D ROI Sum of L1D PQ occupancy: 5267330
L1D PREFETCHES PUSHED FROM L2C: 0
L1I TOTAL     ACCESS:    9743579  HIT:    6982905  MISS:    2760674  HIT %:    71.6667  MISS %:    28.3333   MPKI: 55.2135
L1I LOAD INSTRUCTION	ACCESS:    6719719  HIT:    4217054  MISS:    2502665  HIT %:    62.7564  MISS %:    37.2436  MPKI: 50.0533
L1I PREFETCH INSTRUCTION	ACCESS:    3023860  HIT:    2765851  MISS:     258009  HIT %:    91.4676  MISS %:    8.53244  MPKI: 5.16018

L1I PREFETCH  REQUESTED:    4592248  ISSUED:    4592248  USEFUL:    1024562  USELESS:       1915
L1I USEFUL LOAD PREFETCHES:    1024562 PREFETCH ISSUED TO LOWER LEVEL:    1026478  ACCURACY: 99.8133
 TIMELY PREFETCHES:    1024562 LATE PREFETCHES: 768469 DROPPED PREFETCHES: 0
L1I AVERAGE MISS LATENCY: 9.91996e+06 cycles
L1I RQ	ACCESS:    9454077	FORWARD:          0	MERGED:    2576209	TO_CACHE:    6877868
L1I PQ	ACCESS:    4592248	FORWARD:          0	MERGED:     261910	TO_CACHE:    4330338

BTB TOTAL     ACCESS:    6680421  HIT:    6151378  MISS:     455384  MISS TARGET:      73659  HIT %:    92.0807  MISS %:     6.8167   MPKI: 9.10768
BTB BRANCH_DIRECT_JUMP	ACCESS:     541789  HIT:     503552  MISS:      32462  MISS TARGET:       5775	AVERAGE STALL: 30.3208
BTB BRANCH_INDIRECT	ACCESS:     180368  HIT:     165438  MISS:       2531  MISS TARGET:      12399	AVERAGE STALL: 75.2529
BTB BRANCH_CONDITIONAL	ACCESS:    3731530  HIT:    3433628  MISS:     297783  MISS TARGET:        119	AVERAGE STALL: 33.7117
BTB BRANCH_DIRECT_CALL	ACCESS:     942516  HIT:     865835  MISS:      76681  MISS TARGET:          0	AVERAGE STALL: 36.9317
BTB BRANCH_INDIRECT_CALL	ACCESS:     170854  HIT:     141231  MISS:      11832  MISS TARGET:      17791	AVERAGE STALL: 115.43
BTB BRANCH_RETURN	ACCESS:    1113364  HIT:    1041694  MISS:      34095  MISS TARGET:      37575	AVERAGE STALL: 34.445
BTB BRANCH_OTHER ACCESS:          0  HIT:          0  MISS:          0  MISS TARGET:          0	AVERAGE STALL: -nan
L2C TOTAL     ACCESS:    5498779  HIT:    4844758  MISS:     654021  HIT %:    88.1061  MISS %:    11.8939   MPKI: 13.0804
L2C LOAD INSTRUCTION	ACCESS:    1734196  HIT:    1553962  MISS:     180234  HIT %:    89.6071  MISS %:    10.3929  MPKI: 3.60468
L2C PREFETCH INSTRUCTION	ACCESS:    1026478  HIT:     907718  MISS:     118760  HIT %:    88.4303  MISS %:    11.5697  MPKI: 2.3752
L2C LOAD TRANSLATION INSTRUCTION	ACCESS:         24  HIT:          5  MISS:         19  HIT %:    20.8333  MISS %:    79.1667  MPKI: 0.00038
L2C TRANSLATION FROM L1D PREFETCHER INSTRUCTION	ACCESS:        363  HIT:         96  MISS:        267  HIT %:    26.4463  MISS %:    73.5537  MPKI: 0.00534
L2C LOAD DATA	ACCESS:     771360  HIT:     663029  MISS:     108331  HIT %:    85.9558  MISS %:    14.0442  MPKI: 2.16662
L2C RFO DATA	ACCESS:     295719  HIT:     228602  MISS:      67117  HIT %:    77.3038  MISS %:    22.6962  MPKI: 1.34234
L2C PREFETCH DATA	ACCESS:    1129325  HIT:     969694  MISS:     159631  HIT %:    85.8649  MISS %:    14.1351  MPKI: 3.19262
L2C WRITEBACK DATA	ACCESS:     539188  HIT:     521094  MISS:      18094  HIT %:    96.6442  MISS %:    3.35579  MPKI: 0.36188
L2C LOAD TRANSLATION DATA	ACCESS:       2075  HIT:        516  MISS:       1559  HIT %:    24.8675  MISS %:    75.1325  MPKI: 0.03118
L2C TRANSLATION FROM L1D PREFETCHER DATA	ACCESS:         51  HIT:         42  MISS:          9  HIT %:    82.3529  MISS %:    17.6471  MPKI: 0.00018

L2C PREFETCH  REQUESTED:    1110309  ISSUED:    1110309  USEFUL:      38384  USELESS:     252648
L2C USEFUL LOAD PREFETCHES:      38384 PREFETCH ISSUED TO LOWER LEVEL:     290001  ACCURACY: 13.2358
 TIMELY PREFETCHES:      38384 LATE PREFETCHES: 11610 DROPPED PREFETCHES: 0
L2C AVERAGE MISS LATENCY: 36.7778 cycles
L2C RQ	ACCESS:    2803850	FORWARD:          0	MERGED:          0	TO_CACHE:    2803788
L2C WQ	ACCESS:     539188	FORWARD:         62	MERGED:          0	TO_CACHE:     539188
L2C PQ	ACCESS:    2266708	FORWARD:          0	MERGED:      64615	TO_CACHE:    2202093

L2C Dense regions hint from L2: 0
PSCL5 TOTAL     ACCESS:       4668  HIT:       2334  MISS:       2334  HIT %:         50  MISS %:         50   MPKI: 0.04668
PSCL5 LOAD TRANSLATION INSTRUCTION	ACCESS:       3928  HIT:       1964  MISS:       1964  HIT %:         50  MISS %:         50  MPKI: 0.03928
PSCL5 TRANSLATION FROM L1D PREFETCHER INSTRUCTION	ACCESS:        740  HIT:        370  MISS:        370  HIT %:         50  MISS %:         50  MPKI: 0.0074


PSCL4 TOTAL     ACCESS:       4374  HIT:       2183  MISS:       2191  HIT %:    49.9086  MISS %:    50.0914   MPKI: 0.04382
PSCL4 LOAD TRANSLATION INSTRUCTION	ACCESS:       2782  HIT:       1873  MISS:        909  HIT %:    67.3257  MISS %:    32.6743  MPKI: 0.01818
PSCL4 TRANSLATION FROM L1D PREFETCHER INSTRUCTION	ACCESS:        553  HIT:        310  MISS:        243  HIT %:    56.0579  MISS %:    43.9421  MPKI: 0.00486
PSCL4 LOAD TRANSLATION DATA	ACCESS:        972  HIT:          0  MISS:        972  HIT %:          0  MISS %:        100  MPKI: 0.01944
PSCL4 TRANSLATION FROM L1D PREFETCHER DATA	ACCESS:         67  HIT:          0  MISS:         67  HIT %:          0  MISS %:        100  MPKI: 0.00134


PSCL3 TOTAL     ACCESS:       4226  HIT:       2104  MISS:       2122  HIT %:     49.787  MISS %:     50.213   MPKI: 0.04244
PSCL3 LOAD TRANSLATION INSTRUCTION	ACCESS:       2092  HIT:       1776  MISS:        316  HIT %:    84.8948  MISS %:    15.1052  MPKI: 0.00632
PSCL3 TRANSLATION FROM L1D PREFETCHER INSTRUCTION	ACCESS:        469  HIT:        328  MISS:        141  HIT %:     69.936  MISS %:     30.064  MPKI: 0.00282
PSCL3 LOAD TRANSLATION DATA	ACCESS:       1478  HIT:          0  MISS:       1478  HIT %:          0  MISS %:        100  MPKI: 0.02956
PSCL3 TRANSLATION FROM L1D PREFETCHER DATA	ACCESS:        187  HIT:          0  MISS:        187  HIT %:          0  MISS %:        100  MPKI: 0.00374


PSCL2 TOTAL     ACCESS:       4515  HIT:       2181  MISS:       2334  HIT %:    48.3056  MISS %:    51.6944   MPKI: 0.04668
PSCL2 LOAD TRANSLATION INSTRUCTION	ACCESS:       1901  HIT:       1847  MISS:         54  HIT %:    97.1594  MISS %:    2.84061  MPKI: 0.00108
PSCL2 TRANSLATION FROM L1D PREFETCHER INSTRUCTION	ACCESS:        616  HIT:        334  MISS:        282  HIT %:    54.2208  MISS %:    45.7792  MPKI: 0.00564
PSCL2 LOAD TRANSLATION DATA	ACCESS:       1946  HIT:          0  MISS:       1946  HIT %:          0  MISS %:        100  MPKI: 0.03892
PSCL2 TRANSLATION FROM L1D PREFETCHER DATA	ACCESS:         52  HIT:          0  MISS:         52  HIT %:          0  MISS %:        100  MPKI: 0.00104


LLC TOTAL     ACCESS:     734488  HIT:     708840  MISS:      25648  HIT %:     96.508  MISS %:    3.49196   MPKI: 0.51296
LLC LOAD INSTRUCTION	ACCESS:     169299  HIT:     168870  MISS:        429  HIT %:    99.7466  MISS %:   0.253398  MPKI: 0.00858
LLC PREFETCH INSTRUCTION	ACCESS:     116211  HIT:     115935  MISS:        276  HIT %:    99.7625  MISS %:   0.237499  MPKI: 0.00552
LLC LOAD TRANSLATION INSTRUCTION	ACCESS:         19  HIT:         15  MISS:          4  HIT %:    78.9474  MISS %:    21.0526  MPKI: 8e-05
LLC TRANSLATION FROM L1D PREFETCHER INSTRUCTION	ACCESS:        267  HIT:        246  MISS:         21  HIT %:    92.1348  MISS %:    7.86517  MPKI: 0.00042
LLC LOAD DATA	ACCESS:     107668  HIT:     104608  MISS:       3060  HIT %:    97.1579  MISS %:    2.84207  MPKI: 0.0612
LLC RFO DATA	ACCESS:      67104  HIT:      54633  MISS:      12471  HIT %:    81.4154  MISS %:    18.5846  MPKI: 0.24942
LLC PREFETCH DATA	ACCESS:     173790  HIT:     164624  MISS:       9166  HIT %:    94.7258  MISS %:    5.27418  MPKI: 0.18332
LLC WRITEBACK DATA	ACCESS:      98562  HIT:      98404  MISS:        158  HIT %:    99.8397  MISS %:   0.160305  MPKI: 0.00316
LLC LOAD TRANSLATION DATA	ACCESS:       1559  HIT:       1496  MISS:         63  HIT %:    95.9589  MISS %:    4.04105  MPKI: 0.00126
LLC TRANSLATION FROM L1D PREFETCHER DATA	ACCESS:          9  HIT:          9  MISS:          0  HIT %:        100  MISS %:          0  MPKI: 0

LLC AVERAGE MISS LATENCY: 195.106 cycles
LLC RQ	ACCESS:     345926	FORWARD:          0	MERGED:          0	TO_CACHE:     345925
LLC WQ	ACCESS:      98562	FORWARD:          1	MERGED:          0	TO_CACHE:      98562
LLC PQ	ACCESS:     290001	FORWARD:          0	MERGED:          0	TO_CACHE:     290001

LLC Dense regions hint to LLC: 0

RAW hits: 1729480
Loads Generated: 12587770
Loads sent to L1D: 10858288
Stores Generated: 6899276
Stores sent to L1D: 6899288
Major fault: 0 Minor fault: 2244
Allocated PAGES: 2244

stream: 
stream:times selected: 1254418
stream:pref_filled: 129243
stream:pref_useful: 29588
stream:pref_late: 12962
stream:misses: 10668
stream:misses_by_poll: 0

CS: 
CS:times selected: 199046
CS:pref_filled: 79191
CS:pref_useful: 55492
CS:pref_late: 11876
CS:misses: 28064
CS:misses_by_poll: 3

CPLX: 
CPLX:times selected: 1054285
CPLX:pref_filled: 28357
CPLX:pref_useful: 8677
CPLX:pref_late: 6064
CPLX:misses: 150152
CPLX:misses_by_poll: 3

NL_L1: 
NL:times selected: 21522
NL:pref_filled: 948
NL:pref_useful: 572
NL:pref_late: 798
NL:misses: 2940
NL:misses_by_poll: 0

total selections: 2529271
total_filled: 112671
total_useful: 56923
total_late: 34426
total_polluted: 6
total_misses_after_warmup: 824727
conflicts: 5634206

test: 122923

DRAM Statistics
 CHANNEL 0
 RQ ROW_BUFFER_HIT:       9419  ROW_BUFFER_MISS:      16053
 DBUS_CONGESTED:          9
 WQ ROW_BUFFER_HIT:       1828  ROW_BUFFER_MISS:      11527  FULL:          0

 AVG_CONGESTED_CYCLE: 4

CPU 0 Branch Prediction Accuracy: 99.8274% MPKI: 0.31662 Average ROB Occupancy at Mispredict: 153.614
Branch types
NOT_BRANCH: 40827532 81.6551%
BRANCH_DIRECT_JUMP: 541789 1.08358%
BRANCH_INDIRECT: 180368 0.360736%
BRANCH_CONDITIONAL: 6223451 12.4469%
BRANCH_DIRECT_CALL: 942516 1.88503%
BRANCH_INDIRECT_CALL: 170854 0.341708%
BRANCH_RETURN: 1113364 2.22673%
BRANCH_OTHER: 0 0%

DRAM PAGES: 1048576
Allocated PAGES: 2244
Average_ROB_Occupancy: 130.129
Average_Decode_Occupancy: 13.5277
Average_FTQ_Occupancy: 5.95899
Indirect max targets: 14 Average targets: 1.14865
Branch_type:  BRANCH_DIRECT_JUMP:  Count Percentage: 2.86204 6.18563 4.88073 8.11617 1.86457 2.74081 0.815904 72.5342 
Branch_type:  BRANCH_INDIRECT:  Count Percentage: 11.7684 3.32375 2.44112 9.68703 3.36066 4.02403 2.03227 63.3627 
Branch_type:  BRANCH_CONDITIONAL:  Count Percentage: 22.401 5.52967 2.24576 4.83256 5.88061 2.72985 0.636041 55.7445 
Branch_type:  BRANCH_DIRECT_CALL:  Count Percentage: 0.778294 1.30272 1.38008 4.2185 2.57512 2.05472 0.684129 87.0064 
Branch_type:  BRANCH_INDIRECT_CALL:  Count Percentage: 9.55813 0.541959 2.99701 4.82498 1.25531 2.97536 0.99208 76.8552 
Branch_type:  BRANCH_RETURN:  Count Percentage: 4.26032 3.76632 1.81321 5.58007 7.86494 4.2566 1.02367 71.4349 
Branch_type:  BRANCH_DIRECT_JUMP:  Total Count: 30974 66943 52821 87836 20179 29662 8830 784990 
Branch_type:  BRANCH_INDIRECT:  Total Count: 42400 11975 8795 34901 12108 14498 7322 228287 
Branch_type:  BRANCH_CONDITIONAL:  Total Count: 2786241 687782 279328 601076 731433 339540 79111 6933525 
Branch_type:  BRANCH_DIRECT_CALL:  Total Count: 14679 24570 26029 79563 48568 38753 12903 1640983 
Branch_type:  BRANCH_INDIRECT_CALL:  Total Count: 32680 1853 10247 16497 4292 10173 3392 262774 
Branch_type:  BRANCH_RETURN:  Total Count: 94952 83942 40412 124366 175290 94869 22815 1592106 
To Predecode: 22777125 Predecode_something: 34122848 Conditional: 14635373 Direct call: 8412823 Direct Branch: 3818648
Number of unique branch instructions: 10250
Upper 32 bits: 
aaaa
ffff
ffff0000
Unique upper 32 bits: 3
Unique upper 36 bits: 3
Unique upper 40 bits: 5
Unique upper 44 bits: 32
Unique upper 48 bits: 156
Offset_3 4224
Offset_4 255
Offset_5 460
Offset_6 526
Offset_7 610
Offset_8 533
Offset_9 487
Offset_10 402
Offset_11 332
Offset_12 273
Offset_13 211
Offset_14 227
Offset_15 199
Offset_16 231
Offset_17 156
Offset_18 135
Offset_19 242
Offset_20 142
Offset_21 241
Offset_22 401
Offset_23 243
Offset_24 334
Offset_25 88
Offset_47 82
decode_dispatch_called: 22160178 51.2878
Dispatch_width: 0 11770857 53.1172 27.2426
Dispatch_width: 1 616314 2.78118 1.42641
Dispatch_width: 2 874718 3.94725 2.02446
Dispatch_width: 3 565845 2.55343 1.3096
Dispatch_width: 4 1825504 8.23777 4.22497
Dispatch_width: 5 406941 1.83636 0.94183
Dispatch_width: 6 6099999 27.5269 14.1179
Empty_decode_cycles: 21047315 48.7122
ROB_full_cycles: 2401494 5.55805
Starvation_cycles_per_kilo_instr: 347.06
Starvation_cycles_per_kilo_instr_3: 324.736
Starvation_cycles_per_kilo_instr_0: 304.167
Branch_type_1  (3,1)  (4,9)  (5,36)  (6,76)  (7,123)  (8,129)  (9,127)  (10,103)  (11,78)  (12,44)  (13,4)  (14,2)  (15,3)  (16,4)  (18,1)  (19,4)  (20,2)  (21,1)  (22,3)  (23,2)  (24,10)  (25,12) 
Branch_type_2  (3,1)  (5,1)  (8,3)  (9,3)  (12,1)  (13,1)  (14,1)  (16,3)  (17,2)  (20,2)  (21,2)  (23,5)  (24,1)  (47,38) 
Branch_type_3  (3,4222)  (4,246)  (5,419)  (6,434)  (7,455)  (8,341)  (9,271)  (10,167)  (11,136)  (12,51)  (13,4) 
Branch_type_4  (6,4)  (7,8)  (8,27)  (9,52)  (10,63)  (11,58)  (12,98)  (13,93)  (14,100)  (15,95)  (16,105)  (17,71)  (18,62)  (19,117)  (20,74)  (21,127)  (22,215)  (23,137)  (24,196)  (25,72) 
Branch_type_5  (8,2)  (9,1)  (10,3)  (11,5)  (12,3)  (13,14)  (14,16)  (15,11)  (16,20)  (17,12)  (18,16)  (19,12)  (20,10)  (21,13)  (22,42)  (23,26)  (24,36) 
Branch_type_6  (5,4)  (6,12)  (7,24)  (8,31)  (9,33)  (10,66)  (11,55)  (12,76)  (13,95)  (14,108)  (15,90)  (16,99)  (17,71)  (18,56)  (19,109)  (20,54)  (21,98)  (22,141)  (23,73)  (24,91)  (25,4)  (47,44) 
Unique trigger count: 
UBTB set used: 962
CBTB set used: 512
RIB set used: 461
UBTB PER SET UNIQUE ADDR: 6 4 4 2 3 2 4 4 4 2 1 6 3 3 3 4 1 0 2 0 4 2 3 2 3 1 0 3 2 3 2 4 2 2 3 1 3 5 1 3 2 1 3 0 6 1 4 4 2 3 3 2 4 0 3 4 4 1 4 1 2 4 5 1 3 4 2 3 3 4 3 1 5 3 2 1 4 1 2 6 3 6 5 1 5 0 3 2 3 3 2 3 4 1 4 4 5 4 7 0 6 6 1 3 2 4 6 1 3 2 5 5 5 4 3 2 1 2 2 5 1 5 0 4 2 3 3 1 6 3 2 2 6 2 1 3 5 2 3 4 5 2 2 3 1 4 3 1 6 0 5 3 2 6 3 2 6 5 5 4 4 2 4 4 3 1 3 3 2 2 0 3 3 1 2 0 3 6 0 3 3 3 0 3 4 3 2 3 3 4 1 4 6 1 3 3 3 2 2 1 2 5 0 1 3 1 2 3 1 0 3 2 4 1 1 4 1 4 0 2 1 0 2 2 1 0 3 4 2 4 2 1 4 2 3 4 4 3 1 6 2 3 3 3 2 1 3 3 1 5 2 4 0 3 2 1 5 1 1 1 4 1 2 4 3 2 0 5 2 0 0 4 2 3 4 1 3 5 2 5 5 3 2 2 3 1 4 2 6 1 4 0 4 4 6 0 2 2 1 1 3 3 4 1 1 0 2 1 0 1 3 2 3 4 2 2 4 2 3 1 3 3 4 2 4 2 3 2 1 3 4 4 4 1 5 4 4 2 1 4 8 6 2 3 1 2 5 3 2 3 2 5 2 1 4 4 3 1 2 0 2 1 3 2 5 2 3 2 5 2 5 4 3 0 0 2 1 0 3 5 3 2 3 1 1 3 1 5 2 2 1 5 2 3 2 6 1 2 2 3 3 6 4 2 3 6 2 5 2 4 2 4 5 3 3 0 3 2 3 3 0 3 0 2 2 2 2 3 3 1 3 1 2 3 1 4 5 1 5 5 3 3 2 3 4 6 3 5 0 2 3 2 1 4 1 3 3 7 6 5 5 4 3 7 5 0 0 4 2 3 1 1 4 3 4 3 2 4 2 1 4 1 1 3 6 2 3 2 1 1 3 1 2 5 1 2 2 2 4 6 7 3 3 3 2 4 2 2 1 3 1 5 4 3 3 5 2 3 5 2 3 4 3 2 0 2 1 3 3 4 5 4 3 2 3 3 4 2 2 2 5 1 7 1 1 3 2 4 7 4 3 3 1 3 1 6 3 0 2 1 7 2 2 2 3 2 2 5 3 3 1 0 1 3 3 2 4 3 7 2 4 2 3 2 4 3 2 3 3 5 4 5 1 1 4 1 3 3 3 5 3 2 6 2 5 3 5 5 2 2 6 7 2 5 1 6 2 0 1 7 4 1 4 3 1 3 1 2 3 1 3 2 7 3 3 2 4 2 4 3 5 2 1 0 3 2 1 3 0 1 2 2 3 1 3 4 4 2 1 1 3 6 5 1 2 1 0 3 2 3 2 1 1 2 2 2 4 4 4 1 3 3 2 4 2 2 0 4 0 0 2 3 0 2 1 2 3 3 2 1 3 3 2 1 3 1 3 3 3 1 2 6 2 2 1 5 2 3 3 4 1 1 0 1 1 3 3 3 2 2 2 1 2 1 2 4 4 5 1 3 3 4 0 1 5 6 3 3 6 3 5 5 4 2 2 4 3 4 0 2 2 4 3 2 3 2 1 3 4 4 4 4 2 2 1 1 3 4 1 2 2 2 3 4 2 0 3 3 3 2 1 3 3 1 3 1 3 0 3 3 6 2 2 2 2 4 0 0 3 1 2 5 0 5 1 0 5 0 3 7 2 3 3 4 2 1 2 3 1 1 5 1 2 1 1 1 6 1 4 1 2 2 3 2 4 3 2 5 2 5 2 6 3 5 3 2 7 2 2 8 4 4 3 5 1 2 3 3 4 4 4 3 4 2 2 5 5 2 2 1 2 2 4 2 2 4 4 2 2 4 2 4 5 5 5 2 4 1 3 4 4 2 7 6 3 4 2 5 1 2 3 1 3 6 4 4 2 1 3 3 5 2 2 4 5 4 3 3 1 1 3 6 2 2 5 5 3 1 4 4 5 1 1 4 3 1 5 1 3 6 3 1 3 3 1 6 4 5 2 6 4 4 5 3 5 4 1 3 1 0 0 4 4 2 1 2 4 2 4 6 1 2 2 2 2 3 2 4 1 5 1 2 7 2 1 5 3 2 1 1 1 4 4 0 2 1 4 3 3 3 2 3 0 3 4 2 0 4 5 2 7 3 7 2 
CBTB PER SET UNIQUE ADDR: 9 12 11 10 8 10 8 6 12 7 13 9 7 7 11 10 7 12 8 10 11 6 6 9 10 12 15 9 9 10 10 8 13 7 10 11 9 6 12 8 8 13 7 9 7 17 8 13 11 14 7 12 13 4 10 10 9 11 12 8 10 15 12 4 11 11 13 6 10 10 11 13 6 8 9 10 14 13 11 12 7 12 8 10 13 14 12 14 10 10 13 5 12 12 10 9 12 11 10 12 6 18 12 15 8 14 15 13 12 15 6 12 9 13 9 14 11 11 14 9 10 10 7 11 9 13 8 8 11 13 14 22 9 11 6 13 10 8 12 11 10 14 11 6 11 13 6 10 14 10 12 18 4 10 6 7 8 6 9 12 7 7 12 10 5 6 7 9 12 7 10 8 16 6 9 11 6 6 3 12 10 8 5 10 11 9 9 12 6 5 6 11 11 8 5 8 10 16 10 7 10 13 10 6 8 9 9 4 7 11 9 6 5 12 10 8 13 4 7 2 13 12 9 9 6 10 10 7 10 13 7 7 12 10 7 12 12 13 5 9 10 8 10 5 7 8 11 6 14 4 7 6 12 10 8 6 11 12 13 13 5 15 11 8 9 14 7 6 10 7 5 9 10 10 10 11 9 7 10 4 12 10 13 10 5 6 12 4 8 15 10 10 13 8 13 8 8 16 6 10 9 9 10 16 12 17 7 10 9 9 12 9 9 16 15 7 9 11 6 9 11 9 11 19 9 5 14 12 10 8 13 11 8 8 11 10 10 6 9 15 8 9 7 9 6 11 12 10 13 9 7 11 6 12 11 9 11 13 9 10 13 7 7 6 8 15 12 7 8 11 6 8 10 10 8 15 10 12 11 5 13 9 13 11 13 9 3 15 13 16 11 12 11 13 12 12 8 11 7 6 13 6 10 11 5 5 7 8 16 12 9 15 14 10 10 14 8 11 12 8 12 10 12 18 9 12 8 6 13 10 6 15 9 11 12 9 6 11 15 10 12 8 12 5 11 15 8 12 9 11 14 12 11 12 10 7 10 11 8 15 8 10 9 13 10 12 8 6 9 10 10 10 16 12 10 12 7 13 12 7 8 9 13 14 10 10 11 10 6 16 10 15 7 17 5 15 16 7 10 10 4 15 14 9 9 7 10 9 9 17 12 9 
RIB PER SET UNIQUE ADDR: 2 5 4 1 2 3 2 2 0 2 2 4 2 3 0 1 4 2 0 1 2 1 5 4 1 3 2 3 1 1 3 0 1 4 3 3 1 5 0 2 1 3 2 1 2 4 2 2 3 1 1 3 3 3 0 1 2 3 3 2 1 2 2 1 3 6 3 0 2 1 2 3 0 2 3 0 1 4 2 2 0 1 4 5 2 1 0 4 4 2 0 1 2 2 3 4 3 3 0 0 2 2 1 4 1 1 5 2 3 5 2 1 1 4 2 2 0 4 2 7 3 1 3 4 1 1 1 2 1 4 2 4 4 3 0 3 1 2 5 5 1 2 2 5 2 3 4 3 6 1 3 2 2 1 2 1 4 2 0 2 3 1 2 3 3 0 1 1 4 2 1 1 3 0 0 3 1 2 2 2 3 0 3 2 6 1 3 4 1 1 1 2 5 1 1 3 3 0 4 3 3 2 3 3 1 5 2 4 1 5 2 2 0 3 4 0 5 0 4 2 2 3 2 1 2 4 2 3 1 2 2 3 1 5 0 3 2 2 1 4 2 0 3 1 5 3 5 0 3 2 3 0 3 2 1 5 4 2 1 1 1 0 2 2 3 2 0 3 4 3 1 2 0 2 5 3 0 2 2 1 2 2 2 1 3 0 2 5 2 2 2 5 2 1 2 5 1 4 3 1 2 2 3 4 2 4 2 3 2 3 3 5 1 1 0 3 2 3 1 3 4 4 5 5 1 3 3 4 1 1 4 4 4 6 6 4 1 0 2 2 0 1 7 2 5 4 7 2 0 5 3 3 3 1 4 1 6 3 5 3 0 2 3 1 4 6 2 0 4 3 2 4 2 3 5 4 1 3 0 1 2 1 3 2 0 5 1 0 3 2 2 4 1 4 1 2 4 7 3 3 2 1 1 2 3 3 4 1 3 1 2 1 4 1 1 3 6 1 0 0 1 4 4 2 2 5 0 1 3 1 2 1 2 2 3 2 3 3 2 3 1 4 4 3 5 2 3 1 1 5 4 1 2 3 2 4 1 1 2 5 3 1 2 2 3 3 2 5 1 0 3 0 2 1 2 2 1 9 7 4 3 1 0 5 2 1 3 0 1 3 2 3 0 5 1 1 2 2 3 1 2 2 3 4 2 2 1 3 2 2 2 1 
UBTB PER SET COUNT: 23 4 4 2 3 2 4 4 4 2 1 2327 3 3 3 4 1 0 2 0 4 2 3 2 3 1 0 3 2 3 2 4 2 2 3 1 3 78 1 3 2 1 3 0 2779 1 4 4 2 3 3 2 4 0 3 4 4 1 4 1 2 4 2047 1 3 4 2 3 3 4 3 1 108 3 2 1 4 1 2 939 3 28 1115 1 12 0 3 2 3 3 2 3 4 1 4 4 1297 4 2782 0 2780 28 1 3 2 4 2779 1 3 2 930 43 28 4 3 2 1 2 2 8 1 1393 0 4 2 3 3 1 2779 3 2 2 170 2 1 3 1399 2 3 4 56 2 2 3 1 4 3 1 18 0 24 3 2 1487 3 2 1872 17 1392 4 4 2 4 4 3 1 3 3 2 2 0 3 3 1 2 0 3 33 0 3 3 3 0 3 4 3 2 3 3 4 1 4 2577 1 3 3 3 2 2 1 2 1392 0 1 3 1 2 3 1 0 3 2 4 1 1 4 1 4 0 2 1 0 2 2 1 0 3 4 2 4 2 1 4 2 3 4 4 3 1 2251 2 3 3 3 2 1 3 3 1 1386 2 4 0 3 2 1 20 1 1 1 4 1 2 4 3 2 0 1393 2 0 0 4 2 3 4 1 3 1051 2 726 660 3 2 2 3 1 4 2 1047 1 4 0 4 4 2781 0 2 2 1 1 3 3 4 1 1 0 2 1 0 1 3 2 3 4 2 2 4 2 3 1 3 3 4 2 4 2 3 2 1 3 4 4 4 1 16 4 4 2 1 4 1073 56 2 3 1 2 28 3 2 3 2 13 2 1 4 4 3 1 2 0 2 1 3 2 44 2 3 2 18 2 77 4 3 0 0 2 1 0 3 16 3 2 3 1 1 3 1 1319 2 2 1 8 2 3 2 4465 1 2 2 3 3 7861 4 2 3 6010 2 8 2 4 2 4 1279 3 3 0 3 2 3 3 0 3 0 2 2 2 2 3 3 1 3 1 2 3 1 4 15 1 1854 93 3 3 2 3 4 4106 3 1037 0 2 3 2 1 4 1 3 3 2740 1061 20 2054 4 3 3248 11 0 0 4 2 3 1 1 4 3 4 3 2 4 2 1 4 1 1 3 5470 2 3 2 1 1 3 1 2 10 1 2 2 2 4 18 2782 3 3 3 2 4 2 2 1 3 1 31 4 3 3 10 2 3 1391 2 3 4 3 2 0 2 1 3 3 4 1046 4 3 2 3 3 4 2 2 2 2316 1 6482 1 1 3 2 4 2781 4 3 3 1 3 1 2780 3 0 2 1 1867 2 2 2 3 2 2 14 3 3 1 0 1 3 3 2 4 3 3242 2 4 2 3 2 4 3 2 3 3 1311 4 1313 1 1 4 1 3 3 3 796 3 2 2363 2 24 3 24 11 2 2 7547 2330 2 16 1 2581 2 0 1 3242 4 1 4 3 1 3 1 2 3 1 3 2 3244 3 3 2 4 2 4 3 2317 2 1 0 3 2 1 3 0 1 2 2 3 1 3 4 4 2 1 1 3 2773 2315 1 2 1 0 3 2 3 2 1 1 2 2 2 4 4 4 1 3 3 2 4 2 2 0 4 0 0 2 3 0 2 1 2 3 3 2 1 3 3 2 1 3 1 3 3 3 1 2 1855 2 2 1 70 2 3 3 4 1 1 0 1 1 3 3 3 2 2 2 1 2 1 2 4 4 1854 1 3 3 4 0 1 1854 4079 3 3 2772 3 1026 929 4 2 2 4 3 4 0 2 2 4 3 2 3 2 1 3 4 4 4 4 2 2 1 1 3 4 1 2 2 2 3 4 2 0 3 3 3 2 1 3 3 1 3 1 3 0 3 3 2328 2 2 2 2 4 0 0 3 1 2 1049 0 2302 1 0 1853 0 3 4711 2 3 3 4 2 1 2 3 1 1 2316 1 2 1 1 1 2779 1 4 1 2 2 3 2 4 3 2 42 2 28 2 2316 3 33 3 2 3083 2 2 5768 4 4 3 1855 1 2 3 3 4 4 4 3 4 2 2 1849 14 2 2 1 2 2 4 2 2 4 4 2 2 4 2 4 56 1391 1853 2 4 1 3 4 4 2 2299 52 3 4 2 14 1 2 3 1 3 7827 4 4 2 1 3 3 16 2 2 4 725 4 3 3 1 1 3 2114 2 2 16 1576 3 1 4 4 12 1 1 4 3 1 1118 1 3 3680 3 1 3 3 1 844 4 1414 2 2776 4 4 1855 3 4081 4 1 3 1 0 0 4 4 2 1 2 4 2 4 2779 1 2 2 2 2 3 2 4 1 1394 1 2 6860 2 1 351 3 2 1 1 1 4 4 0 2 1 4 3 3 3 2 3 0 3 4 2 0 4 1854 2 2781 3 2837 2 
CBTB PER SET COUNT: 10 1074 52 288 10 25 15 30 4530 7 7537 3713 8 10 162 1419 1401 50 26 1447 2346 33 7 116 1095 6546 6639 23 32 17 55 27 9800 1410 2329 22 32 7 5479 16 11 1875 19 19 49 6913 15 1865 33 8271 18 7801 5038 4 2326 3601 13 25 2799 14 18 2346 58 4 1073 4018 2331 112 4028 3247 13 61 22 1065 22 4944 8332 33 42 2375 37 5020 19 42 3246 198 41 8339 495 44 3052 5 30 23 21 55 30 1861 18 1857 13 2137 1411 7338 16 2790 7417 1423 18 3766 8 4464 20 3738 12 47 55 2329 99 2132 2330 1665 12 151 21 1876 17 60 43 28 2791 10361 1411 19 11 1877 13 249 3256 18 30 7891 32 6 4476 1883 13 5415 8289 5944 7793 14197 4 856 13 10 1318 10 14 331 28 12 5501 6509 5 17 9 14 2839 20 8331 14 8628 6 119 2329 315 8 3 1323 844 23 6 24 6511 22 21 27 32 7 7 9341 8627 11 5 30 2832 7187 3121 22 1401 5087 1425 8 1591 22 46 4 1207 8154 1855 23 9 2798 12 19 6212 4 19 2 1435 25 20 1548 8 1584 75 12 20 3752 18 8 4686 4368 12 3064 46 4537 5 17 18 19 492 6 1867 22 1892 7 864 4 8 8 1458 5038 28 8 1404 5513 38 1870 6 2338 1867 33 1413 1415 12 2723 1666 2781 6 13 28 35 2778 813 171 1863 2330 4 35 73 147 1254 6 60 2801 4 6409 8268 1074 21 52 20 5091 1392 24 49 1847 34 24 9 382 5823 44 9808 12 70 1411 20 2583 136 2318 2345 6182 934 2764 143 6 2350 1523 217 2813 5526 14 8 647 93 153 26 2780 1407 17 22 1869 1858 4015 438 2334 3828 657 45 16 27 6 19 7419 14 272 16 7 51 8 9718 93 23 2317 4565 2043 1420 844 10 16 8 18 3074 2791 18 16 961 1860 19 1059 116 1849 2340 1419 3052 5500 6 8052 21 6399 36 2348 13 3 86 110 4761 1405 19 8269 10320 3993 2342 4802 3556 7 10 5562 7 4479 2792 10 12 9 12 12481 48 2337 6945 142 5015 10256 2300 14 25 2128 569 17 4794 2363 11724 17 2790 31 8 7089 35 10 5590 27 254 100 12 8 46 3063 28 4045 14 2352 5 2792 1891 17 1424 96 292 4746 6420 75 1403 54 19 3716 4110 1009 10255 2331 1862 66 1474 7871 568 11 7 61 2393 151 941 1265 25 851 22 9 3074 6479 20 19 13 3635 11187 20 46 40 1859 8 7659 4457 5008 8 7236 5 2339 2805 7 32 2324 4 4281 2363 29 1415 11 20 11 24 2347 2857 9 
RIB PER SET COUNT: 2 12 4 1 2 3 2 2 0 2 2 4 2 3 0 1 4 2 0 1 2 1 1854 4 1 3 2 3 1 1 3 0 1 4 3 3 1 2316 0 2 1 3 2 1 2 4 2 2 3 1 1 3 3 3 0 1 2 3 3 2 1 2 2 1 3 1866 3 0 2 1 2 3 0 2 3 0 1 4 2 2 0 1 4 31 2 1 0 4 4 2 0 1 2 2 3 4 3 3 0 0 2 2 1 4 1 1 2318 2 3 49 2 1 1 4 2 2 0 4 2 1870 3 1 3 4 1 1 1 2 1 4 2 4 4 3 0 3 1 2 16 32 1 2 2 11 2 3 4 3 58 1 3 2 2 1 2 1 4 2 0 2 3 1 2 3 3 0 1 1 4 2 1 1 3 0 0 3 1 2 2 2 3 0 3 2 1857 1 3 4 1 1 1 2 36 1 1 3 3 0 4 3 3 2 3 3 1 20 2 4 1 14 2 2 0 3 4 0 929 0 4 2 2 3 2 1 2 4 2 3 1 2 2 3 1 14 0 3 2 2 1 4 2 0 3 1 529 3 14 0 3 2 3 0 3 2 1 11 4 2 1 1 1 0 2 2 3 2 0 3 4 3 1 2 0 2 11 3 0 2 2 1 2 2 2 1 3 0 2 1387 2 2 2 1390 2 1 2 798 1 4 3 1 2 2 3 4 2 4 2 3 2 3 3 48 1 1 0 3 2 3 1 3 4 4 4081 1392 1 3 3 4 1 1 4 4 4 1396 6397 4 1 0 2 2 0 1 4269 2 1307 4 1414 2 0 16 3 3 3 1 4 1 3488 3 8 3 0 2 3 1 4 1817 2 0 4 3 2 4 2 3 12 4 1 3 0 1 2 1 3 2 0 14 1 0 3 2 2 4 1 4 1 2 4 3968 3 3 2 1 1 2 3 3 4 1 3 1 2 1 4 1 1 3 64 1 0 0 1 4 4 2 2 6397 0 1 3 1 2 1 2 2 3 2 3 3 2 3 1 4 4 3 931 2 3 1 1 12 4 1 2 3 2 4 1 1 2 8 3 1 2 2 3 3 2 1854 1 0 3 0 2 1 2 2 1 6495 2789 4 3 1 0 2736 2 1 3 0 1 3 2 3 0 14 1 1 2 2 3 1 2 2 3 4 2 2 1 3 2 2 2 1 
