
*** ChampSim Multicore Out-of-Order Simulator ***

Warmup Instructions: 50000000
Simulation Instructions: 50000000
Number of CPUs: 1
LLC sets: 2048
LLC ways: 16
Off-chip DRAM Size: 4096 MB Channels: 1 Width: 64-bit Data Rate: 6400 MT/s
CPU 0 runs ./micro_traces/srv183.trace.gz
.gz
ITLB has LRU replacement policy
DTLB has LRU replacement policy
STLB has LRU replacement policy
FDIP Prefetcher at L1I
L1I has LRU replacement policy
L1D has LRU replacement policy
Initialize SRRIP state for L2C
Initialize DRRIP state for LLC
Heartbeat_Variant_0 : 1326 0.32373 per_variant_size: 0 1326 0 0 0 0 0 0 0 
Heartbeat_Variant_1 : 1244 0.303711 per_variant_size: 0 579 665 0 0 0 0 0 0 
Heartbeat_Variant_2 : 1320 0.322266 per_variant_size: 0 500 374 230 216 0 0 0 0 
Heartbeat_Variant_3 : 0 0 per_variant_size: 0 0 0 0 0 0 0 0 0 
Heartbeat_Variant_0_evicts 0 : 5826 1 : 282 2 : 301 3 : 0 
Heartbeat_Variant_1_evicts 0 : 297 1 : 0 2 : 440 3 : 0 
Heartbeat_Variant_2_evicts 0 : 281 1 : 434 2 : 0 3 : 0 
Heartbeat_Variant_3_evicts 0 : 0 1 : 0 2 : 0 3 : 0 
Heartbeat CPU 0 instructions: 10000002 cycles: 2797765 heartbeat IPC: 3.57428 cumulative IPC: 3.57428 (Simulation time: 0 hr 2 min 16 sec) 
Heartbeat_Variant_0 : 1355 0.330811 per_variant_size: 0 1355 0 0 0 0 0 0 0 
Heartbeat_Variant_1 : 1263 0.30835 per_variant_size: 0 599 664 0 0 0 0 0 0 
Heartbeat_Variant_2 : 1323 0.322998 per_variant_size: 0 487 385 236 215 0 0 0 0 
Heartbeat_Variant_3 : 0 0 per_variant_size: 0 0 0 0 0 0 0 0 0 
Heartbeat_Variant_0_evicts 0 : 5670 1 : 127 2 : 112 3 : 0 
Heartbeat_Variant_1_evicts 0 : 127 1 : 0 2 : 298 3 : 0 
Heartbeat_Variant_2_evicts 0 : 94 1 : 292 2 : 0 3 : 0 
Heartbeat_Variant_3_evicts 0 : 0 1 : 0 2 : 0 3 : 0 
Heartbeat CPU 0 instructions: 20000003 cycles: 5594242 heartbeat IPC: 3.57593 cumulative IPC: 3.57511 (Simulation time: 0 hr 3 min 56 sec) 
Heartbeat_Variant_0 : 1357 0.331299 per_variant_size: 0 1357 0 0 0 0 0 0 0 
Heartbeat_Variant_1 : 1266 0.309082 per_variant_size: 0 595 671 0 0 0 0 0 0 
Heartbeat_Variant_2 : 1343 0.327881 per_variant_size: 0 504 392 230 217 0 0 0 0 
Heartbeat_Variant_3 : 0 0 per_variant_size: 0 0 0 0 0 0 0 0 0 
Heartbeat_Variant_0_evicts 0 : 5622 1 : 84 2 : 88 3 : 0 
Heartbeat_Variant_1_evicts 0 : 87 1 : 0 2 : 295 3 : 0 
Heartbeat_Variant_2_evicts 0 : 90 1 : 300 2 : 0 3 : 0 
Heartbeat_Variant_3_evicts 0 : 0 1 : 0 2 : 0 3 : 0 
Heartbeat CPU 0 instructions: 30000000 cycles: 8391804 heartbeat IPC: 3.57454 cumulative IPC: 3.57492 (Simulation time: 0 hr 5 min 35 sec) 
Heartbeat_Variant_0 : 1376 0.335938 per_variant_size: 0 1376 0 0 0 0 0 0 0 
Heartbeat_Variant_1 : 1266 0.309082 per_variant_size: 0 587 679 0 0 0 0 0 0 
Heartbeat_Variant_2 : 1364 0.333008 per_variant_size: 0 536 391 224 213 0 0 0 0 
Heartbeat_Variant_3 : 0 0 per_variant_size: 0 0 0 0 0 0 0 0 0 
Heartbeat_Variant_0_evicts 0 : 5799 1 : 137 2 : 167 3 : 0 
Heartbeat_Variant_1_evicts 0 : 147 1 : 0 2 : 329 3 : 0 
Heartbeat_Variant_2_evicts 0 : 149 1 : 346 2 : 0 3 : 0 
Heartbeat_Variant_3_evicts 0 : 0 1 : 0 2 : 0 3 : 0 
Heartbeat CPU 0 instructions: 40000002 cycles: 11187756 heartbeat IPC: 3.5766 cumulative IPC: 3.57534 (Simulation time: 0 hr 7 min 15 sec) 
Heartbeat_Variant_0 : 1373 0.335205 per_variant_size: 0 1373 0 0 0 0 0 0 0 
Heartbeat_Variant_1 : 1271 0.310303 per_variant_size: 0 590 681 0 0 0 0 0 0 
Heartbeat_Variant_2 : 1368 0.333984 per_variant_size: 0 535 401 226 206 0 0 0 0 
Heartbeat_Variant_3 : 0 0 per_variant_size: 0 0 0 0 0 0 0 0 0 
Heartbeat_Variant_0_evicts 0 : 5620 1 : 38 2 : 29 3 : 0 
Heartbeat_Variant_1_evicts 0 : 42 1 : 0 2 : 224 3 : 0 
Heartbeat_Variant_2_evicts 0 : 28 1 : 225 2 : 0 3 : 0 
Heartbeat_Variant_3_evicts 0 : 0 1 : 0 2 : 0 3 : 0 
Heartbeat CPU 0 instructions: 50000003 cycles: 13984902 heartbeat IPC: 3.57507 cumulative IPC: 3.57528 (Simulation time: 0 hr 8 min 53 sec) 

Warmup complete CPU 0 instructions: 50000003 cycles: 13984902 (Simulation time: 0 hr 8 min 53 sec) 

Cycle: 20000000 FTQ IN: 57665560 FTQ occupancy: 18.6226 DECODE IN: 57665432 DECODE occupancy: 47.9365 ROB IN: 57665372 ROB occupancy: 293.998 ROB OUT: 57665020
Heartbeat_Variant_0 : 1375 0.335693 per_variant_size: 0 1375 0 0 0 0 0 0 0 
Heartbeat_Variant_1 : 1278 0.312012 per_variant_size: 0 584 694 0 0 0 0 0 0 
Heartbeat_Variant_2 : 1379 0.33667 per_variant_size: 0 523 406 244 206 0 0 0 0 
Heartbeat_Variant_3 : 0 0 per_variant_size: 0 0 0 0 0 0 0 0 0 
Heartbeat_Variant_0_evicts 0 : 5733 1 : 184 2 : 201 3 : 0 
Heartbeat_Variant_1_evicts 0 : 179 1 : 0 2 : 376 3 : 0 
Heartbeat_Variant_2_evicts 0 : 207 1 : 370 2 : 0 3 : 0 
Heartbeat_Variant_3_evicts 0 : 0 1 : 0 2 : 0 3 : 0 
Heartbeat CPU 0 instructions: 60000002 cycles: 21799779 heartbeat IPC: 1.27961 cumulative IPC: 1.27961 (Simulation time: 0 hr 10 min 24 sec) 
Heartbeat_Variant_0 : 1375 0.335693 per_variant_size: 0 1375 0 0 0 0 0 0 0 
Heartbeat_Variant_1 : 1283 0.313232 per_variant_size: 0 584 699 0 0 0 0 0 0 
Heartbeat_Variant_2 : 1374 0.335449 per_variant_size: 0 520 399 253 202 0 0 0 0 
Heartbeat_Variant_3 : 0 0 per_variant_size: 0 0 0 0 0 0 0 0 0 
Heartbeat_Variant_0_evicts 0 : 5582 1 : 14 2 : 18 3 : 0 
Heartbeat_Variant_1_evicts 0 : 15 1 : 0 2 : 212 3 : 0 
Heartbeat_Variant_2_evicts 0 : 17 1 : 208 2 : 0 3 : 0 
Heartbeat_Variant_3_evicts 0 : 0 1 : 0 2 : 0 3 : 0 
Heartbeat CPU 0 instructions: 70000002 cycles: 29441624 heartbeat IPC: 1.30858 cumulative IPC: 1.29394 (Simulation time: 0 hr 11 min 54 sec) 
Cycle: 30000000 FTQ IN: 13057925 FTQ occupancy: 8.29746 DECODE IN: 13058008 DECODE occupancy: 19.7955 ROB IN: 13058008 ROB occupancy: 168.065 ROB OUT: 13058008
Heartbeat_Variant_0 : 1394 0.340332 per_variant_size: 0 1394 0 0 0 0 0 0 0 
Heartbeat_Variant_1 : 1286 0.313965 per_variant_size: 0 586 700 0 0 0 0 0 0 
Heartbeat_Variant_2 : 1373 0.335205 per_variant_size: 0 517 374 273 209 0 0 0 0 
Heartbeat_Variant_3 : 0 0 per_variant_size: 0 0 0 0 0 0 0 0 0 
Heartbeat_Variant_0_evicts 0 : 5800 1 : 226 2 : 233 3 : 0 
Heartbeat_Variant_1_evicts 0 : 235 1 : 0 2 : 390 3 : 0 
Heartbeat_Variant_2_evicts 0 : 210 1 : 401 2 : 0 3 : 0 
Heartbeat_Variant_3_evicts 0 : 0 1 : 0 2 : 0 3 : 0 
Heartbeat CPU 0 instructions: 80000001 cycles: 37224437 heartbeat IPC: 1.28488 cumulative IPC: 1.2909 (Simulation time: 0 hr 13 min 27 sec) 
Cycle: 40000000 FTQ IN: 12873138 FTQ occupancy: 8.46098 DECODE IN: 12873163 DECODE occupancy: 20.0044 ROB IN: 12873223 ROB occupancy: 167.598 ROB OUT: 12873457
Heartbeat_Variant_0 : 1400 0.341797 per_variant_size: 0 1400 0 0 0 0 0 0 0 
Heartbeat_Variant_1 : 1288 0.314453 per_variant_size: 0 565 723 0 0 0 0 0 0 
Heartbeat_Variant_2 : 1372 0.334961 per_variant_size: 0 511 383 254 224 0 0 0 0 
Heartbeat_Variant_3 : 0 0 per_variant_size: 0 0 0 0 0 0 0 0 0 
Heartbeat_Variant_0_evicts 0 : 5663 1 : 76 2 : 100 3 : 0 
Heartbeat_Variant_1_evicts 0 : 77 1 : 0 2 : 276 3 : 0 
Heartbeat_Variant_2_evicts 0 : 94 1 : 278 2 : 0 3 : 0 
Heartbeat_Variant_3_evicts 0 : 0 1 : 0 2 : 0 3 : 0 
Heartbeat CPU 0 instructions: 90000002 cycles: 44864531 heartbeat IPC: 1.30888 cumulative IPC: 1.29535 (Simulation time: 0 hr 14 min 59 sec) 
Cycle: 50000000 FTQ IN: 12732445 FTQ occupancy: 8.32078 DECODE IN: 12732465 DECODE occupancy: 19.5545 ROB IN: 12732465 ROB occupancy: 164.868 ROB OUT: 12732358
Heartbeat_Variant_0 : 1384 0.337891 per_variant_size: 0 1384 0 0 0 0 0 0 0 
Heartbeat_Variant_1 : 1315 0.321045 per_variant_size: 0 576 739 0 0 0 0 0 0 
Heartbeat_Variant_2 : 1379 0.33667 per_variant_size: 0 521 370 254 234 0 0 0 0 
Heartbeat_Variant_3 : 0 0 per_variant_size: 0 0 0 0 0 0 0 0 0 
Heartbeat_Variant_0_evicts 0 : 6106 1 : 511 2 : 447 3 : 0 
Heartbeat_Variant_1_evicts 0 : 521 1 : 0 2 : 648 3 : 0 
Heartbeat_Variant_2_evicts 0 : 454 1 : 641 2 : 0 3 : 0 
Heartbeat_Variant_3_evicts 0 : 0 1 : 0 2 : 0 3 : 0 
Heartbeat CPU 0 instructions: 100000000 cycles: 52820183 heartbeat IPC: 1.25697 cumulative IPC: 1.28749 (Simulation time: 0 hr 16 min 31 sec) 
Finished CPU 0 instructions: 50000001 cycles: 38835282 cumulative IPC: 1.28749 (Simulation time: 0 hr 16 min 31 sec) 

ChampSim completed all CPUs

Region of Interest Statistics

CPU 0 cumulative IPC: 1.28749 instructions: 50000001 cycles: 38835282
 Fetch stage stalled: 65.3901  Sim cycles: 38835282 fetch stall cycle: 25394423
 Empty decode stage: 63.2502  Sim cycles: 38835282 fetch stall cycle: 24563405
ITLB TOTAL     ACCESS:    5847338  HIT:    5350604  MISS:     496734  HIT %:     91.505  MISS %:    8.49505   MPKI: 9.93468
ITLB LOAD TRANSLATION INSTRUCTION	ACCESS:    5732893  HIT:    5236159  MISS:     496734  HIT %:    91.3354  MISS %:    8.66463  MPKI: 9.93468
ITLB TRANSLATION FROM L1D PREFETCHER INSTRUCTION	ACCESS:     114445  HIT:     114445  MISS:          0  HIT %:        100  MISS %:          0  MPKI: 0

ITLB AVERAGE MISS LATENCY: 9.07487 cycles
ITLB RQ	ACCESS:    7956725	FORWARD:          0	MERGED:    1698284	TO_CACHE:    6258441

DTLB TOTAL     ACCESS:    9133361  HIT:    8659728  MISS:     473633  HIT %:    94.8143  MISS %:    5.18575   MPKI: 9.47266
DTLB LOAD TRANSLATION DATA	ACCESS:    9133361  HIT:    8659728  MISS:     473633  HIT %:    94.8143  MISS %:    5.18575  MPKI: 9.47266

DTLB AVERAGE MISS LATENCY: 9.38488 cycles
DTLB RQ	ACCESS:   13474652	FORWARD:          0	MERGED:    4303786	TO_CACHE:    9170866

STLB TOTAL     ACCESS:    1217861  HIT:    1215575  MISS:       2286  HIT %:    99.8123  MISS %:   0.187706   MPKI: 0.04572
STLB LOAD TRANSLATION INSTRUCTION	ACCESS:     496734  HIT:     496414  MISS:        320  HIT %:    99.9356  MISS %:  0.0644208  MPKI: 0.0064
STLB LOAD TRANSLATION DATA	ACCESS:     473595  HIT:     471672  MISS:       1923  HIT %:     99.594  MISS %:   0.406043  MPKI: 0.03846
STLB TRANSLATION FROM L1D PREFETCHER DATA	ACCESS:     247532  HIT:     247489  MISS:         43  HIT %:    99.9826  MISS %:  0.0173715  MPKI: 0.00086

STLB AVERAGE MISS LATENCY: 82.2139 cycles
STLB RQ	ACCESS:    1338987	FORWARD:          0	MERGED:     121087	TO_CACHE:    1217900

STLB Hit, L1D data hit: 0
STLB Hit, L2C data hit: 0
STLB Hit, LLC data hit: 0
STLB Hit, LLC data miss: 0
STLB STLB hints to L2: 0
L1D TOTAL     ACCESS:   13221482  HIT:   12095514  MISS:    1125968  HIT %:    91.4838  MISS %:     8.5162   MPKI: 22.5194
L1D LOAD DATA	ACCESS:    6673559  HIT:    5931777  MISS:     741782  HIT %:    88.8848  MISS %:    11.1152  MPKI: 14.8356
L1D RFO DATA	ACCESS:    6220521  HIT:    5931213  MISS:     289308  HIT %:    95.3491  MISS %:    4.65086  MPKI: 5.78616
L1D PREFETCH DATA	ACCESS:     327402  HIT:     232524  MISS:      94878  HIT %:    71.0209  MISS %:    28.9791  MPKI: 1.89756

L1D PREFETCH  REQUESTED:     737587  ISSUED:     737587  USEFUL:      35402  USELESS:      67680
L1D USEFUL LOAD PREFETCHES:      35402 PREFETCH ISSUED TO LOWER LEVEL:     103197  ACCURACY: 34.3053
 TIMELY PREFETCHES:      35402 LATE PREFETCHES: 8246 DROPPED PREFETCHES: 11
L1D AVERAGE MISS LATENCY: 243570 cycles
L1D RQ	ACCESS:   10773926	FORWARD:          0	MERGED:    3904385	TO_CACHE:    6708575
L1D WQ	ACCESS:    6954528	FORWARD:     161313	MERGED:     188451	TO_CACHE:    6766077
L1D PQ	ACCESS:     368967	FORWARD:          0	MERGED:          0	TO_CACHE:     368620

L1D UNIQUE REGIONS ACCESSED: 0
L1D REGIONS CONFLICTS: 0
L1D Cross Page Prefetch Requests: 6975
L1D Same Page Prefetch Requests: 747880
L1D ROI Sum of L1D PQ occupancy: 4692132
L1D PREFETCHES PUSHED FROM L2C: 0
L1I TOTAL     ACCESS:    7220812  HIT:    4445858  MISS:    2774954  HIT %:    61.5701  MISS %:    38.4299   MPKI: 55.4991
L1I LOAD INSTRUCTION	ACCESS:    6588388  HIT:    3813434  MISS:    2774954  HIT %:    57.8811  MISS %:    42.1189  MPKI: 55.4991
L1I PREFETCH INSTRUCTION	ACCESS:     632424  HIT:     632424  MISS:          0  HIT %:        100  MISS %:          0  MPKI: 0

L1I PREFETCH  REQUESTED:    1509353  ISSUED:    1509353  USEFUL:          0  USELESS:          0
L1I USEFUL LOAD PREFETCHES:          0 PREFETCH ISSUED TO LOWER LEVEL:          0  ACCURACY: -nan
 TIMELY PREFETCHES:          0 LATE PREFETCHES: 0 DROPPED PREFETCHES: 0
L1I AVERAGE MISS LATENCY: 17.09 cycles
L1I RQ	ACCESS:    9443174	FORWARD:          0	MERGED:    2579771	TO_CACHE:    6863403
L1I PQ	ACCESS:    1509353	FORWARD:          0	MERGED:     416031	TO_CACHE:    1093322

L1BTB TOTAL     ACCESS:    5670140  HIT:    2034374  MISS:    3635766  HIT %:    35.8787  MISS %:    64.1213   MPKI: 72.7153
L1BTB BRANCH_DIRECT_JUMP	ACCESS:     546742  HIT:     143379  MISS:     403363	AVERAGE STALL: 40.098
L1BTB BRANCH_INDIRECT	ACCESS:     182459  HIT:      65639  MISS:     116820	AVERAGE STALL: 78.3893
L1BTB BRANCH_CONDITIONAL	ACCESS:    2705179  HIT:    1411053  MISS:    1294126	AVERAGE STALL: 42.4061
L1BTB BRANCH_DIRECT_CALL	ACCESS:     946771  HIT:     104164  MISS:     842607	AVERAGE STALL: 50.9426
L1BTB BRANCH_INDIRECT_CALL	ACCESS:     171107  HIT:      20716  MISS:     150391	AVERAGE STALL: 103.014
L1BTB BRANCH_RETURN	ACCESS:    1117882  HIT:     289423  MISS:     828459	AVERAGE STALL: 40.6397
L1BTB BRANCH_OTHER ACCESS:          0  HIT:          0  MISS:          0	AVERAGE STALL: -nan
L1BTB TOTAL ROB OCCUPANCY AT BTB MISS: 2.13565

L2BTB TOTAL     ACCESS:    3610367  HIT:    3534189  MISS:      76178  HIT %:      97.89  MISS %:    2.10998   MPKI: 1.52356
L2BTB BRANCH_DIRECT_JUMP	ACCESS:     399222  HIT:     394317  MISS:       4905	AVERAGE STALL: 40.098
L2BTB BRANCH_INDIRECT	ACCESS:     106491  HIT:     103739  MISS:       2752	AVERAGE STALL: 78.3893
L2BTB BRANCH_CONDITIONAL	ACCESS:    1294126  HIT:    1287076  MISS:       7050	AVERAGE STALL: 42.4061
L2BTB BRANCH_DIRECT_CALL	ACCESS:     842607  HIT:     839079  MISS:       3528	AVERAGE STALL: 50.9426
L2BTB BRANCH_INDIRECT_CALL	ACCESS:     140894  HIT:     130174  MISS:      10720	AVERAGE STALL: 103.014
L2BTB BRANCH_RETURN	ACCESS:     827027  HIT:     779804  MISS:      47223	AVERAGE STALL: 40.6397
L2BTB BRANCH_OTHER ACCESS:          0  HIT:          0  MISS:          0	AVERAGE STALL: -nan
L2BTB TOTAL ROB OCCUPANCY AT BTB MISS: 101.929

L2C TOTAL     ACCESS:    4513805  HIT:    4041154  MISS:     472651  HIT %:    89.5288  MISS %:    10.4712   MPKI: 9.45302
L2C LOAD INSTRUCTION	ACCESS:    2774953  HIT:    2523346  MISS:     251607  HIT %:    90.9329  MISS %:    9.06707  MPKI: 5.03214
L2C LOAD TRANSLATION INSTRUCTION	ACCESS:        377  HIT:        118  MISS:        259  HIT %:    31.2997  MISS %:    68.7003  MPKI: 0.00518
L2C LOAD DATA	ACCESS:     733519  HIT:     661110  MISS:      72409  HIT %:    90.1285  MISS %:    9.87146  MPKI: 1.44818
L2C RFO DATA	ACCESS:     289200  HIT:     231718  MISS:      57482  HIT %:    80.1238  MISS %:    19.8762  MPKI: 1.14964
L2C PREFETCH DATA	ACCESS:     186867  HIT:     112941  MISS:      73926  HIT %:    60.4392  MISS %:    39.5608  MPKI: 1.47852
L2C WRITEBACK DATA	ACCESS:     526764  HIT:     511272  MISS:      15492  HIT %:     97.059  MISS %:    2.94098  MPKI: 0.30984
L2C LOAD TRANSLATION DATA	ACCESS:       2051  HIT:        596  MISS:       1455  HIT %:     29.059  MISS %:     70.941  MPKI: 0.0291
L2C TRANSLATION FROM L1D PREFETCHER DATA	ACCESS:         74  HIT:         53  MISS:         21  HIT %:    71.6216  MISS %:    28.3784  MPKI: 0.00042

L2C PREFETCH  REQUESTED:      90560  ISSUED:      90560  USEFUL:       7569  USELESS:      66714
L2C USEFUL LOAD PREFETCHES:       7569 PREFETCH ISSUED TO LOWER LEVEL:      74224  ACCURACY: 10.1975
 TIMELY PREFETCHES:       7569 LATE PREFETCHES: 298 DROPPED PREFETCHES: 0
L2C AVERAGE MISS LATENCY: 40.0412 cycles
L2C RQ	ACCESS:    3800227	FORWARD:          0	MERGED:          0	TO_CACHE:    3800175
L2C WQ	ACCESS:     526764	FORWARD:         55	MERGED:          0	TO_CACHE:     526764
L2C PQ	ACCESS:     193757	FORWARD:          0	MERGED:       3188	TO_CACHE:     190566

L2C Dense regions hint from L2: 0
PSCL5 TOTAL     ACCESS:       4600  HIT:       2300  MISS:       2300  HIT %:         50  MISS %:         50   MPKI: 0.046
PSCL5 LOAD TRANSLATION INSTRUCTION	ACCESS:       4454  HIT:       2227  MISS:       2227  HIT %:         50  MISS %:         50  MPKI: 0.04454
PSCL5 TRANSLATION FROM L1D PREFETCHER INSTRUCTION	ACCESS:        146  HIT:         73  MISS:         73  HIT %:         50  MISS %:         50  MPKI: 0.00146


PSCL4 TOTAL     ACCESS:       4450  HIT:       2218  MISS:       2232  HIT %:    49.8427  MISS %:    50.1573   MPKI: 0.04464
PSCL4 LOAD TRANSLATION INSTRUCTION	ACCESS:       3542  HIT:       2145  MISS:       1397  HIT %:     60.559  MISS %:     39.441  MPKI: 0.02794
PSCL4 TRANSLATION FROM L1D PREFETCHER INSTRUCTION	ACCESS:        127  HIT:         73  MISS:         54  HIT %:    57.4803  MISS %:    42.5197  MPKI: 0.00108
PSCL4 LOAD TRANSLATION DATA	ACCESS:        762  HIT:          0  MISS:        762  HIT %:          0  MISS %:        100  MPKI: 0.01524
PSCL4 TRANSLATION FROM L1D PREFETCHER DATA	ACCESS:         19  HIT:          0  MISS:         19  HIT %:          0  MISS %:        100  MPKI: 0.00038


PSCL3 TOTAL     ACCESS:       4518  HIT:       2252  MISS:       2266  HIT %:    49.8451  MISS %:    50.1549   MPKI: 0.04532
PSCL3 LOAD TRANSLATION INSTRUCTION	ACCESS:       3576  HIT:       2179  MISS:       1397  HIT %:     60.934  MISS %:     39.066  MPKI: 0.02794
PSCL3 TRANSLATION FROM L1D PREFETCHER INSTRUCTION	ACCESS:        127  HIT:         73  MISS:         54  HIT %:    57.4803  MISS %:    42.5197  MPKI: 0.00108
PSCL3 LOAD TRANSLATION DATA	ACCESS:        796  HIT:          0  MISS:        796  HIT %:          0  MISS %:        100  MPKI: 0.01592
PSCL3 TRANSLATION FROM L1D PREFETCHER DATA	ACCESS:         19  HIT:          0  MISS:         19  HIT %:          0  MISS %:        100  MPKI: 0.00038


PSCL2 TOTAL     ACCESS:       4420  HIT:       2120  MISS:       2300  HIT %:    47.9638  MISS %:    52.0362   MPKI: 0.046
PSCL2 LOAD TRANSLATION INSTRUCTION	ACCESS:       2384  HIT:       2048  MISS:        336  HIT %:     85.906  MISS %:     14.094  MPKI: 0.00672
PSCL2 TRANSLATION FROM L1D PREFETCHER INSTRUCTION	ACCESS:         72  HIT:         72  MISS:          0  HIT %:        100  MISS %:          0  MPKI: 0
PSCL2 LOAD TRANSLATION DATA	ACCESS:       1892  HIT:          0  MISS:       1892  HIT %:          0  MISS %:        100  MPKI: 0.03784
PSCL2 TRANSLATION FROM L1D PREFETCHER DATA	ACCESS:         72  HIT:          0  MISS:         72  HIT %:          0  MISS %:        100  MPKI: 0.00144


LLC TOTAL     ACCESS:     534426  HIT:     502228  MISS:      32198  HIT %:    93.9752  MISS %:    6.02478   MPKI: 0.64396
LLC LOAD INSTRUCTION	ACCESS:     251607  HIT:     250113  MISS:       1494  HIT %:    99.4062  MISS %:   0.593783  MPKI: 0.02988
LLC LOAD TRANSLATION INSTRUCTION	ACCESS:        259  HIT:        215  MISS:         44  HIT %:    83.0116  MISS %:    16.9884  MPKI: 0.00088
LLC LOAD DATA	ACCESS:      72123  HIT:      68203  MISS:       3920  HIT %:    94.5648  MISS %:    5.43516  MPKI: 0.0784
LLC RFO DATA	ACCESS:      57469  HIT:      41853  MISS:      15616  HIT %:    72.8271  MISS %:    27.1729  MPKI: 0.31232
LLC PREFETCH DATA	ACCESS:      74224  HIT:      63638  MISS:      10586  HIT %:    85.7378  MISS %:    14.2622  MPKI: 0.21172
LLC WRITEBACK DATA	ACCESS:      77268  HIT:      76858  MISS:        410  HIT %:    99.4694  MISS %:   0.530621  MPKI: 0.0082
LLC LOAD TRANSLATION DATA	ACCESS:       1455  HIT:       1328  MISS:        127  HIT %:    91.2715  MISS %:    8.72852  MPKI: 0.00254
LLC TRANSLATION FROM L1D PREFETCHER DATA	ACCESS:         21  HIT:         20  MISS:          1  HIT %:    95.2381  MISS %:     4.7619  MPKI: 2e-05

LLC AVERAGE MISS LATENCY: 160.485 cycles
LLC RQ	ACCESS:     382935	FORWARD:          0	MERGED:          0	TO_CACHE:     382934
LLC WQ	ACCESS:      77268	FORWARD:          1	MERGED:          0	TO_CACHE:      77268
LLC PQ	ACCESS:      74224	FORWARD:          0	MERGED:          0	TO_CACHE:      74224

LLC Dense regions hint to LLC: 0

RAW hits: 1864838
Loads Generated: 12638764
Loads sent to L1D: 10773926
Stores Generated: 6954524
Stores sent to L1D: 6954528
Major fault: 0 Minor fault: 2672
Allocated PAGES: 2672

stream: 
stream:times selected: 1189118
stream:pref_filled: 121495
stream:pref_useful: 24584
stream:pref_late: 6915
stream:misses: 8115
stream:misses_by_poll: 0

CS: 
CS:times selected: 181330
CS:pref_filled: 60259
CS:pref_useful: 37000
CS:pref_late: 6843
CS:misses: 16275
CS:misses_by_poll: 2

CPLX: 
CPLX:times selected: 1006658
CPLX:pref_filled: 19511
CPLX:pref_useful: 4572
CPLX:pref_late: 2935
CPLX:misses: 93756
CPLX:misses_by_poll: 2

NL_L1: 
NL:times selected: 21440
NL:pref_filled: 564
NL:pref_useful: 239
NL:pref_late: 377
NL:misses: 1810
NL:misses_by_poll: 0

total selections: 2398546
total_filled: 94878
total_useful: 35402
total_late: 18642
total_polluted: 4
total_misses_after_warmup: 776800
conflicts: 5576010

test: 115864

DRAM Statistics
 CHANNEL 0
 RQ ROW_BUFFER_HIT:      11539  ROW_BUFFER_MISS:      20231
 DBUS_CONGESTED:          8
 WQ ROW_BUFFER_HIT:       1751  ROW_BUFFER_MISS:      13614  FULL:          0

 AVG_CONGESTED_CYCLE: 5

CPU 0 Branch Prediction Accuracy: 99.7901% MPKI: 0.3838 Average ROB Occupancy at Mispredict: 135.868
Branch types
NOT_BRANCH: 40858637 81.7173%
BRANCH_DIRECT_JUMP: 546742 1.09348%
BRANCH_INDIRECT: 182459 0.364918%
BRANCH_CONDITIONAL: 6176392 12.3528%
BRANCH_DIRECT_CALL: 946771 1.89354%
BRANCH_INDIRECT_CALL: 171107 0.342214%
BRANCH_RETURN: 1117882 2.23576%
BRANCH_OTHER: 0 0%

DRAM PAGES: 1048576
Allocated PAGES: 2672
Average_ROB_Occupancy: 168.075
Average_Decode_Occupancy: 19.7527
Average_FTQ_Occupancy: 8.35538
Indirect max targets: 14 Average targets: 1.18266
Branch_type:  BRANCH_DIRECT_JUMP:  Count Percentage: 2.117 7.16123 4.13221 8.54387 9.65519 4.36117 0.902891 63.1264 
Branch_type:  BRANCH_INDIRECT:  Count Percentage: 11.7457 3.43481 2.55791 0 16.6757 9.68397 2.27217 53.6298 
Branch_type:  BRANCH_CONDITIONAL:  Count Percentage: 25.2881 2.75396 1.70479 5.25749 4.90105 4.53203 0.510389 55.0522 
Branch_type:  BRANCH_DIRECT_CALL:  Count Percentage: 0.774726 1.29441 1.37467 3.9975 4.18531 0.988976 0.938116 86.4463 
Branch_type:  BRANCH_INDIRECT_CALL:  Count Percentage: 9.56615 0 2.99692 8.72297 2.42915 0.00292668 1.28862 74.9933 
Branch_type:  BRANCH_RETURN:  Count Percentage: 8.40549 1.09493 1.32088 5.8674 6.58122 5.20846 1.47697 70.0447 
Branch_type:  BRANCH_DIRECT_JUMP:  Total Count: 23189 78442 45263 93587 105760 47771 9890 691468 
Branch_type:  BRANCH_INDIRECT:  Total Count: 42916 12550 9346 0 60929 35383 8302 195951 
Branch_type:  BRANCH_CONDITIONAL:  Total Count: 3125748 340405 210722 649855 605798 560185 63087 6804765 
Branch_type:  BRANCH_DIRECT_CALL:  Total Count: 14623 24432 25947 75453 78998 18667 17707 1631680 
Branch_type:  BRANCH_INDIRECT_CALL:  Total Count: 32686 0 10240 29805 8300 10 4403 256240 
Branch_type:  BRANCH_RETURN:  Total Count: 187451 24418 29457 130849 146768 116154 32938 1562068 
Number of unique branch instructions: 11118
Upper 32 bits: 
aaaa
ffff
ffff0000
Unique upper 32 bits: 3
Unique upper 36 bits: 3
Unique upper 40 bits: 5
Unique upper 44 bits: 32
Unique upper 48 bits: 160
Variant_0 : 1384 0.337891
Variant_1 : 1315 0.321045
Variant_2 : 1379 0.33667
Variant_3 : 0 0
Offset_3 4608
Offset_4 284
Offset_5 501
Offset_6 557
Offset_7 661
Offset_8 615
Offset_9 547
Offset_10 433
Offset_11 357
Offset_12 336
Offset_13 248
Offset_14 252
Offset_15 203
Offset_16 234
Offset_17 178
Offset_18 152
Offset_19 270
Offset_20 148
Offset_21 262
Offset_22 412
Offset_23 245
Offset_24 373
Offset_25 117
Offset_47 100
Offset_64 21
decode_dispatch_called: 21671985 55.8049
Dispatch_width: 0 11136583 51.387 28.6765
Dispatch_width: 1 663770 3.0628 1.70919
Dispatch_width: 2 709892 3.27562 1.82796
Dispatch_width: 3 467626 2.15774 1.20413
Dispatch_width: 4 2678356 12.3586 6.89671
Dispatch_width: 5 294403 1.35845 0.758081
Dispatch_width: 6 5721355 26.3998 14.7324
Empty_decode_cycles: 17163297 44.1951
ROB_full_cycles: 3982186 10.254
Starvation_cycles_per_kilo_instr: 291.317
Starvation_cycles_per_kilo_instr_3: 261.59
Starvation_cycles_per_kilo_instr_0: 243.177
Branch_type_1  (3,1)  (4,10)  (5,41)  (6,75)  (7,129)  (8,159)  (9,144)  (10,113)  (11,79)  (12,55)  (13,11)  (14,2)  (15,3)  (16,4)  (18,1)  (19,5)  (20,2)  (21,1)  (22,3)  (23,2)  (24,10)  (25,12)  (64,2) 
Branch_type_2  (3,1)  (4,1)  (5,1)  (8,4)  (9,4)  (10,1)  (12,1)  (13,1)  (14,1)  (16,3)  (17,2)  (20,2)  (21,2)  (23,5)  (24,1)  (47,46) 
Branch_type_3  (3,4606)  (4,273)  (5,455)  (6,464)  (7,498)  (8,381)  (9,302)  (10,175)  (11,138)  (12,62)  (13,10)  (24,3)  (64,15) 
Branch_type_4  (6,4)  (7,8)  (8,30)  (9,58)  (10,68)  (11,73)  (12,121)  (13,106)  (14,113)  (15,97)  (16,103)  (17,84)  (18,65)  (19,130)  (20,74)  (21,141)  (22,218)  (23,138)  (24,216)  (25,101)  (64,2) 
Branch_type_5  (8,3)  (9,1)  (10,4)  (11,5)  (12,3)  (13,14)  (14,16)  (15,11)  (16,22)  (17,11)  (18,23)  (19,15)  (20,12)  (21,13)  (22,43)  (23,26)  (24,42)  (64,1) 
Branch_type_6  (5,4)  (6,14)  (7,26)  (8,38)  (9,38)  (10,72)  (11,62)  (12,94)  (13,106)  (14,120)  (15,92)  (16,102)  (17,81)  (18,63)  (19,120)  (20,58)  (21,105)  (22,148)  (23,74)  (24,101)  (25,4)  (47,54)  (64,1) 
Unique trigger count: 
Variant_0_evicts_0 : 0
Variant_0_evicts_1 : 0
Variant_0_evicts_2 : 0
Variant_0_evicts_3 : 0
Variant_1_evicts_0 : 0
Variant_1_evicts_1 : 0
Variant_1_evicts_2 : 0
Variant_1_evicts_3 : 0
Variant_2_evicts_0 : 0
Variant_2_evicts_1 : 0
Variant_2_evicts_2 : 0
Variant_2_evicts_3 : 0
Variant_3_evicts_0 : 0
Variant_3_evicts_1 : 0
Variant_3_evicts_2 : 0
Variant_3_evicts_3 : 0
BTB PER SET UNIQUE ADDR: 15 22 15 18 16 13 7 12 12 15 8 13 13 13 12 13 11 13 12 16 8 14 17 14 14 17 11 14 13 13 17 20 22 12 11 13 17 11 10 18 17 13 11 19 8 13 19 12 20 14 18 15 13 15 16 5 14 11 14 12 11 19 17 16 15 17 15 9 19 18 13 13 20 12 13 10 10 20 14 21 15 11 14 18 16 16 22 14 16 29 13 9 16 12 10 20 11 10 11 17 18 10 15 13 8 14 11 13 11 11 12 19 20 18 13 10 16 12 15 13 16 12 10 12 10 13 9 17 24 15 14 16 16 17 12 16 14 15 14 22 11 13 14 14 16 19 19 14 6 18 15 16 12 19 12 19 21 17 15 18 19 15 17 24 11 17 13 13 13 13 13 19 19 15 17 16 15 15 14 15 13 13 12 19 24 21 8 14 16 12 17 12 16 20 17 14 10 17 13 15 17 16 11 9 12 13 11 17 12 19 12 15 12 14 13 14 16 15 16 19 12 18 13 10 9 19 13 17 13 17 11 7 10 15 15 14 17 17 12 9 13 12 22 16 11 13 13 12 10 13 21 14 13 13 14 15 11 14 10 15 12 10 6 14 19 5 13 11 6 14 9 15 12 8 9 11 14 17 14 11 13 16 12 14 15 11 12 14 18 12 9 10 16 18 9 22 12 16 12 18 10 14 14 20 18 18 15 10 21 18 16 21 16 20 16 10 23 16 10 15 12 17 14 11 16 25 19 14 11 8 16 16 10 13 9 16 15 15 11 16 11 16 9 18 11 15 10 19 12 10 17 7 15 20 17 17 17 11 11 13 14 14 13 19 16 14 10 17 17 13 14 13 19 16 12 22 16 16 17 18 15 13 13 10 9 18 23 19 11 11 24 15 13 18 14 13 15 13 21 15 9 13 15 12 13 17 18 16 16 15 16 13 9 17 21 13 15 17 24 21 12 14 16 15 17 13 14 17 18 11 23 12 16 14 18 19 19 16 12 14 13 16 12 15 24 13 14 17 18 13 16 19 12 12 15 20 22 15 7 22 12 17 14 20 24 14 10 13 13 13 15 14 15 15 17 20 13 17 8 20 18 15 16 15 12 20 22 13 14 16 15 16 14 11 15 13 19 21 14 14 16 17 13 16 16 9 11 17 19 15 15 17 15 12 16 19 17 21 11 12 12 15 15 10 13 18 21 11 13 24 17 19 18 12 16 19 12 15 18 18 18 12 15 14 19 17 13 18 10 15 15 15 18 15 14 13 17 12 17 21 13 18 13 16 16 14 14 13 15 20 15 15 16 17 16 23 18 13 16 12 12 15 9 13 16 13 15 14 21 12 10 16 16 12 13 15 8 15 14 12 17 9 14 9 13 15 19 14 14 10 24 14 13 16 5 16 12 12 16 17 22 16 9 8 13 16 13 22 13 21 11 16 14 13 15 16 15 19 11 20 11 17 19 17 19 14 15 23 20 14 15 15 14 12 17 12 13 17 16 12 13 6 14 21 17 17 11 18 15 14 18 13 13 20 15 13 14 19 15 23 14 14 12 16 19 15 14 19 17 17 15 20 15 9 10 13 13 20 9 19 11 13 12 22 10 20 15 14 10 12 11 16 9 11 15 14 13 18 12 21 16 14 16 16 14 15 15 12 11 12 14 12 16 11 13 17 17 16 22 19 13 14 15 14 16 18 12 19 14 14 14 15 11 17 14 9 26 14 13 13 16 11 8 16 13 21 13 16 12 10 11 15 11 8 13 14 16 14 19 22 6 20 14 12 11 13 11 14 11 10 12 10 16 18 23 17 15 11 15 13 20 17 19 20 23 13 15 14 12 15 19 18 17 18 16 15 21 17 8 19 15 22 11 18 18 17 14 18 15 17 13 18 10 14 18 20 18 15 15 12 13 17 12 15 15 24 9 19 13 16 10 15 11 14 17 24 14 12 16 16 15 15 10 14 23 11 12 11 14 12 9 23 19 13 12 8 19 16 14 14 17 11 17 16 16 16 15 15 15 17 18 13 11 15 16 17 14 17 17 9 15 14 17 15 12 17 13 16 16 21 10 16 13 19 16 16 15 18 16 11 14 18 12 14 10 10 8 16 11 11 16 26 24 19 18 19 15 19 18 20 14 22 16 16 13 12 18 14 15 23 14 14 12 12 11 20 9 10 17 16 11 16 20 19 17 17 21 19 9 17 17 16 14 16 15 15 18 18 20 13 11 20 18 13 13 17 17 14 13 11 18 20 12 14 15 16 10 13 16 14 25 24 12 9 15 19 12 16 13 17 18 17 13 10 13 12 10 12 7 11 20 20 14 8 
BTB PER SET COUNT: 1006 36 1581 42 25 20 12 313 1396 22 9 810 20016 1419 19 20 997 30 386 68 11 248 158 179 17 37 15 1129 15 1061 329 955 33 17 19 404 41 14 11 768 24 21 15 31 61 26 30 23 407 18 20 434 18 28 31 28 26 13 23 20 21 36 25 31 34 22 23 10 49 25 19 575 25 15 19 14 20 87 23 31 669 15 518 31 23 35 35 21 20 56 20 12 153 14 34 23 150 15 14 41 33 12 23 153 1879 16 28 17 140 2892 26 34 1041 36 27 943 34 20 101 502 54 36 10 13 11 17 11 1945 43 829 30 30 25 32 18 24 1001 20 21 45 13 21 30 17 113 402 41 20 12 115 21 190 1395 31 20 30 629 24 24 2317 34 20 20 38 651 331 18 21 30 1640 22 22 32 20 30 23 19 24 1782 17 409 111 3479 30 54 100 10 16 73 1040 23 13 25 30 27 100 16 507 28 960 30 45 74 12 20 18 13 57 15 1189 19 19 22 20 16 19 29 36 33 39 48 38 20 19 14 36 14 238 475 29 19 15 15 36 75 40 33 34 464 12 17 15 44 27 22 24 16 16 10 26 43 34 20 20 22 358 81 28 17 30 14 12 6 21 30 10 21 19 9 27 10 48 263 12 15 14 19 30 19 16 23 36 887 18 23 16 13 1031 29 15 12 22 19 522 11 31 18 26 16 44 16 23 26 34 31 37 31 14 120 161 101 34 19 30 1492 63 37 25 20 23 18 4803 24 25 27 1631 132 24 15 14 22 24 15 15 10 21 18 774 16 27 18 620 13 49 14 41 12 43 19 12 82 1415 69 34 21 22 27 22 33 18 28 30 22 30 27 26 11 25 29 19 26 497 38 41 57 43 25 28 59 30 75 20 17 12 15 26 1482 37 15 1463 228 19 17 33 19 18 18 21 2371 36 11 34 25 27 23 37 28 23 23 32 30 16 16 27 28 23 31 25 39 34 16 24 33 27 31 16 513 67 31 18 62 12 24 23 493 41 40 30 16 22 33 25 76 30 48 19 599 37 28 28 807 1741 18 18 59 41 35 23 7 38 31 35 18 436 53 25 14919 21 21 16 23 18 22 31 31 74 24 37 11 36 29 1113 21 34 14 141 404 21 21 23 702 21 2888 18 23 22 29 97 23 29 27 66 16 23 37 13 21 24 28 23 87 502 633 789 31 22 28 39 21 384 17 18 31 127 24 34 111 18 23 258 32 128 52 16 24 29 22 1021 20 501 29 13 25 20 48 32 17 32 17 700 23 28 215 26 23 16 40 15 29 31 18 124 23 26 552 34 82 21 21 1488 1130 85 23 54 2474 30 34 22 29 19 14 28 18 751 22 23 660 27 38 14 17 135 19 20 24 29 155 510 21 42 24 12 21 17 21 17 36 1039 117 15 45 26 33 21 5 29 20 20 762 380 37 22 14 899 20 18 22 35 24 38 19 37 1007 173 22 389 26 25 17 545 16 26 36 1216 442 23 754 41 230 24 22 22 19 19 29 388 25 44 92 982 22 8 35 46 980 38 14 284 1391 40 22 26 35 35 225 82 20 47 18 48 21 27 19 26 25 29 19 30 52 29 20 32 23 14 1958 23 14 892 24 27 23 24 916 29 16 32 21 30 18 15 22 21 14 15 61 18 293 31 23 318 142 41 31 1170 20 24 22 17 16 24 25 15 27 29 23 22 457 19 78 64 77 31 203 23 785 27 356 22 26 20 1574 27 160 605 1358 14 48 28 18 18 27 14 9 439 171 35 17 1687 16 10 65 35 16 21 21 19 25 246 38 40 9 42 891 25 42 16 11 20 21 14 21 984 33 26 548 27 147 22 24 20 245 35 70 297 44 27 23 20 28 21 23 5122 34 354 18 24 47 873 12 1284 20 127 20 87 24 34 22 29 27 33 19 26 11 24 348 1799 38 21 823 16 21 19 19 19 366 40 15 29 25 22 20 286 11 15 1041 44 21 19 29 26 27 64 926 16 462 18 19 17 32 24 26 41 31 18 19 16 27 44 48 30 23 12 40 146 262 33 23 26 18 47 35 16 17 29 19 30 21 27 463 14 24 20 31 219 22 34 14 34 155 333 400 498 20 34 22 1020 2249 345 36 71 24 424 292 51 16 137 12 32 18 15 21 42 446 38 23 1106 118 35 448 31 27 2338 29 26 25 23 23 23 24 37 129 1019 1510 202 14 31 11 15 32 22 17 21 375 31 33 32 31 23 13 27 39 167 21 35 615 21 24 25 1094 2805 13 108 22 727 23 1624 21 24 19 15 32 1226 14 22 22 30 15 1484 35 405 148 941 25 16 19 24 17 30 19 987 49 21 18 16 21 15 11 48 8 16 42 29 22 10 
To predecode: 0
Predecoding something: 0
Predecode request dropped: 0
sizeofblock_0 0
sizeofblock_1 46069
sizeofblock_2 34799
sizeofblock_3 45434
sizeofblock_4 27741
sizeofblock_5 0
sizeofblock_6 0
sizeofblock_7 0
sizeofblock_8 0
Variant_0 Correct: 1609794 Incorrect: 0 Accuracy: 1
Variant_1 Correct: 2088115 Incorrect: 0 Accuracy: 1
Variant_2 Correct: 3641872 Incorrect: 0 Accuracy: 1
Variant_3 Correct: 0 Incorrect: 0 Accuracy: -nan
