
*** ChampSim Multicore Out-of-Order Simulator ***

Warmup Instructions: 50000000
Simulation Instructions: 50000000
Number of CPUs: 1
LLC sets: 2048
LLC ways: 16
Off-chip DRAM Size: 4096 MB Channels: 1 Width: 64-bit Data Rate: 6400 MT/s
CPU 0 runs ./micro_traces/srv116.trace.gz
.gz
ITLB has LRU replacement policy
DTLB has LRU replacement policy
STLB has LRU replacement policy
FDIP Prefetcher at L1I
L1I has LRU replacement policy
L1D has LRU replacement policy
Initialize SRRIP state for L2C
Initialize DRRIP state for LLC
Heartbeat CPU 0 instructions: 10000003 cycles: 2791728 heartbeat IPC: 3.58201 cumulative IPC: 3.58201 (Simulation time: 0 hr 2 min 2 sec) 
Heartbeat CPU 0 instructions: 20000000 cycles: 5581722 heartbeat IPC: 3.58424 cumulative IPC: 3.58312 (Simulation time: 0 hr 3 min 57 sec) 
Heartbeat CPU 0 instructions: 30000001 cycles: 8371037 heartbeat IPC: 3.58511 cumulative IPC: 3.58379 (Simulation time: 0 hr 5 min 50 sec) 
Heartbeat CPU 0 instructions: 40000002 cycles: 11161899 heartbeat IPC: 3.58312 cumulative IPC: 3.58362 (Simulation time: 0 hr 7 min 50 sec) 
Heartbeat CPU 0 instructions: 50000001 cycles: 13952456 heartbeat IPC: 3.58351 cumulative IPC: 3.5836 (Simulation time: 0 hr 9 min 50 sec) 

Warmup complete CPU 0 instructions: 50000001 cycles: 13952456 (Simulation time: 0 hr 9 min 50 sec) 

Cycle: 20000000 FTQ IN: 58486341 FTQ occupancy: 20.7685 DECODE IN: 58486214 DECODE occupancy: 54.0521 ROB IN: 58486154 ROB occupancy: 321.568 ROB OUT: 58485806
Heartbeat CPU 0 instructions: 60000000 cycles: 21078078 heartbeat IPC: 1.40339 cumulative IPC: 1.40339 (Simulation time: 0 hr 12 min 14 sec) 
Heartbeat CPU 0 instructions: 70000003 cycles: 28194483 heartbeat IPC: 1.4052 cumulative IPC: 1.40429 (Simulation time: 0 hr 14 min 29 sec) 
Cycle: 30000000 FTQ IN: 14057858 FTQ occupancy: 15.3335 DECODE IN: 14057985 DECODE occupancy: 39.3489 ROB IN: 14058045 ROB occupancy: 254.833 ROB OUT: 14058250
Heartbeat CPU 0 instructions: 80000002 cycles: 35362632 heartbeat IPC: 1.39506 cumulative IPC: 1.4012 (Simulation time: 0 hr 16 min 56 sec) 
Cycle: 40000000 FTQ IN: 14024134 FTQ occupancy: 15.5697 DECODE IN: 14023994 DECODE occupancy: 39.9186 ROB IN: 14023994 ROB occupancy: 256.811 ROB OUT: 14023913
Heartbeat CPU 0 instructions: 90000000 cycles: 42516430 heartbeat IPC: 1.39786 cumulative IPC: 1.40037 (Simulation time: 0 hr 19 min 32 sec) 
Heartbeat CPU 0 instructions: 100000002 cycles: 49584256 heartbeat IPC: 1.41486 cumulative IPC: 1.40324 (Simulation time: 0 hr 21 min 58 sec) 
Finished CPU 0 instructions: 50000001 cycles: 35631800 cumulative IPC: 1.40324 (Simulation time: 0 hr 21 min 58 sec) 

ChampSim completed all CPUs

Region of Interest Statistics

CPU 0 cumulative IPC: 1.40324 instructions: 50000001 cycles: 35631800
 Fetch stage stalled: 42.9033  Sim cycles: 35631800 fetch stall cycle: 15287207
 Empty decode stage: 22.6281  Sim cycles: 35631800 fetch stall cycle: 8062791
ITLB TOTAL     ACCESS:    5835782  HIT:    5386968  MISS:     448814  HIT %:    92.3093  MISS %:    7.69073   MPKI: 8.97628
ITLB LOAD TRANSLATION INSTRUCTION	ACCESS:    5688974  HIT:    5240160  MISS:     448814  HIT %:    92.1108  MISS %:    7.88919  MPKI: 8.97628
ITLB TRANSLATION FROM L1D PREFETCHER INSTRUCTION	ACCESS:     146808  HIT:     146808  MISS:          0  HIT %:        100  MISS %:          0  MPKI: 0

ITLB AVERAGE MISS LATENCY: 9.11994 cycles
ITLB RQ	ACCESS:    7817240	FORWARD:          0	MERGED:    1543933	TO_CACHE:    6273307

DTLB TOTAL     ACCESS:    8807565  HIT:    8335053  MISS:     472512  HIT %:    94.6352  MISS %:    5.36484   MPKI: 9.45024
DTLB LOAD TRANSLATION DATA	ACCESS:    8807565  HIT:    8335053  MISS:     472512  HIT %:    94.6352  MISS %:    5.36484  MPKI: 9.45024

DTLB AVERAGE MISS LATENCY: 9.44357 cycles
DTLB RQ	ACCESS:   13119891	FORWARD:          0	MERGED:    4274317	TO_CACHE:    8845574

STLB TOTAL     ACCESS:    1216580  HIT:    1213081  MISS:       3499  HIT %:    99.7124  MISS %:    0.28761   MPKI: 0.06998
STLB LOAD TRANSLATION INSTRUCTION	ACCESS:     448814  HIT:     448195  MISS:        619  HIT %:    99.8621  MISS %:   0.137919  MPKI: 0.01238
STLB LOAD TRANSLATION DATA	ACCESS:     472512  HIT:     469678  MISS:       2834  HIT %:    99.4002  MISS %:   0.599773  MPKI: 0.05668
STLB TRANSLATION FROM L1D PREFETCHER DATA	ACCESS:     295254  HIT:     295208  MISS:         46  HIT %:    99.9844  MISS %:  0.0155798  MPKI: 0.00092

STLB AVERAGE MISS LATENCY: 64.928 cycles
STLB RQ	ACCESS:    1394124	FORWARD:          0	MERGED:     177456	TO_CACHE:    1216668

STLB Hit, L1D data hit: 0
STLB Hit, L2C data hit: 0
STLB Hit, LLC data hit: 0
STLB Hit, LLC data miss: 0
STLB STLB hints to L2: 0
L1D TOTAL     ACCESS:   12954677  HIT:   11846205  MISS:    1108472  HIT %:    91.4435  MISS %:    8.55654   MPKI: 22.1694
L1D LOAD DATA	ACCESS:    6491450  HIT:    5773122  MISS:     718328  HIT %:    88.9342  MISS %:    11.0658  MPKI: 14.3666
L1D RFO DATA	ACCESS:    6070507  HIT:    5793397  MISS:     277110  HIT %:    95.4351  MISS %:    4.56486  MPKI: 5.5422
L1D PREFETCH DATA	ACCESS:     392720  HIT:     279686  MISS:     113034  HIT %:    71.2177  MISS %:    28.7823  MPKI: 2.26068

L1D PREFETCH  REQUESTED:     945912  ISSUED:     945912  USEFUL:      58588  USELESS:      72974
L1D USEFUL LOAD PREFETCHES:      58588 PREFETCH ISSUED TO LOWER LEVEL:     131622  ACCURACY: 44.5123
 TIMELY PREFETCHES:      58588 LATE PREFETCHES: 18544 DROPPED PREFETCHES: 33
L1D AVERAGE MISS LATENCY: 533723 cycles
L1D RQ	ACCESS:   10605216	FORWARD:          0	MERGED:    3921218	TO_CACHE:    6531387
L1D WQ	ACCESS:    6771162	FORWARD:     152927	MERGED:     182658	TO_CACHE:    6588504
L1D PQ	ACCESS:     473114	FORWARD:          0	MERGED:          0	TO_CACHE:     472798

L1D UNIQUE REGIONS ACCESSED: 0
L1D REGIONS CONFLICTS: 0
L1D Cross Page Prefetch Requests: 10467
L1D Same Page Prefetch Requests: 955838
L1D ROI Sum of L1D PQ occupancy: 6002510
L1D PREFETCHES PUSHED FROM L2C: 0
L1I TOTAL     ACCESS:    7060498  HIT:    4536496  MISS:    2524002  HIT %:    64.2518  MISS %:    35.7482   MPKI: 50.48
L1I LOAD INSTRUCTION	ACCESS:    6357168  HIT:    3833166  MISS:    2524002  HIT %:    60.2968  MISS %:    39.7032  MPKI: 50.48
L1I PREFETCH INSTRUCTION	ACCESS:     703330  HIT:     703330  MISS:          0  HIT %:        100  MISS %:          0  MPKI: 0

L1I PREFETCH  REQUESTED:    1624852  ISSUED:    1624852  USEFUL:          0  USELESS:          0
L1I USEFUL LOAD PREFETCHES:          0 PREFETCH ISSUED TO LOWER LEVEL:          0  ACCURACY: -nan
 TIMELY PREFETCHES:          0 LATE PREFETCHES: 0 DROPPED PREFETCHES: 0
L1I AVERAGE MISS LATENCY: 17.5953 cycles
L1I RQ	ACCESS:    9560227	FORWARD:          0	MERGED:    2925420	TO_CACHE:    6634807
L1I PQ	ACCESS:    1624852	FORWARD:          0	MERGED:     442419	TO_CACHE:    1182433

L1BTB TOTAL     ACCESS:    5845857  HIT:    2440882  MISS:    3404975  HIT %:     41.754  MISS %:     58.246   MPKI: 68.0995
L1BTB BRANCH_DIRECT_JUMP	ACCESS:     588495  HIT:     196285  MISS:     392210	AVERAGE STALL: 54.8413
L1BTB BRANCH_INDIRECT	ACCESS:     171563  HIT:      56221  MISS:     115342	AVERAGE STALL: 117.383
L1BTB BRANCH_CONDITIONAL	ACCESS:    2986104  HIT:    1771844  MISS:    1214260	AVERAGE STALL: 89.3217
L1BTB BRANCH_DIRECT_CALL	ACCESS:     889138  HIT:     108014  MISS:     781124	AVERAGE STALL: 67.2676
L1BTB BRANCH_INDIRECT_CALL	ACCESS:     160713  HIT:      20738  MISS:     139975	AVERAGE STALL: 136.24
L1BTB BRANCH_RETURN	ACCESS:    1049844  HIT:     287780  MISS:     762064	AVERAGE STALL: 52.7675
L1BTB BRANCH_OTHER ACCESS:          0  HIT:          0  MISS:          0	AVERAGE STALL: -nan
L1BTB TOTAL ROB OCCUPANCY AT BTB MISS: 2.10036

L2BTB TOTAL     ACCESS:    3379792  HIT:    3334157  MISS:      45635  HIT %:    98.6498  MISS %:    1.35023   MPKI: 0.9127
L2BTB BRANCH_DIRECT_JUMP	ACCESS:     387246  HIT:     384366  MISS:       2880	AVERAGE STALL: 54.8413
L2BTB BRANCH_INDIRECT	ACCESS:     105519  HIT:     103042  MISS:       2477	AVERAGE STALL: 117.383
L2BTB BRANCH_CONDITIONAL	ACCESS:    1214260  HIT:    1213330  MISS:        930	AVERAGE STALL: 89.3217
L2BTB BRANCH_DIRECT_CALL	ACCESS:     781124  HIT:     780499  MISS:        625	AVERAGE STALL: 67.2676
L2BTB BRANCH_INDIRECT_CALL	ACCESS:     130625  HIT:     121347  MISS:       9278	AVERAGE STALL: 136.24
L2BTB BRANCH_RETURN	ACCESS:     761018  HIT:     731573  MISS:      29445	AVERAGE STALL: 52.7675
L2BTB BRANCH_OTHER ACCESS:          0  HIT:          0  MISS:          0	AVERAGE STALL: -nan
L2BTB TOTAL ROB OCCUPANCY AT BTB MISS: 156.715

L2C TOTAL     ACCESS:    4208486  HIT:    3691422  MISS:     517064  HIT %:    87.7138  MISS %:    12.2862   MPKI: 10.3413
L2C LOAD INSTRUCTION	ACCESS:    2524002  HIT:    2260873  MISS:     263129  HIT %:    89.5749  MISS %:    10.4251  MPKI: 5.26258
L2C LOAD TRANSLATION INSTRUCTION	ACCESS:        691  HIT:        298  MISS:        393  HIT %:    43.1259  MISS %:    56.8741  MPKI: 0.00786
L2C LOAD DATA	ACCESS:     699705  HIT:     613271  MISS:      86434  HIT %:    87.6471  MISS %:    12.3529  MPKI: 1.72868
L2C RFO DATA	ACCESS:     277034  HIT:     218045  MISS:      58989  HIT %:    78.7069  MISS %:    21.2931  MPKI: 1.17978
L2C PREFETCH DATA	ACCESS:     216804  HIT:     126186  MISS:      90618  HIT %:    58.2028  MISS %:    41.7972  MPKI: 1.81236
L2C WRITEBACK DATA	ACCESS:     487109  HIT:     471910  MISS:      15199  HIT %:    96.8798  MISS %:    3.12025  MPKI: 0.30398
L2C LOAD TRANSLATION DATA	ACCESS:       3041  HIT:        796  MISS:       2245  HIT %:    26.1756  MISS %:    73.8244  MPKI: 0.0449
L2C TRANSLATION FROM L1D PREFETCHER DATA	ACCESS:        100  HIT:         43  MISS:         57  HIT %:         43  MISS %:         57  MPKI: 0.00114

L2C PREFETCH  REQUESTED:      93819  ISSUED:      93819  USEFUL:      10822  USELESS:      80450
L2C USEFUL LOAD PREFETCHES:      10822 PREFETCH ISSUED TO LOWER LEVEL:      91165  ACCURACY: 11.8708
 TIMELY PREFETCHES:      10822 LATE PREFETCHES: 547 DROPPED PREFETCHES: 0
L2C AVERAGE MISS LATENCY: 40.9572 cycles
L2C RQ	ACCESS:    3504684	FORWARD:          0	MERGED:          0	TO_CACHE:    3504574
L2C WQ	ACCESS:     487109	FORWARD:        111	MERGED:          0	TO_CACHE:     487109
L2C PQ	ACCESS:     225441	FORWARD:          0	MERGED:       3712	TO_CACHE:     221728

L2C Dense regions hint from L2: 0
PSCL5 TOTAL     ACCESS:       7068  HIT:       3534  MISS:       3534  HIT %:         50  MISS %:         50   MPKI: 0.07068
PSCL5 LOAD TRANSLATION INSTRUCTION	ACCESS:       6876  HIT:       3438  MISS:       3438  HIT %:         50  MISS %:         50  MPKI: 0.06876
PSCL5 TRANSLATION FROM L1D PREFETCHER INSTRUCTION	ACCESS:        192  HIT:         96  MISS:         96  HIT %:         50  MISS %:         50  MPKI: 0.00192


PSCL4 TOTAL     ACCESS:       6771  HIT:       3379  MISS:       3392  HIT %:     49.904  MISS %:     50.096   MPKI: 0.06784
PSCL4 LOAD TRANSLATION INSTRUCTION	ACCESS:       3567  HIT:       3283  MISS:        284  HIT %:    92.0381  MISS %:    7.96187  MPKI: 0.00568
PSCL4 TRANSLATION FROM L1D PREFETCHER INSTRUCTION	ACCESS:         96  HIT:         96  MISS:          0  HIT %:        100  MISS %:          0  MPKI: 0
PSCL4 LOAD TRANSLATION DATA	ACCESS:       3012  HIT:          0  MISS:       3012  HIT %:          0  MISS %:        100  MPKI: 0.06024
PSCL4 TRANSLATION FROM L1D PREFETCHER DATA	ACCESS:         96  HIT:          0  MISS:         96  HIT %:          0  MISS %:        100  MPKI: 0.00192


PSCL3 TOTAL     ACCESS:       6989  HIT:       3488  MISS:       3501  HIT %:     49.907  MISS %:     50.093   MPKI: 0.07002
PSCL3 LOAD TRANSLATION INSTRUCTION	ACCESS:       3676  HIT:       3392  MISS:        284  HIT %:    92.2742  MISS %:    7.72579  MPKI: 0.00568
PSCL3 TRANSLATION FROM L1D PREFETCHER INSTRUCTION	ACCESS:         96  HIT:         96  MISS:          0  HIT %:        100  MISS %:          0  MPKI: 0
PSCL3 LOAD TRANSLATION DATA	ACCESS:       3121  HIT:          0  MISS:       3121  HIT %:          0  MISS %:        100  MPKI: 0.06242
PSCL3 TRANSLATION FROM L1D PREFETCHER DATA	ACCESS:         96  HIT:          0  MISS:         96  HIT %:          0  MISS %:        100  MPKI: 0.00192


PSCL2 TOTAL     ACCESS:       6791  HIT:       3260  MISS:       3531  HIT %:    48.0047  MISS %:    51.9953   MPKI: 0.07062
PSCL2 LOAD TRANSLATION INSTRUCTION	ACCESS:       3784  HIT:       3168  MISS:        616  HIT %:    83.7209  MISS %:    16.2791  MPKI: 0.01232
PSCL2 TRANSLATION FROM L1D PREFETCHER INSTRUCTION	ACCESS:         92  HIT:         92  MISS:          0  HIT %:        100  MISS %:          0  MPKI: 0
PSCL2 LOAD TRANSLATION DATA	ACCESS:       2823  HIT:          0  MISS:       2823  HIT %:          0  MISS %:        100  MPKI: 0.05646
PSCL2 TRANSLATION FROM L1D PREFETCHER DATA	ACCESS:         92  HIT:          0  MISS:         92  HIT %:          0  MISS %:        100  MPKI: 0.00184


LLC TOTAL     ACCESS:     586535  HIT:     548487  MISS:      38048  HIT %:    93.5131  MISS %:    6.48691   MPKI: 0.76096
LLC LOAD INSTRUCTION	ACCESS:     263129  HIT:     262044  MISS:       1085  HIT %:    99.5877  MISS %:   0.412345  MPKI: 0.0217
LLC LOAD TRANSLATION INSTRUCTION	ACCESS:        393  HIT:        346  MISS:         47  HIT %:    88.0407  MISS %:    11.9593  MPKI: 0.00094
LLC LOAD DATA	ACCESS:      85923  HIT:      81266  MISS:       4657  HIT %:      94.58  MISS %:    5.41997  MPKI: 0.09314
LLC RFO DATA	ACCESS:      58945  HIT:      40353  MISS:      18592  HIT %:    68.4587  MISS %:    31.5413  MPKI: 0.37184
LLC PREFETCH DATA	ACCESS:      91165  HIT:      77989  MISS:      13176  HIT %:    85.5471  MISS %:    14.4529  MPKI: 0.26352
LLC WRITEBACK DATA	ACCESS:      84678  HIT:      84292  MISS:        386  HIT %:    99.5442  MISS %:   0.455844  MPKI: 0.00772
LLC LOAD TRANSLATION DATA	ACCESS:       2245  HIT:       2142  MISS:        103  HIT %:     95.412  MISS %:    4.58797  MPKI: 0.00206
LLC TRANSLATION FROM L1D PREFETCHER DATA	ACCESS:         57  HIT:         55  MISS:          2  HIT %:    96.4912  MISS %:    3.50877  MPKI: 4e-05

LLC AVERAGE MISS LATENCY: 159.962 cycles
LLC RQ	ACCESS:     410700	FORWARD:          0	MERGED:          0	TO_CACHE:     410692
LLC WQ	ACCESS:      84678	FORWARD:          8	MERGED:          0	TO_CACHE:      84678
LLC PQ	ACCESS:      91165	FORWARD:          0	MERGED:          0	TO_CACHE:      91165

LLC Dense regions hint to LLC: 0

RAW hits: 1844567
Loads Generated: 12449780
Loads sent to L1D: 10605216
Stores Generated: 6771131
Stores sent to L1D: 6771162
Major fault: 0 Minor fault: 2498
Allocated PAGES: 2498

stream: 
stream:times selected: 1487780
stream:pref_filled: 129007
stream:pref_useful: 30059
stream:pref_late: 10337
stream:misses: 13355
stream:misses_by_poll: 0

CS: 
CS:times selected: 235365
CS:pref_filled: 86190
CS:pref_useful: 61358
CS:pref_late: 10578
CS:misses: 28177
CS:misses_by_poll: 3

CPLX: 
CPLX:times selected: 1250375
CPLX:pref_filled: 29239
CPLX:pref_useful: 9443
CPLX:pref_late: 5209
CPLX:misses: 148291
CPLX:misses_by_poll: 7

NL_L1: 
NL:times selected: 29211
NL:pref_filled: 1924
NL:pref_useful: 875
NL:pref_late: 829
NL:misses: 3828
NL:misses_by_poll: 0

total selections: 3002731
total_filled: 113034
total_useful: 58588
total_late: 30034
total_polluted: 10
total_misses_after_warmup: 758265
conflicts: 5215543

test: 178694

DRAM Statistics
 CHANNEL 0
 RQ ROW_BUFFER_HIT:      13323  ROW_BUFFER_MISS:      24319
 DBUS_CONGESTED:         15
 WQ ROW_BUFFER_HIT:       2155  ROW_BUFFER_MISS:      17999  FULL:          0

 AVG_CONGESTED_CYCLE: 5

CPU 0 Branch Prediction Accuracy: 99.7658% MPKI: 0.42928 Average ROB Occupancy at Mispredict: 193.761
Branch types
NOT_BRANCH: 40833618 81.6672%
BRANCH_DIRECT_JUMP: 588495 1.17699%
BRANCH_INDIRECT: 171563 0.343126%
BRANCH_CONDITIONAL: 6306530 12.6131%
BRANCH_DIRECT_CALL: 889138 1.77828%
BRANCH_INDIRECT_CALL: 160713 0.321426%
BRANCH_RETURN: 1049844 2.09969%
BRANCH_OTHER: 0 0%

DRAM PAGES: 1048576
Allocated PAGES: 2498
Average_ROB_Occupancy: 257.893
Average_Decode_Occupancy: 39.7416
Average_FTQ_Occupancy: 15.5061
Indirect max targets: 14 Average targets: 1.14286
Branch_type:  BRANCH_DIRECT_JUMP:  Count Percentage: 12.3264 5.28008 4.70041 8.46858 3.59316 2.23903 1.14034 62.252 
Branch_type:  BRANCH_INDIRECT:  Count Percentage: 5.50811 1.17224 3.71244 0 2.94091 10.662 21.5089 54.4954 
Branch_type:  BRANCH_CONDITIONAL:  Count Percentage: 26.1906 2.75435 2.36096 8.47345 1.58755 3.0139 2.02364 53.5956 
Branch_type:  BRANCH_DIRECT_CALL:  Count Percentage: 0.711739 1.27878 1.85023 5.76355 2.23998 2.054 0.862084 85.2396 
Branch_type:  BRANCH_INDIRECT_CALL:  Count Percentage: 8.68819 0.84041 2.96409 5.07371 0 2.30152 1.47767 78.6544 
Branch_type:  BRANCH_RETURN:  Count Percentage: 3.72312 0.742109 1.63355 10.1069 2.1491 6.13464 3.60133 71.9093 
Branch_type:  BRANCH_DIRECT_JUMP:  Total Count: 145300 62240 55407 99825 42355 26393 13442 733807 
Branch_type:  BRANCH_INDIRECT:  Total Count: 18969 4037 12785 0 10128 36718 74073 187673 
Branch_type:  BRANCH_CONDITIONAL:  Total Count: 3302954 347357 297746 1068606 200210 380090 255206 6759062 
Branch_type:  BRANCH_DIRECT_CALL:  Total Count: 12602 22642 32760 102049 39661 36368 15264 1509248 
Branch_type:  BRANCH_INDIRECT_CALL:  Total Count: 27799 2689 9484 16234 0 7364 4728 251665 
Branch_type:  BRANCH_RETURN:  Total Count: 77863 15520 34163 211369 44945 128296 75316 1503866 
Number of unique branch instructions: 9748
Upper 32 bits: 
aaaa
ffff
ffff0000
Unique upper 32 bits: 3
Unique upper 36 bits: 3
Unique upper 40 bits: 5
Unique upper 44 bits: 32
Unique upper 48 bits: 153
Offset_3 4023
Offset_4 239
Offset_5 454
Offset_6 500
Offset_7 579
Offset_8 499
Offset_9 456
Offset_10 359
Offset_11 311
Offset_12 269
Offset_13 207
Offset_14 222
Offset_15 188
Offset_16 218
Offset_17 144
Offset_18 118
Offset_19 229
Offset_20 137
Offset_21 239
Offset_22 391
Offset_23 241
Offset_24 331
Offset_25 88
Offset_47 82
Offset_64 1
decode_dispatch_called: 26733056 75.0258
Dispatch_width: 0 14367203 53.7432 40.3213
Dispatch_width: 1 1077668 4.03122 3.02446
Dispatch_width: 2 894862 3.3474 2.51141
Dispatch_width: 3 512329 1.91646 1.43784
Dispatch_width: 4 6795360 25.4193 19.0711
Dispatch_width: 5 99622 0.372655 0.279587
Dispatch_width: 6 2986012 11.1697 8.38019
Empty_decode_cycles: 8898744 24.9742
ROB_full_cycles: 10772221 30.232
Starvation_cycles_per_kilo_instr: 218.736
Starvation_cycles_per_kilo_instr_3: 149.786
Starvation_cycles_per_kilo_instr_0: 124.937
Branch_type_1  (3,1)  (4,8)  (5,35)  (6,68)  (7,116)  (8,130)  (9,120)  (10,87)  (11,72)  (12,44)  (13,6)  (14,2)  (15,3)  (16,4)  (18,1)  (19,4)  (20,2)  (21,1)  (22,3)  (23,2)  (24,10)  (25,12) 
Branch_type_2  (3,1)  (5,1)  (8,2)  (9,3)  (12,1)  (13,1)  (14,1)  (16,3)  (17,2)  (20,2)  (21,2)  (23,5)  (24,1)  (47,38) 
Branch_type_3  (3,4021)  (4,231)  (5,414)  (6,417)  (7,434)  (8,309)  (9,252)  (10,148)  (11,126)  (12,54)  (13,5)  (64,1) 
Branch_type_4  (6,3)  (7,8)  (8,24)  (9,50)  (10,58)  (11,57)  (12,93)  (13,89)  (14,100)  (15,89)  (16,97)  (17,64)  (18,53)  (19,112)  (20,71)  (21,127)  (22,207)  (23,136)  (24,192)  (25,72) 
Branch_type_5  (8,2)  (9,1)  (10,3)  (11,5)  (12,3)  (13,14)  (14,16)  (15,11)  (16,20)  (17,11)  (18,16)  (19,12)  (20,10)  (21,13)  (22,42)  (23,26)  (24,36) 
Branch_type_6  (5,4)  (6,12)  (7,21)  (8,32)  (9,30)  (10,63)  (11,51)  (12,74)  (13,92)  (14,103)  (15,85)  (16,94)  (17,67)  (18,48)  (19,101)  (20,52)  (21,96)  (22,139)  (23,72)  (24,92)  (25,4)  (47,44) 
aaaaab1fc620: 2ac9e77e 2aca717c 2aca8eff 2acaf6bc 2acaf9aa 2acaf9f1 2acb1abc 2acb1b7f 2acd4e22 2acdb712 2acf5f9e 2ad0ef44 2ad3f15c 2ad414e6 2ad60e42 2ad8609c 2ad99830 2ada35cc 2ada4676 2ada6612 2adf183e 2adf30e5 2adf5602 2adf785c 2ae11572 2aeb2dcf 2aee101b 2aee1ae1 2aee9456 2b156a8c 2b156b61 2b156bea 2b167f35 2b177656 2b17feec 2b1a3e5a 
aaaaab1fc740: 2aca1fb0 2aca45b3 2aca5aa1 2aca5c69 2aca66f9 2aca9426 2acaeecb 2acf3d2d 2acf3d64 2acf6089 2ad017ea 2ad5e7ef 2ad61064 2ad87373 2ad9bf84 2ad9c093 2ae9b606 2aea9ffa 2aee99f5 2aee9a2c 2aeece4b 
aaaaac68f310: 2ac9ec8c 2ac9fb44 2ac9fbd2 2aca59ab 2acac04c 2acaf6e0 2acaf6ec 2acaf6f9 2acaf700 2acaf708 2acf2d90 2ad3cfbd 2ad3cfc4 2ad3d000 2ad3f35f 2ad4955d 2ad49571 2ad4f3f2 2ad4f400 2ad5f240 2ad5f37c 2ad5f86a 2ad5f86f 2ad5f880 2ad5fc0d 2ad5fc14 2ad5fc21 2ad5fe1b 2ad873bb 2ad873e3 2ad8a6b2 2ad9086e 2ad93096 2ad9bbb2 2ada152c 2ada1554 2ada3332 2ada5522 2adf3130 2adf313c 2adf3a3f 2adf3bd9 2adf5788 2adf7a8d 2ae07f6b 2ae0857a 2ae0857e 2ae08630 2ae08634 2ae08637 2ae08642 2ae0866f 2ae086e4 2ae086ec 2ae08717 2ae0871b 2aee0170 2aee1d38 2aee75f4 2aee7662 2aee85ca 2aee85e4 2aee8eef 2aee9a0a 2af70b84 2af74e8f 2b17d843 
aaaaac690ef0: 2aca598b 2acb111b 2acb175f 2acb1772 2acbfaf4 2acbfb00 2acf374f 2acf6d43 2acfa5c8 2ad3baf1 2ad3d4ac 2ad3d4b8 2ad3f1cf 2ad486b2 2ad5a59b 2ad5fc64 2ad5fcf9 2ad6121c 2ad906e9 2ad907bf 2ad9bada 2ada16ce 2ada1ad5 2ada43df 2ada64c0 2ada72ee 2adeb71a 2adf3bcb 2adf7a38 2adf7c6a 2adf8872 2adf8880 2adf9959 2adf9abe 2ae07f78 2ae08503 2ae08754 2ae12e80 2aea3bea 2aecb509 2aee00b0 2aee2bdd 2aee5467 2aee5601 2aee8f20 2af703fd 2af7048b 2af74e74 2dfba627 
Unique trigger count: 
1 9307
2 485
3 90
4 31
5 8
6 7
7 8
8 1
9 2
10 1
11 2
12 1
13 3
16 2
18 2
19 2
21 1
36 1
49 1
67 1
BTB PER SET UNIQUE ADDR: 0 1 1 1 0 0 0 0 0 0 0 0 1 0 0 1 1 0 0 1 0 1 1 2 0 2 0 1 1 0 1 0 1 0 0 1 0 1 4 0 1 0 1 2 1 0 1 0 1 1 0 0 1 0 0 1 1 2 0 0 0 0 0 1 0 1 0 0 0 1 1 0 1 0 0 0 1 2 1 1 1 0 1 1 1 2 0 1 3 1 1 2 1 1 1 0 0 0 0 0 0 2 0 1 0 1 0 0 0 0 1 0 0 1 0 1 0 0 0 0 0 0 0 0 0 0 0 0 2 0 1 0 0 0 1 0 0 0 0 1 0 0 1 0 0 0 0 1 1 1 0 3 1 0 0 0 0 0 0 0 0 0 0 1 0 0 0 0 2 1 0 0 1 0 0 0 0 1 0 0 0 0 1 0 0 1 0 0 0 0 2 0 1 2 0 1 1 0 0 1 0 1 0 0 0 0 0 0 0 0 0 1 1 1 1 0 0 1 0 0 0 0 1 1 1 0 0 0 0 1 1 0 0 0 0 2 1 0 0 0 1 0 1 0 3 1 0 0 1 0 1 0 0 1 0 2 1 0 0 0 2 1 1 0 2 3 1 0 1 0 0 0 0 1 0 1 0 0 0 1 1 0 0 0 1 1 0 0 0 0 0 0 0 0 0 0 1 2 0 0 1 0 1 0 1 0 2 0 0 0 1 0 0 0 2 0 1 1 0 1 0 0 0 0 0 0 1 1 0 0 0 0 1 0 1 0 0 0 2 0 2 0 0 0 0 0 1 0 0 0 0 1 0 2 1 0 1 0 2 0 0 2 1 0 1 1 0 0 0 0 1 0 0 0 0 1 0 0 1 0 0 0 0 1 0 0 1 0 0 0 0 0 1 0 0 0 0 0 0 1 1 1 0 0 0 0 1 1 0 0 0 0 0 0 1 0 2 0 0 1 1 0 1 2 0 2 0 0 0 0 0 0 1 1 1 0 0 0 0 0 0 2 0 1 0 0 0 0 0 0 0 0 0 0 1 0 1 0 2 0 2 0 1 1 0 0 0 0 1 2 0 0 1 1 2 0 0 1 0 0 0 0 0 2 0 0 1 0 0 1 1 0 0 1 0 2 0 1 0 0 1 0 0 0 0 0 0 0 0 1 1 1 0 0 2 0 0 1 1 3 1 1 1 1 3 0 0 1 1 1 1 1 0 2 1 1 0 0 3 0 0 2 1 0 0 1 2 2 0 2 0 0 0 1 0 1 1 0 0 0 3 0 0 0 0 0 0 0 1 2 1 0 1 1 0 0 0 0 0 0 0 0 0 0 0 0 0 0 0 0 0 0 0 0 0 0 1 0 0 0 0 0 0 1 0 1 0 1 0 0 1 0 0 0 0 0 0 0 0 0 0 0 1 0 1 1 0 0 0 0 2 0 0 1 0 0 0 0 0 0 0 0 1 0 1 0 0 0 0 0 0 0 0 0 0 0 0 0 0 1 0 1 0 1 1 1 1 0 0 0 1 0 1 0 1 1 0 1 1 0 1 0 0 0 0 0 1 1 1 0 0 0 0 1 0 1 1 1 0 0 0 1 0 1 0 0 0 0 0 0 1 1 0 0 1 0 1 1 0 0 0 0 0 0 0 0 0 0 0 1 0 1 0 0 0 0 2 1 1 0 1 1 1 0 1 0 0 0 0 1 0 0 1 0 0 1 1 2 0 0 1 0 0 0 0 0 1 0 0 1 2 0 0 1 0 1 3 0 1 1 1 0 0 0 1 1 1 1 0 0 1 0 0 0 1 1 1 0 0 0 0 0 0 0 0 0 0 0 0 1 0 1 0 0 0 0 1 0 0 0 2 0 1 0 0 0 0 1 0 0 0 1 1 0 0 0 0 0 1 0 0 0 0 0 0 1 0 2 1 0 1 0 1 0 0 0 0 0 0 0 0 0 0 0 0 0 0 0 1 0 0 0 0 0 0 0 0 0 2 1 1 1 0 0 0 0 0 1 0 0 0 0 0 0 0 0 2 0 1 0 0 0 0 1 0 1 0 0 0 1 0 1 0 0 0 0 0 0 0 0 0 1 1 0 1 0 0 0 1 0 0 0 2 0 1 0 0 1 0 0 0 0 0 1 0 0 1 0 0 1 0 0 0 0 0 0 0 2 0 0 2 0 1 1 0 1 4 1 0 1 0 0 0 0 1 0 1 3 0 0 2 1 1 2 1 0 0 1 2 0 2 1 0 0 1 0 0 1 0 2 0 0 2 0 1 1 2 0 0 0 0 0 1 0 0 0 1 1 0 1 1 1 4 2 0 0 0 1 1 1 3 2 1 1 1 0 0 1 1 0 0 0 0 2 0 1 2 0 2 3 0 1 0 2 1 1 2 1 1 0 0 0 0 0 2 0 1 1 2 0 1 3 0 2 0 0 3 0 0 1 0 0 0 1 1 2 1 2 0 2 0 2 1 2 1 0 2 0 0 1 0 2 1 0 1 1 1 1 0 2 0 2 1 2 1 1 1 0 1 2 1 1 1 0 0 2 1 2 0 1 1 1 1 0 1 1 0 0 1 0 0 0 1 0 1 0 0 1 1 2 0 2 1 0 1 0 1 1 0 0 0 0 0 3 0 1 1 1 0 1 0 0 1 0 3 0 0 1 2 4 2 1 0 3 4 0 2 0 0 0 0 1 1 0 1 0 2 3 1 0 0 1 2 1 0 1 0 0 0 2 1 3 0 2 0 1 0 0 2 3 3 0 4 0 0 0 1 1 2 0 2 1 1 1 0 0 0 1 1 1 0 1 1 2 2 0 2 1 0 2 2 2 1 1 0 2 0 0 1 3 5 1 1 1 0 1 2 1 2 0 0 1 1 0 4 2 1 0 0 0 1 1 0 0 1 0 0 1 2 2 0 0 2 0 0 0 0 2 1 0 1 0 0 1 1 0 2 1 4 1 1 2 1 0 1 1 0 2 1 0 0 2 0 1 2 0 0 0 0 1 0 1 0 1 0 1 1 0 0 0 0 0 0 0 0 1 0 0 0 0 1 2 1 0 1 0 0 0 1 2 1 1 1 1 0 2 0 2 2 0 1 0 0 1 1 2 1 1 1 0 1 1 0 0 1 2 0 1 1 0 1 0 0 1 1 1 1 1 1 0 4 1 1 1 0 0 1 3 0 1 0 2 0 1 2 0 0 0 0 1 0 0 0 0 0 1 1 1 0 1 0 0 1 0 1 0 0 0 0 1 0 0 0 0 0 2 1 1 3 1 1 0 1 1 1 0 1 0 0 3 0 0 0 0 0 1 1 0 0 0 0 0 0 0 0 0 0 0 2 0 0 0 1 0 1 0 0 2 0 0 1 1 1 1 1 0 0 1 0 0 1 0 1 1 1 2 0 0 1 0 2 1 0 0 2 0 0 1 0 1 1 1 1 1 0 1 1 1 0 1 1 0 0 0 2 0 0 0 0 0 0 1 0 2 1 0 1 1 0 1 0 0 1 0 0 1 0 0 0 1 1 0 0 1 1 1 0 0 0 1 1 2 1 0 0 1 2 0 0 0 4 1 2 0 2 0 2 2 1 1 1 2 4 0 1 0 2 1 0 5 2 2 1 2 3 0 0 2 0 1 1 0 1 0 2 0 0 1 0 1 2 0 0 0 1 1 2 1 3 0 0 0 2 0 0 2 1 0 0 0 0 2 0 1 0 1 1 0 1 1 1 1 0 1 1 1 1 0 1 0 0 0 1 1 1 2 0 0 1 1 0 1 1 0 0 1 1 0 0 0 0 0 0 2 1 0 0 2 0 0 0 0 0 2 0 0 1 1 2 1 1 1 4 0 1 3 3 2 2 1 0 2 0 1 1 1 0 0 0 0 1 1 2 0 0 1 1 1 0 0 0 0 0 1 1 1 0 1 0 0 1 0 0 0 0 0 1 0 0 0 0 0 1 1 0 1 2 0 2 1 0 0 0 0 0 2 0 0 0 0 0 0 1 0 3 0 1 0 0 0 1 0 0 0 0 0 0 0 0 0 1 1 0 0 1 0 0 1 1 0 0 4 0 0 0 0 1 1 1 0 2 0 3 1 0 1 0 2 1 1 2 0 1 0 3 0 1 0 1 0 1 0 0 1 0 0 1 1 0 0 0 0 1 0 1 0 1 0 1 1 1 0 0 1 0 1 1 0 0 0 0 0 0 2 2 2 0 0 0 1 0 0 0 1 0 1 1 0 0 2 0 0 1 0 0 0 2 0 0 0 0 1 1 1 0 0 0 0 1 0 0 0 0 0 0 0 0 0 1 0 0 1 1 1 0 0 0 0 0 0 0 0 1 1 1 0 1 0 1 0 0 0 0 0 0 0 0 0 0 0 0 0 1 0 2 1 1 2 1 0 0 1 0 0 0 0 0 1 0 2 0 1 0 1 2 3 0 0 0 0 2 0 1 0 0 0 1 1 0 0 0 0 0 3 1 0 1 1 0 0 0 0 2 0 0 1 1 0 0 1 0 0 0 1 2 0 0 0 2 0 0 0 1 1 0 0 0 2 0 1 0 2 0 0 0 1 0 0 1 0 1 0 1 0 1 0 1 0 0 0 0 0 0 0 0 1 0 0 1 1 1 0 1 0 1 1 1 0 0 0 1 2 1 1 0 1 0 1 1 1 0 0 1 2 0 0 1 0 1 3 0 1 0 0 1 0 0 1 1 1 0 1 2 1 1 0 2 1 1 0 0 1 0 0 0 0 0 1 0 1 0 0 0 0 1 0 0 0 0 0 0 0 1 0 1 0 0 0 0 1 0 0 0 0 1 0 0 0 1 0 1 1 0 0 0 0 1 1 0 0 0 0 0 0 0 0 0 0 1 0 1 0 0 1 1 0 2 1 0 1 0 0 0 0 0 0 2 1 1 0 1 0 1 0 2 0 0 0 1 0 1 1 0 1 1 0 1 0 0 1 1 1 1 0 2 0 2 0 2 2 0 2 1 1 2 0 2 0 0 0 1 0 0 0 1 0 1 0 0 1 1 0 1 0 0 0 1 1 0 1 2 1 1 2 1 1 1 1 1 1 1 0 3 1 0 2 2 0 2 2 2 1 0 1 2 1 2 0 0 0 0 0 0 1 0 0 0 0 0 0 0 0 0 0 1 0 0 0 0 0 1 1 2 1 0 0 1 1 0 1 0 0 0 0 0 1 1 0 1 0 0 0 1 1 0 0 0 0 0 0 1 0 0 0 0 0 0 0 1 0 1 0 2 0 1 0 0 0 0 2 0 1 1 0 1 0 0 0 0 0 0 0 1 0 1 0 1 1 1 0 1 0 1 1 1 3 0 0 0 3 1 1 1 0 0 1 0 0 1 0 0 1 0 0 0 0 1 0 0 0 1 1 2 0 0 0 1 0 1 3 1 1 2 0 0 0 1 0 1 2 1 2 3 2 0 1 0 1 0 0 0 1 3 1 1 1 1 0 2 1 0 0 2 1 1 1 1 1 3 1 1 0 0 1 2 1 1 1 0 0 0 0 0 2 1 0 0 0 0 1 0 2 1 0 2 2 1 1 0 0 2 1 1 0 2 0 1 1 0 1 2 0 2 2 0 0 0 0 0 0 1 1 0 2 0 0 1 0 1 0 1 0 2 0 0 1 2 1 0 2 1 1 1 1 1 1 2 0 0 2 2 0 0 0 1 3 0 1 2 0 2 0 0 1 1 0 1 0 2 1 0 2 0 2 1 1 0 1 1 0 0 0 1 0 1 1 1 1 0 0 0 3 0 1 0 1 0 1 0 3 1 0 0 3 0 2 1 1 0 0 0 1 0 1 1 1 1 1 0 2 0 0 0 1 1 0 0 1 0 0 1 1 0 0 0 1 1 0 0 0 1 0 0 0 1 0 0 1 0 0 0 0 0 0 2 2 1 1 1 2 0 0 0 0 0 2 2 1 1 2 0 0 1 0 1 0 2 0 3 2 2 3 1 3 1 0 0 3 1 0 0 0 0 2 0 0 0 1 0 2 2 1 0 2 1 1 1 0 2 2 1 1 2 1 2 3 0 1 1 1 0 0 0 0 0 1 1 1 1 0 1 1 0 0 0 0 1 0 1 0 0 1 0 1 3 2 0 2 0 0 1 4 0 0 1 2 0 0 1 1 3 0 0 2 1 0 0 1 1 1 0 0 0 0 3 0 3 0 0 2 1 1 0 0 2 0 1 0 1 1 3 0 0 1 4 0 0 0 1 0 0 0 1 0 0 1 1 0 2 1 0 0 0 2 0 2 1 0 0 1 1 1 1 1 1 0 1 0 0 2 0 1 1 0 0 2 0 0 0 1 0 3 1 1 3 1 1 1 0 1 0 1 2 0 2 1 0 0 0 1 0 0 3 3 0 0 0 1 0 1 0 1 0 1 2 0 0 0 2 1 1 1 1 0 1 1 0 0 1 0 1 0 1 1 0 1 0 0 0 1 1 1 0 0 1 1 2 0 2 0 1 1 0 0 0 0 0 0 2 0 1 2 0 2 0 1 0 1 2 0 0 2 0 0 0 1 1 3 0 4 0 0 1 2 2 3 0 1 0 2 2 1 0 0 0 0 2 2 0 2 3 0 2 2 1 0 1 2 2 0 0 1 0 0 0 0 0 1 3 1 1 1 1 2 1 2 1 0 2 1 0 2 0 1 0 0 1 0 1 1 1 1 1 0 0 1 2 2 1 0 2 3 1 1 1 3 1 1 2 1 0 0 0 1 2 1 1 0 3 0 0 2 1 1 0 2 2 1 0 0 0 0 0 2 1 0 1 1 0 1 0 0 1 0 3 1 0 0 4 0 1 0 1 0 1 0 1 0 1 1 0 0 1 2 0 1 2 0 0 0 0 1 0 1 0 1 1 1 2 1 1 2 0 0 0 0 0 0 0 1 2 1 1 1 0 0 1 1 1 3 2 0 0 0 2 0 0 1 1 1 1 1 0 1 0 2 0 2 0 1 0 1 0 0 0 0 0 0 1 0 0 0 0 0 0 0 0 1 0 3 1 0 1 0 3 0 0 2 0 0 3 1 1 0 0 1 0 1 1 0 0 0 0 0 1 0 1 1 1 0 2 0 2 0 4 1 2 1 1 2 1 3 1 0 3 0 1 1 1 1 1 1 1 0 1 1 2 1 2 1 0 2 0 0 1 0 0 1 1 0 1 1 2 1 1 1 2 0 1 0 1 1 2 0 2 0 1 0 1 1 1 0 0 0 1 1 1 1 0 1 0 2 1 0 0 2 0 1 1 0 1 1 2 0 3 0 3 1 1 1 1 2 0 0 1 0 1 0 1 0 1 0 1 0 1 2 1 2 1 0 1 2 0 2 1 0 0 1 1 0 1 0 0 0 1 0 1 0 1 0 1 0 0 0 2 1 1 0 1 1 0 1 0 0 2 0 1 2 4 0 0 1 0 1 1 1 0 0 0 0 0 0 1 0 1 1 0 0 0 1 0 0 1 0 0 1 1 0 0 1 1 1 1 1 1 0 2 0 0 0 0 1 2 0 1 1 1 2 1 0 1 0 1 2 1 1 0 0 1 1 3 1 0 1 0 1 3 0 1 0 1 0 0 1 2 0 2 0 0 0 0 2 1 0 2 0 0 0 2 4 1 2 1 0 1 1 0 1 0 0 0 0 0 1 0 1 0 0 0 2 0 0 0 0 0 2 0 0 0 0 2 0 0 1 2 1 0 0 2 0 2 0 0 0 0 1 0 0 2 1 0 0 0 0 0 0 0 0 0 1 1 1 0 2 0 1 2 1 1 0 0 0 2 0 3 1 2 1 0 3 0 0 0 0 1 0 2 0 2 0 1 0 1 0 2 1 0 0 1 0 0 1 1 0 0 0 2 1 0 0 0 1 1 1 1 1 3 0 0 3 1 3 1 1 1 0 2 2 2 1 1 1 2 0 2 0 1 0 2 1 0 1 1 1 2 0 2 1 4 0 0 1 1 1 3 1 1 0 3 0 0 1 2 0 0 0 1 3 1 0 0 0 1 2 1 1 1 3 0 1 1 1 4 0 0 0 1 1 2 1 0 1 1 0 1 1 1 1 0 1 1 1 1 0 1 0 2 1 1 0 2 1 0 2 0 0 1 1 1 0 1 1 1 1 1 1 3 1 1 2 1 0 1 0 0 0 0 2 1 0 0 0 1 1 0 0 1 1 1 1 1 0 2 0 3 1 1 0 0 1 0 1 2 1 0 1 1 1 1 1 0 0 0 0 0 0 0 0 0 2 0 0 0 1 2 0 1 0 1 1 1 1 1 0 0 2 1 1 1 1 1 1 0 0 0 0 1 1 1 2 0 1 1 0 0 1 1 0 2 1 1 0 0 2 0 2 0 1 1 1 0 2 1 0 0 0 0 0 0 1 0 2 3 0 0 0 0 2 1 0 1 2 1 1 0 0 0 0 0 0 0 1 1 1 0 1 0 0 1 1 1 0 1 0 0 1 0 0 0 1 0 0 2 1 0 0 1 3 0 2 1 1 1 0 1 0 1 1 1 2 0 0 1 0 0 0 1 0 0 2 0 1 0 2 0 0 0 1 0 0 0 0 0 1 1 1 1 0 0 0 2 0 0 0 0 1 0 0 0 2 1 0 1 1 1 0 1 0 1 0 0 0 1 1 0 0 2 0 0 1 1 0 0 0 0 0 1 1 1 1 0 1 1 2 1 1 0 0 0 1 0 0 1 1 0 0 0 0 1 0 1 0 1 1 1 1 0 0 0 1 0 0 0 1 0 0 0 0 0 0 0 1 0 0 1 0 1 0 0 0 0 0 0 0 1 1 1 1 0 1 1 0 1 2 0 1 0 1 1 0 0 0 0 0 0 1 0 1 2 0 1 1 1 0 0 1 0 2 0 1 1 0 0 0 0 0 0 1 2 1 1 1 2 0 0 1 1 1 1 2 0 1 2 3 0 0 2 0 1 2 0 0 1 0 1 0 0 1 1 0 1 0 1 1 0 1 0 3 1 0 0 1 1 0 0 1 0 0 1 1 0 1 1 1 1 0 0 0 0 0 2 0 1 0 1 1 1 2 1 2 1 1 1 1 2 0 0 1 0 2 0 0 0 0 3 1 2 0 0 0 3 0 0 0 0 0 0 1 1 1 0 0 0 1 1 0 0 1 1 0 0 1 1 0 0 1 0 0 1 1 0 0 0 0 0 1 2 0 1 1 1 0 0 2 0 0 1 2 1 1 0 0 1 1 3 0 1 0 0 1 0 0 1 1 1 1 0 0 0 1 1 1 1 1 0 1 1 1 1 0 2 0 0 2 0 0 0 2 1 1 0 0 1 1 3 0 1 1 1 0 0 1 2 1 1 1 1 2 2 1 0 3 4 0 2 1 4 1 0 2 1 1 1 4 0 0 0 1 1 3 2 0 1 3 0 1 2 1 1 2 1 0 1 3 0 1 3 0 1 2 1 1 1 1 4 0 0 1 3 1 1 2 1 2 1 0 3 2 2 0 1 1 1 1 0 2 2 0 1 0 1 1 0 0 1 1 2 2 1 0 0 0 1 2 2 1 1 2 0 2 1 0 0 2 1 1 0 0 0 0 2 2 0 1 3 0 1 2 2 1 1 0 1 0 3 1 1 2 4 2 2 1 2 0 1 1 2 1 0 0 1 0 0 1 0 0 2 0 1 0 0 0 1 0 0 0 0 1 1 0 1 1 0 1 1 0 0 0 0 1 1 0 2 2 0 1 4 2 1 1 1 0 1 0 1 1 0 0 0 1 2 1 1 1 1 1 0 1 1 0 0 2 1 2 2 2 1 2 1 2 0 1 2 0 1 1 2 2 1 1 2 1 1 0 3 1 1 2 1 1 1 2 2 1 1 1 0 0 1 2 0 1 2 0 0 1 1 2 0 1 1 2 1 2 3 3 1 1 2 2 1 0 1 1 1 0 1 1 2 2 0 2 0 2 0 0 3 0 1 2 2 1 1 2 2 0 0 0 0 1 1 2 0 1 0 2 1 1 2 0 1 2 0 0 1 0 0 0 0 2 2 1 1 0 0 0 2 1 2 0 1 1 2 1 1 3 0 0 1 2 0 0 1 1 2 1 1 2 1 2 2 0 3 0 0 1 2 0 3 1 1 0 1 2 0 1 0 1 1 1 0 0 1 1 1 1 0 1 1 0 1 1 0 0 1 3 1 0 4 1 2 3 2 1 0 0 0 2 3 2 2 1 1 3 1 1 3 0 0 0 2 0 0 3 0 1 1 0 2 1 0 0 1 0 0 1 0 1 0 0 0 1 0 0 0 0 0 1 1 0 0 2 1 0 2 0 1 1 1 1 0 1 1 0 3 0 2 0 0 1 0 2 1 0 0 1 2 1 2 2 0 0 1 2 0 1 0 0 2 0 0 2 0 2 2 0 3 0 2 0 0 3 0 0 0 0 0 2 2 0 5 0 3 2 4 3 1 3 2 2 0 0 0 0 0 1 4 0 1 2 1 0 0 1 1 1 2 0 0 3 1 0 0 1 0 0 0 1 0 0 1 0 0 4 2 2 2 3 0 1 1 2 1 0 0 1 0 0 1 2 1 0 1 0 3 0 1 1 3 1 2 0 2 0 2 1 3 1 2 0 1 0 1 2 1 0 1 1 0 0 2 1 0 0 1 1 4 1 2 2 0 0 1 0 2 0 1 1 3 1 1 0 3 0 1 2 2 1 3 2 1 0 0 1 0 0 3 1 0 0 4 1 0 0 1 2 0 0 1 2 1 1 0 1 1 1 0 2 1 0 1 2 2 2 2 2 0 1 0 1 1 1 0 1 0 0 0 1 0 1 1 0 0 0 0 2 1 0 1 1 0 1 1 1 0 2 2 1 1 0 1 1 2 0 0 0 0 1 0 2 0 0 2 1 1 1 0 0 0 2 0 0 1 1 1 0 0 1 0 2 0 1 2 1 0 1 0 2 0 0 1 1 0 1 0 0 0 1 0 0 2 2 2 2 0 0 0 3 0 0 1 2 2 1 1 0 2 2 1 2 1 1 1 3 0 1 0 1 1 0 2 1 0 0 0 3 1 0 0 0 2 0 1 0 1 4 1 0 1 1 3 0 1 0 2 2 0 1 0 1 0 0 3 0 1 0 1 0 2 1 2 1 0 0 1 0 0 0 0 1 4 1 1 0 1 0 1 1 1 2 1 0 2 0 1 0 1 0 1 0 0 0 0 1 0 0 2 0 1 2 1 1 2 0 0 1 1 0 0 0 1 2 0 1 0 3 3 2 0 0 0 1 0 0 1 2 3 0 2 1 1 0 3 0 1 1 3 1 2 2 1 1 1 0 0 1 1 1 0 2 2 2 0 2 1 0 1 0 4 1 1 0 4 0 2 1 0 1 1 1 2 3 3 1 2 0 1 1 0 2 1 1 2 0 1 2 1 1 0 1 0 1 1 0 0 1 1 0 1 2 1 1 2 1 1 1 0 1 1 1 1 2 1 2 0 1 2 0 2 0 1 2 2 1 1 2 2 0 3 1 0 2 2 0 0 0 0 2 1 0 2 0 0 0 0 0 2 0 1 1 0 1 1 1 1 0 0 0 3 0 0 2 0 0 0 1 0 1 0 0 0 0 0 1 1 2 0 1 3 0 0 1 4 0 1 0 1 1 2 1 0 2 1 1 2 1 1 2 1 0 0 0 2 0 1 1 1 3 0 0 2 0 0 0 2 0 1 0 2 2 1 1 1 1 0 1 3 1 0 1 1 0 2 0 0 3 0 1 1 1 0 2 0 1 2 1 0 2 0 0 0 2 1 0 0 0 1 1 1 0 0 1 2 1 1 0 2 0 0 0 2 0 1 1 1 3 0 1 3 0 0 1 1 1 0 0 0 3 0 3 0 0 0 1 2 0 0 0 2 0 0 1 0 1 0 0 0 1 1 0 1 0 0 0 1 2 0 1 2 0 0 1 0 0 0 1 2 0 0 0 0 1 0 0 2 0 0 2 1 0 1 1 0 3 0 2 0 0 0 3 1 1 0 1 0 0 1 1 0 2 2 1 0 0 2 0 0 0 1 1 0 0 1 1 1 1 1 0 0 1 0 1 3 0 0 2 0 0 2 1 2 0 0 0 0 1 1 0 1 1 1 0 1 0 4 0 0 1 0 3 1 0 0 0 0 1 0 0 1 1 1 1 0 1 1 0 0 2 1 0 0 3 1 1 1 2 1 0 1 2 0 1 2 1 1 2 0 0 2 0 2 1 0 1 1 1 1 0 0 0 1 0 1 1 1 0 0 0 0 0 1 2 1 1 0 1 1 0 1 0 0 1 0 1 0 1 0 1 0 1 2 0 3 0 3 2 0 0 1 1 2 0 0 0 2 0 1 1 0 2 1 0 2 0 1 0 1 1 0 1 0 1 1 1 2 0 0 1 1 3 2 0 1 0 0 1 1 0 0 2 0 1 1 0 0 1 0 0 1 1 0 1 0 2 1 0 0 0 0 0 0 0 0 0 0 0 1 0 1 0 0 0 0 0 0 0 0 0 0 0 0 0 1 0 0 0 1 0 0 0 0 0 0 2 1 0 0 0 2 0 0 0 1 1 1 0 1 0 0 0 0 0 1 0 1 0 1 0 0 1 1 0 0 0 0 1 0 1 0 0 2 1 1 1 0 0 0 0 0 0 1 0 0 1 0 0 0 1 0 0 0 0 0 0 1 0 1 1 1 2 0 0 1 0 0 0 0 0 0 0 1 0 1 1 0 0 0 0 2 0 0 0 0 1 0 0 0 0 1 0 0 1 0 1 1 1 2 0 2 0 0 0 0 1 1 0 1 1 1 1 1 0 0 0 2 0 0 1 0 1 1 0 2 0 0 0 0 0 1 1 2 0 0 1 0 1 0 1 0 0 2 1 1 1 2 1 3 0 1 0 1 0 1 1 0 3 1 0 0 0 0 2 2 1 0 0 1 0 1 0 1 1 0 0 0 0 0 1 2 1 0 1 1 0 1 1 1 1 1 0 0 0 0 1 1 1 0 0 0 1 1 0 1 0 1 1 1 0 0 1 1 3 0 0 1 1 0 1 2 1 0 0 0 0 0 2 2 0 0 0 0 2 2 0 1 2 0 0 1 1 0 1 1 0 2 2 0 0 0 2 0 1 1 1 0 0 0 0 0 0 2 0 1 0 1 0 1 0 2 1 1 1 0 3 0 0 0 1 0 1 1 0 0 0 0 1 1 0 0 1 0 0 1 1 1 1 0 1 2 0 2 0 0 0 1 1 1 2 1 0 2 1 2 1 1 2 3 0 0 3 0 1 0 1 1 3 2 0 1 1 2 0 2 0 2 2 1 2 0 0 1 0 0 1 0 2 0 1 1 2 1 1 3 1 1 1 2 0 1 0 3 0 2 2 2 2 2 1 0 0 1 0 0 0 1 1 0 0 0 1 0 0 0 2 0 1 2 1 2 0 2 0 0 2 2 0 1 1 1 0 0 2 2 1 1 0 0 1 0 0 0 0 0 1 0 1 2 0 0 1 0 0 0 1 1 1 1 0 1 0 2 2 1 0 1 1 0 1 1 2 1 2 1 0 1 0 2 1 0 1 0 1 1 0 1 2 0 1 0 1 0 0 2 1 0 2 2 2 0 1 0 1 1 0 0 1 3 0 1 0 1 0 2 0 0 0 2 3 0 3 1 0 2 0 1 1 1 1 0 1 0 1 0 1 2 1 1 0 0 2 2 1 0 0 0 3 1 0 2 2 1 0 3 1 0 0 1 2 0 0 0 2 1 0 2 0 0 0 1 2 1 0 1 0 1 1 2 1 0 2 3 1 3 0 0 1 0 0 0 0 1 0 0 0 0 0 3 0 0 1 1 0 2 1 2 2 1 1 2 1 0 2 1 1 3 1 2 1 2 2 0 2 1 1 1 1 1 2 3 1 1 2 0 1 1 1 1 0 0 1 1 0 3 1 0 1 0 1 1 0 0 2 1 3 0 0 0 2 0 2 0 0 0 1 1 0 0 0 0 2 0 0 0 0 2 1 0 1 0 0 2 0 0 1 1 0 1 0 1 0 0 1 0 2 0 0 0 3 1 2 0 1 1 0 2 1 0 0 0 1 1 0 1 1 1 2 2 0 2 1 0 1 2 1 1 1 0 1 1 3 0 2 0 1 1 2 1 2 0 0 1 1 0 1 1 3 3 1 1 0 0 1 1 0 1 0 1 1 0 1 1 4 0 0 1 0 0 1 1 3 1 1 0 2 1 0 0 1 2 1 0 1 2 3 0 0 2 1 0 2 1 2 0 1 0 0 1 2 1 0 0 1 1 0 1 1 1 1 1 1 1 1 0 1 3 1 2 0 2 1 0 2 1 1 0 0 3 1 2 3 0 0 0 1 1 0 0 2 2 1 1 1 1 1 0 1 2 0 0 1 0 1 2 1 1 0 0 1 2 0 0 1 0 1 1 0 4 1 1 2 0 2 0 0 0 1 0 3 0 0 1 1 1 1 1 1 0 1 0 0 0 0 2 1 0 0 0 0 1 0 2 1 1 1 2 2 0 1 1 0 0 1 1 1 0 0 0 2 2 0 1 0 0 0 1 0 0 2 0 0 0 1 1 0 0 0 1 0 1 1 1 0 0 1 1 1 0 0 0 1 0 0 2 0 0 1 0 3 0 1 0 1 0 1 3 1 0 1 1 1 1 0 1 0 1 1 1 0 1 0 0 0 0 0 1 1 1 1 1 2 2 0 1 0 0 1 3 0 0 2 0 0 0 0 0 0 0 1 1 0 1 0 0 0 1 1 2 1 0 1 1 2 3 0 2 0 1 0 2 3 1 1 1 1 0 3 0 1 0 0 0 0 3 0 0 1 0 3 0 2 1 1 0 0 0 1 1 1 0 0 2 1 1 0 0 0 0 0 0 1 0 0 2 0 0 0 2 0 0 2 1 1 0 0 1 1 1 0 0 0 0 1 1 0 0 0 0 1 0 0 1 1 3 0 2 1 1 1 3 0 0 1 2 1 0 2 1 3 2 0 0 0 0 0 2 0 3 2 0 0 1 0 2 4 2 3 0 2 1 2 2 0 1 2 1 3 3 0 1 1 3 1 0 2 0 2 2 3 1 2 1 0 1 3 3 0 1 0 0 0 0 3 1 0 2 2 1 0 0 1 1 2 0 0 1 0 1 1 0 1 1 3 0 0 3 1 0 1 0 0 0 0 1 0 1 0 1 2 0 0 0 2 0 2 0 1 2 0 1 0 0 0 1 0 2 0 1 1 0 0 2 2 0 2 2 1 1 0 2 0 1 3 0 0 2 0 2 0 4 1 1 0 1 1 1 2 2 0 1 4 2 0 0 1 1 1 0 0 3 0 3 1 2 1 0 1 1 1 1 0 0 1 0 2 0 2 0 0 2 1 1 0 2 1 1 0 0 0 0 0 2 1 0 1 0 0 0 0 0 0 0 2 1 1 1 1 1 1 1 1 0 0 0 2 0 0 0 1 0 0 0 1 0 0 0 0 0 0 1 1 0 1 3 1 2 1 1 0 3 2 2 0 1 1 1 0 0 2 0 1 0 0 0 2 1 2 0 3 2 0 0 0 0 1 1 0 2 0 1 2 2 1 1 2 1 0 2 0 2 2 1 0 2 1 0 1 2 0 1 1 0 1 0 1 1 1 2 1 0 0 0 0 1 0 0 0 0 0 2 2 1 1 2 0 1 0 2 1 1 1 3 1 2 1 2 2 2 1 2 2 3 1 2 1 3 2 2 0 3 0 0 1 3 2 0 0 0 3 2 0 0 0 1 1 1 2 0 4 3 1 0 0 1 2 0 2 2 1 1 1 2 3 0 0 1 1 0 1 2 0 2 2 2 1 0 0 0 1 0 2 0 0 3 0 1 3 1 1 1 1 0 1 1 4 0 3 3 2 2 2 4 1 0 3 1 1 0 1 2 2 2 2 1 1 2 0 1 1 0 2 2 2 0 0 0 1 1 3 1 0 0 2 3 0 1 1 0 2 2 0 1 0 0 1 0 2 1 1 0 0 0 1 0 1 1 2 1 5 1 1 2 2 0 1 1 1 2 0 0 1 1 0 1 0 2 1 0 1 4 0 2 0 1 0 2 0 0 0 1 0 1 1 0 1 0 0 2 1 0 2 1 1 2 0 0 2 2 0 1 1 1 3 1 1 0 1 0 0 2 2 0 0 1 1 2 0 0 1 2 1 1 1 0 1 0 1 1 1 1 0 0 1 1 1 0 1 0 2 1 2 0 1 2 1 0 1 0 0 0 1 0 0 2 1 1 2 1 1 1 3 1 0 0 2 3 0 1 1 1 2 1 0 2 0 2 1 1 0 2 2 2 3 0 1 2 3 2 1 2 0 0 1 0 3 0 0 0 0 1 1 0 0 2 0 0 2 1 0 3 0 2 1 1 2 0 0 2 1 1 3 0 2 0 1 1 1 2 1 0 2 2 1 0 3 0 1 2 1 0 1 1 0 0 1 0 0 0 2 1 0 0 0 0 1 1 0 0 2 1 1 1 1 0 0 0 0 1 1 0 1 2 2 0 1 1 0 1 0 1 3 2 1 0 1 0 0 1 0 0 0 2 0 0 1 0 2 2 0 2 0 0 1 1 2 2 1 1 3 3 3 0 0 1 3 2 2 0 0 2 2 0 1 2 2 0 2 1 1 0 4 1 2 2 4 0 0 2 0 0 0 2 1 2 5 1 3 0 1 1 4 0 3 0 4 2 1 0 1 0 0 1 1 1 2 1 2 2 1 3 1 3 1 0 2 0 4 2 3 1 0 0 1 1 2 1 1 4 0 1 0 0 0 0 1 1 3 1 0 0 2 1 1 2 1 2 1 1 1 1 1 3 0 3 1 3 1 1 0 1 2 0 0 0 3 0 4 3 0 0 0 1 0 2 2 2 0 1 3 1 3 1 2 0 1 0 1 1 1 2 1 3 0 0 0 3 0 0 2 3 2 2 3 0 0 1 0 1 0 0 0 0 0 0 0 0 2 0 1 0 1 0 2 1 0 1 2 2 0 1 0 2 0 0 1 2 1 0 1 0 2 1 0 0 2 0 2 1 1 0 1 3 0 0 1 2 0 1 0 1 0 1 0 0 0 0 2 1 0 0 0 0 0 1 2 0 2 1 2 0 0 0 0 1 1 1 0 0 1 0 1 0 2 0 2 0 0 0 0 0 0 0 2 0 0 1 2 1 0 1 0 0 2 0 0 0 1 0 1 0 0 0 0 0 1 0 0 0 2 0 1 1 1 0 1 0 3 1 1 1 0 1 0 1 2 2 2 0 1 0 0 0 2 0 0 2 0 1 1 0 1 0 0 0 1 0 4 2 2 1 1 2 0 1 1 1 1 0 0 0 0 1 0 1 1 1 2 2 0 1 1 1 1 2 0 0 3 0 0 2 2 0 3 0 1 1 2 2 2 0 1 0 3 1 1 0 1 1 2 2 1 1 1 2 0 0 3 1 2 0 1 2 0 3 0 1 1 0 4 2 1 1 0 1 1 2 0 1 1 1 0 0 2 0 2 0 0 0 0 1 2 0 0 1 1 2 0 2 0 3 0 3 1 1 0 4 0 3 1 2 1 1 4 0 1 1 3 3 2 0 2 0 2 2 0 2 2 1 1 2 1 1 1 0 3 0 1 0 2 0 2 0 1 2 1 1 1 0 3 1 1 1 1 1 3 0 1 0 1 1 2 0 3 0 3 0 1 1 3 1 2 2 1 2 0 2 2 0 5 0 3 2 1 1 1 1 0 2 1 2 1 2 2 1 2 2 0 0 3 2 1 3 1 0 2 0 2 4 2 0 2 3 2 1 1 4 1 1 1 1 2 0 1 0 0 0 1 0 0 2 0 1 1 0 0 0 1 0 2 0 2 2 1 0 1 0 1 1 1 1 0 0 0 0 1 1 2 1 2 0 0 0 0 0 1 0 1 2 3 0 0 1 0 1 1 0 1 1 1 1 1 0 0 2 1 0 2 1 0 0 1 1 1 1 0 2 0 0 1 1 2 0 1 1 2 1 1 0 0 2 0 0 0 2 1 0 2 1 3 3 1 1 1 1 0 0 1 1 0 0 1 2 1 3 0 1 0 0 0 2 1 1 1 1 0 0 4 1 0 3 0 2 2 0 0 1 2 2 1 3 0 2 0 0 1 1 2 1 3 0 0 1 0 2 2 2 0 0 2 0 0 0 0 0 0 1 1 1 0 1 0 2 0 2 1 0 0 0 1 1 1 4 1 0 0 0 1 0 0 0 3 2 0 0 1 0 1 0 0 0 0 0 2 1 2 0 0 0 1 1 0 1 1 1 1 0 0 2 1 2 2 1 1 1 4 0 2 2 0 1 0 1 1 2 1 1 0 1 0 1 1 3 0 1 2 1 0 0 1 1 0 1 0 
BTB PER SET COUNT: 0 1 1 1 0 0 0 0 0 0 0 0 1 0 0 1 1 0 0 1 0 1 1 2 0 2 0 1 1045 0 1 0 1 0 0 1 0 1 5 0 1 0 2 2 1 0 2 0 1 2 0 0 1 0 0 1 1 4 0 0 0 0 0 1 0 1 0 0 0 1 2 0 1 0 0 0 363 2 1 1 1 0 1 1 1 2 0 1 3 1 1 339 1 1 1 0 0 0 0 0 0 2 0 1 0 1 0 0 0 0 1 0 0 1 0 1 0 0 0 0 0 0 0 0 0 0 0 0 2 0 1 0 0 0 1 0 0 0 0 1 0 0 1 0 0 0 0 1 1 1 0 50 1 0 0 0 0 0 0 0 0 0 0 1 0 0 0 0 1359 1 0 0 1 0 0 0 0 1 0 0 0 0 1 0 0 1 0 0 0 0 2 0 1 2 0 1 1 0 0 1 0 1 0 0 0 0 0 0 0 0 0 1 1 1 1 0 0 2 0 0 0 0 1 1 2 0 0 0 0 1 1 0 0 0 0 2 1 0 0 0 1 0 1 0 3 1 0 0 1 0 1 0 0 1 0 2 2 0 0 0 2 1 1 0 2 3 1 0 1 0 0 0 0 1 0 1 0 0 0 1 1 0 0 0 1 1 0 0 0 0 0 0 0 0 0 0 2 2 0 0 2 0 1 0 1 0 2 0 0 0 1 0 0 0 2 0 1 1 0 1 0 0 0 0 0 0 1 1 0 0 0 0 1 0 1 0 0 0 2 0 2 0 0 0 0 0 1 0 0 0 0 1 0 2 1 0 1 0 2 0 0 3 1 0 1 1 0 0 0 0 1 0 0 0 0 2 0 0 1 0 0 0 0 1 0 0 1 0 0 0 0 0 1 0 0 0 0 0 0 2 1 1 0 0 0 0 1087 2 0 0 0 0 0 0 1 0 2 0 0 51 1 0 1 2 0 2 0 0 0 0 0 0 3 1 2 0 0 0 0 0 0 2 0 1 0 0 0 0 0 0 0 0 0 0 1 0 1 0 2 0 2 0 1 1 0 0 0 0 1 2 0 0 1 404 2 0 0 1 0 0 0 0 0 350 0 0 1 0 0 1 1 0 0 1 0 2 0 1 0 0 1 0 0 0 0 0 0 0 0 1 1 1 0 0 2 0 0 1 1 353 1 1 1 1 3 0 0 1 1 3 1 1 0 3 1 3 0 0 16 0 0 2 1 0 0 1 2 2 0 2 0 0 0 1 0 1 3 0 0 0 3 0 0 0 0 0 0 0 1 2 1 0 1 1 0 0 0 0 0 0 0 0 0 0 0 0 0 0 0 0 0 0 0 0 0 0 1 0 0 0 0 0 0 1 0 1 0 1 0 0 2 0 0 0 0 0 0 0 0 0 0 0 1 0 1 1 0 0 0 0 364 0 0 7 0 0 0 0 0 0 0 0 1 0 1 0 0 0 0 0 0 0 0 0 0 0 0 0 0 1 0 1 0 1 1 1 2 0 0 0 1 0 1 0 1 1 0 1 1 0 1 0 0 0 0 0 1 1087 1 0 0 0 0 1 0 1 1 1 0 0 0 1 0 1 0 0 0 0 0 0 1 1 0 0 1 0 1087 1 0 0 0 0 0 0 0 0 0 0 0 1 0 1 0 0 0 0 2 1 1 0 1 1 1 0 2 0 0 0 0 1 0 0 1 0 0 1 1 2 0 0 1 0 0 0 0 0 1 0 0 1 2 0 0 1 0 1 4 0 1 1 1 0 0 0 1 1 1 1 0 0 1 0 0 0 2 1 1 0 0 0 0 0 0 0 0 0 0 0 0 1 0 1 0 0 0 0 1 0 0 0 2 0 1 0 0 0 0 1 0 0 0 3 1 0 0 0 0 0 1 0 0 0 0 0 0 1 0 3 1 0 1 0 2 0 0 0 0 0 0 0 0 0 0 0 0 0 0 0 1 0 0 0 0 0 0 0 0 0 2 1 1 1 0 0 0 0 0 1 0 0 0 0 0 0 0 0 2 0 2 0 0 0 0 2 0 1 0 0 0 1 0 1 0 0 0 0 0 0 0 0 0 1 1 0 1 0 0 0 1 0 0 0 2 0 1 0 0 2 0 0 0 0 0 1 0 0 1 0 0 1 0 0 0 0 0 0 0 3 0 0 2 0 1 1 0 1 4 1 0 1 0 0 0 0 1 0 1 3 0 0 2 1 1 2 1 0 0 1 3 0 2 1 0 0 1 0 0 1 0 35 0 0 9 0 1 1 2 0 0 0 0 0 1728 0 0 0 1 1 0 1 1 1 6 2 0 0 0 1 2 1 3 2 1 1 1 0 0 1 1 0 0 0 0 2 0 1 2 0 2 3 0 1 0 4 1 1 2 3 1 0 0 0 0 0 2 0 1 1 2 0 1 3 0 2 0 0 3 0 0 1 0 0 0 1 1 2 2 2 0 2 0 2 1 2 3 0 3 0 0 1 0 2 1 0 1 1 1 1 0 4 0 2 1 5 1 1 1 0 3 2 1 1 1 0 0 3 1 2 0 1 1 1 1 0 1 1 0 0 1 0 0 0 1 0 1 0 0 1 1 3 0 2 1 0 1 0 1 1 0 0 0 0 0 3 0 1 1 1 0 2 0 0 1 0 3 0 0 1 2 11 3 1 0 3 5 0 2 0 0 0 0 3 1 0 1 0 2 89 1 0 0 1 3 1 0 1 0 0 0 2 1 4 0 2 0 1 0 0 3 5 685 0 4 0 0 0 1 1 2 0 2 1 2 1 0 0 0 2 1 1 0 1 1 2 2 0 2 1 0 2 2 1379 1 1 0 4 0 0 1 3 10 1 1 1 0 1 2 1 2 0 0 1 1 0 6 2 1 0 0 0 1 1 0 0 1 0 0 1 2 2 0 0 3 0 0 0 0 2 1 0 1 0 0 1 1 0 2 1 4 1 1 2 1 0 1 1 0 2 1 0 0 2 0 1 2 0 0 0 0 2 0 2 0 1 0 1 1 0 0 0 0 0 0 0 0 1 0 0 0 0 1 2 2 0 1 0 0 0 1 2 4 2 1 1 0 2 0 2 2 0 1 0 0 1 1 2 1 1 1 0 1 2 0 0 1 2 0 1 1 0 1 0 0 1 2 1 1 1 1 0 4 1 1 1 0 0 1 178 0 1 0 2 0 1 2 0 0 0 0 2 0 0 0 0 0 1 1 1 0 1 0 0 1 0 1 0 0 0 0 1 0 0 0 0 0 2 1 1 3 1 1 0 1 1 1 0 1 0 0 3 0 0 0 0 0 1 1 0 0 0 0 0 0 0 0 0 0 0 2 0 0 0 1 0 1 0 0 2 0 0 1 1 1 1 1 0 0 1 0 0 1 0 1 1 1 4 0 0 1 0 2 505 0 0 6 0 0 1 0 1 1 1 1 1 0 2 1 1 0 1 1 0 0 0 2 0 0 0 0 0 0 1 0 2 1 0 1 1 0 1 0 0 1 0 0 1 0 0 0 1 1 0 0 1 2 1 0 0 0 1 1 2 1 0 0 1 2 0 0 0 4 1 2 0 2 0 2 2 1 1 1 2 4 0 1 0 2 1 0 17 2 2 1 2 3 0 0 2 0 1 1 0 1 0 2 0 0 683 0 1 3 0 0 0 1 1 2 1 3 0 0 0 2 0 0 2 1 0 0 0 0 2 0 1 0 1 1 0 1 1 1 1 0 1 1 1 1 0 1 0 0 0 1 1 1 2 0 0 1 1 0 1 1 0 0 1 1 0 0 0 0 0 0 2 1 0 0 2 0 0 0 0 0 2 0 0 1 1 2 1 1 1 4 0 1 5 3 2 4 1 0 2 0 1 1 1 0 0 0 0 1 1 2 0 0 1 1 1 0 0 0 0 0 1087 197 2 0 1 0 0 1 0 0 0 0 0 1 0 0 0 0 0 1 1 0 1 2 0 3 2 0 0 0 0 0 2 0 0 0 0 0 0 1 0 3 0 1 0 0 0 1 0 0 0 0 0 0 0 0 0 1 1 0 0 1 0 0 1 1 0 0 5 0 0 0 0 1 1 1 0 3 0 578 1 0 1 0 2 1 1 85 0 1 0 3 0 1 0 1 0 1 0 0 1 0 0 1 1 0 0 0 0 1 0 1 0 1 0 1 3 1 0 0 1 0 1 1 0 0 0 0 0 0 2 162 2 0 0 0 1 0 0 0 1 0 1 1 0 0 2 0 0 1 0 0 0 2 0 0 0 0 1 1 1 0 0 0 0 1 0 0 0 0 0 0 0 0 0 1 0 0 1 1 1 0 0 0 0 0 0 0 0 3 1 1 0 76 0 1 0 0 0 0 0 0 0 0 0 0 0 0 0 1 0 2 1 1 2 1 0 0 1 0 0 0 0 0 1 0 3 0 1 0 1 2 3 0 0 0 0 70 0 1 0 0 0 1 1 0 0 0 0 0 3 1 0 2 1 0 0 0 0 2 0 0 1 1 0 0 1 0 0 0 1 2 0 0 0 2 0 0 0 1 1 0 0 0 2 0 1 0 2 0 0 0 1 0 0 1 0 1 0 3 0 1 0 1 0 0 0 0 0 0 0 0 1 0 0 1 1 1 0 1 0 1 1 1 0 0 0 1 2 1 1 0 1 0 1095 1 1 0 0 2 2 0 0 1 0 1 3 0 1 0 0 2710 0 0 1 1 1 0 1 2 2 1 0 2 1 1 0 0 1 0 0 0 0 0 1 0 1 0 0 0 0 1 0 0 0 0 0 0 0 1 0 1 0 0 0 0 1 0 0 0 0 1 0 0 0 1 0 1 1 0 0 0 0 1 1 0 0 0 0 0 0 0 0 0 0 1 0 1 0 0 1 1 0 2 13 0 1 0 0 0 0 0 0 2 3 1 0 1 0 1 0 2 0 0 0 1 0 1 1 0 2 1 0 1 0 0 1 1 1 1 0 2 0 2 0 2 3 0 2 1 1362 2 0 2 0 0 0 1 0 0 0 1 0 1 0 0 1 1 0 1 0 0 0 1 1 0 1 3 1 1 2 1 1 1 1 1 2 1 0 6 1 0 1097 2 0 2 2 2 1 0 1 4 1 2 0 0 0 0 0 0 1 0 0 0 0 0 0 0 0 0 0 1 0 0 0 0 0 1 1 3 1 0 0 1 1 0 1 0 0 0 0 0 1 1 0 1 0 0 0 1087 1 0 0 0 0 0 0 1 0 0 0 0 0 0 0 1 0 1 0 2 0 1 0 0 0 0 2 0 1 1 0 2 0 0 0 0 0 0 0 1 0 1 0 1 2 1 0 1 0 1 4 1 3 0 0 0 4 1 1 1 0 0 1 0 0 1 0 0 1 0 0 0 0 1 0 0 0 1 1 2 0 0 0 1 0 1 3 2 1 2 0 0 0 1 0 1 2 2 2 4 4 0 1 0 1 0 0 0 1 3 1 1 1 1 0 2 1 0 0 2 1 1 72 1 1 3 1 1 0 0 1 1047 7 2 1 0 0 0 0 0 3 2 0 0 0 0 8 0 2 683 0 107 2 3 1 0 0 4 1 1 0 2 0 1 1 0 1 3 0 2 2343 0 0 0 0 0 0 1 1 0 2 0 0 1 0 1 0 2 0 2 0 0 1 406 2 0 32 1 1 1 1 3 1 2 0 0 2 54 0 0 0 1 3 0 1 2 0 23 0 0 2 1 0 1 0 2 1 0 2 0 20 3 1 0 1 1 0 0 0 1 0 1 1 1 1 0 0 0 3 0 1 0 1 0 1 0 1089 3 0 0 3 0 2 1 1 0 0 0 1 0 2 1 1 1 1 0 2 0 0 0 1 1 0 0 1 0 0 1 1 0 0 0 1 1 0 0 0 1 0 0 0 1 0 0 1 0 0 0 0 0 0 2 2 3 2 1 46 0 0 0 0 0 2 2 2 1 2 0 0 1 0 1 0 2 0 3 2 4 3 1 258 1 0 0 4 312 0 0 0 0 2 0 0 0 1 0 366 2 1083 0 2 1 1 1 0 1622 1088 1 1 2 1 2 3 0 1 1 1 0 0 0 0 0 1 1 2 1 0 1 1 0 0 0 0 1 0 1 0 0 1 0 1 2179 2 0 2 0 0 1 5 0 0 1 2 0 0 1 1 3 0 0 2 1 0 0 1 2 3 0 0 0 0 3 0 4 0 0 2 1 1 0 0 2 0 1 0 1 1 5 0 0 1 4 0 0 0 1 0 0 0 1 0 0 1 1 0 2 1 0 0 0 2 0 2 1 0 0 1 1 1 1 1 413 0 1 0 0 2 0 1 1 0 0 2 0 0 0 1 0 4 1 1 3 1 1 1 0 1 0 1 2 0 2 1 0 0 0 1 0 0 3 3 0 0 0 1 0 1 0 1 0 1 2 0 0 0 2 1 1 2 1 0 2 1 0 0 1 0 1 0 2 1 0 1 0 0 0 1 1 1 0 0 1 1 2 0 2 0 1 1 0 0 0 0 0 0 2 0 1 1048 0 2 0 1 0 1 2 0 0 3 0 0 0 1 1 3 0 4 0 0 1 684 2 3 0 3 0 3 2 2 0 0 0 0 2 2 0 2 3 0 2 2 1 0 1 2 2 0 0 1 0 0 0 0 0 1 3 1 1 1 1 2 1 2 1 0 2 1 0 2 0 1 0 0 1 0 1 1 1 1 1 0 0 1 2 2 1 0 2 3 1 1 1 3 1 1 2 1 0 0 0 3 2 180 1 0 3 0 0 3 1 1 0 21 2 1 0 0 0 0 0 2 1 0 1 1 0 1 0 0 1 0 685 1 0 0 5 0 1 0 1 0 1 0 1 0 1 1 0 0 2 2 0 1 3 0 0 0 0 1 0 1 0 1 1 1 2 1 1 2 0 0 0 0 0 0 0 1 2 1 1 1 0 0 1 1 1 3 4 0 0 0 3 0 0 2 1 1 1 1 0 1 0 2 0 2 0 1 0 1 0 0 0 0 0 0 1 0 0 0 0 0 0 0 0 1 0 3 1 0 1 0 3 0 0 2 0 0 3 1 1 0 0 1 0 1 1 0 0 0 0 0 1 0 1 1 1 0 2 0 2 0 4 1 2 1 3 2 1 3 1 0 3 0 1 1 1 1 1 1 1 0 1 1 2 1 2 1 0 2 0 0 1 0 0 1 1 0 1 1 2 1 1 1 414 0 1 0 1 1 2 0 2 0 1 0 1 1 1 0 0 0 2 1 1 1 0 1 0 2 1 0 0 2 0 1 1 0 1 1 3 0 685 0 3 1 1 1 6 2 0 0 1 0 1 0 1 0 1 0 1 0 1 2 1 2 1 0 1 3 0 2 1 0 0 1 1 0 1 0 0 0 1 0 1 0 1 0 1 0 0 0 2 1 1 0 1 1 0 1 0 0 2 0 1 2 5 0 0 2 0 1 1 1 0 0 0 0 0 0 1 0 1 1 0 0 0 1 0 0 1 0 0 1 1 0 0 1 1 1 1 1 1 0 3 0 0 0 0 1 3 0 1 1 1 2 1 0 1 0 1 2 1 1 0 0 1 1 3 1 0 1 0 1 3 0 1 0 1 0 0 1 2 0 2 0 0 0 0 2 1 0 2 0 0 0 2 5 1 2 1 0 1 1 0 1 0 0 0 0 0 1 0 1 0 0 0 2 0 0 0 0 0 2 0 0 0 0 2 0 0 1 2 683 0 0 4 0 2 0 0 0 0 1 0 0 4 1 0 0 0 0 0 0 0 0 0 1 2 1 0 2 0 1 2 1 1 0 0 0 3 0 3 1 2 1 0 3 0 0 0 0 1 0 2 0 2 0 1 0 1 0 348 1 0 0 1 0 0 1 1 0 0 0 2 1 0 0 0 1 1 1 1 1 3 0 0 3 1 3 1 1 1 0 4 2 2 1 1 1 2 0 2 0 1 0 2 1 0 1 687 1 12 0 2 1 4 0 0 2 1 1 3 3 1 0 18972 0 0 1 2 0 0 0 1 3 1 0 0 0 1 2 1 1 1 3 0 1 1 1 5 0 0 0 1 1 2 1 0 1 1 0 1 1 1 1 0 1 2 1 1 0 2 0 2 1 1 0 3 1 0 2 0 0 1 1 1 0 1 1 1 1 1 2 4 1 1 2 1 0 2 0 0 0 0 2 683 0 0 0 1 1 0 0 1 2 1 4 1 0 8 0 5 1 3 0 0 1 0 1 16 1 0 1 1 1 3 1 0 0 0 0 0 0 0 0 0 2 0 0 0 3 2 0 1 0 1 1 1 1 1 0 0 2 1 1 1 1 1 1 0 0 0 0 1 1 1 163 0 1 1 0 0 1 1 0 2 1 1 0 0 2 0 2 0 1 1 1 0 2 1 0 0 0 0 0 0 1 0 2 3 0 0 0 0 2 1 0 1 2 1 2 0 0 0 0 0 0 0 1 1 1 0 1 0 0 1 1 1087 0 1 0 0 2 0 0 0 1 0 0 2 1 0 0 1 3 0 1089 1 1 1 0 1 0 1 1 1 2 0 0 1 0 0 0 1 0 0 2 0 1 0 2 0 0 0 1 0 0 0 0 0 1 1 1 1 0 0 0 2 0 0 0 0 1 0 0 0 2 1 0 1 1 1 0 1 0 1 0 0 0 1 1 0 0 3 0 0 1 1 0 0 0 0 0 1 1 1 3 0 1 1 2 1 1 0 0 0 1 0 0 1 2 0 0 0 0 1 0 1 0 1 4 1 347 0 0 0 1 0 0 0 1 0 0 0 0 0 0 0 1 0 0 1 0 1 0 0 0 0 0 0 0 1 1 1 1 0 1 1 0 2 2 0 1 0 1 1 0 0 0 0 0 0 1 0 1 3 0 1 3 1 0 0 1 0 2 0 1 1 0 0 0 0 0 0 1 2 1 1 1 2 0 0 1 1 1 1 2 0 1 2 3 0 0 2 0 1 2 0 0 9 0 1 0 0 1 1 0 1 0 1 1 0 3 0 3 1 0 0 1 1 0 0 1 0 0 1 1 0 1 1 1 1 0 0 0 0 0 2 0 1 0 1 1 1 2 1 2 1 1 1 1 2 0 0 1 0 3 0 0 0 0 3 1 2 0 0 0 3 0 0 0 0 0 0 1 1 1 0 0 0 1 1 0 0 1 1 0 0 1 1 0 0 1 0 0 1 1 0 0 0 0 0 1 2 0 1 1 1 0 0 2 0 0 1 2 1 1 0 0 1 1 3 0 1 0 0 1 0 0 1 1 1 1 0 0 0 1 1 1 1 1 0 1 1 1 1 0 2 0 0 2 0 0 0 2 1 1 0 0 1 1 3 0 1 1 1 0 0 1 3 1 1 1 1 2 2 1 0 266 4 0 2 1 4 1 0 2 1 1 1 4 0 0 0 2 1 3 2 0 1 4 0 1 4 1 1 2 1 0 1 3 0 1 3 0 2 2 1 2 1 1 4 0 0 1 3 1 1 3 1 2 1 0 3 2 2 0 1 1 1 1 0 2 366 0 1 0 1 1 0 0 1 1 2 2 1 0 0 0 1 2 2 1 1 2 0 2 1 0 0 2 1 1 0 0 0 0 2 2 0 1 3 0 1 2 2 1 1 0 1 0 685 1 1 2 4 2 2 1 2 0 1 1 2 1 0 0 1 0 0 1 0 0 2 0 1 0 0 0 1 0 0 0 0 1 1 0 1 1 0 1 1 0 0 0 0 1 2 0 2 37 0 1 259 2 1 2 1 0 1 0 1 1 0 0 0 1 2 1 1 1 1 1 0 1 1 0 0 2 1 3 2 2 1 2 1 2 0 1 2 0 1 1 2 2 1 1 2 2 1 0 3 1 3 2 1 1 1 1347 2 1 1 1 0 0 1 2 0 1 2 0 0 1 1 2 0 2 1 2 1 2 3 3 1 1 2 2 1 0 1 1 1 0 1 1 2 2 0 2 0 2 0 0 1353 0 1 2 684 1 1347 2 2 0 0 0 0 1345 1345 2 0 1 0 2 1 3 2 0 1 2 0 0 1 0 0 0 0 2 2 1 1 0 0 0 5 1 2 0 1 1 2 1 1 3 0 0 1 2 0 0 1 1 2 1 1 2 1 2 2 0 3 0 0 1 2 0 3 1 1 0 1 2 0 683 0 1 1 1 0 0 1 1 1 1 0 1 1 0 1 1 0 0 1 3 1 0 4 1 2 3 2 1 0 0 0 2 3 2 2 1 1 3 1 1 3 0 0 0 2 0 0 3 0 1 1 0 2 1 0 0 1 0 0 1 0 1 0 0 0 1 0 0 0 0 0 1 1 0 0 2 1 0 2 0 1 1 1 1 0 1 1 0 3 0 2 0 0 1 0 2 1 0 0 1 2 1 2 2 0 0 1 2 0 1 0 0 2 0 0 2 0 2 2 0 5 0 2 0 0 415 0 0 0 0 0 2 2 0 14 0 3 3 4 3 1 3 4 5 0 0 0 0 0 1 5 0 1 2 1 0 0 1 1 1 2 0 0 3 1 0 0 1 0 0 0 1 0 0 1 0 0 4 2 2 2 3 0 1 683 2 1 0 0 1 0 0 1 2 1 0 1 0 3 0 1 1 3 1 2 0 694 0 2 1 3 1 2 0 1 0 1 2 1 0 1 1 0 0 2 1 0 0 1 1 4 1 2 2 0 0 1 0 2 0 1 1 4 1 1 0 3 0 1 2 8775 1 3 2 1 0 0 1345 0 0 3 1 0 0 4 1345 0 0 1 2 0 0 1 1346 1 1 0 1 1 1 0 1346 1 0 1 2 2 2 2 2 0 1 0 1 1 1345 0 1 0 0 0 1 0 1 1345 0 0 0 0 2 1 0 1 1 0 1 1 1 0 2 2 1 683 0 1 1 2 0 0 0 0 1 0 2 0 0 2 1 2 685 0 0 0 2 0 0 1 1 1 0 0 1 0 2 0 1 2 1 0 1 0 3 0 0 1 1 0 2 0 0 0 2 0 0 2 2 4 3 0 0 0 34 0 0 1 2 2 1 1 0 2 2 1 2 1 1 2 5 0 1 0 1 1 0 4 1 0 0 0 3 1 0 0 0 2 0 1 0 1 183 1 0 1 1 3 0 2 0 2 2 0 1 0 1 0 0 3 0 1 0 1 0 2 1 2 1 0 0 1 0 0 0 0 4 6 1 1 0 1 0 1 1 1 5 1 0 2 0 1 0 1 0 3 0 0 0 0 1 0 0 2 0 1 2 1 2 3 0 0 1 1 0 0 0 1 2 0 1 0 3 3 2 0 0 0 1 0 0 1 2 3 0 2 1 1 0 3 0 1 1 3 1 2 339 1 1 36 0 0 1 1 1 0 684 2 2 0 2 1 0 1 0 4 1 1 0 8 0 3 1 0 413 1 1 3 3 5 1 2 0 1 1 0 265 1 1 2 0 1 2 1 1 0 1 0 1 1 0 0 1 2 0 1 2 1 1 2 1 1 1 0 1 1 1 1 2 1 4 0 1 2035 0 2 0 1 2 2 2 1 3 2 0 3 1 0 2 3 0 0 0 0 2 1 0 2 0 0 0 0 0 2 0 1 1 0 1 1 1 1 0 0 0 3 0 0 267 0 0 0 5 0 1 0 0 0 0 0 2 1 4 0 1 3 0 0 3 4 0 1 0 4 1 2 1 0 2 1 1 2 1 1 2 2 0 0 0 2 0 1 1 1 3 0 0 2 0 0 0 364 0 1 0 2 2 1 1 1 1 0 1 3 1 0 1 1 0 3 0 0 3 0 1 1 1 0 4 0 1 2 1 0 2 0 0 0 2 1 0 0 0 1 1 1 0 0 1 2 1 1 0 2 0 0 0 3 0 1 1 2 3 0 1 357 0 0 1 1 2 0 0 0 3 0 3 0 0 0 1 2 0 0 0 414 0 0 1 0 1 0 0 0 363 1 0 1 0 0 0 1 2 0 1 3 0 0 6 0 0 0 1 2 0 0 0 0 1 0 0 3 0 0 688 1 0 1 1 0 3 0 2 0 0 0 3 1 1 0 1 0 0 1 1 0 2 2 1 0 0 2 0 0 0 1 1 0 0 1 1 1 1 1 0 0 1 0 1 3 0 0 2 0 0 3 1 2 0 0 0 0 1087 1 0 1 1 6 0 1 0 4 0 0 1 0 3 1 0 0 0 0 1 0 0 1 1 1 92 0 1 1 0 0 52 1 0 0 19 1 6 14 3 1 0 1 25 0 1 7 1 1 3 0 0 50 0 2 1 0 1 1 1 1 0 0 0 2 0 1 1 1 0 0 0 0 0 1 2 1 1 0 1 2 0 1 0 0 1 0 1 0 1 0 1 0 1 4 0 5 0 3 2 0 0 1 1 2 0 0 0 2 0 1 1 0 2 1 0 2 0 1 0 1 1 0 1 0 2 1 3 7 0 0 2 2 3 2 0 1 0 0 1 1087 0 0 948 0 1 1 0 0 1 0 0 2 947 0 1 0 3 1 0 0 0 0 0 0 0 0 0 0 0 2 0 1 0 0 0 0 0 0 0 0 0 0 0 0 0 1 0 0 0 4 0 0 0 0 0 0 2 36 0 0 0 8 0 0 0 2 1 131 0 20 0 0 0 0 0 1 0 1 0 1 0 0 1 1 0 0 0 0 1 0 1 0 0 12 1 1 1 0 0 0 0 0 0 1 0 0 1 0 0 0 1 0 0 0 0 0 0 1 0 1 1 1 2 0 0 1 0 0 0 0 0 0 0 1 0 1 1 0 0 0 0 2 0 0 0 0 1 0 0 0 0 1 0 0 1 0 1 1 1 2 0 2 0 0 0 0 3 1 0 1 1 1 1 1095 0 0 0 1088 0 0 1 0 1 1 0 2 0 0 0 0 0 1 1 2 0 0 1 0 4019 0 1 0 0 9 1 1 1 2 1 3 0 1 0 1 0 1 1 0 4 1 0 0 0 0 2 2 1 0 0 2 0 1 0 1 1 0 0 0 0 0 1 2 1 0 1 1 0 1 2 1 1 1346 0 0 0 0 1 1 1347 0 0 0 1 413 0 1 0 1 1 1 0 0 1 1 415 0 0 10870 1346 0 1 2 9 0 0 0 0 0 2 2 0 0 0 0 2 2 0 1 2 0 0 1 1 0 1 1 0 2 2 0 0 0 2 0 1 1 1 0 0 0 0 0 0 2 0 1 0 1 0 1 0 2 1 6 1 0 3 0 0 0 1 0 1 6 0 0 0 0 1 1 0 0 1 0 0 683 1 1 1 0 1 2 0 2 0 0 0 1 1087 1 2 1 0 2 1 2 1 1 2 3 0 0 3 0 1 0 1 1 3 2 0 1 1 2 0 2 0 3 1096 1 2 0 0 1 0 0 1 0 2 0 1 1 2 1 1 4 1 1 1 684 0 1 0 3 0 2 2 2 2 2 1 0 0 1 0 0 0 1 1 0 0 0 1 0 0 0 2 0 1 2 1 2 0 2 0 0 2 2 0 1 1 1 0 0 2 2 1 1 0 0 1 0 0 0 0 0 1 0 1 2 0 0 1 0 0 0 1 1 1 1 0 1 0 2 2 1 0 1 1 0 1 1 2 1 2 1 0 1 0 2 1 0 1 0 1 1 0 1 2 0 2 0 1 0 0 2 1 0 2 1089 2 0 1 0 1 1 0 0 1 4 0 1 0 1 0 2 0 0 0 2 5 0 3 1 0 2 0 1 1 1 1 0 1 0 1 0 1 2 1 1 0 0 2 2 1 0 0 0 3 1 0 2 2 1 0 3 1 0 0 1 2 0 0 0 2 1 0 2 0 0 0 1 2 2 0 1 0 1 1 2 1 0 2 1051 1 3 0 0 1 0 0 0 0 1 0 0 0 0 0 3 0 0 2 1 0 2 1 2 2 1 1 2 1 0 2 1 1 4 2 2 1 3 2 0 2 1 1 1 1 1 2 685 1 1 2 0 1 1 1 1 0 0 1 1 0 3 1 0 1 0 1 1 0 0 2 1 3 0 0 0 2 0 2 0 0 0 1 1 0 0 0 0 2 0 0 0 0 2 1 0 1 0 0 2 0 0 1 1 0 2 0 1 0 0 1 0 2 0 0 0 3 1 2 0 1 1 0 2 1 0 0 0 1 2 0 1 1 1 2 2 0 2 1 0 2 2 1 1 1 0 1 1 8 0 2 0 1 1 2 1 2 0 0 1 1 0 1 1 3 3 1 1 0 0 1 1 0 1 0 1 1 0 1 1 4 0 0 1 0 0 1 1 3 1 1 0 2 1 0 0 1 2 3 0 1 3 3 0 0 2 1 0 2 1 2 0 1 0 0 1 2 1 0 0 1 1 0 1 1 1 1 1 1 1 1 0 1 3 1 2 0 3 1 0 2 1 1 0 0 3 1 2 3 0 0 0 1 1 0 0 2 2 1 1 1 1 1 0 1 2 0 0 1 0 1 2 1 1 0 0 1 2 0 0 1 0 1 2 0 5 1 1 2 0 2 0 0 0 1 0 7 0 0 2 1 1 1 1 1 0 1 0 0 0 0 2 1 0 0 0 0 1 0 2 1 1 2 2 2 0 1 1 0 0 1 1 2 0 0 0 2 2 0 1 0 0 0 1 0 0 2 0 0 0 1 1 0 0 0 1 0 1 4 1 0 0 1 1 1 0 0 0 1 0 0 3 0 0 1 0 3 0 2 0 1 0 1 3 1 0 1 2 1 1 0 1 0 1 1 1 0 1 0 0 0 0 0 1 1 1 1 1 3 2 0 1 0 0 1 3 0 0 2 0 0 0 0 0 0 0 1 1 0 4 0 0 0 121 1 6 1 0 1 1 2 3 0 2 0 1 0 3 4 1 1 1 1 0 3 0 1 0 0 0 0 3 0 0 1 0 3 0 2 2 1 0 0 0 1 1 1 0 0 2 1 2 0 0 0 0 0 0 1 0 0 2 0 0 0 2 0 0 2 1 1 0 0 1 15 1 0 0 0 0 1 2 0 0 0 0 1 0 0 1 1 3 0 2 1 1 1 3 0 0 1 2 1 0 2 1 6 2 0 0 0 0 0 2 0 3 4 0 0 1 0 2 4 2 3 0 2 2 2 3 0 1 2 1 3 3 0 1 1 3 1 0 3 0 2 3 3 1 2 1 0 2 3 3 0 1 0 0 0 0 9 1 0 2 9 1 0 0 1 1 2 0 0 1 0 1 2 0 1 1 3 0 0 3 1 0 1 0 0 0 0 1 0 1 0 1 2 0 0 0 2 0 2 0 1 2 0 1 0 0 0 1 0 2 0 1 1 0 0 2 2 0 2 2 1 1 0 2 0 1 3 0 0 2 0 2 0 4 1 1 0 1 1 1 2 2 0 1 4 2 0 0 1 1 1 0 0 3 0 3 1 3 1 0 1 3 1 1 0 0 1 0 32 0 2 0 0 2 1 1 0 3 1 1 0 0 0 0 0 2 1 0 1 0 0 0 0 0 0 0 2 1 1 1 1 1 1 2 1 0 0 0 2 0 0 0 1 0 0 0 1 0 0 0 0 0 0 1 1 0 1 3 1 2 1 1 0 3 2 7 0 4 1 1 0 0 127 0 1 0 0 0 2 1 2 0 3 2 0 0 0 0 1 1 0 2 0 2 2 3 1 1 2 2 0 2 0 2692 2 1 0 3 1 0 1 2 0 1 1 0 1 0 1 1 1 2 1 0 0 0 0 1 0 0 0 0 0 3 3 1 2 2 0 1 0 2 1 1 1 7 1 2 2 2 2 2 1 2 2 3 1 2 1 3 2 3 0 3 0 0 1 3 2 0 0 0 3 2 0 0 0 1 1 1 2 0 4 3 1 0 0 1 2 0 2 2 1 1 3 2 15 0 0 1 1 0 100 4 0 2 2 2 1 0 0 0 1 0 2 0 0 3 0 1 3 1 1 12 1 0 1 1 4 0 365 3 2 3 2 4 1 0 8 1 1 0 1 3 2 2 2 1 1 2 0 1 1 0 2 2 2 0 0 0 1 1 4 1 0 0 2 3 0 1 1 0 2 2 0 1 0 0 1 0 2 363 1 0 0 0 1 0 1 1 2 1 1373 1 1 2 2 0 1 1 1 2 0 0 1 1 0 1 0 2 1 0 264 688 0 2 0 1 0 2 0 0 0 1 0 1 1 0 1 0 0 2 8 0 2 1 1 2 0 0 2 3 0 1 1 1 3 1 1 0 1 0 0 1088 2 0 0 1 1 2 0 0 1 2 1 1 1 0 1 0 1 1 1 1 0 0 1 1 1 0 1 0 74 1 2 0 1 2 1 0 1 0 0 0 1 0 0 2 1 1 2 1 1 1 3 1 0 0 2 3 0 1 1 1 3 1 0 2 0 2 1 1 0 2 2 2 3 0 1 2 3 2 1 2 0 0 2 0 3 0 0 0 0 3 1 0 0 2 0 0 2 1 0 3 0 3 1 2 2 0 0 3 1 1 3 0 2 0 2 1 1 3 1 0 2 2 1 0 3 0 1 3 1 0 1 1 0 0 1 0 0 0 3 1 0 0 0 0 1 1 0 0 2 1 1 1 1 0 0 0 0 1 1 0 1 2 2 0 1 1 0 1 0 1 3 2 1 0 1 0 0 1 0 0 0 2 0 0 1 0 2 3 0 2 0 0 1 1 2 2 1 1 1089 3 3 0 0 1 6 4 2 0 0 2 2 0 1 2 2 0 2 1 1 0 5 1 2 3 4 0 0 2 0 0 0 2 1 2 909 683 4 0 1 1 14 0 3 0 7 2 1 0 1 0 0 7 1 1 2 1 2 2 1 3 1 352 1 0 11 0 104 2 3 1 0 0 1 1 2 4 1 4 0 1 0 0 0 0 1 1 4 1 0 0 2 1 1 5 1 4 1 1 2 1 1 3 0 3 1 4 1 1 0 1 2 0 0 0 3 0 4 3 0 0 0 1 0 2 3 2 0 1 62 1 3 1 2 0 1 0 1 1 1 2 1 3 0 0 0 4 0 0 2 4 2 2 14 0 0 1 0 2 0 0 0 0 0 0 0 0 2 0 1 0 1 0 2 1 0 1 2 2 0 1 0 2 0 0 1 2 1 0 1 0 2 1 0 0 2 0 2 1 1 0 1 3 0 0 1 2 0 1 0 1 0 1 0 0 0 0 684 1 0 0 0 0 0 1 2 0 2 1 2 0 0 0 0 1 1 1 0 0 1 0 1 0 2 0 2 0 0 0 0 0 0 0 2 0 0 230 2 1 0 1 0 0 2 0 0 0 1 0 1 0 0 0 0 0 1 0 0 0 2 0 1 1 1 0 1 0 3 1 1 1 0 1 0 1 2 2 2 0 1 0 0 0 2 0 0 2 0 1 1 0 1 0 0 0 1 0 4 2 2 1 1 2 0 1 1 1 2 0 0 0 0 1 0 1 1 1 2 2 0 1 1 1 1 2 0 0 3 0 0 2 2 0 3 0 1 1 2 2 2 0 1 0 3 1 1 0 1 1 2 2 1 1 1 2 0 0 4 1 2 0 1 2 0 4 0 1 1 0 4 2 1 265 0 1087 1 2 0 1 1 1 0 0 2 0 2 0 0 0 0 1 2 0 0 1 14 2 0 353 0 3 0 4 1 1 0 4 0 352 1 2 1 1 4 0 1 1 4 3 2 0 2 0 2 2 0 351 2 2 1 2 1 1 1 0 3 0 265 0 2 0 2 0 1 2 1 1 1 0 40 1 1 1 1 1 3 0 1 0 1 1 2 0 3 0 3 0 1 1 3 1 2 2 1 2 0 2 2 0 1027 0 3 2 1 1 1 1 0 3 1 2 1 2 2 1 2 2 0 0 3 51 1 3 1 0 2 0 2 4 684 0 2 3 2 1 1 4 1 1 1 1 2 0 1 0 0 0 1 0 0 2 0 1 1 0 0 0 1 0 2 0 2 2 1 0 1 0 1 1 1 1 0 0 0 0 1 1 2 1 2 0 0 0 0 0 1 0 1 2 3 0 0 1 0 1 1 0 1 1 1 1 1 0 0 32 1 0 2 1 0 0 1 1 1 1 0 2 0 0 1 1 2 0 1 1 2 1 1 0 0 2 0 0 0 2 1 0 688 1 3 3 1 1 1 1 0 0 1 2 0 0 1 2 1 3 0 1 0 0 0 2 1 1 1 1 0 0 4 1 0 3 0 2 2 0 0 1 2 2 1 3 0 2 0 0 1 1 686 1 3 0 0 1 0 2 2 2 0 0 2 0 0 0 0 0 0 1 1 1 0 1 0 2 0 7 1 0 0 0 1 1 1 4 1 0 0 0 413 0 0 0 3 2 0 0 1 0 1 0 0 0 0 0 2 1 2 0 0 0 1 1 0 1 1 1 1 0 0 2 1 2 3 1 1 1 4 0 2 2 0 1 0 1 1 2 1 1 0 1 0 1 2 3 0 1 2 1 0 0 1 8 0 1 0 
