
*** ChampSim Multicore Out-of-Order Simulator ***

Warmup Instructions: 50000000
Simulation Instructions: 50000000
Number of CPUs: 1
LLC sets: 2048
LLC ways: 16
Off-chip DRAM Size: 4096 MB Channels: 1 Width: 64-bit Data Rate: 6400 MT/s
CPU 0 runs ./micro_traces/srv183.trace.gz
.gz
ITLB has LRU replacement policy
DTLB has LRU replacement policy
STLB has LRU replacement policy
L1I has LRU replacement policy
L1D has LRU replacement policy
Initialize SRRIP state for L2C
Initialize DRRIP state for LLC
Heartbeat_Variant_0 : 1326 0.32373 per_variant_size: 0 1326 0 0 0 0 0 0 0 
Heartbeat_Variant_1 : 1244 0.303711 per_variant_size: 0 579 665 0 0 0 0 0 0 
Heartbeat_Variant_2 : 1320 0.322266 per_variant_size: 0 500 374 230 216 0 0 0 0 
Heartbeat_Variant_3 : 0 0 per_variant_size: 0 0 0 0 0 0 0 0 0 
Heartbeat_Variant_0_evicts 0 : 5826 1 : 282 2 : 301 3 : 0 
Heartbeat_Variant_1_evicts 0 : 297 1 : 0 2 : 440 3 : 0 
Heartbeat_Variant_2_evicts 0 : 281 1 : 434 2 : 0 3 : 0 
Heartbeat_Variant_3_evicts 0 : 0 1 : 0 2 : 0 3 : 0 
Heartbeat CPU 0 instructions: 10000002 cycles: 2798576 heartbeat IPC: 3.57325 cumulative IPC: 3.57325 (Simulation time: 0 hr 1 min 21 sec) 
Heartbeat_Variant_0 : 1355 0.330811 per_variant_size: 0 1355 0 0 0 0 0 0 0 
Heartbeat_Variant_1 : 1263 0.30835 per_variant_size: 0 599 664 0 0 0 0 0 0 
Heartbeat_Variant_2 : 1323 0.322998 per_variant_size: 0 487 385 236 215 0 0 0 0 
Heartbeat_Variant_3 : 0 0 per_variant_size: 0 0 0 0 0 0 0 0 0 
Heartbeat_Variant_0_evicts 0 : 5670 1 : 127 2 : 112 3 : 0 
Heartbeat_Variant_1_evicts 0 : 127 1 : 0 2 : 298 3 : 0 
Heartbeat_Variant_2_evicts 0 : 94 1 : 292 2 : 0 3 : 0 
Heartbeat_Variant_3_evicts 0 : 0 1 : 0 2 : 0 3 : 0 
Heartbeat CPU 0 instructions: 20000003 cycles: 5595497 heartbeat IPC: 3.57536 cumulative IPC: 3.5743 (Simulation time: 0 hr 2 min 41 sec) 
Heartbeat_Variant_0 : 1357 0.331299 per_variant_size: 0 1357 0 0 0 0 0 0 0 
Heartbeat_Variant_1 : 1266 0.309082 per_variant_size: 0 595 671 0 0 0 0 0 0 
Heartbeat_Variant_2 : 1343 0.327881 per_variant_size: 0 504 392 230 217 0 0 0 0 
Heartbeat_Variant_3 : 0 0 per_variant_size: 0 0 0 0 0 0 0 0 0 
Heartbeat_Variant_0_evicts 0 : 5622 1 : 84 2 : 88 3 : 0 
Heartbeat_Variant_1_evicts 0 : 87 1 : 0 2 : 295 3 : 0 
Heartbeat_Variant_2_evicts 0 : 90 1 : 300 2 : 0 3 : 0 
Heartbeat_Variant_3_evicts 0 : 0 1 : 0 2 : 0 3 : 0 
Heartbeat CPU 0 instructions: 30000000 cycles: 8393446 heartbeat IPC: 3.57405 cumulative IPC: 3.57422 (Simulation time: 0 hr 4 min 4 sec) 
Heartbeat_Variant_0 : 1376 0.335938 per_variant_size: 0 1376 0 0 0 0 0 0 0 
Heartbeat_Variant_1 : 1266 0.309082 per_variant_size: 0 587 679 0 0 0 0 0 0 
Heartbeat_Variant_2 : 1364 0.333008 per_variant_size: 0 536 391 224 213 0 0 0 0 
Heartbeat_Variant_3 : 0 0 per_variant_size: 0 0 0 0 0 0 0 0 0 
Heartbeat_Variant_0_evicts 0 : 5799 1 : 137 2 : 167 3 : 0 
Heartbeat_Variant_1_evicts 0 : 147 1 : 0 2 : 329 3 : 0 
Heartbeat_Variant_2_evicts 0 : 149 1 : 346 2 : 0 3 : 0 
Heartbeat_Variant_3_evicts 0 : 0 1 : 0 2 : 0 3 : 0 
Heartbeat CPU 0 instructions: 40000002 cycles: 11189702 heartbeat IPC: 3.57621 cumulative IPC: 3.57472 (Simulation time: 0 hr 5 min 18 sec) 
Heartbeat_Variant_0 : 1374 0.335449 per_variant_size: 0 1374 0 0 0 0 0 0 0 
Heartbeat_Variant_1 : 1270 0.310059 per_variant_size: 0 589 681 0 0 0 0 0 0 
Heartbeat_Variant_2 : 1368 0.333984 per_variant_size: 0 535 401 226 206 0 0 0 0 
Heartbeat_Variant_3 : 0 0 per_variant_size: 0 0 0 0 0 0 0 0 0 
Heartbeat_Variant_0_evicts 0 : 5620 1 : 38 2 : 29 3 : 0 
Heartbeat_Variant_1_evicts 0 : 41 1 : 0 2 : 224 3 : 0 
Heartbeat_Variant_2_evicts 0 : 28 1 : 225 2 : 0 3 : 0 
Heartbeat_Variant_3_evicts 0 : 0 1 : 0 2 : 0 3 : 0 
Heartbeat CPU 0 instructions: 50000003 cycles: 13987543 heartbeat IPC: 3.57418 cumulative IPC: 3.57461 (Simulation time: 0 hr 6 min 36 sec) 

Warmup complete CPU 0 instructions: 50000003 cycles: 13987543 (Simulation time: 0 hr 6 min 36 sec) 

Cycle: 20000000 FTQ IN: 55466110 FTQ occupancy: 16.0158 DECODE IN: 55466092 DECODE occupancy: 9.53241 ROB IN: 55466092 ROB occupancy: 261.535 ROB OUT: 55466010
Heartbeat_Variant_0 : 1371 0.334717 per_variant_size: 0 1371 0 0 0 0 0 0 0 
Heartbeat_Variant_1 : 1279 0.312256 per_variant_size: 0 593 686 0 0 0 0 0 0 
Heartbeat_Variant_2 : 1380 0.336914 per_variant_size: 0 537 388 246 209 0 0 0 0 
Heartbeat_Variant_3 : 0 0 per_variant_size: 0 0 0 0 0 0 0 0 0 
Heartbeat_Variant_0_evicts 0 : 5745 1 : 193 2 : 183 3 : 0 
Heartbeat_Variant_1_evicts 0 : 198 1 : 0 2 : 366 3 : 0 
Heartbeat_Variant_2_evicts 0 : 185 1 : 368 2 : 0 3 : 0 
Heartbeat_Variant_3_evicts 0 : 0 1 : 0 2 : 0 3 : 0 
Heartbeat CPU 0 instructions: 60000002 cycles: 24908859 heartbeat IPC: 0.91564 cumulative IPC: 0.91564 (Simulation time: 0 hr 7 min 50 sec) 
Cycle: 30000000 FTQ IN: 9286203 FTQ occupancy: 15.2841 DECODE IN: 9286203 DECODE occupancy: 4.99029 ROB IN: 9286203 ROB occupancy: 56.8183 ROB OUT: 9286275
Heartbeat_Variant_0 : 1376 0.335938 per_variant_size: 0 1376 0 0 0 0 0 0 0 
Heartbeat_Variant_1 : 1280 0.3125 per_variant_size: 0 582 698 0 0 0 0 0 0 
Heartbeat_Variant_2 : 1374 0.335449 per_variant_size: 0 526 388 255 205 0 0 0 0 
Heartbeat_Variant_3 : 0 0 per_variant_size: 0 0 0 0 0 0 0 0 0 
Heartbeat_Variant_0_evicts 0 : 5582 1 : 17 2 : 16 3 : 0 
Heartbeat_Variant_1_evicts 0 : 14 1 : 0 2 : 200 3 : 0 
Heartbeat_Variant_2_evicts 0 : 14 1 : 196 2 : 0 3 : 0 
Heartbeat_Variant_3_evicts 0 : 0 1 : 0 2 : 0 3 : 0 
Heartbeat CPU 0 instructions: 70000000 cycles: 35631468 heartbeat IPC: 0.932609 cumulative IPC: 0.924047 (Simulation time: 0 hr 8 min 59 sec) 
Cycle: 40000000 FTQ IN: 9135820 FTQ occupancy: 15.3027 DECODE IN: 9135820 DECODE occupancy: 4.99246 ROB IN: 9135820 ROB occupancy: 59.1854 ROB OUT: 9135821
Heartbeat_Variant_0 : 1394 0.340332 per_variant_size: 0 1394 0 0 0 0 0 0 0 
Heartbeat_Variant_1 : 1275 0.311279 per_variant_size: 0 576 699 0 0 0 0 0 0 
Heartbeat_Variant_2 : 1378 0.336426 per_variant_size: 0 550 349 268 211 0 0 0 0 
Heartbeat_Variant_3 : 0 0 per_variant_size: 0 0 0 0 0 0 0 0 0 
Heartbeat_Variant_0_evicts 0 : 5802 1 : 234 2 : 254 3 : 0 
Heartbeat_Variant_1_evicts 0 : 217 1 : 0 2 : 413 3 : 0 
Heartbeat_Variant_2_evicts 0 : 257 1 : 405 2 : 0 3 : 0 
Heartbeat_Variant_3_evicts 0 : 0 1 : 0 2 : 0 3 : 0 
Heartbeat CPU 0 instructions: 80000001 cycles: 46513888 heartbeat IPC: 0.918913 cumulative IPC: 0.922329 (Simulation time: 0 hr 10 min 11 sec) 
Cycle: 50000000 FTQ IN: 9350463 FTQ occupancy: 15.3092 DECODE IN: 9350463 DECODE occupancy: 5.03011 ROB IN: 9350463 ROB occupancy: 58.0947 ROB OUT: 9350437
Heartbeat_Variant_0 : 1394 0.340332 per_variant_size: 0 1394 0 0 0 0 0 0 0 
Heartbeat_Variant_1 : 1281 0.312744 per_variant_size: 0 562 719 0 0 0 0 0 0 
Heartbeat_Variant_2 : 1378 0.336426 per_variant_size: 0 542 359 265 212 0 0 0 0 
Heartbeat_Variant_3 : 0 0 per_variant_size: 0 0 0 0 0 0 0 0 0 
Heartbeat_Variant_0_evicts 0 : 5693 1 : 109 2 : 111 3 : 0 
Heartbeat_Variant_1_evicts 0 : 108 1 : 0 2 : 294 3 : 0 
Heartbeat_Variant_2_evicts 0 : 113 1 : 289 2 : 0 3 : 0 
Heartbeat_Variant_3_evicts 0 : 0 1 : 0 2 : 0 3 : 0 
Heartbeat CPU 0 instructions: 90000002 cycles: 57217320 heartbeat IPC: 0.93428 cumulative IPC: 0.925288 (Simulation time: 0 hr 11 min 22 sec) 
Cycle: 60000000 FTQ IN: 9314414 FTQ occupancy: 15.3511 DECODE IN: 9314414 DECODE occupancy: 5.07147 ROB IN: 9314414 ROB occupancy: 59.9017 ROB OUT: 9314427
Heartbeat_Variant_0 : 1397 0.341064 per_variant_size: 0 1397 0 0 0 0 0 0 0 
Heartbeat_Variant_1 : 1313 0.320557 per_variant_size: 0 558 755 0 0 0 0 0 0 
Heartbeat_Variant_2 : 1362 0.33252 per_variant_size: 0 504 370 245 243 0 0 0 0 
Heartbeat_Variant_3 : 0 0 per_variant_size: 0 0 0 0 0 0 0 0 0 
Heartbeat_Variant_0_evicts 0 : 5919 1 : 403 2 : 366 3 : 0 
Heartbeat_Variant_1_evicts 0 : 406 1 : 0 2 : 569 3 : 0 
Heartbeat_Variant_2_evicts 0 : 362 1 : 550 2 : 0 3 : 0 
Heartbeat_Variant_3_evicts 0 : 0 1 : 0 2 : 0 3 : 0 
Heartbeat CPU 0 instructions: 100000000 cycles: 68282742 heartbeat IPC: 0.903716 cumulative IPC: 0.920892 (Simulation time: 0 hr 12 min 25 sec) 
Finished CPU 0 instructions: 50000001 cycles: 54295200 cumulative IPC: 0.920892 (Simulation time: 0 hr 12 min 25 sec) 

ChampSim completed all CPUs

Region of Interest Statistics

CPU 0 cumulative IPC: 0.920892 instructions: 50000001 cycles: 54295200
 Fetch stage stalled: 22.6911  Sim cycles: 54295200 fetch stall cycle: 12320197
 Empty decode stage: 68.0124  Sim cycles: 54295200 fetch stall cycle: 36927447
ITLB TOTAL     ACCESS:    7288034  HIT:    6791298  MISS:     496736  HIT %:    93.1842  MISS %:    6.81578   MPKI: 9.93472
ITLB LOAD TRANSLATION INSTRUCTION	ACCESS:    7288034  HIT:    6791298  MISS:     496736  HIT %:    93.1842  MISS %:    6.81578  MPKI: 9.93472

ITLB AVERAGE MISS LATENCY: 9.06758 cycles
ITLB RQ	ACCESS:    8368028	FORWARD:          0	MERGED:     873163	TO_CACHE:    7494865

DTLB TOTAL     ACCESS:   10212381  HIT:    9736801  MISS:     475580  HIT %:    95.3431  MISS %:     4.6569   MPKI: 9.5116
DTLB LOAD TRANSLATION DATA	ACCESS:   10212381  HIT:    9736801  MISS:     475580  HIT %:    95.3431  MISS %:     4.6569  MPKI: 9.5116

DTLB AVERAGE MISS LATENCY: 9.36384 cycles
DTLB RQ	ACCESS:   14357309	FORWARD:          0	MERGED:    4113853	TO_CACHE:   10243456

STLB TOTAL     ACCESS:    1230243  HIT:    1227960  MISS:       2283  HIT %:    99.8144  MISS %:   0.185573   MPKI: 0.04566
STLB LOAD TRANSLATION INSTRUCTION	ACCESS:     496736  HIT:     496417  MISS:        319  HIT %:    99.9358  MISS %:  0.0642192  MPKI: 0.00638
STLB LOAD TRANSLATION DATA	ACCESS:     475537  HIT:     473617  MISS:       1920  HIT %:    99.5962  MISS %:   0.403754  MPKI: 0.0384
STLB TRANSLATION FROM L1D PREFETCHER DATA	ACCESS:     257970  HIT:     257926  MISS:         44  HIT %:    99.9829  MISS %:  0.0170562  MPKI: 0.00088

STLB AVERAGE MISS LATENCY: 82.8975 cycles
STLB RQ	ACCESS:    1348303	FORWARD:          0	MERGED:     118016	TO_CACHE:    1230287

STLB Hit, L1D data hit: 0
STLB Hit, L2C data hit: 0
STLB Hit, LLC data hit: 0
STLB Hit, LLC data miss: 0
STLB STLB hints to L2: 0
L1D TOTAL     ACCESS:   14143124  HIT:   13018188  MISS:    1124936  HIT %:    92.0461  MISS %:    7.95394   MPKI: 22.4987
L1D LOAD DATA	ACCESS:    7501302  HIT:    6761764  MISS:     739538  HIT %:    90.1412  MISS %:     9.8588  MPKI: 14.7908
L1D RFO DATA	ACCESS:    6307807  HIT:    6017287  MISS:     290520  HIT %:    95.3943  MISS %:    4.60572  MPKI: 5.8104
L1D PREFETCH DATA	ACCESS:     334015  HIT:     239137  MISS:      94878  HIT %:    71.5947  MISS %:    28.4053  MPKI: 1.89756

L1D PREFETCH  REQUESTED:     752043  ISSUED:     752043  USEFUL:      36540  USELESS:      67242
L1D USEFUL LOAD PREFETCHES:      36540 PREFETCH ISSUED TO LOWER LEVEL:     103916  ACCURACY: 35.163
 TIMELY PREFETCHES:      36540 LATE PREFETCHES: 8949 DROPPED PREFETCHES: 10
L1D AVERAGE MISS LATENCY: 327571 cycles
L1D RQ	ACCESS:   11348137	FORWARD:          0	MERGED:    3654129	TO_CACHE:    7535394
L1D WQ	ACCESS:    6954528	FORWARD:     158683	MERGED:     132613	TO_CACHE:    6821915
L1D PQ	ACCESS:     376056	FORWARD:          0	MERGED:          0	TO_CACHE:     375987

L1D UNIQUE REGIONS ACCESSED: 0
L1D REGIONS CONFLICTS: 0
L1D Cross Page Prefetch Requests: 6885
L1D Same Page Prefetch Requests: 755022
L1D ROI Sum of L1D PQ occupancy: 4779508
L1D PREFETCHES PUSHED FROM L2C: 0
L1I TOTAL     ACCESS:    7875297  HIT:    5100343  MISS:    2774954  HIT %:    64.7638  MISS %:    35.2362   MPKI: 55.4991
L1I LOAD INSTRUCTION	ACCESS:    7875297  HIT:    5100343  MISS:    2774954  HIT %:    64.7638  MISS %:    35.2362  MPKI: 55.4991

L1I AVERAGE MISS LATENCY: 17.0532 cycles
L1I RQ	ACCESS:   15716220	FORWARD:          0	MERGED:    7348192	TO_CACHE:    8368028

L1BTB TOTAL     ACCESS:    5670095  HIT:    2034367  MISS:    3635728  HIT %:    35.8789  MISS %:    64.1211   MPKI: 72.7146
L1BTB BRANCH_DIRECT_JUMP	ACCESS:     546740  HIT:     143376  MISS:     403364	AVERAGE STALL: 22.6804
L1BTB BRANCH_INDIRECT	ACCESS:     182459  HIT:      65673  MISS:     116786	AVERAGE STALL: 49.8242
L1BTB BRANCH_CONDITIONAL	ACCESS:    2705135  HIT:    1411017  MISS:    1294118	AVERAGE STALL: 30.9264
L1BTB BRANCH_DIRECT_CALL	ACCESS:     946773  HIT:     104164  MISS:     842609	AVERAGE STALL: 34.1207
L1BTB BRANCH_INDIRECT_CALL	ACCESS:     171107  HIT:      20714  MISS:     150393	AVERAGE STALL: 68.8777
L1BTB BRANCH_RETURN	ACCESS:    1117881  HIT:     289423  MISS:     828458	AVERAGE STALL: 33.3345
L1BTB BRANCH_OTHER ACCESS:          0  HIT:          0  MISS:          0	AVERAGE STALL: -nan
L1BTB TOTAL ROB OCCUPANCY AT BTB MISS: 0.753151

L2BTB TOTAL     ACCESS:    3610318  HIT:    3535735  MISS:      74583  HIT %:    97.9342  MISS %:    2.06583   MPKI: 1.49166
L2BTB BRANCH_DIRECT_JUMP	ACCESS:     399220  HIT:     394361  MISS:       4859	AVERAGE STALL: 22.6804
L2BTB BRANCH_INDIRECT	ACCESS:     106457  HIT:     103695  MISS:       2762	AVERAGE STALL: 49.8242
L2BTB BRANCH_CONDITIONAL	ACCESS:    1294118  HIT:    1287937  MISS:       6181	AVERAGE STALL: 30.9264
L2BTB BRANCH_DIRECT_CALL	ACCESS:     842609  HIT:     838907  MISS:       3702	AVERAGE STALL: 34.1207
L2BTB BRANCH_INDIRECT_CALL	ACCESS:     140888  HIT:     130479  MISS:      10409	AVERAGE STALL: 68.8777
L2BTB BRANCH_RETURN	ACCESS:     827026  HIT:     780356  MISS:      46670	AVERAGE STALL: 33.3345
L2BTB BRANCH_OTHER ACCESS:          0  HIT:          0  MISS:          0	AVERAGE STALL: -nan
L2BTB TOTAL ROB OCCUPANCY AT BTB MISS: 36.7141

L2C TOTAL     ACCESS:    4521783  HIT:    4006449  MISS:     515334  HIT %:    88.6033  MISS %:    11.3967   MPKI: 10.3067
L2C LOAD INSTRUCTION	ACCESS:    2774954  HIT:    2513909  MISS:     261045  HIT %:    90.5928  MISS %:    9.40718  MPKI: 5.2209
L2C LOAD TRANSLATION INSTRUCTION	ACCESS:        377  HIT:        123  MISS:        254  HIT %:     32.626  MISS %:     67.374  MPKI: 0.00508
L2C LOAD DATA	ACCESS:     730575  HIT:     647702  MISS:      82873  HIT %:    88.6565  MISS %:    11.3435  MPKI: 1.65746
L2C RFO DATA	ACCESS:     290417  HIT:     225035  MISS:      65382  HIT %:    77.4869  MISS %:    22.5131  MPKI: 1.30764
L2C PREFETCH DATA	ACCESS:     197141  HIT:     116287  MISS:      80854  HIT %:    58.9867  MISS %:    41.0133  MPKI: 1.61708
L2C WRITEBACK DATA	ACCESS:     526198  HIT:     502832  MISS:      23366  HIT %:    95.5595  MISS %:    4.44053  MPKI: 0.46732
L2C LOAD TRANSLATION DATA	ACCESS:       2054  HIT:        510  MISS:       1544  HIT %:    24.8296  MISS %:    75.1704  MPKI: 0.03088
L2C TRANSLATION FROM L1D PREFETCHER DATA	ACCESS:         67  HIT:         51  MISS:         16  HIT %:    76.1194  MISS %:    23.8806  MPKI: 0.00032

L2C PREFETCH  REQUESTED:     100565  ISSUED:     100565  USEFUL:       7846  USELESS:      73502
L2C USEFUL LOAD PREFETCHES:       7846 PREFETCH ISSUED TO LOWER LEVEL:      81203  ACCURACY: 9.6622
 TIMELY PREFETCHES:       7846 LATE PREFETCHES: 349 DROPPED PREFETCHES: 0
L2C AVERAGE MISS LATENCY: 38.4905 cycles
L2C RQ	ACCESS:    3798474	FORWARD:          0	MERGED:          0	TO_CACHE:    3798446
L2C WQ	ACCESS:     526198	FORWARD:         31	MERGED:          0	TO_CACHE:     526198
L2C PQ	ACCESS:     204481	FORWARD:          0	MERGED:       3719	TO_CACHE:     200759

L2C Dense regions hint from L2: 0
PSCL5 TOTAL     ACCESS:       4588  HIT:       2294  MISS:       2294  HIT %:         50  MISS %:         50   MPKI: 0.04588
PSCL5 LOAD TRANSLATION INSTRUCTION	ACCESS:       4458  HIT:       2229  MISS:       2229  HIT %:         50  MISS %:         50  MPKI: 0.04458
PSCL5 TRANSLATION FROM L1D PREFETCHER INSTRUCTION	ACCESS:        130  HIT:         65  MISS:         65  HIT %:         50  MISS %:         50  MPKI: 0.0013


PSCL4 TOTAL     ACCESS:       4422  HIT:       2204  MISS:       2218  HIT %:    49.8417  MISS %:    50.1583   MPKI: 0.04436
PSCL4 LOAD TRANSLATION INSTRUCTION	ACCESS:       3540  HIT:       2139  MISS:       1401  HIT %:    60.4237  MISS %:    39.5763  MPKI: 0.02802
PSCL4 TRANSLATION FROM L1D PREFETCHER INSTRUCTION	ACCESS:        111  HIT:         65  MISS:         46  HIT %:    58.5586  MISS %:    41.4414  MPKI: 0.00092
PSCL4 LOAD TRANSLATION DATA	ACCESS:        752  HIT:          0  MISS:        752  HIT %:          0  MISS %:        100  MPKI: 0.01504
PSCL4 TRANSLATION FROM L1D PREFETCHER DATA	ACCESS:         19  HIT:          0  MISS:         19  HIT %:          0  MISS %:        100  MPKI: 0.00038


PSCL3 TOTAL     ACCESS:       4490  HIT:       2238  MISS:       2252  HIT %:    49.8441  MISS %:    50.1559   MPKI: 0.04504
PSCL3 LOAD TRANSLATION INSTRUCTION	ACCESS:       3574  HIT:       2173  MISS:       1401  HIT %:    60.8002  MISS %:    39.1998  MPKI: 0.02802
PSCL3 TRANSLATION FROM L1D PREFETCHER INSTRUCTION	ACCESS:        111  HIT:         65  MISS:         46  HIT %:    58.5586  MISS %:    41.4414  MPKI: 0.00092
PSCL3 LOAD TRANSLATION DATA	ACCESS:        786  HIT:          0  MISS:        786  HIT %:          0  MISS %:        100  MPKI: 0.01572
PSCL3 TRANSLATION FROM L1D PREFETCHER DATA	ACCESS:         19  HIT:          0  MISS:         19  HIT %:          0  MISS %:        100  MPKI: 0.00038


PSCL2 TOTAL     ACCESS:       4406  HIT:       2112  MISS:       2294  HIT %:    47.9346  MISS %:    52.0654   MPKI: 0.04588
PSCL2 LOAD TRANSLATION INSTRUCTION	ACCESS:       2384  HIT:       2049  MISS:        335  HIT %:     85.948  MISS %:     14.052  MPKI: 0.0067
PSCL2 TRANSLATION FROM L1D PREFETCHER INSTRUCTION	ACCESS:         63  HIT:         63  MISS:          0  HIT %:        100  MISS %:          0  MPKI: 0
PSCL2 LOAD TRANSLATION DATA	ACCESS:       1896  HIT:          0  MISS:       1896  HIT %:          0  MISS %:        100  MPKI: 0.03792
PSCL2 TRANSLATION FROM L1D PREFETCHER DATA	ACCESS:         63  HIT:          0  MISS:         63  HIT %:          0  MISS %:        100  MPKI: 0.00126


LLC TOTAL     ACCESS:     581212  HIT:     549177  MISS:      32035  HIT %:    94.4882  MISS %:    5.51176   MPKI: 0.6407
LLC LOAD INSTRUCTION	ACCESS:     261045  HIT:     259558  MISS:       1487  HIT %:    99.4304  MISS %:   0.569634  MPKI: 0.02974
LLC LOAD TRANSLATION INSTRUCTION	ACCESS:        254  HIT:        204  MISS:         50  HIT %:     80.315  MISS %:     19.685  MPKI: 0.001
LLC LOAD DATA	ACCESS:      82529  HIT:      78550  MISS:       3979  HIT %:    95.1787  MISS %:    4.82134  MPKI: 0.07958
LLC RFO DATA	ACCESS:      65371  HIT:      49763  MISS:      15608  HIT %:     76.124  MISS %:     23.876  MPKI: 0.31216
LLC PREFETCH DATA	ACCESS:      81203  HIT:      70863  MISS:      10340  HIT %:    87.2665  MISS %:    12.7335  MPKI: 0.2068
LLC WRITEBACK DATA	ACCESS:      89250  HIT:      88810  MISS:        440  HIT %:     99.507  MISS %:   0.492997  MPKI: 0.0088
LLC LOAD TRANSLATION DATA	ACCESS:       1544  HIT:       1413  MISS:        131  HIT %:    91.5155  MISS %:    8.48446  MPKI: 0.00262
LLC TRANSLATION FROM L1D PREFETCHER DATA	ACCESS:         16  HIT:         16  MISS:          0  HIT %:        100  MISS %:          0  MPKI: 0

LLC AVERAGE MISS LATENCY: 157.094 cycles
LLC RQ	ACCESS:     410765	FORWARD:          0	MERGED:          0	TO_CACHE:     410759
LLC WQ	ACCESS:      89250	FORWARD:          6	MERGED:          0	TO_CACHE:      89250
LLC PQ	ACCESS:      81203	FORWARD:          0	MERGED:          0	TO_CACHE:      81203

LLC Dense regions hint to LLC: 0

RAW hits: 1290627
Loads Generated: 12638764
Loads sent to L1D: 11348137
Stores Generated: 6954524
Stores sent to L1D: 6954528
Major fault: 0 Minor fault: 2672
Allocated PAGES: 2672

stream: 
stream:times selected: 1189794
stream:pref_filled: 120849
stream:pref_useful: 25737
stream:pref_late: 6612
stream:misses: 7284
stream:misses_by_poll: 0

CS: 
CS:times selected: 180898
CS:pref_filled: 59689
CS:pref_useful: 36256
CS:pref_late: 7664
CS:misses: 17210
CS:misses_by_poll: 5

CPLX: 
CPLX:times selected: 1007772
CPLX:pref_filled: 20889
CPLX:pref_useful: 5117
CPLX:pref_late: 3017
CPLX:misses: 92816
CPLX:misses_by_poll: 0

NL_L1: 
NL:times selected: 20684
NL:pref_filled: 645
NL:pref_useful: 337
NL:pref_late: 341
NL:misses: 1518
NL:misses_by_poll: 0

total selections: 2399148
total_filled: 94878
total_useful: 36540
total_late: 18892
total_polluted: 5
total_misses_after_warmup: 773632
conflicts: 5955927

test: 118125

DRAM Statistics
 CHANNEL 0
 RQ ROW_BUFFER_HIT:      11580  ROW_BUFFER_MISS:      20005
 DBUS_CONGESTED:          6
 WQ ROW_BUFFER_HIT:       1705  ROW_BUFFER_MISS:      13497  FULL:          0

 AVG_CONGESTED_CYCLE: 6

CPU 0 Branch Prediction Accuracy: 99.7901% MPKI: 0.3838 Average ROB Occupancy at Mispredict: 69.4722
Branch types
NOT_BRANCH: 40858403 81.7168%
BRANCH_DIRECT_JUMP: 546740 1.09348%
BRANCH_INDIRECT: 182459 0.364918%
BRANCH_CONDITIONAL: 6176339 12.3527%
BRANCH_DIRECT_CALL: 946773 1.89355%
BRANCH_INDIRECT_CALL: 171107 0.342214%
BRANCH_RETURN: 1117881 2.23576%
BRANCH_OTHER: 0 0%

DRAM PAGES: 1048576
Allocated PAGES: 2672
Average_ROB_Occupancy: 59.1725
Average_Decode_Occupancy: 4.98891
Average_FTQ_Occupancy: 15.2638
Indirect max targets: 14 Average targets: 1.18266
Branch_type:  BRANCH_DIRECT_JUMP:  Count Percentage: 2.11701 7.16126 4.13223 8.5439 10.1896 3.82676 0.902895 63.1264 
Branch_type:  BRANCH_INDIRECT:  Count Percentage: 11.7457 3.43481 2.55791 0 16.6757 9.68397 2.27217 53.6298 
Branch_type:  BRANCH_CONDITIONAL:  Count Percentage: 25.2877 2.75398 1.7048 5.25752 5.1852 4.2479 0.510392 55.0525 
Branch_type:  BRANCH_DIRECT_CALL:  Count Percentage: 0.774726 1.29441 1.37467 3.9975 4.18531 0.988976 0.938116 86.4463 
Branch_type:  BRANCH_INDIRECT_CALL:  Count Percentage: 9.56615 0 2.99692 8.72297 2.42915 0.00292668 1.28862 74.9933 
Branch_type:  BRANCH_RETURN:  Count Percentage: 8.4055 1.09493 1.32088 5.86741 7.10614 4.68347 1.47697 70.0447 
Branch_type:  BRANCH_DIRECT_JUMP:  Total Count: 23189 78442 45263 93587 111613 41917 9890 691465 
Branch_type:  BRANCH_INDIRECT:  Total Count: 42916 12550 9346 0 60929 35383 8302 195951 
Branch_type:  BRANCH_CONDITIONAL:  Total Count: 3125689 340405 210722 649855 640916 525061 63087 6804756 
Branch_type:  BRANCH_DIRECT_CALL:  Total Count: 14623 24432 25947 75453 78998 18667 17707 1631680 
Branch_type:  BRANCH_INDIRECT_CALL:  Total Count: 32686 0 10240 29805 8300 10 4403 256240 
Branch_type:  BRANCH_RETURN:  Total Count: 187451 24418 29457 130849 158474 104446 32938 1562067 
Number of unique branch instructions: 11118
Upper 32 bits: 
aaaa
ffff
ffff0000
Unique upper 32 bits: 3
Unique upper 36 bits: 3
Unique upper 40 bits: 5
Unique upper 44 bits: 32
Unique upper 48 bits: 160
Variant_0 : 1397 0.341064
Variant_1 : 1313 0.320557
Variant_2 : 1362 0.33252
Variant_3 : 0 0
Offset_3 4608
Offset_4 284
Offset_5 501
Offset_6 557
Offset_7 661
Offset_8 615
Offset_9 547
Offset_10 433
Offset_11 357
Offset_12 336
Offset_13 248
Offset_14 252
Offset_15 203
Offset_16 234
Offset_17 178
Offset_18 152
Offset_19 270
Offset_20 148
Offset_21 262
Offset_22 412
Offset_23 245
Offset_24 373
Offset_25 117
Offset_47 100
Offset_64 21
decode_dispatch_called: 29366925 54.0875
Dispatch_width: 0 17303434 58.9215 31.8692
Dispatch_width: 1 2151114 7.32495 3.96189
Dispatch_width: 2 1208491 4.11514 2.22578
Dispatch_width: 3 1094382 3.72658 2.01561
Dispatch_width: 4 1148203 3.90985 2.11474
Dispatch_width: 5 1212149 4.1276 2.23252
Dispatch_width: 6 5249152 17.8744 9.6678
Empty_decode_cycles: 24928275 45.9125
ROB_full_cycles: 570110 1.05002
Starvation_cycles_per_kilo_instr: 484.759
Starvation_cycles_per_kilo_instr_3: 461.156
Starvation_cycles_per_kilo_instr_0: 416.616
Branch_type_1  (3,1)  (4,10)  (5,41)  (6,75)  (7,129)  (8,159)  (9,144)  (10,113)  (11,79)  (12,55)  (13,11)  (14,2)  (15,3)  (16,4)  (18,1)  (19,5)  (20,2)  (21,1)  (22,3)  (23,2)  (24,10)  (25,12)  (64,2) 
Branch_type_2  (3,1)  (4,1)  (5,1)  (8,4)  (9,4)  (10,1)  (12,1)  (13,1)  (14,1)  (16,3)  (17,2)  (20,2)  (21,2)  (23,5)  (24,1)  (47,46) 
Branch_type_3  (3,4606)  (4,273)  (5,455)  (6,464)  (7,498)  (8,381)  (9,302)  (10,175)  (11,138)  (12,62)  (13,10)  (24,3)  (64,15) 
Branch_type_4  (6,4)  (7,8)  (8,30)  (9,58)  (10,68)  (11,73)  (12,121)  (13,106)  (14,113)  (15,97)  (16,103)  (17,84)  (18,65)  (19,130)  (20,74)  (21,141)  (22,218)  (23,138)  (24,216)  (25,101)  (64,2) 
Branch_type_5  (8,3)  (9,1)  (10,4)  (11,5)  (12,3)  (13,14)  (14,16)  (15,11)  (16,22)  (17,11)  (18,23)  (19,15)  (20,12)  (21,13)  (22,43)  (23,26)  (24,42)  (64,1) 
Branch_type_6  (5,4)  (6,14)  (7,26)  (8,38)  (9,38)  (10,72)  (11,62)  (12,94)  (13,106)  (14,120)  (15,92)  (16,102)  (17,81)  (18,63)  (19,120)  (20,58)  (21,105)  (22,148)  (23,74)  (24,101)  (25,4)  (47,54)  (64,1) 
Unique trigger count: 
Variant_0_evicts_0 : 0
Variant_0_evicts_1 : 0
Variant_0_evicts_2 : 0
Variant_0_evicts_3 : 0
Variant_1_evicts_0 : 0
Variant_1_evicts_1 : 0
Variant_1_evicts_2 : 0
Variant_1_evicts_3 : 0
Variant_2_evicts_0 : 0
Variant_2_evicts_1 : 0
Variant_2_evicts_2 : 0
Variant_2_evicts_3 : 0
Variant_3_evicts_0 : 0
Variant_3_evicts_1 : 0
Variant_3_evicts_2 : 0
Variant_3_evicts_3 : 0
BTB PER SET UNIQUE ADDR: 15 17 11 15 16 12 10 14 13 19 11 16 19 11 17 12 11 17 14 13 10 18 17 13 12 18 12 17 15 14 15 19 18 13 13 14 18 11 11 11 16 15 15 20 8 13 16 11 20 13 15 13 12 16 16 5 20 10 15 13 10 18 12 15 13 16 14 8 22 16 17 12 17 12 13 10 9 16 8 16 14 12 15 21 14 17 21 13 13 29 11 9 15 10 6 19 13 11 15 18 21 16 16 15 9 11 12 11 12 7 13 18 15 14 13 9 17 10 10 13 14 11 12 13 14 15 7 10 22 18 11 12 12 15 10 19 13 16 11 21 11 17 16 11 16 19 19 16 9 18 16 17 12 18 14 19 19 16 12 19 17 11 17 20 9 21 9 11 12 13 18 17 18 13 15 12 14 15 18 17 11 13 10 20 23 21 7 15 16 14 15 11 10 19 14 13 8 16 10 17 17 14 10 14 10 12 9 11 11 18 13 16 16 14 12 12 14 11 17 19 9 19 14 10 7 13 20 12 13 20 10 9 8 21 15 17 14 15 16 10 17 11 15 15 11 13 12 10 10 13 19 16 13 13 17 17 9 12 12 13 19 10 7 15 17 5 11 12 7 16 6 16 8 9 9 13 15 16 14 11 14 14 12 14 10 11 10 19 21 17 11 9 14 20 6 21 9 17 14 12 10 13 12 19 16 15 17 11 21 12 12 20 14 20 15 9 17 19 15 18 12 15 12 12 16 22 21 14 13 9 16 15 9 9 13 19 12 14 14 19 10 12 7 19 17 13 10 19 12 9 17 6 13 15 18 18 19 13 12 11 15 13 11 19 15 16 10 16 14 14 12 11 17 17 11 20 13 16 16 16 13 12 10 11 9 13 21 16 13 15 18 15 17 17 11 11 17 10 23 11 7 19 13 16 11 13 13 15 16 13 19 13 9 16 16 11 13 15 24 18 15 9 16 14 18 15 10 13 13 10 21 13 11 14 16 20 21 12 14 12 13 15 8 17 25 13 10 14 19 13 18 18 12 11 14 19 23 11 12 18 11 16 17 21 28 14 14 13 7 13 15 9 15 14 18 21 10 17 9 18 14 17 13 18 12 19 24 13 15 16 14 14 13 9 13 10 17 18 15 8 14 13 14 18 10 7 11 18 18 14 15 19 15 11 18 14 17 21 10 11 12 16 16 12 15 16 22 13 11 20 17 17 17 12 13 17 11 15 20 14 13 14 14 16 19 14 13 20 7 13 14 15 18 21 16 18 15 18 16 23 13 19 20 15 17 11 13 9 13 17 15 15 20 21 14 20 15 19 17 13 12 14 10 10 13 12 15 15 24 10 10 18 14 11 17 12 9 17 13 15 15 9 12 11 16 15 21 12 15 14 22 13 14 14 4 17 13 10 15 17 23 18 11 10 13 16 11 19 10 18 11 14 13 14 18 15 13 13 14 19 9 20 17 22 18 14 13 19 18 12 9 14 12 13 17 14 12 21 15 11 13 7 17 21 16 17 11 15 15 13 15 15 14 14 22 8 12 20 16 20 13 14 13 18 18 17 14 14 20 15 14 17 15 7 11 14 7 20 12 16 12 14 11 17 10 19 17 13 10 11 11 14 12 11 14 12 13 11 13 19 16 15 16 15 12 13 13 11 11 13 17 12 13 7 8 14 18 17 20 17 11 18 17 13 21 21 13 18 15 11 10 12 16 18 14 10 19 13 9 12 15 10 9 14 8 21 11 17 13 13 15 17 9 7 11 13 14 12 19 22 8 16 20 11 16 13 8 10 14 10 11 13 22 17 23 19 11 12 17 13 21 16 21 18 16 15 16 16 14 14 17 19 14 19 13 14 21 16 8 19 10 19 12 17 16 18 9 21 14 17 12 14 13 18 14 14 15 14 13 14 15 17 14 14 16 20 12 19 14 16 8 14 10 16 20 19 13 17 16 14 14 8 10 13 22 7 12 12 21 16 13 20 17 14 18 8 16 16 13 13 21 11 14 15 16 18 16 14 15 15 18 16 13 16 14 12 23 17 16 11 12 13 16 13 8 16 15 18 17 20 15 13 15 16 16 16 17 19 18 12 14 18 12 10 11 10 7 13 14 11 13 23 21 16 19 20 16 17 18 18 13 18 19 17 13 15 22 15 14 20 18 17 10 10 13 16 12 12 17 17 13 15 12 22 18 16 18 16 12 20 16 16 17 18 16 16 21 14 18 15 15 18 15 12 11 21 20 18 14 12 15 17 14 15 14 15 10 13 16 10 25 17 7 17 15 19 11 16 13 16 14 18 12 13 13 13 9 14 10 12 15 19 18 11 
BTB PER SET COUNT: 1004 34 1572 28 110 14 10 378 1398 24 18 653 20488 1615 20 19 997 631 184 66 43 27 162 162 15 31 17 463 123 1375 531 966 28 25 27 585 43 17 18 14 20 28 16 113 10 23 24 21 212 15 20 434 19 29 32 7 30 13 26 21 17 29 17 23 18 190 21 10 37 25 20 542 28 23 17 24 12 75 10 30 760 17 571 36 17 33 39 16 19 58 38 12 141 11 27 29 131 15 20 39 45 26 20 132 1223 13 30 15 137 2888 23 32 1388 34 28 811 32 12 825 468 280 31 18 16 17 36 9 1926 31 836 20 19 17 23 18 38 999 21 15 45 13 29 25 12 115 402 40 24 15 123 31 168 1430 29 23 30 619 27 18 2315 37 94 28 26 20 335 12 19 19 1663 26 23 27 17 25 17 19 29 1360 211 351 167 3568 29 41 69 8 20 196 631 27 16 18 31 24 112 10 590 19 758 28 17 14 29 20 21 12 11 14 1576 21 24 28 933 17 21 21 24 897 43 42 37 24 14 10 29 31 21 477 34 15 16 14 35 23 18 42 240 40 14 23 17 26 159 17 414 236 15 10 22 27 42 16 23 22 167 85 20 17 26 28 20 9 21 27 8 15 15 907 32 7 21 479 10 66 17 20 27 19 15 28 22 1255 60 18 15 11 802 31 21 19 17 17 348 8 30 13 25 19 27 16 29 20 34 27 33 70 18 42 16 98 40 17 25 1487 63 25 41 25 24 21 6355 20 30 29 2177 167 18 19 16 20 22 14 10 15 25 14 921 21 37 14 603 10 32 31 39 22 38 19 9 61 1468 60 25 34 24 28 20 16 18 30 31 20 33 22 208 14 24 20 16 22 496 32 33 14 41 18 24 29 130 73 23 14 14 19 17 1567 37 14 1232 227 19 24 37 15 15 19 11 2235 390 8 43 19 27 25 30 23 19 23 28 36 17 11 28 22 19 25 40 91 27 21 13 32 33 28 20 506 55 21 17 42 14 19 19 517 40 46 29 27 25 14 21 75 28 40 15 594 26 30 17 810 1120 22 15 256 37 43 17 18 27 18 22 25 712 45 21 8667 21 9 19 21 11 27 26 28 68 17 37 11 45 27 1039 17 41 15 161 324 28 30 26 652 19 1283 12 19 17 412 33 35 11 24 53 18 241 19 8 21 33 28 24 24 483 978 501 28 18 24 29 19 383 14 19 23 160 19 28 85 23 16 135 39 86 32 16 22 41 96 1023 31 493 15 17 19 22 48 27 15 40 8 764 17 21 528 66 23 32 38 23 24 42 17 75 41 25 524 22 20 9 21 1132 1475 65 30 69 2473 23 25 29 28 18 17 28 16 13 19 18 787 29 40 12 19 35 79 16 48 24 11 507 46 33 22 11 17 16 24 27 39 1001 128 20 38 24 26 18 7 30 22 12 33 483 36 22 16 856 21 22 21 31 17 30 21 33 786 62 32 385 22 233 26 522 11 25 31 653 441 26 963 34 275 17 9 24 15 27 41 522 24 113 198 918 19 10 36 40 537 36 26 26 1735 29 22 26 40 18 341 11 22 56 25 29 26 27 20 254 22 30 32 17 123 23 16 34 24 12 1466 22 7 2199 29 28 230 27 840 27 16 37 20 23 13 17 20 19 231 19 159 17 17 19 26 649 179 176 33 1190 17 23 14 17 61 166 34 2815 21 9 20 17 459 26 35 52 14 38 23 16 297 27 119 23 26 17 1151 18 175 607 1353 15 32 21 10 16 22 20 11 78 14 35 18 1687 22 25 45 36 13 13 23 23 21 65 49 41 27 33 413 15 53 316 10 15 20 11 20 990 38 20 533 55 150 21 26 39 254 36 49 318 29 30 27 23 34 44 20 3893 34 446 26 781 116 1512 10 1029 14 33 21 74 303 54 9 29 22 21 14 17 13 28 346 1794 25 21 687 19 29 29 20 23 214 34 19 31 28 2561 14 289 22 25 1371 31 23 26 22 20 403 8 834 25 471 12 19 20 42 27 157 40 35 28 27 11 31 41 656 26 25 13 31 39 45 30 23 27 18 36 26 236 347 2944 15 18 35 24 465 16 22 22 28 244 14 28 17 42 152 261 376 381 26 33 28 1292 1107 35 30 47 22 300 19 12 18 221 11 22 23 19 18 41 102 22 32 1275 100 23 57 23 17 2361 34 28 19 25 50 22 20 32 320 739 1506 217 16 25 14 30 39 124 27 22 25 39 32 23 23 27 36 59 92 20 23 23 376 35 33 17 722 1456 22 79 19 343 20 1000 29 33 19 13 17 591 18 21 21 26 19 1393 30 15 151 1404 16 27 26 32 14 33 19 985 18 27 18 17 22 20 11 39 11 15 37 30 28 28 
To predecode: 0
Predecoding something: 0
Predecode request dropped: 0
sizeofblock_0 0
sizeofblock_1 48854
sizeofblock_2 33091
sizeofblock_3 43547
sizeofblock_4 27245
sizeofblock_5 0
sizeofblock_6 0
sizeofblock_7 0
sizeofblock_8 0
Variant_0 Correct: 1610054 Incorrect: 0 Accuracy: 1
Variant_1 Correct: 2087884 Incorrect: 0 Accuracy: 1
Variant_2 Correct: 3643424 Incorrect: 0 Accuracy: 1
Variant_3 Correct: 0 Incorrect: 0 Accuracy: -nan
