
*** ChampSim Multicore Out-of-Order Simulator ***

Warmup Instructions: 50000000
Simulation Instructions: 50000000
Number of CPUs: 1
LLC sets: 2048
LLC ways: 16
Off-chip DRAM Size: 4096 MB Channels: 1 Width: 64-bit Data Rate: 6400 MT/s
CPU 0 runs ./micro_traces/srv163.trace.gz
.gz
ITLB has LRU replacement policy
DTLB has LRU replacement policy
STLB has LRU replacement policy
FDIP Prefetcher at L1I
L1I has LRU replacement policy
L1D has LRU replacement policy
Initialize SRRIP state for L2C
Initialize DRRIP state for LLC
Heartbeat_Variant_0 : 1272 0.310547 per_variant_size: 0 1272 0 0 0 0 0 0 0 
Heartbeat_Variant_1 : 1150 0.280762 per_variant_size: 0 539 611 0 0 0 0 0 0 
Heartbeat_Variant_2 : 933 0.227783 per_variant_size: 0 510 271 110 42 0 0 0 0 
Heartbeat_Variant_3 : 711 0.173584 per_variant_size: 0 463 186 53 8 1 0 0 0 
Heartbeat_Variant_0_evicts 0 : 7121 1 : 1512 2 : 1200 3 : 993 
Heartbeat_Variant_1_evicts 0 : 1516 1 : 0 2 : 1058 3 : 989 
Heartbeat_Variant_2_evicts 0 : 1222 1 : 1076 2 : 0 3 : 709 
Heartbeat_Variant_3_evicts 0 : 939 1 : 985 2 : 737 3 : 0 
Heartbeat CPU 0 instructions: 10000001 cycles: 2797913 heartbeat IPC: 3.57409 cumulative IPC: 3.57409 (Simulation time: 0 hr 1 min 57 sec) 
Heartbeat_Variant_0 : 1258 0.307129 per_variant_size: 0 1258 0 0 0 0 0 0 0 
Heartbeat_Variant_1 : 1154 0.281738 per_variant_size: 0 556 598 0 0 0 0 0 0 
Heartbeat_Variant_2 : 955 0.233154 per_variant_size: 0 550 268 94 43 0 0 0 0 
Heartbeat_Variant_3 : 716 0.174805 per_variant_size: 0 467 194 47 6 2 0 0 0 
Heartbeat_Variant_0_evicts 0 : 7236 1 : 1481 2 : 1211 3 : 922 
Heartbeat_Variant_1_evicts 0 : 1518 1 : 0 2 : 1122 3 : 1003 
Heartbeat_Variant_2_evicts 0 : 1184 1 : 1153 2 : 0 3 : 705 
Heartbeat_Variant_3_evicts 0 : 926 1 : 1009 2 : 693 3 : 0 
Heartbeat CPU 0 instructions: 20000001 cycles: 5594543 heartbeat IPC: 3.57573 cumulative IPC: 3.57491 (Simulation time: 0 hr 3 min 36 sec) 
Heartbeat_Variant_0 : 1257 0.306885 per_variant_size: 0 1257 0 0 0 0 0 0 0 
Heartbeat_Variant_1 : 1188 0.290039 per_variant_size: 0 572 616 0 0 0 0 0 0 
Heartbeat_Variant_2 : 945 0.230713 per_variant_size: 0 506 285 109 45 0 0 0 0 
Heartbeat_Variant_3 : 700 0.170898 per_variant_size: 0 444 188 50 15 3 0 0 0 
Heartbeat_Variant_0_evicts 0 : 7466 1 : 1793 2 : 1301 3 : 1140 
Heartbeat_Variant_1_evicts 0 : 1820 1 : 0 2 : 1176 3 : 1258 
Heartbeat_Variant_2_evicts 0 : 1286 1 : 1186 2 : 0 3 : 825 
Heartbeat_Variant_3_evicts 0 : 1129 1 : 1246 2 : 830 3 : 0 
Heartbeat CPU 0 instructions: 30000003 cycles: 8390134 heartbeat IPC: 3.57706 cumulative IPC: 3.57563 (Simulation time: 0 hr 5 min 14 sec) 
Heartbeat_Variant_0 : 1268 0.30957 per_variant_size: 0 1268 0 0 0 0 0 0 0 
Heartbeat_Variant_1 : 1174 0.286621 per_variant_size: 0 564 610 0 0 0 0 0 0 
Heartbeat_Variant_2 : 946 0.230957 per_variant_size: 0 534 257 111 44 0 0 0 0 
Heartbeat_Variant_3 : 702 0.171387 per_variant_size: 0 454 190 45 12 1 0 0 0 
Heartbeat_Variant_0_evicts 0 : 6768 1 : 1198 2 : 831 3 : 603 
Heartbeat_Variant_1_evicts 0 : 1165 1 : 0 2 : 837 3 : 804 
Heartbeat_Variant_2_evicts 0 : 849 1 : 836 2 : 0 3 : 485 
Heartbeat_Variant_3_evicts 0 : 607 1 : 786 2 : 501 3 : 0 
Heartbeat CPU 0 instructions: 40000002 cycles: 11186279 heartbeat IPC: 3.57635 cumulative IPC: 3.57581 (Simulation time: 0 hr 6 min 52 sec) 
Heartbeat_Variant_0 : 1257 0.306885 per_variant_size: 0 1257 0 0 0 0 0 0 0 
Heartbeat_Variant_1 : 1185 0.289307 per_variant_size: 0 572 613 0 0 0 0 0 0 
Heartbeat_Variant_2 : 951 0.232178 per_variant_size: 0 528 271 112 40 0 0 0 0 
Heartbeat_Variant_3 : 697 0.170166 per_variant_size: 0 426 196 65 9 1 0 0 0 
Heartbeat_Variant_0_evicts 0 : 6897 1 : 1328 2 : 1007 3 : 786 
Heartbeat_Variant_1_evicts 0 : 1340 1 : 0 2 : 970 3 : 931 
Heartbeat_Variant_2_evicts 0 : 1035 1 : 968 2 : 0 3 : 601 
Heartbeat_Variant_3_evicts 0 : 757 1 : 934 2 : 622 3 : 0 
Heartbeat CPU 0 instructions: 50000001 cycles: 13982286 heartbeat IPC: 3.57653 cumulative IPC: 3.57595 (Simulation time: 0 hr 8 min 31 sec) 

Warmup complete CPU 0 instructions: 50000001 cycles: 13982286 (Simulation time: 0 hr 8 min 31 sec) 

Cycle: 20000000 FTQ IN: 58079526 FTQ occupancy: 19.1733 DECODE IN: 58079440 DECODE occupancy: 49.6627 ROB IN: 58079440 ROB occupancy: 302.581 ROB OUT: 58079373
Heartbeat_Variant_0 : 1252 0.305664 per_variant_size: 0 1252 0 0 0 0 0 0 0 
Heartbeat_Variant_1 : 1168 0.285156 per_variant_size: 0 572 596 0 0 0 0 0 0 
Heartbeat_Variant_2 : 955 0.233154 per_variant_size: 0 560 242 121 32 0 0 0 0 
Heartbeat_Variant_3 : 715 0.174561 per_variant_size: 0 472 195 34 12 2 0 0 0 
Heartbeat_Variant_0_evicts 0 : 7146 1 : 1483 2 : 1166 3 : 858 
Heartbeat_Variant_1_evicts 0 : 1473 1 : 0 2 : 1091 3 : 1010 
Heartbeat_Variant_2_evicts 0 : 1155 1 : 1095 2 : 0 3 : 676 
Heartbeat_Variant_3_evicts 0 : 884 1 : 1013 2 : 665 3 : 0 
Heartbeat CPU 0 instructions: 60000002 cycles: 21433086 heartbeat IPC: 1.34214 cumulative IPC: 1.34214 (Simulation time: 0 hr 10 min 9 sec) 
Heartbeat_Variant_0 : 1269 0.309814 per_variant_size: 0 1269 0 0 0 0 0 0 0 
Heartbeat_Variant_1 : 1180 0.288086 per_variant_size: 0 576 604 0 0 0 0 0 0 
Heartbeat_Variant_2 : 927 0.226318 per_variant_size: 0 495 274 111 47 0 0 0 0 
Heartbeat_Variant_3 : 714 0.174316 per_variant_size: 0 463 187 53 10 1 0 0 0 
Heartbeat_Variant_0_evicts 0 : 6963 1 : 1227 2 : 960 3 : 775 
Heartbeat_Variant_1_evicts 0 : 1226 1 : 0 2 : 917 3 : 888 
Heartbeat_Variant_2_evicts 0 : 943 1 : 886 2 : 0 3 : 625 
Heartbeat_Variant_3_evicts 0 : 776 1 : 906 2 : 605 3 : 0 
Heartbeat CPU 0 instructions: 70000001 cycles: 28890945 heartbeat IPC: 1.34087 cumulative IPC: 1.3415 (Simulation time: 0 hr 11 min 51 sec) 
Cycle: 30000000 FTQ IN: 13427591 FTQ occupancy: 10.8428 DECODE IN: 13427617 DECODE occupancy: 27.0282 ROB IN: 13427557 ROB occupancy: 202.918 ROB OUT: 13427273
Heartbeat_Variant_0 : 1265 0.308838 per_variant_size: 0 1265 0 0 0 0 0 0 0 
Heartbeat_Variant_1 : 1152 0.28125 per_variant_size: 0 540 612 0 0 0 0 0 0 
Heartbeat_Variant_2 : 967 0.236084 per_variant_size: 0 559 273 101 34 0 0 0 0 
Heartbeat_Variant_3 : 706 0.172363 per_variant_size: 0 467 181 48 9 1 0 0 0 
Heartbeat_Variant_0_evicts 0 : 7199 1 : 1479 2 : 1106 3 : 874 
Heartbeat_Variant_1_evicts 0 : 1470 1 : 0 2 : 1073 3 : 1026 
Heartbeat_Variant_2_evicts 0 : 1108 1 : 1103 2 : 0 3 : 653 
Heartbeat_Variant_3_evicts 0 : 885 1 : 1015 2 : 645 3 : 0 
Heartbeat CPU 0 instructions: 80000003 cycles: 36318018 heartbeat IPC: 1.34643 cumulative IPC: 1.34314 (Simulation time: 0 hr 13 min 32 sec) 
Cycle: 40000000 FTQ IN: 13501462 FTQ occupancy: 10.5644 DECODE IN: 13501476 DECODE occupancy: 26.4645 ROB IN: 13501476 ROB occupancy: 201.483 ROB OUT: 13501667
Heartbeat_Variant_0 : 1262 0.308105 per_variant_size: 0 1262 0 0 0 0 0 0 0 
Heartbeat_Variant_1 : 1177 0.287354 per_variant_size: 0 575 602 0 0 0 0 0 0 
Heartbeat_Variant_2 : 952 0.232422 per_variant_size: 0 533 275 101 43 0 0 0 0 
Heartbeat_Variant_3 : 699 0.170654 per_variant_size: 0 425 221 43 9 1 0 0 0 
Heartbeat_Variant_0_evicts 0 : 6786 1 : 1221 2 : 913 3 : 772 
Heartbeat_Variant_1_evicts 0 : 1217 1 : 0 2 : 930 3 : 888 
Heartbeat_Variant_2_evicts 0 : 914 1 : 927 2 : 0 3 : 573 
Heartbeat_Variant_3_evicts 0 : 778 1 : 862 2 : 586 3 : 0 
Heartbeat CPU 0 instructions: 90000000 cycles: 43796772 heartbeat IPC: 1.33712 cumulative IPC: 1.34163 (Simulation time: 0 hr 15 min 12 sec) 
Cycle: 50000000 FTQ IN: 13266856 FTQ occupancy: 10.555 DECODE IN: 13266873 DECODE occupancy: 26.0649 ROB IN: 13266873 ROB occupancy: 196.75 ROB OUT: 13266681
Heartbeat_Variant_0 : 1291 0.315186 per_variant_size: 0 1291 0 0 0 0 0 0 0 
Heartbeat_Variant_1 : 1181 0.28833 per_variant_size: 0 577 604 0 0 0 0 0 0 
Heartbeat_Variant_2 : 913 0.2229 per_variant_size: 0 483 263 119 48 0 0 0 0 
Heartbeat_Variant_3 : 705 0.172119 per_variant_size: 0 458 184 49 13 1 0 0 0 
Heartbeat_Variant_0_evicts 0 : 7311 1 : 1534 2 : 1268 3 : 945 
Heartbeat_Variant_1_evicts 0 : 1517 1 : 0 2 : 1142 3 : 981 
Heartbeat_Variant_2_evicts 0 : 1253 1 : 1099 2 : 0 3 : 726 
Heartbeat_Variant_3_evicts 0 : 948 1 : 1003 2 : 707 3 : 0 
Heartbeat CPU 0 instructions: 100000003 cycles: 51266851 heartbeat IPC: 1.33867 cumulative IPC: 1.34104 (Simulation time: 0 hr 16 min 51 sec) 
Finished CPU 0 instructions: 50000002 cycles: 37284565 cumulative IPC: 1.34104 (Simulation time: 0 hr 16 min 51 sec) 

ChampSim completed all CPUs

Region of Interest Statistics

CPU 0 cumulative IPC: 1.34104 instructions: 50000002 cycles: 37284565
 Fetch stage stalled: 60.1725  Sim cycles: 37284565 fetch stall cycle: 22435038
 Empty decode stage: 46.2919  Sim cycles: 37284565 fetch stall cycle: 17259720
ITLB TOTAL     ACCESS:    5811416  HIT:    5315573  MISS:     495843  HIT %:    91.4678  MISS %:    8.53222   MPKI: 9.91686
ITLB LOAD TRANSLATION INSTRUCTION	ACCESS:    5691852  HIT:    5196009  MISS:     495843  HIT %:    91.2885  MISS %:    8.71145  MPKI: 9.91686
ITLB TRANSLATION FROM L1D PREFETCHER INSTRUCTION	ACCESS:     119564  HIT:     119564  MISS:          0  HIT %:        100  MISS %:          0  MPKI: 0

ITLB AVERAGE MISS LATENCY: 9.04092 cycles
ITLB RQ	ACCESS:    7895680	FORWARD:          0	MERGED:    1633092	TO_CACHE:    6262588

DTLB TOTAL     ACCESS:    9027288  HIT:    8552135  MISS:     475153  HIT %:    94.7365  MISS %:    5.26352   MPKI: 9.50306
DTLB LOAD TRANSLATION DATA	ACCESS:    9027288  HIT:    8552135  MISS:     475153  HIT %:    94.7365  MISS %:    5.26352  MPKI: 9.50306

DTLB AVERAGE MISS LATENCY: 9.31484 cycles
DTLB RQ	ACCESS:   13389193	FORWARD:          0	MERGED:    4326058	TO_CACHE:    9063135

STLB TOTAL     ACCESS:    1216029  HIT:    1214140  MISS:       1889  HIT %:    99.8447  MISS %:   0.155342   MPKI: 0.03778
STLB LOAD TRANSLATION INSTRUCTION	ACCESS:     495843  HIT:     495626  MISS:        217  HIT %:    99.9562  MISS %:  0.0437639  MPKI: 0.00434
STLB LOAD TRANSLATION DATA	ACCESS:     475110  HIT:     473457  MISS:       1653  HIT %:    99.6521  MISS %:   0.347919  MPKI: 0.03306
STLB TRANSLATION FROM L1D PREFETCHER DATA	ACCESS:     245076  HIT:     245057  MISS:         19  HIT %:    99.9922  MISS %:  0.0077527  MPKI: 0.00038

STLB AVERAGE MISS LATENCY: 73.7353 cycles
STLB RQ	ACCESS:    1335237	FORWARD:          0	MERGED:     119163	TO_CACHE:    1216074

STLB Hit, L1D data hit: 0
STLB Hit, L2C data hit: 0
STLB Hit, LLC data hit: 0
STLB Hit, LLC data miss: 0
STLB STLB hints to L2: 0
L1D TOTAL     ACCESS:   13136492  HIT:   12019233  MISS:    1117259  HIT %:     91.495  MISS %:      8.505   MPKI: 22.3452
L1D LOAD DATA	ACCESS:    6598422  HIT:    5860867  MISS:     737555  HIT %:    88.8223  MISS %:    11.1777  MPKI: 14.7511
L1D RFO DATA	ACCESS:    6215114  HIT:    5929620  MISS:     285494  HIT %:    95.4065  MISS %:    4.59354  MPKI: 5.70988
L1D PREFETCH DATA	ACCESS:     322956  HIT:     228746  MISS:      94210  HIT %:    70.8288  MISS %:    29.1712  MPKI: 1.8842

L1D PREFETCH  REQUESTED:     728821  ISSUED:     728821  USEFUL:      33621  USELESS:      68800
L1D USEFUL LOAD PREFETCHES:      33621 PREFETCH ISSUED TO LOWER LEVEL:     102452  ACCURACY: 32.8163
 TIMELY PREFETCHES:      33621 LATE PREFETCHES: 8212 DROPPED PREFETCHES: 9
L1D AVERAGE MISS LATENCY: 243254 cycles
L1D RQ	ACCESS:   10714002	FORWARD:          0	MERGED:    3918469	TO_CACHE:    6631933
L1D WQ	ACCESS:    6949899	FORWARD:     163941	MERGED:     192639	TO_CACHE:    6757260
L1D PQ	ACCESS:     364581	FORWARD:          0	MERGED:          0	TO_CACHE:     364240

L1D UNIQUE REGIONS ACCESSED: 0
L1D REGIONS CONFLICTS: 0
L1D Cross Page Prefetch Requests: 6788
L1D Same Page Prefetch Requests: 741282
L1D ROI Sum of L1D PQ occupancy: 4626698
L1D PREFETCHES PUSHED FROM L2C: 0
L1I TOTAL     ACCESS:    7121972  HIT:    4352039  MISS:    2769933  HIT %:    61.1072  MISS %:    38.8928   MPKI: 55.3987
L1I LOAD INSTRUCTION	ACCESS:    6495616  HIT:    3725683  MISS:    2769933  HIT %:    57.3569  MISS %:    42.6431  MPKI: 55.3987
L1I PREFETCH INSTRUCTION	ACCESS:     626356  HIT:     626356  MISS:          0  HIT %:        100  MISS %:          0  MPKI: 0

L1I PREFETCH  REQUESTED:    1500351  ISSUED:    1500351  USEFUL:          0  USELESS:          0
L1I USEFUL LOAD PREFETCHES:          0 PREFETCH ISSUED TO LOWER LEVEL:          0  ACCURACY: -nan
 TIMELY PREFETCHES:          0 LATE PREFETCHES: 0 DROPPED PREFETCHES: 0
L1I AVERAGE MISS LATENCY: 17.0204 cycles
L1I RQ	ACCESS:    9483626	FORWARD:          0	MERGED:    2675947	TO_CACHE:    6807679
L1I PQ	ACCESS:    1500351	FORWARD:          0	MERGED:     412350	TO_CACHE:    1088001

L1BTB TOTAL     ACCESS:    5671491  HIT:    2033276  MISS:    3638215  HIT %:    35.8508  MISS %:    64.1492   MPKI: 72.7643
L1BTB BRANCH_DIRECT_JUMP	ACCESS:     547554 HIT:     143674 MISS:     403880 AVERAGE STALL: 43.6744 AVERAGE FETCH STALL: 17.5387 AVERAGE FETCH QUEUE STALL: 13.3472 AVERAGE DECODE STALL: 11.9241 AVERAGE EXECUTE STALL: 1.15343e+15
L1BTB BRANCH_INDIRECT	ACCESS:     182354 HIT:      65534 MISS:     116820 AVERAGE STALL: 96.9839 AVERAGE FETCH STALL: 13.2148 AVERAGE FETCH QUEUE STALL: 11.5174 AVERAGE DECODE STALL: 9.93131 AVERAGE EXECUTE STALL: 61.3656
L1BTB BRANCH_CONDITIONAL	ACCESS:    2697941 HIT:    1402943 MISS:    1294998 AVERAGE STALL: 48.2194 AVERAGE FETCH STALL: 22.0798 AVERAGE FETCH QUEUE STALL: 13.7644 AVERAGE DECODE STALL: 11.6377 AVERAGE EXECUTE STALL: 6.56772e+14
L1BTB BRANCH_DIRECT_CALL	ACCESS:     949033 HIT:     106964 MISS:     842069 AVERAGE STALL: 50.1224 AVERAGE FETCH STALL: 22.4505 AVERAGE FETCH QUEUE STALL: 14.7794 AVERAGE DECODE STALL: 12.1367 AVERAGE EXECUTE STALL: 6.94793e+14
L1BTB BRANCH_INDIRECT_CALL	ACCESS:     172786 HIT:      21966 MISS:     150820 AVERAGE STALL: 128.113 AVERAGE FETCH STALL: 14.6146 AVERAGE FETCH QUEUE STALL: 10.1373 AVERAGE DECODE STALL: 8.9695 AVERAGE EXECUTE STALL: 93.8841
L1BTB BRANCH_RETURN	ACCESS:    1121823 HIT:     292195 MISS:     829628 AVERAGE STALL: 44.1108 AVERAGE FETCH STALL: 17.3736 AVERAGE FETCH QUEUE STALL: 6.12976 AVERAGE DECODE STALL: 6.87255 AVERAGE EXECUTE STALL: 3.3619e+14
L1BTB BRANCH_OTHER ACCESS:          0 HIT:          0 MISS:          0 AVERAGE STALL: -nan AVERAGE FETCH STALL: -nan AVERAGE FETCH QUEUE STALL: -nan AVERAGE DECODE STALL: -nan AVERAGE EXECUTE STALL: -nan
L1BTB TOTAL ROB OCCUPANCY AT BTB MISS: 5.7706

L2BTB TOTAL     ACCESS:    3612942  HIT:    3475209  MISS:     137733  HIT %:    96.1878  MISS %:    3.81221   MPKI: 2.75466
L2BTB BRANCH_DIRECT_JUMP	ACCESS:     399778 HIT:     387882 MISS:      11896 AVERAGE STALL: 43.6744 AVERAGE FETCH STALL: 17.5387 AVERAGE FETCH QUEUE STALL: 13.3472 AVERAGE DECODE STALL: 11.9241 AVERAGE EXECUTE STALL: 1.15343e+15
L2BTB BRANCH_INDIRECT	ACCESS:     106536 HIT:     102932 MISS:       3604 AVERAGE STALL: 96.9839 AVERAGE FETCH STALL: 13.2148 AVERAGE FETCH QUEUE STALL: 11.5174 AVERAGE DECODE STALL: 9.93131 AVERAGE EXECUTE STALL: 61.3656
L2BTB BRANCH_CONDITIONAL	ACCESS:    1294998 HIT:    1266650 MISS:      28348 AVERAGE STALL: 48.2194 AVERAGE FETCH STALL: 22.0798 AVERAGE FETCH QUEUE STALL: 13.7644 AVERAGE DECODE STALL: 11.6377 AVERAGE EXECUTE STALL: 6.56772e+14
L2BTB BRANCH_DIRECT_CALL	ACCESS:     842069 HIT:     815486 MISS:      26583 AVERAGE STALL: 50.1224 AVERAGE FETCH STALL: 22.4505 AVERAGE FETCH QUEUE STALL: 14.7794 AVERAGE DECODE STALL: 12.1367 AVERAGE EXECUTE STALL: 6.94793e+14
L2BTB BRANCH_INDIRECT_CALL	ACCESS:     141347 HIT:     127537 MISS:      13810 AVERAGE STALL: 128.113 AVERAGE FETCH STALL: 14.6146 AVERAGE FETCH QUEUE STALL: 10.1373 AVERAGE DECODE STALL: 8.9695 AVERAGE EXECUTE STALL: 93.8841
L2BTB BRANCH_RETURN	ACCESS:     828214 HIT:     774722 MISS:      53492 AVERAGE STALL: 44.1108 AVERAGE FETCH STALL: 17.3736 AVERAGE FETCH QUEUE STALL: 6.12976 AVERAGE DECODE STALL: 6.87255 AVERAGE EXECUTE STALL: 3.3619e+14
L2BTB BRANCH_OTHER ACCESS:          0 HIT:          0 MISS:          0 AVERAGE STALL: -nan AVERAGE FETCH STALL: -nan AVERAGE FETCH QUEUE STALL: -nan AVERAGE DECODE STALL: -nan AVERAGE EXECUTE STALL: -nan
L2BTB TOTAL ROB OCCUPANCY AT BTB MISS: 152.43

L2C TOTAL     ACCESS:    4486624  HIT:    4042342  MISS:     444282  HIT %:    90.0976  MISS %:    9.90237   MPKI: 8.88564
L2C LOAD INSTRUCTION	ACCESS:    2769932  HIT:    2524558  MISS:     245374  HIT %:    91.1415  MISS %:    8.85848  MPKI: 4.90748
L2C LOAD TRANSLATION INSTRUCTION	ACCESS:        240  HIT:         68  MISS:        172  HIT %:    28.3333  MISS %:    71.6667  MPKI: 0.00344
L2C LOAD DATA	ACCESS:     729327  HIT:     660986  MISS:      68341  HIT %:    90.6296  MISS %:    9.37042  MPKI: 1.36682
L2C RFO DATA	ACCESS:     285443  HIT:     235838  MISS:      49605  HIT %:    82.6217  MISS %:    17.3783  MPKI: 0.9921
L2C PREFETCH DATA	ACCESS:     178175  HIT:     111209  MISS:      66966  HIT %:    62.4156  MISS %:    37.5844  MPKI: 1.33932
L2C WRITEBACK DATA	ACCESS:     521760  HIT:     509319  MISS:      12441  HIT %:    97.6156  MISS %:    2.38443  MPKI: 0.24882
L2C LOAD TRANSLATION DATA	ACCESS:       1703  HIT:        336  MISS:       1367  HIT %:    19.7299  MISS %:    80.2701  MPKI: 0.02734
L2C TRANSLATION FROM L1D PREFETCHER DATA	ACCESS:         44  HIT:         28  MISS:         16  HIT %:    63.6364  MISS %:    36.3636  MPKI: 0.00032

L2C PREFETCH  REQUESTED:      83446  ISSUED:      83446  USEFUL:       7814  USELESS:      59592
L2C USEFUL LOAD PREFETCHES:       7814 PREFETCH ISSUED TO LOWER LEVEL:      67405  ACCURACY: 11.5926
 TIMELY PREFETCHES:       7814 LATE PREFETCHES: 439 DROPPED PREFETCHES: 0
L2C AVERAGE MISS LATENCY: 38.7501 cycles
L2C RQ	ACCESS:    3786726	FORWARD:          0	MERGED:          0	TO_CACHE:    3786689
L2C WQ	ACCESS:     521760	FORWARD:         37	MERGED:          0	TO_CACHE:     521760
L2C PQ	ACCESS:     185898	FORWARD:          0	MERGED:       3545	TO_CACHE:     182353

L2C Dense regions hint from L2: 0
PSCL5 TOTAL     ACCESS:       3802  HIT:       1901  MISS:       1901  HIT %:         50  MISS %:         50   MPKI: 0.03802
PSCL5 LOAD TRANSLATION INSTRUCTION	ACCESS:       3720  HIT:       1860  MISS:       1860  HIT %:         50  MISS %:         50  MPKI: 0.0372
PSCL5 TRANSLATION FROM L1D PREFETCHER INSTRUCTION	ACCESS:         82  HIT:         41  MISS:         41  HIT %:         50  MISS %:         50  MPKI: 0.00082


PSCL4 TOTAL     ACCESS:       3715  HIT:       1855  MISS:       1860  HIT %:    49.9327  MISS %:    50.0673   MPKI: 0.0372
PSCL4 LOAD TRANSLATION INSTRUCTION	ACCESS:       1820  HIT:       1815  MISS:          5  HIT %:    99.7253  MISS %:   0.274725  MPKI: 0.0001
PSCL4 TRANSLATION FROM L1D PREFETCHER INSTRUCTION	ACCESS:         40  HIT:         40  MISS:          0  HIT %:        100  MISS %:          0  MPKI: 0
PSCL4 LOAD TRANSLATION DATA	ACCESS:       1815  HIT:          0  MISS:       1815  HIT %:          0  MISS %:        100  MPKI: 0.0363
PSCL4 TRANSLATION FROM L1D PREFETCHER DATA	ACCESS:         40  HIT:          0  MISS:         40  HIT %:          0  MISS %:        100  MPKI: 0.0008


PSCL3 TOTAL     ACCESS:       3771  HIT:       1883  MISS:       1888  HIT %:    49.9337  MISS %:    50.0663   MPKI: 0.03776
PSCL3 LOAD TRANSLATION INSTRUCTION	ACCESS:       1848  HIT:       1843  MISS:          5  HIT %:    99.7294  MISS %:   0.270563  MPKI: 0.0001
PSCL3 TRANSLATION FROM L1D PREFETCHER INSTRUCTION	ACCESS:         40  HIT:         40  MISS:          0  HIT %:        100  MISS %:          0  MPKI: 0
PSCL3 LOAD TRANSLATION DATA	ACCESS:       1843  HIT:          0  MISS:       1843  HIT %:          0  MISS %:        100  MPKI: 0.03686
PSCL3 TRANSLATION FROM L1D PREFETCHER DATA	ACCESS:         40  HIT:          0  MISS:         40  HIT %:          0  MISS %:        100  MPKI: 0.0008


PSCL2 TOTAL     ACCESS:       3726  HIT:       1825  MISS:       1901  HIT %:    48.9801  MISS %:    51.0199   MPKI: 0.03802
PSCL2 LOAD TRANSLATION INSTRUCTION	ACCESS:       2003  HIT:       1785  MISS:        218  HIT %:    89.1163  MISS %:    10.8837  MPKI: 0.00436
PSCL2 TRANSLATION FROM L1D PREFETCHER INSTRUCTION	ACCESS:         40  HIT:         40  MISS:          0  HIT %:        100  MISS %:          0  MPKI: 0
PSCL2 LOAD TRANSLATION DATA	ACCESS:       1643  HIT:          0  MISS:       1643  HIT %:          0  MISS %:        100  MPKI: 0.03286
PSCL2 TRANSLATION FROM L1D PREFETCHER DATA	ACCESS:         40  HIT:          0  MISS:         40  HIT %:          0  MISS %:        100  MPKI: 0.0008


LLC TOTAL     ACCESS:     501537  HIT:     474256  MISS:      27281  HIT %:    94.5605  MISS %:    5.43948   MPKI: 0.54562
LLC LOAD INSTRUCTION	ACCESS:     245374  HIT:     244751  MISS:        623  HIT %:    99.7461  MISS %:   0.253898  MPKI: 0.01246
LLC LOAD TRANSLATION INSTRUCTION	ACCESS:        172  HIT:        143  MISS:         29  HIT %:    83.1395  MISS %:    16.8605  MPKI: 0.00058
LLC LOAD DATA	ACCESS:      67934  HIT:      64553  MISS:       3381  HIT %:    95.0231  MISS %:    4.97689  MPKI: 0.06762
LLC RFO DATA	ACCESS:      49554  HIT:      36533  MISS:      13021  HIT %:    73.7236  MISS %:    26.2764  MPKI: 0.26042
LLC PREFETCH DATA	ACCESS:      67405  HIT:      57601  MISS:       9804  HIT %:    85.4551  MISS %:    14.5449  MPKI: 0.19608
LLC WRITEBACK DATA	ACCESS:      69715  HIT:      69373  MISS:        342  HIT %:    99.5094  MISS %:   0.490569  MPKI: 0.00684
LLC LOAD TRANSLATION DATA	ACCESS:       1367  HIT:       1289  MISS:         78  HIT %:    94.2941  MISS %:    5.70593  MPKI: 0.00156
LLC TRANSLATION FROM L1D PREFETCHER DATA	ACCESS:         16  HIT:         13  MISS:          3  HIT %:      81.25  MISS %:      18.75  MPKI: 6e-05

LLC AVERAGE MISS LATENCY: 155.004 cycles
LLC RQ	ACCESS:     364436	FORWARD:          0	MERGED:          0	TO_CACHE:     364417
LLC WQ	ACCESS:      69715	FORWARD:         19	MERGED:          0	TO_CACHE:      69715
LLC PQ	ACCESS:      67405	FORWARD:          0	MERGED:          0	TO_CACHE:      67405

LLC Dense regions hint to LLC: 0

RAW hits: 1916270
Loads Generated: 12630272
Loads sent to L1D: 10714002
Stores Generated: 6949891
Stores sent to L1D: 6949899
Major fault: 0 Minor fault: 2589
Allocated PAGES: 2589

stream: 
stream:times selected: 1174811
stream:pref_filled: 122956
stream:pref_useful: 24240
stream:pref_late: 6903
stream:misses: 7987
stream:misses_by_poll: 0

CS: 
CS:times selected: 177403
CS:pref_filled: 58887
CS:pref_useful: 35702
CS:pref_late: 7418
CS:misses: 16413
CS:misses_by_poll: 0

CPLX: 
CPLX:times selected: 996280
CPLX:pref_filled: 19560
CPLX:pref_useful: 4680
CPLX:pref_late: 3259
CPLX:misses: 93725
CPLX:misses_by_poll: 1

NL_L1: 
NL:times selected: 20378
NL:pref_filled: 765
NL:pref_useful: 331
NL:pref_late: 290
NL:misses: 1737
NL:misses_by_poll: 0

total selections: 2368872
total_filled: 94210
total_useful: 33621
total_late: 19190
total_polluted: 1
total_misses_after_warmup: 771064
conflicts: 5549581

test: 114476

DRAM Statistics
 CHANNEL 0
 RQ ROW_BUFFER_HIT:      10016  ROW_BUFFER_MISS:      16917
 DBUS_CONGESTED:          9
 WQ ROW_BUFFER_HIT:       1352  ROW_BUFFER_MISS:      11657  FULL:          0

 AVG_CONGESTED_CYCLE: 5

CPU 0 Branch Prediction Accuracy: 99.8272% MPKI: 0.31622 Average ROB Occupancy at Mispredict: 174.9
Branch types
NOT_BRANCH: 40848288 81.6966%
BRANCH_DIRECT_JUMP: 547554 1.09511%
BRANCH_INDIRECT: 182354 0.364708%
BRANCH_CONDITIONAL: 6178118 12.3562%
BRANCH_DIRECT_CALL: 949033 1.89807%
BRANCH_INDIRECT_CALL: 172786 0.345572%
BRANCH_RETURN: 1121823 2.24365%
BRANCH_OTHER: 0 0%

DRAM PAGES: 1048576
Allocated PAGES: 2589
Average_ROB_Occupancy: 201.067
Average_Decode_Occupancy: 26.3865
Average_FTQ_Occupancy: 10.6012
Indirect max targets: 14 Average targets: 1.17778
Branch_type:  BRANCH_DIRECT_JUMP:  Count Percentage: 4.12615 5.68839 3.6339 2.28157 8.16698 6.32441 1.45656 68.322 
Branch_type:  BRANCH_INDIRECT:  Count Percentage: 11.7649 3.39007 2.49565 13.3008 3.35469 2.81793 0.939127 61.9368 
Branch_type:  BRANCH_CONDITIONAL:  Count Percentage: 21.9162 2.25494 1.81252 2.73446 2.84319 4.6314 3.63547 60.1718 
Branch_type:  BRANCH_DIRECT_CALL:  Count Percentage: 0.386715 1.804 0.716851 1.466 5.23187 2.60504 0.408249 87.3813 
Branch_type:  BRANCH_INDIRECT_CALL:  Count Percentage: 9.53172 0 2.9876 0.000869921 1.36056 1.70997 0.99287 83.4164 
Branch_type:  BRANCH_RETURN:  Count Percentage: 3.9341 2.02347 2.23352 2.03699 3.44562 5.11455 3.6105 77.6013 
Branch_type:  BRANCH_DIRECT_JUMP:  Total Count: 45172 62275 39783 24978 89410 69238 15946 747972 
Branch_type:  BRANCH_INDIRECT:  Total Count: 42894 12360 9099 48494 12231 10274 3424 225818 
Branch_type:  BRANCH_CONDITIONAL:  Total Count: 2706780 278498 223856 337722 351150 572005 449001 7431560 
Branch_type:  BRANCH_DIRECT_CALL:  Total Count: 7327 34180 13582 27776 99127 49357 7735 1655591 
Branch_type:  BRANCH_INDIRECT_CALL:  Total Count: 32871 0 10303 3 4692 5897 3424 287669 
Branch_type:  BRANCH_RETURN:  Total Count: 88140 45334 50040 45637 77196 114587 80890 1738588 
Number of unique branch instructions: 10811
Upper 32 bits: 
aaaa
ffff
ffff0000
Unique upper 32 bits: 3
Unique upper 36 bits: 3
Unique upper 40 bits: 5
Unique upper 44 bits: 32
Unique upper 48 bits: 158
Variant_0 : 1291 0.315186
Variant_1 : 1181 0.28833
Variant_2 : 913 0.2229
Variant_3 : 705 0.172119
Offset_3 4470
Offset_4 255
Offset_5 484
Offset_6 541
Offset_7 643
Offset_8 577
Offset_9 523
Offset_10 426
Offset_11 360
Offset_12 327
Offset_13 240
Offset_14 247
Offset_15 194
Offset_16 233
Offset_17 169
Offset_18 149
Offset_19 257
Offset_20 143
Offset_21 235
Offset_22 413
Offset_23 241
Offset_24 351
Offset_25 117
Offset_47 94
Offset_64 2
decode_dispatch_called: 23114523 61.9949
Dispatch_width: 0 12256233 53.0239 32.8721
Dispatch_width: 1 736700 3.18717 1.97588
Dispatch_width: 2 699540 3.02641 1.87622
Dispatch_width: 3 443889 1.92039 1.19054
Dispatch_width: 4 3556918 15.3882 9.53992
Dispatch_width: 5 222575 0.962923 0.596963
Dispatch_width: 6 5198668 22.4909 13.9432
Empty_decode_cycles: 14170042 38.0051
ROB_full_cycles: 5696117 15.2774
Starvation_cycles_per_kilo_instr: 263.898
Starvation_cycles_per_kilo_instr_3: 226.103
Starvation_cycles_per_kilo_instr_0: 207.302
Branch_type_1  (3,1)  (4,9)  (5,39)  (6,74)  (7,126)  (8,148)  (9,136)  (10,110)  (11,78)  (12,55)  (13,11)  (14,2)  (15,3)  (16,4)  (18,1)  (19,5)  (20,2)  (21,1)  (22,3)  (23,2)  (24,10)  (25,12) 
Branch_type_2  (3,1)  (4,1)  (5,1)  (8,4)  (9,4)  (10,1)  (12,1)  (13,1)  (14,1)  (16,3)  (17,2)  (20,2)  (21,2)  (23,5)  (24,1)  (47,43) 
Branch_type_3  (3,4468)  (4,245)  (5,440)  (6,451)  (7,487)  (8,360)  (9,288)  (10,172)  (11,146)  (12,62)  (13,10)  (64,2) 
Branch_type_4  (6,3)  (7,8)  (8,25)  (9,56)  (10,68)  (11,70)  (12,117)  (13,102)  (14,112)  (15,92)  (16,102)  (17,79)  (18,65)  (19,125)  (20,73)  (21,124)  (22,219)  (23,136)  (24,206)  (25,101) 
Branch_type_5  (8,3)  (9,1)  (10,4)  (11,5)  (12,3)  (13,14)  (14,16)  (15,11)  (16,22)  (17,11)  (18,23)  (19,14)  (20,11)  (21,13)  (22,43)  (23,26)  (24,38) 
Branch_type_6  (5,4)  (6,13)  (7,22)  (8,37)  (9,38)  (10,71)  (11,61)  (12,89)  (13,102)  (14,116)  (15,88)  (16,102)  (17,77)  (18,60)  (19,113)  (20,55)  (21,95)  (22,148)  (23,72)  (24,96)  (25,4)  (47,51) 
Unique trigger count: 
Variant_0_evicts_0 : 0
Variant_0_evicts_1 : 0
Variant_0_evicts_2 : 0
Variant_0_evicts_3 : 0
Variant_1_evicts_0 : 0
Variant_1_evicts_1 : 0
Variant_1_evicts_2 : 0
Variant_1_evicts_3 : 0
Variant_2_evicts_0 : 0
Variant_2_evicts_1 : 0
Variant_2_evicts_2 : 0
Variant_2_evicts_3 : 0
Variant_3_evicts_0 : 0
Variant_3_evicts_1 : 0
Variant_3_evicts_2 : 0
Variant_3_evicts_3 : 0
BTB PER SET UNIQUE ADDR: 22 29 21 26 24 25 15 21 15 26 20 27 25 19 22 18 21 23 21 25 23 20 23 24 17 24 24 25 25 22 22 24 28 13 18 23 22 26 17 19 20 20 24 26 20 11 25 15 25 23 29 22 26 27 20 11 20 19 21 27 19 30 24 23 24 27 23 17 29 25 23 22 25 19 18 13 15 26 19 31 23 15 22 29 26 22 26 22 15 38 19 13 23 20 14 26 21 22 27 27 33 31 24 21 23 18 20 26 11 17 19 34 23 21 20 12 25 27 22 23 25 18 21 18 22 20 12 23 34 20 19 31 21 27 19 27 16 27 22 32 20 26 22 22 25 23 26 17 15 23 24 27 17 22 16 31 27 25 24 23 26 25 27 29 21 28 27 18 27 20 22 27 23 23 24 20 23 21 21 24 18 21 20 25 33 31 14 26 27 19 20 16 15 29 25 17 16 22 21 22 26 25 20 17 17 22 23 24 21 24 21 29 20 21 22 25 22 26 18 40 14 29 18 22 19 24 29 24 16 29 20 10 22 29 20 26 28 20 21 18 23 23 29 25 19 21 22 20 23 22 29 25 23 19 28 25 19 17 19 19 24 19 9 22 19 15 21 18 20 21 21 24 18 12 16 17 24 26 19 22 18 24 19 16 26 19 18 33 32 27 24 19 22 28 16 28 23 26 25 22 20 21 21 37 22 28 26 22 31 23 21 29 21 36 23 13 28 21 20 31 22 29 20 22 24 29 24 20 23 16 20 29 18 20 19 26 20 18 18 37 23 25 16 30 26 26 19 24 20 23 23 24 27 23 22 26 23 27 19 17 17 29 17 29 24 24 13 23 25 23 26 17 24 23 18 30 24 28 20 24 25 21 19 15 18 23 30 31 27 23 31 17 28 29 16 18 21 19 27 22 18 25 21 21 27 29 22 24 24 23 24 20 17 28 23 21 21 30 35 33 18 30 24 24 25 21 25 20 22 22 31 22 18 23 28 27 26 19 22 23 27 19 17 30 30 19 17 24 27 24 27 34 24 18 25 32 26 27 18 28 19 21 20 28 34 20 21 24 28 26 27 28 25 23 23 33 28 32 17 23 32 26 20 27 15 26 34 27 26 22 21 26 18 18 16 20 26 25 20 25 20 29 19 31 18 20 19 30 29 27 24 33 24 20 21 27 21 30 17 17 17 21 25 17 22 33 38 16 16 30 27 24 26 23 26 31 18 24 27 22 29 19 25 24 25 32 15 26 19 23 21 31 22 23 20 21 20 23 32 25 23 34 23 26 22 28 22 29 24 30 29 25 31 33 21 28 31 28 22 24 26 25 15 23 25 26 24 23 33 27 18 22 24 18 25 19 14 21 28 20 22 21 20 14 24 26 32 21 18 25 31 26 21 17 10 29 16 26 22 26 28 23 14 20 20 29 22 29 19 25 21 30 29 22 23 22 25 28 19 26 20 28 26 31 23 26 21 26 34 22 17 22 19 20 30 25 22 23 28 21 24 14 26 32 22 25 18 22 18 19 21 22 18 26 32 21 25 28 27 30 21 26 22 25 27 24 21 23 25 28 24 25 21 13 16 21 17 27 19 26 18 23 25 33 15 27 22 20 20 17 21 22 17 22 18 19 29 24 21 25 25 23 21 23 20 20 24 23 19 19 26 19 21 18 20 27 22 31 34 20 20 17 22 26 30 29 21 23 22 20 24 21 25 22 17 22 33 22 19 18 23 14 13 24 23 28 16 25 19 26 23 30 22 16 24 17 28 24 24 28 14 23 23 21 25 22 18 26 21 15 18 15 25 25 26 30 21 20 25 24 38 26 36 30 32 19 20 22 24 18 21 35 30 33 19 24 35 33 12 27 26 30 14 28 26 21 18 23 24 29 21 29 25 21 19 28 24 22 23 24 27 22 22 22 22 27 22 35 21 26 24 20 19 20 29 30 31 28 26 24 24 27 19 25 32 16 24 18 29 20 21 26 27 20 23 13 22 23 20 23 25 14 20 26 24 21 30 21 22 21 25 19 20 21 22 29 33 22 20 21 24 23 22 25 13 29 21 26 22 31 18 23 25 24 24 27 35 20 24 25 23 26 18 26 21 21 14 30 20 17 29 30 30 20 21 31 21 20 26 26 17 29 23 21 21 24 27 29 22 27 22 23 17 24 20 24 25 22 24 24 26 22 22 30 27 21 27 26 18 25 24 26 28 22 27 21 31 30 30 32 19 28 25 22 23 31 37 21 25 22 27 24 25 22 23 20 20 24 32 23 32 27 21 21 27 26 18 33 21 27 26 25 24 18 18 19 13 20 12 17 18 28 22 14 
BTB PER SET COUNT: 611 205 1495 199 511 190 879 247 1533 200 117 842 11891 1006 107 133 187 1275 417 209 165 197 304 219 103 157 172 220 351 466 230 180 202 111 145 732 169 350 70 1225 110 77 191 405 469 74 259 104 579 326 249 101 149 178 227 120 106 137 145 195 143 368 240 171 219 466 168 692 181 207 342 424 244 130 109 93 75 526 179 254 438 76 180 350 169 491 211 184 833 280 142 793 331 235 72 216 392 88 244 544 265 497 163 350 1301 111 208 200 933 487 110 281 574 170 168 347 159 194 1386 310 356 79 156 150 120 296 59 301 326 375 134 516 177 202 189 274 1089 224 124 222 123 721 147 147 159 157 363 422 102 267 190 212 1044 158 130 281 631 182 236 667 149 231 327 224 946 571 164 170 197 392 153 185 201 156 206 532 164 163 341 502 328 295 1001 225 307 359 85 190 478 951 157 72 130 193 169 198 100 362 137 141 193 220 1056 103 100 138 201 242 682 766 177 292 140 7298 146 619 126 134 1132 386 86 223 210 154 142 181 250 242 235 203 123 44 156 219 661 4503 195 146 856 103 360 121 291 471 212 479 146 173 285 167 232 168 222 110 172 257 141 179 102 121 387 115 34 270 145 53 136 135 911 161 133 335 150 61 329 80 176 202 141 350 61 199 623 274 202 102 133 360 299 173 170 103 139 701 82 195 345 180 182 473 120 117 148 301 144 261 212 232 288 652 259 317 154 250 1094 314 228 209 168 238 150 926 77 158 500 302 385 103 156 103 154 299 125 104 83 222 124 275 77 499 135 831 96 424 440 134 112 151 164 222 282 212 241 192 122 203 173 267 176 114 94 244 83 245 141 739 69 136 171 155 154 96 215 287 318 307 152 222 310 762 588 157 626 88 99 133 679 221 291 528 282 64 187 381 104 81 165 118 662 634 136 201 543 149 253 236 161 622 142 211 177 92 130 263 149 171 124 1286 411 211 154 202 165 157 230 161 374 130 127 801 232 171 111 125 344 219 181 455 119 176 278 121 154 220 932 222 467 166 207 188 698 1092 200 140 248 568 301 203 102 287 141 213 160 387 235 165 3247 139 173 244 239 178 172 148 157 250 159 399 102 224 275 441 167 174 705 402 295 206 955 239 507 232 3381 157 88 201 469 651 165 138 127 259 117 399 140 128 86 325 175 207 272 1107 279 461 164 201 103 295 112 226 91 206 183 134 152 318 855 837 116 736 250 181 231 190 199 311 518 391 152 435 255 104 188 202 234 302 53 194 111 754 138 197 894 309 141 111 174 94 217 238 112 303 126 149 279 237 275 214 194 714 594 179 163 321 397 216 239 217 121 190 194 291 98 2053 194 226 269 155 288 186 188 157 119 107 175 111 1277 505 198 82 163 156 126 88 191 165 289 1326 75 131 279 752 672 84 59 204 62 175 243 366 247 116 62 441 177 231 95 536 1173 170 101 294 693 175 199 348 231 476 113 245 189 179 244 231 402 335 359 224 387 129 104 216 95 137 581 223 161 229 540 259 269 61 224 268 3942 196 115 709 1521 188 203 159 378 216 530 463 166 252 194 292 177 201 1225 293 571 206 132 184 242 210 146 173 234 85 1128 188 87 853 133 157 789 197 821 223 42 186 153 133 64 105 254 563 699 139 230 192 451 581 149 592 192 507 171 623 453 151 176 173 302 264 239 516 180 104 126 302 226 251 251 128 491 81 226 179 339 281 923 161 166 168 730 108 372 158 225 167 262 747 141 82 193 91 51 268 759 349 83 333 123 209 161 278 379 60 206 107 170 160 152 321 1182 184 637 102 127 230 95 161 126 95 207 626 209 147 612 441 149 126 250 818 317 229 410 399 554 116 139 163 129 156 146 4239 251 261 398 759 430 682 72 807 204 218 99 209 686 156 122 189 234 248 190 231 155 185 279 587 208 93 194 265 195 198 169 197 200 203 206 203 148 4382 397 744 80 153 610 287 389 213 254 185 600 340 164 152 522 108 153 77 198 146 171 247 207 121 155 74 159 157 1144 179 200 70 196 184 371 370 172 152 197 168 164 406 624 846 108 204 282 147 222 147 218 138 177 533 107 175 127 226 179 416 117 258 206 161 183 317 1174 821 194 165 149 404 117 524 117 495 45 235 138 112 236 263 714 138 151 707 151 154 738 231 137 1246 186 123 127 499 229 224 178 186 344 1115 1237 3399 162 207 148 180 192 443 202 212 352 257 202 133 679 209 92 218 283 659 210 167 401 135 387 205 325 430 226 319 482 419 122 944 825 431 184 139 239 925 183 438 907 148 119 1627 189 596 283 626 132 181 168 218 123 237 149 601 409 349 166 124 125 135 87 379 70 79 257 270 160 91 
To predecode: 0
Predecoding something: 0
Predecode request dropped: 0
sizeofblock_0 0
sizeofblock_1 139664
sizeofblock_2 74740
sizeofblock_3 17444
sizeofblock_4 3881
sizeofblock_5 355
sizeofblock_6 0
sizeofblock_7 0
sizeofblock_8 0
Variant_0 Correct: 1569467 Incorrect: 0 Accuracy: 1
Variant_1 Correct: 2047883 Incorrect: 0 Accuracy: 1
Variant_2 Correct: 1891485 Incorrect: 0 Accuracy: 1
Variant_3 Correct: 1702449 Incorrect: 8476 Accuracy: 0.995046
