
*** ChampSim Multicore Out-of-Order Simulator ***

Warmup Instructions: 50000000
Simulation Instructions: 50000000
Number of CPUs: 1
LLC sets: 2048
LLC ways: 16
Off-chip DRAM Size: 4096 MB Channels: 1 Width: 64-bit Data Rate: 6400 MT/s
CPU 0 runs ./micro_traces/srv197.trace.gz
.gz
ITLB has LRU replacement policy
DTLB has LRU replacement policy
STLB has LRU replacement policy
FDIP Prefetcher at L1I
L1I has LRU replacement policy
L1D has LRU replacement policy
Initialize SRRIP state for L2C
Initialize DRRIP state for LLC
Heartbeat_Variant_0 : 1343 0.327881 per_variant_size: 0 1343 0 0 0 0 0 0 0 
Heartbeat_Variant_1 : 1234 0.30127 per_variant_size: 0 599 635 0 0 0 0 0 0 
Heartbeat_Variant_2 : 1326 0.32373 per_variant_size: 0 545 372 210 199 0 0 0 0 
Heartbeat_Variant_3 : 0 0 per_variant_size: 0 0 0 0 0 0 0 0 0 
Heartbeat_Variant_0_evicts 0 : 5826 1 : 313 2 : 312 3 : 0 
Heartbeat_Variant_1_evicts 0 : 282 1 : 0 2 : 480 3 : 0 
Heartbeat_Variant_2_evicts 0 : 294 1 : 484 2 : 0 3 : 0 
Heartbeat_Variant_3_evicts 0 : 0 1 : 0 2 : 0 3 : 0 
Heartbeat CPU 0 instructions: 10000002 cycles: 2796266 heartbeat IPC: 3.5762 cumulative IPC: 3.5762 (Simulation time: 0 hr 2 min 12 sec) 
Heartbeat_Variant_0 : 1341 0.327393 per_variant_size: 0 1341 0 0 0 0 0 0 0 
Heartbeat_Variant_1 : 1241 0.302979 per_variant_size: 0 604 637 0 0 0 0 0 0 
Heartbeat_Variant_2 : 1327 0.323975 per_variant_size: 0 542 373 215 197 0 0 0 0 
Heartbeat_Variant_3 : 0 0 per_variant_size: 0 0 0 0 0 0 0 0 0 
Heartbeat_Variant_0_evicts 0 : 5601 1 : 5 2 : 7 3 : 0 
Heartbeat_Variant_1_evicts 0 : 11 1 : 0 2 : 204 3 : 0 
Heartbeat_Variant_2_evicts 0 : 6 1 : 205 2 : 0 3 : 0 
Heartbeat_Variant_3_evicts 0 : 0 1 : 0 2 : 0 3 : 0 
Heartbeat CPU 0 instructions: 20000001 cycles: 5593129 heartbeat IPC: 3.57543 cumulative IPC: 3.57582 (Simulation time: 0 hr 3 min 49 sec) 
Heartbeat_Variant_0 : 1350 0.32959 per_variant_size: 0 1350 0 0 0 0 0 0 0 
Heartbeat_Variant_1 : 1244 0.303711 per_variant_size: 0 587 657 0 0 0 0 0 0 
Heartbeat_Variant_2 : 1337 0.326416 per_variant_size: 0 537 384 221 195 0 0 0 0 
Heartbeat_Variant_3 : 0 0 per_variant_size: 0 0 0 0 0 0 0 0 0 
Heartbeat_Variant_0_evicts 0 : 5700 1 : 50 2 : 46 3 : 0 
Heartbeat_Variant_1_evicts 0 : 45 1 : 0 2 : 254 3 : 0 
Heartbeat_Variant_2_evicts 0 : 52 1 : 250 2 : 0 3 : 0 
Heartbeat_Variant_3_evicts 0 : 0 1 : 0 2 : 0 3 : 0 
Heartbeat CPU 0 instructions: 30000003 cycles: 8390293 heartbeat IPC: 3.57505 cumulative IPC: 3.57556 (Simulation time: 0 hr 5 min 23 sec) 
Heartbeat_Variant_0 : 1378 0.336426 per_variant_size: 0 1378 0 0 0 0 0 0 0 
Heartbeat_Variant_1 : 1269 0.309814 per_variant_size: 0 577 692 0 0 0 0 0 0 
Heartbeat_Variant_2 : 1341 0.327393 per_variant_size: 0 506 378 228 229 0 0 0 0 
Heartbeat_Variant_3 : 0 0 per_variant_size: 0 0 0 0 0 0 0 0 0 
Heartbeat_Variant_0_evicts 0 : 5764 1 : 141 2 : 167 3 : 0 
Heartbeat_Variant_1_evicts 0 : 158 1 : 0 2 : 325 3 : 0 
Heartbeat_Variant_2_evicts 0 : 141 1 : 340 2 : 0 3 : 0 
Heartbeat_Variant_3_evicts 0 : 0 1 : 0 2 : 0 3 : 0 
Heartbeat CPU 0 instructions: 40000000 cycles: 11186302 heartbeat IPC: 3.57653 cumulative IPC: 3.5758 (Simulation time: 0 hr 7 min 1 sec) 
Heartbeat_Variant_0 : 1378 0.336426 per_variant_size: 0 1378 0 0 0 0 0 0 0 
Heartbeat_Variant_1 : 1275 0.311279 per_variant_size: 0 584 691 0 0 0 0 0 0 
Heartbeat_Variant_2 : 1345 0.328369 per_variant_size: 0 512 367 243 223 0 0 0 0 
Heartbeat_Variant_3 : 0 0 per_variant_size: 0 0 0 0 0 0 0 0 0 
Heartbeat_Variant_0_evicts 0 : 5644 1 : 40 2 : 36 3 : 0 
Heartbeat_Variant_1_evicts 0 : 47 1 : 0 2 : 239 3 : 0 
Heartbeat_Variant_2_evicts 0 : 31 1 : 241 2 : 0 3 : 0 
Heartbeat_Variant_3_evicts 0 : 0 1 : 0 2 : 0 3 : 0 
Heartbeat CPU 0 instructions: 50000003 cycles: 13982380 heartbeat IPC: 3.57644 cumulative IPC: 3.57593 (Simulation time: 0 hr 8 min 40 sec) 

Warmup complete CPU 0 instructions: 50000003 cycles: 13982380 (Simulation time: 0 hr 8 min 40 sec) 

Cycle: 20000000 FTQ IN: 58250641 FTQ occupancy: 19.9191 DECODE IN: 58250578 DECODE occupancy: 52.0473 ROB IN: 58250518 ROB occupancy: 313.961 ROB OUT: 58250170
Heartbeat_Variant_0 : 1393 0.340088 per_variant_size: 0 1393 0 0 0 0 0 0 0 
Heartbeat_Variant_1 : 1277 0.311768 per_variant_size: 0 595 682 0 0 0 0 0 0 
Heartbeat_Variant_2 : 1341 0.327393 per_variant_size: 0 502 380 245 214 0 0 0 0 
Heartbeat_Variant_3 : 0 0 per_variant_size: 0 0 0 0 0 0 0 0 0 
Heartbeat_Variant_0_evicts 0 : 5630 1 : 115 2 : 131 3 : 0 
Heartbeat_Variant_1_evicts 0 : 118 1 : 0 2 : 293 3 : 0 
Heartbeat_Variant_2_evicts 0 : 113 1 : 296 2 : 0 3 : 0 
Heartbeat_Variant_3_evicts 0 : 0 1 : 0 2 : 0 3 : 0 
Heartbeat CPU 0 instructions: 60000002 cycles: 21263052 heartbeat IPC: 1.3735 cumulative IPC: 1.3735 (Simulation time: 0 hr 10 min 29 sec) 
Heartbeat_Variant_0 : 1392 0.339844 per_variant_size: 0 1392 0 0 0 0 0 0 0 
Heartbeat_Variant_1 : 1278 0.312012 per_variant_size: 0 594 684 0 0 0 0 0 0 
Heartbeat_Variant_2 : 1346 0.328613 per_variant_size: 0 515 371 235 225 0 0 0 0 
Heartbeat_Variant_3 : 0 0 per_variant_size: 0 0 0 0 0 0 0 0 0 
Heartbeat_Variant_0_evicts 0 : 5623 1 : 41 2 : 41 3 : 0 
Heartbeat_Variant_1_evicts 0 : 43 1 : 0 2 : 239 3 : 0 
Heartbeat_Variant_2_evicts 0 : 41 1 : 241 2 : 0 3 : 0 
Heartbeat_Variant_3_evicts 0 : 0 1 : 0 2 : 0 3 : 0 
Heartbeat CPU 0 instructions: 70000001 cycles: 28559989 heartbeat IPC: 1.37044 cumulative IPC: 1.37197 (Simulation time: 0 hr 12 min 15 sec) 
Cycle: 30000000 FTQ IN: 13730656 FTQ occupancy: 13.1027 DECODE IN: 13730719 DECODE occupancy: 34.188 ROB IN: 13730723 ROB occupancy: 236.925 ROB OUT: 13730719
Heartbeat_Variant_0 : 1382 0.337402 per_variant_size: 0 1382 0 0 0 0 0 0 0 
Heartbeat_Variant_1 : 1284 0.313477 per_variant_size: 0 591 693 0 0 0 0 0 0 
Heartbeat_Variant_2 : 1357 0.331299 per_variant_size: 0 518 375 245 219 0 0 0 0 
Heartbeat_Variant_3 : 0 0 per_variant_size: 0 0 0 0 0 0 0 0 0 
Heartbeat_Variant_0_evicts 0 : 5599 1 : 54 2 : 60 3 : 0 
Heartbeat_Variant_1_evicts 0 : 62 1 : 0 2 : 239 3 : 0 
Heartbeat_Variant_2_evicts 0 : 64 1 : 244 2 : 0 3 : 0 
Heartbeat_Variant_3_evicts 0 : 0 1 : 0 2 : 0 3 : 0 
Heartbeat CPU 0 instructions: 80000003 cycles: 35825595 heartbeat IPC: 1.37635 cumulative IPC: 1.37342 (Simulation time: 0 hr 14 min 5 sec) 
Cycle: 40000000 FTQ IN: 13746445 FTQ occupancy: 13.0606 DECODE IN: 13746403 DECODE occupancy: 33.9547 ROB IN: 13746459 ROB occupancy: 236.495 ROB OUT: 13746531
Heartbeat_Variant_0 : 1375 0.335693 per_variant_size: 0 1375 0 0 0 0 0 0 0 
Heartbeat_Variant_1 : 1288 0.314453 per_variant_size: 0 603 685 0 0 0 0 0 0 
Heartbeat_Variant_2 : 1364 0.333008 per_variant_size: 0 520 392 238 214 0 0 0 0 
Heartbeat_Variant_3 : 0 0 per_variant_size: 0 0 0 0 0 0 0 0 0 
Heartbeat_Variant_0_evicts 0 : 5800 1 : 80 2 : 63 3 : 0 
Heartbeat_Variant_1_evicts 0 : 78 1 : 0 2 : 265 3 : 0 
Heartbeat_Variant_2_evicts 0 : 72 1 : 260 2 : 0 3 : 0 
Heartbeat_Variant_3_evicts 0 : 0 1 : 0 2 : 0 3 : 0 
Heartbeat CPU 0 instructions: 90000001 cycles: 43099106 heartbeat IPC: 1.37485 cumulative IPC: 1.37378 (Simulation time: 0 hr 15 min 55 sec) 
Cycle: 50000000 FTQ IN: 13864030 FTQ occupancy: 13.0421 DECODE IN: 13863954 DECODE occupancy: 34.1657 ROB IN: 13863894 ROB occupancy: 237.598 ROB OUT: 13864112
Heartbeat_Variant_0 : 1377 0.336182 per_variant_size: 0 1377 0 0 0 0 0 0 0 
Heartbeat_Variant_1 : 1286 0.313965 per_variant_size: 0 598 688 0 0 0 0 0 0 
Heartbeat_Variant_2 : 1365 0.333252 per_variant_size: 0 522 392 232 219 0 0 0 0 
Heartbeat_Variant_3 : 0 0 per_variant_size: 0 0 0 0 0 0 0 0 0 
Heartbeat_Variant_0_evicts 0 : 5622 1 : 12 2 : 10 3 : 0 
Heartbeat_Variant_1_evicts 0 : 8 1 : 0 2 : 203 3 : 0 
Heartbeat_Variant_2_evicts 0 : 12 1 : 202 2 : 0 3 : 0 
Heartbeat_Variant_3_evicts 0 : 0 1 : 0 2 : 0 3 : 0 
Heartbeat CPU 0 instructions: 100000001 cycles: 50299004 heartbeat IPC: 1.38891 cumulative IPC: 1.37678 (Simulation time: 0 hr 17 min 41 sec) 
Finished CPU 0 instructions: 50000002 cycles: 36316625 cumulative IPC: 1.37678 (Simulation time: 0 hr 17 min 41 sec) 

ChampSim completed all CPUs

Region of Interest Statistics

CPU 0 cumulative IPC: 1.37678 instructions: 50000002 cycles: 36316625
 Fetch stage stalled: 53.671  Sim cycles: 36316625 fetch stall cycle: 19491479
 Empty decode stage: 34.4428  Sim cycles: 36316625 fetch stall cycle: 12508472
ITLB TOTAL     ACCESS:    5865223  HIT:    5371450  MISS:     493773  HIT %:    91.5813  MISS %:    8.41866   MPKI: 9.87546
ITLB LOAD TRANSLATION INSTRUCTION	ACCESS:    5742827  HIT:    5249054  MISS:     493773  HIT %:    91.4019  MISS %:    8.59808  MPKI: 9.87546
ITLB TRANSLATION FROM L1D PREFETCHER INSTRUCTION	ACCESS:     122396  HIT:     122396  MISS:          0  HIT %:        100  MISS %:          0  MPKI: 0

ITLB AVERAGE MISS LATENCY: 9.04456 cycles
ITLB RQ	ACCESS:    8010782	FORWARD:          0	MERGED:    1699120	TO_CACHE:    6311662

DTLB TOTAL     ACCESS:    8970137  HIT:    8499358  MISS:     470779  HIT %:    94.7517  MISS %:    5.24829   MPKI: 9.41558
DTLB LOAD TRANSLATION DATA	ACCESS:    8970137  HIT:    8499358  MISS:     470779  HIT %:    94.7517  MISS %:    5.24829  MPKI: 9.41558

DTLB AVERAGE MISS LATENCY: 9.30142 cycles
DTLB RQ	ACCESS:   13339725	FORWARD:          0	MERGED:    4333312	TO_CACHE:    9006413

STLB TOTAL     ACCESS:    1213189  HIT:    1211212  MISS:       1977  HIT %:     99.837  MISS %:   0.162959   MPKI: 0.03954
STLB LOAD TRANSLATION INSTRUCTION	ACCESS:     493773  HIT:     493549  MISS:        224  HIT %:    99.9546  MISS %:   0.045365  MPKI: 0.00448
STLB LOAD TRANSLATION DATA	ACCESS:     470779  HIT:     469050  MISS:       1729  HIT %:    99.6327  MISS %:   0.367264  MPKI: 0.03458
STLB TRANSLATION FROM L1D PREFETCHER DATA	ACCESS:     248637  HIT:     248613  MISS:         24  HIT %:    99.9903  MISS %: 0.00965263  MPKI: 0.00048

STLB AVERAGE MISS LATENCY: 67.913 cycles
STLB RQ	ACCESS:    1333774	FORWARD:          0	MERGED:     120543	TO_CACHE:    1213231

STLB Hit, L1D data hit: 0
STLB Hit, L2C data hit: 0
STLB Hit, LLC data hit: 0
STLB Hit, LLC data miss: 0
STLB STLB hints to L2: 0
L1D TOTAL     ACCESS:   13093710  HIT:   11981793  MISS:    1111917  HIT %:     91.508  MISS %:    8.49199   MPKI: 22.2383
L1D LOAD DATA	ACCESS:    6557336  HIT:    5824783  MISS:     732553  HIT %:    88.8285  MISS %:    11.1715  MPKI: 14.6511
L1D RFO DATA	ACCESS:    6208075  HIT:    5923190  MISS:     284885  HIT %:    95.4111  MISS %:    4.58894  MPKI: 5.6977
L1D PREFETCH DATA	ACCESS:     328299  HIT:     233820  MISS:      94479  HIT %:    71.2217  MISS %:    28.7783  MPKI: 1.88958

L1D PREFETCH  REQUESTED:     738813  ISSUED:     738813  USEFUL:      33609  USELESS:      68934
L1D USEFUL LOAD PREFETCHES:      33609 PREFETCH ISSUED TO LOWER LEVEL:     102586  ACCURACY: 32.7618
 TIMELY PREFETCHES:      33609 LATE PREFETCHES: 8075 DROPPED PREFETCHES: 3
L1D AVERAGE MISS LATENCY: 234352 cycles
L1D RQ	ACCESS:   10691540	FORWARD:          0	MERGED:    3934897	TO_CACHE:    6591028
L1D WQ	ACCESS:    6946339	FORWARD:     165984	MERGED:     197642	TO_CACHE:    6748697
L1D PQ	ACCESS:     369591	FORWARD:          0	MERGED:          0	TO_CACHE:     369222

L1D UNIQUE REGIONS ACCESSED: 0
L1D REGIONS CONFLICTS: 0
L1D Cross Page Prefetch Requests: 6878
L1D Same Page Prefetch Requests: 751597
L1D ROI Sum of L1D PQ occupancy: 4689700
L1D PREFETCHES PUSHED FROM L2C: 0
L1I TOTAL     ACCESS:    7168881  HIT:    4407358  MISS:    2761523  HIT %:     61.479  MISS %:     38.521   MPKI: 55.2305
L1I LOAD INSTRUCTION	ACCESS:    6507521  HIT:    3745998  MISS:    2761523  HIT %:    57.5641  MISS %:    42.4359  MPKI: 55.2305
L1I PREFETCH INSTRUCTION	ACCESS:     661360  HIT:     661360  MISS:          0  HIT %:        100  MISS %:          0  MPKI: 0

L1I PREFETCH  REQUESTED:    1610200  ISSUED:    1610200  USEFUL:          0  USELESS:          0
L1I USEFUL LOAD PREFETCHES:          0 PREFETCH ISSUED TO LOWER LEVEL:          0  ACCURACY: -nan
 TIMELY PREFETCHES:          0 LATE PREFETCHES: 0 DROPPED PREFETCHES: 0
L1I AVERAGE MISS LATENCY: 17.2866 cycles
L1I RQ	ACCESS:    9509131	FORWARD:          0	MERGED:    2679206	TO_CACHE:    6829925
L1I PQ	ACCESS:    1610200	FORWARD:          0	MERGED:     429343	TO_CACHE:    1180857

L1BTB TOTAL     ACCESS:    5671381  HIT:    2042281  MISS:    3629100  HIT %:    36.0103  MISS %:    63.9897   MPKI: 72.582
L1BTB BRANCH_DIRECT_JUMP	ACCESS:     548145  HIT:     144791  MISS:     403354	AVERAGE STALL: 49.8339
L1BTB BRANCH_INDIRECT	ACCESS:     182906  HIT:      65959  MISS:     116947	AVERAGE STALL: 102.556
L1BTB BRANCH_CONDITIONAL	ACCESS:    2705118  HIT:    1412357  MISS:    1292761	AVERAGE STALL: 54.7455
L1BTB BRANCH_DIRECT_CALL	ACCESS:     945716  HIT:     106159  MISS:     839557	AVERAGE STALL: 64.7518
L1BTB BRANCH_INDIRECT_CALL	ACCESS:     171889  HIT:      21466  MISS:     150423	AVERAGE STALL: 133.069
L1BTB BRANCH_RETURN	ACCESS:    1117607  HIT:     291549  MISS:     826058	AVERAGE STALL: 49.8928
L1BTB BRANCH_OTHER ACCESS:          0  HIT:          0  MISS:          0	AVERAGE STALL: -nan
L1BTB TOTAL ROB OCCUPANCY AT BTB MISS: 2.58487

L2BTB TOTAL     ACCESS:    3603702  HIT:    3538238  MISS:      65464  HIT %:    98.1834  MISS %:    1.81658   MPKI: 1.30928
L2BTB BRANCH_DIRECT_JUMP	ACCESS:     399188  HIT:     394755  MISS:       4433	AVERAGE STALL: 49.8339
L2BTB BRANCH_INDIRECT	ACCESS:     106672  HIT:     103998  MISS:       2674	AVERAGE STALL: 102.556
L2BTB BRANCH_CONDITIONAL	ACCESS:    1292761  HIT:    1288629  MISS:       4132	AVERAGE STALL: 54.7455
L2BTB BRANCH_DIRECT_CALL	ACCESS:     839557  HIT:     838294  MISS:       1263	AVERAGE STALL: 64.7518
L2BTB BRANCH_INDIRECT_CALL	ACCESS:     140879  HIT:     130679  MISS:      10200	AVERAGE STALL: 133.069
L2BTB BRANCH_RETURN	ACCESS:     824645  HIT:     781883  MISS:      42762	AVERAGE STALL: 49.8928
L2BTB BRANCH_OTHER ACCESS:          0  HIT:          0  MISS:          0	AVERAGE STALL: -nan
L2BTB TOTAL ROB OCCUPANCY AT BTB MISS: 143.296

L2C TOTAL     ACCESS:    4483866  HIT:    3990051  MISS:     493815  HIT %:    88.9868  MISS %:    11.0132   MPKI: 9.8763
L2C LOAD INSTRUCTION	ACCESS:    2761527  HIT:    2493572  MISS:     267955  HIT %:    90.2969  MISS %:    9.70315  MPKI: 5.3591
L2C LOAD TRANSLATION INSTRUCTION	ACCESS:        252  HIT:         72  MISS:        180  HIT %:    28.5714  MISS %:    71.4286  MPKI: 0.0036
L2C LOAD DATA	ACCESS:     724444  HIT:     642354  MISS:      82090  HIT %:    88.6686  MISS %:    11.3314  MPKI: 1.6418
L2C RFO DATA	ACCESS:     284838  HIT:     235923  MISS:      48915  HIT %:    82.8271  MISS %:    17.1729  MPKI: 0.9783
L2C PREFETCH DATA	ACCESS:     191738  HIT:     115502  MISS:      76236  HIT %:    60.2395  MISS %:    39.7605  MPKI: 1.52472
L2C WRITEBACK DATA	ACCESS:     519244  HIT:     502052  MISS:      17192  HIT %:     96.689  MISS %:    3.31097  MPKI: 0.34384
L2C LOAD TRANSLATION DATA	ACCESS:       1779  HIT:        545  MISS:       1234  HIT %:    30.6352  MISS %:    69.3648  MPKI: 0.02468
L2C TRANSLATION FROM L1D PREFETCHER DATA	ACCESS:         44  HIT:         31  MISS:         13  HIT %:    70.4545  MISS %:    29.5455  MPKI: 0.00026

L2C PREFETCH  REQUESTED:      97172  ISSUED:      97172  USEFUL:       8567  USELESS:      68176
L2C USEFUL LOAD PREFETCHES:       8567 PREFETCH ISSUED TO LOWER LEVEL:      76751  ACCURACY: 11.1621
 TIMELY PREFETCHES:       8567 LATE PREFETCHES: 515 DROPPED PREFETCHES: 0
L2C AVERAGE MISS LATENCY: 37.7369 cycles
L2C RQ	ACCESS:    3772934	FORWARD:          0	MERGED:          0	TO_CACHE:    3772884
L2C WQ	ACCESS:     519244	FORWARD:         50	MERGED:          0	TO_CACHE:     519244
L2C PQ	ACCESS:     199758	FORWARD:          0	MERGED:       3508	TO_CACHE:     196250

L2C Dense regions hint from L2: 0
PSCL5 TOTAL     ACCESS:       3972  HIT:       1986  MISS:       1986  HIT %:         50  MISS %:         50   MPKI: 0.03972
PSCL5 LOAD TRANSLATION INSTRUCTION	ACCESS:       3884  HIT:       1942  MISS:       1942  HIT %:         50  MISS %:         50  MPKI: 0.03884
PSCL5 TRANSLATION FROM L1D PREFETCHER INSTRUCTION	ACCESS:         88  HIT:         44  MISS:         44  HIT %:         50  MISS %:         50  MPKI: 0.00088


PSCL4 TOTAL     ACCESS:       3891  HIT:       1945  MISS:       1946  HIT %:    49.9871  MISS %:    50.0129   MPKI: 0.03892
PSCL4 LOAD TRANSLATION INSTRUCTION	ACCESS:       3674  HIT:       1901  MISS:       1773  HIT %:     51.742  MISS %:     48.258  MPKI: 0.03546
PSCL4 TRANSLATION FROM L1D PREFETCHER INSTRUCTION	ACCESS:         88  HIT:         44  MISS:         44  HIT %:         50  MISS %:         50  MPKI: 0.00088
PSCL4 LOAD TRANSLATION DATA	ACCESS:        129  HIT:          0  MISS:        129  HIT %:          0  MISS %:        100  MPKI: 0.00258


PSCL3 TOTAL     ACCESS:       3897  HIT:       1946  MISS:       1951  HIT %:    49.9358  MISS %:    50.0642   MPKI: 0.03902
PSCL3 LOAD TRANSLATION INSTRUCTION	ACCESS:       3575  HIT:       1910  MISS:       1665  HIT %:    53.4266  MISS %:    46.5734  MPKI: 0.0333
PSCL3 TRANSLATION FROM L1D PREFETCHER INSTRUCTION	ACCESS:         72  HIT:         36  MISS:         36  HIT %:         50  MISS %:         50  MPKI: 0.00072
PSCL3 LOAD TRANSLATION DATA	ACCESS:        250  HIT:          0  MISS:        250  HIT %:          0  MISS %:        100  MPKI: 0.005


PSCL2 TOTAL     ACCESS:       3889  HIT:       1903  MISS:       1986  HIT %:    48.9329  MISS %:    51.0671   MPKI: 0.03972
PSCL2 LOAD TRANSLATION INSTRUCTION	ACCESS:       2082  HIT:       1859  MISS:        223  HIT %:    89.2891  MISS %:    10.7109  MPKI: 0.00446
PSCL2 TRANSLATION FROM L1D PREFETCHER INSTRUCTION	ACCESS:         44  HIT:         44  MISS:          0  HIT %:        100  MISS %:          0  MPKI: 0
PSCL2 LOAD TRANSLATION DATA	ACCESS:       1719  HIT:          0  MISS:       1719  HIT %:          0  MISS %:        100  MPKI: 0.03438
PSCL2 TRANSLATION FROM L1D PREFETCHER DATA	ACCESS:         44  HIT:          0  MISS:         44  HIT %:          0  MISS %:        100  MPKI: 0.00088


LLC TOTAL     ACCESS:     549318  HIT:     521613  MISS:      27705  HIT %:    94.9565  MISS %:    5.04353   MPKI: 0.5541
LLC LOAD INSTRUCTION	ACCESS:     267955  HIT:     267217  MISS:        738  HIT %:    99.7246  MISS %:   0.275419  MPKI: 0.01476
LLC LOAD TRANSLATION INSTRUCTION	ACCESS:        180  HIT:        153  MISS:         27  HIT %:         85  MISS %:         15  MPKI: 0.00054
LLC LOAD DATA	ACCESS:      81582  HIT:      78107  MISS:       3475  HIT %:    95.7405  MISS %:    4.25952  MPKI: 0.0695
LLC RFO DATA	ACCESS:      48893  HIT:      35634  MISS:      13259  HIT %:    72.8816  MISS %:    27.1184  MPKI: 0.26518
LLC PREFETCH DATA	ACCESS:      76751  HIT:      66899  MISS:       9852  HIT %:    87.1637  MISS %:    12.8363  MPKI: 0.19704
LLC WRITEBACK DATA	ACCESS:      72710  HIT:      72415  MISS:        295  HIT %:    99.5943  MISS %:   0.405721  MPKI: 0.0059
LLC LOAD TRANSLATION DATA	ACCESS:       1234  HIT:       1176  MISS:         58  HIT %:    95.2998  MISS %:    4.70016  MPKI: 0.00116
LLC TRANSLATION FROM L1D PREFETCHER DATA	ACCESS:         13  HIT:         12  MISS:          1  HIT %:    92.3077  MISS %:    7.69231  MPKI: 2e-05

LLC AVERAGE MISS LATENCY: 155.389 cycles
LLC RQ	ACCESS:     399872	FORWARD:          0	MERGED:          0	TO_CACHE:     399857
LLC WQ	ACCESS:      72711	FORWARD:         15	MERGED:          0	TO_CACHE:      72711
LLC PQ	ACCESS:      76751	FORWARD:          0	MERGED:          0	TO_CACHE:      76751

LLC Dense regions hint to LLC: 0

RAW hits: 1940917
Loads Generated: 12632453
Loads sent to L1D: 10691540
Stores Generated: 6946333
Stores sent to L1D: 6946339
Major fault: 0 Minor fault: 2580
Allocated PAGES: 2580

stream: 
stream:times selected: 1186192
stream:pref_filled: 123267
stream:pref_useful: 24367
stream:pref_late: 6788
stream:misses: 8130
stream:misses_by_poll: 0

CS: 
CS:times selected: 179652
CS:pref_filled: 60015
CS:pref_useful: 36687
CS:pref_late: 6964
CS:misses: 16059
CS:misses_by_poll: 8

CPLX: 
CPLX:times selected: 1005221
CPLX:pref_filled: 19347
CPLX:pref_useful: 4583
CPLX:pref_late: 3071
CPLX:misses: 92260
CPLX:misses_by_poll: 1

NL_L1: 
NL:times selected: 21282
NL:pref_filled: 794
NL:pref_useful: 381
NL:pref_late: 289
NL:misses: 1790
NL:misses_by_poll: 0

total selections: 2392347
total_filled: 94479
total_useful: 33609
total_late: 18572
total_polluted: 9
total_misses_after_warmup: 766245
conflicts: 5519081

test: 115447

DRAM Statistics
 CHANNEL 0
 RQ ROW_BUFFER_HIT:      10189  ROW_BUFFER_MISS:      17220
 DBUS_CONGESTED:          5
 WQ ROW_BUFFER_HIT:       1315  ROW_BUFFER_MISS:      12048  FULL:          0

 AVG_CONGESTED_CYCLE: 5

CPU 0 Branch Prediction Accuracy: 99.8226% MPKI: 0.32462 Average ROB Occupancy at Mispredict: 185.587
Branch types
NOT_BRANCH: 40851731 81.7035%
BRANCH_DIRECT_JUMP: 548145 1.09629%
BRANCH_INDIRECT: 182906 0.365812%
BRANCH_CONDITIONAL: 6181973 12.3639%
BRANCH_DIRECT_CALL: 945716 1.89143%
BRANCH_INDIRECT_CALL: 171889 0.343778%
BRANCH_RETURN: 1117607 2.23521%
BRANCH_OTHER: 0 0%

DRAM PAGES: 1048576
Allocated PAGES: 2580
Average_ROB_Occupancy: 237.641
Average_Decode_Occupancy: 33.9743
Average_FTQ_Occupancy: 13.0112
Indirect max targets: 14 Average targets: 1.14765
Branch_type:  BRANCH_DIRECT_JUMP:  Count Percentage: 2.9132 6.78798 2.96081 4.81234 1.69935 6.83158 1.25434 72.7404 
Branch_type:  BRANCH_INDIRECT:  Count Percentage: 11.7686 3.42615 2.55217 13.3423 3.3457 4.81921 2.0049 58.7409 
Branch_type:  BRANCH_CONDITIONAL:  Count Percentage: 21.1775 2.89347 1.67272 3.20137 1.14122 5.43989 0.739575 63.7342 
Branch_type:  BRANCH_DIRECT_CALL:  Count Percentage: 0.75418 1.26362 1.13011 2.91894 1.99551 3.1892 0.769904 87.9785 
Branch_type:  BRANCH_INDIRECT_CALL:  Count Percentage: 9.52312 0.571736 2.9835 4.83546 0.00029096 3.77666 0.995665 77.3136 
Branch_type:  BRANCH_RETURN:  Count Percentage: 4.18932 0.696273 2.26755 3.59728 2.05752 5.61867 1.15793 80.4154 
Branch_type:  BRANCH_DIRECT_JUMP:  Total Count: 31874 74269 32395 52653 18593 74746 13724 795871 
Branch_type:  BRANCH_INDIRECT:  Total Count: 43009 12521 9327 48760 12227 17612 7327 214671 
Branch_type:  BRANCH_CONDITIONAL:  Total Count: 2616067 357431 206632 395466 140975 671992 91360 7873111 
Branch_type:  BRANCH_DIRECT_CALL:  Total Count: 14246 23869 21347 55137 37694 60242 14543 1661860 
Branch_type:  BRANCH_INDIRECT_CALL:  Total Count: 32730 1965 10254 16619 1 12980 3422 265719 
Branch_type:  BRANCH_RETURN:  Total Count: 93567 15551 50645 80344 45954 125491 25862 1796050 
Number of unique branch instructions: 10072
Upper 32 bits: 
aaaa
ffff
ffff0000
Unique upper 32 bits: 3
Unique upper 36 bits: 3
Unique upper 40 bits: 5
Unique upper 44 bits: 32
Unique upper 48 bits: 154
Variant_0 : 1377 0.336182
Variant_1 : 1286 0.313965
Variant_2 : 1365 0.333252
Variant_3 : 0 0
Offset_3 4161
Offset_4 250
Offset_5 458
Offset_6 516
Offset_7 596
Offset_8 524
Offset_9 477
Offset_10 388
Offset_11 321
Offset_12 273
Offset_13 213
Offset_14 227
Offset_15 197
Offset_16 230
Offset_17 151
Offset_18 128
Offset_19 246
Offset_20 142
Offset_21 235
Offset_22 398
Offset_23 241
Offset_24 338
Offset_25 88
Offset_47 82
decode_dispatch_called: 25503825 70.2263
Dispatch_width: 0 13705095 53.7374 37.7378
Dispatch_width: 1 959579 3.76249 2.64226
Dispatch_width: 2 810999 3.17991 2.23313
Dispatch_width: 3 494927 1.9406 1.36281
Dispatch_width: 4 5559748 21.7997 15.3091
Dispatch_width: 5 146210 0.573287 0.402598
Dispatch_width: 6 3827267 15.0066 10.5386
Empty_decode_cycles: 10812800 29.7737
ROB_full_cycles: 8878356 24.4471
Starvation_cycles_per_kilo_instr: 236.11
Starvation_cycles_per_kilo_instr_3: 179.05
Starvation_cycles_per_kilo_instr_0: 156.395
Branch_type_1  (3,1)  (4,9)  (5,37)  (6,72)  (7,118)  (8,130)  (9,125)  (10,99)  (11,72)  (12,44)  (13,8)  (14,2)  (15,3)  (16,4)  (18,1)  (19,4)  (20,2)  (21,1)  (22,3)  (23,2)  (24,10)  (25,12) 
Branch_type_2  (3,1)  (5,1)  (8,3)  (9,3)  (12,1)  (13,1)  (14,1)  (16,3)  (17,2)  (20,2)  (21,2)  (23,5)  (24,1)  (47,38) 
Branch_type_3  (3,4159)  (4,241)  (5,416)  (6,428)  (7,446)  (8,328)  (9,263)  (10,158)  (11,133)  (12,51)  (13,7) 
Branch_type_4  (6,4)  (7,8)  (8,26)  (9,54)  (10,62)  (11,60)  (12,98)  (13,90)  (14,100)  (15,94)  (16,104)  (17,66)  (18,58)  (19,120)  (20,74)  (21,124)  (22,212)  (23,136)  (24,198)  (25,72) 
Branch_type_5  (8,2)  (9,1)  (10,3)  (11,5)  (12,3)  (13,14)  (14,16)  (15,11)  (16,20)  (17,13)  (18,16)  (19,12)  (20,10)  (21,13)  (22,42)  (23,26)  (24,37) 
Branch_type_6  (5,4)  (6,12)  (7,24)  (8,35)  (9,31)  (10,66)  (11,51)  (12,76)  (13,93)  (14,108)  (15,89)  (16,99)  (17,70)  (18,53)  (19,110)  (20,54)  (21,95)  (22,141)  (23,72)  (24,92)  (25,4)  (47,44) 
Unique trigger count: 
Variant_0_evicts_0 : 0
Variant_0_evicts_1 : 0
Variant_0_evicts_2 : 0
Variant_0_evicts_3 : 0
Variant_1_evicts_0 : 0
Variant_1_evicts_1 : 0
Variant_1_evicts_2 : 0
Variant_1_evicts_3 : 0
Variant_2_evicts_0 : 0
Variant_2_evicts_1 : 0
Variant_2_evicts_2 : 0
Variant_2_evicts_3 : 0
Variant_3_evicts_0 : 0
Variant_3_evicts_1 : 0
Variant_3_evicts_2 : 0
Variant_3_evicts_3 : 0
BTB PER SET UNIQUE ADDR: 11 12 7 16 12 14 10 9 7 12 14 12 16 11 11 9 9 11 11 10 12 10 10 8 9 12 12 13 8 9 12 12 14 10 7 14 11 10 5 12 10 12 13 14 11 9 7 9 16 8 18 12 14 14 12 4 7 10 12 15 10 14 9 11 10 16 8 10 14 8 9 13 13 10 10 6 8 14 11 9 10 6 10 12 13 16 11 7 6 18 5 7 10 7 8 10 8 7 13 12 16 18 12 11 9 7 13 10 7 8 8 13 10 10 10 6 11 10 10 10 14 10 13 8 16 10 8 8 11 13 7 13 7 9 14 15 8 11 12 16 6 10 8 8 9 12 11 12 7 12 16 12 10 11 9 16 10 8 10 8 15 8 13 15 11 13 13 10 11 10 11 13 14 6 10 11 13 10 13 11 7 11 11 12 14 14 7 14 9 11 12 11 12 9 11 12 12 16 8 11 10 13 13 11 11 9 12 9 12 7 8 14 14 9 8 14 11 11 8 13 6 10 10 11 10 11 15 11 6 16 8 6 9 12 13 15 15 12 17 8 14 11 13 15 7 11 8 11 12 11 11 14 14 10 16 10 8 8 7 10 13 9 4 13 11 8 8 7 6 9 12 11 11 6 9 9 10 12 15 10 8 12 9 10 12 6 13 21 18 11 12 11 13 16 7 10 7 11 9 8 9 11 10 14 10 13 11 6 18 10 10 16 7 12 7 7 7 10 11 13 6 16 8 12 16 15 11 10 11 10 10 14 11 12 10 11 8 10 9 18 13 11 9 12 15 14 11 11 11 8 10 11 5 11 8 13 11 11 6 15 7 14 9 18 9 13 5 11 15 10 11 7 8 14 7 14 6 13 11 11 12 8 5 7 8 8 14 14 10 11 15 8 12 13 9 8 12 9 9 12 10 11 10 9 18 6 12 17 13 6 10 14 12 17 9 9 9 19 16 11 13 10 10 17 14 11 10 10 15 11 15 7 14 12 11 11 12 7 10 7 15 9 10 13 19 12 11 9 12 12 12 21 10 9 11 18 17 17 9 18 11 12 13 8 16 6 11 12 10 13 15 7 9 11 12 16 9 14 6 11 13 17 13 15 7 14 14 14 14 12 12 14 6 7 9 9 14 14 10 13 11 17 10 16 10 7 7 10 12 11 12 15 11 10 13 11 12 10 8 12 10 7 9 7 8 11 17 9 8 21 10 11 16 11 10 18 8 11 11 12 14 8 10 13 14 12 10 12 9 10 14 15 10 8 14 12 14 11 13 13 11 14 14 9 10 13 7 9 11 13 13 14 13 16 10 15 15 18 9 12 13 9 6 12 13 8 11 12 16 11 11 11 10 11 15 6 8 10 5 10 13 8 12 10 12 17 16 10 9 11 15 14 6 10 6 13 8 6 14 13 18 11 10 8 13 14 12 15 7 10 6 14 14 12 11 10 15 14 10 13 10 14 12 14 8 9 10 11 16 7 9 13 8 9 13 12 12 8 10 10 13 7 12 18 11 11 10 12 8 12 14 8 12 14 12 13 12 12 7 15 11 17 11 13 15 10 10 9 16 8 11 12 14 10 8 10 9 20 7 14 7 10 12 11 10 10 14 8 7 8 8 9 6 7 9 11 12 12 11 10 11 9 13 9 11 9 14 6 9 14 9 9 10 8 7 12 12 16 14 13 7 9 12 8 20 20 12 17 9 7 14 12 10 12 10 11 14 9 6 8 9 8 8 14 12 12 12 12 15 10 9 18 11 6 13 9 12 12 16 10 7 15 11 13 10 9 6 8 8 5 7 7 12 8 15 15 10 12 12 9 13 8 11 15 11 11 9 12 8 12 10 13 8 13 10 15 16 12 8 16 10 15 8 15 10 11 15 12 14 8 11 11 11 12 12 11 11 8 12 9 16 11 9 17 9 16 10 12 13 9 9 8 9 14 16 14 11 12 12 15 12 12 8 9 10 10 10 7 17 12 10 8 8 13 8 7 11 10 11 11 11 8 12 12 10 7 16 13 16 8 8 8 8 10 10 13 11 10 13 6 11 8 15 11 7 14 6 12 9 11 9 8 12 11 10 12 13 13 11 11 7 13 10 10 6 9 8 8 17 8 13 15 14 8 7 11 9 15 17 9 9 17 7 15 9 14 12 11 10 13 12 10 10 10 11 13 10 9 10 13 9 10 12 15 11 12 15 14 10 13 10 12 14 10 13 11 13 11 14 16 11 11 12 14 9 15 14 12 15 7 12 10 9 13 12 9 12 10 13 10 9 18 8 8 13 10 11 13 9 14 15 10 10 6 10 10 7 10 7 6 9 18 10 9 
BTB PER SET COUNT: 992 20 1978 20 1383 16 11 10 1472 15 21 15 20414 1476 11 9 987 12 505 11 19 13 719 13 12 12 14 19 8 11 279 13 20 18 7 220 12 11 5 23 13 19 15 1482 1477 9 7 9 501 13 21 428 18 19 16 4 8 11 17 19 14 3407 9 11 14 23 12 1027 14 9 9 965 18 13 11 10 8 232 14 11 994 6 14 18 14 19 22 7 11 56 5 854 288 98 9 11 141 8 17 21 20 776 13 18 1616 9 16 10 990 10 8 31 982 13 13 8 13 11 1442 13 19 14 25 10 17 14 9 12 18 967 8 22 10 9 47 15 685 16 15 23 7 14 9 10 10 399 55 20 11 200 18 294 1284 14 9 22 13 11 19 9 19 273 46 23 25 1251 16 10 15 1467 20 16 19 8 13 17 15 13 240 514 11 137 15 20 20 35 7 18 314 992 17 14 21 14 16 12 12 194 9 397 12 18 987 20 11 11 19 506 13 9 14 20 29 8030 12 777 16 13 1135 15 10 20 185 14 11 29 20 258 6 24 13 8 9 15 19 20 50 18 232 10 19 13 14 386 7 11 8 22 13 19 15 16 17 10 19 554 76 14 8 13 566 14 4 47 12 8 9 10 1943 20 14 992 18 7 9 12 11 14 20 192 9 19 109 12 13 7 13 25 20 11 14 17 19 21 9 12 8 11 15 13 13 13 305 21 10 22 22 6 23 14 986 19 7 16 1961 7 7 12 19 19 8 920 9 19 18 517 17 12 16 13 18 19 17 13 11 19 12 983 11 25 14 1459 11 18 24 21 13 17 12 14 14 137 5 14 8 16 11 15 6 21 9 27 14 29 9 178 6 13 20 14 14 201 10 17 9 17 6 15 20 15 1002 10 978 7 10 9 784 24 11 123 24 8 19 64 11 9 12 9 11 17 13 15 1029 11 27 6 19 101 19 8 14 18 14 27 11 9 13 180 318 14 22 21 16 34 22 12 15 14 16 18 23 9 25 18 15 21 16 26 14 8 17 10 11 15 214 19 350 12 12 12 854 709 13 11 11 616 22 23 9 31 15 18 13 9 16 6 1912 22 12 16 21 7 12 19 19 26 11 22 6 13 19 34 16 18 9 24 21 18 20 181 755 16 7836 9 13 13 1292 18 17 15 12 19 13 149 14 8 10 13 12 14 138 26 16 150 17 13 13 11 9 35 13 9 11 488 9 19 54 10 13 1516 22 11 22 17 13 122 14 995 18 14 20 8 10 14 20 14 12 17 12 993 20 16 11 13 17 15 18 12 19 23 16 15 27 9 355 19 129 11 17 140 932 17 15 21 2443 15 21 55 9 19 14 17 6 4388 17 11 12 12 22 12 12 13 13 13 23 6 10 396 6 10 17 10 19 12 14 25 27 1930 9 18 17 1061 6 11 6 15 8 10 22 18 25 12 13 686 16 15 19 18 10 12 9 22 18 18 15 13 27 795 15 16 12 19 15 14 8 171 993 16 1692 11 11 14 8 13 31 281 20 15 977 12 204 7 21 28 689 14 11 16 1475 23 19 8 757 20 17 514 23 16 7 29 11 19 12 16 52 13 10 10 103 13 15 19 26 13 1987 11 141 43 7 20 7 18 1479 14 10 14 22 13 7 9 8 10 988 9 10 34 507 15 15 12 158 15 15 2388 15 11 19 9 9 2270 419 4728 13 13 7 15 17 31 26 15 1000 12 17 10 22 34 18 20 15 8 1481 13 12 1689 1137 16 30 15 6 11 11 9 9 307 16 14 12 14 21 11 11 18 13 6 24 9 13 19 20 10 993 21 1105 14 11 9 6 9 100 5 8 432 18 8 759 22 13 16 14 879 18 9 175 290 16 15 13 15 9 63 15 28 9 343 415 709 21 1481 11 2938 13 807 8 17 230 11 26 12 21 11 13 12 13 16 516 20 15 11 1001 13 26 14 11 21 9 19 11 12 20 21 1477 1560 15 19 1482 27 14 19 22 17 16 12 8 15 14 10 13 11 30 15 11 14 10 16 8 7 13 14 2073 14 12 8 135 13 14 9 19 18 19 413 11 12 8 13 16 23 12 12 15 6 13 10 20 252 7 24 7 20 9 394 9 11 20 15 12 992 17 154 11 15 9 35 656 11 6 246 9 9 23 16 13 23 544 14 7 232 16 27 31 10 9 1773 15 20 10 24 106 16 16 15 14 1034 16 1477 12 18 14 11 15 789 18 11 530 20 19 15 26 21 13 17 16 16 16 17 26 17 17 16 1003 90 11 12 17 752 16 1083 24 505 19 7 14 11 13 339 18 9 15 1481 25 14 15 145 11 8 14 13 13 17 14 990 619 12 13 8 13 14 8 14 8 6 9 513 16 9 
To predecode: 0
Predecoding something: 0
Predecode request dropped: 0
sizeofblock_0 0
sizeofblock_1 32202
sizeofblock_2 36471
sizeofblock_3 46622
sizeofblock_4 22558
sizeofblock_5 0
sizeofblock_6 0
sizeofblock_7 0
sizeofblock_8 0
Variant_0 Correct: 1611958 Incorrect: 0 Accuracy: 1
Variant_1 Correct: 2088640 Incorrect: 0 Accuracy: 1
Variant_2 Correct: 3640076 Incorrect: 0 Accuracy: 1
Variant_3 Correct: 0 Incorrect: 0 Accuracy: -nan
