
*** ChampSim Multicore Out-of-Order Simulator ***

Warmup Instructions: 50000000
Simulation Instructions: 50000000
Number of CPUs: 1
LLC sets: 2048
LLC ways: 16
Off-chip DRAM Size: 4096 MB Channels: 1 Width: 64-bit Data Rate: 6400 MT/s
CPU 0 runs ./micro_traces/srv149.trace.gz
.gz
ITLB has LRU replacement policy
DTLB has LRU replacement policy
STLB has LRU replacement policy
CPU 0 L1I next line prefetcher
./conditional/srv149.cond
L1I has LRU replacement policy
L1D has LRU replacement policy
Initialize SRRIP state for L2C
Initialize DRRIP state for LLC
Heartbeat_Variant_0 : 1319 0.161011 per_variant_size: 0 1319 0 0 0 0 0 0 0 
Heartbeat_Variant_1 : 1361 0.166138 per_variant_size: 0 916 445 0 0 0 0 0 0 
Heartbeat_Variant_2 : 1642 0.200439 per_variant_size: 0 950 430 237 25 0 0 0 0 
Heartbeat_Variant_3 : 0 0 per_variant_size: 0 0 0 0 0 0 0 0 0 
Heartbeat_Variant_0_evicts 0 : 5408 1 : 0 2 : 0 3 : 0 
Heartbeat_Variant_1_evicts 0 : 2 1 : 0 2 : 254 3 : 0 
Heartbeat_Variant_2_evicts 0 : 1 1 : 252 2 : 0 3 : 0 
Heartbeat_Variant_3_evicts 0 : 0 1 : 0 2 : 0 3 : 0 
Heartbeat CPU 0 instructions: 10000001 cycles: 2794413 heartbeat IPC: 3.57857 cumulative IPC: 3.57857 (Simulation time: 0 hr 1 min 36 sec) 
Heartbeat_Variant_0 : 1434 0.175049 per_variant_size: 0 1434 0 0 0 0 0 0 0 
Heartbeat_Variant_1 : 1509 0.184204 per_variant_size: 0 980 529 0 0 0 0 0 0 
Heartbeat_Variant_2 : 1757 0.214478 per_variant_size: 0 981 464 266 46 0 0 0 0 
Heartbeat_Variant_3 : 0 0 per_variant_size: 0 0 0 0 0 0 0 0 0 
Heartbeat_Variant_0_evicts 0 : 5428 1 : 1 2 : 1 3 : 0 
Heartbeat_Variant_1_evicts 0 : 0 1 : 0 2 : 255 3 : 0 
Heartbeat_Variant_2_evicts 0 : 0 1 : 255 2 : 0 3 : 0 
Heartbeat_Variant_3_evicts 0 : 0 1 : 0 2 : 0 3 : 0 
Heartbeat CPU 0 instructions: 20000000 cycles: 5589129 heartbeat IPC: 3.57818 cumulative IPC: 3.57838 (Simulation time: 0 hr 3 min 16 sec) 
Heartbeat_Variant_0 : 1434 0.175049 per_variant_size: 0 1434 0 0 0 0 0 0 0 
Heartbeat_Variant_1 : 1511 0.184448 per_variant_size: 0 974 537 0 0 0 0 0 0 
Heartbeat_Variant_2 : 1758 0.2146 per_variant_size: 0 982 464 264 48 0 0 0 0 
Heartbeat_Variant_3 : 0 0 per_variant_size: 0 0 0 0 0 0 0 0 0 
Heartbeat_Variant_0_evicts 0 : 5488 1 : 0 2 : 0 3 : 0 
Heartbeat_Variant_1_evicts 0 : 0 1 : 0 2 : 246 3 : 0 
Heartbeat_Variant_2_evicts 0 : 0 1 : 246 2 : 0 3 : 0 
Heartbeat_Variant_3_evicts 0 : 0 1 : 0 2 : 0 3 : 0 
Heartbeat CPU 0 instructions: 30000003 cycles: 8384195 heartbeat IPC: 3.57773 cumulative IPC: 3.57816 (Simulation time: 0 hr 4 min 53 sec) 
Heartbeat_Variant_0 : 1438 0.175537 per_variant_size: 0 1438 0 0 0 0 0 0 0 
Heartbeat_Variant_1 : 1536 0.1875 per_variant_size: 0 992 544 0 0 0 0 0 0 
Heartbeat_Variant_2 : 1774 0.216553 per_variant_size: 0 987 466 272 49 0 0 0 0 
Heartbeat_Variant_3 : 0 0 per_variant_size: 0 0 0 0 0 0 0 0 0 
Heartbeat_Variant_0_evicts 0 : 5549 1 : 0 2 : 0 3 : 0 
Heartbeat_Variant_1_evicts 0 : 1 1 : 0 2 : 243 3 : 0 
Heartbeat_Variant_2_evicts 0 : 1 1 : 241 2 : 0 3 : 0 
Heartbeat_Variant_3_evicts 0 : 0 1 : 0 2 : 0 3 : 0 
Heartbeat CPU 0 instructions: 40000002 cycles: 11179810 heartbeat IPC: 3.57703 cumulative IPC: 3.57788 (Simulation time: 0 hr 6 min 38 sec) 
*** Reached end of trace for Core: 0 Repeating trace: ./micro_traces/srv149.trace.gz
Heartbeat_Variant_0 : 1448 0.176758 per_variant_size: 0 1448 0 0 0 0 0 0 0 
Heartbeat_Variant_1 : 1548 0.188965 per_variant_size: 0 997 551 0 0 0 0 0 0 
Heartbeat_Variant_2 : 1781 0.217407 per_variant_size: 0 993 464 281 43 0 0 0 0 
Heartbeat_Variant_3 : 0 0 per_variant_size: 0 0 0 0 0 0 0 0 0 
Heartbeat_Variant_0_evicts 0 : 5444 1 : 0 2 : 0 3 : 0 
Heartbeat_Variant_1_evicts 0 : 0 1 : 0 2 : 249 3 : 0 
Heartbeat_Variant_2_evicts 0 : 0 1 : 250 2 : 0 3 : 0 
Heartbeat_Variant_3_evicts 0 : 0 1 : 0 2 : 0 3 : 0 
Heartbeat CPU 0 instructions: 50000000 cycles: 13974865 heartbeat IPC: 3.57775 cumulative IPC: 3.57785 (Simulation time: 0 hr 8 min 23 sec) 

Warmup complete CPU 0 instructions: 50000004 cycles: 13974866 (Simulation time: 0 hr 8 min 23 sec) 

Cycle: 20000000 FTQ IN: 58119057 FTQ occupancy: 19.8048 DECODE IN: 58118955 DECODE occupancy: 51.8328 ROB IN: 58118895 ROB occupancy: 315.22 ROB OUT: 58118547
Heartbeat_Variant_0 : 1448 0.176758 per_variant_size: 0 1448 0 0 0 0 0 0 0 
Heartbeat_Variant_1 : 1548 0.188965 per_variant_size: 0 1002 546 0 0 0 0 0 0 
Heartbeat_Variant_2 : 1782 0.217529 per_variant_size: 0 995 464 254 69 0 0 0 0 
Heartbeat_Variant_3 : 0 0 per_variant_size: 0 0 0 0 0 0 0 0 0 
Heartbeat_Variant_0_evicts 0 : 5468 1 : 0 2 : 0 3 : 0 
Heartbeat_Variant_1_evicts 0 : 0 1 : 0 2 : 246 3 : 0 
Heartbeat_Variant_2_evicts 0 : 0 1 : 246 2 : 0 3 : 0 
Heartbeat_Variant_3_evicts 0 : 0 1 : 0 2 : 0 3 : 0 
Heartbeat CPU 0 instructions: 60000003 cycles: 21390184 heartbeat IPC: 1.34856 cumulative IPC: 1.34856 (Simulation time: 0 hr 10 min 13 sec) 
Heartbeat_Variant_0 : 1448 0.176758 per_variant_size: 0 1448 0 0 0 0 0 0 0 
Heartbeat_Variant_1 : 1547 0.188843 per_variant_size: 0 996 551 0 0 0 0 0 0 
Heartbeat_Variant_2 : 1783 0.217651 per_variant_size: 0 996 464 264 59 0 0 0 0 
Heartbeat_Variant_3 : 0 0 per_variant_size: 0 0 0 0 0 0 0 0 0 
Heartbeat_Variant_0_evicts 0 : 5480 1 : 0 2 : 0 3 : 0 
Heartbeat_Variant_1_evicts 0 : 0 1 : 0 2 : 247 3 : 0 
Heartbeat_Variant_2_evicts 0 : 0 1 : 248 2 : 0 3 : 0 
Heartbeat_Variant_3_evicts 0 : 0 1 : 0 2 : 0 3 : 0 
Heartbeat CPU 0 instructions: 70000001 cycles: 28710703 heartbeat IPC: 1.36602 cumulative IPC: 1.35724 (Simulation time: 0 hr 12 min 8 sec) 
Cycle: 30000000 FTQ IN: 13654803 FTQ occupancy: 12.1756 DECODE IN: 13654882 DECODE occupancy: 32.4465 ROB IN: 13654942 ROB occupancy: 235.226 ROB OUT: 13655290
Heartbeat_Variant_0 : 1448 0.176758 per_variant_size: 0 1448 0 0 0 0 0 0 0 
Heartbeat_Variant_1 : 1547 0.188843 per_variant_size: 0 997 550 0 0 0 0 0 0 
Heartbeat_Variant_2 : 1783 0.217651 per_variant_size: 0 996 464 258 65 0 0 0 0 
Heartbeat_Variant_3 : 0 0 per_variant_size: 0 0 0 0 0 0 0 0 0 
Heartbeat_Variant_0_evicts 0 : 5538 1 : 0 2 : 0 3 : 0 
Heartbeat_Variant_1_evicts 0 : 0 1 : 0 2 : 240 3 : 0 
Heartbeat_Variant_2_evicts 0 : 0 1 : 240 2 : 0 3 : 0 
Heartbeat_Variant_3_evicts 0 : 0 1 : 0 2 : 0 3 : 0 
Heartbeat CPU 0 instructions: 80000000 cycles: 36063129 heartbeat IPC: 1.3601 cumulative IPC: 1.35819 (Simulation time: 0 hr 14 min 0 sec) 
Cycle: 40000000 FTQ IN: 13639140 FTQ occupancy: 12.4288 DECODE IN: 13639105 DECODE occupancy: 32.8927 ROB IN: 13639045 ROB occupancy: 237.045 ROB OUT: 13638694
Heartbeat_Variant_0 : 1448 0.176758 per_variant_size: 0 1448 0 0 0 0 0 0 0 
Heartbeat_Variant_1 : 1547 0.188843 per_variant_size: 0 999 548 0 0 0 0 0 0 
Heartbeat_Variant_2 : 1783 0.217651 per_variant_size: 0 996 464 260 63 0 0 0 0 
Heartbeat_Variant_3 : 0 0 per_variant_size: 0 0 0 0 0 0 0 0 0 
Heartbeat_Variant_0_evicts 0 : 5560 1 : 0 2 : 0 3 : 0 
Heartbeat_Variant_1_evicts 0 : 0 1 : 0 2 : 241 3 : 0 
Heartbeat_Variant_2_evicts 0 : 0 1 : 241 2 : 0 3 : 0 
Heartbeat_Variant_3_evicts 0 : 0 1 : 0 2 : 0 3 : 0 
Heartbeat CPU 0 instructions: 90000002 cycles: 43366494 heartbeat IPC: 1.36923 cumulative IPC: 1.36093 (Simulation time: 0 hr 15 min 51 sec) 
*** Reached end of trace for Core: 0 Repeating trace: ./micro_traces/srv149.trace.gz
Cycle: 50000000 FTQ IN: 13678369 FTQ occupancy: 12.274 DECODE IN: 13678286 DECODE occupancy: 32.7096 ROB IN: 13678286 ROB occupancy: 236.658 ROB OUT: 13678285
Heartbeat_Variant_0 : 1448 0.176758 per_variant_size: 0 1448 0 0 0 0 0 0 0 
Heartbeat_Variant_1 : 1548 0.188965 per_variant_size: 0 1000 548 0 0 0 0 0 0 
Heartbeat_Variant_2 : 1782 0.217529 per_variant_size: 0 994 465 265 58 0 0 0 0 
Heartbeat_Variant_3 : 0 0 per_variant_size: 0 0 0 0 0 0 0 0 0 
Heartbeat_Variant_0_evicts 0 : 5447 1 : 0 2 : 0 3 : 0 
Heartbeat_Variant_1_evicts 0 : 0 1 : 0 2 : 251 3 : 0 
Heartbeat_Variant_2_evicts 0 : 0 1 : 250 2 : 0 3 : 0 
Heartbeat_Variant_3_evicts 0 : 0 1 : 0 2 : 0 3 : 0 
Heartbeat CPU 0 instructions: 100000000 cycles: 50663208 heartbeat IPC: 1.37048 cumulative IPC: 1.36283 (Simulation time: 0 hr 17 min 33 sec) 
Finished CPU 0 instructions: 50000000 cycles: 36688343 cumulative IPC: 1.36283 (Simulation time: 0 hr 17 min 33 sec) 

ChampSim completed all CPUs

Region of Interest Statistics

CPU 0 cumulative IPC: 1.36283 instructions: 50000000 cycles: 36688343
 Fetch stage stalled: 54.762  Sim cycles: 36688343 fetch stall cycle: 20091263
 Empty decode stage: 36.2455  Sim cycles: 36688343 fetch stall cycle: 13297867
ITLB TOTAL     ACCESS:    6918906  HIT:    6413652  MISS:     505254  HIT %:    92.6975  MISS %:    7.30251   MPKI: 10.1051
ITLB LOAD TRANSLATION INSTRUCTION	ACCESS:    5690100  HIT:    5206875  MISS:     483225  HIT %:    91.5076  MISS %:    8.49238  MPKI: 9.6645
ITLB TRANSLATION FROM L1D PREFETCHER INSTRUCTION	ACCESS:    1228806  HIT:    1206777  MISS:      22029  HIT %:    98.2073  MISS %:    1.79272  MPKI: 0.44058

ITLB AVERAGE MISS LATENCY: 73175.2 cycles
ITLB RQ	ACCESS:   10173624	FORWARD:          0	MERGED:    2774394	TO_CACHE:    7399230

DTLB TOTAL     ACCESS:    8927744  HIT:    8451902  MISS:     475842  HIT %:    94.6701  MISS %:    5.32992   MPKI: 9.51684
DTLB LOAD TRANSLATION DATA	ACCESS:    8927744  HIT:    8451902  MISS:     475842  HIT %:    94.6701  MISS %:    5.32992  MPKI: 9.51684

DTLB AVERAGE MISS LATENCY: 9.30901 cycles
DTLB RQ	ACCESS:   13283180	FORWARD:          0	MERGED:    4319576	TO_CACHE:    8963604

STLB TOTAL     ACCESS:    1237703  HIT:    1235309  MISS:       2394  HIT %:    99.8066  MISS %:   0.193423   MPKI: 0.04788
STLB LOAD TRANSLATION INSTRUCTION	ACCESS:     482080  HIT:     481779  MISS:        301  HIT %:    99.9376  MISS %:  0.0624378  MPKI: 0.00602
STLB TRANSLATION FROM L1D PREFETCHER INSTRUCTION	ACCESS:      23174  HIT:      23108  MISS:         66  HIT %:    99.7152  MISS %:   0.284802  MPKI: 0.00132
STLB LOAD TRANSLATION DATA	ACCESS:     475841  HIT:     473855  MISS:       1986  HIT %:    99.5826  MISS %:   0.417366  MPKI: 0.03972
STLB TRANSLATION FROM L1D PREFETCHER DATA	ACCESS:     256608  HIT:     256567  MISS:         41  HIT %:     99.984  MISS %:  0.0159777  MPKI: 0.00082

STLB AVERAGE MISS LATENCY: 59.7652 cycles
STLB RQ	ACCESS:    1430606	FORWARD:          0	MERGED:     156837	TO_CACHE:    1273769

STLB Hit, L1D data hit: 0
STLB Hit, L2C data hit: 0
STLB Hit, LLC data hit: 0
STLB Hit, LLC data miss: 0
STLB STLB hints to L2: 0
L1D TOTAL     ACCESS:   13023764  HIT:   11826973  MISS:    1196791  HIT %:    90.8107  MISS %:    9.18929   MPKI: 23.9358
L1D LOAD DATA	ACCESS:    6541493  HIT:    5751957  MISS:     789536  HIT %:    87.9303  MISS %:    12.0697  MPKI: 15.7907
L1D RFO DATA	ACCESS:    6144734  HIT:    5848951  MISS:     295783  HIT %:    95.1864  MISS %:     4.8136  MPKI: 5.91566
L1D PREFETCH DATA	ACCESS:     337537  HIT:     226065  MISS:     111472  HIT %:    66.9749  MISS %:    33.0251  MPKI: 2.22944

L1D PREFETCH  REQUESTED:     827398  ISSUED:     827398  USEFUL:      55463  USELESS:      72854
L1D USEFUL LOAD PREFETCHES:      55463 PREFETCH ISSUED TO LOWER LEVEL:     128420  ACCURACY: 43.1888
 TIMELY PREFETCHES:      55463 LATE PREFETCHES: 16847 DROPPED PREFETCHES: 2
L1D AVERAGE MISS LATENCY: 451238 cycles
L1D RQ	ACCESS:   10653394	FORWARD:          0	MERGED:    3907254	TO_CACHE:    6581242
L1D WQ	ACCESS:    6899288	FORWARD:     165344	MERGED:     197350	TO_CACHE:    6701938
L1D PQ	ACCESS:     413922	FORWARD:          0	MERGED:          0	TO_CACHE:     413476

L1D UNIQUE REGIONS ACCESSED: 0
L1D REGIONS CONFLICTS: 0
L1D Cross Page Prefetch Requests: 7859
L1D Same Page Prefetch Requests: 832807
L1D ROI Sum of L1D PQ occupancy: 5254458
L1D PREFETCHES PUSHED FROM L2C: 0
L1I TOTAL     ACCESS:    8799460  HIT:    5489604  MISS:    3309856  HIT %:    62.3857  MISS %:    37.6143   MPKI: 66.1971
L1I LOAD INSTRUCTION	ACCESS:    6568252  HIT:    4459306  MISS:    2108946  HIT %:    67.8918  MISS %:    32.1082  MPKI: 42.1789
L1I PREFETCH INSTRUCTION	ACCESS:    2231208  HIT:    1030298  MISS:    1200910  HIT %:    46.1767  MISS %:    53.8233  MPKI: 24.0182

L1I PREFETCH  REQUESTED:    3948628  ISSUED:    3943976  USEFUL:     939437  USELESS:     490832
L1I USEFUL LOAD PREFETCHES:     939437 PREFETCH ISSUED TO LOWER LEVEL:    1430267  ACCURACY: 65.6826
 TIMELY PREFETCHES:     939437 LATE PREFETCHES: 229357 DROPPED PREFETCHES: 83025
L1I AVERAGE MISS LATENCY: 2.24368e+06 cycles
L1I RQ	ACCESS:    9518623	FORWARD:          0	MERGED:    2745128	TO_CACHE:    6773495
L1I PQ	ACCESS:    3943976	FORWARD:          0	MERGED:     543847	TO_CACHE:    3400129

L1BTB TOTAL     ACCESS:    5687274  HIT:    2073070  MISS:    3614204  HIT %:     36.451  MISS %:     63.549   MPKI: 72.2841
L1BTB BRANCH_DIRECT_JUMP	ACCESS:     541789  HIT:     141968  MISS:     399821	AVERAGE STALL: 45.8723
L1BTB BRANCH_INDIRECT	ACCESS:     180368  HIT:      64656  MISS:     115712	AVERAGE STALL: 103.058
L1BTB BRANCH_CONDITIONAL	ACCESS:    2738383  HIT:    1452541  MISS:    1285842	AVERAGE STALL: 57.8096
L1BTB BRANCH_DIRECT_CALL	ACCESS:     942516  HIT:     103589  MISS:     838927	AVERAGE STALL: 54.2288
L1BTB BRANCH_INDIRECT_CALL	ACCESS:     170854  HIT:      21208  MISS:     149646	AVERAGE STALL: 127.975
L1BTB BRANCH_RETURN	ACCESS:    1113364  HIT:     289108  MISS:     824256	AVERAGE STALL: 48.7172
L1BTB BRANCH_OTHER ACCESS:          0  HIT:          0  MISS:          0	AVERAGE STALL: -nan
L1BTB TOTAL ROB OCCUPANCY AT BTB MISS: 3.5448

L2BTB TOTAL     ACCESS:    3589346  HIT:    3508782  MISS:      80564  HIT %:    97.7555  MISS %:    2.24453   MPKI: 1.61128
L2BTB BRANCH_DIRECT_JUMP	ACCESS:     395785  HIT:     390139  MISS:       5646	AVERAGE STALL: 45.8723
L2BTB BRANCH_INDIRECT	ACCESS:     105480  HIT:     102845  MISS:       2635	AVERAGE STALL: 103.058
L2BTB BRANCH_CONDITIONAL	ACCESS:    1285842  HIT:    1270740  MISS:      15102	AVERAGE STALL: 57.8096
L2BTB BRANCH_DIRECT_CALL	ACCESS:     838927  HIT:     838009  MISS:        918	AVERAGE STALL: 54.2288
L2BTB BRANCH_INDIRECT_CALL	ACCESS:     140288  HIT:     130449  MISS:       9839	AVERAGE STALL: 127.975
L2BTB BRANCH_RETURN	ACCESS:     823024  HIT:     776600  MISS:      46424	AVERAGE STALL: 48.7172
L2BTB BRANCH_OTHER ACCESS:          0  HIT:          0  MISS:          0	AVERAGE STALL: -nan
L2BTB TOTAL ROB OCCUPANCY AT BTB MISS: 159.024

L2C TOTAL     ACCESS:    5803087  HIT:    4972100  MISS:     830987  HIT %:    85.6803  MISS %:    14.3197   MPKI: 16.6197
L2C LOAD INSTRUCTION	ACCESS:    1879589  HIT:    1655282  MISS:     224307  HIT %:    88.0662  MISS %:    11.9338  MPKI: 4.48614
L2C PREFETCH INSTRUCTION	ACCESS:    1430267  HIT:    1257268  MISS:     172999  HIT %:    87.9044  MISS %:    12.0956  MPKI: 3.45998
L2C LOAD TRANSLATION INSTRUCTION	ACCESS:        345  HIT:         95  MISS:        250  HIT %:    27.5362  MISS %:    72.4638  MPKI: 0.005
L2C TRANSLATION FROM L1D PREFETCHER INSTRUCTION	ACCESS:      53777  HIT:      36095  MISS:      17682  HIT %:    67.1198  MISS %:    32.8802  MPKI: 0.35364
L2C LOAD DATA	ACCESS:     772667  HIT:     644031  MISS:     128636  HIT %:    83.3517  MISS %:    16.6483  MPKI: 2.57272
L2C RFO DATA	ACCESS:     295654  HIT:     218773  MISS:      76881  HIT %:    73.9963  MISS %:    26.0037  MPKI: 1.53762
L2C PREFETCH DATA	ACCESS:     829264  HIT:     642505  MISS:     186759  HIT %:    77.4789  MISS %:    22.5211  MPKI: 3.73518
L2C WRITEBACK DATA	ACCESS:     539344  HIT:     517547  MISS:      21797  HIT %:    95.9586  MISS %:    4.04139  MPKI: 0.43594
L2C LOAD TRANSLATION DATA	ACCESS:       2127  HIT:        463  MISS:       1664  HIT %:    21.7677  MISS %:    78.2323  MPKI: 0.03328
L2C TRANSLATION FROM L1D PREFETCHER DATA	ACCESS:         53  HIT:         41  MISS:         12  HIT %:    77.3585  MISS %:    22.6415  MPKI: 0.00024

L2C PREFETCH  REQUESTED:    1502846  ISSUED:    1502846  USEFUL:      29171  USELESS:     351222
L2C USEFUL LOAD PREFETCHES:      29171 PREFETCH ISSUED TO LOWER LEVEL:     361878  ACCURACY: 8.061
 TIMELY PREFETCHES:      29171 LATE PREFETCHES: 2120 DROPPED PREFETCHES: 0
L2C AVERAGE MISS LATENCY: 36.7459 cycles
L2C RQ	ACCESS:    3004262	FORWARD:          0	MERGED:          0	TO_CACHE:    3004212
L2C WQ	ACCESS:     539344	FORWARD:         52	MERGED:          0	TO_CACHE:     539344
L2C PQ	ACCESS:    3061533	FORWARD:          0	MERGED:     784415	TO_CACHE:    2277116

L2C Dense regions hint from L2: 0
PSCL5 TOTAL     ACCESS:      76860  HIT:      38430  MISS:      38430  HIT %:         50  MISS %:         50   MPKI: 0.7686
PSCL5 LOAD TRANSLATION INSTRUCTION	ACCESS:       4554  HIT:       2277  MISS:       2277  HIT %:         50  MISS %:         50  MPKI: 0.04554
PSCL5 TRANSLATION FROM L1D PREFETCHER INSTRUCTION	ACCESS:      72306  HIT:      36153  MISS:      36153  HIT %:         50  MISS %:         50  MPKI: 0.72306


PSCL4 TOTAL     ACCESS:      48522  HIT:      24257  MISS:      24265  HIT %:    49.9918  MISS %:    50.0082   MPKI: 0.4853
PSCL4 LOAD TRANSLATION INSTRUCTION	ACCESS:       1774  HIT:       1277  MISS:        497  HIT %:    71.9842  MISS %:    28.0158  MPKI: 0.00994
PSCL4 TRANSLATION FROM L1D PREFETCHER INSTRUCTION	ACCESS:      31794  HIT:      22980  MISS:       8814  HIT %:    72.2778  MISS %:    27.7222  MPKI: 0.17628
PSCL4 LOAD TRANSLATION DATA	ACCESS:        788  HIT:          0  MISS:        788  HIT %:          0  MISS %:        100  MPKI: 0.01576
PSCL4 TRANSLATION FROM L1D PREFETCHER DATA	ACCESS:      14166  HIT:          0  MISS:      14166  HIT %:          0  MISS %:        100  MPKI: 0.28332


PSCL3 TOTAL     ACCESS:      74243  HIT:      37113  MISS:      37130  HIT %:    49.9886  MISS %:    50.0114   MPKI: 0.7426
PSCL3 LOAD TRANSLATION INSTRUCTION	ACCESS:       2503  HIT:       2160  MISS:        343  HIT %:    86.2964  MISS %:    13.7036  MPKI: 0.00686
PSCL3 TRANSLATION FROM L1D PREFETCHER INSTRUCTION	ACCESS:      43295  HIT:      34953  MISS:       8342  HIT %:    80.7322  MISS %:    19.2678  MPKI: 0.16684
PSCL3 LOAD TRANSLATION DATA	ACCESS:       1834  HIT:          0  MISS:       1834  HIT %:          0  MISS %:        100  MPKI: 0.03668
PSCL3 TRANSLATION FROM L1D PREFETCHER DATA	ACCESS:      26611  HIT:          0  MISS:      26611  HIT %:          0  MISS %:        100  MPKI: 0.53222


PSCL2 TOTAL     ACCESS:      43702  HIT:      21758  MISS:      21944  HIT %:    49.7872  MISS %:    50.2128   MPKI: 0.43888
PSCL2 LOAD TRANSLATION INSTRUCTION	ACCESS:       2419  HIT:       2105  MISS:        314  HIT %:    87.0194  MISS %:    12.9806  MPKI: 0.00628
PSCL2 TRANSLATION FROM L1D PREFETCHER INSTRUCTION	ACCESS:      37910  HIT:      19653  MISS:      18257  HIT %:    51.8412  MISS %:    48.1588  MPKI: 0.36514
PSCL2 LOAD TRANSLATION DATA	ACCESS:       1977  HIT:          0  MISS:       1977  HIT %:          0  MISS %:        100  MPKI: 0.03954
PSCL2 TRANSLATION FROM L1D PREFETCHER DATA	ACCESS:       1396  HIT:          0  MISS:       1396  HIT %:          0  MISS %:        100  MPKI: 0.02792


LLC TOTAL     ACCESS:     921602  HIT:     889694  MISS:      31908  HIT %:    96.5378  MISS %:    3.46223   MPKI: 0.63816
LLC LOAD INSTRUCTION	ACCESS:     222841  HIT:     222200  MISS:        641  HIT %:    99.7124  MISS %:   0.287649  MPKI: 0.01282
LLC PREFETCH INSTRUCTION	ACCESS:     171558  HIT:     170174  MISS:       1384  HIT %:    99.1933  MISS %:   0.806724  MPKI: 0.02768
LLC LOAD TRANSLATION INSTRUCTION	ACCESS:        250  HIT:        245  MISS:          5  HIT %:         98  MISS %:          2  MPKI: 0.0001
LLC TRANSLATION FROM L1D PREFETCHER INSTRUCTION	ACCESS:      17682  HIT:      17556  MISS:        126  HIT %:    99.2874  MISS %:   0.712589  MPKI: 0.00252
LLC LOAD DATA	ACCESS:     127989  HIT:     124344  MISS:       3645  HIT %:    97.1521  MISS %:     2.8479  MPKI: 0.0729
LLC RFO DATA	ACCESS:      76870  HIT:      62609  MISS:      14261  HIT %:    81.4479  MISS %:    18.5521  MPKI: 0.28522
LLC PREFETCH DATA	ACCESS:     190320  HIT:     178781  MISS:      11539  HIT %:    93.9371  MISS %:    6.06295  MPKI: 0.23078
LLC WRITEBACK DATA	ACCESS:     112416  HIT:     112210  MISS:        206  HIT %:    99.8168  MISS %:   0.183248  MPKI: 0.00412
LLC LOAD TRANSLATION DATA	ACCESS:       1664  HIT:       1563  MISS:        101  HIT %:    93.9303  MISS %:    6.06971  MPKI: 0.00202
LLC TRANSLATION FROM L1D PREFETCHER DATA	ACCESS:         12  HIT:         12  MISS:          0  HIT %:        100  MISS %:          0  MPKI: 0

LLC AVERAGE MISS LATENCY: 196.463 cycles
LLC RQ	ACCESS:     447312	FORWARD:          0	MERGED:          0	TO_CACHE:     447308
LLC WQ	ACCESS:     112416	FORWARD:          4	MERGED:          0	TO_CACHE:     112416
LLC PQ	ACCESS:     361878	FORWARD:          0	MERGED:          0	TO_CACHE:     361878

LLC Dense regions hint to LLC: 0

RAW hits: 1934374
Loads Generated: 12587770
Loads sent to L1D: 10653394
Stores Generated: 6899276
Stores sent to L1D: 6899288
Major fault: 0 Minor fault: 2244
Allocated PAGES: 2244
I-Shadow cache 408 bytes
Touched + WorthPF tables 12288 bytes 
MMA filter 42 bytes 
FNL filter 272 bytes 
TOTAL PREFETCHER STORAGE SIZE: 19922 bytes
CPU 0 L1I next line prefetcher final stats

stream: 
stream:times selected: 1255496
stream:pref_filled: 128959
stream:pref_useful: 29850
stream:pref_late: 12454
stream:misses: 10893
stream:misses_by_poll: 0

CS: 
CS:times selected: 198638
CS:pref_filled: 76121
CS:pref_useful: 52124
CS:pref_late: 14235
CS:misses: 30962
CS:misses_by_poll: 2

CPLX: 
CPLX:times selected: 1055722
CPLX:pref_filled: 28333
CPLX:pref_useful: 8891
CPLX:pref_late: 6027
CPLX:misses: 149937
CPLX:misses_by_poll: 2

NL_L1: 
NL:times selected: 21407
NL:pref_filled: 930
NL:pref_useful: 535
NL:pref_late: 806
NL:misses: 2961
NL:misses_by_poll: 0

total selections: 2531263
total_filled: 111472
total_useful: 55463
total_late: 36248
total_polluted: 4
total_misses_after_warmup: 829284
conflicts: 5493214

test: 123314

DRAM Statistics
 CHANNEL 0
 RQ ROW_BUFFER_HIT:      10885  ROW_BUFFER_MISS:      20808
 DBUS_CONGESTED:         10
 WQ ROW_BUFFER_HIT:       2015  ROW_BUFFER_MISS:      13723  FULL:          0

 AVG_CONGESTED_CYCLE: 5

CPU 0 Branch Prediction Accuracy: 99.8274% MPKI: 0.31662 Average ROB Occupancy at Mispredict: 204.321
Branch types
NOT_BRANCH: 40827532 81.6551%
BRANCH_DIRECT_JUMP: 541789 1.08358%
BRANCH_INDIRECT: 180368 0.360736%
BRANCH_CONDITIONAL: 6223451 12.4469%
BRANCH_DIRECT_CALL: 942516 1.88503%
BRANCH_INDIRECT_CALL: 170854 0.341708%
BRANCH_RETURN: 1113364 2.22673%
BRANCH_OTHER: 0 0%

DRAM PAGES: 1048576
Allocated PAGES: 2244
Average_ROB_Occupancy: 238.027
Average_Decode_Occupancy: 32.7236
Average_FTQ_Occupancy: 12.3174
Indirect max targets: 14 Average targets: 1.14865
Branch_type:  BRANCH_DIRECT_JUMP:  Count Percentage: 2.86204 6.18563 4.88073 8.11617 1.86457 2.74081 0.815904 72.5342 
Branch_type:  BRANCH_INDIRECT:  Count Percentage: 11.7684 3.32375 2.44112 9.68703 3.36066 4.02403 2.03227 63.3627 
Branch_type:  BRANCH_CONDITIONAL:  Count Percentage: 22.401 5.52967 2.24576 4.83256 5.88061 2.72985 0.636041 55.7445 
Branch_type:  BRANCH_DIRECT_CALL:  Count Percentage: 0.778294 1.30272 1.38008 4.2185 2.57512 2.05472 0.684129 87.0064 
Branch_type:  BRANCH_INDIRECT_CALL:  Count Percentage: 9.55813 0.541959 2.99701 4.82498 1.25531 2.97536 0.99208 76.8552 
Branch_type:  BRANCH_RETURN:  Count Percentage: 4.26032 3.76632 1.81321 5.58007 7.86494 4.2566 1.02367 71.4349 
Branch_type:  BRANCH_DIRECT_JUMP:  Total Count: 30974 66943 52821 87836 20179 29662 8830 784990 
Branch_type:  BRANCH_INDIRECT:  Total Count: 42400 11975 8795 34901 12108 14498 7322 228287 
Branch_type:  BRANCH_CONDITIONAL:  Total Count: 2786241 687782 279328 601076 731433 339540 79111 6933525 
Branch_type:  BRANCH_DIRECT_CALL:  Total Count: 14679 24570 26029 79563 48568 38753 12903 1640983 
Branch_type:  BRANCH_INDIRECT_CALL:  Total Count: 32680 1853 10247 16497 4292 10173 3392 262774 
Branch_type:  BRANCH_RETURN:  Total Count: 94952 83942 40412 124366 175290 94869 22815 1592106 
Number of unique branch instructions: 10250
Upper 32 bits: 
aaaa
ffff
ffff0000
Unique upper 32 bits: 3
Unique upper 36 bits: 3
Unique upper 40 bits: 5
Unique upper 44 bits: 32
Unique upper 48 bits: 156
Variant_0 : 1448 0.176758
Variant_1 : 1548 0.188965
Variant_2 : 1782 0.217529
Variant_3 : 0 0
Offset_3 4224
Offset_4 255
Offset_5 460
Offset_6 526
Offset_7 610
Offset_8 533
Offset_9 487
Offset_10 402
Offset_11 332
Offset_12 273
Offset_13 211
Offset_14 227
Offset_15 199
Offset_16 231
Offset_17 156
Offset_18 135
Offset_19 242
Offset_20 142
Offset_21 241
Offset_22 401
Offset_23 243
Offset_24 334
Offset_25 88
Offset_47 82
decode_dispatch_called: 25341907 69.0735
Dispatch_width: 0 13702075 54.0688 37.3472
Dispatch_width: 1 891481 3.51781 2.42988
Dispatch_width: 2 825517 3.25752 2.25008
Dispatch_width: 3 488152 1.92626 1.33054
Dispatch_width: 4 5221493 20.6042 14.232
Dispatch_width: 5 172077 0.679022 0.469024
Dispatch_width: 6 4041112 15.9464 11.0147
Empty_decode_cycles: 11346436 30.9265
ROB_full_cycles: 8696123 23.7027
Starvation_cycles_per_kilo_instr: 239.511
Starvation_cycles_per_kilo_instr_3: 185.575
Starvation_cycles_per_kilo_instr_0: 163.524
Branch_type_1  (3,1)  (4,9)  (5,36)  (6,76)  (7,123)  (8,129)  (9,127)  (10,103)  (11,78)  (12,44)  (13,4)  (14,2)  (15,3)  (16,4)  (18,1)  (19,4)  (20,2)  (21,1)  (22,3)  (23,2)  (24,10)  (25,12) 
Branch_type_2  (3,1)  (5,1)  (8,3)  (9,3)  (12,1)  (13,1)  (14,1)  (16,3)  (17,2)  (20,2)  (21,2)  (23,5)  (24,1)  (47,38) 
Branch_type_3  (3,4222)  (4,246)  (5,419)  (6,434)  (7,455)  (8,341)  (9,271)  (10,167)  (11,136)  (12,51)  (13,4) 
Branch_type_4  (6,4)  (7,8)  (8,27)  (9,52)  (10,63)  (11,58)  (12,98)  (13,93)  (14,100)  (15,95)  (16,105)  (17,71)  (18,62)  (19,117)  (20,74)  (21,127)  (22,215)  (23,137)  (24,196)  (25,72) 
Branch_type_5  (8,2)  (9,1)  (10,3)  (11,5)  (12,3)  (13,14)  (14,16)  (15,11)  (16,20)  (17,12)  (18,16)  (19,12)  (20,10)  (21,13)  (22,42)  (23,26)  (24,36) 
Branch_type_6  (5,4)  (6,12)  (7,24)  (8,31)  (9,33)  (10,66)  (11,55)  (12,76)  (13,95)  (14,108)  (15,90)  (16,99)  (17,71)  (18,56)  (19,109)  (20,54)  (21,98)  (22,141)  (23,73)  (24,91)  (25,4)  (47,44) 
Unique trigger count: 
Variant_0_evicts_0 : 0
Variant_0_evicts_1 : 0
Variant_0_evicts_2 : 0
Variant_0_evicts_3 : 0
Variant_1_evicts_0 : 0
Variant_1_evicts_1 : 0
Variant_1_evicts_2 : 0
Variant_1_evicts_3 : 0
Variant_2_evicts_0 : 0
Variant_2_evicts_1 : 0
Variant_2_evicts_2 : 0
Variant_2_evicts_3 : 0
Variant_3_evicts_0 : 0
Variant_3_evicts_1 : 0
Variant_3_evicts_2 : 0
Variant_3_evicts_3 : 0
BTB PER SET UNIQUE ADDR: 1 4 2 6 3 3 4 3 3 5 3 3 2 6 2 5 1 3 3 1 2 4 4 3 2 4 3 2 3 4 3 3 2 3 4 4 3 2 2 3 3 4 3 3 2 2 3 3 3 2 3 3 4 3 3 3 3 2 2 2 3 3 2 3 5 2 5 3 4 3 2 3 5 4 2 6 4 3 6 4 9 5 2 7 3 3 2 4 4 2 3 5 3 4 3 2 5 2 2 4 3 4 3 4 2 6 2 2 3 6 6 2 1 4 0 2 3 5 4 5 3 3 4 3 7 3 2 2 3 1 5 2 3 1 4 3 3 1 3 3 2 3 2 3 7 6 5 3 3 5 3 2 3 7 4 5 3 2 3 3 1 4 4 1 5 1 0 6 5 6 4 3 4 2 3 5 3 5 2 3 3 2 3 5 2 4 2 4 6 3 3 2 3 5 1 2 4 5 4 3 4 2 3 3 0 3 3 2 4 3 3 4 4 2 3 3 3 3 2 6 3 4 3 2 5 2 4 5 3 5 1 3 5 4 3 3 3 6 3 3 4 6 3 4 3 1 2 2 6 4 2 2 1 2 3 4 2 2 3 2 6 1 6 3 4 2 5 3 4 4 1 4 3 3 3 4 4 3 0 4 5 2 3 5 2 1 3 3 3 2 5 2 3 3 4 4 2 2 2 2 5 1 3 4 3 2 3 6 6 2 2 2 4 1 3 4 2 3 3 2 6 4 3 2 6 3 2 4 1 6 3 6 2 3 4 3 2 4 2 3 4 4 3 2 2 3 5 1 1 4 2 5 3 4 4 5 4 3 2 4 4 4 3 4 3 3 2 4 2 2 5 4 1 3 2 4 1 3 2 1 2 4 3 2 4 5 1 4 3 5 3 2 1 4 2 3 4 3 3 3 5 5 3 1 2 4 2 2 7 2 3 4 1 4 6 4 2 4 3 3 2 2 2 6 3 2 3 3 1 4 4 2 7 3 3 0 3 2 1 2 3 2 1 3 3 0 3 4 4 2 2 2 2 2 5 2 4 2 7 1 2 6 4 4 2 3 3 4 4 3 5 4 5 4 6 6 1 2 4 3 3 2 5 3 3 2 3 3 5 4 2 3 4 3 5 5 3 2 2 5 3 3 4 1 5 3 4 3 2 2 2 3 4 3 2 5 6 2 3 3 3 3 5 4 4 3 1 4 2 2 5 3 5 2 2 4 1 2 3 3 5 3 5 6 3 4 3 3 3 3 3 4 1 5 5 5 3 1 3 4 1 3 3 5 3 3 3 4 3 2 1 1 0 1 2 4 4 3 3 2 1 4 2 3 2 1 3 2 4 2 3 3 2 3 2 3 5 5 4 3 3 4 2 2 3 4 4 0 3 4 2 3 3 3 1 4 4 4 4 2 4 1 3 2 3 4 3 5 3 3 3 2 5 4 2 4 5 4 6 3 6 5 2 1 5 3 4 3 2 2 2 2 4 2 3 4 3 2 3 3 1 3 3 4 2 1 5 2 3 3 4 2 3 4 3 3 3 5 3 4 3 6 1 3 5 5 3 4 5 3 4 1 4 2 4 3 3 2 3 6 4 2 2 2 4 4 2 4 3 5 4 1 1 3 6 3 4 3 2 3 4 3 4 3 3 2 4 3 2 7 3 3 4 3 3 2 5 5 4 2 3 9 3 4 5 2 6 2 2 3 6 4 2 3 3 5 2 1 3 2 5 2 4 4 4 3 4 5 2 7 4 2 1 2 2 4 4 3 2 2 3 4 3 2 4 6 2 3 6 2 4 4 2 4 3 3 7 1 2 2 3 4 3 2 6 3 3 3 5 3 5 1 0 2 3 3 3 2 3 4 3 1 4 1 4 2 4 2 3 4 2 6 2 4 5 2 5 4 3 2 0 4 3 3 2 3 5 3 1 3 5 5 2 2 2 3 4 5 3 4 2 3 3 6 4 3 5 2 2 2 6 1 4 3 2 3 3 4 2 2 5 4 3 3 2 3 2 2 3 1 7 1 1 3 3 4 2 4 4 2 3 1 3 3 3 1 3 4 7 5 4 3 2 4 3 4 3 3 5 2 3 3 4 4 1 4 6 5 2 2 4 7 4 2 3 2 3 2 3 2 4 4 4 3 3 1 2 1 4 4 4 5 4 4 7 3 2 4 2 1 3 2 4 5 3 1 6 2 1 2 5 1 3 7 2 5 2 2 5 2 3 1 4 4 4 3 3 2 3 2 4 2 3 5 3 2 2 4 2 3 4 1 3 1 3 3 4 4 2 5 2 5 6 4 3 2 3 3 3 4 2 3 4 5 5 2 4 4 4 3 2 4 5 2 3 2 5 4 4 3 4 5 3 5 3 2 5 6 3 3 2 3 4 3 1 6 6 4 2 3 3 5 3 4 1 4 6 4 5 4 4 4 2 6 3 5 2 3 3 3 5 4 4 4 5 3 2 2 2 6 2 6 3 5 4 4 4 2 3 3 5 4 4 10 3 4 1 4 2 2 2 5 3 2 4 3 2 5 4 5 4 4 3 3 3 4 2 5 2 2 6 3 4 2 2 3 3 2 4 4 6 5 2 2 3 3 3 4 3 1 3 5 2 4 3 1 3 4 2 2 4 2 6 4 3 3 3 4 5 4 6 5 3 3 3 5 2 3 4 5 1 1 6 3 1 3 5 2 2 5 3 3 2 0 3 3 3 5 3 1 3 2 1 3 7 3 3 2 5 2 3 3 2 4 0 6 4 2 4 3 5 1 3 5 4 3 2 2 3 3 4 2 5 2 3 3 4 1 3 2 3 3 7 2 3 2 4 3 1 4 4 4 3 2 2 4 2 3 3 5 3 2 4 3 2 2 3 3 2 6 3 2 5 2 3 2 2 4 3 3 5 4 6 3 3 3 4 4 4 4 5 3 1 5 3 4 4 6 3 3 2 4 3 6 3 2 3 3 3 4 6 6 5 3 3 2 5 2 3 3 2 5 3 1 4 2 2 4 7 3 2 5 4 2 6 1 3 3 3 4 3 3 2 3 3 6 3 2 6 3 3 2 3 6 4 1 2 3 2 3 4 5 2 4 4 4 3 4 3 3 3 3 1 6 3 4 2 3 3 5 2 2 2 2 4 3 5 6 2 1 2 3 1 4 2 7 2 3 3 5 2 3 5 3 2 3 3 4 4 5 3 2 3 5 6 2 1 1 1 2 5 3 6 5 7 2 4 5 3 5 3 2 4 3 2 3 4 5 6 3 4 3 3 2 3 6 4 3 4 4 2 2 2 2 2 2 1 6 4 4 3 2 3 3 4 3 2 2 2 4 2 3 4 4 4 1 5 3 7 5 3 4 2 4 5 3 5 2 6 2 2 2 2 6 4 5 3 3 2 3 4 3 4 6 4 3 4 3 6 3 2 5 3 3 3 2 5 5 5 8 6 3 2 5 3 3 5 2 4 3 2 5 3 2 4 4 4 3 1 4 7 2 5 1 5 3 3 3 4 2 2 5 1 2 4 3 4 4 6 1 3 4 2 5 1 3 5 5 4 5 4 2 5 1 2 4 5 2 4 3 3 3 3 2 4 3 2 2 3 4 4 3 2 3 4 1 3 2 2 4 4 3 2 2 3 3 5 4 2 2 3 4 4 3 4 4 3 4 1 2 2 2 1 5 4 4 2 2 2 2 2 5 4 3 2 3 5 3 4 6 3 5 4 1 3 8 3 2 5 3 5 2 3 1 5 2 3 3 5 3 2 4 2 3 5 5 3 3 4 1 4 4 2 2 3 2 3 2 5 3 2 4 6 2 1 1 4 4 6 3 2 3 1 3 2 3 2 2 5 3 3 4 3 1 3 3 4 1 4 2 2 1 4 6 1 2 4 2 2 1 2 3 2 4 3 4 3 1 3 2 3 3 2 3 4 2 3 6 4 2 6 4 2 5 3 2 1 5 3 3 4 4 4 4 3 2 1 1 3 3 2 4 3 5 2 2 2 3 3 1 2 4 2 6 2 5 3 6 4 2 1 7 2 5 6 3 3 3 2 2 4 2 3 3 2 4 2 3 5 4 2 3 1 5 3 2 3 1 5 1 4 2 6 3 5 1 3 2 2 3 4 3 5 2 2 4 2 2 2 1 4 4 1 1 3 5 3 1 3 2 3 2 3 2 4 2 2 4 3 2 2 4 3 4 7 3 3 3 5 4 2 4 5 4 3 2 2 4 3 1 1 2 3 3 3 4 3 3 4 2 2 4 3 2 4 3 4 3 2 1 2 3 2 4 3 5 1 3 2 5 4 1 0 2 1 2 3 0 3 7 3 3 4 3 2 3 5 3 5 3 5 4 5 2 3 3 2 2 5 3 1 3 3 8 3 4 3 3 3 6 3 2 2 2 3 3 3 0 3 1 3 6 6 6 4 5 2 4 1 4 3 9 3 4 4 3 4 3 4 3 4 3 6 2 5 3 5 3 2 7 3 5 2 4 3 3 3 5 1 3 4 3 2 2 4 5 4 2 1 4 2 3 5 4 4 3 2 1 2 4 3 2 3 6 2 2 4 3 4 2 6 3 5 4 3 3 3 3 5 5 2 4 4 2 4 2 6 3 6 5 4 3 2 2 2 1 3 5 
BTB PER SET COUNT: 1 3384 2936 3099 29 622 579 4623 497 8 38 160 2 735 2 1901 1 3 1618 1 2 4 85 44 491 3375 3 15 5 1940 4 6 7 6 1967 4 3 2 165 3 1897 3483 3622 3 2183 2394 699 1008 1021 2 3 3 471 3 3 35 3 928 4 2 2983 2009 2 7 5050 2 3894 338 2456 4 2 3 5 1432 342 4031 2009 2062 4328 7 4823 1279 2 2984 417 3 4 542 518 927 3 476 3 437 1698 2 15 3 52 5 5 662 3 1449 2 13 2 1002 3 996 1605 330 1 1334 0 2 3 5 530 2107 23 30 3261 1867 3284 80 2471 2 3 1 1162 2 1666 463 4519 3 1654 234 3 928 21 928 2 2010 2856 14 567 701 194 19 3 7 1931 415 495 7 3 927 3 3 1 206 972 1 2312 1 0 1704 3710 2345 1603 401 4 7 575 504 484 2975 465 4 3 2 9 1528 2 2027 479 4 1174 269 3 11 3 956 924 2 422 1099 4 446 4 2 7 3 0 7 3 324 3557 1930 59 1419 1061 268 3 3 4 971 2 2216 800 4995 31 2088 5 2 3874 501 5 214 1657 2939 500 1912 2452 2245 465 2345 3 2191 749 4262 1412 619 1464 1 7642 2 1905 4 2 93 1 472 1460 13 1925 2 7 542 610 1 2643 3 370 20 1265 1464 4 1370 1 5 9 3 3 4 1906 957 0 2943 920 2 3 202 2 1 3 270 592 710 144 2 3 375 4172 4385 1461 465 2 1465 4905 1 2400 4860 16 230 466 2719 6428 995 927 2 6 1 6874 4 3 3 465 2 5238 5 8 2 4532 44 29 13 1 2575 617 1376 463 3 2264 3 2 1833 1465 3 4 8 546 57 2905 12 2939 1 502 4 2 1545 2761 18 239 564 1005 466 2 4 175 483 3 1710 3 3 379 551 21 516 6638 1670 1 4 1467 468 1 4 2 1 1656 1841 5 2 1024 1006 1 6910 1929 289 3 1497 1 5 2 3 5628 6 1019 4 580 395 3 1 2 20 2012 2 1745 1455 3 92 1 1488 699 4 997 5 3 2558 2 2 5 3913 363 412 3 357 2916 7 4 2 1713 3 3 0 440 3 3159 2 3 3 1 4404 829 0 17 108 238 1461 2 353 1458 569 1031 2 5 2 3078 1 2155 623 744 466 4 3 3 2806 4 465 5603 2076 1456 1428 4134 1549 1 2 8 1817 11 1466 4380 1466 1959 2 1528 1161 4863 365 1003 1472 2828 6 1535 11 3 2443 276 502 1461 3 1460 1465 1118 3 1071 3 4 246 2 3 2438 1856 1697 5 1746 1926 49 1433 3 1550 1510 1635 4 3 1 807 16 2 4006 3 541 467 2 518 1 1462 1580 489 3111 1161 8 496 293 6384 464 1274 3 3912 3 4 926 1559 625 4886 78 1 504 3106 926 44 3 7 1512 40 2456 1678 3 3 1 810 0 1 1056 2468 2926 3 3 4 4 4 401 7 2 1 7 1460 508 1466 4007 6 2 3 3 3815 6015 6 658 1031 3 682 4 2 1423 1896 5 0 741 6 2 3 3 1466 1 853 886 4351 4 48 477 1 472 2 1230 444 3 1468 3 2002 3 2 34 1549 2 2923 27 4 2185 4 59 1494 1071 1 2078 463 17 3800 463 3370 2 24 4 1922 3 417 2454 451 3 1624 1 2432 461 978 232 1 5872 2483 14 663 78 2 3 4 16 148 16 1461 3 4 983 910 1 4 395 2269 3 5 11 403 4020 1 1334 2 1467 555 3 2 3 6 4 2 2 2447 45 4 2 38 3 495 1360 5 1 4 1469 721 3385 284 464 15 550 2894 1188 1487 1714 2 4 2468 2993 3012 3 238 1486 3 1432 6 6694 8 8 1486 1004 6363 1198 1002 1568 5 2627 2 2 3 1308 565 2 4 1929 15 2 1 202 2 1827 2 232 5910 516 27 22 3824 2 5086 12 3 2 2 1400 491 4 3 2 233 148 115 971 2 2515 1061 1344 53 304 6 6 23 2790 394 4 3 582 1434 2 3 1626 2926 1945 1288 4212 4 4846 3 3987 5 4120 1901 0 1063 4 306 9 1250 30 762 8 1 26 2 16 570 4 1921 3 1470 5670 1914 2 1187 529 4 2316 3824 370 2 0 2863 8 7 2 3 2304 13 1 3 4091 7 2 4 5 3 4 7597 1467 524 964 26 3 3115 1501 3 4311 2 2 900 479 10 2627 4 1457 6 3 1917 517 3 1243 4 70 830 518 3 118 2 273 51 5336 1226 1446 274 3 6 172 25 2846 162 3 1 3597 3 7 1932 3337 811 4034 4273 944 3253 2 5 2705 4 1470 3 3313 2 2651 2996 4 1604 1 383 6524 49 2 623 4376 2716 5 3 3 2 3 2 3 32 11 677 1955 23 3 1 86 931 11 135 13 3711 1479 4 4334 4 2 4 1855 1 12 2 246 7 1121 1 3692 2 1 2 4493 1 3 2249 4 1457 4 2 4159 264 1970 1 1174 2939 315 2513 532 2015 2177 2 13 4 721 1682 33 2 2 3402 61 466 4 1 212 1 348 1744 5 4 3 2401 2 7 3987 506 3 959 711 3 346 4 2 3 2518 54 5 2 467 624 4 3 2 1483 464 2 3 2 1013 5 7 1969 4 5 2387 5 1782 1861 1470 1576 1007 294 234 3 243 685 26 2635 3319 4 2 23 23 2905 25 4 1 12 1012 78 1468 1700 7 2246 2 2903 1006 1466 1683 5 3 8 1224 968 6 2019 202 2410 966 2 2 6162 2 886 1963 1481 4 4 569 575 1029 1953 1017 8 4 6000 813 138 5 1913 12 2 2 9 17 5 1049 12 1386 33 2756 48 1321 5 791 3 1122 1973 387 19 2 4 2009 3 2418 553 2 3 1957 3 8 193 811 7 2 2 3 1349 1950 2447 4 724 3 2790 1281 240 432 1 4 15 640 2 3911 431 1937 150 11 432 1186 36 740 4 4269 1051 4 635 693 4590 472 65 761 31 1 1 1696 1893 870 3 3789 52 2 415 2825 3 136 0 658 3 1462 5 1064 1 3 2 1461 91 339 3 3 946 5966 1008 1712 1072 2 4 0 1017 4 464 133 285 616 1 763 1436 1735 3 2 2 3 3 1833 199 4012 2 4 3 1444 19 45 1812 1476 3 1364 4 476 2 223 3 5 486 432 5 3 2 1428 4 9 504 930 276 21 1980 1465 4 2 1191 7 3 733 2265 3 2 1906 2 78 531 46 641 3 4 2313 157 1058 73 19 3 419 2503 2925 4 2408 3 1 1211 232 4 12 5750 3 3 3 530 3 1178 1466 8 71 3 3 1463 2273 89 5 3 3 7 1932 1571 4 3 2 131 3 1 4 1465 463 2204 2973 3 3 168 1633 2 1127 3 3 3 3 3726 1466 3 2 205 3 3493 1498 2 2766 465 3 276 1926 4258 1143 1 2193 4 4 4 2259 1287 2 330 1458 4 5 9 12 1466 137 3 1 2036 5 3422 2 4 4 1949 147 2 228 1002 4 24 4453 3505 4 1 2 1790 1 4 230 934 2 683 2656 2567 2 3 1012 49 2 4 3 2255 10 1902 3 10 3 6 4638 2 1 1 1 3 6 1458 2047 1671 2166 2 1207 5 3 2469 3 2 74 3005 2 1205 4 2153 812 4 471 3 467 2250 3 3420 9 3 4 7 2 2 2 2 1454 2 1 2341 4 4 94 226 11 3 1036 3 463 2 2 8 2 3 1132 4 5 1 112 2017 580 1488 3 4 2 834 812 7 2027 4 468 6 1050 3 2 839 4 1174 5 1658 2 4 2094 3 1952 3084 4 1382 1294 3 1049 3 827 2410 3 35 1064 2 1324 1957 4794 4489 18 5 1559 4011 3 25 1619 980 2555 4141 2 1435 54 2 4 4 231 161 1 4 2284 2333 803 1 6754 723 4 3 1186 994 2 205 1 2 1003 3181 1632 4 677 1 11 1393 2 2624 1 300 9908 5 74 1735 5 1447 1002 1 665 1233 3347 2 4 451 137 3 1228 2 4 9 3 2 2094 1998 3552 1039 1315 3 748 2 1466 3 1000 954 4 3 2 2 10 20 1142 4 2 2 465 2991 452 3293 41 1471 137 5 1 2 2 2 1 2963 481 1487 2 264 2645 261 2 5 721 1613 2 3 37 8 4 4457 3249 194 4 1 3 6203 284 2 2346 3 4618 2339 950 2 727 2 950 3 4114 7 2 2189 7 2462 2940 18 3 3 6 1 58 1378 167 2 52 626 3 74 2640 3 2 1478 54 1437 198 1 5 4 6065 3 2 17 1 5 2 1121 988 2 4084 389 5 3039 3 1015 1810 3 220 1 2462 999 2 1 6 1537 1 1464 237 450 2 1 2003 232 5 4121 252 4 1551 971 713 3 2632 3 3223 328 973 2 743 3382 52 1006 10 2396 3 1465 3 2 552 2734 47 17 7 466 4 1030 1497 495 1 1462 554 688 2 2635 759 5 468 2 1443 287 632 1 6 2120 531 1972 2 1662 3 3497 18 2 1 4879 3 936 4299 8 3 1009 2427 2 874 1639 1852 6 1403 919 3 16 4673 4 1851 3 1 2332 2232 3 1249 1917 520 463 1017 583 7853 5 3254 1 252 2 2 6 8 918 5 2 446 73 464 2 2 67 1272 2745 5 1 1202 990 17 1 3 2 929 2 22 2 1018 463 15 4693 8 2 2 4 266 15 6401 8 61 4 156 12 1919 4 1414 6 4 2 2 692 20505 1 1 2 1190 316 3 4 3 1921 209 2 464 780 658 2 555 7 7 320 2 1 2 3 2 1995 11 110 2 3 2 1897 15162 1 0 464 370 2442 161 0 1950 3462 5 1454 464 28 3 3 3037 1002 4098 3 5 2662 408 2 3 3 2 434 234 231 3 3 3 5665 203 1468 3 1240 3 64 3 2 1464 2 3 3162 1475 0 1142 462 1923 2329 9320 414 4 6213 679 650 1 4 15 3914 2077 428 442 463 3013 928 1439 6824 10 774 277 2 2649 21 3033 137 963 1400 6816 712 6 7 484 18 3032 233 1 3 2594 3 2 2 485 2501 2635 2482 1 3334 2 3 1378 5 733 3 1267 1 2 32 936 491 463 5890 2 5 2136 3 1928 1470 43 654 1167 2948 3 3493 3196 63 2835 5 2 438 930 790 4 2 1435 3 936 2248 34 1499 2 38 467 1 3 2562 
To predecode: 1200910
Predecoding something: 752795
Predecode request dropped: 0
sizeofblock_0 0
sizeofblock_1 564592
sizeofblock_2 517997
sizeofblock_3 541390
sizeofblock_4 108736
sizeofblock_5 0
sizeofblock_6 0
sizeofblock_7 0
sizeofblock_8 0
