
*** ChampSim Multicore Out-of-Order Simulator ***

Warmup Instructions: 50000000
Simulation Instructions: 50000000
Number of CPUs: 1
LLC sets: 2048
LLC ways: 16
Off-chip DRAM Size: 4096 MB Channels: 1 Width: 64-bit Data Rate: 6400 MT/s
CPU 0 runs ./micro_traces/srv193.trace.gz
.gz
ITLB has LRU replacement policy
DTLB has LRU replacement policy
STLB has LRU replacement policy
FDIP Prefetcher at L1I
L1I has LRU replacement policy
L1D has LRU replacement policy
Initialize SRRIP state for L2C
Initialize DRRIP state for LLC
Heartbeat_Variant_0 : 1119 0.273193 per_variant_size: 0 1119 0 0 0 0 0 0 0 
Heartbeat_Variant_1 : 2654 0.647949 per_variant_size: 0 1022 1632 0 0 0 0 0 0 
Heartbeat_Variant_2 : 0 0 per_variant_size: 0 0 0 0 0 0 0 0 0 
Heartbeat_Variant_3 : 0 0 per_variant_size: 0 0 0 0 0 0 0 0 0 
Heartbeat_Variant_0_evicts 0 : 12355 1 : 15783 2 : 0 3 : 0 
Heartbeat_Variant_1_evicts 0 : 15698 1 : 0 2 : 0 3 : 0 
Heartbeat_Variant_2_evicts 0 : 0 1 : 0 2 : 0 3 : 0 
Heartbeat_Variant_3_evicts 0 : 0 1 : 0 2 : 0 3 : 0 
Heartbeat CPU 0 instructions: 10000002 cycles: 2795052 heartbeat IPC: 3.57775 cumulative IPC: 3.57775 (Simulation time: 0 hr 1 min 41 sec) 
Heartbeat_Variant_0 : 1111 0.27124 per_variant_size: 0 1111 0 0 0 0 0 0 0 
Heartbeat_Variant_1 : 2671 0.6521 per_variant_size: 0 1055 1616 0 0 0 0 0 0 
Heartbeat_Variant_2 : 0 0 per_variant_size: 0 0 0 0 0 0 0 0 0 
Heartbeat_Variant_3 : 0 0 per_variant_size: 0 0 0 0 0 0 0 0 0 
Heartbeat_Variant_0_evicts 0 : 11945 1 : 14852 2 : 0 3 : 0 
Heartbeat_Variant_1_evicts 0 : 14860 1 : 0 2 : 0 3 : 0 
Heartbeat_Variant_2_evicts 0 : 0 1 : 0 2 : 0 3 : 0 
Heartbeat_Variant_3_evicts 0 : 0 1 : 0 2 : 0 3 : 0 
Heartbeat CPU 0 instructions: 20000001 cycles: 5590071 heartbeat IPC: 3.57779 cumulative IPC: 3.57777 (Simulation time: 0 hr 3 min 21 sec) 
Heartbeat_Variant_0 : 1120 0.273438 per_variant_size: 0 1120 0 0 0 0 0 0 0 
Heartbeat_Variant_1 : 2707 0.660889 per_variant_size: 0 995 1712 0 0 0 0 0 0 
Heartbeat_Variant_2 : 0 0 per_variant_size: 0 0 0 0 0 0 0 0 0 
Heartbeat_Variant_3 : 0 0 per_variant_size: 0 0 0 0 0 0 0 0 0 
Heartbeat_Variant_0_evicts 0 : 11904 1 : 15053 2 : 0 3 : 0 
Heartbeat_Variant_1_evicts 0 : 15048 1 : 0 2 : 0 3 : 0 
Heartbeat_Variant_2_evicts 0 : 0 1 : 0 2 : 0 3 : 0 
Heartbeat_Variant_3_evicts 0 : 0 1 : 0 2 : 0 3 : 0 
Heartbeat CPU 0 instructions: 30000001 cycles: 8384750 heartbeat IPC: 3.57823 cumulative IPC: 3.57792 (Simulation time: 0 hr 5 min 1 sec) 
Heartbeat_Variant_0 : 1142 0.278809 per_variant_size: 0 1142 0 0 0 0 0 0 0 
Heartbeat_Variant_1 : 2712 0.662109 per_variant_size: 0 976 1736 0 0 0 0 0 0 
Heartbeat_Variant_2 : 0 0 per_variant_size: 0 0 0 0 0 0 0 0 0 
Heartbeat_Variant_3 : 0 0 per_variant_size: 0 0 0 0 0 0 0 0 0 
Heartbeat_Variant_0_evicts 0 : 12244 1 : 15219 2 : 0 3 : 0 
Heartbeat_Variant_1_evicts 0 : 15204 1 : 0 2 : 0 3 : 0 
Heartbeat_Variant_2_evicts 0 : 0 1 : 0 2 : 0 3 : 0 
Heartbeat_Variant_3_evicts 0 : 0 1 : 0 2 : 0 3 : 0 
Heartbeat CPU 0 instructions: 40000001 cycles: 11179001 heartbeat IPC: 3.57878 cumulative IPC: 3.57814 (Simulation time: 0 hr 6 min 42 sec) 
Heartbeat_Variant_0 : 1137 0.277588 per_variant_size: 0 1137 0 0 0 0 0 0 0 
Heartbeat_Variant_1 : 2718 0.663574 per_variant_size: 0 984 1734 0 0 0 0 0 0 
Heartbeat_Variant_2 : 0 0 per_variant_size: 0 0 0 0 0 0 0 0 0 
Heartbeat_Variant_3 : 0 0 per_variant_size: 0 0 0 0 0 0 0 0 0 
Heartbeat_Variant_0_evicts 0 : 12275 1 : 14677 2 : 0 3 : 0 
Heartbeat_Variant_1_evicts 0 : 14682 1 : 0 2 : 0 3 : 0 
Heartbeat_Variant_2_evicts 0 : 0 1 : 0 2 : 0 3 : 0 
Heartbeat_Variant_3_evicts 0 : 0 1 : 0 2 : 0 3 : 0 
Heartbeat CPU 0 instructions: 50000002 cycles: 13974899 heartbeat IPC: 3.57667 cumulative IPC: 3.57784 (Simulation time: 0 hr 8 min 21 sec) 

Warmup complete CPU 0 instructions: 50000002 cycles: 13974899 (Simulation time: 0 hr 8 min 21 sec) 

Cycle: 20000000 FTQ IN: 57431919 FTQ occupancy: 18.6539 DECODE IN: 57431890 DECODE occupancy: 47.9298 ROB IN: 57431846 ROB occupancy: 291.415 ROB OUT: 57431494
*** Reached end of trace for Core: 0 Repeating trace: ./micro_traces/srv193.trace.gz
Heartbeat_Variant_0 : 1134 0.276855 per_variant_size: 0 1134 0 0 0 0 0 0 0 
Heartbeat_Variant_1 : 2739 0.668701 per_variant_size: 0 973 1766 0 0 0 0 0 0 
Heartbeat_Variant_2 : 0 0 per_variant_size: 0 0 0 0 0 0 0 0 0 
Heartbeat_Variant_3 : 0 0 per_variant_size: 0 0 0 0 0 0 0 0 0 
Heartbeat_Variant_0_evicts 0 : 11898 1 : 15340 2 : 0 3 : 0 
Heartbeat_Variant_1_evicts 0 : 15348 1 : 0 2 : 0 3 : 0 
Heartbeat_Variant_2_evicts 0 : 0 1 : 0 2 : 0 3 : 0 
Heartbeat_Variant_3_evicts 0 : 0 1 : 0 2 : 0 3 : 0 
Heartbeat CPU 0 instructions: 60000001 cycles: 22216756 heartbeat IPC: 1.21332 cumulative IPC: 1.21332 (Simulation time: 0 hr 9 min 55 sec) 
Cycle: 30000000 FTQ IN: 12201409 FTQ occupancy: 8.73959 DECODE IN: 12201306 DECODE occupancy: 20.0114 ROB IN: 12201290 ROB occupancy: 157.801 ROB OUT: 12201396
Heartbeat_Variant_0 : 1155 0.281982 per_variant_size: 0 1155 0 0 0 0 0 0 0 
Heartbeat_Variant_1 : 2718 0.663574 per_variant_size: 0 959 1759 0 0 0 0 0 0 
Heartbeat_Variant_2 : 0 0 per_variant_size: 0 0 0 0 0 0 0 0 0 
Heartbeat_Variant_3 : 0 0 per_variant_size: 0 0 0 0 0 0 0 0 0 
Heartbeat_Variant_0_evicts 0 : 12451 1 : 15296 2 : 0 3 : 0 
Heartbeat_Variant_1_evicts 0 : 15275 1 : 0 2 : 0 3 : 0 
Heartbeat_Variant_2_evicts 0 : 0 1 : 0 2 : 0 3 : 0 
Heartbeat_Variant_3_evicts 0 : 0 1 : 0 2 : 0 3 : 0 
Heartbeat CPU 0 instructions: 70000001 cycles: 30298504 heartbeat IPC: 1.23736 cumulative IPC: 1.22522 (Simulation time: 0 hr 11 min 25 sec) 
Heartbeat_Variant_0 : 1133 0.276611 per_variant_size: 0 1133 0 0 0 0 0 0 0 
Heartbeat_Variant_1 : 2740 0.668945 per_variant_size: 0 972 1768 0 0 0 0 0 0 
Heartbeat_Variant_2 : 0 0 per_variant_size: 0 0 0 0 0 0 0 0 0 
Heartbeat_Variant_3 : 0 0 per_variant_size: 0 0 0 0 0 0 0 0 0 
Heartbeat_Variant_0_evicts 0 : 12090 1 : 14690 2 : 0 3 : 0 
Heartbeat_Variant_1_evicts 0 : 14712 1 : 0 2 : 0 3 : 0 
Heartbeat_Variant_2_evicts 0 : 0 1 : 0 2 : 0 3 : 0 
Heartbeat_Variant_3_evicts 0 : 0 1 : 0 2 : 0 3 : 0 
Heartbeat CPU 0 instructions: 80000001 cycles: 38312540 heartbeat IPC: 1.24781 cumulative IPC: 1.23266 (Simulation time: 0 hr 13 min 1 sec) 
Cycle: 40000000 FTQ IN: 12333813 FTQ occupancy: 8.72476 DECODE IN: 12333945 DECODE occupancy: 20.0527 ROB IN: 12333989 ROB occupancy: 159.242 ROB OUT: 12333883
Heartbeat_Variant_0 : 1147 0.280029 per_variant_size: 0 1147 0 0 0 0 0 0 0 
Heartbeat_Variant_1 : 2730 0.666504 per_variant_size: 0 963 1767 0 0 0 0 0 0 
Heartbeat_Variant_2 : 0 0 per_variant_size: 0 0 0 0 0 0 0 0 0 
Heartbeat_Variant_3 : 0 0 per_variant_size: 0 0 0 0 0 0 0 0 0 
Heartbeat_Variant_0_evicts 0 : 11906 1 : 15567 2 : 0 3 : 0 
Heartbeat_Variant_1_evicts 0 : 15553 1 : 0 2 : 0 3 : 0 
Heartbeat_Variant_2_evicts 0 : 0 1 : 0 2 : 0 3 : 0 
Heartbeat_Variant_3_evicts 0 : 0 1 : 0 2 : 0 3 : 0 
Heartbeat CPU 0 instructions: 90000002 cycles: 46512921 heartbeat IPC: 1.21946 cumulative IPC: 1.22933 (Simulation time: 0 hr 14 min 38 sec) 
Cycle: 50000000 FTQ IN: 12342219 FTQ occupancy: 8.51143 DECODE IN: 12342130 DECODE occupancy: 19.5481 ROB IN: 12342086 ROB occupancy: 155.961 ROB OUT: 12342090
Heartbeat_Variant_0 : 1144 0.279297 per_variant_size: 0 1144 0 0 0 0 0 0 0 
Heartbeat_Variant_1 : 2736 0.667969 per_variant_size: 0 974 1762 0 0 0 0 0 0 
Heartbeat_Variant_2 : 0 0 per_variant_size: 0 0 0 0 0 0 0 0 0 
Heartbeat_Variant_3 : 0 0 per_variant_size: 0 0 0 0 0 0 0 0 0 
Heartbeat_Variant_0_evicts 0 : 12412 1 : 15560 2 : 0 3 : 0 
Heartbeat_Variant_1_evicts 0 : 15563 1 : 0 2 : 0 3 : 0 
Heartbeat_Variant_2_evicts 0 : 0 1 : 0 2 : 0 3 : 0 
Heartbeat_Variant_3_evicts 0 : 0 1 : 0 2 : 0 3 : 0 
Heartbeat CPU 0 instructions: 100000001 cycles: 54596612 heartbeat IPC: 1.23706 cumulative IPC: 1.23087 (Simulation time: 0 hr 16 min 8 sec) 
Finished CPU 0 instructions: 50000003 cycles: 40621714 cumulative IPC: 1.23087 (Simulation time: 0 hr 16 min 8 sec) 

ChampSim completed all CPUs

Region of Interest Statistics

CPU 0 cumulative IPC: 1.23087 instructions: 50000003 cycles: 40621714
 Fetch stage stalled: 65.211  Sim cycles: 40621714 fetch stall cycle: 26489823
 Empty decode stage: 52.2272  Sim cycles: 40621714 fetch stall cycle: 21215585
ITLB TOTAL     ACCESS:    5665729  HIT:    5174497  MISS:     491232  HIT %:    91.3298  MISS %:    8.67023   MPKI: 9.82464
ITLB LOAD TRANSLATION INSTRUCTION	ACCESS:    5549374  HIT:    5058142  MISS:     491232  HIT %:     91.148  MISS %:    8.85203  MPKI: 9.82464
ITLB TRANSLATION FROM L1D PREFETCHER INSTRUCTION	ACCESS:     116355  HIT:     116355  MISS:          0  HIT %:        100  MISS %:          0  MPKI: 0

ITLB AVERAGE MISS LATENCY: 9.06159 cycles
ITLB RQ	ACCESS:    7590657	FORWARD:          0	MERGED:    1430426	TO_CACHE:    6160231

DTLB TOTAL     ACCESS:    9126683  HIT:    8650225  MISS:     476458  HIT %:    94.7795  MISS %:    5.22049   MPKI: 9.52916
DTLB LOAD TRANSLATION DATA	ACCESS:    9126683  HIT:    8650225  MISS:     476458  HIT %:    94.7795  MISS %:    5.22049  MPKI: 9.52916

DTLB AVERAGE MISS LATENCY: 9.31063 cycles
DTLB RQ	ACCESS:   13441483	FORWARD:          0	MERGED:    4278705	TO_CACHE:    9162778

STLB TOTAL     ACCESS:    1224266  HIT:    1222016  MISS:       2250  HIT %:    99.8162  MISS %:   0.183784   MPKI: 0.045
STLB LOAD TRANSLATION INSTRUCTION	ACCESS:     491232  HIT:     490919  MISS:        313  HIT %:    99.9363  MISS %:  0.0637173  MPKI: 0.00626
STLB LOAD TRANSLATION DATA	ACCESS:     476290  HIT:     474391  MISS:       1899  HIT %:    99.6013  MISS %:   0.398707  MPKI: 0.03798
STLB TRANSLATION FROM L1D PREFETCHER DATA	ACCESS:     256744  HIT:     256706  MISS:         38  HIT %:    99.9852  MISS %:  0.0148007  MPKI: 0.00076

STLB AVERAGE MISS LATENCY: 68.5129 cycles
STLB RQ	ACCESS:    1370122	FORWARD:          0	MERGED:     145825	TO_CACHE:    1224297

STLB Hit, L1D data hit: 0
STLB Hit, L2C data hit: 0
STLB Hit, LLC data hit: 0
STLB Hit, LLC data miss: 0
STLB STLB hints to L2: 0
L1D TOTAL     ACCESS:   13205846  HIT:   12037174  MISS:    1168672  HIT %:    91.1503  MISS %:    8.84966   MPKI: 23.3734
L1D LOAD DATA	ACCESS:    6686433  HIT:    5916910  MISS:     769523  HIT %:    88.4913  MISS %:    11.5087  MPKI: 15.3905
L1D RFO DATA	ACCESS:    6182741  HIT:    5889670  MISS:     293071  HIT %:    95.2599  MISS %:    4.74015  MPKI: 5.86142
L1D PREFETCH DATA	ACCESS:     336672  HIT:     230594  MISS:     106078  HIT %:    68.4922  MISS %:    31.5078  MPKI: 2.12156

L1D PREFETCH  REQUESTED:     805162  ISSUED:     805162  USEFUL:      48831  USELESS:      70975
L1D USEFUL LOAD PREFETCHES:      48831 PREFETCH ISSUED TO LOWER LEVEL:     119854  ACCURACY: 40.7421
 TIMELY PREFETCHES:      48831 LATE PREFETCHES: 13721 DROPPED PREFETCHES: 4
L1D AVERAGE MISS LATENCY: 392648 cycles
L1D RQ	ACCESS:   10767439	FORWARD:          0	MERGED:    3884007	TO_CACHE:    6718762
L1D WQ	ACCESS:    6906510	FORWARD:     164968	MERGED:     183789	TO_CACHE:    6722721
L1D PQ	ACCESS:     402730	FORWARD:          0	MERGED:          0	TO_CACHE:     402432

L1D UNIQUE REGIONS ACCESSED: 0
L1D REGIONS CONFLICTS: 0
L1D Cross Page Prefetch Requests: 8053
L1D Same Page Prefetch Requests: 811558
L1D ROI Sum of L1D PQ occupancy: 5142190
L1D PREFETCHES PUSHED FROM L2C: 0
L1I TOTAL     ACCESS:    6983076  HIT:    4230579  MISS:    2752497  HIT %:    60.5833  MISS %:    39.4167   MPKI: 55.0499
L1I LOAD INSTRUCTION	ACCESS:    6437809  HIT:    3685312  MISS:    2752497  HIT %:    57.2448  MISS %:    42.7552  MPKI: 55.0499
L1I PREFETCH INSTRUCTION	ACCESS:     545267  HIT:     545267  MISS:          0  HIT %:        100  MISS %:          0  MPKI: 0

L1I PREFETCH  REQUESTED:    1263421  ISSUED:    1263421  USEFUL:          0  USELESS:          0
L1I USEFUL LOAD PREFETCHES:          0 PREFETCH ISSUED TO LOWER LEVEL:          0  ACCURACY: -nan
 TIMELY PREFETCHES:          0 LATE PREFETCHES: 0 DROPPED PREFETCHES: 0
L1I AVERAGE MISS LATENCY: 17.1443 cycles
L1I RQ	ACCESS:    9479038	FORWARD:          0	MERGED:    2793949	TO_CACHE:    6685089
L1I PQ	ACCESS:    1263421	FORWARD:          0	MERGED:     357853	TO_CACHE:     905568

L1BTB TOTAL     ACCESS:    5683254  HIT:    2072649  MISS:    3610605  HIT %:    36.4694  MISS %:    63.5306   MPKI: 72.2121
L1BTB BRANCH_DIRECT_JUMP	ACCESS:     543933 HIT:     143529 MISS:     400404 AVERAGE STALL: 41.6865 AVERAGE FETCH STALL: 18.9789 AVERAGE FETCH QUEUE STALL: 12.0374 AVERAGE DECODE STALL: 9.84623 AVERAGE EXECUTE STALL: 6.11204e+14
L1BTB BRANCH_INDIRECT	ACCESS:     181518 HIT:      65562 MISS:     115956 AVERAGE STALL: 95.2883 AVERAGE FETCH STALL: 13.0019 AVERAGE FETCH QUEUE STALL: 10.4844 AVERAGE DECODE STALL: 8.43808 AVERAGE EXECUTE STALL: 62.4146
L1BTB BRANCH_CONDITIONAL	ACCESS:    2736709 HIT:    1450189 MISS:    1286520 AVERAGE STALL: 41.0593 AVERAGE FETCH STALL: 22.2999 AVERAGE FETCH QUEUE STALL: 9.70789 AVERAGE DECODE STALL: 8.3089 AVERAGE EXECUTE STALL: 2.27322e+14
L1BTB BRANCH_DIRECT_CALL	ACCESS:     940042 HIT:     103441 MISS:     836601 AVERAGE STALL: 42.5457 AVERAGE FETCH STALL: 22.0309 AVERAGE FETCH QUEUE STALL: 10.5735 AVERAGE DECODE STALL: 9.18437 AVERAGE EXECUTE STALL: 1.73639e+14
L1BTB BRANCH_INDIRECT_CALL	ACCESS:     170501 HIT:      20996 MISS:     149505 AVERAGE STALL: 126.117 AVERAGE FETCH STALL: 16.6726 AVERAGE FETCH QUEUE STALL: 8.5897 AVERAGE DECODE STALL: 7.77867 AVERAGE EXECUTE STALL: 92.5436
L1BTB BRANCH_RETURN	ACCESS:    1110551 HIT:     288932 MISS:     821619 AVERAGE STALL: 41.2018 AVERAGE FETCH STALL: 18.6597 AVERAGE FETCH QUEUE STALL: 6.23746 AVERAGE DECODE STALL: 6.90397 AVERAGE EXECUTE STALL: 2.45993e+14
L1BTB BRANCH_OTHER ACCESS:          0 HIT:          0 MISS:          0 AVERAGE STALL: -nan AVERAGE FETCH STALL: -nan AVERAGE FETCH QUEUE STALL: -nan AVERAGE DECODE STALL: -nan AVERAGE EXECUTE STALL: -nan
L1BTB TOTAL ROB OCCUPANCY AT BTB MISS: 11.6882

L2BTB TOTAL     ACCESS:    3585643  HIT:    3265858  MISS:     319785  HIT %:    91.0815  MISS %:    8.91848   MPKI: 6.3957
L2BTB BRANCH_DIRECT_JUMP	ACCESS:     396309 HIT:     370211 MISS:      26098 AVERAGE STALL: 41.6865 AVERAGE FETCH STALL: 18.9789 AVERAGE FETCH QUEUE STALL: 12.0374 AVERAGE DECODE STALL: 9.84623 AVERAGE EXECUTE STALL: 6.11204e+14
L2BTB BRANCH_INDIRECT	ACCESS:     105743 HIT:      99612 MISS:       6131 AVERAGE STALL: 95.2883 AVERAGE FETCH STALL: 13.0019 AVERAGE FETCH QUEUE STALL: 10.4844 AVERAGE DECODE STALL: 8.43808 AVERAGE EXECUTE STALL: 62.4146
L2BTB BRANCH_CONDITIONAL	ACCESS:    1286520 HIT:    1205018 MISS:      81502 AVERAGE STALL: 41.0593 AVERAGE FETCH STALL: 22.2999 AVERAGE FETCH QUEUE STALL: 9.70789 AVERAGE DECODE STALL: 8.3089 AVERAGE EXECUTE STALL: 2.27322e+14
L2BTB BRANCH_DIRECT_CALL	ACCESS:     836601 HIT:     730312 MISS:     106289 AVERAGE STALL: 42.5457 AVERAGE FETCH STALL: 22.0309 AVERAGE FETCH QUEUE STALL: 10.5735 AVERAGE DECODE STALL: 9.18437 AVERAGE EXECUTE STALL: 1.73639e+14
L2BTB BRANCH_INDIRECT_CALL	ACCESS:     140073 HIT:     114117 MISS:      25956 AVERAGE STALL: 126.117 AVERAGE FETCH STALL: 16.6726 AVERAGE FETCH QUEUE STALL: 8.5897 AVERAGE DECODE STALL: 7.77867 AVERAGE EXECUTE STALL: 92.5436
L2BTB BRANCH_RETURN	ACCESS:     820397 HIT:     746588 MISS:      73809 AVERAGE STALL: 41.2018 AVERAGE FETCH STALL: 18.6597 AVERAGE FETCH QUEUE STALL: 6.23746 AVERAGE DECODE STALL: 6.90397 AVERAGE EXECUTE STALL: 2.45993e+14
L2BTB BRANCH_OTHER ACCESS:          0 HIT:          0 MISS:          0 AVERAGE STALL: -nan AVERAGE FETCH STALL: -nan AVERAGE FETCH QUEUE STALL: -nan AVERAGE DECODE STALL: -nan AVERAGE EXECUTE STALL: -nan
L2BTB TOTAL ROB OCCUPANCY AT BTB MISS: 131.968

L2C TOTAL     ACCESS:    4547422  HIT:    4051651  MISS:     495771  HIT %:    89.0978  MISS %:    10.9022   MPKI: 9.91542
L2C LOAD INSTRUCTION	ACCESS:    2752497  HIT:    2503850  MISS:     248647  HIT %:    90.9665  MISS %:    9.03351  MPKI: 4.97294
L2C LOAD TRANSLATION INSTRUCTION	ACCESS:        370  HIT:        103  MISS:        267  HIT %:    27.8378  MISS %:    72.1622  MPKI: 0.00534
L2C LOAD DATA	ACCESS:     755777  HIT:     673204  MISS:      82573  HIT %:    89.0744  MISS %:    10.9256  MPKI: 1.65146
L2C RFO DATA	ACCESS:     293001  HIT:     227169  MISS:      65832  HIT %:    77.5318  MISS %:    22.4682  MPKI: 1.31664
L2C PREFETCH DATA	ACCESS:     211165  HIT:     130642  MISS:      80523  HIT %:    61.8673  MISS %:    38.1327  MPKI: 1.61046
L2C WRITEBACK DATA	ACCESS:     532506  HIT:     516133  MISS:      16373  HIT %:    96.9253  MISS %:    3.07471  MPKI: 0.32746
L2C LOAD TRANSLATION DATA	ACCESS:       2053  HIT:        508  MISS:       1545  HIT %:    24.7443  MISS %:    75.2557  MPKI: 0.0309
L2C TRANSLATION FROM L1D PREFETCHER DATA	ACCESS:         53  HIT:         42  MISS:         11  HIT %:    79.2453  MISS %:    20.7547  MPKI: 0.00022

L2C PREFETCH  REQUESTED:      99305  ISSUED:      99305  USEFUL:       9039  USELESS:      72046
L2C USEFUL LOAD PREFETCHES:       9039 PREFETCH ISSUED TO LOWER LEVEL:      80944  ACCURACY: 11.167
 TIMELY PREFETCHES:       9039 LATE PREFETCHES: 421 DROPPED PREFETCHES: 0
L2C AVERAGE MISS LATENCY: 41.2545 cycles
L2C RQ	ACCESS:    3803791	FORWARD:          0	MERGED:          0	TO_CACHE:    3803752
L2C WQ	ACCESS:     532506	FORWARD:         39	MERGED:          0	TO_CACHE:     532506
L2C PQ	ACCESS:     219159	FORWARD:          0	MERGED:       3623	TO_CACHE:     215536

L2C Dense regions hint from L2: 0
PSCL5 TOTAL     ACCESS:       4510  HIT:       2255  MISS:       2255  HIT %:         50  MISS %:         50   MPKI: 0.0451
PSCL5 LOAD TRANSLATION INSTRUCTION	ACCESS:       4404  HIT:       2202  MISS:       2202  HIT %:         50  MISS %:         50  MPKI: 0.04404
PSCL5 TRANSLATION FROM L1D PREFETCHER INSTRUCTION	ACCESS:        106  HIT:         53  MISS:         53  HIT %:         50  MISS %:         50  MPKI: 0.00106


PSCL4 TOTAL     ACCESS:       4292  HIT:       2141  MISS:       2151  HIT %:    49.8835  MISS %:    50.1165   MPKI: 0.04302
PSCL4 LOAD TRANSLATION INSTRUCTION	ACCESS:       3650  HIT:       2088  MISS:       1562  HIT %:    57.2055  MISS %:    42.7945  MPKI: 0.03124
PSCL4 TRANSLATION FROM L1D PREFETCHER INSTRUCTION	ACCESS:        105  HIT:         53  MISS:         52  HIT %:    50.4762  MISS %:    49.5238  MPKI: 0.00104
PSCL4 LOAD TRANSLATION DATA	ACCESS:        536  HIT:          0  MISS:        536  HIT %:          0  MISS %:        100  MPKI: 0.01072
PSCL4 TRANSLATION FROM L1D PREFETCHER DATA	ACCESS:          1  HIT:          0  MISS:          1  HIT %:          0  MISS %:        100  MPKI: 2e-05


PSCL3 TOTAL     ACCESS:       4303  HIT:       2139  MISS:       2164  HIT %:    49.7095  MISS %:    50.2905   MPKI: 0.04328
PSCL3 LOAD TRANSLATION INSTRUCTION	ACCESS:       2769  HIT:       2101  MISS:        668  HIT %:    75.8758  MISS %:    24.1242  MPKI: 0.01336
PSCL3 TRANSLATION FROM L1D PREFETCHER INSTRUCTION	ACCESS:         55  HIT:         38  MISS:         17  HIT %:    69.0909  MISS %:    30.9091  MPKI: 0.00034
PSCL3 LOAD TRANSLATION DATA	ACCESS:       1458  HIT:          0  MISS:       1458  HIT %:          0  MISS %:        100  MPKI: 0.02916
PSCL3 TRANSLATION FROM L1D PREFETCHER DATA	ACCESS:         21  HIT:          0  MISS:         21  HIT %:          0  MISS %:        100  MPKI: 0.00042


PSCL2 TOTAL     ACCESS:       4324  HIT:       2069  MISS:       2255  HIT %:    47.8492  MISS %:    52.1508   MPKI: 0.0451
PSCL2 LOAD TRANSLATION INSTRUCTION	ACCESS:       2330  HIT:       2016  MISS:        314  HIT %:    86.5236  MISS %:    13.4764  MPKI: 0.00628
PSCL2 TRANSLATION FROM L1D PREFETCHER INSTRUCTION	ACCESS:         53  HIT:         53  MISS:          0  HIT %:        100  MISS %:          0  MPKI: 0
PSCL2 LOAD TRANSLATION DATA	ACCESS:       1888  HIT:          0  MISS:       1888  HIT %:          0  MISS %:        100  MPKI: 0.03776
PSCL2 TRANSLATION FROM L1D PREFETCHER DATA	ACCESS:         53  HIT:          0  MISS:         53  HIT %:          0  MISS %:        100  MPKI: 0.00106


LLC TOTAL     ACCESS:     567175  HIT:     537468  MISS:      29707  HIT %:    94.7623  MISS %:    5.23771   MPKI: 0.59414
LLC LOAD INSTRUCTION	ACCESS:     248647  HIT:     247777  MISS:        870  HIT %:    99.6501  MISS %:   0.349894  MPKI: 0.0174
LLC LOAD TRANSLATION INSTRUCTION	ACCESS:        267  HIT:        228  MISS:         39  HIT %:    85.3933  MISS %:    14.6067  MPKI: 0.00078
LLC LOAD DATA	ACCESS:      82176  HIT:      78653  MISS:       3523  HIT %:    95.7129  MISS %:    4.28714  MPKI: 0.07046
LLC RFO DATA	ACCESS:      65803  HIT:      51374  MISS:      14429  HIT %:    78.0724  MISS %:    21.9276  MPKI: 0.28858
LLC PREFETCH DATA	ACCESS:      80943  HIT:      70413  MISS:      10530  HIT %:    86.9908  MISS %:    13.0092  MPKI: 0.2106
LLC WRITEBACK DATA	ACCESS:      87783  HIT:      87569  MISS:        214  HIT %:    99.7562  MISS %:   0.243783  MPKI: 0.00428
LLC LOAD TRANSLATION DATA	ACCESS:       1545  HIT:       1444  MISS:        101  HIT %:    93.4628  MISS %:    6.53722  MPKI: 0.00202
LLC TRANSLATION FROM L1D PREFETCHER DATA	ACCESS:         11  HIT:         10  MISS:          1  HIT %:    90.9091  MISS %:    9.09091  MPKI: 2e-05

LLC AVERAGE MISS LATENCY: 204.108 cycles
LLC RQ	ACCESS:     398454	FORWARD:          0	MERGED:          0	TO_CACHE:     398449
LLC WQ	ACCESS:      87783	FORWARD:          6	MERGED:          0	TO_CACHE:      87783
LLC PQ	ACCESS:      80944	FORWARD:          0	MERGED:          0	TO_CACHE:      80943

LLC Dense regions hint to LLC: 0

RAW hits: 1833596
Loads Generated: 12601035
Loads sent to L1D: 10767439
Stores Generated: 6906488
Stores sent to L1D: 6906510
Major fault: 0 Minor fault: 2387
Allocated PAGES: 2387

stream: 
stream:times selected: 1246960
stream:pref_filled: 128290
stream:pref_useful: 28700
stream:pref_late: 9838
stream:misses: 10868
stream:misses_by_poll: 0

CS: 
CS:times selected: 196518
CS:pref_filled: 75157
CS:pref_useful: 51947
CS:pref_late: 9644
CS:misses: 23816
CS:misses_by_poll: 1

CPLX: 
CPLX:times selected: 1049291
CPLX:pref_filled: 25414
CPLX:pref_useful: 7942
CPLX:pref_late: 4148
CPLX:misses: 133158
CPLX:misses_by_poll: 0

NL_L1: 
NL:times selected: 21750
NL:pref_filled: 1113
NL:pref_useful: 471
NL:pref_late: 810
NL:misses: 3180
NL:misses_by_poll: 0

total selections: 2514519
total_filled: 106078
total_useful: 48831
total_late: 26798
total_polluted: 1
total_misses_after_warmup: 801851
conflicts: 5552330

test: 118259

DRAM Statistics
 CHANNEL 0
 RQ ROW_BUFFER_HIT:      11046  ROW_BUFFER_MISS:      18443
 DBUS_CONGESTED:         20
 WQ ROW_BUFFER_HIT:       2120  ROW_BUFFER_MISS:      13741  FULL:          0

 AVG_CONGESTED_CYCLE: 4

CPU 0 Branch Prediction Accuracy: 99.8222% MPKI: 0.32582 Average ROB Occupancy at Mispredict: 157.935
Branch types
NOT_BRANCH: 40836276 81.6725%
BRANCH_DIRECT_JUMP: 543933 1.08787%
BRANCH_INDIRECT: 181518 0.363036%
BRANCH_CONDITIONAL: 6216723 12.4334%
BRANCH_DIRECT_CALL: 940042 1.88008%
BRANCH_INDIRECT_CALL: 170501 0.341002%
BRANCH_RETURN: 1110551 2.2211%
BRANCH_OTHER: 0 0%

DRAM PAGES: 1048576
Allocated PAGES: 2387
Average_ROB_Occupancy: 159.13
Average_Decode_Occupancy: 19.8518
Average_FTQ_Occupancy: 8.63318
Indirect max targets: 14 Average targets: 1.15563
Branch_type:  BRANCH_DIRECT_JUMP:  Count Percentage: 4.13897 5.12003 3.97698 8.46497 2.40668 6.32723 1.55263 68.0125 
Branch_type:  BRANCH_INDIRECT:  Count Percentage: 6.11547 3.5335 8.13044 9.6837 3.33862 2.80497 3.87916 62.5142 
Branch_type:  BRANCH_CONDITIONAL:  Count Percentage: 22.8198 2.76049 1.65328 7.56648 2.91522 3.56899 2.10113 56.6146 
Branch_type:  BRANCH_DIRECT_CALL:  Count Percentage: 0.391088 1.25531 0.737936 4.49539 2.99524 2.60553 3.03655 84.483 
Branch_type:  BRANCH_INDIRECT_CALL:  Count Percentage: 9.54828 0 3.00304 0.00410893 0.999938 1.71137 4.98502 79.7482 
Branch_type:  BRANCH_RETURN:  Count Percentage: 4.2587 4.66016 1.24136 4.75129 5.54164 3.53597 2.69881 73.3121 
Branch_type:  BRANCH_DIRECT_JUMP:  Total Count: 44969 55628 43209 91970 26148 68744 16869 738941 
Branch_type:  BRANCH_INDIRECT:  Total Count: 22186 12819 29496 35131 12112 10176 14073 226792 
Branch_type:  BRANCH_CONDITIONAL:  Total Count: 2834992 342947 205394 940013 362169 443389 261031 7033453 
Branch_type:  BRANCH_DIRECT_CALL:  Total Count: 7346 23579 13861 84439 56261 48941 57037 1586884 
Branch_type:  BRANCH_INDIRECT_CALL:  Total Count: 32533 0 10232 14 3407 5831 16985 271719 
Branch_type:  BRANCH_RETURN:  Total Count: 94539 103451 27557 105474 123019 78495 59911 1627455 
Number of unique branch instructions: 10480
Upper 32 bits: 
aaaa
ffff
ffff0000
Unique upper 32 bits: 3
Unique upper 36 bits: 3
Unique upper 40 bits: 5
Unique upper 44 bits: 32
Unique upper 48 bits: 159
Variant_0 : 1144 0.279297
Variant_1 : 2736 0.667969
Variant_2 : 0 0
Variant_3 : 0 0
Offset_3 4329
Offset_4 269
Offset_5 477
Offset_6 537
Offset_7 614
Offset_8 534
Offset_9 506
Offset_10 415
Offset_11 342
Offset_12 277
Offset_13 218
Offset_14 228
Offset_15 203
Offset_16 234
Offset_17 165
Offset_18 135
Offset_19 254
Offset_20 145
Offset_21 267
Offset_22 403
Offset_23 241
Offset_24 348
Offset_25 88
Offset_47 84
decode_dispatch_called: 21116289 51.9828
Dispatch_width: 0 10887794 51.5611 26.8029
Dispatch_width: 1 591514 2.80122 1.45615
Dispatch_width: 2 616820 2.92106 1.51845
Dispatch_width: 3 417081 1.97516 1.02674
Dispatch_width: 4 2218718 10.5071 5.4619
Dispatch_width: 5 257739 1.22057 0.634486
Dispatch_width: 6 6126623 29.0137 15.0821
Empty_decode_cycles: 19505425 48.0172
ROB_full_cycles: 3587642 8.83183
Starvation_cycles_per_kilo_instr: 309.074
Starvation_cycles_per_kilo_instr_3: 284.31
Starvation_cycles_per_kilo_instr_0: 268.056
Branch_type_1  (3,1)  (4,8)  (5,39)  (6,77)  (7,121)  (8,130)  (9,134)  (10,108)  (11,79)  (12,43)  (13,7)  (14,2)  (15,3)  (16,4)  (18,1)  (19,4)  (20,2)  (21,1)  (22,3)  (23,2)  (24,10)  (25,12) 
Branch_type_2  (3,1)  (5,1)  (8,3)  (9,3)  (12,1)  (13,1)  (14,1)  (16,3)  (17,2)  (20,2)  (21,2)  (23,5)  (24,1)  (47,38) 
Branch_type_3  (3,4327)  (4,261)  (5,433)  (6,444)  (7,460)  (8,342)  (9,281)  (10,173)  (11,136)  (12,49)  (13,7) 
Branch_type_4  (6,4)  (7,8)  (8,26)  (9,53)  (10,62)  (11,64)  (12,100)  (13,94)  (14,101)  (15,98)  (16,106)  (17,76)  (18,62)  (19,122)  (20,74)  (21,144)  (22,217)  (23,136)  (24,199)  (25,72) 
Branch_type_5  (8,2)  (9,1)  (10,4)  (11,6)  (12,3)  (13,14)  (14,16)  (15,11)  (16,20)  (17,12)  (18,16)  (19,13)  (20,11)  (21,13)  (22,42)  (23,26)  (24,40) 
Branch_type_6  (5,4)  (6,12)  (7,25)  (8,31)  (9,34)  (10,68)  (11,57)  (12,81)  (13,95)  (14,108)  (15,91)  (16,101)  (17,75)  (18,56)  (19,115)  (20,56)  (21,107)  (22,141)  (23,72)  (24,98)  (25,4)  (47,46) 
Unique trigger count: 
Variant_0_evicts_0 : 0
Variant_0_evicts_1 : 0
Variant_0_evicts_2 : 0
Variant_0_evicts_3 : 0
Variant_1_evicts_0 : 0
Variant_1_evicts_1 : 0
Variant_1_evicts_2 : 0
Variant_1_evicts_3 : 0
Variant_2_evicts_0 : 0
Variant_2_evicts_1 : 0
Variant_2_evicts_2 : 0
Variant_2_evicts_3 : 0
Variant_3_evicts_0 : 0
Variant_3_evicts_1 : 0
Variant_3_evicts_2 : 0
Variant_3_evicts_3 : 0
BTB PER SET UNIQUE ADDR: 2 8 4 6 5 5 6 5 3 7 5 4 4 7 9 9 4 4 3 2 5 6 6 7 6 8 3 4 6 6 7 5 5 8 5 8 6 5 6 9 4 7 3 4 7 5 4 5 8 7 8 4 6 2 2 7 5 4 8 6 5 7 4 5 7 3 5 4 3 8 6 5 5 7 5 9 2 6 6 7 10 7 6 7 8 2 5 2 5 7 6 7 7 6 4 1 7 3 4 7 5 4 4 6 4 5 5 6 6 7 6 3 4 10 2 5 4 7 5 11 6 5 5 4 9 6 3 7 6 2 2 6 4 6 8 6 4 2 6 5 3 5 8 7 4 6 4 5 4 7 3 2 3 10 2 6 8 3 6 5 2 7 4 6 9 3 1 4 7 9 6 6 5 4 3 6 2 7 5 6 6 4 6 7 4 5 5 5 6 5 3 3 5 7 1 4 5 5 6 4 6 7 3 8 1 8 3 5 6 4 2 4 6 6 5 4 6 3 4 6 3 8 6 8 6 10 8 5 6 9 3 6 6 11 3 5 5 8 6 5 6 5 5 5 5 4 5 3 4 5 3 7 5 5 5 6 5 4 7 2 8 4 5 5 3 4 6 6 8 5 8 7 6 7 7 4 5 2 4 9 8 3 5 7 4 5 12 5 8 5 4 3 8 8 10 5 6 3 6 6 13 3 4 10 3 2 6 7 7 4 7 5 7 7 4 4 9 7 7 4 7 7 2 4 10 7 4 6 2 7 4 10 3 6 6 6 7 7 6 7 3 5 5 3 5 4 4 6 2 4 5 8 3 2 5 4 4 5 5 7 10 7 4 7 4 11 5 6 7 3 9 7 10 7 5 5 7 6 4 1 5 5 6 5 12 5 3 6 4 6 6 3 4 5 3 5 5 3 5 5 8 7 6 4 4 9 9 5 9 3 7 3 2 8 6 3 5 4 6 5 7 0 4 8 6 4 4 8 5 9 8 3 4 4 4 2 4 3 2 5 9 6 3 3 6 0 4 6 5 5 9 3 6 4 5 2 8 2 10 5 4 7 5 12 1 8 4 5 3 6 7 9 2 6 4 8 4 3 5 7 7 3 6 8 4 5 5 5 7 6 7 6 4 8 6 4 6 4 3 9 2 3 3 5 5 6 5 7 2 4 7 4 5 3 5 4 9 7 7 5 5 6 9 4 4 11 1 3 5 3 7 7 4 2 3 5 7 8 5 6 4 9 9 11 6 4 7 11 5 5 2 6 3 6 6 7 7 0 3 4 3 4 5 7 5 4 4 5 9 3 5 4 1 8 3 6 7 2 6 5 1 7 2 7 2 4 3 3 5 7 5 7 5 8 3 6 10 8 4 5 8 3 4 2 4 11 8 1 4 6 5 3 4 7 1 4 10 4 9 6 3 4 5 2 7 5 3 6 4 5 5 6 6 5 8 6 3 12 7 10 3 6 5 3 3 7 5 6 4 7 5 5 6 8 5 6 6 4 4 5 4 6 5 6 5 5 4 9 6 5 9 6 8 5 6 4 5 6 4 8 6 6 3 6 8 8 5 5 7 4 6 2 4 7 5 9 5 7 4 9 7 5 5 4 9 2 4 6 6 7 5 0 2 7 4 5 7 11 5 4 5 6 4 8 7 8 9 7 3 7 4 5 8 5 4 3 4 6 2 7 3 10 5 7 6 4 6 4 4 5 6 5 5 4 7 11 10 1 3 7 6 7 6 7 9 5 8 11 8 3 7 5 1 6 8 7 5 7 3 5 6 3 4 3 10 6 5 8 6 8 6 4 6 5 8 8 6 3 6 5 9 5 6 4 6 5 6 3 6 4 6 2 0 5 7 4 11 4 8 5 7 5 4 4 5 5 5 6 9 5 6 6 5 7 5 5 7 4 2 5 1 8 7 5 6 5 4 6 2 4 3 7 4 5 6 3 10 7 4 4 0 5 3 8 7 5 5 5 5 4 4 4 6 5 3 3 3 7 1 6 6 5 8 4 6 7 6 11 2 0 10 3 4 3 4 8 4 9 8 2 7 4 8 5 5 2 5 8 6 9 8 6 5 8 8 11 6 6 8 6 8 1 6 6 2 5 6 7 6 6 3 7 7 4 5 7 4 4 3 5 6 6 4 3 5 4 3 3 6 3 8 8 5 3 12 5 9 3 4 3 7 4 7 5 6 3 6 5 2 3 4 1 2 6 2 4 4 8 5 7 4 6 9 4 7 3 3 6 6 3 4 6 6 11 9 4 4 4 3 3 9 5 7 5 3 5 5 9 5 3 6 9 8 5 5 5 5 7 3 4 5 3 8 9 10 5 6 8 4 7 6 2 6 5 5 6 7 6 3 4 6 4 4 6 6 6 5 6 3 5 6 5 6 4 2 6 8 8 4 4 4 7 5 5 3 7 9 6 7 8 2 5 2 8 9 4 5 4 6 3 9 2 3 6 5 5 4 3 2 9 9 9 7 5 6 3 3 4 4 3 6 10 6 8 4 7 4 4 3 1 5 5 4 3 7 4 5 6 4 5 5 4 3 8 1 7 6 7 5 2 5 6 7 3 5 3 5 6 3 7 8 7 8 4 5 6 2 6 6 5 6 6 1 4 4 6 7 8 7 5 4 2 6 5 3 3 6 5 4 6 8 4 5 4 5 9 4 6 7 7 7 1 11 3 3 2 6 3 8 7 9 5 5 2 6 4 7 6 4 3 6 4 3 3 6 6 5 2 7 4 8 4 7 7 1 6 7 4 7 6 8 2 6 5 6 5 8 5 6 4 6 3 5 4 7 6 5 6 4 5 6 5 4 4 5 7 8 4 3 5 5 10 3 3 3 3 3 4 2 6 2 5 5 5 5 3 8 7 5 9 6 4 9 3 5 6 6 9 7 4 9 5 5 7 4 6 6 5 10 9 6 7 6 11 6 6 8 5 6 7 2 7 5 6 7 6 8 8 8 8 11 9 3 5 10 2 3 4 3 3 3 6 4 5 5 2 5 3 10 9 5 6 4 5 9 3 4 6 5 4 7 5 6 4 9 13 4 6 9 9 5 3 5 7 4 3 7 1 4 5 4 10 7 10 5 3 6 5 4 8 3 6 3 13 6 7 5 5 3 7 2 5 3 4 4 3 7 6 3 2 2 5 9 6 1 6 8 6 5 4 11 5 7 2 5 6 7 7 4 5 6 6 10 5 10 7 5 2 2 6 7 6 6 7 9 8 6 4 4 8 6 2 6 3 7 6 6 9 7 2 6 7 8 3 4 6 8 7 9 4 5 4 1 6 6 5 5 6 11 6 6 4 6 7 7 7 4 5 5 8 5 5 7 1 4 2 8 4 6 10 6 7 4 6 8 5 4 4 7 5 4 6 4 9 5 9 8 5 6 2 7 2 9 8 6 6 9 5 6 3 7 6 10 3 4 7 5 10 8 11 9 2 3 6 9 4 12 7 7 1 3 6 5 2 5 6 4 4 4 5 7 4 6 4 4 6 5 8 7 2 5 5 4 3 3 6 5 7 5 4 4 8 6 5 4 4 4 8 8 6 6 3 7 6 1 6 5 9 7 3 6 4 4 4 3 8 8 6 4 9 7 6 3 5 6 5 3 7 4 5 6 6 8 7 4 6 11 4 9 7 4 4 9 4 5 6 4 5 6 4 4 7 8 7 5 5 5 3 3 4 4 7 6 4 7 5 9 4 7 5 4 6 11 3 6 6 7 4 5 8 7 4 5 5 5 4 5 5 7 4 4 7 4 6 6 4 4 5 3 2 7 4 3 3 5 4 1 5 5 3 6 6 6 1 1 4 4 5 13 3 2 8 2 3 4 3 1 5 4 5 4 5 3 2 4 7 6 4 4 2 3 1 6 5 4 4 4 5 5 8 1 3 3 8 9 6 5 5 4 3 3 3 5 6 3 6 4 5 7 7 3 4 8 4 1 6 4 9 7 6 7 3 3 3 4 6 1 2 4 4 6 9 2 7 5 5 7 6 7 4 4 4 7 10 0 7 5 7 5 8 5 8 1 5 10 6 6 6 2 6 4 8 3 6 5 4 7 6 5 4 5 4 3 3 2 1 3 2 7 2 4 5 7 2 7 4 3 9 3 4 3 4 8 9 6 7 4 4 6 4 4 7 5 1 3 5 6 5 4 8 5 4 3 3 7 5 5 4 4 6 3 4 5 4 5 2 5 5 4 6 2 5 6 3 7 5 2 5 5 3 3 8 4 8 4 4 4 8 4 10 3 6 3 4 4 8 5 6 3 2 4 3 3 5 3 8 1 5 2 8 4 3 3 6 5 5 2 2 3 6 2 4 4 4 3 6 5 2 4 6 5 5 8 2 6 8 2 6 9 4 1 3 7 9 4 5 8 6 7 4 7 5 8 5 8 7 4 0 5 4 5 7 5 6 8 8 5 6 2 8 4 7 5 6 9 7 6 7 7 9 6 5 4 6 5 5 5 6 3 10 3 6 6 12 8 3 6 7 4 5 5 5 2 2 8 9 4 8 2 5 2 4 9 8 4 4 3 2 7 5 2 5 5 8 3 4 5 9 6 7 5 11 8 4 2 9 6 5 6 3 3 11 5 4 4 4 5 15 4 6 6 7 3 5 2 3 8 4 
BTB PER SET COUNT: 2 1789 140 736 160 111 359 258 4 1452 806 337 15 1447 1113 158 551 164 3 2 277 727 651 158 522 751 163 209 388 433 507 164 433 1256 522 268 681 261 145 1171 9 1688 4 9 2336 604 4 135 279 679 737 4 716 2 2 500 504 1091 638 99 1165 691 4 6 101 9 242 304 4 650 1148 127 185 1134 5 910 2 278 879 285 876 378 124 488 448 2 494 2 490 1650 405 517 321 416 4 1 144 3 125 459 194 208 108 7 176 10 98 170 648 710 64 3 4 1134 2 10 305 15 299 1757 397 228 1565 4 403 949 5 234 1042 3 2 161 4 178 211 381 187 2 449 821 8 880 1055 465 4 323 4 18 49 460 164 496 6 804 2 1439 281 890 295 205 2 15 5 455 645 118 1 5 228 334 247 417 364 97 287 59 2 374 9 434 104 161 177 284 181 134 61 9 15 49 55 3 204 357 1 462 27 594 1096 5 224 126 92 184 1 369 3 530 235 4 8 9 425 400 249 205 787 312 4 306 3 437 278 709 361 1160 240 46 163 1063 119 174 8 5450 3 165 8 163 297 537 367 178 331 132 325 173 6683 4 14 238 135 834 10 162 385 19 1755 230 429 2 412 119 283 358 24 441 503 457 458 47 270 440 11 283 469 263 145 239 10 694 611 4 345 471 5 184 1202 316 366 131 5 3 1055 524 523 147 19 3 374 9 975 236 1464 192 3 2 283 91 37 14 142 13 171 243 4 215 59 436 281 6 483 279 199 180 1156 170 323 256 2 432 6 836 191 603 202 170 925 206 102 433 3 309 249 4 682 202 295 542 2 186 288 73 49 2 424 5 348 422 488 139 1344 660 7 530 128 2507 532 1009 19 252 897 460 1099 15 227 168 1065 195 188 1 52 934 65 772 901 21 3 299 4 55 287 3 5 91 178 6 1709 3 271 153 1000 432 304 4 350 563 2188 326 174 3 14 50 11 261 658 97 314 347 403 127 280 0 4 225 16 432 232 449 844 151 650 53 13 237 57 2 5 5 2 8 1147 328 3 3 722 0 4 31 312 164 851 799 234 181 133 2 366 2 609 287 819 22 28 1181 1 708 186 11 3 482 221 1195 2 267 983 255 98 4 10 420 107 280 321 359 84 175 183 277 615 481 1372 477 141 262 173 976 544 158 82 496 2 136 3 233 114 487 153 106 2 4 1001 20 805 951 31 77 593 1104 428 289 241 108 993 4 99 1077 1 3 210 6 1416 475 5 3 3 105 738 446 8 92 239 409 1089 1234 265 1465 813 996 305 17 2 1770 961 10 236 97 1073 0 3 77 393 1045 573 313 164 6 1344 69 1939 208 201 241 1 1054 3 504 841 3 181 5 2 160 2 367 2 148 224 4 5 1460 13 258 408 924 226 873 511 345 5 95 417 3 346 2 49 902 993 1 114 14 7 3 990 497 1 167 659 410 10281 477 182 114 137 4 263 291 251 10 173 9 698 943 260 447 515 615 4 489 59 1574 6 164 441 4 4 410 204 204 4 433 378 11 143 1124 7 104 266 119 4 17 234 46 16 12 508 941 4 1203 355 846 491 399 262 3423 718 32 181 984 170 542 650 205 67 1050 358 520 160 1463 57 8 433 2 155 450 5 904 6 845 4 769 198 731 8 15 673 2 12 178 524 559 164 0 227 297 60 666 313 325 14 7 252 374 778 469 759 375 869 713 312 409 294 287 484 148 12 3 4 198 2 2063 210 1029 289 164 139 19 13 188 7 648 449 19 192 238 13 502 573 1 3 824 160 24 91 248 269 123 302 2913 515 3 33 291 1 126 571 248 9 683 35 210 500 3 6 160 875 410 669 686 296 672 281 376 145 233 461 578 130 272 342 71 115 5 518 354 49 8 44 3 6 160 418 2 0 293 244 205 1115 325 247 5 448 319 4 115 233 853 453 702 1400 394 662 218 86 602 11 95 952 4 2 73 10 1090 322 10 473 6 143 681 2 954 3 267 9 223 460 44 476 347 153 4 0 344 3 343 701 20 163 179 524 4 544 154 157 9 3 3 1133 880 1 101 318 720 462 4 7 632 188 1087 2 0 1378 21 131 3 8 361 313 633 630 258 231 134 487 1022 119 188 7 107 202 950 275 202 300 281 607 798 15 7 846 492 1360 2 233 188 2 13 1464 298 204 161 5 373 1321 267 169 260 4 515 164 241 517 346 5 3 827 75 3 4 478 4 745 1038 27 4 2143 321 939 3 1800 246 185 246 267 192 198 18 813 174 2 166 130 1 2 482 2 4 85 1066 169 90 210 149 452 4 456 3 3 970 384 3 23 478 138 781 262 6 104 5 3 3 216 36 193 1457 3 6 372 1915 884 481 105 489 522 292 117 17 197 1185 3 91 346 372 283 156 542 305 690 759 7 165 268 2 377 366 98 422 279 130 1469 4 96 4 8 194 471 390 659 45 27 6 386 289 148 110 2 126 602 1164 1672 16 5 336 109 322 345 172 746 672 217 358 2 403 2 602 629 4 8 122 127 3 912 2 151 364 516 116 15 93 2 380 877 811 264 67 239 624 4 4 115 3 184 995 334 1517 138 472 50 41 3 1 109 490 450 393 378 5 109 220 7 18 156 9 430 92 1 529 309 30 11 3 6 363 135 4 57 151 5 503 4 408 461 16917 387 250 117 45 3 400 123 6 6 160 1 164 133 533 27 629 1035 58 4 2 84 268 12 7 377 130 5 434 462 6 399 4 81 660 9 11 19 168 452 1 956 126 4 2 236 298 420 394 637 229 178 2 1372 475 883 399 358 182 299 14 8 7 567 291 149 3 259 306 868 5 600 1932 1 261 556 4 393 255 509 7 354 109 280 106 598 128 7 89 298 12 93 4 751 173 6 315 120 6 446 453 4 5 11 175 699 5 25 284 355 24 3 207 35 3 3 4 2 116 2 282 194 8 430 12 286 144 211 718 188 4 533 3 164 423 112 290 547 5 252 5 6 308 5 520 207 663 2111 401 102 458 8 1032 205 371 607 204 350 513 3 111 7 293 714 440 474 590 854 350 500 585 3 155 609 2 4 4 165 3 3 316 4 348 188 2 104 1460 173 1650 108 105 9 624 338 3 4 410 170 340 15 27 194 222 694 522 102 410 1163 474 921 3 6 227 119 5 482 1 6 32 427 665 663 301 20 3 123 10 45 700 3 142 113 1163 636 165 287 85 3 496 2 523 3 5 186 258 289 305 4 211 3 15 494 11 1 62 464 15 77 208 619 258 229 2 17 180 814 568 6 473 16 252 964 58 739 1030 13 2 2 402 399 240 310 176 58 493 315 7 137 2181 1532 2 256 2936 634 766 325 47 465 2 152 518 242 78 191 44 648 76 277 9 19 246 1 518 237 11 8 408 487 20 273 5 11 25 838 76 5 13 8 747 196 394 536 1 4 2 311 230 536 1260 163 563 984 503 339 183 86 173 12 152 15 185 199 379 194 804 472 189 212 2 1070 982 773 363 401 477 1207 512 192 4 355 490 1229 3 4 1070 6 341 690 1453 978 3 3 1209 536 497 1151 273 993 1 121 12 653 2 116 421 4 263 12 626 76 5 158 8 4 295 293 692 89 2 696 156 197 4 3 28 106 597 186 543 438 738 481 217 15 139 148 754 511 174 634 6 137 253 1 341 8 1099 35 1460 543 5 128 178 6 755 889 10 149 446 110 142 3 489 606 7 6 599 50 144 124 330 248 449 227 490 884 14 1064 58 183 311 808 151 210 16 4 249 496 4 15 436 396 763 368 163 143 3 3 4 93 70 395 6 340 226 764 6 654 150 154 267 664 260 595 559 435 291 6 545 14 260 211 206 87 160 237 321 823 613 126 233 9 104 398 5 765 293 7 155 182 133 4 16 344 245 1 265 5 326 163 144 111 1 1 94 4 223 1600 3 2 1147 2 4 214 3 1 152 702 234 178 145 3 2 5 770 257 9 4 2 4 1 661 56 133 203 4 228 168 250 1 3 6 734 508 134 163 524 12 321 8 3 60 206 3 566 4 115 151 247 159 4 395 19 1 528 178 496 132 398 400 3 3 102 5 464 1 2 4 227 317 934 2 1057 127 323 395 385 1063 224 36 4 274 732 0 194 236 183 267 1434 302 437 1 358 1797 276 111 233 2 1139 4 626 3 171 233 22 377 7 76 292 6 286 469 3 2 1 8 2 545 6 319 366 127 3 357 4 12 205 8 233 100 341 313 618 648 421 165 42 506 4 141 688 7 1 81 11 217 712 116 643 472 401 3 305 145 1299 751 251 7 1009 3 22 65 182 563 2 329 10 155 274 2 6 454 277 97 285 2 489 4304 216 89 702 148 868 326 4 293 982 228 798 423 336 173 4 232 76 27 8 3 2 9 3 6 1558 8 434 1 92 407 157 4 58 273 14 60 243 2 2 3 604 2 72 1465 652 3 251 373 3 224 912 7 225 649 2 404 800 2 751 300 65 1 3 270 799 5 182 294 58 129 233 423 353 694 131 794 612 6 0 23 170 222 785 148 334 1078 491 110 102 2 594 86 373 187 435 233 1135 389 582 581 717 751 764 151 504 2902 682 52 236 147 407 84 817 400 1092 97 172 350 886 442 451 449 6 2 2 802 1189 13 1177 50 277 3 146 682 401 87 215 1284 251 266 227 3 22 11 453 3 221 166 857 605 586 230 1061 358 740 2 469 1793 8 136 4 3 1692 1282 4 137 346 275 1860 215 342 23 615 184 14 2 215 585 30 
To predecode: 0
Predecoding something: 0
Predecode request dropped: 0
sizeofblock_0 0
sizeofblock_1 209634
sizeofblock_2 212674
sizeofblock_3 0
sizeofblock_4 0
sizeofblock_5 0
sizeofblock_6 0
sizeofblock_7 0
sizeofblock_8 0
Variant_0 Correct: 1381634 Incorrect: 0 Accuracy: 1
Variant_1 Correct: 5410609 Incorrect: 0 Accuracy: 1
Variant_2 Correct: 0 Incorrect: 0 Accuracy: -nan
Variant_3 Correct: 0 Incorrect: 0 Accuracy: -nan
