
*** ChampSim Multicore Out-of-Order Simulator ***

Warmup Instructions: 50000000
Simulation Instructions: 50000000
Number of CPUs: 1
LLC sets: 2048
LLC ways: 16
Off-chip DRAM Size: 4096 MB Channels: 1 Width: 64-bit Data Rate: 6400 MT/s
CPU 0 runs ./micro_traces/srv102.trace.gz
.gz
ITLB has LRU replacement policy
DTLB has LRU replacement policy
STLB has LRU replacement policy
FDIP Prefetcher at L1I
L1I has LRU replacement policy
L1D has LRU replacement policy
Initialize SRRIP state for L2C
Initialize DRRIP state for LLC
Heartbeat_Variant_0 : 1334 0.217122 per_variant_size: 0 1334 0 0 0 0 0 0 0 
Heartbeat_Variant_1 : 2786 0.453451 per_variant_size: 0 995 1791 0 0 0 0 0 0 
Heartbeat_Variant_2 : 0 0 per_variant_size: 0 0 0 0 0 0 0 0 0 
Heartbeat_Variant_3 : 0 0 per_variant_size: 0 0 0 0 0 0 0 0 0 
Heartbeat_Variant_0_evicts 0 : 5630 1 : 25 2 : 0 3 : 0 
Heartbeat_Variant_1_evicts 0 : 20 1 : 0 2 : 0 3 : 0 
Heartbeat_Variant_2_evicts 0 : 0 1 : 0 2 : 0 3 : 0 
Heartbeat_Variant_3_evicts 0 : 0 1 : 0 2 : 0 3 : 0 
Heartbeat CPU 0 instructions: 10000000 cycles: 2796953 heartbeat IPC: 3.57532 cumulative IPC: 3.57532 (Simulation time: 0 hr 1 min 41 sec) 
Heartbeat_Variant_0 : 1356 0.220703 per_variant_size: 0 1356 0 0 0 0 0 0 0 
Heartbeat_Variant_1 : 2867 0.466634 per_variant_size: 0 992 1875 0 0 0 0 0 0 
Heartbeat_Variant_2 : 0 0 per_variant_size: 0 0 0 0 0 0 0 0 0 
Heartbeat_Variant_3 : 0 0 per_variant_size: 0 0 0 0 0 0 0 0 0 
Heartbeat_Variant_0_evicts 0 : 5567 1 : 6 2 : 0 3 : 0 
Heartbeat_Variant_1_evicts 0 : 4 1 : 0 2 : 0 3 : 0 
Heartbeat_Variant_2_evicts 0 : 0 1 : 0 2 : 0 3 : 0 
Heartbeat_Variant_3_evicts 0 : 0 1 : 0 2 : 0 3 : 0 
Heartbeat CPU 0 instructions: 20000001 cycles: 5593025 heartbeat IPC: 3.57645 cumulative IPC: 3.57588 (Simulation time: 0 hr 3 min 20 sec) 
Heartbeat_Variant_0 : 1356 0.220703 per_variant_size: 0 1356 0 0 0 0 0 0 0 
Heartbeat_Variant_1 : 2873 0.467611 per_variant_size: 0 1000 1873 0 0 0 0 0 0 
Heartbeat_Variant_2 : 0 0 per_variant_size: 0 0 0 0 0 0 0 0 0 
Heartbeat_Variant_3 : 0 0 per_variant_size: 0 0 0 0 0 0 0 0 0 
Heartbeat_Variant_0_evicts 0 : 5596 1 : 2 2 : 0 3 : 0 
Heartbeat_Variant_1_evicts 0 : 3 1 : 0 2 : 0 3 : 0 
Heartbeat_Variant_2_evicts 0 : 0 1 : 0 2 : 0 3 : 0 
Heartbeat_Variant_3_evicts 0 : 0 1 : 0 2 : 0 3 : 0 
Heartbeat CPU 0 instructions: 30000000 cycles: 8389532 heartbeat IPC: 3.57589 cumulative IPC: 3.57588 (Simulation time: 0 hr 5 min 1 sec) 
Heartbeat_Variant_0 : 1412 0.229818 per_variant_size: 0 1412 0 0 0 0 0 0 0 
Heartbeat_Variant_1 : 2962 0.482096 per_variant_size: 0 973 1989 0 0 0 0 0 0 
Heartbeat_Variant_2 : 0 0 per_variant_size: 0 0 0 0 0 0 0 0 0 
Heartbeat_Variant_3 : 0 0 per_variant_size: 0 0 0 0 0 0 0 0 0 
Heartbeat_Variant_0_evicts 0 : 5523 1 : 12 2 : 0 3 : 0 
Heartbeat_Variant_1_evicts 0 : 4 1 : 0 2 : 0 3 : 0 
Heartbeat_Variant_2_evicts 0 : 0 1 : 0 2 : 0 3 : 0 
Heartbeat_Variant_3_evicts 0 : 0 1 : 0 2 : 0 3 : 0 
Heartbeat CPU 0 instructions: 40000001 cycles: 11187060 heartbeat IPC: 3.57458 cumulative IPC: 3.57556 (Simulation time: 0 hr 6 min 40 sec) 
Heartbeat_Variant_0 : 1412 0.229818 per_variant_size: 0 1412 0 0 0 0 0 0 0 
Heartbeat_Variant_1 : 2963 0.482259 per_variant_size: 0 973 1990 0 0 0 0 0 0 
Heartbeat_Variant_2 : 0 0 per_variant_size: 0 0 0 0 0 0 0 0 0 
Heartbeat_Variant_3 : 0 0 per_variant_size: 0 0 0 0 0 0 0 0 0 
Heartbeat_Variant_0_evicts 0 : 5523 1 : 1 2 : 0 3 : 0 
Heartbeat_Variant_1_evicts 0 : 1 1 : 0 2 : 0 3 : 0 
Heartbeat_Variant_2_evicts 0 : 0 1 : 0 2 : 0 3 : 0 
Heartbeat_Variant_3_evicts 0 : 0 1 : 0 2 : 0 3 : 0 
Heartbeat CPU 0 instructions: 50000002 cycles: 13983721 heartbeat IPC: 3.57569 cumulative IPC: 3.57559 (Simulation time: 0 hr 8 min 20 sec) 

Warmup complete CPU 0 instructions: 50000002 cycles: 13983721 (Simulation time: 0 hr 8 min 20 sec) 

Cycle: 20000000 FTQ IN: 58418976 FTQ occupancy: 20.5628 DECODE IN: 58418835 DECODE occupancy: 53.4744 ROB IN: 58418775 ROB occupancy: 318.97 ROB OUT: 58418427
Heartbeat_Variant_0 : 1413 0.22998 per_variant_size: 0 1413 0 0 0 0 0 0 0 
Heartbeat_Variant_1 : 2971 0.483561 per_variant_size: 0 998 1973 0 0 0 0 0 0 
Heartbeat_Variant_2 : 0 0 per_variant_size: 0 0 0 0 0 0 0 0 0 
Heartbeat_Variant_3 : 0 0 per_variant_size: 0 0 0 0 0 0 0 0 0 
Heartbeat_Variant_0_evicts 0 : 5476 1 : 4 2 : 0 3 : 0 
Heartbeat_Variant_1_evicts 0 : 4 1 : 0 2 : 0 3 : 0 
Heartbeat_Variant_2_evicts 0 : 0 1 : 0 2 : 0 3 : 0 
Heartbeat_Variant_3_evicts 0 : 0 1 : 0 2 : 0 3 : 0 
Heartbeat CPU 0 instructions: 60000001 cycles: 21126616 heartbeat IPC: 1.39999 cumulative IPC: 1.39999 (Simulation time: 0 hr 10 min 19 sec) 
Heartbeat_Variant_0 : 1412 0.229818 per_variant_size: 0 1412 0 0 0 0 0 0 0 
Heartbeat_Variant_1 : 2972 0.483724 per_variant_size: 0 988 1984 0 0 0 0 0 0 
Heartbeat_Variant_2 : 0 0 per_variant_size: 0 0 0 0 0 0 0 0 0 
Heartbeat_Variant_3 : 0 0 per_variant_size: 0 0 0 0 0 0 0 0 0 
Heartbeat_Variant_0_evicts 0 : 5518 1 : 0 2 : 0 3 : 0 
Heartbeat_Variant_1_evicts 0 : 1 1 : 0 2 : 0 3 : 0 
Heartbeat_Variant_2_evicts 0 : 0 1 : 0 2 : 0 3 : 0 
Heartbeat_Variant_3_evicts 0 : 0 1 : 0 2 : 0 3 : 0 
Heartbeat CPU 0 instructions: 70000001 cycles: 28307040 heartbeat IPC: 1.39268 cumulative IPC: 1.39632 (Simulation time: 0 hr 12 min 19 sec) 
Cycle: 30000000 FTQ IN: 13957238 FTQ occupancy: 15.0544 DECODE IN: 13957379 DECODE occupancy: 38.4186 ROB IN: 13957439 ROB occupancy: 250.955 ROB OUT: 13957613
Heartbeat_Variant_0 : 1412 0.229818 per_variant_size: 0 1412 0 0 0 0 0 0 0 
Heartbeat_Variant_1 : 2972 0.483724 per_variant_size: 0 994 1978 0 0 0 0 0 0 
Heartbeat_Variant_2 : 0 0 per_variant_size: 0 0 0 0 0 0 0 0 0 
Heartbeat_Variant_3 : 0 0 per_variant_size: 0 0 0 0 0 0 0 0 0 
Heartbeat_Variant_0_evicts 0 : 5586 1 : 0 2 : 0 3 : 0 
Heartbeat_Variant_1_evicts 0 : 0 1 : 0 2 : 0 3 : 0 
Heartbeat_Variant_2_evicts 0 : 0 1 : 0 2 : 0 3 : 0 
Heartbeat_Variant_3_evicts 0 : 0 1 : 0 2 : 0 3 : 0 
Heartbeat CPU 0 instructions: 80000002 cycles: 35444215 heartbeat IPC: 1.40111 cumulative IPC: 1.39792 (Simulation time: 0 hr 14 min 21 sec) 
Cycle: 40000000 FTQ IN: 14007889 FTQ occupancy: 14.8968 DECODE IN: 14007773 DECODE occupancy: 38.1202 ROB IN: 14007713 ROB occupancy: 248.799 ROB OUT: 14007535
Heartbeat_Variant_0 : 1412 0.229818 per_variant_size: 0 1412 0 0 0 0 0 0 0 
Heartbeat_Variant_1 : 2972 0.483724 per_variant_size: 0 991 1981 0 0 0 0 0 0 
Heartbeat_Variant_2 : 0 0 per_variant_size: 0 0 0 0 0 0 0 0 0 
Heartbeat_Variant_3 : 0 0 per_variant_size: 0 0 0 0 0 0 0 0 0 
Heartbeat_Variant_0_evicts 0 : 5562 1 : 1 2 : 0 3 : 0 
Heartbeat_Variant_1_evicts 0 : 1 1 : 0 2 : 0 3 : 0 
Heartbeat_Variant_2_evicts 0 : 0 1 : 0 2 : 0 3 : 0 
Heartbeat_Variant_3_evicts 0 : 0 1 : 0 2 : 0 3 : 0 
Heartbeat CPU 0 instructions: 90000000 cycles: 42648693 heartbeat IPC: 1.38803 cumulative IPC: 1.39543 (Simulation time: 0 hr 16 min 20 sec) 
Heartbeat_Variant_0 : 1501 0.244303 per_variant_size: 0 1501 0 0 0 0 0 0 0 
Heartbeat_Variant_1 : 3172 0.516276 per_variant_size: 0 1017 2155 0 0 0 0 0 0 
Heartbeat_Variant_2 : 0 0 per_variant_size: 0 0 0 0 0 0 0 0 0 
Heartbeat_Variant_3 : 0 0 per_variant_size: 0 0 0 0 0 0 0 0 0 
Heartbeat_Variant_0_evicts 0 : 5585 1 : 38 2 : 0 3 : 0 
Heartbeat_Variant_1_evicts 0 : 31 1 : 0 2 : 0 3 : 0 
Heartbeat_Variant_2_evicts 0 : 0 1 : 0 2 : 0 3 : 0 
Heartbeat_Variant_3_evicts 0 : 0 1 : 0 2 : 0 3 : 0 
Heartbeat CPU 0 instructions: 100000003 cycles: 49923866 heartbeat IPC: 1.37454 cumulative IPC: 1.3912 (Simulation time: 0 hr 18 min 36 sec) 
Finished CPU 0 instructions: 50000001 cycles: 35940145 cumulative IPC: 1.3912 (Simulation time: 0 hr 18 min 36 sec) 

ChampSim completed all CPUs

Region of Interest Statistics

CPU 0 cumulative IPC: 1.3912 instructions: 50000001 cycles: 35940145
 Fetch stage stalled: 45.8491  Sim cycles: 35940145 fetch stall cycle: 16478235
 Empty decode stage: 25.3274  Sim cycles: 35940145 fetch stall cycle: 9102713
ITLB TOTAL     ACCESS:    5847119  HIT:    5348616  MISS:     498503  HIT %:    91.4744  MISS %:    8.52562   MPKI: 9.97006
ITLB LOAD TRANSLATION INSTRUCTION	ACCESS:    5712102  HIT:    5213599  MISS:     498503  HIT %:    91.2729  MISS %:    8.72714  MPKI: 9.97006
ITLB TRANSLATION FROM L1D PREFETCHER INSTRUCTION	ACCESS:     135017  HIT:     135017  MISS:          0  HIT %:        100  MISS %:          0  MPKI: 0

ITLB AVERAGE MISS LATENCY: 9.06347 cycles
ITLB RQ	ACCESS:    7960761	FORWARD:          0	MERGED:    1626859	TO_CACHE:    6333902

DTLB TOTAL     ACCESS:    8957387  HIT:    8485336  MISS:     472051  HIT %:      94.73  MISS %:    5.26996   MPKI: 9.44102
DTLB LOAD TRANSLATION DATA	ACCESS:    8957387  HIT:    8485336  MISS:     472051  HIT %:      94.73  MISS %:    5.26996  MPKI: 9.44102

DTLB AVERAGE MISS LATENCY: 9.33655 cycles
DTLB RQ	ACCESS:   13332242	FORWARD:          0	MERGED:    4337868	TO_CACHE:    8994374

STLB TOTAL     ACCESS:    1214427  HIT:    1212434  MISS:       1993  HIT %:    99.8359  MISS %:    0.16411   MPKI: 0.03986
STLB LOAD TRANSLATION INSTRUCTION	ACCESS:     498503  HIT:     498243  MISS:        260  HIT %:    99.9478  MISS %:  0.0521562  MPKI: 0.0052
STLB LOAD TRANSLATION DATA	ACCESS:     472051  HIT:     470344  MISS:       1707  HIT %:    99.6384  MISS %:   0.361613  MPKI: 0.03414
STLB TRANSLATION FROM L1D PREFETCHER DATA	ACCESS:     243873  HIT:     243847  MISS:         26  HIT %:    99.9893  MISS %:  0.0106613  MPKI: 0.00052

STLB AVERAGE MISS LATENCY: 79.9915 cycles
STLB RQ	ACCESS:    1333845	FORWARD:          0	MERGED:     119372	TO_CACHE:    1214473

STLB Hit, L1D data hit: 0
STLB Hit, L2C data hit: 0
STLB Hit, LLC data hit: 0
STLB Hit, LLC data miss: 0
STLB STLB hints to L2: 0
L1D TOTAL     ACCESS:   13073967  HIT:   11945408  MISS:    1128559  HIT %:    91.3679  MISS %:    8.63211   MPKI: 22.5712
L1D LOAD DATA	ACCESS:    6537667  HIT:    5790222  MISS:     747445  HIT %:    88.5671  MISS %:    11.4329  MPKI: 14.9489
L1D RFO DATA	ACCESS:    6214216  HIT:    5927734  MISS:     286482  HIT %:    95.3899  MISS %:    4.61011  MPKI: 5.72964
L1D PREFETCH DATA	ACCESS:     322084  HIT:     227452  MISS:      94632  HIT %:    70.6188  MISS %:    29.3812  MPKI: 1.89264

L1D PREFETCH  REQUESTED:     726922  ISSUED:     726922  USEFUL:      33828  USELESS:      68521
L1D USEFUL LOAD PREFETCHES:      33828 PREFETCH ISSUED TO LOWER LEVEL:     102391  ACCURACY: 33.0381
 TIMELY PREFETCHES:      33828 LATE PREFETCHES: 7705 DROPPED PREFETCHES: 10
L1D AVERAGE MISS LATENCY: 222580 cycles
L1D RQ	ACCESS:   10674815	FORWARD:          0	MERGED:    3931894	TO_CACHE:    6573175
L1D WQ	ACCESS:    6959238	FORWARD:     170086	MERGED:     200171	TO_CACHE:    6759067
L1D PQ	ACCESS:     363631	FORWARD:          0	MERGED:          0	TO_CACHE:     363291

L1D UNIQUE REGIONS ACCESSED: 0
L1D REGIONS CONFLICTS: 0
L1D Cross Page Prefetch Requests: 7003
L1D Same Page Prefetch Requests: 742259
L1D ROI Sum of L1D PQ occupancy: 4625767
L1D PREFETCHES PUSHED FROM L2C: 0
L1I TOTAL     ACCESS:    7135356  HIT:    4351254  MISS:    2784102  HIT %:    60.9816  MISS %:    39.0184   MPKI: 55.682
L1I LOAD INSTRUCTION	ACCESS:    6467147  HIT:    3683045  MISS:    2784102  HIT %:    56.9501  MISS %:    43.0499  MPKI: 55.682
L1I PREFETCH INSTRUCTION	ACCESS:     668209  HIT:     668209  MISS:          0  HIT %:        100  MISS %:          0  MPKI: 0

L1I PREFETCH  REQUESTED:    1621410  ISSUED:    1621410  USEFUL:          0  USELESS:          0
L1I USEFUL LOAD PREFETCHES:          0 PREFETCH ISSUED TO LOWER LEVEL:          0  ACCURACY: -nan
 TIMELY PREFETCHES:          0 LATE PREFETCHES: 0 DROPPED PREFETCHES: 0
L1I AVERAGE MISS LATENCY: 17.1478 cycles
L1I RQ	ACCESS:    9572782	FORWARD:          0	MERGED:    2802833	TO_CACHE:    6769949
L1I PQ	ACCESS:    1621410	FORWARD:          0	MERGED:     430598	TO_CACHE:    1190812

L1BTB TOTAL     ACCESS:    5672208  HIT:    2021908  MISS:    3650300  HIT %:    35.6459  MISS %:    64.3541   MPKI: 73.006
L1BTB BRANCH_DIRECT_JUMP	ACCESS:     547905 HIT:     142990 MISS:     404915 AVERAGE STALL: 57.5413 AVERAGE FETCH STALL: 16.5148 AVERAGE FETCH QUEUE STALL: 17.9597 AVERAGE DECODE STALL: 22.1332 AVERAGE EXECUTE STALL: 2.54578e+15
L1BTB BRANCH_INDIRECT	ACCESS:     182092 HIT:      65215 MISS:     116877 AVERAGE STALL: 110.149 AVERAGE FETCH STALL: 11.8297 AVERAGE FETCH QUEUE STALL: 16.1922 AVERAGE DECODE STALL: 13.1292 AVERAGE EXECUTE STALL: 68.0332
L1BTB BRANCH_CONDITIONAL	ACCESS:    2695878 HIT:    1397021 MISS:    1298857 AVERAGE STALL: 68.287 AVERAGE FETCH STALL: 24.1731 AVERAGE FETCH QUEUE STALL: 26.4318 AVERAGE DECODE STALL: 16.9828 AVERAGE EXECUTE STALL: 2.8009e+15
L1BTB BRANCH_DIRECT_CALL	ACCESS:     950809 HIT:     105395 MISS:     845414 AVERAGE STALL: 84.1429 AVERAGE FETCH STALL: 32.7895 AVERAGE FETCH QUEUE STALL: 31.8776 AVERAGE DECODE STALL: 18.6224 AVERAGE EXECUTE STALL: 2.3529e+16
L1BTB BRANCH_INDIRECT_CALL	ACCESS:     172365 HIT:      21117 MISS:     151248 AVERAGE STALL: 143.093 AVERAGE FETCH STALL: 12.2651 AVERAGE FETCH QUEUE STALL: 19.4912 AVERAGE DECODE STALL: 12.8292 AVERAGE EXECUTE STALL: 98.0139
L1BTB BRANCH_RETURN	ACCESS:    1123159 HIT:     290170 MISS:     832989 AVERAGE STALL: 49.9715 AVERAGE FETCH STALL: 16.7642 AVERAGE FETCH QUEUE STALL: 5.49637 AVERAGE DECODE STALL: 5.61224 AVERAGE EXECUTE STALL: 4.40509e+14
L1BTB BRANCH_OTHER ACCESS:          0 HIT:          0 MISS:          0 AVERAGE STALL: -nan AVERAGE FETCH STALL: -nan AVERAGE FETCH QUEUE STALL: -nan AVERAGE DECODE STALL: -nan AVERAGE EXECUTE STALL: -nan
L1BTB TOTAL ROB OCCUPANCY AT BTB MISS: 2.59239

L2BTB TOTAL     ACCESS:    3625091  HIT:    3561189  MISS:      63902  HIT %:    98.2372  MISS %:    1.76277   MPKI: 1.27804
L2BTB BRANCH_DIRECT_JUMP	ACCESS:     400882 HIT:     397635 MISS:       3247 AVERAGE STALL: 57.5413 AVERAGE FETCH STALL: 16.5148 AVERAGE FETCH QUEUE STALL: 17.9597 AVERAGE DECODE STALL: 22.1332 AVERAGE EXECUTE STALL: 2.54578e+15
L2BTB BRANCH_INDIRECT	ACCESS:     106525 HIT:     103786 MISS:       2739 AVERAGE STALL: 110.149 AVERAGE FETCH STALL: 11.8297 AVERAGE FETCH QUEUE STALL: 16.1922 AVERAGE DECODE STALL: 13.1292 AVERAGE EXECUTE STALL: 68.0332
L2BTB BRANCH_CONDITIONAL	ACCESS:    1298857 HIT:    1292176 MISS:       6681 AVERAGE STALL: 68.287 AVERAGE FETCH STALL: 24.1731 AVERAGE FETCH QUEUE STALL: 26.4318 AVERAGE DECODE STALL: 16.9828 AVERAGE EXECUTE STALL: 2.8009e+15
L2BTB BRANCH_DIRECT_CALL	ACCESS:     845414 HIT:     844571 MISS:        843 AVERAGE STALL: 84.1429 AVERAGE FETCH STALL: 32.7895 AVERAGE FETCH QUEUE STALL: 31.8776 AVERAGE DECODE STALL: 18.6224 AVERAGE EXECUTE STALL: 2.3529e+16
L2BTB BRANCH_INDIRECT_CALL	ACCESS:     141850 HIT:     131947 MISS:       9903 AVERAGE STALL: 143.093 AVERAGE FETCH STALL: 12.2651 AVERAGE FETCH QUEUE STALL: 19.4912 AVERAGE DECODE STALL: 12.8292 AVERAGE EXECUTE STALL: 98.0139
L2BTB BRANCH_RETURN	ACCESS:     831563 HIT:     791074 MISS:      40489 AVERAGE STALL: 49.9715 AVERAGE FETCH STALL: 16.7642 AVERAGE FETCH QUEUE STALL: 5.49637 AVERAGE DECODE STALL: 5.61224 AVERAGE EXECUTE STALL: 4.40509e+14
L2BTB BRANCH_OTHER ACCESS:          0 HIT:          0 MISS:          0 AVERAGE STALL: -nan AVERAGE FETCH STALL: -nan AVERAGE FETCH QUEUE STALL: -nan AVERAGE DECODE STALL: -nan AVERAGE EXECUTE STALL: -nan
L2BTB TOTAL ROB OCCUPANCY AT BTB MISS: 148.086

L2C TOTAL     ACCESS:    4522391  HIT:    4069901  MISS:     452490  HIT %:    89.9945  MISS %:    10.0055   MPKI: 9.0498
L2C LOAD INSTRUCTION	ACCESS:    2784103  HIT:    2534734  MISS:     249369  HIT %:    91.0431  MISS %:    8.95689  MPKI: 4.98738
L2C LOAD TRANSLATION INSTRUCTION	ACCESS:        295  HIT:         74  MISS:        221  HIT %:    25.0847  MISS %:    74.9153  MPKI: 0.00442
L2C LOAD DATA	ACCESS:     739704  HIT:     672156  MISS:      67548  HIT %:    90.8682  MISS %:    9.13176  MPKI: 1.35096
L2C RFO DATA	ACCESS:     286413  HIT:     233977  MISS:      52436  HIT %:    81.6922  MISS %:    18.3078  MPKI: 1.04872
L2C PREFETCH DATA	ACCESS:     183637  HIT:     115870  MISS:      67767  HIT %:    63.0973  MISS %:    36.9027  MPKI: 1.35534
L2C WRITEBACK DATA	ACCESS:     526421  HIT:     512543  MISS:      13878  HIT %:    97.3637  MISS %:    2.63629  MPKI: 0.27756
L2C LOAD TRANSLATION DATA	ACCESS:       1767  HIT:        512  MISS:       1255  HIT %:    28.9757  MISS %:    71.0243  MPKI: 0.0251
L2C TRANSLATION FROM L1D PREFETCHER DATA	ACCESS:         51  HIT:         35  MISS:         16  HIT %:    68.6275  MISS %:    31.3725  MPKI: 0.00032

L2C PREFETCH  REQUESTED:      87915  ISSUED:      87915  USEFUL:       7298  USELESS:      60746
L2C USEFUL LOAD PREFETCHES:       7298 PREFETCH ISSUED TO LOWER LEVEL:      68092  ACCURACY: 10.7179
 TIMELY PREFETCHES:       7298 LATE PREFETCHES: 325 DROPPED PREFETCHES: 0
L2C AVERAGE MISS LATENCY: 39.0697 cycles
L2C RQ	ACCESS:    3812386	FORWARD:          0	MERGED:          0	TO_CACHE:    3812335
L2C WQ	ACCESS:     526421	FORWARD:         51	MERGED:          0	TO_CACHE:     526421
L2C PQ	ACCESS:     190306	FORWARD:          0	MERGED:       3168	TO_CACHE:     187138

L2C Dense regions hint from L2: 0
PSCL5 TOTAL     ACCESS:       4010  HIT:       2005  MISS:       2005  HIT %:         50  MISS %:         50   MPKI: 0.0401
PSCL5 LOAD TRANSLATION INSTRUCTION	ACCESS:       3910  HIT:       1955  MISS:       1955  HIT %:         50  MISS %:         50  MPKI: 0.0391
PSCL5 TRANSLATION FROM L1D PREFETCHER INSTRUCTION	ACCESS:        100  HIT:         50  MISS:         50  HIT %:         50  MISS %:         50  MPKI: 0.001


PSCL4 TOTAL     ACCESS:       3942  HIT:       1969  MISS:       1973  HIT %:    49.9493  MISS %:    50.0507   MPKI: 0.03946
PSCL4 LOAD TRANSLATION INSTRUCTION	ACCESS:       2088  HIT:       1919  MISS:        169  HIT %:    91.9061  MISS %:    8.09387  MPKI: 0.00338
PSCL4 TRANSLATION FROM L1D PREFETCHER INSTRUCTION	ACCESS:         50  HIT:         50  MISS:          0  HIT %:        100  MISS %:          0  MPKI: 0
PSCL4 LOAD TRANSLATION DATA	ACCESS:       1754  HIT:          0  MISS:       1754  HIT %:          0  MISS %:        100  MPKI: 0.03508
PSCL4 TRANSLATION FROM L1D PREFETCHER DATA	ACCESS:         50  HIT:          0  MISS:         50  HIT %:          0  MISS %:        100  MPKI: 0.001


PSCL3 TOTAL     ACCESS:       3960  HIT:       1978  MISS:       1982  HIT %:    49.9495  MISS %:    50.0505   MPKI: 0.03964
PSCL3 LOAD TRANSLATION INSTRUCTION	ACCESS:       2097  HIT:       1928  MISS:        169  HIT %:    91.9409  MISS %:    8.05913  MPKI: 0.00338
PSCL3 TRANSLATION FROM L1D PREFETCHER INSTRUCTION	ACCESS:         50  HIT:         50  MISS:          0  HIT %:        100  MISS %:          0  MPKI: 0
PSCL3 LOAD TRANSLATION DATA	ACCESS:       1763  HIT:          0  MISS:       1763  HIT %:          0  MISS %:        100  MPKI: 0.03526
PSCL3 TRANSLATION FROM L1D PREFETCHER DATA	ACCESS:         50  HIT:          0  MISS:         50  HIT %:          0  MISS %:        100  MPKI: 0.001


PSCL2 TOTAL     ACCESS:       3907  HIT:       1902  MISS:       2005  HIT %:    48.6819  MISS %:    51.3181   MPKI: 0.0401
PSCL2 LOAD TRANSLATION INSTRUCTION	ACCESS:       2135  HIT:       1853  MISS:        282  HIT %:    86.7916  MISS %:    13.2084  MPKI: 0.00564
PSCL2 TRANSLATION FROM L1D PREFETCHER INSTRUCTION	ACCESS:         49  HIT:         49  MISS:          0  HIT %:        100  MISS %:          0  MPKI: 0
PSCL2 LOAD TRANSLATION DATA	ACCESS:       1674  HIT:          0  MISS:       1674  HIT %:          0  MISS %:        100  MPKI: 0.03348
PSCL2 TRANSLATION FROM L1D PREFETCHER DATA	ACCESS:         49  HIT:          0  MISS:         49  HIT %:          0  MISS %:        100  MPKI: 0.00098


LLC TOTAL     ACCESS:     511084  HIT:     482840  MISS:      28244  HIT %:    94.4737  MISS %:    5.52629   MPKI: 0.56488
LLC LOAD INSTRUCTION	ACCESS:     249369  HIT:     248194  MISS:       1175  HIT %:    99.5288  MISS %:   0.471189  MPKI: 0.0235
LLC LOAD TRANSLATION INSTRUCTION	ACCESS:        221  HIT:        171  MISS:         50  HIT %:    77.3756  MISS %:    22.6244  MPKI: 0.001
LLC LOAD DATA	ACCESS:      67254  HIT:      63641  MISS:       3613  HIT %:    94.6278  MISS %:    5.37217  MPKI: 0.07226
LLC RFO DATA	ACCESS:      52397  HIT:      39300  MISS:      13097  HIT %:    75.0043  MISS %:    24.9957  MPKI: 0.26194
LLC PREFETCH DATA	ACCESS:      68092  HIT:      58199  MISS:       9893  HIT %:    85.4711  MISS %:    14.5289  MPKI: 0.19786
LLC WRITEBACK DATA	ACCESS:      72480  HIT:      72175  MISS:        305  HIT %:    99.5792  MISS %:   0.420806  MPKI: 0.0061
LLC LOAD TRANSLATION DATA	ACCESS:       1255  HIT:       1145  MISS:        110  HIT %:    91.2351  MISS %:    8.76494  MPKI: 0.0022
LLC TRANSLATION FROM L1D PREFETCHER DATA	ACCESS:         16  HIT:         15  MISS:          1  HIT %:      93.75  MISS %:       6.25  MPKI: 2e-05

LLC AVERAGE MISS LATENCY: 158.696 cycles
LLC RQ	ACCESS:     370520	FORWARD:          0	MERGED:          0	TO_CACHE:     370512
LLC WQ	ACCESS:      72480	FORWARD:          8	MERGED:          0	TO_CACHE:      72480
LLC PQ	ACCESS:      68092	FORWARD:          0	MERGED:          0	TO_CACHE:      68092

LLC Dense regions hint to LLC: 0

RAW hits: 1957094
Loads Generated: 12631909
Loads sent to L1D: 10674815
Stores Generated: 6959228
Stores sent to L1D: 6959238
Major fault: 0 Minor fault: 2635
Allocated PAGES: 2635

stream: 
stream:times selected: 1175915
stream:pref_filled: 122541
stream:pref_useful: 24658
stream:pref_late: 6728
stream:misses: 8050
stream:misses_by_poll: 0

CS: 
CS:times selected: 176455
CS:pref_filled: 60783
CS:pref_useful: 37646
CS:pref_late: 6776
CS:misses: 15884
CS:misses_by_poll: 4

CPLX: 
CPLX:times selected: 998243
CPLX:pref_filled: 19913
CPLX:pref_useful: 4840
CPLX:pref_late: 3062
CPLX:misses: 94372
CPLX:misses_by_poll: 0

NL_L1: 
NL:times selected: 20656
NL:pref_filled: 769
NL:pref_useful: 392
NL:pref_late: 269
NL:misses: 1758
NL:misses_by_poll: 0

total selections: 2371269
total_filled: 94632
total_useful: 33828
total_late: 18178
total_polluted: 4
total_misses_after_warmup: 782954
conflicts: 5523299

test: 117518

DRAM Statistics
 CHANNEL 0
 RQ ROW_BUFFER_HIT:      10141  ROW_BUFFER_MISS:      17790
 DBUS_CONGESTED:         10
 WQ ROW_BUFFER_HIT:       1491  ROW_BUFFER_MISS:      11804  FULL:          0

 AVG_CONGESTED_CYCLE: 5

CPU 0 Branch Prediction Accuracy: 99.8084% MPKI: 0.35088 Average ROB Occupancy at Mispredict: 185.482
Branch types
NOT_BRANCH: 40844532 81.6891%
BRANCH_DIRECT_JUMP: 547905 1.09581%
BRANCH_INDIRECT: 182092 0.364184%
BRANCH_CONDITIONAL: 6178939 12.3579%
BRANCH_DIRECT_CALL: 950809 1.90162%
BRANCH_INDIRECT_CALL: 172365 0.34473%
BRANCH_RETURN: 1123159 2.24632%
BRANCH_OTHER: 0 0%

DRAM PAGES: 1048576
Allocated PAGES: 2635
Average_ROB_Occupancy: 250.4
Average_Decode_Occupancy: 38.1245
Average_FTQ_Occupancy: 14.9331
Indirect max targets: 14 Average targets: 1.17891
Branch_type:  BRANCH_DIRECT_JUMP:  Count Percentage: 3.77612 4.78446 4.81563 8.46363 2.40745 6.01231 1.56597 68.1744 
Branch_type:  BRANCH_INDIRECT:  Count Percentage: 6.10758 3.37609 8.14042 9.6785 3.35386 2.81766 3.90159 62.6243 
Branch_type:  BRANCH_CONDITIONAL:  Count Percentage: 25.4249 2.35006 1.55286 4.60623 2.44852 3.59381 2.11989 57.9037 
Branch_type:  BRANCH_DIRECT_CALL:  Count Percentage: 0.916119 1.32111 0.714232 3.88468 3.20291 2.6904 3.03686 84.2337 
Branch_type:  BRANCH_INDIRECT_CALL:  Count Percentage: 9.57683 0 3.00511 0.00087324 0.922724 1.71999 4.99639 79.7781 
Branch_type:  BRANCH_RETURN:  Count Percentage: 8.33508 1.23035 1.01714 3.87703 4.217 3.48128 2.68701 75.1551 
Branch_type:  BRANCH_DIRECT_JUMP:  Total Count: 41321 52355 52696 92615 26344 65791 17136 746013 
Branch_type:  BRANCH_INDIRECT:  Total Count: 22257 12303 29665 35270 12222 10268 14218 228213 
Branch_type:  BRANCH_CONDITIONAL:  Total Count: 3139812 290218 191768 568840 302376 443813 261793 7150742 
Branch_type:  BRANCH_DIRECT_CALL:  Total Count: 17357 25030 13532 73600 60683 50973 57537 1595911 
Branch_type:  BRANCH_INDIRECT_CALL:  Total Count: 32901 0 10324 3 3170 5909 17165 274076 
Branch_type:  BRANCH_RETURN:  Total Count: 186625 27548 22774 86808 94420 77947 60163 1682746 
Number of unique branch instructions: 10759
Upper 32 bits: 
aaaa
ffff
ffff0000
Unique upper 32 bits: 3
Unique upper 36 bits: 3
Unique upper 40 bits: 5
Unique upper 44 bits: 32
Unique upper 48 bits: 158
Variant_0 : 1501 0.244303
Variant_1 : 3172 0.516276
Variant_2 : 0 0
Variant_3 : 0 0
Offset_3 4455
Offset_4 260
Offset_5 482
Offset_6 538
Offset_7 639
Offset_8 578
Offset_9 511
Offset_10 421
Offset_11 352
Offset_12 325
Offset_13 240
Offset_14 247
Offset_15 199
Offset_16 231
Offset_17 165
Offset_18 152
Offset_19 262
Offset_20 146
Offset_21 235
Offset_22 410
Offset_23 241
Offset_24 346
Offset_25 117
Offset_47 92
Offset_64 2
decode_dispatch_called: 26399175 73.4532
Dispatch_width: 0 14242379 53.9501 39.6281
Dispatch_width: 1 1033994 3.91677 2.87699
Dispatch_width: 2 853340 3.23245 2.37434
Dispatch_width: 3 502860 1.90483 1.39916
Dispatch_width: 4 6370046 24.1297 17.724
Dispatch_width: 5 108984 0.412831 0.303238
Dispatch_width: 6 3287572 12.4533 9.14735
Empty_decode_cycles: 9540970 26.5468
ROB_full_cycles: 10133766 28.1962
Starvation_cycles_per_kilo_instr: 225.188
Starvation_cycles_per_kilo_instr_3: 160.398
Starvation_cycles_per_kilo_instr_0: 136.496
Branch_type_1  (3,1)  (4,9)  (5,39)  (6,72)  (7,124)  (8,149)  (9,134)  (10,110)  (11,79)  (12,55)  (13,11)  (14,2)  (15,3)  (16,4)  (18,1)  (19,5)  (20,2)  (21,1)  (22,3)  (23,2)  (24,10)  (25,12)  (64,1) 
Branch_type_2  (3,1)  (4,1)  (5,1)  (8,4)  (9,4)  (10,1)  (12,1)  (13,1)  (14,1)  (16,3)  (17,2)  (20,2)  (21,2)  (23,5)  (24,1)  (47,41) 
Branch_type_3  (3,4453)  (4,250)  (5,438)  (6,449)  (7,484)  (8,358)  (9,278)  (10,169)  (11,137)  (12,62)  (13,10)  (24,1)  (64,1) 
Branch_type_4  (6,4)  (7,8)  (8,26)  (9,57)  (10,67)  (11,70)  (12,116)  (13,102)  (14,112)  (15,95)  (16,102)  (17,76)  (18,65)  (19,127)  (20,74)  (21,124)  (22,216)  (23,136)  (24,200)  (25,101) 
Branch_type_5  (8,3)  (9,1)  (10,4)  (11,5)  (12,3)  (13,14)  (14,16)  (15,11)  (16,22)  (17,11)  (18,23)  (19,14)  (20,11)  (21,13)  (22,43)  (23,26)  (24,38) 
Branch_type_6  (5,4)  (6,13)  (7,23)  (8,38)  (9,37)  (10,70)  (11,61)  (12,88)  (13,102)  (14,116)  (15,90)  (16,100)  (17,76)  (18,63)  (19,116)  (20,57)  (21,95)  (22,148)  (23,72)  (24,96)  (25,4)  (47,51) 
Unique trigger count: 
Variant_0_evicts_0 : 0
Variant_0_evicts_1 : 0
Variant_0_evicts_2 : 0
Variant_0_evicts_3 : 0
Variant_1_evicts_0 : 0
Variant_1_evicts_1 : 0
Variant_1_evicts_2 : 0
Variant_1_evicts_3 : 0
Variant_2_evicts_0 : 0
Variant_2_evicts_1 : 0
Variant_2_evicts_2 : 0
Variant_2_evicts_3 : 0
Variant_3_evicts_0 : 0
Variant_3_evicts_1 : 0
Variant_3_evicts_2 : 0
Variant_3_evicts_3 : 0
BTB PER SET UNIQUE ADDR: 7 6 4 8 6 4 6 6 5 8 8 7 4 4 5 7 6 6 5 5 6 4 4 6 7 5 5 6 6 6 6 6 6 4 4 5 5 4 5 5 6 4 7 7 2 4 4 7 8 6 5 3 4 4 6 3 6 4 5 7 6 6 3 7 5 4 5 6 7 4 6 5 4 5 4 9 6 4 5 6 6 5 8 6 7 4 4 5 6 7 3 4 3 8 4 6 9 7 7 5 6 5 5 6 7 8 5 5 5 6 4 3 6 5 6 6 6 5 4 5 7 7 5 6 8 7 6 4 7 7 6 8 8 4 6 6 5 3 5 3 5 5 5 5 6 5 6 6 6 5 7 6 5 5 7 6 5 6 4 6 7 5 5 7 4 9 6 5 5 6 8 6 7 6 7 7 3 7 5 4 4 3 5 7 7 5 6 6 8 4 7 6 4 7 5 5 5 5 7 6 3 6 5 7 3 9 7 7 5 4 6 6 7 5 6 7 6 6 7 6 3 5 5 5 6 8 6 5 7 5 7 5 4 8 8 6 7 7 5 5 6 6 5 6 6 7 7 6 5 5 7 6 5 4 2 8 5 4 6 7 6 6 5 5 4 5 8 4 5 7 6 5 5 7 6 4 8 3 4 6 6 6 3 9 5 9 5 7 8 5 3 8 5 5 6 5 7 4 7 6 6 4 7 4 6 4 7 7 4 6 7 3 6 3 4 5 5 6 7 5 6 5 8 7 9 5 5 5 5 4 2 4 5 5 4 3 4 5 7 4 5 8 5 10 5 6 3 4 5 7 8 4 6 5 5 7 4 9 6 6 6 7 7 5 5 6 8 4 4 4 5 6 5 5 4 7 6 7 4 4 5 4 5 8 8 4 5 6 7 5 5 6 4 8 6 6 6 6 6 4 7 5 5 6 8 6 7 5 8 7 5 5 4 5 8 4 7 8 5 5 5 5 5 7 7 7 4 7 6 7 5 5 7 4 5 4 5 6 6 6 7 7 3 5 4 5 6 6 10 9 6 4 4 5 6 5 4 6 4 8 3 6 6 5 4 7 5 6 5 5 5 5 6 6 4 8 7 5 4 5 6 3 5 5 4 8 5 6 5 5 6 5 5 5 7 7 6 5 5 7 6 8 7 6 6 5 5 6 5 5 4 5 6 2 1 7 6 2 6 6 3 4 3 4 7 4 3 7 5 5 4 5 4 5 3 2 5 4 5 5 5 4 8 5 3 6 5 7 4 5 3 5 4 5 3 5 5 0 6 4 3 2 3 6 3 3 6 6 3 2 3 4 3 4 3 3 5 2 5 4 2 5 5 3 5 4 2 3 5 6 4 4 6 4 4 5 4 6 5 7 5 4 1 3 2 2 5 2 3 3 4 6 5 5 2 2 6 5 3 5 3 4 4 4 4 4 1 5 5 6 3 5 4 3 3 3 4 4 8 4 3 4 2 3 2 5 3 4 4 4 6 3 5 5 4 6 3 4 3 2 2 4 3 4 5 2 6 5 6 2 5 4 4 6 5 3 2 5 3 7 4 4 2 5 5 4 2 6 4 4 5 4 5 4 2 5 5 3 3 6 5 5 4 3 6 6 4 5 5 6 4 3 4 5 3 3 2 4 2 2 4 4 4 4 5 4 4 4 3 6 5 5 6 6 5 2 5 5 3 6 4 6 7 6 1 2 7 4 4 4 4 5 4 5 5 6 2 5 5 4 6 5 7 5 3 6 3 6 4 7 4 4 3 7 4 3 6 6 2 5 7 5 3 4 6 5 4 4 2 6 4 6 4 5 4 2 6 1 2 1 6 4 5 2 6 5 4 2 5 4 4 2 1 2 3 3 6 3 6 5 5 4 6 5 4 3 4 3 3 3 5 4 4 5 5 5 5 5 2 6 3 6 3 6 4 3 6 4 2 3 4 6 3 6 4 4 6 3 4 5 3 3 4 6 6 6 3 4 5 4 5 5 7 5 3 3 3 2 5 6 2 5 3 4 3 4 6 5 3 1 5 4 2 1 2 4 1 3 4 3 4 1 5 3 4 4 6 6 5 5 3 3 3 5 5 5 4 2 3 4 2 3 5 4 3 5 5 2 6 2 3 5 5 5 4 5 5 5 4 4 5 3 4 4 4 2 6 4 6 4 5 4 6 5 6 4 3 4 5 2 5 5 5 5 4 3 5 5 3 5 3 5 4 6 3 5 4 4 5 5 4 4 3 5 5 3 5 3 6 4 9 4 4 5 4 7 1 5 5 4 6 3 4 3 3 4 4 3 3 4 4 4 5 5 3 6 2 4 3 4 5 4 6 4 6 1 5 6 4 1 3 6 3 2 2 7 3 5 3 4 4 4 5 4 6 6 5 2 4 6 2 5 3 4 5 4 3 5 4 5 4 4 5 3 2 5 6 5 5 3 2 6 4 3 4 3 4 4 3 4 7 4 6 3 6 5 5 1 5 3 3 6 3 6 6 4 3 5 2 2 5 5 5 5 1 4 2 5 4 5 2 6 4 3 6 6 7 6 4 6 4 4 4 5 4 5 4 6 3 0 4 3 3 2 2 3 5 4 3 5 5 6 2 3 2 5 2 5 4 3 4 6 1 1 3 1 5 5 2 3 3 5 4 5 4 4 5 6 4 6 6 2 5 5 2 3 5 3 2 7 4 2 4 4 7 4 5 3 4 2 5 4 4 2 3 4 4 4 4 4 5 3 2 3 4 4 4 2 6 6 6 7 5 4 4 6 6 4 6 8 5 1 4 5 6 5 2 7 4 3 5 5 3 3 5 5 3 5 3 3 6 5 5 4 4 3 7 5 2 6 3 4 5 4 6 4 4 6 3 5 3 4 3 6 5 5 5 6 3 4 5 5 4 2 5 4 6 6 7 4 5 6 6 5 4 6 5 3 6 3 3 3 6 4 4 4 4 5 4 7 3 3 3 5 5 5 4 2 6 5 5 7 4 4 4 3 4 6 4 3 5 4 5 5 5 3 6 4 5 5 2 3 1 6 4 3 3 4 3 6 5 5 2 5 5 6 4 2 4 4 4 5 4 9 6 3 4 3 8 5 2 6 6 5 3 1 2 4 6 7 3 4 2 6 4 6 5 6 5 6 4 3 4 4 4 3 4 5 2 3 2 5 3 4 0 6 4 5 3 3 3 4 3 3 4 5 5 5 4 4 3 5 5 5 7 3 4 7 3 3 4 3 3 6 6 5 5 5 4 5 5 3 4 6 4 3 4 5 6 3 4 3 4 4 5 2 4 3 5 3 3 6 3 4 5 4 6 2 7 4 6 4 5 4 5 5 4 5 5 4 5 2 4 4 6 4 4 3 6 5 7 5 5 6 6 3 3 6 4 5 3 5 5 5 2 5 5 4 6 2 5 4 4 5 4 4 4 4 5 3 5 5 4 2 6 6 7 6 1 5 3 2 4 5 4 2 6 4 5 5 3 6 3 5 5 3 
BTB PER SET COUNT: 7 1490 1477 1473 6 4 8 6 8 2605 63 7 4 4 5 8 6 7 5 5 7 5 4 8 483 5 5 6 15 6 8 6 6 5 4 5 5 5 5 6 8 4 9 7 2 4 480 7 15 6 5 3 4 4 6 4 964 4 5 1484 1004 9 8 7 5 5 8 6 9 4 7 5 4 5 4 10 7 4 1002 8 12 5 1416 6 10 8 5 5 951 15 136 16 3 8 4 6 14 9 19 5 7 5 5 6 366 8 5 5 6 7 4 3 473 6 6 738 6 5 14 1478 11 9 904 7 9 7 6 4 8 8 1004 10 11 6 8 6 5 4 5 4 1033 7 7 5 7 5 9 6 9 5 7 548 6 5 7 1086 5 6 6 8 10 5 5 7 4 14 7 6 6 116 398 13 23 6 8 11 3 9 5 5 4 3 5 8 82 5 8 669 12 4 8 8 4 961 5 5 6 5 2208 6 3 1483 6 9 3 15 8 7 5 4 7 6 7 7 6 8 6 481 366 6 3 5 6 7 6 9 9924 480 9 5 9 8 7 8 925 6 9 7 5 5 6 6 5 6 6 7 7753 153 5 6 126 7 5 4 2 9 5 4 7 7 9 9 5 5 4 5 14 4 5 7 6 6 5 7 6 4 21 3 4 7 7 10 3 10 5 10 5 7 1047 5 3 9 5 5 6 5 7 4 8 7 6 4 7 4 206 4 7 8 4 1489 1430 3 9 5 6 5 6 6 8 5 6 6 1484 7 9 6 5 9 5 6 2 4 17 7 5 3 6 7 7 4 5 925 5 10 5 8 3 4 15 8 8 4 7 6 7 7 4 1430 8 8 7 7 1483 5 5 7 188 4 4 5 5 1432 2475 5 4 7 6 10 4 4 5 4 6 8 9 4 5 8 7 5 5 6 4 8 7 6 6 7 363 4 9 5 5 6 8 6 9 34 10 9 8 5 6 5 8 4 7 558 5 5 5 5 5 8 7 7 4 7 6 7 5 5 7 6 5 24 5 8 3806 6 11 7 481 5 4 8 1479 8 11 10 7 881 4 5 12 5 4 9 4 100 954 7 6 6 4 9 55 6 5 5 5 5 7 7 5 8 7 5 4 5 7 3 5 1478 196 290 5 1479 6 7 6 6 1361 5 7 8 7 5 7 7 9 54 9 7 1362 5 6 6 7 5 4 5 957 1903 1 7 7 492 6 6 3 4 3 4 385 4 3 370 5 7 1477 5 4 11 29 3 7 4 5 5 11 7 8 5 3 1495 5 7 4 7 3 5 955 7 3 5 5 0 6 6 954 4 3 6 3 3 1883 6 954 2 3 4 11 5 3 3 6 2 5 6 3 6 1002 3 10 4 2 4 5 1638 4 4 8 955 1317 5 1477 6 6 9 8 4 952 3 2 2 944 2 3 3 4 7 1007 5 2 2 26 5 14744 6 3 4 7 8 10 4 1 5 5 6 942 5 5 3 3 3 5 5 10 4 5 4 2 3 2 5 3 6 4 4 6 1002 5 6 4 6 3 4 3 2 2 4 5 4 5 2 6 5 6 2 5 4 4 3578 7 3 2 5 3 8 924 5 2 7 6 4 2 1479 6 4 5 4 7 4 2 5 5 4 3 10 8 6 4 4 8 7 6 5 5 82 4 3 5 5 3 477 2 4 2 2 4 4 4 4 6 4 5 4 3 9 5 5 11 7 6 2 6 5 3 109 5 7 11 6 1 2 7 5 6 4 4 5 4 6 5 6 2 5 202 4 10 5 7 69 3 10 3 3429 4 10 7 4 4 7 4 3 9 7 2 6 8 5 3 4 9 6 14 5 292 6 4 8 4 5 4 2 8 1 2 1 8 5 6 2 6 5 6 2 9 7 4 2 1 2 5 3 8 3 9 5 8 4 7 5 4 3 10 3 3 479 6 6 5 5 5 5 6 6 2 6 11 1006 3 8 6 3 1003 4 3 3 4 1004 3 70 4 5 6 5 4 6 3 3 4 6 481 9 3 4 5 4 5 5 7 7 3 3 3 2 5 6 3 5 3 5 3 5 6 5 3 1 1478 4 2 1 2 4 1 5 4 3 4 1 5 941 5 4 7 9 6 972 3 3 3 5 6 549 4 3 4 6 2 3 6 10 3 6 5 2 7 2 9 5 5 5 4 6 5 1002 4 4 6 3 4 4 4 2 6 5 8 4 5 5 6 5 979 5 3 7 1906 2 5 5 6 6 4 3 480 10 3 5 3 6 4 15 5 6 5 4 20 8 4 5 3 5 5 3 6 1031 10 4 11 5 4 5 4 10 1 1479 6 4 7 3 4 5 3 4 4 3 3 4 4 10 6 5 3 8 3 4 5 4 5 4 6 4 6 1 6 536 7 1 13 6 4 3 2 720 3 5 3 8 4 479 37 5 8 14 964 2 4 7 2 6 3 6 5 6 4 241 4 17 4 4 5 3 2 11 6 5 5 4 2 460 4 3 5 3 5 4 3 10 11 5 6 6 7 5 10 1 5 3 3 8 3 10 6 6 11 5 98 2 8 9 8 2476 1 208 5 7 4 5 2 6 4 3 6 8 9 185 4 6 4 4 12 6 4 5 4 7 4 0 4 3 3 2 2 3 5 4 5 6 5 10729 2 3 2 481 2 5 4 4 7 9 1 1 3 1 5 7 2 3 3 5 4 7 7 7 5 6 21 7 1439 2 7 7 2 3 5 4 4 7 4 2 4 4 256 4 5 3 10 3 5 4 6 2 2014 4 4 5 4 6 5 5 2 10 4 4 4 3 6 364 1481 7 5 1479 4 8 8 8 7 8 379 1 5 5 6 7 2 11 4 3 5 6 6 3 5 17 3 12 3 3 8 13 5 6 5 3 1480 5 2 6 3 479 5 4 6 5 4 6 3 6 3 61 4 6 1005 5 5 6 3 241 5 5 4 2 9 5 8 6 9 4 5 124 6 1999 4 9 5 3 9 3 4 4 7 4 4 6 4 6 7 9 6 3 5 5 88 6 5 2 7 5 6 7 6 8 4 3 4 10 4 4 9 4 5 6 7 3 6 1493 20 1478 2 3 1 7 5 3 7 6 3 8 5 5 2 5 5 6 8 2 58 5 10 5 4 368 7 4 7 3 17 5 2 7 8 5 3 1 2 4 9 7 3 5 2 9 13 6 6 8 5 496 4 3 4 5 4 5 4 6 3 3 2 5 3 6 0 8 4 6 3 23 4 4 3 4 4 5 6 7 4 4 3 6 6 5 34 3 4 233 4 3 4 3 3 8 7 5 8 5 6 5 5 3 4 3000 4 4 4 5 8 3 4 3 6 4 5 2 5 478 5 3 3 163 3 4 5 4 10 2 7 4 7 6 6 4 7 1486 4 7 15 4 5 2 4 4 7 4 6 3 11 8 7 5 1004 6 8 3 3 9 4 5 3 6 7 5 2 6 7 4 6 4 6 81 4 5 4 4 4 6 6 3 9 5 4 2 7 6 7 432 1 6 3 2 5 7 4 3 6 5 1008 5 3 8 3 6 6 3 
To predecode: 0
Predecoding something: 0
Predecode request dropped: 0
sizeofblock_0 0
sizeofblock_1 42418
sizeofblock_2 90999
sizeofblock_3 0
sizeofblock_4 0
sizeofblock_5 0
sizeofblock_6 0
sizeofblock_7 0
sizeofblock_8 0
Variant_0 Correct: 1619564 Incorrect: 0 Accuracy: 1
Variant_1 Correct: 5761191 Incorrect: 0 Accuracy: 1
Variant_2 Correct: 0 Incorrect: 0 Accuracy: -nan
Variant_3 Correct: 0 Incorrect: 0 Accuracy: -nan
