
*** ChampSim Multicore Out-of-Order Simulator ***

Warmup Instructions: 50000000
Simulation Instructions: 50000000
Number of CPUs: 1
LLC sets: 2048
LLC ways: 16
Off-chip DRAM Size: 4096 MB Channels: 1 Width: 64-bit Data Rate: 6400 MT/s
CPU 0 runs ./micro_traces/srv282.trace.gz
.gz
ITLB has LRU replacement policy
DTLB has LRU replacement policy
STLB has LRU replacement policy
FDIP Prefetcher at L1I
L1I has LRU replacement policy
L1D has LRU replacement policy
Initialize SRRIP state for L2C
Initialize DRRIP state for LLC
Heartbeat CPU 0 instructions: 10000000 cycles: 2798566 heartbeat IPC: 3.57326 cumulative IPC: 3.57326 (Simulation time: 0 hr 1 min 35 sec) 
Heartbeat CPU 0 instructions: 20000000 cycles: 5595672 heartbeat IPC: 3.57512 cumulative IPC: 3.57419 (Simulation time: 0 hr 3 min 12 sec) 
Heartbeat CPU 0 instructions: 30000002 cycles: 8393547 heartbeat IPC: 3.57414 cumulative IPC: 3.57417 (Simulation time: 0 hr 4 min 49 sec) 
Heartbeat CPU 0 instructions: 40000002 cycles: 11191051 heartbeat IPC: 3.57462 cumulative IPC: 3.57428 (Simulation time: 0 hr 6 min 25 sec) 
Heartbeat CPU 0 instructions: 50000001 cycles: 13988599 heartbeat IPC: 3.57456 cumulative IPC: 3.57434 (Simulation time: 0 hr 8 min 0 sec) 

Warmup complete CPU 0 instructions: 50000001 cycles: 13988599 (Simulation time: 0 hr 8 min 0 sec) 

Cycle: 20000000 FTQ IN: 58334614 FTQ occupancy: 20.0749 DECODE IN: 58334588 DECODE occupancy: 52.4858 ROB IN: 58334528 ROB occupancy: 315.839 ROB OUT: 58334176
Heartbeat CPU 0 instructions: 60000000 cycles: 21276033 heartbeat IPC: 1.37222 cumulative IPC: 1.37222 (Simulation time: 0 hr 9 min 49 sec) 
Heartbeat CPU 0 instructions: 70000003 cycles: 28486177 heartbeat IPC: 1.38694 cumulative IPC: 1.37954 (Simulation time: 0 hr 11 min 38 sec) 
Cycle: 30000000 FTQ IN: 13787116 FTQ occupancy: 13.5044 DECODE IN: 13787129 DECODE occupancy: 35.2301 ROB IN: 13787173 ROB occupancy: 240.264 ROB OUT: 13787179
Heartbeat CPU 0 instructions: 80000003 cycles: 35752976 heartbeat IPC: 1.37612 cumulative IPC: 1.3784 (Simulation time: 0 hr 13 min 26 sec) 
Cycle: 40000000 FTQ IN: 13768238 FTQ occupancy: 13.49 DECODE IN: 13768129 DECODE occupancy: 35.1232 ROB IN: 13768085 ROB occupancy: 240.498 ROB OUT: 13768079
Heartbeat CPU 0 instructions: 90000002 cycles: 42951059 heartbeat IPC: 1.38926 cumulative IPC: 1.3811 (Simulation time: 0 hr 15 min 12 sec) 
Cycle: 50000000 FTQ IN: 13956356 FTQ occupancy: 13.4372 DECODE IN: 13956478 DECODE occupancy: 35.1904 ROB IN: 13956538 ROB occupancy: 241.692 ROB OUT: 13956751
Heartbeat CPU 0 instructions: 100000001 cycles: 50110662 heartbeat IPC: 1.39673 cumulative IPC: 1.3842 (Simulation time: 0 hr 17 min 0 sec) 
Finished CPU 0 instructions: 50000000 cycles: 36122063 cumulative IPC: 1.3842 (Simulation time: 0 hr 17 min 0 sec) 

ChampSim completed all CPUs

Region of Interest Statistics

CPU 0 cumulative IPC: 1.3842 instructions: 50000000 cycles: 36122063
 Fetch stage stalled: 52.6905  Sim cycles: 36122063 fetch stall cycle: 19032905
 Empty decode stage: 33.1022  Sim cycles: 36122063 fetch stall cycle: 11957202
ITLB TOTAL     ACCESS:    5873682  HIT:    5375081  MISS:     498601  HIT %:    91.5113  MISS %:    8.48873   MPKI: 9.97202
ITLB LOAD TRANSLATION INSTRUCTION	ACCESS:    5751938  HIT:    5253337  MISS:     498601  HIT %:    91.3316  MISS %:     8.6684  MPKI: 9.97202
ITLB TRANSLATION FROM L1D PREFETCHER INSTRUCTION	ACCESS:     121744  HIT:     121744  MISS:          0  HIT %:        100  MISS %:          0  MPKI: 0

ITLB AVERAGE MISS LATENCY: 9.06463 cycles
ITLB RQ	ACCESS:    8035844	FORWARD:          0	MERGED:    1713541	TO_CACHE:    6322303

DTLB TOTAL     ACCESS:    8993230  HIT:    8521760  MISS:     471470  HIT %:    94.7575  MISS %:     5.2425   MPKI: 9.4294
DTLB LOAD TRANSLATION DATA	ACCESS:    8993230  HIT:    8521760  MISS:     471470  HIT %:    94.7575  MISS %:     5.2425  MPKI: 9.4294

DTLB AVERAGE MISS LATENCY: 9.31784 cycles
DTLB RQ	ACCESS:   13400226	FORWARD:          0	MERGED:    4368259	TO_CACHE:    9031967

STLB TOTAL     ACCESS:    1209540  HIT:    1207304  MISS:       2236  HIT %:    99.8151  MISS %:   0.184864   MPKI: 0.04472
STLB LOAD TRANSLATION INSTRUCTION	ACCESS:     498601  HIT:     498197  MISS:        404  HIT %:     99.919  MISS %:  0.0810267  MPKI: 0.00808
STLB LOAD TRANSLATION DATA	ACCESS:     471470  HIT:     469646  MISS:       1824  HIT %:    99.6131  MISS %:   0.386875  MPKI: 0.03648
STLB TRANSLATION FROM L1D PREFETCHER DATA	ACCESS:     239469  HIT:     239461  MISS:          8  HIT %:    99.9967  MISS %: 0.00334072  MPKI: 0.00016

STLB AVERAGE MISS LATENCY: 67.6431 cycles
STLB RQ	ACCESS:    1312068	FORWARD:          0	MERGED:     102492	TO_CACHE:    1209576

STLB Hit, L1D data hit: 0
STLB Hit, L2C data hit: 0
STLB Hit, LLC data hit: 0
STLB Hit, LLC data miss: 0
STLB STLB hints to L2: 0
L1D TOTAL     ACCESS:   13149458  HIT:   12057096  MISS:    1092362  HIT %:    91.6927  MISS %:    8.30728   MPKI: 21.8472
L1D LOAD DATA	ACCESS:    6586386  HIT:    5863826  MISS:     722560  HIT %:    89.0295  MISS %:    10.9705  MPKI: 14.4512
L1D RFO DATA	ACCESS:    6246944  HIT:    5964409  MISS:     282535  HIT %:    95.4772  MISS %:    4.52277  MPKI: 5.6507
L1D PREFETCH DATA	ACCESS:     316128  HIT:     228861  MISS:      87267  HIT %:     72.395  MISS %:     27.605  MPKI: 1.74534

L1D PREFETCH  REQUESTED:     684373  ISSUED:     684373  USEFUL:      25911  USELESS:      66448
L1D USEFUL LOAD PREFETCHES:      25911 PREFETCH ISSUED TO LOWER LEVEL:      92358  ACCURACY: 28.055
 TIMELY PREFETCHES:      25911 LATE PREFETCHES: 5043 DROPPED PREFETCHES: 5
L1D AVERAGE MISS LATENCY: 145104 cycles
L1D RQ	ACCESS:   10699801	FORWARD:          0	MERGED:    3912131	TO_CACHE:    6620245
L1D WQ	ACCESS:    6978255	FORWARD:     167804	MERGED:     198274	TO_CACHE:    6779981
L1D PQ	ACCESS:     342376	FORWARD:          0	MERGED:          0	TO_CACHE:     341997

L1D UNIQUE REGIONS ACCESSED: 0
L1D REGIONS CONFLICTS: 0
L1D Cross Page Prefetch Requests: 4689
L1D Same Page Prefetch Requests: 703995
L1D ROI Sum of L1D PQ occupancy: 4348103
L1D PREFETCHES PUSHED FROM L2C: 0
L1I TOTAL     ACCESS:    7177355  HIT:    4390410  MISS:    2786945  HIT %:    61.1703  MISS %:    38.8297   MPKI: 55.7389
L1I LOAD INSTRUCTION	ACCESS:    6511913  HIT:    3724968  MISS:    2786945  HIT %:    57.2024  MISS %:    42.7976  MPKI: 55.7389
L1I PREFETCH INSTRUCTION	ACCESS:     665442  HIT:     665442  MISS:          0  HIT %:        100  MISS %:          0  MPKI: 0

L1I PREFETCH  REQUESTED:    1626803  ISSUED:    1626803  USEFUL:          0  USELESS:          0
L1I USEFUL LOAD PREFETCHES:          0 PREFETCH ISSUED TO LOWER LEVEL:          0  ACCURACY: -nan
 TIMELY PREFETCHES:          0 LATE PREFETCHES: 0 DROPPED PREFETCHES: 0
L1I AVERAGE MISS LATENCY: 17.3222 cycles
L1I RQ	ACCESS:    9507794	FORWARD:          0	MERGED:    2663541	TO_CACHE:    6844253
L1I PQ	ACCESS:    1626803	FORWARD:          0	MERGED:     435212	TO_CACHE:    1191591

L1BTB TOTAL     ACCESS:    5667905  HIT:    2012219  MISS:    3655686  HIT %:     35.502  MISS %:     64.498   MPKI: 73.1137
L1BTB BRANCH_DIRECT_JUMP	ACCESS:     550528  HIT:     144154  MISS:     406374	AVERAGE STALL: 50.7106
L1BTB BRANCH_INDIRECT	ACCESS:     183196  HIT:      65835  MISS:     117361	AVERAGE STALL: 106.532
L1BTB BRANCH_CONDITIONAL	ACCESS:    2687837  HIT:    1386131  MISS:    1301706	AVERAGE STALL: 97.7895
L1BTB BRANCH_DIRECT_CALL	ACCESS:     950544  HIT:     104947  MISS:     845597	AVERAGE STALL: 108.111
L1BTB BRANCH_INDIRECT_CALL	ACCESS:     172625  HIT:      21040  MISS:     151585	AVERAGE STALL: 135.322
L1BTB BRANCH_RETURN	ACCESS:    1123175  HIT:     290112  MISS:     833063	AVERAGE STALL: 48.5898
L1BTB BRANCH_OTHER ACCESS:          0  HIT:          0  MISS:          0	AVERAGE STALL: -nan
L1BTB TOTAL ROB OCCUPANCY AT BTB MISS: 1.9259

L2BTB TOTAL     ACCESS:    3630286  HIT:    3575169  MISS:      55117  HIT %:    98.4817  MISS %:    1.51826   MPKI: 1.10234
L2BTB BRANCH_DIRECT_JUMP	ACCESS:     402264  HIT:     399596  MISS:       2668	AVERAGE STALL: 50.7106
L2BTB BRANCH_INDIRECT	ACCESS:     107009  HIT:     104307  MISS:       2702	AVERAGE STALL: 106.532
L2BTB BRANCH_CONDITIONAL	ACCESS:    1301706  HIT:    1301644  MISS:         62	AVERAGE STALL: 97.7895
L2BTB BRANCH_DIRECT_CALL	ACCESS:     845597  HIT:     845562  MISS:         35	AVERAGE STALL: 108.111
L2BTB BRANCH_INDIRECT_CALL	ACCESS:     142069  HIT:     132053  MISS:      10016	AVERAGE STALL: 135.322
L2BTB BRANCH_RETURN	ACCESS:     831641  HIT:     792007  MISS:      39634	AVERAGE STALL: 48.5898
L2BTB BRANCH_OTHER ACCESS:          0  HIT:          0  MISS:          0	AVERAGE STALL: -nan
L2BTB TOTAL ROB OCCUPANCY AT BTB MISS: 127.737

L2C TOTAL     ACCESS:    4489027  HIT:    4020816  MISS:     468211  HIT %:    89.5699  MISS %:    10.4301   MPKI: 9.36422
L2C LOAD INSTRUCTION	ACCESS:    2786945  HIT:    2513079  MISS:     273866  HIT %:    90.1733  MISS %:    9.82675  MPKI: 5.47732
L2C LOAD TRANSLATION INSTRUCTION	ACCESS:        441  HIT:        107  MISS:        334  HIT %:     24.263  MISS %:     75.737  MPKI: 0.00668
L2C LOAD DATA	ACCESS:     717434  HIT:     645706  MISS:      71728  HIT %:    90.0021  MISS %:    9.99785  MPKI: 1.43456
L2C RFO DATA	ACCESS:     282454  HIT:     241623  MISS:      40831  HIT %:    85.5442  MISS %:    14.4558  MPKI: 0.81662
L2C PREFETCH DATA	ACCESS:     177516  HIT:     108894  MISS:      68622  HIT %:    61.3432  MISS %:    38.6568  MPKI: 1.37244
L2C WRITEBACK DATA	ACCESS:     522325  HIT:     510851  MISS:      11474  HIT %:    97.8033  MISS %:    2.19672  MPKI: 0.22948
L2C LOAD TRANSLATION DATA	ACCESS:       1896  HIT:        544  MISS:       1352  HIT %:     28.692  MISS %:     71.308  MPKI: 0.02704
L2C TRANSLATION FROM L1D PREFETCHER DATA	ACCESS:         16  HIT:         12  MISS:          4  HIT %:         75  MISS %:         25  MPKI: 8e-05

L2C PREFETCH  REQUESTED:      91673  ISSUED:      91673  USEFUL:       7806  USELESS:      61262
L2C USEFUL LOAD PREFETCHES:       7806 PREFETCH ISSUED TO LOWER LEVEL:      68997  ACCURACY: 11.3135
 TIMELY PREFETCHES:       7806 LATE PREFETCHES: 375 DROPPED PREFETCHES: 0
L2C AVERAGE MISS LATENCY: 38.369 cycles
L2C RQ	ACCESS:    3789302	FORWARD:          0	MERGED:          0	TO_CACHE:    3789186
L2C WQ	ACCESS:     522325	FORWARD:        116	MERGED:          0	TO_CACHE:     522325
L2C PQ	ACCESS:     184031	FORWARD:          0	MERGED:       2871	TO_CACHE:     181160

L2C Dense regions hint from L2: 0
PSCL5 TOTAL     ACCESS:       4486  HIT:       2243  MISS:       2243  HIT %:         50  MISS %:         50   MPKI: 0.04486
PSCL5 LOAD TRANSLATION INSTRUCTION	ACCESS:       4454  HIT:       2227  MISS:       2227  HIT %:         50  MISS %:         50  MPKI: 0.04454
PSCL5 TRANSLATION FROM L1D PREFETCHER INSTRUCTION	ACCESS:         32  HIT:         16  MISS:         16  HIT %:         50  MISS %:         50  MPKI: 0.00032


PSCL4 TOTAL     ACCESS:       3054  HIT:       1525  MISS:       1529  HIT %:    49.9345  MISS %:    50.0655   MPKI: 0.03058
PSCL4 LOAD TRANSLATION INSTRUCTION	ACCESS:       2797  HIT:       1515  MISS:       1282  HIT %:    54.1652  MISS %:    45.8348  MPKI: 0.02564
PSCL4 TRANSLATION FROM L1D PREFETCHER INSTRUCTION	ACCESS:         20  HIT:         10  MISS:         10  HIT %:         50  MISS %:         50  MPKI: 0.0002
PSCL4 LOAD TRANSLATION DATA	ACCESS:        237  HIT:          0  MISS:        237  HIT %:          0  MISS %:        100  MPKI: 0.00474


PSCL3 TOTAL     ACCESS:       4362  HIT:       2173  MISS:       2189  HIT %:    49.8166  MISS %:    50.1834   MPKI: 0.04378
PSCL3 LOAD TRANSLATION INSTRUCTION	ACCESS:       3479  HIT:       2161  MISS:       1318  HIT %:    62.1156  MISS %:    37.8844  MPKI: 0.02636
PSCL3 TRANSLATION FROM L1D PREFETCHER INSTRUCTION	ACCESS:         21  HIT:         12  MISS:          9  HIT %:    57.1429  MISS %:    42.8571  MPKI: 0.00018
PSCL3 LOAD TRANSLATION DATA	ACCESS:        859  HIT:          0  MISS:        859  HIT %:          0  MISS %:        100  MPKI: 0.01718
PSCL3 TRANSLATION FROM L1D PREFETCHER DATA	ACCESS:          3  HIT:          0  MISS:          3  HIT %:          0  MISS %:        100  MPKI: 6e-05


PSCL2 TOTAL     ACCESS:       4396  HIT:       2153  MISS:       2243  HIT %:    48.9763  MISS %:    51.0237   MPKI: 0.04486
PSCL2 LOAD TRANSLATION INSTRUCTION	ACCESS:       2542  HIT:       2137  MISS:        405  HIT %:    84.0677  MISS %:    15.9323  MPKI: 0.0081
PSCL2 TRANSLATION FROM L1D PREFETCHER INSTRUCTION	ACCESS:         16  HIT:         16  MISS:          0  HIT %:        100  MISS %:          0  MPKI: 0
PSCL2 LOAD TRANSLATION DATA	ACCESS:       1822  HIT:          0  MISS:       1822  HIT %:          0  MISS %:        100  MPKI: 0.03644
PSCL2 TRANSLATION FROM L1D PREFETCHER DATA	ACCESS:         16  HIT:          0  MISS:         16  HIT %:          0  MISS %:        100  MPKI: 0.00032


LLC TOTAL     ACCESS:     518471  HIT:     491271  MISS:      27200  HIT %:    94.7538  MISS %:     5.2462   MPKI: 0.544
LLC LOAD INSTRUCTION	ACCESS:     273866  HIT:     273140  MISS:        726  HIT %:    99.7349  MISS %:   0.265093  MPKI: 0.01452
LLC LOAD TRANSLATION INSTRUCTION	ACCESS:        334  HIT:        310  MISS:         24  HIT %:    92.8144  MISS %:    7.18563  MPKI: 0.00048
LLC LOAD DATA	ACCESS:      71423  HIT:      67940  MISS:       3483  HIT %:    95.1234  MISS %:    4.87658  MPKI: 0.06966
LLC RFO DATA	ACCESS:      40757  HIT:      27811  MISS:      12946  HIT %:    68.2361  MISS %:    31.7639  MPKI: 0.25892
LLC PREFETCH DATA	ACCESS:      68997  HIT:      59365  MISS:       9632  HIT %:      86.04  MISS %:      13.96  MPKI: 0.19264
LLC WRITEBACK DATA	ACCESS:      61738  HIT:      61410  MISS:        328  HIT %:    99.4687  MISS %:   0.531277  MPKI: 0.00656
LLC LOAD TRANSLATION DATA	ACCESS:       1352  HIT:       1291  MISS:         61  HIT %:    95.4882  MISS %:    4.51183  MPKI: 0.00122
LLC TRANSLATION FROM L1D PREFETCHER DATA	ACCESS:          4  HIT:          4  MISS:          0  HIT %:        100  MISS %:          0  MPKI: 0

LLC AVERAGE MISS LATENCY: 155.189 cycles
LLC RQ	ACCESS:     387740	FORWARD:          0	MERGED:          0	TO_CACHE:     387736
LLC WQ	ACCESS:      61738	FORWARD:          4	MERGED:          0	TO_CACHE:      61738
LLC PQ	ACCESS:      68997	FORWARD:          0	MERGED:          0	TO_CACHE:      68997

LLC Dense regions hint to LLC: 0

RAW hits: 1952136
Loads Generated: 12651937
Loads sent to L1D: 10699801
Stores Generated: 6978249
Stores sent to L1D: 6978255
Major fault: 0 Minor fault: 2512
Allocated PAGES: 2512

stream: 
stream:times selected: 1139868
stream:pref_filled: 120988
stream:pref_useful: 22378
stream:pref_late: 4077
stream:misses: 6547
stream:misses_by_poll: 0

CS: 
CS:times selected: 165225
CS:pref_filled: 51349
CS:pref_useful: 28854
CS:pref_late: 3602
CS:misses: 10609
CS:misses_by_poll: 3

CPLX: 
CPLX:times selected: 973399
CPLX:pref_filled: 17934
CPLX:pref_useful: 3525
CPLX:pref_late: 1163
CPLX:misses: 66375
CPLX:misses_by_poll: 0

NL_L1: 
NL:times selected: 13497
NL:pref_filled: 484
NL:pref_useful: 176
NL:pref_late: 143
NL:misses: 575
NL:misses_by_poll: 0

total selections: 2291989
total_filled: 87267
total_useful: 25911
total_late: 9883
total_polluted: 3
total_misses_after_warmup: 756418
conflicts: 5567531

test: 113721

DRAM Statistics
 CHANNEL 0
 RQ ROW_BUFFER_HIT:       9960  ROW_BUFFER_MISS:      16900
 DBUS_CONGESTED:          5
 WQ ROW_BUFFER_HIT:       1261  ROW_BUFFER_MISS:      11308  FULL:          0

 AVG_CONGESTED_CYCLE: 5

CPU 0 Branch Prediction Accuracy: 99.8231% MPKI: 0.32354 Average ROB Occupancy at Mispredict: 193.048
Branch types
NOT_BRANCH: 40857397 81.7148%
BRANCH_DIRECT_JUMP: 550528 1.10106%
BRANCH_INDIRECT: 183196 0.366392%
BRANCH_CONDITIONAL: 6162387 12.3248%
BRANCH_DIRECT_CALL: 950544 1.90109%
BRANCH_INDIRECT_CALL: 172625 0.34525%
BRANCH_RETURN: 1123175 2.24635%
BRANCH_OTHER: 0 0%

DRAM PAGES: 1048576
Allocated PAGES: 2512
Average_ROB_Occupancy: 241.825
Average_Decode_Occupancy: 35.1129
Average_FTQ_Occupancy: 13.4377
Indirect max targets: 14 Average targets: 1.14576
Branch_type:  BRANCH_DIRECT_JUMP:  Count Percentage: 3.80297 6.01754 3.6726 8.84384 2.22938 6.32363 0.581012 68.529 
Branch_type:  BRANCH_INDIRECT:  Count Percentage: 6.1156 3.44168 8.14823 9.68129 3.34602 2.81156 0.937004 65.5186 
Branch_type:  BRANCH_CONDITIONAL:  Count Percentage: 20.6651 3.83628 1.48798 7.5525 2.19096 4.34824 0.533508 59.3854 
Branch_type:  BRANCH_DIRECT_CALL:  Count Percentage: 0.898475 1.30601 0.730927 4.4328 1.93835 2.83946 0.660649 87.1933 
Branch_type:  BRANCH_INDIRECT_CALL:  Count Percentage: 9.56938 0 3.00122 0 0 2.33077 0.997409 84.1012 
Branch_type:  BRANCH_RETURN:  Count Percentage: 4.74901 4.80293 1.02541 3.95663 3.34546 4.97963 0.580715 76.5602 
Branch_type:  BRANCH_DIRECT_JUMP:  Total Count: 41858 66233 40423 97341 24538 69602 6395 754275 
Branch_type:  BRANCH_INDIRECT:  Total Count: 22439 12628 29897 35522 12277 10316 3438 240397 
Branch_type:  BRANCH_CONDITIONAL:  Total Count: 2546323 472701 183347 930608 269967 535784 65738 7317379 
Branch_type:  BRANCH_DIRECT_CALL:  Total Count: 17042 24772 13864 84080 36766 53858 12531 1653857 
Branch_type:  BRANCH_INDIRECT_CALL:  Total Count: 32985 0 10345 0 0 8034 3438 289891 
Branch_type:  BRANCH_RETURN:  Total Count: 106484 107693 22992 88717 75013 111655 13021 1716660 
Number of unique branch instructions: 9734
Upper 32 bits: 
aaaa
ffff
ffff0000
Unique upper 32 bits: 3
Unique upper 36 bits: 3
Unique upper 40 bits: 5
Unique upper 44 bits: 32
Unique upper 48 bits: 153
Offset_3 4016
Offset_4 238
Offset_5 440
Offset_6 494
Offset_7 570
Offset_8 504
Offset_9 459
Offset_10 371
Offset_11 302
Offset_12 266
Offset_13 199
Offset_14 223
Offset_15 184
Offset_16 214
Offset_17 143
Offset_18 118
Offset_19 230
Offset_20 135
Offset_21 235
Offset_22 389
Offset_23 241
Offset_24 328
Offset_25 88
Offset_47 82
decode_dispatch_called: 25807179 71.4444
Dispatch_width: 0 13872116 53.7529 38.4034
Dispatch_width: 1 985686 3.81943 2.72876
Dispatch_width: 2 837657 3.24583 2.31896
Dispatch_width: 3 500425 1.93909 1.38537
Dispatch_width: 4 5841597 22.6356 16.1718
Dispatch_width: 5 146851 0.569032 0.406541
Dispatch_width: 6 3622847 14.0381 10.0295
Empty_decode_cycles: 10314884 28.5556
ROB_full_cycles: 9245668 25.5956
Starvation_cycles_per_kilo_instr: 232.535
Starvation_cycles_per_kilo_instr_3: 172.651
Starvation_cycles_per_kilo_instr_0: 149.413
Branch_type_1  (3,1)  (4,7)  (5,36)  (6,68)  (7,113)  (8,126)  (9,122)  (10,97)  (11,67)  (12,43)  (13,5)  (14,2)  (15,3)  (16,4)  (18,1)  (19,4)  (20,2)  (21,1)  (22,3)  (23,2)  (24,10)  (25,12) 
Branch_type_2  (3,1)  (5,1)  (8,3)  (9,3)  (12,1)  (13,1)  (14,1)  (16,3)  (17,2)  (20,2)  (21,2)  (23,5)  (24,1)  (47,38) 
Branch_type_3  (3,4014)  (4,231)  (5,399)  (6,411)  (7,428)  (8,316)  (9,252)  (10,149)  (11,122)  (12,50)  (13,4) 
Branch_type_4  (6,3)  (7,8)  (8,24)  (9,51)  (10,59)  (11,57)  (12,94)  (13,86)  (14,98)  (15,86)  (16,95)  (17,64)  (18,53)  (19,112)  (20,71)  (21,124)  (22,207)  (23,136)  (24,190)  (25,72) 
Branch_type_5  (8,2)  (9,1)  (10,3)  (11,5)  (12,3)  (13,14)  (14,16)  (15,11)  (16,20)  (17,11)  (18,16)  (19,12)  (20,10)  (21,13)  (22,42)  (23,26)  (24,36) 
Branch_type_6  (5,4)  (6,12)  (7,21)  (8,33)  (9,30)  (10,63)  (11,51)  (12,75)  (13,89)  (14,106)  (15,84)  (16,92)  (17,66)  (18,48)  (19,102)  (20,50)  (21,95)  (22,137)  (23,72)  (24,91)  (25,4)  (47,44) 
Unique trigger count: 
BTB PER SET UNIQUE ADDR: 3 2 2 6 2 2 4 2 2 4 4 3 3 5 5 3 3 4 2 4 2 2 4 5 3 3 4 3 2 4 3 4 2 4 4 2 3 3 4 3 4 3 4 4 1 2 3 3 6 4 3 3 3 2 2 3 4 2 4 6 3 3 2 4 4 1 3 4 3 3 3 2 3 5 3 3 4 2 4 4 4 4 3 4 2 5 3 4 4 2 4 3 5 3 3 1 5 3 3 4 3 3 3 3 5 4 3 4 3 3 4 2 2 2 3 2 4 3 4 4 3 5 3 4 3 3 2 4 5 2 4 2 3 3 3 4 2 2 2 6 4 3 3 5 3 3 4 2 4 3 4 2 3 4 3 5 4 3 6 4 4 2 3 3 2 2 1 3 3 3 3 4 5 4 3 4 2 3 3 3 2 2 3 3 3 2 4 3 5 4 3 3 4 2 2 3 4 3 2 2 3 2 4 4 1 5 3 3 2 3 3 3 5 4 3 5 4 3 4 3 4 3 4 2 3 4 3 2 3 4 1 4 4 2 3 4 3 5 4 4 3 5 5 3 4 3 3 3 3 3 2 3 3 3 3 5 3 4 4 3 4 4 4 4 3 4 3 4 2 3 4 2 4 4 4 4 4 3 3 3 4 4 3 5 3 6 4 3 3 4 3 6 4 2 3 4 4 3 3 3 4 2 3 3 3 4 4 4 4 2 4 3 4 3 3 3 3 3 2 2 4 3 4 3 5 4 2 2 4 4 2 2 2 4 2 3 3 3 4 4 4 4 3 2 4 3 2 2 3 3 3 3 3 3 3 4 4 4 4 3 4 4 3 4 2 4 5 3 3 2 4 3 3 4 2 3 3 4 4 3 3 4 2 3 3 4 4 4 5 2 4 3 3 4 2 3 3 2 2 3 3 3 3 2 3 4 4 3 4 3 3 2 2 5 4 3 4 3 4 2 4 3 2 4 4 3 4 2 3 2 4 3 3 3 2 2 3 2 2 4 2 3 1 2 3 1 4 2 3 3 3 2 4 5 4 4 3 3 3 4 3 3 3 3 3 3 3 2 4 4 3 3 5 4 3 4 2 2 4 4 5 3 3 3 1 3 3 4 4 4 3 3 3 3 3 5 3 3 3 4 3 3 4 2 4 3 2 3 2 4 4 2 3 3 2 6 4 2 3 4 2 3 2 3 4 4 1 5 4 3 2 4 4 3 3 5 2 2 4 2 3 4 4 5 2 4 5 4 3 2 3 5 3 4 3 4 5 1 4 2 3 3 3 4 2 2 3 4 3 3 3 3 1 4 2 4 3 3 4 3 2 3 4 4 4 3 3 2 3 3 3 3 3 3 5 4 3 3 4 3 2 3 3 2 2 3 3 3 2 1 5 3 3 4 2 3 4 4 4 4 4 1 5 3 4 4 2 4 5 4 2 3 3 4 3 2 3 4 5 3 3 5 1 3 5 3 2 3 2 2 4 4 4 3 3 5 3 4 3 3 3 3 4 5 3 5 3 3 4 5 5 3 3 4 3 3 4 4 4 3 3 3 3 5 4 3 3 4 3 3 3 3 4 3 3 3 3 3 4 4 3 2 4 2 5 5 2 2 2 4 3 3 3 3 4 3 3 2 4 4 4 4 2 4 4 3 5 3 1 3 3 4 3 3 3 4 3 4 6 5 2 3 5 3 3 3 4 4 3 3 5 5 3 3 3 3 2 3 2 2 4 2 3 3 3 4 2 2 2 3 3 3 3 4 3 4 3 5 2 5 4 3 3 4 5 3 3 4 3 4 3 4 3 3 2 4 3 2 6 2 5 3 3 2 4 3 3 3 3 3 4 2 1 4 2 3 4 2 5 4 5 4 4 4 2 2 3 2 3 3 4 3 3 3 4 5 4 5 2 3 2 3 3 3 4 2 3 5 2 3 3 3 2 4 4 3 3 2 2 3 2 4 3 3 4 4 3 2 4 4 3 2 6 3 3 4 3 3 3 3 4 3 3 4 3 3 4 3 1 0 4 3 2 4 2 3 3 2 3 3 3 2 3 4 2 2 5 3 3 3 3 3 4 3 5 4 2 2 3 3 3 2 3 4 2 3 4 2 4 4 4 5 4 4 2 3 5 4 2 4 3 3 3 4 3 2 3 3 5 4 6 3 3 3 3 3 3 3 4 2 3 4 3 3 4 2 4 3 2 4 2 2 1 3 4 6 2 2 3 3 3 3 3 4 3 3 4 3 5 3 3 2 4 3 4 4 3 4 2 3 4 3 4 3 4 4 4 3 3 3 3 3 3 4 4 3 3 3 3 4 2 3 3 3 5 3 3 4 4 2 3 4 3 2 4 4 2 3 2 3 4 3 3 4 5 3 3 3 3 3 5 3 4 4 2 2 5 3 3 4 5 2 4 2 3 2 3 4 4 3 4 3 3 4 3 4 3 5 5 3 3 3 4 2 4 2 3 3 1 3 3 3 2 5 4 2 4 5 3 2 4 3 5 4 3 4 3 4 3 3 2 3 3 3 5 3 5 4 2 4 3 3 2 2 4 3 4 5 3 3 2 3 4 2 2 3 4 2 3 3 4 3 3 2 2 3 3 4 4 3 3 2 3 4 3 1 3 3 3 3 3 5 3 2 2 2 3 4 3 3 3 2 4 4 1 3 5 3 3 5 2 3 4 3 3 4 6 2 4 3 6 2 3 2 2 3 3 3 4 2 3 3 1 4 4 3 4 1 3 2 3 4 4 4 3 4 5 3 3 4 4 2 3 3 2 3 3 3 4 2 4 2 2 2 4 3 3 3 5 4 3 3 5 3 2 5 4 2 4 4 2 4 4 2 4 1 2 4 2 3 3 4 4 4 2 3 3 4 2 3 4 4 2 2 2 3 4 3 4 2 4 4 4 3 2 3 3 1 4 5 3 4 4 3 4 4 4 4 3 2 5 2 3 3 4 3 4 3 4 4 2 4 4 2 3 4 4 3 3 5 4 2 4 4 5 3 3 2 3 3 3 5 3 4 2 4 2 4 4 4 3 2 3 3 6 3 3 3 6 2 4 3 4 3 4 3 3 3 5 3 3 4 4 2 3 2 3 4 4 4 3 4 2 3 3 3 5 3 4 4 4 3 4 3 3 4 3 4 3 3 4 4 2 2 2 3 6 3 3 2 4 5 4 3 1 4 5 3 5 4 3 3 4 2 3 2 2 5 2 4 3 2 4 4 3 4 3 4 5 5 2 3 2 4 5 4 3 2 3 3 3 4 3 2 4 4 5 3 2 2 3 4 3 3 2 3 2 2 3 5 3 3 3 2 4 3 3 2 2 4 4 1 3 2 5 3 3 3 3 5 4 4 2 4 4 3 4 2 3 4 2 5 2 2 6 4 3 4 3 4 4 5 3 3 4 2 4 3 3 4 4 3 4 2 3 4 5 5 4 3 3 3 2 3 3 2 2 3 4 4 3 3 5 2 3 3 6 2 2 4 3 3 3 2 3 3 2 3 3 1 3 3 3 5 1 2 3 4 3 2 3 2 2 3 1 2 2 5 4 4 3 3 4 2 2 3 4 3 3 3 2 1 2 5 4 3 4 3 3 3 3 2 4 2 3 3 2 3 2 4 4 5 2 2 4 3 3 3 3 3 4 4 4 4 4 4 4 3 2 4 2 5 3 2 3 4 4 3 2 4 3 4 3 3 4 3 5 2 4 5 2 3 5 3 4 3 4 3 3 3 5 3 3 2 3 3 5 4 3 4 3 2 3 4 3 3 3 4 3 2 4 3 3 2 3 4 2 2 4 3 4 3 3 2 1 2 4 4 4 3 2 3 4 2 2 3 3 4 5 3 2 4 3 2 3 3 4 3 4 4 4 3 3 3 3 4 3 2 4 4 3 2 5 1 3 4 4 4 2 1 4 3 3 3 4 5 4 3 3 5 4 5 4 5 1 4 4 4 3 4 4 3 2 2 4 4 2 3 2 3 3 2 5 3 3 3 4 3 2 2 3 3 3 4 2 5 3 4 3 3 3 4 2 5 2 3 4 3 4 1 3 3 3 3 4 3 3 3 3 3 4 3 4 3 3 3 4 2 3 3 3 5 4 3 4 2 4 4 3 3 2 5 3 2 3 3 4 3 4 2 3 3 3 2 5 4 3 4 4 4 3 2 3 4 4 2 2 4 2 2 3 3 5 3 2 3 4 4 3 4 2 3 4 3 2 3 2 4 4 1 3 4 5 3 2 3 3 4 4 5 1 4 3 3 3 3 3 3 3 3 2 4 2 3 2 4 3 5 3 3 2 2 3 3 2 5 2 1 3 3 4 5 3 3 3 2 3 4 3 4 4 2 3 3 3 3 2 4 3 3 3 1 3 3 3 5 4 4 3 2 4 3 3 3 3 4 5 1 3 2 4 4 2 3 4 4 4 3 3 4 4 3 4 3 3 4 4 5 3 4 3 4 5 3 3 3 4 2 1 6 2 4 3 4 5 3 2 2 3 2 3 4 3 3 4 3 2 3 1 3 4 3 4 3 4 4 3 1 4 3 1 6 4 4 4 3 3 3 3 3 6 5 3 3 3 2 4 4 3 3 3 4 4 4 3 4 4 5 4 4 3 2 4 3 1 3 4 4 
BTB PER SET COUNT: 3 1480 1479 6 2 2 4 2 2 490 47 3 3 974 6 3 3 4 2 4 2 2 4 7 489 4 4 3 2 509 3 4 2 995 489 2 3 3 4 3 4 3 4 5 1 2 490 3 7 4 3 3 4 2 2 3 4 972 4 6 994 4 2 1944 4 1 4 4 3 3 4 2 3 7 3 170 4 2 5 4 5 4 5 5 2 5 4 4 489 2 4 11 5 3 3 1 5 3 3 5 4 4 3 3 6 4 3 5 3 3 4 2 2 2 4 2 4 3 4 1481 4 5 1491 4 3 3 3 4 431 2 4 2 4 3 3 6 2 2 2 8 5 3 3 5 3 3 4 2 5 14 4 508 3 90 3 997 4 3 6 4 4 2 3 3 2 2 1 3 3 3 3 4 113 5 4 4 2 3 3 3 3 2 4 3 3 2 4 3 5 4 3 3 4 2 2 3 4 3 1479 2 4 1481 4 4 1 5 6 3 2 3 6 5 654 6 3 8 4 488 4 3 4 3 4 4 3 4 3 2 643 4 274 4 4 2 3 4 3 12 4 4 3 5 5 3 4 3 7830 92 3 3 2 3 3 3 3 7 3 4 5 3 4 4 4 4 3 5 4 4 2 5 4 2 5 4 4 4 4 3 6 3 5 5 3 5 3 6 4 3 3 4 3 6 5 2 3 5 4 3 3 3 4 2 1481 3 3 4 4 4 4 2 4 3 4 3 3 3 3 3 2 2 4 3 5 3 6 6 2 2 5 4 2 2 2 4 2 3 3 3 4 4 4 4 3 2 4 3 2 2 3 3 3 3 3 3 3 371 4 4 4 14 4 5 3 4 2 2474 5 3 994 2 5 3 1480 4 2 3 3 4 4 3 5 7 2 3 4 4 6 4 5 2 4 3 3 4 2 3 1362 2 2 5 3 3 3 2 3 4 4 3 5 3 3 2 3 5 4 3 4 3 4 2 4 3 2 4 5 3 6 3 171 2 4 3 3 3 2 3 3 2 2 4 2 3 1 2 380 1 1482 26 3 6 3 973 4 5 4 4 3 4 973 4 974 3 3 3 5 3 3 2 995 4 3 35 5 4 994 4 2 2 4 4 5 3 3 3 1 3 3 4 5 4 994 4 3 3 3 996 3 3 3 4 3 3 4 3 4 3 2 3 2 4 4 2 975 3 3 6 4 488 3 5 2 3 2 3 4 5 1 5 4 3 1479 4 4 6 4 5 2 2 5 2 3 4 4 5 2 1481 5 4 3 2 3 6 974 4 3 4 490 1 4 2 974 3 3 5 2 2 974 4 974 3 3 3 1 4 2 4 3 1241 4 3 3 3 4 4 7 3 4 2 3 4 3 3 3 974 325 4 3 3 4 3 2 3 974 2 3 3 974 3 2 1 5 3 994 4 2 3 4 4 14783 4 4 1 401 5 4 4 4 4 6 4 972 3 3 4 5 2 3 4 507 3 3 5 1 4 6 3 2 3 2 2 5 4 4 4 3 5 3 5 3 3 4 3 4 5 3 5 3 3 4 6 5 4 3 2957 3 3 4 4 4 3 3 3 3 6 4 3 3 1481 3 3 4 3 4 4 3 4 4 3 4 4 3 2 4 2 5 7 2 2 2 4 3 3 3 4 4 488 3 2 4 6 4 4 2 5 5 3 5 3 1 3 3 4 3 3 3 4 3 5 6 7 4 3 7 3 3 3 4 4 4 3 5 10 3 3 3 3 3 3 207 2 5 2 3 29 3 5 2 488 2 3 6 3 3 4 3 4 3 5 2 6 4 3 3 5 320 3 3 5 3 4 4 4 3 3 3 996 3 2 7 2 5 3 5 2 4 3 3 4 3 3 4 2 2 4 2 3 4 2 5 4 8 4 996 4 2 2 3 2 3 494 4 3 3 3 4 5 4 7 2 3 2 3 3 3 4 2 3 7 3 994 3 3 2 6 4 3 3 2 2 3 2 5 3 3 4 4 3 2 5 4 3 2 6 3 3 4 3 3 3 3 4 3 3 4 3 3 4 3 1 0 1481 3 2 4 2 3 370 2 3 3 3 2 3 975 2 2 6 4 3 3 3 3 4 3 5 4 2 2 3 3 488 993 4 5 2 3 242 2 4 4 5 8 4 5 2 3 5 5 2 4 3 3 3 11 3 2 3 3 5 4 6 3 4 3 489 3 3 3 1945 2 3 4 3 3 4 2 489 3 2 12 2 2 1 5 6 6 2 2 3 5 3 3 3 4 3 4 5 41 7 3 4 3 4 3 4 4 3 4 2 3 4 3 5 3 4 5 4 3 3 3 3 3 4 4 4 3 3 3 3 4 2 3 4 3 7 3 3 4 7 2 3 4 3 2 4 4 2 4 2 3 4 488 3 4 6 3 489 3 3 3 5 3 4 4 2 2 5 3 1480 6 6 2 5 2 3 3 3 4 4 3 5 3 3 4 128 5 10 5 5 3 3 3 5 3 36 2 5 61 1 3 3 3 2 10 4 3 15 5 3 2 4 3 7 4 370 211 75 4 3 3 2 3 3 3 5 3 5 17 2 4 213 3 2 2 4 3 4 5 3 3 2 3 4 2 2 3 5 2 4 3 4 20687 3 2 2 6 3 4 4 3 3 2 4 4 3 1 3 4 3 3 3 5 3 2 2 2 3 4 3 3 489 3 4 5 1 3 5 3 4 5 2 3 4 3 259 4 6 2 6 3 6 2 3 2 1996 3 3 3 4 2 3 3 1 4 4 3 4 1 3 369 1480 4 4 1481 994 7 5 3 3 4 5 2 3 4 2 3 3 3 4 2 4 2 2 2 4 3 3 3 5 4 4 11 6 3 2 5 1481 2 4 4 2 4 4 2 4 1 2 4 2 3 3 4 4 4 3 4 3 4 2 3 4 4 2 2 3 3 6 3 5 2 4 121 4 5 2 3 3 1 4 7 3 4 4 3 4 10 4 4 3 2 7 2 3 3 4 9 5 3 4 4 2 4 4 2 3 4 7 3 3 6 4 3 4 4 7 3 3 1479 3 1480 3 5 4 7 2 4 2 5 4 371 3 2 3 3 9 3 1972 3 53 2 2963 3 4 370 1016 3 10 3 7 3 3 4 4 2 3 2 3 5 4 4 3 4 2 3 3 994 5 3 5 490 4 3 4 3 3 4 3 5 3 3 4 4 3 2 2 3 7 3 3 2 4 5 4 3 2 4 6 3 5 4 3 3 4 2 3 2 2 6 2 4 3 2 4 4 3 6 4 4 5 19 2 3 2 1988 7 9 3 2 3 3 3 4 4 2 4 4 6 3 2 3 3 56 3 3 2 3 2 2 3 5 3 3 3 2 5 3 4 2 2 4 4 1 3 3 6 4 3 3 7 5 4 5 2 5 5 3 4 2 3 4 2 5 2 2 6 4 3 4 3 4 244 6 3 3 4 2 4 3 3 5 4 3 4 2 3 491 5 5 6 3 4 3 2 3 3 2 2 3 995 4 3 3 5 2 3 3 6 2 3 5 3 3 3 2 3 4 2 3 3 1 3 3 3 6 1 2 3 4 3 2 3 2 2 4 1 2 3 492 4 5 3 3 8 2 2 3 4 3 3 1480 2 1 43 5 13 3 5 3 3 3 3 2 5 2 3 4 2 3 2 5 4 5 2 4 4 3 4 3 3 3 200 4 5 4 4 4 5 3 973 5 2 5 3 2 3 4 4 3 2 4 3 4 3 3 5 3 5 2 4 5 2 3 6 5 4 3 5 3 3 3 5 3 3 2 7 3 5 5 3 6 3 2 3 4 3 3 3 5 3 2 4 3 3 2 4 4 3 2 4 3 4 3 3 2 1 2 4 4 237 3 2 3 4 2 2 4 3 4 5 3 2 4 3 2 3 3 186 3 4 4 4 3 3 3 3 4 3 2 4 4 3 2 7 1 4 4 510 4 2 971 4 3 5 3 155 5 5 4 3 5 4 9 4 5 1 4 156 4 3 4 4 3 2 2 5 4 2 3 2 4 3 2 6 5 4 3 5 3 2 2 5 3 3 5 2 5 3 5 3 489 3 4 2 5 2 3 126 3 4 1 3 3 3 4 6 3 3 3 3 3 4 3 995 3 3 3 4 2 3 3 3 5 4 3 7 2 4 4 4 3 2 5 3 993 4 3 4 3 4 2 489 3 3 608 6 4 3 4 4 115 237 2 3 4 5 1479 2 4 2 2 3 995 5 3 5 3 4 6 1481 4 2 3 4 3 2 3 2 4 11 3 3 5 10 3 2 3 3 995 4 6 1 4 3 3 3 3 3 3 3 3 2 4 2 4 2 161 3 6 1480 3 2 2 3 3 2 7 2 1 3 3 4 5 4 3 3 2 3 4 3 4 4 2 3 4 3 3 2 4 3 3 6 1 3 3 4 5 5 4 4 2 4 3 3 27 3 4 7 1 3 2 5 6 2 26 4 4 4 3 3 4 447 3 4 3 3 4 4 6 3 4 3 30 7 3 3880 3 4 2 486 7 2 4 3 5 5 3 2 3 3 2 3 4 6 3 4 3 2 4 1 4 4 3 4 3 5 4 1362 1 5 3 1 10 5 4 5 3 3 3 3 1480 7 5 3 1480 3 2 4 5 3 3 3 4 4 4 3 4 6 6 5 4 3 2 4 3 2 3 4 723 
