
*** ChampSim Multicore Out-of-Order Simulator ***

Warmup Instructions: 50000000
Simulation Instructions: 50000000
Number of CPUs: 1
LLC sets: 2048
LLC ways: 16
Off-chip DRAM Size: 4096 MB Channels: 1 Width: 64-bit Data Rate: 6400 MT/s
CPU 0 runs ./micro_traces/srv292.trace.gz
.gz
ITLB has LRU replacement policy
DTLB has LRU replacement policy
STLB has LRU replacement policy
L1I has LRU replacement policy
L1D has LRU replacement policy
Initialize SRRIP state for L2C
Initialize DRRIP state for LLC
Heartbeat_Variant_0 : 1297 0.31665 per_variant_size: 0 1297 0 0 0 0 0 0 0 
Heartbeat_Variant_1 : 1188 0.290039 per_variant_size: 0 592 596 0 0 0 0 0 0 
Heartbeat_Variant_2 : 1279 0.312256 per_variant_size: 0 531 362 214 172 0 0 0 0 
Heartbeat_Variant_3 : 0 0 per_variant_size: 0 0 0 0 0 0 0 0 0 
Heartbeat_Variant_0_evicts 0 : 5690 1 : 179 2 : 176 3 : 0 
Heartbeat_Variant_1_evicts 0 : 183 1 : 0 2 : 338 3 : 0 
Heartbeat_Variant_2_evicts 0 : 162 1 : 336 2 : 0 3 : 0 
Heartbeat_Variant_3_evicts 0 : 0 1 : 0 2 : 0 3 : 0 
Heartbeat CPU 0 instructions: 10000002 cycles: 2799712 heartbeat IPC: 3.5718 cumulative IPC: 3.5718 (Simulation time: 0 hr 1 min 16 sec) 
Heartbeat_Variant_0 : 1344 0.328125 per_variant_size: 0 1344 0 0 0 0 0 0 0 
Heartbeat_Variant_1 : 1230 0.300293 per_variant_size: 0 572 658 0 0 0 0 0 0 
Heartbeat_Variant_2 : 1331 0.324951 per_variant_size: 0 516 378 229 208 0 0 0 0 
Heartbeat_Variant_3 : 0 0 per_variant_size: 0 0 0 0 0 0 0 0 0 
Heartbeat_Variant_0_evicts 0 : 5724 1 : 114 2 : 127 3 : 0 
Heartbeat_Variant_1_evicts 0 : 112 1 : 0 2 : 317 3 : 0 
Heartbeat_Variant_2_evicts 0 : 122 1 : 317 2 : 0 3 : 0 
Heartbeat_Variant_3_evicts 0 : 0 1 : 0 2 : 0 3 : 0 
Heartbeat CPU 0 instructions: 20000003 cycles: 5598646 heartbeat IPC: 3.57279 cumulative IPC: 3.57229 (Simulation time: 0 hr 2 min 37 sec) 
Heartbeat_Variant_0 : 1346 0.328613 per_variant_size: 0 1346 0 0 0 0 0 0 0 
Heartbeat_Variant_1 : 1246 0.304199 per_variant_size: 0 592 654 0 0 0 0 0 0 
Heartbeat_Variant_2 : 1341 0.327393 per_variant_size: 0 523 387 234 197 0 0 0 0 
Heartbeat_Variant_3 : 0 0 per_variant_size: 0 0 0 0 0 0 0 0 0 
Heartbeat_Variant_0_evicts 0 : 5776 1 : 70 2 : 101 3 : 0 
Heartbeat_Variant_1_evicts 0 : 79 1 : 0 2 : 278 3 : 0 
Heartbeat_Variant_2_evicts 0 : 94 1 : 279 2 : 0 3 : 0 
Heartbeat_Variant_3_evicts 0 : 0 1 : 0 2 : 0 3 : 0 
Heartbeat CPU 0 instructions: 30000003 cycles: 8397800 heartbeat IPC: 3.57251 cumulative IPC: 3.57236 (Simulation time: 0 hr 3 min 54 sec) 
Heartbeat_Variant_0 : 1361 0.332275 per_variant_size: 0 1361 0 0 0 0 0 0 0 
Heartbeat_Variant_1 : 1261 0.307861 per_variant_size: 0 600 661 0 0 0 0 0 0 
Heartbeat_Variant_2 : 1362 0.33252 per_variant_size: 0 530 398 237 197 0 0 0 0 
Heartbeat_Variant_3 : 0 0 per_variant_size: 0 0 0 0 0 0 0 0 0 
Heartbeat_Variant_0_evicts 0 : 5705 1 : 107 2 : 132 3 : 0 
Heartbeat_Variant_1_evicts 0 : 102 1 : 0 2 : 319 3 : 0 
Heartbeat_Variant_2_evicts 0 : 134 1 : 316 2 : 0 3 : 0 
Heartbeat_Variant_3_evicts 0 : 0 1 : 0 2 : 0 3 : 0 
Heartbeat CPU 0 instructions: 40000003 cycles: 11196020 heartbeat IPC: 3.5737 cumulative IPC: 3.5727 (Simulation time: 0 hr 5 min 15 sec) 
Heartbeat_Variant_0 : 1369 0.334229 per_variant_size: 0 1369 0 0 0 0 0 0 0 
Heartbeat_Variant_1 : 1259 0.307373 per_variant_size: 0 598 661 0 0 0 0 0 0 
Heartbeat_Variant_2 : 1364 0.333008 per_variant_size: 0 534 397 234 199 0 0 0 0 
Heartbeat_Variant_3 : 0 0 per_variant_size: 0 0 0 0 0 0 0 0 0 
Heartbeat_Variant_0_evicts 0 : 5632 1 : 32 2 : 38 3 : 0 
Heartbeat_Variant_1_evicts 0 : 27 1 : 0 2 : 238 3 : 0 
Heartbeat_Variant_2_evicts 0 : 35 1 : 239 2 : 0 3 : 0 
Heartbeat_Variant_3_evicts 0 : 0 1 : 0 2 : 0 3 : 0 
Heartbeat CPU 0 instructions: 50000000 cycles: 13993760 heartbeat IPC: 3.57431 cumulative IPC: 3.57302 (Simulation time: 0 hr 6 min 34 sec) 

Warmup complete CPU 0 instructions: 50000004 cycles: 13993761 (Simulation time: 0 hr 6 min 34 sec) 

Cycle: 20000000 FTQ IN: 55606756 FTQ occupancy: 16.0258 DECODE IN: 55606738 DECODE occupancy: 9.52985 ROB IN: 55606738 ROB occupancy: 260.679 ROB OUT: 55606725
Heartbeat_Variant_0 : 1369 0.334229 per_variant_size: 0 1369 0 0 0 0 0 0 0 
Heartbeat_Variant_1 : 1256 0.306641 per_variant_size: 0 598 658 0 0 0 0 0 0 
Heartbeat_Variant_2 : 1369 0.334229 per_variant_size: 0 542 396 233 198 0 0 0 0 
Heartbeat_Variant_3 : 0 0 per_variant_size: 0 0 0 0 0 0 0 0 0 
Heartbeat_Variant_0_evicts 0 : 5641 1 : 19 2 : 20 3 : 0 
Heartbeat_Variant_1_evicts 0 : 20 1 : 0 2 : 210 3 : 0 
Heartbeat_Variant_2_evicts 0 : 20 1 : 215 2 : 0 3 : 0 
Heartbeat_Variant_3_evicts 0 : 0 1 : 0 2 : 0 3 : 0 
Heartbeat CPU 0 instructions: 60000003 cycles: 24810159 heartbeat IPC: 0.924522 cumulative IPC: 0.924522 (Simulation time: 0 hr 7 min 43 sec) 
Cycle: 30000000 FTQ IN: 9142594 FTQ occupancy: 15.3799 DECODE IN: 9142594 DECODE occupancy: 4.98693 ROB IN: 9142592 ROB occupancy: 58.3055 ROB OUT: 9142543
Heartbeat_Variant_0 : 1381 0.337158 per_variant_size: 0 1381 0 0 0 0 0 0 0 
Heartbeat_Variant_1 : 1272 0.310547 per_variant_size: 0 595 677 0 0 0 0 0 0 
Heartbeat_Variant_2 : 1374 0.335449 per_variant_size: 0 532 381 249 212 0 0 0 0 
Heartbeat_Variant_3 : 0 0 per_variant_size: 0 0 0 0 0 0 0 0 0 
Heartbeat_Variant_0_evicts 0 : 5752 1 : 174 2 : 180 3 : 0 
Heartbeat_Variant_1_evicts 0 : 176 1 : 0 2 : 378 3 : 0 
Heartbeat_Variant_2_evicts 0 : 175 1 : 378 2 : 0 3 : 0 
Heartbeat_Variant_3_evicts 0 : 0 1 : 0 2 : 0 3 : 0 
Heartbeat CPU 0 instructions: 70000003 cycles: 35722451 heartbeat IPC: 0.916398 cumulative IPC: 0.920442 (Simulation time: 0 hr 8 min 56 sec) 
Cycle: 40000000 FTQ IN: 9226214 FTQ occupancy: 15.3028 DECODE IN: 9226218 DECODE occupancy: 4.98359 ROB IN: 9226208 ROB occupancy: 56.6242 ROB OUT: 9226237
Heartbeat_Variant_0 : 1381 0.337158 per_variant_size: 0 1381 0 0 0 0 0 0 0 
Heartbeat_Variant_1 : 1274 0.311035 per_variant_size: 0 593 681 0 0 0 0 0 0 
Heartbeat_Variant_2 : 1372 0.334961 per_variant_size: 0 532 376 256 208 0 0 0 0 
Heartbeat_Variant_3 : 0 0 per_variant_size: 0 0 0 0 0 0 0 0 0 
Heartbeat_Variant_0_evicts 0 : 5645 1 : 3 2 : 2 3 : 0 
Heartbeat_Variant_1_evicts 0 : 3 1 : 0 2 : 206 3 : 0 
Heartbeat_Variant_2_evicts 0 : 2 1 : 204 2 : 0 3 : 0 
Heartbeat_Variant_3_evicts 0 : 0 1 : 0 2 : 0 3 : 0 
Heartbeat CPU 0 instructions: 80000000 cycles: 46448353 heartbeat IPC: 0.932322 cumulative IPC: 0.924368 (Simulation time: 0 hr 10 min 8 sec) 
Cycle: 50000000 FTQ IN: 9195603 FTQ occupancy: 15.388 DECODE IN: 9195599 DECODE occupancy: 5.00454 ROB IN: 9195611 ROB occupancy: 58.4365 ROB OUT: 9195556
Heartbeat_Variant_0 : 1384 0.337891 per_variant_size: 0 1384 0 0 0 0 0 0 0 
Heartbeat_Variant_1 : 1287 0.314209 per_variant_size: 0 576 711 0 0 0 0 0 0 
Heartbeat_Variant_2 : 1375 0.335693 per_variant_size: 0 515 399 246 215 0 0 0 0 
Heartbeat_Variant_3 : 0 0 per_variant_size: 0 0 0 0 0 0 0 0 0 
Heartbeat_Variant_0_evicts 0 : 5816 1 : 213 2 : 228 3 : 0 
Heartbeat_Variant_1_evicts 0 : 217 1 : 0 2 : 398 3 : 0 
Heartbeat_Variant_2_evicts 0 : 223 1 : 397 2 : 0 3 : 0 
Heartbeat_Variant_3_evicts 0 : 0 1 : 0 2 : 0 3 : 0 
Heartbeat CPU 0 instructions: 90000001 cycles: 57427209 heartbeat IPC: 0.910842 cumulative IPC: 0.920949 (Simulation time: 0 hr 11 min 21 sec) 
Cycle: 60000000 FTQ IN: 9228526 FTQ occupancy: 15.2952 DECODE IN: 9228526 DECODE occupancy: 4.97886 ROB IN: 9228526 ROB occupancy: 56.3685 ROB OUT: 9228587
Heartbeat_Variant_0 : 1385 0.338135 per_variant_size: 0 1385 0 0 0 0 0 0 0 
Heartbeat_Variant_1 : 1297 0.31665 per_variant_size: 0 564 733 0 0 0 0 0 0 
Heartbeat_Variant_2 : 1374 0.335449 per_variant_size: 0 488 402 255 229 0 0 0 0 
Heartbeat_Variant_3 : 0 0 per_variant_size: 0 0 0 0 0 0 0 0 0 
Heartbeat_Variant_0_evicts 0 : 5792 1 : 132 2 : 143 3 : 0 
Heartbeat_Variant_1_evicts 0 : 139 1 : 0 2 : 321 3 : 0 
Heartbeat_Variant_2_evicts 0 : 136 1 : 326 2 : 0 3 : 0 
Heartbeat_Variant_3_evicts 0 : 0 1 : 0 2 : 0 3 : 0 
Heartbeat CPU 0 instructions: 100000000 cycles: 68315653 heartbeat IPC: 0.918405 cumulative IPC: 0.920439 (Simulation time: 0 hr 12 min 28 sec) 
Finished CPU 0 instructions: 50000000 cycles: 54321893 cumulative IPC: 0.920439 (Simulation time: 0 hr 12 min 28 sec) 

ChampSim completed all CPUs

Region of Interest Statistics

CPU 0 cumulative IPC: 0.920439 instructions: 50000000 cycles: 54321893
 Fetch stage stalled: 22.2342  Sim cycles: 54321893 fetch stall cycle: 12078065
 Empty decode stage: 68.2369  Sim cycles: 54321893 fetch stall cycle: 37067573
ITLB TOTAL     ACCESS:    7294057  HIT:    6799857  MISS:     494200  HIT %:    93.2246  MISS %:    6.77538   MPKI: 9.884
ITLB LOAD TRANSLATION INSTRUCTION	ACCESS:    7294057  HIT:    6799857  MISS:     494200  HIT %:    93.2246  MISS %:    6.77538  MPKI: 9.884

ITLB AVERAGE MISS LATENCY: 9.06971 cycles
ITLB RQ	ACCESS:    8371753	FORWARD:          0	MERGED:     869196	TO_CACHE:    7502557

DTLB TOTAL     ACCESS:   10232448  HIT:    9761544  MISS:     470904  HIT %:    95.3979  MISS %:    4.60207   MPKI: 9.41808
DTLB LOAD TRANSLATION DATA	ACCESS:   10232448  HIT:    9761544  MISS:     470904  HIT %:    95.3979  MISS %:    4.60207  MPKI: 9.41808

DTLB AVERAGE MISS LATENCY: 9.33856 cycles
DTLB RQ	ACCESS:   14408618	FORWARD:          0	MERGED:    4147075	TO_CACHE:   10261543

STLB TOTAL     ACCESS:    1223497  HIT:    1221071  MISS:       2426  HIT %:    99.8017  MISS %:   0.198284   MPKI: 0.04852
STLB LOAD TRANSLATION INSTRUCTION	ACCESS:     494200  HIT:     493730  MISS:        470  HIT %:    99.9049  MISS %:  0.0951032  MPKI: 0.0094
STLB LOAD TRANSLATION DATA	ACCESS:     470854  HIT:     468925  MISS:       1929  HIT %:    99.5903  MISS %:   0.409681  MPKI: 0.03858
STLB TRANSLATION FROM L1D PREFETCHER DATA	ACCESS:     258443  HIT:     258416  MISS:         27  HIT %:    99.9896  MISS %:  0.0104472  MPKI: 0.00054

STLB AVERAGE MISS LATENCY: 72.8495 cycles
STLB RQ	ACCESS:    1337796	FORWARD:          0	MERGED:     114265	TO_CACHE:    1223531

STLB Hit, L1D data hit: 0
STLB Hit, L2C data hit: 0
STLB Hit, LLC data hit: 0
STLB Hit, LLC data miss: 0
STLB STLB hints to L2: 0
L1D TOTAL     ACCESS:   14200440  HIT:   13087066  MISS:    1113374  HIT %:    92.1596  MISS %:    7.84042   MPKI: 22.2675
L1D LOAD DATA	ACCESS:    7548243  HIT:    6816552  MISS:     731691  HIT %:    90.3065  MISS %:    9.69353  MPKI: 14.6338
L1D RFO DATA	ACCESS:    6317022  HIT:    6029278  MISS:     287744  HIT %:    95.4449  MISS %:    4.55506  MPKI: 5.75488
L1D PREFETCH DATA	ACCESS:     335175  HIT:     241236  MISS:      93939  HIT %:    71.9731  MISS %:    28.0269  MPKI: 1.87878

L1D PREFETCH  REQUESTED:     745461  ISSUED:     745461  USEFUL:      34117  USELESS:      67452
L1D USEFUL LOAD PREFETCHES:      34117 PREFETCH ISSUED TO LOWER LEVEL:     101723  ACCURACY: 33.5391
 TIMELY PREFETCHES:      34117 LATE PREFETCHES: 7653 DROPPED PREFETCHES: 4
L1D AVERAGE MISS LATENCY: 293299 cycles
L1D RQ	ACCESS:   11381126	FORWARD:          0	MERGED:    3647065	TO_CACHE:    7581166
L1D WQ	ACCESS:    6953069	FORWARD:     152972	MERGED:     125617	TO_CACHE:    6827452
L1D PQ	ACCESS:     372769	FORWARD:          0	MERGED:          0	TO_CACHE:     372692

L1D UNIQUE REGIONS ACCESSED: 0
L1D REGIONS CONFLICTS: 0
L1D Cross Page Prefetch Requests: 6107
L1D Same Page Prefetch Requests: 750667
L1D ROI Sum of L1D PQ occupancy: 4741226
L1D PREFETCHES PUSHED FROM L2C: 0
L1I TOTAL     ACCESS:    7873633  HIT:    5108791  MISS:    2764842  HIT %:    64.8848  MISS %:    35.1152   MPKI: 55.2968
L1I LOAD INSTRUCTION	ACCESS:    7873633  HIT:    5108791  MISS:    2764842  HIT %:    64.8848  MISS %:    35.1152  MPKI: 55.2968

L1I AVERAGE MISS LATENCY: 17.2532 cycles
L1I RQ	ACCESS:   15740607	FORWARD:          0	MERGED:    7368854	TO_CACHE:    8371753

L1BTB TOTAL     ACCESS:    5672559  HIT:    2043902  MISS:    3628657  HIT %:    36.0314  MISS %:    63.9686   MPKI: 72.5731
L1BTB BRANCH_DIRECT_JUMP	ACCESS:     549331  HIT:     144797  MISS:     404534	AVERAGE STALL: 21.8659
L1BTB BRANCH_INDIRECT	ACCESS:     183301  HIT:      66257  MISS:     117044	AVERAGE STALL: 52.1927
L1BTB BRANCH_CONDITIONAL	ACCESS:    2713578  HIT:    1419569  MISS:    1294009	AVERAGE STALL: 29.8072
L1BTB BRANCH_DIRECT_CALL	ACCESS:     942116  HIT:     104243  MISS:     837873	AVERAGE STALL: 36.3454
L1BTB BRANCH_INDIRECT_CALL	ACCESS:     171051  HIT:      20709  MISS:     150342	AVERAGE STALL: 68.3265
L1BTB BRANCH_RETURN	ACCESS:    1113182  HIT:     288327  MISS:     824855	AVERAGE STALL: 34.9489
L1BTB BRANCH_OTHER ACCESS:          0  HIT:          0  MISS:          0	AVERAGE STALL: -nan
L1BTB TOTAL ROB OCCUPANCY AT BTB MISS: 0.707155

L2BTB TOTAL     ACCESS:    3603166  HIT:    3533834  MISS:      69332  HIT %:    98.0758  MISS %:     1.9242   MPKI: 1.38664
L2BTB BRANCH_DIRECT_JUMP	ACCESS:     400335  HIT:     395473  MISS:       4862	AVERAGE STALL: 21.8659
L2BTB BRANCH_INDIRECT	ACCESS:     106745  HIT:     103998  MISS:       2747	AVERAGE STALL: 52.1927
L2BTB BRANCH_CONDITIONAL	ACCESS:    1294009  HIT:    1287096  MISS:       6913	AVERAGE STALL: 29.8072
L2BTB BRANCH_DIRECT_CALL	ACCESS:     837873  HIT:     835822  MISS:       2051	AVERAGE STALL: 36.3454
L2BTB BRANCH_INDIRECT_CALL	ACCESS:     140753  HIT:     130242  MISS:      10511	AVERAGE STALL: 68.3265
L2BTB BRANCH_RETURN	ACCESS:     823451  HIT:     781203  MISS:      42248	AVERAGE STALL: 34.9489
L2BTB BRANCH_OTHER ACCESS:          0  HIT:          0  MISS:          0	AVERAGE STALL: -nan
L2BTB TOTAL ROB OCCUPANCY AT BTB MISS: 37.0106

L2C TOTAL     ACCESS:    4485905  HIT:    3973948  MISS:     511957  HIT %:    88.5874  MISS %:    11.4126   MPKI: 10.2391
L2C LOAD INSTRUCTION	ACCESS:    2764843  HIT:    2486155  MISS:     278688  HIT %:    89.9203  MISS %:    10.0797  MPKI: 5.57376
L2C LOAD TRANSLATION INSTRUCTION	ACCESS:        528  HIT:        202  MISS:        326  HIT %:    38.2576  MISS %:    61.7424  MPKI: 0.00652
L2C LOAD DATA	ACCESS:     724022  HIT:     654413  MISS:      69609  HIT %:    90.3858  MISS %:    9.61421  MPKI: 1.39218
L2C RFO DATA	ACCESS:     287567  HIT:     221999  MISS:      65568  HIT %:    77.1991  MISS %:    22.8009  MPKI: 1.31136
L2C PREFETCH DATA	ACCESS:     181949  HIT:     109391  MISS:      72558  HIT %:    60.1218  MISS %:    39.8782  MPKI: 1.45116
L2C WRITEBACK DATA	ACCESS:     524923  HIT:     501148  MISS:      23775  HIT %:    95.4708  MISS %:    4.52924  MPKI: 0.4755
L2C LOAD TRANSLATION DATA	ACCESS:       2024  HIT:        608  MISS:       1416  HIT %:    30.0395  MISS %:    69.9605  MPKI: 0.02832
L2C TRANSLATION FROM L1D PREFETCHER DATA	ACCESS:         49  HIT:         32  MISS:         17  HIT %:    65.3061  MISS %:    34.6939  MPKI: 0.00034

L2C PREFETCH  REQUESTED:      87904  ISSUED:      87904  USEFUL:       7782  USELESS:      65289
L2C USEFUL LOAD PREFETCHES:       7782 PREFETCH ISSUED TO LOWER LEVEL:      72818  ACCURACY: 10.6869
 TIMELY PREFETCHES:       7782 LATE PREFETCHES: 260 DROPPED PREFETCHES: 0
L2C AVERAGE MISS LATENCY: 38.0287 cycles
L2C RQ	ACCESS:    3779095	FORWARD:          0	MERGED:          0	TO_CACHE:    3779035
L2C WQ	ACCESS:     524923	FORWARD:         60	MERGED:          0	TO_CACHE:     524923
L2C PQ	ACCESS:     189627	FORWARD:          0	MERGED:       3829	TO_CACHE:     185798

L2C Dense regions hint from L2: 0
PSCL5 TOTAL     ACCESS:       4864  HIT:       2432  MISS:       2432  HIT %:         50  MISS %:         50   MPKI: 0.04864
PSCL5 LOAD TRANSLATION INSTRUCTION	ACCESS:       4772  HIT:       2386  MISS:       2386  HIT %:         50  MISS %:         50  MPKI: 0.04772
PSCL5 TRANSLATION FROM L1D PREFETCHER INSTRUCTION	ACCESS:         92  HIT:         46  MISS:         46  HIT %:         50  MISS %:         50  MPKI: 0.00092


PSCL4 TOTAL     ACCESS:       4111  HIT:       2052  MISS:       2059  HIT %:    49.9149  MISS %:    50.0851   MPKI: 0.04118
PSCL4 LOAD TRANSLATION INSTRUCTION	ACCESS:       3469  HIT:       2022  MISS:       1447  HIT %:    58.2877  MISS %:    41.7123  MPKI: 0.02894
PSCL4 TRANSLATION FROM L1D PREFETCHER INSTRUCTION	ACCESS:         55  HIT:         30  MISS:         25  HIT %:    54.5455  MISS %:    45.4545  MPKI: 0.0005
PSCL4 LOAD TRANSLATION DATA	ACCESS:        582  HIT:          0  MISS:        582  HIT %:          0  MISS %:        100  MPKI: 0.01164
PSCL4 TRANSLATION FROM L1D PREFETCHER DATA	ACCESS:          5  HIT:          0  MISS:          5  HIT %:          0  MISS %:        100  MPKI: 0.0001


PSCL3 TOTAL     ACCESS:       4456  HIT:       2218  MISS:       2238  HIT %:    49.7756  MISS %:    50.2244   MPKI: 0.04476
PSCL3 LOAD TRANSLATION INSTRUCTION	ACCESS:       3740  HIT:       2183  MISS:       1557  HIT %:     58.369  MISS %:     41.631  MPKI: 0.03114
PSCL3 TRANSLATION FROM L1D PREFETCHER INSTRUCTION	ACCESS:         62  HIT:         35  MISS:         27  HIT %:    56.4516  MISS %:    43.5484  MPKI: 0.00054
PSCL3 LOAD TRANSLATION DATA	ACCESS:        646  HIT:          0  MISS:        646  HIT %:          0  MISS %:        100  MPKI: 0.01292
PSCL3 TRANSLATION FROM L1D PREFETCHER DATA	ACCESS:          8  HIT:          0  MISS:          8  HIT %:          0  MISS %:        100  MPKI: 0.00016


PSCL2 TOTAL     ACCESS:       4717  HIT:       2285  MISS:       2432  HIT %:    48.4418  MISS %:    51.5582   MPKI: 0.04864
PSCL2 LOAD TRANSLATION INSTRUCTION	ACCESS:       2713  HIT:       2240  MISS:        473  HIT %:    82.5654  MISS %:    17.4346  MPKI: 0.00946
PSCL2 TRANSLATION FROM L1D PREFETCHER INSTRUCTION	ACCESS:         45  HIT:         45  MISS:          0  HIT %:        100  MISS %:          0  MPKI: 0
PSCL2 LOAD TRANSLATION DATA	ACCESS:       1914  HIT:          0  MISS:       1914  HIT %:          0  MISS %:        100  MPKI: 0.03828
PSCL2 TRANSLATION FROM L1D PREFETCHER DATA	ACCESS:         45  HIT:          0  MISS:         45  HIT %:          0  MISS %:        100  MPKI: 0.0009


LLC TOTAL     ACCESS:     578228  HIT:     547517  MISS:      30711  HIT %:    94.6888  MISS %:    5.31123   MPKI: 0.61422
LLC LOAD INSTRUCTION	ACCESS:     278688  HIT:     277268  MISS:       1420  HIT %:    99.4905  MISS %:    0.50953  MPKI: 0.0284
LLC LOAD TRANSLATION INSTRUCTION	ACCESS:        326  HIT:        279  MISS:         47  HIT %:    85.5828  MISS %:    14.4172  MPKI: 0.00094
LLC LOAD DATA	ACCESS:      69364  HIT:      65835  MISS:       3529  HIT %:    94.9123  MISS %:    5.08765  MPKI: 0.07058
LLC RFO DATA	ACCESS:      65543  HIT:      50173  MISS:      15370  HIT %:    76.5497  MISS %:    23.4503  MPKI: 0.3074
LLC PREFETCH DATA	ACCESS:      72818  HIT:      63049  MISS:       9769  HIT %:    86.5844  MISS %:    13.4156  MPKI: 0.19538
LLC WRITEBACK DATA	ACCESS:      90056  HIT:      89591  MISS:        465  HIT %:    99.4837  MISS %:   0.516345  MPKI: 0.0093
LLC LOAD TRANSLATION DATA	ACCESS:       1416  HIT:       1305  MISS:        111  HIT %:     92.161  MISS %:    7.83898  MPKI: 0.00222
LLC TRANSLATION FROM L1D PREFETCHER DATA	ACCESS:         17  HIT:         17  MISS:          0  HIT %:        100  MISS %:          0  MPKI: 0

LLC AVERAGE MISS LATENCY: 155.649 cycles
LLC RQ	ACCESS:     415365	FORWARD:          0	MERGED:          0	TO_CACHE:     415355
LLC WQ	ACCESS:      90056	FORWARD:         10	MERGED:          0	TO_CACHE:      90056
LLC PQ	ACCESS:      72818	FORWARD:          0	MERGED:          0	TO_CACHE:      72818

LLC Dense regions hint to LLC: 0

RAW hits: 1263963
Loads Generated: 12645093
Loads sent to L1D: 11381126
Stores Generated: 6953058
Stores sent to L1D: 6953069
Major fault: 0 Minor fault: 2608
Allocated PAGES: 2608

stream: 
stream:times selected: 1183758
stream:pref_filled: 119759
stream:pref_useful: 24059
stream:pref_late: 6175
stream:misses: 5913
stream:misses_by_poll: 0

CS: 
CS:times selected: 179095
CS:pref_filled: 59264
CS:pref_useful: 34715
CS:pref_late: 7209
CS:misses: 16895
CS:misses_by_poll: 4

CPLX: 
CPLX:times selected: 1003357
CPLX:pref_filled: 20268
CPLX:pref_useful: 4556
CPLX:pref_late: 3262
CPLX:misses: 87842
CPLX:misses_by_poll: 1

NL_L1: 
NL:times selected: 19244
NL:pref_filled: 555
NL:pref_useful: 277
NL:pref_late: 200
NL:misses: 720
NL:misses_by_poll: 0

total selections: 2385454
total_filled: 93939
total_useful: 34117
total_late: 17993
total_polluted: 5
total_misses_after_warmup: 764613
conflicts: 5988016

test: 115397

DRAM Statistics
 CHANNEL 0
 RQ ROW_BUFFER_HIT:      11357  ROW_BUFFER_MISS:      18882
 DBUS_CONGESTED:          7
 WQ ROW_BUFFER_HIT:       1598  ROW_BUFFER_MISS:      13001  FULL:          0

 AVG_CONGESTED_CYCLE: 4

CPU 0 Branch Prediction Accuracy: 99.8137% MPKI: 0.34044 Average ROB Occupancy at Mispredict: 74.9404
Branch types
NOT_BRANCH: 40860756 81.7215%
BRANCH_DIRECT_JUMP: 549331 1.09866%
BRANCH_INDIRECT: 183301 0.366602%
BRANCH_CONDITIONAL: 6179926 12.3599%
BRANCH_DIRECT_CALL: 942116 1.88423%
BRANCH_INDIRECT_CALL: 171051 0.342102%
BRANCH_RETURN: 1113182 2.22636%
BRANCH_OTHER: 0 0%

DRAM PAGES: 1048576
Allocated PAGES: 2608
Average_ROB_Occupancy: 58.4314
Average_Decode_Occupancy: 4.9845
Average_FTQ_Occupancy: 15.33
Indirect max targets: 14 Average targets: 1.16118
Branch_type:  BRANCH_DIRECT_JUMP:  Count Percentage: 2.92003 7.34816 3.58526 14.466 1.6983 5.97264 1.00011 63.0094 
Branch_type:  BRANCH_INDIRECT:  Count Percentage: 11.75 3.46846 12.2466 23.3449 1.33541 14.5654 1.06434 32.2248 
Branch_type:  BRANCH_CONDITIONAL:  Count Percentage: 21.4662 2.9529 2.49669 9.07686 1.07333 4.53335 0.581155 57.8195 
Branch_type:  BRANCH_DIRECT_CALL:  Count Percentage: 0.752115 1.28736 1.45003 5.41882 2.00959 2.55917 0.801063 85.7219 
Branch_type:  BRANCH_INDIRECT_CALL:  Count Percentage: 9.56945 0.579887 2.99759 4.8655 0.000876404 3.52168 0 78.465 
Branch_type:  BRANCH_RETURN:  Count Percentage: 4.43908 0.700207 3.56211 9.46465 2.13403 5.19111 1.00792 73.5009 
Branch_type:  BRANCH_DIRECT_JUMP:  Total Count: 32070 80703 39376 158877 18652 65596 10984 692017 
Branch_type:  BRANCH_INDIRECT:  Total Count: 43088 12719 44909 85607 4897 53412 3903 118170 
Branch_type:  BRANCH_CONDITIONAL:  Total Count: 2652196 364837 308471 1121466 132612 560105 71803 7143726 
Branch_type:  BRANCH_DIRECT_CALL:  Total Count: 14167 24249 27313 102070 37853 48205 15089 1614676 
Branch_type:  BRANCH_INDIRECT_CALL:  Total Count: 32757 1985 10261 16655 3 12055 0 268592 
Branch_type:  BRANCH_RETURN:  Total Count: 98848 15592 79320 210756 47520 115594 22444 1636696 
Number of unique branch instructions: 10544
Upper 32 bits: 
aaaa
ffff
ffff0000
Unique upper 32 bits: 3
Unique upper 36 bits: 3
Unique upper 40 bits: 5
Unique upper 44 bits: 32
Unique upper 48 bits: 157
Variant_0 : 1385 0.338135
Variant_1 : 1297 0.31665
Variant_2 : 1374 0.335449
Variant_3 : 0 0
Offset_3 4348
Offset_4 272
Offset_5 484
Offset_6 529
Offset_7 626
Offset_8 546
Offset_9 505
Offset_10 413
Offset_11 341
Offset_12 313
Offset_13 217
Offset_14 242
Offset_15 200
Offset_16 236
Offset_17 166
Offset_18 129
Offset_19 252
Offset_20 142
Offset_21 261
Offset_22 408
Offset_23 243
Offset_24 350
Offset_25 92
Offset_47 86
decode_dispatch_called: 29318385 53.9716
Dispatch_width: 0 17243341 58.8141 31.7429
Dispatch_width: 1 2184515 7.45101 4.02143
Dispatch_width: 2 1188290 4.05305 2.1875
Dispatch_width: 3 1098959 3.74836 2.02305
Dispatch_width: 4 1123867 3.83332 2.0689
Dispatch_width: 5 1230243 4.19615 2.26473
Dispatch_width: 6 5249170 17.904 9.66308
Empty_decode_cycles: 25003508 46.0284
ROB_full_cycles: 544805 1.00292
Starvation_cycles_per_kilo_instr: 485.279
Starvation_cycles_per_kilo_instr_3: 461.738
Starvation_cycles_per_kilo_instr_0: 417.02
Branch_type_1  (3,1)  (4,12)  (5,39)  (6,74)  (7,122)  (8,137)  (9,135)  (10,103)  (11,74)  (12,51)  (13,8)  (14,2)  (15,3)  (16,4)  (18,1)  (19,4)  (20,2)  (21,1)  (22,3)  (23,2)  (24,10)  (25,12) 
Branch_type_2  (3,1)  (4,1)  (5,1)  (8,3)  (9,3)  (12,1)  (13,1)  (14,1)  (16,3)  (17,2)  (20,2)  (21,2)  (23,5)  (24,1)  (47,39) 
Branch_type_3  (3,4346)  (4,259)  (5,440)  (6,440)  (7,473)  (8,343)  (9,276)  (10,168)  (11,143)  (12,60)  (13,7) 
Branch_type_4  (6,3)  (7,8)  (8,26)  (9,54)  (10,67)  (11,62)  (12,111)  (13,92)  (14,109)  (15,95)  (16,107)  (17,76)  (18,60)  (19,122)  (20,72)  (21,141)  (22,218)  (23,137)  (24,200)  (25,76) 
Branch_type_5  (8,2)  (9,1)  (10,4)  (11,5)  (12,3)  (13,14)  (14,16)  (15,11)  (16,20)  (17,13)  (18,16)  (19,13)  (20,12)  (21,13)  (22,42)  (23,26)  (24,41) 
Branch_type_6  (5,4)  (6,12)  (7,23)  (8,35)  (9,36)  (10,71)  (11,57)  (12,87)  (13,95)  (14,114)  (15,91)  (16,102)  (17,75)  (18,52)  (19,113)  (20,54)  (21,104)  (22,145)  (23,73)  (24,98)  (25,4)  (47,47) 
Unique trigger count: 
Variant_0_evicts_0 : 0
Variant_0_evicts_1 : 0
Variant_0_evicts_2 : 0
Variant_0_evicts_3 : 0
Variant_1_evicts_0 : 0
Variant_1_evicts_1 : 0
Variant_1_evicts_2 : 0
Variant_1_evicts_3 : 0
Variant_2_evicts_0 : 0
Variant_2_evicts_1 : 0
Variant_2_evicts_2 : 0
Variant_2_evicts_3 : 0
Variant_3_evicts_0 : 0
Variant_3_evicts_1 : 0
Variant_3_evicts_2 : 0
Variant_3_evicts_3 : 0
BTB PER SET UNIQUE ADDR: 12 15 13 11 14 15 15 18 10 14 11 18 12 14 13 13 12 10 9 16 10 14 17 16 15 13 10 13 10 10 15 19 15 6 6 12 16 15 7 10 12 11 11 14 11 11 15 10 10 12 16 11 15 11 13 6 10 9 10 11 10 19 9 12 19 15 19 10 9 10 13 11 13 10 14 8 6 14 8 16 16 9 11 14 11 17 10 13 9 16 5 8 9 10 9 16 12 12 17 14 12 15 13 9 12 6 5 10 8 7 10 14 16 12 12 8 10 13 13 9 14 12 7 10 15 11 7 16 17 11 6 16 9 11 16 10 9 10 10 12 13 13 7 10 15 10 7 7 9 14 10 17 14 12 10 13 16 13 14 10 13 10 14 16 11 14 12 13 9 11 11 13 9 12 14 7 11 12 9 10 8 14 12 12 18 18 9 11 11 10 9 11 12 14 10 15 10 11 8 14 16 13 11 13 10 7 11 12 9 12 10 12 11 13 7 12 16 12 11 20 11 15 11 10 7 8 17 12 10 15 11 9 10 14 13 14 11 11 13 12 15 12 14 13 15 13 10 10 10 14 13 13 14 12 13 12 6 7 11 10 14 11 6 13 12 9 10 14 10 14 9 9 11 11 9 9 12 16 12 14 11 13 7 13 11 11 13 17 14 10 14 9 16 13 9 14 12 12 13 10 8 12 13 14 11 13 15 10 21 11 10 14 12 21 11 8 21 15 17 15 7 15 9 12 16 12 12 6 11 8 13 11 10 13 13 9 9 13 8 20 12 12 9 15 13 13 11 13 13 7 10 13 6 12 12 9 10 10 11 11 13 12 8 11 13 15 6 12 8 12 14 12 12 13 9 17 12 17 11 10 15 12 11 9 7 10 15 17 14 9 12 8 13 11 11 12 10 11 17 12 11 14 7 16 17 7 14 16 14 10 16 9 9 11 12 12 10 13 18 21 13 9 14 16 11 14 14 12 9 12 17 10 9 13 15 11 16 9 12 11 16 8 10 14 16 10 11 9 12 17 13 16 13 10 12 22 12 16 8 15 10 9 15 11 18 13 11 10 16 18 13 10 19 13 13 16 10 14 12 13 16 16 7 13 8 18 13 14 14 15 7 14 9 9 14 9 17 19 10 9 12 14 14 15 10 6 13 18 15 16 10 14 13 13 12 15 14 14 9 8 4 10 18 9 16 12 24 10 9 17 18 14 13 12 14 16 10 9 11 12 12 14 11 12 15 15 9 13 7 10 12 13 10 16 10 17 11 8 15 17 12 18 12 16 9 16 10 15 12 14 12 12 17 13 13 16 18 16 10 12 13 14 6 12 17 15 11 14 14 18 11 12 14 12 18 11 8 11 14 10 13 12 12 8 12 13 17 10 14 11 11 12 8 10 6 13 14 14 10 14 15 9 9 11 13 16 14 16 11 10 9 19 15 10 15 15 12 18 13 20 13 16 15 15 9 13 11 16 17 10 8 15 13 9 13 14 18 8 12 12 18 7 13 16 14 12 9 8 6 10 11 16 11 12 15 13 12 16 14 17 13 13 14 10 14 11 10 14 15 16 13 8 14 9 9 13 8 12 10 12 10 9 14 14 10 12 10 9 12 11 9 12 6 14 10 7 18 12 9 14 16 14 11 14 13 10 14 13 13 13 14 13 12 9 11 13 16 18 20 10 8 14 12 14 14 12 15 13 9 7 14 11 15 16 11 11 16 15 11 10 10 7 6 14 16 14 8 14 13 11 14 12 11 8 9 11 18 8 17 13 10 13 11 11 13 9 10 8 9 11 8 8 13 9 16 18 14 11 13 12 17 13 15 14 21 10 12 13 14 13 6 15 12 12 11 11 20 18 10 14 12 15 9 13 14 11 10 15 12 14 11 18 18 12 12 13 7 13 10 11 15 13 9 11 10 18 11 15 10 13 13 14 10 14 13 14 19 15 12 14 13 11 9 8 19 10 10 8 17 13 9 16 13 12 16 5 11 15 13 10 16 9 13 13 15 18 14 14 15 18 18 10 14 7 8 13 13 11 11 9 11 13 10 14 7 11 11 13 12 13 11 14 13 17 14 11 20 13 14 15 18 16 15 10 10 6 7 7 15 9 12 19 21 17 11 16 11 13 9 18 8 17 9 15 14 11 10 17 11 14 12 15 14 19 9 16 15 12 14 15 11 14 13 14 14 8 14 11 6 11 12 13 14 12 17 10 17 12 12 16 12 12 15 12 12 17 20 14 16 14 16 11 15 8 14 9 11 9 19 10 13 19 6 12 15 18 7 16 8 15 11 16 11 6 13 10 7 6 6 11 9 10 15 9 
BTB PER SET COUNT: 26 24 1482 15 1487 20 388 27 183 18 19 249 253 18 22 17 986 10 12 24 16 444 736 19 17 15 18 27 15 11 23 43 25 10 8 86 27 17 8 16 14 14 12 25 1476 11 22 13 15 14 24 260 22 17 393 7 16 9 17 14 12 28 93 17 38 845 19 2442 16 15 1484 77 19 15 20 10 9 877 9 26 23 10 19 223 15 18 12 19 1182 34 5 9 9 12 12 17 987 20 27 15 19 22 16 12 18 6 5 12 1001 2102 16 26 20 19 21 612 11 17 1502 12 986 14 10 13 17 65 9 26 29 946 7 5869 14 13 169 11 980 15 10 13 21 15 10 14 31 16 11 350 16 207 15 162 1598 23 11 22 21 15 28 14 20 366 626 19 1481 18 18 18 13 1479 16 14 12 20 22 11 14 15 9 10 9 92 1339 13 409 35 11 15 1004 15 13 14 16 24 13 18 11 660 12 535 20 21 983 29 14 12 18 445 10 13 15 25 14 34 10 983 23 16 2938 23 13 22 21 19 8 22 21 19 303 18 16 11 12 23 17 301 38 21 29 21 20 19 140 18 19 812 21 13 484 25 18 18 20 13 20 16 78 8 19 12 66 17 7 82 12 14 15 19 1829 22 12 11 13 16 353 10 14 24 16 19 11 16 12 22 12 13 15 28 20 10 25 11 25 510 9 19 14 16 22 21 12 15 18 18 13 15 111 15 264 997 10 20 14 39 16 9 33 21 23 41 7 518 18 19 1487 17 467 14 14 9 19 21 11 25 18 15 15 160 10 21 15 944 10 347 17 17 12 15 17 8 11 17 6 15 18 9 12 13 495 15 14 18 9 18 17 895 7 15 14 13 24 13 14 1636 984 29 15 31 13 484 1285 14 13 12 8 11 24 28 19 14 20 8 21 126 13 867 10 12 1013 20 14 27 13 22 26 8 20 25 19 14 1199 11 9 149 19 13 11 7885 28 36 17 10 19 25 17 22 110 12 12 17 29 13 11 19 23 19 23 49 17 14 26 11 34 17 365 10 12 19 15 20 19 1162 22 13 80 654 23 18 9 15 33 11 17 17 24 277 17 10 24 22 19 14 31 17 19 17 16 24 14 17 24 20 7 20 384 29 17 17 22 58 8 30 13 12 20 11 687 26 20 11 16 22 18 22 13 12 19 29 24 20 13 27 659 1400 20 18 28 22 12 10 5 17 33 174 25 21 739 1478 15 114 33 15 33 21 18 18 14 15 12 409 15 14 18 18 29 32 10 15 7 1003 14 16 1060 44 15 20 14 10 26 25 16 21 29 26 12 28 11 17 15 18 23 20 25 18 443 23 25 24 16 16 17 24 13 981 26 31 14 19 27 26 16 20 18 19 29 13 1484 399 259 10 14 18 20 9 17 15 26 17 20 19 13 25 10 11 6 18 18 30 15 376 16 11 15 14 21 28 21 21 14 12 14 42 22 12 22 20 19 406 16 99 18 22 20 17 909 162 1007 27 29 15 8 18 18 11 19 95 21 9 671 22 27 7 22 20 12156 14 13 10 1472 15 16 21 984 15 87 514 17 22 25 20 18 15 1481 15 387 14 11 33 25 24 23 11 23 13 795 21 10 321 12 15 783 21 581 20 11 20 15 11 14 19 92 43 197 19 15 156 508 20 12 17 19 1008 16 1612 37 11 16 16 631 633 402 14660 46 134 11 27 1015 31 22 10 12 19 18 22 19 14 559 13 9 8 320 18 17 1981 683 13 22 422 18 11 12 9 6 21 1863 25 10 21 21 11 16 16 15 9 14 12 30 506 25 19 648 19 394 13 14 9 12 11 12 13 8 936 15 13 1370 25 22 18 17 20 93 21 275 23 353 11 12 16 18 50 6 9600 18 160 20 566 33 63 10 2486 14 740 9 14 868 14 11 17 14 21 16 24 48 19 490 1759 7 150 10 379 20 992 10 12 1814 31 13 20 18 13 20 1817 23 21 25 17 35 18 16 17 632 17 968 9 27 16 17 10 32 23 10 29 16 21 19 5 15 24 13 15 22 11 112 20 183 137 24 24 17 36 27 92 25 7 8 19 15 21 15 10 13 19 30 129 7 16 13 20 17 393 24 461 18 28 17 1184 48 15 20 31 26 360 19 909 13 13 7 9 23 15 45 26 1091 25 13 31 16 27 15 26 9 24 14 18 17 442 14 25 12 20 24 1529 1182 332 10 21 20 15 158 17 17 30 14 24 26 12 1482 17 45 17 56 23 18 15 1683 10 26 15 209 19 19 15 541 990 21 30 1982 507 23 18 21 16 445 1001 26 9 18 1480 40 18 17 27 9 15 24 1016 10 27 21 993 504 155 16 10 22 14 9 9 6 11 10 82 23 11 
To predecode: 0
Predecoding something: 0
Predecode request dropped: 0
sizeofblock_0 0
sizeofblock_1 40137
sizeofblock_2 45077
sizeofblock_3 40283
sizeofblock_4 16727
sizeofblock_5 0
sizeofblock_6 0
sizeofblock_7 0
sizeofblock_8 0
Variant_0 Correct: 1612916 Incorrect: 0 Accuracy: 1
Variant_1 Correct: 2090617 Incorrect: 0 Accuracy: 1
Variant_2 Correct: 3641369 Incorrect: 0 Accuracy: 1
Variant_3 Correct: 0 Incorrect: 0 Accuracy: -nan
