
*** ChampSim Multicore Out-of-Order Simulator ***

Warmup Instructions: 50000000
Simulation Instructions: 50000000
Number of CPUs: 1
LLC sets: 2048
LLC ways: 16
Off-chip DRAM Size: 4096 MB Channels: 1 Width: 64-bit Data Rate: 6400 MT/s
CPU 0 runs ./micro_traces/srv248.trace.gz
.gz
ITLB has LRU replacement policy
DTLB has LRU replacement policy
STLB has LRU replacement policy
FDIP Prefetcher at L1I
L1I has LRU replacement policy
L1D has LRU replacement policy
Initialize SRRIP state for L2C
Initialize DRRIP state for LLC
Heartbeat_Variant_0 : 1335 0.325928 per_variant_size: 0 1335 0 0 0 0 0 0 0 
Heartbeat_Variant_1 : 2429 0.593018 per_variant_size: 0 309 2120 0 0 0 0 0 0 
Heartbeat_Variant_2 : 0 0 per_variant_size: 0 0 0 0 0 0 0 0 0 
Heartbeat_Variant_3 : 0 0 per_variant_size: 0 0 0 0 0 0 0 0 0 
Heartbeat_Variant_0_evicts 0 : 5499 1 : 48 2 : 0 3 : 0 
Heartbeat_Variant_1_evicts 0 : 35 1 : 0 2 : 0 3 : 0 
Heartbeat_Variant_2_evicts 0 : 0 1 : 0 2 : 0 3 : 0 
Heartbeat_Variant_3_evicts 0 : 0 1 : 0 2 : 0 3 : 0 
Heartbeat CPU 0 instructions: 10000000 cycles: 2794806 heartbeat IPC: 3.57807 cumulative IPC: 3.57807 (Simulation time: 0 hr 1 min 50 sec) 
Heartbeat_Variant_0 : 1375 0.335693 per_variant_size: 0 1375 0 0 0 0 0 0 0 
Heartbeat_Variant_1 : 2499 0.610107 per_variant_size: 0 289 2210 0 0 0 0 0 0 
Heartbeat_Variant_2 : 0 0 per_variant_size: 0 0 0 0 0 0 0 0 0 
Heartbeat_Variant_3 : 0 0 per_variant_size: 0 0 0 0 0 0 0 0 0 
Heartbeat_Variant_0_evicts 0 : 5519 1 : 50 2 : 0 3 : 0 
Heartbeat_Variant_1_evicts 0 : 47 1 : 0 2 : 0 3 : 0 
Heartbeat_Variant_2_evicts 0 : 0 1 : 0 2 : 0 3 : 0 
Heartbeat_Variant_3_evicts 0 : 0 1 : 0 2 : 0 3 : 0 
Heartbeat CPU 0 instructions: 20000003 cycles: 5589923 heartbeat IPC: 3.57767 cumulative IPC: 3.57787 (Simulation time: 0 hr 3 min 32 sec) 
Heartbeat_Variant_0 : 1401 0.342041 per_variant_size: 0 1401 0 0 0 0 0 0 0 
Heartbeat_Variant_1 : 2585 0.631104 per_variant_size: 0 267 2318 0 0 0 0 0 0 
Heartbeat_Variant_2 : 0 0 per_variant_size: 0 0 0 0 0 0 0 0 0 
Heartbeat_Variant_3 : 0 0 per_variant_size: 0 0 0 0 0 0 0 0 0 
Heartbeat_Variant_0_evicts 0 : 5558 1 : 82 2 : 0 3 : 0 
Heartbeat_Variant_1_evicts 0 : 89 1 : 0 2 : 0 3 : 0 
Heartbeat_Variant_2_evicts 0 : 0 1 : 0 2 : 0 3 : 0 
Heartbeat_Variant_3_evicts 0 : 0 1 : 0 2 : 0 3 : 0 
Heartbeat CPU 0 instructions: 30000000 cycles: 8383806 heartbeat IPC: 3.57925 cumulative IPC: 3.57833 (Simulation time: 0 hr 5 min 13 sec) 
Heartbeat_Variant_0 : 1401 0.342041 per_variant_size: 0 1401 0 0 0 0 0 0 0 
Heartbeat_Variant_1 : 2586 0.631348 per_variant_size: 0 265 2321 0 0 0 0 0 0 
Heartbeat_Variant_2 : 0 0 per_variant_size: 0 0 0 0 0 0 0 0 0 
Heartbeat_Variant_3 : 0 0 per_variant_size: 0 0 0 0 0 0 0 0 0 
Heartbeat_Variant_0_evicts 0 : 5581 1 : 2 2 : 0 3 : 0 
Heartbeat_Variant_1_evicts 0 : 2 1 : 0 2 : 0 3 : 0 
Heartbeat_Variant_2_evicts 0 : 0 1 : 0 2 : 0 3 : 0 
Heartbeat_Variant_3_evicts 0 : 0 1 : 0 2 : 0 3 : 0 
Heartbeat CPU 0 instructions: 40000003 cycles: 11179070 heartbeat IPC: 3.57748 cumulative IPC: 3.57812 (Simulation time: 0 hr 6 min 54 sec) 
Heartbeat_Variant_0 : 1409 0.343994 per_variant_size: 0 1409 0 0 0 0 0 0 0 
Heartbeat_Variant_1 : 2598 0.634277 per_variant_size: 0 267 2331 0 0 0 0 0 0 
Heartbeat_Variant_2 : 0 0 per_variant_size: 0 0 0 0 0 0 0 0 0 
Heartbeat_Variant_3 : 0 0 per_variant_size: 0 0 0 0 0 0 0 0 0 
Heartbeat_Variant_0_evicts 0 : 5571 1 : 48 2 : 0 3 : 0 
Heartbeat_Variant_1_evicts 0 : 46 1 : 0 2 : 0 3 : 0 
Heartbeat_Variant_2_evicts 0 : 0 1 : 0 2 : 0 3 : 0 
Heartbeat_Variant_3_evicts 0 : 0 1 : 0 2 : 0 3 : 0 
Heartbeat CPU 0 instructions: 50000001 cycles: 13975061 heartbeat IPC: 3.57655 cumulative IPC: 3.5778 (Simulation time: 0 hr 8 min 35 sec) 

Warmup complete CPU 0 instructions: 50000001 cycles: 13975061 (Simulation time: 0 hr 8 min 35 sec) 

Cycle: 20000000 FTQ IN: 58418706 FTQ occupancy: 20.5263 DECODE IN: 58418591 DECODE occupancy: 53.3752 ROB IN: 58418531 ROB occupancy: 318.081 ROB OUT: 58418179
Heartbeat_Variant_0 : 1412 0.344727 per_variant_size: 0 1412 0 0 0 0 0 0 0 
Heartbeat_Variant_1 : 2601 0.63501 per_variant_size: 0 289 2312 0 0 0 0 0 0 
Heartbeat_Variant_2 : 0 0 per_variant_size: 0 0 0 0 0 0 0 0 0 
Heartbeat_Variant_3 : 0 0 per_variant_size: 0 0 0 0 0 0 0 0 0 
Heartbeat_Variant_0_evicts 0 : 5538 1 : 18 2 : 0 3 : 0 
Heartbeat_Variant_1_evicts 0 : 16 1 : 0 2 : 0 3 : 0 
Heartbeat_Variant_2_evicts 0 : 0 1 : 0 2 : 0 3 : 0 
Heartbeat_Variant_3_evicts 0 : 0 1 : 0 2 : 0 3 : 0 
Heartbeat CPU 0 instructions: 60000001 cycles: 21124939 heartbeat IPC: 1.39863 cumulative IPC: 1.39863 (Simulation time: 0 hr 10 min 36 sec) 
*** Reached end of trace for Core: 0 Repeating trace: ./micro_traces/srv248.trace.gz
Heartbeat_Variant_0 : 1412 0.344727 per_variant_size: 0 1412 0 0 0 0 0 0 0 
Heartbeat_Variant_1 : 2603 0.635498 per_variant_size: 0 281 2322 0 0 0 0 0 0 
Heartbeat_Variant_2 : 0 0 per_variant_size: 0 0 0 0 0 0 0 0 0 
Heartbeat_Variant_3 : 0 0 per_variant_size: 0 0 0 0 0 0 0 0 0 
Heartbeat_Variant_0_evicts 0 : 5429 1 : 3 2 : 0 3 : 0 
Heartbeat_Variant_1_evicts 0 : 3 1 : 0 2 : 0 3 : 0 
Heartbeat_Variant_2_evicts 0 : 0 1 : 0 2 : 0 3 : 0 
Heartbeat_Variant_3_evicts 0 : 0 1 : 0 2 : 0 3 : 0 
Heartbeat CPU 0 instructions: 70000000 cycles: 28396506 heartbeat IPC: 1.37522 cumulative IPC: 1.38682 (Simulation time: 0 hr 12 min 38 sec) 
Cycle: 30000000 FTQ IN: 13831936 FTQ occupancy: 15.2374 DECODE IN: 13831946 DECODE occupancy: 39.0588 ROB IN: 13831946 ROB occupancy: 251.249 ROB OUT: 13831950
Heartbeat_Variant_0 : 1412 0.344727 per_variant_size: 0 1412 0 0 0 0 0 0 0 
Heartbeat_Variant_1 : 2606 0.63623 per_variant_size: 0 282 2324 0 0 0 0 0 0 
Heartbeat_Variant_2 : 0 0 per_variant_size: 0 0 0 0 0 0 0 0 0 
Heartbeat_Variant_3 : 0 0 per_variant_size: 0 0 0 0 0 0 0 0 0 
Heartbeat_Variant_0_evicts 0 : 5532 1 : 13 2 : 0 3 : 0 
Heartbeat_Variant_1_evicts 0 : 15 1 : 0 2 : 0 3 : 0 
Heartbeat_Variant_2_evicts 0 : 0 1 : 0 2 : 0 3 : 0 
Heartbeat_Variant_3_evicts 0 : 0 1 : 0 2 : 0 3 : 0 
Heartbeat CPU 0 instructions: 80000001 cycles: 35520067 heartbeat IPC: 1.40379 cumulative IPC: 1.39243 (Simulation time: 0 hr 14 min 36 sec) 
Cycle: 40000000 FTQ IN: 14038199 FTQ occupancy: 15.0975 DECODE IN: 14038191 DECODE occupancy: 38.8045 ROB IN: 14038191 ROB occupancy: 249.029 ROB OUT: 14038191
Heartbeat_Variant_0 : 1415 0.345459 per_variant_size: 0 1415 0 0 0 0 0 0 0 
Heartbeat_Variant_1 : 2608 0.636719 per_variant_size: 0 279 2329 0 0 0 0 0 0 
Heartbeat_Variant_2 : 0 0 per_variant_size: 0 0 0 0 0 0 0 0 0 
Heartbeat_Variant_3 : 0 0 per_variant_size: 0 0 0 0 0 0 0 0 0 
Heartbeat_Variant_0_evicts 0 : 5537 1 : 14 2 : 0 3 : 0 
Heartbeat_Variant_1_evicts 0 : 13 1 : 0 2 : 0 3 : 0 
Heartbeat_Variant_2_evicts 0 : 0 1 : 0 2 : 0 3 : 0 
Heartbeat_Variant_3_evicts 0 : 0 1 : 0 2 : 0 3 : 0 
Heartbeat CPU 0 instructions: 90000001 cycles: 42709904 heartbeat IPC: 1.39085 cumulative IPC: 1.39204 (Simulation time: 0 hr 16 min 36 sec) 
Heartbeat_Variant_0 : 1415 0.345459 per_variant_size: 0 1415 0 0 0 0 0 0 0 
Heartbeat_Variant_1 : 2608 0.636719 per_variant_size: 0 279 2329 0 0 0 0 0 0 
Heartbeat_Variant_2 : 0 0 per_variant_size: 0 0 0 0 0 0 0 0 0 
Heartbeat_Variant_3 : 0 0 per_variant_size: 0 0 0 0 0 0 0 0 0 
Heartbeat_Variant_0_evicts 0 : 5595 1 : 0 2 : 0 3 : 0 
Heartbeat_Variant_1_evicts 0 : 0 1 : 0 2 : 0 3 : 0 
Heartbeat_Variant_2_evicts 0 : 0 1 : 0 2 : 0 3 : 0 
Heartbeat_Variant_3_evicts 0 : 0 1 : 0 2 : 0 3 : 0 
Heartbeat CPU 0 instructions: 100000002 cycles: 49789018 heartbeat IPC: 1.41261 cumulative IPC: 1.3961 (Simulation time: 0 hr 18 min 34 sec) 
Finished CPU 0 instructions: 50000001 cycles: 35813957 cumulative IPC: 1.3961 (Simulation time: 0 hr 18 min 34 sec) 

ChampSim completed all CPUs

Region of Interest Statistics

CPU 0 cumulative IPC: 1.3961 instructions: 50000001 cycles: 35813957
 Fetch stage stalled: 45.326  Sim cycles: 35813957 fetch stall cycle: 16233020
 Empty decode stage: 24.3875  Sim cycles: 35813957 fetch stall cycle: 8734133
ITLB TOTAL     ACCESS:    5844062  HIT:    5351446  MISS:     492616  HIT %:    91.5707  MISS %:    8.42934   MPKI: 9.85232
ITLB LOAD TRANSLATION INSTRUCTION	ACCESS:    5709754  HIT:    5217138  MISS:     492616  HIT %:    91.3724  MISS %:    8.62762  MPKI: 9.85232
ITLB TRANSLATION FROM L1D PREFETCHER INSTRUCTION	ACCESS:     134308  HIT:     134308  MISS:          0  HIT %:        100  MISS %:          0  MPKI: 0

ITLB AVERAGE MISS LATENCY: 9.046 cycles
ITLB RQ	ACCESS:    7940607	FORWARD:          0	MERGED:    1618403	TO_CACHE:    6322204

DTLB TOTAL     ACCESS:    8922043  HIT:    8445698  MISS:     476345  HIT %:     94.661  MISS %:    5.33897   MPKI: 9.5269
DTLB LOAD TRANSLATION DATA	ACCESS:    8922043  HIT:    8445698  MISS:     476345  HIT %:     94.661  MISS %:    5.33897  MPKI: 9.5269

DTLB AVERAGE MISS LATENCY: 9.28186 cycles
DTLB RQ	ACCESS:   13284405	FORWARD:          0	MERGED:    4324969	TO_CACHE:    8959436

STLB TOTAL     ACCESS:    1221976  HIT:    1219966  MISS:       2010  HIT %:    99.8355  MISS %:   0.164488   MPKI: 0.0402
STLB LOAD TRANSLATION INSTRUCTION	ACCESS:     492616  HIT:     492391  MISS:        225  HIT %:    99.9543  MISS %:  0.0456745  MPKI: 0.0045
STLB LOAD TRANSLATION DATA	ACCESS:     476345  HIT:     474578  MISS:       1767  HIT %:    99.6291  MISS %:    0.37095  MPKI: 0.03534
STLB TRANSLATION FROM L1D PREFETCHER DATA	ACCESS:     253015  HIT:     252997  MISS:         18  HIT %:    99.9929  MISS %:  0.0071142  MPKI: 0.00036

STLB AVERAGE MISS LATENCY: 63.5388 cycles
STLB RQ	ACCESS:    1367500	FORWARD:          0	MERGED:     145494	TO_CACHE:    1222006

STLB Hit, L1D data hit: 0
STLB Hit, L2C data hit: 0
STLB Hit, LLC data hit: 0
STLB Hit, LLC data miss: 0
STLB STLB hints to L2: 0
L1D TOTAL     ACCESS:   13032003  HIT:   11865745  MISS:    1166258  HIT %:    91.0508  MISS %:    8.94918   MPKI: 23.3252
L1D LOAD DATA	ACCESS:    6538311  HIT:    5765541  MISS:     772770  HIT %:    88.1809  MISS %:    11.8191  MPKI: 15.4554
L1D RFO DATA	ACCESS:    6161285  HIT:    5872006  MISS:     289279  HIT %:    95.3049  MISS %:    4.69511  MPKI: 5.78558
L1D PREFETCH DATA	ACCESS:     332407  HIT:     228198  MISS:     104209  HIT %:    68.6502  MISS %:    31.3498  MPKI: 2.08418

L1D PREFETCH  REQUESTED:     797520  ISSUED:     797520  USEFUL:      48815  USELESS:      70497
L1D USEFUL LOAD PREFETCHES:      48815 PREFETCH ISSUED TO LOWER LEVEL:     119371  ACCURACY: 40.8935
 TIMELY PREFETCHES:      48815 LATE PREFETCHES: 15097 DROPPED PREFETCHES: 1
L1D AVERAGE MISS LATENCY: 411455 cycles
L1D RQ	ACCESS:   10663119	FORWARD:          0	MERGED:    3924985	TO_CACHE:    6574342
L1D WQ	ACCESS:    6906722	FORWARD:     164234	MERGED:     196659	TO_CACHE:    6710063
L1D PQ	ACCESS:     398981	FORWARD:          0	MERGED:          0	TO_CACHE:     398539

L1D UNIQUE REGIONS ACCESSED: 0
L1D REGIONS CONFLICTS: 0
L1D Cross Page Prefetch Requests: 5661
L1D Same Page Prefetch Requests: 810351
L1D ROI Sum of L1D PQ occupancy: 5085067
L1D PREFETCHES PUSHED FROM L2C: 0
L1I TOTAL     ACCESS:    7126425  HIT:    4365631  MISS:    2760794  HIT %:    61.2598  MISS %:    38.7402   MPKI: 55.2159
L1I LOAD INSTRUCTION	ACCESS:    6452031  HIT:    3691237  MISS:    2760794  HIT %:    57.2105  MISS %:    42.7895  MPKI: 55.2159
L1I PREFETCH INSTRUCTION	ACCESS:     674394  HIT:     674394  MISS:          0  HIT %:        100  MISS %:          0  MPKI: 0

L1I PREFETCH  REQUESTED:    1615909  ISSUED:    1615909  USEFUL:          0  USELESS:          0
L1I USEFUL LOAD PREFETCHES:          0 PREFETCH ISSUED TO LOWER LEVEL:          0  ACCURACY: -nan
 TIMELY PREFETCHES:          0 LATE PREFETCHES: 0 DROPPED PREFETCHES: 0
L1I AVERAGE MISS LATENCY: 17.2045 cycles
L1I RQ	ACCESS:    9582941	FORWARD:          0	MERGED:    2830253	TO_CACHE:    6752688
L1I PQ	ACCESS:    1615909	FORWARD:          0	MERGED:     427990	TO_CACHE:    1187919

L1BTB TOTAL     ACCESS:    5680767  HIT:    2062401  MISS:    3618366  HIT %:     36.305  MISS %:     63.695   MPKI: 72.3673
L1BTB BRANCH_DIRECT_JUMP	ACCESS:     543992 HIT:     142870 MISS:     401122 AVERAGE STALL: 59.6994 AVERAGE FETCH STALL: 13.7915 AVERAGE FETCH QUEUE STALL: 23.2542 AVERAGE DECODE STALL: 21.7446 AVERAGE EXECUTE STALL: 2.2598e+15
L1BTB BRANCH_INDIRECT	ACCESS:     181037 HIT:      65113 MISS:     115924 AVERAGE STALL: 109.001 AVERAGE FETCH STALL: 10.8285 AVERAGE FETCH QUEUE STALL: 18.9529 AVERAGE DECODE STALL: 13.3665 AVERAGE EXECUTE STALL: 64.8907
L1BTB BRANCH_CONDITIONAL	ACCESS:    2728610 HIT:    1439901 MISS:    1288709 AVERAGE STALL: 57.9393 AVERAGE FETCH STALL: 23.7879 AVERAGE FETCH QUEUE STALL: 18.4308 AVERAGE DECODE STALL: 15.1376 AVERAGE EXECUTE STALL: 5.45762e+15
L1BTB BRANCH_DIRECT_CALL	ACCESS:     942514 HIT:     103864 MISS:     838650 AVERAGE STALL: 51.9989 AVERAGE FETCH STALL: 18.9439 AVERAGE FETCH QUEUE STALL: 13.7879 AVERAGE DECODE STALL: 18.3154 AVERAGE EXECUTE STALL: 2.07034e+16
L1BTB BRANCH_INDIRECT_CALL	ACCESS:     171049 HIT:      21263 MISS:     149786 AVERAGE STALL: 140.035 AVERAGE FETCH STALL: 12.4452 AVERAGE FETCH QUEUE STALL: 18.4933 AVERAGE DECODE STALL: 12.0811 AVERAGE EXECUTE STALL: 96.5254
L1BTB BRANCH_RETURN	ACCESS:    1113565 HIT:     289390 MISS:     824175 AVERAGE STALL: 50.3392 AVERAGE FETCH STALL: 16.1897 AVERAGE FETCH QUEUE STALL: 5.73892 AVERAGE DECODE STALL: 7.63736 AVERAGE EXECUTE STALL: 4.07798e+14
L1BTB BRANCH_OTHER ACCESS:          0 HIT:          0 MISS:          0 AVERAGE STALL: -nan AVERAGE FETCH STALL: -nan AVERAGE FETCH QUEUE STALL: -nan AVERAGE DECODE STALL: -nan AVERAGE EXECUTE STALL: -nan
L1BTB TOTAL ROB OCCUPANCY AT BTB MISS: 2.66092

L2BTB TOTAL     ACCESS:    3593390  HIT:    3528501  MISS:      64889  HIT %:    98.1942  MISS %:    1.80579   MPKI: 1.29778
L2BTB BRANCH_DIRECT_JUMP	ACCESS:     397028 HIT:     392956 MISS:       4072 AVERAGE STALL: 59.6994 AVERAGE FETCH STALL: 13.7915 AVERAGE FETCH QUEUE STALL: 23.2542 AVERAGE DECODE STALL: 21.7446 AVERAGE EXECUTE STALL: 2.2598e+15
L2BTB BRANCH_INDIRECT	ACCESS:     105705 HIT:     103070 MISS:       2635 AVERAGE STALL: 109.001 AVERAGE FETCH STALL: 10.8285 AVERAGE FETCH QUEUE STALL: 18.9529 AVERAGE DECODE STALL: 13.3665 AVERAGE EXECUTE STALL: 64.8907
L2BTB BRANCH_CONDITIONAL	ACCESS:    1288709 HIT:    1285269 MISS:       3440 AVERAGE STALL: 57.9393 AVERAGE FETCH STALL: 23.7879 AVERAGE FETCH QUEUE STALL: 18.4308 AVERAGE DECODE STALL: 15.1376 AVERAGE EXECUTE STALL: 5.45762e+15
L2BTB BRANCH_DIRECT_CALL	ACCESS:     838650 HIT:     837756 MISS:        894 AVERAGE STALL: 51.9989 AVERAGE FETCH STALL: 18.9439 AVERAGE FETCH QUEUE STALL: 13.7879 AVERAGE DECODE STALL: 18.3154 AVERAGE EXECUTE STALL: 2.07034e+16
L2BTB BRANCH_INDIRECT_CALL	ACCESS:     140367 HIT:     130520 MISS:       9847 AVERAGE STALL: 140.035 AVERAGE FETCH STALL: 12.4452 AVERAGE FETCH QUEUE STALL: 18.4933 AVERAGE DECODE STALL: 12.0811 AVERAGE EXECUTE STALL: 96.5254
L2BTB BRANCH_RETURN	ACCESS:     822931 HIT:     778930 MISS:      44001 AVERAGE STALL: 50.3392 AVERAGE FETCH STALL: 16.1897 AVERAGE FETCH QUEUE STALL: 5.73892 AVERAGE DECODE STALL: 7.63736 AVERAGE EXECUTE STALL: 4.07798e+14
L2BTB BRANCH_OTHER ACCESS:          0 HIT:          0 MISS:          0 AVERAGE STALL: -nan AVERAGE FETCH STALL: -nan AVERAGE FETCH QUEUE STALL: -nan AVERAGE DECODE STALL: -nan AVERAGE EXECUTE STALL: -nan
L2BTB TOTAL ROB OCCUPANCY AT BTB MISS: 148.379

L2C TOTAL     ACCESS:    4547169  HIT:    4061232  MISS:     485937  HIT %:    89.3134  MISS %:    10.6866   MPKI: 9.71874
L2C LOAD INSTRUCTION	ACCESS:    2760795  HIT:    2504029  MISS:     256766  HIT %:    90.6996  MISS %:    9.30044  MPKI: 5.13532
L2C LOAD TRANSLATION INSTRUCTION	ACCESS:        251  HIT:         59  MISS:        192  HIT %:     23.506  MISS %:     76.494  MPKI: 0.00384
L2C LOAD DATA	ACCESS:     757634  HIT:     676184  MISS:      81450  HIT %:    89.2494  MISS %:    10.7506  MPKI: 1.629
L2C RFO DATA	ACCESS:     289187  HIT:     236905  MISS:      52282  HIT %:     81.921  MISS %:     18.079  MPKI: 1.04564
L2C PREFETCH DATA	ACCESS:     208544  HIT:     128059  MISS:      80485  HIT %:    61.4062  MISS %:    38.5938  MPKI: 1.6097
L2C WRITEBACK DATA	ACCESS:     528908  HIT:     515608  MISS:      13300  HIT %:    97.4854  MISS %:    2.51462  MPKI: 0.266
L2C LOAD TRANSLATION DATA	ACCESS:       1821  HIT:        369  MISS:       1452  HIT %:    20.2636  MISS %:    79.7364  MPKI: 0.02904
L2C TRANSLATION FROM L1D PREFETCHER DATA	ACCESS:         29  HIT:         19  MISS:         10  HIT %:    65.5172  MISS %:    34.4828  MPKI: 0.0002

L2C PREFETCH  REQUESTED:      96800  ISSUED:      96800  USEFUL:       9715  USELESS:      71372
L2C USEFUL LOAD PREFETCHES:       9715 PREFETCH ISSUED TO LOWER LEVEL:      81046  ACCURACY: 11.987
 TIMELY PREFETCHES:       9715 LATE PREFETCHES: 561 DROPPED PREFETCHES: 0
L2C AVERAGE MISS LATENCY: 37.568 cycles
L2C RQ	ACCESS:    3809784	FORWARD:          0	MERGED:          0	TO_CACHE:    3809718
L2C WQ	ACCESS:     528908	FORWARD:         66	MERGED:          0	TO_CACHE:     528908
L2C PQ	ACCESS:     216171	FORWARD:          0	MERGED:       3496	TO_CACHE:     212675

L2C Dense regions hint from L2: 0
PSCL5 TOTAL     ACCESS:       4022  HIT:       2011  MISS:       2011  HIT %:         50  MISS %:         50   MPKI: 0.04022
PSCL5 LOAD TRANSLATION INSTRUCTION	ACCESS:       3964  HIT:       1982  MISS:       1982  HIT %:         50  MISS %:         50  MPKI: 0.03964
PSCL5 TRANSLATION FROM L1D PREFETCHER INSTRUCTION	ACCESS:         58  HIT:         29  MISS:         29  HIT %:         50  MISS %:         50  MPKI: 0.00058


PSCL4 TOTAL     ACCESS:       3848  HIT:       1922  MISS:       1926  HIT %:     49.948  MISS %:     50.052   MPKI: 0.03852
PSCL4 LOAD TRANSLATION INSTRUCTION	ACCESS:       3469  HIT:       1894  MISS:       1575  HIT %:    54.5979  MISS %:    45.4021  MPKI: 0.0315
PSCL4 TRANSLATION FROM L1D PREFETCHER INSTRUCTION	ACCESS:         56  HIT:         28  MISS:         28  HIT %:         50  MISS %:         50  MPKI: 0.00056
PSCL4 LOAD TRANSLATION DATA	ACCESS:        323  HIT:          0  MISS:        323  HIT %:          0  MISS %:        100  MPKI: 0.00646


PSCL3 TOTAL     ACCESS:       3922  HIT:       1959  MISS:       1963  HIT %:     49.949  MISS %:     50.051   MPKI: 0.03926
PSCL3 LOAD TRANSLATION INSTRUCTION	ACCESS:       3506  HIT:       1931  MISS:       1575  HIT %:     55.077  MISS %:     44.923  MPKI: 0.0315
PSCL3 TRANSLATION FROM L1D PREFETCHER INSTRUCTION	ACCESS:         56  HIT:         28  MISS:         28  HIT %:         50  MISS %:         50  MPKI: 0.00056
PSCL3 LOAD TRANSLATION DATA	ACCESS:        360  HIT:          0  MISS:        360  HIT %:          0  MISS %:        100  MPKI: 0.0072


PSCL2 TOTAL     ACCESS:       3940  HIT:       1929  MISS:       2011  HIT %:    48.9594  MISS %:    51.0406   MPKI: 0.04022
PSCL2 LOAD TRANSLATION INSTRUCTION	ACCESS:       2124  HIT:       1900  MISS:        224  HIT %:    89.4539  MISS %:    10.5461  MPKI: 0.00448
PSCL2 TRANSLATION FROM L1D PREFETCHER INSTRUCTION	ACCESS:         29  HIT:         29  MISS:          0  HIT %:        100  MISS %:          0  MPKI: 0
PSCL2 LOAD TRANSLATION DATA	ACCESS:       1758  HIT:          0  MISS:       1758  HIT %:          0  MISS %:        100  MPKI: 0.03516
PSCL2 TRANSLATION FROM L1D PREFETCHER DATA	ACCESS:         29  HIT:          0  MISS:         29  HIT %:          0  MISS %:        100  MPKI: 0.00058


LLC TOTAL     ACCESS:     549006  HIT:     525272  MISS:      23734  HIT %:    95.6769  MISS %:    4.32309   MPKI: 0.47468
LLC LOAD INSTRUCTION	ACCESS:     256766  HIT:     256067  MISS:        699  HIT %:    99.7278  MISS %:   0.272232  MPKI: 0.01398
LLC LOAD TRANSLATION INSTRUCTION	ACCESS:        192  HIT:        174  MISS:         18  HIT %:     90.625  MISS %:      9.375  MPKI: 0.00036
LLC LOAD DATA	ACCESS:      80934  HIT:      77638  MISS:       3296  HIT %:    95.9275  MISS %:    4.07245  MPKI: 0.06592
LLC RFO DATA	ACCESS:      52234  HIT:      42680  MISS:       9554  HIT %:    81.7092  MISS %:    18.2908  MPKI: 0.19108
LLC PREFETCH DATA	ACCESS:      81046  HIT:      71167  MISS:       9879  HIT %:    87.8106  MISS %:    12.1894  MPKI: 0.19758
LLC WRITEBACK DATA	ACCESS:      76372  HIT:      76167  MISS:        205  HIT %:    99.7316  MISS %:   0.268423  MPKI: 0.0041
LLC LOAD TRANSLATION DATA	ACCESS:       1452  HIT:       1369  MISS:         83  HIT %:    94.2837  MISS %:    5.71625  MPKI: 0.00166
LLC TRANSLATION FROM L1D PREFETCHER DATA	ACCESS:         10  HIT:         10  MISS:          0  HIT %:        100  MISS %:          0  MPKI: 0

LLC AVERAGE MISS LATENCY: 171.641 cycles
LLC RQ	ACCESS:     391591	FORWARD:          0	MERGED:          0	TO_CACHE:     391588
LLC WQ	ACCESS:      76372	FORWARD:          3	MERGED:          0	TO_CACHE:      76372
LLC PQ	ACCESS:      81046	FORWARD:          0	MERGED:          0	TO_CACHE:      81046

LLC Dense regions hint to LLC: 0

RAW hits: 1941063
Loads Generated: 12604181
Loads sent to L1D: 10663119
Stores Generated: 6906708
Stores sent to L1D: 6906722
Major fault: 0 Minor fault: 2311
Allocated PAGES: 2311

stream: 
stream:times selected: 1242814
stream:pref_filled: 127088
stream:pref_useful: 29179
stream:pref_late: 9858
stream:misses: 10677
stream:misses_by_poll: 0

CS: 
CS:times selected: 194825
CS:pref_filled: 73121
CS:pref_useful: 49663
CS:pref_late: 11342
CS:misses: 26288
CS:misses_by_poll: 2

CPLX: 
CPLX:times selected: 1046805
CPLX:pref_filled: 25595
CPLX:pref_useful: 7791
CPLX:pref_late: 4124
CPLX:misses: 132964
CPLX:misses_by_poll: 0

NL_L1: 
NL:times selected: 12259
NL:pref_filled: 1145
NL:pref_useful: 321
NL:pref_late: 475
NL:misses: 2139
NL:misses_by_poll: 0

total selections: 2496703
total_filled: 104209
total_useful: 48815
total_late: 28134
total_polluted: 2
total_misses_after_warmup: 808803
conflicts: 5491378

test: 117238

DRAM Statistics
 CHANNEL 0
 RQ ROW_BUFFER_HIT:       8621  ROW_BUFFER_MISS:      14904
 DBUS_CONGESTED:          9
 WQ ROW_BUFFER_HIT:       1246  ROW_BUFFER_MISS:      10123  FULL:          0

 AVG_CONGESTED_CYCLE: 5

CPU 0 Branch Prediction Accuracy: 99.8228% MPKI: 0.32472 Average ROB Occupancy at Mispredict: 201.383
Branch types
NOT_BRANCH: 40835141 81.6703%
BRANCH_DIRECT_JUMP: 543992 1.08798%
BRANCH_INDIRECT: 181037 0.362074%
BRANCH_CONDITIONAL: 6212499 12.425%
BRANCH_DIRECT_CALL: 942514 1.88503%
BRANCH_INDIRECT_CALL: 171049 0.342098%
BRANCH_RETURN: 1113565 2.22713%
BRANCH_OTHER: 0 0%

DRAM PAGES: 1048576
Allocated PAGES: 2311
Average_ROB_Occupancy: 251.084
Average_Decode_Occupancy: 38.7668
Average_FTQ_Occupancy: 15.1166
Indirect max targets: 14 Average targets: 1.15017
Branch_type:  BRANCH_DIRECT_JUMP:  Count Percentage: 3.65263 5.78084 3.67609 8.85489 2.9217 6.32557 1.79885 66.9894 
Branch_type:  BRANCH_INDIRECT:  Count Percentage: 11.7305 7.07445 2.52835 3.75717 3.34904 24.1913 3.21842 44.1508 
Branch_type:  BRANCH_CONDITIONAL:  Count Percentage: 21.9838 3.56637 4.62746 3.64793 2.46134 5.54241 1.09336 57.0773 
Branch_type:  BRANCH_DIRECT_CALL:  Count Percentage: 0.264784 1.78919 0.723144 3.18948 3.09328 3.27946 0.884758 86.7759 
Branch_type:  BRANCH_INDIRECT_CALL:  Count Percentage: 9.53145 0 2.98828 4.26968 0 4.04011 0.994141 78.1763 
Branch_type:  BRANCH_RETURN:  Count Percentage: 3.77711 2.45166 4.11963 3.40149 5.01043 7.26449 1.18734 72.7879 
Branch_type:  BRANCH_DIRECT_JUMP:  Total Count: 39703 62836 39958 96250 31758 68757 19553 728155 
Branch_type:  BRANCH_INDIRECT:  Total Count: 42480 25619 9156 13606 12128 87605 11655 159885 
Branch_type:  BRANCH_CONDITIONAL:  Total Count: 2729703 442831 574586 452958 305621 688194 135761 7087211 
Branch_type:  BRANCH_DIRECT_CALL:  Total Count: 4979 33644 13598 59975 58166 61667 16637 1631735 
Branch_type:  BRANCH_INDIRECT_CALL:  Total Count: 32550 0 10205 14581 0 13797 3395 266973 
Branch_type:  BRANCH_RETURN:  Total Count: 83954 54493 91567 75605 111367 161468 26391 1617857 
Number of unique branch instructions: 9987
Upper 32 bits: 
aaaa
ffff
ffff0000
Unique upper 32 bits: 3
Unique upper 36 bits: 3
Unique upper 40 bits: 5
Unique upper 44 bits: 32
Unique upper 48 bits: 153
Variant_0 : 1415 0.345459
Variant_1 : 2608 0.636719
Variant_2 : 0 0
Variant_3 : 0 0
Offset_3 4135
Offset_4 248
Offset_5 452
Offset_6 515
Offset_7 589
Offset_8 520
Offset_9 468
Offset_10 391
Offset_11 330
Offset_12 265
Offset_13 200
Offset_14 225
Offset_15 191
Offset_16 227
Offset_17 146
Offset_18 127
Offset_19 235
Offset_20 139
Offset_21 235
Offset_22 398
Offset_23 241
Offset_24 328
Offset_25 88
Offset_47 80
Offset_64 2
decode_dispatch_called: 26561240 74.1645
Dispatch_width: 0 14424960 54.3083 40.2775
Dispatch_width: 1 1031073 3.88187 2.87897
Dispatch_width: 2 838066 3.15522 2.34005
Dispatch_width: 3 503604 1.89601 1.40617
Dispatch_width: 4 6347059 23.8959 17.7223
Dispatch_width: 5 105274 0.396344 0.293947
Dispatch_width: 6 3311204 12.4663 9.24557
Empty_decode_cycles: 9252717 25.8355
ROB_full_cycles: 10134942 28.2989
Starvation_cycles_per_kilo_instr: 223.678
Starvation_cycles_per_kilo_instr_3: 159.155
Starvation_cycles_per_kilo_instr_0: 135.427
Branch_type_1  (3,1)  (4,7)  (5,36)  (6,74)  (7,116)  (8,129)  (9,123)  (10,102)  (11,80)  (12,42)  (13,4)  (14,2)  (15,3)  (16,4)  (18,1)  (19,4)  (20,2)  (21,1)  (22,3)  (23,2)  (24,10)  (25,12) 
Branch_type_2  (3,1)  (5,1)  (8,3)  (9,3)  (12,1)  (13,1)  (14,1)  (16,3)  (17,2)  (20,2)  (21,2)  (23,5)  (24,1)  (47,36) 
Branch_type_3  (3,4133)  (4,241)  (5,411)  (6,425)  (7,442)  (8,329)  (9,260)  (10,161)  (11,133)  (12,49)  (13,4)  (24,1)  (64,2) 
Branch_type_4  (6,4)  (7,8)  (8,26)  (9,50)  (10,60)  (11,59)  (12,96)  (13,87)  (14,99)  (15,92)  (16,103)  (17,66)  (18,58)  (19,114)  (20,72)  (21,124)  (22,213)  (23,136)  (24,188)  (25,72) 
Branch_type_5  (8,2)  (9,1)  (10,3)  (11,5)  (12,3)  (13,14)  (14,16)  (15,11)  (16,20)  (17,11)  (18,16)  (19,12)  (20,10)  (21,13)  (22,42)  (23,26)  (24,36) 
Branch_type_6  (5,4)  (6,12)  (7,23)  (8,31)  (9,31)  (10,65)  (11,53)  (12,74)  (13,90)  (14,107)  (15,85)  (16,97)  (17,67)  (18,52)  (19,105)  (20,53)  (21,95)  (22,140)  (23,72)  (24,92)  (25,4)  (47,44) 
Unique trigger count: 
Variant_0_evicts_0 : 0
Variant_0_evicts_1 : 0
Variant_0_evicts_2 : 0
Variant_0_evicts_3 : 0
Variant_1_evicts_0 : 0
Variant_1_evicts_1 : 0
Variant_1_evicts_2 : 0
Variant_1_evicts_3 : 0
Variant_2_evicts_0 : 0
Variant_2_evicts_1 : 0
Variant_2_evicts_2 : 0
Variant_2_evicts_3 : 0
Variant_3_evicts_0 : 0
Variant_3_evicts_1 : 0
Variant_3_evicts_2 : 0
Variant_3_evicts_3 : 0
BTB PER SET UNIQUE ADDR: 15 12 14 13 13 16 17 16 11 23 16 16 17 13 12 12 13 16 17 15 15 11 13 15 15 14 12 15 13 18 14 11 15 15 12 12 19 15 13 16 16 15 13 15 14 16 15 11 15 13 13 15 13 18 18 13 13 16 15 16 12 14 12 15 17 16 13 16 15 13 12 13 17 15 14 14 18 10 14 11 20 17 17 18 13 12 15 16 15 15 13 16 17 19 15 16 14 14 13 17 12 18 17 13 14 21 18 12 16 14 15 14 9 16 17 11 14 14 11 14 17 16 11 16 12 15 16 12 13 16 22 15 16 10 12 19 16 17 15 18 7 18 13 15 16 9 15 16 13 13 15 15 10 15 17 12 14 13 13 18 15 14 9 16 14 15 19 10 14 18 20 14 15 12 17 15 13 16 14 12 15 15 14 17 15 13 14 14 14 19 17 14 17 19 16 15 12 17 17 14 12 16 16 12 16 12 12 17 13 18 11 15 13 13 11 15 16 11 15 17 13 14 15 10 14 13 15 13 14 14 16 17 18 13 14 14 16 21 15 15 15 12 11 18 13 15 14 11 18 16 11 17 21 13 10 19 11 17 17 15 19 14 15 13 17 12 15 16 16 17 16 16 16 17 16 19 14 12 11 13 14 15 18 13 16 15 11 15 14 14 16 12 12 17 13 15 13 15 18 16 13 15 19 14 13 15 15 14 13 13 13 15 14 15 16 13 16 15 15 13 17 13 11 17 13 15 13 11 17 16 16 14 19 11 12 15 13 16 19 9 15 12 13 15 17 12 13 20 17 15 16 15 14 18 10 15 12 14 11 15 14 13 15 16 14 14 20 12 12 10 14 15 14 18 15 14 14 18 15 14 16 13 16 16 16 17 12 16 11 17 18 12 13 16 14 14 13 13 16 17 15 16 19 10 18 13 14 17 15 13 12 14 15 14 19 16 17 19 14 15 16 15 14 19 16 12 12 15 16 17 18 12 16 14 16 15 16 16 18 11 14 16 17 13 17 12 12 17 14 13 18 13 18 17 11 13 14 10 16 12 15 21 21 13 16 13 13 19 15 15 15 11 13 17 18 16 19 15 15 16 18 13 15 20 14 18 18 14 17 15 19 16 14 13 14 14 14 15 17 11 12 13 12 18 15 19 11 14 12 20 15 14 
BTB PER SET COUNT: 15 22 16 977 13 21 18 36 11 24 17 17 21 953 35 12 15 25 37 192 500 11 27 527 17 15 1966 52 13 20 2497 979 15 1440 494 386 20 15 14 219 622 23 1420 16 506 16 15 20 16 734 15 16 921 1005 20 15 31 17 16 21 14 15 12 15 20 17 13 16 16 13 12 14 20 19 16 990 570 11 15 11 24 17 23 18 96 12 34 1927 2793 16 14 3426 21 55 19 19 1955 978 1155 385 12 987 20 14 129 21 19 13 72 442 17 844 10 19 19 11 15 15 21 14 19 21 4375 17 13 919 17 14 1279 20 2770 15 30 11 16 243 18 745 499 305 7 19 13 18 17 9 1501 17 16 17 72 368 11 82 136 31 1009 523 14 18 15 17 10 17 17 16 241 12 14 522 20 63 990 135 1402 42 17 16 14 12 21 35 14 23 285 13 15 51 82 20 18 26 1319 553 19 16 12 19 18 18 14 23 627 12 573 14 13 283 1974 367 12 21 13 13 15 17 24 12 18 19 368 658 18 10 18 145 23 15 16 19 22 18 677 18 28 17 372 557 2936 991 18 14 11 20 13 1473 18 12 2450 17 15 19 27 13 14 28 14 21 19 15 1476 1357 16 13 327 12 28 17 527 22 338 497 18 1346 28 1000 14 15 13 13 24 336 145 14 16 18 18 979 22 16 20 978 12 1475 988 332 16 994 125 1469 979 16 579 68 13 16 20429 19 15 496 3906 16 1091 16 1378 13 17 15 16 15 17 19 11 24 13 20 13 975 24 18 16 442 20 11 13 1714 16 60 21 11 17 12 14 17 103 16 13 25 1988 30 66 19 792 444 10 1467 18 982 11 15 16 166 16 785 282 1471 30 12 987 10 14 1495 62 25 19 15 14 19 16 14 1433 13 17 18 19 18 12 16 11 581 21 13 15 16 14 14 13 20 1929 76 17 18 22 62 20 71 15 18 1024 13 13 20 25 15 22 17 22 19 14 15 53 19 16 7446 24 17 12 18 16 19 1477 494 17 367 16 16 21 1919 22 12 14 1469 18 15 22 12 1962 19 991 16 20 1307 20 17 11 13 16 10 976 988 18 304 23 15 9724 14 13 23 15 17 2406 13 39 18 18 9231 2938 15 17 190 1377 13 1477 2481 14 1700 20 17 18 18 48 47 14 14 805 16 2906 19 19 13 14 13 12 139 17 134 13 17 14 31 470 16 
To predecode: 0
Predecoding something: 0
Predecode request dropped: 0
sizeofblock_0 0
sizeofblock_1 38509
sizeofblock_2 97581
sizeofblock_3 0
sizeofblock_4 0
sizeofblock_5 0
sizeofblock_6 0
sizeofblock_7 0
sizeofblock_8 0
Variant_0 Correct: 1605636 Incorrect: 0 Accuracy: 1
Variant_1 Correct: 5713813 Incorrect: 0 Accuracy: 1
Variant_2 Correct: 0 Incorrect: 0 Accuracy: -nan
Variant_3 Correct: 0 Incorrect: 0 Accuracy: -nan
