
*** ChampSim Multicore Out-of-Order Simulator ***

Warmup Instructions: 50000000
Simulation Instructions: 50000000
Number of CPUs: 1
LLC sets: 2048
LLC ways: 16
Off-chip DRAM Size: 4096 MB Channels: 1 Width: 64-bit Data Rate: 6400 MT/s
CPU 0 runs ./micro_traces/srv245.trace.gz
.gz
ITLB has LRU replacement policy
DTLB has LRU replacement policy
STLB has LRU replacement policy
L1I has LRU replacement policy
L1D has LRU replacement policy
Initialize SRRIP state for L2C
Initialize DRRIP state for LLC
Heartbeat_Variant_0 : 1322 0.322754 per_variant_size: 0 1322 0 0 0 0 0 0 0 
Heartbeat_Variant_1 : 1212 0.295898 per_variant_size: 0 591 621 0 0 0 0 0 0 
Heartbeat_Variant_2 : 1314 0.320801 per_variant_size: 0 519 395 211 189 0 0 0 0 
Heartbeat_Variant_3 : 0 0 per_variant_size: 0 0 0 0 0 0 0 0 0 
Heartbeat_Variant_0_evicts 0 : 5582 1 : 277 2 : 255 3 : 0 
Heartbeat_Variant_1_evicts 0 : 266 1 : 0 2 : 383 3 : 0 
Heartbeat_Variant_2_evicts 0 : 236 1 : 380 2 : 0 3 : 0 
Heartbeat_Variant_3_evicts 0 : 0 1 : 0 2 : 0 3 : 0 
Heartbeat CPU 0 instructions: 10000001 cycles: 2792127 heartbeat IPC: 3.5815 cumulative IPC: 3.5815 (Simulation time: 0 hr 1 min 18 sec) 
Heartbeat_Variant_0 : 1351 0.329834 per_variant_size: 0 1351 0 0 0 0 0 0 0 
Heartbeat_Variant_1 : 1237 0.302002 per_variant_size: 0 584 653 0 0 0 0 0 0 
Heartbeat_Variant_2 : 1339 0.326904 per_variant_size: 0 526 384 223 206 0 0 0 0 
Heartbeat_Variant_3 : 0 0 per_variant_size: 0 0 0 0 0 0 0 0 0 
Heartbeat_Variant_0_evicts 0 : 5477 1 : 94 2 : 87 3 : 0 
Heartbeat_Variant_1_evicts 0 : 103 1 : 0 2 : 249 3 : 0 
Heartbeat_Variant_2_evicts 0 : 76 1 : 258 2 : 0 3 : 0 
Heartbeat_Variant_3_evicts 0 : 0 1 : 0 2 : 0 3 : 0 
Heartbeat CPU 0 instructions: 20000000 cycles: 5584245 heartbeat IPC: 3.58151 cumulative IPC: 3.5815 (Simulation time: 0 hr 2 min 28 sec) 
Heartbeat_Variant_0 : 1358 0.331543 per_variant_size: 0 1358 0 0 0 0 0 0 0 
Heartbeat_Variant_1 : 1241 0.302979 per_variant_size: 0 575 666 0 0 0 0 0 0 
Heartbeat_Variant_2 : 1344 0.328125 per_variant_size: 0 524 390 229 201 0 0 0 0 
Heartbeat_Variant_3 : 0 0 per_variant_size: 0 0 0 0 0 0 0 0 0 
Heartbeat_Variant_0_evicts 0 : 5408 1 : 47 2 : 40 3 : 0 
Heartbeat_Variant_1_evicts 0 : 42 1 : 0 2 : 205 3 : 0 
Heartbeat_Variant_2_evicts 0 : 42 1 : 202 2 : 0 3 : 0 
Heartbeat_Variant_3_evicts 0 : 0 1 : 0 2 : 0 3 : 0 
Heartbeat CPU 0 instructions: 30000003 cycles: 8376075 heartbeat IPC: 3.58188 cumulative IPC: 3.58163 (Simulation time: 0 hr 3 min 45 sec) 
Heartbeat_Variant_0 : 1374 0.335449 per_variant_size: 0 1374 0 0 0 0 0 0 0 
Heartbeat_Variant_1 : 1240 0.302734 per_variant_size: 0 566 674 0 0 0 0 0 0 
Heartbeat_Variant_2 : 1366 0.333496 per_variant_size: 0 542 403 218 203 0 0 0 0 
Heartbeat_Variant_3 : 0 0 per_variant_size: 0 0 0 0 0 0 0 0 0 
Heartbeat_Variant_0_evicts 0 : 5394 1 : 98 2 : 92 3 : 0 
Heartbeat_Variant_1_evicts 0 : 88 1 : 0 2 : 230 3 : 0 
Heartbeat_Variant_2_evicts 0 : 92 1 : 233 2 : 0 3 : 0 
Heartbeat_Variant_3_evicts 0 : 0 1 : 0 2 : 0 3 : 0 
Heartbeat CPU 0 instructions: 40000003 cycles: 11166889 heartbeat IPC: 3.58318 cumulative IPC: 3.58202 (Simulation time: 0 hr 5 min 4 sec) 
Heartbeat_Variant_0 : 1372 0.334961 per_variant_size: 0 1372 0 0 0 0 0 0 0 
Heartbeat_Variant_1 : 1249 0.304932 per_variant_size: 0 565 684 0 0 0 0 0 0 
Heartbeat_Variant_2 : 1380 0.336914 per_variant_size: 0 546 407 223 204 0 0 0 0 
Heartbeat_Variant_3 : 0 0 per_variant_size: 0 0 0 0 0 0 0 0 0 
Heartbeat_Variant_0_evicts 0 : 5385 1 : 77 2 : 90 3 : 0 
Heartbeat_Variant_1_evicts 0 : 73 1 : 0 2 : 255 3 : 0 
Heartbeat_Variant_2_evicts 0 : 99 1 : 247 2 : 0 3 : 0 
Heartbeat_Variant_3_evicts 0 : 0 1 : 0 2 : 0 3 : 0 
Heartbeat CPU 0 instructions: 50000001 cycles: 13958439 heartbeat IPC: 3.58224 cumulative IPC: 3.58206 (Simulation time: 0 hr 6 min 17 sec) 

Warmup complete CPU 0 instructions: 50000001 cycles: 13958439 (Simulation time: 0 hr 6 min 17 sec) 

Cycle: 20000000 FTQ IN: 55511867 FTQ occupancy: 15.8417 DECODE IN: 55511849 DECODE occupancy: 9.57508 ROB IN: 55511849 ROB occupancy: 262.071 ROB OUT: 55511849
Heartbeat_Variant_0 : 1382 0.337402 per_variant_size: 0 1382 0 0 0 0 0 0 0 
Heartbeat_Variant_1 : 1263 0.30835 per_variant_size: 0 582 681 0 0 0 0 0 0 
Heartbeat_Variant_2 : 1396 0.34082 per_variant_size: 0 563 388 251 194 0 0 0 0 
Heartbeat_Variant_3 : 0 0 per_variant_size: 0 0 0 0 0 0 0 0 0 
Heartbeat_Variant_0_evicts 0 : 5709 1 : 242 2 : 248 3 : 0 
Heartbeat_Variant_1_evicts 0 : 250 1 : 0 2 : 384 3 : 0 
Heartbeat_Variant_2_evicts 0 : 239 1 : 392 2 : 0 3 : 0 
Heartbeat_Variant_3_evicts 0 : 0 1 : 0 2 : 0 3 : 0 
Heartbeat CPU 0 instructions: 60000000 cycles: 24835766 heartbeat IPC: 0.919343 cumulative IPC: 0.919343 (Simulation time: 0 hr 7 min 30 sec) 
Cycle: 30000000 FTQ IN: 9370533 FTQ occupancy: 14.7824 DECODE IN: 9370539 DECODE occupancy: 5.13585 ROB IN: 9370527 ROB occupancy: 60.5211 ROB OUT: 9370481
Heartbeat_Variant_0 : 1388 0.338867 per_variant_size: 0 1388 0 0 0 0 0 0 0 
Heartbeat_Variant_1 : 1257 0.306885 per_variant_size: 0 569 688 0 0 0 0 0 0 
Heartbeat_Variant_2 : 1399 0.341553 per_variant_size: 0 551 392 256 200 0 0 0 0 
Heartbeat_Variant_3 : 0 0 per_variant_size: 0 0 0 0 0 0 0 0 0 
Heartbeat_Variant_0_evicts 0 : 5430 1 : 88 2 : 87 3 : 0 
Heartbeat_Variant_1_evicts 0 : 82 1 : 0 2 : 235 3 : 0 
Heartbeat_Variant_2_evicts 0 : 87 1 : 236 2 : 0 3 : 0 
Heartbeat_Variant_3_evicts 0 : 0 1 : 0 2 : 0 3 : 0 
Heartbeat CPU 0 instructions: 70000000 cycles: 35471964 heartbeat IPC: 0.940186 cumulative IPC: 0.929648 (Simulation time: 0 hr 8 min 41 sec) 
Cycle: 40000000 FTQ IN: 9288268 FTQ occupancy: 14.889 DECODE IN: 9288262 DECODE occupancy: 5.17311 ROB IN: 9288270 ROB occupancy: 62.6725 ROB OUT: 9288107
Heartbeat_Variant_0 : 1392 0.339844 per_variant_size: 0 1392 0 0 0 0 0 0 0 
Heartbeat_Variant_1 : 1257 0.306885 per_variant_size: 0 562 695 0 0 0 0 0 0 
Heartbeat_Variant_2 : 1397 0.341064 per_variant_size: 0 546 394 248 209 0 0 0 0 
Heartbeat_Variant_3 : 0 0 per_variant_size: 0 0 0 0 0 0 0 0 0 
Heartbeat_Variant_0_evicts 0 : 5353 1 : 66 2 : 55 3 : 0 
Heartbeat_Variant_1_evicts 0 : 63 1 : 0 2 : 222 3 : 0 
Heartbeat_Variant_2_evicts 0 : 54 1 : 219 2 : 0 3 : 0 
Heartbeat_Variant_3_evicts 0 : 0 1 : 0 2 : 0 3 : 0 
Heartbeat CPU 0 instructions: 80000002 cycles: 46250059 heartbeat IPC: 0.927808 cumulative IPC: 0.929034 (Simulation time: 0 hr 9 min 52 sec) 
Cycle: 50000000 FTQ IN: 9305053 FTQ occupancy: 14.8723 DECODE IN: 9305053 DECODE occupancy: 5.1293 ROB IN: 9305057 ROB occupancy: 59.2726 ROB OUT: 9305254
Heartbeat_Variant_0 : 1400 0.341797 per_variant_size: 0 1400 0 0 0 0 0 0 0 
Heartbeat_Variant_1 : 1249 0.304932 per_variant_size: 0 548 701 0 0 0 0 0 0 
Heartbeat_Variant_2 : 1399 0.341553 per_variant_size: 0 547 390 255 207 0 0 0 0 
Heartbeat_Variant_3 : 0 0 per_variant_size: 0 0 0 0 0 0 0 0 0 
Heartbeat_Variant_0_evicts 0 : 5477 1 : 65 2 : 45 3 : 0 
Heartbeat_Variant_1_evicts 0 : 57 1 : 0 2 : 229 3 : 0 
Heartbeat_Variant_2_evicts 0 : 46 1 : 230 2 : 0 3 : 0 
Heartbeat_Variant_3_evicts 0 : 0 1 : 0 2 : 0 3 : 0 
Heartbeat CPU 0 instructions: 90000000 cycles: 56943676 heartbeat IPC: 0.935137 cumulative IPC: 0.930552 (Simulation time: 0 hr 11 min 6 sec) 
Cycle: 60000000 FTQ IN: 9407345 FTQ occupancy: 14.867 DECODE IN: 9407346 DECODE occupancy: 5.21477 ROB IN: 9407336 ROB occupancy: 63.8025 ROB OUT: 9407340
Heartbeat_Variant_0 : 1402 0.342285 per_variant_size: 0 1402 0 0 0 0 0 0 0 
Heartbeat_Variant_1 : 1249 0.304932 per_variant_size: 0 545 704 0 0 0 0 0 0 
Heartbeat_Variant_2 : 1400 0.341797 per_variant_size: 0 545 393 248 214 0 0 0 0 
Heartbeat_Variant_3 : 0 0 per_variant_size: 0 0 0 0 0 0 0 0 0 
Heartbeat_Variant_0_evicts 0 : 5389 1 : 27 2 : 29 3 : 0 
Heartbeat_Variant_1_evicts 0 : 27 1 : 0 2 : 189 3 : 0 
Heartbeat_Variant_2_evicts 0 : 27 1 : 191 2 : 0 3 : 0 
Heartbeat_Variant_3_evicts 0 : 0 1 : 0 2 : 0 3 : 0 
Heartbeat CPU 0 instructions: 100000003 cycles: 67429469 heartbeat IPC: 0.953672 cumulative IPC: 0.935086 (Simulation time: 0 hr 12 min 15 sec) 
Finished CPU 0 instructions: 50000002 cycles: 53471030 cumulative IPC: 0.935086 (Simulation time: 0 hr 12 min 15 sec) 

ChampSim completed all CPUs

Region of Interest Statistics

CPU 0 cumulative IPC: 0.935086 instructions: 50000002 cycles: 53471030
 Fetch stage stalled: 27.5663  Sim cycles: 53471030 fetch stall cycle: 14739986
 Empty decode stage: 66.7235  Sim cycles: 53471030 fetch stall cycle: 35677727
ITLB TOTAL     ACCESS:    7238947  HIT:    6792038  MISS:     446909  HIT %:    93.8263  MISS %:    6.17367   MPKI: 8.93818
ITLB LOAD TRANSLATION INSTRUCTION	ACCESS:    7238947  HIT:    6792038  MISS:     446909  HIT %:    93.8263  MISS %:    6.17367  MPKI: 8.93818

ITLB AVERAGE MISS LATENCY: 9.09066 cycles
ITLB RQ	ACCESS:    8252635	FORWARD:          0	MERGED:     834313	TO_CACHE:    7418322

DTLB TOTAL     ACCESS:   10055141  HIT:    9579657  MISS:     475484  HIT %:    95.2712  MISS %:    4.72877   MPKI: 9.50968
DTLB LOAD TRANSLATION DATA	ACCESS:   10055141  HIT:    9579657  MISS:     475484  HIT %:    95.2712  MISS %:    4.72877  MPKI: 9.50968

DTLB AVERAGE MISS LATENCY: 9.39428 cycles
DTLB RQ	ACCESS:   14118729	FORWARD:          0	MERGED:    4030976	TO_CACHE:   10087753

STLB TOTAL     ACCESS:    1234024  HIT:    1230839  MISS:       3185  HIT %:    99.7419  MISS %:   0.258099   MPKI: 0.0637
STLB LOAD TRANSLATION INSTRUCTION	ACCESS:     446909  HIT:     446333  MISS:        576  HIT %:    99.8711  MISS %:   0.128885  MPKI: 0.01152
STLB LOAD TRANSLATION DATA	ACCESS:     475470  HIT:     472897  MISS:       2573  HIT %:    99.4589  MISS %:   0.541149  MPKI: 0.05146
STLB TRANSLATION FROM L1D PREFETCHER DATA	ACCESS:     311645  HIT:     311609  MISS:         36  HIT %:    99.9884  MISS %:  0.0115516  MPKI: 0.00072

STLB AVERAGE MISS LATENCY: 65.2986 cycles
STLB RQ	ACCESS:    1406342	FORWARD:          0	MERGED:     172226	TO_CACHE:    1234116

STLB Hit, L1D data hit: 0
STLB Hit, L2C data hit: 0
STLB Hit, LLC data hit: 0
STLB Hit, LLC data miss: 0
STLB STLB hints to L2: 0
L1D TOTAL     ACCESS:   14003404  HIT:   12899665  MISS:    1103739  HIT %:    92.1181  MISS %:    7.88193   MPKI: 22.0748
L1D LOAD DATA	ACCESS:    7427693  HIT:    6715106  MISS:     712587  HIT %:    90.4063  MISS %:    9.59365  MPKI: 14.2517
L1D RFO DATA	ACCESS:    6171305  HIT:    5893303  MISS:     278002  HIT %:    95.4952  MISS %:    4.50475  MPKI: 5.56004
L1D PREFETCH DATA	ACCESS:     404406  HIT:     291256  MISS:     113150  HIT %:    72.0207  MISS %:    27.9793  MPKI: 2.263

L1D PREFETCH  REQUESTED:     968029  ISSUED:     968029  USEFUL:      58111  USELESS:      74750
L1D USEFUL LOAD PREFETCHES:      58111 PREFETCH ISSUED TO LOWER LEVEL:     132925  ACCURACY: 43.7171
 TIMELY PREFETCHES:      58111 LATE PREFETCHES: 19700 DROPPED PREFETCHES: 49
L1D AVERAGE MISS LATENCY: 713126 cycles
L1D RQ	ACCESS:   11267987	FORWARD:          0	MERGED:    3655743	TO_CACHE:    7466102
L1D WQ	ACCESS:    6770009	FORWARD:     146273	MERGED:     117382	TO_CACHE:    6652627
L1D PQ	ACCESS:     484080	FORWARD:          0	MERGED:          0	TO_CACHE:     483949

L1D UNIQUE REGIONS ACCESSED: 0
L1D REGIONS CONFLICTS: 0
L1D Cross Page Prefetch Requests: 10455
L1D Same Page Prefetch Requests: 963865
L1D ROI Sum of L1D PQ occupancy: 6147051
L1D PREFETCHES PUSHED FROM L2C: 0
L1I TOTAL     ACCESS:    7751167  HIT:    5237816  MISS:    2513351  HIT %:    67.5745  MISS %:    32.4255   MPKI: 50.267
L1I LOAD INSTRUCTION	ACCESS:    7751167  HIT:    5237816  MISS:    2513351  HIT %:    67.5745  MISS %:    32.4255  MPKI: 50.267

L1I AVERAGE MISS LATENCY: 16.9067 cycles
L1I RQ	ACCESS:   15524965	FORWARD:          0	MERGED:    7272330	TO_CACHE:    8252635

L1BTB TOTAL     ACCESS:    5844335  HIT:    2450518  MISS:    3393817  HIT %:    41.9298  MISS %:    58.0702   MPKI: 67.8763
L1BTB BRANCH_DIRECT_JUMP	ACCESS:     589579  HIT:     197485  MISS:     392094	AVERAGE STALL: 21.0116
L1BTB BRANCH_INDIRECT	ACCESS:     172403  HIT:      56806  MISS:     115597	AVERAGE STALL: 51.3308
L1BTB BRANCH_CONDITIONAL	ACCESS:    2990677  HIT:    1780575  MISS:    1210102	AVERAGE STALL: 31.8235
L1BTB BRANCH_DIRECT_CALL	ACCESS:     886102  HIT:     107602  MISS:     778500	AVERAGE STALL: 33.9046
L1BTB BRANCH_INDIRECT_CALL	ACCESS:     159736  HIT:      20353  MISS:     139383	AVERAGE STALL: 68.9909
L1BTB BRANCH_RETURN	ACCESS:    1045838  HIT:     287697  MISS:     758141	AVERAGE STALL: 34.6283
L1BTB BRANCH_OTHER ACCESS:          0  HIT:          0  MISS:          0	AVERAGE STALL: -nan
L1BTB TOTAL ROB OCCUPANCY AT BTB MISS: 0.626775

L2BTB TOTAL     ACCESS:    3368521  HIT:    3314244  MISS:      54277  HIT %:    98.3887  MISS %:     1.6113   MPKI: 1.08554
L2BTB BRANCH_DIRECT_JUMP	ACCESS:     387031  HIT:     381718  MISS:       5313	AVERAGE STALL: 21.0116
L2BTB BRANCH_INDIRECT	ACCESS:     105772  HIT:     103254  MISS:       2518	AVERAGE STALL: 51.3308
L2BTB BRANCH_CONDITIONAL	ACCESS:    1210102  HIT:    1205438  MISS:       4664	AVERAGE STALL: 31.8235
L2BTB BRANCH_DIRECT_CALL	ACCESS:     778500  HIT:     776919  MISS:       1581	AVERAGE STALL: 33.9046
L2BTB BRANCH_INDIRECT_CALL	ACCESS:     129997  HIT:     120414  MISS:       9583	AVERAGE STALL: 68.9909
L2BTB BRANCH_RETURN	ACCESS:     757119  HIT:     726501  MISS:      30618	AVERAGE STALL: 34.6283
L2BTB BRANCH_OTHER ACCESS:          0  HIT:          0  MISS:          0	AVERAGE STALL: -nan
L2BTB TOTAL ROB OCCUPANCY AT BTB MISS: 39.1908

L2C TOTAL     ACCESS:    4193129  HIT:    3721764  MISS:     471365  HIT %:    88.7586  MISS %:    11.2414   MPKI: 9.4273
L2C LOAD INSTRUCTION	ACCESS:    2513350  HIT:    2286008  MISS:     227342  HIT %:    90.9546  MISS %:    9.04538  MPKI: 4.54684
L2C LOAD TRANSLATION INSTRUCTION	ACCESS:        646  HIT:        102  MISS:        544  HIT %:    15.7895  MISS %:    84.2105  MPKI: 0.01088
L2C LOAD DATA	ACCESS:     692847  HIT:     604257  MISS:      88590  HIT %:    87.2136  MISS %:    12.7864  MPKI: 1.7718
L2C RFO DATA	ACCESS:     277923  HIT:     225453  MISS:      52470  HIT %:    81.1207  MISS %:    18.8793  MPKI: 1.0494
L2C PREFETCH DATA	ACCESS:     221086  HIT:     132312  MISS:      88774  HIT %:    59.8464  MISS %:    40.1536  MPKI: 1.77548
L2C WRITEBACK DATA	ACCESS:     484388  HIT:     472732  MISS:      11656  HIT %:    97.5937  MISS %:    2.40634  MPKI: 0.23312
L2C LOAD TRANSLATION DATA	ACCESS:       2787  HIT:        852  MISS:       1935  HIT %:    30.5705  MISS %:    69.4295  MPKI: 0.0387
L2C TRANSLATION FROM L1D PREFETCHER DATA	ACCESS:        102  HIT:         48  MISS:         54  HIT %:    47.0588  MISS %:    52.9412  MPKI: 0.00108

L2C PREFETCH  REQUESTED:      96960  ISSUED:      96960  USEFUL:      10320  USELESS:      79280
L2C USEFUL LOAD PREFETCHES:      10320 PREFETCH ISSUED TO LOWER LEVEL:      89482  ACCURACY: 11.533
 TIMELY PREFETCHES:      10320 LATE PREFETCHES: 708 DROPPED PREFETCHES: 0
L2C AVERAGE MISS LATENCY: 42.6853 cycles
L2C RQ	ACCESS:    3487701	FORWARD:          0	MERGED:          0	TO_CACHE:    3487658
L2C WQ	ACCESS:     484388	FORWARD:         43	MERGED:          0	TO_CACHE:     484388
L2C PQ	ACCESS:     229885	FORWARD:          0	MERGED:       3579	TO_CACHE:     226306

L2C Dense regions hint from L2: 0
PSCL5 TOTAL     ACCESS:       6470  HIT:       3235  MISS:       3235  HIT %:         50  MISS %:         50   MPKI: 0.0647
PSCL5 LOAD TRANSLATION INSTRUCTION	ACCESS:       6276  HIT:       3138  MISS:       3138  HIT %:         50  MISS %:         50  MPKI: 0.06276
PSCL5 TRANSLATION FROM L1D PREFETCHER INSTRUCTION	ACCESS:        194  HIT:         97  MISS:         97  HIT %:         50  MISS %:         50  MPKI: 0.00194


PSCL4 TOTAL     ACCESS:       6063  HIT:       3025  MISS:       3038  HIT %:    49.8928  MISS %:    50.1072   MPKI: 0.06076
PSCL4 LOAD TRANSLATION INSTRUCTION	ACCESS:       3671  HIT:       2932  MISS:        739  HIT %:    79.8692  MISS %:    20.1308  MPKI: 0.01478
PSCL4 TRANSLATION FROM L1D PREFETCHER INSTRUCTION	ACCESS:        116  HIT:         93  MISS:         23  HIT %:    80.1724  MISS %:    19.8276  MPKI: 0.00046
PSCL4 LOAD TRANSLATION DATA	ACCESS:       2206  HIT:          0  MISS:       2206  HIT %:          0  MISS %:        100  MPKI: 0.04412
PSCL4 TRANSLATION FROM L1D PREFETCHER DATA	ACCESS:         70  HIT:          0  MISS:         70  HIT %:          0  MISS %:        100  MPKI: 0.0014


PSCL3 TOTAL     ACCESS:       6393  HIT:       3190  MISS:       3203  HIT %:    49.8983  MISS %:    50.1017   MPKI: 0.06406
PSCL3 LOAD TRANSLATION INSTRUCTION	ACCESS:       3835  HIT:       3096  MISS:        739  HIT %:    80.7301  MISS %:    19.2699  MPKI: 0.01478
PSCL3 TRANSLATION FROM L1D PREFETCHER INSTRUCTION	ACCESS:        117  HIT:         94  MISS:         23  HIT %:    80.3419  MISS %:    19.6581  MPKI: 0.00046
PSCL3 LOAD TRANSLATION DATA	ACCESS:       2370  HIT:          0  MISS:       2370  HIT %:          0  MISS %:        100  MPKI: 0.0474
PSCL3 TRANSLATION FROM L1D PREFETCHER DATA	ACCESS:         71  HIT:          0  MISS:         71  HIT %:          0  MISS %:        100  MPKI: 0.00142


PSCL2 TOTAL     ACCESS:       6191  HIT:       2960  MISS:       3231  HIT %:    47.8113  MISS %:    52.1887   MPKI: 0.06462
PSCL2 LOAD TRANSLATION INSTRUCTION	ACCESS:       3438  HIT:       2868  MISS:        570  HIT %:    83.4206  MISS %:    16.5794  MPKI: 0.0114
PSCL2 TRANSLATION FROM L1D PREFETCHER INSTRUCTION	ACCESS:         92  HIT:         92  MISS:          0  HIT %:        100  MISS %:          0  MPKI: 0
PSCL2 LOAD TRANSLATION DATA	ACCESS:       2569  HIT:          0  MISS:       2569  HIT %:          0  MISS %:        100  MPKI: 0.05138
PSCL2 TRANSLATION FROM L1D PREFETCHER DATA	ACCESS:         92  HIT:          0  MISS:         92  HIT %:          0  MISS %:        100  MPKI: 0.00184


LLC TOTAL     ACCESS:     535313  HIT:     496416  MISS:      38897  HIT %:    92.7338  MISS %:    7.26622   MPKI: 0.77794
LLC LOAD INSTRUCTION	ACCESS:     227342  HIT:     226186  MISS:       1156  HIT %:    99.4915  MISS %:   0.508485  MPKI: 0.02312
LLC LOAD TRANSLATION INSTRUCTION	ACCESS:        544  HIT:        499  MISS:         45  HIT %:    91.7279  MISS %:    8.27206  MPKI: 0.0009
LLC LOAD DATA	ACCESS:      87896  HIT:      83116  MISS:       4780  HIT %:    94.5618  MISS %:    5.43825  MPKI: 0.0956
LLC RFO DATA	ACCESS:      52452  HIT:      33557  MISS:      18895  HIT %:    63.9766  MISS %:    36.0234  MPKI: 0.3779
LLC PREFETCH DATA	ACCESS:      89482  HIT:      75982  MISS:      13500  HIT %:    84.9132  MISS %:    15.0868  MPKI: 0.27
LLC WRITEBACK DATA	ACCESS:      75608  HIT:      75211  MISS:        397  HIT %:    99.4749  MISS %:   0.525077  MPKI: 0.00794
LLC LOAD TRANSLATION DATA	ACCESS:       1935  HIT:       1816  MISS:        119  HIT %:    93.8501  MISS %:    6.14987  MPKI: 0.00238
LLC TRANSLATION FROM L1D PREFETCHER DATA	ACCESS:         54  HIT:         49  MISS:          5  HIT %:    90.7407  MISS %:    9.25926  MPKI: 0.0001

LLC AVERAGE MISS LATENCY: 161.729 cycles
LLC RQ	ACCESS:     370227	FORWARD:          0	MERGED:          0	TO_CACHE:     370223
LLC WQ	ACCESS:      75608	FORWARD:          4	MERGED:          0	TO_CACHE:      75608
LLC PQ	ACCESS:      89482	FORWARD:          0	MERGED:          0	TO_CACHE:      89482

LLC Dense regions hint to LLC: 0

RAW hits: 1182326
Loads Generated: 12450313
Loads sent to L1D: 11267987
Stores Generated: 6769985
Stores sent to L1D: 6770009
Major fault: 0 Minor fault: 2529
Allocated PAGES: 2529

stream: 
stream:times selected: 1494698
stream:pref_filled: 131264
stream:pref_useful: 30902
stream:pref_late: 10707
stream:misses: 13230
stream:misses_by_poll: 0

CS: 
CS:times selected: 237476
CS:pref_filled: 85275
CS:pref_useful: 60928
CS:pref_late: 11903
CS:misses: 30237
CS:misses_by_poll: 7

CPLX: 
CPLX:times selected: 1255160
CPLX:pref_filled: 30778
CPLX:pref_useful: 9276
CPLX:pref_late: 5925
CPLX:misses: 152654
CPLX:misses_by_poll: 0

NL_L1: 
NL:times selected: 28284
NL:pref_filled: 1777
NL:pref_useful: 858
NL:pref_late: 903
NL:misses: 3782
NL:misses_by_poll: 0

total selections: 3015618
total_filled: 113150
total_useful: 58111
total_late: 32837
total_polluted: 7
total_misses_after_warmup: 750996
conflicts: 5627565

test: 181297

DRAM Statistics
 CHANNEL 0
 RQ ROW_BUFFER_HIT:      13249  ROW_BUFFER_MISS:      25229
 DBUS_CONGESTED:          4
 WQ ROW_BUFFER_HIT:       2200  ROW_BUFFER_MISS:      18771  FULL:          0

 AVG_CONGESTED_CYCLE: 3

CPU 0 Branch Prediction Accuracy: 99.7504% MPKI: 0.4573 Average ROB Occupancy at Mispredict: 83.3484
Branch types
NOT_BRANCH: 40838091 81.6762%
BRANCH_DIRECT_JUMP: 589579 1.17916%
BRANCH_INDIRECT: 172403 0.344806%
BRANCH_CONDITIONAL: 6307923 12.6158%
BRANCH_DIRECT_CALL: 886102 1.7722%
BRANCH_INDIRECT_CALL: 159736 0.319472%
BRANCH_RETURN: 1045838 2.09168%
BRANCH_OTHER: 0 0%

DRAM PAGES: 1048576
Allocated PAGES: 2529
Average_ROB_Occupancy: 62.7413
Average_Decode_Occupancy: 5.1651
Average_FTQ_Occupancy: 14.8306
Indirect max targets: 14 Average targets: 1.14901
Branch_type:  BRANCH_DIRECT_JUMP:  Count Percentage: 9.64263 5.0962 4.6661 13.5033 5.22454 2.2454 1.96707 57.6548 
Branch_type:  BRANCH_INDIRECT:  Count Percentage: 5.52771 1.162 14.3352 25.1969 1.37866 16.586 1.78003 34.0335 
Branch_type:  BRANCH_CONDITIONAL:  Count Percentage: 26.4339 2.77986 2.97641 8.35981 2.3898 2.26327 2.16893 52.628 
Branch_type:  BRANCH_DIRECT_CALL:  Count Percentage: 0.341337 1.29045 1.83381 4.84843 3.03075 2.1258 3.43734 83.0921 
Branch_type:  BRANCH_INDIRECT_CALL:  Count Percentage: 8.72641 0.835574 2.97789 10.165 0.000626133 3.89204 2.77158 70.6309 
Branch_type:  BRANCH_RETURN:  Count Percentage: 3.92467 0.647503 3.47117 9.9493 4.04037 3.69417 2.74145 71.5314 
Branch_type:  BRANCH_DIRECT_JUMP:  Total Count: 113531 60002 54938 158986 61513 26437 23160 678819 
Branch_type:  BRANCH_INDIRECT:  Total Count: 19033 4001 49359 86758 4747 57109 6129 117184 
Branch_type:  BRANCH_CONDITIONAL:  Total Count: 3333099 350517 375301 1054103 301334 285379 273484 6635956 
Branch_type:  BRANCH_DIRECT_CALL:  Total Count: 6052 22880 32514 85964 53736 37691 60945 1473245 
Branch_type:  BRANCH_INDIRECT_CALL:  Total Count: 27874 2669 9512 32469 2 12432 8853 225610 
Branch_type:  BRANCH_RETURN:  Total Count: 82154 13554 72661 208266 84576 77329 57386 1497347 
Number of unique branch instructions: 10145
Upper 32 bits: 
aaaa
ffff
ffff0000
Unique upper 32 bits: 3
Unique upper 36 bits: 3
Unique upper 40 bits: 5
Unique upper 44 bits: 32
Unique upper 48 bits: 157
Variant_0 : 1402 0.342285
Variant_1 : 1249 0.304932
Variant_2 : 1400 0.341797
Variant_3 : 0 0
Offset_3 4186
Offset_4 265
Offset_5 474
Offset_6 514
Offset_7 604
Offset_8 522
Offset_9 482
Offset_10 380
Offset_11 324
Offset_12 282
Offset_13 216
Offset_14 231
Offset_15 193
Offset_16 226
Offset_17 155
Offset_18 118
Offset_19 242
Offset_20 142
Offset_21 265
Offset_22 396
Offset_23 241
Offset_24 353
Offset_25 88
Offset_47 86
Offset_64 3
decode_dispatch_called: 30050500 56.1996
Dispatch_width: 0 17949974 59.7327 33.5695
Dispatch_width: 1 2296487 7.64209 4.29482
Dispatch_width: 2 1109134 3.6909 2.07427
Dispatch_width: 3 1142032 3.80038 2.1358
Dispatch_width: 4 996831 3.31719 1.86424
Dispatch_width: 5 1264743 4.20873 2.36529
Dispatch_width: 6 5291299 17.608 9.89564
Empty_decode_cycles: 23420530 43.8004
ROB_full_cycles: 712229 1.33199
Starvation_cycles_per_kilo_instr: 474.675
Starvation_cycles_per_kilo_instr_3: 452.059
Starvation_cycles_per_kilo_instr_0: 406.583
Branch_type_1  (3,1)  (4,11)  (5,38)  (6,69)  (7,118)  (8,135)  (9,129)  (10,90)  (11,74)  (12,44)  (13,9)  (14,2)  (15,3)  (16,4)  (18,1)  (19,4)  (20,2)  (21,1)  (22,3)  (23,2)  (24,10)  (25,12) 
Branch_type_2  (3,1)  (5,1)  (8,2)  (9,3)  (12,1)  (13,1)  (14,1)  (16,3)  (17,2)  (20,2)  (21,2)  (23,5)  (24,1)  (47,40) 
Branch_type_3  (3,4184)  (4,254)  (5,431)  (6,430)  (7,453)  (8,324)  (9,264)  (10,156)  (11,132)  (12,54)  (13,8)  (64,3) 
Branch_type_4  (6,3)  (7,8)  (8,25)  (9,54)  (10,62)  (11,61)  (12,100)  (13,91)  (14,104)  (15,91)  (16,101)  (17,70)  (18,53)  (19,118)  (20,73)  (21,144)  (22,211)  (23,136)  (24,202)  (25,72) 
Branch_type_5  (8,2)  (9,1)  (10,4)  (11,5)  (12,3)  (13,14)  (14,16)  (15,11)  (16,20)  (17,11)  (18,16)  (19,13)  (20,11)  (21,13)  (22,42)  (23,26)  (24,41) 
Branch_type_6  (5,4)  (6,12)  (7,25)  (8,34)  (9,31)  (10,68)  (11,52)  (12,80)  (13,93)  (14,108)  (15,88)  (16,98)  (17,72)  (18,48)  (19,107)  (20,54)  (21,105)  (22,140)  (23,72)  (24,99)  (25,4)  (47,46) 
Unique trigger count: 
Variant_0_evicts_0 : 0
Variant_0_evicts_1 : 0
Variant_0_evicts_2 : 0
Variant_0_evicts_3 : 0
Variant_1_evicts_0 : 0
Variant_1_evicts_1 : 0
Variant_1_evicts_2 : 0
Variant_1_evicts_3 : 0
Variant_2_evicts_0 : 0
Variant_2_evicts_1 : 0
Variant_2_evicts_2 : 0
Variant_2_evicts_3 : 0
Variant_3_evicts_0 : 0
Variant_3_evicts_1 : 0
Variant_3_evicts_2 : 0
Variant_3_evicts_3 : 0
BTB PER SET UNIQUE ADDR: 12 15 6 12 11 14 12 8 8 14 13 18 16 13 12 9 10 12 11 12 12 12 16 11 13 9 11 16 12 11 13 17 14 9 6 9 15 13 7 10 10 7 11 11 10 10 14 7 12 13 9 12 8 15 10 5 9 10 9 12 11 17 11 14 8 8 14 9 15 12 12 10 14 9 12 6 8 18 10 15 11 7 10 15 16 13 12 12 9 18 8 8 9 10 5 10 12 7 11 13 15 15 11 11 15 6 12 12 8 8 10 15 11 14 11 8 12 13 11 11 12 10 4 12 13 8 10 11 18 8 9 11 18 17 13 8 7 14 12 12 9 13 13 9 18 9 12 10 10 12 11 16 14 14 6 9 17 9 12 11 11 9 11 14 12 11 15 12 11 8 10 14 8 12 12 10 11 12 14 15 9 9 10 11 17 14 9 13 11 11 11 10 12 8 9 15 6 15 9 14 10 12 8 10 6 10 12 11 10 12 8 14 11 10 9 14 11 15 10 15 10 13 10 9 6 10 15 11 5 11 10 9 11 18 10 10 9 12 10 9 12 10 12 14 8 15 7 8 10 9 7 11 10 10 15 14 10 10 11 14 12 10 5 14 12 10 10 10 7 13 12 15 9 5 8 9 14 17 13 8 8 15 11 14 9 8 11 14 10 12 10 13 11 15 6 13 14 12 15 10 11 9 14 13 13 16 11 11 17 12 10 13 8 21 11 5 14 13 12 15 9 9 8 12 11 13 16 7 10 9 14 8 11 11 10 11 9 10 9 16 13 11 7 15 11 16 11 12 13 10 10 6 7 14 9 11 13 9 13 15 9 10 7 16 7 12 7 14 14 14 13 11 11 17 9 9 13 12 12 10 14 12 6 8 10 16 13 17 14 9 19 11 13 11 13 13 13 13 18 10 13 14 9 14 15 12 15 8 10 14 15 9 9 13 13 12 12 13 15 16 15 15 10 12 15 9 9 12 11 12 15 7 12 13 11 12 14 9 11 10 9 10 12 14 20 8 8 8 16 13 11 17 19 9 12 18 15 16 10 18 10 10 10 8 18 14 10 12 11 16 14 13 11 16 15 20 13 17 7 12 16 14 10 17 6 13 20 18 15 11 8 14 11 6 14 9 16 17 7 11 14 11 15 13 8 8 12 19 16 8 14 14 15 11 11 13 11 21 8 9 9 11 11 10 15 15 14 7 9 18 10 16 20 14 10 14 12 16 11 9 13 7 11 16 12 13 10 12 5 6 16 16 16 14 9 15 12 10 18 14 11 14 16 15 12 13 9 15 11 12 16 14 14 16 16 16 16 17 12 9 14 12 8 12 15 11 13 13 11 17 11 14 11 9 12 11 12 13 7 12 10 13 9 7 10 15 19 12 16 11 12 14 8 12 5 10 12 17 13 13 15 10 7 11 12 11 11 13 12 12 9 15 14 15 8 12 14 14 7 12 13 14 13 22 11 15 9 15 15 10 8 14 12 10 11 13 15 10 14 17 10 7 13 13 10 12 10 12 11 12 12 11 12 15 19 8 11 16 9 12 9 12 15 11 11 12 9 14 18 17 13 11 15 11 10 11 13 13 12 12 9 12 16 17 7 12 12 13 12 10 9 11 9 8 12 11 18 13 11 14 12 9 11 12 8 11 9 15 10 9 10 14 11 8 13 13 14 11 10 12 12 11 11 9 12 15 17 13 6 8 15 10 12 16 6 11 13 10 7 9 8 10 7 8 13 18 7 12 13 14 11 13 10 11 9 9 13 10 13 15 10 16 12 12 13 11 9 11 13 6 7 8 14 11 12 21 9 10 19 12 18 11 11 15 17 9 10 12 11 12 9 17 12 16 9 13 16 11 5 15 10 18 7 13 15 12 9 12 16 14 10 17 11 13 13 12 14 12 11 8 16 12 8 12 11 18 10 9 6 11 10 11 11 15 14 17 15 12 15 12 17 10 7 7 18 10 12 10 10 10 8 12 12 13 18 5 5 11 10 11 13 11 13 12 11 14 13 12 15 12 13 8 11 14 9 11 16 12 11 9 10 10 9 10 9 8 12 9 10 9 7 13 9 16 11 15 18 13 12 8 8 17 13 12 12 7 7 16 15 7 10 19 13 12 11 16 10 14 14 14 9 19 10 12 11 9 11 11 10 12 12 13 11 18 13 14 10 16 13 13 11 11 16 20 13 10 9 8 8 13 12 17 13 9 12 11 16 10 13 17 14 10 16 15 14 15 15 8 12 16 11 14 8 14 10 10 12 9 15 13 12 13 7 10 14 12 9 13 7 12 8 10 5 7 7 8 6 8 6 7 9 19 10 7 
BTB PER SET COUNT: 17 23 2012 21 1100 23 627 8 9 23 17 564 8595 368 14 10 710 1658 13 15 13 15 564 17 27 9 12 551 255 14 21 636 19 9 8 10 20 21 8 836 13 13 11 12 1101 13 22 7 25 16 11 294 11 29 38 6 11 10 16 17 12 21 18 19 8 8 25 558 18 19 1109 15 30 13 15 7 13 382 12 19 544 10 22 904 23 106 15 18 10 43 10 11 19 81 6 14 509 9 33 19 22 1026 18 60 1236 12 15 18 684 1314 12 37 56 21 15 43 16 29 1102 18 27 62 4 13 18 8 20 14 37 761 19 4500 38 28 25 9 699 27 19 14 10 20 17 22 24 14 453 1047 22 136 14 31 846 16 8 15 24 11 16 12 15 10 13 14 1103 15 32 16 19 1098 12 14 11 23 15 11 14 24 293 635 30 339 178 12 35 18 10 18 445 18 12 10 17 9 11 21 6 238 9 33 12 21 699 12 8 13 16 364 11 340 14 31 17 37 9 426 12 25 1790 27 16 21 14 10 10 24 17 11 5 13 12 10 15 32 10 10519 51 16 12 16 40 15 21 830 15 475 7 8 175 9 7 17 10 11 18 17 11 20 11 38 68 16 5 29 19 17 11 11 2954 23 16 690 9 5 408 10 15 21 24 10 11 26 18 19 14 14 11 16 12 14 14 22 14 628 9 23 626 16 17 288 14 10 19 19 14 168 61 14 101 252 27 16 9 28 884 1338 19 33 57 34 10 1181 11 20 1101 98 140 11 16 10 17 8 20 17 10 17 13 653 10 21 17 191 9 24 15 28 20 17 17 14 13 6 10 19 10 11 14 15 46 23 11 12 8 20 11 158 10 20 21 19 363 235 18 24 704 10 16 14 22 13 280 12 8 8 21 18 19 27 31 12 192 14 18 525 18 286 21 15 262 18 21 17 12 20 17 15 19 8 14 22 555 10 10 18 22 20 15 53 18 28 18 53 32 17 33 20 1509 20 15 21 106 7 15 16 355 17 17 17 15 21 12 15 25 21 1761 10 363 14 21 33 17 35 37 10 16 1245 18 25 821 27 12 22 20 10 32 90 16 18 16 29 21 19 15 26 24 32 16 30 9 17 35 16 13 22 6 43 49 23 25 15 28 18 19 8 18 13 88 30 8 21 18 13 22 19 1626 11 70 31 18 12 49 32 25 16 13 13 17 39 11 46 13 14 12 383 21 18 1805 1109 14 2488 21 94 215 34 14 16 79 28 30 630 15 8 11 26 14 217 12 17 5 15 30 20 57 42 9 26 17 16 32 25 14 60 24 32 25 19 10 17 15 14 82 17 19 143 1813 20 20 21 15 9 14 18 15 1242 19 18 20 19 20 29 17 17 13 10 19 18 18 267 7 15 12 24 14 7 29 19 36 422 33 15 18 24 8 14 5 13 14 27 18 545 23 11 8 260 15 20 15 21 19 25 15 18 20 117 8 13 24 1355 9 23 15 22 18 36 18 34 718 19 24 10 10 31 13 21 33 356 23 84 1153 719 13 8 13 21 708 21 13 17 1103 17 14 17 704 21 46 348 13 22 12 18 10 16 597 19 14 19 12 19 111 43 15 24 20 16 219 16 675 692 21 13 9 18 643 28 7 15 14 16 49 16 10 18 414 9 40 22 196 19 13 18 116 10 16 1116 9 17 10 20 682 9 15 6124 12 8 26 709 838 12 10 25 1317 18 12 40 18 17 2522 16 7 9 166 12 384 1542 9 13 18 604 12 10 12 19 7 10 29 31 8 13 22 22 61 18 12 14 12 12 16 12 18 22 597 20 271 15 14 11 12 12 23 6 10 649 15 16 12 313 141 13 43 21 27 16 13 29 26 15 12 17 23 12 9 8775 24 29 28 18 24 14 5 24 14 22 31 22 37 16 11 21 24 15 16 30 13 15 202 172 29 14 12 217 27 296 8 21 953 22 12 13 9 4773 444 1318 34 35 23 23 76 13 20 15 1368 11 9 9 39 19 18 12 11 15 8 31 19 19 129 5 6 18 13 25 19 14 38 100 408 607 18 18 25 17 16 1680 29 29 13 13 22 14 15 9 12 14 11 14 11 14 16 14 16 194 10 338 11 24 13 723 20 19 19 9 12 760 23 14 18 10 11 20 30 7 14 21 22 14 216 4030 12 55 21 21 10 212 16 19 13 11 18 12 17 16 22 1217 42 1179 19 21 130 26 30 21 14 15 236 26 18 14 1054 9 14 19 20 28 17 12 1108 16 28 12 770 20 17 17 22 731 17 1309 30 361 15 25 14 426 142 1354 17 13 16 1060 24 26 113 25 10 10 18 14 12 13 11 709 16 12 6 9 8 11 12 10 7 8 16 437 14 9 
To predecode: 0
Predecoding something: 0
Predecode request dropped: 0
sizeofblock_0 0
sizeofblock_1 35592
sizeofblock_2 40515
sizeofblock_3 27758
sizeofblock_4 15615
sizeofblock_5 0
sizeofblock_6 0
sizeofblock_7 0
sizeofblock_8 0
Variant_0 Correct: 1528482 Incorrect: 0 Accuracy: 1
Variant_1 Correct: 1937785 Incorrect: 0 Accuracy: 1
Variant_2 Correct: 3398669 Incorrect: 0 Accuracy: 1
Variant_3 Correct: 0 Incorrect: 0 Accuracy: -nan
