
*** ChampSim Multicore Out-of-Order Simulator ***

Warmup Instructions: 50000000
Simulation Instructions: 50000000
Number of CPUs: 1
LLC sets: 2048
LLC ways: 16
Off-chip DRAM Size: 4096 MB Channels: 1 Width: 64-bit Data Rate: 6400 MT/s
CPU 0 runs ./micro_traces/srv212.trace.gz
.gz
ITLB has LRU replacement policy
DTLB has LRU replacement policy
STLB has LRU replacement policy
FDIP Prefetcher at L1I
L1I has LRU replacement policy
L1D has LRU replacement policy
Initialize SRRIP state for L2C
Initialize DRRIP state for LLC
Heartbeat_Variant_0 : 1072 0.261719 per_variant_size: 0 1072 0 0 0 0 0 0 0 
Heartbeat_Variant_1 : 2265 0.552979 per_variant_size: 0 451 1814 0 0 0 0 0 0 
Heartbeat_Variant_2 : 0 0 per_variant_size: 0 0 0 0 0 0 0 0 0 
Heartbeat_Variant_3 : 0 0 per_variant_size: 0 0 0 0 0 0 0 0 0 
Heartbeat_Variant_0_evicts 0 : 21548 1 : 18405 2 : 0 3 : 0 
Heartbeat_Variant_1_evicts 0 : 18459 1 : 0 2 : 0 3 : 0 
Heartbeat_Variant_2_evicts 0 : 0 1 : 0 2 : 0 3 : 0 
Heartbeat_Variant_3_evicts 0 : 0 1 : 0 2 : 0 3 : 0 
Heartbeat CPU 0 instructions: 10000003 cycles: 2797564 heartbeat IPC: 3.57454 cumulative IPC: 3.57454 (Simulation time: 0 hr 2 min 14 sec) 
Heartbeat_Variant_0 : 1072 0.261719 per_variant_size: 0 1072 0 0 0 0 0 0 0 
Heartbeat_Variant_1 : 2337 0.570557 per_variant_size: 0 451 1886 0 0 0 0 0 0 
Heartbeat_Variant_2 : 0 0 per_variant_size: 0 0 0 0 0 0 0 0 0 
Heartbeat_Variant_3 : 0 0 per_variant_size: 0 0 0 0 0 0 0 0 0 
Heartbeat_Variant_0_evicts 0 : 21889 1 : 19023 2 : 0 3 : 0 
Heartbeat_Variant_1_evicts 0 : 19039 1 : 0 2 : 0 3 : 0 
Heartbeat_Variant_2_evicts 0 : 0 1 : 0 2 : 0 3 : 0 
Heartbeat_Variant_3_evicts 0 : 0 1 : 0 2 : 0 3 : 0 
Heartbeat CPU 0 instructions: 20000000 cycles: 5594084 heartbeat IPC: 3.57587 cumulative IPC: 3.57521 (Simulation time: 0 hr 4 min 35 sec) 
Heartbeat_Variant_0 : 1094 0.26709 per_variant_size: 0 1094 0 0 0 0 0 0 0 
Heartbeat_Variant_1 : 2385 0.582275 per_variant_size: 0 450 1935 0 0 0 0 0 0 
Heartbeat_Variant_2 : 0 0 per_variant_size: 0 0 0 0 0 0 0 0 0 
Heartbeat_Variant_3 : 0 0 per_variant_size: 0 0 0 0 0 0 0 0 0 
Heartbeat_Variant_0_evicts 0 : 21628 1 : 18797 2 : 0 3 : 0 
Heartbeat_Variant_1_evicts 0 : 18792 1 : 0 2 : 0 3 : 0 
Heartbeat_Variant_2_evicts 0 : 0 1 : 0 2 : 0 3 : 0 
Heartbeat_Variant_3_evicts 0 : 0 1 : 0 2 : 0 3 : 0 
Heartbeat CPU 0 instructions: 30000003 cycles: 8389590 heartbeat IPC: 3.57717 cumulative IPC: 3.57586 (Simulation time: 0 hr 6 min 40 sec) 
Heartbeat_Variant_0 : 1093 0.266846 per_variant_size: 0 1093 0 0 0 0 0 0 0 
Heartbeat_Variant_1 : 2392 0.583984 per_variant_size: 0 430 1962 0 0 0 0 0 0 
Heartbeat_Variant_2 : 0 0 per_variant_size: 0 0 0 0 0 0 0 0 0 
Heartbeat_Variant_3 : 0 0 per_variant_size: 0 0 0 0 0 0 0 0 0 
Heartbeat_Variant_0_evicts 0 : 21668 1 : 18877 2 : 0 3 : 0 
Heartbeat_Variant_1_evicts 0 : 18878 1 : 0 2 : 0 3 : 0 
Heartbeat_Variant_2_evicts 0 : 0 1 : 0 2 : 0 3 : 0 
Heartbeat_Variant_3_evicts 0 : 0 1 : 0 2 : 0 3 : 0 
Heartbeat CPU 0 instructions: 40000002 cycles: 11187494 heartbeat IPC: 3.5741 cumulative IPC: 3.57542 (Simulation time: 0 hr 8 min 48 sec) 
Heartbeat_Variant_0 : 1091 0.266357 per_variant_size: 0 1091 0 0 0 0 0 0 0 
Heartbeat_Variant_1 : 2399 0.585693 per_variant_size: 0 436 1963 0 0 0 0 0 0 
Heartbeat_Variant_2 : 0 0 per_variant_size: 0 0 0 0 0 0 0 0 0 
Heartbeat_Variant_3 : 0 0 per_variant_size: 0 0 0 0 0 0 0 0 0 
Heartbeat_Variant_0_evicts 0 : 21704 1 : 18782 2 : 0 3 : 0 
Heartbeat_Variant_1_evicts 0 : 18785 1 : 0 2 : 0 3 : 0 
Heartbeat_Variant_2_evicts 0 : 0 1 : 0 2 : 0 3 : 0 
Heartbeat_Variant_3_evicts 0 : 0 1 : 0 2 : 0 3 : 0 
Heartbeat CPU 0 instructions: 50000000 cycles: 13983157 heartbeat IPC: 3.57697 cumulative IPC: 3.57573 (Simulation time: 0 hr 10 min 53 sec) 

Warmup complete CPU 0 instructions: 50000004 cycles: 13983158 (Simulation time: 0 hr 10 min 53 sec) 

Cycle: 20000000 FTQ IN: 56878476 FTQ occupancy: 18.1163 DECODE IN: 56878476 DECODE occupancy: 46.4295 ROB IN: 56878476 ROB occupancy: 281.497 ROB OUT: 56878364
Heartbeat_Variant_0 : 1114 0.271973 per_variant_size: 0 1114 0 0 0 0 0 0 0 
Heartbeat_Variant_1 : 2376 0.580078 per_variant_size: 0 423 1953 0 0 0 0 0 0 
Heartbeat_Variant_2 : 0 0 per_variant_size: 0 0 0 0 0 0 0 0 0 
Heartbeat_Variant_3 : 0 0 per_variant_size: 0 0 0 0 0 0 0 0 0 
Heartbeat_Variant_0_evicts 0 : 22284 1 : 18898 2 : 0 3 : 0 
Heartbeat_Variant_1_evicts 0 : 18875 1 : 0 2 : 0 3 : 0 
Heartbeat_Variant_2_evicts 0 : 0 1 : 0 2 : 0 3 : 0 
Heartbeat_Variant_3_evicts 0 : 0 1 : 0 2 : 0 3 : 0 
Heartbeat CPU 0 instructions: 60000001 cycles: 22825486 heartbeat IPC: 1.13092 cumulative IPC: 1.13092 (Simulation time: 0 hr 12 min 43 sec) 
Cycle: 30000000 FTQ IN: 11332774 FTQ occupancy: 7.02329 DECODE IN: 11332727 DECODE occupancy: 15.3279 ROB IN: 11332727 ROB occupancy: 128.975 ROB OUT: 11332839
Heartbeat_Variant_0 : 1107 0.270264 per_variant_size: 0 1107 0 0 0 0 0 0 0 
Heartbeat_Variant_1 : 2383 0.581787 per_variant_size: 0 436 1947 0 0 0 0 0 0 
Heartbeat_Variant_2 : 0 0 per_variant_size: 0 0 0 0 0 0 0 0 0 
Heartbeat_Variant_3 : 0 0 per_variant_size: 0 0 0 0 0 0 0 0 0 
Heartbeat_Variant_0_evicts 0 : 22430 1 : 19177 2 : 0 3 : 0 
Heartbeat_Variant_1_evicts 0 : 19184 1 : 0 2 : 0 3 : 0 
Heartbeat_Variant_2_evicts 0 : 0 1 : 0 2 : 0 3 : 0 
Heartbeat_Variant_3_evicts 0 : 0 1 : 0 2 : 0 3 : 0 
Heartbeat CPU 0 instructions: 70000002 cycles: 31557478 heartbeat IPC: 1.14521 cumulative IPC: 1.13802 (Simulation time: 0 hr 14 min 46 sec) 
Cycle: 40000000 FTQ IN: 11323561 FTQ occupancy: 6.99232 DECODE IN: 11323489 DECODE occupancy: 15.3111 ROB IN: 11323486 ROB occupancy: 129.219 ROB OUT: 11323486
Heartbeat_Variant_0 : 1108 0.270508 per_variant_size: 0 1108 0 0 0 0 0 0 0 
Heartbeat_Variant_1 : 2386 0.58252 per_variant_size: 0 433 1953 0 0 0 0 0 0 
Heartbeat_Variant_2 : 0 0 per_variant_size: 0 0 0 0 0 0 0 0 0 
Heartbeat_Variant_3 : 0 0 per_variant_size: 0 0 0 0 0 0 0 0 0 
Heartbeat_Variant_0_evicts 0 : 22022 1 : 18679 2 : 0 3 : 0 
Heartbeat_Variant_1_evicts 0 : 18679 1 : 0 2 : 0 3 : 0 
Heartbeat_Variant_2_evicts 0 : 0 1 : 0 2 : 0 3 : 0 
Heartbeat_Variant_3_evicts 0 : 0 1 : 0 2 : 0 3 : 0 
Heartbeat CPU 0 instructions: 80000003 cycles: 40408622 heartbeat IPC: 1.1298 cumulative IPC: 1.13527 (Simulation time: 0 hr 16 min 47 sec) 
Heartbeat_Variant_0 : 1112 0.271484 per_variant_size: 0 1112 0 0 0 0 0 0 0 
Heartbeat_Variant_1 : 2427 0.592529 per_variant_size: 0 428 1999 0 0 0 0 0 0 
Heartbeat_Variant_2 : 0 0 per_variant_size: 0 0 0 0 0 0 0 0 0 
Heartbeat_Variant_3 : 0 0 per_variant_size: 0 0 0 0 0 0 0 0 0 
Heartbeat_Variant_0_evicts 0 : 22131 1 : 18950 2 : 0 3 : 0 
Heartbeat_Variant_1_evicts 0 : 18961 1 : 0 2 : 0 3 : 0 
Heartbeat_Variant_2_evicts 0 : 0 1 : 0 2 : 0 3 : 0 
Heartbeat_Variant_3_evicts 0 : 0 1 : 0 2 : 0 3 : 0 
Heartbeat CPU 0 instructions: 90000003 cycles: 49167407 heartbeat IPC: 1.14171 cumulative IPC: 1.13687 (Simulation time: 0 hr 18 min 47 sec) 
Cycle: 50000000 FTQ IN: 11429851 FTQ occupancy: 6.84663 DECODE IN: 11429952 DECODE occupancy: 15.0475 ROB IN: 11429955 ROB occupancy: 129.042 ROB OUT: 11429955
Heartbeat_Variant_0 : 1108 0.270508 per_variant_size: 0 1108 0 0 0 0 0 0 0 
Heartbeat_Variant_1 : 2432 0.59375 per_variant_size: 0 450 1982 0 0 0 0 0 0 
Heartbeat_Variant_2 : 0 0 per_variant_size: 0 0 0 0 0 0 0 0 0 
Heartbeat_Variant_3 : 0 0 per_variant_size: 0 0 0 0 0 0 0 0 0 
Heartbeat_Variant_0_evicts 0 : 22210 1 : 18941 2 : 0 3 : 0 
Heartbeat_Variant_1_evicts 0 : 18945 1 : 0 2 : 0 3 : 0 
Heartbeat_Variant_2_evicts 0 : 0 1 : 0 2 : 0 3 : 0 
Heartbeat_Variant_3_evicts 0 : 0 1 : 0 2 : 0 3 : 0 
Heartbeat CPU 0 instructions: 100000000 cycles: 58012796 heartbeat IPC: 1.13053 cumulative IPC: 1.1356 (Simulation time: 0 hr 20 min 27 sec) 
Finished CPU 0 instructions: 50000000 cycles: 44029639 cumulative IPC: 1.1356 (Simulation time: 0 hr 20 min 27 sec) 

ChampSim completed all CPUs

Region of Interest Statistics

CPU 0 cumulative IPC: 1.1356 instructions: 50000000 cycles: 44029639
 Fetch stage stalled: 70.1685  Sim cycles: 44029639 fetch stall cycle: 30894947
 Empty decode stage: 58.4177  Sim cycles: 44029639 fetch stall cycle: 25721106
ITLB TOTAL     ACCESS:    5608061  HIT:    5118221  MISS:     489840  HIT %:    91.2654  MISS %:    8.73457   MPKI: 9.7968
ITLB LOAD TRANSLATION INSTRUCTION	ACCESS:    5502537  HIT:    5012697  MISS:     489840  HIT %:    91.0979  MISS %:    8.90208  MPKI: 9.7968
ITLB TRANSLATION FROM L1D PREFETCHER INSTRUCTION	ACCESS:     105524  HIT:     105524  MISS:          0  HIT %:        100  MISS %:          0  MPKI: 0

ITLB AVERAGE MISS LATENCY: 9.04545 cycles
ITLB RQ	ACCESS:    7439122	FORWARD:          0	MERGED:    1339816	TO_CACHE:    6099306

DTLB TOTAL     ACCESS:    9286101  HIT:    8816622  MISS:     469479  HIT %:    94.9443  MISS %:    5.05572   MPKI: 9.38958
DTLB LOAD TRANSLATION DATA	ACCESS:    9286101  HIT:    8816622  MISS:     469479  HIT %:    94.9443  MISS %:    5.05572  MPKI: 9.38958

DTLB AVERAGE MISS LATENCY: 9.33363 cycles
DTLB RQ	ACCESS:   13566124	FORWARD:          0	MERGED:    4245849	TO_CACHE:    9320275

STLB TOTAL     ACCESS:    1211870  HIT:    1209928  MISS:       1942  HIT %:    99.8398  MISS %:   0.160248   MPKI: 0.03884
STLB LOAD TRANSLATION INSTRUCTION	ACCESS:     489840  HIT:     489625  MISS:        215  HIT %:    99.9561  MISS %:  0.0438919  MPKI: 0.0043
STLB LOAD TRANSLATION DATA	ACCESS:     469331  HIT:     467625  MISS:       1706  HIT %:    99.6365  MISS %:   0.363496  MPKI: 0.03412
STLB TRANSLATION FROM L1D PREFETCHER DATA	ACCESS:     252699  HIT:     252678  MISS:         21  HIT %:    99.9917  MISS %: 0.00831028  MPKI: 0.00042

STLB AVERAGE MISS LATENCY: 79.3234 cycles
STLB RQ	ACCESS:    1335136	FORWARD:          0	MERGED:     123231	TO_CACHE:    1211905

STLB Hit, L1D data hit: 0
STLB Hit, L2C data hit: 0
STLB Hit, LLC data hit: 0
STLB Hit, LLC data miss: 0
STLB STLB hints to L2: 0
L1D TOTAL     ACCESS:   13336352  HIT:   12226442  MISS:    1109910  HIT %:    91.6776  MISS %:    8.32244   MPKI: 22.1982
L1D LOAD DATA	ACCESS:    6770050  HIT:    6040468  MISS:     729582  HIT %:    89.2234  MISS %:    10.7766  MPKI: 14.5916
L1D RFO DATA	ACCESS:    6231870  HIT:    5944777  MISS:     287093  HIT %:    95.3931  MISS %:    4.60685  MPKI: 5.74186
L1D PREFETCH DATA	ACCESS:     334432  HIT:     241197  MISS:      93235  HIT %:    72.1214  MISS %:    27.8786  MPKI: 1.8647

L1D PREFETCH  REQUESTED:     751944  ISSUED:     751944  USEFUL:      34444  USELESS:      67361
L1D USEFUL LOAD PREFETCHES:      34444 PREFETCH ISSUED TO LOWER LEVEL:     101857  ACCURACY: 33.816
 TIMELY PREFETCHES:      34444 LATE PREFETCHES: 8535 DROPPED PREFETCHES: 8
L1D AVERAGE MISS LATENCY: 284077 cycles
L1D RQ	ACCESS:   10874601	FORWARD:          0	MERGED:    3909135	TO_CACHE:    6802362
L1D WQ	ACCESS:    6939568	FORWARD:     163414	MERGED:     175806	TO_CACHE:    6763762
L1D PQ	ACCESS:     376127	FORWARD:          0	MERGED:          0	TO_CACHE:     375817

L1D UNIQUE REGIONS ACCESSED: 0
L1D REGIONS CONFLICTS: 0
L1D Cross Page Prefetch Requests: 7215
L1D Same Page Prefetch Requests: 755134
L1D ROI Sum of L1D PQ occupancy: 4773818
L1D PREFETCHES PUSHED FROM L2C: 0
L1I TOTAL     ACCESS:    6936645  HIT:    4190147  MISS:    2746498  HIT %:     60.406  MISS %:     39.594   MPKI: 54.93
L1I LOAD INSTRUCTION	ACCESS:    6439584  HIT:    3693086  MISS:    2746498  HIT %:    57.3498  MISS %:    42.6502  MPKI: 54.93
L1I PREFETCH INSTRUCTION	ACCESS:     497061  HIT:     497061  MISS:          0  HIT %:        100  MISS %:          0  MPKI: 0

L1I PREFETCH  REQUESTED:    1097908  ISSUED:    1097908  USEFUL:          0  USELESS:          0
L1I USEFUL LOAD PREFETCHES:          0 PREFETCH ISSUED TO LOWER LEVEL:          0  ACCURACY: -nan
 TIMELY PREFETCHES:          0 LATE PREFETCHES: 0 DROPPED PREFETCHES: 0
L1I AVERAGE MISS LATENCY: 17.1777 cycles
L1I RQ	ACCESS:    9445051	FORWARD:          0	MERGED:    2789604	TO_CACHE:    6655447
L1I PQ	ACCESS:    1097908	FORWARD:          0	MERGED:     314233	TO_CACHE:     783675

L1BTB TOTAL     ACCESS:    5669335  HIT:    2060687  MISS:    3608648  HIT %:    36.3479  MISS %:    63.6521   MPKI: 72.173
L1BTB BRANCH_DIRECT_JUMP	ACCESS:     549971 HIT:     146583 MISS:     403388 AVERAGE STALL: 37.2108 AVERAGE FETCH STALL: 20.0045 AVERAGE FETCH QUEUE STALL: 8.56214 AVERAGE DECODE STALL: 7.85459 AVERAGE EXECUTE STALL: 3.88467e+14
L1BTB BRANCH_INDIRECT	ACCESS:     183898 HIT:      66778 MISS:     117120 AVERAGE STALL: 92.8331 AVERAGE FETCH STALL: 14.4231 AVERAGE FETCH QUEUE STALL: 9.05872 AVERAGE DECODE STALL: 7.22657 AVERAGE EXECUTE STALL: 61.1867
L1BTB BRANCH_CONDITIONAL	ACCESS:    2722628 HIT:    1434713 MISS:    1287915 AVERAGE STALL: 36.6468 AVERAGE FETCH STALL: 22.033 AVERAGE FETCH QUEUE STALL: 6.6258 AVERAGE DECODE STALL: 7.23088 AVERAGE EXECUTE STALL: 1.62161e+14
L1BTB BRANCH_DIRECT_CALL	ACCESS:     936158 HIT:     104181 MISS:     831977 AVERAGE STALL: 38.2522 AVERAGE FETCH STALL: 21.9775 AVERAGE FETCH QUEUE STALL: 7.64676 AVERAGE DECODE STALL: 7.86533 AVERAGE EXECUTE STALL: 1.07273e+14
L1BTB BRANCH_INDIRECT_CALL	ACCESS:     170255 HIT:      20609 MISS:     149646 AVERAGE STALL: 116.321 AVERAGE FETCH STALL: 17.7876 AVERAGE FETCH QUEUE STALL: 6.01624 AVERAGE DECODE STALL: 6.87319 AVERAGE EXECUTE STALL: 85.1167
L1BTB BRANCH_RETURN	ACCESS:    1106425 HIT:     287823 MISS:     818602 AVERAGE STALL: 37.7165 AVERAGE FETCH STALL: 18.5085 AVERAGE FETCH QUEUE STALL: 6.01797 AVERAGE DECODE STALL: 6.28242 AVERAGE EXECUTE STALL: 1.96273e+14
L1BTB BRANCH_OTHER ACCESS:          0 HIT:          0 MISS:          0 AVERAGE STALL: -nan AVERAGE FETCH STALL: -nan AVERAGE FETCH QUEUE STALL: -nan AVERAGE DECODE STALL: -nan AVERAGE EXECUTE STALL: -nan
L1BTB TOTAL ROB OCCUPANCY AT BTB MISS: 13.9544

L2BTB TOTAL     ACCESS:    3583030  HIT:    3117619  MISS:     465411  HIT %:    87.0107  MISS %:    12.9893   MPKI: 9.30822
L2BTB BRANCH_DIRECT_JUMP	ACCESS:     399104 HIT:     355879 MISS:      43225 AVERAGE STALL: 37.2108 AVERAGE FETCH STALL: 20.0045 AVERAGE FETCH QUEUE STALL: 8.56214 AVERAGE DECODE STALL: 7.85459 AVERAGE EXECUTE STALL: 3.88467e+14
L2BTB BRANCH_INDIRECT	ACCESS:     106872 HIT:      97977 MISS:       8895 AVERAGE STALL: 92.8331 AVERAGE FETCH STALL: 14.4231 AVERAGE FETCH QUEUE STALL: 9.05872 AVERAGE DECODE STALL: 7.22657 AVERAGE EXECUTE STALL: 61.1867
L2BTB BRANCH_CONDITIONAL	ACCESS:    1287915 HIT:    1173717 MISS:     114198 AVERAGE STALL: 36.6468 AVERAGE FETCH STALL: 22.033 AVERAGE FETCH QUEUE STALL: 6.6258 AVERAGE DECODE STALL: 7.23088 AVERAGE EXECUTE STALL: 1.62161e+14
L2BTB BRANCH_DIRECT_CALL	ACCESS:     831977 HIT:     659968 MISS:     172009 AVERAGE STALL: 38.2522 AVERAGE FETCH STALL: 21.9775 AVERAGE FETCH QUEUE STALL: 7.64676 AVERAGE DECODE STALL: 7.86533 AVERAGE EXECUTE STALL: 1.07273e+14
L2BTB BRANCH_INDIRECT_CALL	ACCESS:     139960 HIT:     105503 MISS:      34457 AVERAGE STALL: 116.321 AVERAGE FETCH STALL: 17.7876 AVERAGE FETCH QUEUE STALL: 6.01624 AVERAGE DECODE STALL: 6.87319 AVERAGE EXECUTE STALL: 85.1167
L2BTB BRANCH_RETURN	ACCESS:     817202 HIT:     724575 MISS:      92627 AVERAGE STALL: 37.7165 AVERAGE FETCH STALL: 18.5085 AVERAGE FETCH QUEUE STALL: 6.01797 AVERAGE DECODE STALL: 6.28242 AVERAGE EXECUTE STALL: 1.96273e+14
L2BTB BRANCH_OTHER ACCESS:          0 HIT:          0 MISS:          0 AVERAGE STALL: -nan AVERAGE FETCH STALL: -nan AVERAGE FETCH QUEUE STALL: -nan AVERAGE DECODE STALL: -nan AVERAGE EXECUTE STALL: -nan
L2BTB TOTAL ROB OCCUPANCY AT BTB MISS: 108.198

L2C TOTAL     ACCESS:    4463584  HIT:    3993176  MISS:     470408  HIT %:    89.4612  MISS %:    10.5388   MPKI: 9.40816
L2C LOAD INSTRUCTION	ACCESS:    2746498  HIT:    2496989  MISS:     249509  HIT %:    90.9154  MISS %:    9.08462  MPKI: 4.99018
L2C LOAD TRANSLATION INSTRUCTION	ACCESS:        248  HIT:         57  MISS:        191  HIT %:    22.9839  MISS %:    77.0161  MPKI: 0.00382
L2C LOAD DATA	ACCESS:     721023  HIT:     641460  MISS:      79563  HIT %:    88.9653  MISS %:    11.0347  MPKI: 1.59126
L2C RFO DATA	ACCESS:     286996  HIT:     237834  MISS:      49162  HIT %:    82.8701  MISS %:    17.1299  MPKI: 0.98324
L2C PREFETCH DATA	ACCESS:     188093  HIT:     111052  MISS:      77041  HIT %:     59.041  MISS %:     40.959  MPKI: 1.54082
L2C WRITEBACK DATA	ACCESS:     518921  HIT:     505300  MISS:      13621  HIT %:    97.3751  MISS %:    2.62487  MPKI: 0.27242
L2C LOAD TRANSLATION DATA	ACCESS:       1762  HIT:        453  MISS:       1309  HIT %:    25.7094  MISS %:    74.2906  MPKI: 0.02618
L2C TRANSLATION FROM L1D PREFETCHER DATA	ACCESS:         43  HIT:         31  MISS:         12  HIT %:     72.093  MISS %:     27.907  MPKI: 0.00024

L2C PREFETCH  REQUESTED:      94420  ISSUED:      94420  USEFUL:       8568  USELESS:      69163
L2C USEFUL LOAD PREFETCHES:       8568 PREFETCH ISSUED TO LOWER LEVEL:      77565  ACCURACY: 11.0462
 TIMELY PREFETCHES:       8568 LATE PREFETCHES: 524 DROPPED PREFETCHES: 0
L2C AVERAGE MISS LATENCY: 39.582 cycles
L2C RQ	ACCESS:    3756604	FORWARD:          0	MERGED:          0	TO_CACHE:    3756571
L2C WQ	ACCESS:     518921	FORWARD:         33	MERGED:          0	TO_CACHE:     518921
L2C PQ	ACCESS:     196277	FORWARD:          0	MERGED:       3650	TO_CACHE:     192627

L2C Dense regions hint from L2: 0
PSCL5 TOTAL     ACCESS:       3904  HIT:       1952  MISS:       1952  HIT %:         50  MISS %:         50   MPKI: 0.03904
PSCL5 LOAD TRANSLATION INSTRUCTION	ACCESS:       3818  HIT:       1909  MISS:       1909  HIT %:         50  MISS %:         50  MPKI: 0.03818
PSCL5 TRANSLATION FROM L1D PREFETCHER INSTRUCTION	ACCESS:         86  HIT:         43  MISS:         43  HIT %:         50  MISS %:         50  MPKI: 0.00086


PSCL4 TOTAL     ACCESS:       3853  HIT:       1924  MISS:       1929  HIT %:    49.9351  MISS %:    50.0649   MPKI: 0.03858
PSCL4 LOAD TRANSLATION INSTRUCTION	ACCESS:       2309  HIT:       1887  MISS:        422  HIT %:    81.7237  MISS %:    18.2763  MPKI: 0.00844
PSCL4 TRANSLATION FROM L1D PREFETCHER INSTRUCTION	ACCESS:         40  HIT:         37  MISS:          3  HIT %:       92.5  MISS %:        7.5  MPKI: 6e-05
PSCL4 LOAD TRANSLATION DATA	ACCESS:       1470  HIT:          0  MISS:       1470  HIT %:          0  MISS %:        100  MPKI: 0.0294
PSCL4 TRANSLATION FROM L1D PREFETCHER DATA	ACCESS:         34  HIT:          0  MISS:         34  HIT %:          0  MISS %:        100  MPKI: 0.00068


PSCL3 TOTAL     ACCESS:       3855  HIT:       1925  MISS:       1930  HIT %:    49.9351  MISS %:    50.0649   MPKI: 0.0386
PSCL3 LOAD TRANSLATION INSTRUCTION	ACCESS:       2310  HIT:       1888  MISS:        422  HIT %:    81.7316  MISS %:    18.2684  MPKI: 0.00844
PSCL3 TRANSLATION FROM L1D PREFETCHER INSTRUCTION	ACCESS:         40  HIT:         37  MISS:          3  HIT %:       92.5  MISS %:        7.5  MPKI: 6e-05
PSCL3 LOAD TRANSLATION DATA	ACCESS:       1471  HIT:          0  MISS:       1471  HIT %:          0  MISS %:        100  MPKI: 0.02942
PSCL3 TRANSLATION FROM L1D PREFETCHER DATA	ACCESS:         34  HIT:          0  MISS:         34  HIT %:          0  MISS %:        100  MPKI: 0.00068


PSCL2 TOTAL     ACCESS:       3811  HIT:       1859  MISS:       1952  HIT %:    48.7798  MISS %:    51.2202   MPKI: 0.03904
PSCL2 LOAD TRANSLATION INSTRUCTION	ACCESS:       2035  HIT:       1816  MISS:        219  HIT %:    89.2383  MISS %:    10.7617  MPKI: 0.00438
PSCL2 TRANSLATION FROM L1D PREFETCHER INSTRUCTION	ACCESS:         43  HIT:         43  MISS:          0  HIT %:        100  MISS %:          0  MPKI: 0
PSCL2 LOAD TRANSLATION DATA	ACCESS:       1690  HIT:          0  MISS:       1690  HIT %:          0  MISS %:        100  MPKI: 0.0338
PSCL2 TRANSLATION FROM L1D PREFETCHER DATA	ACCESS:         43  HIT:          0  MISS:         43  HIT %:          0  MISS %:        100  MPKI: 0.00086


LLC TOTAL     ACCESS:     528872  HIT:     498118  MISS:      30754  HIT %:     94.185  MISS %:    5.81502   MPKI: 0.61508
LLC LOAD INSTRUCTION	ACCESS:     249509  HIT:     248237  MISS:       1272  HIT %:    99.4902  MISS %:   0.509801  MPKI: 0.02544
LLC LOAD TRANSLATION INSTRUCTION	ACCESS:        191  HIT:        156  MISS:         35  HIT %:    81.6754  MISS %:    18.3246  MPKI: 0.0007
LLC LOAD DATA	ACCESS:      79085  HIT:      75579  MISS:       3506  HIT %:    95.5668  MISS %:     4.4332  MPKI: 0.07012
LLC RFO DATA	ACCESS:      49108  HIT:      33342  MISS:      15766  HIT %:    67.8953  MISS %:    32.1047  MPKI: 0.31532
LLC PREFETCH DATA	ACCESS:      77562  HIT:      67929  MISS:       9633  HIT %:    87.5803  MISS %:    12.4197  MPKI: 0.19266
LLC WRITEBACK DATA	ACCESS:      72096  HIT:      71656  MISS:        440  HIT %:    99.3897  MISS %:   0.610297  MPKI: 0.0088
LLC LOAD TRANSLATION DATA	ACCESS:       1309  HIT:       1207  MISS:        102  HIT %:    92.2078  MISS %:    7.79221  MPKI: 0.00204
LLC TRANSLATION FROM L1D PREFETCHER DATA	ACCESS:         12  HIT:         12  MISS:          0  HIT %:        100  MISS %:          0  MPKI: 0

LLC AVERAGE MISS LATENCY: 158.289 cycles
LLC RQ	ACCESS:     379222	FORWARD:          0	MERGED:          0	TO_CACHE:     379214
LLC WQ	ACCESS:      72096	FORWARD:         11	MERGED:          0	TO_CACHE:      72096
LLC PQ	ACCESS:      77565	FORWARD:          0	MERGED:          0	TO_CACHE:      77562

LLC Dense regions hint to LLC: 0

RAW hits: 1769157
Loads Generated: 12643760
Loads sent to L1D: 10874601
Stores Generated: 6939563
Stores sent to L1D: 6939568
Major fault: 0 Minor fault: 2579
Allocated PAGES: 2579

stream: 
stream:times selected: 1196500
stream:pref_filled: 120827
stream:pref_useful: 23967
stream:pref_late: 6771
stream:misses: 8084
stream:misses_by_poll: 0

CS: 
CS:times selected: 179282
CS:pref_filled: 58968
CS:pref_useful: 35677
CS:pref_late: 7775
CS:misses: 17443
CS:misses_by_poll: 2

CPLX: 
CPLX:times selected: 1016096
CPLX:pref_filled: 18888
CPLX:pref_useful: 4410
CPLX:pref_late: 3086
CPLX:misses: 93352
CPLX:misses_by_poll: 0

NL_L1: 
NL:times selected: 21266
NL:pref_filled: 726
NL:pref_useful: 354
NL:pref_late: 280
NL:misses: 1861
NL:misses_by_poll: 0

total selections: 2413144
total_filled: 93235
total_useful: 34444
total_late: 19217
total_polluted: 2
total_misses_after_warmup: 761896
conflicts: 5614020

test: 115291

DRAM Statistics
 CHANNEL 0
 RQ ROW_BUFFER_HIT:      11434  ROW_BUFFER_MISS:      18862
 DBUS_CONGESTED:          6
 WQ ROW_BUFFER_HIT:       1579  ROW_BUFFER_MISS:      13434  FULL:          0

 AVG_CONGESTED_CYCLE: 6

CPU 0 Branch Prediction Accuracy: 99.8178% MPKI: 0.33282 Average ROB Occupancy at Mispredict: 138.483
Branch types
NOT_BRANCH: 40864409 81.7288%
BRANCH_DIRECT_JUMP: 549971 1.09994%
BRANCH_INDIRECT: 183898 0.367796%
BRANCH_CONDITIONAL: 6188718 12.3774%
BRANCH_DIRECT_CALL: 936158 1.87232%
BRANCH_INDIRECT_CALL: 170255 0.34051%
BRANCH_RETURN: 1106425 2.21285%
BRANCH_OTHER: 0 0%

DRAM PAGES: 1048576
Allocated PAGES: 2579
Average_ROB_Occupancy: 129.555
Average_Decode_Occupancy: 15.1691
Average_FTQ_Occupancy: 6.9398
Indirect max targets: 14 Average targets: 1.15512
Branch_type:  BRANCH_DIRECT_JUMP:  Count Percentage: 3.81452 5.0471 4.48424 3.571 7.92476 7.72577 1.39891 66.0337 
Branch_type:  BRANCH_INDIRECT:  Count Percentage: 11.744 3.44635 2.599 7.3176 3.33406 31.1973 3.18579 37.1759 
Branch_type:  BRANCH_CONDITIONAL:  Count Percentage: 21.9856 2.47386 1.54034 3.37032 2.41709 7.73267 0.849435 59.6307 
Branch_type:  BRANCH_DIRECT_CALL:  Count Percentage: 0.390743 1.73011 0.767128 1.94994 3.34003 4.96464 0.828441 86.029 
Branch_type:  BRANCH_INDIRECT_CALL:  Count Percentage: 9.56434 0 2.99583 4.26963 0.000585924 1.71178 1.00281 80.455 
Branch_type:  BRANCH_RETURN:  Count Percentage: 3.95614 1.97998 1.04306 4.53885 3.9071 8.22541 1.26832 75.0812 
Branch_type:  BRANCH_DIRECT_JUMP:  Total Count: 41807 55316 49147 39138 86855 84674 15332 723726 
Branch_type:  BRANCH_INDIRECT:  Total Count: 43090 12645 9536 26849 12233 114466 11689 136402 
Branch_type:  BRANCH_CONDITIONAL:  Total Count: 2718430 305882 190456 416726 298863 956111 105029 7373075 
Branch_type:  BRANCH_DIRECT_CALL:  Total Count: 7348 32535 14426 36669 62810 93361 15579 1617792 
Branch_type:  BRANCH_INDIRECT_CALL:  Total Count: 32647 0 10226 14574 2 5843 3423 274626 
Branch_type:  BRANCH_RETURN:  Total Count: 87933 44009 23184 100885 86843 182826 28191 1668828 
Number of unique branch instructions: 10259
Upper 32 bits: 
aaaa
ffff
ffff0000
Unique upper 32 bits: 3
Unique upper 36 bits: 3
Unique upper 40 bits: 5
Unique upper 44 bits: 32
Unique upper 48 bits: 157
Variant_0 : 1108 0.270508
Variant_1 : 2432 0.59375
Variant_2 : 0 0
Variant_3 : 0 0
Offset_3 4221
Offset_4 266
Offset_5 472
Offset_6 520
Offset_7 604
Offset_8 534
Offset_9 489
Offset_10 397
Offset_11 324
Offset_12 297
Offset_13 214
Offset_14 231
Offset_15 193
Offset_16 230
Offset_17 156
Offset_18 126
Offset_19 246
Offset_20 144
Offset_21 261
Offset_22 398
Offset_23 241
Offset_24 353
Offset_25 88
Offset_47 86
decode_dispatch_called: 20004085 45.4332
Dispatch_width: 0 9895496 49.4674 22.4746
Dispatch_width: 1 558719 2.79302 1.26896
Dispatch_width: 2 672568 3.36215 1.52753
Dispatch_width: 3 424001 2.11957 0.96299
Dispatch_width: 4 1794753 8.97193 4.07624
Dispatch_width: 5 306277 1.53107 0.695616
Dispatch_width: 6 6352271 31.7549 14.4273
Empty_decode_cycles: 24025554 54.5668
ROB_full_cycles: 2658498 6.03797
Starvation_cycles_per_kilo_instr: 350.189
Starvation_cycles_per_kilo_instr_3: 329.178
Starvation_cycles_per_kilo_instr_0: 312.626
Branch_type_1  (3,1)  (4,10)  (5,39)  (6,72)  (7,119)  (8,133)  (9,130)  (10,101)  (11,72)  (12,51)  (13,8)  (14,2)  (15,3)  (16,4)  (18,1)  (19,4)  (20,2)  (21,1)  (22,3)  (23,2)  (24,10)  (25,12) 
Branch_type_2  (3,1)  (5,1)  (8,3)  (9,3)  (12,1)  (13,1)  (14,1)  (16,3)  (17,2)  (20,2)  (21,2)  (23,5)  (24,1)  (47,40) 
Branch_type_3  (3,4219)  (4,256)  (5,428)  (6,432)  (7,452)  (8,336)  (9,269)  (10,160)  (11,133)  (12,59)  (13,7) 
Branch_type_4  (6,4)  (7,8)  (8,26)  (9,55)  (10,63)  (11,62)  (12,102)  (13,91)  (14,103)  (15,92)  (16,103)  (17,71)  (18,57)  (19,119)  (20,74)  (21,141)  (22,213)  (23,136)  (24,203)  (25,72) 
Branch_type_5  (8,2)  (9,1)  (10,4)  (11,5)  (12,3)  (13,14)  (14,16)  (15,11)  (16,20)  (17,11)  (18,16)  (19,13)  (20,11)  (21,13)  (22,42)  (23,26)  (24,41) 
Branch_type_6  (5,4)  (6,12)  (7,25)  (8,34)  (9,31)  (10,69)  (11,52)  (12,81)  (13,93)  (14,109)  (15,87)  (16,100)  (17,72)  (18,52)  (19,110)  (20,55)  (21,104)  (22,140)  (23,72)  (24,98)  (25,4)  (47,46) 
Unique trigger count: 
Variant_0_evicts_0 : 0
Variant_0_evicts_1 : 0
Variant_0_evicts_2 : 0
Variant_0_evicts_3 : 0
Variant_1_evicts_0 : 0
Variant_1_evicts_1 : 0
Variant_1_evicts_2 : 0
Variant_1_evicts_3 : 0
Variant_2_evicts_0 : 0
Variant_2_evicts_1 : 0
Variant_2_evicts_2 : 0
Variant_2_evicts_3 : 0
Variant_3_evicts_0 : 0
Variant_3_evicts_1 : 0
Variant_3_evicts_2 : 0
Variant_3_evicts_3 : 0
BTB PER SET UNIQUE ADDR: 4 7 7 4 3 4 8 10 10 2 6 2 8 5 5 4 6 4 8 8 5 8 7 8 8 11 1 7 6 5 10 10 6 4 8 4 4 7 8 4 8 5 6 11 9 7 6 11 11 7 6 3 13 3 4 8 5 5 8 9 4 11 5 8 6 12 8 7 5 7 6 2 6 4 6 7 6 15 6 4 9 8 8 6 6 8 7 9 8 11 10 8 9 6 7 4 11 8 4 7 8 6 9 9 6 8 7 8 7 5 7 4 4 8 7 11 3 8 6 2 7 9 4 2 6 4 5 6 10 7 10 3 11 5 8 6 5 2 6 8 8 7 6 7 3 10 4 8 10 6 7 11 6 10 5 8 6 8 7 10 10 6 10 5 10 5 3 4 14 5 5 3 7 6 3 2 5 7 9 4 6 6 9 7 6 11 5 6 7 9 5 8 6 6 6 10 11 3 10 6 4 6 9 3 8 4 6 7 6 2 3 6 9 9 6 6 4 9 9 6 6 2 6 6 6 8 13 7 2 9 14 8 4 3 6 8 9 6 3 4 5 3 9 8 14 10 2 5 5 5 9 10 6 7 5 12 4 6 9 5 8 5 7 4 9 14 6 4 7 5 7 6 4 8 11 9 6 3 4 8 7 5 10 5 9 9 7 7 9 4 6 7 4 11 6 5 6 10 6 6 6 6 4 4 7 5 6 4 11 9 6 3 8 3 6 4 9 14 7 4 6 12 5 8 5 5 6 9 4 2 7 2 6 7 10 5 7 8 7 1 6 6 2 8 6 6 3 9 9 5 5 10 9 6 8 7 7 3 7 5 6 11 6 8 11 8 4 3 4 5 8 4 7 5 7 4 11 6 5 10 10 7 8 13 6 4 8 5 5 3 10 6 8 4 7 4 6 6 2 8 6 4 7 6 5 6 8 5 5 3 4 5 10 4 2 5 9 4 2 6 2 5 5 7 11 6 4 2 4 8 4 4 15 5 8 10 6 6 6 5 4 6 8 4 6 8 4 7 6 4 6 4 6 3 9 4 5 9 10 5 5 4 6 11 6 5 13 4 6 8 2 6 9 8 6 3 10 5 2 3 5 3 3 4 3 7 10 3 6 2 11 5 4 9 1 13 4 7 6 4 11 3 4 4 2 5 5 3 3 7 8 4 5 9 3 3 2 11 6 9 6 5 7 4 11 10 4 9 9 7 6 6 4 9 4 8 4 1 6 4 4 8 9 3 8 5 10 13 12 11 5 8 7 8 2 6 8 3 6 3 10 4 8 5 5 5 9 8 9 7 9 4 9 12 8 7 7 11 3 9 13 5 1 6 4 3 3 13 8 6 7 9 3 5 4 5 7 6 5 5 9 5 9 9 8 6 6 9 9 5 9 6 7 6 8 5 7 6 5 7 8 7 9 4 5 10 7 8 4 6 8 7 6 6 7 5 5 4 5 3 10 8 5 6 2 3 6 7 9 7 8 4 11 4 6 2 10 5 6 8 11 3 6 11 8 8 7 6 5 10 7 6 6 6 11 9 7 6 8 6 7 11 9 7 8 8 7 8 8 6 3 7 3 4 5 8 10 8 7 8 3 11 4 5 7 10 5 4 5 5 7 7 6 6 5 7 10 6 1 8 4 3 6 3 4 1 4 10 2 12 7 10 7 3 6 7 6 3 6 4 4 8 5 10 4 3 5 3 5 6 6 3 5 6 2 5 4 10 9 4 5 6 6 7 7 6 14 6 6 3 10 7 0 6 8 5 6 10 3 4 8 5 4 6 10 9 9 6 4 8 3 10 5 6 6 12 11 4 5 5 12 4 9 3 8 6 7 9 5 6 4 5 6 3 4 7 1 5 6 10 6 4 10 4 5 4 5 3 7 6 8 3 7 4 10 5 4 4 6 4 5 4 7 5 4 9 8 5 7 4 8 7 7 9 6 10 7 4 9 5 7 7 4 4 14 5 6 8 9 8 4 6 6 10 7 2 2 6 7 4 5 6 6 6 9 5 7 4 4 8 8 5 5 8 6 3 10 11 4 3 12 8 5 5 9 6 5 11 6 8 10 6 4 3 2 7 5 4 7 6 9 7 10 6 8 8 7 4 5 12 5 4 11 10 5 8 10 10 2 9 8 8 5 4 6 7 9 8 7 3 9 2 13 8 3 6 9 11 6 9 5 8 11 5 3 9 10 8 9 4 2 6 3 9 11 6 8 5 4 7 12 6 5 6 5 6 4 5 8 6 8 8 7 11 6 10 7 11 5 6 3 5 7 5 7 7 7 6 6 5 8 4 9 7 10 5 9 4 3 7 10 6 14 5 
BTB PER SET COUNT: 4 7 12 4 3 4 10 2023 5365 2 6 2 1512 5 5 6 7 4 36 2527 5 9 9 974 4856 3042 1 7 1847 5 5472 1435 1512 4 9 4 2925 7 11 4 31 5 9 2782 2411 8 6 4520 4154 11 6 5 10194 3 14 1511 7 5 1023 939 4 3063 6 20 6 1265 447 22 5 727 725 2 6 4 9 7 508 6919 10 4 920 11 969 6 511 9 8 379 8093 2216 1814 477 3021 6 8 4 2267 12 4 10 20 10 22 2981 6 29 10 2016 2011 5 2013 7 6 1699 7 4572 4 8 6 2 10 28 4 2 510 5 6 7 7143 14 2057 4 8646 12 2980 6 5 2 6 1970 22 13 6 7 3 897 4 8 1295 2511 9 6087 6 10029 6 933 6 2015 7 1439 4916 8 5007 5 1033 3383 3 4 7312 5 6 3 18 144 4 2 5 507 2156 4 6 6 5404 8 6 6821 5 6 2886 31 5 3959 8 6 6 63 994 3 31 6 5 7 12 5 10 4 6 4291 6 2 3 7 121 27 7 6 4 705 20 6 6 2 6 6 6 2024 5671 3280 2 3888 8212 927 4 6 17 2492 3015 7 3 4 6 3 6394 10 7362 4885 3 5 6 5 21 4089 6 8 7 3160 6 6 2463 8 2513 5 7 4 2202 6933 965 7 2021 5 1750 7 4 2011 1038 731 6 3 5 2519 9 5 1219 6 2913 3017 8 487 30 4 9 7 506 2532 3012 12 13 4114 7 6 6 7 4 4 9 6 7 4 4325 1617 10 3 2141 3 6 7 1017 3950 2012 6 6 1315 5 14 9 5 9 1179 4 2 2230 2 6 8 5421 5 1515 12 7 1 6 6 2 2441 1009 836 3 12 276 6 5 964 13 965 8 11 10 4 2137 50 7 993 7 1900 962 1388 5 3 5 6 8 6 14 5 21 4 5864 6 5 2158 2520 2512 8 6482 7 4 40 5 7 4 1460 8 2513 6 7 6 1466 9 3 17 6 4 1511 6 746 6 2930 5 6 2759 4 5 1487 4 1461 5 149 4 4 1504 2 6 5 19 1721 7 9 2 4 768 127 4 6661 5 1618 2195 9 6 6 5 5 7 1370 5 9 38 5 1970 7 4 6 4 9 3 1715 5 5 23 551 5 1008 4 32 50 29 5 3268 4 9 10 2 19 2025 638 128 3 25515 6 2 3 5 3 3 505 4 319 1729 391 6 2 1156 6 5 1216 1 4793 5 27 6 4 2971 13 4 5 2 5 5 3 3 9 19 4 5 27 3 3 2 11232 7 1130 8 1465 9 799 167 2014 4 1014 1615 23 6 7 4 22 4 897 5 1 8 4 4 2014 40 8 36 6 64 2260 3317 8007 7 3876 9 16 2 6 1425 3 6 3 5181 5 2013 6 5 5 1027 16 2017 55 3331 5 2471 5875 1512 1512 13 5438 5 4518 10031 50 1 1509 1467 3 3 6619 19 6 7 2519 4 965 1919 5 8 6 5 6 1717 7 4763 1056 9 3015 6 2973 10 6 2862 8 11 6 8 6 2545 6 7 7 19 869 4480 4 1710 1023 34 1478 14 1509 1515 1467 7 10 7 5 7 4 5 3 7317 1024 5 6 2 5 6 7 756 8 14 4 8277 4 7 4 1020 5 2012 3017 12842 3 6 6385 8 1895 2946 1010 24 2023 1012 6 8 6 6897 3118 509 6 2491 6 7 6622 25 1013 17535 1529 30 4478 1526 7 3 1272 3 8 5 14 6854 8 8 93 3 3406 4 5 172 4218 5 1465 5 1465 174 8 9 8 1008 7 1739 961 1 2013 4 4 6 3 4 1 4 674 2 6073 1510 4071 965 3 6 7 6 5 6 4 4 820 5 8249 4 5 1009 3 5 1009 6 3 5 844 2 5 4 4274 6262 962 6 7 965 18 2830 6 9314 7 8 3 501 9 0 165 10 2177 6 2604 3 4 2514 5 4 6 1910 1866 1021 14 696 1012 4 1849 6 6 421 7672 3155 4 5 5 4305 6 956 4 2043 2427 9 24 7 10 4 5 7 459 6 8 3 5 8 3266 8 4 505 390 6 6 963 3 1510 80 766 3 486 4 7703 6 4 4 6 4 370 4 8 1470 4 30 1435 5 7 4 3518 1562 14 10 6 9054 37 5 1516 11 12 7 4 4 8816 973 9 2022 3516 10 4 6 6 1546 9 2 2 6 9 4 6 7 9 8 3160 8 2170 4 4 14 12 5 5 22 6 3 60 4017 4 3 5234 1895 135 50 753 9 5 3408 8 16 2041 6 4 3 2 7 5 1007 5021 2010 47 13 2022 9 1044 1625 12 5 5 1077 6 506 3992 1928 5 1014 4913 2889 2 3516 25 8 5 962 7 1511 25 267 10 3 3734 2 7104 12 5 6 2061 8365 12 3519 5 510 7368 5 5 890 82 739 49 5 2 6 3 772 2570 8 970 6 5 7 2736 6 509 7 5 12 4 5 31 6 3017 12 2514 3090 6 3209 14 5513 5 7 3 5 13 5 10 8 2012 9 6 6 3033 4 7227 388 2985 5 1073 8 4 8 1531 9 3713 5 
To predecode: 0
Predecoding something: 0
Predecode request dropped: 0
sizeofblock_0 0
sizeofblock_1 237599
sizeofblock_2 342813
sizeofblock_3 0
sizeofblock_4 0
sizeofblock_5 0
sizeofblock_6 0
sizeofblock_7 0
sizeofblock_8 0
Variant_0 Correct: 0 Incorrect: 0 Accuracy: -nan
Variant_1 Correct: 0 Incorrect: 0 Accuracy: -nan
Variant_2 Correct: 0 Incorrect: 0 Accuracy: -nan
Variant_3 Correct: 0 Incorrect: 0 Accuracy: -nan
