
*** ChampSim Multicore Out-of-Order Simulator ***

Warmup Instructions: 50000000
Simulation Instructions: 50000000
Number of CPUs: 1
LLC sets: 2048
LLC ways: 16
Off-chip DRAM Size: 4096 MB Channels: 1 Width: 64-bit Data Rate: 6400 MT/s
CPU 0 runs ./micro_traces/srv290.trace.gz
.gz
ITLB has LRU replacement policy
DTLB has LRU replacement policy
STLB has LRU replacement policy
FDIP Prefetcher at L1I
L1I has LRU replacement policy
L1D has LRU replacement policy
Initialize SRRIP state for L2C
Initialize DRRIP state for LLC
Heartbeat_Variant_0 : 1102 0.269043 per_variant_size: 0 1102 0 0 0 0 0 0 0 
Heartbeat_Variant_1 : 2272 0.554688 per_variant_size: 0 440 1832 0 0 0 0 0 0 
Heartbeat_Variant_2 : 0 0 per_variant_size: 0 0 0 0 0 0 0 0 0 
Heartbeat_Variant_3 : 0 0 per_variant_size: 0 0 0 0 0 0 0 0 0 
Heartbeat_Variant_0_evicts 0 : 21723 1 : 18846 2 : 0 3 : 0 
Heartbeat_Variant_1_evicts 0 : 18879 1 : 0 2 : 0 3 : 0 
Heartbeat_Variant_2_evicts 0 : 0 1 : 0 2 : 0 3 : 0 
Heartbeat_Variant_3_evicts 0 : 0 1 : 0 2 : 0 3 : 0 
Heartbeat CPU 0 instructions: 10000001 cycles: 2797586 heartbeat IPC: 3.57451 cumulative IPC: 3.57451 (Simulation time: 0 hr 2 min 27 sec) 
Heartbeat_Variant_0 : 1099 0.268311 per_variant_size: 0 1099 0 0 0 0 0 0 0 
Heartbeat_Variant_1 : 2385 0.582275 per_variant_size: 0 405 1980 0 0 0 0 0 0 
Heartbeat_Variant_2 : 0 0 per_variant_size: 0 0 0 0 0 0 0 0 0 
Heartbeat_Variant_3 : 0 0 per_variant_size: 0 0 0 0 0 0 0 0 0 
Heartbeat_Variant_0_evicts 0 : 21973 1 : 19180 2 : 0 3 : 0 
Heartbeat_Variant_1_evicts 0 : 19207 1 : 0 2 : 0 3 : 0 
Heartbeat_Variant_2_evicts 0 : 0 1 : 0 2 : 0 3 : 0 
Heartbeat_Variant_3_evicts 0 : 0 1 : 0 2 : 0 3 : 0 
Heartbeat CPU 0 instructions: 20000002 cycles: 5594591 heartbeat IPC: 3.57525 cumulative IPC: 3.57488 (Simulation time: 0 hr 4 min 43 sec) 
Heartbeat_Variant_0 : 1114 0.271973 per_variant_size: 0 1114 0 0 0 0 0 0 0 
Heartbeat_Variant_1 : 2407 0.587646 per_variant_size: 0 406 2001 0 0 0 0 0 0 
Heartbeat_Variant_2 : 0 0 per_variant_size: 0 0 0 0 0 0 0 0 0 
Heartbeat_Variant_3 : 0 0 per_variant_size: 0 0 0 0 0 0 0 0 0 
Heartbeat_Variant_0_evicts 0 : 21645 1 : 18251 2 : 0 3 : 0 
Heartbeat_Variant_1_evicts 0 : 18246 1 : 0 2 : 0 3 : 0 
Heartbeat_Variant_2_evicts 0 : 0 1 : 0 2 : 0 3 : 0 
Heartbeat_Variant_3_evicts 0 : 0 1 : 0 2 : 0 3 : 0 
Heartbeat CPU 0 instructions: 30000002 cycles: 8390870 heartbeat IPC: 3.57618 cumulative IPC: 3.57531 (Simulation time: 0 hr 7 min 5 sec) 
Heartbeat_Variant_0 : 1118 0.272949 per_variant_size: 0 1118 0 0 0 0 0 0 0 
Heartbeat_Variant_1 : 2404 0.586914 per_variant_size: 0 398 2006 0 0 0 0 0 0 
Heartbeat_Variant_2 : 0 0 per_variant_size: 0 0 0 0 0 0 0 0 0 
Heartbeat_Variant_3 : 0 0 per_variant_size: 0 0 0 0 0 0 0 0 0 
Heartbeat_Variant_0_evicts 0 : 22017 1 : 18695 2 : 0 3 : 0 
Heartbeat_Variant_1_evicts 0 : 18691 1 : 0 2 : 0 3 : 0 
Heartbeat_Variant_2_evicts 0 : 0 1 : 0 2 : 0 3 : 0 
Heartbeat_Variant_3_evicts 0 : 0 1 : 0 2 : 0 3 : 0 
Heartbeat CPU 0 instructions: 40000003 cycles: 11188764 heartbeat IPC: 3.57412 cumulative IPC: 3.57502 (Simulation time: 0 hr 9 min 14 sec) 
Heartbeat_Variant_0 : 1113 0.271729 per_variant_size: 0 1113 0 0 0 0 0 0 0 
Heartbeat_Variant_1 : 2411 0.588623 per_variant_size: 0 395 2016 0 0 0 0 0 0 
Heartbeat_Variant_2 : 0 0 per_variant_size: 0 0 0 0 0 0 0 0 0 
Heartbeat_Variant_3 : 0 0 per_variant_size: 0 0 0 0 0 0 0 0 0 
Heartbeat_Variant_0_evicts 0 : 22244 1 : 18668 2 : 0 3 : 0 
Heartbeat_Variant_1_evicts 0 : 18673 1 : 0 2 : 0 3 : 0 
Heartbeat_Variant_2_evicts 0 : 0 1 : 0 2 : 0 3 : 0 
Heartbeat_Variant_3_evicts 0 : 0 1 : 0 2 : 0 3 : 0 
Heartbeat CPU 0 instructions: 50000003 cycles: 13985942 heartbeat IPC: 3.57503 cumulative IPC: 3.57502 (Simulation time: 0 hr 11 min 18 sec) 

Warmup complete CPU 0 instructions: 50000003 cycles: 13985942 (Simulation time: 0 hr 11 min 18 sec) 

Cycle: 20000000 FTQ IN: 56886570 FTQ occupancy: 18.1433 DECODE IN: 56886509 DECODE occupancy: 46.4974 ROB IN: 56886449 ROB occupancy: 282.421 ROB OUT: 56886347
Heartbeat_Variant_0 : 1131 0.276123 per_variant_size: 0 1131 0 0 0 0 0 0 0 
Heartbeat_Variant_1 : 2393 0.584229 per_variant_size: 0 378 2015 0 0 0 0 0 0 
Heartbeat_Variant_2 : 0 0 per_variant_size: 0 0 0 0 0 0 0 0 0 
Heartbeat_Variant_3 : 0 0 per_variant_size: 0 0 0 0 0 0 0 0 0 
Heartbeat_Variant_0_evicts 0 : 21940 1 : 18386 2 : 0 3 : 0 
Heartbeat_Variant_1_evicts 0 : 18368 1 : 0 2 : 0 3 : 0 
Heartbeat_Variant_2_evicts 0 : 0 1 : 0 2 : 0 3 : 0 
Heartbeat_Variant_3_evicts 0 : 0 1 : 0 2 : 0 3 : 0 
Heartbeat CPU 0 instructions: 60000000 cycles: 22665130 heartbeat IPC: 1.15218 cumulative IPC: 1.15218 (Simulation time: 0 hr 13 min 16 sec) 
Cycle: 30000000 FTQ IN: 11554740 FTQ occupancy: 6.92671 DECODE IN: 11554674 DECODE occupancy: 15.2342 ROB IN: 11554674 ROB occupancy: 131.359 ROB OUT: 11554686
Heartbeat_Variant_0 : 1121 0.273682 per_variant_size: 0 1121 0 0 0 0 0 0 0 
Heartbeat_Variant_1 : 2407 0.587646 per_variant_size: 0 409 1998 0 0 0 0 0 0 
Heartbeat_Variant_2 : 0 0 per_variant_size: 0 0 0 0 0 0 0 0 0 
Heartbeat_Variant_3 : 0 0 per_variant_size: 0 0 0 0 0 0 0 0 0 
Heartbeat_Variant_0_evicts 0 : 22075 1 : 18338 2 : 0 3 : 0 
Heartbeat_Variant_1_evicts 0 : 18348 1 : 0 2 : 0 3 : 0 
Heartbeat_Variant_2_evicts 0 : 0 1 : 0 2 : 0 3 : 0 
Heartbeat_Variant_3_evicts 0 : 0 1 : 0 2 : 0 3 : 0 
Heartbeat CPU 0 instructions: 70000003 cycles: 31338324 heartbeat IPC: 1.15298 cumulative IPC: 1.15258 (Simulation time: 0 hr 15 min 0 sec) 
Cycle: 40000000 FTQ IN: 11247317 FTQ occupancy: 7.03505 DECODE IN: 11247437 DECODE occupancy: 15.3306 ROB IN: 11247497 ROB occupancy: 130.021 ROB OUT: 11247585
Heartbeat_Variant_0 : 1140 0.27832 per_variant_size: 0 1140 0 0 0 0 0 0 0 
Heartbeat_Variant_1 : 2486 0.606934 per_variant_size: 0 418 2068 0 0 0 0 0 0 
Heartbeat_Variant_2 : 0 0 per_variant_size: 0 0 0 0 0 0 0 0 0 
Heartbeat_Variant_3 : 0 0 per_variant_size: 0 0 0 0 0 0 0 0 0 
Heartbeat_Variant_0_evicts 0 : 22228 1 : 18444 2 : 0 3 : 0 
Heartbeat_Variant_1_evicts 0 : 18448 1 : 0 2 : 0 3 : 0 
Heartbeat_Variant_2_evicts 0 : 0 1 : 0 2 : 0 3 : 0 
Heartbeat_Variant_3_evicts 0 : 0 1 : 0 2 : 0 3 : 0 
Heartbeat CPU 0 instructions: 80000003 cycles: 40277432 heartbeat IPC: 1.11868 cumulative IPC: 1.14105 (Simulation time: 0 hr 16 min 54 sec) 
Heartbeat_Variant_0 : 1134 0.276855 per_variant_size: 0 1134 0 0 0 0 0 0 0 
Heartbeat_Variant_1 : 2492 0.608398 per_variant_size: 0 430 2062 0 0 0 0 0 0 
Heartbeat_Variant_2 : 0 0 per_variant_size: 0 0 0 0 0 0 0 0 0 
Heartbeat_Variant_3 : 0 0 per_variant_size: 0 0 0 0 0 0 0 0 0 
Heartbeat_Variant_0_evicts 0 : 22091 1 : 18277 2 : 0 3 : 0 
Heartbeat_Variant_1_evicts 0 : 18283 1 : 0 2 : 0 3 : 0 
Heartbeat_Variant_2_evicts 0 : 0 1 : 0 2 : 0 3 : 0 
Heartbeat_Variant_3_evicts 0 : 0 1 : 0 2 : 0 3 : 0 
Heartbeat CPU 0 instructions: 90000000 cycles: 48980449 heartbeat IPC: 1.14903 cumulative IPC: 1.14304 (Simulation time: 0 hr 19 min 5 sec) 
Cycle: 50000000 FTQ IN: 11481690 FTQ occupancy: 6.97492 DECODE IN: 11481697 DECODE occupancy: 15.2701 ROB IN: 11481697 ROB occupancy: 129.832 ROB OUT: 11481569
Heartbeat_Variant_0 : 1132 0.276367 per_variant_size: 0 1132 0 0 0 0 0 0 0 
Heartbeat_Variant_1 : 2494 0.608887 per_variant_size: 0 431 2063 0 0 0 0 0 0 
Heartbeat_Variant_2 : 0 0 per_variant_size: 0 0 0 0 0 0 0 0 0 
Heartbeat_Variant_3 : 0 0 per_variant_size: 0 0 0 0 0 0 0 0 0 
Heartbeat_Variant_0_evicts 0 : 22283 1 : 18307 2 : 0 3 : 0 
Heartbeat_Variant_1_evicts 0 : 18309 1 : 0 2 : 0 3 : 0 
Heartbeat_Variant_2_evicts 0 : 0 1 : 0 2 : 0 3 : 0 
Heartbeat_Variant_3_evicts 0 : 0 1 : 0 2 : 0 3 : 0 
Heartbeat CPU 0 instructions: 100000002 cycles: 57808826 heartbeat IPC: 1.13271 cumulative IPC: 1.14096 (Simulation time: 0 hr 20 min 38 sec) 
Finished CPU 0 instructions: 50000003 cycles: 43822885 cumulative IPC: 1.14096 (Simulation time: 0 hr 20 min 38 sec) 

ChampSim completed all CPUs

Region of Interest Statistics

CPU 0 cumulative IPC: 1.14096 instructions: 50000003 cycles: 43822885
 Fetch stage stalled: 70.1747  Sim cycles: 43822885 fetch stall cycle: 30752596
 Empty decode stage: 58.5138  Sim cycles: 43822885 fetch stall cycle: 25642443
ITLB TOTAL     ACCESS:    5613798  HIT:    5116498  MISS:     497300  HIT %:    91.1415  MISS %:    8.85853   MPKI: 9.946
ITLB LOAD TRANSLATION INSTRUCTION	ACCESS:    5507132  HIT:    5009832  MISS:     497300  HIT %:    90.9699  MISS %:    9.03011  MPKI: 9.946
ITLB TRANSLATION FROM L1D PREFETCHER INSTRUCTION	ACCESS:     106666  HIT:     106666  MISS:          0  HIT %:        100  MISS %:          0  MPKI: 0

ITLB AVERAGE MISS LATENCY: 9.07071 cycles
ITLB RQ	ACCESS:    7454797	FORWARD:          0	MERGED:    1343402	TO_CACHE:    6111395

DTLB TOTAL     ACCESS:    9282518  HIT:    8805045  MISS:     477473  HIT %:    94.8562  MISS %:    5.14379   MPKI: 9.54946
DTLB LOAD TRANSLATION DATA	ACCESS:    9282518  HIT:    8805045  MISS:     477473  HIT %:    94.8562  MISS %:    5.14379  MPKI: 9.54946

DTLB AVERAGE MISS LATENCY: 9.34342 cycles
DTLB RQ	ACCESS:   13580057	FORWARD:          0	MERGED:    4262804	TO_CACHE:    9317253

STLB TOTAL     ACCESS:    1219330  HIT:    1216854  MISS:       2476  HIT %:    99.7969  MISS %:   0.203062   MPKI: 0.04952
STLB LOAD TRANSLATION INSTRUCTION	ACCESS:     497300  HIT:     496803  MISS:        497  HIT %:    99.9001  MISS %:  0.0999397  MPKI: 0.00994
STLB LOAD TRANSLATION DATA	ACCESS:     477392  HIT:     475433  MISS:       1959  HIT %:    99.5896  MISS %:   0.410355  MPKI: 0.03918
STLB TRANSLATION FROM L1D PREFETCHER DATA	ACCESS:     244638  HIT:     244618  MISS:         20  HIT %:    99.9918  MISS %: 0.00817534  MPKI: 0.0004

STLB AVERAGE MISS LATENCY: 69.5117 cycles
STLB RQ	ACCESS:    1337054	FORWARD:          0	MERGED:     117688	TO_CACHE:    1219366

STLB Hit, L1D data hit: 0
STLB Hit, L2C data hit: 0
STLB Hit, LLC data hit: 0
STLB Hit, LLC data miss: 0
STLB STLB hints to L2: 0
L1D TOTAL     ACCESS:   13339048  HIT:   12220321  MISS:    1118727  HIT %:    91.6131  MISS %:    8.38686   MPKI: 22.3745
L1D LOAD DATA	ACCESS:    6766231  HIT:    6027663  MISS:     738568  HIT %:    89.0845  MISS %:    10.9155  MPKI: 14.7714
L1D RFO DATA	ACCESS:    6247964  HIT:    5961278  MISS:     286686  HIT %:    95.4115  MISS %:    4.58847  MPKI: 5.73372
L1D PREFETCH DATA	ACCESS:     324853  HIT:     231380  MISS:      93473  HIT %:    71.2261  MISS %:    28.7739  MPKI: 1.86946

L1D PREFETCH  REQUESTED:     724951  ISSUED:     724951  USEFUL:      32330  USELESS:      68159
L1D USEFUL LOAD PREFETCHES:      32330 PREFETCH ISSUED TO LOWER LEVEL:     100537  ACCURACY: 32.1573
 TIMELY PREFETCHES:      32330 LATE PREFETCHES: 7030 DROPPED PREFETCHES: 9
L1D AVERAGE MISS LATENCY: 230774 cycles
L1D RQ	ACCESS:   10854994	FORWARD:          0	MERGED:    3888469	TO_CACHE:    6798669
L1D WQ	ACCESS:    6958667	FORWARD:     168245	MERGED:     177279	TO_CACHE:    6781388
L1D PQ	ACCESS:     362670	FORWARD:          0	MERGED:          0	TO_CACHE:     362281

L1D UNIQUE REGIONS ACCESSED: 0
L1D REGIONS CONFLICTS: 0
L1D Cross Page Prefetch Requests: 5880
L1D Same Page Prefetch Requests: 739253
L1D ROI Sum of L1D PQ occupancy: 4613543
L1D PREFETCHES PUSHED FROM L2C: 0
L1I TOTAL     ACCESS:    6940890  HIT:    4160008  MISS:    2780882  HIT %:    59.9348  MISS %:    40.0652   MPKI: 55.6176
L1I LOAD INSTRUCTION	ACCESS:    6451111  HIT:    3670229  MISS:    2780882  HIT %:     56.893  MISS %:     43.107  MPKI: 55.6176
L1I PREFETCH INSTRUCTION	ACCESS:     489779  HIT:     489779  MISS:          0  HIT %:        100  MISS %:          0  MPKI: 0

L1I PREFETCH  REQUESTED:    1098792  ISSUED:    1098792  USEFUL:          0  USELESS:          0
L1I USEFUL LOAD PREFETCHES:          0 PREFETCH ISSUED TO LOWER LEVEL:          0  ACCURACY: -nan
 TIMELY PREFETCHES:          0 LATE PREFETCHES: 0 DROPPED PREFETCHES: 0
L1I AVERAGE MISS LATENCY: 17.2671 cycles
L1I RQ	ACCESS:    9459162	FORWARD:          0	MERGED:    2790506	TO_CACHE:    6668656
L1I PQ	ACCESS:    1098792	FORWARD:          0	MERGED:     312651	TO_CACHE:     786141

L1BTB TOTAL     ACCESS:    5670050  HIT:    2024245  MISS:    3645805  HIT %:    35.7007  MISS %:    64.2993   MPKI: 72.9161
L1BTB BRANCH_DIRECT_JUMP	ACCESS:     548469 HIT:     143255 MISS:     405214 AVERAGE STALL: 37.0161 AVERAGE FETCH STALL: 19.3972 AVERAGE FETCH QUEUE STALL: 8.76287 AVERAGE DECODE STALL: 8.06093 AVERAGE EXECUTE STALL: 4.00973e+14
L1BTB BRANCH_INDIRECT	ACCESS:     182714 HIT:      65675 MISS:     117039 AVERAGE STALL: 92.7993 AVERAGE FETCH STALL: 15.1211 AVERAGE FETCH QUEUE STALL: 7.16949 AVERAGE DECODE STALL: 7.3704 AVERAGE EXECUTE STALL: 62.1975
L1BTB BRANCH_CONDITIONAL	ACCESS:    2698425 HIT:    1399788 MISS:    1298637 AVERAGE STALL: 37.5568 AVERAGE FETCH STALL: 22.7174 AVERAGE FETCH QUEUE STALL: 6.78142 AVERAGE DECODE STALL: 7.30018 AVERAGE EXECUTE STALL: 1.65067e+14
L1BTB BRANCH_DIRECT_CALL	ACCESS:     948222 HIT:     104991 MISS:     843231 AVERAGE STALL: 38.6101 AVERAGE FETCH STALL: 21.7758 AVERAGE FETCH QUEUE STALL: 8.01484 AVERAGE DECODE STALL: 8.06085 AVERAGE EXECUTE STALL: 1.08875e+14
L1BTB BRANCH_INDIRECT_CALL	ACCESS:     171998 HIT:      20931 MISS:     151067 AVERAGE STALL: 114.925 AVERAGE FETCH STALL: 17.9513 AVERAGE FETCH QUEUE STALL: 6.12813 AVERAGE DECODE STALL: 6.95605 AVERAGE EXECUTE STALL: 83.3547
L1BTB BRANCH_RETURN	ACCESS:    1120222 HIT:     289605 MISS:     830617 AVERAGE STALL: 37.4348 AVERAGE FETCH STALL: 18.4305 AVERAGE FETCH QUEUE STALL: 5.68939 AVERAGE DECODE STALL: 6.37288 AVERAGE EXECUTE STALL: 1.90755e+14
L1BTB BRANCH_OTHER ACCESS:          0 HIT:          0 MISS:          0 AVERAGE STALL: -nan AVERAGE FETCH STALL: -nan AVERAGE FETCH QUEUE STALL: -nan AVERAGE DECODE STALL: -nan AVERAGE EXECUTE STALL: -nan
L1BTB TOTAL ROB OCCUPANCY AT BTB MISS: 13.891

L2BTB TOTAL     ACCESS:    3620484  HIT:    3159503  MISS:     460981  HIT %:    87.2674  MISS %:    12.7326   MPKI: 9.21962
L2BTB BRANCH_DIRECT_JUMP	ACCESS:     401111 HIT:     359164 MISS:      41947 AVERAGE STALL: 37.0161 AVERAGE FETCH STALL: 19.3972 AVERAGE FETCH QUEUE STALL: 8.76287 AVERAGE DECODE STALL: 8.06093 AVERAGE EXECUTE STALL: 4.00973e+14
L2BTB BRANCH_INDIRECT	ACCESS:     106703 HIT:      97526 MISS:       9177 AVERAGE STALL: 92.7993 AVERAGE FETCH STALL: 15.1211 AVERAGE FETCH QUEUE STALL: 7.16949 AVERAGE DECODE STALL: 7.3704 AVERAGE EXECUTE STALL: 62.1975
L2BTB BRANCH_CONDITIONAL	ACCESS:    1298637 HIT:    1186263 MISS:     112374 AVERAGE STALL: 37.5568 AVERAGE FETCH STALL: 22.7174 AVERAGE FETCH QUEUE STALL: 6.78142 AVERAGE DECODE STALL: 7.30018 AVERAGE EXECUTE STALL: 1.65067e+14
L2BTB BRANCH_DIRECT_CALL	ACCESS:     843231 HIT:     673724 MISS:     169507 AVERAGE STALL: 38.6101 AVERAGE FETCH STALL: 21.7758 AVERAGE FETCH QUEUE STALL: 8.01484 AVERAGE DECODE STALL: 8.06085 AVERAGE EXECUTE STALL: 1.08875e+14
L2BTB BRANCH_INDIRECT_CALL	ACCESS:     141601 HIT:     108963 MISS:      32638 AVERAGE STALL: 114.925 AVERAGE FETCH STALL: 17.9513 AVERAGE FETCH QUEUE STALL: 6.12813 AVERAGE DECODE STALL: 6.95605 AVERAGE EXECUTE STALL: 83.3547
L2BTB BRANCH_RETURN	ACCESS:     829201 HIT:     733863 MISS:      95338 AVERAGE STALL: 37.4348 AVERAGE FETCH STALL: 18.4305 AVERAGE FETCH QUEUE STALL: 5.68939 AVERAGE DECODE STALL: 6.37288 AVERAGE EXECUTE STALL: 1.90755e+14
L2BTB BRANCH_OTHER ACCESS:          0 HIT:          0 MISS:          0 AVERAGE STALL: -nan AVERAGE FETCH STALL: -nan AVERAGE FETCH QUEUE STALL: -nan AVERAGE DECODE STALL: -nan AVERAGE EXECUTE STALL: -nan
L2BTB TOTAL ROB OCCUPANCY AT BTB MISS: 109.861

L2C TOTAL     ACCESS:    4516038  HIT:    4024920  MISS:     491118  HIT %:     89.125  MISS %:     10.875   MPKI: 9.82236
L2C LOAD INSTRUCTION	ACCESS:    2780882  HIT:    2518831  MISS:     262051  HIT %:    90.5767  MISS %:    9.42331  MPKI: 5.24102
L2C LOAD TRANSLATION INSTRUCTION	ACCESS:        538  HIT:        170  MISS:        368  HIT %:    31.5985  MISS %:    68.4015  MPKI: 0.00736
L2C LOAD DATA	ACCESS:     731512  HIT:     652073  MISS:      79439  HIT %:    89.1404  MISS %:    10.8596  MPKI: 1.58878
L2C RFO DATA	ACCESS:     286630  HIT:     228210  MISS:      58420  HIT %:    79.6183  MISS %:    20.3817  MPKI: 1.1684
L2C PREFETCH DATA	ACCESS:     189238  HIT:     114139  MISS:      75099  HIT %:    60.3151  MISS %:    39.6849  MPKI: 1.50198
L2C WRITEBACK DATA	ACCESS:     525133  HIT:     510880  MISS:      14253  HIT %:    97.2858  MISS %:    2.71417  MPKI: 0.28506
L2C LOAD TRANSLATION DATA	ACCESS:       2063  HIT:        586  MISS:       1477  HIT %:    28.4052  MISS %:    71.5948  MPKI: 0.02954
L2C TRANSLATION FROM L1D PREFETCHER DATA	ACCESS:         42  HIT:         31  MISS:         11  HIT %:    73.8095  MISS %:    26.1905  MPKI: 0.00022

L2C PREFETCH  REQUESTED:      96997  ISSUED:      96997  USEFUL:       9084  USELESS:      66287
L2C USEFUL LOAD PREFETCHES:       9084 PREFETCH ISSUED TO LOWER LEVEL:      75501  ACCURACY: 12.0316
 TIMELY PREFETCHES:       9084 LATE PREFETCHES: 402 DROPPED PREFETCHES: 0
L2C AVERAGE MISS LATENCY: 38.5105 cycles
L2C RQ	ACCESS:    3801716	FORWARD:          0	MERGED:          0	TO_CACHE:    3801668
L2C WQ	ACCESS:     525133	FORWARD:         48	MERGED:          0	TO_CACHE:     525133
L2C PQ	ACCESS:     197534	FORWARD:          0	MERGED:       3586	TO_CACHE:     193948

L2C Dense regions hint from L2: 0
PSCL5 TOTAL     ACCESS:       4970  HIT:       2485  MISS:       2485  HIT %:         50  MISS %:         50   MPKI: 0.0497
PSCL5 LOAD TRANSLATION INSTRUCTION	ACCESS:       4886  HIT:       2443  MISS:       2443  HIT %:         50  MISS %:         50  MPKI: 0.04886
PSCL5 TRANSLATION FROM L1D PREFETCHER INSTRUCTION	ACCESS:         84  HIT:         42  MISS:         42  HIT %:         50  MISS %:         50  MPKI: 0.00084


PSCL4 TOTAL     ACCESS:       3964  HIT:       1978  MISS:       1986  HIT %:    49.8991  MISS %:    50.1009   MPKI: 0.03972
PSCL4 LOAD TRANSLATION INSTRUCTION	ACCESS:       2160  HIT:       1942  MISS:        218  HIT %:    89.9074  MISS %:    10.0926  MPKI: 0.00436
PSCL4 TRANSLATION FROM L1D PREFETCHER INSTRUCTION	ACCESS:         36  HIT:         36  MISS:          0  HIT %:        100  MISS %:          0  MPKI: 0
PSCL4 LOAD TRANSLATION DATA	ACCESS:       1732  HIT:          0  MISS:       1732  HIT %:          0  MISS %:        100  MPKI: 0.03464
PSCL4 TRANSLATION FROM L1D PREFETCHER DATA	ACCESS:         36  HIT:          0  MISS:         36  HIT %:          0  MISS %:        100  MPKI: 0.00072


PSCL3 TOTAL     ACCESS:       4707  HIT:       2345  MISS:       2362  HIT %:    49.8194  MISS %:    50.1806   MPKI: 0.04724
PSCL3 LOAD TRANSLATION INSTRUCTION	ACCESS:       2604  HIT:       2313  MISS:        291  HIT %:    88.8249  MISS %:    11.1751  MPKI: 0.00582
PSCL3 TRANSLATION FROM L1D PREFETCHER INSTRUCTION	ACCESS:         32  HIT:         32  MISS:          0  HIT %:        100  MISS %:          0  MPKI: 0
PSCL3 LOAD TRANSLATION DATA	ACCESS:       2039  HIT:          0  MISS:       2039  HIT %:          0  MISS %:        100  MPKI: 0.04078
PSCL3 TRANSLATION FROM L1D PREFETCHER DATA	ACCESS:         32  HIT:          0  MISS:         32  HIT %:          0  MISS %:        100  MPKI: 0.00064


PSCL2 TOTAL     ACCESS:       4834  HIT:       2349  MISS:       2485  HIT %:    48.5933  MISS %:    51.4067   MPKI: 0.0497
PSCL2 LOAD TRANSLATION INSTRUCTION	ACCESS:       2809  HIT:       2307  MISS:        502  HIT %:    82.1289  MISS %:    17.8711  MPKI: 0.01004
PSCL2 TRANSLATION FROM L1D PREFETCHER INSTRUCTION	ACCESS:         42  HIT:         42  MISS:          0  HIT %:        100  MISS %:          0  MPKI: 0
PSCL2 LOAD TRANSLATION DATA	ACCESS:       1941  HIT:          0  MISS:       1941  HIT %:          0  MISS %:        100  MPKI: 0.03882
PSCL2 TRANSLATION FROM L1D PREFETCHER DATA	ACCESS:         42  HIT:          0  MISS:         42  HIT %:          0  MISS %:        100  MPKI: 0.00084


LLC TOTAL     ACCESS:     559251  HIT:     530353  MISS:      28898  HIT %:    94.8327  MISS %:    5.16727   MPKI: 0.57796
LLC LOAD INSTRUCTION	ACCESS:     262051  HIT:     261010  MISS:       1041  HIT %:    99.6027  MISS %:   0.397251  MPKI: 0.02082
LLC LOAD TRANSLATION INSTRUCTION	ACCESS:        368  HIT:        329  MISS:         39  HIT %:    89.4022  MISS %:    10.5978  MPKI: 0.00078
LLC LOAD DATA	ACCESS:      79040  HIT:      75303  MISS:       3737  HIT %:     95.272  MISS %:    4.72799  MPKI: 0.07474
LLC RFO DATA	ACCESS:      58396  HIT:      45138  MISS:      13258  HIT %:    77.2964  MISS %:    22.7036  MPKI: 0.26516
LLC PREFETCH DATA	ACCESS:      75500  HIT:      65067  MISS:      10433  HIT %:    86.1815  MISS %:    13.8185  MPKI: 0.20866
LLC WRITEBACK DATA	ACCESS:      82408  HIT:      82114  MISS:        294  HIT %:    99.6432  MISS %:   0.356761  MPKI: 0.00588
LLC LOAD TRANSLATION DATA	ACCESS:       1477  HIT:       1381  MISS:         96  HIT %:    93.5003  MISS %:    6.49966  MPKI: 0.00192
LLC TRANSLATION FROM L1D PREFETCHER DATA	ACCESS:         11  HIT:         11  MISS:          0  HIT %:        100  MISS %:          0  MPKI: 0

LLC AVERAGE MISS LATENCY: 158.41 cycles
LLC RQ	ACCESS:     401364	FORWARD:          0	MERGED:          0	TO_CACHE:     401343
LLC WQ	ACCESS:      82408	FORWARD:         22	MERGED:          0	TO_CACHE:      82408
LLC PQ	ACCESS:      75501	FORWARD:          0	MERGED:          0	TO_CACHE:      75500

LLC Dense regions hint to LLC: 0

RAW hits: 1781152
Loads Generated: 12636146
Loads sent to L1D: 10854994
Stores Generated: 6958655
Stores sent to L1D: 6958667
Major fault: 0 Minor fault: 2667
Allocated PAGES: 2667

stream: 
stream:times selected: 1172263
stream:pref_filled: 121865
stream:pref_useful: 23517
stream:pref_late: 6535
stream:misses: 6686
stream:misses_by_poll: 0

CS: 
CS:times selected: 174341
CS:pref_filled: 60341
CS:pref_useful: 37081
CS:pref_late: 6345
CS:misses: 14975
CS:misses_by_poll: 3

CPLX: 
CPLX:times selected: 996855
CPLX:pref_filled: 19089
CPLX:pref_useful: 4257
CPLX:pref_late: 2913
CPLX:misses: 90441
CPLX:misses_by_poll: 1

NL_L1: 
NL:times selected: 19117
NL:pref_filled: 561
NL:pref_useful: 239
NL:pref_late: 184
NL:misses: 1021
NL:misses_by_poll: 0

total selections: 2362576
total_filled: 93473
total_useful: 32330
total_late: 17140
total_polluted: 4
total_misses_after_warmup: 771007
conflicts: 5632506

test: 112064

DRAM Statistics
 CHANNEL 0
 RQ ROW_BUFFER_HIT:      10363  ROW_BUFFER_MISS:      18236
 DBUS_CONGESTED:         13
 WQ ROW_BUFFER_HIT:       1465  ROW_BUFFER_MISS:      12292  FULL:          0

 AVG_CONGESTED_CYCLE: 5

CPU 0 Branch Prediction Accuracy: 99.8093% MPKI: 0.34888 Average ROB Occupancy at Mispredict: 135.315
Branch types
NOT_BRANCH: 40850819 81.7016%
BRANCH_DIRECT_JUMP: 548469 1.09694%
BRANCH_INDIRECT: 182714 0.365428%
BRANCH_CONDITIONAL: 6177315 12.3546%
BRANCH_DIRECT_CALL: 948222 1.89644%
BRANCH_INDIRECT_CALL: 171998 0.343996%
BRANCH_RETURN: 1120222 2.24044%
BRANCH_OTHER: 0 0%

DRAM PAGES: 1048576
Allocated PAGES: 2667
Average_ROB_Occupancy: 131.154
Average_Decode_Occupancy: 15.2912
Average_FTQ_Occupancy: 6.99254
Indirect max targets: 14 Average targets: 1.17834
Branch_type:  BRANCH_DIRECT_JUMP:  Count Percentage: 1.92743 7.52514 3.55414 8.4664 2.23318 5.97311 0.939159 69.3814 
Branch_type:  BRANCH_INDIRECT:  Count Percentage: 11.7616 5.57969 2.51023 0 1.34007 9.67705 2.2774 66.854 
Branch_type:  BRANCH_CONDITIONAL:  Count Percentage: 23.5925 4.41044 4.88236 4.94637 1.31042 4.88746 0.514106 55.4563 
Branch_type:  BRANCH_DIRECT_CALL:  Count Percentage: 0.258152 1.52803 0.963511 3.87699 1.90122 2.42371 0.775302 88.2731 
Branch_type:  BRANCH_INDIRECT_CALL:  Count Percentage: 9.5777 2.28637 3.00274 8.70191 0 2.26947 1.28002 72.8818 
Branch_type:  BRANCH_RETURN:  Count Percentage: 7.32409 1.84803 4.72867 5.96051 2.6007 6.50732 1.36192 69.6688 
Branch_type:  BRANCH_DIRECT_JUMP:  Total Count: 21112 82426 38930 92736 24461 65426 10287 759964 
Branch_type:  BRANCH_INDIRECT:  Total Count: 42989 20394 9175 0 4898 35370 8324 244354 
Branch_type:  BRANCH_CONDITIONAL:  Total Count: 2912802 544526 602790 610693 161788 603420 63473 6846801 
Branch_type:  BRANCH_DIRECT_CALL:  Total Count: 4883 28903 18225 73334 35962 45845 14665 1669703 
Branch_type:  BRANCH_INDIRECT_CALL:  Total Count: 32863 7845 10303 29858 0 7787 4392 250072 
Branch_type:  BRANCH_RETURN:  Total Count: 163731 41313 105710 133248 58139 145472 30446 1557454 
Number of unique branch instructions: 10852
Upper 32 bits: 
aaaa
ffff
ffff0000
Unique upper 32 bits: 3
Unique upper 36 bits: 3
Unique upper 40 bits: 5
Unique upper 44 bits: 32
Unique upper 48 bits: 159
Variant_0 : 1132 0.276367
Variant_1 : 2494 0.608887
Variant_2 : 0 0
Variant_3 : 0 0
Offset_3 4501
Offset_4 260
Offset_5 488
Offset_6 542
Offset_7 645
Offset_8 573
Offset_9 521
Offset_10 426
Offset_11 362
Offset_12 327
Offset_13 237
Offset_14 248
Offset_15 194
Offset_16 234
Offset_17 175
Offset_18 153
Offset_19 268
Offset_20 142
Offset_21 235
Offset_22 417
Offset_23 241
Offset_24 346
Offset_25 117
Offset_47 92
Offset_64 2
decode_dispatch_called: 19933258 45.486
Dispatch_width: 0 9821752 49.2732 22.4124
Dispatch_width: 1 564842 2.83367 1.28892
Dispatch_width: 2 659791 3.31 1.50559
Dispatch_width: 3 416900 2.09148 0.951329
Dispatch_width: 4 1825363 9.15737 4.16532
Dispatch_width: 5 304320 1.52669 0.694432
Dispatch_width: 6 6340290 31.8076 14.468
Empty_decode_cycles: 23889627 54.514
ROB_full_cycles: 2694362 6.1483
Starvation_cycles_per_kilo_instr: 347.882
Starvation_cycles_per_kilo_instr_3: 326.585
Starvation_cycles_per_kilo_instr_0: 310.17
Branch_type_1  (3,1)  (4,9)  (5,39)  (6,72)  (7,124)  (8,149)  (9,136)  (10,112)  (11,78)  (12,55)  (13,11)  (14,2)  (15,3)  (16,4)  (18,1)  (19,5)  (20,2)  (21,1)  (22,3)  (23,2)  (24,10)  (25,12) 
Branch_type_2  (3,1)  (4,1)  (5,1)  (8,4)  (9,4)  (10,1)  (12,1)  (13,1)  (14,1)  (16,3)  (17,2)  (20,2)  (21,2)  (23,5)  (24,1)  (47,41) 
Branch_type_3  (3,4499)  (4,250)  (5,444)  (6,454)  (7,492)  (8,353)  (9,285)  (10,172)  (11,145)  (12,62)  (13,10)  (64,2) 
Branch_type_4  (6,3)  (7,8)  (8,25)  (9,56)  (10,67)  (11,71)  (12,116)  (13,101)  (14,112)  (15,92)  (16,103)  (17,82)  (18,67)  (19,132)  (20,72)  (21,124)  (22,222)  (23,136)  (24,201)  (25,101) 
Branch_type_5  (8,3)  (9,1)  (10,4)  (11,6)  (12,3)  (13,14)  (14,16)  (15,11)  (16,22)  (17,11)  (18,23)  (19,14)  (20,11)  (21,13)  (22,43)  (23,26)  (24,38) 
Branch_type_6  (5,4)  (6,13)  (7,21)  (8,39)  (9,39)  (10,70)  (11,62)  (12,90)  (13,100)  (14,117)  (15,88)  (16,102)  (17,80)  (18,62)  (19,117)  (20,55)  (21,95)  (22,149)  (23,72)  (24,96)  (25,4)  (47,51) 
Unique trigger count: 
Variant_0_evicts_0 : 0
Variant_0_evicts_1 : 0
Variant_0_evicts_2 : 0
Variant_0_evicts_3 : 0
Variant_1_evicts_0 : 0
Variant_1_evicts_1 : 0
Variant_1_evicts_2 : 0
Variant_1_evicts_3 : 0
Variant_2_evicts_0 : 0
Variant_2_evicts_1 : 0
Variant_2_evicts_2 : 0
Variant_2_evicts_3 : 0
Variant_3_evicts_0 : 0
Variant_3_evicts_1 : 0
Variant_3_evicts_2 : 0
Variant_3_evicts_3 : 0
BTB PER SET UNIQUE ADDR: 6 7 6 5 3 4 7 9 10 2 5 2 8 5 4 4 6 4 8 9 5 8 8 8 8 11 1 7 6 6 10 10 6 6 8 4 4 7 7 3 8 5 7 10 9 9 6 12 11 6 5 3 13 3 2 7 5 5 9 8 4 12 5 8 6 9 9 9 6 7 6 2 6 5 6 7 6 15 6 6 9 6 7 6 6 7 7 8 8 10 10 9 9 6 8 5 10 8 5 7 8 7 9 9 7 8 7 8 7 5 7 7 4 8 6 11 3 8 6 2 8 9 4 3 6 4 4 7 11 9 11 3 11 6 9 6 5 3 6 8 8 8 7 6 5 11 5 8 12 8 7 14 6 11 6 9 8 9 7 11 11 8 11 5 12 8 3 5 14 7 6 4 8 7 4 3 6 8 10 5 6 8 10 8 9 12 6 6 6 8 7 8 6 7 6 10 13 5 11 6 4 6 9 4 8 4 5 8 7 2 3 6 9 9 7 6 4 9 8 6 6 4 7 8 6 8 14 7 3 11 14 9 4 5 7 9 11 5 4 5 5 3 10 8 17 11 2 7 6 7 9 10 6 7 5 13 4 8 11 6 8 5 7 4 9 16 7 5 7 5 7 7 4 8 10 8 7 3 4 8 9 5 10 5 9 9 7 7 8 4 5 7 5 10 7 4 6 10 6 6 6 6 5 4 6 5 6 4 13 9 7 4 8 4 6 5 10 14 7 6 7 10 5 9 5 6 6 10 3 3 9 2 6 7 10 5 7 8 8 1 6 6 3 9 7 8 3 9 10 6 5 13 11 6 8 7 7 2 8 5 7 10 6 8 11 8 4 4 4 4 8 5 6 5 8 4 11 8 7 10 9 7 6 12 6 4 8 5 8 4 9 5 8 4 7 4 5 5 2 9 7 5 7 7 5 6 8 5 4 3 5 3 11 7 2 6 9 4 2 7 3 6 7 7 11 9 4 2 5 8 3 4 16 6 8 11 7 6 8 4 6 6 10 3 8 9 6 6 5 4 6 3 5 3 9 3 5 7 9 6 5 5 7 12 5 5 12 3 5 8 2 6 10 7 4 3 10 5 4 4 5 2 3 4 3 7 8 3 7 2 13 4 4 8 1 11 5 7 5 4 11 3 5 3 2 5 6 3 5 6 8 4 8 11 3 5 2 11 6 9 7 5 8 6 11 9 6 10 9 8 8 6 6 8 5 8 7 1 6 4 5 8 11 4 9 5 10 14 14 11 7 9 7 8 2 6 9 3 7 4 10 5 9 5 5 6 10 10 11 7 8 4 11 12 7 7 7 12 3 10 13 5 2 6 5 3 3 14 7 5 8 8 4 7 6 5 9 5 6 5 13 5 11 12 8 6 4 9 8 5 8 8 7 7 8 5 7 5 5 7 9 6 11 4 5 10 8 8 4 6 8 7 7 7 7 9 6 7 6 4 11 8 4 6 3 3 7 8 8 9 7 5 10 3 5 4 11 5 6 8 12 3 6 11 7 8 7 6 6 12 7 8 6 8 11 10 8 6 8 6 9 12 9 6 8 8 7 9 8 6 3 8 3 5 5 7 10 7 7 9 3 12 6 5 7 13 3 4 5 5 7 8 6 5 5 7 12 6 1 8 5 3 5 4 4 3 3 9 2 11 8 11 8 2 7 8 10 3 6 4 5 8 5 10 4 5 6 4 8 7 7 3 4 7 2 5 5 11 9 4 6 6 6 7 7 6 14 6 6 4 9 7 0 5 7 5 6 10 4 3 8 6 4 6 11 9 9 8 3 9 4 9 5 7 6 13 12 5 6 4 13 4 8 4 7 7 7 9 4 6 3 4 6 5 5 6 1 5 5 10 7 4 9 4 5 6 6 4 7 6 7 3 7 4 10 6 4 5 6 5 5 5 7 6 5 8 9 6 6 5 8 8 6 9 6 11 8 5 7 6 7 7 4 4 14 7 6 8 10 10 4 7 6 10 8 2 3 6 7 4 5 8 6 7 10 5 7 5 6 7 9 3 5 8 6 3 9 13 5 3 12 9 4 6 9 7 7 11 6 9 9 7 5 5 3 10 6 7 8 6 9 7 10 7 9 9 7 5 5 12 6 4 11 10 6 8 10 10 3 10 8 9 6 4 6 8 9 7 10 6 9 5 13 7 5 6 9 13 6 10 6 7 10 5 3 9 10 9 10 5 3 5 3 9 12 6 8 5 4 7 13 6 4 5 5 7 4 5 9 8 8 7 7 11 4 11 6 11 5 6 5 5 5 4 7 6 7 6 6 7 9 4 9 6 11 4 9 5 3 8 11 6 15 5 
BTB PER SET COUNT: 10 7 7 5 3 4 7 1940 5399 3 5 2 1463 5 4 9 8 4 51 3003 5 8 8 105 4919 2472 1 8 1477 6 5015 396 1464 6 11 4 2948 7 7 3 39 5 13 2696 2518 14 6 4727 2847 8 5 3 10350 3 2 1454 5 5 978 1476 7 2973 5 30 6 1210 369 35 6 733 734 2 9 5 7 7 492 6841 12 6 927 6 979 6 847 7 7 112 8032 2104 1736 543 2906 7 17 7 2580 19 5 8 20 16 24 3118 10 16 8 2120 1940 22 1934 8 4 1708 6 4610 4 8 6 2 8 39 4 5 496 6 4 14 7263 23 1988 4 8866 9 2899 6 5 3 6 1927 26 18 10 6 6 864 7 9 1533 2402 9 6570 6 10100 12 647 8 1924 8 1579 4799 12 4941 5 1807 2975 3 5 7206 9 6 4 25 164 4 6 6 522 2329 5 6 8 5397 9 14 6875 14 6 2962 22 8 4289 6 10 6 41 1059 5 37 6 5 6 10 6 11 4 5 3920 13 2 3 10 142 24 10 8 4 968 11 6 6 4 7 15 6 1943 5426 3265 5 4640 8146 1000 4 5 16 2408 2389 6 4 7 5 4 6344 13 8039 3915 2 9 6 8 794 3997 11 13 5 3006 5 9 2280 8 2137 5 7 4 2220 6996 1985 6 1949 5 1717 8 6 1920 997 751 8 5 4 2422 23 5 1236 6 2922 3385 7 342 22 4 5 7 487 2425 2900 6 11 3956 6 6 6 7 5 8 9 5 6 4 4228 1582 14 4 2099 4 6 5 977 3808 1935 7 8 1275 5 15 5 6 6 1241 4 3 2201 2 7 7 5438 5 1459 11 12 1 6 6 3 2392 976 694 4 10 269 8 7 640 1062 997 9 12 9 3 2252 39 9 739 7 2436 1019 1575 5 5 4 4 9 7 6 5 31 4 6167 9 7 2097 2421 2397 6 7114 8 4 52 5 12 6 1469 6 2412 6 8 5 1964 15 2 19 10 7 1442 8 746 8 3082 6 4 2847 11 3 1529 8 1469 6 125 7 2 1436 3 7 7 24 1411 37 11 2 5 26 123 4 6624 9 1788 2209 9 6 16 6 6 7 1432 3 18 36 7 1954 5 4 6 3 8 5 1494 3 5 13 1065 7 962 5 17 556 30 5 3502 3 5 10 2 24 1938 494 96 3 25934 5 4 4 5 2 3 485 3 76 1712 378 7 2 1203 4 5 1227 1 3747 9 33 5 4 2865 13 15 3 2 5 12 3 8 6 28 6 10 43 7 5 2 11238 6 1314 13 1476 13 801 138 1922 7 980 2062 22 9 8 6 19 6 588 15 1 6 4 5 1939 215 5 38 5 61 2223 3557 7722 9 3989 9 11 2 6 1135 3 7 5 4948 5 1938 7 5 8 1237 21 2572 50 1724 5 2537 6128 1441 1448 8 5372 3 4709 10149 42 3 1934 1477 3 3 6373 18 7 10 2421 7 999 998 7 13 5 7 5 1997 7 4786 1073 13 2891 4 2860 9 6 2911 13 16 10 8 7 2600 5 5 9 16 1341 4344 4 1477 1002 39 1536 11 1456 1456 1478 15 11 7 16 6 10 122 4 7361 1021 4 8 3 4 16 8 698 13 7 5 8341 3 5 7 980 5 1453 2901 12655 5 6 6329 9 1770 2970 976 32 1943 989 11 13 9 6623 3050 500 6 2466 8 19 6760 26 972 17680 1473 36 4376 1489 14 4 1244 4 7 5 11 6846 7 8 65 3 2461 6 5 189 4129 3 1476 5 1477 227 8 8 5 971 7 1871 1140 1 1920 10 4 5 5 4 5 3 1045 2 6023 1455 3875 1000 2 7 13 27 3 6 4 6 428 5 8306 4 5 983 5 8 965 13 3 5 542 2 6 5 4481 6413 993 6 9 995 22 2992 6 9383 7 6 4 286 9 0 192 7 1477 12 3166 4 3 2420 13 4 10 1953 1732 1046 32 482 984 4 1733 5 17 339 7038 3063 5 6 4 4464 4 1074 6 1964 2724 10 22 4 8 3 5 6 521 7 8 2 9 9 2671 11 4 501 410 7 6 1505 4 1441 97 568 3 492 4 7897 6 10 5 6 5 409 5 8 1478 5 18 1253 6 8 5 3379 1515 7 12 9 8992 41 5 1442 10 12 9 4 4 8941 997 7 1932 2423 350 4 1910 6 1458 13 2 3 8 9 4 5 13 6 7 2673 13 2215 5 6 8 298 3 5 47 7 4 37 4194 6 3 5080 2400 127 126 764 11 8 3425 6 16 1952 9 7 6 4 19 6 965 4813 1934 48 46 1941 10 1822 1544 10 7 5 1114 6 486 3865 2042 6 967 4819 2858 3 3385 37 315 9 993 8 1462 32 241 270 8 3866 5 7103 7 6 10 1983 8316 10 3374 6 495 7366 5 9 898 54 622 50 5 4 5 3 467 2490 6 1014 5 4 7 2705 7 728 6 5 11 4 5 33 8 3332 9 2413 2968 6 2864 6 5307 7 9 6 6 5 6 9 8 963 16 8 10 2923 4 7432 364 3150 5 994 6 4 11 1548 7 3608 7 
To predecode: 0
Predecoding something: 0
Predecode request dropped: 0
sizeofblock_0 0
sizeofblock_1 222035
sizeofblock_2 355129
sizeofblock_3 0
sizeofblock_4 0
sizeofblock_5 0
sizeofblock_6 0
sizeofblock_7 0
sizeofblock_8 0
Variant_0 Correct: 0 Incorrect: 0 Accuracy: -nan
Variant_1 Correct: 0 Incorrect: 0 Accuracy: -nan
Variant_2 Correct: 0 Incorrect: 0 Accuracy: -nan
Variant_3 Correct: 0 Incorrect: 0 Accuracy: -nan
