
*** ChampSim Multicore Out-of-Order Simulator ***

Warmup Instructions: 50000000
Simulation Instructions: 50000000
Number of CPUs: 1
LLC sets: 2048
LLC ways: 16
Off-chip DRAM Size: 4096 MB Channels: 1 Width: 64-bit Data Rate: 6400 MT/s
CPU 0 runs ./micro_traces/srv286.trace.gz
.gz
ITLB has LRU replacement policy
DTLB has LRU replacement policy
STLB has LRU replacement policy
FDIP Prefetcher at L1I
L1I has LRU replacement policy
L1D has LRU replacement policy
Initialize SRRIP state for L2C
Initialize DRRIP state for LLC
Heartbeat_Variant_0 : 1296 0.316406 per_variant_size: 0 1296 0 0 0 0 0 0 0 
Heartbeat_Variant_1 : 1196 0.291992 per_variant_size: 0 607 589 0 0 0 0 0 0 
Heartbeat_Variant_2 : 1273 0.310791 per_variant_size: 0 530 348 216 179 0 0 0 0 
Heartbeat_Variant_3 : 0 0 per_variant_size: 0 0 0 0 0 0 0 0 0 
Heartbeat_Variant_0_evicts 0 : 5851 1 : 200 2 : 199 3 : 0 
Heartbeat_Variant_1_evicts 0 : 189 1 : 0 2 : 361 3 : 0 
Heartbeat_Variant_2_evicts 0 : 180 1 : 344 2 : 0 3 : 0 
Heartbeat_Variant_3_evicts 0 : 0 1 : 0 2 : 0 3 : 0 
Heartbeat CPU 0 instructions: 10000003 cycles: 2797470 heartbeat IPC: 3.57466 cumulative IPC: 3.57466 (Simulation time: 0 hr 1 min 45 sec) 
Heartbeat_Variant_0 : 1350 0.32959 per_variant_size: 0 1350 0 0 0 0 0 0 0 
Heartbeat_Variant_1 : 1235 0.301514 per_variant_size: 0 577 658 0 0 0 0 0 0 
Heartbeat_Variant_2 : 1320 0.322266 per_variant_size: 0 507 360 250 203 0 0 0 0 
Heartbeat_Variant_3 : 0 0 per_variant_size: 0 0 0 0 0 0 0 0 0 
Heartbeat_Variant_0_evicts 0 : 5728 1 : 183 2 : 160 3 : 0 
Heartbeat_Variant_1_evicts 0 : 165 1 : 0 2 : 354 3 : 0 
Heartbeat_Variant_2_evicts 0 : 168 1 : 348 2 : 0 3 : 0 
Heartbeat_Variant_3_evicts 0 : 0 1 : 0 2 : 0 3 : 0 
Heartbeat CPU 0 instructions: 20000000 cycles: 5595590 heartbeat IPC: 3.57383 cumulative IPC: 3.57424 (Simulation time: 0 hr 3 min 24 sec) 
Heartbeat_Variant_0 : 1352 0.330078 per_variant_size: 0 1352 0 0 0 0 0 0 0 
Heartbeat_Variant_1 : 1250 0.305176 per_variant_size: 0 596 654 0 0 0 0 0 0 
Heartbeat_Variant_2 : 1325 0.323486 per_variant_size: 0 516 363 246 200 0 0 0 0 
Heartbeat_Variant_3 : 0 0 per_variant_size: 0 0 0 0 0 0 0 0 0 
Heartbeat_Variant_0_evicts 0 : 5618 1 : 50 2 : 30 3 : 0 
Heartbeat_Variant_1_evicts 0 : 55 1 : 0 2 : 238 3 : 0 
Heartbeat_Variant_2_evicts 0 : 29 1 : 234 2 : 0 3 : 0 
Heartbeat_Variant_3_evicts 0 : 0 1 : 0 2 : 0 3 : 0 
Heartbeat CPU 0 instructions: 30000001 cycles: 8391545 heartbeat IPC: 3.5766 cumulative IPC: 3.57503 (Simulation time: 0 hr 5 min 3 sec) 
Heartbeat_Variant_0 : 1362 0.33252 per_variant_size: 0 1362 0 0 0 0 0 0 0 
Heartbeat_Variant_1 : 1249 0.304932 per_variant_size: 0 590 659 0 0 0 0 0 0 
Heartbeat_Variant_2 : 1337 0.326416 per_variant_size: 0 522 378 227 210 0 0 0 0 
Heartbeat_Variant_3 : 0 0 per_variant_size: 0 0 0 0 0 0 0 0 0 
Heartbeat_Variant_0_evicts 0 : 5574 1 : 81 2 : 99 3 : 0 
Heartbeat_Variant_1_evicts 0 : 71 1 : 0 2 : 283 3 : 0 
Heartbeat_Variant_2_evicts 0 : 101 1 : 281 2 : 0 3 : 0 
Heartbeat_Variant_3_evicts 0 : 0 1 : 0 2 : 0 3 : 0 
Heartbeat CPU 0 instructions: 40000000 cycles: 11188983 heartbeat IPC: 3.5747 cumulative IPC: 3.57495 (Simulation time: 0 hr 6 min 42 sec) 
Heartbeat_Variant_0 : 1370 0.334473 per_variant_size: 0 1370 0 0 0 0 0 0 0 
Heartbeat_Variant_1 : 1251 0.30542 per_variant_size: 0 578 673 0 0 0 0 0 0 
Heartbeat_Variant_2 : 1341 0.327393 per_variant_size: 0 515 381 244 201 0 0 0 0 
Heartbeat_Variant_3 : 0 0 per_variant_size: 0 0 0 0 0 0 0 0 0 
Heartbeat_Variant_0_evicts 0 : 5624 1 : 52 2 : 52 3 : 0 
Heartbeat_Variant_1_evicts 0 : 50 1 : 0 2 : 246 3 : 0 
Heartbeat_Variant_2_evicts 0 : 50 1 : 245 2 : 0 3 : 0 
Heartbeat_Variant_3_evicts 0 : 0 1 : 0 2 : 0 3 : 0 
Heartbeat CPU 0 instructions: 50000003 cycles: 13985508 heartbeat IPC: 3.57587 cumulative IPC: 3.57513 (Simulation time: 0 hr 8 min 20 sec) 

Warmup complete CPU 0 instructions: 50000003 cycles: 13985508 (Simulation time: 0 hr 8 min 20 sec) 

Cycle: 20000000 FTQ IN: 58347017 FTQ occupancy: 20.5552 DECODE IN: 58346996 DECODE occupancy: 53.2973 ROB IN: 58346994 ROB occupancy: 318.578 ROB OUT: 58346959
Heartbeat_Variant_0 : 1370 0.334473 per_variant_size: 0 1370 0 0 0 0 0 0 0 
Heartbeat_Variant_1 : 1257 0.306885 per_variant_size: 0 587 670 0 0 0 0 0 0 
Heartbeat_Variant_2 : 1345 0.328369 per_variant_size: 0 515 384 242 204 0 0 0 0 
Heartbeat_Variant_3 : 0 0 per_variant_size: 0 0 0 0 0 0 0 0 0 
Heartbeat_Variant_0_evicts 0 : 5697 1 : 43 2 : 41 3 : 0 
Heartbeat_Variant_1_evicts 0 : 49 1 : 0 2 : 240 3 : 0 
Heartbeat_Variant_2_evicts 0 : 37 1 : 243 2 : 0 3 : 0 
Heartbeat_Variant_3_evicts 0 : 0 1 : 0 2 : 0 3 : 0 
Heartbeat CPU 0 instructions: 60000000 cycles: 21179098 heartbeat IPC: 1.39013 cumulative IPC: 1.39013 (Simulation time: 0 hr 10 min 22 sec) 
Heartbeat_Variant_0 : 1392 0.339844 per_variant_size: 0 1392 0 0 0 0 0 0 0 
Heartbeat_Variant_1 : 1285 0.313721 per_variant_size: 0 577 708 0 0 0 0 0 0 
Heartbeat_Variant_2 : 1343 0.327881 per_variant_size: 0 478 395 267 203 0 0 0 0 
Heartbeat_Variant_3 : 0 0 per_variant_size: 0 0 0 0 0 0 0 0 0 
Heartbeat_Variant_0_evicts 0 : 5905 1 : 195 2 : 217 3 : 0 
Heartbeat_Variant_1_evicts 0 : 205 1 : 0 2 : 385 3 : 0 
Heartbeat_Variant_2_evicts 0 : 197 1 : 383 2 : 0 3 : 0 
Heartbeat_Variant_3_evicts 0 : 0 1 : 0 2 : 0 3 : 0 
Heartbeat CPU 0 instructions: 70000000 cycles: 28386788 heartbeat IPC: 1.38741 cumulative IPC: 1.38877 (Simulation time: 0 hr 12 min 22 sec) 
Cycle: 30000000 FTQ IN: 13905135 FTQ occupancy: 14.4166 DECODE IN: 13905060 DECODE occupancy: 36.6903 ROB IN: 13905002 ROB occupancy: 245.634 ROB OUT: 13904689
Heartbeat_Variant_0 : 1393 0.340088 per_variant_size: 0 1393 0 0 0 0 0 0 0 
Heartbeat_Variant_1 : 1284 0.313477 per_variant_size: 0 580 704 0 0 0 0 0 0 
Heartbeat_Variant_2 : 1350 0.32959 per_variant_size: 0 477 404 265 204 0 0 0 0 
Heartbeat_Variant_3 : 0 0 per_variant_size: 0 0 0 0 0 0 0 0 0 
Heartbeat_Variant_0_evicts 0 : 5681 1 : 74 2 : 79 3 : 0 
Heartbeat_Variant_1_evicts 0 : 60 1 : 0 2 : 272 3 : 0 
Heartbeat_Variant_2_evicts 0 : 95 1 : 261 2 : 0 3 : 0 
Heartbeat_Variant_3_evicts 0 : 0 1 : 0 2 : 0 3 : 0 
Heartbeat CPU 0 instructions: 80000002 cycles: 35622819 heartbeat IPC: 1.38197 cumulative IPC: 1.38649 (Simulation time: 0 hr 14 min 17 sec) 
Cycle: 40000000 FTQ IN: 13891255 FTQ occupancy: 14.7404 DECODE IN: 13891230 DECODE occupancy: 37.2977 ROB IN: 13891230 ROB occupancy: 248.085 ROB OUT: 13891226
Heartbeat_Variant_0 : 1387 0.338623 per_variant_size: 0 1387 0 0 0 0 0 0 0 
Heartbeat_Variant_1 : 1284 0.313477 per_variant_size: 0 577 707 0 0 0 0 0 0 
Heartbeat_Variant_2 : 1356 0.331055 per_variant_size: 0 492 396 266 202 0 0 0 0 
Heartbeat_Variant_3 : 0 0 per_variant_size: 0 0 0 0 0 0 0 0 0 
Heartbeat_Variant_0_evicts 0 : 5685 1 : 29 2 : 39 3 : 0 
Heartbeat_Variant_1_evicts 0 : 30 1 : 0 2 : 217 3 : 0 
Heartbeat_Variant_2_evicts 0 : 44 1 : 218 2 : 0 3 : 0 
Heartbeat_Variant_3_evicts 0 : 0 1 : 0 2 : 0 3 : 0 
Heartbeat CPU 0 instructions: 90000000 cycles: 42751563 heartbeat IPC: 1.40277 cumulative IPC: 1.39053 (Simulation time: 0 hr 16 min 15 sec) 
Cycle: 50000000 FTQ IN: 13839084 FTQ occupancy: 14.8529 DECODE IN: 13839084 DECODE occupancy: 37.6412 ROB IN: 13839084 ROB occupancy: 248.896 ROB OUT: 13839389
Heartbeat_Variant_0 : 1395 0.340576 per_variant_size: 0 1395 0 0 0 0 0 0 0 
Heartbeat_Variant_1 : 1288 0.314453 per_variant_size: 0 572 716 0 0 0 0 0 0 
Heartbeat_Variant_2 : 1356 0.331055 per_variant_size: 0 485 402 262 207 0 0 0 0 
Heartbeat_Variant_3 : 0 0 per_variant_size: 0 0 0 0 0 0 0 0 0 
Heartbeat_Variant_0_evicts 0 : 5629 1 : 109 2 : 104 3 : 0 
Heartbeat_Variant_1_evicts 0 : 105 1 : 0 2 : 290 3 : 0 
Heartbeat_Variant_2_evicts 0 : 101 1 : 285 2 : 0 3 : 0 
Heartbeat_Variant_3_evicts 0 : 0 1 : 0 2 : 0 3 : 0 
Heartbeat CPU 0 instructions: 100000001 cycles: 50009870 heartbeat IPC: 1.37773 cumulative IPC: 1.38795 (Simulation time: 0 hr 18 min 25 sec) 
Finished CPU 0 instructions: 50000002 cycles: 36024363 cumulative IPC: 1.38795 (Simulation time: 0 hr 18 min 25 sec) 

ChampSim completed all CPUs

Region of Interest Statistics

CPU 0 cumulative IPC: 1.38795 instructions: 50000002 cycles: 36024363
 Fetch stage stalled: 46.1811  Sim cycles: 36024363 fetch stall cycle: 16636457
 Empty decode stage: 26.6813  Sim cycles: 36024363 fetch stall cycle: 9611773
ITLB TOTAL     ACCESS:    5825120  HIT:    5333673  MISS:     491447  HIT %:    91.5633  MISS %:    8.43668   MPKI: 9.82894
ITLB LOAD TRANSLATION INSTRUCTION	ACCESS:    5692450  HIT:    5201003  MISS:     491447  HIT %:    91.3667  MISS %:    8.63331  MPKI: 9.82894
ITLB TRANSLATION FROM L1D PREFETCHER INSTRUCTION	ACCESS:     132670  HIT:     132670  MISS:          0  HIT %:        100  MISS %:          0  MPKI: 0

ITLB AVERAGE MISS LATENCY: 9.06224 cycles
ITLB RQ	ACCESS:    7914857	FORWARD:          0	MERGED:    1609304	TO_CACHE:    6305553

DTLB TOTAL     ACCESS:    8947696  HIT:    8476646  MISS:     471050  HIT %:    94.7355  MISS %:    5.26448   MPKI: 9.421
DTLB LOAD TRANSLATION DATA	ACCESS:    8947696  HIT:    8476646  MISS:     471050  HIT %:    94.7355  MISS %:    5.26448  MPKI: 9.421

DTLB AVERAGE MISS LATENCY: 9.33746 cycles
DTLB RQ	ACCESS:   13315954	FORWARD:          0	MERGED:    4331327	TO_CACHE:    8984627

STLB TOTAL     ACCESS:    1213371  HIT:    1211202  MISS:       2169  HIT %:    99.8212  MISS %:   0.178758   MPKI: 0.04338
STLB LOAD TRANSLATION INSTRUCTION	ACCESS:     491447  HIT:     491149  MISS:        298  HIT %:    99.9394  MISS %:  0.0606373  MPKI: 0.00596
STLB LOAD TRANSLATION DATA	ACCESS:     471049  HIT:     469204  MISS:       1845  HIT %:    99.6083  MISS %:   0.391679  MPKI: 0.0369
STLB TRANSLATION FROM L1D PREFETCHER DATA	ACCESS:     250875  HIT:     250849  MISS:         26  HIT %:    99.9896  MISS %:  0.0103637  MPKI: 0.00052

STLB AVERAGE MISS LATENCY: 73.2688 cycles
STLB RQ	ACCESS:    1334820	FORWARD:          0	MERGED:     121418	TO_CACHE:    1213402

STLB Hit, L1D data hit: 0
STLB Hit, L2C data hit: 0
STLB Hit, LLC data hit: 0
STLB Hit, LLC data miss: 0
STLB STLB hints to L2: 0
L1D TOTAL     ACCESS:   13063308  HIT:   11950272  MISS:    1113036  HIT %:    91.4797  MISS %:    8.52032   MPKI: 22.2607
L1D LOAD DATA	ACCESS:    6536841  HIT:    5804314  MISS:     732527  HIT %:    88.7939  MISS %:    11.2061  MPKI: 14.6505
L1D RFO DATA	ACCESS:    6196455  HIT:    5910420  MISS:     286035  HIT %:    95.3839  MISS %:    4.61611  MPKI: 5.7207
L1D PREFETCH DATA	ACCESS:     330012  HIT:     235538  MISS:      94474  HIT %:    71.3726  MISS %:    28.6274  MPKI: 1.88948

L1D PREFETCH  REQUESTED:     745030  ISSUED:     745030  USEFUL:      34857  USELESS:      68375
L1D USEFUL LOAD PREFETCHES:      34857 PREFETCH ISSUED TO LOWER LEVEL:     103286  ACCURACY: 33.748
 TIMELY PREFETCHES:      34857 LATE PREFETCHES: 8791 DROPPED PREFETCHES: 7
L1D AVERAGE MISS LATENCY: 254921 cycles
L1D RQ	ACCESS:   10690564	FORWARD:          0	MERGED:    3953439	TO_CACHE:    6572203
L1D WQ	ACCESS:    6941569	FORWARD:     165306	MERGED:     197818	TO_CACHE:    6743751
L1D PQ	ACCESS:     372707	FORWARD:          0	MERGED:          0	TO_CACHE:     372323

L1D UNIQUE REGIONS ACCESSED: 0
L1D REGIONS CONFLICTS: 0
L1D Cross Page Prefetch Requests: 6903
L1D Same Page Prefetch Requests: 748891
L1D ROI Sum of L1D PQ occupancy: 4742649
L1D PREFETCHES PUSHED FROM L2C: 0
L1I TOTAL     ACCESS:    7097139  HIT:    4346650  MISS:    2750489  HIT %:    61.2451  MISS %:    38.7549   MPKI: 55.0098
L1I LOAD INSTRUCTION	ACCESS:    6436803  HIT:    3686314  MISS:    2750489  HIT %:    57.2693  MISS %:    42.7307  MPKI: 55.0098
L1I PREFETCH INSTRUCTION	ACCESS:     660336  HIT:     660336  MISS:          0  HIT %:        100  MISS %:          0  MPKI: 0

L1I PREFETCH  REQUESTED:    1605499  ISSUED:    1605499  USEFUL:          0  USELESS:          0
L1I USEFUL LOAD PREFETCHES:          0 PREFETCH ISSUED TO LOWER LEVEL:          0  ACCURACY: -nan
 TIMELY PREFETCHES:          0 LATE PREFETCHES: 0 DROPPED PREFETCHES: 0
L1I AVERAGE MISS LATENCY: 17.3442 cycles
L1I RQ	ACCESS:    9557709	FORWARD:          0	MERGED:    2818928	TO_CACHE:    6738781
L1I PQ	ACCESS:    1605499	FORWARD:          0	MERGED:     429423	TO_CACHE:    1176076

L1BTB TOTAL     ACCESS:    5670114  HIT:    2053593  MISS:    3616521  HIT %:    36.2178  MISS %:    63.7822   MPKI: 72.3304
L1BTB BRANCH_DIRECT_JUMP	ACCESS:     548067  HIT:     145507  MISS:     402560	AVERAGE STALL: 57.7298
L1BTB BRANCH_INDIRECT	ACCESS:     183282  HIT:      66452  MISS:     116830	AVERAGE STALL: 112.606
L1BTB BRANCH_CONDITIONAL	ACCESS:    2712443  HIT:    1423547  MISS:    1288896	AVERAGE STALL: 69.507
L1BTB BRANCH_DIRECT_CALL	ACCESS:     941935  HIT:     105870  MISS:     836065	AVERAGE STALL: 79.7998
L1BTB BRANCH_INDIRECT_CALL	ACCESS:     171231  HIT:      21368  MISS:     149863	AVERAGE STALL: 138.044
L1BTB BRANCH_RETURN	ACCESS:    1113156  HIT:     290849  MISS:     822307	AVERAGE STALL: 53.7442
L1BTB BRANCH_OTHER ACCESS:          0  HIT:          0  MISS:          0	AVERAGE STALL: -nan
L1BTB TOTAL ROB OCCUPANCY AT BTB MISS: 2.89005

L2BTB TOTAL     ACCESS:    3591125  HIT:    3523745  MISS:      67380  HIT %:    98.1237  MISS %:    1.87629   MPKI: 1.3476
L2BTB BRANCH_DIRECT_JUMP	ACCESS:     398352  HIT:     393545  MISS:       4807	AVERAGE STALL: 57.7298
L2BTB BRANCH_INDIRECT	ACCESS:     106614  HIT:     103878  MISS:       2736	AVERAGE STALL: 112.606
L2BTB BRANCH_CONDITIONAL	ACCESS:    1288896  HIT:    1284849  MISS:       4047	AVERAGE STALL: 69.507
L2BTB BRANCH_DIRECT_CALL	ACCESS:     836065  HIT:     834152  MISS:       1913	AVERAGE STALL: 79.7998
L2BTB BRANCH_INDIRECT_CALL	ACCESS:     140287  HIT:     129745  MISS:      10542	AVERAGE STALL: 138.044
L2BTB BRANCH_RETURN	ACCESS:     820911  HIT:     777576  MISS:      43335	AVERAGE STALL: 53.7442
L2BTB BRANCH_OTHER ACCESS:          0  HIT:          0  MISS:          0	AVERAGE STALL: -nan
L2BTB TOTAL ROB OCCUPANCY AT BTB MISS: 155.119

L2C TOTAL     ACCESS:    4475718  HIT:    3972966  MISS:     502752  HIT %:    88.7671  MISS %:    11.2329   MPKI: 10.055
L2C LOAD INSTRUCTION	ACCESS:    2750488  HIT:    2486087  MISS:     264401  HIT %:    90.3871  MISS %:    9.61288  MPKI: 5.28802
L2C LOAD TRANSLATION INSTRUCTION	ACCESS:        342  HIT:         81  MISS:        261  HIT %:    23.6842  MISS %:    76.3158  MPKI: 0.00522
L2C LOAD DATA	ACCESS:     723715  HIT:     639962  MISS:      83753  HIT %:    88.4274  MISS %:    11.5726  MPKI: 1.67506
L2C RFO DATA	ACCESS:     285988  HIT:     229124  MISS:      56864  HIT %:    80.1166  MISS %:    19.8834  MPKI: 1.13728
L2C PREFETCH DATA	ACCESS:     193214  HIT:     112108  MISS:      81106  HIT %:    58.0227  MISS %:    41.9773  MPKI: 1.62212
L2C WRITEBACK DATA	ACCESS:     519987  HIT:     504999  MISS:      14988  HIT %:    97.1176  MISS %:    2.88238  MPKI: 0.29976
L2C LOAD TRANSLATION DATA	ACCESS:       1937  HIT:        572  MISS:       1365  HIT %:    29.5302  MISS %:    70.4698  MPKI: 0.0273
L2C TRANSLATION FROM L1D PREFETCHER DATA	ACCESS:         47  HIT:         33  MISS:         14  HIT %:    70.2128  MISS %:    29.7872  MPKI: 0.00028

L2C PREFETCH  REQUESTED:      97520  ISSUED:      97520  USEFUL:       7677  USELESS:      73866
L2C USEFUL LOAD PREFETCHES:       7677 PREFETCH ISSUED TO LOWER LEVEL:      81399  ACCURACY: 9.43132
 TIMELY PREFETCHES:       7677 LATE PREFETCHES: 293 DROPPED PREFETCHES: 0
L2C AVERAGE MISS LATENCY: 38.9523 cycles
L2C RQ	ACCESS:    3762565	FORWARD:          0	MERGED:          0	TO_CACHE:    3762518
L2C WQ	ACCESS:     519987	FORWARD:         47	MERGED:          0	TO_CACHE:     519987
L2C PQ	ACCESS:     200806	FORWARD:          0	MERGED:       3592	TO_CACHE:     197214

L2C Dense regions hint from L2: 0
PSCL5 TOTAL     ACCESS:       4358  HIT:       2179  MISS:       2179  HIT %:         50  MISS %:         50   MPKI: 0.04358
PSCL5 LOAD TRANSLATION INSTRUCTION	ACCESS:       4264  HIT:       2132  MISS:       2132  HIT %:         50  MISS %:         50  MPKI: 0.04264
PSCL5 TRANSLATION FROM L1D PREFETCHER INSTRUCTION	ACCESS:         94  HIT:         47  MISS:         47  HIT %:         50  MISS %:         50  MPKI: 0.00094


PSCL4 TOTAL     ACCESS:       4128  HIT:       2058  MISS:       2070  HIT %:    49.8547  MISS %:    50.1453   MPKI: 0.0414
PSCL4 LOAD TRANSLATION INSTRUCTION	ACCESS:       2267  HIT:       2013  MISS:        254  HIT %:    88.7958  MISS %:    11.2042  MPKI: 0.00508
PSCL4 TRANSLATION FROM L1D PREFETCHER INSTRUCTION	ACCESS:         52  HIT:         45  MISS:          7  HIT %:    86.5385  MISS %:    13.4615  MPKI: 0.00014
PSCL4 LOAD TRANSLATION DATA	ACCESS:       1771  HIT:          0  MISS:       1771  HIT %:          0  MISS %:        100  MPKI: 0.03542
PSCL4 TRANSLATION FROM L1D PREFETCHER DATA	ACCESS:         38  HIT:          0  MISS:         38  HIT %:          0  MISS %:        100  MPKI: 0.00076


PSCL3 TOTAL     ACCESS:       4198  HIT:       2093  MISS:       2105  HIT %:    49.8571  MISS %:    50.1429   MPKI: 0.0421
PSCL3 LOAD TRANSLATION INSTRUCTION	ACCESS:       2302  HIT:       2048  MISS:        254  HIT %:    88.9661  MISS %:    11.0339  MPKI: 0.00508
PSCL3 TRANSLATION FROM L1D PREFETCHER INSTRUCTION	ACCESS:         52  HIT:         45  MISS:          7  HIT %:    86.5385  MISS %:    13.4615  MPKI: 0.00014
PSCL3 LOAD TRANSLATION DATA	ACCESS:       1806  HIT:          0  MISS:       1806  HIT %:          0  MISS %:        100  MPKI: 0.03612
PSCL3 TRANSLATION FROM L1D PREFETCHER DATA	ACCESS:         38  HIT:          0  MISS:         38  HIT %:          0  MISS %:        100  MPKI: 0.00076


PSCL2 TOTAL     ACCESS:       4231  HIT:       2052  MISS:       2179  HIT %:    48.4992  MISS %:    51.5008   MPKI: 0.04358
PSCL2 LOAD TRANSLATION INSTRUCTION	ACCESS:       2304  HIT:       2005  MISS:        299  HIT %:    87.0226  MISS %:    12.9774  MPKI: 0.00598
PSCL2 TRANSLATION FROM L1D PREFETCHER INSTRUCTION	ACCESS:         47  HIT:         47  MISS:          0  HIT %:        100  MISS %:          0  MPKI: 0
PSCL2 LOAD TRANSLATION DATA	ACCESS:       1833  HIT:          0  MISS:       1833  HIT %:          0  MISS %:        100  MPKI: 0.03666
PSCL2 TRANSLATION FROM L1D PREFETCHER DATA	ACCESS:         47  HIT:          0  MISS:         47  HIT %:          0  MISS %:        100  MPKI: 0.00094


LLC TOTAL     ACCESS:     567268  HIT:     536645  MISS:      30623  HIT %:    94.6017  MISS %:    5.39833   MPKI: 0.61246
LLC LOAD INSTRUCTION	ACCESS:     264401  HIT:     263138  MISS:       1263  HIT %:    99.5223  MISS %:   0.477684  MPKI: 0.02526
LLC LOAD TRANSLATION INSTRUCTION	ACCESS:        261  HIT:        232  MISS:         29  HIT %:    88.8889  MISS %:    11.1111  MPKI: 0.00058
LLC LOAD DATA	ACCESS:      83475  HIT:      79898  MISS:       3577  HIT %:    95.7149  MISS %:    4.28512  MPKI: 0.07154
LLC RFO DATA	ACCESS:      56834  HIT:      41426  MISS:      15408  HIT %:    72.8895  MISS %:    27.1105  MPKI: 0.30816
LLC PREFETCH DATA	ACCESS:      81398  HIT:      71477  MISS:       9921  HIT %:    87.8117  MISS %:    12.1883  MPKI: 0.19842
LLC WRITEBACK DATA	ACCESS:      79520  HIT:      79183  MISS:        337  HIT %:    99.5762  MISS %:   0.423793  MPKI: 0.00674
LLC LOAD TRANSLATION DATA	ACCESS:       1365  HIT:       1278  MISS:         87  HIT %:    93.6264  MISS %:    6.37363  MPKI: 0.00174
LLC TRANSLATION FROM L1D PREFETCHER DATA	ACCESS:         14  HIT:         13  MISS:          1  HIT %:    92.8571  MISS %:    7.14286  MPKI: 2e-05

LLC AVERAGE MISS LATENCY: 160.196 cycles
LLC RQ	ACCESS:     406365	FORWARD:          0	MERGED:          0	TO_CACHE:     406350
LLC WQ	ACCESS:      79520	FORWARD:         16	MERGED:          0	TO_CACHE:      79520
LLC PQ	ACCESS:      81399	FORWARD:          0	MERGED:          0	TO_CACHE:      81398

LLC Dense regions hint to LLC: 0

RAW hits: 1946642
Loads Generated: 12637205
Loads sent to L1D: 10690564
Stores Generated: 6941569
Stores sent to L1D: 6941569
Major fault: 0 Minor fault: 2562
Allocated PAGES: 2562

stream: 
stream:times selected: 1187675
stream:pref_filled: 122653
stream:pref_useful: 24233
stream:pref_late: 7048
stream:misses: 8177
stream:misses_by_poll: 0

CS: 
CS:times selected: 178194
CS:pref_filled: 58585
CS:pref_useful: 35474
CS:pref_late: 7806
CS:misses: 17334
CS:misses_by_poll: 1

CPLX: 
CPLX:times selected: 1008244
CPLX:pref_filled: 19488
CPLX:pref_useful: 4533
CPLX:pref_late: 3085
CPLX:misses: 93693
CPLX:misses_by_poll: 1

NL_L1: 
NL:times selected: 21658
NL:pref_filled: 822
NL:pref_useful: 361
NL:pref_late: 266
NL:misses: 1863
NL:misses_by_poll: 0

total selections: 2395771
total_filled: 94474
total_useful: 34857
total_late: 19472
total_polluted: 2
total_misses_after_warmup: 767891
conflicts: 5513548

test: 118080

DRAM Statistics
 CHANNEL 0
 RQ ROW_BUFFER_HIT:      11260  ROW_BUFFER_MISS:      19021
 DBUS_CONGESTED:         14
 WQ ROW_BUFFER_HIT:       1599  ROW_BUFFER_MISS:      12940  FULL:          0

 AVG_CONGESTED_CYCLE: 5

CPU 0 Branch Prediction Accuracy: 99.8145% MPKI: 0.339 Average ROB Occupancy at Mispredict: 190.456
Branch types
NOT_BRANCH: 40860748 81.7215%
BRANCH_DIRECT_JUMP: 548067 1.09613%
BRANCH_INDIRECT: 183282 0.366564%
BRANCH_CONDITIONAL: 6181407 12.3628%
BRANCH_DIRECT_CALL: 941935 1.88387%
BRANCH_INDIRECT_CALL: 171231 0.342462%
BRANCH_RETURN: 1113156 2.22631%
BRANCH_OTHER: 0 0%

DRAM PAGES: 1048576
Allocated PAGES: 2562
Average_ROB_Occupancy: 248.935
Average_Decode_Occupancy: 37.2536
Average_FTQ_Occupancy: 14.6973
Indirect max targets: 14 Average targets: 1.15512
Branch_type:  BRANCH_DIRECT_JUMP:  Count Percentage: 2.90142 7.56369 3.70446 8.67973 2.40217 5.96738 0.993392 67.7878 
Branch_type:  BRANCH_INDIRECT:  Count Percentage: 11.7418 3.4892 2.53946 0 1.33657 9.68025 19.2208 51.9919 
Branch_type:  BRANCH_CONDITIONAL:  Count Percentage: 21.0721 3.16387 1.72307 8.67058 1.57307 4.79694 1.82362 57.1768 
Branch_type:  BRANCH_DIRECT_CALL:  Count Percentage: 0.759335 1.29599 1.4387 4.21002 3.32107 2.35744 0.731302 85.8861 
Branch_type:  BRANCH_INDIRECT_CALL:  Count Percentage: 9.55031 0.569946 2.99346 4.84731 1.03465 1.71042 1.28274 78.0112 
Branch_type:  BRANCH_RETURN:  Count Percentage: 3.98547 0.696496 1.27129 9.26401 3.10398 6.1894 2.96919 72.5202 
Branch_type:  BRANCH_DIRECT_JUMP:  Total Count: 31795 82886 40595 95116 26324 65393 10886 742846 
Branch_type:  BRANCH_INDIRECT:  Total Count: 42950 12763 9289 0 4889 35409 70307 190179 
Branch_type:  BRANCH_CONDITIONAL:  Total Count: 2603936 390968 212925 1071448 194389 592772 225350 7065500 
Branch_type:  BRANCH_DIRECT_CALL:  Total Count: 14329 24456 27149 79445 62670 44486 13800 1620710 
Branch_type:  BRANCH_INDIRECT_CALL:  Total Count: 32759 1955 10268 16627 3549 5867 4400 267590 
Branch_type:  BRANCH_RETURN:  Total Count: 88911 15538 28361 206669 69246 138078 66239 1617838 
Number of unique branch instructions: 10227
Upper 32 bits: 
aaaa
ffff
ffff0000
Unique upper 32 bits: 3
Unique upper 36 bits: 3
Unique upper 40 bits: 5
Unique upper 44 bits: 32
Unique upper 48 bits: 157
Variant_0 : 1395 0.340576
Variant_1 : 1288 0.314453
Variant_2 : 1356 0.331055
Variant_3 : 0 0
Offset_3 4203
Offset_4 265
Offset_5 469
Offset_6 514
Offset_7 602
Offset_8 528
Offset_9 488
Offset_10 399
Offset_11 324
Offset_12 296
Offset_13 212
Offset_14 231
Offset_15 193
Offset_16 227
Offset_17 154
Offset_18 126
Offset_19 245
Offset_20 144
Offset_21 261
Offset_22 394
Offset_23 241
Offset_24 354
Offset_25 88
Offset_47 86
Offset_64 1
decode_dispatch_called: 26179759 72.6724
Dispatch_width: 0 14099878 53.8579 39.1398
Dispatch_width: 1 1011293 3.86288 2.80725
Dispatch_width: 2 847331 3.23659 2.35211
Dispatch_width: 3 495527 1.89279 1.37553
Dispatch_width: 4 6216303 23.7447 17.2558
Dispatch_width: 5 114506 0.437384 0.317857
Dispatch_width: 6 3394921 12.9677 9.42396
Empty_decode_cycles: 9844604 27.3276
ROB_full_cycles: 9971064 27.6787
Starvation_cycles_per_kilo_instr: 226.584
Starvation_cycles_per_kilo_instr_3: 163.276
Starvation_cycles_per_kilo_instr_0: 139.734
Branch_type_1  (3,1)  (4,10)  (5,39)  (6,70)  (7,118)  (8,130)  (9,129)  (10,101)  (11,72)  (12,51)  (13,8)  (14,2)  (15,3)  (16,4)  (18,1)  (19,4)  (20,2)  (21,1)  (22,3)  (23,2)  (24,10)  (25,12) 
Branch_type_2  (3,1)  (5,1)  (8,3)  (9,3)  (12,1)  (13,1)  (14,1)  (16,3)  (17,2)  (20,2)  (21,2)  (23,5)  (24,1)  (47,40) 
Branch_type_3  (3,4201)  (4,255)  (5,425)  (6,428)  (7,451)  (8,333)  (9,269)  (10,162)  (11,133)  (12,58)  (13,7) 
Branch_type_4  (6,4)  (7,8)  (8,26)  (9,55)  (10,63)  (11,62)  (12,102)  (13,90)  (14,103)  (15,92)  (16,102)  (17,70)  (18,57)  (19,118)  (20,74)  (21,141)  (22,209)  (23,136)  (24,204)  (25,72) 
Branch_type_5  (8,2)  (9,1)  (10,4)  (11,5)  (12,3)  (13,14)  (14,16)  (15,11)  (16,20)  (17,11)  (18,16)  (19,13)  (20,11)  (21,13)  (22,42)  (23,26)  (24,41) 
Branch_type_6  (5,4)  (6,12)  (7,25)  (8,34)  (9,31)  (10,69)  (11,52)  (12,81)  (13,92)  (14,109)  (15,87)  (16,98)  (17,71)  (18,52)  (19,110)  (20,55)  (21,104)  (22,140)  (23,72)  (24,98)  (25,4)  (47,46)  (64,1) 
Unique trigger count: 
Variant_0_evicts_0 : 0
Variant_0_evicts_1 : 0
Variant_0_evicts_2 : 0
Variant_0_evicts_3 : 0
Variant_1_evicts_0 : 0
Variant_1_evicts_1 : 0
Variant_1_evicts_2 : 0
Variant_1_evicts_3 : 0
Variant_2_evicts_0 : 0
Variant_2_evicts_1 : 0
Variant_2_evicts_2 : 0
Variant_2_evicts_3 : 0
Variant_3_evicts_0 : 0
Variant_3_evicts_1 : 0
Variant_3_evicts_2 : 0
Variant_3_evicts_3 : 0
BTB PER SET UNIQUE ADDR: 13 12 7 11 10 12 8 13 8 7 13 11 19 8 10 9 7 13 13 10 10 12 13 10 10 8 16 16 13 12 10 12 18 8 7 10 17 15 6 14 8 8 9 9 9 13 12 8 12 12 12 12 11 12 10 4 9 10 11 7 12 10 14 13 16 11 13 8 13 11 12 15 17 11 12 4 6 14 14 10 16 9 10 13 11 18 15 9 7 22 7 8 13 9 7 14 9 9 13 16 12 17 12 11 11 8 13 11 8 10 7 15 10 9 8 7 12 16 11 13 15 8 7 11 10 10 6 9 12 13 10 13 11 13 8 20 10 11 12 20 13 10 11 15 12 11 16 13 9 12 15 10 11 12 9 12 18 16 11 8 14 11 10 9 13 13 16 8 9 10 13 13 10 10 10 10 13 8 12 7 8 13 11 11 18 14 7 16 14 12 13 13 12 16 11 11 8 14 12 11 12 15 9 5 11 13 9 12 8 11 11 12 12 17 9 15 14 12 12 14 9 12 13 9 10 14 16 12 10 15 6 7 12 11 8 15 15 11 12 9 12 9 16 12 10 11 13 9 10 10 16 12 11 13 10 16 9 11 9 9 10 11 5 13 15 5 10 10 8 10 10 10 9 6 6 11 9 17 13 11 10 12 9 9 12 7 13 15 18 15 11 9 17 17 7 13 15 13 14 12 10 5 7 16 12 14 9 9 15 8 12 17 14 14 12 9 11 9 10 16 6 14 9 13 12 10 11 8 10 10 13 10 12 10 10 14 14 12 8 22 9 10 8 14 14 11 12 12 10 10 14 11 9 13 17 13 9 16 10 12 13 11 12 14 8 12 7 13 14 16 12 11 12 11 12 9 15 16 16 16 13 11 7 11 9 11 12 11 10 15 13 7 11 18 8 5 12 10 11 8 10 18 17 11 20 14 13 10 12 11 12 8 8 17 15 11 11 10 20 13 9 12 12 13 12 11 10 9 12 11 13 13 13 10 8 15 13 8 9 8 13 14 6 14 21 6 8 9 15 15 13 9 17 10 16 17 15 13 9 17 9 13 14 10 13 11 6 10 6 17 10 14 10 9 12 15 13 12 10 14 18 18 13 11 10 12 12 12 16 15 8 14 11 8 6 17 10 16 10 13 11 14 11 20 13 7 7 16 17 10 12 15 8 9 15 13 15 14 9 10 13 11 12 10 11 13 21 7 10 15 8 9 9 11 10 19 10 10 19 13 14 8 15 14 17 12 14 9 8 13 12 12 13 13 10 12 11 13 11 15 13 14 14 10 13 11 10 11 12 15 14 14 15 14 11 12 14 12 11 14 17 11 10 12 15 16 14 9 15 11 9 14 8 8 16 9 7 13 9 13 9 8 11 8 10 12 16 8 11 11 19 10 12 12 7 12 10 14 13 16 16 14 9 7 9 14 10 22 11 10 9 11 14 12 10 11 18 15 10 13 13 16 11 10 10 14 12 12 13 11 9 14 11 11 17 12 10 11 8 6 9 7 16 17 13 14 9 11 8 11 11 11 9 13 21 10 12 19 10 17 14 12 9 13 15 16 11 11 17 13 15 13 14 11 13 10 11 13 10 16 7 14 18 14 8 15 11 7 9 8 9 16 8 8 8 8 17 12 11 8 14 11 12 11 10 11 12 7 11 16 17 10 13 7 12 12 17 15 17 14 9 12 13 11 11 18 12 15 14 9 12 12 11 11 10 10 15 9 7 8 9 9 8 8 8 12 12 13 10 10 14 17 11 7 8 5 19 9 13 15 6 13 9 11 10 14 10 13 6 6 5 9 12 10 15 11 8 13 13 9 15 13 20 10 15 10 8 12 9 13 12 14 13 17 10 19 22 12 7 15 14 19 10 10 13 16 10 9 9 11 8 13 12 11 10 12 13 11 11 12 14 15 9 14 14 19 8 15 10 11 7 10 11 12 12 15 11 11 13 10 15 11 13 13 18 6 11 8 17 7 7 11 12 15 18 6 14 9 10 16 10 9 9 13 14 14 16 10 17 12 10 10 11 14 7 9 13 9 13 8 13 8 10 16 7 12 11 7 10 13 13 11 12 12 13 13 15 12 11 13 11 16 12 8 9 12 9 11 12 7 10 15 18 13 9 17 10 12 16 10 9 11 13 15 13 14 13 14 11 13 14 13 10 14 11 17 10 10 15 13 17 10 9 16 10 9 15 9 9 14 15 12 12 9 15 11 11 10 17 10 10 15 12 12 12 19 10 13 15 15 20 13 10 14 11 7 7 7 14 9 17 12 9 11 14 13 8 10 7 14 13 14 13 9 12 10 7 10 8 8 13 15 9 11 
BTB PER SET COUNT: 735 18 1964 12 10 18 15 924 1474 7 15 13 16711 10 13 13 985 2309 496 14 13 16 763 10 13 10 19 23 381 15 13 21 33 10 10 12 32 38 6 28 11 8 10 19 11 188 15 9 362 494 12 101 21 15 13 4 11 11 15 10 23 16 344 28 25 16 16 8 23 18 15 328 24 17 15 4 7 20 19 15 330 10 11 21 12 22 26 12 8 30 11 824 346 14 7 19 501 9 17 4047 18 688 12 12 2463 9 22 12 9 1883 7 25 503 11 13 231 12 19 1480 618 387 8 7 17 11 64 7 18 18 666 13 13 21 22 9 32 988 16 19 37 22 12 11 23 23 208 1240 17 10 23 24 173 1595 19 9 17 1235 34 14 9 25 13 737 9 22 1338 26 10 9 386 20 20 19 11 16 18 21 13 17 985 416 250 2540 23 28 41 11 28 19 1000 13 14 19 28 17 116 8 713 21 11 19 23 659 5 15 18 9 17 9 13 13 14 16 4912 10 3061 16 17 2938 25 11 21 22 17 15 32 29 13 13 17 10 8 14 18 8 3913 20 17 15 11 755 11 19 17 12 57 20 13 10 13 20 22 13 14 10 21 9 179 12 18 119 14 5 21 18 6 17 15 11 10 15 397 9 11 770 12 12 22 19 11 16 24 239 10 16 10 21 380 22 17 12 14 26 520 9 16 993 16 19 31 10 9 7 22 14 150 55 10 144 8 12 25 29 18 1476 13 14 10 12 27 10 5883 13 20 14 13 237 9 14 16 19 14 19 14 12 17 19 439 8 29 9 475 12 23 512 14 14 20 13 11 23 14 15 23 17 15 11 26 500 16 14 15 18 18 10 115 8 16 22 22 19 267 14 14 16 9 20 23 29 512 417 14 988 16 14 13 27 18 14 20 31 7 16 37 10 6 18 14 13 12 17 27 290 17 42 19 17 499 17 11 14 9 8 27 23 11 18 55 27 17 12 30 23 16 14 15 840 14 12 14 45 16 17 21 8 30 17 27 15 11 15 19 40 18 2478 6 8 11 22 24 1255 2936 18 15 111 106 21 18 13 23 32 19 19 12 24 16 6 13 7 24 17 18 10 10 17 42 16 19 10 24 23 316 13 13 14 501 18 14 27 93 352 27 1095 9 7 23 987 401 13 25 17 15 12 222 21 8 8 24 20 15 54 21 221 835 21 13 31 19 10 450 19 12 13 266 12 20 38 1304 21 26 15 9 18 20 18 25 671 995 20 179 23 9 23 17 26 23 22 14 12 593 12 14 666 246 12 17 14 16 13 27 15 29 21 11 381 18 145 15 24 24 23 19 21 18 2455 12 20 16 12 26 24 17 15 1456 15 24 371 11 20 14 18 26 10 10 23 14 7 385 12 18 16 8 13 8 17 17 20 1156 12 15 26 1477 30 24 9 13 495 18 14 571 22 19 14 986 17 20 14 40 13 18 13 15 16 23 16 14 26 267 12 17 16 22 11 10 825 23 989 14 544 11 11 21 13 11 22 504 12 17 77 6 11 7 25 24 59 30 14 990 2371 17 15 19 697 28 32 14 17 25 12 28 20 12 12 20 26 25 19 12 21 15 22 20 34 22 69 11 11 208 20 18 8 19 24 23 12 24 22 7 11 9 14 506 385 8 9 14 21 26 18 9 28 24 23 1794 12 17 14 7 972 34 21 15 78 114 17 677 41 21 28 19 719 13 237 101 18 25 190 19 20 17 1480 21 14 1966 1404 10 19 11 7 11 15 16 9 9 9 25 17 21 12 10 57 23 14 9 16 6 28 13 19 15 1476 16 383 13 12 22 16 18 7 7 5 798 15 14 111 13 13 19 15 986 18 18 32 68 27 10 10 14 14 16 12 18 21 20 16 24 113 1584 9 2979 19 413 12 10 68 20 15 12 12 12 9 20 12 14 11 1869 15 14 27 219 23 21 13 18 21 31 14 19 16 9793 8 237 347 20 908 19 15 12 20 13 486 14 13 21 153 10 15 8 24 11 7 19 15 19 22 6 17 9 13 27 15 9 10 19 621 1003 19 15 23 429 10 12 17 2746 11 13 19 13 672 8 21 9 11 25 9 21 15 8 15 14 441 502 22 17 21 18 2701 810 16 18 14 327 12 8 14 15 13 21 21 7 11 19 542 22 11 27 12 13 20 13 10 1360 14 19 16 23 18 32 18 19 23 51 1112 2212 13 19 10 12 25 28 592 15 825 19 13 15 1483 14 10 24 68 2334 17 9 88 20 11 12 28 16 118 343 16 652 12 466 13 104 19 28 29 18 16 197 18 13 7 1475 20 9 49 1481 14 16 15 17 14 14 7 995 22 291 15 21 15 12 9 255 8 8 17 294 9 17 
To predecode: 0
Predecoding something: 0
Predecode request dropped: 0
sizeofblock_0 0
sizeofblock_1 43253
sizeofblock_2 33783
sizeofblock_3 43723
sizeofblock_4 19934
sizeofblock_5 0
sizeofblock_6 0
sizeofblock_7 0
sizeofblock_8 0
Variant_0 Correct: 1612264 Incorrect: 0 Accuracy: 1
Variant_1 Correct: 2090361 Incorrect: 0 Accuracy: 1
Variant_2 Correct: 3641956 Incorrect: 0 Accuracy: 1
Variant_3 Correct: 0 Incorrect: 0 Accuracy: -nan
