
*** ChampSim Multicore Out-of-Order Simulator ***

Warmup Instructions: 50000000
Simulation Instructions: 50000000
Number of CPUs: 1
LLC sets: 2048
LLC ways: 16
Off-chip DRAM Size: 4096 MB Channels: 1 Width: 64-bit Data Rate: 6400 MT/s
CPU 0 runs ./micro_traces/srv212.trace.gz
.gz
ITLB has LRU replacement policy
DTLB has LRU replacement policy
STLB has LRU replacement policy
FDIP Prefetcher at L1I
L1I has LRU replacement policy
L1D has LRU replacement policy
Initialize SRRIP state for L2C
Initialize DRRIP state for LLC
Heartbeat_Variant_0 : 1319 0.322021 per_variant_size: 0 1319 0 0 0 0 0 0 0 
Heartbeat_Variant_1 : 1201 0.293213 per_variant_size: 0 570 631 0 0 0 0 0 0 
Heartbeat_Variant_2 : 1305 0.318604 per_variant_size: 0 537 375 216 177 0 0 0 0 
Heartbeat_Variant_3 : 0 0 per_variant_size: 0 0 0 0 0 0 0 0 0 
Heartbeat_Variant_0_evicts 0 : 5799 1 : 255 2 : 227 3 : 0 
Heartbeat_Variant_1_evicts 0 : 235 1 : 0 2 : 401 3 : 0 
Heartbeat_Variant_2_evicts 0 : 231 1 : 392 2 : 0 3 : 0 
Heartbeat_Variant_3_evicts 0 : 0 1 : 0 2 : 0 3 : 0 
Heartbeat CPU 0 instructions: 10000003 cycles: 2797434 heartbeat IPC: 3.57471 cumulative IPC: 3.57471 (Simulation time: 0 hr 1 min 58 sec) 
Heartbeat_Variant_0 : 1342 0.327637 per_variant_size: 0 1342 0 0 0 0 0 0 0 
Heartbeat_Variant_1 : 1231 0.300537 per_variant_size: 0 567 664 0 0 0 0 0 0 
Heartbeat_Variant_2 : 1331 0.324951 per_variant_size: 0 518 398 233 182 0 0 0 0 
Heartbeat_Variant_3 : 0 0 per_variant_size: 0 0 0 0 0 0 0 0 0 
Heartbeat_Variant_0_evicts 0 : 5784 1 : 72 2 : 66 3 : 0 
Heartbeat_Variant_1_evicts 0 : 70 1 : 0 2 : 268 3 : 0 
Heartbeat_Variant_2_evicts 0 : 66 1 : 266 2 : 0 3 : 0 
Heartbeat_Variant_3_evicts 0 : 0 1 : 0 2 : 0 3 : 0 
Heartbeat CPU 0 instructions: 20000000 cycles: 5593801 heartbeat IPC: 3.57607 cumulative IPC: 3.57539 (Simulation time: 0 hr 3 min 37 sec) 
Heartbeat_Variant_0 : 1364 0.333008 per_variant_size: 0 1364 0 0 0 0 0 0 0 
Heartbeat_Variant_1 : 1248 0.304688 per_variant_size: 0 561 687 0 0 0 0 0 0 
Heartbeat_Variant_2 : 1361 0.332275 per_variant_size: 0 525 406 230 200 0 0 0 0 
Heartbeat_Variant_3 : 0 0 per_variant_size: 0 0 0 0 0 0 0 0 0 
Heartbeat_Variant_0_evicts 0 : 5731 1 : 150 2 : 144 3 : 0 
Heartbeat_Variant_1_evicts 0 : 141 1 : 0 2 : 346 3 : 0 
Heartbeat_Variant_2_evicts 0 : 147 1 : 343 2 : 0 3 : 0 
Heartbeat_Variant_3_evicts 0 : 0 1 : 0 2 : 0 3 : 0 
Heartbeat CPU 0 instructions: 30000003 cycles: 8389210 heartbeat IPC: 3.5773 cumulative IPC: 3.57602 (Simulation time: 0 hr 5 min 14 sec) 
Heartbeat_Variant_0 : 1364 0.333008 per_variant_size: 0 1364 0 0 0 0 0 0 0 
Heartbeat_Variant_1 : 1260 0.307617 per_variant_size: 0 579 681 0 0 0 0 0 0 
Heartbeat_Variant_2 : 1369 0.334229 per_variant_size: 0 528 409 231 201 0 0 0 0 
Heartbeat_Variant_3 : 0 0 per_variant_size: 0 0 0 0 0 0 0 0 0 
Heartbeat_Variant_0_evicts 0 : 5630 1 : 72 2 : 58 3 : 0 
Heartbeat_Variant_1_evicts 0 : 73 1 : 0 2 : 277 3 : 0 
Heartbeat_Variant_2_evicts 0 : 62 1 : 270 2 : 0 3 : 0 
Heartbeat_Variant_3_evicts 0 : 0 1 : 0 2 : 0 3 : 0 
Heartbeat CPU 0 instructions: 40000002 cycles: 11186879 heartbeat IPC: 3.5744 cumulative IPC: 3.57562 (Simulation time: 0 hr 6 min 52 sec) 
Heartbeat_Variant_0 : 1364 0.333008 per_variant_size: 0 1364 0 0 0 0 0 0 0 
Heartbeat_Variant_1 : 1270 0.310059 per_variant_size: 0 589 681 0 0 0 0 0 0 
Heartbeat_Variant_2 : 1367 0.33374 per_variant_size: 0 520 400 242 205 0 0 0 0 
Heartbeat_Variant_3 : 0 0 per_variant_size: 0 0 0 0 0 0 0 0 0 
Heartbeat_Variant_0_evicts 0 : 5571 1 : 63 2 : 52 3 : 0 
Heartbeat_Variant_1_evicts 0 : 59 1 : 0 2 : 242 3 : 0 
Heartbeat_Variant_2_evicts 0 : 56 1 : 234 2 : 0 3 : 0 
Heartbeat_Variant_3_evicts 0 : 0 1 : 0 2 : 0 3 : 0 
Heartbeat CPU 0 instructions: 50000000 cycles: 13982273 heartbeat IPC: 3.57731 cumulative IPC: 3.57596 (Simulation time: 0 hr 8 min 28 sec) 

Warmup complete CPU 0 instructions: 50000004 cycles: 13982274 (Simulation time: 0 hr 8 min 28 sec) 

Cycle: 20000000 FTQ IN: 58164063 FTQ occupancy: 19.2634 DECODE IN: 58163951 DECODE occupancy: 50.232 ROB IN: 58163891 ROB occupancy: 307.096 ROB OUT: 58163539
Heartbeat_Variant_0 : 1376 0.335938 per_variant_size: 0 1376 0 0 0 0 0 0 0 
Heartbeat_Variant_1 : 1272 0.310547 per_variant_size: 0 596 676 0 0 0 0 0 0 
Heartbeat_Variant_2 : 1366 0.333496 per_variant_size: 0 526 390 250 200 0 0 0 0 
Heartbeat_Variant_3 : 0 0 per_variant_size: 0 0 0 0 0 0 0 0 0 
Heartbeat_Variant_0_evicts 0 : 5778 1 : 115 2 : 84 3 : 0 
Heartbeat_Variant_1_evicts 0 : 109 1 : 0 2 : 300 3 : 0 
Heartbeat_Variant_2_evicts 0 : 80 1 : 295 2 : 0 3 : 0 
Heartbeat_Variant_3_evicts 0 : 0 1 : 0 2 : 0 3 : 0 
Heartbeat CPU 0 instructions: 60000001 cycles: 21349458 heartbeat IPC: 1.35737 cumulative IPC: 1.35737 (Simulation time: 0 hr 10 min 10 sec) 
Heartbeat_Variant_0 : 1377 0.336182 per_variant_size: 0 1377 0 0 0 0 0 0 0 
Heartbeat_Variant_1 : 1272 0.310547 per_variant_size: 0 594 678 0 0 0 0 0 0 
Heartbeat_Variant_2 : 1368 0.333984 per_variant_size: 0 530 389 252 197 0 0 0 0 
Heartbeat_Variant_3 : 0 0 per_variant_size: 0 0 0 0 0 0 0 0 0 
Heartbeat_Variant_0_evicts 0 : 5733 1 : 11 2 : 23 3 : 0 
Heartbeat_Variant_1_evicts 0 : 9 1 : 0 2 : 218 3 : 0 
Heartbeat_Variant_2_evicts 0 : 24 1 : 216 2 : 0 3 : 0 
Heartbeat_Variant_3_evicts 0 : 0 1 : 0 2 : 0 3 : 0 
Heartbeat CPU 0 instructions: 70000002 cycles: 28619789 heartbeat IPC: 1.37545 cumulative IPC: 1.36635 (Simulation time: 0 hr 11 min 52 sec) 
Cycle: 30000000 FTQ IN: 13732813 FTQ occupancy: 10.5815 DECODE IN: 13732813 DECODE occupancy: 27.7207 ROB IN: 13732813 ROB occupancy: 212.158 ROB OUT: 13732813
Heartbeat_Variant_0 : 1379 0.33667 per_variant_size: 0 1379 0 0 0 0 0 0 0 
Heartbeat_Variant_1 : 1278 0.312012 per_variant_size: 0 608 670 0 0 0 0 0 0 
Heartbeat_Variant_2 : 1367 0.33374 per_variant_size: 0 515 402 248 202 0 0 0 0 
Heartbeat_Variant_3 : 0 0 per_variant_size: 0 0 0 0 0 0 0 0 0 
Heartbeat_Variant_0_evicts 0 : 5701 1 : 101 2 : 84 3 : 0 
Heartbeat_Variant_1_evicts 0 : 105 1 : 0 2 : 286 3 : 0 
Heartbeat_Variant_2_evicts 0 : 80 1 : 288 2 : 0 3 : 0 
Heartbeat_Variant_3_evicts 0 : 0 1 : 0 2 : 0 3 : 0 
Heartbeat CPU 0 instructions: 80000003 cycles: 36043505 heartbeat IPC: 1.34703 cumulative IPC: 1.35985 (Simulation time: 0 hr 13 min 35 sec) 
Cycle: 40000000 FTQ IN: 13447279 FTQ occupancy: 10.4675 DECODE IN: 13447366 DECODE occupancy: 27.2097 ROB IN: 13447390 ROB occupancy: 208.991 ROB OUT: 13447629
Heartbeat_Variant_0 : 1383 0.337646 per_variant_size: 0 1383 0 0 0 0 0 0 0 
Heartbeat_Variant_1 : 1295 0.316162 per_variant_size: 0 596 699 0 0 0 0 0 0 
Heartbeat_Variant_2 : 1367 0.33374 per_variant_size: 0 502 393 262 210 0 0 0 0 
Heartbeat_Variant_3 : 0 0 per_variant_size: 0 0 0 0 0 0 0 0 0 
Heartbeat_Variant_0_evicts 0 : 5785 1 : 106 2 : 120 3 : 0 
Heartbeat_Variant_1_evicts 0 : 102 1 : 0 2 : 276 3 : 0 
Heartbeat_Variant_2_evicts 0 : 125 1 : 262 2 : 0 3 : 0 
Heartbeat_Variant_3_evicts 0 : 0 1 : 0 2 : 0 3 : 0 
Heartbeat CPU 0 instructions: 90000003 cycles: 43391124 heartbeat IPC: 1.36099 cumulative IPC: 1.36013 (Simulation time: 0 hr 15 min 11 sec) 
Cycle: 50000000 FTQ IN: 13560458 FTQ occupancy: 10.6648 DECODE IN: 13560403 DECODE occupancy: 27.6516 ROB IN: 13560386 ROB occupancy: 211.621 ROB OUT: 13560387
Heartbeat_Variant_0 : 1390 0.339355 per_variant_size: 0 1390 0 0 0 0 0 0 0 
Heartbeat_Variant_1 : 1296 0.316406 per_variant_size: 0 601 695 0 0 0 0 0 0 
Heartbeat_Variant_2 : 1364 0.333008 per_variant_size: 0 494 388 279 203 0 0 0 0 
Heartbeat_Variant_3 : 0 0 per_variant_size: 0 0 0 0 0 0 0 0 0 
Heartbeat_Variant_0_evicts 0 : 5735 1 : 86 2 : 84 3 : 0 
Heartbeat_Variant_1_evicts 0 : 88 1 : 0 2 : 274 3 : 0 
Heartbeat_Variant_2_evicts 0 : 76 1 : 275 2 : 0 3 : 0 
Heartbeat_Variant_3_evicts 0 : 0 1 : 0 2 : 0 3 : 0 
Heartbeat CPU 0 instructions: 100000000 cycles: 50808622 heartbeat IPC: 1.34816 cumulative IPC: 1.35772 (Simulation time: 0 hr 17 min 0 sec) 
Finished CPU 0 instructions: 50000000 cycles: 36826349 cumulative IPC: 1.35772 (Simulation time: 0 hr 17 min 0 sec) 

ChampSim completed all CPUs

Region of Interest Statistics

CPU 0 cumulative IPC: 1.35772 instructions: 50000000 cycles: 36826349
 Fetch stage stalled: 59.9554  Sim cycles: 36826349 fetch stall cycle: 22079381
 Empty decode stage: 48.3699  Sim cycles: 36826349 fetch stall cycle: 17812863
ITLB TOTAL     ACCESS:    5853610  HIT:    5363694  MISS:     489916  HIT %:    91.6305  MISS %:    8.36947   MPKI: 9.79832
ITLB LOAD TRANSLATION INSTRUCTION	ACCESS:    5724370  HIT:    5234454  MISS:     489916  HIT %:    91.4416  MISS %:    8.55843  MPKI: 9.79832
ITLB TRANSLATION FROM L1D PREFETCHER INSTRUCTION	ACCESS:     129240  HIT:     129240  MISS:          0  HIT %:        100  MISS %:          0  MPKI: 0

ITLB AVERAGE MISS LATENCY: 9.05398 cycles
ITLB RQ	ACCESS:    7979659	FORWARD:          0	MERGED:    1704322	TO_CACHE:    6275337

DTLB TOTAL     ACCESS:    9015787  HIT:    8546605  MISS:     469182  HIT %:     94.796  MISS %:      5.204   MPKI: 9.38364
DTLB LOAD TRANSLATION DATA	ACCESS:    9015787  HIT:    8546605  MISS:     469182  HIT %:     94.796  MISS %:      5.204  MPKI: 9.38364

DTLB AVERAGE MISS LATENCY: 9.34243 cycles
DTLB RQ	ACCESS:   13372863	FORWARD:          0	MERGED:    4320816	TO_CACHE:    9052047

STLB TOTAL     ACCESS:    1211834  HIT:    1209893  MISS:       1941  HIT %:    99.8398  MISS %:    0.16017   MPKI: 0.03882
STLB LOAD TRANSLATION INSTRUCTION	ACCESS:     489916  HIT:     489701  MISS:        215  HIT %:    99.9561  MISS %:  0.0438851  MPKI: 0.0043
STLB LOAD TRANSLATION DATA	ACCESS:     469175  HIT:     467470  MISS:       1705  HIT %:    99.6366  MISS %:   0.363404  MPKI: 0.0341
STLB TRANSLATION FROM L1D PREFETCHER DATA	ACCESS:     252743  HIT:     252722  MISS:         21  HIT %:    99.9917  MISS %: 0.00830884  MPKI: 0.00042

STLB AVERAGE MISS LATENCY: 79.0289 cycles
STLB RQ	ACCESS:    1334348	FORWARD:          0	MERGED:     122478	TO_CACHE:    1211870

STLB Hit, L1D data hit: 0
STLB Hit, L2C data hit: 0
STLB Hit, LLC data hit: 0
STLB Hit, LLC data miss: 0
STLB STLB hints to L2: 0
L1D TOTAL     ACCESS:   13130822  HIT:   12019666  MISS:    1111156  HIT %:    91.5378  MISS %:     8.4622   MPKI: 22.2231
L1D LOAD DATA	ACCESS:    6590183  HIT:    5859967  MISS:     730216  HIT %:    88.9196  MISS %:    11.0804  MPKI: 14.6043
L1D RFO DATA	ACCESS:    6206290  HIT:    5919574  MISS:     286716  HIT %:    95.3802  MISS %:    4.61976  MPKI: 5.73432
L1D PREFETCH DATA	ACCESS:     334349  HIT:     240125  MISS:      94224  HIT %:    71.8187  MISS %:    28.1813  MPKI: 1.88448

L1D PREFETCH  REQUESTED:     750872  ISSUED:     750872  USEFUL:      34373  USELESS:      68016
L1D USEFUL LOAD PREFETCHES:      34373 PREFETCH ISSUED TO LOWER LEVEL:     102458  ACCURACY: 33.5484
 TIMELY PREFETCHES:      34373 LATE PREFETCHES: 8132 DROPPED PREFETCHES: 9
L1D AVERAGE MISS LATENCY: 241354 cycles
L1D RQ	ACCESS:   10735476	FORWARD:          0	MERGED:    3949510	TO_CACHE:    6624748
L1D WQ	ACCESS:    6939568	FORWARD:     161590	MERGED:     191453	TO_CACHE:    6748115
L1D PQ	ACCESS:     375622	FORWARD:          0	MERGED:          0	TO_CACHE:     375250

L1D UNIQUE REGIONS ACCESSED: 0
L1D REGIONS CONFLICTS: 0
L1D Cross Page Prefetch Requests: 6951
L1D Same Page Prefetch Requests: 755619
L1D ROI Sum of L1D PQ occupancy: 4773683
L1D PREFETCHES PUSHED FROM L2C: 0
L1I TOTAL     ACCESS:    7200964  HIT:    4454384  MISS:    2746580  HIT %:    61.8582  MISS %:    38.1418   MPKI: 54.9316
L1I LOAD INSTRUCTION	ACCESS:    6540170  HIT:    3793590  MISS:    2746580  HIT %:    58.0045  MISS %:    41.9955  MPKI: 54.9316
L1I PREFETCH INSTRUCTION	ACCESS:     660794  HIT:     660794  MISS:          0  HIT %:        100  MISS %:          0  MPKI: 0

L1I PREFETCH  REQUESTED:    1590647  ISSUED:    1590647  USEFUL:          0  USELESS:          0
L1I USEFUL LOAD PREFETCHES:          0 PREFETCH ISSUED TO LOWER LEVEL:          0  ACCURACY: -nan
 TIMELY PREFETCHES:          0 LATE PREFETCHES: 0 DROPPED PREFETCHES: 0
L1I AVERAGE MISS LATENCY: 16.8833 cycles
L1I RQ	ACCESS:    9463483	FORWARD:          0	MERGED:    2632326	TO_CACHE:    6831157
L1I PQ	ACCESS:    1590647	FORWARD:          0	MERGED:     442145	TO_CACHE:    1148502

L1BTB TOTAL     ACCESS:    5669354  HIT:    2060734  MISS:    3608620  HIT %:    36.3487  MISS %:    63.6513   MPKI: 72.1724
L1BTB BRANCH_DIRECT_JUMP	ACCESS:     549973  HIT:     146584  MISS:     403389	AVERAGE STALL: 42.4097
L1BTB BRANCH_INDIRECT	ACCESS:     183898  HIT:      66780  MISS:     117118	AVERAGE STALL: 93.8525
L1BTB BRANCH_CONDITIONAL	ACCESS:    2722642  HIT:    1434747  MISS:    1287895	AVERAGE STALL: 51.9467
L1BTB BRANCH_DIRECT_CALL	ACCESS:     936159  HIT:     104183  MISS:     831976	AVERAGE STALL: 61.5978
L1BTB BRANCH_INDIRECT_CALL	ACCESS:     170255  HIT:      20610  MISS:     149645	AVERAGE STALL: 118.337
L1BTB BRANCH_RETURN	ACCESS:    1106427  HIT:     287830  MISS:     818597	AVERAGE STALL: 42.3593
L1BTB BRANCH_OTHER ACCESS:          0  HIT:          0  MISS:          0	AVERAGE STALL: -nan
L1BTB TOTAL ROB OCCUPANCY AT BTB MISS: 2.3063

L2BTB TOTAL     ACCESS:    3582989  HIT:    3516944  MISS:      66045  HIT %:    98.1567  MISS %:    1.84329   MPKI: 1.3209
L2BTB BRANCH_DIRECT_JUMP	ACCESS:     399105  HIT:     394071  MISS:       5034	AVERAGE STALL: 42.4097
L2BTB BRANCH_INDIRECT	ACCESS:     106856  HIT:     104199  MISS:       2657	AVERAGE STALL: 93.8525
L2BTB BRANCH_CONDITIONAL	ACCESS:    1287895  HIT:    1282752  MISS:       5143	AVERAGE STALL: 51.9467
L2BTB BRANCH_DIRECT_CALL	ACCESS:     831976  HIT:     830560  MISS:       1416	AVERAGE STALL: 61.5978
L2BTB BRANCH_INDIRECT_CALL	ACCESS:     139960  HIT:     129522  MISS:      10438	AVERAGE STALL: 118.337
L2BTB BRANCH_RETURN	ACCESS:     817197  HIT:     775840  MISS:      41357	AVERAGE STALL: 42.3593
L2BTB BRANCH_OTHER ACCESS:          0  HIT:          0  MISS:          0	AVERAGE STALL: -nan
L2BTB TOTAL ROB OCCUPANCY AT BTB MISS: 126.013

L2C TOTAL     ACCESS:    4461536  HIT:    4023960  MISS:     437576  HIT %:    90.1923  MISS %:    9.80774   MPKI: 8.75152
L2C LOAD INSTRUCTION	ACCESS:    2746581  HIT:    2516523  MISS:     230058  HIT %:    91.6238  MISS %:    8.37616  MPKI: 4.60116
L2C LOAD TRANSLATION INSTRUCTION	ACCESS:        248  HIT:         67  MISS:        181  HIT %:    27.0161  MISS %:    72.9839  MPKI: 0.00362
L2C LOAD DATA	ACCESS:     722058  HIT:     648987  MISS:      73071  HIT %:    89.8802  MISS %:    10.1198  MPKI: 1.46142
L2C RFO DATA	ACCESS:     286596  HIT:     237075  MISS:      49521  HIT %:     82.721  MISS %:     17.279  MPKI: 0.99042
L2C PREFETCH DATA	ACCESS:     185109  HIT:     114064  MISS:      71045  HIT %:    61.6199  MISS %:    38.3801  MPKI: 1.4209
L2C WRITEBACK DATA	ACCESS:     519138  HIT:     506774  MISS:      12364  HIT %:    97.6184  MISS %:    2.38164  MPKI: 0.24728
L2C LOAD TRANSLATION DATA	ACCESS:       1760  HIT:        439  MISS:       1321  HIT %:    24.9432  MISS %:    75.0568  MPKI: 0.02642
L2C TRANSLATION FROM L1D PREFETCHER DATA	ACCESS:         46  HIT:         31  MISS:         15  HIT %:    67.3913  MISS %:    32.6087  MPKI: 0.0003

L2C PREFETCH  REQUESTED:      89739  ISSUED:      89739  USEFUL:       7566  USELESS:      63999
L2C USEFUL LOAD PREFETCHES:       7566 PREFETCH ISSUED TO LOWER LEVEL:      71395  ACCURACY: 10.5974
 TIMELY PREFETCHES:       7566 LATE PREFETCHES: 350 DROPPED PREFETCHES: 0
L2C AVERAGE MISS LATENCY: 40.5698 cycles
L2C RQ	ACCESS:    3757337	FORWARD:          0	MERGED:          0	TO_CACHE:    3757293
L2C WQ	ACCESS:     519138	FORWARD:         45	MERGED:          0	TO_CACHE:     519138
L2C PQ	ACCESS:     192197	FORWARD:          0	MERGED:       3543	TO_CACHE:     188653

L2C Dense regions hint from L2: 0
PSCL5 TOTAL     ACCESS:       3906  HIT:       1953  MISS:       1953  HIT %:         50  MISS %:         50   MPKI: 0.03906
PSCL5 LOAD TRANSLATION INSTRUCTION	ACCESS:       3814  HIT:       1907  MISS:       1907  HIT %:         50  MISS %:         50  MPKI: 0.03814
PSCL5 TRANSLATION FROM L1D PREFETCHER INSTRUCTION	ACCESS:         92  HIT:         46  MISS:         46  HIT %:         50  MISS %:         50  MPKI: 0.00092


PSCL4 TOTAL     ACCESS:       3855  HIT:       1925  MISS:       1930  HIT %:    49.9351  MISS %:    50.0649   MPKI: 0.0386
PSCL4 LOAD TRANSLATION INSTRUCTION	ACCESS:       2306  HIT:       1885  MISS:        421  HIT %:    81.7433  MISS %:    18.2567  MPKI: 0.00842
PSCL4 TRANSLATION FROM L1D PREFETCHER INSTRUCTION	ACCESS:         44  HIT:         40  MISS:          4  HIT %:    90.9091  MISS %:    9.09091  MPKI: 8e-05
PSCL4 LOAD TRANSLATION DATA	ACCESS:       1469  HIT:          0  MISS:       1469  HIT %:          0  MISS %:        100  MPKI: 0.02938
PSCL4 TRANSLATION FROM L1D PREFETCHER DATA	ACCESS:         36  HIT:          0  MISS:         36  HIT %:          0  MISS %:        100  MPKI: 0.00072


PSCL3 TOTAL     ACCESS:       3857  HIT:       1926  MISS:       1931  HIT %:    49.9352  MISS %:    50.0648   MPKI: 0.03862
PSCL3 LOAD TRANSLATION INSTRUCTION	ACCESS:       2307  HIT:       1886  MISS:        421  HIT %:    81.7512  MISS %:    18.2488  MPKI: 0.00842
PSCL3 TRANSLATION FROM L1D PREFETCHER INSTRUCTION	ACCESS:         44  HIT:         40  MISS:          4  HIT %:    90.9091  MISS %:    9.09091  MPKI: 8e-05
PSCL3 LOAD TRANSLATION DATA	ACCESS:       1470  HIT:          0  MISS:       1470  HIT %:          0  MISS %:        100  MPKI: 0.0294
PSCL3 TRANSLATION FROM L1D PREFETCHER DATA	ACCESS:         36  HIT:          0  MISS:         36  HIT %:          0  MISS %:        100  MPKI: 0.00072


PSCL2 TOTAL     ACCESS:       3813  HIT:       1860  MISS:       1953  HIT %:    48.7805  MISS %:    51.2195   MPKI: 0.03906
PSCL2 LOAD TRANSLATION INSTRUCTION	ACCESS:       2033  HIT:       1814  MISS:        219  HIT %:    89.2277  MISS %:    10.7723  MPKI: 0.00438
PSCL2 TRANSLATION FROM L1D PREFETCHER INSTRUCTION	ACCESS:         46  HIT:         46  MISS:          0  HIT %:        100  MISS %:          0  MPKI: 0
PSCL2 LOAD TRANSLATION DATA	ACCESS:       1688  HIT:          0  MISS:       1688  HIT %:          0  MISS %:        100  MPKI: 0.03376
PSCL2 TRANSLATION FROM L1D PREFETCHER DATA	ACCESS:         46  HIT:          0  MISS:         46  HIT %:          0  MISS %:        100  MPKI: 0.00092


LLC TOTAL     ACCESS:     495386  HIT:     464571  MISS:      30815  HIT %:    93.7796  MISS %:     6.2204   MPKI: 0.6163
LLC LOAD INSTRUCTION	ACCESS:     230058  HIT:     228837  MISS:       1221  HIT %:    99.4693  MISS %:   0.530736  MPKI: 0.02442
LLC LOAD TRANSLATION INSTRUCTION	ACCESS:        181  HIT:        155  MISS:         26  HIT %:    85.6354  MISS %:    14.3646  MPKI: 0.00052
LLC LOAD DATA	ACCESS:      72732  HIT:      69206  MISS:       3526  HIT %:    95.1521  MISS %:    4.84793  MPKI: 0.07052
LLC RFO DATA	ACCESS:      49506  HIT:      33726  MISS:      15780  HIT %:    68.1251  MISS %:    31.8749  MPKI: 0.3156
LLC PREFETCH DATA	ACCESS:      71395  HIT:      61650  MISS:       9745  HIT %:    86.3506  MISS %:    13.6494  MPKI: 0.1949
LLC WRITEBACK DATA	ACCESS:      70178  HIT:      69754  MISS:        424  HIT %:    99.3958  MISS %:   0.604178  MPKI: 0.00848
LLC LOAD TRANSLATION DATA	ACCESS:       1321  HIT:       1228  MISS:         93  HIT %:    92.9599  MISS %:    7.04012  MPKI: 0.00186
LLC TRANSLATION FROM L1D PREFETCHER DATA	ACCESS:         15  HIT:         15  MISS:          0  HIT %:        100  MISS %:          0  MPKI: 0

LLC AVERAGE MISS LATENCY: 160.48 cycles
LLC RQ	ACCESS:     353818	FORWARD:          0	MERGED:          0	TO_CACHE:     353814
LLC WQ	ACCESS:      70178	FORWARD:          4	MERGED:          0	TO_CACHE:      70178
LLC PQ	ACCESS:      71395	FORWARD:          0	MERGED:          0	TO_CACHE:      71395

LLC Dense regions hint to LLC: 0

RAW hits: 1908282
Loads Generated: 12643760
Loads sent to L1D: 10735476
Stores Generated: 6939563
Stores sent to L1D: 6939568
Major fault: 0 Minor fault: 2579
Allocated PAGES: 2579

stream: 
stream:times selected: 1196170
stream:pref_filled: 121675
stream:pref_useful: 24097
stream:pref_late: 6590
stream:misses: 7962
stream:misses_by_poll: 0

CS: 
CS:times selected: 179771
CS:pref_filled: 59330
CS:pref_useful: 36021
CS:pref_late: 7132
CS:misses: 17005
CS:misses_by_poll: 3

CPLX: 
CPLX:times selected: 1015197
CPLX:pref_filled: 19443
CPLX:pref_useful: 4615
CPLX:pref_late: 3037
CPLX:misses: 93317
CPLX:misses_by_poll: 0

NL_L1: 
NL:times selected: 21035
NL:pref_filled: 743
NL:pref_useful: 359
NL:pref_late: 282
NL:misses: 1821
NL:misses_by_poll: 0

total selections: 2412173
total_filled: 94224
total_useful: 34373
total_late: 18611
total_polluted: 3
total_misses_after_warmup: 764783
conflicts: 5527402

test: 115707

DRAM Statistics
 CHANNEL 0
 RQ ROW_BUFFER_HIT:      11536  ROW_BUFFER_MISS:      18845
 DBUS_CONGESTED:         11
 WQ ROW_BUFFER_HIT:       1650  ROW_BUFFER_MISS:      13271  FULL:          0

 AVG_CONGESTED_CYCLE: 4

CPU 0 Branch Prediction Accuracy: 99.8178% MPKI: 0.33282 Average ROB Occupancy at Mispredict: 174.293
Branch types
NOT_BRANCH: 40864465 81.7289%
BRANCH_DIRECT_JUMP: 549973 1.09995%
BRANCH_INDIRECT: 183898 0.367796%
BRANCH_CONDITIONAL: 6188726 12.3775%
BRANCH_DIRECT_CALL: 936159 1.87232%
BRANCH_INDIRECT_CALL: 170255 0.34051%
BRANCH_RETURN: 1106427 2.21285%
BRANCH_OTHER: 0 0%

DRAM PAGES: 1048576
Allocated PAGES: 2579
Average_ROB_Occupancy: 211.953
Average_Decode_Occupancy: 27.4774
Average_FTQ_Occupancy: 10.5649
Indirect max targets: 14 Average targets: 1.15512
Branch_type:  BRANCH_DIRECT_JUMP:  Count Percentage: 3.81452 5.04709 4.48423 3.571 4.03112 11.6196 1.39891 66.0336 
Branch_type:  BRANCH_INDIRECT:  Count Percentage: 11.744 3.44635 2.599 7.3176 3.33406 31.1973 3.18579 37.1759 
Branch_type:  BRANCH_CONDITIONAL:  Count Percentage: 21.9856 2.47386 1.54034 3.37032 1.95136 8.1984 0.849434 59.6307 
Branch_type:  BRANCH_DIRECT_CALL:  Count Percentage: 0.390743 1.73011 0.767128 1.94994 3.34003 4.96463 0.828441 86.029 
Branch_type:  BRANCH_INDIRECT_CALL:  Count Percentage: 9.56434 0 2.99583 4.26963 0.000585924 1.71178 1.00281 80.455 
Branch_type:  BRANCH_RETURN:  Count Percentage: 3.95613 1.97998 1.04306 4.53885 2.46794 9.66459 1.26832 75.0811 
Branch_type:  BRANCH_DIRECT_JUMP:  Total Count: 41807 55316 49147 39138 44181 127350 15332 723726 
Branch_type:  BRANCH_INDIRECT:  Total Count: 43090 12645 9536 26849 12233 114466 11689 136402 
Branch_type:  BRANCH_CONDITIONAL:  Total Count: 2718430 305882 190456 416726 241278 1013698 105029 7373081 
Branch_type:  BRANCH_DIRECT_CALL:  Total Count: 7348 32535 14426 36669 62810 93361 15579 1617793 
Branch_type:  BRANCH_INDIRECT_CALL:  Total Count: 32647 0 10226 14574 2 5843 3423 274626 
Branch_type:  BRANCH_RETURN:  Total Count: 87933 44009 23184 100885 54855 214815 28191 1668829 
Number of unique branch instructions: 10259
Upper 32 bits: 
aaaa
ffff
ffff0000
Unique upper 32 bits: 3
Unique upper 36 bits: 3
Unique upper 40 bits: 5
Unique upper 44 bits: 32
Unique upper 48 bits: 157
Variant_0 : 1390 0.339355
Variant_1 : 1296 0.316406
Variant_2 : 1364 0.333008
Variant_3 : 0 0
Offset_3 4221
Offset_4 266
Offset_5 472
Offset_6 520
Offset_7 604
Offset_8 534
Offset_9 489
Offset_10 397
Offset_11 324
Offset_12 297
Offset_13 214
Offset_14 231
Offset_15 193
Offset_16 230
Offset_17 156
Offset_18 126
Offset_19 246
Offset_20 144
Offset_21 261
Offset_22 398
Offset_23 241
Offset_24 353
Offset_25 88
Offset_47 86
decode_dispatch_called: 23649595 64.2192
Dispatch_width: 0 12431875 52.567 33.7581
Dispatch_width: 1 820275 3.46845 2.22741
Dispatch_width: 2 770588 3.25836 2.09249
Dispatch_width: 3 469637 1.98581 1.27527
Dispatch_width: 4 4250484 17.9728 11.542
Dispatch_width: 5 212714 0.89944 0.577614
Dispatch_width: 6 4694022 19.8482 12.7464
Empty_decode_cycles: 13176754 35.7808
ROB_full_cycles: 6614252 17.9607
Starvation_cycles_per_kilo_instr: 255.181
Starvation_cycles_per_kilo_instr_3: 210.549
Starvation_cycles_per_kilo_instr_0: 189.944
Branch_type_1  (3,1)  (4,10)  (5,39)  (6,72)  (7,119)  (8,133)  (9,130)  (10,101)  (11,72)  (12,51)  (13,8)  (14,2)  (15,3)  (16,4)  (18,1)  (19,4)  (20,2)  (21,1)  (22,3)  (23,2)  (24,10)  (25,12) 
Branch_type_2  (3,1)  (5,1)  (8,3)  (9,3)  (12,1)  (13,1)  (14,1)  (16,3)  (17,2)  (20,2)  (21,2)  (23,5)  (24,1)  (47,40) 
Branch_type_3  (3,4219)  (4,256)  (5,428)  (6,432)  (7,452)  (8,336)  (9,269)  (10,160)  (11,133)  (12,59)  (13,7) 
Branch_type_4  (6,4)  (7,8)  (8,26)  (9,55)  (10,63)  (11,62)  (12,102)  (13,91)  (14,103)  (15,92)  (16,103)  (17,71)  (18,57)  (19,119)  (20,74)  (21,141)  (22,213)  (23,136)  (24,203)  (25,72) 
Branch_type_5  (8,2)  (9,1)  (10,4)  (11,5)  (12,3)  (13,14)  (14,16)  (15,11)  (16,20)  (17,11)  (18,16)  (19,13)  (20,11)  (21,13)  (22,42)  (23,26)  (24,41) 
Branch_type_6  (5,4)  (6,12)  (7,25)  (8,34)  (9,31)  (10,69)  (11,52)  (12,81)  (13,93)  (14,109)  (15,87)  (16,100)  (17,72)  (18,52)  (19,110)  (20,55)  (21,104)  (22,140)  (23,72)  (24,98)  (25,4)  (47,46) 
Unique trigger count: 
Variant_0_evicts_0 : 0
Variant_0_evicts_1 : 0
Variant_0_evicts_2 : 0
Variant_0_evicts_3 : 0
Variant_1_evicts_0 : 0
Variant_1_evicts_1 : 0
Variant_1_evicts_2 : 0
Variant_1_evicts_3 : 0
Variant_2_evicts_0 : 0
Variant_2_evicts_1 : 0
Variant_2_evicts_2 : 0
Variant_2_evicts_3 : 0
Variant_3_evicts_0 : 0
Variant_3_evicts_1 : 0
Variant_3_evicts_2 : 0
Variant_3_evicts_3 : 0
BTB PER SET UNIQUE ADDR: 10 9 9 12 16 16 12 13 10 18 11 15 14 13 10 12 9 11 12 10 9 12 14 10 9 14 14 14 14 11 15 16 18 10 10 14 11 13 8 12 13 8 12 15 8 10 13 12 15 10 11 9 9 17 11 6 10 11 11 11 10 14 9 9 10 17 9 11 11 13 12 13 17 10 10 7 6 13 14 18 12 6 10 14 12 11 15 8 12 18 8 9 9 7 6 11 10 12 14 12 12 17 12 14 11 12 9 13 7 8 10 15 11 10 10 9 9 10 8 12 13 10 7 9 15 14 5 12 19 12 7 14 11 16 10 11 11 12 12 18 12 14 13 13 14 9 10 7 7 13 14 13 11 11 10 13 14 10 14 10 11 11 16 11 9 13 12 8 9 11 12 9 5 11 14 10 14 11 11 12 8 12 12 11 16 15 6 11 10 11 8 13 11 13 11 10 7 12 6 11 10 15 10 11 10 11 11 10 13 13 10 11 11 9 6 10 15 13 11 17 7 13 9 8 7 11 14 11 10 18 8 8 9 7 13 9 14 13 13 10 12 14 8 15 10 12 7 10 12 9 14 12 12 11 17 10 7 5 10 12 13 10 6 9 12 8 8 11 10 11 7 12 12 9 9 9 12 16 10 7 11 15 8 9 8 9 11 20 17 13 13 9 10 11 9 10 13 13 15 15 11 11 11 12 10 19 11 6 17 15 12 16 9 12 12 9 18 11 12 19 10 13 11 13 13 15 12 11 7 9 13 9 8 9 13 9 7 10 4 21 13 11 8 11 12 14 11 10 8 8 10 9 7 10 13 14 14 9 13 13 9 14 5 17 13 16 7 9 15 13 11 12 16 16 10 10 12 15 13 15 14 13 6 8 9 14 14 16 16 11 13 10 15 15 12 9 11 6 12 9 11 11 10 12 14 11 14 17 13 14 12 9 7 12 10 12 9 13 16 16 12 8 12 12 15 11 15 14 9 11 11 14 10 14 10 8 11 6 10 10 17 9 9 13 17 7 11 8 11 13 14 16 14 13 9 16 16 16 8 16 12 8 16 15 17 12 12 11 14 12 11 12 13 14 10 13 12 14 9 17 17 15 14 16 8 18 15 16 13 12 9 13 9 8 11 10 14 19 7 9 14 14 12 14 9 9 9 12 12 12 11 19 17 16 11 16 10 18 8 9 6 10 9 7 12 18 21 9 8 19 13 13 14 13 11 14 16 8 10 15 16 10 12 15 16 10 11 12 8 6 12 14 15 15 11 15 11 11 16 13 9 13 12 15 8 15 10 15 10 13 13 11 13 8 12 14 15 16 12 11 13 10 9 15 16 11 12 13 11 14 10 13 10 11 15 10 13 12 10 9 11 11 10 7 8 17 17 11 16 12 11 10 12 12 4 13 11 13 10 12 15 9 9 7 11 13 15 20 10 14 9 16 16 12 8 13 11 20 11 18 15 16 14 21 8 13 11 16 23 14 11 16 9 8 16 17 11 12 12 9 13 9 10 13 11 14 14 9 10 14 11 8 13 10 15 11 12 18 10 14 12 15 10 12 12 15 11 18 10 15 12 11 14 9 9 10 10 12 11 12 11 11 14 12 8 11 11 7 10 8 11 11 9 11 9 10 15 12 8 15 10 8 14 17 8 13 11 14 8 10 12 10 13 7 10 13 13 15 16 11 9 12 12 8 13 16 15 15 14 9 10 9 12 16 6 11 18 11 8 10 13 3 7 11 13 14 10 12 11 11 12 14 9 10 5 9 10 9 18 10 7 14 14 11 14 8 9 14 11 8 9 6 17 7 15 17 14 10 14 9 18 10 18 17 18 10 15 10 12 13 9 14 8 15 13 12 14 16 6 13 12 14 10 11 15 13 11 10 9 12 12 13 15 11 9 17 9 16 10 13 14 11 7 11 11 20 10 11 12 10 10 14 10 10 9 17 8 13 11 13 14 11 13 9 17 10 11 10 14 10 11 9 11 12 17 6 8 12 9 14 13 7 15 12 12 12 15 14 11 11 16 9 11 10 9 11 16 11 6 9 18 13 12 11 6 11 14 11 7 11 8 10 11 13 14 14 15 11 9 11 12 12 13 7 10 7 7 10 11 10 17 17 16 9 11 12 10 13 14 11 10 15 13 11 8 12 12 15 9 15 12 12 11 11 10 15 11 10 13 10 15 9 13 15 16 12 17 9 8 17 13 10 15 10 20 12 12 10 18 18 11 11 11 14 11 15 18 13 12 16 13 13 14 8 11 11 11 11 14 12 13 16 10 9 15 16 13 11 6 14 11 12 7 9 12 11 8 11 7 8 8 12 11 9 
BTB PER SET COUNT: 12 10 2024 12 1478 30 497 21 388 26 13 811 5622 21 12 14 970 22 12 12 10 14 766 58 13 22 23 17 26 25 19 608 28 12 13 168 13 17 8 1430 18 11 12 35 1468 12 20 19 397 12 15 9 14 18 14 10 12 14 12 13 16 24 9 10 10 26 9 452 17 24 1480 18 21 12 10 9 10 181 16 25 14 8 21 186 13 1667 30 12 23 27 10 727 11 80 6 13 520 17 19 19 13 27 19 351 279 14 12 18 1010 10 13 29 17 14 14 62 11 14 1469 410 23 10 10 12 19 89 7 16 25 1012 9 3715 19 26 66 15 975 25 19 26 16 15 16 16 20 14 228 1008 12 156 15 175 994 15 19 20 14 13 19 12 17 16 35 20 1469 110 16 9 10 15 19 9 6 21 14 14 20 16 16 582 8 260 3434 15 17 41 8 18 510 352 12 15 12 15 15 152 12 585 6 777 12 18 971 14 11 12 12 11 28 138 14 17 12 290 6 17 25 25 2042 20 10 15 12 11 9 24 22 15 23 34 11 11 13 8 18 14848 131 23 21 10 304 18 11 22 25 849 9 10 469 13 20 16 24 13 23 13 9 7 11 17 973 12 7 514 14 12 13 14 1997 11 7 16 15 11 494 11 16 17 11 7 19 17 12 11 8 10 13 580 24 18 17 14 14 200 17 17 635 15 21 546 13 13 14 14 13 28 189 6 23 296 12 20 10 14 457 11 25 21 16 24 13 1272 13 24 1477 17 14 23 7 10 14 14 21 12 17 16 10 833 5 26 15 19 11 19 18 21 13 11 8 8 11 10 11 10 18 16 21 13 448 40 14 18 6 27 18 128 7 9 23 20 12 295 28 18 969 13 18 19 13 23 904 21 7 12 10 17 24 20 24 399 130 12 20 20 17 267 14 10 15 17 14 14 12 18 20 16 20 94 16 16 15 9 8 637 12 15 9 38 266 22 17 15 18 21 22 19 1337 15 13 14 15 15 17 21 513 13 15 1009 10 13 30 12 10 30 1851 7 40 12 14 16 267 22 34 14 12 23 21 23 8 16 15 8 20 19 26 17 16 13 18 15 15 13 19 18 14 16 19 20 10 29 32 24 20 27 8 114 32 24 19 13 12 19 969 12 13 486 767 19 7 10 19 24 16 245 10 12 10 13 13 13 280 499 358 323 13 27 20 19 18 966 7 14 13 11 17 21 38 1137 8 841 16 13 103 17 14 17 254 10 13 20 23 13 16 23 22 12 14 16 14 1010 12 14 19 25 14 20 13 18 25 15 10 18 13 21 12 22 15 26 10 24 23 16 15 8 2432 22 19 37 14 20 13 21 11 896 18 17 12 17 20 20 14 20 14 13 34 13 614 1023 186 11 13 18 11 11 8 20 27 656 18 16 15 16 229 14 5 21 464 21 12 25 20 9 14 7 12 20 19 32 11 20 11 17 1006 16 8 17 15 36 17 588 22 27 17 24 10 169 1018 22 168 17 11 22 9 9 1742 147 12 16 772 13 120 11 10 20 874 20 26 16 255 22 15 10 972 11 94 255 18 28 10 17 17 21 388 39 241 32 17 22 249 20 19 14 19 11 918 16 724 336 13 14 145 26 21 18 9 12 13 7 12 9 14 14 523 15 14 12 519 12 13 39 12 12 16 1298 9 17 14 21 1012 14 379 14342 16 96 10 17 1020 20 18 11 400 30 13 10 1098 24 24 23 16 12 1472 11 1238 1986 7 14 28 1254 11 22 17 3 10 236 18 14 10 690 17 11 62 16 1092 14 6 11 13 9 36 17 1504 23 407 13 17 10 14 16 16 8 10 6 27 17 1357 21 24 17 19 966 32 13 37 312 481 12 19 15 16 17 12 9304 11 261 18 412 24 29 6 751 16 196 12 11 707 18 11 15 14 13 12 22 19 11 347 237 10 27 18 24 22 965 7 20 742 25 12 16 14 10 857 1686 380 14 10 25 14 19 13 14 178 16 15 10 184 13 16 11 18 14 84 31 18 18 25 9 9 18 9 16 20 7 150 22 513 13 24 15 11 395 16 1513 16 10 11 16 24 17 8 11 33 17 14 853 6 13 20 15 9 395 9 121 11 16 69 1357 293 294 11 20 15 16 16 14 15 9 11 16 16 26 26 27 20 10 18 3021 12 20 1096 14 11 1029 13 14 11 14 15 25 9 24 15 1776 1545 1915 13 22 136 12 16 16 22 9 14 17 19 19 405 12 53 23 21 12 19 11 1184 19 16 13 1028 24 16 18 14 975 17 28 1955 183 15 16 14 25 47 266 26 21 16 1479 18 212 17 33 11 12 20 22 22 16 7 976 119 456 8 10 15 19 13 16 7 9 11 133 15 10 
To predecode: 0
Predecoding something: 0
Predecode request dropped: 0
sizeofblock_0 0
sizeofblock_1 36479
sizeofblock_2 42546
sizeofblock_3 40592
sizeofblock_4 18338
sizeofblock_5 0
sizeofblock_6 0
sizeofblock_7 0
sizeofblock_8 0
Variant_0 Correct: 1608780 Incorrect: 0 Accuracy: 1
Variant_1 Correct: 2084086 Incorrect: 0 Accuracy: 1
Variant_2 Correct: 3631554 Incorrect: 0 Accuracy: 1
Variant_3 Correct: 0 Incorrect: 0 Accuracy: -nan
