
*** ChampSim Multicore Out-of-Order Simulator ***

Warmup Instructions: 50000000
Simulation Instructions: 50000000
Number of CPUs: 1
LLC sets: 2048
LLC ways: 16
Off-chip DRAM Size: 4096 MB Channels: 1 Width: 64-bit Data Rate: 6400 MT/s
CPU 0 runs ./micro_traces/srv296.trace.gz
.gz
ITLB has LRU replacement policy
DTLB has LRU replacement policy
STLB has LRU replacement policy
CPU 0 L1I next line prefetcher
./conditional/srv296.cond
L1I has LRU replacement policy
L1D has LRU replacement policy
Initialize SRRIP state for L2C
Initialize DRRIP state for LLC
Heartbeat_Variant_0 : 1327 0.323975 per_variant_size: 0 1327 0 0 0 0 0 0 0 
Heartbeat_Variant_1 : 1232 0.300781 per_variant_size: 0 593 639 0 0 0 0 0 0 
Heartbeat_Variant_2 : 1307 0.319092 per_variant_size: 0 520 372 325 90 0 0 0 0 
Heartbeat_Variant_3 : 0 0 per_variant_size: 0 0 0 0 0 0 0 0 0 
Heartbeat_Variant_0_evicts 0 : 5908 1 : 296 2 : 284 3 : 0 
Heartbeat_Variant_1_evicts 0 : 278 1 : 0 2 : 474 3 : 0 
Heartbeat_Variant_2_evicts 0 : 283 1 : 463 2 : 0 3 : 0 
Heartbeat_Variant_3_evicts 0 : 0 1 : 0 2 : 0 3 : 0 
Heartbeat CPU 0 instructions: 10000002 cycles: 2798746 heartbeat IPC: 3.57303 cumulative IPC: 3.57303 (Simulation time: 0 hr 1 min 44 sec) 
Heartbeat_Variant_0 : 1331 0.324951 per_variant_size: 0 1331 0 0 0 0 0 0 0 
Heartbeat_Variant_1 : 1240 0.302734 per_variant_size: 0 595 645 0 0 0 0 0 0 
Heartbeat_Variant_2 : 1314 0.320801 per_variant_size: 0 527 373 339 75 0 0 0 0 
Heartbeat_Variant_3 : 0 0 per_variant_size: 0 0 0 0 0 0 0 0 0 
Heartbeat_Variant_0_evicts 0 : 5499 1 : 45 2 : 41 3 : 0 
Heartbeat_Variant_1_evicts 0 : 40 1 : 0 2 : 303 3 : 0 
Heartbeat_Variant_2_evicts 0 : 44 1 : 296 2 : 0 3 : 0 
Heartbeat_Variant_3_evicts 0 : 0 1 : 0 2 : 0 3 : 0 
Heartbeat CPU 0 instructions: 20000003 cycles: 5594664 heartbeat IPC: 3.57664 cumulative IPC: 3.57484 (Simulation time: 0 hr 3 min 29 sec) 
Heartbeat_Variant_0 : 1333 0.325439 per_variant_size: 0 1333 0 0 0 0 0 0 0 
Heartbeat_Variant_1 : 1244 0.303711 per_variant_size: 0 600 644 0 0 0 0 0 0 
Heartbeat_Variant_2 : 1323 0.322998 per_variant_size: 0 533 372 329 89 0 0 0 0 
Heartbeat_Variant_3 : 0 0 per_variant_size: 0 0 0 0 0 0 0 0 0 
Heartbeat_Variant_0_evicts 0 : 5578 1 : 23 2 : 26 3 : 0 
Heartbeat_Variant_1_evicts 0 : 24 1 : 0 2 : 260 3 : 0 
Heartbeat_Variant_2_evicts 0 : 24 1 : 265 2 : 0 3 : 0 
Heartbeat_Variant_3_evicts 0 : 0 1 : 0 2 : 0 3 : 0 
Heartbeat CPU 0 instructions: 30000000 cycles: 8391065 heartbeat IPC: 3.57602 cumulative IPC: 3.57523 (Simulation time: 0 hr 5 min 13 sec) 
Heartbeat_Variant_0 : 1360 0.332031 per_variant_size: 0 1360 0 0 0 0 0 0 0 
Heartbeat_Variant_1 : 1258 0.307129 per_variant_size: 0 587 671 0 0 0 0 0 0 
Heartbeat_Variant_2 : 1349 0.329346 per_variant_size: 0 535 385 329 100 0 0 0 0 
Heartbeat_Variant_3 : 0 0 per_variant_size: 0 0 0 0 0 0 0 0 0 
Heartbeat_Variant_0_evicts 0 : 5718 1 : 164 2 : 148 3 : 0 
Heartbeat_Variant_1_evicts 0 : 154 1 : 0 2 : 372 3 : 0 
Heartbeat_Variant_2_evicts 0 : 153 1 : 375 2 : 0 3 : 0 
Heartbeat_Variant_3_evicts 0 : 0 1 : 0 2 : 0 3 : 0 
Heartbeat CPU 0 instructions: 40000000 cycles: 11187849 heartbeat IPC: 3.57554 cumulative IPC: 3.57531 (Simulation time: 0 hr 6 min 56 sec) 
Heartbeat_Variant_0 : 1360 0.332031 per_variant_size: 0 1360 0 0 0 0 0 0 0 
Heartbeat_Variant_1 : 1263 0.30835 per_variant_size: 0 588 675 0 0 0 0 0 0 
Heartbeat_Variant_2 : 1349 0.329346 per_variant_size: 0 534 384 348 83 0 0 0 0 
Heartbeat_Variant_3 : 0 0 per_variant_size: 0 0 0 0 0 0 0 0 0 
Heartbeat_Variant_0_evicts 0 : 5660 1 : 7 2 : 11 3 : 0 
Heartbeat_Variant_1_evicts 0 : 9 1 : 0 2 : 252 3 : 0 
Heartbeat_Variant_2_evicts 0 : 10 1 : 250 2 : 0 3 : 0 
Heartbeat_Variant_3_evicts 0 : 0 1 : 0 2 : 0 3 : 0 
Heartbeat CPU 0 instructions: 50000001 cycles: 13984750 heartbeat IPC: 3.57539 cumulative IPC: 3.57532 (Simulation time: 0 hr 8 min 37 sec) 

Warmup complete CPU 0 instructions: 50000001 cycles: 13984750 (Simulation time: 0 hr 8 min 37 sec) 

Cycle: 20000000 FTQ IN: 58088259 FTQ occupancy: 19.4992 DECODE IN: 58088259 DECODE occupancy: 51.0536 ROB IN: 58088259 ROB occupancy: 312.129 ROB OUT: 58088243
Heartbeat_Variant_0 : 1374 0.335449 per_variant_size: 0 1374 0 0 0 0 0 0 0 
Heartbeat_Variant_1 : 1255 0.306396 per_variant_size: 0 572 683 0 0 0 0 0 0 
Heartbeat_Variant_2 : 1373 0.335205 per_variant_size: 0 554 376 337 106 0 0 0 0 
Heartbeat_Variant_3 : 0 0 per_variant_size: 0 0 0 0 0 0 0 0 0 
Heartbeat_Variant_0_evicts 0 : 5700 1 : 151 2 : 144 3 : 0 
Heartbeat_Variant_1_evicts 0 : 142 1 : 0 2 : 412 3 : 0 
Heartbeat_Variant_2_evicts 0 : 142 1 : 427 2 : 0 3 : 0 
Heartbeat_Variant_3_evicts 0 : 0 1 : 0 2 : 0 3 : 0 
Heartbeat CPU 0 instructions: 60000003 cycles: 21389649 heartbeat IPC: 1.35046 cumulative IPC: 1.35046 (Simulation time: 0 hr 10 min 30 sec) 
Heartbeat_Variant_0 : 1374 0.335449 per_variant_size: 0 1374 0 0 0 0 0 0 0 
Heartbeat_Variant_1 : 1258 0.307129 per_variant_size: 0 570 688 0 0 0 0 0 0 
Heartbeat_Variant_2 : 1373 0.335205 per_variant_size: 0 550 379 344 100 0 0 0 0 
Heartbeat_Variant_3 : 0 0 per_variant_size: 0 0 0 0 0 0 0 0 0 
Heartbeat_Variant_0_evicts 0 : 5580 1 : 9 2 : 8 3 : 0 
Heartbeat_Variant_1_evicts 0 : 9 1 : 0 2 : 263 3 : 0 
Heartbeat_Variant_2_evicts 0 : 8 1 : 260 2 : 0 3 : 0 
Heartbeat_Variant_3_evicts 0 : 0 1 : 0 2 : 0 3 : 0 
Heartbeat CPU 0 instructions: 70000003 cycles: 28684629 heartbeat IPC: 1.37081 cumulative IPC: 1.36056 (Simulation time: 0 hr 12 min 19 sec) 
Cycle: 30000000 FTQ IN: 13666938 FTQ occupancy: 11.3897 DECODE IN: 13666799 DECODE occupancy: 30.3377 ROB IN: 13666739 ROB occupancy: 229.673 ROB OUT: 13666403
Heartbeat_Variant_0 : 1371 0.334717 per_variant_size: 0 1371 0 0 0 0 0 0 0 
Heartbeat_Variant_1 : 1264 0.308594 per_variant_size: 0 570 694 0 0 0 0 0 0 
Heartbeat_Variant_2 : 1374 0.335449 per_variant_size: 0 542 379 343 110 0 0 0 0 
Heartbeat_Variant_3 : 0 0 per_variant_size: 0 0 0 0 0 0 0 0 0 
Heartbeat_Variant_0_evicts 0 : 5608 1 : 28 2 : 26 3 : 0 
Heartbeat_Variant_1_evicts 0 : 34 1 : 0 2 : 290 3 : 0 
Heartbeat_Variant_2_evicts 0 : 23 1 : 291 2 : 0 3 : 0 
Heartbeat_Variant_3_evicts 0 : 0 1 : 0 2 : 0 3 : 0 
Heartbeat CPU 0 instructions: 80000002 cycles: 36052792 heartbeat IPC: 1.35719 cumulative IPC: 1.35943 (Simulation time: 0 hr 14 min 10 sec) 
Cycle: 40000000 FTQ IN: 13602446 FTQ occupancy: 11.3575 DECODE IN: 13602552 DECODE occupancy: 30.0966 ROB IN: 13602597 ROB occupancy: 227.31 ROB OUT: 13602601
Heartbeat_Variant_0 : 1374 0.335449 per_variant_size: 0 1374 0 0 0 0 0 0 0 
Heartbeat_Variant_1 : 1265 0.308838 per_variant_size: 0 569 696 0 0 0 0 0 0 
Heartbeat_Variant_2 : 1375 0.335693 per_variant_size: 0 546 375 347 107 0 0 0 0 
Heartbeat_Variant_3 : 0 0 per_variant_size: 0 0 0 0 0 0 0 0 0 
Heartbeat_Variant_0_evicts 0 : 5639 1 : 26 2 : 35 3 : 0 
Heartbeat_Variant_1_evicts 0 : 28 1 : 0 2 : 280 3 : 0 
Heartbeat_Variant_2_evicts 0 : 31 1 : 282 2 : 0 3 : 0 
Heartbeat_Variant_3_evicts 0 : 0 1 : 0 2 : 0 3 : 0 
Heartbeat CPU 0 instructions: 90000000 cycles: 43384131 heartbeat IPC: 1.36401 cumulative IPC: 1.36057 (Simulation time: 0 hr 16 min 0 sec) 
Cycle: 50000000 FTQ IN: 13582138 FTQ occupancy: 11.4851 DECODE IN: 13582171 DECODE occupancy: 30.4688 ROB IN: 13582186 ROB occupancy: 227.993 ROB OUT: 13582241
Heartbeat_Variant_0 : 1376 0.335938 per_variant_size: 0 1376 0 0 0 0 0 0 0 
Heartbeat_Variant_1 : 1269 0.309814 per_variant_size: 0 576 693 0 0 0 0 0 0 
Heartbeat_Variant_2 : 1374 0.335449 per_variant_size: 0 541 372 356 105 0 0 0 0 
Heartbeat_Variant_3 : 0 0 per_variant_size: 0 0 0 0 0 0 0 0 0 
Heartbeat_Variant_0_evicts 0 : 5631 1 : 26 2 : 32 3 : 0 
Heartbeat_Variant_1_evicts 0 : 26 1 : 0 2 : 276 3 : 0 
Heartbeat_Variant_2_evicts 0 : 30 1 : 274 2 : 0 3 : 0 
Heartbeat_Variant_3_evicts 0 : 0 1 : 0 2 : 0 3 : 0 
Heartbeat CPU 0 instructions: 100000001 cycles: 50770688 heartbeat IPC: 1.35381 cumulative IPC: 1.35922 (Simulation time: 0 hr 17 min 39 sec) 
Finished CPU 0 instructions: 50000000 cycles: 36785938 cumulative IPC: 1.35922 (Simulation time: 0 hr 17 min 39 sec) 

ChampSim completed all CPUs

Region of Interest Statistics

CPU 0 cumulative IPC: 1.35922 instructions: 50000000 cycles: 36785938
 Fetch stage stalled: 57.2877  Sim cycles: 36785938 fetch stall cycle: 21073830
 Empty decode stage: 39.9285  Sim cycles: 36785938 fetch stall cycle: 14688083
ITLB TOTAL     ACCESS:    6888699  HIT:    6383635  MISS:     505064  HIT %:    92.6682  MISS %:    7.33178   MPKI: 10.1013
ITLB LOAD TRANSLATION INSTRUCTION	ACCESS:    5667351  HIT:    5181273  MISS:     486078  HIT %:    91.4232  MISS %:    8.57681  MPKI: 9.72156
ITLB TRANSLATION FROM L1D PREFETCHER INSTRUCTION	ACCESS:    1221348  HIT:    1202362  MISS:      18986  HIT %:    98.4455  MISS %:    1.55451  MPKI: 0.37972

ITLB AVERAGE MISS LATENCY: 67701.1 cycles
ITLB RQ	ACCESS:   10124750	FORWARD:          0	MERGED:    2763945	TO_CACHE:    7360805

DTLB TOTAL     ACCESS:    8989017  HIT:    8515686  MISS:     473331  HIT %:    94.7343  MISS %:    5.26566   MPKI: 9.46662
DTLB LOAD TRANSLATION DATA	ACCESS:    8989017  HIT:    8515686  MISS:     473331  HIT %:    94.7343  MISS %:    5.26566  MPKI: 9.46662

DTLB AVERAGE MISS LATENCY: 9.33689 cycles
DTLB RQ	ACCESS:   13353436	FORWARD:          0	MERGED:    4328266	TO_CACHE:    9025170

STLB TOTAL     ACCESS:    1227791  HIT:    1225602  MISS:       2189  HIT %:    99.8217  MISS %:   0.178288   MPKI: 0.04378
STLB LOAD TRANSLATION INSTRUCTION	ACCESS:     485025  HIT:     484734  MISS:        291  HIT %:      99.94  MISS %:  0.0599969  MPKI: 0.00582
STLB TRANSLATION FROM L1D PREFETCHER INSTRUCTION	ACCESS:      20039  HIT:      20011  MISS:         28  HIT %:    99.8603  MISS %:   0.139728  MPKI: 0.00056
STLB LOAD TRANSLATION DATA	ACCESS:     473331  HIT:     471487  MISS:       1844  HIT %:    99.6104  MISS %:   0.389579  MPKI: 0.03688
STLB TRANSLATION FROM L1D PREFETCHER DATA	ACCESS:     249396  HIT:     249370  MISS:         26  HIT %:    99.9896  MISS %:  0.0104252  MPKI: 0.00052

STLB AVERAGE MISS LATENCY: 70.6396 cycles
STLB RQ	ACCESS:    1371832	FORWARD:          0	MERGED:     120725	TO_CACHE:    1251107

STLB Hit, L1D data hit: 0
STLB Hit, L2C data hit: 0
STLB Hit, LLC data hit: 0
STLB Hit, LLC data miss: 0
STLB STLB hints to L2: 0
L1D TOTAL     ACCESS:   13089925  HIT:   11969404  MISS:    1120521  HIT %:    91.4398  MISS %:    8.56018   MPKI: 22.4104
L1D LOAD DATA	ACCESS:    6562094  HIT:    5824757  MISS:     737337  HIT %:    88.7637  MISS %:    11.2363  MPKI: 14.7467
L1D RFO DATA	ACCESS:    6199565  HIT:    5912200  MISS:     287365  HIT %:    95.3648  MISS %:    4.63524  MPKI: 5.7473
L1D PREFETCH DATA	ACCESS:     328266  HIT:     232447  MISS:      95819  HIT %:    70.8106  MISS %:    29.1894  MPKI: 1.91638

L1D PREFETCH  REQUESTED:     740668  ISSUED:     740668  USEFUL:      35571  USELESS:      69037
L1D USEFUL LOAD PREFETCHES:      35571 PREFETCH ISSUED TO LOWER LEVEL:     104746  ACCURACY: 33.9593
 TIMELY PREFETCHES:      35571 LATE PREFETCHES: 8813 DROPPED PREFETCHES: 2
L1D AVERAGE MISS LATENCY: 251379 cycles
L1D RQ	ACCESS:   10705301	FORWARD:          0	MERGED:    3940886	TO_CACHE:    6599247
L1D WQ	ACCESS:    6950533	FORWARD:     165546	MERGED:     196344	TO_CACHE:    6754189
L1D PQ	ACCESS:     370523	FORWARD:          0	MERGED:          0	TO_CACHE:     370145

L1D UNIQUE REGIONS ACCESSED: 0
L1D REGIONS CONFLICTS: 0
L1D Cross Page Prefetch Requests: 6443
L1D Same Page Prefetch Requests: 749911
L1D ROI Sum of L1D PQ occupancy: 4709198
L1D PREFETCHES PUSHED FROM L2C: 0
L1I TOTAL     ACCESS:    8761290  HIT:    5454128  MISS:    3307162  HIT %:    62.2526  MISS %:    37.7474   MPKI: 66.1432
L1I LOAD INSTRUCTION	ACCESS:    6569939  HIT:    4451607  MISS:    2118332  HIT %:    67.7572  MISS %:    32.2428  MPKI: 42.3666
L1I PREFETCH INSTRUCTION	ACCESS:    2191351  HIT:    1002521  MISS:    1188830  HIT %:     45.749  MISS %:     54.251  MPKI: 23.7766

L1I PREFETCH  REQUESTED:    3895866  ISSUED:    3892366  USEFUL:     933988  USELESS:     484755
L1I USEFUL LOAD PREFETCHES:     933988 PREFETCH ISSUED TO LOWER LEVEL:    1418702  ACCURACY: 65.834
 TIMELY PREFETCHES:     933988 LATE PREFETCHES: 229872 DROPPED PREFETCHES: 54839
L1I AVERAGE MISS LATENCY: 2.24797e+06 cycles
L1I RQ	ACCESS:    9495425	FORWARD:          0	MERGED:    2728578	TO_CACHE:    6766847
L1I PQ	ACCESS:    3892366	FORWARD:          0	MERGED:     534463	TO_CACHE:    3357903

L1BTB TOTAL     ACCESS:    5668129  HIT:    2040046  MISS:    3628083  HIT %:    35.9915  MISS %:    64.0085   MPKI: 72.5617
L1BTB BRANCH_DIRECT_JUMP	ACCESS:     546980  HIT:     144160  MISS:     402820	AVERAGE STALL: 41.9786
L1BTB BRANCH_INDIRECT	ACCESS:     182413  HIT:      65665  MISS:     116748	AVERAGE STALL: 98.6965
L1BTB BRANCH_CONDITIONAL	ACCESS:    2700947  HIT:    1409580  MISS:    1291367	AVERAGE STALL: 63.2687
L1BTB BRANCH_DIRECT_CALL	ACCESS:     946670  HIT:     106581  MISS:     840089	AVERAGE STALL: 62.7923
L1BTB BRANCH_INDIRECT_CALL	ACCESS:     172227  HIT:      21850  MISS:     150377	AVERAGE STALL: 124.719
L1BTB BRANCH_RETURN	ACCESS:    1118892  HIT:     292210  MISS:     826682	AVERAGE STALL: 45.5585
L1BTB BRANCH_OTHER ACCESS:          0  HIT:          0  MISS:          0	AVERAGE STALL: -nan
L1BTB TOTAL ROB OCCUPANCY AT BTB MISS: 4.88703

L2BTB TOTAL     ACCESS:    3602755  HIT:    3498695  MISS:     104060  HIT %:    97.1117  MISS %:    2.88835   MPKI: 2.0812
L2BTB BRANCH_DIRECT_JUMP	ACCESS:     398674  HIT:     392487  MISS:       6187	AVERAGE STALL: 41.9786
L2BTB BRANCH_INDIRECT	ACCESS:     106482  HIT:     103793  MISS:       2689	AVERAGE STALL: 98.6965
L2BTB BRANCH_CONDITIONAL	ACCESS:    1291367  HIT:    1265272  MISS:      26095	AVERAGE STALL: 63.2687
L2BTB BRANCH_DIRECT_CALL	ACCESS:     840089  HIT:     838638  MISS:       1451	AVERAGE STALL: 62.7923
L2BTB BRANCH_INDIRECT_CALL	ACCESS:     140868  HIT:     130493  MISS:      10375	AVERAGE STALL: 124.719
L2BTB BRANCH_RETURN	ACCESS:     825275  HIT:     768012  MISS:      57263	AVERAGE STALL: 45.5585
L2BTB BRANCH_OTHER ACCESS:          0  HIT:          0  MISS:          0	AVERAGE STALL: -nan
L2BTB TOTAL ROB OCCUPANCY AT BTB MISS: 170.388

L2C TOTAL     ACCESS:    5673315  HIT:    4949973  MISS:     723342  HIT %:    87.2501  MISS %:    12.7499   MPKI: 14.4668
L2C LOAD INSTRUCTION	ACCESS:    1888460  HIT:    1683790  MISS:     204670  HIT %:    89.1621  MISS %:    10.8379  MPKI: 4.0934
L2C PREFETCH INSTRUCTION	ACCESS:    1418702  HIT:    1272197  MISS:     146505  HIT %:    89.6733  MISS %:    10.3267  MPKI: 2.9301
L2C LOAD TRANSLATION INSTRUCTION	ACCESS:        327  HIT:         89  MISS:        238  HIT %:    27.2171  MISS %:    72.7829  MPKI: 0.00476
L2C TRANSLATION FROM L1D PREFETCHER INSTRUCTION	ACCESS:      34734  HIT:      24159  MISS:      10575  HIT %:    69.5543  MISS %:    30.4457  MPKI: 0.2115
L2C LOAD DATA	ACCESS:     728497  HIT:     626979  MISS:     101518  HIT %:    86.0647  MISS %:    13.9353  MPKI: 2.03036
L2C RFO DATA	ACCESS:     287233  HIT:     214668  MISS:      72565  HIT %:    74.7365  MISS %:    25.2635  MPKI: 1.4513
L2C PREFETCH DATA	ACCESS:     790579  HIT:     628655  MISS:     161924  HIT %:    79.5183  MISS %:    20.4817  MPKI: 3.23848
L2C WRITEBACK DATA	ACCESS:     522805  HIT:     498940  MISS:      23865  HIT %:    95.4352  MISS %:     4.5648  MPKI: 0.4773
L2C LOAD TRANSLATION DATA	ACCESS:       1939  HIT:        469  MISS:       1470  HIT %:    24.1877  MISS %:    75.8123  MPKI: 0.0294
L2C TRANSLATION FROM L1D PREFETCHER DATA	ACCESS:         39  HIT:         27  MISS:         12  HIT %:    69.2308  MISS %:    30.7692  MPKI: 0.00024

L2C PREFETCH  REQUESTED:    1475890  ISSUED:    1475890  USEFUL:      25565  USELESS:     296136
L2C USEFUL LOAD PREFETCHES:      25565 PREFETCH ISSUED TO LOWER LEVEL:     310356  ACCURACY: 8.23731
 TIMELY PREFETCHES:      25565 LATE PREFETCHES: 1927 DROPPED PREFETCHES: 0
L2C AVERAGE MISS LATENCY: 36.5485 cycles
L2C RQ	ACCESS:    2941274	FORWARD:          0	MERGED:          0	TO_CACHE:    2941230
L2C WQ	ACCESS:     522805	FORWARD:         44	MERGED:          0	TO_CACHE:     522805
L2C PQ	ACCESS:    2999338	FORWARD:          0	MERGED:     775048	TO_CACHE:    2224290

L2C Dense regions hint from L2: 0
PSCL5 TOTAL     ACCESS:      50970  HIT:      25485  MISS:      25485  HIT %:         50  MISS %:         50   MPKI: 0.5097
PSCL5 LOAD TRANSLATION INSTRUCTION	ACCESS:       4252  HIT:       2126  MISS:       2126  HIT %:         50  MISS %:         50  MPKI: 0.04252
PSCL5 TRANSLATION FROM L1D PREFETCHER INSTRUCTION	ACCESS:      46718  HIT:      23359  MISS:      23359  HIT %:         50  MISS %:         50  MPKI: 0.46718


PSCL4 TOTAL     ACCESS:      44833  HIT:      22409  MISS:      22424  HIT %:    49.9833  MISS %:    50.0167   MPKI: 0.44848
PSCL4 LOAD TRANSLATION INSTRUCTION	ACCESS:       2158  HIT:       1940  MISS:        218  HIT %:    89.8981  MISS %:    10.1019  MPKI: 0.00436
PSCL4 TRANSLATION FROM L1D PREFETCHER INSTRUCTION	ACCESS:      27455  HIT:      20469  MISS:       6986  HIT %:    74.5547  MISS %:    25.4453  MPKI: 0.13972
PSCL4 LOAD TRANSLATION DATA	ACCESS:       1737  HIT:          0  MISS:       1737  HIT %:          0  MISS %:        100  MPKI: 0.03474
PSCL4 TRANSLATION FROM L1D PREFETCHER DATA	ACCESS:      13483  HIT:          0  MISS:      13483  HIT %:          0  MISS %:        100  MPKI: 0.26966


PSCL3 TOTAL     ACCESS:      44927  HIT:      22456  MISS:      22471  HIT %:    49.9833  MISS %:    50.0167   MPKI: 0.44942
PSCL3 LOAD TRANSLATION INSTRUCTION	ACCESS:       2205  HIT:       1987  MISS:        218  HIT %:    90.1134  MISS %:    9.88662  MPKI: 0.00436
PSCL3 TRANSLATION FROM L1D PREFETCHER INSTRUCTION	ACCESS:      27455  HIT:      20469  MISS:       6986  HIT %:    74.5547  MISS %:    25.4453  MPKI: 0.13972
PSCL3 LOAD TRANSLATION DATA	ACCESS:       1784  HIT:          0  MISS:       1784  HIT %:          0  MISS %:        100  MPKI: 0.03568
PSCL3 TRANSLATION FROM L1D PREFETCHER DATA	ACCESS:      13483  HIT:          0  MISS:      13483  HIT %:          0  MISS %:        100  MPKI: 0.26966


PSCL2 TOTAL     ACCESS:      33158  HIT:      16517  MISS:      16641  HIT %:     49.813  MISS %:     50.187   MPKI: 0.33282
PSCL2 LOAD TRANSLATION INSTRUCTION	ACCESS:       2309  HIT:       2010  MISS:        299  HIT %:    87.0507  MISS %:    12.9493  MPKI: 0.00598
PSCL2 TRANSLATION FROM L1D PREFETCHER INSTRUCTION	ACCESS:      27590  HIT:      14507  MISS:      13083  HIT %:    52.5806  MISS %:    47.4194  MPKI: 0.26166
PSCL2 LOAD TRANSLATION DATA	ACCESS:       1835  HIT:          0  MISS:       1835  HIT %:          0  MISS %:        100  MPKI: 0.0367
PSCL2 TRANSLATION FROM L1D PREFETCHER DATA	ACCESS:       1424  HIT:          0  MISS:       1424  HIT %:          0  MISS %:        100  MPKI: 0.02848


LLC TOTAL     ACCESS:     806027  HIT:     772537  MISS:      33490  HIT %:    95.8451  MISS %:    4.15495   MPKI: 0.6698
LLC LOAD INSTRUCTION	ACCESS:     203231  HIT:     202529  MISS:        702  HIT %:    99.6546  MISS %:    0.34542  MPKI: 0.01404
LLC PREFETCH INSTRUCTION	ACCESS:     144717  HIT:     143689  MISS:       1028  HIT %:    99.2896  MISS %:   0.710352  MPKI: 0.02056
LLC LOAD TRANSLATION INSTRUCTION	ACCESS:        238  HIT:        229  MISS:          9  HIT %:    96.2185  MISS %:    3.78151  MPKI: 0.00018
LLC TRANSLATION FROM L1D PREFETCHER INSTRUCTION	ACCESS:      10575  HIT:      10431  MISS:        144  HIT %:    98.6383  MISS %:     1.3617  MPKI: 0.00288
LLC LOAD DATA	ACCESS:     101052  HIT:      97052  MISS:       4000  HIT %:    96.0416  MISS %:    3.95836  MPKI: 0.08
LLC RFO DATA	ACCESS:      72540  HIT:      57188  MISS:      15352  HIT %:    78.8365  MISS %:    21.1635  MPKI: 0.30704
LLC PREFETCH DATA	ACCESS:     165639  HIT:     153838  MISS:      11801  HIT %:    92.8755  MISS %:    7.12453  MPKI: 0.23602
LLC WRITEBACK DATA	ACCESS:     106553  HIT:     106181  MISS:        372  HIT %:    99.6509  MISS %:   0.349122  MPKI: 0.00744
LLC LOAD TRANSLATION DATA	ACCESS:       1470  HIT:       1389  MISS:         81  HIT %:    94.4898  MISS %:     5.5102  MPKI: 0.00162
LLC TRANSLATION FROM L1D PREFETCHER DATA	ACCESS:         12  HIT:         11  MISS:          1  HIT %:    91.6667  MISS %:    8.33333  MPKI: 2e-05

LLC AVERAGE MISS LATENCY: 161.516 cycles
LLC RQ	ACCESS:     389121	FORWARD:          0	MERGED:          0	TO_CACHE:     389118
LLC WQ	ACCESS:     106553	FORWARD:          3	MERGED:          0	TO_CACHE:     106553
LLC PQ	ACCESS:     310356	FORWARD:          0	MERGED:          0	TO_CACHE:     310356

LLC Dense regions hint to LLC: 0

RAW hits: 1932173
Loads Generated: 12637474
Loads sent to L1D: 10705301
Stores Generated: 6950515
Stores sent to L1D: 6950533
Major fault: 0 Minor fault: 2577
Allocated PAGES: 2577
I-Shadow cache 408 bytes
Touched + WorthPF tables 12288 bytes 
MMA filter 42 bytes 
FNL filter 272 bytes 
TOTAL PREFETCHER STORAGE SIZE: 19922 bytes
CPU 0 L1I next line prefetcher final stats

stream: 
stream:times selected: 1186392
stream:pref_filled: 120733
stream:pref_useful: 23002
stream:pref_late: 7974
stream:misses: 8402
stream:misses_by_poll: 0

CS: 
CS:times selected: 180206
CS:pref_filled: 56732
CS:pref_useful: 33387
CS:pref_late: 10802
CS:misses: 20820
CS:misses_by_poll: 2

CPLX: 
CPLX:times selected: 1004984
CPLX:pref_filled: 18769
CPLX:pref_useful: 3879
CPLX:pref_late: 3893
CPLX:misses: 94675
CPLX:misses_by_poll: 2

NL_L1: 
NL:times selected: 18578
NL:pref_filled: 602
NL:pref_useful: 224
NL:pref_late: 398
NL:misses: 1575
NL:misses_by_poll: 0

total selections: 2390160
total_filled: 95819
total_useful: 35571
total_late: 24576
total_polluted: 4
total_misses_after_warmup: 774489
conflicts: 5525205

test: 119004

DRAM Statistics
 CHANNEL 0
 RQ ROW_BUFFER_HIT:      11557  ROW_BUFFER_MISS:      21550
 DBUS_CONGESTED:          3
 WQ ROW_BUFFER_HIT:       1623  ROW_BUFFER_MISS:      13735  FULL:          0

 AVG_CONGESTED_CYCLE: 6

CPU 0 Branch Prediction Accuracy: 99.8232% MPKI: 0.32328 Average ROB Occupancy at Mispredict: 185.801
Branch types
NOT_BRANCH: 40855741 81.7115%
BRANCH_DIRECT_JUMP: 546980 1.09396%
BRANCH_INDIRECT: 182413 0.364826%
BRANCH_CONDITIONAL: 6176679 12.3534%
BRANCH_DIRECT_CALL: 946670 1.89334%
BRANCH_INDIRECT_CALL: 172227 0.344454%
BRANCH_RETURN: 1118892 2.23778%
BRANCH_OTHER: 0 0%

DRAM PAGES: 1048576
Allocated PAGES: 2577
Average_ROB_Occupancy: 229.322
Average_Decode_Occupancy: 30.2604
Average_FTQ_Occupancy: 11.399
Indirect max targets: 14 Average targets: 1.14966
Branch_type:  BRANCH_DIRECT_JUMP:  Count Percentage: 3.24604 6.67624 3.95083 8.43024 1.69722 6.83195 1.16022 68.0073 
Branch_type:  BRANCH_INDIRECT:  Count Percentage: 11.7452 3.43234 10.5294 28.7079 3.34712 4.81886 2.00937 35.4098 
Branch_type:  BRANCH_CONDITIONAL:  Count Percentage: 20.9535 2.9195 2.88683 4.7076 1.45331 5.4417 0.648641 60.9889 
Branch_type:  BRANCH_DIRECT_CALL:  Count Percentage: 0.257983 1.26951 1.42541 2.12862 2.75634 2.97986 0.613819 88.5685 
Branch_type:  BRANCH_INDIRECT_CALL:  Count Percentage: 9.51475 0.565535 2.98249 4.82549 1.4346 2.98046 0.993389 76.7033 
Branch_type:  BRANCH_RETURN:  Count Percentage: 3.77363 0.568521 2.25245 6.32093 2.92523 5.44968 1.02683 77.6827 
Branch_type:  BRANCH_DIRECT_JUMP:  Total Count: 35501 73016 43209 92199 18562 74719 12689 743775 
Branch_type:  BRANCH_INDIRECT:  Total Count: 42863 12526 38426 104767 12215 17586 7333 129225 
Branch_type:  BRANCH_CONDITIONAL:  Total Count: 2587886 360576 356540 581416 179492 672082 80111 7532485 
Branch_type:  BRANCH_DIRECT_CALL:  Total Count: 4880 24014 26963 40265 52139 56367 11611 1675362 
Branch_type:  BRANCH_INDIRECT_CALL:  Total Count: 32757 1947 10268 16613 4939 10261 3420 264071 
Branch_type:  BRANCH_RETURN:  Total Count: 84404 12716 50380 141379 65428 121892 22967 1737514 
Number of unique branch instructions: 9897
Upper 32 bits: 
aaaa
ffff
ffff0000
Unique upper 32 bits: 3
Unique upper 36 bits: 3
Unique upper 40 bits: 5
Unique upper 44 bits: 32
Unique upper 48 bits: 154
Variant_0 : 1376 0.335938
Variant_1 : 1269 0.309814
Variant_2 : 1374 0.335449
Variant_3 : 0 0
Offset_3 4062
Offset_4 241
Offset_5 454
Offset_6 502
Offset_7 581
Offset_8 509
Offset_9 463
Offset_10 378
Offset_11 313
Offset_12 287
Offset_13 203
Offset_14 227
Offset_15 189
Offset_16 225
Offset_17 144
Offset_18 126
Offset_19 240
Offset_20 141
Offset_21 235
Offset_22 393
Offset_23 241
Offset_24 327
Offset_25 88
Offset_47 80
Offset_64 1
decode_dispatch_called: 24515617 66.644
Dispatch_width: 0 13091940 53.4024 35.5895
Dispatch_width: 1 852536 3.47752 2.31756
Dispatch_width: 2 796320 3.24822 2.16474
Dispatch_width: 3 476718 1.94455 1.29592
Dispatch_width: 4 4735523 19.3164 12.8732
Dispatch_width: 5 193119 0.787739 0.52498
Dispatch_width: 6 4369461 17.8232 11.8781
Empty_decode_cycles: 12270321 33.356
ROB_full_cycles: 7681617 20.8819
Starvation_cycles_per_kilo_instr: 247.349
Starvation_cycles_per_kilo_instr_3: 198.062
Starvation_cycles_per_kilo_instr_0: 176.806
Branch_type_1  (3,1)  (4,9)  (5,37)  (6,69)  (7,114)  (8,129)  (9,122)  (10,96)  (11,70)  (12,51)  (13,5)  (14,2)  (15,3)  (16,4)  (18,1)  (19,4)  (20,2)  (21,1)  (22,3)  (23,2)  (24,10)  (25,12) 
Branch_type_2  (3,1)  (5,1)  (8,3)  (9,3)  (12,1)  (13,1)  (14,1)  (16,3)  (17,2)  (20,2)  (21,2)  (23,5)  (24,1)  (47,36) 
Branch_type_3  (3,4060)  (4,232)  (5,412)  (6,417)  (7,436)  (8,314)  (9,253)  (10,153)  (11,128)  (12,58)  (13,4)  (64,1) 
Branch_type_4  (6,4)  (7,8)  (8,26)  (9,53)  (10,61)  (11,59)  (12,98)  (13,88)  (14,102)  (15,89)  (16,101)  (17,64)  (18,57)  (19,117)  (20,73)  (21,124)  (22,210)  (23,136)  (24,188)  (25,72) 
Branch_type_5  (8,2)  (9,1)  (10,3)  (11,5)  (12,3)  (13,14)  (14,16)  (15,11)  (16,20)  (17,11)  (18,16)  (19,12)  (20,10)  (21,13)  (22,42)  (23,26)  (24,37) 
Branch_type_6  (5,4)  (6,12)  (7,23)  (8,35)  (9,31)  (10,65)  (11,51)  (12,76)  (13,91)  (14,106)  (15,86)  (16,97)  (17,67)  (18,52)  (19,107)  (20,54)  (21,95)  (22,138)  (23,72)  (24,91)  (25,4)  (47,44) 
Unique trigger count: 
Variant_0_evicts_0 : 0
Variant_0_evicts_1 : 0
Variant_0_evicts_2 : 0
Variant_0_evicts_3 : 0
Variant_1_evicts_0 : 0
Variant_1_evicts_1 : 0
Variant_1_evicts_2 : 0
Variant_1_evicts_3 : 0
Variant_2_evicts_0 : 0
Variant_2_evicts_1 : 0
Variant_2_evicts_2 : 0
Variant_2_evicts_3 : 0
Variant_3_evicts_0 : 0
Variant_3_evicts_1 : 0
Variant_3_evicts_2 : 0
Variant_3_evicts_3 : 0
BTB PER SET UNIQUE ADDR: 11 10 8 13 8 11 9 10 10 14 11 9 14 8 9 9 7 9 13 10 8 10 15 11 8 13 12 13 10 12 13 16 9 9 10 9 11 13 7 12 11 8 14 18 11 10 12 4 13 11 16 12 9 9 7 3 9 10 10 10 10 17 8 10 5 12 9 5 13 10 10 12 12 10 5 6 7 11 7 7 12 6 8 15 7 12 9 10 8 19 4 5 14 10 6 9 9 10 7 16 14 18 14 8 9 10 11 9 9 8 13 13 9 9 11 6 12 12 7 14 13 6 8 7 11 13 4 11 15 12 12 14 9 13 10 12 7 10 10 16 9 12 12 11 14 9 15 6 9 11 10 13 10 10 6 14 14 9 12 15 15 8 10 12 12 12 15 6 8 12 14 11 8 10 10 14 12 13 10 7 8 9 9 12 17 13 7 9 10 10 12 6 9 13 12 9 8 9 7 10 15 10 11 8 8 14 9 12 7 10 10 17 11 9 7 10 13 13 13 14 4 9 9 6 6 12 19 5 7 12 8 6 12 11 6 12 9 8 12 6 11 10 14 15 8 10 7 8 11 12 17 5 12 9 12 10 11 10 7 9 10 10 4 11 12 6 7 9 8 12 9 13 6 7 7 8 9 13 9 11 7 14 8 4 14 6 9 19 14 10 9 9 12 13 4 12 8 15 12 11 11 7 11 18 10 19 9 7 14 11 10 17 10 16 12 9 9 13 10 13 14 13 7 12 13 14 9 7 10 10 11 7 8 10 9 8 11 11 9 10 8 8 6 13 11 13 8 10 10 14 13 11 12 12 11 13 12 17 6 8 11 11 7 13 12 13 6 10 14 9 11 11 10 14 9 10 9 13 11 9 7 8 6 9 9 13 10 12 12 12 12 7 10 11 10 7 10 9 13 8 8 14 14 8 13 9 10 10 12 8 12 5 5 15 11 12 12 15 15 12 12 12 9 14 12 12 9 11 9 10 11 7 9 13 11 16 8 8 10 14 9 11 7 10 18 7 8 12 7 15 7 15 13 9 16 21 14 12 6 16 6 10 11 14 16 6 7 12 10 10 11 8 13 14 14 16 9 11 7 15 14 7 11 12 9 15 15 8 15 10 7 12 9 5 7 11 11 15 9 6 11 11 10 15 7 10 10 15 13 9 9 17 12 11 8 8 10 15 8 10 6 8 7 7 12 12 15 7 8 10 10 13 9 10 7 14 8 12 14 12 15 9 15 12 16 12 11 11 8 13 13 14 7 12 10 10 10 8 15 11 11 15 7 10 6 10 7 12 11 15 10 15 12 15 13 10 18 17 9 11 9 11 5 8 14 13 12 8 13 9 10 16 6 8 10 11 7 9 12 8 10 11 7 6 7 17 15 9 12 6 10 14 8 7 5 15 9 10 9 7 17 12 7 9 10 8 9 13 9 13 12 10 11 11 13 8 13 12 7 16 10 4 14 14 11 11 8 12 12 13 10 16 9 10 14 14 9 14 13 10 7 7 9 15 11 10 5 15 9 10 14 7 8 14 15 5 11 14 10 16 15 14 14 8 8 11 10 12 15 16 14 11 14 5 8 11 8 12 11 12 8 13 9 12 8 12 13 7 6 6 9 17 8 8 7 12 16 10 9 13 10 8 12 11 8 11 12 11 9 10 14 6 13 9 8 9 12 7 15 14 8 14 10 10 12 18 16 10 11 8 14 5 10 13 8 13 19 9 13 8 10 8 4 10 7 12 13 10 11 6 11 14 9 4 8 9 11 9 14 10 5 13 4 10 11 10 10 7 10 7 6 8 15 13 12 15 10 11 12 8 18 6 16 15 13 11 10 13 11 9 14 16 8 12 9 12 15 13 7 14 11 19 6 14 11 12 10 9 7 10 12 15 11 13 9 10 13 8 10 12 12 15 9 8 7 16 10 9 10 8 10 14 9 12 13 16 11 12 14 11 10 10 8 8 18 7 15 9 9 10 11 10 13 12 16 4 14 8 10 12 9 6 11 14 13 11 15 13 11 12 12 9 9 13 11 7 11 9 11 8 14 5 11 15 7 9 9 12 12 12 8 8 9 11 15 8 14 15 10 11 7 9 13 10 10 14 11 14 8 7 12 17 13 11 10 19 10 13 12 11 8 15 10 10 8 14 11 15 11 12 9 13 7 7 11 12 9 17 17 7 15 12 13 13 6 11 14 12 9 12 12 7 11 10 9 11 14 9 16 16 8 11 10 8 11 18 10 12 10 13 16 10 8 13 9 9 11 11 12 13 16 14 6 9 10 10 8 15 12 17 12 14 8 8 12 7 6 9 6 8 7 14 8 9 
BTB PER SET COUNT: 1454 1447 2361 4392 3252 24 966 177 3430 936 359 13 21511 406 5924 3230 6239 2459 354 13 882 80 3498 55 1356 1418 989 2195 24 106 8324 2520 1238 245 116 18 1561 25 1468 1791 1111 10 934 326 2012 27 402 4 4721 33 2068 4098 557 30 147 2388 1854 352 869 11 11 3716 262 258 737 1544 220 545 30 583 4339 3585 64 2905 5 480 254 15 155 634 2882 1721 428 3185 209 4005 9 418 3654 4055 11 310 3848 419 1586 16 1471 333 8 9963 1389 4403 2668 2269 1173 922 3212 2800 4366 105 1210 51 3229 1824 998 11 15 840 2925 3135 2997 3883 2788 513 3559 2284 648 15 1901 5040 3266 739 387 1465 10 1287 1084 12 2723 27 11 1647 13 3598 4828 12 1548 14 407 1989 552 4314 3553 203 31 5602 400 971 2178 435 2026 1339 445 4580 4360 2019 31 1235 2672 40 528 310 1388 63 16 1577 1041 423 1650 970 2393 42 826 643 2704 423 3349 11 5457 449 24 2917 291 22 3604 8284 1846 2397 1360 2165 2461 1238 4204 1159 4367 457 1724 903 7 377 1394 1209 4280 1467 1031 1378 1542 940 1388 948 4 1672 392 1557 1483 1615 1033 5 2754 3148 1210 506 1558 13 8 3356 1834 1268 2520 11 358 3690 151 1684 330 7232 21 947 397 1568 2167 9 2845 5513 319 225 10587 362 419 14 1972 2947 4 1540 2715 8 11 4315 688 1873 11 1128 13 1273 7 3286 16 18 1569 1221 19 2586 2932 4 7628 456 1388 1588 3326 1224 3924 3325 456 2871 1395 1018 3788 4873 1624 5847 344 2930 3102 177 2292 1228 448 600 1096 3821 4088 4494 22 1931 1866 336 994 129 387 1282 1226 6772 9 22 5691 651 1526 9 438 4230 796 10 11 5486 21 10 4279 6078 11 22 1373 1982 2273 6286 1939 2627 2454 1542 2552 231 361 1464 2633 17 1666 10637 301 10853 116 1340 37 800 1845 2105 5644 758 3418 53 1521 1979 3178 1859 26 2906 1930 3767 323 2491 11 1520 11 8 2223 3221 1352 5579 2153 840 2960 5580 17 27 1805 426 757 746 11 14 4946 9 30 517 1580 252 488 2199 18 60 759 602 2184 13 334 4465 134 1103 1230 717 1912 4709 328 2947 2034 165 19 2040 1454 4029 842 1718 4725 7 6084 225 532 3127 118 9 9017 1991 2342 648 3708 147 37 7 1064 1911 7 934 1270 3011 3473 104 1180 3701 2085 3689 39 433 1475 306 1028 6071 54 137 15890 19 4303 2130 257 253 2676 1671 176 334 12 60 1080 1838 2412 715 3639 847 450 264 532 1089 3114 2762 904 4928 7302 1545 2447 3095 5754 732 625 670 1507 7279 3179 6688 58 779 190 1165 12542 969 2686 6394 2060 6916 251 431 2514 4718 1763 1728 2479 993 12 2268 24 1489 898 411 10 1171 14 1432 12 1985 51 3135 2959 482 630 3797 37 1594 1221 19 1156 2734 1035 307 604 1338 1676 5106 3093 7508 1549 171 1660 4671 2569 17 35 455 7 34 21 2593 70 628 1208 829 230 1469 4914 2132 809 5263 1821 10337 30 1496 11 673 447 8 1463 467 7905 749 920 153 503 6136 6 3410 16 228 4040 3652 2831 1475 2949 2059 1661 435 8 5012 2062 5596 3938 6 65 401 21 2894 988 2008 246 1613 493 1003 2654 201 1485 3717 1479 1719 2959 6771 2834 2855 4607 12 1474 1777 19 391 21 4154 7 1495 1935 67 4535 395 3348 16 1013 4664 16 2292 69 2137 56 3427 1056 458 20 2766 2940 7477 493 91 845 510 2583 2648 6 2211 580 15 2029 358 671 2874 1910 1087 2735 6009 1552 564 2022 680 33 2006 10 741 16 1291 4019 2102 3114 1102 4273 214 3084 18 1369 1589 117 266 1709 86 1968 3539 746 35 2600 2644 1958 6 9 200 270 1836 3716 175 2916 574 1997 808 15 8 17 3779 3752 1836 974 5403 1349 4840 431 1788 1888 899 326 1294 4743 7 5108 6560 1467 350 3101 1232 89 2902 2268 1057 7320 596 1679 6 562 4040 4416 1860 623 108 23 120 1616 1479 4 854 812 659 1311 4772 340 2562 445 4878 838 1471 2421 761 4771 3215 1704 12 986 3807 4 411 14 3431 18 1468 2709 9 871 65 739 4467 2190 2328 104 1028 2896 625 439 30 807 566 3519 3267 3569 21 2560 1473 1108 630 2346 2236 483 7311 1257 274 7 3378 1490 4850 8 3408 456 3436 1234 2754 9 1749 517 3570 1483 1365 699 2610 2271 2661 3561 3694 3311 1370 4403 923 4741 1585 1098 1546 1053 2118 612 6335 6946 3143 882 4857 696 17 2156 2485 4187 2301 1988 742 2850 1101 1896 2017 3716 473 2449 1730 3026 4662 24 980 3530 3043 2583 78 1214 87 1954 644 3993 3220 6478 204 1802 1314 437 3382 2171 4240 14 7 970 160 92 14 25 6 2746 1324 1477 139 3322 268 3807 98 11 2265 19 5044 4955 148 312 1895 554 14 2825 2166 4827 3202 989 1205 159 2126 1061 8 305 32 7495 4586 1371 1066 7273 50 43 17 3609 3423 3597 549 1459 378 19 1157 1140 1388 2583 4049 5225 6148 4174 906 1111 33 2175 158 606 1971 943 1506 11 1384 1746 2119 1271 847 668 12 3179 2569 4600 1756 2131 1963 2322 53 633 2414 1873 1497 553 4702 1801 3519 1018 1124 2459 1175 9 346 1287 2037 181 2092 20 1244 2926 5343 844 15 76 1362 95 1195 619 2393 1214 3317 5352 786 1344 144 979 12 1523 366 12 5704 1114 787 
To predecode: 1188830
Predecoding something: 744713
Predecode request dropped: 0
sizeofblock_0 0
sizeofblock_1 345098
sizeofblock_2 449444
sizeofblock_3 776238
sizeofblock_4 199309
sizeofblock_5 0
sizeofblock_6 0
sizeofblock_7 0
sizeofblock_8 0
Variant_0 Correct: 1612935 Incorrect: 0 Accuracy: 1
Variant_1 Correct: 2086603 Incorrect: 0 Accuracy: 1
Variant_2 Correct: 5057967 Incorrect: 0 Accuracy: 1
Variant_3 Correct: 0 Incorrect: 0 Accuracy: -nan
