
*** ChampSim Multicore Out-of-Order Simulator ***

Warmup Instructions: 50000000
Simulation Instructions: 50000000
Number of CPUs: 1
LLC sets: 2048
LLC ways: 16
Off-chip DRAM Size: 4096 MB Channels: 1 Width: 64-bit Data Rate: 6400 MT/s
CPU 0 runs ./micro_traces/srv245.trace.gz
.gz
ITLB has LRU replacement policy
DTLB has LRU replacement policy
STLB has LRU replacement policy
FDIP Prefetcher at L1I
L1I has LRU replacement policy
L1D has LRU replacement policy
Initialize SRRIP state for L2C
Initialize DRRIP state for LLC
Heartbeat_Variant_0 : 1324 0.323242 per_variant_size: 0 1324 0 0 0 0 0 0 0 
Heartbeat_Variant_1 : 1210 0.29541 per_variant_size: 0 593 617 0 0 0 0 0 0 
Heartbeat_Variant_2 : 1330 0.324707 per_variant_size: 0 545 392 211 182 0 0 0 0 
Heartbeat_Variant_3 : 0 0 per_variant_size: 0 0 0 0 0 0 0 0 0 
Heartbeat_Variant_0_evicts 0 : 5643 1 : 275 2 : 313 3 : 0 
Heartbeat_Variant_1_evicts 0 : 285 1 : 0 2 : 391 3 : 0 
Heartbeat_Variant_2_evicts 0 : 265 1 : 413 2 : 0 3 : 0 
Heartbeat_Variant_3_evicts 0 : 0 1 : 0 2 : 0 3 : 0 
Heartbeat CPU 0 instructions: 10000001 cycles: 2791553 heartbeat IPC: 3.58224 cumulative IPC: 3.58224 (Simulation time: 0 hr 2 min 4 sec) 
Heartbeat_Variant_0 : 1357 0.331299 per_variant_size: 0 1357 0 0 0 0 0 0 0 
Heartbeat_Variant_1 : 1233 0.301025 per_variant_size: 0 583 650 0 0 0 0 0 0 
Heartbeat_Variant_2 : 1345 0.328369 per_variant_size: 0 539 380 229 197 0 0 0 0 
Heartbeat_Variant_3 : 0 0 per_variant_size: 0 0 0 0 0 0 0 0 0 
Heartbeat_Variant_0_evicts 0 : 5474 1 : 107 2 : 101 3 : 0 
Heartbeat_Variant_1_evicts 0 : 109 1 : 0 2 : 285 3 : 0 
Heartbeat_Variant_2_evicts 0 : 88 1 : 288 2 : 0 3 : 0 
Heartbeat_Variant_3_evicts 0 : 0 1 : 0 2 : 0 3 : 0 
Heartbeat CPU 0 instructions: 20000000 cycles: 5583462 heartbeat IPC: 3.58178 cumulative IPC: 3.58201 (Simulation time: 0 hr 3 min 44 sec) 
Heartbeat_Variant_0 : 1361 0.332275 per_variant_size: 0 1361 0 0 0 0 0 0 0 
Heartbeat_Variant_1 : 1244 0.303711 per_variant_size: 0 587 657 0 0 0 0 0 0 
Heartbeat_Variant_2 : 1346 0.328613 per_variant_size: 0 524 391 236 195 0 0 0 0 
Heartbeat_Variant_3 : 0 0 per_variant_size: 0 0 0 0 0 0 0 0 0 
Heartbeat_Variant_0_evicts 0 : 5422 1 : 72 2 : 48 3 : 0 
Heartbeat_Variant_1_evicts 0 : 70 1 : 0 2 : 226 3 : 0 
Heartbeat_Variant_2_evicts 0 : 48 1 : 221 2 : 0 3 : 0 
Heartbeat_Variant_3_evicts 0 : 0 1 : 0 2 : 0 3 : 0 
Heartbeat CPU 0 instructions: 30000002 cycles: 8375068 heartbeat IPC: 3.58217 cumulative IPC: 3.58206 (Simulation time: 0 hr 5 min 22 sec) 
Heartbeat_Variant_0 : 1373 0.335205 per_variant_size: 0 1373 0 0 0 0 0 0 0 
Heartbeat_Variant_1 : 1246 0.304199 per_variant_size: 0 587 659 0 0 0 0 0 0 
Heartbeat_Variant_2 : 1363 0.332764 per_variant_size: 0 536 388 240 199 0 0 0 0 
Heartbeat_Variant_3 : 0 0 per_variant_size: 0 0 0 0 0 0 0 0 0 
Heartbeat_Variant_0_evicts 0 : 5416 1 : 94 2 : 88 3 : 0 
Heartbeat_Variant_1_evicts 0 : 88 1 : 0 2 : 255 3 : 0 
Heartbeat_Variant_2_evicts 0 : 88 1 : 261 2 : 0 3 : 0 
Heartbeat_Variant_3_evicts 0 : 0 1 : 0 2 : 0 3 : 0 
Heartbeat CPU 0 instructions: 40000003 cycles: 11165528 heartbeat IPC: 3.58364 cumulative IPC: 3.58246 (Simulation time: 0 hr 7 min 1 sec) 
Heartbeat_Variant_0 : 1371 0.334717 per_variant_size: 0 1371 0 0 0 0 0 0 0 
Heartbeat_Variant_1 : 1256 0.306641 per_variant_size: 0 592 664 0 0 0 0 0 0 
Heartbeat_Variant_2 : 1365 0.333252 per_variant_size: 0 540 389 231 205 0 0 0 0 
Heartbeat_Variant_3 : 0 0 per_variant_size: 0 0 0 0 0 0 0 0 0 
Heartbeat_Variant_0_evicts 0 : 5408 1 : 81 2 : 68 3 : 0 
Heartbeat_Variant_1_evicts 0 : 78 1 : 0 2 : 260 3 : 0 
Heartbeat_Variant_2_evicts 0 : 76 1 : 251 2 : 0 3 : 0 
Heartbeat_Variant_3_evicts 0 : 0 1 : 0 2 : 0 3 : 0 
Heartbeat CPU 0 instructions: 50000001 cycles: 13956716 heartbeat IPC: 3.5827 cumulative IPC: 3.5825 (Simulation time: 0 hr 8 min 42 sec) 

Warmup complete CPU 0 instructions: 50000001 cycles: 13956716 (Simulation time: 0 hr 8 min 42 sec) 

Cycle: 20000000 FTQ IN: 58231625 FTQ occupancy: 19.9237 DECODE IN: 58231567 DECODE occupancy: 51.9857 ROB IN: 58231567 ROB occupancy: 313.981 ROB OUT: 58231262
Heartbeat_Variant_0 : 1389 0.339111 per_variant_size: 0 1389 0 0 0 0 0 0 0 
Heartbeat_Variant_1 : 1261 0.307861 per_variant_size: 0 588 673 0 0 0 0 0 0 
Heartbeat_Variant_2 : 1374 0.335449 per_variant_size: 0 537 380 262 195 0 0 0 0 
Heartbeat_Variant_3 : 0 0 per_variant_size: 0 0 0 0 0 0 0 0 0 
Heartbeat_Variant_0_evicts 0 : 5657 1 : 230 2 : 205 3 : 0 
Heartbeat_Variant_1_evicts 0 : 235 1 : 0 2 : 373 3 : 0 
Heartbeat_Variant_2_evicts 0 : 190 1 : 383 2 : 0 3 : 0 
Heartbeat_Variant_3_evicts 0 : 0 1 : 0 2 : 0 3 : 0 
Heartbeat CPU 0 instructions: 60000000 cycles: 21280539 heartbeat IPC: 1.36541 cumulative IPC: 1.36541 (Simulation time: 0 hr 10 min 35 sec) 
Heartbeat_Variant_0 : 1388 0.338867 per_variant_size: 0 1388 0 0 0 0 0 0 0 
Heartbeat_Variant_1 : 1272 0.310547 per_variant_size: 0 593 679 0 0 0 0 0 0 
Heartbeat_Variant_2 : 1379 0.33667 per_variant_size: 0 542 378 267 192 0 0 0 0 
Heartbeat_Variant_3 : 0 0 per_variant_size: 0 0 0 0 0 0 0 0 0 
Heartbeat_Variant_0_evicts 0 : 5500 1 : 135 2 : 138 3 : 0 
Heartbeat_Variant_1_evicts 0 : 137 1 : 0 2 : 276 3 : 0 
Heartbeat_Variant_2_evicts 0 : 140 1 : 274 2 : 0 3 : 0 
Heartbeat_Variant_3_evicts 0 : 0 1 : 0 2 : 0 3 : 0 
Heartbeat CPU 0 instructions: 70000000 cycles: 28425362 heartbeat IPC: 1.39961 cumulative IPC: 1.3823 (Simulation time: 0 hr 12 min 24 sec) 
Cycle: 30000000 FTQ IN: 13825092 FTQ occupancy: 13.177 DECODE IN: 13825086 DECODE occupancy: 34.4453 ROB IN: 13825026 ROB occupancy: 239.695 ROB OUT: 13824983
Heartbeat_Variant_0 : 1388 0.338867 per_variant_size: 0 1388 0 0 0 0 0 0 0 
Heartbeat_Variant_1 : 1277 0.311768 per_variant_size: 0 601 676 0 0 0 0 0 0 
Heartbeat_Variant_2 : 1380 0.336914 per_variant_size: 0 540 384 244 212 0 0 0 0 
Heartbeat_Variant_3 : 0 0 per_variant_size: 0 0 0 0 0 0 0 0 0 
Heartbeat_Variant_0_evicts 0 : 5405 1 : 89 2 : 93 3 : 0 
Heartbeat_Variant_1_evicts 0 : 89 1 : 0 2 : 243 3 : 0 
Heartbeat_Variant_2_evicts 0 : 93 1 : 242 2 : 0 3 : 0 
Heartbeat_Variant_3_evicts 0 : 0 1 : 0 2 : 0 3 : 0 
Heartbeat CPU 0 instructions: 80000002 cycles: 35659576 heartbeat IPC: 1.38232 cumulative IPC: 1.38231 (Simulation time: 0 hr 14 min 13 sec) 
Cycle: 40000000 FTQ IN: 14017743 FTQ occupancy: 13.3052 DECODE IN: 14017705 DECODE occupancy: 35.1769 ROB IN: 14017765 ROB occupancy: 243.757 ROB OUT: 14017900
Heartbeat_Variant_0 : 1398 0.341309 per_variant_size: 0 1398 0 0 0 0 0 0 0 
Heartbeat_Variant_1 : 1276 0.311523 per_variant_size: 0 591 685 0 0 0 0 0 0 
Heartbeat_Variant_2 : 1374 0.335449 per_variant_size: 0 528 381 258 207 0 0 0 0 
Heartbeat_Variant_3 : 0 0 per_variant_size: 0 0 0 0 0 0 0 0 0 
Heartbeat_Variant_0_evicts 0 : 5449 1 : 32 2 : 57 3 : 0 
Heartbeat_Variant_1_evicts 0 : 33 1 : 0 2 : 203 3 : 0 
Heartbeat_Variant_2_evicts 0 : 47 1 : 205 2 : 0 3 : 0 
Heartbeat_Variant_3_evicts 0 : 0 1 : 0 2 : 0 3 : 0 
Heartbeat CPU 0 instructions: 90000002 cycles: 42853393 heartbeat IPC: 1.39008 cumulative IPC: 1.38424 (Simulation time: 0 hr 16 min 6 sec) 
Heartbeat_Variant_0 : 1401 0.342041 per_variant_size: 0 1401 0 0 0 0 0 0 0 
Heartbeat_Variant_1 : 1269 0.309814 per_variant_size: 0 578 691 0 0 0 0 0 0 
Heartbeat_Variant_2 : 1379 0.33667 per_variant_size: 0 535 376 259 209 0 0 0 0 
Heartbeat_Variant_3 : 0 0 per_variant_size: 0 0 0 0 0 0 0 0 0 
Heartbeat_Variant_0_evicts 0 : 5429 1 : 55 2 : 55 3 : 0 
Heartbeat_Variant_1_evicts 0 : 55 1 : 0 2 : 220 3 : 0 
Heartbeat_Variant_2_evicts 0 : 52 1 : 228 2 : 0 3 : 0 
Heartbeat_Variant_3_evicts 0 : 0 1 : 0 2 : 0 3 : 0 
Heartbeat CPU 0 instructions: 100000002 cycles: 49933833 heartbeat IPC: 1.41234 cumulative IPC: 1.38977 (Simulation time: 0 hr 17 min 48 sec) 
Finished CPU 0 instructions: 50000001 cycles: 35977117 cumulative IPC: 1.38977 (Simulation time: 0 hr 17 min 48 sec) 

ChampSim completed all CPUs

Region of Interest Statistics

CPU 0 cumulative IPC: 1.38977 instructions: 50000001 cycles: 35977117
 Fetch stage stalled: 51.8828  Sim cycles: 35977117 fetch stall cycle: 18665940
 Empty decode stage: 32.9364  Sim cycles: 35977117 fetch stall cycle: 11849571
ITLB TOTAL     ACCESS:    5838860  HIT:    5392570  MISS:     446290  HIT %:    92.3566  MISS %:    7.64344   MPKI: 8.9258
ITLB LOAD TRANSLATION INSTRUCTION	ACCESS:    5704208  HIT:    5257918  MISS:     446290  HIT %:    92.1761  MISS %:    7.82387  MPKI: 8.9258
ITLB TRANSLATION FROM L1D PREFETCHER INSTRUCTION	ACCESS:     134652  HIT:     134652  MISS:          0  HIT %:        100  MISS %:          0  MPKI: 0

ITLB AVERAGE MISS LATENCY: 9.08405 cycles
ITLB RQ	ACCESS:    7843705	FORWARD:          0	MERGED:    1602882	TO_CACHE:    6240823

DTLB TOTAL     ACCESS:    8843107  HIT:    8368669  MISS:     474438  HIT %:    94.6349  MISS %:    5.36506   MPKI: 9.48876
DTLB LOAD TRANSLATION DATA	ACCESS:    8843107  HIT:    8368669  MISS:     474438  HIT %:    94.6349  MISS %:    5.36506  MPKI: 9.48876

DTLB AVERAGE MISS LATENCY: 9.41499 cycles
DTLB RQ	ACCESS:   13119365	FORWARD:          0	MERGED:    4237072	TO_CACHE:    8882293

STLB TOTAL     ACCESS:    1219211  HIT:    1216050  MISS:       3161  HIT %:    99.7407  MISS %:   0.259266   MPKI: 0.06322
STLB LOAD TRANSLATION INSTRUCTION	ACCESS:     446290  HIT:     445715  MISS:        575  HIT %:    99.8712  MISS %:    0.12884  MPKI: 0.0115
STLB LOAD TRANSLATION DATA	ACCESS:     474436  HIT:     471870  MISS:       2566  HIT %:    99.4591  MISS %:   0.540853  MPKI: 0.05132
STLB TRANSLATION FROM L1D PREFETCHER DATA	ACCESS:     298485  HIT:     298465  MISS:         20  HIT %:    99.9933  MISS %:  0.0067005  MPKI: 0.0004

STLB AVERAGE MISS LATENCY: 63.9317 cycles
STLB RQ	ACCESS:    1396024	FORWARD:          0	MERGED:     176714	TO_CACHE:    1219310

STLB Hit, L1D data hit: 0
STLB Hit, L2C data hit: 0
STLB Hit, LLC data hit: 0
STLB Hit, LLC data miss: 0
STLB STLB hints to L2: 0
L1D TOTAL     ACCESS:   12965278  HIT:   11865118  MISS:    1100160  HIT %:    91.5146  MISS %:    8.48543   MPKI: 22.0032
L1D LOAD DATA	ACCESS:    6492144  HIT:    5779253  MISS:     712891  HIT %:    89.0192  MISS %:    10.9808  MPKI: 14.2578
L1D RFO DATA	ACCESS:    6077150  HIT:    5800695  MISS:     276455  HIT %:    95.4509  MISS %:    4.54909  MPKI: 5.5291
L1D PREFETCH DATA	ACCESS:     395984  HIT:     285170  MISS:     110814  HIT %:    72.0155  MISS %:    27.9845  MPKI: 2.21628

L1D PREFETCH  REQUESTED:     950941  ISSUED:     950941  USEFUL:      57365  USELESS:      72355
L1D USEFUL LOAD PREFETCHES:      57365 PREFETCH ISSUED TO LOWER LEVEL:     129796  ACCURACY: 44.1963
 TIMELY PREFETCHES:      57365 LATE PREFETCHES: 18905 DROPPED PREFETCHES: 48
L1D AVERAGE MISS LATENCY: 544474 cycles
L1D RQ	ACCESS:   10623135	FORWARD:          0	MERGED:    3939727	TO_CACHE:    6530926
L1D WQ	ACCESS:    6770009	FORWARD:     152831	MERGED:     181570	TO_CACHE:    6588439
L1D PQ	ACCESS:     475645	FORWARD:          0	MERGED:          0	TO_CACHE:     475296

L1D UNIQUE REGIONS ACCESSED: 0
L1D REGIONS CONFLICTS: 0
L1D Cross Page Prefetch Requests: 10444
L1D Same Page Prefetch Requests: 956748
L1D ROI Sum of L1D PQ occupancy: 6048248
L1D PREFETCHES PUSHED FROM L2C: 0
L1I TOTAL     ACCESS:    7071638  HIT:    4559478  MISS:    2512160  HIT %:    64.4756  MISS %:    35.5244   MPKI: 50.2432
L1I LOAD INSTRUCTION	ACCESS:    6382726  HIT:    3870566  MISS:    2512160  HIT %:    60.6413  MISS %:    39.3587  MPKI: 50.2432
L1I PREFETCH INSTRUCTION	ACCESS:     688912  HIT:     688912  MISS:          0  HIT %:        100  MISS %:          0  MPKI: 0

L1I PREFETCH  REQUESTED:    1604510  ISSUED:    1604510  USEFUL:          0  USELESS:          0
L1I USEFUL LOAD PREFETCHES:          0 PREFETCH ISSUED TO LOWER LEVEL:          0  ACCURACY: -nan
 TIMELY PREFETCHES:          0 LATE PREFETCHES: 0 DROPPED PREFETCHES: 0
L1I AVERAGE MISS LATENCY: 17.3228 cycles
L1I RQ	ACCESS:    9485611	FORWARD:          0	MERGED:    2799548	TO_CACHE:    6686063
L1I PQ	ACCESS:    1604510	FORWARD:          0	MERGED:     446868	TO_CACHE:    1157642

L1BTB TOTAL     ACCESS:    5844383  HIT:    2450533  MISS:    3393850  HIT %:    41.9297  MISS %:    58.0703   MPKI: 67.877
L1BTB BRANCH_DIRECT_JUMP	ACCESS:     589583  HIT:     197482  MISS:     392101	AVERAGE STALL: 46.3824
L1BTB BRANCH_INDIRECT	ACCESS:     172404  HIT:      56758  MISS:     115646	AVERAGE STALL: 103.547
L1BTB BRANCH_CONDITIONAL	ACCESS:    2990716  HIT:    1780643  MISS:    1210073	AVERAGE STALL: 65.7813
L1BTB BRANCH_DIRECT_CALL	ACCESS:     886105  HIT:     107604  MISS:     778501	AVERAGE STALL: 73.8961
L1BTB BRANCH_INDIRECT_CALL	ACCESS:     159736  HIT:      20351  MISS:     139385	AVERAGE STALL: 125.756
L1BTB BRANCH_RETURN	ACCESS:    1045839  HIT:     287695  MISS:     758144	AVERAGE STALL: 50.502
L1BTB BRANCH_OTHER ACCESS:          0  HIT:          0  MISS:          0	AVERAGE STALL: -nan
L1BTB TOTAL ROB OCCUPANCY AT BTB MISS: 2.57163

L2BTB TOTAL     ACCESS:    3368571  HIT:    3313202  MISS:      55369  HIT %:    98.3563  MISS %:    1.64369   MPKI: 1.10738
L2BTB BRANCH_DIRECT_JUMP	ACCESS:     387038  HIT:     382667  MISS:       4371	AVERAGE STALL: 46.3824
L2BTB BRANCH_INDIRECT	ACCESS:     105829  HIT:     103301  MISS:       2528	AVERAGE STALL: 103.547
L2BTB BRANCH_CONDITIONAL	ACCESS:    1210073  HIT:    1205549  MISS:       4524	AVERAGE STALL: 65.7813
L2BTB BRANCH_DIRECT_CALL	ACCESS:     778501  HIT:     776371  MISS:       2130	AVERAGE STALL: 73.8961
L2BTB BRANCH_INDIRECT_CALL	ACCESS:     130008  HIT:     120518  MISS:       9490	AVERAGE STALL: 125.756
L2BTB BRANCH_RETURN	ACCESS:     757122  HIT:     724796  MISS:      32326	AVERAGE STALL: 50.502
L2BTB BRANCH_OTHER ACCESS:          0  HIT:          0  MISS:          0	AVERAGE STALL: -nan
L2BTB TOTAL ROB OCCUPANCY AT BTB MISS: 157.628

L2C TOTAL     ACCESS:    4182990  HIT:    3699508  MISS:     483482  HIT %:    88.4417  MISS %:    11.5583   MPKI: 9.66964
L2C LOAD INSTRUCTION	ACCESS:    2512159  HIT:    2267375  MISS:     244784  HIT %:     90.256  MISS %:    9.74397  MPKI: 4.89568
L2C LOAD TRANSLATION INSTRUCTION	ACCESS:        642  HIT:        290  MISS:        352  HIT %:    45.1713  MISS %:    54.8287  MPKI: 0.00704
L2C LOAD DATA	ACCESS:     693860  HIT:     611940  MISS:      81920  HIT %:    88.1936  MISS %:    11.8064  MPKI: 1.6384
L2C RFO DATA	ACCESS:     276357  HIT:     220670  MISS:      55687  HIT %:    79.8496  MISS %:    20.1504  MPKI: 1.11374
L2C PREFETCH DATA	ACCESS:     213146  HIT:     127969  MISS:      85177  HIT %:    60.0382  MISS %:    39.9618  MPKI: 1.70354
L2C WRITEBACK DATA	ACCESS:     483957  HIT:     470290  MISS:      13667  HIT %:     97.176  MISS %:    2.82401  MPKI: 0.27334
L2C LOAD TRANSLATION DATA	ACCESS:       2784  HIT:        939  MISS:       1845  HIT %:    33.7284  MISS %:    66.2716  MPKI: 0.0369
L2C TRANSLATION FROM L1D PREFETCHER DATA	ACCESS:         85  HIT:         35  MISS:         50  HIT %:    41.1765  MISS %:    58.8235  MPKI: 0.001

L2C PREFETCH  REQUESTED:      91780  ISSUED:      91780  USEFUL:       9917  USELESS:      75910
L2C USEFUL LOAD PREFETCHES:       9917 PREFETCH ISSUED TO LOWER LEVEL:      85686  ACCURACY: 11.5737
 TIMELY PREFETCHES:       9917 LATE PREFETCHES: 509 DROPPED PREFETCHES: 0
L2C AVERAGE MISS LATENCY: 42.5257 cycles
L2C RQ	ACCESS:    3486034	FORWARD:          0	MERGED:          0	TO_CACHE:    3485887
L2C WQ	ACCESS:     483957	FORWARD:        148	MERGED:          0	TO_CACHE:     483957
L2C PQ	ACCESS:     221576	FORWARD:          0	MERGED:       3510	TO_CACHE:     218065

L2C Dense regions hint from L2: 0
PSCL5 TOTAL     ACCESS:       6420  HIT:       3210  MISS:       3210  HIT %:         50  MISS %:         50   MPKI: 0.0642
PSCL5 LOAD TRANSLATION INSTRUCTION	ACCESS:       6262  HIT:       3131  MISS:       3131  HIT %:         50  MISS %:         50  MPKI: 0.06262
PSCL5 TRANSLATION FROM L1D PREFETCHER INSTRUCTION	ACCESS:        158  HIT:         79  MISS:         79  HIT %:         50  MISS %:         50  MPKI: 0.00158


PSCL4 TOTAL     ACCESS:       5979  HIT:       2983  MISS:       2996  HIT %:    49.8913  MISS %:    50.1087   MPKI: 0.05992
PSCL4 LOAD TRANSLATION INSTRUCTION	ACCESS:       3080  HIT:       2905  MISS:        175  HIT %:    94.3182  MISS %:    5.68182  MPKI: 0.0035
PSCL4 TRANSLATION FROM L1D PREFETCHER INSTRUCTION	ACCESS:         78  HIT:         78  MISS:          0  HIT %:        100  MISS %:          0  MPKI: 0
PSCL4 LOAD TRANSLATION DATA	ACCESS:       2743  HIT:          0  MISS:       2743  HIT %:          0  MISS %:        100  MPKI: 0.05486
PSCL4 TRANSLATION FROM L1D PREFETCHER DATA	ACCESS:         78  HIT:          0  MISS:         78  HIT %:          0  MISS %:        100  MPKI: 0.00156


PSCL3 TOTAL     ACCESS:       6333  HIT:       3160  MISS:       3173  HIT %:    49.8974  MISS %:    50.1026   MPKI: 0.06346
PSCL3 LOAD TRANSLATION INSTRUCTION	ACCESS:       3257  HIT:       3082  MISS:        175  HIT %:     94.627  MISS %:    5.37304  MPKI: 0.0035
PSCL3 TRANSLATION FROM L1D PREFETCHER INSTRUCTION	ACCESS:         78  HIT:         78  MISS:          0  HIT %:        100  MISS %:          0  MPKI: 0
PSCL3 LOAD TRANSLATION DATA	ACCESS:       2920  HIT:          0  MISS:       2920  HIT %:          0  MISS %:        100  MPKI: 0.0584
PSCL3 TRANSLATION FROM L1D PREFETCHER DATA	ACCESS:         78  HIT:          0  MISS:         78  HIT %:          0  MISS %:        100  MPKI: 0.00156


PSCL2 TOTAL     ACCESS:       6143  HIT:       2936  MISS:       3207  HIT %:    47.7942  MISS %:    52.2058   MPKI: 0.06414
PSCL2 LOAD TRANSLATION INSTRUCTION	ACCESS:       3430  HIT:       2861  MISS:        569  HIT %:    83.4111  MISS %:    16.5889  MPKI: 0.01138
PSCL2 TRANSLATION FROM L1D PREFETCHER INSTRUCTION	ACCESS:         75  HIT:         75  MISS:          0  HIT %:        100  MISS %:          0  MPKI: 0
PSCL2 LOAD TRANSLATION DATA	ACCESS:       2563  HIT:          0  MISS:       2563  HIT %:          0  MISS %:        100  MPKI: 0.05126
PSCL2 TRANSLATION FROM L1D PREFETCHER DATA	ACCESS:         75  HIT:          0  MISS:         75  HIT %:          0  MISS %:        100  MPKI: 0.0015


LLC TOTAL     ACCESS:     548398  HIT:     509297  MISS:      39101  HIT %:      92.87  MISS %:    7.13004   MPKI: 0.78202
LLC LOAD INSTRUCTION	ACCESS:     244784  HIT:     243677  MISS:       1107  HIT %:    99.5478  MISS %:   0.452235  MPKI: 0.02214
LLC LOAD TRANSLATION INSTRUCTION	ACCESS:        352  HIT:        311  MISS:         41  HIT %:    88.3523  MISS %:    11.6477  MPKI: 0.00082
LLC LOAD DATA	ACCESS:      81480  HIT:      76588  MISS:       4892  HIT %:    93.9961  MISS %:    6.00393  MPKI: 0.09784
LLC RFO DATA	ACCESS:      55610  HIT:      36664  MISS:      18946  HIT %:    65.9306  MISS %:    34.0694  MPKI: 0.37892
LLC PREFETCH DATA	ACCESS:      85686  HIT:      72123  MISS:      13563  HIT %:    84.1713  MISS %:    15.8287  MPKI: 0.27126
LLC WRITEBACK DATA	ACCESS:      78591  HIT:      78168  MISS:        423  HIT %:    99.4618  MISS %:    0.53823  MPKI: 0.00846
LLC LOAD TRANSLATION DATA	ACCESS:       1845  HIT:       1724  MISS:        121  HIT %:    93.4417  MISS %:    6.55827  MPKI: 0.00242
LLC TRANSLATION FROM L1D PREFETCHER DATA	ACCESS:         50  HIT:         42  MISS:          8  HIT %:         84  MISS %:         16  MPKI: 0.00016

LLC AVERAGE MISS LATENCY: 164.366 cycles
LLC RQ	ACCESS:     384129	FORWARD:          0	MERGED:          0	TO_CACHE:     384121
LLC WQ	ACCESS:      78591	FORWARD:          8	MERGED:          0	TO_CACHE:      78591
LLC PQ	ACCESS:      85686	FORWARD:          0	MERGED:          0	TO_CACHE:      85686

LLC Dense regions hint to LLC: 0

RAW hits: 1827178
Loads Generated: 12450313
Loads sent to L1D: 10623135
Stores Generated: 6769986
Stores sent to L1D: 6770009
Major fault: 0 Minor fault: 2529
Allocated PAGES: 2529

stream: 
stream:times selected: 1485571
stream:pref_filled: 130999
stream:pref_useful: 31223
stream:pref_late: 10301
stream:misses: 13356
stream:misses_by_poll: 0

CS: 
CS:times selected: 236049
CS:pref_filled: 85672
CS:pref_useful: 60869
CS:pref_late: 11657
CS:misses: 29823
CS:misses_by_poll: 2

CPLX: 
CPLX:times selected: 1247390
CPLX:pref_filled: 29279
CPLX:pref_useful: 9751
CPLX:pref_late: 5126
CPLX:misses: 149580
CPLX:misses_by_poll: 1

NL_L1: 
NL:times selected: 28685
NL:pref_filled: 1980
NL:pref_useful: 931
NL:pref_late: 746
NL:misses: 3745
NL:misses_by_poll: 0

total selections: 2997695
total_filled: 110814
total_useful: 57365
total_late: 31111
total_polluted: 3
total_misses_after_warmup: 751678
conflicts: 5208253

test: 176004

DRAM Statistics
 CHANNEL 0
 RQ ROW_BUFFER_HIT:      13266  ROW_BUFFER_MISS:      25401
 DBUS_CONGESTED:         13
 WQ ROW_BUFFER_HIT:       2160  ROW_BUFFER_MISS:      18907  FULL:          0

 AVG_CONGESTED_CYCLE: 4

CPU 0 Branch Prediction Accuracy: 99.7504% MPKI: 0.4573 Average ROB Occupancy at Mispredict: 180.393
Branch types
NOT_BRANCH: 40838328 81.6767%
BRANCH_DIRECT_JUMP: 589583 1.17917%
BRANCH_INDIRECT: 172404 0.344808%
BRANCH_CONDITIONAL: 6307967 12.6159%
BRANCH_DIRECT_CALL: 886105 1.77221%
BRANCH_INDIRECT_CALL: 159736 0.319472%
BRANCH_RETURN: 1045839 2.09168%
BRANCH_OTHER: 0 0%

DRAM PAGES: 1048576
Allocated PAGES: 2529
Average_ROB_Occupancy: 242.62
Average_Decode_Occupancy: 34.7505
Average_FTQ_Occupancy: 13.2359
Indirect max targets: 14 Average targets: 1.14901
Branch_type:  BRANCH_DIRECT_JUMP:  Count Percentage: 9.64257 5.09617 4.66607 13.5032 5.22451 2.24538 1.96706 57.655 
Branch_type:  BRANCH_INDIRECT:  Count Percentage: 5.52769 1.162 14.3352 25.1968 1.37866 16.586 1.78003 34.0336 
Branch_type:  BRANCH_CONDITIONAL:  Count Percentage: 26.4338 2.77984 2.9764 8.35976 2.38979 2.26325 2.16892 52.6283 
Branch_type:  BRANCH_DIRECT_CALL:  Count Percentage: 0.341337 1.29045 1.83381 4.84842 3.03074 2.1258 3.43734 83.0921 
Branch_type:  BRANCH_INDIRECT_CALL:  Count Percentage: 8.72641 0.835574 2.97789 10.165 0.000626133 3.89204 2.77158 70.6309 
Branch_type:  BRANCH_RETURN:  Count Percentage: 3.92467 0.647502 3.47117 9.94929 4.04037 3.69417 2.74145 71.5314 
Branch_type:  BRANCH_DIRECT_JUMP:  Total Count: 113531 60002 54938 158986 61513 26437 23160 678826 
Branch_type:  BRANCH_INDIRECT:  Total Count: 19033 4001 49359 86758 4747 57109 6129 117185 
Branch_type:  BRANCH_CONDITIONAL:  Total Count: 3333099 350517 375301 1054103 301334 285379 273484 6636027 
Branch_type:  BRANCH_DIRECT_CALL:  Total Count: 6052 22880 32514 85964 53736 37691 60945 1473248 
Branch_type:  BRANCH_INDIRECT_CALL:  Total Count: 27874 2669 9512 32469 2 12432 8853 225610 
Branch_type:  BRANCH_RETURN:  Total Count: 82154 13554 72661 208266 84576 77329 57386 1497348 
Number of unique branch instructions: 10145
Upper 32 bits: 
aaaa
ffff
ffff0000
Unique upper 32 bits: 3
Unique upper 36 bits: 3
Unique upper 40 bits: 5
Unique upper 44 bits: 32
Unique upper 48 bits: 157
Variant_0 : 1401 0.342041
Variant_1 : 1269 0.309814
Variant_2 : 1379 0.33667
Variant_3 : 0 0
Offset_3 4186
Offset_4 265
Offset_5 474
Offset_6 514
Offset_7 604
Offset_8 522
Offset_9 482
Offset_10 380
Offset_11 324
Offset_12 282
Offset_13 216
Offset_14 231
Offset_15 193
Offset_16 226
Offset_17 155
Offset_18 118
Offset_19 242
Offset_20 142
Offset_21 265
Offset_22 396
Offset_23 241
Offset_24 353
Offset_25 88
Offset_47 86
Offset_64 3
decode_dispatch_called: 25529612 70.9607
Dispatch_width: 0 13595578 53.2542 37.7895
Dispatch_width: 1 967549 3.78991 2.68935
Dispatch_width: 2 856502 3.35494 2.38069
Dispatch_width: 3 501278 1.96352 1.39332
Dispatch_width: 4 5844520 22.8931 16.2451
Dispatch_width: 5 147576 0.578058 0.410194
Dispatch_width: 6 3616609 14.1663 10.0525
Empty_decode_cycles: 10447505 29.0393
ROB_full_cycles: 9164738 25.4738
Starvation_cycles_per_kilo_instr: 231.958
Starvation_cycles_per_kilo_instr_3: 172.037
Starvation_cycles_per_kilo_instr_0: 148.783
Branch_type_1  (3,1)  (4,11)  (5,38)  (6,69)  (7,118)  (8,135)  (9,129)  (10,90)  (11,74)  (12,44)  (13,9)  (14,2)  (15,3)  (16,4)  (18,1)  (19,4)  (20,2)  (21,1)  (22,3)  (23,2)  (24,10)  (25,12) 
Branch_type_2  (3,1)  (5,1)  (8,2)  (9,3)  (12,1)  (13,1)  (14,1)  (16,3)  (17,2)  (20,2)  (21,2)  (23,5)  (24,1)  (47,40) 
Branch_type_3  (3,4184)  (4,254)  (5,431)  (6,430)  (7,453)  (8,324)  (9,264)  (10,156)  (11,132)  (12,54)  (13,8)  (64,3) 
Branch_type_4  (6,3)  (7,8)  (8,25)  (9,54)  (10,62)  (11,61)  (12,100)  (13,91)  (14,104)  (15,91)  (16,101)  (17,70)  (18,53)  (19,118)  (20,73)  (21,144)  (22,211)  (23,136)  (24,202)  (25,72) 
Branch_type_5  (8,2)  (9,1)  (10,4)  (11,5)  (12,3)  (13,14)  (14,16)  (15,11)  (16,20)  (17,11)  (18,16)  (19,13)  (20,11)  (21,13)  (22,42)  (23,26)  (24,41) 
Branch_type_6  (5,4)  (6,12)  (7,25)  (8,34)  (9,31)  (10,68)  (11,52)  (12,80)  (13,93)  (14,108)  (15,88)  (16,98)  (17,72)  (18,48)  (19,107)  (20,54)  (21,105)  (22,140)  (23,72)  (24,99)  (25,4)  (47,46) 
Unique trigger count: 
Variant_0_evicts_0 : 0
Variant_0_evicts_1 : 0
Variant_0_evicts_2 : 0
Variant_0_evicts_3 : 0
Variant_1_evicts_0 : 0
Variant_1_evicts_1 : 0
Variant_1_evicts_2 : 0
Variant_1_evicts_3 : 0
Variant_2_evicts_0 : 0
Variant_2_evicts_1 : 0
Variant_2_evicts_2 : 0
Variant_2_evicts_3 : 0
Variant_3_evicts_0 : 0
Variant_3_evicts_1 : 0
Variant_3_evicts_2 : 0
Variant_3_evicts_3 : 0
BTB PER SET UNIQUE ADDR: 12 17 9 11 19 16 12 16 10 11 11 16 17 18 16 14 10 12 9 15 14 13 18 15 10 13 12 16 15 13 15 15 15 7 6 15 11 14 8 9 10 11 15 15 9 10 11 9 11 11 13 12 9 8 16 7 10 8 8 8 11 14 11 13 13 14 14 9 13 12 14 10 16 10 10 9 6 15 10 10 12 7 12 16 16 12 11 14 9 18 10 8 12 14 7 13 9 11 15 17 16 18 12 10 9 10 7 17 10 7 10 19 11 13 8 8 12 10 12 11 8 10 9 9 13 8 7 13 16 9 9 12 15 16 10 10 7 16 12 15 12 10 12 10 12 12 12 10 11 10 11 13 14 11 11 16 12 14 12 13 10 14 15 15 13 14 12 10 13 7 11 11 10 18 15 9 11 10 9 9 6 16 12 16 17 15 5 11 14 11 10 13 12 17 15 13 9 17 11 15 13 15 8 12 6 13 12 7 11 13 10 18 14 13 11 13 10 14 12 17 10 11 11 10 9 12 16 11 8 16 9 7 14 14 10 13 7 9 11 7 14 14 13 13 11 11 11 10 14 7 10 14 14 12 15 13 8 10 11 10 13 14 6 8 15 8 15 12 11 10 13 16 6 6 9 10 13 15 13 11 10 9 9 15 10 11 11 16 14 9 8 9 12 14 9 12 15 13 14 12 8 11 10 16 15 18 10 12 18 11 13 12 9 21 11 4 18 12 9 15 12 13 9 6 14 16 8 11 12 8 14 17 12 12 11 12 10 14 7 17 12 10 11 18 10 16 11 13 13 8 11 14 10 11 12 13 10 12 10 14 11 16 4 16 9 8 7 8 11 16 13 11 14 16 7 14 12 13 13 14 16 12 7 8 6 12 11 16 17 9 15 9 22 13 8 10 12 14 18 7 13 12 8 15 19 12 12 16 10 14 13 6 8 19 11 12 14 15 14 16 13 14 13 12 16 10 14 9 11 9 16 9 8 12 19 10 16 8 12 11 13 9 10 15 16 9 9 11 14 15 12 15 14 8 9 21 15 12 10 16 12 14 14 6 15 14 11 10 14 15 13 13 11 12 10 17 12 20 11 11 17 15 10 14 9 15 19 22 17 14 9 14 14 6 14 9 13 14 10 15 14 15 14 16 11 9 13 9 12 12 12 18 13 8 15 12 13 23 11 12 7 12 11 10 13 16 19 11 8 16 10 11 15 12 14 15 14 14 13 15 20 11 13 12 14 16 8 13 8 13 13 16 16 16 14 16 15 9 14 14 10 15 13 12 10 17 14 14 9 19 11 10 16 13 11 20 13 18 14 11 17 8 6 13 19 12 12 10 15 23 11 14 17 9 12 10 9 13 11 16 13 13 11 7 9 15 18 15 13 10 11 14 10 9 6 18 11 15 9 14 18 9 5 13 15 13 8 14 9 9 13 20 14 13 14 13 8 17 10 19 10 16 15 8 10 13 9 13 21 12 7 18 8 9 12 11 13 8 9 12 13 9 12 9 10 16 12 12 10 9 12 9 14 12 18 12 12 17 15 12 10 13 15 14 19 13 10 14 14 17 12 10 16 10 11 12 9 16 10 9 5 9 10 12 7 12 13 12 12 11 10 15 6 10 13 9 16 11 11 19 12 7 15 11 10 12 9 13 10 9 18 11 12 11 13 13 10 15 15 8 12 10 13 15 21 11 12 17 12 10 17 12 11 13 7 12 17 8 10 8 9 11 8 9 12 14 8 15 10 14 9 18 11 8 8 12 11 9 16 16 9 13 18 10 15 9 8 18 10 9 8 5 19 12 14 20 12 10 14 9 18 12 19 14 15 10 14 10 11 13 9 13 13 16 13 16 20 16 7 18 11 14 8 13 14 11 12 12 15 16 11 18 14 10 10 17 10 9 12 8 14 17 11 15 14 13 12 15 8 12 12 10 9 13 11 15 10 11 10 10 16 15 8 9 20 8 12 9 16 7 11 13 11 10 18 7 11 13 11 13 14 11 14 13 13 12 14 12 12 15 12 8 12 12 10 15 17 14 12 11 12 10 11 14 9 8 10 9 12 12 9 12 9 18 12 14 17 11 13 10 13 15 15 6 8 8 9 15 14 9 17 16 14 11 9 15 9 13 13 15 9 16 7 11 18 12 11 15 8 18 15 13 14 16 12 13 10 11 15 11 11 14 14 16 13 12 12 16 8 13 10 11 11 13 16 13 14 11 10 22 14 14 11 18 11 18 19 11 15 13 19 15 13 12 11 11 8 14 17 11 14 18 8 9 15 17 11 16 11 21 12 14 8 7 13 14 4 12 8 8 10 16 12 6 
BTB PER SET COUNT: 415 17 2016 13 918 19 628 25 675 13 12 20 17515 742 25 19 710 1528 9 31 26 21 569 32 10 22 30 24 267 424 22 106 19 12 6 19 21 20 11 682 16 17 29 86 1103 15 23 18 36 19 17 281 16 8 75 9 15 9 13 19 11 21 16 21 20 17 22 2103 25 20 170 12 2103 13 15 9 10 22 15 12 829 19 16 121 31 103 14 19 10 31 11 12 17 21 8 15 353 15 38 3909 26 30 25 10 1241 14 11 27 693 8 23 28 193 18 11 1614 15 10 1661 14 16 53 14 9 17 10 7 25 28 760 11 4403 29 29 13 12 699 51 16 21 23 13 12 23 36 18 19 19 13 134 13 15 1135 14 12 25 18 24 19 774 13 20 21 16 1127 424 15 10 19 1095 15 14 17 31 21 9 13 17 10 787 10 26 29 22 30 27 6 16 455 16 10 20 18 27 19 104 12 1845 13 15 18 20 703 15 8 14 15 9 21 15 13 23 25 6149 15 662 12 30 1759 47 13 13 24 14 13 30 21 118 9 18 17 7 17 18 13 1481 39 12 17 8 685 20 76 542 15 853 16 11 257 11 20 22 23 13 24 23 112 14 18 15 708 21 7 361 27 12 27 16 1322 12 24 419 7 7 11 11 16 21 15 21 10 13 12 113 20 18 12 26 18 9 10 10 18 190 11 22 498 20 22 17 12 23 10 20 17 40 58 21 191 563 33 18 10 34 989 1337 26 17 61 20 16 104 12 9 1105 24 10 20 27 10 25 26 22 13 17 24 16 20 8 31 17 982 14 35 18 19 24 18 19 9 15 140 20 15 15 16 14 18 383 15 18 21 5 27 11 8 11 10 16 22 365 66 29 31 700 1013 16 16 17 375 278 12 8 8 12 15 21 26 24 56 69 12 41 466 10 18 13 17 364 9 14 24 9 28 26 16 17 19 13 20 22 6 8 294 13 18 19 223 19 25 16 49 78 16 18 32 771 10 24 10 159 11 12 13 366 20 23 11 20 14 20 9 42 20 1006 9 16 15 21 22 29 23 20 11 12 1127 18 13 14 30 22 19 19 8 26 257 17 12 15 18 18 26 19 14 15 28 22 634 13 29 23 30 18 20 13 402 163 42 19 22 569 16 691 11 21 11 832 21 18 34 19 30 28 131 17 13 77 12 15 21 213 34 265 342 20 14 20 38 22 187 10 15 17 380 20 23 28 12 11 1785 19 26 18 13 25 17 23 1247 23 645 31 14 15 16 21 172 9 22 10 352 19 30 135 54 24 23 28 9 29 15 13 44 14 15 32 28 23 19 17 32 32 14 20 181 1802 35 16 656 20 19 37 9 7 3202 27 28 242 14 25 41 18 25 28 19 36 13 12 291 15 28 18 19 23 8 16 20 24 332 30 15 24 23 14 10 6 27 11 19 14 125 22 10 7 164 18 21 8 22 10 23 22 32 18 18 16 20 11 1359 16 468 15 209 20 10 13 39 717 18 142 16 9 41 10 12 19 351 15 115 180 712 79 15 19 9 16 28 19 704 1111 20 19 14 82 14 26 357 14 25 23 18 22 26 496 21 33 16 13 15 41 63 13 20 33 11 219 25 14 223 12 12 658 19 1063 16 8 13 27 17 18 36 11 24 1351 15 15 11 112 19 16 25 15 7 25 1114 12 19 10 22 683 14 26 4774 16 12 14 19 830 24 21 14 16 20 16 21 610 15 274 25 19 17 476 16 14 1537 9 14 19 1102 11 9 12 18 9 18 30 22 9 22 13 18 58 39 22 10 8 16 16 18 22 28 1215 23 694 13 19 14 8 22 15 14 9 5 30 22 895 37 20 17 21 14 29 19 122 21 18 18 28 15 16 49 14 3624 40 28 23 36 28 31 13 589 15 24 32 24 15 14 20 22 23 22 17 111 23 10 317 124 13 370 14 15 30 474 25 21 1094 16 14 18 15 19 65 1312 22 19 13 19 15 15 21 10 770 420 8 13 681 9 20 10 21 8 240 28 35 13 122 7 17 22 1551 22 19 16 94 16 415 370 17 14 13 31 17 1678 1654 1313 13 25 20 23 21 14 16 13 18 65 19 10 11 13 20 144 12 474 16 29 18 55 23 24 22 10 18 727 426 6 16 12 14 19 22 12 22 21 16 23 153 2489 11 22 580 26 11 144 7 18 27 14 19 25 14 23 20 932 393 2272 16 24 130 14 24 1112 14 21 322 25 19 16 16 25 19 87 120 20 19 20 440 20 21 14 765 39 17 28 18 699 13 121 29 364 23 20 30 395 63 646 18 17 9 1070 23 14 32 85 9 12 26 28 17 29 13 713 23 19 10 11 21 23 4 102 11 10 12 31 16 7 
To predecode: 0
Predecoding something: 0
Predecode request dropped: 0
sizeofblock_0 0
sizeofblock_1 38069
sizeofblock_2 34017
sizeofblock_3 31165
sizeofblock_4 16833
sizeofblock_5 0
sizeofblock_6 0
sizeofblock_7 0
sizeofblock_8 0
Variant_0 Correct: 1528133 Incorrect: 0 Accuracy: 1
Variant_1 Correct: 1938645 Incorrect: 0 Accuracy: 1
Variant_2 Correct: 3397135 Incorrect: 0 Accuracy: 1
Variant_3 Correct: 0 Incorrect: 0 Accuracy: -nan
