
*** ChampSim Multicore Out-of-Order Simulator ***

Warmup Instructions: 50000000
Simulation Instructions: 50000000
Number of CPUs: 1
LLC sets: 2048
LLC ways: 16
Off-chip DRAM Size: 4096 MB Channels: 1 Width: 64-bit Data Rate: 6400 MT/s
CPU 0 runs ./micro_traces/srv274.trace.gz
.gz
ITLB has LRU replacement policy
DTLB has LRU replacement policy
STLB has LRU replacement policy
L1I has LRU replacement policy
L1D has LRU replacement policy
Initialize SRRIP state for L2C
Initialize DRRIP state for LLC
Heartbeat_Variant_0 : 1296 0.316406 per_variant_size: 0 1296 0 0 0 0 0 0 0 
Heartbeat_Variant_1 : 1191 0.290771 per_variant_size: 0 596 595 0 0 0 0 0 0 
Heartbeat_Variant_2 : 1277 0.311768 per_variant_size: 0 544 334 228 171 0 0 0 0 
Heartbeat_Variant_3 : 0 0 per_variant_size: 0 0 0 0 0 0 0 0 0 
Heartbeat_Variant_0_evicts 0 : 5749 1 : 159 2 : 195 3 : 0 
Heartbeat_Variant_1_evicts 0 : 151 1 : 0 2 : 350 3 : 0 
Heartbeat_Variant_2_evicts 0 : 175 1 : 352 2 : 0 3 : 0 
Heartbeat_Variant_3_evicts 0 : 0 1 : 0 2 : 0 3 : 0 
Heartbeat CPU 0 instructions: 10000001 cycles: 2797299 heartbeat IPC: 3.57488 cumulative IPC: 3.57488 (Simulation time: 0 hr 1 min 19 sec) 
Heartbeat_Variant_0 : 1326 0.32373 per_variant_size: 0 1326 0 0 0 0 0 0 0 
Heartbeat_Variant_1 : 1219 0.297607 per_variant_size: 0 597 622 0 0 0 0 0 0 
Heartbeat_Variant_2 : 1304 0.318359 per_variant_size: 0 523 352 247 182 0 0 0 0 
Heartbeat_Variant_3 : 0 0 per_variant_size: 0 0 0 0 0 0 0 0 0 
Heartbeat_Variant_0_evicts 0 : 5651 1 : 71 2 : 55 3 : 0 
Heartbeat_Variant_1_evicts 0 : 59 1 : 0 2 : 280 3 : 0 
Heartbeat_Variant_2_evicts 0 : 60 1 : 270 2 : 0 3 : 0 
Heartbeat_Variant_3_evicts 0 : 0 1 : 0 2 : 0 3 : 0 
Heartbeat CPU 0 instructions: 20000000 cycles: 5593739 heartbeat IPC: 3.57597 cumulative IPC: 3.57543 (Simulation time: 0 hr 2 min 38 sec) 
Heartbeat_Variant_0 : 1355 0.330811 per_variant_size: 0 1355 0 0 0 0 0 0 0 
Heartbeat_Variant_1 : 1244 0.303711 per_variant_size: 0 595 649 0 0 0 0 0 0 
Heartbeat_Variant_2 : 1331 0.324951 per_variant_size: 0 534 347 252 198 0 0 0 0 
Heartbeat_Variant_3 : 0 0 per_variant_size: 0 0 0 0 0 0 0 0 0 
Heartbeat_Variant_0_evicts 0 : 5646 1 : 104 2 : 102 3 : 0 
Heartbeat_Variant_1_evicts 0 : 90 1 : 0 2 : 299 3 : 0 
Heartbeat_Variant_2_evicts 0 : 109 1 : 295 2 : 0 3 : 0 
Heartbeat_Variant_3_evicts 0 : 0 1 : 0 2 : 0 3 : 0 
Heartbeat CPU 0 instructions: 30000002 cycles: 8391156 heartbeat IPC: 3.57473 cumulative IPC: 3.57519 (Simulation time: 0 hr 3 min 56 sec) 
Heartbeat_Variant_0 : 1358 0.331543 per_variant_size: 0 1358 0 0 0 0 0 0 0 
Heartbeat_Variant_1 : 1254 0.306152 per_variant_size: 0 612 642 0 0 0 0 0 0 
Heartbeat_Variant_2 : 1333 0.325439 per_variant_size: 0 540 342 249 202 0 0 0 0 
Heartbeat_Variant_3 : 0 0 per_variant_size: 0 0 0 0 0 0 0 0 0 
Heartbeat_Variant_0_evicts 0 : 5542 1 : 44 2 : 51 3 : 0 
Heartbeat_Variant_1_evicts 0 : 51 1 : 0 2 : 233 3 : 0 
Heartbeat_Variant_2_evicts 0 : 47 1 : 232 2 : 0 3 : 0 
Heartbeat_Variant_3_evicts 0 : 0 1 : 0 2 : 0 3 : 0 
Heartbeat CPU 0 instructions: 40000002 cycles: 11188237 heartbeat IPC: 3.57516 cumulative IPC: 3.57518 (Simulation time: 0 hr 5 min 14 sec) 
Heartbeat_Variant_0 : 1362 0.33252 per_variant_size: 0 1362 0 0 0 0 0 0 0 
Heartbeat_Variant_1 : 1259 0.307373 per_variant_size: 0 618 641 0 0 0 0 0 0 
Heartbeat_Variant_2 : 1344 0.328125 per_variant_size: 0 535 360 253 196 0 0 0 0 
Heartbeat_Variant_3 : 0 0 per_variant_size: 0 0 0 0 0 0 0 0 0 
Heartbeat_Variant_0_evicts 0 : 5687 1 : 72 2 : 79 3 : 0 
Heartbeat_Variant_1_evicts 0 : 73 1 : 0 2 : 263 3 : 0 
Heartbeat_Variant_2_evicts 0 : 79 1 : 268 2 : 0 3 : 0 
Heartbeat_Variant_3_evicts 0 : 0 1 : 0 2 : 0 3 : 0 
Heartbeat CPU 0 instructions: 50000000 cycles: 13985614 heartbeat IPC: 3.57478 cumulative IPC: 3.5751 (Simulation time: 0 hr 6 min 23 sec) 

Warmup complete CPU 0 instructions: 50000004 cycles: 13985615 (Simulation time: 0 hr 6 min 23 sec) 

Cycle: 20000000 FTQ IN: 55421008 FTQ occupancy: 15.8871 DECODE IN: 55421006 DECODE occupancy: 9.51423 ROB IN: 55421006 ROB occupancy: 259.282 ROB OUT: 55420992
Heartbeat_Variant_0 : 1363 0.332764 per_variant_size: 0 1363 0 0 0 0 0 0 0 
Heartbeat_Variant_1 : 1265 0.308838 per_variant_size: 0 631 634 0 0 0 0 0 0 
Heartbeat_Variant_2 : 1341 0.327393 per_variant_size: 0 529 362 256 194 0 0 0 0 
Heartbeat_Variant_3 : 0 0 per_variant_size: 0 0 0 0 0 0 0 0 0 
Heartbeat_Variant_0_evicts 0 : 5445 1 : 14 2 : 13 3 : 0 
Heartbeat_Variant_1_evicts 0 : 18 1 : 0 2 : 207 3 : 0 
Heartbeat_Variant_2_evicts 0 : 9 1 : 205 2 : 0 3 : 0 
Heartbeat_Variant_3_evicts 0 : 0 1 : 0 2 : 0 3 : 0 
Heartbeat CPU 0 instructions: 60000003 cycles: 25106419 heartbeat IPC: 0.899216 cumulative IPC: 0.899215 (Simulation time: 0 hr 7 min 33 sec) 
Cycle: 30000000 FTQ IN: 8899399 FTQ occupancy: 14.9439 DECODE IN: 8899395 DECODE occupancy: 4.95924 ROB IN: 8899383 ROB occupancy: 55.4493 ROB OUT: 8899366
Heartbeat_Variant_0 : 1364 0.333008 per_variant_size: 0 1364 0 0 0 0 0 0 0 
Heartbeat_Variant_1 : 1270 0.310059 per_variant_size: 0 615 655 0 0 0 0 0 0 
Heartbeat_Variant_2 : 1348 0.329102 per_variant_size: 0 535 358 260 195 0 0 0 0 
Heartbeat_Variant_3 : 0 0 per_variant_size: 0 0 0 0 0 0 0 0 0 
Heartbeat_Variant_0_evicts 0 : 5604 1 : 21 2 : 28 3 : 0 
Heartbeat_Variant_1_evicts 0 : 21 1 : 0 2 : 232 3 : 0 
Heartbeat_Variant_2_evicts 0 : 31 1 : 230 2 : 0 3 : 0 
Heartbeat_Variant_3_evicts 0 : 0 1 : 0 2 : 0 3 : 0 
Heartbeat CPU 0 instructions: 70000000 cycles: 36253595 heartbeat IPC: 0.897088 cumulative IPC: 0.89815 (Simulation time: 0 hr 8 min 44 sec) 
Cycle: 40000000 FTQ IN: 9077719 FTQ occupancy: 14.8953 DECODE IN: 9077713 DECODE occupancy: 4.96631 ROB IN: 9077721 ROB occupancy: 54.2725 ROB OUT: 9077720
Heartbeat_Variant_0 : 1373 0.335205 per_variant_size: 0 1373 0 0 0 0 0 0 0 
Heartbeat_Variant_1 : 1268 0.30957 per_variant_size: 0 621 647 0 0 0 0 0 0 
Heartbeat_Variant_2 : 1360 0.332031 per_variant_size: 0 548 360 256 196 0 0 0 0 
Heartbeat_Variant_3 : 0 0 per_variant_size: 0 0 0 0 0 0 0 0 0 
Heartbeat_Variant_0_evicts 0 : 5827 1 : 108 2 : 96 3 : 0 
Heartbeat_Variant_1_evicts 0 : 110 1 : 0 2 : 282 3 : 0 
Heartbeat_Variant_2_evicts 0 : 88 1 : 294 2 : 0 3 : 0 
Heartbeat_Variant_3_evicts 0 : 0 1 : 0 2 : 0 3 : 0 
Heartbeat CPU 0 instructions: 80000003 cycles: 47339166 heartbeat IPC: 0.902074 cumulative IPC: 0.899454 (Simulation time: 0 hr 9 min 55 sec) 
Cycle: 50000000 FTQ IN: 8908950 FTQ occupancy: 14.9143 DECODE IN: 8908944 DECODE occupancy: 4.9516 ROB IN: 8908948 ROB occupancy: 55.2427 ROB OUT: 8908980
Heartbeat_Variant_0 : 1403 0.342529 per_variant_size: 0 1403 0 0 0 0 0 0 0 
Heartbeat_Variant_1 : 1297 0.31665 per_variant_size: 0 582 715 0 0 0 0 0 0 
Heartbeat_Variant_2 : 1349 0.329346 per_variant_size: 0 502 354 293 200 0 0 0 0 
Heartbeat_Variant_3 : 0 0 per_variant_size: 0 0 0 0 0 0 0 0 0 
Heartbeat_Variant_0_evicts 0 : 5948 1 : 346 2 : 382 3 : 0 
Heartbeat_Variant_1_evicts 0 : 337 1 : 0 2 : 528 3 : 0 
Heartbeat_Variant_2_evicts 0 : 375 1 : 507 2 : 0 3 : 0 
Heartbeat_Variant_3_evicts 0 : 0 1 : 0 2 : 0 3 : 0 
Heartbeat CPU 0 instructions: 90000002 cycles: 58732567 heartbeat IPC: 0.877701 cumulative IPC: 0.893916 (Simulation time: 0 hr 11 min 4 sec) 
Cycle: 60000000 FTQ IN: 8837287 FTQ occupancy: 14.7214 DECODE IN: 8837287 DECODE occupancy: 4.86971 ROB IN: 8837287 ROB occupancy: 53.2242 ROB OUT: 8837252
Heartbeat_Variant_0 : 1398 0.341309 per_variant_size: 0 1398 0 0 0 0 0 0 0 
Heartbeat_Variant_1 : 1297 0.31665 per_variant_size: 0 576 721 0 0 0 0 0 0 
Heartbeat_Variant_2 : 1360 0.332031 per_variant_size: 0 495 382 282 201 0 0 0 0 
Heartbeat_Variant_3 : 0 0 per_variant_size: 0 0 0 0 0 0 0 0 0 
Heartbeat_Variant_0_evicts 0 : 5666 1 : 107 2 : 103 3 : 0 
Heartbeat_Variant_1_evicts 0 : 102 1 : 0 2 : 298 3 : 0 
Heartbeat_Variant_2_evicts 0 : 114 1 : 294 2 : 0 3 : 0 
Heartbeat_Variant_3_evicts 0 : 0 1 : 0 2 : 0 3 : 0 
Heartbeat CPU 0 instructions: 100000003 cycles: 69807280 heartbeat IPC: 0.902958 cumulative IPC: 0.89571 (Simulation time: 0 hr 12 min 17 sec) 
Finished CPU 0 instructions: 50000003 cycles: 55821666 cumulative IPC: 0.89571 (Simulation time: 0 hr 12 min 17 sec) 

ChampSim completed all CPUs

Region of Interest Statistics

CPU 0 cumulative IPC: 0.89571 instructions: 50000003 cycles: 55821666
 Fetch stage stalled: 27.767  Sim cycles: 55821666 fetch stall cycle: 15500029
 Empty decode stage: 68.6771  Sim cycles: 55821666 fetch stall cycle: 38336708
ITLB TOTAL     ACCESS:    7356537  HIT:    6860243  MISS:     496294  HIT %:    93.2537  MISS %:     6.7463   MPKI: 9.92588
ITLB LOAD TRANSLATION INSTRUCTION	ACCESS:    7356537  HIT:    6860243  MISS:     496294  HIT %:    93.2537  MISS %:     6.7463  MPKI: 9.92588

ITLB AVERAGE MISS LATENCY: 9.04905 cycles
ITLB RQ	ACCESS:    8484877	FORWARD:          0	MERGED:     929760	TO_CACHE:    7555117

DTLB TOTAL     ACCESS:   10308365  HIT:    9832593  MISS:     475772  HIT %:    95.3846  MISS %:     4.6154   MPKI: 9.51544
DTLB LOAD TRANSLATION DATA	ACCESS:   10308365  HIT:    9832593  MISS:     475772  HIT %:    95.3846  MISS %:     4.6154  MPKI: 9.51544

DTLB AVERAGE MISS LATENCY: 9.31208 cycles
DTLB RQ	ACCESS:   14438042	FORWARD:          0	MERGED:    4100318	TO_CACHE:   10337724

STLB TOTAL     ACCESS:    1230776  HIT:    1228715  MISS:       2061  HIT %:    99.8325  MISS %:   0.167455   MPKI: 0.04122
STLB LOAD TRANSLATION INSTRUCTION	ACCESS:     496295  HIT:     496044  MISS:        251  HIT %:    99.9494  MISS %:  0.0505748  MPKI: 0.00502
STLB LOAD TRANSLATION DATA	ACCESS:     475758  HIT:     473974  MISS:       1784  HIT %:     99.625  MISS %:   0.374981  MPKI: 0.03568
STLB TRANSLATION FROM L1D PREFETCHER DATA	ACCESS:     258723  HIT:     258697  MISS:         26  HIT %:      99.99  MISS %:  0.0100494  MPKI: 0.00052

STLB AVERAGE MISS LATENCY: 74.6007 cycles
STLB RQ	ACCESS:    1347685	FORWARD:          0	MERGED:     116870	TO_CACHE:    1230815

STLB Hit, L1D data hit: 0
STLB Hit, L2C data hit: 0
STLB Hit, LLC data hit: 0
STLB Hit, LLC data miss: 0
STLB STLB hints to L2: 0
L1D TOTAL     ACCESS:   14228763  HIT:   13107142  MISS:    1121621  HIT %:    92.1172  MISS %:    7.88277   MPKI: 22.4324
L1D LOAD DATA	ACCESS:    7571723  HIT:    6833178  MISS:     738545  HIT %:     90.246  MISS %:    9.75399  MPKI: 14.7709
L1D RFO DATA	ACCESS:    6322628  HIT:    6034516  MISS:     288112  HIT %:    95.4432  MISS %:    4.55684  MPKI: 5.76224
L1D PREFETCH DATA	ACCESS:     334412  HIT:     239448  MISS:      94964  HIT %:    71.6027  MISS %:    28.3973  MPKI: 1.89928

L1D PREFETCH  REQUESTED:     751305  ISSUED:     751305  USEFUL:      35107  USELESS:      68394
L1D USEFUL LOAD PREFETCHES:      35107 PREFETCH ISSUED TO LOWER LEVEL:     103582  ACCURACY: 33.893
 TIMELY PREFETCHES:      35107 LATE PREFETCHES: 8544 DROPPED PREFETCHES: 7
L1D AVERAGE MISS LATENCY: 316820 cycles
L1D RQ	ACCESS:   11407827	FORWARD:          0	MERGED:    3646385	TO_CACHE:    7606553
L1D WQ	ACCESS:    6952233	FORWARD:     154958	MERGED:     120744	TO_CACHE:    6831489
L1D PQ	ACCESS:     375687	FORWARD:          0	MERGED:          0	TO_CACHE:     375618

L1D UNIQUE REGIONS ACCESSED: 0
L1D REGIONS CONFLICTS: 0
L1D Cross Page Prefetch Requests: 6684
L1D Same Page Prefetch Requests: 753163
L1D ROI Sum of L1D PQ occupancy: 4776135
L1D PREFETCHES PUSHED FROM L2C: 0
L1I TOTAL     ACCESS:    7935301  HIT:    5162492  MISS:    2772809  HIT %:    65.0573  MISS %:    34.9427   MPKI: 55.4562
L1I LOAD INSTRUCTION	ACCESS:    7935301  HIT:    5162492  MISS:    2772809  HIT %:    65.0573  MISS %:    34.9427  MPKI: 55.4562

L1I AVERAGE MISS LATENCY: 17.0407 cycles
L1I RQ	ACCESS:   15523451	FORWARD:          0	MERGED:    7038574	TO_CACHE:    8484877

L1BTB TOTAL     ACCESS:    5671091  HIT:    2033369  MISS:    3637722  HIT %:     35.855  MISS %:     64.145   MPKI: 72.7544
L1BTB BRANCH_DIRECT_JUMP	ACCESS:     548828  HIT:     144096  MISS:     404732	AVERAGE STALL: 22.0853
L1BTB BRANCH_INDIRECT	ACCESS:     182711  HIT:      65796  MISS:     116915	AVERAGE STALL: 49.2696
L1BTB BRANCH_CONDITIONAL	ACCESS:    2703621  HIT:    1407433  MISS:    1296188	AVERAGE STALL: 28.8197
L1BTB BRANCH_DIRECT_CALL	ACCESS:     946149  HIT:     105326  MISS:     840823	AVERAGE STALL: 38.7361
L1BTB BRANCH_INDIRECT_CALL	ACCESS:     171813  HIT:      21108  MISS:     150705	AVERAGE STALL: 65.9339
L1BTB BRANCH_RETURN	ACCESS:    1117969  HIT:     289610  MISS:     828359	AVERAGE STALL: 33.6819
L1BTB BRANCH_OTHER ACCESS:          0  HIT:          0  MISS:          0	AVERAGE STALL: -nan
L1BTB TOTAL ROB OCCUPANCY AT BTB MISS: 0.62864

L2BTB TOTAL     ACCESS:    3612376  HIT:    3543588  MISS:      68788  HIT %:    98.0958  MISS %:    1.90423   MPKI: 1.37576
L2BTB BRANCH_DIRECT_JUMP	ACCESS:     400617  HIT:     395957  MISS:       4660	AVERAGE STALL: 22.0853
L2BTB BRANCH_INDIRECT	ACCESS:     106582  HIT:     103891  MISS:       2691	AVERAGE STALL: 49.2696
L2BTB BRANCH_CONDITIONAL	ACCESS:    1296188  HIT:    1290767  MISS:       5421	AVERAGE STALL: 28.8197
L2BTB BRANCH_DIRECT_CALL	ACCESS:     840823  HIT:     838720  MISS:       2103	AVERAGE STALL: 38.7361
L2BTB BRANCH_INDIRECT_CALL	ACCESS:     141223  HIT:     130838  MISS:      10385	AVERAGE STALL: 65.9339
L2BTB BRANCH_RETURN	ACCESS:     826943  HIT:     783415  MISS:      43528	AVERAGE STALL: 33.6819
L2BTB BRANCH_OTHER ACCESS:          0  HIT:          0  MISS:          0	AVERAGE STALL: -nan
L2BTB TOTAL ROB OCCUPANCY AT BTB MISS: 33.2444

L2C TOTAL     ACCESS:    4511256  HIT:    4018202  MISS:     493054  HIT %:    89.0706  MISS %:    10.9294   MPKI: 9.86108
L2C LOAD INSTRUCTION	ACCESS:    2772808  HIT:    2509472  MISS:     263336  HIT %:    90.5029  MISS %:    9.49709  MPKI: 5.26672
L2C LOAD TRANSLATION INSTRUCTION	ACCESS:        289  HIT:        101  MISS:        188  HIT %:    34.9481  MISS %:    65.0519  MPKI: 0.00376
L2C LOAD DATA	ACCESS:     729996  HIT:     648885  MISS:      81111  HIT %:    88.8888  MISS %:    11.1112  MPKI: 1.62222
L2C RFO DATA	ACCESS:     288013  HIT:     232791  MISS:      55222  HIT %:    80.8266  MISS %:    19.1734  MPKI: 1.10444
L2C PREFETCH DATA	ACCESS:     195026  HIT:     120357  MISS:      74669  HIT %:    61.7133  MISS %:    38.2867  MPKI: 1.49338
L2C WRITEBACK DATA	ACCESS:     523214  HIT:     506029  MISS:      17185  HIT %:    96.7155  MISS %:    3.28451  MPKI: 0.3437
L2C LOAD TRANSLATION DATA	ACCESS:       1862  HIT:        536  MISS:       1326  HIT %:    28.7863  MISS %:    71.2137  MPKI: 0.02652
L2C TRANSLATION FROM L1D PREFETCHER DATA	ACCESS:         48  HIT:         31  MISS:         17  HIT %:    64.5833  MISS %:    35.4167  MPKI: 0.00034

L2C PREFETCH  REQUESTED:      98745  ISSUED:      98745  USEFUL:       9364  USELESS:      65753
L2C USEFUL LOAD PREFETCHES:       9364 PREFETCH ISSUED TO LOWER LEVEL:      75026  ACCURACY: 12.481
 TIMELY PREFETCHES:       9364 LATE PREFETCHES: 357 DROPPED PREFETCHES: 0
L2C AVERAGE MISS LATENCY: 38.0656 cycles
L2C RQ	ACCESS:    3793046	FORWARD:          0	MERGED:          0	TO_CACHE:    3793016
L2C WQ	ACCESS:     523214	FORWARD:         31	MERGED:          0	TO_CACHE:     523214
L2C PQ	ACCESS:     202327	FORWARD:          0	MERGED:       3766	TO_CACHE:     198560

L2C Dense regions hint from L2: 0
PSCL5 TOTAL     ACCESS:       4146  HIT:       2073  MISS:       2073  HIT %:         50  MISS %:         50   MPKI: 0.04146
PSCL5 LOAD TRANSLATION INSTRUCTION	ACCESS:       4050  HIT:       2025  MISS:       2025  HIT %:         50  MISS %:         50  MPKI: 0.0405
PSCL5 TRANSLATION FROM L1D PREFETCHER INSTRUCTION	ACCESS:         96  HIT:         48  MISS:         48  HIT %:         50  MISS %:         50  MPKI: 0.00096


PSCL4 TOTAL     ACCESS:       3953  HIT:       1971  MISS:       1982  HIT %:    49.8609  MISS %:    50.1391   MPKI: 0.03964
PSCL4 LOAD TRANSLATION INSTRUCTION	ACCESS:       3149  HIT:       1925  MISS:       1224  HIT %:    61.1305  MISS %:    38.8695  MPKI: 0.02448
PSCL4 TRANSLATION FROM L1D PREFETCHER INSTRUCTION	ACCESS:         78  HIT:         46  MISS:         32  HIT %:    58.9744  MISS %:    41.0256  MPKI: 0.00064
PSCL4 LOAD TRANSLATION DATA	ACCESS:        712  HIT:          0  MISS:        712  HIT %:          0  MISS %:        100  MPKI: 0.01424
PSCL4 TRANSLATION FROM L1D PREFETCHER DATA	ACCESS:         14  HIT:          0  MISS:         14  HIT %:          0  MISS %:        100  MPKI: 0.00028


PSCL3 TOTAL     ACCESS:       4045  HIT:       2017  MISS:       2028  HIT %:     49.864  MISS %:     50.136   MPKI: 0.04056
PSCL3 LOAD TRANSLATION INSTRUCTION	ACCESS:       3195  HIT:       1971  MISS:       1224  HIT %:    61.6901  MISS %:    38.3099  MPKI: 0.02448
PSCL3 TRANSLATION FROM L1D PREFETCHER INSTRUCTION	ACCESS:         78  HIT:         46  MISS:         32  HIT %:    58.9744  MISS %:    41.0256  MPKI: 0.00064
PSCL3 LOAD TRANSLATION DATA	ACCESS:        758  HIT:          0  MISS:        758  HIT %:          0  MISS %:        100  MPKI: 0.01516
PSCL3 TRANSLATION FROM L1D PREFETCHER DATA	ACCESS:         14  HIT:          0  MISS:         14  HIT %:          0  MISS %:        100  MPKI: 0.00028


PSCL2 TOTAL     ACCESS:       4039  HIT:       1966  MISS:       2073  HIT %:    48.6754  MISS %:    51.3246   MPKI: 0.04146
PSCL2 LOAD TRANSLATION INSTRUCTION	ACCESS:       2178  HIT:       1918  MISS:        260  HIT %:    88.0624  MISS %:    11.9376  MPKI: 0.0052
PSCL2 TRANSLATION FROM L1D PREFETCHER INSTRUCTION	ACCESS:         48  HIT:         48  MISS:          0  HIT %:        100  MISS %:          0  MPKI: 0
PSCL2 LOAD TRANSLATION DATA	ACCESS:       1765  HIT:          0  MISS:       1765  HIT %:          0  MISS %:        100  MPKI: 0.0353
PSCL2 TRANSLATION FROM L1D PREFETCHER DATA	ACCESS:         48  HIT:          0  MISS:         48  HIT %:          0  MISS %:        100  MPKI: 0.00096


LLC TOTAL     ACCESS:     558474  HIT:     529610  MISS:      28864  HIT %:    94.8316  MISS %:    5.16837   MPKI: 0.57728
LLC LOAD INSTRUCTION	ACCESS:     263336  HIT:     262096  MISS:       1240  HIT %:    99.5291  MISS %:   0.470881  MPKI: 0.0248
LLC LOAD TRANSLATION INSTRUCTION	ACCESS:        188  HIT:        153  MISS:         35  HIT %:     81.383  MISS %:     18.617  MPKI: 0.0007
LLC LOAD DATA	ACCESS:      80774  HIT:      76937  MISS:       3837  HIT %:    95.2497  MISS %:    4.75029  MPKI: 0.07674
LLC RFO DATA	ACCESS:      55197  HIT:      41736  MISS:      13461  HIT %:    75.6128  MISS %:    24.3872  MPKI: 0.26922
LLC PREFETCH DATA	ACCESS:      75026  HIT:      65171  MISS:       9855  HIT %:    86.8646  MISS %:    13.1354  MPKI: 0.1971
LLC WRITEBACK DATA	ACCESS:      82610  HIT:      82276  MISS:        334  HIT %:    99.5957  MISS %:   0.404309  MPKI: 0.00668
LLC LOAD TRANSLATION DATA	ACCESS:       1326  HIT:       1226  MISS:        100  HIT %:    92.4585  MISS %:    7.54148  MPKI: 0.002
LLC TRANSLATION FROM L1D PREFETCHER DATA	ACCESS:         17  HIT:         15  MISS:          2  HIT %:    88.2353  MISS %:    11.7647  MPKI: 4e-05

LLC AVERAGE MISS LATENCY: 154.327 cycles
LLC RQ	ACCESS:     400843	FORWARD:          0	MERGED:          0	TO_CACHE:     400838
LLC WQ	ACCESS:      82610	FORWARD:          5	MERGED:          0	TO_CACHE:      82610
LLC PQ	ACCESS:      75026	FORWARD:          0	MERGED:          0	TO_CACHE:      75026

LLC Dense regions hint to LLC: 0

RAW hits: 1227804
Loads Generated: 12635631
Loads sent to L1D: 11407827
Stores Generated: 6952200
Stores sent to L1D: 6952233
Major fault: 0 Minor fault: 2578
Allocated PAGES: 2578

stream: 
stream:times selected: 1180125
stream:pref_filled: 120900
stream:pref_useful: 24456
stream:pref_late: 6792
stream:misses: 7614
stream:misses_by_poll: 0

CS: 
CS:times selected: 177579
CS:pref_filled: 58422
CS:pref_useful: 35449
CS:pref_late: 7466
CS:misses: 16572
CS:misses_by_poll: 0

CPLX: 
CPLX:times selected: 1001456
CPLX:pref_filled: 22479
CPLX:pref_useful: 5280
CPLX:pref_late: 3199
CPLX:misses: 93123
CPLX:misses_by_poll: 1

NL_L1: 
NL:times selected: 19656
NL:pref_filled: 608
NL:pref_useful: 279
NL:pref_late: 337
NL:misses: 1440
NL:misses_by_poll: 0

total selections: 2378816
total_filled: 94964
total_useful: 35107
total_late: 19178
total_polluted: 1
total_misses_after_warmup: 773376
conflicts: 5990053

test: 117657

DRAM Statistics
 CHANNEL 0
 RQ ROW_BUFFER_HIT:      10501  ROW_BUFFER_MISS:      18016
 DBUS_CONGESTED:         11
 WQ ROW_BUFFER_HIT:       1540  ROW_BUFFER_MISS:      12064  FULL:          0

 AVG_CONGESTED_CYCLE: 5

CPU 0 Branch Prediction Accuracy: 99.8094% MPKI: 0.34876 Average ROB Occupancy at Mispredict: 70.8155
Branch types
NOT_BRANCH: 40849574 81.6991%
BRANCH_DIRECT_JUMP: 548828 1.09766%
BRANCH_INDIRECT: 182711 0.365422%
BRANCH_CONDITIONAL: 6182642 12.3653%
BRANCH_DIRECT_CALL: 946149 1.8923%
BRANCH_INDIRECT_CALL: 171813 0.343626%
BRANCH_RETURN: 1117969 2.23594%
BRANCH_OTHER: 0 0%

DRAM PAGES: 1048576
Allocated PAGES: 2578
Average_ROB_Occupancy: 55.0777
Average_Decode_Occupancy: 4.9397
Average_FTQ_Occupancy: 14.865
Indirect max targets: 14 Average targets: 1.17516
Branch_type:  BRANCH_DIRECT_JUMP:  Count Percentage: 3.61336 6.01027 4.17054 7.78646 8.05939 6.00498 1.34673 63.0083 
Branch_type:  BRANCH_INDIRECT:  Count Percentage: 11.7685 3.44172 2.49436 17.3859 11.0485 2.81143 0.93696 50.1127 
Branch_type:  BRANCH_CONDITIONAL:  Count Percentage: 20.8605 10.3502 1.99622 5.99533 3.18714 4.26679 0.637426 52.7063 
Branch_type:  BRANCH_DIRECT_CALL:  Count Percentage: 0.904747 1.28408 0.731794 3.50294 3.20988 2.61248 0.725289 87.0288 
Branch_type:  BRANCH_INDIRECT_CALL:  Count Percentage: 9.57556 0 3.00237 0.000873629 0.907119 1.71843 0.997394 83.7982 
Branch_type:  BRANCH_RETURN:  Count Percentage: 4.75735 7.4572 1.02289 5.82575 5.09199 4.16785 0.753085 70.9239 
Branch_type:  BRANCH_DIRECT_JUMP:  Total Count: 39637 65930 45749 85414 88408 65872 14773 691173 
Branch_type:  BRANCH_INDIRECT:  Total Count: 43019 12581 9118 63553 40387 10277 3425 183184 
Branch_type:  BRANCH_CONDITIONAL:  Total Count: 2578301 1279255 246727 741005 393921 527362 78784 6514346 
Branch_type:  BRANCH_DIRECT_CALL:  Total Count: 17106 24278 13836 66230 60689 49394 13713 1645449 
Branch_type:  BRANCH_INDIRECT_CALL:  Total Count: 32882 0 10310 3 3115 5901 3425 287759 
Branch_type:  BRANCH_RETURN:  Total Count: 106324 166664 22861 130202 113803 93149 16831 1585106 
Number of unique branch instructions: 10547
Upper 32 bits: 
aaaa
ffff
ffff0000
Unique upper 32 bits: 3
Unique upper 36 bits: 3
Unique upper 40 bits: 5
Unique upper 44 bits: 32
Unique upper 48 bits: 157
Variant_0 : 1398 0.341309
Variant_1 : 1297 0.31665
Variant_2 : 1360 0.332031
Variant_3 : 0 0
Offset_3 4367
Offset_4 251
Offset_5 472
Offset_6 531
Offset_7 621
Offset_8 567
Offset_9 501
Offset_10 409
Offset_11 335
Offset_12 303
Offset_13 238
Offset_14 240
Offset_15 194
Offset_16 223
Offset_17 165
Offset_18 144
Offset_19 251
Offset_20 139
Offset_21 235
Offset_22 406
Offset_23 241
Offset_24 346
Offset_25 117
Offset_47 94
decode_dispatch_called: 30346120 54.3626
Dispatch_width: 0 18235764 60.0926 32.6679
Dispatch_width: 1 2311659 7.61764 4.14115
Dispatch_width: 2 1124661 3.70611 2.01474
Dispatch_width: 3 1086119 3.5791 1.94569
Dispatch_width: 4 1037703 3.41956 1.85896
Dispatch_width: 5 1271741 4.19079 2.27822
Dispatch_width: 6 5278473 17.3942 9.45596
Empty_decode_cycles: 25475546 45.6374
ROB_full_cycles: 532982 0.954794
Starvation_cycles_per_kilo_instr: 500.102
Starvation_cycles_per_kilo_instr_3: 477.008
Starvation_cycles_per_kilo_instr_0: 431.783
Branch_type_1  (3,1)  (4,7)  (5,38)  (6,72)  (7,123)  (8,147)  (9,133)  (10,109)  (11,74)  (12,47)  (13,11)  (14,2)  (15,3)  (16,4)  (18,1)  (19,5)  (20,2)  (21,1)  (22,3)  (23,2)  (24,10)  (25,12) 
Branch_type_2  (3,1)  (4,1)  (5,1)  (8,4)  (9,4)  (10,1)  (12,1)  (13,1)  (14,1)  (16,3)  (17,2)  (20,2)  (21,2)  (23,5)  (24,1)  (47,43) 
Branch_type_3  (3,4365)  (4,243)  (5,429)  (6,443)  (7,470)  (8,354)  (9,274)  (10,164)  (11,127)  (12,54)  (13,10) 
Branch_type_4  (6,3)  (7,8)  (8,24)  (9,53)  (10,64)  (11,68)  (12,111)  (13,101)  (14,108)  (15,92)  (16,97)  (17,76)  (18,61)  (19,122)  (20,71)  (21,124)  (22,213)  (23,136)  (24,202)  (25,101) 
Branch_type_5  (8,3)  (9,1)  (10,4)  (11,5)  (12,3)  (13,14)  (14,16)  (15,11)  (16,22)  (17,11)  (18,23)  (19,14)  (20,11)  (21,13)  (22,43)  (23,26)  (24,37) 
Branch_type_6  (5,4)  (6,13)  (7,20)  (8,35)  (9,36)  (10,67)  (11,61)  (12,87)  (13,101)  (14,113)  (15,88)  (16,97)  (17,76)  (18,59)  (19,110)  (20,53)  (21,95)  (22,147)  (23,72)  (24,96)  (25,4)  (47,51) 
Unique trigger count: 
Variant_0_evicts_0 : 0
Variant_0_evicts_1 : 0
Variant_0_evicts_2 : 0
Variant_0_evicts_3 : 0
Variant_1_evicts_0 : 0
Variant_1_evicts_1 : 0
Variant_1_evicts_2 : 0
Variant_1_evicts_3 : 0
Variant_2_evicts_0 : 0
Variant_2_evicts_1 : 0
Variant_2_evicts_2 : 0
Variant_2_evicts_3 : 0
Variant_3_evicts_0 : 0
Variant_3_evicts_1 : 0
Variant_3_evicts_2 : 0
Variant_3_evicts_3 : 0
BTB PER SET UNIQUE ADDR: 12 10 14 11 14 11 6 11 13 13 11 14 12 12 10 10 10 10 14 12 11 13 16 11 13 12 14 10 12 10 16 17 10 12 8 12 12 10 10 10 9 10 12 13 8 10 15 10 13 14 15 7 10 14 12 6 13 12 12 13 12 15 15 13 13 11 8 9 17 16 12 11 16 10 10 8 10 12 9 15 15 8 10 17 15 16 14 7 10 14 9 7 15 13 9 16 9 11 14 14 17 14 14 10 13 10 7 12 9 11 11 14 12 11 11 7 11 11 13 15 13 14 11 13 11 11 5 15 18 14 13 14 9 14 14 18 6 9 11 16 12 13 8 10 12 17 14 9 6 16 8 14 10 14 7 15 12 16 20 11 12 12 15 16 14 13 9 9 14 10 12 11 14 13 13 10 14 13 11 16 10 12 11 14 13 17 7 12 13 12 12 13 15 19 9 12 12 10 12 12 15 15 6 8 10 6 14 9 10 9 11 14 15 13 14 16 12 10 12 10 11 15 10 11 7 10 17 11 11 14 9 7 10 14 14 15 16 15 11 9 14 12 19 13 11 15 11 9 11 9 18 10 15 11 16 10 11 11 7 9 11 7 3 10 10 8 11 7 11 10 12 12 11 6 7 10 10 12 14 11 12 15 14 10 13 10 12 15 19 9 13 10 13 18 6 15 11 14 11 13 13 12 11 17 13 13 14 10 15 11 13 15 6 24 9 7 18 14 10 17 8 13 8 13 13 8 11 10 11 8 13 16 7 14 11 15 9 13 8 20 12 12 9 14 15 12 12 11 14 9 13 12 14 9 12 13 9 14 12 12 10 16 9 13 12 14 10 15 13 13 9 5 12 15 5 13 13 18 12 14 16 11 7 6 10 11 13 11 12 15 11 9 14 18 7 10 14 12 12 11 8 5 9 14 15 14 13 12 14 14 11 7 8 18 12 14 12 14 14 14 8 13 11 9 12 10 13 12 11 13 15 11 9 8 14 14 18 7 8 9 17 13 12 10 17 10 11 15 14 14 14 15 11 11 18 18 13 13 13 13 13 10 14 13 18 15 16 12 13 16 15 13 11 9 12 17 14 11 6 10 14 12 13 16 9 14 17 18 17 12 12 14 7 8 10 11 14 16 12 10 12 19 13 18 7 8 11 15 12 10 11 17 10 11 14 14 11 14 11 6 13 10 13 11 14 17 19 8 9 16 12 16 10 14 11 14 10 7 13 10 12 11 13 9 19 12 9 10 8 15 15 11 17 10 13 15 16 8 16 17 15 14 12 16 8 18 9 13 5 24 16 13 10 17 10 13 21 13 8 12 15 14 7 14 12 13 13 13 15 17 11 18 14 7 13 12 10 15 12 10 15 12 10 9 9 12 13 13 11 11 19 14 13 12 7 14 9 18 9 12 19 13 7 9 13 14 14 14 9 12 12 15 17 12 17 8 15 15 9 18 9 14 14 14 13 12 11 14 18 13 8 17 9 13 18 13 10 10 11 15 12 7 18 14 11 16 8 11 10 10 14 12 9 17 18 7 15 17 10 14 10 14 15 10 13 15 10 13 15 9 14 13 11 8 8 15 8 14 9 17 8 14 15 16 8 11 11 11 9 8 15 11 8 9 14 9 13 11 12 17 12 12 14 12 12 10 13 8 12 11 16 12 13 11 8 14 15 12 22 17 9 8 13 11 16 14 12 13 11 12 11 8 17 13 8 8 18 11 8 6 10 10 9 9 10 13 12 14 11 9 12 17 10 10 14 12 11 12 16 12 10 15 13 13 14 11 8 10 13 9 10 8 17 12 16 18 9 9 14 11 19 13 14 7 17 12 12 8 13 12 15 14 8 12 16 14 21 17 8 15 12 16 7 13 16 15 9 15 10 13 9 13 14 12 13 11 7 11 12 13 12 14 8 13 9 16 9 20 10 11 11 11 13 12 13 19 13 15 11 11 13 11 11 9 15 7 14 9 14 13 13 14 18 11 11 7 16 10 11 10 14 10 11 11 18 14 13 11 14 17 14 8 13 12 14 15 18 11 11 7 14 9 9 12 6 14 8 13 13 13 13 13 15 17 11 17 16 11 11 12 13 13 11 12 10 9 9 12 11 8 14 19 16 10 14 19 11 8 13 13 13 15 12 10 11 11 11 13 10 11 13 14 11 15 9 20 12 9 17 12 15 14 14 11 14 14 13 13 9 11 8 18 12 12 18 11 13 14 12 18 9 12 13 13 12 17 15 14 18 15 16 13 16 17 13 13 10 12 11 11 19 14 10 13 14 16 8 18 12 13 9 12 15 8 11 13 5 10 8 9 10 16 10 11 
BTB PER SET COUNT: 19 14 1871 11 19 15 7 17 934 19 15 22 2893 366 12 11 957 11 435 14 13 16 746 11 27 17 17 756 81 204 20 400 13 15 10 146 17 16 28 17 10 14 24 1293 928 85 20 14 20 415 25 8 14 16 56 243 17 14 19 18 18 18 21 17 15 16 10 1481 26 25 951 586 40 12 12 14 16 16 12 23 584 12 14 37 18 1195 23 12 17 22 15 8 507 335 10 18 12 1005 21 22 24 90 19 11 2418 18 12 22 139 14 11 28 1366 14 18 495 15 12 1142 1155 671 21 18 14 12 63 5 20 30 861 14 17 11 25 20 38 9 10 13 20 13 29 12 13 17 18 25 12 9 85 15 134 787 20 7 18 827 19 28 12 16 153 23 20 25 18 11 10 16 465 23 14 21 20 19 10 30 21 380 26 14 230 586 21 72 66 12 14 18 1105 13 16 19 22 12 20 15 231 18 15 19 23 6 8 12 8 14 413 16 692 12 17 20 9214 16 300 16 20 2383 11 18 24 271 15 8 35 22 13 450 17 12 7 12 19 362 20 24 451 31 9 1226 16 34 18 12 973 13 14 11 18 21 15 20 14 24 15 18 21 7 11 12 14 3 17 10 10 17 7 227 13 12 16 13 6 7 12 10 21 18 15 24 20 489 971 21 12 12 211 28 9 21 13 19 21 7 21 13 20 13 32 18 14 11 28 23 21 89 11 23 18 19 24 6 46 1601 842 21 20 12 25 9 3635 14 18 18 9 13 14 17 13 17 22 10 21 12 24 12 75 10 316 17 745 13 24 459 21 14 16 19 10 24 45 23 11 12 14 11 21 531 22 11 20 9 20 21 19 11 18 14 22 16 6 18 23 6 18 15 23 14 375 188 18 8 6 14 11 20 14 19 35 19 10 22 27 7 10 21 19 1130 117 11 5 16 18 20 15 17 93 18 16 17 7 11 305 15 25 14 56 19 21 8 15 18 11 23 18 321 14 11 17 19 13 9 13 106 28 22 400 10 11 24 24 53 11 2488 12 14 24 18 24 860 20 13 15 274 409 16 17 17 16 17 14 16 469 32 73 6450 23 15 27 28 17 16 15 13 30 23 20 9 12 17 1189 13 23 11 16 498 30 343 15 22 20 97 9 11 11 784 34 19 13 18 28 14 64 8 13 18 27 19 19 83 113 974 11 18 20 16 23 17 7 16 11 21 452 21 26 30 228 16 21 16 23 24 23 20 23 18 968 15 10 17 14 18 9 27 101 12 14 10 877 18 15 175 13 19 25 26 8 24 29 20 37 23 19 10 27 87 17 5 91 23 18 10 24 2473 19 66 15 8 14 21 26 7 3599 16 24 408 15 27 23 17 22 666 7 25 15 11 403 241 10 18 16 118 14 15 13 16 27 15 11 25 865 23 14 7 31 333 30 12 510 21 15 12 13 16 14 19 148 12 18 17 23 22 17 30 13 19 979 12 19 11 18 17 533 18 23 146 20 902 14 8 30 10 24 402 501 14 12 13 21 345 11 24 19 17814 36 8 1014 1484 15 19 15 17 23 28 11 16 33 14 20 11 21 163 71 933 20 10 25 85 11 17 16 12 13 1999 18 8 83 14 35 12 29 304 24 18 361 12 13 10 11 20 15 975 12 33 164 498 14 18 21 16 1066 20 1125 2385 23 14 14 15 17 20 18 15 15 12 1014 84 21 256 27 13 16 24 63 26 16 16 16 13 15 1016 9 1216 1968 1155 16 21 1480 11 7 13 10 11 28 10 27 12 575 13 9 13 29 11 11 17 15 16 18 34 14 556 30 378 22 15 14 10 10 20 11 15 1003 23 17 540 217 9 10 16 27 151 16 18 59 19 19 17 9 18 65 23 7785 15 21 47 53 30 1493 12 2215 19 614 16 20 20 39 15 26 20 24 15 28 25 18 88 1842 8 977 978 20 18 883 9 13 197 20 15 35 22 17 15 317 132 22 1492 25 17 18 13 12 713 201 14 9 16 7 18 10 22 49 15 49 33 13 13 7 26 12 2889 13 16 13 138 14 474 417 14 16 18 37 18 13 861 28 19 24 29 14 2001 10 29 12 14 515 8 27 8 19 13 287 294 482 23 22 13 21 583 1290 22 17 21 979 971 15 11 11 10 16 13 21 16 24 22 13 24 27 14 9 31 28 19 1200 20 11 17 16 13 15 17 19 629 20 1561 1805 12 30 15 13 112 692 537 19 984 12 19 20 19 18 53 63 53 501 20 18 496 12 15 21 16 730 13 16 15 1589 17 1032 17 127 31 17 19 149 27 28 18 19 10 1486 15 292 37 1494 17 20 18 20 9 25 18 25 12 25 19 18 12 18 5 17 11 14 12 215 18 12 
To predecode: 0
Predecoding something: 0
Predecode request dropped: 0
sizeofblock_0 0
sizeofblock_1 33010
sizeofblock_2 38746
sizeofblock_3 44875
sizeofblock_4 22283
sizeofblock_5 0
sizeofblock_6 0
sizeofblock_7 0
sizeofblock_8 0
Variant_0 Correct: 1615622 Incorrect: 0 Accuracy: 1
Variant_1 Correct: 2095800 Incorrect: 0 Accuracy: 1
Variant_2 Correct: 3653671 Incorrect: 0 Accuracy: 1
Variant_3 Correct: 0 Incorrect: 0 Accuracy: -nan
