
*** ChampSim Multicore Out-of-Order Simulator ***

Warmup Instructions: 50000000
Simulation Instructions: 50000000
Number of CPUs: 1
LLC sets: 2048
LLC ways: 16
Off-chip DRAM Size: 4096 MB Channels: 1 Width: 64-bit Data Rate: 6400 MT/s
CPU 0 runs ./micro_traces/srv286.trace.gz
.gz
ITLB has LRU replacement policy
DTLB has LRU replacement policy
STLB has LRU replacement policy
FDIP Prefetcher at L1I
L1I has LRU replacement policy
L1D has LRU replacement policy
Initialize SRRIP state for L2C
Initialize DRRIP state for LLC
Heartbeat_Variant_0 : 1296 0.316406 per_variant_size: 0 1296 0 0 0 0 0 0 0 
Heartbeat_Variant_1 : 2495 0.609131 per_variant_size: 0 620 1875 0 0 0 0 0 0 
Heartbeat_Variant_2 : 0 0 per_variant_size: 0 0 0 0 0 0 0 0 0 
Heartbeat_Variant_3 : 0 0 per_variant_size: 0 0 0 0 0 0 0 0 0 
Heartbeat_Variant_0_evicts 0 : 5802 1 : 350 2 : 0 3 : 0 
Heartbeat_Variant_1_evicts 0 : 294 1 : 0 2 : 0 3 : 0 
Heartbeat_Variant_2_evicts 0 : 0 1 : 0 2 : 0 3 : 0 
Heartbeat_Variant_3_evicts 0 : 0 1 : 0 2 : 0 3 : 0 
Heartbeat CPU 0 instructions: 10000003 cycles: 2797490 heartbeat IPC: 3.57463 cumulative IPC: 3.57463 (Simulation time: 0 hr 1 min 42 sec) 
Heartbeat_Variant_0 : 1353 0.330322 per_variant_size: 0 1353 0 0 0 0 0 0 0 
Heartbeat_Variant_1 : 2590 0.632324 per_variant_size: 0 508 2082 0 0 0 0 0 0 
Heartbeat_Variant_2 : 0 0 per_variant_size: 0 0 0 0 0 0 0 0 0 
Heartbeat_Variant_3 : 0 0 per_variant_size: 0 0 0 0 0 0 0 0 0 
Heartbeat_Variant_0_evicts 0 : 5760 1 : 319 2 : 0 3 : 0 
Heartbeat_Variant_1_evicts 0 : 312 1 : 0 2 : 0 3 : 0 
Heartbeat_Variant_2_evicts 0 : 0 1 : 0 2 : 0 3 : 0 
Heartbeat_Variant_3_evicts 0 : 0 1 : 0 2 : 0 3 : 0 
Heartbeat CPU 0 instructions: 20000000 cycles: 5595741 heartbeat IPC: 3.57366 cumulative IPC: 3.57415 (Simulation time: 0 hr 3 min 18 sec) 
Heartbeat_Variant_0 : 1358 0.331543 per_variant_size: 0 1358 0 0 0 0 0 0 0 
Heartbeat_Variant_1 : 2595 0.633545 per_variant_size: 0 509 2086 0 0 0 0 0 0 
Heartbeat_Variant_2 : 0 0 per_variant_size: 0 0 0 0 0 0 0 0 0 
Heartbeat_Variant_3 : 0 0 per_variant_size: 0 0 0 0 0 0 0 0 0 
Heartbeat_Variant_0_evicts 0 : 5584 1 : 38 2 : 0 3 : 0 
Heartbeat_Variant_1_evicts 0 : 33 1 : 0 2 : 0 3 : 0 
Heartbeat_Variant_2_evicts 0 : 0 1 : 0 2 : 0 3 : 0 
Heartbeat_Variant_3_evicts 0 : 0 1 : 0 2 : 0 3 : 0 
Heartbeat CPU 0 instructions: 30000001 cycles: 8391721 heartbeat IPC: 3.57656 cumulative IPC: 3.57495 (Simulation time: 0 hr 4 min 55 sec) 
Heartbeat_Variant_0 : 1363 0.332764 per_variant_size: 0 1363 0 0 0 0 0 0 0 
Heartbeat_Variant_1 : 2605 0.635986 per_variant_size: 0 503 2102 0 0 0 0 0 0 
Heartbeat_Variant_2 : 0 0 per_variant_size: 0 0 0 0 0 0 0 0 0 
Heartbeat_Variant_3 : 0 0 per_variant_size: 0 0 0 0 0 0 0 0 0 
Heartbeat_Variant_0_evicts 0 : 5531 1 : 118 2 : 0 3 : 0 
Heartbeat_Variant_1_evicts 0 : 116 1 : 0 2 : 0 3 : 0 
Heartbeat_Variant_2_evicts 0 : 0 1 : 0 2 : 0 3 : 0 
Heartbeat_Variant_3_evicts 0 : 0 1 : 0 2 : 0 3 : 0 
Heartbeat CPU 0 instructions: 40000000 cycles: 11189196 heartbeat IPC: 3.57465 cumulative IPC: 3.57488 (Simulation time: 0 hr 6 min 33 sec) 
Heartbeat_Variant_0 : 1373 0.335205 per_variant_size: 0 1373 0 0 0 0 0 0 0 
Heartbeat_Variant_1 : 2613 0.637939 per_variant_size: 0 481 2132 0 0 0 0 0 0 
Heartbeat_Variant_2 : 0 0 per_variant_size: 0 0 0 0 0 0 0 0 0 
Heartbeat_Variant_3 : 0 0 per_variant_size: 0 0 0 0 0 0 0 0 0 
Heartbeat_Variant_0_evicts 0 : 5632 1 : 121 2 : 0 3 : 0 
Heartbeat_Variant_1_evicts 0 : 117 1 : 0 2 : 0 3 : 0 
Heartbeat_Variant_2_evicts 0 : 0 1 : 0 2 : 0 3 : 0 
Heartbeat_Variant_3_evicts 0 : 0 1 : 0 2 : 0 3 : 0 
Heartbeat CPU 0 instructions: 50000003 cycles: 13985723 heartbeat IPC: 3.57587 cumulative IPC: 3.57507 (Simulation time: 0 hr 8 min 9 sec) 

Warmup complete CPU 0 instructions: 50000003 cycles: 13985723 (Simulation time: 0 hr 8 min 9 sec) 

Cycle: 20000000 FTQ IN: 58153542 FTQ occupancy: 19.3498 DECODE IN: 58153499 DECODE occupancy: 50.3334 ROB IN: 58153499 ROB occupancy: 306.908 ROB OUT: 58153494
Heartbeat_Variant_0 : 1371 0.334717 per_variant_size: 0 1371 0 0 0 0 0 0 0 
Heartbeat_Variant_1 : 2620 0.639648 per_variant_size: 0 483 2137 0 0 0 0 0 0 
Heartbeat_Variant_2 : 0 0 per_variant_size: 0 0 0 0 0 0 0 0 0 
Heartbeat_Variant_3 : 0 0 per_variant_size: 0 0 0 0 0 0 0 0 0 
Heartbeat_Variant_0_evicts 0 : 5658 1 : 53 2 : 0 3 : 0 
Heartbeat_Variant_1_evicts 0 : 57 1 : 0 2 : 0 3 : 0 
Heartbeat_Variant_2_evicts 0 : 0 1 : 0 2 : 0 3 : 0 
Heartbeat_Variant_3_evicts 0 : 0 1 : 0 2 : 0 3 : 0 
Heartbeat CPU 0 instructions: 60000000 cycles: 21353865 heartbeat IPC: 1.35719 cumulative IPC: 1.35719 (Simulation time: 0 hr 9 min 50 sec) 
Heartbeat_Variant_0 : 1382 0.337402 per_variant_size: 0 1382 0 0 0 0 0 0 0 
Heartbeat_Variant_1 : 2657 0.648682 per_variant_size: 0 460 2197 0 0 0 0 0 0 
Heartbeat_Variant_2 : 0 0 per_variant_size: 0 0 0 0 0 0 0 0 0 
Heartbeat_Variant_3 : 0 0 per_variant_size: 0 0 0 0 0 0 0 0 0 
Heartbeat_Variant_0_evicts 0 : 5950 1 : 425 2 : 0 3 : 0 
Heartbeat_Variant_1_evicts 0 : 428 1 : 0 2 : 0 3 : 0 
Heartbeat_Variant_2_evicts 0 : 0 1 : 0 2 : 0 3 : 0 
Heartbeat_Variant_3_evicts 0 : 0 1 : 0 2 : 0 3 : 0 
Heartbeat CPU 0 instructions: 70000002 cycles: 28753720 heartbeat IPC: 1.35138 cumulative IPC: 1.35428 (Simulation time: 0 hr 11 min 27 sec) 
Cycle: 30000000 FTQ IN: 13546952 FTQ occupancy: 10.3171 DECODE IN: 13546909 DECODE occupancy: 26.4723 ROB IN: 13546849 ROB occupancy: 205.439 ROB OUT: 13546502
Heartbeat_Variant_0 : 1388 0.338867 per_variant_size: 0 1388 0 0 0 0 0 0 0 
Heartbeat_Variant_1 : 2659 0.64917 per_variant_size: 0 449 2210 0 0 0 0 0 0 
Heartbeat_Variant_2 : 0 0 per_variant_size: 0 0 0 0 0 0 0 0 0 
Heartbeat_Variant_3 : 0 0 per_variant_size: 0 0 0 0 0 0 0 0 0 
Heartbeat_Variant_0_evicts 0 : 5690 1 : 195 2 : 0 3 : 0 
Heartbeat_Variant_1_evicts 0 : 193 1 : 0 2 : 0 3 : 0 
Heartbeat_Variant_2_evicts 0 : 0 1 : 0 2 : 0 3 : 0 
Heartbeat_Variant_3_evicts 0 : 0 1 : 0 2 : 0 3 : 0 
Heartbeat CPU 0 instructions: 80000000 cycles: 36174323 heartbeat IPC: 1.3476 cumulative IPC: 1.35205 (Simulation time: 0 hr 13 min 7 sec) 
Cycle: 40000000 FTQ IN: 13531154 FTQ occupancy: 10.6685 DECODE IN: 13531114 DECODE occupancy: 27.3851 ROB IN: 13531114 ROB occupancy: 210.706 ROB OUT: 13531114
Heartbeat_Variant_0 : 1389 0.339111 per_variant_size: 0 1389 0 0 0 0 0 0 0 
Heartbeat_Variant_1 : 2659 0.64917 per_variant_size: 0 448 2211 0 0 0 0 0 0 
Heartbeat_Variant_2 : 0 0 per_variant_size: 0 0 0 0 0 0 0 0 0 
Heartbeat_Variant_3 : 0 0 per_variant_size: 0 0 0 0 0 0 0 0 0 
Heartbeat_Variant_0_evicts 0 : 5647 1 : 36 2 : 0 3 : 0 
Heartbeat_Variant_1_evicts 0 : 35 1 : 0 2 : 0 3 : 0 
Heartbeat_Variant_2_evicts 0 : 0 1 : 0 2 : 0 3 : 0 
Heartbeat_Variant_3_evicts 0 : 0 1 : 0 2 : 0 3 : 0 
Heartbeat CPU 0 instructions: 90000000 cycles: 43472672 heartbeat IPC: 1.37017 cumulative IPC: 1.35653 (Simulation time: 0 hr 14 min 43 sec) 
Cycle: 50000000 FTQ IN: 13526256 FTQ occupancy: 10.6463 DECODE IN: 13526352 DECODE occupancy: 27.282 ROB IN: 13526352 ROB occupancy: 210.416 ROB OUT: 13526352
Heartbeat_Variant_0 : 1393 0.340088 per_variant_size: 0 1393 0 0 0 0 0 0 0 
Heartbeat_Variant_1 : 2660 0.649414 per_variant_size: 0 432 2228 0 0 0 0 0 0 
Heartbeat_Variant_2 : 0 0 per_variant_size: 0 0 0 0 0 0 0 0 0 
Heartbeat_Variant_3 : 0 0 per_variant_size: 0 0 0 0 0 0 0 0 0 
Heartbeat_Variant_0_evicts 0 : 5599 1 : 221 2 : 0 3 : 0 
Heartbeat_Variant_1_evicts 0 : 217 1 : 0 2 : 0 3 : 0 
Heartbeat_Variant_2_evicts 0 : 0 1 : 0 2 : 0 3 : 0 
Heartbeat_Variant_3_evicts 0 : 0 1 : 0 2 : 0 3 : 0 
Heartbeat CPU 0 instructions: 100000001 cycles: 50909233 heartbeat IPC: 1.34471 cumulative IPC: 1.35415 (Simulation time: 0 hr 16 min 19 sec) 
Finished CPU 0 instructions: 50000002 cycles: 36923513 cumulative IPC: 1.35415 (Simulation time: 0 hr 16 min 19 sec) 

ChampSim completed all CPUs

Region of Interest Statistics

CPU 0 cumulative IPC: 1.35415 instructions: 50000002 cycles: 36923513
 Fetch stage stalled: 60.237  Sim cycles: 36923513 fetch stall cycle: 22241620
 Empty decode stage: 49.1099  Sim cycles: 36923513 fetch stall cycle: 18133087
ITLB TOTAL     ACCESS:    5859924  HIT:    5368510  MISS:     491414  HIT %:     91.614  MISS %:    8.38601   MPKI: 9.82828
ITLB LOAD TRANSLATION INSTRUCTION	ACCESS:    5737161  HIT:    5245747  MISS:     491414  HIT %:    91.4345  MISS %:    8.56546  MPKI: 9.82828
ITLB TRANSLATION FROM L1D PREFETCHER INSTRUCTION	ACCESS:     122763  HIT:     122763  MISS:          0  HIT %:        100  MISS %:          0  MPKI: 0

ITLB AVERAGE MISS LATENCY: 9.07096 cycles
ITLB RQ	ACCESS:    7985516	FORWARD:          0	MERGED:    1703315	TO_CACHE:    6282201

DTLB TOTAL     ACCESS:    9015127  HIT:    8543565  MISS:     471562  HIT %:    94.7692  MISS %:    5.23079   MPKI: 9.43124
DTLB LOAD TRANSLATION DATA	ACCESS:    9015127  HIT:    8543565  MISS:     471562  HIT %:    94.7692  MISS %:    5.23079  MPKI: 9.43124

DTLB AVERAGE MISS LATENCY: 9.3387 cycles
DTLB RQ	ACCESS:   13369565	FORWARD:          0	MERGED:    4318033	TO_CACHE:    9051532

STLB TOTAL     ACCESS:    1213672  HIT:    1211502  MISS:       2170  HIT %:    99.8212  MISS %:   0.178796   MPKI: 0.0434
STLB LOAD TRANSLATION INSTRUCTION	ACCESS:     491414  HIT:     491115  MISS:        299  HIT %:    99.9392  MISS %:  0.0608448  MPKI: 0.00598
STLB LOAD TRANSLATION DATA	ACCESS:     471554  HIT:     469709  MISS:       1845  HIT %:    99.6087  MISS %:    0.39126  MPKI: 0.0369
STLB TRANSLATION FROM L1D PREFETCHER DATA	ACCESS:     250704  HIT:     250678  MISS:         26  HIT %:    99.9896  MISS %:  0.0103708  MPKI: 0.00052

STLB AVERAGE MISS LATENCY: 74.688 cycles
STLB RQ	ACCESS:    1334180	FORWARD:          0	MERGED:     120470	TO_CACHE:    1213710

STLB Hit, L1D data hit: 0
STLB Hit, L2C data hit: 0
STLB Hit, LLC data hit: 0
STLB Hit, LLC data miss: 0
STLB STLB hints to L2: 0
L1D TOTAL     ACCESS:   13117800  HIT:   12005172  MISS:    1112628  HIT %:    91.5182  MISS %:    8.48182   MPKI: 22.2526
L1D LOAD DATA	ACCESS:    6585295  HIT:    5853122  MISS:     732173  HIT %:    88.8817  MISS %:    11.1183  MPKI: 14.6435
L1D RFO DATA	ACCESS:    6204067  HIT:    5917543  MISS:     286524  HIT %:    95.3817  MISS %:    4.61833  MPKI: 5.73048
L1D PREFETCH DATA	ACCESS:     328438  HIT:     234507  MISS:      93931  HIT %:    71.4007  MISS %:    28.5993  MPKI: 1.87862

L1D PREFETCH  REQUESTED:     742917  ISSUED:     742917  USEFUL:      35053  USELESS:      68012
L1D USEFUL LOAD PREFETCHES:      35053 PREFETCH ISSUED TO LOWER LEVEL:     103128  ACCURACY: 33.9898
 TIMELY PREFETCHES:      35053 LATE PREFETCHES: 9161 DROPPED PREFETCHES: 8
L1D AVERAGE MISS LATENCY: 268115 cycles
L1D RQ	ACCESS:   10718148	FORWARD:          0	MERGED:    3937372	TO_CACHE:    6620230
L1D WQ	ACCESS:    6941569	FORWARD:     161057	MERGED:     192234	TO_CACHE:    6749335
L1D PQ	ACCESS:     371714	FORWARD:          0	MERGED:          0	TO_CACHE:     371203

L1D UNIQUE REGIONS ACCESSED: 0
L1D REGIONS CONFLICTS: 0
L1D Cross Page Prefetch Requests: 6878
L1D Same Page Prefetch Requests: 748517
L1D ROI Sum of L1D PQ occupancy: 4733556
L1D PREFETCHES PUSHED FROM L2C: 0
L1I TOTAL     ACCESS:    7208211  HIT:    4457096  MISS:    2751115  HIT %:    61.8336  MISS %:    38.1664   MPKI: 55.0223
L1I LOAD INSTRUCTION	ACCESS:    6542624  HIT:    3791509  MISS:    2751115  HIT %:    57.9509  MISS %:    42.0491  MPKI: 55.0223
L1I PREFETCH INSTRUCTION	ACCESS:     665587  HIT:     665587  MISS:          0  HIT %:        100  MISS %:          0  MPKI: 0

L1I PREFETCH  REQUESTED:    1573571  ISSUED:    1573571  USEFUL:          0  USELESS:          0
L1I USEFUL LOAD PREFETCHES:          0 PREFETCH ISSUED TO LOWER LEVEL:          0  ACCURACY: -nan
 TIMELY PREFETCHES:          0 LATE PREFETCHES: 0 DROPPED PREFETCHES: 0
L1I AVERAGE MISS LATENCY: 17.3219 cycles
L1I RQ	ACCESS:    9467226	FORWARD:          0	MERGED:    2621899	TO_CACHE:    6845327
L1I PQ	ACCESS:    1573571	FORWARD:          0	MERGED:     433382	TO_CACHE:    1140189

L1BTB TOTAL     ACCESS:    5670108  HIT:    2053603  MISS:    3616505  HIT %:    36.2181  MISS %:    63.7819   MPKI: 72.3301
L1BTB BRANCH_DIRECT_JUMP	ACCESS:     548066 HIT:     145517 MISS:     402549 AVERAGE STALL: 39.7452 AVERAGE FETCH STALL: 15.0716 AVERAGE FETCH QUEUE STALL: 9.54071 AVERAGE DECODE STALL: 14.211 AVERAGE EXECUTE STALL: 2.1395e+15
L1BTB BRANCH_INDIRECT	ACCESS:     183282 HIT:      66455 MISS:     116827 AVERAGE STALL: 92.407 AVERAGE FETCH STALL: 10.7985 AVERAGE FETCH QUEUE STALL: 11.3655 AVERAGE DECODE STALL: 10.7421 AVERAGE EXECUTE STALL: 58.5397
L1BTB BRANCH_CONDITIONAL	ACCESS:    2712439 HIT:    1423550 MISS:    1288889 AVERAGE STALL: 43.8949 AVERAGE FETCH STALL: 20.0145 AVERAGE FETCH QUEUE STALL: 14.0686 AVERAGE DECODE STALL: 9.01852 AVERAGE EXECUTE STALL: 2.47541e+15
L1BTB BRANCH_DIRECT_CALL	ACCESS:     941935 HIT:     105865 MISS:     836070 AVERAGE STALL: 54.6628 AVERAGE FETCH STALL: 30.0511 AVERAGE FETCH QUEUE STALL: 13.1592 AVERAGE DECODE STALL: 10.6489 AVERAGE EXECUTE STALL: 8.27208e+15
L1BTB BRANCH_INDIRECT_CALL	ACCESS:     171231 HIT:      21367 MISS:     149864 AVERAGE STALL: 118.329 AVERAGE FETCH STALL: 12.9674 AVERAGE FETCH QUEUE STALL: 8.83475 AVERAGE DECODE STALL: 8.89485 AVERAGE EXECUTE STALL: 87.1459
L1BTB BRANCH_RETURN	ACCESS:    1113155 HIT:     290849 MISS:     822306 AVERAGE STALL: 42.0633 AVERAGE FETCH STALL: 16.7796 AVERAGE FETCH QUEUE STALL: 3.78388 AVERAGE DECODE STALL: 5.25686 AVERAGE EXECUTE STALL: 4.26485e+14
L1BTB BRANCH_OTHER ACCESS:          0 HIT:          0 MISS:          0 AVERAGE STALL: -nan AVERAGE FETCH STALL: -nan AVERAGE FETCH QUEUE STALL: -nan AVERAGE DECODE STALL: -nan AVERAGE EXECUTE STALL: -nan
L1BTB TOTAL ROB OCCUPANCY AT BTB MISS: 2.37023

L2BTB TOTAL     ACCESS:    3591092  HIT:    3521744  MISS:      69348  HIT %:    98.0689  MISS %:    1.93111   MPKI: 1.38696
L2BTB BRANCH_DIRECT_JUMP	ACCESS:     398350 HIT:     393906 MISS:       4444 AVERAGE STALL: 39.7452 AVERAGE FETCH STALL: 15.0716 AVERAGE FETCH QUEUE STALL: 9.54071 AVERAGE DECODE STALL: 14.211 AVERAGE EXECUTE STALL: 2.1395e+15
L2BTB BRANCH_INDIRECT	ACCESS:     106585 HIT:     103894 MISS:       2691 AVERAGE STALL: 92.407 AVERAGE FETCH STALL: 10.7985 AVERAGE FETCH QUEUE STALL: 11.3655 AVERAGE DECODE STALL: 10.7421 AVERAGE EXECUTE STALL: 58.5397
L2BTB BRANCH_CONDITIONAL	ACCESS:    1288889 HIT:    1281342 MISS:       7547 AVERAGE STALL: 43.8949 AVERAGE FETCH STALL: 20.0145 AVERAGE FETCH QUEUE STALL: 14.0686 AVERAGE DECODE STALL: 9.01852 AVERAGE EXECUTE STALL: 2.47541e+15
L2BTB BRANCH_DIRECT_CALL	ACCESS:     836070 HIT:     833792 MISS:       2278 AVERAGE STALL: 54.6628 AVERAGE FETCH STALL: 30.0511 AVERAGE FETCH QUEUE STALL: 13.1592 AVERAGE DECODE STALL: 10.6489 AVERAGE EXECUTE STALL: 8.27208e+15
L2BTB BRANCH_INDIRECT_CALL	ACCESS:     140288 HIT:     129793 MISS:      10495 AVERAGE STALL: 118.329 AVERAGE FETCH STALL: 12.9674 AVERAGE FETCH QUEUE STALL: 8.83475 AVERAGE DECODE STALL: 8.89485 AVERAGE EXECUTE STALL: 87.1459
L2BTB BRANCH_RETURN	ACCESS:     820910 HIT:     779017 MISS:      41893 AVERAGE STALL: 42.0633 AVERAGE FETCH STALL: 16.7796 AVERAGE FETCH QUEUE STALL: 3.78388 AVERAGE DECODE STALL: 5.25686 AVERAGE EXECUTE STALL: 4.26485e+14
L2BTB BRANCH_OTHER ACCESS:          0 HIT:          0 MISS:          0 AVERAGE STALL: -nan AVERAGE FETCH STALL: -nan AVERAGE FETCH QUEUE STALL: -nan AVERAGE DECODE STALL: -nan AVERAGE EXECUTE STALL: -nan
L2BTB TOTAL ROB OCCUPANCY AT BTB MISS: 123.608

L2C TOTAL     ACCESS:    4473489  HIT:    3965542  MISS:     507947  HIT %:    88.6454  MISS %:    11.3546   MPKI: 10.1589
L2C LOAD INSTRUCTION	ACCESS:    2751114  HIT:    2480302  MISS:     270812  HIT %:    90.1563  MISS %:    9.84372  MPKI: 5.41624
L2C LOAD TRANSLATION INSTRUCTION	ACCESS:        343  HIT:         87  MISS:        256  HIT %:    25.3644  MISS %:    74.6356  MPKI: 0.00512
L2C LOAD DATA	ACCESS:     722993  HIT:     640587  MISS:      82406  HIT %:    88.6021  MISS %:    11.3979  MPKI: 1.64812
L2C RFO DATA	ACCESS:     286456  HIT:     227266  MISS:      59190  HIT %:    79.3371  MISS %:    20.6629  MPKI: 1.1838
L2C PREFETCH DATA	ACCESS:     190800  HIT:     112509  MISS:      78291  HIT %:     58.967  MISS %:     41.033  MPKI: 1.56582
L2C WRITEBACK DATA	ACCESS:     519799  HIT:     504178  MISS:      15621  HIT %:    96.9948  MISS %:     3.0052  MPKI: 0.31242
L2C LOAD TRANSLATION DATA	ACCESS:       1933  HIT:        581  MISS:       1352  HIT %:    30.0569  MISS %:    69.9431  MPKI: 0.02704
L2C TRANSLATION FROM L1D PREFETCHER DATA	ACCESS:         51  HIT:         32  MISS:         19  HIT %:    62.7451  MISS %:    37.2549  MPKI: 0.00038

L2C PREFETCH  REQUESTED:      94593  ISSUED:      94593  USEFUL:       7873  USELESS:      70840
L2C USEFUL LOAD PREFETCHES:       7873 PREFETCH ISSUED TO LOWER LEVEL:      78665  ACCURACY: 10.0083
 TIMELY PREFETCHES:       7873 LATE PREFETCHES: 374 DROPPED PREFETCHES: 0
L2C AVERAGE MISS LATENCY: 38.8012 cycles
L2C RQ	ACCESS:    3762942	FORWARD:          0	MERGED:          0	TO_CACHE:    3762891
L2C WQ	ACCESS:     519799	FORWARD:         51	MERGED:          0	TO_CACHE:     519799
L2C PQ	ACCESS:     197721	FORWARD:          0	MERGED:       3311	TO_CACHE:     194410

L2C Dense regions hint from L2: 0
PSCL5 TOTAL     ACCESS:       4362  HIT:       2181  MISS:       2181  HIT %:         50  MISS %:         50   MPKI: 0.04362
PSCL5 LOAD TRANSLATION INSTRUCTION	ACCESS:       4260  HIT:       2130  MISS:       2130  HIT %:         50  MISS %:         50  MPKI: 0.0426
PSCL5 TRANSLATION FROM L1D PREFETCHER INSTRUCTION	ACCESS:        102  HIT:         51  MISS:         51  HIT %:         50  MISS %:         50  MPKI: 0.00102


PSCL4 TOTAL     ACCESS:       4138  HIT:       2063  MISS:       2075  HIT %:     49.855  MISS %:     50.145   MPKI: 0.0415
PSCL4 LOAD TRANSLATION INSTRUCTION	ACCESS:       2276  HIT:       2015  MISS:        261  HIT %:    88.5325  MISS %:    11.4675  MPKI: 0.00522
PSCL4 TRANSLATION FROM L1D PREFETCHER INSTRUCTION	ACCESS:         57  HIT:         48  MISS:          9  HIT %:    84.2105  MISS %:    15.7895  MPKI: 0.00018
PSCL4 LOAD TRANSLATION DATA	ACCESS:       1766  HIT:          0  MISS:       1766  HIT %:          0  MISS %:        100  MPKI: 0.03532
PSCL4 TRANSLATION FROM L1D PREFETCHER DATA	ACCESS:         39  HIT:          0  MISS:         39  HIT %:          0  MISS %:        100  MPKI: 0.00078


PSCL3 TOTAL     ACCESS:       4220  HIT:       2104  MISS:       2116  HIT %:    49.8578  MISS %:    50.1422   MPKI: 0.04232
PSCL3 LOAD TRANSLATION INSTRUCTION	ACCESS:       2317  HIT:       2056  MISS:        261  HIT %:    88.7354  MISS %:    11.2646  MPKI: 0.00522
PSCL3 TRANSLATION FROM L1D PREFETCHER INSTRUCTION	ACCESS:         57  HIT:         48  MISS:          9  HIT %:    84.2105  MISS %:    15.7895  MPKI: 0.00018
PSCL3 LOAD TRANSLATION DATA	ACCESS:       1807  HIT:          0  MISS:       1807  HIT %:          0  MISS %:        100  MPKI: 0.03614
PSCL3 TRANSLATION FROM L1D PREFETCHER DATA	ACCESS:         39  HIT:          0  MISS:         39  HIT %:          0  MISS %:        100  MPKI: 0.00078


PSCL2 TOTAL     ACCESS:       4236  HIT:       2055  MISS:       2181  HIT %:    48.5127  MISS %:    51.4873   MPKI: 0.04362
PSCL2 LOAD TRANSLATION INSTRUCTION	ACCESS:       2304  HIT:       2004  MISS:        300  HIT %:    86.9792  MISS %:    13.0208  MPKI: 0.006
PSCL2 TRANSLATION FROM L1D PREFETCHER INSTRUCTION	ACCESS:         51  HIT:         51  MISS:          0  HIT %:        100  MISS %:          0  MPKI: 0
PSCL2 LOAD TRANSLATION DATA	ACCESS:       1830  HIT:          0  MISS:       1830  HIT %:          0  MISS %:        100  MPKI: 0.0366
PSCL2 TRANSLATION FROM L1D PREFETCHER DATA	ACCESS:         51  HIT:          0  MISS:         51  HIT %:          0  MISS %:        100  MPKI: 0.00102


LLC TOTAL     ACCESS:     574863  HIT:     544379  MISS:      30484  HIT %:    94.6972  MISS %:    5.30283   MPKI: 0.60968
LLC LOAD INSTRUCTION	ACCESS:     270812  HIT:     269650  MISS:       1162  HIT %:    99.5709  MISS %:    0.42908  MPKI: 0.02324
LLC LOAD TRANSLATION INSTRUCTION	ACCESS:        256  HIT:        212  MISS:         44  HIT %:    82.8125  MISS %:    17.1875  MPKI: 0.00088
LLC LOAD DATA	ACCESS:      82044  HIT:      78489  MISS:       3555  HIT %:     95.667  MISS %:    4.33304  MPKI: 0.0711
LLC RFO DATA	ACCESS:      59168  HIT:      43698  MISS:      15470  HIT %:    73.8541  MISS %:    26.1459  MPKI: 0.3094
LLC PREFETCH DATA	ACCESS:      78663  HIT:      68869  MISS:       9794  HIT %:    87.5494  MISS %:    12.4506  MPKI: 0.19588
LLC WRITEBACK DATA	ACCESS:      82549  HIT:      82166  MISS:        383  HIT %:     99.536  MISS %:   0.463967  MPKI: 0.00766
LLC LOAD TRANSLATION DATA	ACCESS:       1352  HIT:       1277  MISS:         75  HIT %:    94.4527  MISS %:    5.54734  MPKI: 0.0015
LLC TRANSLATION FROM L1D PREFETCHER DATA	ACCESS:         19  HIT:         18  MISS:          1  HIT %:    94.7368  MISS %:    5.26316  MPKI: 2e-05

LLC AVERAGE MISS LATENCY: 160.501 cycles
LLC RQ	ACCESS:     413661	FORWARD:          0	MERGED:          0	TO_CACHE:     413651
LLC WQ	ACCESS:      82549	FORWARD:         12	MERGED:          0	TO_CACHE:      82549
LLC PQ	ACCESS:      78665	FORWARD:          0	MERGED:          0	TO_CACHE:      78663

LLC Dense regions hint to LLC: 0

RAW hits: 1919058
Loads Generated: 12637205
Loads sent to L1D: 10718148
Stores Generated: 6941569
Stores sent to L1D: 6941569
Major fault: 0 Minor fault: 2562
Allocated PAGES: 2562

stream: 
stream:times selected: 1187922
stream:pref_filled: 123328
stream:pref_useful: 24365
stream:pref_late: 7060
stream:misses: 8241
stream:misses_by_poll: 0

CS: 
CS:times selected: 179502
CS:pref_filled: 58091
CS:pref_useful: 35156
CS:pref_late: 7816
CS:misses: 17491
CS:misses_by_poll: 2

CPLX: 
CPLX:times selected: 1007231
CPLX:pref_filled: 19527
CPLX:pref_useful: 4524
CPLX:pref_late: 3101
CPLX:misses: 93768
CPLX:misses_by_poll: 0

NL_L1: 
NL:times selected: 21353
NL:pref_filled: 755
NL:pref_useful: 327
NL:pref_late: 266
NL:misses: 1837
NL:misses_by_poll: 0

total selections: 2396008
total_filled: 93931
total_useful: 35053
total_late: 19754
total_polluted: 2
total_misses_after_warmup: 767109
conflicts: 5536332

test: 118138

DRAM Statistics
 CHANNEL 0
 RQ ROW_BUFFER_HIT:      11168  ROW_BUFFER_MISS:      18924
 DBUS_CONGESTED:         10
 WQ ROW_BUFFER_HIT:       1593  ROW_BUFFER_MISS:      12891  FULL:          0

 AVG_CONGESTED_CYCLE: 6

CPU 0 Branch Prediction Accuracy: 99.8145% MPKI: 0.339 Average ROB Occupancy at Mispredict: 171.33
Branch types
NOT_BRANCH: 40860697 81.7214%
BRANCH_DIRECT_JUMP: 548066 1.09613%
BRANCH_INDIRECT: 183282 0.366564%
BRANCH_CONDITIONAL: 6181395 12.3628%
BRANCH_DIRECT_CALL: 941935 1.88387%
BRANCH_INDIRECT_CALL: 171231 0.342462%
BRANCH_RETURN: 1113155 2.22631%
BRANCH_OTHER: 0 0%

DRAM PAGES: 1048576
Allocated PAGES: 2562
Average_ROB_Occupancy: 210.325
Average_Decode_Occupancy: 27.1492
Average_FTQ_Occupancy: 10.5907
Indirect max targets: 14 Average targets: 1.15512
Branch_type:  BRANCH_DIRECT_JUMP:  Count Percentage: 2.90143 7.5637 3.70446 8.67973 2.40218 5.96739 0.993393 67.7877 
Branch_type:  BRANCH_INDIRECT:  Count Percentage: 11.7418 3.4892 2.53946 0 1.33657 9.68025 19.2208 51.9919 
Branch_type:  BRANCH_CONDITIONAL:  Count Percentage: 21.0721 3.16387 1.72307 8.67058 1.57307 4.79695 1.82362 57.1767 
Branch_type:  BRANCH_DIRECT_CALL:  Count Percentage: 0.759335 1.29599 1.4387 4.21002 3.32107 2.35744 0.731302 85.8861 
Branch_type:  BRANCH_INDIRECT_CALL:  Count Percentage: 9.55031 0.569946 2.99346 4.84731 1.03465 1.71042 1.28274 78.0112 
Branch_type:  BRANCH_RETURN:  Count Percentage: 3.98547 0.696497 1.27129 9.26402 3.10398 6.1894 2.96919 72.5202 
Branch_type:  BRANCH_DIRECT_JUMP:  Total Count: 31795 82886 40595 95116 26324 65393 10886 742845 
Branch_type:  BRANCH_INDIRECT:  Total Count: 42950 12763 9289 0 4889 35409 70307 190179 
Branch_type:  BRANCH_CONDITIONAL:  Total Count: 2603936 390968 212925 1071448 194389 592772 225350 7065488 
Branch_type:  BRANCH_DIRECT_CALL:  Total Count: 14329 24456 27149 79445 62670 44486 13800 1620710 
Branch_type:  BRANCH_INDIRECT_CALL:  Total Count: 32759 1955 10268 16627 3549 5867 4400 267590 
Branch_type:  BRANCH_RETURN:  Total Count: 88911 15538 28361 206669 69246 138078 66239 1617837 
Number of unique branch instructions: 10227
Upper 32 bits: 
aaaa
ffff
ffff0000
Unique upper 32 bits: 3
Unique upper 36 bits: 3
Unique upper 40 bits: 5
Unique upper 44 bits: 32
Unique upper 48 bits: 157
Variant_0 : 1393 0.340088
Variant_1 : 2660 0.649414
Variant_2 : 0 0
Variant_3 : 0 0
Offset_3 4203
Offset_4 265
Offset_5 469
Offset_6 514
Offset_7 602
Offset_8 528
Offset_9 488
Offset_10 399
Offset_11 324
Offset_12 296
Offset_13 212
Offset_14 231
Offset_15 193
Offset_16 227
Offset_17 154
Offset_18 126
Offset_19 245
Offset_20 144
Offset_21 261
Offset_22 394
Offset_23 241
Offset_24 354
Offset_25 88
Offset_47 86
Offset_64 1
decode_dispatch_called: 23512674 63.6794
Dispatch_width: 0 12345848 52.5072 33.4363
Dispatch_width: 1 820000 3.48748 2.22081
Dispatch_width: 2 752969 3.2024 2.03927
Dispatch_width: 3 469567 1.99708 1.27173
Dispatch_width: 4 4131563 17.5716 11.1895
Dispatch_width: 5 217551 0.92525 0.589194
Dispatch_width: 6 4775176 20.3089 12.9326
Empty_decode_cycles: 13410839 36.3206
ROB_full_cycles: 6463757 17.5058
Starvation_cycles_per_kilo_instr: 256.846
Starvation_cycles_per_kilo_instr_3: 213.355
Starvation_cycles_per_kilo_instr_0: 192.929
Branch_type_1  (3,1)  (4,10)  (5,39)  (6,70)  (7,118)  (8,130)  (9,129)  (10,101)  (11,72)  (12,51)  (13,8)  (14,2)  (15,3)  (16,4)  (18,1)  (19,4)  (20,2)  (21,1)  (22,3)  (23,2)  (24,10)  (25,12) 
Branch_type_2  (3,1)  (5,1)  (8,3)  (9,3)  (12,1)  (13,1)  (14,1)  (16,3)  (17,2)  (20,2)  (21,2)  (23,5)  (24,1)  (47,40) 
Branch_type_3  (3,4201)  (4,255)  (5,425)  (6,428)  (7,451)  (8,333)  (9,269)  (10,162)  (11,133)  (12,58)  (13,7) 
Branch_type_4  (6,4)  (7,8)  (8,26)  (9,55)  (10,63)  (11,62)  (12,102)  (13,90)  (14,103)  (15,92)  (16,102)  (17,70)  (18,57)  (19,118)  (20,74)  (21,141)  (22,209)  (23,136)  (24,204)  (25,72) 
Branch_type_5  (8,2)  (9,1)  (10,4)  (11,5)  (12,3)  (13,14)  (14,16)  (15,11)  (16,20)  (17,11)  (18,16)  (19,13)  (20,11)  (21,13)  (22,42)  (23,26)  (24,41) 
Branch_type_6  (5,4)  (6,12)  (7,25)  (8,34)  (9,31)  (10,69)  (11,52)  (12,81)  (13,92)  (14,109)  (15,87)  (16,98)  (17,71)  (18,52)  (19,110)  (20,55)  (21,104)  (22,140)  (23,72)  (24,98)  (25,4)  (47,46)  (64,1) 
Unique trigger count: 
Variant_0_evicts_0 : 0
Variant_0_evicts_1 : 0
Variant_0_evicts_2 : 0
Variant_0_evicts_3 : 0
Variant_1_evicts_0 : 0
Variant_1_evicts_1 : 0
Variant_1_evicts_2 : 0
Variant_1_evicts_3 : 0
Variant_2_evicts_0 : 0
Variant_2_evicts_1 : 0
Variant_2_evicts_2 : 0
Variant_2_evicts_3 : 0
Variant_3_evicts_0 : 0
Variant_3_evicts_1 : 0
Variant_3_evicts_2 : 0
Variant_3_evicts_3 : 0
BTB PER SET UNIQUE ADDR: 9 11 9 12 10 14 11 10 9 11 9 13 10 11 10 9 10 8 12 11 13 13 12 15 7 11 13 11 11 8 12 12 13 7 6 10 8 14 9 15 13 8 14 11 11 11 11 10 10 8 13 10 12 11 8 7 9 10 6 11 9 16 9 10 10 12 11 7 10 15 13 9 15 9 11 9 7 13 7 11 13 8 12 15 12 14 9 8 11 13 8 8 12 9 7 13 9 9 11 13 14 13 11 10 12 10 10 11 8 13 6 16 13 12 10 10 9 12 11 12 14 9 8 10 8 9 8 9 15 10 9 11 10 9 11 14 8 11 10 17 7 12 15 9 10 11 17 10 7 10 14 11 8 14 7 11 16 9 10 10 10 10 14 13 11 9 7 10 11 9 10 12 13 14 7 9 14 12 11 9 10 11 11 14 13 11 3 9 11 12 15 10 9 9 16 9 9 12 11 11 11 13 11 10 9 9 12 9 6 11 10 10 13 10 11 12 9 11 11 16 6 11 13 8 4 14 10 13 9 9 9 5 13 9 7 11 11 12 11 9 11 8 15 16 12 7 9 5 17 12 11 15 11 9 11 15 8 5 12 12 12 9 6 12 7 5 8 8 11 10 10 7 10 8 8 10 8 11 12 9 8 14 11 9 13 9 10 15 12 11 11 9 13 12 9 14 9 16 11 7 8 12 11 15 11 13 10 8 13 8 10 15 6 19 17 9 15 16 9 11 9 10 10 9 10 13 8 9 11 10 10 11 10 10 8 12 12 7 11 14 12 11 7 11 15 9 11 12 8 10 16 8 8 10 9 14 9 10 7 7 8 15 8 12 9 10 7 13 13 11 11 9 10 13 13 17 12 10 14 11 11 11 11 11 8 14 15 13 12 12 17 7 12 14 6 6 10 14 10 10 9 14 10 11 10 9 11 17 11 12 13 6 10 16 13 9 14 15 18 12 7 16 11 11 13 9 12 7 10 10 17 9 12 14 12 14 15 10 7 9 18 9 10 14 16 5 8 9 11 12 15 13 13 13 11 10 15 12 8 12 10 10 14 10 18 8 7 12 9 12 13 9 11 11 12 17 7 14 10 13 15 10 12 10 11 11 11 12 10 11 11 13 9 7 10 13 12 9 8 13 10 14 9 13 9 10 7 17 16 13 11 16 14 13 9 11 15 13 9 6 8 12 11 7 11 16 18 6 8 9 14 10 6 13 11 15 10 11 14 9 12 6 10 10 13 10 9 10 11 8 8 13 14 12 11 15 10 10 13 11 12 11 8 12 11 11 16 11 13 9 13 14 11 13 10 11 12 12 9 10 12 15 8 7 12 7 8 8 24 14 10 11 10 8 12 6 10 12 10 10 11 7 9 6 9 13 20 6 10 10 16 11 7 8 6 10 9 10 9 12 14 10 7 9 11 11 10 16 9 10 10 13 8 10 10 12 11 7 11 16 13 11 12 9 9 11 10 8 14 9 10 14 12 12 14 14 14 14 13 9 9 8 13 15 12 14 9 11 7 15 12 13 10 12 18 9 11 15 12 13 12 14 12 13 11 11 8 12 12 10 10 15 8 6 11 12 6 11 9 10 8 14 13 12 8 14 9 6 9 8 13 12 11 10 10 10 17 12 9 12 11 11 11 12 7 10 10 5 10 10 9 8 10 15 10 11 12 16 16 11 11 9 9 13 14 14 11 12 11 8 13 12 11 12 9 13 12 14 9 8 7 8 9 13 9 15 10 14 10 13 16 11 11 10 13 10 13 9 11 12 9 12 13 8 7 11 9 13 8 7 8 9 14 12 11 11 10 9 10 10 15 10 17 13 12 13 10 11 12 14 14 16 9 15 12 14 15 13 8 16 14 17 9 11 11 9 11 8 9 17 12 11 14 10 9 16 11 10 9 9 12 9 9 10 9 13 10 15 9 13 11 11 7 8 12 12 11 13 12 10 11 13 9 10 12 9 8 8 13 6 8 16 9 9 11 7 11 10 11 12 12 9 10 15 10 11 9 8 10 11 11 10 9 9 9 13 13 10 8 8 14 12 10 9 4 12 13 16 14 11 9 9 11 9 12 14 16 9 9 10 13 11 8 7 6 7 5 7 11 9 12 10 13 13 12 15 9 7 14 11 7 13 11 11 7 12 11 12 11 13 9 10 9 9 7 15 9 13 11 10 13 8 11 11 12 7 14 8 10 17 11 10 13 10 11 9 16 15 9 14 10 14 10 11 9 16 14 14 10 5 12 11 5 10 14 8 7 14 12 10 12 14 9 11 14 9 12 13 12 11 13 10 9 6 12 9 7 9 7 10 9 11 13 12 
BTB PER SET COUNT: 11 12 1598 15 13 21 987 12 1476 14 13 349 20367 12 11 12 994 10 14 13 14 15 573 98 8 12 14 13 380 8 22 14 15 10 8 12 9 19 14 24 17 12 14 17 14 19 16 12 12 10 17 15 13 12 9 369 11 11 257 13 12 32 98 13 21 389 16 12 12 18 125 499 18 12 17 14 8 17 13 13 20 13 15 17 13 17 10 8 135 16 9 822 356 81 7 18 986 9 17 2516 19 14 13 180 3447 11 11 13 1956 19 6 38 151 26 13 146 10 16 1476 996 810 11 10 11 9 75 13 1480 22 981 11 17 16 9 12 22 14 16 14 26 9 17 20 13 14 207 772 12 7 51 18 282 994 16 8 15 677 9 12 12 10 214 206 15 16 13 13 11 12 1480 17 16 20 17 12 12 21 18 14 15 16 14 993 22 18 1107 3 12 20 995 18 10 10 13 21 111 9 230 17 11 12 33 991 12 14 15 16 9 6 1450 14 12 17 19 13 207 13 13 1633 25 7 14 393 10 4 29 12 25 542 10 14 5 18 14 9 12 18 13 13 9 1291 8 25 321 17 968 9 6 27 20 14 21 12 10 14 23 8 6 14 14 199 11 7 507 7 5 11 10 17 18 14 7 13 10 579 14 8 14 20 9 20 19 13 10 13 10 14 27 17 16 16 15 17 14 11 16 9 27 15 29 8 21 14 19 12 27 10 10 17 9 12 18 7 25 1800 15 30 27 12 16 14 1477 11 10 14 18 8 12 13 12 16 13 47 12 9 16 16 8 15 21 15 17 8 15 36 10 16 15 10 57 20 1663 28 12 12 18 13 10 141 9 13 22 9 15 11 838 7 14 15 12 17 11 13 24 151 24 17 12 514 21 276 12 897 15 9 20 36 21 16 167 259 7 19 16 6 6 14 20 2447 14 12 20 1010 14 14 11 11 592 17 21 287 6 10 20 16 12 19 89 24 13 7 24 14 14 18 16 27 7 13 12 41 12 13 20 35 37 23 207 8 10 346 10 46 19 474 5 498 14 12 15 29 15 17 27 389 949 19 15 9 22 36 12 18 15 20 10 11 19 10 22 15 12 13 15 27 23 11 15 12 21 20 13 15 14 14 989 11 19 11 343 440 16 12 9 13 19 177 324 10 16 10 17 15 15 15 14 7 27 25 15 335 123 427 516 11 15 19 17 12 7 10 16 12 8 15 332 967 6 8 2944 19 16 6 14 18 16 1035 995 15 10 13 6 13 12 20 394 11 13 15 983 9 22 1000 46 17 24 12 12 18 22 16 102 9 15 13 11 154 18 16 10 17 17 17 19 1477 15 14 15 11 11 18 17 11 2941 21 11 12 14 45 18 14 104 13 11 15 8 1440 387 16 10 18 8 9 6 13 18 34 1957 12 16 22 1479 10 9 6 11 11 14 10 18 21 11 12 989 12 14 16 20 9 570 13 17 9 14 11 18 12 800 16 102 17 13 18 10 12 124 403 9 22 9 13 18 12 12 22 280 18 234 23 12 10 12 13 16 200 30 13 995 1476 20 18 17 992 17 28 402 13 21 19 16 14 19 19 37 1448 11 13 15 15 11 12 22 10 13 2462 15 6 178 12 13 242 23 183 19 8 16 11 7 10 13 13 15 1170 11 11 11 96 21 13 219 14 1144 11 1738 8 15 10 5 15 1277 9 9 94 26 12 1735 498 24 26 12 744 12 10 18 17 19 11 14 12 8 1359 18 290 1484 17 16 14 370 9 11 13 9 12 326 18 21 11 508 16 138 51 261 14 11 19 16 22 12 13 15 1518 17 20 11 15 12 11 14 9 7 9 491 25 14 41 994 14 13 12 258 270 11 21 25 14 24 13 14 17 90 21 5338 14 22 13 19 17 2947 12 2066 14 1145 14 12 131 9 14 9 17 19 16 16 22 12 44 1825 14 15 992 13 16 17 9 13 10 20 17 18 15 14689 15 1016 755 11 18 16 21 15 14 14 923 17 11 13 17 12 10 8 19 8 9 54 9 13 15 8 12 11 1717 18 16 9 13 20 684 105 9 12 13 468 14 11 156 10 12 16 19 18 11 10 22 17 15 11 4 18 15 21 152 21 9 991 11 11 16 104 404 859 11 15 15 15 768 8 6 10 10 8 13 28 20 11 376 16 18 1246 12 9 1451 15 9 2011 16 16 7 478 12 18 17 16 11 123 988 3792 9 19 11 16 136 15 18 11 656 12 15 7 291 9 29 26 17 1372 15 12 13 10 19 22 502 20 18 1478 13 163 9 1043 18 600 13 6 16 96 7 16 20 8 18 1484 16 16 21 23 13 16 17 10 15 18 20 993 815 11 10 8 28 14 11 376 8 12 11 15 14 16 
To predecode: 0
Predecoding something: 0
Predecode request dropped: 0
sizeofblock_0 0
sizeofblock_1 51869
sizeofblock_2 88781
sizeofblock_3 0
sizeofblock_4 0
sizeofblock_5 0
sizeofblock_6 0
sizeofblock_7 0
sizeofblock_8 0
Variant_0 Correct: 1612579 Incorrect: 0 Accuracy: 1
Variant_1 Correct: 5732305 Incorrect: 0 Accuracy: 1
Variant_2 Correct: 0 Incorrect: 0 Accuracy: -nan
Variant_3 Correct: 0 Incorrect: 0 Accuracy: -nan
