
*** ChampSim Multicore Out-of-Order Simulator ***

Warmup Instructions: 50000000
Simulation Instructions: 50000000
Number of CPUs: 1
LLC sets: 2048
LLC ways: 16
Off-chip DRAM Size: 4096 MB Channels: 1 Width: 64-bit Data Rate: 6400 MT/s
CPU 0 runs ./micro_traces/srv296.trace.gz
.gz
ITLB has LRU replacement policy
DTLB has LRU replacement policy
STLB has LRU replacement policy
FDIP Prefetcher at L1I
L1I has LRU replacement policy
L1D has LRU replacement policy
Initialize SRRIP state for L2C
Initialize DRRIP state for LLC
Heartbeat_Variant_0 : 1264 0.308594 per_variant_size: 0 1264 0 0 0 0 0 0 0 
Heartbeat_Variant_1 : 1163 0.283936 per_variant_size: 0 552 611 0 0 0 0 0 0 
Heartbeat_Variant_2 : 925 0.22583 per_variant_size: 0 498 280 103 44 0 0 0 0 
Heartbeat_Variant_3 : 720 0.175781 per_variant_size: 0 478 190 41 9 2 0 0 0 
Heartbeat_Variant_0_evicts 0 : 7599 1 : 1879 2 : 1407 3 : 1121 
Heartbeat_Variant_1_evicts 0 : 1860 1 : 0 2 : 1362 3 : 1256 
Heartbeat_Variant_2_evicts 0 : 1355 1 : 1367 2 : 0 3 : 891 
Heartbeat_Variant_3_evicts 0 : 1131 1 : 1240 2 : 881 3 : 0 
Heartbeat CPU 0 instructions: 10000002 cycles: 2798309 heartbeat IPC: 3.57359 cumulative IPC: 3.57359 (Simulation time: 0 hr 1 min 49 sec) 
Heartbeat_Variant_0 : 1263 0.30835 per_variant_size: 0 1263 0 0 0 0 0 0 0 
Heartbeat_Variant_1 : 1165 0.284424 per_variant_size: 0 573 592 0 0 0 0 0 0 
Heartbeat_Variant_2 : 932 0.227539 per_variant_size: 0 513 284 88 47 0 0 0 0 
Heartbeat_Variant_3 : 719 0.175537 per_variant_size: 0 470 203 38 5 3 0 0 0 
Heartbeat_Variant_0_evicts 0 : 6881 1 : 1382 2 : 1050 3 : 822 
Heartbeat_Variant_1_evicts 0 : 1395 1 : 0 2 : 989 3 : 953 
Heartbeat_Variant_2_evicts 0 : 1016 1 : 1014 2 : 0 3 : 581 
Heartbeat_Variant_3_evicts 0 : 844 1 : 942 2 : 568 3 : 0 
Heartbeat CPU 0 instructions: 20000003 cycles: 5593860 heartbeat IPC: 3.57711 cumulative IPC: 3.57535 (Simulation time: 0 hr 3 min 23 sec) 
Heartbeat_Variant_0 : 1276 0.311523 per_variant_size: 0 1276 0 0 0 0 0 0 0 
Heartbeat_Variant_1 : 1149 0.280518 per_variant_size: 0 528 621 0 0 0 0 0 0 
Heartbeat_Variant_2 : 929 0.226807 per_variant_size: 0 491 281 112 45 0 0 0 0 
Heartbeat_Variant_3 : 726 0.177246 per_variant_size: 0 483 185 48 8 2 0 0 0 
Heartbeat_Variant_0_evicts 0 : 6842 1 : 1118 2 : 787 3 : 680 
Heartbeat_Variant_1_evicts 0 : 1097 1 : 0 2 : 771 3 : 852 
Heartbeat_Variant_2_evicts 0 : 773 1 : 774 2 : 0 3 : 493 
Heartbeat_Variant_3_evicts 0 : 702 1 : 844 2 : 486 3 : 0 
Heartbeat CPU 0 instructions: 30000000 cycles: 8390042 heartbeat IPC: 3.5763 cumulative IPC: 3.57567 (Simulation time: 0 hr 5 min 2 sec) 
Heartbeat_Variant_0 : 1270 0.310059 per_variant_size: 0 1270 0 0 0 0 0 0 0 
Heartbeat_Variant_1 : 1158 0.282715 per_variant_size: 0 547 611 0 0 0 0 0 0 
Heartbeat_Variant_2 : 940 0.229492 per_variant_size: 0 524 264 110 42 0 0 0 0 
Heartbeat_Variant_3 : 718 0.175293 per_variant_size: 0 471 193 43 10 1 0 0 0 
Heartbeat_Variant_0_evicts 0 : 7305 1 : 1503 2 : 1233 3 : 968 
Heartbeat_Variant_1_evicts 0 : 1506 1 : 0 2 : 1176 3 : 1068 
Heartbeat_Variant_2_evicts 0 : 1256 1 : 1145 2 : 0 3 : 728 
Heartbeat_Variant_3_evicts 0 : 949 1 : 1094 2 : 711 3 : 0 
Heartbeat CPU 0 instructions: 40000000 cycles: 11186513 heartbeat IPC: 3.57594 cumulative IPC: 3.57573 (Simulation time: 0 hr 6 min 41 sec) 
Heartbeat_Variant_0 : 1260 0.307617 per_variant_size: 0 1260 0 0 0 0 0 0 0 
Heartbeat_Variant_1 : 1157 0.282471 per_variant_size: 0 581 576 0 0 0 0 0 0 
Heartbeat_Variant_2 : 950 0.231934 per_variant_size: 0 552 251 109 38 0 0 0 0 
Heartbeat_Variant_3 : 719 0.175537 per_variant_size: 0 476 200 32 10 1 0 0 0 
Heartbeat_Variant_0_evicts 0 : 6785 1 : 1153 2 : 913 3 : 686 
Heartbeat_Variant_1_evicts 0 : 1170 1 : 0 2 : 785 3 : 799 
Heartbeat_Variant_2_evicts 0 : 909 1 : 791 2 : 0 3 : 504 
Heartbeat_Variant_3_evicts 0 : 683 1 : 811 2 : 496 3 : 0 
Heartbeat CPU 0 instructions: 50000001 cycles: 13983132 heartbeat IPC: 3.57575 cumulative IPC: 3.57574 (Simulation time: 0 hr 8 min 20 sec) 

Warmup complete CPU 0 instructions: 50000001 cycles: 13983132 (Simulation time: 0 hr 8 min 20 sec) 

Cycle: 20000000 FTQ IN: 58012041 FTQ occupancy: 19.3179 DECODE IN: 58011959 DECODE occupancy: 50.187 ROB IN: 58011939 ROB occupancy: 306.061 ROB OUT: 58011630
Heartbeat_Variant_0 : 1278 0.312012 per_variant_size: 0 1278 0 0 0 0 0 0 0 
Heartbeat_Variant_1 : 1173 0.286377 per_variant_size: 0 573 600 0 0 0 0 0 0 
Heartbeat_Variant_2 : 927 0.226318 per_variant_size: 0 487 288 108 44 0 0 0 0 
Heartbeat_Variant_3 : 710 0.17334 per_variant_size: 0 454 188 57 11 0 0 0 0 
Heartbeat_Variant_0_evicts 0 : 6994 1 : 1322 2 : 1085 3 : 864 
Heartbeat_Variant_1_evicts 0 : 1301 1 : 0 2 : 1004 3 : 948 
Heartbeat_Variant_2_evicts 0 : 1092 1 : 975 2 : 0 3 : 633 
Heartbeat_Variant_3_evicts 0 : 860 1 : 942 2 : 634 3 : 0 
Heartbeat CPU 0 instructions: 60000003 cycles: 21475544 heartbeat IPC: 1.33468 cumulative IPC: 1.33468 (Simulation time: 0 hr 10 min 2 sec) 
Heartbeat_Variant_0 : 1270 0.310059 per_variant_size: 0 1270 0 0 0 0 0 0 0 
Heartbeat_Variant_1 : 1159 0.282959 per_variant_size: 0 565 594 0 0 0 0 0 0 
Heartbeat_Variant_2 : 933 0.227783 per_variant_size: 0 505 283 98 47 0 0 0 0 
Heartbeat_Variant_3 : 726 0.177246 per_variant_size: 0 487 181 46 10 2 0 0 0 
Heartbeat_Variant_0_evicts 0 : 6745 1 : 1058 2 : 843 3 : 701 
Heartbeat_Variant_1_evicts 0 : 1066 1 : 0 2 : 710 3 : 792 
Heartbeat_Variant_2_evicts 0 : 815 1 : 740 2 : 0 3 : 505 
Heartbeat_Variant_3_evicts 0 : 729 1 : 784 2 : 501 3 : 0 
Heartbeat CPU 0 instructions: 70000003 cycles: 28784801 heartbeat IPC: 1.36813 cumulative IPC: 1.3512 (Simulation time: 0 hr 11 min 42 sec) 
Cycle: 30000000 FTQ IN: 13656021 FTQ occupancy: 10.6764 DECODE IN: 13656033 DECODE occupancy: 27.2319 ROB IN: 13655993 ROB occupancy: 208.519 ROB OUT: 13655964
Heartbeat_Variant_0 : 1272 0.310547 per_variant_size: 0 1272 0 0 0 0 0 0 0 
Heartbeat_Variant_1 : 1165 0.284424 per_variant_size: 0 572 593 0 0 0 0 0 0 
Heartbeat_Variant_2 : 949 0.231689 per_variant_size: 0 529 283 100 37 0 0 0 0 
Heartbeat_Variant_3 : 702 0.171387 per_variant_size: 0 445 202 46 6 3 0 0 0 
Heartbeat_Variant_0_evicts 0 : 6852 1 : 1237 2 : 940 3 : 744 
Heartbeat_Variant_1_evicts 0 : 1250 1 : 0 2 : 895 3 : 820 
Heartbeat_Variant_2_evicts 0 : 934 1 : 870 2 : 0 3 : 579 
Heartbeat_Variant_3_evicts 0 : 735 1 : 852 2 : 532 3 : 0 
Heartbeat CPU 0 instructions: 80000001 cycles: 36213019 heartbeat IPC: 1.34622 cumulative IPC: 1.34953 (Simulation time: 0 hr 13 min 26 sec) 
Cycle: 40000000 FTQ IN: 13421420 FTQ occupancy: 10.7314 DECODE IN: 13421461 DECODE occupancy: 27.1845 ROB IN: 13421521 ROB occupancy: 207.243 ROB OUT: 13421667
Heartbeat_Variant_0 : 1275 0.311279 per_variant_size: 0 1275 0 0 0 0 0 0 0 
Heartbeat_Variant_1 : 1166 0.284668 per_variant_size: 0 564 602 0 0 0 0 0 0 
Heartbeat_Variant_2 : 947 0.231201 per_variant_size: 0 520 280 111 36 0 0 0 0 
Heartbeat_Variant_3 : 700 0.170898 per_variant_size: 0 440 199 49 9 3 0 0 0 
Heartbeat_Variant_0_evicts 0 : 6820 1 : 1165 2 : 938 3 : 713 
Heartbeat_Variant_1_evicts 0 : 1171 1 : 0 2 : 862 3 : 788 
Heartbeat_Variant_2_evicts 0 : 930 1 : 861 2 : 0 3 : 522 
Heartbeat_Variant_3_evicts 0 : 712 1 : 794 2 : 515 3 : 0 
Heartbeat CPU 0 instructions: 90000000 cycles: 43588112 heartbeat IPC: 1.35591 cumulative IPC: 1.35112 (Simulation time: 0 hr 15 min 4 sec) 
Cycle: 50000000 FTQ IN: 13546479 FTQ occupancy: 11.1936 DECODE IN: 13546502 DECODE occupancy: 28.4861 ROB IN: 13546500 ROB occupancy: 212.787 ROB OUT: 13546443
Heartbeat_Variant_0 : 1281 0.312744 per_variant_size: 0 1281 0 0 0 0 0 0 0 
Heartbeat_Variant_1 : 1155 0.281982 per_variant_size: 0 547 608 0 0 0 0 0 0 
Heartbeat_Variant_2 : 936 0.228516 per_variant_size: 0 504 280 122 30 0 0 0 0 
Heartbeat_Variant_3 : 716 0.174805 per_variant_size: 0 465 194 46 10 1 0 0 0 
Heartbeat_Variant_0_evicts 0 : 6553 1 : 1022 2 : 731 3 : 548 
Heartbeat_Variant_1_evicts 0 : 1013 1 : 0 2 : 738 3 : 702 
Heartbeat_Variant_2_evicts 0 : 714 1 : 730 2 : 0 3 : 421 
Heartbeat_Variant_3_evicts 0 : 568 1 : 712 2 : 407 3 : 0 
Heartbeat CPU 0 instructions: 100000001 cycles: 50993486 heartbeat IPC: 1.35037 cumulative IPC: 1.35097 (Simulation time: 0 hr 16 min 44 sec) 
Finished CPU 0 instructions: 50000000 cycles: 37010354 cumulative IPC: 1.35097 (Simulation time: 0 hr 16 min 44 sec) 

ChampSim completed all CPUs

Region of Interest Statistics

CPU 0 cumulative IPC: 1.35097 instructions: 50000000 cycles: 37010354
 Fetch stage stalled: 59.1724  Sim cycles: 37010354 fetch stall cycle: 21899900
 Empty decode stage: 44.3258  Sim cycles: 37010354 fetch stall cycle: 16405146
ITLB TOTAL     ACCESS:    5813107  HIT:    5319248  MISS:     493859  HIT %:    91.5044  MISS %:    8.49561   MPKI: 9.87718
ITLB LOAD TRANSLATION INSTRUCTION	ACCESS:    5693236  HIT:    5199377  MISS:     493859  HIT %:    91.3255  MISS %:    8.67449  MPKI: 9.87718
ITLB TRANSLATION FROM L1D PREFETCHER INSTRUCTION	ACCESS:     119871  HIT:     119871  MISS:          0  HIT %:        100  MISS %:          0  MPKI: 0

ITLB AVERAGE MISS LATENCY: 9.05038 cycles
ITLB RQ	ACCESS:    7902901	FORWARD:          0	MERGED:    1641111	TO_CACHE:    6261790

DTLB TOTAL     ACCESS:    9018869  HIT:    8544975  MISS:     473894  HIT %:    94.7455  MISS %:    5.25447   MPKI: 9.47788
DTLB LOAD TRANSLATION DATA	ACCESS:    9018869  HIT:    8544975  MISS:     473894  HIT %:    94.7455  MISS %:    5.25447  MPKI: 9.47788

DTLB AVERAGE MISS LATENCY: 9.3228 cycles
DTLB RQ	ACCESS:   13378872	FORWARD:          0	MERGED:    4323511	TO_CACHE:    9055361

STLB TOTAL     ACCESS:    1216713  HIT:    1214550  MISS:       2163  HIT %:    99.8222  MISS %:   0.177774   MPKI: 0.04326
STLB LOAD TRANSLATION INSTRUCTION	ACCESS:     493859  HIT:     493554  MISS:        305  HIT %:    99.9382  MISS %:  0.0617585  MPKI: 0.0061
STLB LOAD TRANSLATION DATA	ACCESS:     473868  HIT:     472044  MISS:       1824  HIT %:    99.6151  MISS %:   0.384917  MPKI: 0.03648
STLB TRANSLATION FROM L1D PREFETCHER DATA	ACCESS:     248986  HIT:     248952  MISS:         34  HIT %:    99.9863  MISS %:  0.0136554  MPKI: 0.00068

STLB AVERAGE MISS LATENCY: 68.6459 cycles
STLB RQ	ACCESS:    1337309	FORWARD:          0	MERGED:     120571	TO_CACHE:    1216738

STLB Hit, L1D data hit: 0
STLB Hit, L2C data hit: 0
STLB Hit, LLC data hit: 0
STLB Hit, LLC data miss: 0
STLB STLB hints to L2: 0
L1D TOTAL     ACCESS:   13127918  HIT:   12007788  MISS:    1120130  HIT %:    91.4676  MISS %:    8.53243   MPKI: 22.4026
L1D LOAD DATA	ACCESS:    6587852  HIT:    5851142  MISS:     736710  HIT %:    88.8171  MISS %:    11.1829  MPKI: 14.7342
L1D RFO DATA	ACCESS:    6211391  HIT:    5924043  MISS:     287348  HIT %:    95.3739  MISS %:    4.62615  MPKI: 5.74696
L1D PREFETCH DATA	ACCESS:     328675  HIT:     232603  MISS:      96072  HIT %:    70.7699  MISS %:    29.2301  MPKI: 1.92144

L1D PREFETCH  REQUESTED:     739455  ISSUED:     739455  USEFUL:      35260  USELESS:      68764
L1D USEFUL LOAD PREFETCHES:      35260 PREFETCH ISSUED TO LOWER LEVEL:     104102  ACCURACY: 33.8706
 TIMELY PREFETCHES:      35260 LATE PREFETCHES: 7973 DROPPED PREFETCHES: 2
L1D AVERAGE MISS LATENCY: 228337 cycles
L1D RQ	ACCESS:   10721178	FORWARD:          0	MERGED:    3934349	TO_CACHE:    6621850
L1D WQ	ACCESS:    6950533	FORWARD:     165322	MERGED:     193511	TO_CACHE:    6757022
L1D PQ	ACCESS:     369899	FORWARD:          0	MERGED:          0	TO_CACHE:     369556

L1D UNIQUE REGIONS ACCESSED: 0
L1D REGIONS CONFLICTS: 0
L1D Cross Page Prefetch Requests: 7006
L1D Same Page Prefetch Requests: 749678
L1D ROI Sum of L1D PQ occupancy: 4702345
L1D PREFETCHES PUSHED FROM L2C: 0
L1I TOTAL     ACCESS:    7130286  HIT:    4369434  MISS:    2760852  HIT %:    61.2799  MISS %:    38.7201   MPKI: 55.217
L1I LOAD INSTRUCTION	ACCESS:    6497284  HIT:    3736432  MISS:    2760852  HIT %:    57.5076  MISS %:    42.4924  MPKI: 55.217
L1I PREFETCH INSTRUCTION	ACCESS:     633002  HIT:     633002  MISS:          0  HIT %:        100  MISS %:          0  MPKI: 0

L1I PREFETCH  REQUESTED:    1517623  ISSUED:    1517623  USEFUL:          0  USELESS:          0
L1I USEFUL LOAD PREFETCHES:          0 PREFETCH ISSUED TO LOWER LEVEL:          0  ACCURACY: -nan
 TIMELY PREFETCHES:          0 LATE PREFETCHES: 0 DROPPED PREFETCHES: 0
L1I AVERAGE MISS LATENCY: 16.693 cycles
L1I RQ	ACCESS:    9482666	FORWARD:          0	MERGED:    2680342	TO_CACHE:    6802324
L1I PQ	ACCESS:    1517623	FORWARD:          0	MERGED:     417046	TO_CACHE:    1100577

L1BTB TOTAL     ACCESS:    5668135  HIT:    2040045  MISS:    3628090  HIT %:    35.9915  MISS %:    64.0085   MPKI: 72.5618
L1BTB BRANCH_DIRECT_JUMP	ACCESS:     546980 HIT:     144161 MISS:     402819 AVERAGE STALL: 43.967 AVERAGE FETCH STALL: 17.018 AVERAGE FETCH QUEUE STALL: 13.4682 AVERAGE DECODE STALL: 12.5984 AVERAGE EXECUTE STALL: 1.27641e+15
L1BTB BRANCH_INDIRECT	ACCESS:     182413 HIT:      65665 MISS:     116748 AVERAGE STALL: 98.0156 AVERAGE FETCH STALL: 11.6219 AVERAGE FETCH QUEUE STALL: 12.7628 AVERAGE DECODE STALL: 10.6877 AVERAGE EXECUTE STALL: 61.9846
L1BTB BRANCH_CONDITIONAL	ACCESS:    2700953 HIT:    1409581 MISS:    1291372 AVERAGE STALL: 49.4287 AVERAGE FETCH STALL: 21.7764 AVERAGE FETCH QUEUE STALL: 14.5118 AVERAGE DECODE STALL: 12.3972 AVERAGE EXECUTE STALL: 7.88929e+14
L1BTB BRANCH_DIRECT_CALL	ACCESS:     946670 HIT:     106580 MISS:     840090 AVERAGE STALL: 50.8263 AVERAGE FETCH STALL: 22.5791 AVERAGE FETCH QUEUE STALL: 14.6066 AVERAGE DECODE STALL: 12.8847 AVERAGE EXECUTE STALL: 8.48438e+14
L1BTB BRANCH_INDIRECT_CALL	ACCESS:     172227 HIT:      21850 MISS:     150377 AVERAGE STALL: 128.978 AVERAGE FETCH STALL: 14.0084 AVERAGE FETCH QUEUE STALL: 10.1747 AVERAGE DECODE STALL: 9.36304 AVERAGE EXECUTE STALL: 94.9348
L1BTB BRANCH_RETURN	ACCESS:    1118892 HIT:     292208 MISS:     826684 AVERAGE STALL: 43.9159 AVERAGE FETCH STALL: 16.7327 AVERAGE FETCH QUEUE STALL: 5.95729 AVERAGE DECODE STALL: 6.85395 AVERAGE EXECUTE STALL: 3.52326e+14
L1BTB BRANCH_OTHER ACCESS:          0 HIT:          0 MISS:          0 AVERAGE STALL: -nan AVERAGE FETCH STALL: -nan AVERAGE FETCH QUEUE STALL: -nan AVERAGE DECODE STALL: -nan AVERAGE EXECUTE STALL: -nan
L1BTB TOTAL ROB OCCUPANCY AT BTB MISS: 5.35722

L2BTB TOTAL     ACCESS:    3602764  HIT:    3479434  MISS:     123330  HIT %:    96.5768  MISS %:    3.42321   MPKI: 2.4666
L2BTB BRANCH_DIRECT_JUMP	ACCESS:     398676 HIT:     388355 MISS:      10321 AVERAGE STALL: 43.967 AVERAGE FETCH STALL: 17.018 AVERAGE FETCH QUEUE STALL: 13.4682 AVERAGE DECODE STALL: 12.5984 AVERAGE EXECUTE STALL: 1.27641e+15
L2BTB BRANCH_INDIRECT	ACCESS:     106481 HIT:     103060 MISS:       3421 AVERAGE STALL: 98.0156 AVERAGE FETCH STALL: 11.6219 AVERAGE FETCH QUEUE STALL: 12.7628 AVERAGE DECODE STALL: 10.6877 AVERAGE EXECUTE STALL: 61.9846
L2BTB BRANCH_CONDITIONAL	ACCESS:    1291372 HIT:    1267754 MISS:      23618 AVERAGE STALL: 49.4287 AVERAGE FETCH STALL: 21.7764 AVERAGE FETCH QUEUE STALL: 14.5118 AVERAGE DECODE STALL: 12.3972 AVERAGE EXECUTE STALL: 7.88929e+14
L2BTB BRANCH_DIRECT_CALL	ACCESS:     840090 HIT:     818295 MISS:      21795 AVERAGE STALL: 50.8263 AVERAGE FETCH STALL: 22.5791 AVERAGE FETCH QUEUE STALL: 14.6066 AVERAGE DECODE STALL: 12.8847 AVERAGE EXECUTE STALL: 8.48438e+14
L2BTB BRANCH_INDIRECT_CALL	ACCESS:     140868 HIT:     127682 MISS:      13186 AVERAGE STALL: 128.978 AVERAGE FETCH STALL: 14.0084 AVERAGE FETCH QUEUE STALL: 10.1747 AVERAGE DECODE STALL: 9.36304 AVERAGE EXECUTE STALL: 94.9348
L2BTB BRANCH_RETURN	ACCESS:     825277 HIT:     774288 MISS:      50989 AVERAGE STALL: 43.9159 AVERAGE FETCH STALL: 16.7327 AVERAGE FETCH QUEUE STALL: 5.95729 AVERAGE DECODE STALL: 6.85395 AVERAGE EXECUTE STALL: 3.52326e+14
L2BTB BRANCH_OTHER ACCESS:          0 HIT:          0 MISS:          0 AVERAGE STALL: -nan AVERAGE FETCH STALL: -nan AVERAGE FETCH QUEUE STALL: -nan AVERAGE DECODE STALL: -nan AVERAGE EXECUTE STALL: -nan
L2BTB TOTAL ROB OCCUPANCY AT BTB MISS: 157.597

L2C TOTAL     ACCESS:    4483666  HIT:    4076063  MISS:     407603  HIT %:    90.9092  MISS %:    9.09084   MPKI: 8.15206
L2C LOAD INSTRUCTION	ACCESS:    2760852  HIT:    2548244  MISS:     212608  HIT %:    92.2992  MISS %:    7.70081  MPKI: 4.25216
L2C LOAD TRANSLATION INSTRUCTION	ACCESS:        342  HIT:         93  MISS:        249  HIT %:     27.193  MISS %:     72.807  MPKI: 0.00498
L2C LOAD DATA	ACCESS:     728717  HIT:     663649  MISS:      65068  HIT %:    91.0709  MISS %:    8.92912  MPKI: 1.30136
L2C RFO DATA	ACCESS:     287276  HIT:     238464  MISS:      48812  HIT %:    83.0087  MISS %:    16.9913  MPKI: 0.97624
L2C PREFETCH DATA	ACCESS:     181786  HIT:     114036  MISS:      67750  HIT %:    62.7309  MISS %:    37.2691  MPKI: 1.355
L2C WRITEBACK DATA	ACCESS:     522731  HIT:     511030  MISS:      11701  HIT %:    97.7616  MISS %:    2.23844  MPKI: 0.23402
L2C LOAD TRANSLATION DATA	ACCESS:       1915  HIT:        513  MISS:       1402  HIT %:    26.7885  MISS %:    73.2115  MPKI: 0.02804
L2C TRANSLATION FROM L1D PREFETCHER DATA	ACCESS:         47  HIT:         34  MISS:         13  HIT %:    72.3404  MISS %:    27.6596  MPKI: 0.00026

L2C PREFETCH  REQUESTED:      84781  ISSUED:      84781  USEFUL:       7334  USELESS:      60654
L2C USEFUL LOAD PREFETCHES:       7334 PREFETCH ISSUED TO LOWER LEVEL:      68021  ACCURACY: 10.782
 TIMELY PREFETCHES:       7334 LATE PREFETCHES: 271 DROPPED PREFETCHES: 0
L2C AVERAGE MISS LATENCY: 40.9572 cycles
L2C RQ	ACCESS:    3779184	FORWARD:          0	MERGED:          0	TO_CACHE:    3779149
L2C WQ	ACCESS:     522731	FORWARD:         35	MERGED:          0	TO_CACHE:     522731
L2C PQ	ACCESS:     188883	FORWARD:          0	MERGED:       3620	TO_CACHE:     185263

L2C Dense regions hint from L2: 0
PSCL5 TOTAL     ACCESS:       4334  HIT:       2167  MISS:       2167  HIT %:         50  MISS %:         50   MPKI: 0.04334
PSCL5 LOAD TRANSLATION INSTRUCTION	ACCESS:       4240  HIT:       2120  MISS:       2120  HIT %:         50  MISS %:         50  MPKI: 0.0424
PSCL5 TRANSLATION FROM L1D PREFETCHER INSTRUCTION	ACCESS:         94  HIT:         47  MISS:         47  HIT %:         50  MISS %:         50  MPKI: 0.00094


PSCL4 TOTAL     ACCESS:       3991  HIT:       1989  MISS:       2002  HIT %:    49.8371  MISS %:    50.1629   MPKI: 0.04004
PSCL4 LOAD TRANSLATION INSTRUCTION	ACCESS:       2601  HIT:       1945  MISS:        656  HIT %:    74.7789  MISS %:    25.2211  MPKI: 0.01312
PSCL4 TRANSLATION FROM L1D PREFETCHER INSTRUCTION	ACCESS:         72  HIT:         44  MISS:         28  HIT %:    61.1111  MISS %:    38.8889  MPKI: 0.00056
PSCL4 LOAD TRANSLATION DATA	ACCESS:       1302  HIT:          0  MISS:       1302  HIT %:          0  MISS %:        100  MPKI: 0.02604
PSCL4 TRANSLATION FROM L1D PREFETCHER DATA	ACCESS:         16  HIT:          0  MISS:         16  HIT %:          0  MISS %:        100  MPKI: 0.00032


PSCL3 TOTAL     ACCESS:       4071  HIT:       2029  MISS:       2042  HIT %:    49.8403  MISS %:    50.1597   MPKI: 0.04084
PSCL3 LOAD TRANSLATION INSTRUCTION	ACCESS:       2641  HIT:       1985  MISS:        656  HIT %:    75.1609  MISS %:    24.8391  MPKI: 0.01312
PSCL3 TRANSLATION FROM L1D PREFETCHER INSTRUCTION	ACCESS:         72  HIT:         44  MISS:         28  HIT %:    61.1111  MISS %:    38.8889  MPKI: 0.00056
PSCL3 LOAD TRANSLATION DATA	ACCESS:       1342  HIT:          0  MISS:       1342  HIT %:          0  MISS %:        100  MPKI: 0.02684
PSCL3 TRANSLATION FROM L1D PREFETCHER DATA	ACCESS:         16  HIT:          0  MISS:         16  HIT %:          0  MISS %:        100  MPKI: 0.00032


PSCL2 TOTAL     ACCESS:       4223  HIT:       2056  MISS:       2167  HIT %:    48.6858  MISS %:    51.3142   MPKI: 0.04334
PSCL2 LOAD TRANSLATION INSTRUCTION	ACCESS:       2313  HIT:       2009  MISS:        304  HIT %:    86.8569  MISS %:    13.1431  MPKI: 0.00608
PSCL2 TRANSLATION FROM L1D PREFETCHER INSTRUCTION	ACCESS:         47  HIT:         47  MISS:          0  HIT %:        100  MISS %:          0  MPKI: 0
PSCL2 LOAD TRANSLATION DATA	ACCESS:       1816  HIT:          0  MISS:       1816  HIT %:          0  MISS %:        100  MPKI: 0.03632
PSCL2 TRANSLATION FROM L1D PREFETCHER DATA	ACCESS:         47  HIT:          0  MISS:         47  HIT %:          0  MISS %:        100  MPKI: 0.00094


LLC TOTAL     ACCESS:     465238  HIT:     434953  MISS:      30285  HIT %:    93.4904  MISS %:    6.50957   MPKI: 0.6057
LLC LOAD INSTRUCTION	ACCESS:     212608  HIT:     211680  MISS:        928  HIT %:    99.5635  MISS %:   0.436484  MPKI: 0.01856
LLC LOAD TRANSLATION INSTRUCTION	ACCESS:        249  HIT:        217  MISS:         32  HIT %:    87.1486  MISS %:    12.8514  MPKI: 0.00064
LLC LOAD DATA	ACCESS:      64812  HIT:      61236  MISS:       3576  HIT %:    94.4825  MISS %:     5.5175  MPKI: 0.07152
LLC RFO DATA	ACCESS:      48795  HIT:      33517  MISS:      15278  HIT %:    68.6894  MISS %:    31.3106  MPKI: 0.30556
LLC PREFETCH DATA	ACCESS:      68021  HIT:      58041  MISS:       9980  HIT %:    85.3281  MISS %:    14.6719  MPKI: 0.1996
LLC WRITEBACK DATA	ACCESS:      69338  HIT:      68918  MISS:        420  HIT %:    99.3943  MISS %:   0.605728  MPKI: 0.0084
LLC LOAD TRANSLATION DATA	ACCESS:       1402  HIT:       1332  MISS:         70  HIT %:    95.0071  MISS %:    4.99287  MPKI: 0.0014
LLC TRANSLATION FROM L1D PREFETCHER DATA	ACCESS:         13  HIT:         12  MISS:          1  HIT %:    92.3077  MISS %:    7.69231  MPKI: 2e-05

LLC AVERAGE MISS LATENCY: 157.334 cycles
LLC RQ	ACCESS:     327881	FORWARD:          0	MERGED:          0	TO_CACHE:     327879
LLC WQ	ACCESS:      69338	FORWARD:          2	MERGED:          0	TO_CACHE:      69338
LLC PQ	ACCESS:      68021	FORWARD:          0	MERGED:          0	TO_CACHE:      68021

LLC Dense regions hint to LLC: 0

RAW hits: 1916296
Loads Generated: 12637474
Loads sent to L1D: 10721178
Stores Generated: 6950515
Stores sent to L1D: 6950533
Major fault: 0 Minor fault: 2577
Allocated PAGES: 2577

stream: 
stream:times selected: 1184333
stream:pref_filled: 123127
stream:pref_useful: 24536
stream:pref_late: 6656
stream:misses: 8071
stream:misses_by_poll: 0

CS: 
CS:times selected: 179463
CS:pref_filled: 60072
CS:pref_useful: 36812
CS:pref_late: 6935
CS:misses: 16677
CS:misses_by_poll: 6

CPLX: 
CPLX:times selected: 1003713
CPLX:pref_filled: 19331
CPLX:pref_useful: 4736
CPLX:pref_late: 3041
CPLX:misses: 92735
CPLX:misses_by_poll: 1

NL_L1: 
NL:times selected: 21292
NL:pref_filled: 754
NL:pref_useful: 359
NL:pref_late: 276
NL:misses: 1782
NL:misses_by_poll: 0

total selections: 2388801
total_filled: 96072
total_useful: 35260
total_late: 18280
total_polluted: 7
total_misses_after_warmup: 770707
conflicts: 5536015

test: 118085

DRAM Statistics
 CHANNEL 0
 RQ ROW_BUFFER_HIT:      11372  ROW_BUFFER_MISS:      18477
 DBUS_CONGESTED:         14
 WQ ROW_BUFFER_HIT:       1539  ROW_BUFFER_MISS:      12925  FULL:          0

 AVG_CONGESTED_CYCLE: 5

CPU 0 Branch Prediction Accuracy: 99.8232% MPKI: 0.32328 Average ROB Occupancy at Mispredict: 172.302
Branch types
NOT_BRANCH: 40855741 81.7115%
BRANCH_DIRECT_JUMP: 546980 1.09396%
BRANCH_INDIRECT: 182413 0.364826%
BRANCH_CONDITIONAL: 6176679 12.3534%
BRANCH_DIRECT_CALL: 946670 1.89334%
BRANCH_INDIRECT_CALL: 172227 0.344454%
BRANCH_RETURN: 1118892 2.23778%
BRANCH_OTHER: 0 0%

DRAM PAGES: 1048576
Allocated PAGES: 2577
Average_ROB_Occupancy: 210.235
Average_Decode_Occupancy: 27.5514
Average_FTQ_Occupancy: 10.8431
Indirect max targets: 14 Average targets: 1.14966
Branch_type:  BRANCH_DIRECT_JUMP:  Count Percentage: 3.24604 6.67624 3.95083 8.43024 1.69722 6.83195 1.16022 68.0073 
Branch_type:  BRANCH_INDIRECT:  Count Percentage: 11.7452 3.43234 10.5294 28.7079 3.34712 4.81886 2.00937 35.4098 
Branch_type:  BRANCH_CONDITIONAL:  Count Percentage: 20.9535 2.9195 2.88683 4.7076 1.45331 5.4417 0.648641 60.9889 
Branch_type:  BRANCH_DIRECT_CALL:  Count Percentage: 0.257983 1.26951 1.42541 2.12862 2.75634 2.97986 0.613819 88.5685 
Branch_type:  BRANCH_INDIRECT_CALL:  Count Percentage: 9.51475 0.565535 2.98249 4.82549 1.4346 2.98046 0.993389 76.7033 
Branch_type:  BRANCH_RETURN:  Count Percentage: 3.77363 0.568521 2.25245 6.32093 2.92523 5.44968 1.02683 77.6827 
Branch_type:  BRANCH_DIRECT_JUMP:  Total Count: 35501 73016 43209 92199 18562 74719 12689 743775 
Branch_type:  BRANCH_INDIRECT:  Total Count: 42863 12526 38426 104767 12215 17586 7333 129225 
Branch_type:  BRANCH_CONDITIONAL:  Total Count: 2587886 360576 356540 581416 179492 672082 80111 7532485 
Branch_type:  BRANCH_DIRECT_CALL:  Total Count: 4880 24014 26963 40265 52139 56367 11611 1675362 
Branch_type:  BRANCH_INDIRECT_CALL:  Total Count: 32757 1947 10268 16613 4939 10261 3420 264071 
Branch_type:  BRANCH_RETURN:  Total Count: 84404 12716 50380 141379 65428 121892 22967 1737514 
Number of unique branch instructions: 9897
Upper 32 bits: 
aaaa
ffff
ffff0000
Unique upper 32 bits: 3
Unique upper 36 bits: 3
Unique upper 40 bits: 5
Unique upper 44 bits: 32
Unique upper 48 bits: 154
Variant_0 : 1281 0.312744
Variant_1 : 1155 0.281982
Variant_2 : 936 0.228516
Variant_3 : 716 0.174805
Offset_3 4062
Offset_4 241
Offset_5 454
Offset_6 502
Offset_7 581
Offset_8 509
Offset_9 463
Offset_10 378
Offset_11 313
Offset_12 287
Offset_13 203
Offset_14 227
Offset_15 189
Offset_16 225
Offset_17 144
Offset_18 126
Offset_19 240
Offset_20 141
Offset_21 235
Offset_22 393
Offset_23 241
Offset_24 327
Offset_25 88
Offset_47 80
Offset_64 1
decode_dispatch_called: 23533295 63.5857
Dispatch_width: 0 12470254 52.9898 33.694
Dispatch_width: 1 781338 3.32014 2.11113
Dispatch_width: 2 734246 3.12003 1.98389
Dispatch_width: 3 458301 1.94746 1.2383
Dispatch_width: 4 3973470 16.8845 10.7361
Dispatch_width: 5 212946 0.904871 0.575369
Dispatch_width: 6 4902740 20.8332 13.2469
Empty_decode_cycles: 13477059 36.4143
ROB_full_cycles: 6342488 17.1371
Starvation_cycles_per_kilo_instr: 257.651
Starvation_cycles_per_kilo_instr_3: 215.787
Starvation_cycles_per_kilo_instr_0: 196.048
Branch_type_1  (3,1)  (4,9)  (5,37)  (6,69)  (7,114)  (8,129)  (9,122)  (10,96)  (11,70)  (12,51)  (13,5)  (14,2)  (15,3)  (16,4)  (18,1)  (19,4)  (20,2)  (21,1)  (22,3)  (23,2)  (24,10)  (25,12) 
Branch_type_2  (3,1)  (5,1)  (8,3)  (9,3)  (12,1)  (13,1)  (14,1)  (16,3)  (17,2)  (20,2)  (21,2)  (23,5)  (24,1)  (47,36) 
Branch_type_3  (3,4060)  (4,232)  (5,412)  (6,417)  (7,436)  (8,314)  (9,253)  (10,153)  (11,128)  (12,58)  (13,4)  (64,1) 
Branch_type_4  (6,4)  (7,8)  (8,26)  (9,53)  (10,61)  (11,59)  (12,98)  (13,88)  (14,102)  (15,89)  (16,101)  (17,64)  (18,57)  (19,117)  (20,73)  (21,124)  (22,210)  (23,136)  (24,188)  (25,72) 
Branch_type_5  (8,2)  (9,1)  (10,3)  (11,5)  (12,3)  (13,14)  (14,16)  (15,11)  (16,20)  (17,11)  (18,16)  (19,12)  (20,10)  (21,13)  (22,42)  (23,26)  (24,37) 
Branch_type_6  (5,4)  (6,12)  (7,23)  (8,35)  (9,31)  (10,65)  (11,51)  (12,76)  (13,91)  (14,106)  (15,86)  (16,97)  (17,67)  (18,52)  (19,107)  (20,54)  (21,95)  (22,138)  (23,72)  (24,91)  (25,4)  (47,44) 
Unique trigger count: 
Variant_0_evicts_0 : 0
Variant_0_evicts_1 : 0
Variant_0_evicts_2 : 0
Variant_0_evicts_3 : 0
Variant_1_evicts_0 : 0
Variant_1_evicts_1 : 0
Variant_1_evicts_2 : 0
Variant_1_evicts_3 : 0
Variant_2_evicts_0 : 0
Variant_2_evicts_1 : 0
Variant_2_evicts_2 : 0
Variant_2_evicts_3 : 0
Variant_3_evicts_0 : 0
Variant_3_evicts_1 : 0
Variant_3_evicts_2 : 0
Variant_3_evicts_3 : 0
BTB PER SET UNIQUE ADDR: 22 25 19 25 25 23 16 22 13 24 19 28 25 20 23 15 18 22 20 24 22 19 23 22 18 25 24 24 24 21 22 23 25 15 17 23 22 23 15 18 19 19 24 28 18 12 24 17 24 20 29 17 23 25 18 9 19 17 18 23 21 30 24 23 22 21 24 16 27 22 21 21 26 19 17 14 14 24 20 28 23 12 18 28 25 23 27 20 15 40 18 14 25 20 13 25 16 20 26 27 35 31 21 19 23 19 20 25 13 17 20 32 23 19 21 13 26 26 22 22 22 17 17 15 22 21 11 22 32 19 18 26 21 28 18 27 16 25 19 30 20 26 21 21 23 20 26 16 15 21 21 26 16 21 16 29 25 25 23 25 26 21 26 28 19 24 26 16 24 18 21 24 23 20 24 20 20 19 18 26 18 19 21 23 33 29 14 23 27 19 23 15 15 29 23 16 17 21 22 23 28 27 19 17 17 21 22 22 19 23 19 25 22 22 23 22 20 24 17 38 12 25 15 20 19 23 27 25 16 29 17 13 21 28 19 27 29 19 19 15 22 22 29 26 20 20 20 22 24 21 29 23 23 17 26 25 17 15 17 20 23 18 8 22 21 14 19 18 19 21 20 24 18 14 16 16 21 26 20 21 16 24 15 16 25 16 17 31 30 25 24 17 23 25 16 28 20 26 24 20 20 18 20 37 22 28 26 19 30 22 22 28 21 33 24 12 25 19 19 28 21 27 17 21 25 27 23 17 23 15 21 27 18 20 19 24 18 21 15 37 22 23 15 29 26 24 16 23 21 23 25 24 26 24 18 28 23 26 18 16 19 29 18 30 23 24 12 23 23 22 23 15 23 25 14 30 22 28 20 25 22 21 19 14 16 23 27 26 22 22 29 12 26 27 16 16 19 18 30 22 19 25 21 23 26 23 25 24 19 23 24 17 18 27 19 21 20 29 35 31 17 26 24 24 28 17 25 19 23 21 28 23 18 22 27 28 24 21 20 25 25 19 14 28 34 17 16 22 28 24 25 33 25 17 26 31 24 27 16 29 17 20 19 25 33 19 20 22 25 26 23 28 26 22 23 32 25 29 16 25 33 26 19 24 14 25 32 28 28 22 20 25 18 17 15 20 24 24 21 25 20 29 17 36 19 19 18 30 27 25 20 31 23 20 20 26 21 28 18 18 16 21 26 16 21 33 35 14 15 31 26 24 23 20 23 30 20 23 26 23 27 17 26 26 28 28 14 25 17 22 21 30 21 22 17 20 18 20 27 25 20 32 22 22 21 28 20 29 22 29 28 24 28 32 22 25 27 31 21 22 26 26 14 23 25 25 20 23 33 26 18 22 24 14 25 17 15 22 22 20 20 21 21 12 22 22 31 22 20 24 29 25 20 16 10 27 14 25 19 23 29 23 15 16 20 30 18 29 17 24 20 28 33 23 22 19 26 30 18 26 21 24 25 33 23 26 20 23 35 19 15 22 18 17 29 22 22 22 26 20 20 13 25 29 21 24 16 21 18 20 22 19 17 26 30 19 23 25 28 29 21 29 19 24 27 21 20 22 23 26 23 23 21 16 14 21 18 25 17 25 15 27 27 31 11 22 20 17 16 14 22 25 17 22 16 19 30 24 18 27 25 23 21 21 20 19 24 21 20 18 25 20 21 18 22 24 22 30 34 19 17 20 21 25 28 28 19 20 19 18 24 20 25 21 17 22 31 21 17 16 21 12 12 21 22 27 15 24 19 25 22 27 20 13 24 15 28 21 25 27 14 24 20 19 22 21 16 23 18 14 17 14 24 21 20 31 18 16 26 23 34 24 33 28 32 18 21 20 24 17 20 34 28 27 18 27 33 31 13 25 23 31 16 28 25 21 17 24 23 27 18 29 25 22 17 26 25 22 24 22 27 20 21 21 22 28 20 36 20 24 22 19 18 20 30 28 29 28 26 28 24 22 17 21 29 15 21 19 29 18 18 27 27 20 19 12 20 21 19 22 26 14 19 28 24 22 26 20 22 20 22 14 20 21 22 26 30 22 18 18 21 22 22 25 14 23 21 26 21 29 18 22 20 24 24 25 34 22 24 25 23 24 16 23 19 16 12 28 18 14 30 32 28 18 18 31 20 20 24 27 16 29 23 17 22 24 22 26 20 27 22 23 17 23 19 24 22 20 26 23 23 21 23 26 26 18 28 24 18 25 23 26 27 21 28 19 31 27 28 33 18 25 26 20 21 31 35 19 25 21 29 24 24 20 22 20 22 22 30 22 27 28 19 20 26 26 18 32 19 27 24 25 22 17 19 20 12 18 9 14 18 28 22 14 
BTB PER SET COUNT: 923 163 1727 167 222 134 280 106 1308 133 101 1022 13679 1372 116 90 206 2307 215 140 143 193 332 159 83 194 137 321 346 169 254 154 180 66 107 581 138 472 86 1237 90 100 169 429 76 68 273 101 484 322 203 301 152 170 175 336 98 122 162 151 143 334 225 152 150 294 129 413 216 125 329 619 220 133 71 112 74 471 148 165 592 80 147 260 102 565 168 133 645 269 278 885 299 241 84 142 479 436 187 784 247 411 109 209 2259 115 119 209 466 1148 150 248 535 138 122 202 175 155 1359 267 369 90 127 127 125 326 62 806 304 426 160 1643 144 176 249 198 1073 213 125 228 110 489 137 123 136 117 530 384 87 351 144 170 1064 160 99 282 672 206 198 177 173 279 248 161 1459 322 167 88 220 508 157 122 171 146 219 382 162 148 276 628 95 280 177 145 256 684 82 134 483 1021 147 87 106 224 153 92 108 211 140 145 246 185 1071 80 75 141 148 224 113 1059 125 228 101 6213 142 800 144 128 652 355 75 192 191 115 118 150 223 200 165 229 102 48 111 201 721 4483 242 117 355 77 523 134 221 177 137 232 89 131 155 133 180 161 172 135 150 248 132 163 133 144 292 100 27 204 139 62 110 128 577 154 133 387 232 56 241 82 128 180 117 207 92 161 837 292 174 107 131 515 256 140 144 119 118 467 83 203 528 162 169 270 114 73 150 227 113 311 248 189 277 405 290 235 107 291 1197 198 240 201 129 201 99 779 103 126 418 262 266 119 140 99 168 253 98 96 126 214 91 350 57 610 138 944 67 237 360 137 114 161 147 214 248 117 187 156 99 190 148 221 291 157 104 219 123 219 124 1178 35 148 144 145 140 99 135 657 143 281 165 199 315 740 497 104 417 57 85 115 634 209 254 645 259 55 175 726 82 73 107 103 524 521 140 157 475 140 238 199 139 597 91 194 312 57 109 357 117 156 122 999 378 205 131 168 154 161 201 102 535 94 166 432 231 150 120 136 333 179 184 255 129 122 263 99 128 177 1119 170 376 159 207 155 511 771 206 95 244 264 208 186 66 302 98 89 126 154 273 111 6128 126 158 226 242 173 175 134 159 233 144 424 65 202 256 445 143 195 865 299 268 145 360 234 265 203 4258 73 60 218 578 750 161 125 134 291 95 364 103 126 86 282 160 186 311 632 329 672 148 208 106 279 101 224 90 127 157 129 125 325 1052 1257 114 1572 206 145 174 158 166 193 856 229 173 333 243 107 215 212 202 282 51 156 94 1060 123 217 838 328 113 154 150 98 225 203 101 233 140 136 205 187 207 163 141 526 319 147 133 370 134 196 192 243 109 210 161 215 105 1578 179 200 345 142 308 177 626 165 99 93 224 92 1547 364 240 96 94 135 167 65 172 114 278 826 73 162 263 946 150 76 43 177 67 139 613 481 213 143 42 504 105 203 73 679 1565 173 127 273 386 220 118 170 140 803 107 245 152 173 175 330 360 228 366 180 359 97 64 162 94 133 655 416 151 205 469 396 152 66 157 252 2279 168 97 1101 1513 161 153 144 754 226 490 361 180 246 216 261 150 191 960 205 586 191 126 176 250 203 111 181 165 73 334 177 277 470 110 167 402 170 308 233 63 196 146 126 72 94 297 593 638 95 354 207 488 866 99 404 172 640 137 619 107 129 156 172 312 160 172 2956 147 175 130 222 447 219 324 109 892 110 192 225 420 264 714 148 105 176 814 108 545 634 759 137 199 875 137 87 137 77 60 244 858 359 78 201 111 173 141 232 307 73 144 143 186 413 157 413 735 186 931 98 145 178 97 168 103 104 214 711 170 160 814 365 150 111 161 623 231 191 358 315 532 111 109 128 153 159 125 3421 192 236 153 847 408 199 47 879 182 228 90 180 395 135 113 168 179 265 136 289 175 146 355 313 167 347 195 238 180 191 175 173 702 202 230 189 133 133 326 660 206 136 551 235 541 225 240 175 636 166 93 94 471 94 137 99 197 98 227 197 139 96 150 58 117 99 761 170 161 62 219 281 356 154 122 166 214 230 221 85 1004 457 80 207 284 144 126 119 164 178 147 593 78 183 115 188 164 416 165 199 160 168 174 298 608 951 203 161 131 485 135 589 111 64 52 197 100 129 194 205 428 109 132 1202 123 143 693 218 109 912 154 106 143 194 189 201 197 165 260 985 805 2233 141 175 176 146 177 322 194 177 362 188 189 105 829 164 121 155 215 256 187 149 388 113 193 186 312 314 250 206 366 454 101 523 457 521 157 169 206 914 201 241 558 137 103 1615 204 657 254 523 120 155 148 243 129 245 113 748 422 482 151 116 125 120 59 424 46 56 347 711 117 84 
To predecode: 0
Predecoding something: 0
Predecode request dropped: 0
sizeofblock_0 0
sizeofblock_1 136250
sizeofblock_2 68502
sizeofblock_3 13936
sizeofblock_4 3762
sizeofblock_5 588
sizeofblock_6 0
sizeofblock_7 0
sizeofblock_8 0
Variant_0 Correct: 1570433 Incorrect: 0 Accuracy: 1
Variant_1 Correct: 2047419 Incorrect: 0 Accuracy: 1
Variant_2 Correct: 1890147 Incorrect: 0 Accuracy: 1
Variant_3 Correct: 1699257 Incorrect: 8651 Accuracy: 0.994935
