
*** ChampSim Multicore Out-of-Order Simulator ***

Warmup Instructions: 50000000
Simulation Instructions: 50000000
Number of CPUs: 1
LLC sets: 2048
LLC ways: 16
Off-chip DRAM Size: 4096 MB Channels: 1 Width: 64-bit Data Rate: 6400 MT/s
CPU 0 runs ./micro_traces/srv248.trace.gz
.gz
ITLB has LRU replacement policy
DTLB has LRU replacement policy
STLB has LRU replacement policy
L1I has LRU replacement policy
L1D has LRU replacement policy
Initialize SRRIP state for L2C
Initialize DRRIP state for LLC
Heartbeat_Variant_0 : 1328 0.324219 per_variant_size: 0 1328 0 0 0 0 0 0 0 
Heartbeat_Variant_1 : 1227 0.299561 per_variant_size: 0 626 601 0 0 0 0 0 0 
Heartbeat_Variant_2 : 1312 0.320312 per_variant_size: 0 522 383 234 173 0 0 0 0 
Heartbeat_Variant_3 : 0 0 per_variant_size: 0 0 0 0 0 0 0 0 0 
Heartbeat_Variant_0_evicts 0 : 5757 1 : 294 2 : 299 3 : 0 
Heartbeat_Variant_1_evicts 0 : 290 1 : 0 2 : 436 3 : 0 
Heartbeat_Variant_2_evicts 0 : 268 1 : 439 2 : 0 3 : 0 
Heartbeat_Variant_3_evicts 0 : 0 1 : 0 2 : 0 3 : 0 
Heartbeat CPU 0 instructions: 10000000 cycles: 2795455 heartbeat IPC: 3.57724 cumulative IPC: 3.57724 (Simulation time: 0 hr 1 min 19 sec) 
Heartbeat_Variant_0 : 1353 0.330322 per_variant_size: 0 1353 0 0 0 0 0 0 0 
Heartbeat_Variant_1 : 1243 0.303467 per_variant_size: 0 612 631 0 0 0 0 0 0 
Heartbeat_Variant_2 : 1337 0.326416 per_variant_size: 0 531 369 238 199 0 0 0 0 
Heartbeat_Variant_3 : 0 0 per_variant_size: 0 0 0 0 0 0 0 0 0 
Heartbeat_Variant_0_evicts 0 : 5599 1 : 122 2 : 108 3 : 0 
Heartbeat_Variant_1_evicts 0 : 122 1 : 0 2 : 301 3 : 0 
Heartbeat_Variant_2_evicts 0 : 105 1 : 308 2 : 0 3 : 0 
Heartbeat_Variant_3_evicts 0 : 0 1 : 0 2 : 0 3 : 0 
Heartbeat CPU 0 instructions: 20000003 cycles: 5591031 heartbeat IPC: 3.57708 cumulative IPC: 3.57716 (Simulation time: 0 hr 2 min 33 sec) 
Heartbeat_Variant_0 : 1369 0.334229 per_variant_size: 0 1369 0 0 0 0 0 0 0 
Heartbeat_Variant_1 : 1288 0.314453 per_variant_size: 0 625 663 0 0 0 0 0 0 
Heartbeat_Variant_2 : 1351 0.329834 per_variant_size: 0 518 368 257 208 0 0 0 0 
Heartbeat_Variant_3 : 0 0 per_variant_size: 0 0 0 0 0 0 0 0 0 
Heartbeat_Variant_0_evicts 0 : 5739 1 : 222 2 : 272 3 : 0 
Heartbeat_Variant_1_evicts 0 : 237 1 : 0 2 : 408 3 : 0 
Heartbeat_Variant_2_evicts 0 : 261 1 : 404 2 : 0 3 : 0 
Heartbeat_Variant_3_evicts 0 : 0 1 : 0 2 : 0 3 : 0 
Heartbeat CPU 0 instructions: 30000000 cycles: 8385356 heartbeat IPC: 3.57868 cumulative IPC: 3.57767 (Simulation time: 0 hr 3 min 50 sec) 
Heartbeat_Variant_0 : 1368 0.333984 per_variant_size: 0 1368 0 0 0 0 0 0 0 
Heartbeat_Variant_1 : 1295 0.316162 per_variant_size: 0 639 656 0 0 0 0 0 0 
Heartbeat_Variant_2 : 1348 0.329102 per_variant_size: 0 516 362 263 207 0 0 0 0 
Heartbeat_Variant_3 : 0 0 per_variant_size: 0 0 0 0 0 0 0 0 0 
Heartbeat_Variant_0_evicts 0 : 5608 1 : 35 2 : 20 3 : 0 
Heartbeat_Variant_1_evicts 0 : 35 1 : 0 2 : 216 3 : 0 
Heartbeat_Variant_2_evicts 0 : 21 1 : 211 2 : 0 3 : 0 
Heartbeat_Variant_3_evicts 0 : 0 1 : 0 2 : 0 3 : 0 
Heartbeat CPU 0 instructions: 40000003 cycles: 11180993 heartbeat IPC: 3.577 cumulative IPC: 3.5775 (Simulation time: 0 hr 5 min 9 sec) 
Heartbeat_Variant_0 : 1369 0.334229 per_variant_size: 0 1369 0 0 0 0 0 0 0 
Heartbeat_Variant_1 : 1298 0.316895 per_variant_size: 0 623 675 0 0 0 0 0 0 
Heartbeat_Variant_2 : 1361 0.332275 per_variant_size: 0 525 364 269 203 0 0 0 0 
Heartbeat_Variant_3 : 0 0 per_variant_size: 0 0 0 0 0 0 0 0 0 
Heartbeat_Variant_0_evicts 0 : 5660 1 : 117 2 : 108 3 : 0 
Heartbeat_Variant_1_evicts 0 : 114 1 : 0 2 : 288 3 : 0 
Heartbeat_Variant_2_evicts 0 : 111 1 : 288 2 : 0 3 : 0 
Heartbeat_Variant_3_evicts 0 : 0 1 : 0 2 : 0 3 : 0 
Heartbeat CPU 0 instructions: 50000001 cycles: 13977445 heartbeat IPC: 3.57596 cumulative IPC: 3.57719 (Simulation time: 0 hr 6 min 28 sec) 

Warmup complete CPU 0 instructions: 50000001 cycles: 13977445 (Simulation time: 0 hr 6 min 28 sec) 

Cycle: 20000000 FTQ IN: 55080413 FTQ occupancy: 15.5701 DECODE IN: 55080395 DECODE occupancy: 9.4073 ROB IN: 55080395 ROB occupancy: 257.527 ROB OUT: 55080390
Heartbeat_Variant_0 : 1374 0.335449 per_variant_size: 0 1374 0 0 0 0 0 0 0 
Heartbeat_Variant_1 : 1299 0.317139 per_variant_size: 0 621 678 0 0 0 0 0 0 
Heartbeat_Variant_2 : 1361 0.332275 per_variant_size: 0 531 362 260 208 0 0 0 0 
Heartbeat_Variant_3 : 0 0 per_variant_size: 0 0 0 0 0 0 0 0 0 
Heartbeat_Variant_0_evicts 0 : 5633 1 : 93 2 : 111 3 : 0 
Heartbeat_Variant_1_evicts 0 : 87 1 : 0 2 : 290 3 : 0 
Heartbeat_Variant_2_evicts 0 : 113 1 : 285 2 : 0 3 : 0 
Heartbeat_Variant_3_evicts 0 : 0 1 : 0 2 : 0 3 : 0 
Heartbeat CPU 0 instructions: 60000001 cycles: 25827380 heartbeat IPC: 0.843886 cumulative IPC: 0.843886 (Simulation time: 0 hr 7 min 41 sec) 
Cycle: 30000000 FTQ IN: 8452848 FTQ occupancy: 13.8393 DECODE IN: 8452848 DECODE occupancy: 4.6346 ROB IN: 8452836 ROB occupancy: 47.9031 ROB OUT: 8452833
*** Reached end of trace for Core: 0 Repeating trace: ./micro_traces/srv248.trace.gz
Heartbeat_Variant_0 : 1382 0.337402 per_variant_size: 0 1382 0 0 0 0 0 0 0 
Heartbeat_Variant_1 : 1293 0.315674 per_variant_size: 0 603 690 0 0 0 0 0 0 
Heartbeat_Variant_2 : 1362 0.33252 per_variant_size: 0 521 367 265 209 0 0 0 0 
Heartbeat_Variant_3 : 0 0 per_variant_size: 0 0 0 0 0 0 0 0 0 
Heartbeat_Variant_0_evicts 0 : 5463 1 : 55 2 : 42 3 : 0 
Heartbeat_Variant_1_evicts 0 : 51 1 : 0 2 : 232 3 : 0 
Heartbeat_Variant_2_evicts 0 : 38 1 : 235 2 : 0 3 : 0 
Heartbeat_Variant_3_evicts 0 : 0 1 : 0 2 : 0 3 : 0 
Heartbeat CPU 0 instructions: 70000000 cycles: 37820103 heartbeat IPC: 0.833839 cumulative IPC: 0.838833 (Simulation time: 0 hr 8 min 51 sec) 
Cycle: 40000000 FTQ IN: 8313360 FTQ occupancy: 13.9354 DECODE IN: 8313372 DECODE occupancy: 4.67764 ROB IN: 8313384 ROB occupancy: 50.7736 ROB OUT: 8313360
Heartbeat_Variant_0 : 1387 0.338623 per_variant_size: 0 1387 0 0 0 0 0 0 0 
Heartbeat_Variant_1 : 1292 0.31543 per_variant_size: 0 594 698 0 0 0 0 0 0 
Heartbeat_Variant_2 : 1362 0.33252 per_variant_size: 0 516 374 261 211 0 0 0 0 
Heartbeat_Variant_3 : 0 0 per_variant_size: 0 0 0 0 0 0 0 0 0 
Heartbeat_Variant_0_evicts 0 : 5538 1 : 34 2 : 45 3 : 0 
Heartbeat_Variant_1_evicts 0 : 40 1 : 0 2 : 222 3 : 0 
Heartbeat_Variant_2_evicts 0 : 35 1 : 231 2 : 0 3 : 0 
Heartbeat_Variant_3_evicts 0 : 0 1 : 0 2 : 0 3 : 0 
Heartbeat CPU 0 instructions: 80000001 cycles: 49620187 heartbeat IPC: 0.847452 cumulative IPC: 0.841686 (Simulation time: 0 hr 10 min 1 sec) 
Cycle: 50000000 FTQ IN: 8469521 FTQ occupancy: 13.8686 DECODE IN: 8469517 DECODE occupancy: 4.64069 ROB IN: 8469515 ROB occupancy: 47.7825 ROB OUT: 8469536
Cycle: 60000000 FTQ IN: 8400877 FTQ occupancy: 13.9086 DECODE IN: 8400878 DECODE occupancy: 4.66121 ROB IN: 8400868 ROB occupancy: 49.7905 ROB OUT: 8400782
Heartbeat_Variant_0 : 1391 0.3396 per_variant_size: 0 1391 0 0 0 0 0 0 0 
Heartbeat_Variant_1 : 1309 0.31958 per_variant_size: 0 616 693 0 0 0 0 0 0 
Heartbeat_Variant_2 : 1350 0.32959 per_variant_size: 0 503 378 259 210 0 0 0 0 
Heartbeat_Variant_3 : 0 0 per_variant_size: 0 0 0 0 0 0 0 0 0 
Heartbeat_Variant_0_evicts 0 : 5630 1 : 85 2 : 94 3 : 0 
Heartbeat_Variant_1_evicts 0 : 83 1 : 0 2 : 314 3 : 0 
Heartbeat_Variant_2_evicts 0 : 94 1 : 298 2 : 0 3 : 0 
Heartbeat_Variant_3_evicts 0 : 0 1 : 0 2 : 0 3 : 0 
Heartbeat CPU 0 instructions: 90000003 cycles: 61533541 heartbeat IPC: 0.839394 cumulative IPC: 0.841112 (Simulation time: 0 hr 11 min 13 sec) 
Cycle: 70000000 FTQ IN: 8485002 FTQ occupancy: 13.9044 DECODE IN: 8484993 DECODE occupancy: 4.63461 ROB IN: 8484993 ROB occupancy: 47.725 ROB OUT: 8485050
Heartbeat_Variant_0 : 1392 0.339844 per_variant_size: 0 1392 0 0 0 0 0 0 0 
Heartbeat_Variant_1 : 1307 0.319092 per_variant_size: 0 613 694 0 0 0 0 0 0 
Heartbeat_Variant_2 : 1352 0.330078 per_variant_size: 0 507 371 269 205 0 0 0 0 
Heartbeat_Variant_3 : 0 0 per_variant_size: 0 0 0 0 0 0 0 0 0 
Heartbeat_Variant_0_evicts 0 : 5615 1 : 22 2 : 21 3 : 0 
Heartbeat_Variant_1_evicts 0 : 20 1 : 0 2 : 207 3 : 0 
Heartbeat_Variant_2_evicts 0 : 22 1 : 207 2 : 0 3 : 0 
Heartbeat_Variant_3_evicts 0 : 0 1 : 0 2 : 0 3 : 0 
Heartbeat CPU 0 instructions: 100000002 cycles: 73274202 heartbeat IPC: 0.851741 cumulative IPC: 0.843216 (Simulation time: 0 hr 12 min 25 sec) 
Finished CPU 0 instructions: 50000001 cycles: 59296757 cumulative IPC: 0.843216 (Simulation time: 0 hr 12 min 25 sec) 

ChampSim completed all CPUs

Region of Interest Statistics

CPU 0 cumulative IPC: 0.843216 instructions: 50000001 cycles: 59296757
 Fetch stage stalled: 37.2947  Sim cycles: 59296757 fetch stall cycle: 22114521
 Empty decode stage: 70.8658  Sim cycles: 59296757 fetch stall cycle: 42021123
ITLB TOTAL     ACCESS:    7248401  HIT:    6755114  MISS:     493287  HIT %:    93.1945  MISS %:    6.80546   MPKI: 9.86574
ITLB LOAD TRANSLATION INSTRUCTION	ACCESS:    7248401  HIT:    6755114  MISS:     493287  HIT %:    93.1945  MISS %:    6.80546  MPKI: 9.86574

ITLB AVERAGE MISS LATENCY: 9.03488 cycles
ITLB RQ	ACCESS:    8387871	FORWARD:          0	MERGED:     935828	TO_CACHE:    7452043

DTLB TOTAL     ACCESS:   10450438  HIT:    9970430  MISS:     480008  HIT %:    95.4068  MISS %:    4.59319   MPKI: 9.60016
DTLB LOAD TRANSLATION DATA	ACCESS:   10450438  HIT:    9970430  MISS:     480008  HIT %:    95.4068  MISS %:    4.59319  MPKI: 9.60016

DTLB AVERAGE MISS LATENCY: 9.24452 cycles
DTLB RQ	ACCESS:   14508752	FORWARD:          0	MERGED:    4029441	TO_CACHE:   10479311

STLB TOTAL     ACCESS:    1237347  HIT:    1235336  MISS:       2011  HIT %:    99.8375  MISS %:   0.162525   MPKI: 0.04022
STLB LOAD TRANSLATION INSTRUCTION	ACCESS:     493287  HIT:     493062  MISS:        225  HIT %:    99.9544  MISS %:  0.0456124  MPKI: 0.0045
STLB LOAD TRANSLATION DATA	ACCESS:     480007  HIT:     478242  MISS:       1765  HIT %:    99.6323  MISS %:   0.367703  MPKI: 0.0353
STLB TRANSLATION FROM L1D PREFETCHER DATA	ACCESS:     264053  HIT:     264032  MISS:         21  HIT %:     99.992  MISS %: 0.00795295  MPKI: 0.00042

STLB AVERAGE MISS LATENCY: 57.0075 cycles
STLB RQ	ACCESS:    1378981	FORWARD:          0	MERGED:     141606	TO_CACHE:    1237375

STLB Hit, L1D data hit: 0
STLB Hit, L2C data hit: 0
STLB Hit, LLC data hit: 0
STLB Hit, LLC data miss: 0
STLB STLB hints to L2: 0
L1D TOTAL     ACCESS:   14306785  HIT:   13141235  MISS:    1165550  HIT %:    91.8532  MISS %:    8.14683   MPKI: 23.311
L1D LOAD DATA	ACCESS:    7682507  HIT:    6912752  MISS:     769755  HIT %:    89.9804  MISS %:    10.0196  MPKI: 15.3951
L1D RFO DATA	ACCESS:    6284870  HIT:    5992402  MISS:     292468  HIT %:    95.3465  MISS %:    4.65353  MPKI: 5.84936
L1D PREFETCH DATA	ACCESS:     339408  HIT:     236081  MISS:     103327  HIT %:    69.5567  MISS %:    30.4433  MPKI: 2.06654

L1D PREFETCH  REQUESTED:     811555  ISSUED:     811555  USEFUL:      49081  USELESS:      69501
L1D USEFUL LOAD PREFETCHES:      49081 PREFETCH ISSUED TO LOWER LEVEL:     118687  ACCURACY: 41.3533
 TIMELY PREFETCHES:      49081 LATE PREFETCHES: 15250 DROPPED PREFETCHES: 2
L1D AVERAGE MISS LATENCY: 566926 cycles
L1D RQ	ACCESS:   11469070	FORWARD:          0	MERGED:    3603978	TO_CACHE:    7715070
L1D WQ	ACCESS:    6906722	FORWARD:     150205	MERGED:     113040	TO_CACHE:    6793682
L1D PQ	ACCESS:     405869	FORWARD:          0	MERGED:          0	TO_CACHE:     405686

L1D UNIQUE REGIONS ACCESSED: 0
L1D REGIONS CONFLICTS: 0
L1D Cross Page Prefetch Requests: 5639
L1D Same Page Prefetch Requests: 817436
L1D ROI Sum of L1D PQ occupancy: 5169550
L1D PREFETCHES PUSHED FROM L2C: 0
L1I TOTAL     ACCESS:    7889118  HIT:    5127001  MISS:    2762117  HIT %:    64.9883  MISS %:    35.0117   MPKI: 55.2423
L1I LOAD INSTRUCTION	ACCESS:    7889118  HIT:    5127001  MISS:    2762117  HIT %:    64.9883  MISS %:    35.0117  MPKI: 55.2423

L1I AVERAGE MISS LATENCY: 17.0261 cycles
L1I RQ	ACCESS:   15250696	FORWARD:          0	MERGED:    6862825	TO_CACHE:    8387871

L1BTB TOTAL     ACCESS:    5680720  HIT:    2062437  MISS:    3618283  HIT %:    36.3059  MISS %:    63.6941   MPKI: 72.3657
L1BTB BRANCH_DIRECT_JUMP	ACCESS:     543989  HIT:     142872  MISS:     401117	AVERAGE STALL: 19.4236
L1BTB BRANCH_INDIRECT	ACCESS:     181037  HIT:      65159  MISS:     115878	AVERAGE STALL: 48.0681
L1BTB BRANCH_CONDITIONAL	ACCESS:    2728567  HIT:    1439897  MISS:    1288670	AVERAGE STALL: 26.9623
L1BTB BRANCH_DIRECT_CALL	ACCESS:     942515  HIT:     103864  MISS:     838651	AVERAGE STALL: 28.0944
L1BTB BRANCH_INDIRECT_CALL	ACCESS:     171049  HIT:      21254  MISS:     149795	AVERAGE STALL: 64.4468
L1BTB BRANCH_RETURN	ACCESS:    1113563  HIT:     289391  MISS:     824172	AVERAGE STALL: 32.5264
L1BTB BRANCH_OTHER ACCESS:          0  HIT:          0  MISS:          0	AVERAGE STALL: -nan
L1BTB TOTAL ROB OCCUPANCY AT BTB MISS: 0.528192

L2BTB TOTAL     ACCESS:    3593281  HIT:    3528848  MISS:      64433  HIT %:    98.2068  MISS %:    1.79315   MPKI: 1.28866
L2BTB BRANCH_DIRECT_JUMP	ACCESS:     397025  HIT:     393521  MISS:       3504	AVERAGE STALL: 19.4236
L2BTB BRANCH_INDIRECT	ACCESS:     105641  HIT:     102986  MISS:       2655	AVERAGE STALL: 48.0681
L2BTB BRANCH_CONDITIONAL	ACCESS:    1288670  HIT:    1284681  MISS:       3989	AVERAGE STALL: 26.9623
L2BTB BRANCH_DIRECT_CALL	ACCESS:     838651  HIT:     836838  MISS:       1813	AVERAGE STALL: 28.0944
L2BTB BRANCH_INDIRECT_CALL	ACCESS:     140366  HIT:     130413  MISS:       9953	AVERAGE STALL: 64.4468
L2BTB BRANCH_RETURN	ACCESS:     822928  HIT:     780409  MISS:      42519	AVERAGE STALL: 32.5264
L2BTB BRANCH_OTHER ACCESS:          0  HIT:          0  MISS:          0	AVERAGE STALL: -nan
L2BTB TOTAL ROB OCCUPANCY AT BTB MISS: 29.661

L2C TOTAL     ACCESS:    4550485  HIT:    4054533  MISS:     495952  HIT %:    89.1011  MISS %:    10.8989   MPKI: 9.91904
L2C LOAD INSTRUCTION	ACCESS:    2762118  HIT:    2497744  MISS:     264374  HIT %:    90.4286  MISS %:    9.57142  MPKI: 5.28748
L2C LOAD TRANSLATION INSTRUCTION	ACCESS:        248  HIT:         63  MISS:        185  HIT %:    25.4032  MISS %:    74.5968  MPKI: 0.0037
L2C LOAD DATA	ACCESS:     754468  HIT:     666460  MISS:      88008  HIT %:    88.3351  MISS %:    11.6649  MPKI: 1.76016
L2C RFO DATA	ACCESS:     292319  HIT:     243184  MISS:      49135  HIT %:    83.1913  MISS %:    16.8087  MPKI: 0.9827
L2C PREFETCH DATA	ACCESS:     210731  HIT:     132005  MISS:      78726  HIT %:    62.6415  MISS %:    37.3585  MPKI: 1.57452
L2C WRITEBACK DATA	ACCESS:     528753  HIT:     514634  MISS:      14119  HIT %:    97.3298  MISS %:    2.67024  MPKI: 0.28238
L2C LOAD TRANSLATION DATA	ACCESS:       1819  HIT:        421  MISS:       1398  HIT %:    23.1446  MISS %:    76.8554  MPKI: 0.02796
L2C TRANSLATION FROM L1D PREFETCHER DATA	ACCESS:         29  HIT:         22  MISS:          7  HIT %:    75.8621  MISS %:    24.1379  MPKI: 0.00014

L2C PREFETCH  REQUESTED:     100014  ISSUED:     100014  USEFUL:       9554  USELESS:      69617
L2C USEFUL LOAD PREFETCHES:       9554 PREFETCH ISSUED TO LOWER LEVEL:      79217  ACCURACY: 12.0605
 TIMELY PREFETCHES:       9554 LATE PREFETCHES: 491 DROPPED PREFETCHES: 0
L2C AVERAGE MISS LATENCY: 37.5032 cycles
L2C RQ	ACCESS:    3811078	FORWARD:          0	MERGED:          0	TO_CACHE:    3811002
L2C WQ	ACCESS:     528753	FORWARD:         77	MERGED:          0	TO_CACHE:     528753
L2C PQ	ACCESS:     218701	FORWARD:          0	MERGED:       3590	TO_CACHE:     215110

L2C Dense regions hint from L2: 0
PSCL5 TOTAL     ACCESS:       4026  HIT:       2013  MISS:       2013  HIT %:         50  MISS %:         50   MPKI: 0.04026
PSCL5 LOAD TRANSLATION INSTRUCTION	ACCESS:       3968  HIT:       1984  MISS:       1984  HIT %:         50  MISS %:         50  MPKI: 0.03968
PSCL5 TRANSLATION FROM L1D PREFETCHER INSTRUCTION	ACCESS:         58  HIT:         29  MISS:         29  HIT %:         50  MISS %:         50  MPKI: 0.00058


PSCL4 TOTAL     ACCESS:       3914  HIT:       1956  MISS:       1958  HIT %:    49.9745  MISS %:    50.0255   MPKI: 0.03916
PSCL4 LOAD TRANSLATION INSTRUCTION	ACCESS:       2095  HIT:       1927  MISS:        168  HIT %:    91.9809  MISS %:    8.01909  MPKI: 0.00336
PSCL4 TRANSLATION FROM L1D PREFETCHER INSTRUCTION	ACCESS:         29  HIT:         29  MISS:          0  HIT %:        100  MISS %:          0  MPKI: 0
PSCL4 LOAD TRANSLATION DATA	ACCESS:       1761  HIT:          0  MISS:       1761  HIT %:          0  MISS %:        100  MPKI: 0.03522
PSCL4 TRANSLATION FROM L1D PREFETCHER DATA	ACCESS:         29  HIT:          0  MISS:         29  HIT %:          0  MISS %:        100  MPKI: 0.00058


PSCL3 TOTAL     ACCESS:       4000  HIT:       1999  MISS:       2001  HIT %:     49.975  MISS %:     50.025   MPKI: 0.04002
PSCL3 LOAD TRANSLATION INSTRUCTION	ACCESS:       2138  HIT:       1970  MISS:        168  HIT %:    92.1422  MISS %:    7.85781  MPKI: 0.00336
PSCL3 TRANSLATION FROM L1D PREFETCHER INSTRUCTION	ACCESS:         29  HIT:         29  MISS:          0  HIT %:        100  MISS %:          0  MPKI: 0
PSCL3 LOAD TRANSLATION DATA	ACCESS:       1804  HIT:          0  MISS:       1804  HIT %:          0  MISS %:        100  MPKI: 0.03608
PSCL3 TRANSLATION FROM L1D PREFETCHER DATA	ACCESS:         29  HIT:          0  MISS:         29  HIT %:          0  MISS %:        100  MPKI: 0.00058


PSCL2 TOTAL     ACCESS:       3947  HIT:       1934  MISS:       2013  HIT %:    48.9992  MISS %:    51.0008   MPKI: 0.04026
PSCL2 LOAD TRANSLATION INSTRUCTION	ACCESS:       2129  HIT:       1905  MISS:        224  HIT %:    89.4786  MISS %:    10.5214  MPKI: 0.00448
PSCL2 TRANSLATION FROM L1D PREFETCHER INSTRUCTION	ACCESS:         29  HIT:         29  MISS:          0  HIT %:        100  MISS %:          0  MPKI: 0
PSCL2 LOAD TRANSLATION DATA	ACCESS:       1760  HIT:          0  MISS:       1760  HIT %:          0  MISS %:        100  MPKI: 0.0352
PSCL2 TRANSLATION FROM L1D PREFETCHER DATA	ACCESS:         29  HIT:          0  MISS:         29  HIT %:          0  MISS %:        100  MPKI: 0.00058


LLC TOTAL     ACCESS:     558069  HIT:     534150  MISS:      23919  HIT %:     95.714  MISS %:    4.28603   MPKI: 0.47838
LLC LOAD INSTRUCTION	ACCESS:     264374  HIT:     263721  MISS:        653  HIT %:     99.753  MISS %:   0.246999  MPKI: 0.01306
LLC LOAD TRANSLATION INSTRUCTION	ACCESS:        185  HIT:        169  MISS:         16  HIT %:    91.3514  MISS %:    8.64865  MPKI: 0.00032
LLC LOAD DATA	ACCESS:      87531  HIT:      84153  MISS:       3378  HIT %:    96.1408  MISS %:     3.8592  MPKI: 0.06756
LLC RFO DATA	ACCESS:      49120  HIT:      39499  MISS:       9621  HIT %:    80.4133  MISS %:    19.5867  MPKI: 0.19242
LLC PREFETCH DATA	ACCESS:      79217  HIT:      69217  MISS:      10000  HIT %:    87.3764  MISS %:    12.6236  MPKI: 0.2
LLC WRITEBACK DATA	ACCESS:      76237  HIT:      76043  MISS:        194  HIT %:    99.7455  MISS %:    0.25447  MPKI: 0.00388
LLC LOAD TRANSLATION DATA	ACCESS:       1398  HIT:       1341  MISS:         57  HIT %:    95.9227  MISS %:    4.07725  MPKI: 0.00114
LLC TRANSLATION FROM L1D PREFETCHER DATA	ACCESS:          7  HIT:          7  MISS:          0  HIT %:        100  MISS %:          0  MPKI: 0

LLC AVERAGE MISS LATENCY: 173.262 cycles
LLC RQ	ACCESS:     402616	FORWARD:          0	MERGED:          0	TO_CACHE:     402615
LLC WQ	ACCESS:      76237	FORWARD:          1	MERGED:          0	TO_CACHE:      76237
LLC PQ	ACCESS:      79217	FORWARD:          0	MERGED:          0	TO_CACHE:      79217

LLC Dense regions hint to LLC: 0

RAW hits: 1135108
Loads Generated: 12604177
Loads sent to L1D: 11469070
Stores Generated: 6906707
Stores sent to L1D: 6906722
Major fault: 0 Minor fault: 2311
Allocated PAGES: 2311

stream: 
stream:times selected: 1243525
stream:pref_filled: 126403
stream:pref_useful: 29935
stream:pref_late: 9653
stream:misses: 9990
stream:misses_by_poll: 0

CS: 
CS:times selected: 196593
CS:pref_filled: 72797
CS:pref_useful: 49992
CS:pref_late: 10640
CS:misses: 26025
CS:misses_by_poll: 1

CPLX: 
CPLX:times selected: 1045870
CPLX:pref_filled: 26550
CPLX:pref_useful: 7578
CPLX:pref_late: 4660
CPLX:misses: 131158
CPLX:misses_by_poll: 2

NL_L1: 
NL:times selected: 11742
NL:pref_filled: 1103
NL:pref_useful: 302
NL:pref_late: 471
NL:misses: 1910
NL:misses_by_poll: 0

total selections: 2497730
total_filled: 103327
total_useful: 49081
total_late: 27841
total_polluted: 3
total_misses_after_warmup: 802320
conflicts: 6012321

test: 118256

DRAM Statistics
 CHANNEL 0
 RQ ROW_BUFFER_HIT:       8437  ROW_BUFFER_MISS:      15278
 DBUS_CONGESTED:          6
 WQ ROW_BUFFER_HIT:       1251  ROW_BUFFER_MISS:      10237  FULL:          0

 AVG_CONGESTED_CYCLE: 2

CPU 0 Branch Prediction Accuracy: 99.8228% MPKI: 0.32472 Average ROB Occupancy at Mispredict: 74.4518
Branch types
NOT_BRANCH: 40835019 81.67%
BRANCH_DIRECT_JUMP: 543989 1.08798%
BRANCH_INDIRECT: 181037 0.362074%
BRANCH_CONDITIONAL: 6212480 12.425%
BRANCH_DIRECT_CALL: 942515 1.88503%
BRANCH_INDIRECT_CALL: 171049 0.342098%
BRANCH_RETURN: 1113563 2.22713%
BRANCH_OTHER: 0 0%

DRAM PAGES: 1048576
Allocated PAGES: 2311
Average_ROB_Occupancy: 49.4327
Average_Decode_Occupancy: 4.64714
Average_FTQ_Occupancy: 13.8853
Indirect max targets: 14 Average targets: 1.15017
Branch_type:  BRANCH_DIRECT_JUMP:  Count Percentage: 2.89503 5.78086 3.6761 8.85491 2.92171 6.32558 1.79886 67.747 
Branch_type:  BRANCH_INDIRECT:  Count Percentage: 11.7305 7.07445 2.52835 3.75717 3.34904 24.1913 3.21842 44.1508 
Branch_type:  BRANCH_CONDITIONAL:  Count Percentage: 22.0965 3.56638 4.62748 3.51918 2.36367 5.54243 1.09336 57.191 
Branch_type:  BRANCH_DIRECT_CALL:  Count Percentage: 0.264784 1.7892 0.723145 3.18948 2.99006 3.27947 0.88476 86.8791 
Branch_type:  BRANCH_INDIRECT_CALL:  Count Percentage: 9.53145 0 2.98828 4.26968 0 4.04011 0.994141 78.1763 
Branch_type:  BRANCH_RETURN:  Count Percentage: 3.77712 2.45166 4.11963 3.4015 5.01044 7.26451 1.18734 72.7878 
Branch_type:  BRANCH_DIRECT_JUMP:  Total Count: 31468 62836 39958 96250 31758 68757 19553 736387 
Branch_type:  BRANCH_INDIRECT:  Total Count: 42480 25619 9156 13606 12128 87605 11655 159885 
Branch_type:  BRANCH_CONDITIONAL:  Total Count: 2743679 442831 574586 436971 293493 688194 135761 7101315 
Branch_type:  BRANCH_DIRECT_CALL:  Total Count: 4979 33644 13598 59975 56225 61667 16637 1633673 
Branch_type:  BRANCH_INDIRECT_CALL:  Total Count: 32550 0 10205 14581 0 13797 3395 266973 
Branch_type:  BRANCH_RETURN:  Total Count: 83954 54493 91567 75605 111367 161468 26391 1617852 
Number of unique branch instructions: 9987
Upper 32 bits: 
aaaa
ffff
ffff0000
Unique upper 32 bits: 3
Unique upper 36 bits: 3
Unique upper 40 bits: 5
Unique upper 44 bits: 32
Unique upper 48 bits: 153
Variant_0 : 1392 0.339844
Variant_1 : 1307 0.319092
Variant_2 : 1352 0.330078
Variant_3 : 0 0
Offset_3 4135
Offset_4 248
Offset_5 452
Offset_6 515
Offset_7 589
Offset_8 520
Offset_9 468
Offset_10 391
Offset_11 330
Offset_12 265
Offset_13 200
Offset_14 225
Offset_15 191
Offset_16 227
Offset_17 146
Offset_18 127
Offset_19 235
Offset_20 139
Offset_21 235
Offset_22 398
Offset_23 241
Offset_24 328
Offset_25 88
Offset_47 80
Offset_64 2
decode_dispatch_called: 30629418 51.6545
Dispatch_width: 0 18523804 60.4772 31.2392
Dispatch_width: 1 2328945 7.60362 3.92761
Dispatch_width: 2 1122577 3.66503 1.89315
Dispatch_width: 3 1084029 3.53918 1.82814
Dispatch_width: 4 994624 3.24728 1.67737
Dispatch_width: 5 1257652 4.10603 2.12095
Dispatch_width: 6 5317787 17.3617 8.96809
Empty_decode_cycles: 28667339 48.3455
ROB_full_cycles: 444240 0.749181
Starvation_cycles_per_kilo_instr: 535.347
Starvation_cycles_per_kilo_instr_3: 512.825
Starvation_cycles_per_kilo_instr_0: 467.469
Branch_type_1  (3,1)  (4,7)  (5,36)  (6,74)  (7,116)  (8,129)  (9,123)  (10,102)  (11,80)  (12,42)  (13,4)  (14,2)  (15,3)  (16,4)  (18,1)  (19,4)  (20,2)  (21,1)  (22,3)  (23,2)  (24,10)  (25,12) 
Branch_type_2  (3,1)  (5,1)  (8,3)  (9,3)  (12,1)  (13,1)  (14,1)  (16,3)  (17,2)  (20,2)  (21,2)  (23,5)  (24,1)  (47,36) 
Branch_type_3  (3,4133)  (4,241)  (5,411)  (6,425)  (7,442)  (8,329)  (9,260)  (10,161)  (11,133)  (12,49)  (13,4)  (24,1)  (64,2) 
Branch_type_4  (6,4)  (7,8)  (8,26)  (9,50)  (10,60)  (11,59)  (12,96)  (13,87)  (14,99)  (15,92)  (16,103)  (17,66)  (18,58)  (19,114)  (20,72)  (21,124)  (22,213)  (23,136)  (24,188)  (25,72) 
Branch_type_5  (8,2)  (9,1)  (10,3)  (11,5)  (12,3)  (13,14)  (14,16)  (15,11)  (16,20)  (17,11)  (18,16)  (19,12)  (20,10)  (21,13)  (22,42)  (23,26)  (24,36) 
Branch_type_6  (5,4)  (6,12)  (7,23)  (8,31)  (9,31)  (10,65)  (11,53)  (12,74)  (13,90)  (14,107)  (15,85)  (16,97)  (17,67)  (18,52)  (19,105)  (20,53)  (21,95)  (22,140)  (23,72)  (24,92)  (25,4)  (47,44) 
Unique trigger count: 
Variant_0_evicts_0 : 0
Variant_0_evicts_1 : 0
Variant_0_evicts_2 : 0
Variant_0_evicts_3 : 0
Variant_1_evicts_0 : 0
Variant_1_evicts_1 : 0
Variant_1_evicts_2 : 0
Variant_1_evicts_3 : 0
Variant_2_evicts_0 : 0
Variant_2_evicts_1 : 0
Variant_2_evicts_2 : 0
Variant_2_evicts_3 : 0
Variant_3_evicts_0 : 0
Variant_3_evicts_1 : 0
Variant_3_evicts_2 : 0
Variant_3_evicts_3 : 0
BTB PER SET UNIQUE ADDR: 16 10 6 13 11 13 9 11 9 9 6 14 16 10 7 8 6 7 8 12 12 11 13 11 10 13 11 17 12 12 16 15 13 12 8 12 12 17 8 13 9 9 13 11 12 5 12 9 14 10 17 13 8 14 10 5 11 13 13 15 10 15 12 16 15 10 12 11 14 15 10 16 8 10 8 8 7 12 9 13 15 11 10 12 12 17 13 9 8 16 5 5 10 11 7 16 10 7 18 16 19 19 10 8 12 12 10 11 6 9 10 12 12 9 10 9 13 12 9 13 12 9 10 11 14 11 6 12 19 17 16 14 10 16 13 15 8 13 12 13 10 11 11 13 14 15 12 10 7 14 13 15 9 9 9 13 15 12 16 15 13 10 18 8 15 13 11 9 13 9 12 15 13 12 13 13 9 14 11 14 11 11 9 14 14 16 4 14 16 11 15 11 12 13 12 12 8 9 11 14 14 10 7 12 11 10 13 6 7 9 8 13 9 12 12 15 11 17 11 18 10 14 7 12 7 9 10 11 8 16 9 8 11 18 10 14 19 14 13 8 9 10 18 11 10 13 10 10 11 11 19 11 13 10 15 10 12 11 8 10 13 7 5 7 14 5 6 13 8 8 11 12 10 8 7 9 9 15 12 15 14 12 13 13 12 11 10 14 19 11 11 11 9 17 7 18 12 7 11 14 10 8 8 15 11 13 9 8 15 11 15 12 7 15 9 8 17 9 14 18 10 12 10 15 13 11 16 13 11 8 11 11 10 12 13 14 11 12 11 22 6 10 5 10 12 9 11 11 12 9 9 10 8 12 12 16 12 13 10 8 13 14 11 9 12 11 8 13 14 11 10 6 11 12 8 16 12 17 10 16 11 12 10 6 8 12 15 14 14 12 12 8 6 18 6 8 11 16 15 10 11 10 11 12 12 17 11 15 11 9 11 6 13 13 12 7 12 12 18 15 7 17 15 11 9 14 15 11 12 12 12 12 10 14 10 15 18 10 13 12 14 12 6 12 20 7 12 13 17 11 12 13 13 10 17 18 11 11 10 16 11 12 12 16 18 15 11 11 11 13 11 11 13 12 12 16 9 17 6 15 14 17 14 11 8 14 14 10 11 14 11 13 12 10 9 10 13 8 7 10 11 12 14 17 9 11 6 18 15 11 16 15 14 16 13 16 13 21 10 6 7 11 11 10 13 12 16 10 8 25 18 14 14 8 14 17 12 12 15 15 14 11 13 12 11 18 11 11 9 14 15 17 12 12 12 13 12 11 18 13 9 15 10 10 13 14 11 10 11 9 12 13 17 15 10 18 13 19 10 11 12 7 8 15 14 9 11 16 17 15 7 12 14 10 11 11 10 14 11 11 14 9 14 7 12 10 14 15 9 14 16 15 7 13 6 13 9 15 13 11 16 11 7 8 11 19 8 14 6 10 12 17 14 12 10 11 15 13 10 20 8 18 15 12 13 13 10 19 16 13 10 8 10 13 14 11 10 13 11 12 9 7 16 13 12 12 13 11 13 11 13 14 8 17 17 10 11 12 13 12 11 15 8 11 13 13 10 15 17 12 12 17 11 7 9 12 10 12 9 16 8 13 14 20 6 14 13 12 8 7 10 16 9 12 12 10 18 9 8 12 14 7 13 16 12 11 12 8 11 11 11 9 12 10 7 12 7 12 13 11 11 10 11 13 11 14 8 11 5 8 10 12 11 12 10 12 13 12 12 7 10 11 9 11 11 16 8 12 8 10 13 13 10 6 11 11 11 10 14 12 10 14 18 9 13 11 9 8 11 6 7 8 14 14 14 14 10 6 12 11 16 10 18 11 20 12 14 14 9 15 11 11 13 10 13 12 13 16 6 8 14 14 10 17 15 10 11 15 14 13 8 13 12 10 9 14 6 11 12 10 9 14 10 14 10 16 11 14 12 11 10 11 13 14 11 17 14 16 15 14 12 15 11 11 18 6 14 7 18 8 11 17 16 16 15 6 13 12 14 11 13 10 12 13 14 10 17 13 14 15 15 10 17 11 14 10 16 9 10 7 8 9 11 10 8 13 11 11 13 12 13 11 8 10 15 9 21 11 16 11 13 8 11 13 13 13 8 13 9 12 13 15 19 8 9 15 11 11 10 16 10 15 10 6 15 13 11 12 7 14 14 15 11 13 11 16 13 10 14 15 18 12 15 13 18 13 11 17 7 11 10 13 14 13 13 12 13 15 8 20 7 11 10 11 8 18 10 11 16 10 12 11 9 9 10 9 8 7 14 9 14 17 11 6 16 12 8 12 9 16 9 12 10 10 11 12 6 10 8 6 9 16 13 7 
BTB PER SET COUNT: 752 11 1929 22 13 19 15 15 1466 11 7 17 14394 1485 7 8 990 8 407 14 20 14 750 62 24 15 17 452 24 18 159 72 18 16 8 399 38 27 11 22 14 11 19 55 332 5 14 10 18 191 30 358 11 26 13 6 23 18 15 27 13 21 18 25 21 13 15 15 20 19 17 994 10 12 11 10 7 921 13 14 523 20 426 41 17 1526 20 11 11 25 5 614 122 435 16 16 73 982 24 3345 26 1638 10 13 3073 17 20 19 6 2294 12 16 335 11 12 460 19 15 1814 750 790 9 18 15 25 70 9 20 26 957 29 17 15 24 178 23 13 16 16 20 13 17 16 33 15 218 764 173 9 227 25 80 1048 12 10 16 674 13 33 25 32 209 40 11 16 15 16 12 18 166 16 22 18 17 18 13 15 16 343 277 17 16 468 19 29 340 5 15 25 977 23 14 16 19 23 12 8 10 15 18 23 13 12 14 12 14 21 6 12 25 8 367 12 18 22 39 16 517 1966 34 27 19 9 14 8 28 14 248 14 21 12 8 13 35 973 1354 36 454 22 12 1224 12 22 462 29 510 18 14 13 12 33 17 17 10 21 17 14 18 13 18 19 10 5 7 18 6 8 14 233 10 20 15 11 9 7 16 13 26 25 231 19 17 236 393 15 15 10 19 28 12 14 20 10 23 10 19 13 13 17 241 11 10 20 18 21 23 146 314 282 413 32 20 7 20 1580 970 22 14 24 35 11 3300 13 30 15 12 18 19 14 11 13 15 23 19 14 18 11 990 13 26 6 332 7 14 93 11 15 11 16 11 11 27 8 16 20 20 21 27 539 8 19 30 14 13 18 41 10 22 20 16 14 598 12 24 981 97 12 19 11 65 1162 12 544 8 8 15 19 22 21 18 443 9 7 24 7 8 14 27 1437 13 13 16 14 23 14 21 17 37 16 13 11 6 20 31 19 9 16 4663 267 21 8 30 23 12 16 18 257 12 17 22 13 19 14 24 14 25 22 29 15 15 600 18 9 15 351 7 18 28 22 17 563 464 16 10 23 128 14 11 12 30 26 17 17 237 21 136 1193 15 17 16 16 18 18 15 17 26 15 20 8 20 16 453 21 17 957 21 448 18 13 42 27 19 125 14 12 12 2266 8 9 22 16 16 17 53 13 12 8 31 20 11 26 492 748 409 16 33 16 37 16 7 8 12 11 453 18 265 324 688 9 158 30 20 16 10 20 24 14 827 15 20 18 18 17 15 19 28 17 17 10 25 22 18 987 41 20 20 18 12 37 15 11 25 15 11 550 32 16 15 12 11 28 15 20 31 2453 24 76 628 17 23 27 7 31 2254 19 13 16 24 23 21 8 20 20 13 21 22 2117 373 16 14 17 10 82 7 16 12 26 812 10 18 28 210 9 17 8 18 13 17 21 12 20 17 12 565 19 35 10 18 6 11 16 29 767 24 13 12 22 19 13 537 10 30 25 18 22 36 975 40 460 16 13 10 13 15 18 493 11 214 20 14 16 7 38 13 152 13 17 988 1479 23 23 19 19 22 257 13 14 13 19 21 12 26 12 19 1726 13 13 23 25 18 15 25 15 10 1914 23 10 2182 14 24 422 29 579 22 7 25 17 18 12 8 132 88 224 20 267 139 225 10 9 287 62 606 26 2149 19 18 12 10 15 20 12 14352 15 19 7 158 10 16 19 18 155 12 768 68 69 24 12 11 6 8 1494 25 1004 1951 1090 14 18 18 18 12 16 14 12 29 16 32 10 22 8 318 99 16 12 8 14 22 14 12 17 18 311 19 75 9 16 214 11 13 13 9 7 733 20 14 88 217 13 9 21 412 70 13 374 14 31 18 18 16 24 60 21 4313 21 15 25 13 408 1479 7 8 17 16 18 20 340 12 14 24 18 18 10 24 16 10 11 1926 8 450 24 12 13 50 11 18 492 32 127 20 15 15 15 345 17 17 209 19 205 22 22 19 23 18 12 16 22 6 20 7 40 8 22 45 29 19 21 8 15 14 2479 12 15 13 287 16 58 462 20 29 18 145 25 12 30 144 14 13 30 10 1958 10 10 15 12 973 15 20 15 14 26 15 16 250 15 16 25 17 52 16 23 13 17 974 647 1275 21 24 15 22 15 52 18 17 763 14 14 33 39 19 1427 22 10 1348 10 8 21 15 12 14 7 17 38 1768 1475 2805 12 17 49 11 19 531 26 17 220 17 19 21 13 32 7 14 13 136 23 19 388 18 19 22 11 52 7 14 10 764 9 1060 12 496 23 12 16 19 16 14 14 10 14 1466 30 10 23 385 13 7 27 13 8 14 12 26 12 451 24 15 19 16 13 14 10 7 726 32 18 7 
To predecode: 0
Predecoding something: 0
Predecode request dropped: 0
sizeofblock_0 0
sizeofblock_1 45551
sizeofblock_2 31897
sizeofblock_3 43824
sizeofblock_4 15409
sizeofblock_5 0
sizeofblock_6 0
sizeofblock_7 0
sizeofblock_8 0
Variant_0 Correct: 1602760 Incorrect: 0 Accuracy: 1
Variant_1 Correct: 2080664 Incorrect: 0 Accuracy: 1
Variant_2 Correct: 3634301 Incorrect: 0 Accuracy: 1
Variant_3 Correct: 0 Incorrect: 0 Accuracy: -nan
