
*** ChampSim Multicore Out-of-Order Simulator ***

Warmup Instructions: 50000000
Simulation Instructions: 50000000
Number of CPUs: 1
LLC sets: 2048
LLC ways: 16
Off-chip DRAM Size: 4096 MB Channels: 1 Width: 64-bit Data Rate: 6400 MT/s
CPU 0 runs ./micro_traces/srv27.trace.gz
.gz
ITLB has LRU replacement policy
DTLB has LRU replacement policy
STLB has LRU replacement policy
FDIP Prefetcher at L1I
L1I has LRU replacement policy
L1D has LRU replacement policy
Initialize SRRIP state for L2C
Initialize DRRIP state for LLC
Heartbeat_Variant_0 : 1315 0.321045 per_variant_size: 0 1315 0 0 0 0 0 0 0 
Heartbeat_Variant_1 : 2507 0.612061 per_variant_size: 0 516 1991 0 0 0 0 0 0 
Heartbeat_Variant_2 : 0 0 per_variant_size: 0 0 0 0 0 0 0 0 0 
Heartbeat_Variant_3 : 0 0 per_variant_size: 0 0 0 0 0 0 0 0 0 
Heartbeat_Variant_0_evicts 0 : 5755 1 : 420 2 : 0 3 : 0 
Heartbeat_Variant_1_evicts 0 : 377 1 : 0 2 : 0 3 : 0 
Heartbeat_Variant_2_evicts 0 : 0 1 : 0 2 : 0 3 : 0 
Heartbeat_Variant_3_evicts 0 : 0 1 : 0 2 : 0 3 : 0 
Heartbeat CPU 0 instructions: 10000003 cycles: 2796885 heartbeat IPC: 3.57541 cumulative IPC: 3.57541 (Simulation time: 0 hr 1 min 43 sec) 
Heartbeat_Variant_0 : 1355 0.330811 per_variant_size: 0 1355 0 0 0 0 0 0 0 
Heartbeat_Variant_1 : 2579 0.629639 per_variant_size: 0 480 2099 0 0 0 0 0 0 
Heartbeat_Variant_2 : 0 0 per_variant_size: 0 0 0 0 0 0 0 0 0 
Heartbeat_Variant_3 : 0 0 per_variant_size: 0 0 0 0 0 0 0 0 0 
Heartbeat_Variant_0_evicts 0 : 5770 1 : 228 2 : 0 3 : 0 
Heartbeat_Variant_1_evicts 0 : 220 1 : 0 2 : 0 3 : 0 
Heartbeat_Variant_2_evicts 0 : 0 1 : 0 2 : 0 3 : 0 
Heartbeat_Variant_3_evicts 0 : 0 1 : 0 2 : 0 3 : 0 
Heartbeat CPU 0 instructions: 20000000 cycles: 5593662 heartbeat IPC: 3.57554 cumulative IPC: 3.57548 (Simulation time: 0 hr 3 min 20 sec) 
Heartbeat_Variant_0 : 1370 0.334473 per_variant_size: 0 1370 0 0 0 0 0 0 0 
Heartbeat_Variant_1 : 2615 0.638428 per_variant_size: 0 478 2137 0 0 0 0 0 0 
Heartbeat_Variant_2 : 0 0 per_variant_size: 0 0 0 0 0 0 0 0 0 
Heartbeat_Variant_3 : 0 0 per_variant_size: 0 0 0 0 0 0 0 0 0 
Heartbeat_Variant_0_evicts 0 : 5763 1 : 316 2 : 0 3 : 0 
Heartbeat_Variant_1_evicts 0 : 313 1 : 0 2 : 0 3 : 0 
Heartbeat_Variant_2_evicts 0 : 0 1 : 0 2 : 0 3 : 0 
Heartbeat_Variant_3_evicts 0 : 0 1 : 0 2 : 0 3 : 0 
Heartbeat CPU 0 instructions: 30000000 cycles: 8390904 heartbeat IPC: 3.57495 cumulative IPC: 3.5753 (Simulation time: 0 hr 4 min 58 sec) 
Heartbeat_Variant_0 : 1370 0.334473 per_variant_size: 0 1370 0 0 0 0 0 0 0 
Heartbeat_Variant_1 : 2615 0.638428 per_variant_size: 0 480 2135 0 0 0 0 0 0 
Heartbeat_Variant_2 : 0 0 per_variant_size: 0 0 0 0 0 0 0 0 0 
Heartbeat_Variant_3 : 0 0 per_variant_size: 0 0 0 0 0 0 0 0 0 
Heartbeat_Variant_0_evicts 0 : 5559 1 : 12 2 : 0 3 : 0 
Heartbeat_Variant_1_evicts 0 : 12 1 : 0 2 : 0 3 : 0 
Heartbeat_Variant_2_evicts 0 : 0 1 : 0 2 : 0 3 : 0 
Heartbeat_Variant_3_evicts 0 : 0 1 : 0 2 : 0 3 : 0 
Heartbeat CPU 0 instructions: 40000001 cycles: 11187420 heartbeat IPC: 3.57588 cumulative IPC: 3.57544 (Simulation time: 0 hr 6 min 35 sec) 
Heartbeat_Variant_0 : 1374 0.335449 per_variant_size: 0 1374 0 0 0 0 0 0 0 
Heartbeat_Variant_1 : 2693 0.657471 per_variant_size: 0 429 2264 0 0 0 0 0 0 
Heartbeat_Variant_2 : 0 0 per_variant_size: 0 0 0 0 0 0 0 0 0 
Heartbeat_Variant_3 : 0 0 per_variant_size: 0 0 0 0 0 0 0 0 0 
Heartbeat_Variant_0_evicts 0 : 6051 1 : 974 2 : 0 3 : 0 
Heartbeat_Variant_1_evicts 0 : 989 1 : 0 2 : 0 3 : 0 
Heartbeat_Variant_2_evicts 0 : 0 1 : 0 2 : 0 3 : 0 
Heartbeat_Variant_3_evicts 0 : 0 1 : 0 2 : 0 3 : 0 
Heartbeat CPU 0 instructions: 50000000 cycles: 13983243 heartbeat IPC: 3.57676 cumulative IPC: 3.57571 (Simulation time: 0 hr 8 min 11 sec) 

Warmup complete CPU 0 instructions: 50000004 cycles: 13983244 (Simulation time: 0 hr 8 min 11 sec) 

Cycle: 20000000 FTQ IN: 58192794 FTQ occupancy: 19.217 DECODE IN: 58192771 DECODE occupancy: 50.0978 ROB IN: 58192746 ROB occupancy: 307.01 ROB OUT: 58192478
Heartbeat_Variant_0 : 1377 0.336182 per_variant_size: 0 1377 0 0 0 0 0 0 0 
Heartbeat_Variant_1 : 2693 0.657471 per_variant_size: 0 437 2256 0 0 0 0 0 0 
Heartbeat_Variant_2 : 0 0 per_variant_size: 0 0 0 0 0 0 0 0 0 
Heartbeat_Variant_3 : 0 0 per_variant_size: 0 0 0 0 0 0 0 0 0 
Heartbeat_Variant_0_evicts 0 : 5652 1 : 129 2 : 0 3 : 0 
Heartbeat_Variant_1_evicts 0 : 127 1 : 0 2 : 0 3 : 0 
Heartbeat_Variant_2_evicts 0 : 0 1 : 0 2 : 0 3 : 0 
Heartbeat_Variant_3_evicts 0 : 0 1 : 0 2 : 0 3 : 0 
Heartbeat CPU 0 instructions: 60000000 cycles: 21321134 heartbeat IPC: 1.36279 cumulative IPC: 1.36279 (Simulation time: 0 hr 9 min 51 sec) 
Heartbeat_Variant_0 : 1374 0.335449 per_variant_size: 0 1374 0 0 0 0 0 0 0 
Heartbeat_Variant_1 : 2697 0.658447 per_variant_size: 0 445 2252 0 0 0 0 0 0 
Heartbeat_Variant_2 : 0 0 per_variant_size: 0 0 0 0 0 0 0 0 0 
Heartbeat_Variant_3 : 0 0 per_variant_size: 0 0 0 0 0 0 0 0 0 
Heartbeat_Variant_0_evicts 0 : 5649 1 : 130 2 : 0 3 : 0 
Heartbeat_Variant_1_evicts 0 : 133 1 : 0 2 : 0 3 : 0 
Heartbeat_Variant_2_evicts 0 : 0 1 : 0 2 : 0 3 : 0 
Heartbeat_Variant_3_evicts 0 : 0 1 : 0 2 : 0 3 : 0 
Heartbeat CPU 0 instructions: 70000001 cycles: 28701777 heartbeat IPC: 1.3549 cumulative IPC: 1.35883 (Simulation time: 0 hr 11 min 27 sec) 
Cycle: 30000000 FTQ IN: 13496468 FTQ occupancy: 10.5246 DECODE IN: 13496443 DECODE occupancy: 26.9717 ROB IN: 13496468 ROB occupancy: 209.231 ROB OUT: 13496714
Heartbeat_Variant_0 : 1378 0.336426 per_variant_size: 0 1378 0 0 0 0 0 0 0 
Heartbeat_Variant_1 : 2698 0.658691 per_variant_size: 0 460 2238 0 0 0 0 0 0 
Heartbeat_Variant_2 : 0 0 per_variant_size: 0 0 0 0 0 0 0 0 0 
Heartbeat_Variant_3 : 0 0 per_variant_size: 0 0 0 0 0 0 0 0 0 
Heartbeat_Variant_0_evicts 0 : 5867 1 : 412 2 : 0 3 : 0 
Heartbeat_Variant_1_evicts 0 : 408 1 : 0 2 : 0 3 : 0 
Heartbeat_Variant_2_evicts 0 : 0 1 : 0 2 : 0 3 : 0 
Heartbeat_Variant_3_evicts 0 : 0 1 : 0 2 : 0 3 : 0 
Heartbeat CPU 0 instructions: 80000003 cycles: 36077392 heartbeat IPC: 1.35582 cumulative IPC: 1.35783 (Simulation time: 0 hr 13 min 5 sec) 
Cycle: 40000000 FTQ IN: 13657533 FTQ occupancy: 10.3796 DECODE IN: 13657581 DECODE occupancy: 27.0279 ROB IN: 13657581 ROB occupancy: 211.97 ROB OUT: 13657598
Heartbeat_Variant_0 : 1379 0.33667 per_variant_size: 0 1379 0 0 0 0 0 0 0 
Heartbeat_Variant_1 : 2699 0.658936 per_variant_size: 0 434 2265 0 0 0 0 0 0 
Heartbeat_Variant_2 : 0 0 per_variant_size: 0 0 0 0 0 0 0 0 0 
Heartbeat_Variant_3 : 0 0 per_variant_size: 0 0 0 0 0 0 0 0 0 
Heartbeat_Variant_0_evicts 0 : 5532 1 : 129 2 : 0 3 : 0 
Heartbeat_Variant_1_evicts 0 : 128 1 : 0 2 : 0 3 : 0 
Heartbeat_Variant_2_evicts 0 : 0 1 : 0 2 : 0 3 : 0 
Heartbeat_Variant_3_evicts 0 : 0 1 : 0 2 : 0 3 : 0 
Heartbeat CPU 0 instructions: 90000002 cycles: 43483916 heartbeat IPC: 1.35016 cumulative IPC: 1.3559 (Simulation time: 0 hr 14 min 41 sec) 
Cycle: 50000000 FTQ IN: 13521615 FTQ occupancy: 10.5254 DECODE IN: 13521487 DECODE occupancy: 27.1002 ROB IN: 13521427 ROB occupancy: 209.526 ROB OUT: 13521080
Heartbeat_Variant_0 : 1379 0.33667 per_variant_size: 0 1379 0 0 0 0 0 0 0 
Heartbeat_Variant_1 : 2700 0.65918 per_variant_size: 0 448 2252 0 0 0 0 0 0 
Heartbeat_Variant_2 : 0 0 per_variant_size: 0 0 0 0 0 0 0 0 0 
Heartbeat_Variant_3 : 0 0 per_variant_size: 0 0 0 0 0 0 0 0 0 
Heartbeat_Variant_0_evicts 0 : 5811 1 : 350 2 : 0 3 : 0 
Heartbeat_Variant_1_evicts 0 : 350 1 : 0 2 : 0 3 : 0 
Heartbeat_Variant_2_evicts 0 : 0 1 : 0 2 : 0 3 : 0 
Heartbeat_Variant_3_evicts 0 : 0 1 : 0 2 : 0 3 : 0 
Heartbeat CPU 0 instructions: 100000001 cycles: 50825817 heartbeat IPC: 1.36204 cumulative IPC: 1.35713 (Simulation time: 0 hr 16 min 18 sec) 
Finished CPU 0 instructions: 50000000 cycles: 36842574 cumulative IPC: 1.35713 (Simulation time: 0 hr 16 min 18 sec) 

ChampSim completed all CPUs

Region of Interest Statistics

CPU 0 cumulative IPC: 1.35713 instructions: 50000000 cycles: 36842574
 Fetch stage stalled: 60.5169  Sim cycles: 36842574 fetch stall cycle: 22295972
 Empty decode stage: 49.5216  Sim cycles: 36842574 fetch stall cycle: 18245039
ITLB TOTAL     ACCESS:    5860768  HIT:    5366604  MISS:     494164  HIT %:    91.5683  MISS %:    8.43173   MPKI: 9.88328
ITLB LOAD TRANSLATION INSTRUCTION	ACCESS:    5738933  HIT:    5244769  MISS:     494164  HIT %:    91.3893  MISS %:    8.61073  MPKI: 9.88328
ITLB TRANSLATION FROM L1D PREFETCHER INSTRUCTION	ACCESS:     121835  HIT:     121835  MISS:          0  HIT %:        100  MISS %:          0  MPKI: 0

ITLB AVERAGE MISS LATENCY: 9.0558 cycles
ITLB RQ	ACCESS:    7997544	FORWARD:          0	MERGED:    1710307	TO_CACHE:    6287237

DTLB TOTAL     ACCESS:    9014824  HIT:    8540434  MISS:     474390  HIT %:    94.7377  MISS %:    5.26233   MPKI: 9.4878
DTLB LOAD TRANSLATION DATA	ACCESS:    9014824  HIT:    8540434  MISS:     474390  HIT %:    94.7377  MISS %:    5.26233  MPKI: 9.4878

DTLB AVERAGE MISS LATENCY: 9.30876 cycles
DTLB RQ	ACCESS:   13371388	FORWARD:          0	MERGED:    4319638	TO_CACHE:    9051750

STLB TOTAL     ACCESS:    1214691  HIT:    1212696  MISS:       1995  HIT %:    99.8358  MISS %:   0.164239   MPKI: 0.0399
STLB LOAD TRANSLATION INSTRUCTION	ACCESS:     494164  HIT:     493936  MISS:        228  HIT %:    99.9539  MISS %:  0.0461385  MPKI: 0.00456
STLB LOAD TRANSLATION DATA	ACCESS:     474384  HIT:     472650  MISS:       1734  HIT %:    99.6345  MISS %:   0.365527  MPKI: 0.03468
STLB TRANSLATION FROM L1D PREFETCHER DATA	ACCESS:     246143  HIT:     246110  MISS:         33  HIT %:    99.9866  MISS %:  0.0134068  MPKI: 0.00066

STLB AVERAGE MISS LATENCY: 71.0762 cycles
STLB RQ	ACCESS:    1335272	FORWARD:          0	MERGED:     120536	TO_CACHE:    1214736

STLB Hit, L1D data hit: 0
STLB Hit, L2C data hit: 0
STLB Hit, LLC data hit: 0
STLB Hit, LLC data miss: 0
STLB STLB hints to L2: 0
L1D TOTAL     ACCESS:   13123124  HIT:   12008919  MISS:    1114205  HIT %:    91.5096  MISS %:    8.49039   MPKI: 22.2841
L1D LOAD DATA	ACCESS:    6587078  HIT:    5851985  MISS:     735093  HIT %:    88.8404  MISS %:    11.1596  MPKI: 14.7019
L1D RFO DATA	ACCESS:    6210084  HIT:    5924815  MISS:     285269  HIT %:    95.4064  MISS %:    4.59364  MPKI: 5.70538
L1D PREFETCH DATA	ACCESS:     325962  HIT:     232119  MISS:      93843  HIT %:    71.2104  MISS %:    28.7896  MPKI: 1.87686

L1D PREFETCH  REQUESTED:     733762  ISSUED:     733762  USEFUL:      33328  USELESS:      68275
L1D USEFUL LOAD PREFETCHES:      33328 PREFETCH ISSUED TO LOWER LEVEL:     101646  ACCURACY: 32.7883
 TIMELY PREFETCHES:      33328 LATE PREFETCHES: 7738 DROPPED PREFETCHES: 12
L1D AVERAGE MISS LATENCY: 228275 cycles
L1D RQ	ACCESS:   10709390	FORWARD:          0	MERGED:    3927719	TO_CACHE:    6619919
L1D WQ	ACCESS:    6944847	FORWARD:     162078	MERGED:     193378	TO_CACHE:    6751469
L1D PQ	ACCESS:     367044	FORWARD:          0	MERGED:          0	TO_CACHE:     366718

L1D UNIQUE REGIONS ACCESSED: 0
L1D REGIONS CONFLICTS: 0
L1D Cross Page Prefetch Requests: 6887
L1D Same Page Prefetch Requests: 748072
L1D ROI Sum of L1D PQ occupancy: 4655361
L1D PREFETCHES PUSHED FROM L2C: 0
L1I TOTAL     ACCESS:    7216891  HIT:    4453975  MISS:    2762916  HIT %:     61.716  MISS %:     38.284   MPKI: 55.2583
L1I LOAD INSTRUCTION	ACCESS:    6553404  HIT:    3790488  MISS:    2762916  HIT %:      57.84  MISS %:      42.16  MPKI: 55.2583
L1I PREFETCH INSTRUCTION	ACCESS:     663487  HIT:     663487  MISS:          0  HIT %:        100  MISS %:          0  MPKI: 0

L1I PREFETCH  REQUESTED:    1577412  ISSUED:    1577412  USEFUL:          0  USELESS:          0
L1I USEFUL LOAD PREFETCHES:          0 PREFETCH ISSUED TO LOWER LEVEL:          0  ACCURACY: -nan
 TIMELY PREFETCHES:          0 LATE PREFETCHES: 0 DROPPED PREFETCHES: 0
L1I AVERAGE MISS LATENCY: 17.1304 cycles
L1I RQ	ACCESS:    9469953	FORWARD:          0	MERGED:    2617386	TO_CACHE:    6852567
L1I PQ	ACCESS:    1577412	FORWARD:          0	MERGED:     432435	TO_CACHE:    1144977

L1BTB TOTAL     ACCESS:    5670760  HIT:    2040852  MISS:    3629908  HIT %:     35.989  MISS %:     64.011   MPKI: 72.5982
L1BTB BRANCH_DIRECT_JUMP	ACCESS:     547203 HIT:     144342 MISS:     402861 AVERAGE STALL: 39.9027 AVERAGE FETCH STALL: 16.1469 AVERAGE FETCH QUEUE STALL: 9.16245 AVERAGE DECODE STALL: 13.6659 AVERAGE EXECUTE STALL: 2.22143e+15
L1BTB BRANCH_INDIRECT	ACCESS:     182550 HIT:      65772 MISS:     116778 AVERAGE STALL: 92.234 AVERAGE FETCH STALL: 10.7366 AVERAGE FETCH QUEUE STALL: 10.5142 AVERAGE DECODE STALL: 10.6763 AVERAGE EXECUTE STALL: 59.3447
L1BTB BRANCH_CONDITIONAL	ACCESS:    2702418 HIT:    1410271 MISS:    1292147 AVERAGE STALL: 53.6088 AVERAGE FETCH STALL: 22.78 AVERAGE FETCH QUEUE STALL: 16.3364 AVERAGE DECODE STALL: 13.8768 AVERAGE EXECUTE STALL: 2.42465e+15
L1BTB BRANCH_DIRECT_CALL	ACCESS:     946910 HIT:     106385 MISS:     840525 AVERAGE STALL: 56.4989 AVERAGE FETCH STALL: 28.7276 AVERAGE FETCH QUEUE STALL: 14.1599 AVERAGE DECODE STALL: 12.9161 AVERAGE EXECUTE STALL: 6.04613e+15
L1BTB BRANCH_INDIRECT_CALL	ACCESS:     172381 HIT:      21863 MISS:     150518 AVERAGE STALL: 117.276 AVERAGE FETCH STALL: 13.6254 AVERAGE FETCH QUEUE STALL: 8.63344 AVERAGE DECODE STALL: 8.24955 AVERAGE EXECUTE STALL: 86.2724
L1BTB BRANCH_RETURN	ACCESS:    1119298 HIT:     292219 MISS:     827079 AVERAGE STALL: 40.8776 AVERAGE FETCH STALL: 16.0055 AVERAGE FETCH QUEUE STALL: 3.5006 AVERAGE DECODE STALL: 5.20088 AVERAGE EXECUTE STALL: 4.26317e+14
L1BTB BRANCH_OTHER ACCESS:          0 HIT:          0 MISS:          0 AVERAGE STALL: -nan AVERAGE FETCH STALL: -nan AVERAGE FETCH QUEUE STALL: -nan AVERAGE DECODE STALL: -nan AVERAGE EXECUTE STALL: -nan
L1BTB TOTAL ROB OCCUPANCY AT BTB MISS: 2.4893

L2BTB TOTAL     ACCESS:    3604554  HIT:    3534523  MISS:      70031  HIT %:    98.0572  MISS %:    1.94285   MPKI: 1.40062
L2BTB BRANCH_DIRECT_JUMP	ACCESS:     398717 HIT:     394553 MISS:       4164 AVERAGE STALL: 39.9027 AVERAGE FETCH STALL: 16.1469 AVERAGE FETCH QUEUE STALL: 9.16245 AVERAGE DECODE STALL: 13.6659 AVERAGE EXECUTE STALL: 2.22143e+15
L2BTB BRANCH_INDIRECT	ACCESS:     106498 HIT:     103742 MISS:       2756 AVERAGE STALL: 92.234 AVERAGE FETCH STALL: 10.7366 AVERAGE FETCH QUEUE STALL: 10.5142 AVERAGE DECODE STALL: 10.6763 AVERAGE EXECUTE STALL: 59.3447
L2BTB BRANCH_CONDITIONAL	ACCESS:    1292147 HIT:    1284462 MISS:       7685 AVERAGE STALL: 53.6088 AVERAGE FETCH STALL: 22.78 AVERAGE FETCH QUEUE STALL: 16.3364 AVERAGE DECODE STALL: 13.8768 AVERAGE EXECUTE STALL: 2.42465e+15
L2BTB BRANCH_DIRECT_CALL	ACCESS:     840525 HIT:     837444 MISS:       3081 AVERAGE STALL: 56.4989 AVERAGE FETCH STALL: 28.7276 AVERAGE FETCH QUEUE STALL: 14.1599 AVERAGE DECODE STALL: 12.9161 AVERAGE EXECUTE STALL: 6.04613e+15
L2BTB BRANCH_INDIRECT_CALL	ACCESS:     140992 HIT:     130545 MISS:      10447 AVERAGE STALL: 117.276 AVERAGE FETCH STALL: 13.6254 AVERAGE FETCH QUEUE STALL: 8.63344 AVERAGE DECODE STALL: 8.24955 AVERAGE EXECUTE STALL: 86.2724
L2BTB BRANCH_RETURN	ACCESS:     825675 HIT:     783777 MISS:      41898 AVERAGE STALL: 40.8776 AVERAGE FETCH STALL: 16.0055 AVERAGE FETCH QUEUE STALL: 3.5006 AVERAGE DECODE STALL: 5.20088 AVERAGE EXECUTE STALL: 4.26317e+14
L2BTB BRANCH_OTHER ACCESS:          0 HIT:          0 MISS:          0 AVERAGE STALL: -nan AVERAGE FETCH STALL: -nan AVERAGE FETCH QUEUE STALL: -nan AVERAGE DECODE STALL: -nan AVERAGE EXECUTE STALL: -nan
L2BTB TOTAL ROB OCCUPANCY AT BTB MISS: 129.028

L2C TOTAL     ACCESS:    4485807  HIT:    4014688  MISS:     471119  HIT %:    89.4976  MISS %:    10.5024   MPKI: 9.42238
L2C LOAD INSTRUCTION	ACCESS:    2762916  HIT:    2506142  MISS:     256774  HIT %:    90.7064  MISS %:    9.29359  MPKI: 5.13548
L2C LOAD TRANSLATION INSTRUCTION	ACCESS:        251  HIT:         54  MISS:        197  HIT %:    21.5139  MISS %:    78.4861  MPKI: 0.00394
L2C LOAD DATA	ACCESS:     727340  HIT:     646417  MISS:      80923  HIT %:    88.8741  MISS %:    11.1259  MPKI: 1.61846
L2C RFO DATA	ACCESS:     285184  HIT:     239977  MISS:      45207  HIT %:    84.1481  MISS %:    15.8519  MPKI: 0.90414
L2C PREFETCH DATA	ACCESS:     188036  HIT:     115719  MISS:      72317  HIT %:    61.5409  MISS %:    38.4591  MPKI: 1.44634
L2C WRITEBACK DATA	ACCESS:     520235  HIT:     505820  MISS:      14415  HIT %:    97.2291  MISS %:    2.77086  MPKI: 0.2883
L2C LOAD TRANSLATION DATA	ACCESS:       1782  HIT:        514  MISS:       1268  HIT %:     28.844  MISS %:     71.156  MPKI: 0.02536
L2C TRANSLATION FROM L1D PREFETCHER DATA	ACCESS:         63  HIT:         45  MISS:         18  HIT %:    71.4286  MISS %:    28.5714  MPKI: 0.00036

L2C PREFETCH  REQUESTED:      94568  ISSUED:      94568  USEFUL:       8077  USELESS:      64844
L2C USEFUL LOAD PREFETCHES:       8077 PREFETCH ISSUED TO LOWER LEVEL:      72858  ACCURACY: 11.0859
 TIMELY PREFETCHES:       8077 LATE PREFETCHES: 541 DROPPED PREFETCHES: 0
L2C AVERAGE MISS LATENCY: 38.1515 cycles
L2C RQ	ACCESS:    3777571	FORWARD:          0	MERGED:          0	TO_CACHE:    3777536
L2C WQ	ACCESS:     520235	FORWARD:         35	MERGED:          0	TO_CACHE:     520235
L2C PQ	ACCESS:     196214	FORWARD:          0	MERGED:       3676	TO_CACHE:     192538

L2C Dense regions hint from L2: 0
PSCL5 TOTAL     ACCESS:       4024  HIT:       2012  MISS:       2012  HIT %:         50  MISS %:         50   MPKI: 0.04024
PSCL5 LOAD TRANSLATION INSTRUCTION	ACCESS:       3900  HIT:       1950  MISS:       1950  HIT %:         50  MISS %:         50  MPKI: 0.039
PSCL5 TRANSLATION FROM L1D PREFETCHER INSTRUCTION	ACCESS:        124  HIT:         62  MISS:         62  HIT %:         50  MISS %:         50  MPKI: 0.00124


PSCL4 TOTAL     ACCESS:       3917  HIT:       1955  MISS:       1962  HIT %:    49.9106  MISS %:    50.0894   MPKI: 0.03924
PSCL4 LOAD TRANSLATION INSTRUCTION	ACCESS:       2560  HIT:       1893  MISS:        667  HIT %:    73.9453  MISS %:    26.0547  MPKI: 0.01334
PSCL4 TRANSLATION FROM L1D PREFETCHER INSTRUCTION	ACCESS:         85  HIT:         62  MISS:         23  HIT %:    72.9412  MISS %:    27.0588  MPKI: 0.00046
PSCL4 LOAD TRANSLATION DATA	ACCESS:       1233  HIT:          0  MISS:       1233  HIT %:          0  MISS %:        100  MPKI: 0.02466
PSCL4 TRANSLATION FROM L1D PREFETCHER DATA	ACCESS:         39  HIT:          0  MISS:         39  HIT %:          0  MISS %:        100  MPKI: 0.00078


PSCL3 TOTAL     ACCESS:       3993  HIT:       1993  MISS:       2000  HIT %:    49.9123  MISS %:    50.0877   MPKI: 0.04
PSCL3 LOAD TRANSLATION INSTRUCTION	ACCESS:       2598  HIT:       1931  MISS:        667  HIT %:    74.3264  MISS %:    25.6736  MPKI: 0.01334
PSCL3 TRANSLATION FROM L1D PREFETCHER INSTRUCTION	ACCESS:         85  HIT:         62  MISS:         23  HIT %:    72.9412  MISS %:    27.0588  MPKI: 0.00046
PSCL3 LOAD TRANSLATION DATA	ACCESS:       1271  HIT:          0  MISS:       1271  HIT %:          0  MISS %:        100  MPKI: 0.02542
PSCL3 TRANSLATION FROM L1D PREFETCHER DATA	ACCESS:         39  HIT:          0  MISS:         39  HIT %:          0  MISS %:        100  MPKI: 0.00078


PSCL2 TOTAL     ACCESS:       3954  HIT:       1942  MISS:       2012  HIT %:    49.1148  MISS %:    50.8852   MPKI: 0.04024
PSCL2 LOAD TRANSLATION INSTRUCTION	ACCESS:       2109  HIT:       1881  MISS:        228  HIT %:    89.1892  MISS %:    10.8108  MPKI: 0.00456
PSCL2 TRANSLATION FROM L1D PREFETCHER INSTRUCTION	ACCESS:         61  HIT:         61  MISS:          0  HIT %:        100  MISS %:          0  MPKI: 0
PSCL2 LOAD TRANSLATION DATA	ACCESS:       1723  HIT:          0  MISS:       1723  HIT %:          0  MISS %:        100  MPKI: 0.03446
PSCL2 TRANSLATION FROM L1D PREFETCHER DATA	ACCESS:         61  HIT:          0  MISS:         61  HIT %:          0  MISS %:        100  MPKI: 0.00122


LLC TOTAL     ACCESS:     525320  HIT:     497825  MISS:      27495  HIT %:     94.766  MISS %:    5.23395   MPKI: 0.5499
LLC LOAD INSTRUCTION	ACCESS:     256774  HIT:     256034  MISS:        740  HIT %:    99.7118  MISS %:   0.288191  MPKI: 0.0148
LLC LOAD TRANSLATION INSTRUCTION	ACCESS:        197  HIT:        159  MISS:         38  HIT %:    80.7107  MISS %:    19.2893  MPKI: 0.00076
LLC LOAD DATA	ACCESS:      80414  HIT:      77006  MISS:       3408  HIT %:    95.7619  MISS %:    4.23807  MPKI: 0.06816
LLC RFO DATA	ACCESS:      45166  HIT:      32021  MISS:      13145  HIT %:    70.8962  MISS %:    29.1038  MPKI: 0.2629
LLC PREFETCH DATA	ACCESS:      72858  HIT:      63118  MISS:       9740  HIT %:    86.6315  MISS %:    13.3685  MPKI: 0.1948
LLC WRITEBACK DATA	ACCESS:      68625  HIT:      68263  MISS:        362  HIT %:    99.4725  MISS %:   0.527505  MPKI: 0.00724
LLC LOAD TRANSLATION DATA	ACCESS:       1268  HIT:       1206  MISS:         62  HIT %:    95.1104  MISS %:    4.88959  MPKI: 0.00124
LLC TRANSLATION FROM L1D PREFETCHER DATA	ACCESS:         18  HIT:         18  MISS:          0  HIT %:        100  MISS %:          0  MPKI: 0

LLC AVERAGE MISS LATENCY: 153.924 cycles
LLC RQ	ACCESS:     383846	FORWARD:          0	MERGED:          0	TO_CACHE:     383837
LLC WQ	ACCESS:      68625	FORWARD:          9	MERGED:          0	TO_CACHE:      68625
LLC PQ	ACCESS:      72858	FORWARD:          0	MERGED:          0	TO_CACHE:      72858

LLC Dense regions hint to LLC: 0

RAW hits: 1920062
Loads Generated: 12629451
Loads sent to L1D: 10709390
Stores Generated: 6944835
Stores sent to L1D: 6944847
Major fault: 0 Minor fault: 2650
Allocated PAGES: 2650

stream: 
stream:times selected: 1184905
stream:pref_filled: 121492
stream:pref_useful: 23924
stream:pref_late: 6951
stream:misses: 7941
stream:misses_by_poll: 0

CS: 
CS:times selected: 177289
CS:pref_filled: 60489
CS:pref_useful: 37173
CS:pref_late: 6692
CS:misses: 16261
CS:misses_by_poll: 2

CPLX: 
CPLX:times selected: 1006418
CPLX:pref_filled: 19644
CPLX:pref_useful: 4558
CPLX:pref_late: 3183
CPLX:misses: 93283
CPLX:misses_by_poll: 0

NL_L1: 
NL:times selected: 20878
NL:pref_filled: 703
NL:pref_useful: 336
NL:pref_late: 303
NL:misses: 1746
NL:misses_by_poll: 0

total selections: 2389490
total_filled: 93843
total_useful: 33328
total_late: 18728
total_polluted: 2
total_misses_after_warmup: 767935
conflicts: 5534998

test: 116055

DRAM Statistics
 CHANNEL 0
 RQ ROW_BUFFER_HIT:      10151  ROW_BUFFER_MISS:      16972
 DBUS_CONGESTED:          9
 WQ ROW_BUFFER_HIT:       1294  ROW_BUFFER_MISS:      11852  FULL:          0

 AVG_CONGESTED_CYCLE: 7

CPU 0 Branch Prediction Accuracy: 99.822% MPKI: 0.3256 Average ROB Occupancy at Mispredict: 174.738
Branch types
NOT_BRANCH: 40852687 81.7054%
BRANCH_DIRECT_JUMP: 547203 1.09441%
BRANCH_INDIRECT: 182550 0.3651%
BRANCH_CONDITIONAL: 6178980 12.358%
BRANCH_DIRECT_CALL: 946910 1.89382%
BRANCH_INDIRECT_CALL: 172381 0.344762%
BRANCH_RETURN: 1119298 2.2386%
BRANCH_OTHER: 0 0%

DRAM PAGES: 1048576
Allocated PAGES: 2650
Average_ROB_Occupancy: 211.42
Average_Decode_Occupancy: 27.0115
Average_FTQ_Occupancy: 10.4647
Indirect max targets: 14 Average targets: 1.18125
Branch_type:  BRANCH_DIRECT_JUMP:  Count Percentage: 3.81156 5.29529 4.21399 6.94864 3.49057 2.5443 2.26795 71.4277 
Branch_type:  BRANCH_INDIRECT:  Count Percentage: 11.7744 3.42163 2.54065 9.68396 3.34478 2.80842 1.73817 64.688 
Branch_type:  BRANCH_CONDITIONAL:  Count Percentage: 21.3703 2.92026 2.29738 4.11465 2.50992 2.37156 2.77644 61.6395 
Branch_type:  BRANCH_DIRECT_CALL:  Count Percentage: 0.389486 1.77128 0.73765 3.56831 3.61631 2.05884 4.09755 83.7606 
Branch_type:  BRANCH_INDIRECT_CALL:  Count Percentage: 9.54764 0 2.99262 5.27322 1.05622 2.03287 3.85007 75.2474 
Branch_type:  BRANCH_RETURN:  Count Percentage: 3.94402 1.99213 2.35568 4.14679 4.54676 3.28298 3.69985 76.0318 
Branch_type:  BRANCH_DIRECT_JUMP:  Total Count: 41750 58002 46158 76112 38234 27869 24842 782384 
Branch_type:  BRANCH_INDIRECT:  Total Count: 43049 12510 9289 35406 12229 10268 6355 236509 
Branch_type:  BRANCH_CONDITIONAL:  Total Count: 2640359 360806 283847 508375 310107 293012 343036 7615710 
Branch_type:  BRANCH_DIRECT_CALL:  Total Count: 7352 33435 13924 67356 68262 38863 77346 1581079 
Branch_type:  BRANCH_INDIRECT_CALL:  Total Count: 32759 0 10268 18093 3624 6975 13210 258182 
Branch_type:  BRANCH_RETURN:  Total Count: 88016 44457 52570 92541 101467 73264 82567 1696750 
Number of unique branch instructions: 11078
Upper 32 bits: 
aaaa
ffff
ffff0000
Unique upper 32 bits: 3
Unique upper 36 bits: 3
Unique upper 40 bits: 5
Unique upper 44 bits: 32
Unique upper 48 bits: 160
Variant_0 : 1379 0.33667
Variant_1 : 2700 0.65918
Variant_2 : 0 0
Variant_3 : 0 0
Offset_3 4579
Offset_4 273
Offset_5 501
Offset_6 558
Offset_7 652
Offset_8 593
Offset_9 537
Offset_10 446
Offset_11 360
Offset_12 336
Offset_13 241
Offset_14 248
Offset_15 201
Offset_16 233
Offset_17 176
Offset_18 154
Offset_19 264
Offset_20 149
Offset_21 261
Offset_22 417
Offset_23 241
Offset_24 361
Offset_25 117
Offset_47 96
Offset_64 1
decode_dispatch_called: 23510119 63.8124
Dispatch_width: 0 12313796 52.3766 33.4227
Dispatch_width: 1 823284 3.50183 2.2346
Dispatch_width: 2 765571 3.25635 2.07795
Dispatch_width: 3 480903 2.04551 1.30529
Dispatch_width: 4 4169414 17.7346 11.3168
Dispatch_width: 5 217697 0.925971 0.590884
Dispatch_width: 6 4739454 20.1592 12.8641
Empty_decode_cycles: 13332455 36.1876
ROB_full_cycles: 6485668 17.6037
Starvation_cycles_per_kilo_instr: 256.175
Starvation_cycles_per_kilo_instr_3: 212.303
Starvation_cycles_per_kilo_instr_0: 191.606
Branch_type_1  (3,1)  (4,10)  (5,41)  (6,77)  (7,126)  (8,152)  (9,141)  (10,114)  (11,80)  (12,55)  (13,11)  (14,2)  (15,3)  (16,4)  (18,1)  (19,5)  (20,2)  (21,1)  (22,3)  (23,2)  (24,10)  (25,12) 
Branch_type_2  (3,1)  (4,1)  (5,1)  (8,4)  (9,4)  (10,1)  (12,1)  (13,1)  (14,1)  (16,3)  (17,2)  (20,2)  (21,2)  (23,5)  (24,1)  (47,43) 
Branch_type_3  (3,4577)  (4,262)  (5,455)  (6,464)  (7,493)  (8,370)  (9,294)  (10,182)  (11,141)  (12,62)  (13,10)  (64,1) 
Branch_type_4  (6,4)  (7,8)  (8,26)  (9,59)  (10,70)  (11,72)  (12,122)  (13,103)  (14,113)  (15,96)  (16,103)  (17,85)  (18,67)  (19,126)  (20,75)  (21,141)  (22,222)  (23,136)  (24,208)  (25,101) 
Branch_type_5  (8,3)  (9,1)  (10,4)  (11,5)  (12,3)  (13,14)  (14,16)  (15,11)  (16,22)  (17,11)  (18,23)  (19,15)  (20,12)  (21,13)  (22,43)  (23,26)  (24,42) 
Branch_type_6  (5,4)  (6,13)  (7,25)  (8,38)  (9,38)  (10,75)  (11,62)  (12,93)  (13,102)  (14,116)  (15,91)  (16,101)  (17,78)  (18,63)  (19,118)  (20,58)  (21,104)  (22,149)  (23,72)  (24,100)  (25,4)  (47,53) 
Unique trigger count: 
Variant_0_evicts_0 : 0
Variant_0_evicts_1 : 0
Variant_0_evicts_2 : 0
Variant_0_evicts_3 : 0
Variant_1_evicts_0 : 0
Variant_1_evicts_1 : 0
Variant_1_evicts_2 : 0
Variant_1_evicts_3 : 0
Variant_2_evicts_0 : 0
Variant_2_evicts_1 : 0
Variant_2_evicts_2 : 0
Variant_2_evicts_3 : 0
Variant_3_evicts_0 : 0
Variant_3_evicts_1 : 0
Variant_3_evicts_2 : 0
Variant_3_evicts_3 : 0
BTB PER SET UNIQUE ADDR: 12 14 6 16 15 11 8 11 10 15 10 12 12 14 10 10 12 12 12 15 11 11 13 17 11 17 13 14 13 11 13 15 17 12 11 12 11 14 11 10 15 14 15 19 16 12 12 13 10 14 16 10 12 16 11 8 10 10 13 18 16 18 10 14 14 14 11 10 18 11 9 14 17 10 12 9 10 14 11 16 17 12 12 17 11 15 19 13 15 24 12 11 17 13 11 15 12 10 16 13 18 19 15 15 12 16 12 17 8 11 10 21 15 14 13 8 12 12 11 14 15 9 13 14 13 17 7 18 15 13 7 13 13 17 13 15 12 17 12 17 12 18 17 13 14 14 18 13 11 17 10 15 8 15 10 14 14 11 12 10 14 13 14 13 12 18 16 10 11 9 11 14 13 19 15 15 13 14 16 14 12 11 12 14 14 16 7 16 16 8 15 12 13 11 16 12 10 11 12 13 16 15 11 13 8 10 12 16 10 17 10 19 6 13 11 17 16 14 14 18 8 17 9 15 10 16 14 15 11 13 11 6 14 13 12 13 15 10 11 11 12 17 16 18 12 9 11 15 15 15 12 18 12 10 11 16 11 8 15 13 13 12 10 10 11 7 8 11 12 10 13 16 9 5 8 12 12 15 14 14 12 14 12 13 16 10 15 12 15 13 12 11 12 14 8 10 12 12 11 13 10 11 11 19 13 20 11 11 15 18 10 19 8 18 15 11 19 16 14 15 9 18 10 13 14 13 16 10 16 9 15 15 10 15 7 20 9 11 9 22 14 14 9 17 15 18 12 18 11 15 12 12 15 18 11 13 14 13 9 14 9 15 9 21 9 16 9 14 17 14 14 9 13 17 8 14 14 14 15 16 14 10 8 11 10 14 10 12 17 13 12 11 15 14 10 10 12 12 21 13 10 15 15 17 17 16 14 14 14 9 16 12 12 16 13 16 13 17 26 19 16 13 13 18 17 10 16 14 15 9 17 15 11 11 16 15 13 12 11 15 14 11 11 19 20 10 13 14 15 11 13 19 17 12 14 18 19 14 11 17 12 9 15 15 19 13 16 12 10 17 16 15 13 12 13 23 14 13 9 15 18 17 8 16 8 19 17 16 14 15 11 14 11 13 14 13 14 12 11 14 14 12 16 21 14 13 7 14 15 11 11 20 16 12 13 18 12 16 11 11 13 11 13 12 16 17 14 10 10 13 16 16 16 9 18 14 13 18 17 13 13 12 10 15 16 10 10 13 14 12 12 21 13 14 7 17 10 16 13 14 9 15 15 13 14 20 16 12 11 17 12 14 19 16 11 13 14 14 10 16 12 13 14 13 14 10 12 11 15 13 10 18 12 11 13 8 11 17 12 10 13 11 13 9 9 16 16 11 10 13 17 17 8 13 8 21 13 16 12 17 18 12 11 11 10 13 11 18 12 11 15 14 10 11 12 16 11 16 11 17 12 18 18 21 14 14 13 15 20 15 13 20 9 12 15 13 13 14 13 16 13 10 15 22 12 10 12 14 11 13 11 14 15 12 18 10 14 16 17 14 11 15 13 17 13 15 12 11 12 14 15 11 13 7 11 13 14 11 9 16 13 15 7 17 9 18 14 14 12 10 12 12 13 10 11 12 15 14 8 17 10 13 17 10 10 13 15 14 10 13 19 12 13 11 10 15 13 12 18 14 10 12 12 18 14 16 13 11 13 12 15 15 12 12 14 11 16 14 7 11 14 8 13 18 17 15 7 14 11 16 13 17 13 11 16 11 14 12 12 14 14 15 20 12 14 14 10 13 10 8 11 9 19 8 12 14 12 12 20 14 19 14 17 18 19 14 17 12 17 10 12 20 16 17 18 21 19 18 6 17 15 16 11 14 15 13 12 15 12 17 12 12 19 12 9 14 13 14 10 11 14 14 17 17 12 15 17 17 11 16 12 17 10 12 14 16 18 16 15 16 15 10 12 10 19 11 10 13 18 11 15 19 16 14 19 9 15 11 12 12 13 6 10 13 13 14 14 12 17 13 19 13 11 9 10 14 21 15 13 12 14 9 14 14 9 18 14 14 12 15 12 16 9 14 12 16 20 12 12 13 15 18 13 16 15 10 9 9 13 13 13 15 12 6 15 15 12 13 17 15 12 16 14 14 9 11 12 15 11 12 16 14 10 14 8 13 13 14 14 14 8 12 15 15 14 14 11 13 9 14 14 18 16 11 15 9 17 19 16 19 16 12 15 15 9 19 21 13 15 11 16 15 13 14 11 11 9 16 16 18 16 13 13 15 16 13 10 17 13 15 15 15 15 12 8 13 5 7 8 9 11 19 15 14 
BTB PER SET COUNT: 996 20 1474 22 24 17 12 49 57 16 14 255 31 18 13 12 1940 12 435 24 22 14 132 162 23 26 15 176 20 795 14 231 29 23 15 321 23 24 17 16 19 25 18 61 357 28 19 14 54 461 32 15 20 23 12 367 12 13 355 23 20 25 119 20 22 287 11 816 27 12 13 20 32 14 18 12 11 18 20 21 677 14 505 26 15 41 29 19 448 70 500 601 22 482 16 15 538 437 22 19 28 395 17 149 2797 35 16 22 476 962 13 49 896 18 15 9 13 21 745 18 621 11 14 18 15 67 11 966 26 973 8 15 312 21 255 27 991 32 14 26 20 25 31 18 30 416 407 75 13 120 11 19 565 22 12 24 1130 12 18 12 21 388 33 19 90 39 23 11 14 1679 11 18 21 39 24 1131 15 20 209 131 302 174 292 28 23 28 9 24 269 365 18 12 17 17 20 15 19 395 14 17 28 27 14 15 9 12 15 128 12 1862 14 31 8 9928 25 216 22 23 1863 26 9 28 9 25 12 26 15 179 15 15 12 6 23 19 282 5517 38 500 17 13 15 29 27 130 16 13 1469 21 19 28 18 32 14 11 19 23 111 9 21 21 436 22 17 503 11 8 10 18 14 10 20 274 10 6 893 16 16 18 19 20 17 30 20 291 24 16 18 16 20 17 14 14 13 24 13 12 13 16 13 107 10 13 17 28 17 34 43 47 27 228 12 30 12 25 2196 578 27 31 15 29 12 3425 12 16 16 945 446 13 23 12 23 26 15 22 7 58 11 15 10 36 24 20 9 149 24 37 12 35 15 21 13 16 25 28 12 17 19 19 154 27 12 23 13 34 11 989 12 16 26 20 24 268 19 497 983 287 24 21 21 724 25 11 8 13 12 20 315 19 29 909 161 18 19 18 11 12 17 18 628 23 17 23 480 28 29 17 19 352 17 17 22 15 16 25 20 23 21 77 116 27 20 17 31 25 32 16 1203 17 20 9 54 24 13 13 25 37 21 27 14 17 399 20 16 25 603 10 692 18 18 12 714 29 32 18 25 1391 36 23 12 21 44 9 24 85 31 159 3684 18 19 31 21 23 14 21 15 39 23 23 12 22 35 314 10 27 11 35 538 31 24 33 475 19 85 18 19 17 1484 997 26 22 23 18 27 41 19 17 9 15 18 15 11 27 35 500 20 42 15 37 16 18 16 20 18 343 26 34 49 12 16 1730 46 24 111 12 27 27 1470 433 18 20 21 16 14 20 23 142 11 15 22 1000 16 31 223 27 12 23 15 21 22 19 13 90 16 17 21 41 21 16 15 25 644 18 39 26 1004 20 37 196 12 20 14 20 23 2007 15 16 17 20 19 21 1464 29 17 13 20 9 850 386 13 12 22 16 17 9 13 36 22 2457 13 15 25 36 10 21 9 32 16 24 17 206 21 18 12 471 11 18 17 523 1145 21 17 25 972 12 14 32 15 18 13 20 17 28 26 30 31 17 153 24 32 20 18 28 12 13 18 447 19 20 17 241 21 13 23 36 14995 16 16 993 1712 22 17 21 446 18 98 14 18 21 25 18 16 22 63 41 22 23 17 13 401 24 25 21 22 8 2465 18 478 24 16 27 16 31 7 31 12 233 21 23 44 16 302 17 1001 16 11 15 19 20 20 670 12 414 26 310 11 16 27 18 13 1181 262 1580 16 16 15 1890 17 18 33 20 10 16 503 29 335 20 325 14 17 16 1066 16 22 371 1487 13 32 495 8 12 19 11 15 168 45 33 7 23 15 97 16 178 25 11 20 18 20 865 20 28 1102 17 29 17 18 20 12 15 10 9 430 527 26 10 773 20 226 22 41 1273 34 18 544 49 47 17 23 18 30 34 17 7860 28 27 32 420 59 2577 8 2722 24 1128 15 23 606 38 21 20 20 362 19 25 32 19 11 1977 21 24 988 12 22 40 23 30 14 27 117 27 18 30 435 250 10 17 23 18 22 25 38 19 230 1477 18 12 36 11 10 17 31 12 696 46 18 19 24 10 17 14 43 18 19 6 55 25 17 20 22 17 26 19 26 17 1941 9 13 20 39 22 313 18 29 13 21 19 10 27 25 19 13 27 18 547 14 20 18 26 783 532 21 64 21 1005 258 24 23 13 15 11 28 40 23 20 18 6 22 2904 14 22 689 28 18 1315 28 22 11 61 17 28 21 14 147 28 15 26 8 19 20 18 145 16 494 18 609 23 18 21 17 15 10 25 42 696 25 19 665 12 22 28 28 28 892 22 1036 23 12 38 111 26 21 13 27 967 18 263 16 11 9 1488 40 1723 23 293 22 27 24 18 14 29 13 574 85 634 26 19 8 19 5 111 9 12 11 857 19 17 
To predecode: 0
Predecoding something: 0
Predecode request dropped: 0
sizeofblock_0 0
sizeofblock_1 51202
sizeofblock_2 91990
sizeofblock_3 0
sizeofblock_4 0
sizeofblock_5 0
sizeofblock_6 0
sizeofblock_7 0
sizeofblock_8 0
Variant_0 Correct: 1610241 Incorrect: 0 Accuracy: 1
Variant_1 Correct: 5726341 Incorrect: 0 Accuracy: 1
Variant_2 Correct: 0 Incorrect: 0 Accuracy: -nan
Variant_3 Correct: 0 Incorrect: 0 Accuracy: -nan
