
*** ChampSim Multicore Out-of-Order Simulator ***

Warmup Instructions: 50000000
Simulation Instructions: 50000000
Number of CPUs: 1
LLC sets: 2048
LLC ways: 16
Off-chip DRAM Size: 4096 MB Channels: 1 Width: 64-bit Data Rate: 6400 MT/s
CPU 0 runs ./micro_traces/srv231.trace.gz
.gz
ITLB has LRU replacement policy
DTLB has LRU replacement policy
STLB has LRU replacement policy
FDIP Prefetcher at L1I
L1I has LRU replacement policy
L1D has LRU replacement policy
Initialize SRRIP state for L2C
Initialize DRRIP state for LLC
Heartbeat CPU 0 instructions: 10000001 cycles: 2797769 heartbeat IPC: 3.57428 cumulative IPC: 3.57428 (Simulation time: 0 hr 1 min 40 sec) 
Heartbeat CPU 0 instructions: 20000003 cycles: 5595026 heartbeat IPC: 3.57493 cumulative IPC: 3.5746 (Simulation time: 0 hr 3 min 17 sec) 
Heartbeat CPU 0 instructions: 30000003 cycles: 8391234 heartbeat IPC: 3.57627 cumulative IPC: 3.57516 (Simulation time: 0 hr 4 min 56 sec) 
Heartbeat CPU 0 instructions: 40000003 cycles: 11187755 heartbeat IPC: 3.57587 cumulative IPC: 3.57534 (Simulation time: 0 hr 6 min 31 sec) 
Heartbeat CPU 0 instructions: 50000002 cycles: 13984576 heartbeat IPC: 3.57549 cumulative IPC: 3.57537 (Simulation time: 0 hr 8 min 8 sec) 

Warmup complete CPU 0 instructions: 50000002 cycles: 13984576 (Simulation time: 0 hr 8 min 8 sec) 

Cycle: 20000000 FTQ IN: 56295360 FTQ occupancy: 17.6107 DECODE IN: 56295360 DECODE occupancy: 44.9275 ROB IN: 56295360 ROB occupancy: 270.474 ROB OUT: 56295358
Heartbeat CPU 0 instructions: 60000001 cycles: 23612606 heartbeat IPC: 1.03863 cumulative IPC: 1.03863 (Simulation time: 0 hr 9 min 25 sec) 
Cycle: 30000000 FTQ IN: 10402592 FTQ occupancy: 5.42287 DECODE IN: 10402537 DECODE occupancy: 10.5192 ROB IN: 10402537 ROB occupancy: 91.8574 ROB OUT: 10402523
Heartbeat CPU 0 instructions: 70000001 cycles: 33169119 heartbeat IPC: 1.04641 cumulative IPC: 1.04251 (Simulation time: 0 hr 10 min 42 sec) 
Cycle: 40000000 FTQ IN: 10479218 FTQ occupancy: 5.20412 DECODE IN: 10479267 DECODE occupancy: 10.1001 ROB IN: 10479257 ROB occupancy: 90.2828 ROB OUT: 10479184
Heartbeat CPU 0 instructions: 80000002 cycles: 42771466 heartbeat IPC: 1.04141 cumulative IPC: 1.04214 (Simulation time: 0 hr 11 min 57 sec) 
Cycle: 50000000 FTQ IN: 10416824 FTQ occupancy: 5.46583 DECODE IN: 10416827 DECODE occupancy: 10.6219 ROB IN: 10416826 ROB occupancy: 93.0462 ROB OUT: 10416899
Heartbeat CPU 0 instructions: 90000000 cycles: 52287309 heartbeat IPC: 1.05088 cumulative IPC: 1.04431 (Simulation time: 0 hr 13 min 14 sec) 
Cycle: 60000000 FTQ IN: 10508967 FTQ occupancy: 5.21865 DECODE IN: 10508963 DECODE occupancy: 10.1178 ROB IN: 10508966 ROB occupancy: 90.4306 ROB OUT: 10508884
Heartbeat CPU 0 instructions: 100000003 cycles: 61874378 heartbeat IPC: 1.04307 cumulative IPC: 1.04406 (Simulation time: 0 hr 14 min 32 sec) 
Finished CPU 0 instructions: 50000001 cycles: 47889802 cumulative IPC: 1.04406 (Simulation time: 0 hr 14 min 32 sec) 

ChampSim completed all CPUs

Region of Interest Statistics

CPU 0 cumulative IPC: 1.04406 instructions: 50000001 cycles: 47889802
 Fetch stage stalled: 74.3237  Sim cycles: 47889802 fetch stall cycle: 35593466
 Empty decode stage: 80.7969  Sim cycles: 47889802 fetch stall cycle: 38693459
ITLB TOTAL     ACCESS:    6043483  HIT:    5550493  MISS:     492990  HIT %:    91.8426  MISS %:    8.15738   MPKI: 9.8598
ITLB LOAD TRANSLATION INSTRUCTION	ACCESS:    5959529  HIT:    5466539  MISS:     492990  HIT %:    91.7277  MISS %:     8.2723  MPKI: 9.8598
ITLB TRANSLATION FROM L1D PREFETCHER INSTRUCTION	ACCESS:      83954  HIT:      83954  MISS:          0  HIT %:        100  MISS %:          0  MPKI: 0

ITLB AVERAGE MISS LATENCY: 9.05414 cycles
ITLB RQ	ACCESS:    7676518	FORWARD:          0	MERGED:    1364335	TO_CACHE:    6312183

DTLB TOTAL     ACCESS:    9630573  HIT:    9156416  MISS:     474157  HIT %:    95.0765  MISS %:    4.92346   MPKI: 9.48314
DTLB LOAD TRANSLATION DATA	ACCESS:    9630573  HIT:    9156416  MISS:     474157  HIT %:    95.0765  MISS %:    4.92346  MPKI: 9.48314

DTLB AVERAGE MISS LATENCY: 9.31408 cycles
DTLB RQ	ACCESS:   13866643	FORWARD:          0	MERGED:    4204528	TO_CACHE:    9662115

STLB TOTAL     ACCESS:    1217042  HIT:    1215026  MISS:       2016  HIT %:    99.8344  MISS %:   0.165648   MPKI: 0.04032
STLB LOAD TRANSLATION INSTRUCTION	ACCESS:     492990  HIT:     492753  MISS:        237  HIT %:    99.9519  MISS %:   0.048074  MPKI: 0.00474
STLB LOAD TRANSLATION DATA	ACCESS:     473961  HIT:     472202  MISS:       1759  HIT %:    99.6289  MISS %:   0.371128  MPKI: 0.03518
STLB TRANSLATION FROM L1D PREFETCHER DATA	ACCESS:     250091  HIT:     250071  MISS:         20  HIT %:     99.992  MISS %: 0.00799709  MPKI: 0.0004

STLB AVERAGE MISS LATENCY: 74.9722 cycles
STLB RQ	ACCESS:    1340376	FORWARD:          0	MERGED:     123296	TO_CACHE:    1217080

STLB Hit, L1D data hit: 0
STLB Hit, L2C data hit: 0
STLB Hit, LLC data hit: 0
STLB Hit, LLC data miss: 0
STLB STLB hints to L2: 0
L1D TOTAL     ACCESS:   13632863  HIT:   12517671  MISS:    1115192  HIT %:    91.8198  MISS %:    8.18017   MPKI: 22.3038
L1D LOAD DATA	ACCESS:    7043945  HIT:    6311466  MISS:     732479  HIT %:    89.6013  MISS %:    10.3987  MPKI: 14.6496
L1D RFO DATA	ACCESS:    6255742  HIT:    5968827  MISS:     286915  HIT %:    95.4136  MISS %:    4.58643  MPKI: 5.7383
L1D PREFETCH DATA	ACCESS:     333176  HIT:     237378  MISS:      95798  HIT %:     71.247  MISS %:     28.753  MPKI: 1.91596

L1D PREFETCH  REQUESTED:     746756  ISSUED:     746756  USEFUL:      35568  USELESS:      68283
L1D USEFUL LOAD PREFETCHES:      35568 PREFETCH ISSUED TO LOWER LEVEL:     103894  ACCURACY: 34.2349
 TIMELY PREFETCHES:      35568 LATE PREFETCHES: 8077 DROPPED PREFETCHES: 4
L1D AVERAGE MISS LATENCY: 278781 cycles
L1D RQ	ACCESS:   11075198	FORWARD:          0	MERGED:    3832405	TO_CACHE:    7078442
L1D WQ	ACCESS:    6946951	FORWARD:     164649	MERGED:     158750	TO_CACHE:    6788201
L1D PQ	ACCESS:     373527	FORWARD:          0	MERGED:          0	TO_CACHE:     373229

L1D UNIQUE REGIONS ACCESSED: 0
L1D REGIONS CONFLICTS: 0
L1D Cross Page Prefetch Requests: 6851
L1D Same Page Prefetch Requests: 751562
L1D ROI Sum of L1D PQ occupancy: 4746188
L1D PREFETCHES PUSHED FROM L2C: 0
L1I TOTAL     ACCESS:    7130761  HIT:    4373031  MISS:    2757730  HIT %:    61.3263  MISS %:    38.6737   MPKI: 55.1546
L1I LOAD INSTRUCTION	ACCESS:    6764896  HIT:    4007166  MISS:    2757730  HIT %:    59.2347  MISS %:    40.7653  MPKI: 55.1546
L1I PREFETCH INSTRUCTION	ACCESS:     365865  HIT:     365865  MISS:          0  HIT %:        100  MISS %:          0  MPKI: 0

L1I PREFETCH  REQUESTED:     907248  ISSUED:     907248  USEFUL:          0  USELESS:          0
L1I USEFUL LOAD PREFETCHES:          0 PREFETCH ISSUED TO LOWER LEVEL:          0  ACCURACY: -nan
 TIMELY PREFETCHES:          0 LATE PREFETCHES: 0 DROPPED PREFETCHES: 0
L1I AVERAGE MISS LATENCY: 17.3544 cycles
L1I RQ	ACCESS:    9425557	FORWARD:          0	MERGED:    2394556	TO_CACHE:    7031001
L1I PQ	ACCESS:     907248	FORWARD:          0	MERGED:     261731	TO_CACHE:     645517

L1BTB TOTAL     ACCESS:    5670226  HIT:    2048628  MISS:    3621598  HIT %:    36.1296  MISS %:    63.8704   MPKI: 72.432
L1BTB BRANCH_DIRECT_JUMP	ACCESS:     549110 HIT:     145395 MISS:     403715 AVERAGE STALL: 32.9396 AVERAGE FETCH STALL: 19.5096 AVERAGE FETCH QUEUE STALL: 5.91838 AVERAGE DECODE STALL: 6.63464 AVERAGE EXECUTE STALL: 1.07473e+15
L1BTB BRANCH_INDIRECT	ACCESS:     183191 HIT:      66209 MISS:     116982 AVERAGE STALL: 56.3548 AVERAGE FETCH STALL: 11.9108 AVERAGE FETCH QUEUE STALL: 3.60016 AVERAGE DECODE STALL: 5.86548 AVERAGE EXECUTE STALL: 34.0157
L1BTB BRANCH_CONDITIONAL	ACCESS:    2711810 HIT:    1420429 MISS:    1291381 AVERAGE STALL: 34.1063 AVERAGE FETCH STALL: 22.7363 AVERAGE FETCH QUEUE STALL: 4.70586 AVERAGE DECODE STALL: 5.89087 AVERAGE EXECUTE STALL: 6.24023e+14
L1BTB BRANCH_DIRECT_CALL	ACCESS:     941875 HIT:     105677 MISS:     836198 AVERAGE STALL: 33.6134 AVERAGE FETCH STALL: 21.7084 AVERAGE FETCH QUEUE STALL: 5.26806 AVERAGE DECODE STALL: 5.86141 AVERAGE EXECUTE STALL: 8.53305e+14
L1BTB BRANCH_INDIRECT_CALL	ACCESS:     171183 HIT:      21159 MISS:     150024 AVERAGE STALL: 75.0851 AVERAGE FETCH STALL: 14.1477 AVERAGE FETCH QUEUE STALL: 2.32365 AVERAGE DECODE STALL: 5.59168 AVERAGE EXECUTE STALL: 52.5228
L1BTB BRANCH_RETURN	ACCESS:    1113057 HIT:     289759 MISS:     823298 AVERAGE STALL: 34.9366 AVERAGE FETCH STALL: 17.396 AVERAGE FETCH QUEUE STALL: 2.69147 AVERAGE DECODE STALL: 4.83229 AVERAGE EXECUTE STALL: 3.61587e+14
L1BTB BRANCH_OTHER ACCESS:          0 HIT:          0 MISS:          0 AVERAGE STALL: -nan AVERAGE FETCH STALL: -nan AVERAGE FETCH QUEUE STALL: -nan AVERAGE DECODE STALL: -nan AVERAGE EXECUTE STALL: -nan
L1BTB TOTAL ROB OCCUPANCY AT BTB MISS: 2.16958

L2BTB TOTAL     ACCESS:    3596158  HIT:    3467599  MISS:     128559  HIT %:    96.4251  MISS %:     3.5749   MPKI: 2.57118
L2BTB BRANCH_DIRECT_JUMP	ACCESS:     399516 HIT:     386545 MISS:      12971 AVERAGE STALL: 32.9396 AVERAGE FETCH STALL: 19.5096 AVERAGE FETCH QUEUE STALL: 5.91838 AVERAGE DECODE STALL: 6.63464 AVERAGE EXECUTE STALL: 1.07473e+15
L2BTB BRANCH_INDIRECT	ACCESS:     106719 HIT:     103579 MISS:       3140 AVERAGE STALL: 56.3548 AVERAGE FETCH STALL: 11.9108 AVERAGE FETCH QUEUE STALL: 3.60016 AVERAGE DECODE STALL: 5.86548 AVERAGE EXECUTE STALL: 34.0157
L2BTB BRANCH_CONDITIONAL	ACCESS:    1291381 HIT:    1261479 MISS:      29902 AVERAGE STALL: 34.1063 AVERAGE FETCH STALL: 22.7363 AVERAGE FETCH QUEUE STALL: 4.70586 AVERAGE DECODE STALL: 5.89087 AVERAGE EXECUTE STALL: 6.24023e+14
L2BTB BRANCH_DIRECT_CALL	ACCESS:     836198 HIT:     814550 MISS:      21648 AVERAGE STALL: 33.6134 AVERAGE FETCH STALL: 21.7084 AVERAGE FETCH QUEUE STALL: 5.26806 AVERAGE DECODE STALL: 5.86141 AVERAGE EXECUTE STALL: 8.53305e+14
L2BTB BRANCH_INDIRECT_CALL	ACCESS:     140447 HIT:     129188 MISS:      11259 AVERAGE STALL: 75.0851 AVERAGE FETCH STALL: 14.1477 AVERAGE FETCH QUEUE STALL: 2.32365 AVERAGE DECODE STALL: 5.59168 AVERAGE EXECUTE STALL: 52.5228
L2BTB BRANCH_RETURN	ACCESS:     821897 HIT:     772258 MISS:      49639 AVERAGE STALL: 34.9366 AVERAGE FETCH STALL: 17.396 AVERAGE FETCH QUEUE STALL: 2.69147 AVERAGE DECODE STALL: 4.83229 AVERAGE EXECUTE STALL: 3.61587e+14
L2BTB BRANCH_OTHER ACCESS:          0 HIT:          0 MISS:          0 AVERAGE STALL: -nan AVERAGE FETCH STALL: -nan AVERAGE FETCH QUEUE STALL: -nan AVERAGE DECODE STALL: -nan AVERAGE EXECUTE STALL: -nan
L2BTB TOTAL ROB OCCUPANCY AT BTB MISS: 61.1187

L2C TOTAL     ACCESS:    4483690  HIT:    3977924  MISS:     505766  HIT %:    88.7199  MISS %:    11.2801   MPKI: 10.1153
L2C LOAD INSTRUCTION	ACCESS:    2757730  HIT:    2472665  MISS:     285065  HIT %:    89.6631  MISS %:    10.3369  MPKI: 5.7013
L2C LOAD TRANSLATION INSTRUCTION	ACCESS:        277  HIT:         72  MISS:        205  HIT %:    25.9928  MISS %:    74.0072  MPKI: 0.0041
L2C LOAD DATA	ACCESS:     724373  HIT:     647761  MISS:      76612  HIT %:    89.4237  MISS %:    10.5763  MPKI: 1.53224
L2C RFO DATA	ACCESS:     286871  HIT:     229607  MISS:      57264  HIT %:    80.0384  MISS %:    19.9616  MPKI: 1.14528
L2C PREFETCH DATA	ACCESS:     192027  HIT:     122377  MISS:      69650  HIT %:    63.7291  MISS %:    36.2709  MPKI: 1.393
L2C WRITEBACK DATA	ACCESS:     520547  HIT:     504936  MISS:      15611  HIT %:     97.001  MISS %:    2.99896  MPKI: 0.31222
L2C LOAD TRANSLATION DATA	ACCESS:       1828  HIT:        481  MISS:       1347  HIT %:    26.3129  MISS %:    73.6871  MPKI: 0.02694
L2C TRANSLATION FROM L1D PREFETCHER DATA	ACCESS:         37  HIT:         25  MISS:         12  HIT %:    67.5676  MISS %:    32.4324  MPKI: 0.00024

L2C PREFETCH  REQUESTED:      95216  ISSUED:      95216  USEFUL:       8169  USELESS:      61969
L2C USEFUL LOAD PREFETCHES:       8169 PREFETCH ISSUED TO LOWER LEVEL:      69946  ACCURACY: 11.679
 TIMELY PREFETCHES:       8169 LATE PREFETCHES: 296 DROPPED PREFETCHES: 0
L2C AVERAGE MISS LATENCY: 38.6175 cycles
L2C RQ	ACCESS:    3771170	FORWARD:          0	MERGED:          0	TO_CACHE:    3771116
L2C WQ	ACCESS:     520547	FORWARD:         54	MERGED:          0	TO_CACHE:     520547
L2C PQ	ACCESS:     199110	FORWARD:          0	MERGED:       3309	TO_CACHE:     195801

L2C Dense regions hint from L2: 0
PSCL5 TOTAL     ACCESS:       4046  HIT:       2023  MISS:       2023  HIT %:         50  MISS %:         50   MPKI: 0.04046
PSCL5 LOAD TRANSLATION INSTRUCTION	ACCESS:       3972  HIT:       1986  MISS:       1986  HIT %:         50  MISS %:         50  MPKI: 0.03972
PSCL5 TRANSLATION FROM L1D PREFETCHER INSTRUCTION	ACCESS:         74  HIT:         37  MISS:         37  HIT %:         50  MISS %:         50  MPKI: 0.00074


PSCL4 TOTAL     ACCESS:       3967  HIT:       1980  MISS:       1987  HIT %:    49.9118  MISS %:    50.0882   MPKI: 0.03974
PSCL4 LOAD TRANSLATION INSTRUCTION	ACCESS:       2165  HIT:       1948  MISS:        217  HIT %:    89.9769  MISS %:    10.0231  MPKI: 0.00434
PSCL4 TRANSLATION FROM L1D PREFETCHER INSTRUCTION	ACCESS:         33  HIT:         32  MISS:          1  HIT %:    96.9697  MISS %:     3.0303  MPKI: 2e-05
PSCL4 LOAD TRANSLATION DATA	ACCESS:       1738  HIT:          0  MISS:       1738  HIT %:          0  MISS %:        100  MPKI: 0.03476
PSCL4 TRANSLATION FROM L1D PREFETCHER DATA	ACCESS:         31  HIT:          0  MISS:         31  HIT %:          0  MISS %:        100  MPKI: 0.00062


PSCL3 TOTAL     ACCESS:       3995  HIT:       1994  MISS:       2001  HIT %:    49.9124  MISS %:    50.0876   MPKI: 0.04002
PSCL3 LOAD TRANSLATION INSTRUCTION	ACCESS:       2179  HIT:       1962  MISS:        217  HIT %:    90.0413  MISS %:     9.9587  MPKI: 0.00434
PSCL3 TRANSLATION FROM L1D PREFETCHER INSTRUCTION	ACCESS:         33  HIT:         32  MISS:          1  HIT %:    96.9697  MISS %:     3.0303  MPKI: 2e-05
PSCL3 LOAD TRANSLATION DATA	ACCESS:       1752  HIT:          0  MISS:       1752  HIT %:          0  MISS %:        100  MPKI: 0.03504
PSCL3 TRANSLATION FROM L1D PREFETCHER DATA	ACCESS:         31  HIT:          0  MISS:         31  HIT %:          0  MISS %:        100  MPKI: 0.00062


PSCL2 TOTAL     ACCESS:       3939  HIT:       1916  MISS:       2023  HIT %:    48.6418  MISS %:    51.3582   MPKI: 0.04046
PSCL2 LOAD TRANSLATION INSTRUCTION	ACCESS:       2116  HIT:       1879  MISS:        237  HIT %:    88.7996  MISS %:    11.2004  MPKI: 0.00474
PSCL2 TRANSLATION FROM L1D PREFETCHER INSTRUCTION	ACCESS:         37  HIT:         37  MISS:          0  HIT %:        100  MISS %:          0  MPKI: 0
PSCL2 LOAD TRANSLATION DATA	ACCESS:       1749  HIT:          0  MISS:       1749  HIT %:          0  MISS %:        100  MPKI: 0.03498
PSCL2 TRANSLATION FROM L1D PREFETCHER DATA	ACCESS:         37  HIT:          0  MISS:         37  HIT %:          0  MISS %:        100  MPKI: 0.00074


LLC TOTAL     ACCESS:     569095  HIT:     538683  MISS:      30412  HIT %:    94.6561  MISS %:    5.34392   MPKI: 0.60824
LLC LOAD INSTRUCTION	ACCESS:     285065  HIT:     283907  MISS:       1158  HIT %:    99.5938  MISS %:   0.406223  MPKI: 0.02316
LLC LOAD TRANSLATION INSTRUCTION	ACCESS:        205  HIT:        153  MISS:         52  HIT %:    74.6341  MISS %:    25.3659  MPKI: 0.00104
LLC LOAD DATA	ACCESS:      76339  HIT:      72917  MISS:       3422  HIT %:    95.5174  MISS %:    4.48264  MPKI: 0.06844
LLC RFO DATA	ACCESS:      57237  HIT:      41633  MISS:      15604  HIT %:    72.7379  MISS %:    27.2621  MPKI: 0.31208
LLC PREFETCH DATA	ACCESS:      69946  HIT:      60284  MISS:       9662  HIT %:    86.1865  MISS %:    13.8135  MPKI: 0.19324
LLC WRITEBACK DATA	ACCESS:      78944  HIT:      78497  MISS:        447  HIT %:    99.4338  MISS %:   0.566224  MPKI: 0.00894
LLC LOAD TRANSLATION DATA	ACCESS:       1347  HIT:       1280  MISS:         67  HIT %:     95.026  MISS %:    4.97402  MPKI: 0.00134
LLC TRANSLATION FROM L1D PREFETCHER DATA	ACCESS:         12  HIT:         12  MISS:          0  HIT %:        100  MISS %:          0  MPKI: 0

LLC AVERAGE MISS LATENCY: 157.145 cycles
LLC RQ	ACCESS:     420209	FORWARD:          0	MERGED:          0	TO_CACHE:     420205
LLC WQ	ACCESS:      78944	FORWARD:          4	MERGED:          0	TO_CACHE:      78944
LLC PQ	ACCESS:      69946	FORWARD:          0	MERGED:          0	TO_CACHE:      69946

LLC Dense regions hint to LLC: 0

RAW hits: 1564476
Loads Generated: 12639674
Loads sent to L1D: 11075198
Stores Generated: 6946934
Stores sent to L1D: 6946951
Major fault: 0 Minor fault: 2558
Allocated PAGES: 2558

stream: 
stream:times selected: 1184743
stream:pref_filled: 122599
stream:pref_useful: 24693
stream:pref_late: 6664
stream:misses: 7840
stream:misses_by_poll: 0

CS: 
CS:times selected: 178247
CS:pref_filled: 60123
CS:pref_useful: 36699
CS:pref_late: 7145
CS:misses: 16659
CS:misses_by_poll: 0

CPLX: 
CPLX:times selected: 1005396
CPLX:pref_filled: 20303
CPLX:pref_useful: 4679
CPLX:pref_late: 3134
CPLX:misses: 92812
CPLX:misses_by_poll: 0

NL_L1: 
NL:times selected: 19834
NL:pref_filled: 665
NL:pref_useful: 326
NL:pref_late: 272
NL:misses: 1703
NL:misses_by_poll: 0

total selections: 2388220
total_filled: 95798
total_useful: 35568
total_late: 18581
total_polluted: 0
total_misses_after_warmup: 766976
conflicts: 5755835

test: 118129

DRAM Statistics
 CHANNEL 0
 RQ ROW_BUFFER_HIT:      11468  ROW_BUFFER_MISS:      18475
 DBUS_CONGESTED:          9
 WQ ROW_BUFFER_HIT:       1457  ROW_BUFFER_MISS:      12780  FULL:          0

 AVG_CONGESTED_CYCLE: 4

CPU 0 Branch Prediction Accuracy: 99.8233% MPKI: 0.32296 Average ROB Occupancy at Mispredict: 98.3781
Branch types
NOT_BRANCH: 40859154 81.7183%
BRANCH_DIRECT_JUMP: 549110 1.09822%
BRANCH_INDIRECT: 183191 0.366382%
BRANCH_CONDITIONAL: 6182204 12.3644%
BRANCH_DIRECT_CALL: 941875 1.88375%
BRANCH_INDIRECT_CALL: 171183 0.342366%
BRANCH_RETURN: 1113057 2.22611%
BRANCH_OTHER: 0 0%

DRAM PAGES: 1048576
Allocated PAGES: 2558
Average_ROB_Occupancy: 92.5081
Average_Decode_Occupancy: 10.3527
Average_FTQ_Occupancy: 5.34121
Indirect max targets: 14 Average targets: 1.15282
Branch_type:  BRANCH_DIRECT_JUMP:  Count Percentage: 2.90184 6.19419 3.72231 8.5733 2.78802 6.28013 1.35295 68.1872 
Branch_type:  BRANCH_INDIRECT:  Count Percentage: 11.7352 3.41967 2.54357 0 1.3371 9.69826 19.238 52.0282 
Branch_type:  BRANCH_CONDITIONAL:  Count Percentage: 20.7875 3.22326 1.9134 8.20169 1.4167 5.12532 2.05179 57.2803 
Branch_type:  BRANCH_DIRECT_CALL:  Count Percentage: 0.259769 1.77396 1.44617 4.26488 2.80381 2.9856 0.890372 85.5754 
Branch_type:  BRANCH_INDIRECT_CALL:  Count Percentage: 9.56288 0.571053 2.99621 4.85468 0.000583601 2.62854 1.28538 78.1007 
Branch_type:  BRANCH_RETURN:  Count Percentage: 3.20296 1.29331 1.27291 8.70862 3.51201 6.86409 3.35307 71.793 
Branch_type:  BRANCH_DIRECT_JUMP:  Total Count: 31842 67969 40845 94075 30593 68912 14846 748220 
Branch_type:  BRANCH_INDIRECT:  Total Count: 42944 12514 9308 0 4893 35490 70400 190393 
Branch_type:  BRANCH_CONDITIONAL:  Total Count: 2569257 398383 236489 1013698 175099 633470 253593 7079634 
Branch_type:  BRANCH_DIRECT_CALL:  Total Count: 4900 33462 27279 80448 52888 56317 16795 1614201 
Branch_type:  BRANCH_INDIRECT_CALL:  Total Count: 32772 1957 10268 16637 2 9008 4405 267651 
Branch_type:  BRANCH_RETURN:  Total Count: 71419 28838 28383 194183 78310 153054 74766 1600827 
Number of unique branch instructions: 10016
Upper 32 bits: 
aaaa
ffff
ffff0000
Unique upper 32 bits: 3
Unique upper 36 bits: 3
Unique upper 40 bits: 5
Unique upper 44 bits: 32
Unique upper 48 bits: 157
Offset_3 4100
Offset_4 264
Offset_5 463
Offset_6 506
Offset_7 585
Offset_8 517
Offset_9 484
Offset_10 389
Offset_11 303
Offset_12 280
Offset_13 205
Offset_14 227
Offset_15 183
Offset_16 225
Offset_17 152
Offset_18 118
Offset_19 242
Offset_20 139
Offset_21 261
Offset_22 391
Offset_23 243
Offset_24 341
Offset_25 88
Offset_47 84
decode_dispatch_called: 20700920 43.2262
Dispatch_width: 0 10376412 50.1254 21.6673
Dispatch_width: 1 631302 3.04963 1.31824
Dispatch_width: 2 814770 3.93591 1.70134
Dispatch_width: 3 580533 2.80438 1.21223
Dispatch_width: 4 1677612 8.10405 3.50307
Dispatch_width: 5 434946 2.1011 0.908223
Dispatch_width: 6 6185345 29.8796 12.9158
Empty_decode_cycles: 27188882 56.7738
ROB_full_cycles: 1664614 3.47593
Starvation_cycles_per_kilo_instr: 400.398
Starvation_cycles_per_kilo_instr_3: 379.273
Starvation_cycles_per_kilo_instr_0: 359.007
Branch_type_1  (3,1)  (4,10)  (5,39)  (6,70)  (7,114)  (8,133)  (9,128)  (10,99)  (11,67)  (12,43)  (13,8)  (14,2)  (15,3)  (16,4)  (18,1)  (19,4)  (20,2)  (21,1)  (22,3)  (23,2)  (24,10)  (25,12) 
Branch_type_2  (3,1)  (5,1)  (8,3)  (9,3)  (12,1)  (13,1)  (14,1)  (16,3)  (17,2)  (20,2)  (21,2)  (23,5)  (24,1)  (47,38) 
Branch_type_3  (3,4098)  (4,254)  (5,419)  (6,421)  (7,440)  (8,319)  (9,267)  (10,156)  (11,122)  (12,50)  (13,7) 
Branch_type_4  (6,3)  (7,8)  (8,25)  (9,54)  (10,63)  (11,58)  (12,101)  (13,86)  (14,100)  (15,85)  (16,101)  (17,69)  (18,53)  (19,116)  (20,72)  (21,141)  (22,208)  (23,137)  (24,192)  (25,72) 
Branch_type_5  (8,2)  (9,1)  (10,4)  (11,5)  (12,3)  (13,14)  (14,16)  (15,11)  (16,20)  (17,11)  (18,16)  (19,13)  (20,11)  (21,13)  (22,42)  (23,26)  (24,41) 
Branch_type_6  (5,4)  (6,12)  (7,23)  (8,35)  (9,31)  (10,67)  (11,51)  (12,82)  (13,89)  (14,108)  (15,84)  (16,97)  (17,70)  (18,48)  (19,109)  (20,52)  (21,104)  (22,138)  (23,73)  (24,97)  (25,4)  (47,46) 
aaaaab1fc620: 2ac9e77e 2aca717c 2aca8eff 2acaf6bc 2acaf9aa 2acaf9f1 2acb1abc 2acb1b7f 2acd4e22 2acdb712 2acf5f9e 2ad0ef44 2ad3f15c 2ad414e6 2ad60e42 2ad8609c 2ad99830 2ada35cc 2ada4676 2ada6612 2adf183e 2adf30e5 2adf5602 2adf785c 2ae11572 2aeb2dcf 2aee101b 2aee1ae1 2b156a8c 2b156b61 2b156bea 2b167f35 2b177656 2b17feec 2b1a3e5a 
aaaaac68f310: 2ac9ec8c 2ac9fb44 2ac9fbd2 2aca59ab 2acac04c 2acaf6e0 2acaf6ec 2acaf6f9 2acaf700 2acaf708 2acf2d90 2ad3cfbd 2ad3cfc4 2ad3d000 2ad3f35f 2ad4955d 2ad49571 2ad4f3f2 2ad4f400 2ad5f240 2ad5f37c 2ad5f86a 2ad5f86f 2ad5f880 2ad5fc0d 2ad5fc14 2ad5fc21 2ad5fe1b 2ad873bb 2ad873e3 2ad8a6b2 2ad9086e 2ad93096 2ad9bbb2 2ada152c 2ada1554 2ada3332 2ada5522 2adf3130 2adf313c 2adf3a3f 2adf3bd9 2adf5788 2adf7a8d 2ae07f6b 2ae0857a 2ae0857e 2ae08630 2ae08634 2ae08637 2ae08642 2ae0866f 2ae086e4 2ae086ec 2ae08717 2ae0871b 2aee0170 2aee1d38 2aee75f4 2aee7662 2aee85ca 2aee85e4 2aee8eef 2af70b84 2af74e8f 2b17d843 
aaaaac690ef0: 2aca598b 2acb111b 2acb175f 2acb1772 2acbfaf4 2acbfb00 2acf374f 2acf6d43 2acfa5c8 2ad3baf1 2ad3d4ac 2ad3d4b8 2ad3f1cf 2ad486b2 2ad5a59b 2ad5fc64 2ad5fcf9 2ad6121c 2ad906e9 2ad907bf 2ad9bada 2ada16ce 2ada1ad5 2ada43df 2ada64c0 2ada72ee 2adeb71a 2adf3bcb 2adf7a38 2adf7c6a 2adf8872 2adf8880 2adf9959 2adf9abe 2ae07f78 2ae08503 2ae08754 2ae12e80 2aea3bea 2aecb509 2aee00b0 2aee2bdd 2aee5467 2aee5601 2aee8f20 2af703fd 2af7048b 2af74e74 
Unique trigger count: 
1 9551
2 495
3 89
4 33
5 11
6 8
7 6
8 1
9 3
10 1
11 2
12 1
13 3
16 2
17 2
19 3
35 1
48 1
66 1
BTB PER SET UNIQUE ADDR: 9 16 10 7 6 15 14 19 16 7 13 7 19 15 9 13 15 11 13 14 9 17 11 16 12 12 7 10 10 13 19 13 14 8 17 16 16 18 12 12 15 13 8 16 17 10 12 15 22 11 14 8 18 8 13 16 14 12 16 12 13 22 12 15 12 23 11 16 18 12 7 8 10 7 9 20 13 19 12 12 12 13 12 11 14 14 12 14 16 16 19 17 16 12 11 13 16 13 13 13 14 11 17 14 11 14 12 16 15 11 16 7 9 18 14 19 7 13 14 9 13 15 11 6 11 8 10 9 20 13 15 9 12 7 14 12 14 9 14 11 19 11 12 8 11 14 9 16 21 9 12 22 13 18 12 14 11 18 13 16 16 13 21 14 15 11 11 10 21 16 12 10 15 14 10 10 13 11 12 11 8 10 12 14 16 17 12 12 10 19 9 13 12 15 11 14 15 8 15 11 10 12 13 10 17 10 6 15 10 5 9 9 13 9 9 16 5 21 15 16 13 5 12 13 12 11 19 11 6 17 19 18 7 6 11 11 14 10 9 7 9 9 11 13 18 19 11 9 10 10 14 16 13 13 19 17 10 9 17 11 8 11 15 8 15 24 9 8 15 10 11 12 14 17 19 14 9 11 7 18 11 11 16 16 20 13 12 11 21 8 15 10 11 16 13 14 10 15 10 10 12 9 8 10 8 10 11 14 17 14 16 7 13 7 11 7 15 20 15 6 13 16 15 12 9 10 12 13 9 6 14 7 10 16 18 9 13 10 15 8 12 15 8 18 13 10 12 12 15 12 9 14 22 11 13 14 16 11 11 11 13 20 13 10 13 14 11 7 9 10 12 10 15 11 14 8 15 13 13 14 15 14 14 15 16 14 12 8 17 11 14 11 16 10 12 13 12 14 11 14 10 7 8 12 9 10 14 10 13 9 15 10 17 12 9 9 14 15 7 10 12 15 10 15 20 16 5 10 12 15 8 8 20 13 17 17 13 9 15 6 17 14 11 8 15 19 10 15 11 10 16 9 9 12 19 12 14 11 12 11 8 14 17 15 13 10 16 10 17 13 7 11 14 13 9 8 18 11 10 11 12 14 9 13 10 18 14 10 9 7 16 10 10 16 8 18 11 12 12 8 20 11 12 7 11 9 8 10 13 13 20 9 
BTB PER SET COUNT: 10 17 11 8 6 15 15 516 17 1476 13 427 60 15 9 14 16 11 13 1484 10 26 12 507 13 13 8 10 1476 13 1825 385 16 9 20 18 2951 2484 16 13 17 15 10 19 3822 12 12 15 5276 13 14 9 3450 8 18 20 15 12 16 106 14 6043 12 15 12 4087 11 19 4901 60 7 8 1477 7 10 5882 503 50 14 12 12 991 991 12 504 14 12 15 16 18 4006 512 16 2951 14 13 17 13 18 16 14 11 26 15 993 15 14 17 15 784 384 8 1475 62 15 2875 9 13 502 1475 15 20 11 6 502 8 10 9 5039 14 505 9 12 8 15 12 504 9 14 11 40 14 12 8 13 17 1478 16 14816 9 12 9705 13 5389 2946 994 11 59 503 17 19 16 7692 992 508 1967 614 11 7854 509 12 987 14685 1152 10 1844 1479 499 990 990 8 10 12 14 18 18 14 46 10 63 9 13 174 992 11 1487 994 1475 113 12 13 13 991 13 1502 775 6 2460 12 6 9 10 13 11 9 593 5 6139 16 16 992 5 13 13 12 11 753 2025 6 1507 268 4420 7 7 500 12 14 988 9 7 10 533 11 15 1777 5092 11 986 11 12 992 17 13 13 88 22 13 9 26 15 9 102 15 1474 1482 9622 987 9 15 10 13 14 15 40 98 15 426 11 8 102 13 11 238 16 6129 992 12 12 119 9 195 13 2456 1483 14 17 15 114 10 13 13 499 9 13 9 11 13 15 24 16 16 405 14 8 988 9 15 6385 17 8 14 16 34 12 9 10 16 15 191 7 993 1477 11 22 1014 10 998 10 16 8 14 17 8 1514 990 11 12 17 16 15 9 14 7840 1965 13 992 19 11 11 52 14 66 14 10 16 18 13 8 9 10 13 10 15 14 15 8 16 14 14 15 16 14 14 181 21 14 12 8 2487 11 112 59 19 16 12 15 1479 15 12 14 11 7 8 13 10 991 2947 10 13 2336 16 10 577 13 986 10 124 15 9 1933 12 506 10 16 6951 17 7 10 12 18 166 987 2756 13 27 272 16 9 18 7 425 15 11 8 23 3521 16 994 11 499 17 9 10 12 43 13 14 15 501 11 985 384 26 16 1012 10 19 10 43 14 496 11 40 507 139 9 20589 11 11 14 12 14 9 501 10 375 271 386 9 8 17 10 11 16 9 22 12 12 1969 8 8079 390 1210 8 11 12 8 10 1503 19 762 9 
