
*** ChampSim Multicore Out-of-Order Simulator ***

Warmup Instructions: 50000000
Simulation Instructions: 50000000
Number of CPUs: 1
LLC sets: 2048
LLC ways: 16
Off-chip DRAM Size: 4096 MB Channels: 1 Width: 64-bit Data Rate: 6400 MT/s
CPU 0 runs ./micro_traces/srv212.trace.gz
.gz
ITLB has LRU replacement policy
DTLB has LRU replacement policy
STLB has LRU replacement policy
FDIP Prefetcher at L1I
L1I has LRU replacement policy
L1D has LRU replacement policy
Initialize SRRIP state for L2C
Initialize DRRIP state for LLC
Heartbeat_Variant_0 : 1327 0.215983 per_variant_size: 0 1327 0 0 0 0 0 0 0 
Heartbeat_Variant_1 : 2740 0.445964 per_variant_size: 0 969 1771 0 0 0 0 0 0 
Heartbeat_Variant_2 : 0 0 per_variant_size: 0 0 0 0 0 0 0 0 0 
Heartbeat_Variant_3 : 0 0 per_variant_size: 0 0 0 0 0 0 0 0 0 
Heartbeat_Variant_0_evicts 0 : 5565 1 : 25 2 : 0 3 : 0 
Heartbeat_Variant_1_evicts 0 : 17 1 : 0 2 : 0 3 : 0 
Heartbeat_Variant_2_evicts 0 : 0 1 : 0 2 : 0 3 : 0 
Heartbeat_Variant_3_evicts 0 : 0 1 : 0 2 : 0 3 : 0 
Heartbeat CPU 0 instructions: 10000003 cycles: 2797636 heartbeat IPC: 3.57445 cumulative IPC: 3.57445 (Simulation time: 0 hr 1 min 53 sec) 
Heartbeat_Variant_0 : 1365 0.222168 per_variant_size: 0 1365 0 0 0 0 0 0 0 
Heartbeat_Variant_1 : 2838 0.461914 per_variant_size: 0 967 1871 0 0 0 0 0 0 
Heartbeat_Variant_2 : 0 0 per_variant_size: 0 0 0 0 0 0 0 0 0 
Heartbeat_Variant_3 : 0 0 per_variant_size: 0 0 0 0 0 0 0 0 0 
Heartbeat_Variant_0_evicts 0 : 5686 1 : 8 2 : 0 3 : 0 
Heartbeat_Variant_1_evicts 0 : 7 1 : 0 2 : 0 3 : 0 
Heartbeat_Variant_2_evicts 0 : 0 1 : 0 2 : 0 3 : 0 
Heartbeat_Variant_3_evicts 0 : 0 1 : 0 2 : 0 3 : 0 
Heartbeat CPU 0 instructions: 20000000 cycles: 5594262 heartbeat IPC: 3.57574 cumulative IPC: 3.57509 (Simulation time: 0 hr 3 min 33 sec) 
Heartbeat_Variant_0 : 1419 0.230957 per_variant_size: 0 1419 0 0 0 0 0 0 0 
Heartbeat_Variant_1 : 2935 0.477702 per_variant_size: 0 956 1979 0 0 0 0 0 0 
Heartbeat_Variant_2 : 0 0 per_variant_size: 0 0 0 0 0 0 0 0 0 
Heartbeat_Variant_3 : 0 0 per_variant_size: 0 0 0 0 0 0 0 0 0 
Heartbeat_Variant_0_evicts 0 : 5547 1 : 5 2 : 0 3 : 0 
Heartbeat_Variant_1_evicts 0 : 3 1 : 0 2 : 0 3 : 0 
Heartbeat_Variant_2_evicts 0 : 0 1 : 0 2 : 0 3 : 0 
Heartbeat_Variant_3_evicts 0 : 0 1 : 0 2 : 0 3 : 0 
Heartbeat CPU 0 instructions: 30000003 cycles: 8389805 heartbeat IPC: 3.57712 cumulative IPC: 3.57577 (Simulation time: 0 hr 5 min 15 sec) 
Heartbeat_Variant_0 : 1420 0.23112 per_variant_size: 0 1420 0 0 0 0 0 0 0 
Heartbeat_Variant_1 : 2951 0.480306 per_variant_size: 0 965 1986 0 0 0 0 0 0 
Heartbeat_Variant_2 : 0 0 per_variant_size: 0 0 0 0 0 0 0 0 0 
Heartbeat_Variant_3 : 0 0 per_variant_size: 0 0 0 0 0 0 0 0 0 
Heartbeat_Variant_0_evicts 0 : 5557 1 : 0 2 : 0 3 : 0 
Heartbeat_Variant_1_evicts 0 : 1 1 : 0 2 : 0 3 : 0 
Heartbeat_Variant_2_evicts 0 : 0 1 : 0 2 : 0 3 : 0 
Heartbeat_Variant_3_evicts 0 : 0 1 : 0 2 : 0 3 : 0 
Heartbeat CPU 0 instructions: 40000002 cycles: 11187552 heartbeat IPC: 3.5743 cumulative IPC: 3.5754 (Simulation time: 0 hr 6 min 57 sec) 
Heartbeat_Variant_0 : 1422 0.231445 per_variant_size: 0 1422 0 0 0 0 0 0 0 
Heartbeat_Variant_1 : 2963 0.482259 per_variant_size: 0 964 1999 0 0 0 0 0 0 
Heartbeat_Variant_2 : 0 0 per_variant_size: 0 0 0 0 0 0 0 0 0 
Heartbeat_Variant_3 : 0 0 per_variant_size: 0 0 0 0 0 0 0 0 0 
Heartbeat_Variant_0_evicts 0 : 5522 1 : 2 2 : 0 3 : 0 
Heartbeat_Variant_1_evicts 0 : 1 1 : 0 2 : 0 3 : 0 
Heartbeat_Variant_2_evicts 0 : 0 1 : 0 2 : 0 3 : 0 
Heartbeat_Variant_3_evicts 0 : 0 1 : 0 2 : 0 3 : 0 
Heartbeat CPU 0 instructions: 50000000 cycles: 13983271 heartbeat IPC: 3.5769 cumulative IPC: 3.5757 (Simulation time: 0 hr 8 min 36 sec) 

Warmup complete CPU 0 instructions: 50000004 cycles: 13983272 (Simulation time: 0 hr 8 min 36 sec) 

Cycle: 20000000 FTQ IN: 58340887 FTQ occupancy: 20.5825 DECODE IN: 58340793 DECODE occupancy: 53.5213 ROB IN: 58340733 ROB occupancy: 319.154 ROB OUT: 58340385
Heartbeat_Variant_0 : 1423 0.231608 per_variant_size: 0 1423 0 0 0 0 0 0 0 
Heartbeat_Variant_1 : 2963 0.482259 per_variant_size: 0 975 1988 0 0 0 0 0 0 
Heartbeat_Variant_2 : 0 0 per_variant_size: 0 0 0 0 0 0 0 0 0 
Heartbeat_Variant_3 : 0 0 per_variant_size: 0 0 0 0 0 0 0 0 0 
Heartbeat_Variant_0_evicts 0 : 5682 1 : 1 2 : 0 3 : 0 
Heartbeat_Variant_1_evicts 0 : 0 1 : 0 2 : 0 3 : 0 
Heartbeat_Variant_2_evicts 0 : 0 1 : 0 2 : 0 3 : 0 
Heartbeat_Variant_3_evicts 0 : 0 1 : 0 2 : 0 3 : 0 
Heartbeat CPU 0 instructions: 60000001 cycles: 21194304 heartbeat IPC: 1.38676 cumulative IPC: 1.38676 (Simulation time: 0 hr 10 min 36 sec) 
Heartbeat_Variant_0 : 1423 0.231608 per_variant_size: 0 1423 0 0 0 0 0 0 0 
Heartbeat_Variant_1 : 2963 0.482259 per_variant_size: 0 975 1988 0 0 0 0 0 0 
Heartbeat_Variant_2 : 0 0 per_variant_size: 0 0 0 0 0 0 0 0 0 
Heartbeat_Variant_3 : 0 0 per_variant_size: 0 0 0 0 0 0 0 0 0 
Heartbeat_Variant_0_evicts 0 : 5720 1 : 0 2 : 0 3 : 0 
Heartbeat_Variant_1_evicts 0 : 0 1 : 0 2 : 0 3 : 0 
Heartbeat_Variant_2_evicts 0 : 0 1 : 0 2 : 0 3 : 0 
Heartbeat_Variant_3_evicts 0 : 0 1 : 0 2 : 0 3 : 0 
Heartbeat CPU 0 instructions: 70000002 cycles: 28311258 heartbeat IPC: 1.4051 cumulative IPC: 1.39587 (Simulation time: 0 hr 12 min 35 sec) 
Cycle: 30000000 FTQ IN: 14026292 FTQ occupancy: 14.9537 DECODE IN: 14026246 DECODE occupancy: 38.6415 ROB IN: 14026246 ROB occupancy: 251.245 ROB OUT: 14026243
Heartbeat_Variant_0 : 1425 0.231934 per_variant_size: 0 1425 0 0 0 0 0 0 0 
Heartbeat_Variant_1 : 2970 0.483398 per_variant_size: 0 978 1992 0 0 0 0 0 0 
Heartbeat_Variant_2 : 0 0 per_variant_size: 0 0 0 0 0 0 0 0 0 
Heartbeat_Variant_3 : 0 0 per_variant_size: 0 0 0 0 0 0 0 0 0 
Heartbeat_Variant_0_evicts 0 : 5602 1 : 0 2 : 0 3 : 0 
Heartbeat_Variant_1_evicts 0 : 0 1 : 0 2 : 0 3 : 0 
Heartbeat_Variant_2_evicts 0 : 0 1 : 0 2 : 0 3 : 0 
Heartbeat_Variant_3_evicts 0 : 0 1 : 0 2 : 0 3 : 0 
Heartbeat CPU 0 instructions: 80000003 cycles: 35553909 heartbeat IPC: 1.38071 cumulative IPC: 1.39078 (Simulation time: 0 hr 14 min 36 sec) 
Cycle: 40000000 FTQ IN: 13795864 FTQ occupancy: 14.956 DECODE IN: 13795846 DECODE occupancy: 38.4812 ROB IN: 13795906 ROB occupancy: 249.995 ROB OUT: 13795911
Heartbeat_Variant_0 : 1465 0.238444 per_variant_size: 0 1465 0 0 0 0 0 0 0 
Heartbeat_Variant_1 : 3030 0.493164 per_variant_size: 0 960 2070 0 0 0 0 0 0 
Heartbeat_Variant_2 : 0 0 per_variant_size: 0 0 0 0 0 0 0 0 0 
Heartbeat_Variant_3 : 0 0 per_variant_size: 0 0 0 0 0 0 0 0 0 
Heartbeat_Variant_0_evicts 0 : 5641 1 : 14 2 : 0 3 : 0 
Heartbeat_Variant_1_evicts 0 : 7 1 : 0 2 : 0 3 : 0 
Heartbeat_Variant_2_evicts 0 : 0 1 : 0 2 : 0 3 : 0 
Heartbeat_Variant_3_evicts 0 : 0 1 : 0 2 : 0 3 : 0 
Heartbeat CPU 0 instructions: 90000003 cycles: 42739885 heartbeat IPC: 1.3916 cumulative IPC: 1.39098 (Simulation time: 0 hr 16 min 35 sec) 
Heartbeat_Variant_0 : 1465 0.238444 per_variant_size: 0 1465 0 0 0 0 0 0 0 
Heartbeat_Variant_1 : 3034 0.493815 per_variant_size: 0 970 2064 0 0 0 0 0 0 
Heartbeat_Variant_2 : 0 0 per_variant_size: 0 0 0 0 0 0 0 0 0 
Heartbeat_Variant_3 : 0 0 per_variant_size: 0 0 0 0 0 0 0 0 0 
Heartbeat_Variant_0_evicts 0 : 5650 1 : 1 2 : 0 3 : 0 
Heartbeat_Variant_1_evicts 0 : 2 1 : 0 2 : 0 3 : 0 
Heartbeat_Variant_2_evicts 0 : 0 1 : 0 2 : 0 3 : 0 
Heartbeat_Variant_3_evicts 0 : 0 1 : 0 2 : 0 3 : 0 
Heartbeat CPU 0 instructions: 100000000 cycles: 49975228 heartbeat IPC: 1.3821 cumulative IPC: 1.3892 (Simulation time: 0 hr 18 min 31 sec) 
Finished CPU 0 instructions: 50000000 cycles: 35991957 cumulative IPC: 1.3892 (Simulation time: 0 hr 18 min 31 sec) 

ChampSim completed all CPUs

Region of Interest Statistics

CPU 0 cumulative IPC: 1.3892 instructions: 50000000 cycles: 35991957
 Fetch stage stalled: 45.7414  Sim cycles: 35991957 fetch stall cycle: 16463240
 Empty decode stage: 24.4973  Sim cycles: 35991957 fetch stall cycle: 8817067
ITLB TOTAL     ACCESS:    5825269  HIT:    5335338  MISS:     489931  HIT %:    91.5896  MISS %:    8.41044   MPKI: 9.79862
ITLB LOAD TRANSLATION INSTRUCTION	ACCESS:    5692154  HIT:    5202223  MISS:     489931  HIT %:    91.3929  MISS %:    8.60713  MPKI: 9.79862
ITLB TRANSLATION FROM L1D PREFETCHER INSTRUCTION	ACCESS:     133115  HIT:     133115  MISS:          0  HIT %:        100  MISS %:          0  MPKI: 0

ITLB AVERAGE MISS LATENCY: 9.05443 cycles
ITLB RQ	ACCESS:    7925738	FORWARD:          0	MERGED:    1622109	TO_CACHE:    6303629

DTLB TOTAL     ACCESS:    8952699  HIT:    8484022  MISS:     468677  HIT %:     94.765  MISS %:    5.23504   MPKI: 9.37354
DTLB LOAD TRANSLATION DATA	ACCESS:    8952699  HIT:    8484022  MISS:     468677  HIT %:     94.765  MISS %:    5.23504  MPKI: 9.37354

DTLB AVERAGE MISS LATENCY: 9.34137 cycles
DTLB RQ	ACCESS:   13323538	FORWARD:          0	MERGED:    4335079	TO_CACHE:    8988459

STLB TOTAL     ACCESS:    1212055  HIT:    1210115  MISS:       1940  HIT %:    99.8399  MISS %:   0.160059   MPKI: 0.0388
STLB LOAD TRANSLATION INSTRUCTION	ACCESS:     489931  HIT:     489717  MISS:        214  HIT %:    99.9563  MISS %:  0.0436796  MPKI: 0.00428
STLB LOAD TRANSLATION DATA	ACCESS:     468677  HIT:     466973  MISS:       1704  HIT %:    99.6364  MISS %:   0.363577  MPKI: 0.03408
STLB TRANSLATION FROM L1D PREFETCHER DATA	ACCESS:     253447  HIT:     253425  MISS:         22  HIT %:    99.9913  MISS %: 0.00868032  MPKI: 0.00044

STLB AVERAGE MISS LATENCY: 80.7722 cycles
STLB RQ	ACCESS:    1334427	FORWARD:          0	MERGED:     122339	TO_CACHE:    1212088

STLB Hit, L1D data hit: 0
STLB Hit, L2C data hit: 0
STLB Hit, LLC data hit: 0
STLB Hit, LLC data miss: 0
STLB STLB hints to L2: 0
L1D TOTAL     ACCESS:   13079226  HIT:   11967925  MISS:    1111301  HIT %:    91.5033  MISS %:    8.49669   MPKI: 22.226
L1D LOAD DATA	ACCESS:    6545456  HIT:    5815014  MISS:     730442  HIT %:    88.8405  MISS %:    11.1595  MPKI: 14.6088
L1D RFO DATA	ACCESS:    6199226  HIT:    5913213  MISS:     286013  HIT %:    95.3863  MISS %:    4.61369  MPKI: 5.72026
L1D PREFETCH DATA	ACCESS:     334544  HIT:     239698  MISS:      94846  HIT %:    71.6492  MISS %:    28.3508  MPKI: 1.89692

L1D PREFETCH  REQUESTED:     752016  ISSUED:     752016  USEFUL:      34561  USELESS:      68144
L1D USEFUL LOAD PREFETCHES:      34561 PREFETCH ISSUED TO LOWER LEVEL:     102763  ACCURACY: 33.6318
 TIMELY PREFETCHES:      34561 LATE PREFETCHES: 7819 DROPPED PREFETCHES: 9
L1D AVERAGE MISS LATENCY: 231068 cycles
L1D RQ	ACCESS:   10701132	FORWARD:          0	MERGED:    3954103	TO_CACHE:    6581332
L1D WQ	ACCESS:    6939568	FORWARD:     166075	MERGED:     197362	TO_CACHE:    6742206
L1D PQ	ACCESS:     376197	FORWARD:          0	MERGED:          0	TO_CACHE:     375819

L1D UNIQUE REGIONS ACCESSED: 0
L1D REGIONS CONFLICTS: 0
L1D Cross Page Prefetch Requests: 7037
L1D Same Page Prefetch Requests: 756458
L1D ROI Sum of L1D PQ occupancy: 4778717
L1D PREFETCHES PUSHED FROM L2C: 0
L1I TOTAL     ACCESS:    7105192  HIT:    4358973  MISS:    2746219  HIT %:    61.3491  MISS %:    38.6509   MPKI: 54.9244
L1I LOAD INSTRUCTION	ACCESS:    6444131  HIT:    3697912  MISS:    2746219  HIT %:    57.3842  MISS %:    42.6158  MPKI: 54.9244
L1I PREFETCH INSTRUCTION	ACCESS:     661061  HIT:     661061  MISS:          0  HIT %:        100  MISS %:          0  MPKI: 0

L1I PREFETCH  REQUESTED:    1613494  ISSUED:    1613494  USEFUL:          0  USELESS:          0
L1I USEFUL LOAD PREFETCHES:          0 PREFETCH ISSUED TO LOWER LEVEL:          0  ACCURACY: -nan
 TIMELY PREFETCHES:          0 LATE PREFETCHES: 0 DROPPED PREFETCHES: 0
L1I AVERAGE MISS LATENCY: 17.2308 cycles
L1I RQ	ACCESS:    9557130	FORWARD:          0	MERGED:    2814542	TO_CACHE:    6742588
L1I PQ	ACCESS:    1613494	FORWARD:          0	MERGED:     430344	TO_CACHE:    1183150

L1BTB TOTAL     ACCESS:    5669357  HIT:    2060736  MISS:    3608621  HIT %:    36.3487  MISS %:    63.6513   MPKI: 72.1724
L1BTB BRANCH_DIRECT_JUMP	ACCESS:     549973 HIT:     146585 MISS:     403388 AVERAGE STALL: 57.3607 AVERAGE FETCH STALL: 13.3268 AVERAGE FETCH QUEUE STALL: 20.8167 AVERAGE DECODE STALL: 22.307 AVERAGE EXECUTE STALL: 2.11497e+15
L1BTB BRANCH_INDIRECT	ACCESS:     183898 HIT:      66780 MISS:     117118 AVERAGE STALL: 111.008 AVERAGE FETCH STALL: 10.7849 AVERAGE FETCH QUEUE STALL: 17.3178 AVERAGE DECODE STALL: 13.3699 AVERAGE EXECUTE STALL: 68.5751
L1BTB BRANCH_CONDITIONAL	ACCESS:    2722644 HIT:    1434747 MISS:    1287897 AVERAGE STALL: 95.439 AVERAGE FETCH STALL: 24.1703 AVERAGE FETCH QUEUE STALL: 44.4882 AVERAGE DECODE STALL: 26.1679 AVERAGE EXECUTE STALL: 4.47628e+15
L1BTB BRANCH_DIRECT_CALL	ACCESS:     936160 HIT:     104183 MISS:     831977 AVERAGE STALL: 58.8407 AVERAGE FETCH STALL: 23.6556 AVERAGE FETCH QUEUE STALL: 16.5213 AVERAGE DECODE STALL: 17.7028 AVERAGE EXECUTE STALL: 1.70803e+16
L1BTB BRANCH_INDIRECT_CALL	ACCESS:     170255 HIT:      20610 MISS:     149645 AVERAGE STALL: 141.526 AVERAGE FETCH STALL: 12.2745 AVERAGE FETCH QUEUE STALL: 18.0681 AVERAGE DECODE STALL: 11.7872 AVERAGE EXECUTE STALL: 98.9089
L1BTB BRANCH_RETURN	ACCESS:    1106427 HIT:     287831 MISS:     818596 AVERAGE STALL: 49.8078 AVERAGE FETCH STALL: 17.4518 AVERAGE FETCH QUEUE STALL: 5.11436 AVERAGE DECODE STALL: 5.97466 AVERAGE EXECUTE STALL: 4.38926e+14
L1BTB BRANCH_OTHER ACCESS:          0 HIT:          0 MISS:          0 AVERAGE STALL: -nan AVERAGE FETCH STALL: -nan AVERAGE FETCH QUEUE STALL: -nan AVERAGE DECODE STALL: -nan AVERAGE EXECUTE STALL: -nan
L1BTB TOTAL ROB OCCUPANCY AT BTB MISS: 2.65571

L2BTB TOTAL     ACCESS:    3583012  HIT:    3519663  MISS:      63349  HIT %:     98.232  MISS %:    1.76804   MPKI: 1.26698
L2BTB BRANCH_DIRECT_JUMP	ACCESS:     399104 HIT:     394657 MISS:       4447 AVERAGE STALL: 57.3607 AVERAGE FETCH STALL: 13.3268 AVERAGE FETCH QUEUE STALL: 20.8167 AVERAGE DECODE STALL: 22.307 AVERAGE EXECUTE STALL: 2.11497e+15
L2BTB BRANCH_INDIRECT	ACCESS:     106878 HIT:     104256 MISS:       2622 AVERAGE STALL: 111.008 AVERAGE FETCH STALL: 10.7849 AVERAGE FETCH QUEUE STALL: 17.3178 AVERAGE DECODE STALL: 13.3699 AVERAGE EXECUTE STALL: 68.5751
L2BTB BRANCH_CONDITIONAL	ACCESS:    1287897 HIT:    1283729 MISS:       4168 AVERAGE STALL: 95.439 AVERAGE FETCH STALL: 24.1703 AVERAGE FETCH QUEUE STALL: 44.4882 AVERAGE DECODE STALL: 26.1679 AVERAGE EXECUTE STALL: 4.47628e+15
L2BTB BRANCH_DIRECT_CALL	ACCESS:     831977 HIT:     830882 MISS:       1095 AVERAGE STALL: 58.8407 AVERAGE FETCH STALL: 23.6556 AVERAGE FETCH QUEUE STALL: 16.5213 AVERAGE DECODE STALL: 17.7028 AVERAGE EXECUTE STALL: 1.70803e+16
L2BTB BRANCH_INDIRECT_CALL	ACCESS:     139960 HIT:     129593 MISS:      10367 AVERAGE STALL: 141.526 AVERAGE FETCH STALL: 12.2745 AVERAGE FETCH QUEUE STALL: 18.0681 AVERAGE DECODE STALL: 11.7872 AVERAGE EXECUTE STALL: 98.9089
L2BTB BRANCH_RETURN	ACCESS:     817196 HIT:     776546 MISS:      40650 AVERAGE STALL: 49.8078 AVERAGE FETCH STALL: 17.4518 AVERAGE FETCH QUEUE STALL: 5.11436 AVERAGE DECODE STALL: 5.97466 AVERAGE EXECUTE STALL: 4.38926e+14
L2BTB BRANCH_OTHER ACCESS:          0 HIT:          0 MISS:          0 AVERAGE STALL: -nan AVERAGE FETCH STALL: -nan AVERAGE FETCH QUEUE STALL: -nan AVERAGE DECODE STALL: -nan AVERAGE EXECUTE STALL: -nan
L2BTB TOTAL ROB OCCUPANCY AT BTB MISS: 151.28

L2C TOTAL     ACCESS:    4466098  HIT:    3987077  MISS:     479021  HIT %:    89.2743  MISS %:    10.7257   MPKI: 9.58042
L2C LOAD INSTRUCTION	ACCESS:    2746219  HIT:    2492401  MISS:     253818  HIT %:    90.7575  MISS %:    9.24245  MPKI: 5.07636
L2C LOAD TRANSLATION INSTRUCTION	ACCESS:        247  HIT:         61  MISS:        186  HIT %:    24.6964  MISS %:    75.3036  MPKI: 0.00372
L2C LOAD DATA	ACCESS:     722593  HIT:     639403  MISS:      83190  HIT %:    88.4873  MISS %:    11.5127  MPKI: 1.6638
L2C RFO DATA	ACCESS:     285893  HIT:     234637  MISS:      51256  HIT %:    82.0716  MISS %:    17.9284  MPKI: 1.02512
L2C PREFETCH DATA	ACCESS:     190146  HIT:     115943  MISS:      74203  HIT %:    60.9758  MISS %:    39.0242  MPKI: 1.48406
L2C WRITEBACK DATA	ACCESS:     519194  HIT:     504143  MISS:      15051  HIT %:    97.1011  MISS %:    2.89892  MPKI: 0.30102
L2C LOAD TRANSLATION DATA	ACCESS:       1761  HIT:        458  MISS:       1303  HIT %:     26.008  MISS %:     73.992  MPKI: 0.02606
L2C TRANSLATION FROM L1D PREFETCHER DATA	ACCESS:         45  HIT:         31  MISS:         14  HIT %:    68.8889  MISS %:    31.1111  MPKI: 0.00028

L2C PREFETCH  REQUESTED:      95855  ISSUED:      95855  USEFUL:       7641  USELESS:      67272
L2C USEFUL LOAD PREFETCHES:       7641 PREFETCH ISSUED TO LOWER LEVEL:      74746  ACCURACY: 10.2226
 TIMELY PREFETCHES:       7641 LATE PREFETCHES: 543 DROPPED PREFETCHES: 0
L2C AVERAGE MISS LATENCY: 39.345 cycles
L2C RQ	ACCESS:    3756815	FORWARD:          0	MERGED:          0	TO_CACHE:    3756763
L2C WQ	ACCESS:     519194	FORWARD:         53	MERGED:          0	TO_CACHE:     519194
L2C PQ	ACCESS:     198618	FORWARD:          0	MERGED:       3560	TO_CACHE:     195057

L2C Dense regions hint from L2: 0
PSCL5 TOTAL     ACCESS:       3904  HIT:       1952  MISS:       1952  HIT %:         50  MISS %:         50   MPKI: 0.03904
PSCL5 LOAD TRANSLATION INSTRUCTION	ACCESS:       3814  HIT:       1907  MISS:       1907  HIT %:         50  MISS %:         50  MPKI: 0.03814
PSCL5 TRANSLATION FROM L1D PREFETCHER INSTRUCTION	ACCESS:         90  HIT:         45  MISS:         45  HIT %:         50  MISS %:         50  MPKI: 0.0009


PSCL4 TOTAL     ACCESS:       3853  HIT:       1924  MISS:       1929  HIT %:    49.9351  MISS %:    50.0649   MPKI: 0.03858
PSCL4 LOAD TRANSLATION INSTRUCTION	ACCESS:       2305  HIT:       1885  MISS:        420  HIT %:    81.7787  MISS %:    18.2213  MPKI: 0.0084
PSCL4 TRANSLATION FROM L1D PREFETCHER INSTRUCTION	ACCESS:         43  HIT:         39  MISS:          4  HIT %:    90.6977  MISS %:    9.30233  MPKI: 8e-05
PSCL4 LOAD TRANSLATION DATA	ACCESS:       1470  HIT:          0  MISS:       1470  HIT %:          0  MISS %:        100  MPKI: 0.0294
PSCL4 TRANSLATION FROM L1D PREFETCHER DATA	ACCESS:         35  HIT:          0  MISS:         35  HIT %:          0  MISS %:        100  MPKI: 0.0007


PSCL3 TOTAL     ACCESS:       3855  HIT:       1925  MISS:       1930  HIT %:    49.9351  MISS %:    50.0649   MPKI: 0.0386
PSCL3 LOAD TRANSLATION INSTRUCTION	ACCESS:       2306  HIT:       1886  MISS:        420  HIT %:    81.7866  MISS %:    18.2134  MPKI: 0.0084
PSCL3 TRANSLATION FROM L1D PREFETCHER INSTRUCTION	ACCESS:         43  HIT:         39  MISS:          4  HIT %:    90.6977  MISS %:    9.30233  MPKI: 8e-05
PSCL3 LOAD TRANSLATION DATA	ACCESS:       1471  HIT:          0  MISS:       1471  HIT %:          0  MISS %:        100  MPKI: 0.02942
PSCL3 TRANSLATION FROM L1D PREFETCHER DATA	ACCESS:         35  HIT:          0  MISS:         35  HIT %:          0  MISS %:        100  MPKI: 0.0007


PSCL2 TOTAL     ACCESS:       3811  HIT:       1859  MISS:       1952  HIT %:    48.7798  MISS %:    51.2202   MPKI: 0.03904
PSCL2 LOAD TRANSLATION INSTRUCTION	ACCESS:       2032  HIT:       1814  MISS:        218  HIT %:    89.2717  MISS %:    10.7283  MPKI: 0.00436
PSCL2 TRANSLATION FROM L1D PREFETCHER INSTRUCTION	ACCESS:         45  HIT:         45  MISS:          0  HIT %:        100  MISS %:          0  MPKI: 0
PSCL2 LOAD TRANSLATION DATA	ACCESS:       1689  HIT:          0  MISS:       1689  HIT %:          0  MISS %:        100  MPKI: 0.03378
PSCL2 TRANSLATION FROM L1D PREFETCHER DATA	ACCESS:         45  HIT:          0  MISS:         45  HIT %:          0  MISS %:        100  MPKI: 0.0009


LLC TOTAL     ACCESS:     538037  HIT:     507244  MISS:      30793  HIT %:    94.2768  MISS %:    5.72321   MPKI: 0.61586
LLC LOAD INSTRUCTION	ACCESS:     253818  HIT:     252667  MISS:       1151  HIT %:    99.5465  MISS %:   0.453475  MPKI: 0.02302
LLC LOAD TRANSLATION INSTRUCTION	ACCESS:        186  HIT:        155  MISS:         31  HIT %:    83.3333  MISS %:    16.6667  MPKI: 0.00062
LLC LOAD DATA	ACCESS:      82677  HIT:      79128  MISS:       3549  HIT %:    95.7074  MISS %:    4.29261  MPKI: 0.07098
LLC RFO DATA	ACCESS:      51220  HIT:      35464  MISS:      15756  HIT %:    69.2386  MISS %:    30.7614  MPKI: 0.31512
LLC PREFETCH DATA	ACCESS:      74746  HIT:      64965  MISS:       9781  HIT %:    86.9143  MISS %:    13.0857  MPKI: 0.19562
LLC WRITEBACK DATA	ACCESS:      74073  HIT:      73635  MISS:        438  HIT %:    99.4087  MISS %:   0.591309  MPKI: 0.00876
LLC LOAD TRANSLATION DATA	ACCESS:       1303  HIT:       1216  MISS:         87  HIT %:    93.3231  MISS %:     6.6769  MPKI: 0.00174
LLC TRANSLATION FROM L1D PREFETCHER DATA	ACCESS:         14  HIT:         14  MISS:          0  HIT %:        100  MISS %:          0  MPKI: 0

LLC AVERAGE MISS LATENCY: 158.636 cycles
LLC RQ	ACCESS:     389225	FORWARD:          0	MERGED:          0	TO_CACHE:     389219
LLC WQ	ACCESS:      74073	FORWARD:          6	MERGED:          0	TO_CACHE:      74073
LLC PQ	ACCESS:      74746	FORWARD:          0	MERGED:          0	TO_CACHE:      74746

LLC Dense regions hint to LLC: 0

RAW hits: 1942626
Loads Generated: 12643760
Loads sent to L1D: 10701132
Stores Generated: 6939563
Stores sent to L1D: 6939568
Major fault: 0 Minor fault: 2579
Allocated PAGES: 2579

stream: 
stream:times selected: 1197048
stream:pref_filled: 121253
stream:pref_useful: 24005
stream:pref_late: 6904
stream:misses: 8061
stream:misses_by_poll: 0

CS: 
CS:times selected: 180629
CS:pref_filled: 59809
CS:pref_useful: 36466
CS:pref_late: 7040
CS:misses: 16605
CS:misses_by_poll: 6

CPLX: 
CPLX:times selected: 1015241
CPLX:pref_filled: 19319
CPLX:pref_useful: 4476
CPLX:pref_late: 3201
CPLX:misses: 93326
CPLX:misses_by_poll: 0

NL_L1: 
NL:times selected: 21059
NL:pref_filled: 802
NL:pref_useful: 362
NL:pref_late: 281
NL:misses: 1840
NL:misses_by_poll: 0

total selections: 2413977
total_filled: 94846
total_useful: 34561
total_late: 18617
total_polluted: 6
total_misses_after_warmup: 766320
conflicts: 5506035

test: 115555

DRAM Statistics
 CHANNEL 0
 RQ ROW_BUFFER_HIT:      11492  ROW_BUFFER_MISS:      18838
 DBUS_CONGESTED:         14
 WQ ROW_BUFFER_HIT:       1628  ROW_BUFFER_MISS:      13368  FULL:          0

 AVG_CONGESTED_CYCLE: 6

CPU 0 Branch Prediction Accuracy: 99.8178% MPKI: 0.33282 Average ROB Occupancy at Mispredict: 194.049
Branch types
NOT_BRANCH: 40864494 81.729%
BRANCH_DIRECT_JUMP: 549973 1.09995%
BRANCH_INDIRECT: 183898 0.367796%
BRANCH_CONDITIONAL: 6188728 12.3775%
BRANCH_DIRECT_CALL: 936160 1.87232%
BRANCH_INDIRECT_CALL: 170255 0.34051%
BRANCH_RETURN: 1106427 2.21285%
BRANCH_OTHER: 0 0%

DRAM PAGES: 1048576
Allocated PAGES: 2579
Average_ROB_Occupancy: 251.745
Average_Decode_Occupancy: 38.4636
Average_FTQ_Occupancy: 14.9476
Indirect max targets: 14 Average targets: 1.15512
Branch_type:  BRANCH_DIRECT_JUMP:  Count Percentage: 3.81452 5.04709 4.48423 3.571 4.03112 11.6196 1.39891 66.0336 
Branch_type:  BRANCH_INDIRECT:  Count Percentage: 11.744 3.44635 2.599 7.3176 3.33406 31.1973 3.18579 37.1759 
Branch_type:  BRANCH_CONDITIONAL:  Count Percentage: 21.9856 2.47386 1.54034 4.42129 1.95136 8.1984 0.849434 58.5797 
Branch_type:  BRANCH_DIRECT_CALL:  Count Percentage: 0.390743 1.7301 0.767127 1.94994 3.34003 4.96463 0.82844 86.029 
Branch_type:  BRANCH_INDIRECT_CALL:  Count Percentage: 9.56434 0 2.99583 4.26963 0.000585924 1.71178 1.00281 80.455 
Branch_type:  BRANCH_RETURN:  Count Percentage: 3.95613 1.97998 1.04306 4.53885 2.46794 9.66459 1.26832 75.0811 
Branch_type:  BRANCH_DIRECT_JUMP:  Total Count: 41807 55316 49147 39138 44181 127350 15332 723726 
Branch_type:  BRANCH_INDIRECT:  Total Count: 43090 12645 9536 26849 12233 114466 11689 136402 
Branch_type:  BRANCH_CONDITIONAL:  Total Count: 2718430 305882 190456 546674 241278 1013698 105029 7243135 
Branch_type:  BRANCH_DIRECT_CALL:  Total Count: 7348 32535 14426 36669 62810 93361 15579 1617794 
Branch_type:  BRANCH_INDIRECT_CALL:  Total Count: 32647 0 10226 14574 2 5843 3423 274626 
Branch_type:  BRANCH_RETURN:  Total Count: 87933 44009 23184 100885 54855 214815 28191 1668829 
Number of unique branch instructions: 10259
Upper 32 bits: 
aaaa
ffff
ffff0000
Unique upper 32 bits: 3
Unique upper 36 bits: 3
Unique upper 40 bits: 5
Unique upper 44 bits: 32
Unique upper 48 bits: 157
Variant_0 : 1465 0.238444
Variant_1 : 3034 0.493815
Variant_2 : 0 0
Variant_3 : 0 0
Offset_3 4221
Offset_4 266
Offset_5 472
Offset_6 520
Offset_7 604
Offset_8 534
Offset_9 489
Offset_10 397
Offset_11 324
Offset_12 297
Offset_13 214
Offset_14 231
Offset_15 193
Offset_16 230
Offset_17 156
Offset_18 126
Offset_19 246
Offset_20 144
Offset_21 261
Offset_22 398
Offset_23 241
Offset_24 353
Offset_25 88
Offset_47 86
decode_dispatch_called: 26521092 73.6862
Dispatch_width: 0 14315459 53.9776 39.7741
Dispatch_width: 1 1035305 3.9037 2.87649
Dispatch_width: 2 861161 3.24708 2.39265
Dispatch_width: 3 496564 1.87234 1.37965
Dispatch_width: 4 6510590 24.5487 18.089
Dispatch_width: 5 101757 0.383683 0.282721
Dispatch_width: 6 3200256 12.0668 8.89159
Empty_decode_cycles: 9470865 26.3138
ROB_full_cycles: 10322783 28.6808
Starvation_cycles_per_kilo_instr: 224.689
Starvation_cycles_per_kilo_instr_3: 158.566
Starvation_cycles_per_kilo_instr_0: 134.635
Branch_type_1  (3,1)  (4,10)  (5,39)  (6,72)  (7,119)  (8,133)  (9,130)  (10,101)  (11,72)  (12,51)  (13,8)  (14,2)  (15,3)  (16,4)  (18,1)  (19,4)  (20,2)  (21,1)  (22,3)  (23,2)  (24,10)  (25,12) 
Branch_type_2  (3,1)  (5,1)  (8,3)  (9,3)  (12,1)  (13,1)  (14,1)  (16,3)  (17,2)  (20,2)  (21,2)  (23,5)  (24,1)  (47,40) 
Branch_type_3  (3,4219)  (4,256)  (5,428)  (6,432)  (7,452)  (8,336)  (9,269)  (10,160)  (11,133)  (12,59)  (13,7) 
Branch_type_4  (6,4)  (7,8)  (8,26)  (9,55)  (10,63)  (11,62)  (12,102)  (13,91)  (14,103)  (15,92)  (16,103)  (17,71)  (18,57)  (19,119)  (20,74)  (21,141)  (22,213)  (23,136)  (24,203)  (25,72) 
Branch_type_5  (8,2)  (9,1)  (10,4)  (11,5)  (12,3)  (13,14)  (14,16)  (15,11)  (16,20)  (17,11)  (18,16)  (19,13)  (20,11)  (21,13)  (22,42)  (23,26)  (24,41) 
Branch_type_6  (5,4)  (6,12)  (7,25)  (8,34)  (9,31)  (10,69)  (11,52)  (12,81)  (13,93)  (14,109)  (15,87)  (16,100)  (17,72)  (18,52)  (19,110)  (20,55)  (21,104)  (22,140)  (23,72)  (24,98)  (25,4)  (47,46) 
Unique trigger count: 
Variant_0_evicts_0 : 0
Variant_0_evicts_1 : 0
Variant_0_evicts_2 : 0
Variant_0_evicts_3 : 0
Variant_1_evicts_0 : 0
Variant_1_evicts_1 : 0
Variant_1_evicts_2 : 0
Variant_1_evicts_3 : 0
Variant_2_evicts_0 : 0
Variant_2_evicts_1 : 0
Variant_2_evicts_2 : 0
Variant_2_evicts_3 : 0
Variant_3_evicts_0 : 0
Variant_3_evicts_1 : 0
Variant_3_evicts_2 : 0
Variant_3_evicts_3 : 0
BTB PER SET UNIQUE ADDR: 6 6 5 6 8 4 5 5 4 6 8 5 4 5 3 9 3 3 5 4 5 5 4 6 5 4 4 4 6 6 7 6 6 7 5 6 5 3 5 4 5 5 7 8 4 3 3 8 9 5 7 6 6 4 6 7 6 5 5 4 6 4 5 6 6 4 6 4 5 3 5 5 6 7 6 4 4 6 6 6 6 7 5 6 6 5 4 4 4 4 5 5 4 7 5 3 6 8 6 7 6 6 6 7 4 7 5 4 4 6 5 5 7 8 5 3 5 5 5 6 3 6 5 6 8 5 4 6 8 4 5 7 6 4 5 5 5 2 6 6 5 5 5 6 3 6 5 6 5 6 7 3 5 6 5 6 4 3 5 6 3 5 4 8 4 9 5 6 3 6 6 2 7 5 7 6 5 4 5 5 5 3 6 6 4 5 6 5 6 8 5 8 4 7 5 5 5 4 6 5 7 8 7 5 7 8 5 5 5 7 7 7 7 5 3 4 5 4 6 5 4 6 5 6 4 2 5 6 5 4 8 4 6 6 3 6 5 6 5 5 8 7 7 6 6 4 8 4 6 5 6 5 3 5 4 5 4 3 5 5 6 4 4 3 6 6 6 5 4 7 7 4 6 5 6 5 9 4 6 8 4 6 2 6 6 6 6 6 4 4 5 7 5 4 3 6 7 6 5 4 6 4 3 6 5 4 6 6 7 6 4 5 7 2 5 6 6 7 6 5 7 5 7 4 6 6 6 5 6 5 5 4 3 3 3 8 7 3 7 6 6 5 7 4 5 4 4 3 5 7 5 7 4 6 6 7 5 7 4 6 5 6 4 5 4 6 5 5 5 5 3 5 6 4 5 6 6 5 3 5 7 5 5 4 3 7 4 8 6 5 5 6 6 8 3 5 8 6 5 5 9 7 7 6 6 4 3 6 8 6 5 4 9 8 8 6 5 5 7 5 4 3 5 6 6 7 4 4 8 7 6 5 7 4 6 4 6 5 3 6 5 3 6 5 4 5 2 6 6 5 7 5 6 4 5 3 6 4 6 5 7 4 3 7 3 5 7 6 5 4 6 6 8 7 7 4 7 4 4 6 6 4 6 6 6 5 5 6 7 4 5 5 5 6 6 7 7 5 6 5 7 4 5 6 6 7 3 4 7 5 3 4 5 4 3 3 6 2 4 4 5 5 3 4 4 4 1 5 2 4 4 3 7 3 5 4 3 3 3 5 5 5 5 3 4 5 5 4 2 3 3 5 3 5 5 4 5 2 5 3 3 4 4 4 4 3 4 4 4 1 3 2 1 1 4 4 5 3 4 4 3 3 3 3 4 2 3 3 4 3 4 3 3 3 2 7 5 5 5 4 5 4 2 3 2 3 4 2 4 3 5 3 4 4 1 3 4 5 4 3 4 2 5 4 5 6 3 5 4 2 2 2 5 3 3 4 4 3 5 3 4 6 1 4 4 4 4 3 5 2 4 4 3 4 3 3 7 4 5 2 5 5 4 5 4 3 3 3 6 5 4 4 3 6 4 4 2 6 5 7 5 4 2 3 5 3 2 6 5 3 5 1 4 4 4 4 5 2 6 7 5 3 3 2 5 3 2 3 5 4 7 2 3 6 5 3 4 5 3 3 4 4 2 4 7 4 5 4 2 4 4 2 6 3 5 4 4 5 2 6 3 5 6 6 4 2 5 2 4 5 3 3 3 3 6 5 3 2 2 4 5 5 6 3 2 5 4 3 4 5 4 2 3 3 7 2 4 5 2 3 3 4 5 4 3 3 4 3 4 5 4 4 5 4 7 3 5 3 4 5 4 4 5 3 3 5 5 3 5 6 4 3 1 2 3 4 5 2 4 5 5 3 6 2 3 1 3 3 4 6 4 5 3 7 6 4 5 5 3 4 4 4 5 5 3 6 5 3 3 2 6 5 4 4 6 4 3 3 3 3 3 6 3 5 5 3 3 1 4 5 5 2 4 4 4 4 2 3 3 6 5 5 4 4 5 4 4 2 4 1 5 2 2 1 2 6 3 4 5 1 4 2 5 5 3 1 5 5 4 4 4 4 4 5 3 5 2 4 4 4 4 4 4 4 4 3 5 4 4 6 1 5 5 4 4 3 4 2 2 3 6 5 6 5 4 2 3 2 6 5 4 5 4 5 6 3 4 4 3 2 3 3 5 4 3 4 5 3 3 5 4 4 4 4 3 6 3 4 3 4 4 4 3 5 5 2 3 4 4 3 3 2 4 5 6 4 2 3 4 6 5 3 6 4 4 5 4 4 3 4 4 5 6 5 5 5 4 4 4 3 3 5 5 4 5 3 5 6 4 2 3 2 3 3 3 5 5 3 2 3 3 3 3 6 5 2 3 4 4 4 3 3 5 4 3 4 5 6 2 3 5 4 8 3 3 4 4 4 4 4 4 5 5 5 6 3 3 4 2 4 7 3 4 4 3 3 5 2 2 3 5 5 4 6 4 4 3 6 4 3 5 4 5 6 4 6 3 6 3 2 6 4 5 1 4 5 7 5 3 6 4 5 3 5 5 7 3 6 5 3 5 5 6 1 4 3 4 2 5 4 4 8 4 2 3 4 2 4 5 6 6 4 3 1 2 4 5 3 4 2 6 4 6 3 3 3 7 5 4 4 4 3 5 5 2 4 4 3 3 4 5 2 4 5 5 3 5 3 3 5 3 3 4 1 5 5 5 5 2 1 3 2 2 1 4 4 3 2 5 3 4 5 5 3 6 4 4 4 5 6 6 2 4 5 3 4 2 5 6 1 5 3 5 4 5 5 4 5 3 5 3 4 7 4 6 3 4 4 3 4 3 6 5 3 3 4 5 4 3 7 4 4 4 6 4 5 5 4 4 4 5 4 5 2 3 6 4 3 4 5 5 6 5 4 5 5 5 2 4 4 4 3 4 5 3 5 4 5 3 5 3 4 5 4 4 6 4 3 7 5 3 6 7 2 4 3 5 3 2 3 6 5 5 4 4 1 3 6 6 3 2 3 6 4 3 3 6 4 4 4 4 5 3 4 7 6 4 3 5 4 2 3 5 5 4 2 5 3 5 4 5 3 4 5 4 5 6 6 5 6 4 5 2 6 6 5 6 5 2 4 4 2 4 3 5 4 3 5 3 3 3 3 3 4 2 5 4 4 2 3 3 3 4 4 5 4 4 4 5 4 4 6 5 6 4 2 1 2 2 4 5 4 3 6 4 2 2 6 3 6 4 4 4 6 3 3 7 5 5 4 4 5 4 2 3 4 5 5 5 5 3 3 3 2 3 6 4 3 4 5 5 4 6 6 8 3 4 6 4 5 2 2 5 3 6 4 3 4 6 5 5 5 5 5 6 5 5 6 5 4 4 4 2 3 5 6 3 3 3 3 3 3 4 5 6 2 3 4 5 4 6 4 3 5 4 4 7 4 2 6 4 2 4 5 4 4 4 4 4 4 3 4 4 3 4 5 
BTB PER SET COUNT: 6 2930 5 6 11 4 6 5 4 6 9 5 4 5 3 9 3 5 5 4 5 5 4 7 507 4 4 6 6 461 2928 6 9 8 5 6 5 3 5 5 5 5 7 2428 5 3 505 10 179 6 8 6 509 4 7 8 6 1510 5 4 964 5 5 11 6 4 6 5 5 1461 5 5 8 7 6 285 4 6 7 6 6 7 5 7 6 8 5 4 5 1007 135 5 4 8 5 3 7 9 6 7 7 7 7 1467 4 965 5 4 4 8 5 6 9 10 5 3 5 9 11 6 3 6 2345 10 8 7 4 12 756 5 5 162 8 4 5 5 6 2 7 1009 729 17 5 6 3 6 5 6 6 22 7 3 5 6 5 1927 4 3 5 6 5 5 4 8 4 9 5 6 3 7 6 2 100 11 8 6 5 4 6 5 7 3 7 7 5 5 6 5 6 8 461 10 4 8 7 5 5 1007 6 5 13 8 9 6 11 9 5 6 46 7 7 12 9 5 3 5 5 5 6 5 4 6 5 462 5 2 5 511 5 4 288 4 6 7 3 12 5 6 5 5 8 7 1464 508 8 4 7907 209 6 5 1088 5 3 7 4 5 1464 3 6 5 6 5 4 3 8 6 7 5 4 7 33 4 8 7 6 5 1011 6 14 8 6 6 2 1510 73 6 6 6 911 4 5 7 5 6 3 6 9 6 7 4 6 5 3 7 7 5 8 6 8 6 4 5 8 2 6 6 7 7 6 5 7 6 163 4 6 6 7 5 6 7 5 4 20463 3 3 9 11 3 8 6 6 6 7 4 5 4 6 4 153 11 5 8 4 6 6 7 6 1511 6 144 5 6 4 7 14613 6 6 5 5 6 3 16 6 4 7 7 1467 5 3 5 7 5 229 4 3 13 4 8 7 5 6 6 7 8 3 6 1806 529 7 5 13 7 7 387 6 4 5 7 8 6 8 6 10 8 9 6 5 33 7 5 4 3 6 508 6 7 4 4 679 7 6 5 7 4 6 1006 6 14 3013 9 6 123 9 5 4 5 2 11 7 8 7 5 6 5 5 3 6 4 6 1053 8 1008 3 8 3 1465 9 6 5 4 6 7 9 10 7 4 8 4 4 7 6 4 6 8 150 11 5 6 10 4 1510 7 11 6 9 7 1140 12 6 5 9 5 6 6 1346 7 3 4 8 5 3 4 5 2011 3 3 6 504 4 4 5 5 3 4 4 5 1 386 2 6 6 3 7 9 31 4 3 95 3 5 6 6 7 3 4 1466 5 4 2 3 3 1492 1006 6 5 4 5 2 5 5 1008 5 6 5 4 3 2009 7 4 1 3 2 1 1 4 4 6 4 4 5 6 3 3 3 8 2 3 3 4 3 4 5 6 3 2 1469 5 5 5 4 5 4 2 5 3 3 5 2 4 3 5 4 968 4 1 3 1464 7 4 3 4 2 5 6 6 6 4 5 5 2 2 2 5 4 3 4 4 3 5 3 7 6 1 4 7 4 4 4 6 1005 4 718 3 4 3 3 7 4 5 2 5 5 4 7 4 504 3 3 6 6 4 4 3 8 4 1464 2 7 7 386 5 4 2 3 5 3 2 6 5 3 5 1 4 4 4 4 5 3 7 9 5 3 3 2 5 5 2 4 5 4 7 2 3 7 5 288 5 7 3 3 4 4 2 4 7 5 9 4 2 5 4 2 10 3 6 5 4 7 2 1478 4 5 7 6 5 2 5 2 10 5 3 3 3 3 1009 5 3 3 229 5 5 5 6 3 2 5 4 2924 4 8 6 2 4 3 7 2 7 5 2 3 3 4 5 5 3 3 4 4 248 5 9 5 6 5 9 3 5 5 5 5 4 4 5 3 3 6 5 3 5 10 4 3 1 2 5 4 5 2 5 5 5 3 6 2 3 1 3 3 5 519 4 5 3 965 7 4 5 5 3 4 13 820 1008 5 3 6 967 3 3 2 6 964 4 4 6 4 3 3 3 4 3 8 3 5 508 3 3 1 5 5 5 2 125 5 4 4 2 3 3 6 5 5 56 4 7 6 1009 3 4 1 5 2 2 3 4 8 3 4 5 1 4 2 5 5 4 1 7 5 4 1010 4 4 7 5 3 5 2 4 4 5 4 963 4 4 4 6 1468 4 5 7 1 5 6 4 6 4 4 960 2 3 6 2925 8 5 4 2 3 3 10 6 4 5 6 5 1009 3 4 4 2010 2 3 3 5 4 3 4 508 3 3 5 5 4 5 9 3 8 3 5 3 8 1461 4 3 6 5 2 3 47 4 3 3 2 4 5 6 6 2 3 4 96 6 4 9 4 4 5 4 1464 3 505 4 7 9 5 6 5 5 5 6 3 3 5 6 4 5 3 5 461 4 2 4 2 3 5 3 691 7 3 2 3 3 3 4 7 6 2 3 4 4 4 3 3 7 5 3 4 6 440 2 4 6 4 9 3 3 6 5 4 4 5 5 441 5 7 7 3 4 4 2 8 7 3 4 962 3 3 13 2 2 6 7 7 4 8 4 4 12 6 4 3 5 5 7 2427 385 367 4 6 3 2 387 4 5 1 4 6 7 25 4 7 5 5 3 5 6 9 4 7 5 3 5 6 6 1 4 3 5 2 7 4 4 9 5 2 3 4 2 1007 7 9 6 4 3 1 2 4 5 3 4 2 6 4 6 3 3 3 7 7 4 4 4 3 5 9 2 4 4 3 5 4 1465 2 4 5 5 3 6 3 3 6 3 3 7 1 1935 507 5 5 94 1 3 2 2 1 4 7 3 2 5 385 1464 5 7 3 251 6 5 5 5 6 616 2 4 5 3 4 2 5 1467 1 963 3 5 4 8 16 6 7 3 5 6 4 7 9 8 3 4 4 4 4 3 133 5 24 3 4 7 4 3 8 4 83 4 9 962 5 5 4 5 242 5 4 5 2 3 7 5 3 4 7 6 6 5 4 5 8 5 2 4 4 4 3 4 5 3 5 4 5 4 1009 7 4 9 7 4 13 4 5 7 5 3 7 7 2 4 3 7 3 2 3 7 6 5 1008 4 1 3 1245 6 3 2 3 6 4 3 3 8 5 4 387 4 5 3 4 1468 7 5 3 48 5 2 3 5 6 918 3 5 3 5 4 23 3 4 5 4 5 7 9 5 7 4 5 2 7 7 5 7 5 2 506 4 2 4 4 7 4 3 5 5 4 3 3 3 4 2 6 6 4 2 3 3 3 4 4 5 4 4 6 5 49 4 8 5 1467 8 2 1 206 2 218 5 4 5 6 4 2 2 8 3 2425 4 4 4 2882 3 3 7 6 6 5 4 6 5 2 3 5 8 506 5 5 3 4 3 2 3 6 4 3 4 5 8 4 8 6 9 3 5 10 4 5 2 2 5 3 6 4 3 4 14 507 6 5 963 5 7 7 5 9 5 4 4 4 2 3 5 6 3 3 4 4 261 961 6 5 6 2 3 5 5 5 7 4 3 5 5 4 8 4 2 6 4 2 4 2424 6 5 4 4 962 4 3 4 5 3 4 5 
To predecode: 0
Predecoding something: 0
Predecode request dropped: 0
sizeofblock_0 0
sizeofblock_1 53921
sizeofblock_2 78113
sizeofblock_3 0
sizeofblock_4 0
sizeofblock_5 0
sizeofblock_6 0
sizeofblock_7 0
sizeofblock_8 0
Variant_0 Correct: 1611777 Incorrect: 0 Accuracy: 1
Variant_1 Correct: 5717623 Incorrect: 0 Accuracy: 1
Variant_2 Correct: 0 Incorrect: 0 Accuracy: -nan
Variant_3 Correct: 0 Incorrect: 0 Accuracy: -nan
