
*** ChampSim Multicore Out-of-Order Simulator ***

Warmup Instructions: 50000000
Simulation Instructions: 50000000
Number of CPUs: 1
LLC sets: 2048
LLC ways: 16
Off-chip DRAM Size: 4096 MB Channels: 1 Width: 64-bit Data Rate: 6400 MT/s
CPU 0 runs ./micro_traces/srv248.trace.gz
.gz
ITLB has LRU replacement policy
DTLB has LRU replacement policy
STLB has LRU replacement policy
FDIP Prefetcher at L1I
L1I has LRU replacement policy
L1D has LRU replacement policy
Initialize SRRIP state for L2C
Initialize DRRIP state for LLC
Heartbeat CPU 0 instructions: 10000000 cycles: 2794754 heartbeat IPC: 3.57813 cumulative IPC: 3.57813 (Simulation time: 0 hr 1 min 34 sec) 
Heartbeat CPU 0 instructions: 20000003 cycles: 5589906 heartbeat IPC: 3.57762 cumulative IPC: 3.57788 (Simulation time: 0 hr 3 min 9 sec) 
Heartbeat CPU 0 instructions: 30000000 cycles: 8383733 heartbeat IPC: 3.57932 cumulative IPC: 3.57836 (Simulation time: 0 hr 4 min 41 sec) 
Heartbeat CPU 0 instructions: 40000003 cycles: 11178987 heartbeat IPC: 3.57749 cumulative IPC: 3.57814 (Simulation time: 0 hr 6 min 14 sec) 
Heartbeat CPU 0 instructions: 50000001 cycles: 13974983 heartbeat IPC: 3.57654 cumulative IPC: 3.57782 (Simulation time: 0 hr 7 min 48 sec) 

Warmup complete CPU 0 instructions: 50000001 cycles: 13974983 (Simulation time: 0 hr 7 min 48 sec) 

Cycle: 20000000 FTQ IN: 57034442 FTQ occupancy: 18.3226 DECODE IN: 57034368 DECODE occupancy: 46.8922 ROB IN: 57034308 ROB occupancy: 283.131 ROB OUT: 57033956
Heartbeat CPU 0 instructions: 60000001 cycles: 22540037 heartbeat IPC: 1.16753 cumulative IPC: 1.16753 (Simulation time: 0 hr 9 min 12 sec) 
*** Reached end of trace for Core: 0 Repeating trace: ./micro_traces/srv248.trace.gz
Cycle: 30000000 FTQ IN: 11600582 FTQ occupancy: 7.70265 DECODE IN: 11600656 DECODE occupancy: 16.9718 ROB IN: 11600709 ROB occupancy: 135.533 ROB OUT: 11600709
Heartbeat CPU 0 instructions: 70000000 cycles: 31162877 heartbeat IPC: 1.15971 cumulative IPC: 1.16361 (Simulation time: 0 hr 10 min 38 sec) 
Heartbeat CPU 0 instructions: 80000001 cycles: 39657965 heartbeat IPC: 1.17715 cumulative IPC: 1.16809 (Simulation time: 0 hr 12 min 0 sec) 
Cycle: 40000000 FTQ IN: 11767370 FTQ occupancy: 7.43869 DECODE IN: 11767330 DECODE occupancy: 16.4367 ROB IN: 11767277 ROB occupancy: 133.602 ROB OUT: 11767518
Heartbeat CPU 0 instructions: 90000001 cycles: 48281681 heartbeat IPC: 1.15959 cumulative IPC: 1.16595 (Simulation time: 0 hr 13 min 25 sec) 
Cycle: 50000000 FTQ IN: 11599066 FTQ occupancy: 7.60174 DECODE IN: 11599089 DECODE occupancy: 16.6214 ROB IN: 11599143 ROB occupancy: 131.41 ROB OUT: 11599203
Heartbeat CPU 0 instructions: 100000002 cycles: 56791863 heartbeat IPC: 1.17506 cumulative IPC: 1.16776 (Simulation time: 0 hr 14 min 48 sec) 
Finished CPU 0 instructions: 50000001 cycles: 42816880 cumulative IPC: 1.16776 (Simulation time: 0 hr 14 min 48 sec) 

ChampSim completed all CPUs

Region of Interest Statistics

CPU 0 cumulative IPC: 1.16776 instructions: 50000001 cycles: 42816880
 Fetch stage stalled: 68.5942  Sim cycles: 42816880 fetch stall cycle: 29369910
 Empty decode stage: 55.7264  Sim cycles: 42816880 fetch stall cycle: 23860299
ITLB TOTAL     ACCESS:    5606057  HIT:    5113254  MISS:     492803  HIT %:    91.2095  MISS %:    8.79055   MPKI: 9.85606
ITLB LOAD TRANSLATION INSTRUCTION	ACCESS:    5495883  HIT:    5003080  MISS:     492803  HIT %:    91.0332  MISS %:    8.96677  MPKI: 9.85606
ITLB TRANSLATION FROM L1D PREFETCHER INSTRUCTION	ACCESS:     110174  HIT:     110174  MISS:          0  HIT %:        100  MISS %:          0  MPKI: 0

ITLB AVERAGE MISS LATENCY: 9.03758 cycles
ITLB RQ	ACCESS:    7489151	FORWARD:          0	MERGED:    1395412	TO_CACHE:    6093739

DTLB TOTAL     ACCESS:    9214283  HIT:    8737183  MISS:     477100  HIT %:    94.8222  MISS %:    5.17783   MPKI: 9.542
DTLB LOAD TRANSLATION DATA	ACCESS:    9214283  HIT:    8737183  MISS:     477100  HIT %:    94.8222  MISS %:    5.17783  MPKI: 9.542

DTLB AVERAGE MISS LATENCY: 9.26453 cycles
DTLB RQ	ACCESS:   13498750	FORWARD:          0	MERGED:    4249782	TO_CACHE:    9248968

STLB TOTAL     ACCESS:    1226335  HIT:    1224325  MISS:       2010  HIT %:    99.8361  MISS %:   0.163903   MPKI: 0.0402
STLB LOAD TRANSLATION INSTRUCTION	ACCESS:     492803  HIT:     492579  MISS:        224  HIT %:    99.9545  MISS %:  0.0454543  MPKI: 0.00448
STLB LOAD TRANSLATION DATA	ACCESS:     476966  HIT:     475193  MISS:       1773  HIT %:    99.6283  MISS %:   0.371725  MPKI: 0.03546
STLB TRANSLATION FROM L1D PREFETCHER DATA	ACCESS:     256566  HIT:     256553  MISS:         13  HIT %:    99.9949  MISS %: 0.00506692  MPKI: 0.00026

STLB AVERAGE MISS LATENCY: 60.9876 cycles
STLB RQ	ACCESS:    1369301	FORWARD:          0	MERGED:     142939	TO_CACHE:    1226362

STLB Hit, L1D data hit: 0
STLB Hit, L2C data hit: 0
STLB Hit, LLC data hit: 0
STLB Hit, LLC data miss: 0
STLB STLB hints to L2: 0
L1D TOTAL     ACCESS:   13261026  HIT:   12095285  MISS:    1165741  HIT %:    91.2093  MISS %:    8.79073   MPKI: 23.3148
L1D LOAD DATA	ACCESS:    6735482  HIT:    5963580  MISS:     771902  HIT %:    88.5398  MISS %:    11.4602  MPKI: 15.438
L1D RFO DATA	ACCESS:    6192515  HIT:    5901757  MISS:     290758  HIT %:    95.3047  MISS %:    4.69531  MPKI: 5.81516
L1D PREFETCH DATA	ACCESS:     333029  HIT:     229948  MISS:     103081  HIT %:    69.0474  MISS %:    30.9526  MPKI: 2.06162

L1D PREFETCH  REQUESTED:     799074  ISSUED:     799074  USEFUL:      48133  USELESS:      70069
L1D USEFUL LOAD PREFETCHES:      48133 PREFETCH ISSUED TO LOWER LEVEL:     118228  ACCURACY: 40.712
 TIMELY PREFETCHES:      48133 LATE PREFETCHES: 15112 DROPPED PREFETCHES: 0
L1D AVERAGE MISS LATENCY: 458847 cycles
L1D RQ	ACCESS:   10817034	FORWARD:          0	MERGED:    3885043	TO_CACHE:    6769604
L1D WQ	ACCESS:    6906722	FORWARD:     162665	MERGED:     177576	TO_CACHE:    6729146
L1D PQ	ACCESS:     399676	FORWARD:          0	MERGED:          0	TO_CACHE:     399398

L1D UNIQUE REGIONS ACCESSED: 0
L1D REGIONS CONFLICTS: 0
L1D Cross Page Prefetch Requests: 5679
L1D Same Page Prefetch Requests: 810558
L1D ROI Sum of L1D PQ occupancy: 5091583
L1D PREFETCHES PUSHED FROM L2C: 0
L1I TOTAL     ACCESS:    6918401  HIT:    4157707  MISS:    2760694  HIT %:    60.0964  MISS %:    39.9036   MPKI: 55.2139
L1I LOAD INSTRUCTION	ACCESS:    6402974  HIT:    3642280  MISS:    2760694  HIT %:    56.8842  MISS %:    43.1158  MPKI: 55.2139
L1I PREFETCH INSTRUCTION	ACCESS:     515427  HIT:     515427  MISS:          0  HIT %:        100  MISS %:          0  MPKI: 0

L1I PREFETCH  REQUESTED:    1188772  ISSUED:    1188772  USEFUL:          0  USELESS:          0
L1I USEFUL LOAD PREFETCHES:          0 PREFETCH ISSUED TO LOWER LEVEL:          0  ACCURACY: -nan
 TIMELY PREFETCHES:          0 LATE PREFETCHES: 0 DROPPED PREFETCHES: 0
L1I AVERAGE MISS LATENCY: 17.2395 cycles
L1I RQ	ACCESS:    9476587	FORWARD:          0	MERGED:    2837431	TO_CACHE:    6639156
L1I PQ	ACCESS:    1188772	FORWARD:          0	MERGED:     338777	TO_CACHE:     849995

L1BTB TOTAL     ACCESS:    5680692  HIT:    2062365  MISS:    3618327  HIT %:    36.3048  MISS %:    63.6952   MPKI: 72.3665
L1BTB BRANCH_DIRECT_JUMP	ACCESS:     543989  HIT:     142871  MISS:     401118	AVERAGE STALL: 36.5785
L1BTB BRANCH_INDIRECT	ACCESS:     181037  HIT:      65151  MISS:     115886	AVERAGE STALL: 106.65
L1BTB BRANCH_CONDITIONAL	ACCESS:    2728546  HIT:    1439832  MISS:    1288714	AVERAGE STALL: 40.0419
L1BTB BRANCH_DIRECT_CALL	ACCESS:     942511  HIT:     103862  MISS:     838649	AVERAGE STALL: 41.2063
L1BTB BRANCH_INDIRECT_CALL	ACCESS:     171049  HIT:      21260  MISS:     149789	AVERAGE STALL: 114.715
L1BTB BRANCH_RETURN	ACCESS:    1113560  HIT:     289389  MISS:     824171	AVERAGE STALL: 38.5468
L1BTB BRANCH_OTHER ACCESS:          0  HIT:          0  MISS:          0	AVERAGE STALL: -nan
L1BTB TOTAL ROB OCCUPANCY AT BTB MISS: 11.8978

L2BTB1 TOTAL     ACCESS:    3593331  HIT:    3192649  MISS:     400682  HIT %:    88.8493  MISS %:    11.1507   MPKI: 8.01364
L2BTB1 BRANCH_DIRECT_JUMP	ACCESS:     397026  HIT:     361568  MISS:      35458	AVERAGE STALL: 36.5785
L2BTB1 BRANCH_INDIRECT	ACCESS:     105649  HIT:      83567  MISS:      22082	AVERAGE STALL: 106.65
L2BTB1 BRANCH_CONDITIONAL	ACCESS:    1288714  HIT:    1183168  MISS:     105546	AVERAGE STALL: 40.0419
L2BTB1 BRANCH_DIRECT_CALL	ACCESS:     838649  HIT:     725321  MISS:     113328	AVERAGE STALL: 41.2063
L2BTB1 BRANCH_INDIRECT_CALL	ACCESS:     140366  HIT:     116204  MISS:      24162	AVERAGE STALL: 114.715
L2BTB1 BRANCH_RETURN	ACCESS:     822927  HIT:     722821  MISS:     100106	AVERAGE STALL: 38.5468
L2BTB1 BRANCH_OTHER ACCESS:          0  HIT:          0  MISS:          0	AVERAGE STALL: -nan
L2BTB1 TOTAL ROB OCCUPANCY AT BTB MISS: 107.442

L2C TOTAL     ACCESS:    4546497  HIT:    4055598  MISS:     490899  HIT %:    89.2027  MISS %:    10.7973   MPKI: 9.81798
L2C LOAD INSTRUCTION	ACCESS:    2760694  HIT:    2500391  MISS:     260303  HIT %:    90.5711  MISS %:     9.4289  MPKI: 5.20606
L2C LOAD TRANSLATION INSTRUCTION	ACCESS:        250  HIT:         61  MISS:        189  HIT %:       24.4  MISS %:       75.6  MPKI: 0.00378
L2C LOAD DATA	ACCESS:     756761  HIT:     674929  MISS:      81832  HIT %:    89.1865  MISS %:    10.8135  MPKI: 1.63664
L2C RFO DATA	ACCESS:     290709  HIT:     238822  MISS:      51887  HIT %:    82.1516  MISS %:    17.8484  MPKI: 1.03774
L2C PREFETCH DATA	ACCESS:     207596  HIT:     126059  MISS:      81537  HIT %:    60.7232  MISS %:    39.2768  MPKI: 1.63074
L2C WRITEBACK DATA	ACCESS:     528637  HIT:     514941  MISS:      13696  HIT %:    97.4092  MISS %:    2.59081  MPKI: 0.27392
L2C LOAD TRANSLATION DATA	ACCESS:       1830  HIT:        381  MISS:       1449  HIT %:    20.8197  MISS %:    79.1803  MPKI: 0.02898
L2C TRANSLATION FROM L1D PREFETCHER DATA	ACCESS:         20  HIT:         14  MISS:          6  HIT %:         70  MISS %:         30  MPKI: 0.00012

L2C PREFETCH  REQUESTED:      97006  ISSUED:      97006  USEFUL:       9487  USELESS:      72561
L2C USEFUL LOAD PREFETCHES:       9487 PREFETCH ISSUED TO LOWER LEVEL:      82067  ACCURACY: 11.5601
 TIMELY PREFETCHES:       9487 LATE PREFETCHES: 530 DROPPED PREFETCHES: 0
L2C AVERAGE MISS LATENCY: 37.6727 cycles
L2C RQ	ACCESS:    3810307	FORWARD:          0	MERGED:          0	TO_CACHE:    3810265
L2C WQ	ACCESS:     528637	FORWARD:         43	MERGED:          0	TO_CACHE:     528637
L2C PQ	ACCESS:     215234	FORWARD:          0	MERGED:       3808	TO_CACHE:     211425

L2C Dense regions hint from L2: 0
PSCL5 TOTAL     ACCESS:       4020  HIT:       2010  MISS:       2010  HIT %:         50  MISS %:         50   MPKI: 0.0402
PSCL5 LOAD TRANSLATION INSTRUCTION	ACCESS:       3980  HIT:       1990  MISS:       1990  HIT %:         50  MISS %:         50  MPKI: 0.0398
PSCL5 TRANSLATION FROM L1D PREFETCHER INSTRUCTION	ACCESS:         40  HIT:         20  MISS:         20  HIT %:         50  MISS %:         50  MPKI: 0.0004


PSCL4 TOTAL     ACCESS:       3848  HIT:       1922  MISS:       1926  HIT %:     49.948  MISS %:     50.052   MPKI: 0.03852
PSCL4 LOAD TRANSLATION INSTRUCTION	ACCESS:       3484  HIT:       1902  MISS:       1582  HIT %:    54.5924  MISS %:    45.4076  MPKI: 0.03164
PSCL4 TRANSLATION FROM L1D PREFETCHER INSTRUCTION	ACCESS:         40  HIT:         20  MISS:         20  HIT %:         50  MISS %:         50  MPKI: 0.0004
PSCL4 LOAD TRANSLATION DATA	ACCESS:        324  HIT:          0  MISS:        324  HIT %:          0  MISS %:        100  MPKI: 0.00648


PSCL3 TOTAL     ACCESS:       3920  HIT:       1958  MISS:       1962  HIT %:     49.949  MISS %:     50.051   MPKI: 0.03924
PSCL3 LOAD TRANSLATION INSTRUCTION	ACCESS:       3520  HIT:       1938  MISS:       1582  HIT %:    55.0568  MISS %:    44.9432  MPKI: 0.03164
PSCL3 TRANSLATION FROM L1D PREFETCHER INSTRUCTION	ACCESS:         40  HIT:         20  MISS:         20  HIT %:         50  MISS %:         50  MPKI: 0.0004
PSCL3 LOAD TRANSLATION DATA	ACCESS:        360  HIT:          0  MISS:        360  HIT %:          0  MISS %:        100  MPKI: 0.0072


PSCL2 TOTAL     ACCESS:       3938  HIT:       1928  MISS:       2010  HIT %:    48.9589  MISS %:    51.0411   MPKI: 0.0402
PSCL2 LOAD TRANSLATION INSTRUCTION	ACCESS:       2131  HIT:       1908  MISS:        223  HIT %:    89.5354  MISS %:    10.4646  MPKI: 0.00446
PSCL2 TRANSLATION FROM L1D PREFETCHER INSTRUCTION	ACCESS:         20  HIT:         20  MISS:          0  HIT %:        100  MISS %:          0  MPKI: 0
PSCL2 LOAD TRANSLATION DATA	ACCESS:       1767  HIT:          0  MISS:       1767  HIT %:          0  MISS %:        100  MPKI: 0.03534
PSCL2 TRANSLATION FROM L1D PREFETCHER DATA	ACCESS:         20  HIT:          0  MISS:         20  HIT %:          0  MISS %:        100  MPKI: 0.0004


LLC TOTAL     ACCESS:     553623  HIT:     529481  MISS:      24142  HIT %:    95.6393  MISS %:    4.36073   MPKI: 0.48284
LLC LOAD INSTRUCTION	ACCESS:     260303  HIT:     259612  MISS:        691  HIT %:    99.7345  MISS %:    0.26546  MPKI: 0.01382
LLC LOAD TRANSLATION INSTRUCTION	ACCESS:        189  HIT:        169  MISS:         20  HIT %:     89.418  MISS %:     10.582  MPKI: 0.0004
LLC LOAD DATA	ACCESS:      81332  HIT:      78076  MISS:       3256  HIT %:    95.9967  MISS %:    4.00334  MPKI: 0.06512
LLC RFO DATA	ACCESS:      51850  HIT:      42124  MISS:       9726  HIT %:     81.242  MISS %:     18.758  MPKI: 0.19452
LLC PREFETCH DATA	ACCESS:      82067  HIT:      71897  MISS:      10170  HIT %:    87.6077  MISS %:    12.3923  MPKI: 0.2034
LLC WRITEBACK DATA	ACCESS:      76427  HIT:      76227  MISS:        200  HIT %:    99.7383  MISS %:   0.261688  MPKI: 0.004
LLC LOAD TRANSLATION DATA	ACCESS:       1449  HIT:       1370  MISS:         79  HIT %:     94.548  MISS %:    5.45204  MPKI: 0.00158
LLC TRANSLATION FROM L1D PREFETCHER DATA	ACCESS:          6  HIT:          6  MISS:          0  HIT %:        100  MISS %:          0  MPKI: 0

LLC AVERAGE MISS LATENCY: 173.006 cycles
LLC RQ	ACCESS:     395136	FORWARD:          0	MERGED:          0	TO_CACHE:     395129
LLC WQ	ACCESS:      76427	FORWARD:          7	MERGED:          0	TO_CACHE:      76427
LLC PQ	ACCESS:      82067	FORWARD:          0	MERGED:          0	TO_CACHE:      82067

LLC Dense regions hint to LLC: 0

RAW hits: 1787148
Loads Generated: 12604181
Loads sent to L1D: 10817034
Stores Generated: 6906708
Stores sent to L1D: 6906722
Major fault: 0 Minor fault: 2311
Allocated PAGES: 2311

stream: 
stream:times selected: 1245825
stream:pref_filled: 126258
stream:pref_useful: 28670
stream:pref_late: 9827
stream:misses: 10633
stream:misses_by_poll: 0

CS: 
CS:times selected: 196512
CS:pref_filled: 73001
CS:pref_useful: 49409
CS:pref_late: 11312
CS:misses: 25977
CS:misses_by_poll: 1

CPLX: 
CPLX:times selected: 1048214
CPLX:pref_filled: 25052
CPLX:pref_useful: 7691
CPLX:pref_late: 4159
CPLX:misses: 133244
CPLX:misses_by_poll: 0

NL_L1: 
NL:times selected: 12203
NL:pref_filled: 1180
NL:pref_useful: 323
NL:pref_late: 502
NL:misses: 2107
NL:misses_by_poll: 0

total selections: 2502754
total_filled: 103081
total_useful: 48133
total_late: 28126
total_polluted: 1
total_misses_after_warmup: 806026
conflicts: 5582530

test: 116650

DRAM Statistics
 CHANNEL 0
 RQ ROW_BUFFER_HIT:       8539  ROW_BUFFER_MISS:      15376
 DBUS_CONGESTED:         13
 WQ ROW_BUFFER_HIT:       1350  ROW_BUFFER_MISS:      10250  FULL:          0

 AVG_CONGESTED_CYCLE: 4

CPU 0 Branch Prediction Accuracy: 99.8228% MPKI: 0.32472 Average ROB Occupancy at Mispredict: 153.952
Branch types
NOT_BRANCH: 40834917 81.6698%
BRANCH_DIRECT_JUMP: 543989 1.08798%
BRANCH_INDIRECT: 181037 0.362074%
BRANCH_CONDITIONAL: 6212464 12.4249%
BRANCH_DIRECT_CALL: 942511 1.88502%
BRANCH_INDIRECT_CALL: 171049 0.342098%
BRANCH_RETURN: 1113560 2.22712%
BRANCH_OTHER: 0 0%

DRAM PAGES: 1048576
Allocated PAGES: 2311
Average_ROB_Occupancy: 134.117
Average_Decode_Occupancy: 16.611
Average_FTQ_Occupancy: 7.55037
Indirect max targets: 14 Average targets: 1.15017
Branch_type:  BRANCH_DIRECT_JUMP:  Count Percentage: 2.89503 5.78086 3.6761 8.85491 2.92171 6.32558 1.79886 67.747 
Branch_type:  BRANCH_INDIRECT:  Count Percentage: 11.7305 7.07445 2.52835 3.75717 3.34904 24.1913 3.21842 44.1508 
Branch_type:  BRANCH_CONDITIONAL:  Count Percentage: 22.0965 3.56638 4.62748 3.51918 2.36367 5.54243 1.09336 57.191 
Branch_type:  BRANCH_DIRECT_CALL:  Count Percentage: 0.264784 1.7892 0.723145 3.18948 2.99006 3.27947 0.88476 86.8791 
Branch_type:  BRANCH_INDIRECT_CALL:  Count Percentage: 9.53145 0 2.98828 4.26968 0 4.04011 0.994141 78.1763 
Branch_type:  BRANCH_RETURN:  Count Percentage: 3.77712 2.45166 4.11963 3.4015 5.01044 7.26451 1.18734 72.7878 
Branch_type:  BRANCH_DIRECT_JUMP:  Total Count: 31468 62836 39958 96250 31758 68757 19553 736387 
Branch_type:  BRANCH_INDIRECT:  Total Count: 42480 25619 9156 13606 12128 87605 11655 159885 
Branch_type:  BRANCH_CONDITIONAL:  Total Count: 2743679 442831 574586 436971 293493 688194 135761 7101315 
Branch_type:  BRANCH_DIRECT_CALL:  Total Count: 4979 33644 13598 59975 56225 61667 16637 1633673 
Branch_type:  BRANCH_INDIRECT_CALL:  Total Count: 32550 0 10205 14581 0 13797 3395 266973 
Branch_type:  BRANCH_RETURN:  Total Count: 83954 54493 91567 75605 111367 161468 26391 1617852 
Number of unique branch instructions: 9987
Upper 32 bits: 
aaaa
ffff
ffff0000
Unique upper 32 bits: 3
Unique upper 36 bits: 3
Unique upper 40 bits: 5
Unique upper 44 bits: 32
Unique upper 48 bits: 153
Offset_3 4135
Offset_4 248
Offset_5 452
Offset_6 515
Offset_7 589
Offset_8 520
Offset_9 468
Offset_10 391
Offset_11 330
Offset_12 265
Offset_13 200
Offset_14 225
Offset_15 191
Offset_16 227
Offset_17 146
Offset_18 127
Offset_19 235
Offset_20 139
Offset_21 235
Offset_22 398
Offset_23 241
Offset_24 328
Offset_25 88
Offset_47 80
Offset_64 2
decode_dispatch_called: 20256966 47.3107
Dispatch_width: 0 10122088 49.9684 23.6404
Dispatch_width: 1 539489 2.66323 1.25999
Dispatch_width: 2 669970 3.30736 1.56473
Dispatch_width: 3 424286 2.09452 0.990932
Dispatch_width: 4 1938067 9.56741 4.52641
Dispatch_width: 5 283269 1.39838 0.661583
Dispatch_width: 6 6279797 31.0007 14.6666
Empty_decode_cycles: 22559914 52.6893
ROB_full_cycles: 2776828 6.48536
Starvation_cycles_per_kilo_instr: 337.603
Starvation_cycles_per_kilo_instr_3: 315.389
Starvation_cycles_per_kilo_instr_0: 299.052
Branch_type_1  (3,1)  (4,7)  (5,36)  (6,74)  (7,116)  (8,129)  (9,123)  (10,102)  (11,80)  (12,42)  (13,4)  (14,2)  (15,3)  (16,4)  (18,1)  (19,4)  (20,2)  (21,1)  (22,3)  (23,2)  (24,10)  (25,12) 
Branch_type_2  (3,1)  (5,1)  (8,3)  (9,3)  (12,1)  (13,1)  (14,1)  (16,3)  (17,2)  (20,2)  (21,2)  (23,5)  (24,1)  (47,36) 
Branch_type_3  (3,4133)  (4,241)  (5,411)  (6,425)  (7,442)  (8,329)  (9,260)  (10,161)  (11,133)  (12,49)  (13,4)  (24,1)  (64,2) 
Branch_type_4  (6,4)  (7,8)  (8,26)  (9,50)  (10,60)  (11,59)  (12,96)  (13,87)  (14,99)  (15,92)  (16,103)  (17,66)  (18,58)  (19,114)  (20,72)  (21,124)  (22,213)  (23,136)  (24,188)  (25,72) 
Branch_type_5  (8,2)  (9,1)  (10,3)  (11,5)  (12,3)  (13,14)  (14,16)  (15,11)  (16,20)  (17,11)  (18,16)  (19,12)  (20,10)  (21,13)  (22,42)  (23,26)  (24,36) 
Branch_type_6  (5,4)  (6,12)  (7,23)  (8,31)  (9,31)  (10,65)  (11,53)  (12,74)  (13,90)  (14,107)  (15,85)  (16,97)  (17,67)  (18,52)  (19,105)  (20,53)  (21,95)  (22,140)  (23,72)  (24,92)  (25,4)  (47,44) 
Unique trigger count: 
L2BTB1 768 4
L2BTB2 768 4
L2BTB3 768 4
L2BTB4 112 4
