
*** ChampSim Multicore Out-of-Order Simulator ***

Warmup Instructions: 50000000
Simulation Instructions: 50000000
Number of CPUs: 1
LLC sets: 2048
LLC ways: 16
Off-chip DRAM Size: 4096 MB Channels: 1 Width: 64-bit Data Rate: 6400 MT/s
CPU 0 runs ./micro_traces/srv250.trace.gz
.gz
ITLB has LRU replacement policy
DTLB has LRU replacement policy
STLB has LRU replacement policy
FDIP Prefetcher at L1I
L1I has LRU replacement policy
L1D has LRU replacement policy
Initialize SRRIP state for L2C
Initialize DRRIP state for LLC
Heartbeat_Variant_0 : 1057 0.344076 per_variant_size: 0 1057 0 0 0 0 0 0 0 
Heartbeat_Variant_1 : 971 0.316081 per_variant_size: 0 389 582 0 0 0 0 0 0 
Heartbeat_Variant_2 : 1040 0.338542 per_variant_size: 0 346 292 205 197 0 0 0 0 
Heartbeat_Variant_3 : 0 0 per_variant_size: 0 0 0 0 0 0 0 0 0 
Heartbeat_Variant_0_evicts 0 : 15293 1 : 9388 2 : 9448 3 : 0 
Heartbeat_Variant_1_evicts 0 : 9409 1 : 0 2 : 8478 3 : 0 
Heartbeat_Variant_2_evicts 0 : 9374 1 : 8508 2 : 0 3 : 0 
Heartbeat_Variant_3_evicts 0 : 0 1 : 0 2 : 0 3 : 0 
Heartbeat CPU 0 instructions: 10000003 cycles: 2796681 heartbeat IPC: 3.57567 cumulative IPC: 3.57567 (Simulation time: 0 hr 2 min 6 sec) 
Heartbeat_Variant_0 : 1092 0.355469 per_variant_size: 0 1092 0 0 0 0 0 0 0 
Heartbeat_Variant_1 : 948 0.308594 per_variant_size: 0 425 523 0 0 0 0 0 0 
Heartbeat_Variant_2 : 1030 0.335286 per_variant_size: 0 348 272 215 195 0 0 0 0 
Heartbeat_Variant_3 : 0 0 per_variant_size: 0 0 0 0 0 0 0 0 0 
Heartbeat_Variant_0_evicts 0 : 15412 1 : 9073 2 : 9360 3 : 0 
Heartbeat_Variant_1_evicts 0 : 9066 1 : 0 2 : 8433 3 : 0 
Heartbeat_Variant_2_evicts 0 : 9332 1 : 8449 2 : 0 3 : 0 
Heartbeat_Variant_3_evicts 0 : 0 1 : 0 2 : 0 3 : 0 
Heartbeat CPU 0 instructions: 20000000 cycles: 5592136 heartbeat IPC: 3.57723 cumulative IPC: 3.57645 (Simulation time: 0 hr 4 min 14 sec) 
Heartbeat_Variant_0 : 1065 0.34668 per_variant_size: 0 1065 0 0 0 0 0 0 0 
Heartbeat_Variant_1 : 963 0.313477 per_variant_size: 0 400 563 0 0 0 0 0 0 
Heartbeat_Variant_2 : 1042 0.339193 per_variant_size: 0 333 298 217 194 0 0 0 0 
Heartbeat_Variant_3 : 0 0 per_variant_size: 0 0 0 0 0 0 0 0 0 
Heartbeat_Variant_0_evicts 0 : 15664 1 : 9428 2 : 9234 3 : 0 
Heartbeat_Variant_1_evicts 0 : 9370 1 : 0 2 : 8285 3 : 0 
Heartbeat_Variant_2_evicts 0 : 9319 1 : 8212 2 : 0 3 : 0 
Heartbeat_Variant_3_evicts 0 : 0 1 : 0 2 : 0 3 : 0 
Heartbeat CPU 0 instructions: 30000000 cycles: 8389748 heartbeat IPC: 3.57448 cumulative IPC: 3.57579 (Simulation time: 0 hr 6 min 20 sec) 
Heartbeat_Variant_0 : 1040 0.338542 per_variant_size: 0 1040 0 0 0 0 0 0 0 
Heartbeat_Variant_1 : 970 0.315755 per_variant_size: 0 415 555 0 0 0 0 0 0 
Heartbeat_Variant_2 : 1061 0.345378 per_variant_size: 0 385 291 210 175 0 0 0 0 
Heartbeat_Variant_3 : 0 0 per_variant_size: 0 0 0 0 0 0 0 0 0 
Heartbeat_Variant_0_evicts 0 : 15618 1 : 9365 2 : 9248 3 : 0 
Heartbeat_Variant_1_evicts 0 : 9301 1 : 0 2 : 8606 3 : 0 
Heartbeat_Variant_2_evicts 0 : 9337 1 : 8535 2 : 0 3 : 0 
Heartbeat_Variant_3_evicts 0 : 0 1 : 0 2 : 0 3 : 0 
Heartbeat CPU 0 instructions: 40000001 cycles: 11186710 heartbeat IPC: 3.57531 cumulative IPC: 3.57567 (Simulation time: 0 hr 8 min 22 sec) 
Heartbeat_Variant_0 : 1074 0.349609 per_variant_size: 0 1074 0 0 0 0 0 0 0 
Heartbeat_Variant_1 : 966 0.314453 per_variant_size: 0 389 577 0 0 0 0 0 0 
Heartbeat_Variant_2 : 1031 0.335612 per_variant_size: 0 340 254 207 230 0 0 0 0 
Heartbeat_Variant_3 : 0 0 per_variant_size: 0 0 0 0 0 0 0 0 0 
Heartbeat_Variant_0_evicts 0 : 15712 1 : 9240 2 : 9049 3 : 0 
Heartbeat_Variant_1_evicts 0 : 9183 1 : 0 2 : 8415 3 : 0 
Heartbeat_Variant_2_evicts 0 : 9072 1 : 8362 2 : 0 3 : 0 
Heartbeat_Variant_3_evicts 0 : 0 1 : 0 2 : 0 3 : 0 
Heartbeat CPU 0 instructions: 50000000 cycles: 13983167 heartbeat IPC: 3.57595 cumulative IPC: 3.57573 (Simulation time: 0 hr 10 min 47 sec) 

Warmup complete CPU 0 instructions: 50000004 cycles: 13983168 (Simulation time: 0 hr 10 min 47 sec) 

Cycle: 20000000 FTQ IN: 56458238 FTQ occupancy: 17.9151 DECODE IN: 56458215 DECODE occupancy: 45.8189 ROB IN: 56458215 ROB occupancy: 276.233 ROB OUT: 56458215
Heartbeat_Variant_0 : 1062 0.345703 per_variant_size: 0 1062 0 0 0 0 0 0 0 
Heartbeat_Variant_1 : 979 0.318685 per_variant_size: 0 419 560 0 0 0 0 0 0 
Heartbeat_Variant_2 : 1030 0.335286 per_variant_size: 0 324 305 204 197 0 0 0 0 
Heartbeat_Variant_3 : 0 0 per_variant_size: 0 0 0 0 0 0 0 0 0 
Heartbeat_Variant_0_evicts 0 : 15689 1 : 9300 2 : 9492 3 : 0 
Heartbeat_Variant_1_evicts 0 : 9370 1 : 0 2 : 8384 3 : 0 
Heartbeat_Variant_2_evicts 0 : 9434 1 : 8441 2 : 0 3 : 0 
Heartbeat_Variant_3_evicts 0 : 0 1 : 0 2 : 0 3 : 0 
Heartbeat CPU 0 instructions: 60000001 cycles: 23275531 heartbeat IPC: 1.07615 cumulative IPC: 1.07615 (Simulation time: 0 hr 12 min 33 sec) 
Cycle: 30000000 FTQ IN: 10795604 FTQ occupancy: 6.14692 DECODE IN: 10795617 DECODE occupancy: 12.784 ROB IN: 10795600 ROB occupancy: 106.92 ROB OUT: 10795518
Heartbeat_Variant_0 : 1055 0.343424 per_variant_size: 0 1055 0 0 0 0 0 0 0 
Heartbeat_Variant_1 : 956 0.311198 per_variant_size: 0 429 527 0 0 0 0 0 0 
Heartbeat_Variant_2 : 1060 0.345052 per_variant_size: 0 370 293 200 197 0 0 0 0 
Heartbeat_Variant_3 : 0 0 per_variant_size: 0 0 0 0 0 0 0 0 0 
Heartbeat_Variant_0_evicts 0 : 15708 1 : 9274 2 : 9720 3 : 0 
Heartbeat_Variant_1_evicts 0 : 9298 1 : 0 2 : 8738 3 : 0 
Heartbeat_Variant_2_evicts 0 : 9703 1 : 8785 2 : 0 3 : 0 
Heartbeat_Variant_3_evicts 0 : 0 1 : 0 2 : 0 3 : 0 
Heartbeat CPU 0 instructions: 70000003 cycles: 32687555 heartbeat IPC: 1.06247 cumulative IPC: 1.06927 (Simulation time: 0 hr 14 min 31 sec) 
Cycle: 40000000 FTQ IN: 10706887 FTQ occupancy: 6.33606 DECODE IN: 10706897 DECODE occupancy: 13.2477 ROB IN: 10706914 ROB occupancy: 110.397 ROB OUT: 10706911
Heartbeat_Variant_0 : 1058 0.344401 per_variant_size: 0 1058 0 0 0 0 0 0 0 
Heartbeat_Variant_1 : 966 0.314453 per_variant_size: 0 408 558 0 0 0 0 0 0 
Heartbeat_Variant_2 : 1047 0.34082 per_variant_size: 0 345 273 234 195 0 0 0 0 
Heartbeat_Variant_3 : 0 0 per_variant_size: 0 0 0 0 0 0 0 0 0 
Heartbeat_Variant_0_evicts 0 : 15625 1 : 9148 2 : 8710 3 : 0 
Heartbeat_Variant_1_evicts 0 : 9047 1 : 0 2 : 8240 3 : 0 
Heartbeat_Variant_2_evicts 0 : 8808 1 : 8129 2 : 0 3 : 0 
Heartbeat_Variant_3_evicts 0 : 0 1 : 0 2 : 0 3 : 0 
Heartbeat CPU 0 instructions: 80000000 cycles: 41887210 heartbeat IPC: 1.087 cumulative IPC: 1.07511 (Simulation time: 0 hr 16 min 29 sec) 
Cycle: 50000000 FTQ IN: 10755444 FTQ occupancy: 6.17409 DECODE IN: 10755414 DECODE occupancy: 12.8988 ROB IN: 10755385 ROB occupancy: 108.098 ROB OUT: 10755286
Heartbeat_Variant_0 : 1048 0.341146 per_variant_size: 0 1048 0 0 0 0 0 0 0 
Heartbeat_Variant_1 : 975 0.317383 per_variant_size: 0 405 570 0 0 0 0 0 0 
Heartbeat_Variant_2 : 1048 0.341146 per_variant_size: 0 350 279 208 211 0 0 0 0 
Heartbeat_Variant_3 : 0 0 per_variant_size: 0 0 0 0 0 0 0 0 0 
Heartbeat_Variant_0_evicts 0 : 15470 1 : 9369 2 : 9289 3 : 0 
Heartbeat_Variant_1_evicts 0 : 9449 1 : 0 2 : 8283 3 : 0 
Heartbeat_Variant_2_evicts 0 : 9219 1 : 8354 2 : 0 3 : 0 
Heartbeat_Variant_3_evicts 0 : 0 1 : 0 2 : 0 3 : 0 
Heartbeat CPU 0 instructions: 90000000 cycles: 51190499 heartbeat IPC: 1.07489 cumulative IPC: 1.07506 (Simulation time: 0 hr 18 min 15 sec) 
Cycle: 60000000 FTQ IN: 10757915 FTQ occupancy: 6.41352 DECODE IN: 10757942 DECODE occupancy: 13.4943 ROB IN: 10757965 ROB occupancy: 112.706 ROB OUT: 10758137
Heartbeat_Variant_0 : 1022 0.332682 per_variant_size: 0 1022 0 0 0 0 0 0 0 
Heartbeat_Variant_1 : 979 0.318685 per_variant_size: 0 444 535 0 0 0 0 0 0 
Heartbeat_Variant_2 : 1070 0.348307 per_variant_size: 0 405 266 207 192 0 0 0 0 
Heartbeat_Variant_3 : 0 0 per_variant_size: 0 0 0 0 0 0 0 0 0 
Heartbeat_Variant_0_evicts 0 : 15595 1 : 8994 2 : 9126 3 : 0 
Heartbeat_Variant_1_evicts 0 : 9084 1 : 0 2 : 8157 3 : 0 
Heartbeat_Variant_2_evicts 0 : 9062 1 : 8243 2 : 0 3 : 0 
Heartbeat_Variant_3_evicts 0 : 0 1 : 0 2 : 0 3 : 0 
Heartbeat CPU 0 instructions: 100000000 cycles: 60484420 heartbeat IPC: 1.07597 cumulative IPC: 1.07524 (Simulation time: 0 hr 19 min 53 sec) 
Finished CPU 0 instructions: 50000002 cycles: 46501255 cumulative IPC: 1.07524 (Simulation time: 0 hr 19 min 53 sec) 

ChampSim completed all CPUs

Region of Interest Statistics

CPU 0 cumulative IPC: 1.07524 instructions: 50000002 cycles: 46501255
 Fetch stage stalled: 72.7428  Sim cycles: 46501255 fetch stall cycle: 33826323
 Empty decode stage: 64.5071  Sim cycles: 46501255 fetch stall cycle: 29996623
ITLB TOTAL     ACCESS:    5743881  HIT:    5251798  MISS:     492083  HIT %:    91.4329  MISS %:    8.56708   MPKI: 9.84166
ITLB LOAD TRANSLATION INSTRUCTION	ACCESS:    5641338  HIT:    5149255  MISS:     492083  HIT %:    91.2772  MISS %:    8.72281  MPKI: 9.84166
ITLB TRANSLATION FROM L1D PREFETCHER INSTRUCTION	ACCESS:     102543  HIT:     102543  MISS:          0  HIT %:        100  MISS %:          0  MPKI: 0

ITLB AVERAGE MISS LATENCY: 9.03326 cycles
ITLB RQ	ACCESS:    7532122	FORWARD:          0	MERGED:    1353670	TO_CACHE:    6178452

DTLB TOTAL     ACCESS:    9409257  HIT:    8937099  MISS:     472158  HIT %:     94.982  MISS %:    5.01802   MPKI: 9.44316
DTLB LOAD TRANSLATION DATA	ACCESS:    9409257  HIT:    8937099  MISS:     472158  HIT %:     94.982  MISS %:    5.01802  MPKI: 9.44316

DTLB AVERAGE MISS LATENCY: 9.30651 cycles
DTLB RQ	ACCESS:   13674040	FORWARD:          0	MERGED:    4231903	TO_CACHE:    9442137

STLB TOTAL     ACCESS:    1214403  HIT:    1212346  MISS:       2057  HIT %:    99.8306  MISS %:   0.169384   MPKI: 0.04114
STLB LOAD TRANSLATION INSTRUCTION	ACCESS:     492083  HIT:     491861  MISS:        222  HIT %:    99.9549  MISS %:  0.0451143  MPKI: 0.00444
STLB LOAD TRANSLATION DATA	ACCESS:     471852  HIT:     470044  MISS:       1808  HIT %:    99.6168  MISS %:   0.383171  MPKI: 0.03616
STLB TRANSLATION FROM L1D PREFETCHER DATA	ACCESS:     250468  HIT:     250441  MISS:         27  HIT %:    99.9892  MISS %:  0.0107798  MPKI: 0.00054

STLB AVERAGE MISS LATENCY: 66.9144 cycles
STLB RQ	ACCESS:    1335186	FORWARD:          0	MERGED:     120739	TO_CACHE:    1214447

STLB Hit, L1D data hit: 0
STLB Hit, L2C data hit: 0
STLB Hit, LLC data hit: 0
STLB Hit, LLC data miss: 0
STLB STLB hints to L2: 0
L1D TOTAL     ACCESS:   13449500  HIT:   12341913  MISS:    1107587  HIT %:    91.7648  MISS %:    8.23515   MPKI: 22.1517
L1D LOAD DATA	ACCESS:    6872312  HIT:    6142306  MISS:     730006  HIT %:    89.3776  MISS %:    10.6224  MPKI: 14.6001
L1D RFO DATA	ACCESS:    6247501  HIT:    5962447  MISS:     285054  HIT %:    95.4373  MISS %:    4.56269  MPKI: 5.70108
L1D PREFETCH DATA	ACCESS:     329687  HIT:     237160  MISS:      92527  HIT %:    71.9349  MISS %:    28.0651  MPKI: 1.85054

L1D PREFETCH  REQUESTED:     742170  ISSUED:     742170  USEFUL:      33315  USELESS:      68027
L1D USEFUL LOAD PREFETCHES:      33315 PREFETCH ISSUED TO LOWER LEVEL:     101383  ACCURACY: 32.8605
 TIMELY PREFETCHES:      33315 LATE PREFETCHES: 8816 DROPPED PREFETCHES: 10
L1D AVERAGE MISS LATENCY: 304104 cycles
L1D RQ	ACCESS:   10939387	FORWARD:          0	MERGED:    3871578	TO_CACHE:    6901987
L1D WQ	ACCESS:    6939794	FORWARD:     166102	MERGED:     167741	TO_CACHE:    6772053
L1D PQ	ACCESS:     371225	FORWARD:          0	MERGED:          0	TO_CACHE:     370945

L1D UNIQUE REGIONS ACCESSED: 0
L1D REGIONS CONFLICTS: 0
L1D Cross Page Prefetch Requests: 7016
L1D Same Page Prefetch Requests: 749564
L1D ROI Sum of L1D PQ occupancy: 4705973
L1D PREFETCHES PUSHED FROM L2C: 0
L1I TOTAL     ACCESS:    7028964  HIT:    4275531  MISS:    2753433  HIT %:    60.8273  MISS %:    39.1727   MPKI: 55.0687
L1I LOAD INSTRUCTION	ACCESS:    6546285  HIT:    3792852  MISS:    2753433  HIT %:     57.939  MISS %:     42.061  MPKI: 55.0687
L1I PREFETCH INSTRUCTION	ACCESS:     482679  HIT:     482679  MISS:          0  HIT %:        100  MISS %:          0  MPKI: 0

L1I PREFETCH  REQUESTED:    1055927  ISSUED:    1055927  USEFUL:          0  USELESS:          0
L1I USEFUL LOAD PREFETCHES:          0 PREFETCH ISSUED TO LOWER LEVEL:          0  ACCURACY: -nan
 TIMELY PREFETCHES:          0 LATE PREFETCHES: 0 DROPPED PREFETCHES: 0
L1I AVERAGE MISS LATENCY: 17.3748 cycles
L1I RQ	ACCESS:    9437678	FORWARD:          0	MERGED:    2655643	TO_CACHE:    6782035
L1I PQ	ACCESS:    1055927	FORWARD:          0	MERGED:     305840	TO_CACHE:     750087

L1BTB TOTAL     ACCESS:    5671676  HIT:    2051390  MISS:    3620286  HIT %:     36.169  MISS %:     63.831   MPKI: 72.4057
L1BTB BRANCH_DIRECT_JUMP	ACCESS:     548240  HIT:     145574  MISS:     402666	AVERAGE STALL: 34.7275
L1BTB BRANCH_INDIRECT	ACCESS:     182975  HIT:      66131  MISS:     116844	AVERAGE STALL: 80.5842
L1BTB BRANCH_CONDITIONAL	ACCESS:    2709437  HIT:    1419593  MISS:    1289844	AVERAGE STALL: 35.5045
L1BTB BRANCH_DIRECT_CALL	ACCESS:     943735  HIT:     106505  MISS:     837230	AVERAGE STALL: 36.8506
L1BTB BRANCH_INDIRECT_CALL	ACCESS:     171780  HIT:      21715  MISS:     150065	AVERAGE STALL: 107.887
L1BTB BRANCH_RETURN	ACCESS:    1115509  HIT:     291872  MISS:     823637	AVERAGE STALL: 36.4733
L1BTB BRANCH_OTHER ACCESS:          0  HIT:          0  MISS:          0	AVERAGE STALL: -nan
L1BTB TOTAL ROB OCCUPANCY AT BTB MISS: 12.824

L2BTB TOTAL     ACCESS:    3594851  HIT:    3074586  MISS:     520265  HIT %:    85.5275  MISS %:    14.4725   MPKI: 10.4053
L2BTB BRANCH_DIRECT_JUMP	ACCESS:     398467  HIT:     342294  MISS:      56173	AVERAGE STALL: 34.7275
L2BTB BRANCH_INDIRECT	ACCESS:     106591  HIT:      97983  MISS:       8608	AVERAGE STALL: 80.5842
L2BTB BRANCH_CONDITIONAL	ACCESS:    1289844  HIT:    1131948  MISS:     157896	AVERAGE STALL: 35.5045
L2BTB BRANCH_DIRECT_CALL	ACCESS:     837230  HIT:     681770  MISS:     155460	AVERAGE STALL: 36.8506
L2BTB BRANCH_INDIRECT_CALL	ACCESS:     140487  HIT:     107424  MISS:      33063	AVERAGE STALL: 107.887
L2BTB BRANCH_RETURN	ACCESS:     822232  HIT:     713167  MISS:     109065	AVERAGE STALL: 36.4733
L2BTB BRANCH_OTHER ACCESS:          0  HIT:          0  MISS:          0	AVERAGE STALL: -nan
L2BTB TOTAL ROB OCCUPANCY AT BTB MISS: 89.2362

L2C TOTAL     ACCESS:    4468403  HIT:    3971576  MISS:     496827  HIT %:    88.8813  MISS %:    11.1187   MPKI: 9.93654
L2C LOAD INSTRUCTION	ACCESS:    2753433  HIT:    2475674  MISS:     277759  HIT %:    89.9123  MISS %:    10.0877  MPKI: 5.55518
L2C LOAD TRANSLATION INSTRUCTION	ACCESS:        254  HIT:         60  MISS:        194  HIT %:     23.622  MISS %:     76.378  MPKI: 0.00388
L2C LOAD DATA	ACCESS:     721168  HIT:     639046  MISS:      82122  HIT %:    88.6126  MISS %:    11.3874  MPKI: 1.64244
L2C RFO DATA	ACCESS:     284978  HIT:     237844  MISS:      47134  HIT %:    83.4605  MISS %:    16.5395  MPKI: 0.94268
L2C PREFETCH DATA	ACCESS:     189369  HIT:     114487  MISS:      74882  HIT %:    60.4571  MISS %:    39.5429  MPKI: 1.49764
L2C WRITEBACK DATA	ACCESS:     517274  HIT:     503901  MISS:      13373  HIT %:    97.4147  MISS %:    2.58528  MPKI: 0.26746
L2C LOAD TRANSLATION DATA	ACCESS:       1874  HIT:        532  MISS:       1342  HIT %:    28.3885  MISS %:    71.6115  MPKI: 0.02684
L2C TRANSLATION FROM L1D PREFETCHER DATA	ACCESS:         53  HIT:         32  MISS:         21  HIT %:    60.3774  MISS %:    39.6226  MPKI: 0.00042

L2C PREFETCH  REQUESTED:      95661  ISSUED:      95661  USEFUL:       8426  USELESS:      66694
L2C USEFUL LOAD PREFETCHES:       8426 PREFETCH ISSUED TO LOWER LEVEL:      75297  ACCURACY: 11.1904
 TIMELY PREFETCHES:       8426 LATE PREFETCHES: 415 DROPPED PREFETCHES: 0
L2C AVERAGE MISS LATENCY: 38.0198 cycles
L2C RQ	ACCESS:    3761819	FORWARD:          0	MERGED:          0	TO_CACHE:    3761761
L2C WQ	ACCESS:     517274	FORWARD:         58	MERGED:          0	TO_CACHE:     517274
L2C PQ	ACCESS:     197044	FORWARD:          0	MERGED:       3642	TO_CACHE:     193402

L2C Dense regions hint from L2: 0
PSCL5 TOTAL     ACCESS:       4142  HIT:       2071  MISS:       2071  HIT %:         50  MISS %:         50   MPKI: 0.04142
PSCL5 LOAD TRANSLATION INSTRUCTION	ACCESS:       4036  HIT:       2018  MISS:       2018  HIT %:         50  MISS %:         50  MPKI: 0.04036
PSCL5 TRANSLATION FROM L1D PREFETCHER INSTRUCTION	ACCESS:        106  HIT:         53  MISS:         53  HIT %:         50  MISS %:         50  MPKI: 0.00106


PSCL4 TOTAL     ACCESS:       3540  HIT:       1768  MISS:       1772  HIT %:    49.9435  MISS %:    50.0565   MPKI: 0.03544
PSCL4 LOAD TRANSLATION INSTRUCTION	ACCESS:       1907  HIT:       1719  MISS:        188  HIT %:    90.1416  MISS %:    9.85842  MPKI: 0.00376
PSCL4 TRANSLATION FROM L1D PREFETCHER INSTRUCTION	ACCESS:         49  HIT:         49  MISS:          0  HIT %:        100  MISS %:          0  MPKI: 0
PSCL4 LOAD TRANSLATION DATA	ACCESS:       1535  HIT:          0  MISS:       1535  HIT %:          0  MISS %:        100  MPKI: 0.0307
PSCL4 TRANSLATION FROM L1D PREFETCHER DATA	ACCESS:         49  HIT:          0  MISS:         49  HIT %:          0  MISS %:        100  MPKI: 0.00098


PSCL3 TOTAL     ACCESS:       4098  HIT:       2045  MISS:       2053  HIT %:    49.9024  MISS %:    50.0976   MPKI: 0.04106
PSCL3 LOAD TRANSLATION INSTRUCTION	ACCESS:       2333  HIT:       1999  MISS:        334  HIT %:    85.6837  MISS %:    14.3163  MPKI: 0.00668
PSCL3 TRANSLATION FROM L1D PREFETCHER INSTRUCTION	ACCESS:         50  HIT:         46  MISS:          4  HIT %:         92  MISS %:          8  MPKI: 8e-05
PSCL3 LOAD TRANSLATION DATA	ACCESS:       1673  HIT:          0  MISS:       1673  HIT %:          0  MISS %:        100  MPKI: 0.03346
PSCL3 TRANSLATION FROM L1D PREFETCHER DATA	ACCESS:         42  HIT:          0  MISS:         42  HIT %:          0  MISS %:        100  MPKI: 0.00084


PSCL2 TOTAL     ACCESS:       4043  HIT:       1972  MISS:       2071  HIT %:    48.7757  MISS %:    51.2243   MPKI: 0.04142
PSCL2 LOAD TRANSLATION INSTRUCTION	ACCESS:       2141  HIT:       1919  MISS:        222  HIT %:     89.631  MISS %:     10.369  MPKI: 0.00444
PSCL2 TRANSLATION FROM L1D PREFETCHER INSTRUCTION	ACCESS:         53  HIT:         53  MISS:          0  HIT %:        100  MISS %:          0  MPKI: 0
PSCL2 LOAD TRANSLATION DATA	ACCESS:       1796  HIT:          0  MISS:       1796  HIT %:          0  MISS %:        100  MPKI: 0.03592
PSCL2 TRANSLATION FROM L1D PREFETCHER DATA	ACCESS:         53  HIT:          0  MISS:         53  HIT %:          0  MISS %:        100  MPKI: 0.00106


LLC TOTAL     ACCESS:     555414  HIT:     527388  MISS:      28026  HIT %:     94.954  MISS %:    5.04597   MPKI: 0.56052
LLC LOAD INSTRUCTION	ACCESS:     277759  HIT:     277018  MISS:        741  HIT %:    99.7332  MISS %:   0.266778  MPKI: 0.01482
LLC LOAD TRANSLATION INSTRUCTION	ACCESS:        194  HIT:        182  MISS:         12  HIT %:    93.8144  MISS %:    6.18557  MPKI: 0.00024
LLC LOAD DATA	ACCESS:      81720  HIT:      78170  MISS:       3550  HIT %:    95.6559  MISS %:     4.3441  MPKI: 0.071
LLC RFO DATA	ACCESS:      47119  HIT:      33751  MISS:      13368  HIT %:    71.6293  MISS %:    28.3707  MPKI: 0.26736
LLC PREFETCH DATA	ACCESS:      75297  HIT:      65377  MISS:       9920  HIT %:    86.8255  MISS %:    13.1745  MPKI: 0.1984
LLC WRITEBACK DATA	ACCESS:      71962  HIT:      71588  MISS:        374  HIT %:    99.4803  MISS %:   0.519719  MPKI: 0.00748
LLC LOAD TRANSLATION DATA	ACCESS:       1342  HIT:       1282  MISS:         60  HIT %:    95.5291  MISS %:    4.47094  MPKI: 0.0012
LLC TRANSLATION FROM L1D PREFETCHER DATA	ACCESS:         21  HIT:         20  MISS:          1  HIT %:    95.2381  MISS %:     4.7619  MPKI: 2e-05

LLC AVERAGE MISS LATENCY: 155.404 cycles
LLC RQ	ACCESS:     408157	FORWARD:          0	MERGED:          0	TO_CACHE:     408155
LLC WQ	ACCESS:      71962	FORWARD:          2	MERGED:          0	TO_CACHE:      71962
LLC PQ	ACCESS:      75297	FORWARD:          0	MERGED:          0	TO_CACHE:      75297

LLC Dense regions hint to LLC: 0

RAW hits: 1691205
Loads Generated: 12630592
Loads sent to L1D: 10939387
Stores Generated: 6939769
Stores sent to L1D: 6939794
Major fault: 0 Minor fault: 2613
Allocated PAGES: 2613

stream: 
stream:times selected: 1185682
stream:pref_filled: 121734
stream:pref_useful: 23866
stream:pref_late: 6947
stream:misses: 7976
stream:misses_by_poll: 0

CS: 
CS:times selected: 177587
CS:pref_filled: 58254
CS:pref_useful: 34864
CS:pref_late: 7949
CS:misses: 17025
CS:misses_by_poll: 5

CPLX: 
CPLX:times selected: 1006934
CPLX:pref_filled: 19503
CPLX:pref_useful: 4543
CPLX:pref_late: 3136
CPLX:misses: 92956
CPLX:misses_by_poll: 6

NL_L1: 
NL:times selected: 20577
NL:pref_filled: 800
NL:pref_useful: 410
NL:pref_late: 278
NL:misses: 1650
NL:misses_by_poll: 0

total selections: 2390780
total_filled: 92527
total_useful: 33315
total_late: 19536
total_polluted: 11
total_misses_after_warmup: 759680
conflicts: 5666208

test: 118755

DRAM Statistics
 CHANNEL 0
 RQ ROW_BUFFER_HIT:      10030  ROW_BUFFER_MISS:      17619
 DBUS_CONGESTED:          7
 WQ ROW_BUFFER_HIT:       1379  ROW_BUFFER_MISS:      12341  FULL:          0

 AVG_CONGESTED_CYCLE: 6

CPU 0 Branch Prediction Accuracy: 99.8243% MPKI: 0.32138 Average ROB Occupancy at Mispredict: 121.141
Branch types
NOT_BRANCH: 40855419 81.7108%
BRANCH_DIRECT_JUMP: 548240 1.09648%
BRANCH_INDIRECT: 182975 0.36595%
BRANCH_CONDITIONAL: 6181891 12.3638%
BRANCH_DIRECT_CALL: 943735 1.88747%
BRANCH_INDIRECT_CALL: 171780 0.34356%
BRANCH_RETURN: 1115509 2.23102%
BRANCH_OTHER: 0 0%

DRAM PAGES: 1048576
Allocated PAGES: 2613
Average_ROB_Occupancy: 110.344
Average_Decode_Occupancy: 13.0516
Average_FTQ_Occupancy: 6.24318
Indirect max targets: 14 Average targets: 1.17778
Branch_type:  BRANCH_DIRECT_JUMP:  Count Percentage: 3.31248 6.93433 3.73608 7.44147 3.32627 6.33076 1.19325 67.7254 
Branch_type:  BRANCH_INDIRECT:  Count Percentage: 6.11677 3.44544 8.16253 9.69241 3.34259 2.80619 0.935213 65.4989 
Branch_type:  BRANCH_CONDITIONAL:  Count Percentage: 21.145 3.9364 1.46678 7.22076 2.64885 3.5719 0.455767 59.5545 
Branch_type:  BRANCH_DIRECT_CALL:  Count Percentage: 0.879087 1.2622 0.74621 3.72523 3.22427 2.61338 0.618258 86.9314 
Branch_type:  BRANCH_INDIRECT_CALL:  Count Percentage: 9.51871 0 2.98318 0.000873383 1.32288 1.70746 0.995365 83.4715 
Branch_type:  BRANCH_RETURN:  Count Percentage: 4.70809 4.78791 1.03126 3.67374 4.23134 3.48933 0.375078 77.7033 
Branch_type:  BRANCH_DIRECT_JUMP:  Total Count: 36277 75942 40916 81496 36428 69332 13068 741701 
Branch_type:  BRANCH_INDIRECT:  Total Count: 22362 12596 29841 35434 12220 10259 3419 239454 
Branch_type:  BRANCH_CONDITIONAL:  Total Count: 2612468 486343 181221 892125 327266 441308 56310 7357964 
Branch_type:  BRANCH_DIRECT_CALL:  Total Count: 16599 23833 14090 70340 60881 49346 11674 1641445 
Branch_type:  BRANCH_INDIRECT_CALL:  Total Count: 32696 0 10247 3 4544 5865 3419 286718 
Branch_type:  BRANCH_RETURN:  Total Count: 105113 106895 23024 82020 94469 77903 8374 1734806 
Number of unique branch instructions: 10884
Upper 32 bits: 
aaaa
ffff
ffff0000
Unique upper 32 bits: 3
Unique upper 36 bits: 3
Unique upper 40 bits: 5
Unique upper 44 bits: 32
Unique upper 48 bits: 158
Variant_0 : 1022 0.332682
Variant_1 : 979 0.318685
Variant_2 : 1070 0.348307
Variant_3 : 0 0
Offset_3 4498
Offset_4 263
Offset_5 490
Offset_6 552
Offset_7 644
Offset_8 590
Offset_9 528
Offset_10 432
Offset_11 354
Offset_12 327
Offset_13 240
Offset_14 247
Offset_15 203
Offset_16 233
Offset_17 173
Offset_18 155
Offset_19 267
Offset_20 145
Offset_21 235
Offset_22 416
Offset_23 241
Offset_24 347
Offset_25 117
Offset_47 92
Offset_64 1
decode_dispatch_called: 20374125 43.8141
Dispatch_width: 0 10297788 50.5435 22.1452
Dispatch_width: 1 553533 2.71684 1.19036
Dispatch_width: 2 695736 3.4148 1.49617
Dispatch_width: 3 472904 2.3211 1.01697
Dispatch_width: 4 1565607 7.68429 3.36681
Dispatch_width: 5 357773 1.75602 0.769384
Dispatch_width: 6 6430784 31.5635 13.8293
Empty_decode_cycles: 26127130 56.1859
ROB_full_cycles: 1982894 4.26417
Starvation_cycles_per_kilo_instr: 380.876
Starvation_cycles_per_kilo_instr_3: 361.642
Starvation_cycles_per_kilo_instr_0: 344.42
Branch_type_1  (3,1)  (4,9)  (5,39)  (6,76)  (7,126)  (8,152)  (9,139)  (10,110)  (11,78)  (12,55)  (13,11)  (14,2)  (15,3)  (16,4)  (18,1)  (19,5)  (20,2)  (21,1)  (22,3)  (23,2)  (24,10)  (25,12) 
Branch_type_2  (3,1)  (4,1)  (5,1)  (8,4)  (9,4)  (10,1)  (12,1)  (13,1)  (14,1)  (16,3)  (17,2)  (20,2)  (21,2)  (23,5)  (24,1)  (47,41) 
Branch_type_3  (3,4496)  (4,253)  (5,446)  (6,459)  (7,486)  (8,365)  (9,288)  (10,176)  (11,140)  (12,62)  (13,10)  (64,1) 
Branch_type_4  (6,4)  (7,8)  (8,26)  (9,58)  (10,69)  (11,70)  (12,117)  (13,102)  (14,112)  (15,97)  (16,104)  (17,80)  (18,68)  (19,129)  (20,74)  (21,124)  (22,220)  (23,136)  (24,202)  (25,101) 
Branch_type_5  (8,3)  (9,1)  (10,4)  (11,5)  (12,3)  (13,14)  (14,16)  (15,11)  (16,22)  (17,13)  (18,23)  (19,14)  (20,11)  (21,13)  (22,43)  (23,26)  (24,38) 
Branch_type_6  (5,4)  (6,13)  (7,24)  (8,40)  (9,38)  (10,72)  (11,61)  (12,89)  (13,102)  (14,116)  (15,92)  (16,100)  (17,78)  (18,63)  (19,119)  (20,56)  (21,95)  (22,150)  (23,72)  (24,96)  (25,4)  (47,51) 
Unique trigger count: 
Variant_0_evicts_0 : 0
Variant_0_evicts_1 : 0
Variant_0_evicts_2 : 0
Variant_0_evicts_3 : 0
Variant_1_evicts_0 : 0
Variant_1_evicts_1 : 0
Variant_1_evicts_2 : 0
Variant_1_evicts_3 : 0
Variant_2_evicts_0 : 0
Variant_2_evicts_1 : 0
Variant_2_evicts_2 : 0
Variant_2_evicts_3 : 0
Variant_3_evicts_0 : 0
Variant_3_evicts_1 : 0
Variant_3_evicts_2 : 0
Variant_3_evicts_3 : 0
BTB PER SET UNIQUE ADDR: 47 53 43 55 45 42 41 40 44 46 43 57 42 45 43 40 42 43 42 53 44 33 39 39 50 50 44 55 41 38 50 46 60 39 52 46 57 43 36 40 43 40 44 62 48 45 46 40 60 51 44 46 47 56 37 37 50 39 34 47 48 59 45 53 48 48 42 48 52 46 48 42 53 41 38 39 36 50 39 67 48 42 45 48 42 44 54 50 49 67 45 39 50 44 31 53 47 37 48 45 67 52 43 47 47 38 47 36 34 37 39 52 54 33 41 43 52 49 52 46 47 41 44 32 45 44 33 54 61 43 41 47 45 49 41 53 30 51 40 60 41 62 37 44 44 45 50 47 48 44 48 54 40 44 35 51 44 44 38 51 44 40 56 58 45 45 47 50 46 44 50 51 39 49 46 42 44 44 45 53 41 48 44 52 49 54 35 51 53 44 48 39 40 50 49 48 48 43 52 50 50 50 42 44 46 42 48 46 52 52 47 62 41 51 48 47 44 56 45 54 41 49 44 49 47 48 49 45 39 55 52 35 51 60 42 50 54 48 37 52 43 46 57 51 45 39 38 42 37 39 38 46 41 49 49 42 22 18 20 23 26 19 9 22 24 17 19 19 16 23 19 26 17 13 16 18 22 27 21 24 17 24 17 17 25 20 17 35 31 26 25 17 22 28 17 29 24 28 24 23 20 20 18 36 23 29 25 20 32 24 22 28 19 34 27 14 27 21 20 30 18 26 18 23 28 30 24 19 21 16 21 29 19 21 20 29 18 19 18 37 23 26 16 30 28 27 18 24 21 23 24 21 27 20 21 28 23 26 18 16 20 31 20 30 20 27 13 23 28 25 24 15 23 26 17 31 25 29 19 25 22 23 16 16 19 21 29 28 25 25 28 17 23 28 18 19 18 19 30 23 21 23 22 24 29 29 27 25 22 22 24 17 17 28 23 22 22 29 39 30 18 28 23 26 26 20 27 20 24 22 30 24 19 23 28 27 26 19 18 26 27 19 17 29 34 19 18 25 30 24 31 38 25 19 29 35 27 28 19 31 17 22 19 29 35 19 22 23 25 25 24 26 27 23 23 33 28 34 16 25 35 29 22 24 16 27 36 29 28 24 21 26 19 17 19 20 26 26 21 23 20 31 19 34 20 20 22 30 27 26 24 32 23 25 21 29 25 31 17 17 16 22 22 18 24 33 34 16 14 32 28 25 25 23 26 30 20 24 27 24 26 21 28 23 30 30 16 26 15 23 27 31 22 25 18 25 23 24 30 27 21 34 25 23 24 31 23 29 23 29 27 27 28 33 23 29 27 29 22 25 24 23 14 25 28 25 23 24 34 27 18 20 22 18 28 18 17 22 24 20 21 22 22 16 22 28 32 21 21 25 31 25 22 19 10 30 15 28 20 25 29 23 17 18 19 33 20 30 19 24 19 27 31 24 23 22 24 28 21 28 22 25 26 31 26 25 21 26 33 17 18 24 21 20 30 22 21 25 27 21 24 15 26 30 22 25 17 19 21 20 25 22 18 26 32 22 25 27 28 31 21 30 20 24 25 23 20 24 28 27 22 25 21 16 16 22 18 28 20 25 16 28 28 32 13 28 22 18 19 15 23 26 18 22 18 19 30 24 20 26 26 23 22 20 20 24 23 23 20 19 26 21 21 21 22 25 25 29 35 20 21 20 19 25 32 30 21 24 22 20 24 22 23 22 17 23 33 22 19 20 26 14 16 24 22 30 17 25 
BTB PER SET COUNT: 1965 2151 3602 2590 2546 1730 1744 1711 2079 2223 1545 2893 18760 3058 2179 1531 2044 1999 2009 2288 2058 1272 1851 2238 1819 2522 2237 2769 2122 2081 2324 3028 2853 1666 2265 2624 2701 2066 1412 2366 1571 1713 1795 4537 2222 1820 2328 2430 3358 2762 2301 2606 2150 2784 1450 1768 2450 1714 1740 2007 2123 3048 2331 2520 2424 2308 1558 2849 2554 2199 2576 2142 2606 1962 1616 1865 1846 2621 1645 2727 2207 3536 2540 2298 1617 2480 2543 2389 2597 3296 2123 2095 2572 2290 1300 2114 2346 1525 2084 3701 3456 2414 1644 2373 3755 1408 2095 1297 1601 1783 2779 2991 2940 1384 2141 2026 2447 2687 3354 2316 2371 1547 2232 1515 2416 2692 1209 2468 3550 2104 1881 3191 2100 2152 2177 2829 1626 2231 1696 2817 1835 2616 1796 1623 2003 2247 2611 2005 2637 2512 1986 2168 1735 2297 901 2696 2068 2316 1317 2952 1741 1784 2665 2747 2524 2301 1608 3110 2024 1803 2865 2447 1517 2912 2329 1670 1745 1759 2232 2772 1712 2289 2459 3037 2249 4196 1021 2379 2444 1977 2259 1883 1868 2725 2200 1978 2211 1735 2527 2186 2246 2459 2110 2860 1879 2094 3209 2134 2652 2276 2735 2968 1850 4464 2249 3396 1717 3240 3380 2784 1719 2151 2162 2875 2128 2036 2138 2087 1753 2730 2098 1636 2487 3307 1823 3634 2295 2312 2143 2153 2492 2531 3503 2858 2302 1976 1850 2056 1307 1511 1650 1573 1564 2457 2294 2239 599 752 565 729 1007 562 129 1074 608 342 794 672 1332 776 710 771 435 256 544 309 896 1071 634 1027 258 960 946 712 765 636 266 1646 1162 824 864 445 636 1425 409 1216 1544 1167 728 1221 655 608 291 1633 581 1235 944 707 1461 1406 1114 1057 544 1366 2528 554 1105 952 730 1313 504 2186 331 583 1130 1498 1163 466 646 417 875 1131 525 490 534 1056 412 1466 358 1594 727 1878 468 1140 1168 709 331 965 591 862 1002 506 802 603 533 729 684 1205 486 591 637 1173 536 1059 685 1963 252 845 956 792 794 660 937 1106 897 1094 817 954 707 1235 997 639 691 370 550 639 2980 1071 677 1212 1120 341 842 1686 477 620 497 819 1326 1176 698 774 916 655 1204 971 958 778 723 926 947 309 449 1358 638 862 712 2183 1777 968 626 939 824 910 849 600 1585 621 797 1087 1233 731 584 646 1443 1204 912 954 520 717 1674 701 461 1159 1914 762 859 1016 1081 939 1437 2476 933 532 1206 1967 1024 949 574 1153 495 571 642 1269 1299 781 6365 636 830 1042 969 1092 764 795 725 1333 819 1488 536 1060 1724 1261 582 875 581 1209 1546 1122 1981 777 764 736 4569 493 424 809 1271 2120 827 675 627 1138 653 1313 713 468 620 1513 878 774 798 2307 1437 1327 725 1287 591 1112 537 790 374 789 715 673 879 1482 2022 1044 658 1946 1640 1007 860 724 1196 1240 1092 1640 853 915 1048 679 838 947 986 1406 282 778 595 1245 938 1404 1339 984 600 464 870 691 1270 1017 510 1438 761 804 1248 1021 866 1213 1006 1274 1507 947 860 1185 2651 888 1049 1377 1014 873 1076 1040 432 2697 943 1181 1031 852 1601 891 974 690 782 400 1053 470 1066 1388 832 484 477 960 799 372 1023 716 1258 2976 421 776 1249 1362 1303 395 241 956 326 1028 1007 1168 1239 734 348 786 561 1090 562 1364 1968 683 376 1511 1421 796 737 1012 921 1360 570 1520 851 916 912 770 1522 918 1062 1101 1790 425 344 803 356 648 2028 901 667 684 1116 1289 715 277 1422 1204 3046 960 593 1335 1760 820 729 767 724 1004 1833 790 838 921 1083 1335 812 1022 1039 734 1583 792 582 666 1200 1086 559 774 677 430 2767 657 723 2353 751 728 1382 1115 1330 1079 203 967 697 689 366 393 800 1063 797 594 890 638 1452 847 641 1253 1025 1104 642 1110 1899 690 664 876 1442 1003 1014 5516 691 616 667 1006 1057 1087 1326 497 1014 437 757 843 1319 1064 1658 470 870 708 2111 629 1082 2582 1504 766 1307 1283 564 434 974 415 334 961 1497 1335 422 1156 
To predecode: 0
Predecoding something: 0
Predecode request dropped: 0
sizeofblock_0 0
sizeofblock_1 379935
sizeofblock_2 243620
sizeofblock_3 88911
sizeofblock_4 49474
sizeofblock_5 0
sizeofblock_6 0
sizeofblock_7 0
sizeofblock_8 0
Variant_0 Correct: 1324159 Incorrect: 0 Accuracy: 1
Variant_1 Correct: 1793635 Incorrect: 0 Accuracy: 1
Variant_2 Correct: 3284851 Incorrect: 0 Accuracy: 1
Variant_3 Correct: 0 Incorrect: 0 Accuracy: -nan
