
*** ChampSim Multicore Out-of-Order Simulator ***

Warmup Instructions: 50000000
Simulation Instructions: 50000000
Number of CPUs: 1
LLC sets: 2048
LLC ways: 16
Off-chip DRAM Size: 4096 MB Channels: 1 Width: 64-bit Data Rate: 6400 MT/s
CPU 0 runs ./micro_traces/srv250.trace.gz
.gz
ITLB has LRU replacement policy
DTLB has LRU replacement policy
STLB has LRU replacement policy
FDIP Prefetcher at L1I
L1I has LRU replacement policy
L1D has LRU replacement policy
Initialize SRRIP state for L2C
Initialize DRRIP state for LLC
Heartbeat CPU 0 instructions: 10000003 cycles: 2796660 heartbeat IPC: 3.5757 cumulative IPC: 3.5757 (Simulation time: 0 hr 1 min 38 sec) 
Heartbeat CPU 0 instructions: 20000000 cycles: 5592093 heartbeat IPC: 3.57726 cumulative IPC: 3.57648 (Simulation time: 0 hr 3 min 18 sec) 
Heartbeat CPU 0 instructions: 30000000 cycles: 8389730 heartbeat IPC: 3.57445 cumulative IPC: 3.5758 (Simulation time: 0 hr 4 min 51 sec) 
Heartbeat CPU 0 instructions: 40000001 cycles: 11186744 heartbeat IPC: 3.57524 cumulative IPC: 3.57566 (Simulation time: 0 hr 6 min 30 sec) 
Heartbeat CPU 0 instructions: 50000000 cycles: 13983224 heartbeat IPC: 3.57592 cumulative IPC: 3.57571 (Simulation time: 0 hr 8 min 8 sec) 

Warmup complete CPU 0 instructions: 50000004 cycles: 13983225 (Simulation time: 0 hr 8 min 8 sec) 

Cycle: 20000000 FTQ IN: 56302182 FTQ occupancy: 17.65 DECODE IN: 56302162 DECODE occupancy: 45.0319 ROB IN: 56302157 ROB occupancy: 271.304 ROB OUT: 56302128
Heartbeat CPU 0 instructions: 60000001 cycles: 23502780 heartbeat IPC: 1.05047 cumulative IPC: 1.05047 (Simulation time: 0 hr 9 min 24 sec) 
Cycle: 30000000 FTQ IN: 10547997 FTQ occupancy: 5.30568 DECODE IN: 10547984 DECODE occupancy: 10.3256 ROB IN: 10547984 ROB occupancy: 91.9179 ROB OUT: 10547986
Heartbeat CPU 0 instructions: 70000003 cycles: 33073775 heartbeat IPC: 1.04482 cumulative IPC: 1.04764 (Simulation time: 0 hr 10 min 44 sec) 
Cycle: 40000000 FTQ IN: 10422477 FTQ occupancy: 5.42595 DECODE IN: 10422369 DECODE occupancy: 10.5048 ROB IN: 10422314 ROB occupancy: 93.1273 ROB OUT: 10421989
Heartbeat CPU 0 instructions: 80000000 cycles: 42597199 heartbeat IPC: 1.05004 cumulative IPC: 1.04844 (Simulation time: 0 hr 12 min 0 sec) 
Cycle: 50000000 FTQ IN: 10489107 FTQ occupancy: 5.27964 DECODE IN: 10489241 DECODE occupancy: 10.2852 ROB IN: 10489279 ROB occupancy: 91.7495 ROB OUT: 10489604
Heartbeat CPU 0 instructions: 90000003 cycles: 52149177 heartbeat IPC: 1.0469 cumulative IPC: 1.04805 (Simulation time: 0 hr 13 min 20 sec) 
Cycle: 60000000 FTQ IN: 10410900 FTQ occupancy: 5.40391 DECODE IN: 10410888 DECODE occupancy: 10.4292 ROB IN: 10410910 ROB occupancy: 92.6659 ROB OUT: 10410900
Heartbeat CPU 0 instructions: 100000000 cycles: 61751960 heartbeat IPC: 1.04136 cumulative IPC: 1.04671 (Simulation time: 0 hr 14 min 38 sec) 
Finished CPU 0 instructions: 50000002 cycles: 47768738 cumulative IPC: 1.04671 (Simulation time: 0 hr 14 min 38 sec) 

ChampSim completed all CPUs

Region of Interest Statistics

CPU 0 cumulative IPC: 1.04671 instructions: 50000002 cycles: 47768738
 Fetch stage stalled: 74.358  Sim cycles: 47768738 fetch stall cycle: 35519884
 Empty decode stage: 80.8006  Sim cycles: 47768738 fetch stall cycle: 38597416
ITLB TOTAL     ACCESS:    6039278  HIT:    5546628  MISS:     492650  HIT %:    91.8426  MISS %:    8.15743   MPKI: 9.853
ITLB LOAD TRANSLATION INSTRUCTION	ACCESS:    5956831  HIT:    5464181  MISS:     492650  HIT %:    91.7297  MISS %:    8.27034  MPKI: 9.853
ITLB TRANSLATION FROM L1D PREFETCHER INSTRUCTION	ACCESS:      82447  HIT:      82447  MISS:          0  HIT %:        100  MISS %:          0  MPKI: 0

ITLB AVERAGE MISS LATENCY: 9.04386 cycles
ITLB RQ	ACCESS:    7679419	FORWARD:          0	MERGED:    1372354	TO_CACHE:    6307065

DTLB TOTAL     ACCESS:    9603190  HIT:    9130570  MISS:     472620  HIT %:    95.0785  MISS %:    4.92149   MPKI: 9.4524
DTLB LOAD TRANSLATION DATA	ACCESS:    9603190  HIT:    9130570  MISS:     472620  HIT %:    95.0785  MISS %:    4.92149  MPKI: 9.4524

DTLB AVERAGE MISS LATENCY: 9.31866 cycles
DTLB RQ	ACCESS:   13843344	FORWARD:          0	MERGED:    4209435	TO_CACHE:    9633909

STLB TOTAL     ACCESS:    1214335  HIT:    1212278  MISS:       2057  HIT %:    99.8306  MISS %:   0.169393   MPKI: 0.04114
STLB LOAD TRANSLATION INSTRUCTION	ACCESS:     492650  HIT:     492428  MISS:        222  HIT %:    99.9549  MISS %:  0.0450624  MPKI: 0.00444
STLB LOAD TRANSLATION DATA	ACCESS:     472427  HIT:     470617  MISS:       1810  HIT %:    99.6169  MISS %:   0.383128  MPKI: 0.0362
STLB TRANSLATION FROM L1D PREFETCHER DATA	ACCESS:     249258  HIT:     249233  MISS:         25  HIT %:      99.99  MISS %:  0.0100298  MPKI: 0.0005

STLB AVERAGE MISS LATENCY: 70.859 cycles
STLB RQ	ACCESS:    1337046	FORWARD:          0	MERGED:     122665	TO_CACHE:    1214381

STLB Hit, L1D data hit: 0
STLB Hit, L2C data hit: 0
STLB Hit, LLC data hit: 0
STLB Hit, LLC data miss: 0
STLB STLB hints to L2: 0
L1D TOTAL     ACCESS:   13616101  HIT:   12507477  MISS:    1108624  HIT %:     91.858  MISS %:    8.14201   MPKI: 22.1725
L1D LOAD DATA	ACCESS:    7031383  HIT:    6300626  MISS:     730757  HIT %:    89.6072  MISS %:    10.3928  MPKI: 14.6151
L1D RFO DATA	ACCESS:    6254038  HIT:    5969501  MISS:     284537  HIT %:    95.4503  MISS %:    4.54965  MPKI: 5.69074
L1D PREFETCH DATA	ACCESS:     330680  HIT:     237350  MISS:      93330  HIT %:    71.7763  MISS %:    28.2237  MPKI: 1.8666

L1D PREFETCH  REQUESTED:     743816  ISSUED:     743816  USEFUL:      33541  USELESS:      68385
L1D USEFUL LOAD PREFETCHES:      33541 PREFETCH ISSUED TO LOWER LEVEL:     101937  ACCURACY: 32.9037
 TIMELY PREFETCHES:      33541 LATE PREFETCHES: 8592 DROPPED PREFETCHES: 11
L1D AVERAGE MISS LATENCY: 297941 cycles
L1D RQ	ACCESS:   11069567	FORWARD:          0	MERGED:    3839443	TO_CACHE:    7063543
L1D WQ	ACCESS:    6939794	FORWARD:     166845	MERGED:     159993	TO_CACHE:    6779801
L1D PQ	ACCESS:     372040	FORWARD:          0	MERGED:          0	TO_CACHE:     371776

L1D UNIQUE REGIONS ACCESSED: 0
L1D REGIONS CONFLICTS: 0
L1D Cross Page Prefetch Requests: 7029
L1D Same Page Prefetch Requests: 750598
L1D ROI Sum of L1D PQ occupancy: 4719245
L1D PREFETCHES PUSHED FROM L2C: 0
L1I TOTAL     ACCESS:    7128040  HIT:    4373241  MISS:    2754799  HIT %:    61.3526  MISS %:    38.6474   MPKI: 55.096
L1I LOAD INSTRUCTION	ACCESS:    6762280  HIT:    4007481  MISS:    2754799  HIT %:    59.2623  MISS %:    40.7377  MPKI: 55.096
L1I PREFETCH INSTRUCTION	ACCESS:     365760  HIT:     365760  MISS:          0  HIT %:        100  MISS %:          0  MPKI: 0

L1I PREFETCH  REQUESTED:     912297  ISSUED:     912297  USEFUL:          0  USELESS:          0
L1I USEFUL LOAD PREFETCHES:          0 PREFETCH ISSUED TO LOWER LEVEL:          0  ACCURACY: -nan
 TIMELY PREFETCHES:          0 LATE PREFETCHES: 0 DROPPED PREFETCHES: 0
L1I AVERAGE MISS LATENCY: 17.2758 cycles
L1I RQ	ACCESS:    9422407	FORWARD:          0	MERGED:    2395908	TO_CACHE:    7026499
L1I PQ	ACCESS:     912297	FORWARD:          0	MERGED:     259377	TO_CACHE:     652920

L1BTB TOTAL     ACCESS:    5671539  HIT:    2051291  MISS:    3620248  HIT %:    36.1682  MISS %:    63.8318   MPKI: 72.405
L1BTB BRANCH_DIRECT_JUMP	ACCESS:     548238 HIT:     145579 MISS:     402659 AVERAGE STALL: 31.6736 AVERAGE FETCH STALL: 17.6033 AVERAGE FETCH QUEUE STALL: 6.67129 AVERAGE DECODE STALL: 6.52341 AVERAGE EXECUTE STALL: 1.09867e+15
L1BTB BRANCH_INDIRECT	ACCESS:     182975 HIT:      66132 MISS:     116843 AVERAGE STALL: 59.4668 AVERAGE FETCH STALL: 11.43 AVERAGE FETCH QUEUE STALL: 5.89359 AVERAGE DECODE STALL: 6.29326 AVERAGE EXECUTE STALL: 34.8873
L1BTB BRANCH_CONDITIONAL	ACCESS:    2709307 HIT:    1419494 MISS:    1289813 AVERAGE STALL: 34.611 AVERAGE FETCH STALL: 22.6879 AVERAGE FETCH QUEUE STALL: 5.14771 AVERAGE DECODE STALL: 5.99983 AVERAGE EXECUTE STALL: 6.35569e+14
L1BTB BRANCH_DIRECT_CALL	ACCESS:     943735 HIT:     106503 MISS:     837232 AVERAGE STALL: 33.4871 AVERAGE FETCH STALL: 20.8692 AVERAGE FETCH QUEUE STALL: 6.08011 AVERAGE DECODE STALL: 5.76303 AVERAGE EXECUTE STALL: 8.73384e+14
L1BTB BRANCH_INDIRECT_CALL	ACCESS:     171780 HIT:      21710 MISS:     150070 AVERAGE STALL: 76.4065 AVERAGE FETCH STALL: 13.4099 AVERAGE FETCH QUEUE STALL: 2.41237 AVERAGE DECODE STALL: 5.63518 AVERAGE EXECUTE STALL: 54.4513
L1BTB BRANCH_RETURN	ACCESS:    1115504 HIT:     291873 MISS:     823631 AVERAGE STALL: 35.0546 AVERAGE FETCH STALL: 17.1302 AVERAGE FETCH QUEUE STALL: 2.78791 AVERAGE DECODE STALL: 4.87879 AVERAGE EXECUTE STALL: 3.62989e+14
L1BTB BRANCH_OTHER ACCESS:          0 HIT:          0 MISS:          0 AVERAGE STALL: -nan AVERAGE FETCH STALL: -nan AVERAGE FETCH QUEUE STALL: -nan AVERAGE DECODE STALL: -nan AVERAGE EXECUTE STALL: -nan
L1BTB TOTAL ROB OCCUPANCY AT BTB MISS: 2.15125

L2BTB TOTAL     ACCESS:    3594810  HIT:    3468133  MISS:     126677  HIT %:    96.4761  MISS %:    3.52389   MPKI: 2.53354
L2BTB BRANCH_DIRECT_JUMP	ACCESS:     398462 HIT:     385860 MISS:      12602 AVERAGE STALL: 31.6736 AVERAGE FETCH STALL: 17.6033 AVERAGE FETCH QUEUE STALL: 6.67129 AVERAGE DECODE STALL: 6.52341 AVERAGE EXECUTE STALL: 1.09867e+15
L2BTB BRANCH_INDIRECT	ACCESS:     106590 HIT:     103517 MISS:       3073 AVERAGE STALL: 59.4668 AVERAGE FETCH STALL: 11.43 AVERAGE FETCH QUEUE STALL: 5.89359 AVERAGE DECODE STALL: 6.29326 AVERAGE EXECUTE STALL: 34.8873
L2BTB BRANCH_CONDITIONAL	ACCESS:    1289813 HIT:    1260574 MISS:      29239 AVERAGE STALL: 34.611 AVERAGE FETCH STALL: 22.6879 AVERAGE FETCH QUEUE STALL: 5.14771 AVERAGE DECODE STALL: 5.99983 AVERAGE EXECUTE STALL: 6.35569e+14
L2BTB BRANCH_DIRECT_CALL	ACCESS:     837232 HIT:     816091 MISS:      21141 AVERAGE STALL: 33.4871 AVERAGE FETCH STALL: 20.8692 AVERAGE FETCH QUEUE STALL: 6.08011 AVERAGE DECODE STALL: 5.76303 AVERAGE EXECUTE STALL: 8.73384e+14
L2BTB BRANCH_INDIRECT_CALL	ACCESS:     140487 HIT:     129310 MISS:      11177 AVERAGE STALL: 76.4065 AVERAGE FETCH STALL: 13.4099 AVERAGE FETCH QUEUE STALL: 2.41237 AVERAGE DECODE STALL: 5.63518 AVERAGE EXECUTE STALL: 54.4513
L2BTB BRANCH_RETURN	ACCESS:     822226 HIT:     772781 MISS:      49445 AVERAGE STALL: 35.0546 AVERAGE FETCH STALL: 17.1302 AVERAGE FETCH QUEUE STALL: 2.78791 AVERAGE DECODE STALL: 4.87879 AVERAGE EXECUTE STALL: 3.62989e+14
L2BTB BRANCH_OTHER ACCESS:          0 HIT:          0 MISS:          0 AVERAGE STALL: -nan AVERAGE FETCH STALL: -nan AVERAGE FETCH QUEUE STALL: -nan AVERAGE DECODE STALL: -nan AVERAGE EXECUTE STALL: -nan
L2BTB TOTAL ROB OCCUPANCY AT BTB MISS: 61.4796

L2C TOTAL     ACCESS:    4471056  HIT:    3971736  MISS:     499320  HIT %:    88.8322  MISS %:    11.1678   MPKI: 9.9864
L2C LOAD INSTRUCTION	ACCESS:    2754799  HIT:    2474955  MISS:     279844  HIT %:    89.8416  MISS %:    10.1584  MPKI: 5.59688
L2C LOAD TRANSLATION INSTRUCTION	ACCESS:        254  HIT:         59  MISS:        195  HIT %:    23.2283  MISS %:    76.7717  MPKI: 0.0039
L2C LOAD DATA	ACCESS:     722152  HIT:     639551  MISS:      82601  HIT %:    88.5618  MISS %:    11.4382  MPKI: 1.65202
L2C RFO DATA	ACCESS:     284497  HIT:     237165  MISS:      47332  HIT %:    83.3629  MISS %:    16.6371  MPKI: 0.94664
L2C PREFETCH DATA	ACCESS:     189858  HIT:     115441  MISS:      74417  HIT %:    60.8039  MISS %:    39.1961  MPKI: 1.48834
L2C WRITEBACK DATA	ACCESS:     517568  HIT:     504015  MISS:      13553  HIT %:    97.3814  MISS %:    2.61859  MPKI: 0.27106
L2C LOAD TRANSLATION DATA	ACCESS:       1872  HIT:        515  MISS:       1357  HIT %:    27.5107  MISS %:    72.4893  MPKI: 0.02714
L2C TRANSLATION FROM L1D PREFETCHER DATA	ACCESS:         56  HIT:         35  MISS:         21  HIT %:       62.5  MISS %:       37.5  MPKI: 0.00042

L2C PREFETCH  REQUESTED:      95872  ISSUED:      95872  USEFUL:       8441  USELESS:      66316
L2C USEFUL LOAD PREFETCHES:       8441 PREFETCH ISSUED TO LOWER LEVEL:      74952  ACCURACY: 11.2619
 TIMELY PREFETCHES:       8441 LATE PREFETCHES: 535 DROPPED PREFETCHES: 0
L2C AVERAGE MISS LATENCY: 37.8578 cycles
L2C RQ	ACCESS:    3763668	FORWARD:          0	MERGED:          0	TO_CACHE:    3763630
L2C WQ	ACCESS:     517568	FORWARD:         38	MERGED:          0	TO_CACHE:     517568
L2C PQ	ACCESS:     197809	FORWARD:          0	MERGED:       3675	TO_CACHE:     194134

L2C Dense regions hint from L2: 0
PSCL5 TOTAL     ACCESS:       4144  HIT:       2072  MISS:       2072  HIT %:         50  MISS %:         50   MPKI: 0.04144
PSCL5 LOAD TRANSLATION INSTRUCTION	ACCESS:       4032  HIT:       2016  MISS:       2016  HIT %:         50  MISS %:         50  MPKI: 0.04032
PSCL5 TRANSLATION FROM L1D PREFETCHER INSTRUCTION	ACCESS:        112  HIT:         56  MISS:         56  HIT %:         50  MISS %:         50  MPKI: 0.00112


PSCL4 TOTAL     ACCESS:       3544  HIT:       1770  MISS:       1774  HIT %:    49.9436  MISS %:    50.0564   MPKI: 0.03548
PSCL4 LOAD TRANSLATION INSTRUCTION	ACCESS:       1906  HIT:       1718  MISS:        188  HIT %:    90.1364  MISS %:    9.86359  MPKI: 0.00376
PSCL4 TRANSLATION FROM L1D PREFETCHER INSTRUCTION	ACCESS:         52  HIT:         52  MISS:          0  HIT %:        100  MISS %:          0  MPKI: 0
PSCL4 LOAD TRANSLATION DATA	ACCESS:       1534  HIT:          0  MISS:       1534  HIT %:          0  MISS %:        100  MPKI: 0.03068
PSCL4 TRANSLATION FROM L1D PREFETCHER DATA	ACCESS:         52  HIT:          0  MISS:         52  HIT %:          0  MISS %:        100  MPKI: 0.00104


PSCL3 TOTAL     ACCESS:       4100  HIT:       2046  MISS:       2054  HIT %:    49.9024  MISS %:    50.0976   MPKI: 0.04108
PSCL3 LOAD TRANSLATION INSTRUCTION	ACCESS:       2329  HIT:       1996  MISS:        333  HIT %:     85.702  MISS %:     14.298  MPKI: 0.00666
PSCL3 TRANSLATION FROM L1D PREFETCHER INSTRUCTION	ACCESS:         54  HIT:         50  MISS:          4  HIT %:    92.5926  MISS %:    7.40741  MPKI: 8e-05
PSCL3 LOAD TRANSLATION DATA	ACCESS:       1671  HIT:          0  MISS:       1671  HIT %:          0  MISS %:        100  MPKI: 0.03342
PSCL3 TRANSLATION FROM L1D PREFETCHER DATA	ACCESS:         46  HIT:          0  MISS:         46  HIT %:          0  MISS %:        100  MPKI: 0.00092


PSCL2 TOTAL     ACCESS:       4045  HIT:       1973  MISS:       2072  HIT %:    48.7763  MISS %:    51.2237   MPKI: 0.04144
PSCL2 LOAD TRANSLATION INSTRUCTION	ACCESS:       2139  HIT:       1917  MISS:        222  HIT %:    89.6213  MISS %:    10.3787  MPKI: 0.00444
PSCL2 TRANSLATION FROM L1D PREFETCHER INSTRUCTION	ACCESS:         56  HIT:         56  MISS:          0  HIT %:        100  MISS %:          0  MPKI: 0
PSCL2 LOAD TRANSLATION DATA	ACCESS:       1794  HIT:          0  MISS:       1794  HIT %:          0  MISS %:        100  MPKI: 0.03588
PSCL2 TRANSLATION FROM L1D PREFETCHER DATA	ACCESS:         56  HIT:          0  MISS:         56  HIT %:          0  MISS %:        100  MPKI: 0.00112


LLC TOTAL     ACCESS:     557895  HIT:     530065  MISS:      27830  HIT %:    95.0116  MISS %:    4.98839   MPKI: 0.5566
LLC LOAD INSTRUCTION	ACCESS:     279844  HIT:     279055  MISS:        789  HIT %:    99.7181  MISS %:   0.281943  MPKI: 0.01578
LLC LOAD TRANSLATION INSTRUCTION	ACCESS:        195  HIT:        177  MISS:         18  HIT %:    90.7692  MISS %:    9.23077  MPKI: 0.00036
LLC LOAD DATA	ACCESS:      82077  HIT:      78595  MISS:       3482  HIT %:    95.7576  MISS %:    4.24236  MPKI: 0.06964
LLC RFO DATA	ACCESS:      47318  HIT:      33897  MISS:      13421  HIT %:    71.6366  MISS %:    28.3634  MPKI: 0.26842
LLC PREFETCH DATA	ACCESS:      74952  HIT:      65244  MISS:       9708  HIT %:    87.0477  MISS %:    12.9523  MPKI: 0.19416
LLC WRITEBACK DATA	ACCESS:      72131  HIT:      71791  MISS:        340  HIT %:    99.5286  MISS %:   0.471365  MPKI: 0.0068
LLC LOAD TRANSLATION DATA	ACCESS:       1357  HIT:       1285  MISS:         72  HIT %:    94.6942  MISS %:    5.30582  MPKI: 0.00144
LLC TRANSLATION FROM L1D PREFETCHER DATA	ACCESS:         21  HIT:         21  MISS:          0  HIT %:        100  MISS %:          0  MPKI: 0

LLC AVERAGE MISS LATENCY: 154.311 cycles
LLC RQ	ACCESS:     410815	FORWARD:          0	MERGED:          0	TO_CACHE:     410812
LLC WQ	ACCESS:      72131	FORWARD:          3	MERGED:          0	TO_CACHE:      72131
LLC PQ	ACCESS:      74952	FORWARD:          0	MERGED:          0	TO_CACHE:      74952

LLC Dense regions hint to LLC: 0

RAW hits: 1561025
Loads Generated: 12630592
Loads sent to L1D: 11069567
Stores Generated: 6939769
Stores sent to L1D: 6939794
Major fault: 0 Minor fault: 2613
Allocated PAGES: 2613

stream: 
stream:times selected: 1183062
stream:pref_filled: 121455
stream:pref_useful: 23987
stream:pref_late: 6859
stream:misses: 7848
stream:misses_by_poll: 0

CS: 
CS:times selected: 177000
CS:pref_filled: 58878
CS:pref_useful: 35296
CS:pref_late: 7911
CS:misses: 16964
CS:misses_by_poll: 2

CPLX: 
CPLX:times selected: 1004934
CPLX:pref_filled: 19967
CPLX:pref_useful: 4423
CPLX:pref_late: 3088
CPLX:misses: 93062
CPLX:misses_by_poll: 2

NL_L1: 
NL:times selected: 20366
NL:pref_filled: 727
NL:pref_useful: 403
NL:pref_late: 270
NL:misses: 1576
NL:misses_by_poll: 0

total selections: 2385362
total_filled: 93330
total_useful: 33541
total_late: 19299
total_polluted: 4
total_misses_after_warmup: 762915
conflicts: 5745053

test: 117546

DRAM Statistics
 CHANNEL 0
 RQ ROW_BUFFER_HIT:      10128  ROW_BUFFER_MISS:      17360
 DBUS_CONGESTED:          8
 WQ ROW_BUFFER_HIT:       1287  ROW_BUFFER_MISS:      12216  FULL:          0

 AVG_CONGESTED_CYCLE: 4

CPU 0 Branch Prediction Accuracy: 99.8243% MPKI: 0.32138 Average ROB Occupancy at Mispredict: 96.8999
Branch types
NOT_BRANCH: 40855387 81.7108%
BRANCH_DIRECT_JUMP: 548238 1.09648%
BRANCH_INDIRECT: 182975 0.36595%
BRANCH_CONDITIONAL: 6181887 12.3638%
BRANCH_DIRECT_CALL: 943735 1.88747%
BRANCH_INDIRECT_CALL: 171780 0.34356%
BRANCH_RETURN: 1115504 2.23101%
BRANCH_OTHER: 0 0%

DRAM PAGES: 1048576
Allocated PAGES: 2613
Average_ROB_Occupancy: 93.1545
Average_Decode_Occupancy: 10.333
Average_FTQ_Occupancy: 5.32939
Indirect max targets: 14 Average targets: 1.17778
Branch_type:  BRANCH_DIRECT_JUMP:  Count Percentage: 3.31249 6.93434 3.73608 7.44148 3.32628 6.33078 1.19325 67.7253 
Branch_type:  BRANCH_INDIRECT:  Count Percentage: 6.11677 3.44544 8.16253 9.69241 3.34259 2.80619 0.935213 65.4989 
Branch_type:  BRANCH_CONDITIONAL:  Count Percentage: 21.145 3.93641 1.46678 7.22076 2.64885 3.5719 0.455767 59.5545 
Branch_type:  BRANCH_DIRECT_CALL:  Count Percentage: 0.879087 1.2622 0.74621 3.72523 3.22427 2.61338 0.618258 86.9314 
Branch_type:  BRANCH_INDIRECT_CALL:  Count Percentage: 9.51871 0 2.98318 0.000873383 1.32288 1.70746 0.995365 83.4715 
Branch_type:  BRANCH_RETURN:  Count Percentage: 4.7081 4.78792 1.03126 3.67375 4.23135 3.48934 0.375079 77.7032 
Branch_type:  BRANCH_DIRECT_JUMP:  Total Count: 36277 75942 40916 81496 36428 69332 13068 741699 
Branch_type:  BRANCH_INDIRECT:  Total Count: 22362 12596 29841 35434 12220 10259 3419 239454 
Branch_type:  BRANCH_CONDITIONAL:  Total Count: 2612468 486343 181221 892125 327266 441308 56310 7357960 
Branch_type:  BRANCH_DIRECT_CALL:  Total Count: 16599 23833 14090 70340 60881 49346 11674 1641445 
Branch_type:  BRANCH_INDIRECT_CALL:  Total Count: 32696 0 10247 3 4544 5865 3419 286718 
Branch_type:  BRANCH_RETURN:  Total Count: 105113 106895 23024 82020 94469 77903 8374 1734801 
Number of unique branch instructions: 10884
Upper 32 bits: 
aaaa
ffff
ffff0000
Unique upper 32 bits: 3
Unique upper 36 bits: 3
Unique upper 40 bits: 5
Unique upper 44 bits: 32
Unique upper 48 bits: 158
Offset_3 4498
Offset_4 263
Offset_5 490
Offset_6 552
Offset_7 644
Offset_8 590
Offset_9 528
Offset_10 432
Offset_11 354
Offset_12 327
Offset_13 240
Offset_14 247
Offset_15 203
Offset_16 233
Offset_17 173
Offset_18 155
Offset_19 267
Offset_20 145
Offset_21 235
Offset_22 416
Offset_23 241
Offset_24 347
Offset_25 117
Offset_47 92
Offset_64 1
decode_dispatch_called: 20627779 43.1826
Dispatch_width: 0 10329823 50.0772 21.6247
Dispatch_width: 1 619191 3.00173 1.29623
Dispatch_width: 2 815280 3.95234 1.70672
Dispatch_width: 3 574747 2.78628 1.20319
Dispatch_width: 4 1637180 7.93677 3.4273
Dispatch_width: 5 432371 2.09606 0.905134
Dispatch_width: 6 6219187 30.1496 13.0194
Empty_decode_cycles: 27140959 56.8174
ROB_full_cycles: 1615746 3.38243
Starvation_cycles_per_kilo_instr: 399.338
Starvation_cycles_per_kilo_instr_3: 378.643
Starvation_cycles_per_kilo_instr_0: 358.55
Branch_type_1  (3,1)  (4,9)  (5,39)  (6,76)  (7,126)  (8,152)  (9,139)  (10,110)  (11,78)  (12,55)  (13,11)  (14,2)  (15,3)  (16,4)  (18,1)  (19,5)  (20,2)  (21,1)  (22,3)  (23,2)  (24,10)  (25,12) 
Branch_type_2  (3,1)  (4,1)  (5,1)  (8,4)  (9,4)  (10,1)  (12,1)  (13,1)  (14,1)  (16,3)  (17,2)  (20,2)  (21,2)  (23,5)  (24,1)  (47,41) 
Branch_type_3  (3,4496)  (4,253)  (5,446)  (6,459)  (7,486)  (8,365)  (9,288)  (10,176)  (11,140)  (12,62)  (13,10)  (64,1) 
Branch_type_4  (6,4)  (7,8)  (8,26)  (9,58)  (10,69)  (11,70)  (12,117)  (13,102)  (14,112)  (15,97)  (16,104)  (17,80)  (18,68)  (19,129)  (20,74)  (21,124)  (22,220)  (23,136)  (24,202)  (25,101) 
Branch_type_5  (8,3)  (9,1)  (10,4)  (11,5)  (12,3)  (13,14)  (14,16)  (15,11)  (16,22)  (17,13)  (18,23)  (19,14)  (20,11)  (21,13)  (22,43)  (23,26)  (24,38) 
Branch_type_6  (5,4)  (6,13)  (7,24)  (8,40)  (9,38)  (10,72)  (11,61)  (12,89)  (13,102)  (14,116)  (15,92)  (16,100)  (17,78)  (18,63)  (19,119)  (20,56)  (21,95)  (22,150)  (23,72)  (24,96)  (25,4)  (47,51) 
aaaaab1fc620: 2ac9e77e 2aca717c 2aca8eff 2acaf6bc 2acaf9aa 2acaf9f1 2acb1abc 2acb1b7f 2acd4e22 2acdb712 2acf5f9e 2ad0ef44 2ad3f15c 2ad414e6 2ad60e42 2ad8609c 2ad99830 2ada35cc 2ada4676 2ada6612 2adf183e 2adf30e5 2adf5602 2adf785c 2ae11572 2aeb2dcf 2aee101b 2aee1ae1 2b156a8c 2b156b61 2b156bea 2b167f35 2b177656 2b17feec 2b1a3e5a 
aaaaab1fc640: 2ac9ec07 2aca656e 2aca801d 2acaea11 2acaee73 2acb13ee 2acb1470 2acd462b 2ad0ef5d 2ad3f3fe 2ad86e9b 2ada1641 2ada4115 2ada6638 2adf30d4 2ae12e57 2aee1033 2b1693ab 2b16948c 2b169491 2b17d915 2b17fa85 2b17fccd 
aaaaab1fcb00: 2acf2d72 2acf3734 2acf604c 2acfa5b7 2ad397b5 2ad3b800 2ae8af7d 2ae8aff0 2ae9aaba 2aea9fc6 2aeaa358 2aee910b 2aee91cf 2aee928e 2aee92e4 2af6fe87 2af70dfe 2b16850c 2b16c4a2 2b1765f4 2b178094 2b17d925 2b17db06 2b17ec8f 
aaaaab1fcb10: 2acf2d95 2acf3758 2acf6052 2acfa5f4 2ad397c3 2ad3b81c 2ae8af88 2ae8affe 2ae9aacf 2aeaa017 2aeaa36d 2aee9114 2aee91d8 2aee934d 2aee9353 2af6fe8c 2af70e22 2b168526 2b16c542 2b176609 2b1780a3 2b17d95d 2b17db44 2b17ecac 
aaaaac68f310: 2ac9ec8c 2ac9fb44 2ac9fbd2 2aca59ab 2acac04c 2acaf6e0 2acaf6ec 2acaf6f9 2acaf700 2acaf708 2acf2d90 2ad3cfbd 2ad3cfc4 2ad3d000 2ad3f35f 2ad4955d 2ad49571 2ad4f3f2 2ad4f400 2ad5f240 2ad5f37c 2ad5f86a 2ad5f86f 2ad5f880 2ad5fc0d 2ad5fc14 2ad5fc21 2ad5fe1b 2ad873bb 2ad873e3 2ad8a6b2 2ad9086e 2ad93096 2ad9bbb2 2ada152c 2ada1554 2ada3332 2ada5522 2adf3130 2adf313c 2adf3a3f 2adf3bd9 2adf5788 2adf7a8d 2ae07f6b 2ae0857a 2ae0857e 2ae08630 2ae08634 2ae08637 2ae08642 2ae0866f 2ae086e4 2ae086ec 2ae08717 2ae0871b 2aee0170 2aee1d38 2aee75f4 2aee7662 2aee85ca 2aee85e4 2aee8eef 2af70b84 2af74e8f 2b17d843 
aaaaac690ef0: 2aca598b 2acb111b 2acb175f 2acb1772 2acbfaf4 2acbfb00 2acf374f 2acf6d43 2acfa5c8 2ad3baf1 2ad3d4ac 2ad3d4b8 2ad3f1cf 2ad486b2 2ad5a59b 2ad5fc64 2ad5fcf9 2ad6121c 2ad906e9 2ad907bf 2ad9bada 2ada16ce 2ada1ad5 2ada43df 2ada64c0 2ada72ee 2adeb71a 2adf3bcb 2adf7a38 2adf7c6a 2adf8872 2adf8880 2adf9959 2adf9abe 2ae07f78 2ae08503 2ae08754 2ae12e80 2aea3bea 2aecb509 2aee00b0 2aee2bdd 2aee5467 2aee5601 2aee8f20 2af703fd 2af7048b 2af74e74 
Unique trigger count: 
1 10357
2 573
3 97
4 31
5 13
6 13
7 7
8 2
9 3
10 3
11 1
12 1
13 1
14 3
16 2
19 2
23 1
24 2
35 1
48 1
66 1
BTB PER SET UNIQUE ADDR: 14 18 9 9 5 14 13 18 17 7 13 8 19 14 10 14 15 12 16 15 12 16 13 15 15 12 8 11 11 15 21 14 15 10 18 18 18 18 15 11 15 12 9 16 18 12 13 16 21 11 14 8 18 8 12 16 16 12 17 12 15 23 12 15 13 22 11 18 19 12 8 8 11 8 9 21 13 20 14 13 13 13 12 11 15 14 14 14 21 17 21 21 18 11 13 14 19 13 13 14 15 14 17 14 14 13 13 15 16 12 18 11 9 19 14 19 7 14 14 9 16 16 11 11 12 11 10 11 22 17 15 9 14 9 16 15 13 11 14 13 19 11 12 9 16 16 11 16 25 10 13 25 13 18 13 15 14 20 15 19 17 17 23 15 20 14 10 10 22 19 15 10 17 15 11 12 14 14 13 13 9 13 15 15 19 19 13 16 9 19 11 14 13 19 10 14 17 9 18 14 11 12 14 11 20 10 6 16 12 5 8 10 13 12 11 15 6 20 16 18 14 7 13 15 18 11 21 12 8 20 19 19 8 10 13 13 18 13 12 8 10 10 13 13 21 21 12 11 11 14 15 17 13 13 19 19 10 11 19 13 8 10 14 9 15 26 11 8 15 11 11 13 14 18 20 17 11 13 8 17 14 12 16 18 21 14 14 11 21 8 14 11 12 19 14 13 11 17 9 11 12 11 10 11 8 10 11 14 20 14 16 8 13 10 12 9 17 20 14 9 14 14 15 14 9 11 12 15 8 8 16 8 11 16 19 11 15 13 16 9 12 15 8 20 14 12 10 17 18 13 9 17 25 13 14 15 17 12 13 12 13 21 13 10 13 14 12 8 9 12 14 11 17 10 15 9 16 15 16 13 15 15 13 16 15 18 13 8 20 13 13 12 18 11 14 15 11 14 11 17 12 9 10 17 11 13 16 11 13 10 15 10 20 15 9 11 15 16 8 11 13 16 13 16 21 19 9 13 12 18 9 8 21 13 17 18 16 12 16 8 18 14 14 10 16 23 12 15 11 12 16 8 8 12 18 12 16 12 13 12 8 14 19 18 14 10 17 10 19 13 7 12 15 16 9 8 19 13 11 10 12 13 8 15 10 18 13 10 12 7 19 9 11 14 10 18 11 14 14 9 20 10 16 7 12 10 8 11 16 12 23 9 
BTB PER SET COUNT: 15 25 12 9 6 14 13 515 22 1472 14 450 41 14 10 16 15 12 16 1480 12 20 15 507 16 13 8 11 1476 15 1843 391 16 10 19 22 2952 2461 17 11 19 14 12 17 3804 15 13 17 5306 12 15 8 3486 8 12 18 17 13 17 103 16 6082 13 18 13 4099 11 28 4897 50 8 9 1476 8 10 5911 508 61 16 13 14 985 983 14 508 14 15 16 36 19 3979 509 23 2963 15 16 31 15 15 16 17 14 24 14 976 13 13 16 18 754 397 13 1474 49 15 2864 10 15 506 1473 17 19 11 11 506 11 10 11 4954 22 507 9 15 10 17 16 506 12 15 13 24 12 12 10 16 19 1486 16 14865 12 14 7541 13 5425 2943 1003 15 54 508 27 20 20 7411 1000 523 1957 631 11 7866 518 15 994 14657 1137 14 1849 1478 507 987 998 10 13 15 15 24 23 13 48 9 58 11 15 179 1013 10 1486 988 1473 221 14 13 13 998 15 1504 776 6 2465 15 6 8 11 13 14 12 665 6 5925 17 21 985 7 16 16 20 13 805 1983 10 1497 255 4445 8 11 508 13 28 998 13 8 10 563 13 13 1757 4970 12 982 11 14 986 18 13 13 62 20 11 12 77 14 9 104 15 1473 1479 9654 982 9 16 14 11 13 17 53 68 22 421 13 8 88 15 13 230 34 6177 997 14 11 133 9 211 12 2473 1489 15 18 12 97 9 13 12 490 12 13 9 10 12 14 33 14 17 417 14 16 983 10 23 6412 15 10 14 14 42 17 9 11 12 16 203 9 1001 1476 11 20 1004 14 1006 14 16 9 13 17 9 1540 999 13 12 22 21 13 10 21 7894 1955 15 1002 25 13 13 55 13 55 13 11 15 17 15 8 9 13 17 11 21 14 16 10 16 16 18 14 15 16 13 147 19 24 14 8 2479 13 146 48 22 14 14 17 1475 16 13 17 13 9 11 21 11 999 2944 12 13 2325 16 10 563 16 980 11 120 17 8 1936 13 494 13 17 6982 32 16 13 12 28 140 979 2734 14 25 277 18 12 18 8 402 16 14 12 21 3486 17 988 11 504 21 9 10 13 42 13 16 12 505 13 992 386 40 25 1006 10 19 10 52 16 499 12 38 511 119 8 20522 14 12 12 12 13 8 510 11 505 279 389 12 8 55 9 12 16 10 27 11 14 1986 9 8095 388 1225 7 12 12 10 12 1498 14 675 9 
