
*** ChampSim Multicore Out-of-Order Simulator ***

Warmup Instructions: 50000000
Simulation Instructions: 50000000
Number of CPUs: 1
LLC sets: 2048
LLC ways: 16
Off-chip DRAM Size: 4096 MB Channels: 1 Width: 64-bit Data Rate: 6400 MT/s
CPU 0 runs ./micro_traces/srv248.trace.gz
.gz
ITLB has LRU replacement policy
DTLB has LRU replacement policy
STLB has LRU replacement policy
FDIP Prefetcher at L1I
L1I has LRU replacement policy
L1D has LRU replacement policy
Initialize SRRIP state for L2C
Initialize DRRIP state for LLC
Heartbeat_Variant_0 : 1039 0.253662 per_variant_size: 0 1039 0 0 0 0 0 0 0 
Heartbeat_Variant_1 : 1206 0.294434 per_variant_size: 0 857 349 0 0 0 0 0 0 
Heartbeat_Variant_2 : 1555 0.379639 per_variant_size: 0 951 417 133 54 0 0 0 0 
Heartbeat_Variant_3 : 0 0 per_variant_size: 0 0 0 0 0 0 0 0 0 
Heartbeat_Variant_0_evicts 0 : 13617 1 : 9815 2 : 12097 3 : 0 
Heartbeat_Variant_1_evicts 0 : 9802 1 : 0 2 : 11299 3 : 0 
Heartbeat_Variant_2_evicts 0 : 12041 1 : 11290 2 : 0 3 : 0 
Heartbeat_Variant_3_evicts 0 : 0 1 : 0 2 : 0 3 : 0 
Heartbeat CPU 0 instructions: 10000000 cycles: 2794757 heartbeat IPC: 3.57813 cumulative IPC: 3.57813 (Simulation time: 0 hr 2 min 46 sec) 
Heartbeat_Variant_0 : 1090 0.266113 per_variant_size: 0 1090 0 0 0 0 0 0 0 
Heartbeat_Variant_1 : 1216 0.296875 per_variant_size: 0 839 377 0 0 0 0 0 0 
Heartbeat_Variant_2 : 1533 0.374268 per_variant_size: 0 912 423 136 62 0 0 0 0 
Heartbeat_Variant_3 : 0 0 per_variant_size: 0 0 0 0 0 0 0 0 0 
Heartbeat_Variant_0_evicts 0 : 13349 1 : 9471 2 : 11542 3 : 0 
Heartbeat_Variant_1_evicts 0 : 9415 1 : 0 2 : 11041 3 : 0 
Heartbeat_Variant_2_evicts 0 : 11555 1 : 10989 2 : 0 3 : 0 
Heartbeat_Variant_3_evicts 0 : 0 1 : 0 2 : 0 3 : 0 
Heartbeat CPU 0 instructions: 20000003 cycles: 5589918 heartbeat IPC: 3.57761 cumulative IPC: 3.57787 (Simulation time: 0 hr 4 min 51 sec) 
Heartbeat_Variant_0 : 1066 0.260254 per_variant_size: 0 1066 0 0 0 0 0 0 0 
Heartbeat_Variant_1 : 1259 0.307373 per_variant_size: 0 855 404 0 0 0 0 0 0 
Heartbeat_Variant_2 : 1542 0.376465 per_variant_size: 0 906 445 129 62 0 0 0 0 
Heartbeat_Variant_3 : 0 0 per_variant_size: 0 0 0 0 0 0 0 0 0 
Heartbeat_Variant_0_evicts 0 : 13918 1 : 10049 2 : 12073 3 : 0 
Heartbeat_Variant_1_evicts 0 : 9977 1 : 0 2 : 11384 3 : 0 
Heartbeat_Variant_2_evicts 0 : 12170 1 : 11283 2 : 0 3 : 0 
Heartbeat_Variant_3_evicts 0 : 0 1 : 0 2 : 0 3 : 0 
Heartbeat CPU 0 instructions: 30000000 cycles: 8383899 heartbeat IPC: 3.57912 cumulative IPC: 3.57829 (Simulation time: 0 hr 6 min 48 sec) 
Heartbeat_Variant_0 : 1075 0.262451 per_variant_size: 0 1075 0 0 0 0 0 0 0 
Heartbeat_Variant_1 : 1236 0.301758 per_variant_size: 0 841 395 0 0 0 0 0 0 
Heartbeat_Variant_2 : 1557 0.380127 per_variant_size: 0 901 457 137 62 0 0 0 0 
Heartbeat_Variant_3 : 0 0 per_variant_size: 0 0 0 0 0 0 0 0 0 
Heartbeat_Variant_0_evicts 0 : 13621 1 : 9540 2 : 12128 3 : 0 
Heartbeat_Variant_1_evicts 0 : 9566 1 : 0 2 : 11289 3 : 0 
Heartbeat_Variant_2_evicts 0 : 12093 1 : 11339 2 : 0 3 : 0 
Heartbeat_Variant_3_evicts 0 : 0 1 : 0 2 : 0 3 : 0 
Heartbeat CPU 0 instructions: 40000003 cycles: 11179118 heartbeat IPC: 3.57754 cumulative IPC: 3.5781 (Simulation time: 0 hr 8 min 49 sec) 
Heartbeat_Variant_0 : 1032 0.251953 per_variant_size: 0 1032 0 0 0 0 0 0 0 
Heartbeat_Variant_1 : 1247 0.304443 per_variant_size: 0 856 391 0 0 0 0 0 0 
Heartbeat_Variant_2 : 1593 0.388916 per_variant_size: 0 951 441 135 66 0 0 0 0 
Heartbeat_Variant_3 : 0 0 per_variant_size: 0 0 0 0 0 0 0 0 0 
Heartbeat_Variant_0_evicts 0 : 13643 1 : 9721 2 : 12113 3 : 0 
Heartbeat_Variant_1_evicts 0 : 9720 1 : 0 2 : 11468 3 : 0 
Heartbeat_Variant_2_evicts 0 : 12157 1 : 11459 2 : 0 3 : 0 
Heartbeat_Variant_3_evicts 0 : 0 1 : 0 2 : 0 3 : 0 
Heartbeat CPU 0 instructions: 50000001 cycles: 13975188 heartbeat IPC: 3.57645 cumulative IPC: 3.57777 (Simulation time: 0 hr 10 min 57 sec) 

Warmup complete CPU 0 instructions: 50000001 cycles: 13975188 (Simulation time: 0 hr 10 min 57 sec) 

Cycle: 20000000 FTQ IN: 56622417 FTQ occupancy: 17.9623 DECODE IN: 56622338 DECODE occupancy: 45.9145 ROB IN: 56622336 ROB occupancy: 276.688 ROB OUT: 56622272
Heartbeat_Variant_0 : 1066 0.260254 per_variant_size: 0 1066 0 0 0 0 0 0 0 
Heartbeat_Variant_1 : 1247 0.304443 per_variant_size: 0 861 386 0 0 0 0 0 0 
Heartbeat_Variant_2 : 1559 0.380615 per_variant_size: 0 927 432 139 61 0 0 0 0 
Heartbeat_Variant_3 : 0 0 per_variant_size: 0 0 0 0 0 0 0 0 0 
Heartbeat_Variant_0_evicts 0 : 13693 1 : 9891 2 : 11929 3 : 0 
Heartbeat_Variant_1_evicts 0 : 9840 1 : 0 2 : 11342 3 : 0 
Heartbeat_Variant_2_evicts 0 : 11946 1 : 11291 2 : 0 3 : 0 
Heartbeat_Variant_3_evicts 0 : 0 1 : 0 2 : 0 3 : 0 
Heartbeat CPU 0 instructions: 60000001 cycles: 23122886 heartbeat IPC: 1.09317 cumulative IPC: 1.09317 (Simulation time: 0 hr 12 min 45 sec) 
*** Reached end of trace for Core: 0 Repeating trace: ./micro_traces/srv248.trace.gz
Cycle: 30000000 FTQ IN: 10862500 FTQ occupancy: 6.496 DECODE IN: 10862565 DECODE occupancy: 13.6914 ROB IN: 10862567 ROB occupancy: 113.377 ROB OUT: 10862629
Heartbeat_Variant_0 : 1078 0.263184 per_variant_size: 0 1078 0 0 0 0 0 0 0 
Heartbeat_Variant_1 : 1246 0.304199 per_variant_size: 0 858 388 0 0 0 0 0 0 
Heartbeat_Variant_2 : 1549 0.378174 per_variant_size: 0 915 431 137 66 0 0 0 0 
Heartbeat_Variant_3 : 0 0 per_variant_size: 0 0 0 0 0 0 0 0 0 
Heartbeat_Variant_0_evicts 0 : 13580 1 : 9421 2 : 11352 3 : 0 
Heartbeat_Variant_1_evicts 0 : 9454 1 : 0 2 : 10903 3 : 0 
Heartbeat_Variant_2_evicts 0 : 11307 1 : 10937 2 : 0 3 : 0 
Heartbeat_Variant_3_evicts 0 : 0 1 : 0 2 : 0 3 : 0 
Heartbeat CPU 0 instructions: 70000000 cycles: 32284098 heartbeat IPC: 1.09156 cumulative IPC: 1.09236 (Simulation time: 0 hr 14 min 37 sec) 
Cycle: 40000000 FTQ IN: 11079432 FTQ occupancy: 6.31599 DECODE IN: 11079349 DECODE occupancy: 13.3122 ROB IN: 11079328 ROB occupancy: 113.309 ROB OUT: 11079318
Heartbeat_Variant_0 : 1066 0.260254 per_variant_size: 0 1066 0 0 0 0 0 0 0 
Heartbeat_Variant_1 : 1236 0.301758 per_variant_size: 0 856 380 0 0 0 0 0 0 
Heartbeat_Variant_2 : 1573 0.384033 per_variant_size: 0 910 446 156 61 0 0 0 0 
Heartbeat_Variant_3 : 0 0 per_variant_size: 0 0 0 0 0 0 0 0 0 
Heartbeat_Variant_0_evicts 0 : 13531 1 : 9520 2 : 11600 3 : 0 
Heartbeat_Variant_1_evicts 0 : 9474 1 : 0 2 : 10960 3 : 0 
Heartbeat_Variant_2_evicts 0 : 11658 1 : 10924 2 : 0 3 : 0 
Heartbeat_Variant_3_evicts 0 : 0 1 : 0 2 : 0 3 : 0 
Heartbeat CPU 0 instructions: 80000001 cycles: 41316772 heartbeat IPC: 1.10709 cumulative IPC: 1.09723 (Simulation time: 0 hr 16 min 25 sec) 
Cycle: 50000000 FTQ IN: 10844263 FTQ occupancy: 6.34641 DECODE IN: 10844327 DECODE occupancy: 13.2083 ROB IN: 10844348 ROB occupancy: 109.489 ROB OUT: 10844340
Heartbeat_Variant_0 : 1060 0.258789 per_variant_size: 0 1060 0 0 0 0 0 0 0 
Heartbeat_Variant_1 : 1240 0.302734 per_variant_size: 0 835 405 0 0 0 0 0 0 
Heartbeat_Variant_2 : 1578 0.385254 per_variant_size: 0 909 463 145 61 0 0 0 0 
Heartbeat_Variant_3 : 0 0 per_variant_size: 0 0 0 0 0 0 0 0 0 
Heartbeat_Variant_0_evicts 0 : 13811 1 : 10078 2 : 12093 3 : 0 
Heartbeat_Variant_1_evicts 0 : 10033 1 : 0 2 : 11489 3 : 0 
Heartbeat_Variant_2_evicts 0 : 12144 1 : 11441 2 : 0 3 : 0 
Heartbeat_Variant_3_evicts 0 : 0 1 : 0 2 : 0 3 : 0 
Heartbeat CPU 0 instructions: 90000001 cycles: 50548469 heartbeat IPC: 1.08322 cumulative IPC: 1.09369 (Simulation time: 0 hr 18 min 17 sec) 
Heartbeat_Variant_0 : 1063 0.259521 per_variant_size: 0 1063 0 0 0 0 0 0 0 
Heartbeat_Variant_1 : 1249 0.304932 per_variant_size: 0 857 392 0 0 0 0 0 0 
Heartbeat_Variant_2 : 1566 0.382324 per_variant_size: 0 902 463 141 60 0 0 0 0 
Heartbeat_Variant_3 : 0 0 per_variant_size: 0 0 0 0 0 0 0 0 0 
Heartbeat_Variant_0_evicts 0 : 13520 1 : 9773 2 : 11947 3 : 0 
Heartbeat_Variant_1_evicts 0 : 9718 1 : 0 2 : 11531 3 : 0 
Heartbeat_Variant_2_evicts 0 : 11999 1 : 11467 2 : 0 3 : 0 
Heartbeat_Variant_3_evicts 0 : 0 1 : 0 2 : 0 3 : 0 
Heartbeat CPU 0 instructions: 100000002 cycles: 59578363 heartbeat IPC: 1.10743 cumulative IPC: 1.09641 (Simulation time: 0 hr 20 min 33 sec) 
Finished CPU 0 instructions: 50000001 cycles: 45603175 cumulative IPC: 1.09641 (Simulation time: 0 hr 20 min 33 sec) 

ChampSim completed all CPUs

Region of Interest Statistics

CPU 0 cumulative IPC: 1.09641 instructions: 50000001 cycles: 45603175
 Fetch stage stalled: 72.2092  Sim cycles: 45603175 fetch stall cycle: 32929690
 Empty decode stage: 63.9584  Sim cycles: 45603175 fetch stall cycle: 29167066
ITLB TOTAL     ACCESS:    5743848  HIT:    5251107  MISS:     492741  HIT %:    91.4214  MISS %:    8.57859   MPKI: 9.85482
ITLB LOAD TRANSLATION INSTRUCTION	ACCESS:    5638273  HIT:    5145532  MISS:     492741  HIT %:    91.2608  MISS %:    8.73922  MPKI: 9.85482
ITLB TRANSLATION FROM L1D PREFETCHER INSTRUCTION	ACCESS:     105575  HIT:     105575  MISS:          0  HIT %:        100  MISS %:          0  MPKI: 0

ITLB AVERAGE MISS LATENCY: 9.03786 cycles
ITLB RQ	ACCESS:    7545834	FORWARD:          0	MERGED:    1363401	TO_CACHE:    6182433

DTLB TOTAL     ACCESS:    9353689  HIT:    8875542  MISS:     478147  HIT %:    94.8881  MISS %:    5.11185   MPKI: 9.56294
DTLB LOAD TRANSLATION DATA	ACCESS:    9353689  HIT:    8875542  MISS:     478147  HIT %:    94.8881  MISS %:    5.11185  MPKI: 9.56294

DTLB AVERAGE MISS LATENCY: 9.25295 cycles
DTLB RQ	ACCESS:   13620666	FORWARD:          0	MERGED:    4232741	TO_CACHE:    9387925

STLB TOTAL     ACCESS:    1225544  HIT:    1223533  MISS:       2011  HIT %:    99.8359  MISS %:    0.16409   MPKI: 0.04022
STLB LOAD TRANSLATION INSTRUCTION	ACCESS:     492741  HIT:     492516  MISS:        225  HIT %:    99.9543  MISS %:  0.0456629  MPKI: 0.0045
STLB LOAD TRANSLATION DATA	ACCESS:     477846  HIT:     476079  MISS:       1767  HIT %:    99.6302  MISS %:   0.369784  MPKI: 0.03534
STLB TRANSLATION FROM L1D PREFETCHER DATA	ACCESS:     254957  HIT:     254938  MISS:         19  HIT %:    99.9925  MISS %: 0.00745224  MPKI: 0.00038

STLB AVERAGE MISS LATENCY: 57.1934 cycles
STLB RQ	ACCESS:    1369874	FORWARD:          0	MERGED:     144303	TO_CACHE:    1225571

STLB Hit, L1D data hit: 0
STLB Hit, L2C data hit: 0
STLB Hit, LLC data hit: 0
STLB Hit, LLC data miss: 0
STLB STLB hints to L2: 0
L1D TOTAL     ACCESS:   13388645  HIT:   12223029  MISS:    1165616  HIT %:     91.294  MISS %:      8.706   MPKI: 23.3123
L1D LOAD DATA	ACCESS:    6849611  HIT:    6078123  MISS:     771488  HIT %:    88.7368  MISS %:    11.2632  MPKI: 15.4298
L1D RFO DATA	ACCESS:    6205899  HIT:    5915596  MISS:     290303  HIT %:    95.3221  MISS %:    4.67786  MPKI: 5.80606
L1D PREFETCH DATA	ACCESS:     333135  HIT:     229310  MISS:     103825  HIT %:     68.834  MISS %:     31.166  MPKI: 2.0765

L1D PREFETCH  REQUESTED:     798151  ISSUED:     798151  USEFUL:      48919  USELESS:      69945
L1D USEFUL LOAD PREFETCHES:      48919 PREFETCH ISSUED TO LOWER LEVEL:     118938  ACCURACY: 41.1298
 TIMELY PREFETCHES:      48919 LATE PREFETCHES: 15044 DROPPED PREFETCHES: 2
L1D AVERAGE MISS LATENCY: 473344 cycles
L1D RQ	ACCESS:   10898313	FORWARD:          0	MERGED:    3852779	TO_CACHE:    6883445
L1D WQ	ACCESS:    6906722	FORWARD:     162268	MERGED:     169501	TO_CACHE:    6737221
L1D PQ	ACCESS:     399165	FORWARD:          0	MERGED:          0	TO_CACHE:     398986

L1D UNIQUE REGIONS ACCESSED: 0
L1D REGIONS CONFLICTS: 0
L1D Cross Page Prefetch Requests: 5704
L1D Same Page Prefetch Requests: 810026
L1D ROI Sum of L1D PQ occupancy: 5089634
L1D PREFETCHES PUSHED FROM L2C: 0
L1I TOTAL     ACCESS:    7031095  HIT:    4270244  MISS:    2760851  HIT %:    60.7337  MISS %:    39.2663   MPKI: 55.217
L1I LOAD INSTRUCTION	ACCESS:    6543435  HIT:    3782584  MISS:    2760851  HIT %:    57.8073  MISS %:    42.1927  MPKI: 55.217
L1I PREFETCH INSTRUCTION	ACCESS:     487660  HIT:     487660  MISS:          0  HIT %:        100  MISS %:          0  MPKI: 0

L1I PREFETCH  REQUESTED:    1077645  ISSUED:    1077645  USEFUL:          0  USELESS:          0
L1I USEFUL LOAD PREFETCHES:          0 PREFETCH ISSUED TO LOWER LEVEL:          0  ACCURACY: -nan
 TIMELY PREFETCHES:          0 LATE PREFETCHES: 0 DROPPED PREFETCHES: 0
L1I AVERAGE MISS LATENCY: 17.2253 cycles
L1I RQ	ACCESS:    9450611	FORWARD:          0	MERGED:    2670351	TO_CACHE:    6780260
L1I PQ	ACCESS:    1077645	FORWARD:          0	MERGED:     312071	TO_CACHE:     765574

L1BTB TOTAL     ACCESS:    5680792  HIT:    2062429  MISS:    3618363  HIT %:    36.3053  MISS %:    63.6947   MPKI: 72.3673
L1BTB BRANCH_DIRECT_JUMP	ACCESS:     543991  HIT:     142872  MISS:     401119	AVERAGE STALL: 35.6616
L1BTB BRANCH_INDIRECT	ACCESS:     181037  HIT:      65116  MISS:     115921	AVERAGE STALL: 83.3378
L1BTB BRANCH_CONDITIONAL	ACCESS:    2728643  HIT:    1439933  MISS:    1288710	AVERAGE STALL: 36.0469
L1BTB BRANCH_DIRECT_CALL	ACCESS:     942511  HIT:     103861  MISS:     838650	AVERAGE STALL: 37.1844
L1BTB BRANCH_INDIRECT_CALL	ACCESS:     171049  HIT:      21257  MISS:     149792	AVERAGE STALL: 109.188
L1BTB BRANCH_RETURN	ACCESS:    1113561  HIT:     289390  MISS:     824171	AVERAGE STALL: 36.733
L1BTB BRANCH_OTHER ACCESS:          0  HIT:          0  MISS:          0	AVERAGE STALL: -nan
L1BTB TOTAL ROB OCCUPANCY AT BTB MISS: 12.5795

L2BTB TOTAL     ACCESS:    3593366  HIT:    3110415  MISS:     482951  HIT %:    86.5599  MISS %:    13.4401   MPKI: 9.65902
L2BTB BRANCH_DIRECT_JUMP	ACCESS:     397027  HIT:     348209  MISS:      48818	AVERAGE STALL: 35.6616
L2BTB BRANCH_INDIRECT	ACCESS:     105685  HIT:      96981  MISS:       8704	AVERAGE STALL: 83.3378
L2BTB BRANCH_CONDITIONAL	ACCESS:    1288710  HIT:    1149710  MISS:     139000	AVERAGE STALL: 36.0469
L2BTB BRANCH_DIRECT_CALL	ACCESS:     838650  HIT:     682769  MISS:     155881	AVERAGE STALL: 37.1844
L2BTB BRANCH_INDIRECT_CALL	ACCESS:     140367  HIT:     107091  MISS:      33276	AVERAGE STALL: 109.188
L2BTB BRANCH_RETURN	ACCESS:     822927  HIT:     725655  MISS:      97272	AVERAGE STALL: 36.733
L2BTB BRANCH_OTHER ACCESS:          0  HIT:          0  MISS:          0	AVERAGE STALL: -nan
L2BTB TOTAL ROB OCCUPANCY AT BTB MISS: 94.2483

L2C TOTAL     ACCESS:    4545242  HIT:    4052846  MISS:     492396  HIT %:    89.1668  MISS %:    10.8332   MPKI: 9.84792
L2C LOAD INSTRUCTION	ACCESS:    2760851  HIT:    2495187  MISS:     265664  HIT %:    90.3775  MISS %:    9.62254  MPKI: 5.31328
L2C LOAD TRANSLATION INSTRUCTION	ACCESS:        251  HIT:         45  MISS:        206  HIT %:    17.9283  MISS %:    82.0717  MPKI: 0.00412
L2C LOAD DATA	ACCESS:     756409  HIT:     672588  MISS:      83821  HIT %:    88.9186  MISS %:    11.0814  MPKI: 1.67642
L2C RFO DATA	ACCESS:     290221  HIT:     240171  MISS:      50050  HIT %:    82.7545  MISS %:    17.2455  MPKI: 1.001
L2C PREFETCH DATA	ACCESS:     206985  HIT:     127469  MISS:      79516  HIT %:    61.5837  MISS %:    38.4163  MPKI: 1.59032
L2C WRITEBACK DATA	ACCESS:     528673  HIT:     516883  MISS:      11790  HIT %:    97.7699  MISS %:    2.23011  MPKI: 0.2358
L2C LOAD TRANSLATION DATA	ACCESS:       1823  HIT:        480  MISS:       1343  HIT %:    26.3302  MISS %:    73.6698  MPKI: 0.02686
L2C TRANSLATION FROM L1D PREFETCHER DATA	ACCESS:         29  HIT:         23  MISS:          6  HIT %:    79.3103  MISS %:    20.6897  MPKI: 0.00012

L2C PREFETCH  REQUESTED:      96340  ISSUED:      96340  USEFUL:       9458  USELESS:      70545
L2C USEFUL LOAD PREFETCHES:       9458 PREFETCH ISSUED TO LOWER LEVEL:      79988  ACCURACY: 11.8243
 TIMELY PREFETCHES:       9458 LATE PREFETCHES: 472 DROPPED PREFETCHES: 0
L2C AVERAGE MISS LATENCY: 37.7413 cycles
L2C RQ	ACCESS:    3809632	FORWARD:          0	MERGED:          0	TO_CACHE:    3809585
L2C WQ	ACCESS:     528673	FORWARD:         47	MERGED:          0	TO_CACHE:     528673
L2C PQ	ACCESS:     215278	FORWARD:          0	MERGED:       3317	TO_CACHE:     211961

L2C Dense regions hint from L2: 0
PSCL5 TOTAL     ACCESS:       4026  HIT:       2013  MISS:       2013  HIT %:         50  MISS %:         50   MPKI: 0.04026
PSCL5 LOAD TRANSLATION INSTRUCTION	ACCESS:       3968  HIT:       1984  MISS:       1984  HIT %:         50  MISS %:         50  MPKI: 0.03968
PSCL5 TRANSLATION FROM L1D PREFETCHER INSTRUCTION	ACCESS:         58  HIT:         29  MISS:         29  HIT %:         50  MISS %:         50  MPKI: 0.00058


PSCL4 TOTAL     ACCESS:       3854  HIT:       1925  MISS:       1929  HIT %:    49.9481  MISS %:    50.0519   MPKI: 0.03858
PSCL4 LOAD TRANSLATION INSTRUCTION	ACCESS:       3472  HIT:       1896  MISS:       1576  HIT %:    54.6083  MISS %:    45.3917  MPKI: 0.03152
PSCL4 TRANSLATION FROM L1D PREFETCHER INSTRUCTION	ACCESS:         58  HIT:         29  MISS:         29  HIT %:         50  MISS %:         50  MPKI: 0.00058
PSCL4 LOAD TRANSLATION DATA	ACCESS:        324  HIT:          0  MISS:        324  HIT %:          0  MISS %:        100  MPKI: 0.00648


PSCL3 TOTAL     ACCESS:       3926  HIT:       1961  MISS:       1965  HIT %:    49.9491  MISS %:    50.0509   MPKI: 0.0393
PSCL3 LOAD TRANSLATION INSTRUCTION	ACCESS:       3508  HIT:       1932  MISS:       1576  HIT %:    55.0741  MISS %:    44.9259  MPKI: 0.03152
PSCL3 TRANSLATION FROM L1D PREFETCHER INSTRUCTION	ACCESS:         58  HIT:         29  MISS:         29  HIT %:         50  MISS %:         50  MPKI: 0.00058
PSCL3 LOAD TRANSLATION DATA	ACCESS:        360  HIT:          0  MISS:        360  HIT %:          0  MISS %:        100  MPKI: 0.0072


PSCL2 TOTAL     ACCESS:       3944  HIT:       1931  MISS:       2013  HIT %:    48.9604  MISS %:    51.0396   MPKI: 0.04026
PSCL2 LOAD TRANSLATION INSTRUCTION	ACCESS:       2126  HIT:       1902  MISS:        224  HIT %:    89.4638  MISS %:    10.5362  MPKI: 0.00448
PSCL2 TRANSLATION FROM L1D PREFETCHER INSTRUCTION	ACCESS:         29  HIT:         29  MISS:          0  HIT %:        100  MISS %:          0  MPKI: 0
PSCL2 LOAD TRANSLATION DATA	ACCESS:       1760  HIT:          0  MISS:       1760  HIT %:          0  MISS %:        100  MPKI: 0.0352
PSCL2 TRANSLATION FROM L1D PREFETCHER DATA	ACCESS:         29  HIT:          0  MISS:         29  HIT %:          0  MISS %:        100  MPKI: 0.00058


LLC TOTAL     ACCESS:     553804  HIT:     529811  MISS:      23993  HIT %:    95.6676  MISS %:     4.3324   MPKI: 0.47986
LLC LOAD INSTRUCTION	ACCESS:     265664  HIT:     265021  MISS:        643  HIT %:     99.758  MISS %:   0.242035  MPKI: 0.01286
LLC LOAD TRANSLATION INSTRUCTION	ACCESS:        206  HIT:        183  MISS:         23  HIT %:     88.835  MISS %:     11.165  MPKI: 0.00046
LLC LOAD DATA	ACCESS:      83356  HIT:      80100  MISS:       3256  HIT %:    96.0939  MISS %:    3.90614  MPKI: 0.06512
LLC RFO DATA	ACCESS:      50036  HIT:      40305  MISS:       9731  HIT %:     80.552  MISS %:     19.448  MPKI: 0.19462
LLC PREFETCH DATA	ACCESS:      79988  HIT:      69936  MISS:      10052  HIT %:    87.4331  MISS %:    12.5669  MPKI: 0.20104
LLC WRITEBACK DATA	ACCESS:      73205  HIT:      72979  MISS:        226  HIT %:    99.6913  MISS %:   0.308722  MPKI: 0.00452
LLC LOAD TRANSLATION DATA	ACCESS:       1343  HIT:       1282  MISS:         61  HIT %:    95.4579  MISS %:    4.54207  MPKI: 0.00122
LLC TRANSLATION FROM L1D PREFETCHER DATA	ACCESS:          6  HIT:          5  MISS:          1  HIT %:    83.3333  MISS %:    16.6667  MPKI: 2e-05

LLC AVERAGE MISS LATENCY: 173.677 cycles
LLC RQ	ACCESS:     400618	FORWARD:          0	MERGED:          0	TO_CACHE:     400611
LLC WQ	ACCESS:      73205	FORWARD:          7	MERGED:          0	TO_CACHE:      73205
LLC PQ	ACCESS:      79988	FORWARD:          0	MERGED:          0	TO_CACHE:      79988

LLC Dense regions hint to LLC: 0

RAW hits: 1705869
Loads Generated: 12604181
Loads sent to L1D: 10898313
Stores Generated: 6906708
Stores sent to L1D: 6906722
Major fault: 0 Minor fault: 2311
Allocated PAGES: 2311

stream: 
stream:times selected: 1243097
stream:pref_filled: 126497
stream:pref_useful: 28768
stream:pref_late: 10226
stream:misses: 10740
stream:misses_by_poll: 0

CS: 
CS:times selected: 195012
CS:pref_filled: 73081
CS:pref_useful: 49685
CS:pref_late: 11453
CS:misses: 26148
CS:misses_by_poll: 4

CPLX: 
CPLX:times selected: 1047014
CPLX:pref_filled: 25181
CPLX:pref_useful: 7774
CPLX:pref_late: 4231
CPLX:misses: 133073
CPLX:misses_by_poll: 0

NL_L1: 
NL:times selected: 12180
NL:pref_filled: 1170
NL:pref_useful: 334
NL:pref_late: 474
NL:misses: 2113
NL:misses_by_poll: 0

total selections: 2497303
total_filled: 103825
total_useful: 48919
total_late: 28695
total_polluted: 4
total_misses_after_warmup: 805324
conflicts: 5636972

test: 116237

DRAM Statistics
 CHANNEL 0
 RQ ROW_BUFFER_HIT:       8475  ROW_BUFFER_MISS:      15279
 DBUS_CONGESTED:          7
 WQ ROW_BUFFER_HIT:       1282  ROW_BUFFER_MISS:      10475  FULL:          0

 AVG_CONGESTED_CYCLE: 4

CPU 0 Branch Prediction Accuracy: 99.8228% MPKI: 0.32472 Average ROB Occupancy at Mispredict: 130.25
Branch types
NOT_BRANCH: 40834977 81.67%
BRANCH_DIRECT_JUMP: 543991 1.08798%
BRANCH_INDIRECT: 181037 0.362074%
BRANCH_CONDITIONAL: 6212475 12.4249%
BRANCH_DIRECT_CALL: 942511 1.88502%
BRANCH_INDIRECT_CALL: 171049 0.342098%
BRANCH_RETURN: 1113561 2.22712%
BRANCH_OTHER: 0 0%

DRAM PAGES: 1048576
Allocated PAGES: 2311
Average_ROB_Occupancy: 112.451
Average_Decode_Occupancy: 13.3411
Average_FTQ_Occupancy: 6.36239
Indirect max targets: 14 Average targets: 1.15017
Branch_type:  BRANCH_DIRECT_JUMP:  Count Percentage: 2.89502 5.78085 3.67609 9.61242 2.9217 6.32557 1.79886 66.9895 
Branch_type:  BRANCH_INDIRECT:  Count Percentage: 11.7305 7.07445 2.52835 3.75717 3.34904 24.1913 3.21842 44.1508 
Branch_type:  BRANCH_CONDITIONAL:  Count Percentage: 21.9176 3.56637 4.62747 3.71425 2.36367 5.54242 1.09336 57.1749 
Branch_type:  BRANCH_DIRECT_CALL:  Count Percentage: 0.264784 1.7892 0.723145 3.18948 2.99006 3.27947 0.88476 86.8791 
Branch_type:  BRANCH_INDIRECT_CALL:  Count Percentage: 9.53145 0 2.98828 4.26968 0 4.04011 0.994141 78.1763 
Branch_type:  BRANCH_RETURN:  Count Percentage: 3.77712 2.45166 4.11963 3.4015 5.01044 7.2645 1.18734 72.7878 
Branch_type:  BRANCH_DIRECT_JUMP:  Total Count: 31468 62836 39958 104484 31758 68757 19553 728155 
Branch_type:  BRANCH_INDIRECT:  Total Count: 42480 25619 9156 13606 12128 87605 11655 159885 
Branch_type:  BRANCH_CONDITIONAL:  Total Count: 2721468 442831 574586 461192 293493 688194 135761 7099316 
Branch_type:  BRANCH_DIRECT_CALL:  Total Count: 4979 33644 13598 59975 56225 61667 16637 1633673 
Branch_type:  BRANCH_INDIRECT_CALL:  Total Count: 32550 0 10205 14581 0 13797 3395 266973 
Branch_type:  BRANCH_RETURN:  Total Count: 83954 54493 91567 75605 111367 161468 26391 1617853 
Number of unique branch instructions: 9987
Upper 32 bits: 
aaaa
ffff
ffff0000
Unique upper 32 bits: 3
Unique upper 36 bits: 3
Unique upper 40 bits: 5
Unique upper 44 bits: 32
Unique upper 48 bits: 153
Variant_0 : 1063 0.259521
Variant_1 : 1249 0.304932
Variant_2 : 1566 0.382324
Variant_3 : 0 0
Offset_3 4135
Offset_4 248
Offset_5 452
Offset_6 515
Offset_7 589
Offset_8 520
Offset_9 468
Offset_10 391
Offset_11 330
Offset_12 265
Offset_13 200
Offset_14 225
Offset_15 191
Offset_16 227
Offset_17 146
Offset_18 127
Offset_19 235
Offset_20 139
Offset_21 235
Offset_22 398
Offset_23 241
Offset_24 328
Offset_25 88
Offset_47 80
Offset_64 2
decode_dispatch_called: 20260478 44.4278
Dispatch_width: 0 10241350 50.5484 22.4575
Dispatch_width: 1 538620 2.65848 1.1811
Dispatch_width: 2 675501 3.33408 1.48126
Dispatch_width: 3 467395 2.30693 1.02492
Dispatch_width: 4 1484085 7.32502 3.25435
Dispatch_width: 5 349584 1.72545 0.766578
Dispatch_width: 6 6503943 32.1016 14.262
Empty_decode_cycles: 25342697 55.5722
ROB_full_cycles: 1849286 4.05517
Starvation_cycles_per_kilo_instr: 372.499
Starvation_cycles_per_kilo_instr_3: 354.163
Starvation_cycles_per_kilo_instr_0: 337.348
Branch_type_1  (3,1)  (4,7)  (5,36)  (6,74)  (7,116)  (8,129)  (9,123)  (10,102)  (11,80)  (12,42)  (13,4)  (14,2)  (15,3)  (16,4)  (18,1)  (19,4)  (20,2)  (21,1)  (22,3)  (23,2)  (24,10)  (25,12) 
Branch_type_2  (3,1)  (5,1)  (8,3)  (9,3)  (12,1)  (13,1)  (14,1)  (16,3)  (17,2)  (20,2)  (21,2)  (23,5)  (24,1)  (47,36) 
Branch_type_3  (3,4133)  (4,241)  (5,411)  (6,425)  (7,442)  (8,329)  (9,260)  (10,161)  (11,133)  (12,49)  (13,4)  (24,1)  (64,2) 
Branch_type_4  (6,4)  (7,8)  (8,26)  (9,50)  (10,60)  (11,59)  (12,96)  (13,87)  (14,99)  (15,92)  (16,103)  (17,66)  (18,58)  (19,114)  (20,72)  (21,124)  (22,213)  (23,136)  (24,188)  (25,72) 
Branch_type_5  (8,2)  (9,1)  (10,3)  (11,5)  (12,3)  (13,14)  (14,16)  (15,11)  (16,20)  (17,11)  (18,16)  (19,12)  (20,10)  (21,13)  (22,42)  (23,26)  (24,36) 
Branch_type_6  (5,4)  (6,12)  (7,23)  (8,31)  (9,31)  (10,65)  (11,53)  (12,74)  (13,90)  (14,107)  (15,85)  (16,97)  (17,67)  (18,52)  (19,105)  (20,53)  (21,95)  (22,140)  (23,72)  (24,92)  (25,4)  (47,44) 
Unique trigger count: 
Variant_0_evicts_0 : 0
Variant_0_evicts_1 : 0
Variant_0_evicts_2 : 0
Variant_0_evicts_3 : 0
Variant_1_evicts_0 : 0
Variant_1_evicts_1 : 0
Variant_1_evicts_2 : 0
Variant_1_evicts_3 : 0
Variant_2_evicts_0 : 0
Variant_2_evicts_1 : 0
Variant_2_evicts_2 : 0
Variant_2_evicts_3 : 0
Variant_3_evicts_0 : 0
Variant_3_evicts_1 : 0
Variant_3_evicts_2 : 0
Variant_3_evicts_3 : 0
BTB PER SET UNIQUE ADDR: 2 7 4 7 5 5 7 6 2 8 5 4 3 7 10 8 5 4 4 2 6 9 7 9 4 7 4 4 5 9 7 5 4 5 5 8 6 3 5 9 4 7 4 4 7 6 3 5 7 7 10 5 6 3 2 7 5 3 7 5 5 7 4 7 7 2 5 4 4 8 6 5 5 7 7 9 3 5 5 7 9 7 5 10 7 4 5 3 5 7 6 9 7 8 4 2 4 3 4 6 4 3 4 7 5 4 4 6 6 10 7 1 3 10 2 4 5 7 4 10 6 4 5 4 9 6 3 6 6 2 4 6 4 5 7 6 5 2 6 6 3 4 9 7 5 8 5 5 5 8 3 2 3 10 3 5 6 3 7 5 2 6 4 6 9 2 1 3 9 9 6 6 6 4 4 6 3 6 6 6 7 5 5 9 6 6 4 5 5 5 5 3 6 7 3 5 6 6 5 3 6 8 3 7 1 9 4 4 7 3 2 2 8 6 4 5 6 3 4 6 4 8 6 7 6 10 7 4 7 9 3 7 6 12 3 7 3 7 5 6 5 7 6 7 6 4 4 5 6 6 3 7 4 4 5 6 3 5 7 1 9 7 6 5 3 4 6 5 7 6 7 9 6 6 6 5 5 2 5 9 8 2 5 7 2 5 11 5 9 4 5 3 9 7 8 5 5 3 7 4 13 2 5 10 4 3 7 8 7 4 7 2 8 6 5 5 4 7 8 3 8 8 3 5 9 7 3 5 3 8 4 10 3 6 5 4 7 8 5 7 3 5 7 3 5 5 4 7 2 5 5 7 5 2 6 4 4 6 5 5 10 6 5 6 5 9 6 7 3 3 8 8 9 6 5 5 7 5 5 1 4 5 6 4 8 5 3 6 4 5 5 3 4 6 4 3 6 2 5 3 7 7 6 4 3 8 11 6 9 2 6 4 1 6 6 2 6 4 4 5 7 1 5 8 7 5 6 8 6 5 8 3 4 5 7 1 5 3 2 5 9 5 3 2 3 1 3 4 6 5 9 2 6 5 5 2 8 3 13 5 5 6 5 11 2 9 4 5 3 6 6 8 2 6 4 8 3 2 4 6 5 2 6 5 4 5 3 5 5 7 8 4 5 7 7 5 7 6 3 8 3 3 3 4 5 6 5 5 2 3 7 3 5 3 6 6 9 5 7 5 6 7 9 3 6 13 4 3 5 3 9 6 5 3 2 5 5 9 4 6 4 9 10 12 5 4 7 11 4 4 3 8 2 6 6 8 7 1 7 6 4 2 5 8 5 2 5 5 10 4 5 5 1 7 2 7 9 3 6 4 2 7 2 8 2 4 3 2 5 8 8 8 5 8 3 8 13 8 5 6 8 2 4 2 5 10 7 2 4 4 4 4 5 6 1 5 10 3 8 8 4 5 5 1 7 6 3 5 5 4 5 8 4 5 7 7 3 11 5 11 4 6 4 3 3 6 6 5 4 5 5 5 5 8 5 7 6 3 3 5 3 5 7 7 4 5 3 9 9 5 8 5 8 4 7 4 4 7 5 8 7 8 3 8 8 9 4 7 6 4 6 2 4 7 4 9 5 7 5 8 7 6 3 3 10 3 3 6 7 6 5 2 2 8 4 5 7 7 5 4 6 6 3 8 7 8 8 7 4 7 5 5 9 5 3 2 6 5 3 8 4 10 5 5 5 3 7 3 5 4 6 4 5 5 9 8 9 1 2 9 7 5 6 6 8 6 8 13 6 5 5 5 1 6 6 6 5 8 4 7 6 4 5 4 9 6 5 7 5 9 6 4 5 5 7 6 8 3 5 5 7 6 7 4 4 2 7 4 6 4 7 2 1 5 8 5 10 3 7 5 8 5 4 4 5 7 6 5 9 5 7 8 4 7 5 5 7 4 3 4 1 10 6 6 5 4 4 6 3 4 4 8 4 4 6 3 10 7 4 5 1 6 4 9 7 7 8 6 5 5 4 4 6 2 3 4 4 7 1 6 6 5 6 4 6 5 7 11 4 0 11 3 3 1 4 6 4 8 6 2 7 2 8 5 5 2 5 5 6 12 7 3 5 9 8 10 6 8 8 7 9 1 6 8 2 2 6 6 6 4 3 8 8 5 5 7 4 3 2 6 6 5 4 3 5 4 3 3 6 4 8 7 6 2 11 5 8 3 5 2 7 3 8 4 5 3 7 5 2 3 5 1 3 6 2 4 3 10 6 7 4 6 8 5 8 3 3 5 5 2 3 5 7 12 7 3 5 5 3 3 6 5 7 4 3 5 5 8 3 5 5 8 10 5 5 4 6 8 3 4 5 3 5 8 8 4 7 6 3 5 6 3 7 5 5 7 8 5 3 4 7 5 5 8 7 6 5 6 3 4 4 4 6 4 3 6 10 8 4 2 3 7 5 5 4 8 8 6 10 6 1 5 3 8 9 4 6 5 6 3 8 1 4 6 7 6 4 3 3 8 8 10 6 5 6 3 4 3 4 3 5 12 6 9 3 6 1 5 2 3 6 7 4 5 9 3 7 7 4 6 5 6 4 8 2 8 6 7 4 3 6 5 8 3 4 4 5 5 3 4 8 8 7 3 5 6 3 6 6 5 5 6 1 5 3 4 5 8 7 5 4 2 7 4 2 3 6 8 6 7 10 6 5 4 5 9 4 7 4 6 9 2 12 4 4 3 6 3 6 8 10 9 5 2 8 4 7 6 4 2 6 3 3 3 6 7 6 2 8 4 6 3 5 7 1 6 6 3 8 6 9 2 6 5 6 6 9 5 6 4 3 3 5 2 8 5 3 5 3 3 4 5 6 4 8 5 8 4 2 6 6 7 3 3 5 3 4 3 2 5 3 4 5 5 5 2 7 6 4 9 7 4 10 3 6 7 7 8 6 4 9 4 8 9 5 5 4 6 12 9 6 5 7 9 5 6 7 4 6 7 2 5 5 7 7 6 9 9 8 8 14 8 5 5 11 5 4 4 4 4 3 5 5 6 6 2 5 4 8 11 5 6 5 7 9 4 7 7 6 6 6 6 6 7 9 13 4 6 9 5 5 3 5 7 5 2 8 2 6 5 4 9 7 8 6 2 5 5 5 7 3 5 5 13 9 7 4 4 2 4 2 5 3 6 4 4 6 6 6 2 3 5 9 7 1 5 7 5 4 4 8 6 10 3 3 4 9 7 5 6 3 7 8 5 8 6 4 2 2 6 8 7 5 7 8 9 6 4 3 6 7 4 6 5 10 6 7 9 7 3 6 8 6 3 4 5 9 4 7 4 4 6 2 6 6 5 5 6 9 6 5 4 5 7 10 6 4 5 3 9 5 5 8 1 4 3 8 4 6 12 5 6 4 7 8 4 5 4 7 5 5 5 5 8 5 10 6 5 7 2 8 3 10 8 9 7 10 5 7 3 6 6 10 4 3 6 7 8 7 11 9 1 4 6 8 5 13 6 8 3 4 5 5 2 5 9 7 5 3 6 6 3 6 5 5 7 4 7 5 2 5 6 4 4 3 6 3 6 5 4 4 10 5 6 4 4 4 7 6 6 8 3 4 4 1 6 5 9 7 2 6 5 3 6 4 6 8 5 4 7 6 6 3 5 7 4 4 6 4 6 6 6 6 6 4 5 11 6 8 6 5 6 7 4 3 6 4 5 8 5 3 10 8 8 5 8 3 2 3 3 4 8 8 4 8 5 8 4 5 6 5 6 9 3 7 6 7 5 5 9 9 5 5 4 5 4 3 4 6 5 4 7 3 6 7 4 5 4 2 2 6 5 4 3 6 6 1 5 5 3 8 5 6 3 1 5 5 7 13 3 3 7 2 3 5 4 1 5 5 2 3 5 4 2 4 8 7 4 4 4 3 2 6 8 5 3 4 5 4 8 1 4 3 9 8 5 7 4 4 3 5 3 5 5 3 7 3 5 7 9 5 4 7 4 3 6 5 7 5 6 8 3 3 3 4 7 1 1 3 4 7 10 2 7 5 6 6 6 7 4 4 4 8 10 0 8 4 9 6 9 5 9 1 5 10 7 7 6 2 6 3 7 3 6 4 7 7 5 4 6 5 5 4 4 2 1 4 2 7 2 6 5 6 2 6 3 3 8 4 6 3 4 8 7 6 7 7 4 7 4 5 8 3 3 5 5 4 4 5 8 4 4 4 3 6 5 4 6 4 7 3 5 5 6 5 3 4 8 7 5 2 3 8 4 6 6 2 6 4 3 3 8 3 7 6 4 4 10 5 10 4 5 3 5 5 9 6 6 3 3 4 3 3 5 3 10 1 6 2 5 4 4 3 5 5 5 2 1 3 8 2 6 6 4 3 7 5 4 4 6 6 7 8 3 5 9 1 5 10 4 1 2 9 8 3 7 7 8 6 6 8 5 8 6 7 6 4 1 5 3 5 8 4 7 8 9 4 4 3 7 4 8 6 7 9 8 6 5 7 8 7 4 5 6 7 5 6 6 3 10 3 7 4 12 6 3 5 7 3 5 4 5 3 3 8 8 3 6 2 6 3 4 8 7 3 4 2 3 6 4 2 4 6 10 3 4 4 8 8 7 5 10 7 5 3 9 5 5 7 3 3 11 5 3 5 5 5 14 4 8 5 7 4 7 3 5 7 6 
BTB PER SET COUNT: 2 1826 1009 1103 1016 332 432 829 2 936 934 401 3 823 1131 237 677 185 1282 8 490 1490 918 531 545 536 311 314 632 1153 865 116 216 1194 713 1083 899 158 454 1681 9 1631 25 7 1559 807 134 231 181 1082 1740 514 1020 3 2 793 967 1098 620 38 1073 1096 147 248 239 9 266 269 4 1251 756 299 134 830 398 1566 4 905 1250 220 857 372 237 1474 771 137 737 3 706 1793 744 1163 1009 1257 11 57 246 4 212 549 575 3 321 153 74 136 67 528 685 908 369 1 154 1246 4 221 498 30 529 2550 392 670 1822 299 23 1213 6 388 880 2 43 502 5 364 629 627 274 114 1078 881 10 684 1500 585 5 385 7 406 321 865 279 538 4 896 5 1812 216 815 595 337 2 480 4 561 722 75 1 3 334 739 176 794 346 134 360 395 132 237 91 823 141 748 295 604 581 491 4 8 10 169 45 3 910 708 3 424 219 643 959 4 442 470 159 161 1 1115 4 564 723 3 3 3 969 670 278 471 979 304 328 205 177 931 329 1239 1956 1336 244 105 170 1646 247 202 226 5529 242 741 3 499 489 912 679 143 705 254 395 345 307 661 268 475 3 644 7 205 456 159 180 396 417 1 432 524 454 380 140 620 505 585 812 235 420 743 116 629 603 1067 180 306 143 711 613 2 321 905 2 591 1723 394 641 4 8 6 1239 738 895 185 33 31 511 215 994 260 1456 590 232 4 654 49 506 132 190 2 794 309 5 422 12 857 376 4 653 519 236 326 1442 414 390 164 4 553 5 1740 189 843 171 212 913 403 298 622 3 345 375 4 708 283 4 763 2 269 322 217 411 2 634 6 368 563 857 206 1966 659 419 1147 366 2932 869 1256 5 3 622 475 3149 25 442 413 698 602 329 1 98 1151 106 471 914 269 18 426 107 237 354 5 705 413 103 3 1654 2 556 46 664 619 322 290 422 1192 2485 720 843 2 181 307 1 442 1039 235 391 368 263 619 208 1 5 618 948 795 424 702 1240 457 1565 39 4 560 927 1 395 5 2 116 1980 356 3 7 414 1 1461 25 769 418 1610 337 381 303 582 2 663 4 1686 189 1194 317 36 951 9 1090 337 212 4 569 429 1104 2 501 976 173 106 2 281 392 137 2 190 585 10 422 152 376 237 883 486 435 110 639 699 968 1110 459 102 805 3 214 3 286 7 475 209 125 2 67 1014 333 1130 1138 35 522 896 1540 1025 650 328 476 1499 4 529 1895 65 10 259 8 2222 739 138 26 2 136 567 679 574 256 435 571 1276 1651 455 1173 1102 1671 840 72 3 1208 966 632 369 656 1146 1 139 314 863 7585 349 888 518 2 1145 144 2052 554 205 306 1 1257 2 1144 1300 4 390 228 4 633 2 861 9 302 231 7 9 2366 804 444 869 1250 258 1748 805 798 370 333 925 3 532 99 200 785 1026 2 205 186 416 120 1152 363 1 237 1085 282 10904 863 356 286 449 2 663 273 567 227 489 505 556 1047 105 804 456 765 5 1132 514 2451 4 312 452 6 4 1193 223 203 211 883 828 291 356 1073 147 397 498 296 3 96 466 656 306 120 275 815 4 1621 690 892 446 372 695 241 1001 387 384 1481 335 968 964 652 134 1433 534 1121 401 1023 160 101 609 2 362 951 209 1343 105 1717 368 1670 716 1384 3 3 1187 105 4 377 1527 660 350 2 228 905 74 975 511 301 390 179 368 472 713 800 473 980 1012 840 1105 650 331 368 786 390 4 3 6 525 170 2527 6 2082 279 348 212 8 389 157 7 664 506 286 267 365 235 757 686 1 2 820 575 282 306 97 234 27 717 2203 641 5 138 425 1 383 747 1093 268 625 408 624 750 129 186 210 767 7 735 588 301 1064 529 495 759 14 129 1017 228 211 307 177 218 58 648 812 283 2 116 4 303 157 416 2 1 238 1015 635 1847 386 857 73 861 344 127 192 445 1054 380 612 1528 435 746 515 146 791 46 105 1329 196 10 469 11 1764 454 675 405 9 177 821 7 995 10 535 34 280 640 54 897 151 213 7 1 480 6 510 528 240 1397 274 937 133 831 264 406 2 3 35 1325 1118 1 844 401 966 555 126 15 707 279 1584 48 0 1845 52 93 1 4 772 546 1069 843 256 936 173 765 783 196 135 73 138 412 1036 696 275 668 621 827 943 257 607 1431 830 1758 1 94 579 185 2 1463 339 263 349 11 867 1430 332 269 526 207 139 76 968 884 174 11 3 1168 350 3 45 193 4 1455 1058 570 4 2361 392 1409 3 1827 270 643 155 792 393 330 40 599 460 2 297 8 1 255 1181 2 58 86 1337 233 404 340 299 894 15 480 109 3 997 5 157 4 352 1016 1152 355 4 300 1738 3 12 525 317 610 1354 284 9 320 1250 1093 475 31 709 1273 381 511 89 255 1190 4 19 421 311 508 187 628 244 920 726 3 161 833 5 843 607 625 740 539 405 1448 108 512 665 8 448 462 729 507 46 108 6 336 235 285 95 476 11 803 1810 271 2 4 654 444 610 564 631 948 707 542 580 1 419 4 1115 1010 292 191 660 165 3 1126 1 189 335 380 274 9 54 50 752 1057 1070 588 6 461 570 206 7 324 7 347 1865 644 1702 355 947 1 191 2 110 215 725 368 1358 870 4 12 636 5 313 320 6 445 130 2 818 482 400 4 8 121 484 512 8 519 192 193 859 4 366 931 9425 1329 282 702 39 10 564 60 325 101 427 1 189 3 875 91 1219 1274 143 54 2 606 255 323 5 182 415 170 739 1055 17 393 340 68 1273 12 159 386 624 789 63 1469 355 317 263 247 275 1042 800 1258 615 189 2 1875 220 940 429 442 202 624 50 12 4 703 712 1194 8 1033 358 675 3 344 1531 1 203 862 103 817 253 768 3 594 69 453 845 953 198 404 113 3 68 581 2 1292 266 5 383 153 3 393 412 42 415 546 279 38 124 71 331 313 538 3 266 558 4 8 97 2 24 3 280 5 12 575 2 531 206 245 655 432 221 1052 3 307 430 273 1166 745 403 1405 39 166 529 206 539 115 1241 2051 1441 100 818 259 1434 297 672 754 186 392 813 2 307 357 384 1080 580 513 1226 858 914 734 178 27 423 837 855 12 171 499 154 6 352 7 455 88 2 130 1507 394 1828 421 458 5 724 547 162 221 1004 483 365 692 709 222 403 1017 1084 226 447 1052 610 2189 3 292 180 15 2 670 2 282 162 436 611 897 643 98 2 253 201 236 730 3 179 291 1835 1238 551 416 138 2 725 2 673 272 260 203 275 6 244 254 212 3 138 436 416 1 347 621 43 9 4 848 299 433 68 4 393 1123 180 159 523 3 418 875 109 1249 1036 193 253 136 1005 1486 548 462 697 307 971 432 38 210 1865 1600 35 481 1878 1004 1051 850 561 812 85 399 1280 143 118 369 6 816 6 364 9 4 333 2 804 363 9 6 614 1098 277 476 4 52 257 1510 373 196 19 3 1553 172 206 934 1 4 6 343 364 661 1423 190 688 438 538 749 608 24 135 20 185 417 164 299 471 418 1765 742 191 323 2 850 727 700 220 1388 956 1038 122 1020 122 482 545 2096 343 6 982 92 776 857 1938 1419 1 65 965 581 751 1274 565 1233 4 447 33 802 184 132 940 212 608 14 780 13 3 171 106 5 454 468 801 194 2 993 434 243 6 139 352 3 392 102 1062 705 944 399 362 372 207 3879 860 379 460 896 8 41 362 1 577 291 1104 119 1456 443 174 111 595 9 421 984 27 200 453 156 365 3 555 470 98 185 666 93 416 237 411 386 735 659 460 1015 126 1438 364 10 481 1271 248 186 214 6 685 743 17 203 684 592 1087 172 733 136 2 3 155 290 489 1366 150 789 680 1339 37 279 10 7 821 659 134 756 796 381 521 9 854 636 275 507 204 45 230 511 692 688 687 452 347 10 130 371 4 855 444 2 300 184 286 5 16 423 437 1 565 5 356 278 6 207 3 1 161 182 410 3222 153 391 842 2 239 308 6 1 298 503 209 49 355 110 2 5 992 912 168 13 37 4 179 483 641 408 246 4 347 418 384 1 317 10 1755 332 404 331 367 215 290 202 80 66 237 206 624 340 5 551 613 167 22 946 19 99 711 474 1265 288 537 785 3 3 3 202 592 1 1 4 666 504 1205 3 1057 239 530 697 742 1530 388 11 4 388 1260 0 396 48 792 164 1971 457 710 1 682 2605 527 266 249 2 1036 3 928 3 354 358 510 451 93 5 629 245 294 9 4 5 1 212 2 868 2 804 455 444 2 144 3 16 353 114 787 108 347 600 974 210 714 1003 114 426 96 157 1397 14 737 175 8 324 867 511 1268 284 497 216 327 353 1206 805 653 5 1436 3 353 350 545 11 6 234 879 1684 450 2 76 953 270 460 768 2 796 12679 273 152 1303 221 1101 754 4 356 1285 605 1376 549 450 412 10 593 1322 530 557 81 208 6 3 8 862 11 880 1 471 519 231 7 293 253 166 183 358 2 1 3 1129 2 93 631 634 87 1250 452 43 173 1234 104 381 815 3 389 1199 1 579 1272 93 1 2 478 726 3 439 585 1150 80 341 643 383 608 43 1241 387 198 1 472 375 377 1194 223 625 1250 254 358 133 5 858 159 583 835 425 368 1640 528 1275 1230 1288 947 206 179 536 3250 775 306 543 564 1434 3 655 408 1651 18 213 450 1145 177 664 498 236 58 108 1036 1464 400 609 61 513 5 258 89 517 3 298 1331 470 624 254 4 71 345 1369 210 162 4 1232 435 751 257 1937 419 785 3 1018 1482 129 401 3 4 1846 107 182 476 555 274 2699 193 1191 131 654 549 18 58 286 746 922 
To predecode: 0
Predecoding something: 0
Predecode request dropped: 0
sizeofblock_0 0
sizeofblock_1 497936
sizeofblock_2 144419
sizeofblock_3 28400
sizeofblock_4 6750
sizeofblock_5 0
sizeofblock_6 0
sizeofblock_7 0
sizeofblock_8 0
Variant_0 Correct: 1303526 Incorrect: 0 Accuracy: 1
Variant_1 Correct: 1819801 Incorrect: 0 Accuracy: 1
Variant_2 Correct: 3337255 Incorrect: 0 Accuracy: 1
Variant_3 Correct: 0 Incorrect: 0 Accuracy: -nan
