
*** ChampSim Multicore Out-of-Order Simulator ***

Warmup Instructions: 50000000
Simulation Instructions: 50000000
Number of CPUs: 1
LLC sets: 2048
LLC ways: 16
Off-chip DRAM Size: 4096 MB Channels: 1 Width: 64-bit Data Rate: 6400 MT/s
CPU 0 runs ./micro_traces/srv282.trace.gz
.gz
ITLB has LRU replacement policy
DTLB has LRU replacement policy
STLB has LRU replacement policy
FDIP Prefetcher at L1I
L1I has LRU replacement policy
L1D has LRU replacement policy
Initialize SRRIP state for L2C
Initialize DRRIP state for LLC
Heartbeat CPU 0 instructions: 10000000 cycles: 2798579 heartbeat IPC: 3.57324 cumulative IPC: 3.57324 (Simulation time: 0 hr 3 min 13 sec) 
Heartbeat CPU 0 instructions: 20000000 cycles: 5595679 heartbeat IPC: 3.57513 cumulative IPC: 3.57419 (Simulation time: 0 hr 5 min 17 sec) 
Heartbeat CPU 0 instructions: 30000002 cycles: 8393400 heartbeat IPC: 3.57434 cumulative IPC: 3.57424 (Simulation time: 0 hr 7 min 9 sec) 
Heartbeat CPU 0 instructions: 40000002 cycles: 11191003 heartbeat IPC: 3.57449 cumulative IPC: 3.5743 (Simulation time: 0 hr 9 min 6 sec) 
Heartbeat CPU 0 instructions: 50000001 cycles: 13988465 heartbeat IPC: 3.57467 cumulative IPC: 3.57437 (Simulation time: 0 hr 11 min 8 sec) 

Warmup complete CPU 0 instructions: 50000001 cycles: 13988465 (Simulation time: 0 hr 11 min 8 sec) 

Cycle: 20000000 FTQ IN: 58492681 FTQ occupancy: 21.5231 DECODE IN: 58492672 DECODE occupancy: 55.2886 ROB IN: 58492612 ROB occupancy: 323.51 ROB OUT: 58492260
Heartbeat CPU 0 instructions: 60000000 cycles: 21067426 heartbeat IPC: 1.41264 cumulative IPC: 1.41264 (Simulation time: 0 hr 13 min 32 sec) 
Heartbeat CPU 0 instructions: 70000003 cycles: 28059043 heartbeat IPC: 1.43028 cumulative IPC: 1.42141 (Simulation time: 0 hr 16 min 16 sec) 
Cycle: 30000000 FTQ IN: 14303344 FTQ occupancy: 18.0652 DECODE IN: 14303245 DECODE occupancy: 44.1066 ROB IN: 14303245 ROB occupancy: 266.428 ROB OUT: 14303454
Heartbeat CPU 0 instructions: 80000003 cycles: 35096528 heartbeat IPC: 1.42096 cumulative IPC: 1.42126 (Simulation time: 0 hr 18 min 46 sec) 
Cycle: 40000000 FTQ IN: 14210393 FTQ occupancy: 18.1569 DECODE IN: 14210375 DECODE occupancy: 44.2132 ROB IN: 14210375 ROB occupancy: 266.573 ROB OUT: 14210314
Heartbeat CPU 0 instructions: 90000002 cycles: 42083884 heartbeat IPC: 1.43116 cumulative IPC: 1.42372 (Simulation time: 0 hr 21 min 11 sec) 
Heartbeat CPU 0 instructions: 100000001 cycles: 49026143 heartbeat IPC: 1.44045 cumulative IPC: 1.42704 (Simulation time: 0 hr 23 min 15 sec) 
Finished CPU 0 instructions: 50000000 cycles: 35037678 cumulative IPC: 1.42704 (Simulation time: 0 hr 23 min 15 sec) 

ChampSim completed all CPUs

Region of Interest Statistics

CPU 0 cumulative IPC: 1.42704 instructions: 50000000 cycles: 35037678
 Fetch stage stalled: 23.3782  Sim cycles: 35037678 fetch stall cycle: 8191170
 Empty decode stage: 12.499  Sim cycles: 35037678 fetch stall cycle: 4379359
ITLB TOTAL     ACCESS:    5969740  HIT:    5471914  MISS:     497826  HIT %:    91.6608  MISS %:    8.33916   MPKI: 9.95652
ITLB LOAD TRANSLATION INSTRUCTION	ACCESS:    5817434  HIT:    5319608  MISS:     497826  HIT %:    91.4425  MISS %:    8.55748  MPKI: 9.95652
ITLB TRANSLATION FROM L1D PREFETCHER INSTRUCTION	ACCESS:     152306  HIT:     152306  MISS:          0  HIT %:        100  MISS %:          0  MPKI: 0

ITLB AVERAGE MISS LATENCY: 9.06117 cycles
ITLB RQ	ACCESS:    7954534	FORWARD:          0	MERGED:    1441722	TO_CACHE:    6512812

DTLB TOTAL     ACCESS:    8971471  HIT:    8500010  MISS:     471461  HIT %:    94.7449  MISS %:    5.25511   MPKI: 9.42922
DTLB LOAD TRANSLATION DATA	ACCESS:    8971471  HIT:    8500010  MISS:     471461  HIT %:    94.7449  MISS %:    5.25511  MPKI: 9.42922

DTLB AVERAGE MISS LATENCY: 9.31306 cycles
DTLB RQ	ACCESS:   13381143	FORWARD:          0	MERGED:    4370457	TO_CACHE:    9010686

STLB TOTAL     ACCESS:    1208518  HIT:    1206273  MISS:       2245  HIT %:    99.8142  MISS %:   0.185765   MPKI: 0.0449
STLB LOAD TRANSLATION INSTRUCTION	ACCESS:     497826  HIT:     497413  MISS:        413  HIT %:     99.917  MISS %:  0.0829607  MPKI: 0.00826
STLB LOAD TRANSLATION DATA	ACCESS:     471461  HIT:     469641  MISS:       1820  HIT %:     99.614  MISS %:   0.386034  MPKI: 0.0364
STLB TRANSLATION FROM L1D PREFETCHER DATA	ACCESS:     239231  HIT:     239219  MISS:         12  HIT %:     99.995  MISS %: 0.00501607  MPKI: 0.00024

STLB AVERAGE MISS LATENCY: 65.2717 cycles
STLB RQ	ACCESS:    1312020	FORWARD:          0	MERGED:     103481	TO_CACHE:    1208539

STLB Hit, L1D data hit: 0
STLB Hit, L2C data hit: 0
STLB Hit, LLC data hit: 0
STLB Hit, LLC data miss: 0
STLB STLB hints to L2: 0
L1D TOTAL     ACCESS:   13132958  HIT:   12040000  MISS:    1092958  HIT %:    91.6777  MISS %:    8.32225   MPKI: 21.8592
L1D LOAD DATA	ACCESS:    6569953  HIT:    5846478  MISS:     723475  HIT %:    88.9881  MISS %:    11.0119  MPKI: 14.4695
L1D RFO DATA	ACCESS:    6245954  HIT:    5964216  MISS:     281738  HIT %:    95.4893  MISS %:    4.51073  MPKI: 5.63476
L1D PREFETCH DATA	ACCESS:     317051  HIT:     229306  MISS:      87745  HIT %:    72.3246  MISS %:    27.6754  MPKI: 1.7549

L1D PREFETCH  REQUESTED:     685842  ISSUED:     685842  USEFUL:      25631  USELESS:      67046
L1D USEFUL LOAD PREFETCHES:      25631 PREFETCH ISSUED TO LOWER LEVEL:      92669  ACCURACY: 27.6587
 TIMELY PREFETCHES:      25631 LATE PREFETCHES: 4877 DROPPED PREFETCHES: 3
L1D AVERAGE MISS LATENCY: 137923 cycles
L1D RQ	ACCESS:   10686493	FORWARD:          0	MERGED:    3916968	TO_CACHE:    6602572
L1D WQ	ACCESS:    6978255	FORWARD:     167329	MERGED:     199684	TO_CACHE:    6778571
L1D PQ	ACCESS:     343109	FORWARD:          0	MERGED:          0	TO_CACHE:     342733

L1D UNIQUE REGIONS ACCESSED: 0
L1D REGIONS CONFLICTS: 0
L1D Cross Page Prefetch Requests: 4647
L1D Same Page Prefetch Requests: 704873
L1D ROI Sum of L1D PQ occupancy: 4352475
L1D PREFETCHES PUSHED FROM L2C: 0
L1I TOTAL     ACCESS:    7126717  HIT:    4340040  MISS:    2786677  HIT %:    60.8982  MISS %:    39.1018   MPKI: 55.7335
L1I LOAD INSTRUCTION	ACCESS:    6452416  HIT:    3665739  MISS:    2786677  HIT %:    56.8119  MISS %:    43.1881  MPKI: 55.7335
L1I PREFETCH INSTRUCTION	ACCESS:     674301  HIT:     674301  MISS:          0  HIT %:        100  MISS %:          0  MPKI: 0

L1I PREFETCH  REQUESTED:    1674464  ISSUED:    1674464  USEFUL:          0  USELESS:          0
L1I USEFUL LOAD PREFETCHES:          0 PREFETCH ISSUED TO LOWER LEVEL:          0  ACCURACY: -nan
 TIMELY PREFETCHES:          0 LATE PREFETCHES: 0 DROPPED PREFETCHES: 0
L1I AVERAGE MISS LATENCY: 17.4712 cycles
L1I RQ	ACCESS:    9845181	FORWARD:          0	MERGED:    3133017	TO_CACHE:    6712164
L1I PQ	ACCESS:    1674464	FORWARD:          0	MERGED:     432094	TO_CACHE:    1242370

L1BTB TOTAL     ACCESS:    5364535  HIT:    5331952  MISS:      32583  HIT %:    99.3926  MISS %:   0.607378   MPKI: 0.65166
L1BTB BRANCH_DIRECT_JUMP	ACCESS:     550528  HIT:     550528  MISS:          0	AVERAGE STALL: -nan
L1BTB BRANCH_INDIRECT	ACCESS:     183196  HIT:     170145  MISS:      13051	AVERAGE STALL: 124.298
L1BTB BRANCH_CONDITIONAL	ACCESS:    2384458  HIT:    2384458  MISS:          0	AVERAGE STALL: -nan
L1BTB BRANCH_DIRECT_CALL	ACCESS:     950548  HIT:     950548  MISS:          0	AVERAGE STALL: -nan
L1BTB BRANCH_INDIRECT_CALL	ACCESS:     172626  HIT:     153094  MISS:      19532	AVERAGE STALL: 162.456
L1BTB BRANCH_RETURN	ACCESS:    1123179  HIT:    1123179  MISS:          0	AVERAGE STALL: -nan
L1BTB BRANCH_OTHER ACCESS:          0  HIT:          0  MISS:          0	AVERAGE STALL: -nan
L1BTB TOTAL ROB OCCUPANCY AT BTB MISS: 124.55

L2BTB BRANCH_DIRECT_JUMP	ACCESS:          0  HIT:          0  MISS:          0	AVERAGE STALL: -nan
L2BTB BRANCH_INDIRECT	ACCESS:          0  HIT:          0  MISS:          0	AVERAGE STALL: 124.298
L2BTB BRANCH_CONDITIONAL	ACCESS:          0  HIT:          0  MISS:          0	AVERAGE STALL: -nan
L2BTB BRANCH_DIRECT_CALL	ACCESS:          0  HIT:          0  MISS:          0	AVERAGE STALL: -nan
L2BTB BRANCH_INDIRECT_CALL	ACCESS:          0  HIT:          0  MISS:          0	AVERAGE STALL: 162.456
L2BTB BRANCH_RETURN	ACCESS:          0  HIT:          0  MISS:          0	AVERAGE STALL: -nan
L2BTB BRANCH_OTHER ACCESS:          0  HIT:          0  MISS:          0	AVERAGE STALL: -nan
L2BTB TOTAL ROB OCCUPANCY AT BTB MISS: inf

L2C TOTAL     ACCESS:    4488713  HIT:    4017879  MISS:     470834  HIT %:    89.5107  MISS %:    10.4893   MPKI: 9.41668
L2C LOAD INSTRUCTION	ACCESS:    2786677  HIT:    2511596  MISS:     275081  HIT %:    90.1287  MISS %:    9.87129  MPKI: 5.50162
L2C LOAD TRANSLATION INSTRUCTION	ACCESS:        444  HIT:        108  MISS:        336  HIT %:    24.3243  MISS %:    75.6757  MPKI: 0.00672
L2C LOAD DATA	ACCESS:     718533  HIT:     647275  MISS:      71258  HIT %:    90.0828  MISS %:    9.91715  MPKI: 1.42516
L2C RFO DATA	ACCESS:     281659  HIT:     240350  MISS:      41309  HIT %:    85.3337  MISS %:    14.6663  MPKI: 0.82618
L2C PREFETCH DATA	ACCESS:     177152  HIT:     107320  MISS:      69832  HIT %:    60.5807  MISS %:    39.4193  MPKI: 1.39664
L2C WRITEBACK DATA	ACCESS:     522339  HIT:     510659  MISS:      11680  HIT %:    97.7639  MISS %:     2.2361  MPKI: 0.2336
L2C LOAD TRANSLATION DATA	ACCESS:       1892  HIT:        558  MISS:       1334  HIT %:    29.4926  MISS %:    70.5074  MPKI: 0.02668
L2C TRANSLATION FROM L1D PREFETCHER DATA	ACCESS:         17  HIT:         13  MISS:          4  HIT %:    76.4706  MISS %:    23.5294  MPKI: 8e-05

L2C PREFETCH  REQUESTED:      91077  ISSUED:      91077  USEFUL:       7976  USELESS:      62247
L2C USEFUL LOAD PREFETCHES:       7976 PREFETCH ISSUED TO LOWER LEVEL:      70204  ACCURACY: 11.3612
 TIMELY PREFETCHES:       7976 LATE PREFETCHES: 372 DROPPED PREFETCHES: 0
L2C AVERAGE MISS LATENCY: 38.2098 cycles
L2C RQ	ACCESS:    3789319	FORWARD:          0	MERGED:          0	TO_CACHE:    3789222
L2C WQ	ACCESS:     522339	FORWARD:         98	MERGED:          0	TO_CACHE:     522339
L2C PQ	ACCESS:     183746	FORWARD:          0	MERGED:       2972	TO_CACHE:     180773

L2C Dense regions hint from L2: 0
PSCL5 TOTAL     ACCESS:       4500  HIT:       2250  MISS:       2250  HIT %:         50  MISS %:         50   MPKI: 0.045
PSCL5 LOAD TRANSLATION INSTRUCTION	ACCESS:       4466  HIT:       2233  MISS:       2233  HIT %:         50  MISS %:         50  MPKI: 0.04466
PSCL5 TRANSLATION FROM L1D PREFETCHER INSTRUCTION	ACCESS:         34  HIT:         17  MISS:         17  HIT %:         50  MISS %:         50  MPKI: 0.00034


PSCL4 TOTAL     ACCESS:       3074  HIT:       1535  MISS:       1539  HIT %:    49.9349  MISS %:    50.0651   MPKI: 0.03078
PSCL4 LOAD TRANSLATION INSTRUCTION	ACCESS:       2813  HIT:       1523  MISS:       1290  HIT %:    54.1415  MISS %:    45.8585  MPKI: 0.0258
PSCL4 TRANSLATION FROM L1D PREFETCHER INSTRUCTION	ACCESS:         24  HIT:         12  MISS:         12  HIT %:         50  MISS %:         50  MPKI: 0.00024
PSCL4 LOAD TRANSLATION DATA	ACCESS:        237  HIT:          0  MISS:        237  HIT %:          0  MISS %:        100  MPKI: 0.00474


PSCL3 TOTAL     ACCESS:       4346  HIT:       2165  MISS:       2181  HIT %:    49.8159  MISS %:    50.1841   MPKI: 0.04362
PSCL3 LOAD TRANSLATION INSTRUCTION	ACCESS:       3418  HIT:       2153  MISS:       1265  HIT %:    62.9901  MISS %:    37.0099  MPKI: 0.0253
PSCL3 TRANSLATION FROM L1D PREFETCHER INSTRUCTION	ACCESS:         17  HIT:         12  MISS:          5  HIT %:    70.5882  MISS %:    29.4118  MPKI: 0.0001
PSCL3 LOAD TRANSLATION DATA	ACCESS:        904  HIT:          0  MISS:        904  HIT %:          0  MISS %:        100  MPKI: 0.01808
PSCL3 TRANSLATION FROM L1D PREFETCHER DATA	ACCESS:          7  HIT:          0  MISS:          7  HIT %:          0  MISS %:        100  MPKI: 0.00014


PSCL2 TOTAL     ACCESS:       4417  HIT:       2167  MISS:       2250  HIT %:    49.0604  MISS %:    50.9396   MPKI: 0.045
PSCL2 LOAD TRANSLATION INSTRUCTION	ACCESS:       2564  HIT:       2150  MISS:        414  HIT %:    83.8534  MISS %:    16.1466  MPKI: 0.00828
PSCL2 TRANSLATION FROM L1D PREFETCHER INSTRUCTION	ACCESS:         17  HIT:         17  MISS:          0  HIT %:        100  MISS %:          0  MPKI: 0
PSCL2 LOAD TRANSLATION DATA	ACCESS:       1819  HIT:          0  MISS:       1819  HIT %:          0  MISS %:        100  MPKI: 0.03638
PSCL2 TRANSLATION FROM L1D PREFETCHER DATA	ACCESS:         17  HIT:          0  MISS:         17  HIT %:          0  MISS %:        100  MPKI: 0.00034


LLC TOTAL     ACCESS:     521520  HIT:     494336  MISS:      27184  HIT %:    94.7875  MISS %:    5.21246   MPKI: 0.54368
LLC LOAD INSTRUCTION	ACCESS:     275081  HIT:     274302  MISS:        779  HIT %:    99.7168  MISS %:   0.283189  MPKI: 0.01558
LLC LOAD TRANSLATION INSTRUCTION	ACCESS:        336  HIT:        318  MISS:         18  HIT %:    94.6429  MISS %:    5.35714  MPKI: 0.00036
LLC LOAD DATA	ACCESS:      70962  HIT:      67528  MISS:       3434  HIT %:    95.1608  MISS %:    4.83921  MPKI: 0.06868
LLC RFO DATA	ACCESS:      41232  HIT:      28259  MISS:      12973  HIT %:    68.5366  MISS %:    31.4634  MPKI: 0.25946
LLC PREFETCH DATA	ACCESS:      70204  HIT:      60643  MISS:       9561  HIT %:    86.3811  MISS %:    13.6189  MPKI: 0.19122
LLC WRITEBACK DATA	ACCESS:      62367  HIT:      62018  MISS:        349  HIT %:    99.4404  MISS %:   0.559591  MPKI: 0.00698
LLC LOAD TRANSLATION DATA	ACCESS:       1334  HIT:       1264  MISS:         70  HIT %:    94.7526  MISS %:    5.24738  MPKI: 0.0014
LLC TRANSLATION FROM L1D PREFETCHER DATA	ACCESS:          4  HIT:          4  MISS:          0  HIT %:        100  MISS %:          0  MPKI: 0

LLC AVERAGE MISS LATENCY: 153.719 cycles
LLC RQ	ACCESS:     388950	FORWARD:          0	MERGED:          0	TO_CACHE:     388949
LLC WQ	ACCESS:      62367	FORWARD:          1	MERGED:          0	TO_CACHE:      62367
LLC PQ	ACCESS:      70204	FORWARD:          0	MERGED:          0	TO_CACHE:      70204

LLC Dense regions hint to LLC: 0

RAW hits: 1965444
Loads Generated: 12651937
Loads sent to L1D: 10686493
Stores Generated: 6978249
Stores sent to L1D: 6978255
Major fault: 0 Minor fault: 2512
Allocated PAGES: 2512

stream: 
stream:times selected: 1138419
stream:pref_filled: 120718
stream:pref_useful: 22116
stream:pref_late: 3984
stream:misses: 6522
stream:misses_by_poll: 0

CS: 
CS:times selected: 163398
CS:pref_filled: 51471
CS:pref_useful: 28958
CS:pref_late: 3673
CS:misses: 10521
CS:misses_by_poll: 0

CPLX: 
CPLX:times selected: 973767
CPLX:pref_filled: 18460
CPLX:pref_useful: 3556
CPLX:pref_late: 1173
CPLX:misses: 66684
CPLX:misses_by_poll: 0

NL_L1: 
NL:times selected: 13314
NL:pref_filled: 506
NL:pref_useful: 165
NL:pref_late: 134
NL:misses: 546
NL:misses_by_poll: 0

total selections: 2288898
total_filled: 87745
total_useful: 25631
total_late: 9727
total_polluted: 0
total_misses_after_warmup: 756093
conflicts: 5561130

test: 114202

DRAM Statistics
 CHANNEL 0
 RQ ROW_BUFFER_HIT:      10018  ROW_BUFFER_MISS:      16803
 DBUS_CONGESTED:          9
 WQ ROW_BUFFER_HIT:       1290  ROW_BUFFER_MISS:      11320  FULL:          0

 AVG_CONGESTED_CYCLE: 3

CPU 0 Branch Prediction Accuracy: 99.8231% MPKI: 0.32354 Average ROB Occupancy at Mispredict: 190.313
Branch types
NOT_BRANCH: 40857479 81.715%
BRANCH_DIRECT_JUMP: 550528 1.10106%
BRANCH_INDIRECT: 183196 0.366392%
BRANCH_CONDITIONAL: 6162400 12.3248%
BRANCH_DIRECT_CALL: 950548 1.9011%
BRANCH_INDIRECT_CALL: 172626 0.345252%
BRANCH_RETURN: 1123179 2.24636%
BRANCH_OTHER: 0 0%

DRAM PAGES: 1048576
Allocated PAGES: 2512
Average_ROB_Occupancy: 267.389
Average_Decode_Occupancy: 44.2587
Average_FTQ_Occupancy: 18.1312
Indirect max targets: 14 Average targets: 1.14576
Branch_type:  BRANCH_DIRECT_JUMP:  Count Percentage: 3.80297 6.01754 3.6726 8.84384 2.22938 6.32363 0.581012 68.529 
Branch_type:  BRANCH_INDIRECT:  Count Percentage: 6.1156 3.44168 8.14823 9.68129 3.34602 2.81156 0.937004 65.5186 
Branch_type:  BRANCH_CONDITIONAL:  Count Percentage: 20.6651 3.83628 1.48798 7.5525 2.19096 4.34824 0.533507 59.3854 
Branch_type:  BRANCH_DIRECT_CALL:  Count Percentage: 0.898473 1.30601 0.730925 4.43279 1.93834 2.83945 0.660648 87.1934 
Branch_type:  BRANCH_INDIRECT_CALL:  Count Percentage: 9.56936 0 3.00121 0 0 2.33076 0.997406 84.1013 
Branch_type:  BRANCH_RETURN:  Count Percentage: 4.749 4.80292 1.0254 3.95663 3.34545 4.97962 0.580714 76.5603 
Branch_type:  BRANCH_DIRECT_JUMP:  Total Count: 41858 66233 40423 97341 24538 69602 6395 754275 
Branch_type:  BRANCH_INDIRECT:  Total Count: 22439 12628 29897 35522 12277 10316 3438 240397 
Branch_type:  BRANCH_CONDITIONAL:  Total Count: 2546323 472701 183347 930608 269967 535784 65738 7317392 
Branch_type:  BRANCH_DIRECT_CALL:  Total Count: 17042 24772 13864 84080 36766 53858 12531 1653861 
Branch_type:  BRANCH_INDIRECT_CALL:  Total Count: 32985 0 10345 0 0 8034 3438 289892 
Branch_type:  BRANCH_RETURN:  Total Count: 106484 107693 22992 88717 75013 111655 13021 1716664 
Number of unique branch instructions: 9734
Upper 32 bits: 
aaaa
ffff
ffff0000
Unique upper 32 bits: 3
Unique upper 36 bits: 3
Unique upper 40 bits: 5
Unique upper 44 bits: 32
Unique upper 48 bits: 153
Offset_3 4016
Offset_4 238
Offset_5 440
Offset_6 494
Offset_7 570
Offset_8 504
Offset_9 459
Offset_10 371
Offset_11 302
Offset_12 266
Offset_13 199
Offset_14 223
Offset_15 184
Offset_16 214
Offset_17 143
Offset_18 118
Offset_19 230
Offset_20 135
Offset_21 235
Offset_22 389
Offset_23 241
Offset_24 328
Offset_25 88
Offset_47 82
decode_dispatch_called: 27499561 78.4857
Dispatch_width: 0 15133423 55.0315 43.1919
Dispatch_width: 1 1068149 3.88424 3.04857
Dispatch_width: 2 833831 3.03216 2.37981
Dispatch_width: 3 483904 1.75968 1.3811
Dispatch_width: 4 7006352 25.4781 19.9966
Dispatch_width: 5 56343 0.204887 0.160807
Dispatch_width: 6 2917559 10.6095 8.32692
Empty_decode_cycles: 7538117 21.5143
ROB_full_cycles: 11408083 32.5595
Starvation_cycles_per_kilo_instr: 207.12
Starvation_cycles_per_kilo_instr_3: 136.493
Starvation_cycles_per_kilo_instr_0: 112.635
Branch_type_1  (3,1)  (4,7)  (5,36)  (6,68)  (7,113)  (8,126)  (9,122)  (10,97)  (11,67)  (12,43)  (13,5)  (14,2)  (15,3)  (16,4)  (18,1)  (19,4)  (20,2)  (21,1)  (22,3)  (23,2)  (24,10)  (25,12) 
Branch_type_2  (3,1)  (5,1)  (8,3)  (9,3)  (12,1)  (13,1)  (14,1)  (16,3)  (17,2)  (20,2)  (21,2)  (23,5)  (24,1)  (47,38) 
Branch_type_3  (3,4014)  (4,231)  (5,399)  (6,411)  (7,428)  (8,316)  (9,252)  (10,149)  (11,122)  (12,50)  (13,4) 
Branch_type_4  (6,3)  (7,8)  (8,24)  (9,51)  (10,59)  (11,57)  (12,94)  (13,86)  (14,98)  (15,86)  (16,95)  (17,64)  (18,53)  (19,112)  (20,71)  (21,124)  (22,207)  (23,136)  (24,190)  (25,72) 
Branch_type_5  (8,2)  (9,1)  (10,3)  (11,5)  (12,3)  (13,14)  (14,16)  (15,11)  (16,20)  (17,11)  (18,16)  (19,12)  (20,10)  (21,13)  (22,42)  (23,26)  (24,36) 
Branch_type_6  (5,4)  (6,12)  (7,21)  (8,33)  (9,30)  (10,63)  (11,51)  (12,75)  (13,89)  (14,106)  (15,84)  (16,92)  (17,66)  (18,48)  (19,102)  (20,50)  (21,95)  (22,137)  (23,72)  (24,91)  (25,4)  (47,44) 
Unique trigger count: 
BTB PER SET UNIQUE ADDR: 0 0 0 0 0 0 0 0 0 0 0 0 0 0 0 0 0 0 0 0 0 0 0 0 0 0 0 0 0 0 0 0 0 0 0 0 0 0 0 0 0 0 0 0 0 0 0 0 0 0 0 0 0 0 0 0 0 0 0 0 0 0 0 0 0 0 0 0 0 0 0 0 0 0 0 0 0 0 0 0 0 0 0 0 0 0 0 0 0 0 0 0 0 0 0 0 0 0 0 0 0 0 0 0 0 0 0 0 0 0 0 0 0 0 0 0 0 0 0 0 0 0 0 0 0 0 0 0 0 0 0 0 0 0 0 0 0 0 0 0 0 0 0 0 0 0 0 0 0 0 0 0 0 0 0 0 0 0 0 0 0 0 0 0 0 0 0 0 0 0 0 0 0 0 0 0 0 0 0 0 0 0 0 0 0 0 0 0 0 0 0 0 0 0 0 0 0 0 0 0 0 0 0 0 0 0 0 0 0 0 0 0 0 0 0 0 0 0 0 0 0 0 0 0 0 0 0 0 0 0 0 0 0 0 0 0 0 0 0 0 0 0 0 0 0 0 0 0 0 0 0 0 0 0 0 0 0 0 0 0 0 0 0 0 0 0 0 0 0 0 0 0 0 0 0 0 0 0 0 0 0 0 0 0 0 0 0 0 0 0 0 0 0 0 0 0 0 0 0 0 0 0 0 0 0 0 0 0 0 0 0 0 0 0 0 0 0 0 0 0 0 0 0 0 0 0 0 0 0 0 0 0 0 0 0 0 0 0 0 0 0 0 0 0 0 0 0 0 0 0 0 0 0 0 0 0 0 0 0 0 0 0 0 0 0 0 0 0 0 0 0 0 0 0 0 0 0 0 0 0 0 0 0 0 0 0 0 0 0 0 0 0 0 0 0 0 0 0 0 0 0 0 0 0 0 0 0 0 0 0 0 0 0 0 0 0 0 0 0 0 0 0 0 0 0 0 0 0 0 0 0 0 0 0 0 0 0 0 0 0 0 0 0 0 0 0 0 0 0 0 0 0 0 0 0 0 0 0 0 0 0 0 0 0 0 0 0 0 0 0 0 0 0 0 0 0 0 0 0 0 0 0 0 0 0 0 0 0 0 0 0 0 0 0 0 0 0 0 0 0 0 0 0 0 0 0 0 0 0 0 0 0 0 0 0 0 0 0 0 0 0 0 0 0 0 0 0 0 0 0 0 0 0 0 0 0 0 0 0 0 0 0 0 0 0 0 0 0 0 0 0 0 0 0 0 0 0 0 0 0 0 0 0 0 0 0 0 0 0 0 0 0 0 0 0 0 0 0 0 0 0 0 0 0 0 0 0 0 0 0 0 0 0 0 0 0 0 0 0 0 0 0 0 0 0 0 0 0 0 0 0 0 0 0 0 0 0 0 0 0 0 0 0 0 0 0 0 0 0 0 0 0 0 0 0 0 0 0 0 0 0 0 0 0 0 0 0 0 0 0 0 0 0 0 0 0 0 0 0 0 0 0 0 0 0 0 0 0 0 0 0 0 0 0 0 0 0 0 0 0 0 0 0 0 0 0 0 0 0 0 0 0 0 0 0 0 0 0 0 0 0 0 0 0 0 0 0 0 0 0 0 0 0 0 0 0 0 0 0 0 0 0 0 0 0 0 0 0 0 0 0 0 0 0 0 0 0 0 0 0 0 0 0 0 0 0 0 0 0 0 0 0 0 0 0 0 0 0 0 0 0 0 0 0 0 0 0 0 0 0 0 0 0 0 0 0 0 0 0 0 0 0 0 0 0 0 0 0 0 0 0 0 0 0 0 0 0 0 0 0 0 0 0 0 0 0 0 0 0 0 0 0 0 0 0 0 0 0 0 0 0 0 0 0 0 0 0 0 0 0 0 0 0 0 0 0 0 0 0 0 0 0 0 0 0 0 0 0 0 0 0 0 0 0 0 0 0 0 0 0 0 0 0 0 0 0 0 0 0 0 0 0 0 0 0 0 0 0 0 0 0 0 0 0 0 0 0 0 0 0 0 0 0 0 0 0 0 0 0 0 0 0 0 0 0 0 0 0 0 0 0 0 0 0 0 0 0 0 0 0 0 0 0 0 0 0 0 0 0 0 0 0 0 0 0 0 0 0 0 0 0 0 0 0 0 0 0 0 0 0 0 0 0 0 0 0 0 0 0 0 0 0 0 0 0 0 0 0 0 0 0 0 0 0 0 0 0 0 0 0 0 0 0 0 0 0 0 0 0 0 0 0 0 0 0 0 0 0 0 0 0 0 0 0 0 0 0 0 0 0 0 0 0 0 0 0 0 0 0 0 0 0 0 0 0 0 0 0 0 0 0 0 0 0 0 0 0 0 0 0 0 0 0 0 0 0 0 0 0 0 0 0 0 0 0 0 0 0 0 0 0 0 0 0 0 0 0 0 0 0 0 0 0 0 0 0 0 0 0 0 0 0 0 0 0 0 0 0 0 0 0 0 0 0 0 0 0 0 0 0 0 0 0 0 0 0 0 0 0 0 0 0 0 0 0 0 0 0 0 0 0 0 0 0 0 0 0 0 0 0 0 0 0 0 0 0 0 0 0 0 0 0 0 0 0 0 0 0 0 0 0 0 0 0 0 0 0 0 0 0 0 0 0 0 0 0 0 0 0 0 0 0 0 0 0 0 0 0 0 0 0 0 0 0 0 0 0 0 0 0 0 0 0 0 0 0 0 0 0 0 0 0 0 0 0 0 0 0 0 0 0 0 0 0 0 0 0 0 0 0 0 0 0 0 0 0 0 0 0 0 0 0 0 0 0 0 0 0 0 0 0 0 0 0 0 0 0 0 0 0 0 0 0 0 0 0 0 0 0 0 0 0 0 0 0 0 0 0 0 0 0 0 0 0 0 0 0 0 0 0 0 0 0 0 0 0 0 0 0 0 0 0 0 0 0 0 0 0 0 0 0 0 0 0 0 0 0 0 0 0 0 0 0 0 0 0 0 0 0 0 0 0 0 0 0 0 0 0 0 0 0 0 0 0 0 0 0 0 0 0 0 0 0 0 0 0 0 0 0 0 0 0 0 0 0 0 0 0 0 0 0 0 0 0 0 0 0 0 0 0 0 0 0 0 0 0 0 0 0 0 0 0 0 0 0 0 0 0 0 0 0 0 0 0 0 0 0 0 0 0 0 0 0 0 0 0 0 0 0 0 0 0 0 0 0 0 0 0 0 0 0 0 0 0 0 0 0 0 0 0 0 0 0 0 0 0 0 0 0 0 0 0 0 0 0 0 0 0 0 0 0 0 0 0 0 0 0 0 0 0 0 0 0 0 0 0 0 0 0 0 0 0 0 0 0 0 0 0 0 0 0 0 0 0 0 0 0 0 0 0 0 0 0 0 0 0 0 0 0 0 0 0 0 0 0 0 0 0 0 0 0 0 0 0 0 0 0 0 0 0 0 0 0 0 0 0 0 0 0 0 0 0 0 0 0 0 0 0 0 0 0 0 0 0 0 0 0 0 0 0 0 0 0 0 0 0 0 0 0 0 0 0 0 0 0 0 0 0 0 0 0 0 0 0 0 0 0 0 0 0 0 0 0 0 0 0 0 0 0 0 0 0 0 0 0 0 0 0 0 0 0 0 0 0 0 0 0 0 0 0 0 0 0 0 0 0 0 0 0 0 0 0 0 0 0 0 0 0 0 0 0 0 0 0 0 0 0 0 0 0 0 0 0 0 0 0 0 0 0 0 0 0 0 0 0 0 0 0 0 0 0 0 0 0 0 0 0 0 0 0 0 0 0 0 0 0 0 0 0 0 0 0 0 0 0 0 0 0 0 0 0 0 0 0 0 0 0 0 0 0 0 0 0 0 0 0 0 0 0 0 0 0 0 0 0 0 0 0 0 0 0 0 0 0 0 0 0 0 0 0 0 0 0 0 0 0 0 0 0 0 0 0 0 0 0 0 0 0 0 0 0 0 0 0 0 0 0 0 0 0 0 0 0 0 0 0 0 0 0 0 0 0 0 0 0 0 0 0 0 0 0 0 0 0 0 0 0 0 0 0 0 0 0 0 0 0 0 0 0 0 0 0 0 0 0 0 0 0 0 0 0 0 0 0 0 0 0 0 0 0 0 0 0 0 0 0 0 0 0 0 0 0 0 0 0 0 0 0 0 0 0 0 0 0 0 0 0 0 0 0 0 0 0 0 0 0 0 0 0 0 0 0 0 0 0 0 0 0 0 0 0 0 0 0 0 0 0 0 0 0 0 0 0 0 0 0 0 0 0 0 0 0 0 0 0 0 0 0 0 0 0 0 0 0 0 0 0 0 0 0 0 0 0 0 0 0 0 0 0 0 0 0 0 0 0 0 0 0 0 0 0 0 0 0 0 0 0 0 0 0 0 0 0 0 0 0 0 0 0 0 0 0 0 0 0 0 0 0 0 0 0 0 0 0 0 0 0 0 0 0 0 0 0 0 0 0 0 0 0 0 0 0 0 0 0 0 0 0 0 0 0 0 0 0 0 0 0 0 0 0 0 0 0 0 0 0 0 0 0 0 0 0 0 0 0 0 0 0 0 0 0 0 0 0 0 0 0 0 0 0 0 0 0 0 0 0 0 0 0 0 0 0 0 0 0 0 0 0 
BTB PER SET COUNT: 0 0 0 0 0 0 0 0 0 0 0 0 0 0 0 0 0 0 0 0 0 0 0 0 0 0 0 0 0 0 0 0 0 0 0 0 0 0 0 0 0 0 0 0 0 0 0 0 0 0 0 0 0 0 0 0 0 0 0 0 0 0 0 0 0 0 0 0 0 0 0 0 0 0 0 0 0 0 0 0 0 0 0 0 0 0 0 0 0 0 0 0 0 0 0 0 0 0 0 0 0 0 0 0 0 0 0 0 0 0 0 0 0 0 0 0 0 0 0 0 0 0 0 0 0 0 0 0 0 0 0 0 0 0 0 0 0 0 0 0 0 0 0 0 0 0 0 0 0 0 0 0 0 0 0 0 0 0 0 0 0 0 0 0 0 0 0 0 0 0 0 0 0 0 0 0 0 0 0 0 0 0 0 0 0 0 0 0 0 0 0 0 0 0 0 0 0 0 0 0 0 0 0 0 0 0 0 0 0 0 0 0 0 0 0 0 0 0 0 0 0 0 0 0 0 0 0 0 0 0 0 0 0 0 0 0 0 0 0 0 0 0 0 0 0 0 0 0 0 0 0 0 0 0 0 0 0 0 0 0 0 0 0 0 0 0 0 0 0 0 0 0 0 0 0 0 0 0 0 0 0 0 0 0 0 0 0 0 0 0 0 0 0 0 0 0 0 0 0 0 0 0 0 0 0 0 0 0 0 0 0 0 0 0 0 0 0 0 0 0 0 0 0 0 0 0 0 0 0 0 0 0 0 0 0 0 0 0 0 0 0 0 0 0 0 0 0 0 0 0 0 0 0 0 0 0 0 0 0 0 0 0 0 0 0 0 0 0 0 0 0 0 0 0 0 0 0 0 0 0 0 0 0 0 0 0 0 0 0 0 0 0 0 0 0 0 0 0 0 0 0 0 0 0 0 0 0 0 0 0 0 0 0 0 0 0 0 0 0 0 0 0 0 0 0 0 0 0 0 0 0 0 0 0 0 0 0 0 0 0 0 0 0 0 0 0 0 0 0 0 0 0 0 0 0 0 0 0 0 0 0 0 0 0 0 0 0 0 0 0 0 0 0 0 0 0 0 0 0 0 0 0 0 0 0 0 0 0 0 0 0 0 0 0 0 0 0 0 0 0 0 0 0 0 0 0 0 0 0 0 0 0 0 0 0 0 0 0 0 0 0 0 0 0 0 0 0 0 0 0 0 0 0 0 0 0 0 0 0 0 0 0 0 0 0 0 0 0 0 0 0 0 0 0 0 0 0 0 0 0 0 0 0 0 0 0 0 0 0 0 0 0 0 0 0 0 0 0 0 0 0 0 0 0 0 0 0 0 0 0 0 0 0 0 0 0 0 0 0 0 0 0 0 0 0 0 0 0 0 0 0 0 0 0 0 0 0 0 0 0 0 0 0 0 0 0 0 0 0 0 0 0 0 0 0 0 0 0 0 0 0 0 0 0 0 0 0 0 0 0 0 0 0 0 0 0 0 0 0 0 0 0 0 0 0 0 0 0 0 0 0 0 0 0 0 0 0 0 0 0 0 0 0 0 0 0 0 0 0 0 0 0 0 0 0 0 0 0 0 0 0 0 0 0 0 0 0 0 0 0 0 0 0 0 0 0 0 0 0 0 0 0 0 0 0 0 0 0 0 0 0 0 0 0 0 0 0 0 0 0 0 0 0 0 0 0 0 0 0 0 0 0 0 0 0 0 0 0 0 0 0 0 0 0 0 0 0 0 0 0 0 0 0 0 0 0 0 0 0 0 0 0 0 0 0 0 0 0 0 0 0 0 0 0 0 0 0 0 0 0 0 0 0 0 0 0 0 0 0 0 0 0 0 0 0 0 0 0 0 0 0 0 0 0 0 0 0 0 0 0 0 0 0 0 0 0 0 0 0 0 0 0 0 0 0 0 0 0 0 0 0 0 0 0 0 0 0 0 0 0 0 0 0 0 0 0 0 0 0 0 0 0 0 0 0 0 0 0 0 0 0 0 0 0 0 0 0 0 0 0 0 0 0 0 0 0 0 0 0 0 0 0 0 0 0 0 0 0 0 0 0 0 0 0 0 0 0 0 0 0 0 0 0 0 0 0 0 0 0 0 0 0 0 0 0 0 0 0 0 0 0 0 0 0 0 0 0 0 0 0 0 0 0 0 0 0 0 0 0 0 0 0 0 0 0 0 0 0 0 0 0 0 0 0 0 0 0 0 0 0 0 0 0 0 0 0 0 0 0 0 0 0 0 0 0 0 0 0 0 0 0 0 0 0 0 0 0 0 0 0 0 0 0 0 0 0 0 0 0 0 0 0 0 0 0 0 0 0 0 0 0 0 0 0 0 0 0 0 0 0 0 0 0 0 0 0 0 0 0 0 0 0 0 0 0 0 0 0 0 0 0 0 0 0 0 0 0 0 0 0 0 0 0 0 0 0 0 0 0 0 0 0 0 0 0 0 0 0 0 0 0 0 0 0 0 0 0 0 0 0 0 0 0 0 0 0 0 0 0 0 0 0 0 0 0 0 0 0 0 0 0 0 0 0 0 0 0 0 0 0 0 0 0 0 0 0 0 0 0 0 0 0 0 0 0 0 0 0 0 0 0 0 0 0 0 0 0 0 0 0 0 0 0 0 0 0 0 0 0 0 0 0 0 0 0 0 0 0 0 0 0 0 0 0 0 0 0 0 0 0 0 0 0 0 0 0 0 0 0 0 0 0 0 0 0 0 0 0 0 0 0 0 0 0 0 0 0 0 0 0 0 0 0 0 0 0 0 0 0 0 0 0 0 0 0 0 0 0 0 0 0 0 0 0 0 0 0 0 0 0 0 0 0 0 0 0 0 0 0 0 0 0 0 0 0 0 0 0 0 0 0 0 0 0 0 0 0 0 0 0 0 0 0 0 0 0 0 0 0 0 0 0 0 0 0 0 0 0 0 0 0 0 0 0 0 0 0 0 0 0 0 0 0 0 0 0 0 0 0 0 0 0 0 0 0 0 0 0 0 0 0 0 0 0 0 0 0 0 0 0 0 0 0 0 0 0 0 0 0 0 0 0 0 0 0 0 0 0 0 0 0 0 0 0 0 0 0 0 0 0 0 0 0 0 0 0 0 0 0 0 0 0 0 0 0 0 0 0 0 0 0 0 0 0 0 0 0 0 0 0 0 0 0 0 0 0 0 0 0 0 0 0 0 0 0 0 0 0 0 0 0 0 0 0 0 0 0 0 0 0 0 0 0 0 0 0 0 0 0 0 0 0 0 0 0 0 0 0 0 0 0 0 0 0 0 0 0 0 0 0 0 0 0 0 0 0 0 0 0 0 0 0 0 0 0 0 0 0 0 0 0 0 0 0 0 0 0 0 0 0 0 0 0 0 0 0 0 0 0 0 0 0 0 0 0 0 0 0 0 0 0 0 0 0 0 0 0 0 0 0 0 0 0 0 0 0 0 0 0 0 0 0 0 0 0 0 0 0 0 0 0 0 0 0 0 0 0 0 0 0 0 0 0 0 0 0 0 0 0 0 0 0 0 0 0 0 0 0 0 0 0 0 0 0 0 0 0 0 0 0 0 0 0 0 0 0 0 0 0 0 0 0 0 0 0 0 0 0 0 0 0 0 0 0 0 0 0 0 0 0 0 0 0 0 0 0 0 0 0 0 0 0 0 0 0 0 0 0 0 0 0 0 0 0 0 0 0 0 0 0 0 0 0 0 0 0 0 0 0 0 0 0 0 0 0 0 0 0 0 0 0 0 0 0 0 0 0 0 0 0 0 0 0 0 0 0 0 0 0 0 0 0 0 0 0 0 0 0 0 0 0 0 0 0 0 0 0 0 0 0 0 0 0 0 0 0 0 0 0 0 0 0 0 0 0 0 0 0 0 0 0 0 0 0 0 0 0 0 0 0 0 0 0 0 0 0 0 0 0 0 0 0 0 0 0 0 0 0 0 0 0 0 0 0 0 0 0 0 0 0 0 0 0 0 0 0 0 0 0 0 0 0 0 0 0 0 0 0 0 0 0 0 0 0 0 0 0 0 0 0 0 0 0 0 0 0 0 0 0 0 0 0 0 0 0 0 0 0 0 0 0 0 0 0 0 0 0 0 0 0 0 0 0 0 0 0 0 0 0 0 0 0 0 0 0 0 0 0 0 0 0 0 0 0 0 0 0 0 0 0 0 0 0 0 0 0 0 0 0 0 0 0 0 0 0 0 0 0 0 0 0 0 0 0 0 0 0 0 0 0 0 0 0 0 0 0 0 0 0 0 0 0 0 0 0 0 0 0 0 0 0 0 0 0 0 0 0 0 0 0 0 0 0 0 0 0 0 0 0 0 0 0 0 0 0 0 0 0 0 0 0 0 0 0 0 0 0 0 0 0 0 0 0 0 0 0 0 0 0 0 0 0 0 0 0 0 0 0 0 0 0 0 0 0 0 0 0 0 0 0 0 0 0 0 0 0 0 0 0 0 0 0 0 0 0 0 0 0 0 0 0 0 0 0 0 0 0 0 0 0 0 0 0 0 0 0 0 0 0 0 0 0 0 0 0 0 0 0 0 0 0 0 0 0 0 0 0 0 0 0 0 0 0 0 0 0 0 0 0 0 0 0 0 0 0 0 0 0 
