
*** ChampSim Multicore Out-of-Order Simulator ***

Warmup Instructions: 50000000
Simulation Instructions: 50000000
Number of CPUs: 1
LLC sets: 2048
LLC ways: 16
Off-chip DRAM Size: 4096 MB Channels: 1 Width: 64-bit Data Rate: 6400 MT/s
CPU 0 runs ./micro_traces/srv271.trace.gz
.gz
ITLB has LRU replacement policy
DTLB has LRU replacement policy
STLB has LRU replacement policy
FDIP Prefetcher at L1I
L1I has LRU replacement policy
L1D has LRU replacement policy
Initialize SRRIP state for L2C
Initialize DRRIP state for LLC
Heartbeat CPU 0 instructions: 10000001 cycles: 2798448 heartbeat IPC: 3.57341 cumulative IPC: 3.57341 (Simulation time: 0 hr 3 min 5 sec) 
Heartbeat CPU 0 instructions: 20000001 cycles: 5594296 heartbeat IPC: 3.57673 cumulative IPC: 3.57507 (Simulation time: 0 hr 4 min 55 sec) 
Heartbeat CPU 0 instructions: 30000002 cycles: 8390208 heartbeat IPC: 3.57665 cumulative IPC: 3.5756 (Simulation time: 0 hr 6 min 55 sec) 
Heartbeat CPU 0 instructions: 40000003 cycles: 11186934 heartbeat IPC: 3.57561 cumulative IPC: 3.5756 (Simulation time: 0 hr 9 min 2 sec) 
Heartbeat CPU 0 instructions: 50000003 cycles: 13983038 heartbeat IPC: 3.5764 cumulative IPC: 3.57576 (Simulation time: 0 hr 10 min 54 sec) 

Warmup complete CPU 0 instructions: 50000003 cycles: 13983038 (Simulation time: 0 hr 10 min 54 sec) 

Cycle: 20000000 FTQ IN: 58585059 FTQ occupancy: 21.4885 DECODE IN: 58584968 DECODE occupancy: 55.3035 ROB IN: 58584908 ROB occupancy: 324.749 ROB OUT: 58584556
Heartbeat CPU 0 instructions: 60000000 cycles: 20990826 heartbeat IPC: 1.42698 cumulative IPC: 1.42698 (Simulation time: 0 hr 13 min 28 sec) 
Heartbeat CPU 0 instructions: 70000003 cycles: 28015604 heartbeat IPC: 1.42353 cumulative IPC: 1.42526 (Simulation time: 0 hr 15 min 56 sec) 
Cycle: 30000000 FTQ IN: 14256699 FTQ occupancy: 18.1843 DECODE IN: 14256713 DECODE occupancy: 44.5956 ROB IN: 14256713 ROB occupancy: 270.09 ROB OUT: 14256904
Heartbeat CPU 0 instructions: 80000002 cycles: 34990664 heartbeat IPC: 1.43368 cumulative IPC: 1.42805 (Simulation time: 0 hr 18 min 32 sec) 
Cycle: 40000000 FTQ IN: 14227050 FTQ occupancy: 18.1418 DECODE IN: 14226994 DECODE occupancy: 44.5454 ROB IN: 14226994 ROB occupancy: 270.385 ROB OUT: 14226803
Heartbeat CPU 0 instructions: 90000001 cycles: 42038414 heartbeat IPC: 1.41889 cumulative IPC: 1.42575 (Simulation time: 0 hr 21 min 7 sec) 
*** Reached end of trace for Core: 0 Repeating trace: ./micro_traces/srv271.trace.gz
Heartbeat CPU 0 instructions: 100000002 cycles: 48989105 heartbeat IPC: 1.43871 cumulative IPC: 1.42832 (Simulation time: 0 hr 23 min 13 sec) 
Finished CPU 0 instructions: 50000003 cycles: 35006068 cumulative IPC: 1.42832 (Simulation time: 0 hr 23 min 13 sec) 

ChampSim completed all CPUs

Region of Interest Statistics

CPU 0 cumulative IPC: 1.42832 instructions: 50000003 cycles: 35006068
 Fetch stage stalled: 23.2191  Sim cycles: 35006068 fetch stall cycle: 8128107
 Empty decode stage: 11.9508  Sim cycles: 35006068 fetch stall cycle: 4183520
ITLB TOTAL     ACCESS:    5954422  HIT:    5460330  MISS:     494092  HIT %:    91.7021  MISS %:     8.2979   MPKI: 9.88184
ITLB LOAD TRANSLATION INSTRUCTION	ACCESS:    5801308  HIT:    5307216  MISS:     494092  HIT %:    91.4831  MISS %:    8.51691  MPKI: 9.88184
ITLB TRANSLATION FROM L1D PREFETCHER INSTRUCTION	ACCESS:     153114  HIT:     153114  MISS:          0  HIT %:        100  MISS %:          0  MPKI: 0

ITLB AVERAGE MISS LATENCY: 9.04088 cycles
ITLB RQ	ACCESS:    7940559	FORWARD:          0	MERGED:    1439605	TO_CACHE:    6500954

DTLB TOTAL     ACCESS:    8939985  HIT:    8470027  MISS:     469958  HIT %:    94.7432  MISS %:    5.25681   MPKI: 9.39916
DTLB LOAD TRANSLATION DATA	ACCESS:    8939985  HIT:    8470027  MISS:     469958  HIT %:    94.7432  MISS %:    5.25681  MPKI: 9.39916

DTLB AVERAGE MISS LATENCY: 9.31018 cycles
DTLB RQ	ACCESS:   13316634	FORWARD:          0	MERGED:    4339077	TO_CACHE:    8977557

STLB TOTAL     ACCESS:    1210685  HIT:    1208784  MISS:       1901  HIT %:     99.843  MISS %:   0.157019   MPKI: 0.03802
STLB LOAD TRANSLATION INSTRUCTION	ACCESS:     494092  HIT:     493895  MISS:        197  HIT %:    99.9601  MISS %:  0.0398711  MPKI: 0.00394
STLB LOAD TRANSLATION DATA	ACCESS:     469958  HIT:     468273  MISS:       1685  HIT %:    99.6415  MISS %:   0.358543  MPKI: 0.0337
STLB TRANSLATION FROM L1D PREFETCHER DATA	ACCESS:     246635  HIT:     246616  MISS:         19  HIT %:    99.9923  MISS %: 0.00770369  MPKI: 0.00038

STLB AVERAGE MISS LATENCY: 70.9753 cycles
STLB RQ	ACCESS:    1331712	FORWARD:          0	MERGED:     120983	TO_CACHE:    1210729

STLB Hit, L1D data hit: 0
STLB Hit, L2C data hit: 0
STLB Hit, LLC data hit: 0
STLB Hit, LLC data miss: 0
STLB STLB hints to L2: 0
L1D TOTAL     ACCESS:   13069646  HIT:   11951021  MISS:    1118625  HIT %:     91.441  MISS %:    8.55895   MPKI: 22.3725
L1D LOAD DATA	ACCESS:    6536266  HIT:    5796967  MISS:     739299  HIT %:    88.6893  MISS %:    11.3107  MPKI: 14.786
L1D RFO DATA	ACCESS:    6205629  HIT:    5920698  MISS:     284931  HIT %:    95.4085  MISS %:    4.59149  MPKI: 5.69862
L1D PREFETCH DATA	ACCESS:     327751  HIT:     233356  MISS:      94395  HIT %:    71.1992  MISS %:    28.8008  MPKI: 1.8879

L1D PREFETCH  REQUESTED:     735729  ISSUED:     735729  USEFUL:      33408  USELESS:      68413
L1D USEFUL LOAD PREFETCHES:      33408 PREFETCH ISSUED TO LOWER LEVEL:     101880  ACCURACY: 32.7915
 TIMELY PREFETCHES:      33408 LATE PREFETCHES: 7432 DROPPED PREFETCHES: 15
L1D AVERAGE MISS LATENCY: 212294 cycles
L1D RQ	ACCESS:   10669431	FORWARD:          0	MERGED:    3936612	TO_CACHE:    6569990
L1D WQ	ACCESS:    6946617	FORWARD:     163236	MERGED:     199973	TO_CACHE:    6746644
L1D PQ	ACCESS:     368068	FORWARD:          0	MERGED:          0	TO_CACHE:     367661

L1D UNIQUE REGIONS ACCESSED: 0
L1D REGIONS CONFLICTS: 0
L1D Cross Page Prefetch Requests: 6816
L1D Same Page Prefetch Requests: 747282
L1D ROI Sum of L1D PQ occupancy: 4668900
L1D PREFETCHES PUSHED FROM L2C: 0
L1I TOTAL     ACCESS:    7126735  HIT:    4360914  MISS:    2765821  HIT %:    61.1909  MISS %:    38.8091   MPKI: 55.3164
L1I LOAD INSTRUCTION	ACCESS:    6443947  HIT:    3678126  MISS:    2765821  HIT %:    57.0788  MISS %:    42.9212  MPKI: 55.3164
L1I PREFETCH INSTRUCTION	ACCESS:     682788  HIT:     682788  MISS:          0  HIT %:        100  MISS %:          0  MPKI: 0

L1I PREFETCH  REQUESTED:    1678361  ISSUED:    1678361  USEFUL:          0  USELESS:          0
L1I USEFUL LOAD PREFETCHES:          0 PREFETCH ISSUED TO LOWER LEVEL:          0  ACCURACY: -nan
 TIMELY PREFETCHES:          0 LATE PREFETCHES: 0 DROPPED PREFETCHES: 0
L1I AVERAGE MISS LATENCY: 17.121 cycles
L1I RQ	ACCESS:    9843350	FORWARD:          0	MERGED:    3148199	TO_CACHE:    6695151
L1I PQ	ACCESS:    1678361	FORWARD:          0	MERGED:     432953	TO_CACHE:    1245408

L1BTB TOTAL     ACCESS:    5371775  HIT:    5339465  MISS:      32310  HIT %:    99.3985  MISS %:   0.601477   MPKI: 0.6462
L1BTB BRANCH_DIRECT_JUMP	ACCESS:     548042  HIT:     548042  MISS:          0	AVERAGE STALL: -nan
L1BTB BRANCH_INDIRECT	ACCESS:     182488  HIT:     169624  MISS:      12864	AVERAGE STALL: 125.131
L1BTB BRANCH_CONDITIONAL	ACCESS:    2400735  HIT:    2400735  MISS:          0	AVERAGE STALL: -nan
L1BTB BRANCH_DIRECT_CALL	ACCESS:     947774  HIT:     947774  MISS:          0	AVERAGE STALL: -nan
L1BTB BRANCH_INDIRECT_CALL	ACCESS:     172484  HIT:     153038  MISS:      19446	AVERAGE STALL: 163.2
L1BTB BRANCH_RETURN	ACCESS:    1120252  HIT:    1120252  MISS:          0	AVERAGE STALL: -nan
L1BTB BRANCH_OTHER ACCESS:          0  HIT:          0  MISS:          0	AVERAGE STALL: -nan
L1BTB TOTAL ROB OCCUPANCY AT BTB MISS: 125.961

L2BTB BRANCH_DIRECT_JUMP	ACCESS:          0  HIT:          0  MISS:          0	AVERAGE STALL: -nan
L2BTB BRANCH_INDIRECT	ACCESS:          0  HIT:          0  MISS:          0	AVERAGE STALL: 125.131
L2BTB BRANCH_CONDITIONAL	ACCESS:          0  HIT:          0  MISS:          0	AVERAGE STALL: -nan
L2BTB BRANCH_DIRECT_CALL	ACCESS:          0  HIT:          0  MISS:          0	AVERAGE STALL: -nan
L2BTB BRANCH_INDIRECT_CALL	ACCESS:          0  HIT:          0  MISS:          0	AVERAGE STALL: 163.2
L2BTB BRANCH_RETURN	ACCESS:          0  HIT:          0  MISS:          0	AVERAGE STALL: -nan
L2BTB BRANCH_OTHER ACCESS:          0  HIT:          0  MISS:          0	AVERAGE STALL: -nan
L2BTB TOTAL ROB OCCUPANCY AT BTB MISS: inf

L2C TOTAL     ACCESS:    4490016  HIT:    4042739  MISS:     447277  HIT %:    90.0384  MISS %:    9.96159   MPKI: 8.94554
L2C LOAD INSTRUCTION	ACCESS:    2765820  HIT:    2524481  MISS:     241339  HIT %:    91.2742  MISS %:    8.72577  MPKI: 4.82678
L2C LOAD TRANSLATION INSTRUCTION	ACCESS:        227  HIT:         59  MISS:        168  HIT %:    25.9912  MISS %:    74.0088  MPKI: 0.00336
L2C LOAD DATA	ACCESS:     731810  HIT:     661485  MISS:      70325  HIT %:    90.3903  MISS %:    9.60973  MPKI: 1.4065
L2C RFO DATA	ACCESS:     284832  HIT:     235741  MISS:      49091  HIT %:    82.7649  MISS %:    17.2351  MPKI: 0.98182
L2C PREFETCH DATA	ACCESS:     183683  HIT:     111857  MISS:      71826  HIT %:    60.8968  MISS %:    39.1032  MPKI: 1.43652
L2C WRITEBACK DATA	ACCESS:     521843  HIT:     508601  MISS:      13242  HIT %:    97.4625  MISS %:    2.53754  MPKI: 0.26484
L2C LOAD TRANSLATION DATA	ACCESS:       1753  HIT:        484  MISS:       1269  HIT %:    27.6098  MISS %:    72.3902  MPKI: 0.02538
L2C TRANSLATION FROM L1D PREFETCHER DATA	ACCESS:         48  HIT:         31  MISS:         17  HIT %:    64.5833  MISS %:    35.4167  MPKI: 0.00034

L2C PREFETCH  REQUESTED:      89435  ISSUED:      89435  USEFUL:       8195  USELESS:      64037
L2C USEFUL LOAD PREFETCHES:       8195 PREFETCH ISSUED TO LOWER LEVEL:      72240  ACCURACY: 11.3441
 TIMELY PREFETCHES:       8195 LATE PREFETCHES: 414 DROPPED PREFETCHES: 0
L2C AVERAGE MISS LATENCY: 38.5881 cycles
L2C RQ	ACCESS:    3784594	FORWARD:          0	MERGED:          0	TO_CACHE:    3784491
L2C WQ	ACCESS:     521843	FORWARD:        103	MERGED:          0	TO_CACHE:     521843
L2C PQ	ACCESS:     191315	FORWARD:          0	MERGED:       3439	TO_CACHE:     187876

L2C Dense regions hint from L2: 0
PSCL5 TOTAL     ACCESS:       3846  HIT:       1923  MISS:       1923  HIT %:         50  MISS %:         50   MPKI: 0.03846
PSCL5 LOAD TRANSLATION INSTRUCTION	ACCESS:       3752  HIT:       1876  MISS:       1876  HIT %:         50  MISS %:         50  MPKI: 0.03752
PSCL5 TRANSLATION FROM L1D PREFETCHER INSTRUCTION	ACCESS:         94  HIT:         47  MISS:         47  HIT %:         50  MISS %:         50  MPKI: 0.00094


PSCL4 TOTAL     ACCESS:       3710  HIT:       1851  MISS:       1859  HIT %:    49.8922  MISS %:    50.1078   MPKI: 0.03718
PSCL4 LOAD TRANSLATION INSTRUCTION	ACCESS:       2387  HIT:       1810  MISS:        577  HIT %:    75.8274  MISS %:    24.1726  MPKI: 0.01154
PSCL4 TRANSLATION FROM L1D PREFETCHER INSTRUCTION	ACCESS:         51  HIT:         41  MISS:         10  HIT %:    80.3922  MISS %:    19.6078  MPKI: 0.0002
PSCL4 LOAD TRANSLATION DATA	ACCESS:       1241  HIT:          0  MISS:       1241  HIT %:          0  MISS %:        100  MPKI: 0.02482
PSCL4 TRANSLATION FROM L1D PREFETCHER DATA	ACCESS:         31  HIT:          0  MISS:         31  HIT %:          0  MISS %:        100  MPKI: 0.00062


PSCL3 TOTAL     ACCESS:       3724  HIT:       1858  MISS:       1866  HIT %:    49.8926  MISS %:    50.1074   MPKI: 0.03732
PSCL3 LOAD TRANSLATION INSTRUCTION	ACCESS:       2394  HIT:       1817  MISS:        577  HIT %:    75.8981  MISS %:    24.1019  MPKI: 0.01154
PSCL3 TRANSLATION FROM L1D PREFETCHER INSTRUCTION	ACCESS:         51  HIT:         41  MISS:         10  HIT %:    80.3922  MISS %:    19.6078  MPKI: 0.0002
PSCL3 LOAD TRANSLATION DATA	ACCESS:       1248  HIT:          0  MISS:       1248  HIT %:          0  MISS %:        100  MPKI: 0.02496
PSCL3 TRANSLATION FROM L1D PREFETCHER DATA	ACCESS:         31  HIT:          0  MISS:         31  HIT %:          0  MISS %:        100  MPKI: 0.00062


PSCL2 TOTAL     ACCESS:       3752  HIT:       1831  MISS:       1921  HIT %:    48.8006  MISS %:    51.1994   MPKI: 0.03842
PSCL2 LOAD TRANSLATION INSTRUCTION	ACCESS:       1982  HIT:       1785  MISS:        197  HIT %:    90.0605  MISS %:    9.93946  MPKI: 0.00394
PSCL2 TRANSLATION FROM L1D PREFETCHER INSTRUCTION	ACCESS:         46  HIT:         46  MISS:          0  HIT %:        100  MISS %:          0  MPKI: 0
PSCL2 LOAD TRANSLATION DATA	ACCESS:       1678  HIT:          0  MISS:       1678  HIT %:          0  MISS %:        100  MPKI: 0.03356
PSCL2 TRANSLATION FROM L1D PREFETCHER DATA	ACCESS:         46  HIT:          0  MISS:         46  HIT %:          0  MISS %:        100  MPKI: 0.00092


LLC TOTAL     ACCESS:     505346  HIT:     478331  MISS:      27015  HIT %:    94.6542  MISS %:    5.34584   MPKI: 0.5403
LLC LOAD INSTRUCTION	ACCESS:     241339  HIT:     240742  MISS:        597  HIT %:    99.7526  MISS %:    0.24737  MPKI: 0.01194
LLC LOAD TRANSLATION INSTRUCTION	ACCESS:        168  HIT:        153  MISS:         15  HIT %:    91.0714  MISS %:    8.92857  MPKI: 0.0003
LLC LOAD DATA	ACCESS:      69951  HIT:      66527  MISS:       3424  HIT %:    95.1051  MISS %:    4.89485  MPKI: 0.06848
LLC RFO DATA	ACCESS:      49041  HIT:      36126  MISS:      12915  HIT %:    73.6649  MISS %:    26.3351  MPKI: 0.2583
LLC PREFETCH DATA	ACCESS:      72240  HIT:      62528  MISS:       9712  HIT %:    86.5559  MISS %:    13.4441  MPKI: 0.19424
LLC WRITEBACK DATA	ACCESS:      71321  HIT:      71044  MISS:        277  HIT %:    99.6116  MISS %:   0.388385  MPKI: 0.00554
LLC LOAD TRANSLATION DATA	ACCESS:       1269  HIT:       1198  MISS:         71  HIT %:     94.405  MISS %:    5.59496  MPKI: 0.00142
LLC TRANSLATION FROM L1D PREFETCHER DATA	ACCESS:         17  HIT:         13  MISS:          4  HIT %:    76.4706  MISS %:    23.5294  MPKI: 8e-05

LLC AVERAGE MISS LATENCY: 155.493 cycles
LLC RQ	ACCESS:     361796	FORWARD:          0	MERGED:          0	TO_CACHE:     361786
LLC WQ	ACCESS:      71321	FORWARD:         10	MERGED:          0	TO_CACHE:      71321
LLC PQ	ACCESS:      72240	FORWARD:          0	MERGED:          0	TO_CACHE:      72240

LLC Dense regions hint to LLC: 0

RAW hits: 1961241
Loads Generated: 12630672
Loads sent to L1D: 10669431
Stores Generated: 6946601
Stores sent to L1D: 6946617
Major fault: 0 Minor fault: 2569
Allocated PAGES: 2569

stream: 
stream:times selected: 1182190
stream:pref_filled: 121674
stream:pref_useful: 24427
stream:pref_late: 6652
stream:misses: 7911
stream:misses_by_poll: 0

CS: 
CS:times selected: 175759
CS:pref_filled: 60103
CS:pref_useful: 36656
CS:pref_late: 6496
CS:misses: 15500
CS:misses_by_poll: 7

CPLX: 
CPLX:times selected: 1005247
CPLX:pref_filled: 19557
CPLX:pref_useful: 4625
CPLX:pref_late: 3276
CPLX:misses: 93795
CPLX:misses_by_poll: 0

NL_L1: 
NL:times selected: 20540
NL:pref_filled: 775
NL:pref_useful: 347
NL:pref_late: 240
NL:misses: 1743
NL:misses_by_poll: 0

total selections: 2383736
total_filled: 94395
total_useful: 33408
total_late: 17965
total_polluted: 7
total_misses_after_warmup: 773024
conflicts: 5516748

test: 114684

DRAM Statistics
 CHANNEL 0
 RQ ROW_BUFFER_HIT:      10016  ROW_BUFFER_MISS:      16717
 DBUS_CONGESTED:         13
 WQ ROW_BUFFER_HIT:       1273  ROW_BUFFER_MISS:      11602  FULL:          0

 AVG_CONGESTED_CYCLE: 4

CPU 0 Branch Prediction Accuracy: 99.8272% MPKI: 0.31638 Average ROB Occupancy at Mispredict: 190.489
Branch types
NOT_BRANCH: 40847902 81.6958%
BRANCH_DIRECT_JUMP: 548042 1.09608%
BRANCH_INDIRECT: 182488 0.364976%
BRANCH_CONDITIONAL: 6180901 12.3618%
BRANCH_DIRECT_CALL: 947774 1.89555%
BRANCH_INDIRECT_CALL: 172484 0.344968%
BRANCH_RETURN: 1120252 2.2405%
BRANCH_OTHER: 0 0%

DRAM PAGES: 1048576
Allocated PAGES: 2569
Average_ROB_Occupancy: 271.802
Average_Decode_Occupancy: 44.5505
Average_FTQ_Occupancy: 18.1349
Indirect max targets: 14 Average targets: 1.17572
Branch_type:  BRANCH_DIRECT_JUMP:  Count Percentage: 3.79161 5.76312 4.06002 8.28967 2.4059 6.00671 2.54917 67.1338 
Branch_type:  BRANCH_INDIRECT:  Count Percentage: 11.7553 3.42045 2.52459 9.69829 3.3447 2.80872 2.94353 63.5045 
Branch_type:  BRANCH_CONDITIONAL:  Count Percentage: 21.185 3.19296 1.57329 5.61654 1.74841 4.01243 6.13137 56.54 
Branch_type:  BRANCH_DIRECT_CALL:  Count Percentage: 0.388012 1.7793 0.740769 4.21864 2.86261 2.72889 4.27718 83.0046 
Branch_type:  BRANCH_INDIRECT_CALL:  Count Percentage: 9.54532 0 2.9911 5.2591 1.14229 2.03075 3.84899 75.1824 
Branch_type:  BRANCH_RETURN:  Count Percentage: 3.94191 1.9997 1.48821 6.19417 2.96022 3.84986 6.97672 72.5892 
Branch_type:  BRANCH_DIRECT_JUMP:  Total Count: 41574 63191 44517 90894 26380 65862 27951 736104 
Branch_type:  BRANCH_INDIRECT:  Total Count: 42987 12508 9232 35465 12231 10271 10764 232225 
Branch_type:  BRANCH_CONDITIONAL:  Total Count: 2618201 394609 194438 694132 216081 495885 757759 6987617 
Branch_type:  BRANCH_DIRECT_CALL:  Total Count: 7330 33613 13994 79695 54078 51552 80801 1568054 
Branch_type:  BRANCH_INDIRECT_CALL:  Total Count: 32790 0 10275 18066 3924 6976 13222 258266 
Branch_type:  BRANCH_RETURN:  Total Count: 88042 44663 33239 138346 66116 85986 155824 1621270 
Number of unique branch instructions: 10506
Upper 32 bits: 
aaaa
ffff
ffff0000
Unique upper 32 bits: 3
Unique upper 36 bits: 3
Unique upper 40 bits: 5
Unique upper 44 bits: 32
Unique upper 48 bits: 157
Offset_3 4349
Offset_4 251
Offset_5 470
Offset_6 530
Offset_7 619
Offset_8 561
Offset_9 501
Offset_10 411
Offset_11 331
Offset_12 305
Offset_13 234
Offset_14 243
Offset_15 196
Offset_16 219
Offset_17 162
Offset_18 144
Offset_19 255
Offset_20 144
Offset_21 239
Offset_22 404
Offset_23 241
Offset_24 338
Offset_25 117
Offset_47 92
Offset_64 2
decode_dispatch_called: 27608607 78.8681
Dispatch_width: 0 15099858 54.6926 43.135
Dispatch_width: 1 1091821 3.95464 3.11895
Dispatch_width: 2 857576 3.10619 2.44979
Dispatch_width: 3 498470 1.80549 1.42395
Dispatch_width: 4 7306732 26.4654 20.8728
Dispatch_width: 5 54208 0.196345 0.154853
Dispatch_width: 6 2699942 9.77935 7.71278
Empty_decode_cycles: 7397461 21.1319
ROB_full_cycles: 11889474 33.964
Starvation_cycles_per_kilo_instr: 204.167
Starvation_cycles_per_kilo_instr_3: 130.557
Starvation_cycles_per_kilo_instr_0: 106.078
Branch_type_1  (3,1)  (4,7)  (5,38)  (6,73)  (7,122)  (8,146)  (9,133)  (10,107)  (11,72)  (12,47)  (13,11)  (14,2)  (15,3)  (16,4)  (18,1)  (19,5)  (20,2)  (21,1)  (22,3)  (23,2)  (24,10)  (25,12) 
Branch_type_2  (3,1)  (4,1)  (5,1)  (8,4)  (9,4)  (10,1)  (12,1)  (13,1)  (14,1)  (16,3)  (17,2)  (20,2)  (21,2)  (23,5)  (24,1)  (47,41) 
Branch_type_3  (3,4347)  (4,243)  (5,427)  (6,441)  (7,465)  (8,346)  (9,271)  (10,163)  (11,124)  (12,54)  (13,10)  (64,2) 
Branch_type_4  (6,3)  (7,8)  (8,26)  (9,55)  (10,67)  (11,69)  (12,112)  (13,99)  (14,109)  (15,92)  (16,96)  (17,75)  (18,61)  (19,122)  (20,73)  (21,127)  (22,213)  (23,136)  (24,194)  (25,101) 
Branch_type_5  (8,3)  (9,1)  (10,4)  (11,5)  (12,3)  (13,14)  (14,16)  (15,11)  (16,22)  (17,11)  (18,23)  (19,14)  (20,12)  (21,13)  (22,43)  (23,26)  (24,37) 
Branch_type_6  (5,4)  (6,13)  (7,24)  (8,36)  (9,37)  (10,69)  (11,61)  (12,88)  (13,99)  (14,115)  (15,90)  (16,94)  (17,74)  (18,59)  (19,114)  (20,55)  (21,96)  (22,145)  (23,72)  (24,96)  (25,4)  (47,51) 
Unique trigger count: 
BTB PER SET UNIQUE ADDR: 0 0 0 0 0 0 0 0 0 0 0 0 0 0 0 0 0 0 0 0 0 0 0 0 0 0 0 0 0 0 0 0 0 0 0 0 0 0 0 0 0 0 0 0 0 0 0 0 0 0 0 0 0 0 0 0 0 0 0 0 0 0 0 0 0 0 0 0 0 0 0 0 0 0 0 0 0 0 0 0 0 0 0 0 0 0 0 0 0 0 0 0 0 0 0 0 0 0 0 0 0 0 0 0 0 0 0 0 0 0 0 0 0 0 0 0 0 0 0 0 0 0 0 0 0 0 0 0 0 0 0 0 0 0 0 0 0 0 0 0 0 0 0 0 0 0 0 0 0 0 0 0 0 0 0 0 0 0 0 0 0 0 0 0 0 0 0 0 0 0 0 0 0 0 0 0 0 0 0 0 0 0 0 0 0 0 0 0 0 0 0 0 0 0 0 0 0 0 0 0 0 0 0 0 0 0 0 0 0 0 0 0 0 0 0 0 0 0 0 0 0 0 0 0 0 0 0 0 0 0 0 0 0 0 0 0 0 0 0 0 0 0 0 0 0 0 0 0 0 0 0 0 0 0 0 0 0 0 0 0 0 0 0 0 0 0 0 0 0 0 0 0 0 0 0 0 0 0 0 0 0 0 0 0 0 0 0 0 0 0 0 0 0 0 0 0 0 0 0 0 0 0 0 0 0 0 0 0 0 0 0 0 0 0 0 0 0 0 0 0 0 0 0 0 0 0 0 0 0 0 0 0 0 0 0 0 0 0 0 0 0 0 0 0 0 0 0 0 0 0 0 0 0 0 0 0 0 0 0 0 0 0 0 0 0 0 0 0 0 0 0 0 0 0 0 0 0 0 0 0 0 0 0 0 0 0 0 0 0 0 0 0 0 0 0 0 0 0 0 0 0 0 0 0 0 0 0 0 0 0 0 0 0 0 0 0 0 0 0 0 0 0 0 0 0 0 0 0 0 0 0 0 0 0 0 0 0 0 0 0 0 0 0 0 0 0 0 0 0 0 0 0 0 0 0 0 0 0 0 0 0 0 0 0 0 0 0 0 0 0 0 0 0 0 0 0 0 0 0 0 0 0 0 0 0 0 0 0 0 0 0 0 0 0 0 0 0 0 0 0 0 0 0 0 0 0 0 0 0 0 0 0 0 0 0 0 0 0 0 0 0 0 0 0 0 0 0 0 0 0 0 0 0 0 0 0 0 0 0 0 0 0 0 0 0 0 0 0 0 0 0 0 0 0 0 0 0 0 0 0 0 0 0 0 0 0 0 0 0 0 0 0 0 0 0 0 0 0 0 0 0 0 0 0 0 0 0 0 0 0 0 0 0 0 0 0 0 0 0 0 0 0 0 0 0 0 0 0 0 0 0 0 0 0 0 0 0 0 0 0 0 0 0 0 0 0 0 0 0 0 0 0 0 0 0 0 0 0 0 0 0 0 0 0 0 0 0 0 0 0 0 0 0 0 0 0 0 0 0 0 0 0 0 0 0 0 0 0 0 0 0 0 0 0 0 0 0 0 0 0 0 0 0 0 0 0 0 0 0 0 0 0 0 0 0 0 0 0 0 0 0 0 0 0 0 0 0 0 0 0 0 0 0 0 0 0 0 0 0 0 0 0 0 0 0 0 0 0 0 0 0 0 0 0 0 0 0 0 0 0 0 0 0 0 0 0 0 0 0 0 0 0 0 0 0 0 0 0 0 0 0 0 0 0 0 0 0 0 0 0 0 0 0 0 0 0 0 0 0 0 0 0 0 0 0 0 0 0 0 0 0 0 0 0 0 0 0 0 0 0 0 0 0 0 0 0 0 0 0 0 0 0 0 0 0 0 0 0 0 0 0 0 0 0 0 0 0 0 0 0 0 0 0 0 0 0 0 0 0 0 0 0 0 0 0 0 0 0 0 0 0 0 0 0 0 0 0 0 0 0 0 0 0 0 0 0 0 0 0 0 0 0 0 0 0 0 0 0 0 0 0 0 0 0 0 0 0 0 0 0 0 0 0 0 0 0 0 0 0 0 0 0 0 0 0 0 0 0 0 0 0 0 0 0 0 0 0 0 0 0 0 0 0 0 0 0 0 0 0 0 0 0 0 0 0 0 0 0 0 0 0 0 0 0 0 0 0 0 0 0 0 0 0 0 0 0 0 0 0 0 0 0 0 0 0 0 0 0 0 0 0 0 0 0 0 0 0 0 0 0 0 0 0 0 0 0 0 0 0 0 0 0 0 0 0 0 0 0 0 0 0 0 0 0 0 0 0 0 0 0 0 0 0 0 0 0 0 0 0 0 0 0 0 0 0 0 0 0 0 0 0 0 0 0 0 0 0 0 0 0 0 0 0 0 0 0 0 0 0 0 0 0 0 0 0 0 0 0 0 0 0 0 0 0 0 0 0 0 0 0 0 0 0 0 0 0 0 0 0 0 0 0 0 0 0 0 0 0 0 0 0 0 0 0 0 0 0 0 0 0 0 0 0 0 0 0 0 0 0 0 0 0 0 0 0 0 0 0 0 0 0 0 0 0 0 0 0 0 0 0 0 0 0 0 0 0 0 0 0 0 0 0 0 0 0 0 0 0 0 0 0 0 0 0 0 0 0 0 0 0 0 0 0 0 0 0 0 0 0 0 0 0 0 0 0 0 0 0 0 0 0 0 0 0 0 0 0 0 0 0 0 0 0 0 0 0 0 0 0 0 0 0 0 0 0 0 0 0 0 0 0 0 0 0 0 0 0 0 0 0 0 0 0 0 0 0 0 0 0 0 0 0 0 0 0 0 0 0 0 0 0 0 0 0 0 0 0 0 0 0 0 0 0 0 0 0 0 0 0 0 0 0 0 0 0 0 0 0 0 0 0 0 0 0 0 0 0 0 0 0 0 0 0 0 0 0 0 0 0 0 0 0 0 0 0 0 0 0 0 0 0 0 0 0 0 0 0 0 0 0 0 0 0 0 0 0 0 0 0 0 0 0 0 0 0 0 0 0 0 0 0 0 0 0 0 0 0 0 0 0 0 0 0 0 0 0 0 0 0 0 0 0 0 0 0 0 0 0 0 0 0 0 0 0 0 0 0 0 0 0 0 0 0 0 0 0 0 0 0 0 0 0 0 0 0 0 0 0 0 0 0 0 0 0 0 0 0 0 0 0 0 0 0 0 0 0 0 0 0 0 0 0 0 0 0 0 0 0 0 0 0 0 0 0 0 0 0 0 0 0 0 0 0 0 0 0 0 0 0 0 0 0 0 0 0 0 0 0 0 0 0 0 0 0 0 0 0 0 0 0 0 0 0 0 0 0 0 0 0 0 0 0 0 0 0 0 0 0 0 0 0 0 0 0 0 0 0 0 0 0 0 0 0 0 0 0 0 0 0 0 0 0 0 0 0 0 0 0 0 0 0 0 0 0 0 0 0 0 0 0 0 0 0 0 0 0 0 0 0 0 0 0 0 0 0 0 0 0 0 0 0 0 0 0 0 0 0 0 0 0 0 0 0 0 0 0 0 0 0 0 0 0 0 0 0 0 0 0 0 0 0 0 0 0 0 0 0 0 0 0 0 0 0 0 0 0 0 0 0 0 0 0 0 0 0 0 0 0 0 0 0 0 0 0 0 0 0 0 0 0 0 0 0 0 0 0 0 0 0 0 0 0 0 0 0 0 0 0 0 0 0 0 0 0 0 0 0 0 0 0 0 0 0 0 0 0 0 0 0 0 0 0 0 0 0 0 0 0 0 0 0 0 0 0 0 0 0 0 0 0 0 0 0 0 0 0 0 0 0 0 0 0 0 0 0 0 0 0 0 0 0 0 0 0 0 0 0 0 0 0 0 0 0 0 0 0 0 0 0 0 0 0 0 0 0 0 0 0 0 0 0 0 0 0 0 0 0 0 0 0 0 0 0 0 0 0 0 0 0 0 0 0 0 0 0 0 0 0 0 0 0 0 0 0 0 0 0 0 0 0 0 0 0 0 0 0 0 0 0 0 0 0 0 0 0 0 0 0 0 0 0 0 0 0 0 0 0 0 0 0 0 0 0 0 0 0 0 0 0 0 0 0 0 0 0 0 0 0 0 0 0 0 0 0 0 0 0 0 0 0 0 0 0 0 0 0 0 0 0 0 0 0 0 0 0 0 0 0 0 0 0 0 0 0 0 0 0 0 0 0 0 0 0 0 0 0 0 0 0 0 0 0 0 0 0 0 0 0 0 0 0 0 0 0 0 0 0 0 0 0 0 0 0 0 0 0 0 0 0 0 0 0 0 0 0 0 0 0 0 0 0 0 0 0 0 0 0 0 0 0 0 0 0 0 0 0 0 0 0 0 0 0 0 0 0 0 0 0 0 0 0 0 0 0 0 0 0 0 0 0 0 0 0 0 0 0 0 0 0 0 0 0 0 0 0 0 0 0 0 0 0 0 0 0 0 0 0 0 0 0 0 0 0 0 0 0 0 0 0 0 0 0 0 0 0 0 0 0 0 0 0 0 0 0 0 0 0 0 0 0 0 0 0 0 0 0 0 0 0 0 0 0 0 0 0 0 0 0 0 0 0 0 0 0 0 0 0 0 0 0 0 0 0 0 0 0 0 0 0 0 0 0 0 0 0 0 0 0 
BTB PER SET COUNT: 0 0 0 0 0 0 0 0 0 0 0 0 0 0 0 0 0 0 0 0 0 0 0 0 0 0 0 0 0 0 0 0 0 0 0 0 0 0 0 0 0 0 0 0 0 0 0 0 0 0 0 0 0 0 0 0 0 0 0 0 0 0 0 0 0 0 0 0 0 0 0 0 0 0 0 0 0 0 0 0 0 0 0 0 0 0 0 0 0 0 0 0 0 0 0 0 0 0 0 0 0 0 0 0 0 0 0 0 0 0 0 0 0 0 0 0 0 0 0 0 0 0 0 0 0 0 0 0 0 0 0 0 0 0 0 0 0 0 0 0 0 0 0 0 0 0 0 0 0 0 0 0 0 0 0 0 0 0 0 0 0 0 0 0 0 0 0 0 0 0 0 0 0 0 0 0 0 0 0 0 0 0 0 0 0 0 0 0 0 0 0 0 0 0 0 0 0 0 0 0 0 0 0 0 0 0 0 0 0 0 0 0 0 0 0 0 0 0 0 0 0 0 0 0 0 0 0 0 0 0 0 0 0 0 0 0 0 0 0 0 0 0 0 0 0 0 0 0 0 0 0 0 0 0 0 0 0 0 0 0 0 0 0 0 0 0 0 0 0 0 0 0 0 0 0 0 0 0 0 0 0 0 0 0 0 0 0 0 0 0 0 0 0 0 0 0 0 0 0 0 0 0 0 0 0 0 0 0 0 0 0 0 0 0 0 0 0 0 0 0 0 0 0 0 0 0 0 0 0 0 0 0 0 0 0 0 0 0 0 0 0 0 0 0 0 0 0 0 0 0 0 0 0 0 0 0 0 0 0 0 0 0 0 0 0 0 0 0 0 0 0 0 0 0 0 0 0 0 0 0 0 0 0 0 0 0 0 0 0 0 0 0 0 0 0 0 0 0 0 0 0 0 0 0 0 0 0 0 0 0 0 0 0 0 0 0 0 0 0 0 0 0 0 0 0 0 0 0 0 0 0 0 0 0 0 0 0 0 0 0 0 0 0 0 0 0 0 0 0 0 0 0 0 0 0 0 0 0 0 0 0 0 0 0 0 0 0 0 0 0 0 0 0 0 0 0 0 0 0 0 0 0 0 0 0 0 0 0 0 0 0 0 0 0 0 0 0 0 0 0 0 0 0 0 0 0 0 0 0 0 0 0 0 0 0 0 0 0 0 0 0 0 0 0 0 0 0 0 0 0 0 0 0 0 0 0 0 0 0 0 0 0 0 0 0 0 0 0 0 0 0 0 0 0 0 0 0 0 0 0 0 0 0 0 0 0 0 0 0 0 0 0 0 0 0 0 0 0 0 0 0 0 0 0 0 0 0 0 0 0 0 0 0 0 0 0 0 0 0 0 0 0 0 0 0 0 0 0 0 0 0 0 0 0 0 0 0 0 0 0 0 0 0 0 0 0 0 0 0 0 0 0 0 0 0 0 0 0 0 0 0 0 0 0 0 0 0 0 0 0 0 0 0 0 0 0 0 0 0 0 0 0 0 0 0 0 0 0 0 0 0 0 0 0 0 0 0 0 0 0 0 0 0 0 0 0 0 0 0 0 0 0 0 0 0 0 0 0 0 0 0 0 0 0 0 0 0 0 0 0 0 0 0 0 0 0 0 0 0 0 0 0 0 0 0 0 0 0 0 0 0 0 0 0 0 0 0 0 0 0 0 0 0 0 0 0 0 0 0 0 0 0 0 0 0 0 0 0 0 0 0 0 0 0 0 0 0 0 0 0 0 0 0 0 0 0 0 0 0 0 0 0 0 0 0 0 0 0 0 0 0 0 0 0 0 0 0 0 0 0 0 0 0 0 0 0 0 0 0 0 0 0 0 0 0 0 0 0 0 0 0 0 0 0 0 0 0 0 0 0 0 0 0 0 0 0 0 0 0 0 0 0 0 0 0 0 0 0 0 0 0 0 0 0 0 0 0 0 0 0 0 0 0 0 0 0 0 0 0 0 0 0 0 0 0 0 0 0 0 0 0 0 0 0 0 0 0 0 0 0 0 0 0 0 0 0 0 0 0 0 0 0 0 0 0 0 0 0 0 0 0 0 0 0 0 0 0 0 0 0 0 0 0 0 0 0 0 0 0 0 0 0 0 0 0 0 0 0 0 0 0 0 0 0 0 0 0 0 0 0 0 0 0 0 0 0 0 0 0 0 0 0 0 0 0 0 0 0 0 0 0 0 0 0 0 0 0 0 0 0 0 0 0 0 0 0 0 0 0 0 0 0 0 0 0 0 0 0 0 0 0 0 0 0 0 0 0 0 0 0 0 0 0 0 0 0 0 0 0 0 0 0 0 0 0 0 0 0 0 0 0 0 0 0 0 0 0 0 0 0 0 0 0 0 0 0 0 0 0 0 0 0 0 0 0 0 0 0 0 0 0 0 0 0 0 0 0 0 0 0 0 0 0 0 0 0 0 0 0 0 0 0 0 0 0 0 0 0 0 0 0 0 0 0 0 0 0 0 0 0 0 0 0 0 0 0 0 0 0 0 0 0 0 0 0 0 0 0 0 0 0 0 0 0 0 0 0 0 0 0 0 0 0 0 0 0 0 0 0 0 0 0 0 0 0 0 0 0 0 0 0 0 0 0 0 0 0 0 0 0 0 0 0 0 0 0 0 0 0 0 0 0 0 0 0 0 0 0 0 0 0 0 0 0 0 0 0 0 0 0 0 0 0 0 0 0 0 0 0 0 0 0 0 0 0 0 0 0 0 0 0 0 0 0 0 0 0 0 0 0 0 0 0 0 0 0 0 0 0 0 0 0 0 0 0 0 0 0 0 0 0 0 0 0 0 0 0 0 0 0 0 0 0 0 0 0 0 0 0 0 0 0 0 0 0 0 0 0 0 0 0 0 0 0 0 0 0 0 0 0 0 0 0 0 0 0 0 0 0 0 0 0 0 0 0 0 0 0 0 0 0 0 0 0 0 0 0 0 0 0 0 0 0 0 0 0 0 0 0 0 0 0 0 0 0 0 0 0 0 0 0 0 0 0 0 0 0 0 0 0 0 0 0 0 0 0 0 0 0 0 0 0 0 0 0 0 0 0 0 0 0 0 0 0 0 0 0 0 0 0 0 0 0 0 0 0 0 0 0 0 0 0 0 0 0 0 0 0 0 0 0 0 0 0 0 0 0 0 0 0 0 0 0 0 0 0 0 0 0 0 0 0 0 0 0 0 0 0 0 0 0 0 0 0 0 0 0 0 0 0 0 0 0 0 0 0 0 0 0 0 0 0 0 0 0 0 0 0 0 0 0 0 0 0 0 0 0 0 0 0 0 0 0 0 0 0 0 0 0 0 0 0 0 0 0 0 0 0 0 0 0 0 0 0 0 0 0 0 0 0 0 0 0 0 0 0 0 0 0 0 0 0 0 0 0 0 0 0 0 0 0 0 0 0 0 0 0 0 0 0 0 0 0 0 0 0 0 0 0 0 0 0 0 0 0 0 0 0 0 0 0 0 0 0 0 0 0 0 0 0 0 0 0 0 0 0 0 0 0 0 0 0 0 0 0 0 0 0 0 0 0 0 0 0 0 0 0 0 0 0 0 0 0 0 0 0 0 0 0 0 0 0 0 0 0 0 0 0 0 0 0 0 0 0 0 0 0 0 0 0 0 0 0 0 0 0 0 0 0 0 0 0 0 0 0 0 0 0 0 0 0 0 0 0 0 0 0 0 0 0 0 0 0 0 0 0 0 0 0 0 0 0 0 0 0 0 0 0 0 0 0 0 0 0 0 0 0 0 0 0 0 0 0 0 0 0 0 0 0 0 0 0 0 0 0 0 0 0 0 0 0 0 0 0 0 0 0 0 0 0 0 0 0 0 0 0 0 0 0 0 0 0 0 0 0 0 0 0 0 0 0 0 0 0 0 0 0 0 0 0 0 0 0 0 0 0 0 0 0 0 0 0 0 0 0 0 0 0 0 0 0 0 0 0 0 0 0 0 0 0 0 0 0 0 0 0 0 0 0 0 0 0 0 0 0 0 0 0 0 0 0 0 0 0 0 0 0 0 0 0 0 0 0 0 0 0 0 0 0 0 0 0 0 0 0 0 0 0 0 0 0 0 0 0 0 0 0 0 0 0 0 0 0 0 0 0 0 0 0 0 0 0 0 0 0 0 0 0 0 0 0 0 0 0 0 0 0 0 0 0 0 0 0 0 0 0 0 0 0 0 0 0 0 0 0 0 0 0 0 0 0 0 0 0 0 0 0 0 0 0 0 0 0 0 0 0 0 0 0 0 0 0 0 0 0 0 0 0 0 0 0 0 0 0 0 0 0 0 0 0 0 0 0 0 0 0 0 0 0 0 0 0 0 0 0 0 0 0 0 0 0 0 0 0 0 0 0 0 0 0 0 0 0 0 0 0 0 0 0 0 0 0 0 0 0 0 0 0 0 0 0 0 0 0 0 0 0 0 0 0 0 0 0 0 0 0 0 0 0 0 0 0 0 0 0 0 0 0 0 0 0 0 0 0 0 0 0 0 0 0 0 0 0 0 0 0 0 0 0 0 0 0 0 0 0 0 0 0 0 0 0 0 0 0 0 0 0 0 0 0 0 0 0 0 0 0 0 0 0 0 0 0 0 0 0 0 0 0 
