
*** ChampSim Multicore Out-of-Order Simulator ***

Warmup Instructions: 50000000
Simulation Instructions: 50000000
Number of CPUs: 1
LLC sets: 2048
LLC ways: 16
Off-chip DRAM Size: 4096 MB Channels: 1 Width: 64-bit Data Rate: 6400 MT/s
CPU 0 runs ./micro_traces/srv290.trace.gz
.gz
ITLB has LRU replacement policy
DTLB has LRU replacement policy
STLB has LRU replacement policy
FDIP Prefetcher at L1I
L1I has LRU replacement policy
L1D has LRU replacement policy
Initialize SRRIP state for L2C
Initialize DRRIP state for LLC
Heartbeat CPU 0 instructions: 10000001 cycles: 2797586 heartbeat IPC: 3.57451 cumulative IPC: 3.57451 (Simulation time: 0 hr 1 min 39 sec) 
Heartbeat CPU 0 instructions: 20000002 cycles: 5594591 heartbeat IPC: 3.57525 cumulative IPC: 3.57488 (Simulation time: 0 hr 3 min 17 sec) 
Heartbeat CPU 0 instructions: 30000002 cycles: 8390870 heartbeat IPC: 3.57618 cumulative IPC: 3.57531 (Simulation time: 0 hr 4 min 52 sec) 
Heartbeat CPU 0 instructions: 40000003 cycles: 11188764 heartbeat IPC: 3.57412 cumulative IPC: 3.57502 (Simulation time: 0 hr 6 min 28 sec) 
Heartbeat CPU 0 instructions: 50000003 cycles: 13985942 heartbeat IPC: 3.57503 cumulative IPC: 3.57502 (Simulation time: 0 hr 8 min 5 sec) 

Warmup complete CPU 0 instructions: 50000003 cycles: 13985942 (Simulation time: 0 hr 8 min 5 sec) 

Cycle: 20000000 FTQ IN: 56275894 FTQ occupancy: 17.6247 DECODE IN: 56275880 DECODE occupancy: 44.9822 ROB IN: 56275880 ROB occupancy: 270.823 ROB OUT: 56275798
Heartbeat CPU 0 instructions: 60000000 cycles: 23546199 heartbeat IPC: 1.046 cumulative IPC: 1.046 (Simulation time: 0 hr 9 min 21 sec) 
Cycle: 30000000 FTQ IN: 10512627 FTQ occupancy: 5.1394 DECODE IN: 10512624 DECODE occupancy: 9.97026 ROB IN: 10512624 ROB occupancy: 90.608 ROB OUT: 10512673
Heartbeat CPU 0 instructions: 70000001 cycles: 33075753 heartbeat IPC: 1.04937 cumulative IPC: 1.04768 (Simulation time: 0 hr 10 min 37 sec) 
Cycle: 40000000 FTQ IN: 10268845 FTQ occupancy: 5.33972 DECODE IN: 10268828 DECODE occupancy: 10.2774 ROB IN: 10268826 ROB occupancy: 92.2994 ROB OUT: 10268810
Heartbeat CPU 0 instructions: 80000001 cycles: 42804703 heartbeat IPC: 1.02786 cumulative IPC: 1.04099 (Simulation time: 0 hr 11 min 54 sec) 
Cycle: 50000000 FTQ IN: 10496841 FTQ occupancy: 5.21275 DECODE IN: 10496823 DECODE occupancy: 10.12 ROB IN: 10496825 ROB occupancy: 91.2474 ROB OUT: 10496764
Heartbeat CPU 0 instructions: 90000000 cycles: 52334992 heartbeat IPC: 1.04929 cumulative IPC: 1.04305 (Simulation time: 0 hr 13 min 11 sec) 
Cycle: 60000000 FTQ IN: 10392901 FTQ occupancy: 5.41198 DECODE IN: 10392914 DECODE occupancy: 10.4548 ROB IN: 10392854 ROB occupancy: 93.0237 ROB OUT: 10392615
Heartbeat CPU 0 instructions: 100000002 cycles: 61953785 heartbeat IPC: 1.03963 cumulative IPC: 1.04236 (Simulation time: 0 hr 14 min 27 sec) 
Finished CPU 0 instructions: 50000003 cycles: 47967844 cumulative IPC: 1.04237 (Simulation time: 0 hr 14 min 27 sec) 

ChampSim completed all CPUs

Region of Interest Statistics

CPU 0 cumulative IPC: 1.04237 instructions: 50000003 cycles: 47967844
 Fetch stage stalled: 74.4945  Sim cycles: 47967844 fetch stall cycle: 35733418
 Empty decode stage: 81.016  Sim cycles: 47967844 fetch stall cycle: 38861611
ITLB TOTAL     ACCESS:    6044275  HIT:    5546238  MISS:     498037  HIT %:    91.7602  MISS %:    8.23981   MPKI: 9.96074
ITLB LOAD TRANSLATION INSTRUCTION	ACCESS:    5964560  HIT:    5466523  MISS:     498037  HIT %:    91.6501  MISS %:    8.34994  MPKI: 9.96074
ITLB TRANSLATION FROM L1D PREFETCHER INSTRUCTION	ACCESS:      79715  HIT:      79715  MISS:          0  HIT %:        100  MISS %:          0  MPKI: 0

ITLB AVERAGE MISS LATENCY: 9.07416 cycles
ITLB RQ	ACCESS:    7681953	FORWARD:          0	MERGED:    1366731	TO_CACHE:    6315222

DTLB TOTAL     ACCESS:    9630539  HIT:    9151820  MISS:     478719  HIT %:    95.0292  MISS %:    4.97084   MPKI: 9.57438
DTLB LOAD TRANSLATION DATA	ACCESS:    9630539  HIT:    9151820  MISS:     478719  HIT %:    95.0292  MISS %:    4.97084  MPKI: 9.57438

DTLB AVERAGE MISS LATENCY: 9.34038 cycles
DTLB RQ	ACCESS:   13880784	FORWARD:          0	MERGED:    4217893	TO_CACHE:    9662891

STLB TOTAL     ACCESS:    1220401  HIT:    1217922  MISS:       2479  HIT %:    99.7969  MISS %:    0.20313   MPKI: 0.04958
STLB LOAD TRANSLATION INSTRUCTION	ACCESS:     498037  HIT:     497540  MISS:        497  HIT %:    99.9002  MISS %:  0.0997918  MPKI: 0.00994
STLB LOAD TRANSLATION DATA	ACCESS:     478494  HIT:     476533  MISS:       1961  HIT %:    99.5902  MISS %:   0.409828  MPKI: 0.03922
STLB TRANSLATION FROM L1D PREFETCHER DATA	ACCESS:     243870  HIT:     243849  MISS:         21  HIT %:    99.9914  MISS %: 0.00861115  MPKI: 0.00042

STLB AVERAGE MISS LATENCY: 69.8495 cycles
STLB RQ	ACCESS:    1339721	FORWARD:          0	MERGED:     119281	TO_CACHE:    1220440

STLB Hit, L1D data hit: 0
STLB Hit, L2C data hit: 0
STLB Hit, LLC data hit: 0
STLB Hit, LLC data miss: 0
STLB STLB hints to L2: 0
L1D TOTAL     ACCESS:   13640295  HIT:   12521823  MISS:    1118472  HIT %:    91.8002  MISS %:    8.19976   MPKI: 22.3694
L1D LOAD DATA	ACCESS:    7048262  HIT:    6310203  MISS:     738059  HIT %:    89.5285  MISS %:    10.4715  MPKI: 14.7612
L1D RFO DATA	ACCESS:    6265949  HIT:    5979106  MISS:     286843  HIT %:    95.4222  MISS %:    4.57781  MPKI: 5.73686
L1D PREFETCH DATA	ACCESS:     326084  HIT:     232514  MISS:      93570  HIT %:    71.3049  MISS %:    28.6951  MPKI: 1.8714

L1D PREFETCH  REQUESTED:     726171  ISSUED:     726171  USEFUL:      32698  USELESS:      67781
L1D USEFUL LOAD PREFETCHES:      32698 PREFETCH ISSUED TO LOWER LEVEL:     100521  ACCURACY: 32.5285
 TIMELY PREFETCHES:      32698 LATE PREFETCHES: 6922 DROPPED PREFETCHES: 8
L1D AVERAGE MISS LATENCY: 241135 cycles
L1D RQ	ACCESS:   11057267	FORWARD:          0	MERGED:    3807961	TO_CACHE:    7083700
L1D WQ	ACCESS:    6958667	FORWARD:     165847	MERGED:     161583	TO_CACHE:    6797084
L1D PQ	ACCESS:     363206	FORWARD:          0	MERGED:          0	TO_CACHE:     362965

L1D UNIQUE REGIONS ACCESSED: 0
L1D REGIONS CONFLICTS: 0
L1D Cross Page Prefetch Requests: 5755
L1D Same Page Prefetch Requests: 739914
L1D ROI Sum of L1D PQ occupancy: 4623610
L1D PREFETCHES PUSHED FROM L2C: 0
L1I TOTAL     ACCESS:    7148632  HIT:    4366600  MISS:    2782032  HIT %:     61.083  MISS %:     38.917   MPKI: 55.6406
L1I LOAD INSTRUCTION	ACCESS:    6786726  HIT:    4004694  MISS:    2782032  HIT %:    59.0077  MISS %:    40.9923  MPKI: 55.6406
L1I PREFETCH INSTRUCTION	ACCESS:     361906  HIT:     361906  MISS:          0  HIT %:        100  MISS %:          0  MPKI: 0

L1I PREFETCH  REQUESTED:     894645  ISSUED:     894645  USEFUL:          0  USELESS:          0
L1I USEFUL LOAD PREFETCHES:          0 PREFETCH ISSUED TO LOWER LEVEL:          0  ACCURACY: -nan
 TIMELY PREFETCHES:          0 LATE PREFETCHES: 0 DROPPED PREFETCHES: 0
L1I AVERAGE MISS LATENCY: 17.0787 cycles
L1I RQ	ACCESS:    9426334	FORWARD:          0	MERGED:    2383293	TO_CACHE:    7043041
L1I PQ	ACCESS:     894645	FORWARD:          0	MERGED:     255733	TO_CACHE:     638912

L1BTB TOTAL     ACCESS:    5670075  HIT:    2024278  MISS:    3645797  HIT %:    35.7011  MISS %:    64.2989   MPKI: 72.9159
L1BTB BRANCH_DIRECT_JUMP	ACCESS:     548469 HIT:     143257 MISS:     405212 AVERAGE STALL: 31.3215 AVERAGE FETCH STALL: 17.2867 AVERAGE FETCH QUEUE STALL: 5.86075 AVERAGE DECODE STALL: 7.30138 AVERAGE EXECUTE STALL: 1.09959e+15
L1BTB BRANCH_INDIRECT	ACCESS:     182714 HIT:      65675 MISS:     117039 AVERAGE STALL: 56.8394 AVERAGE FETCH STALL: 12.0777 AVERAGE FETCH QUEUE STALL: 3.83476 AVERAGE DECODE STALL: 6.01173 AVERAGE EXECUTE STALL: 33.9508
L1BTB BRANCH_CONDITIONAL	ACCESS:    2698451 HIT:    1399837 MISS:    1298614 AVERAGE STALL: 34.707 AVERAGE FETCH STALL: 22.3667 AVERAGE FETCH QUEUE STALL: 5.64785 AVERAGE DECODE STALL: 5.9172 AVERAGE EXECUTE STALL: 6.4445e+14
L1BTB BRANCH_DIRECT_CALL	ACCESS:     948221 HIT:     104983 MISS:     843238 AVERAGE STALL: 33.5398 AVERAGE FETCH STALL: 20.6699 AVERAGE FETCH QUEUE STALL: 6.33886 AVERAGE DECODE STALL: 5.75624 AVERAGE EXECUTE STALL: 8.81523e+14
L1BTB BRANCH_INDIRECT_CALL	ACCESS:     171998 HIT:      20921 MISS:     151077 AVERAGE STALL: 73.8345 AVERAGE FETCH STALL: 13.374 AVERAGE FETCH QUEUE STALL: 2.84342 AVERAGE DECODE STALL: 5.45762 AVERAGE EXECUTE STALL: 51.6568
L1BTB BRANCH_RETURN	ACCESS:    1120222 HIT:     289605 MISS:     830617 AVERAGE STALL: 34.277 AVERAGE FETCH STALL: 16.7906 AVERAGE FETCH QUEUE STALL: 2.3165 AVERAGE DECODE STALL: 4.91399 AVERAGE EXECUTE STALL: 3.60753e+14
L1BTB BRANCH_OTHER ACCESS:          0 HIT:          0 MISS:          0 AVERAGE STALL: -nan AVERAGE FETCH STALL: -nan AVERAGE FETCH QUEUE STALL: -nan AVERAGE DECODE STALL: -nan AVERAGE EXECUTE STALL: -nan
L1BTB TOTAL ROB OCCUPANCY AT BTB MISS: 2.12162

L2BTB TOTAL     ACCESS:    3620449  HIT:    3493750  MISS:     126699  HIT %:    96.5005  MISS %:    3.49954   MPKI: 2.53398
L2BTB BRANCH_DIRECT_JUMP	ACCESS:     401111 HIT:     388401 MISS:      12710 AVERAGE STALL: 31.3215 AVERAGE FETCH STALL: 17.2867 AVERAGE FETCH QUEUE STALL: 5.86075 AVERAGE DECODE STALL: 7.30138 AVERAGE EXECUTE STALL: 1.09959e+15
L2BTB BRANCH_INDIRECT	ACCESS:     106688 HIT:     103562 MISS:       3126 AVERAGE STALL: 56.8394 AVERAGE FETCH STALL: 12.0777 AVERAGE FETCH QUEUE STALL: 3.83476 AVERAGE DECODE STALL: 6.01173 AVERAGE EXECUTE STALL: 33.9508
L2BTB BRANCH_CONDITIONAL	ACCESS:    1298614 HIT:    1269578 MISS:      29036 AVERAGE STALL: 34.707 AVERAGE FETCH STALL: 22.3667 AVERAGE FETCH QUEUE STALL: 5.64785 AVERAGE DECODE STALL: 5.9172 AVERAGE EXECUTE STALL: 6.4445e+14
L2BTB BRANCH_DIRECT_CALL	ACCESS:     843238 HIT:     822265 MISS:      20973 AVERAGE STALL: 33.5398 AVERAGE FETCH STALL: 20.6699 AVERAGE FETCH QUEUE STALL: 6.33886 AVERAGE DECODE STALL: 5.75624 AVERAGE EXECUTE STALL: 8.81523e+14
L2BTB BRANCH_INDIRECT_CALL	ACCESS:     141597 HIT:     130501 MISS:      11096 AVERAGE STALL: 73.8345 AVERAGE FETCH STALL: 13.374 AVERAGE FETCH QUEUE STALL: 2.84342 AVERAGE DECODE STALL: 5.45762 AVERAGE EXECUTE STALL: 51.6568
L2BTB BRANCH_RETURN	ACCESS:     829201 HIT:     779443 MISS:      49758 AVERAGE STALL: 34.277 AVERAGE FETCH STALL: 16.7906 AVERAGE FETCH QUEUE STALL: 2.3165 AVERAGE DECODE STALL: 4.91399 AVERAGE EXECUTE STALL: 3.60753e+14
L2BTB BRANCH_OTHER ACCESS:          0 HIT:          0 MISS:          0 AVERAGE STALL: -nan AVERAGE FETCH STALL: -nan AVERAGE FETCH QUEUE STALL: -nan AVERAGE DECODE STALL: -nan AVERAGE EXECUTE STALL: -nan
L2BTB TOTAL ROB OCCUPANCY AT BTB MISS: 61.0501

L2C TOTAL     ACCESS:    4516522  HIT:    4023684  MISS:     492838  HIT %:    89.0881  MISS %:    10.9119   MPKI: 9.85676
L2C LOAD INSTRUCTION	ACCESS:    2782032  HIT:    2519378  MISS:     262654  HIT %:    90.5589  MISS %:    9.44108  MPKI: 5.25308
L2C LOAD TRANSLATION INSTRUCTION	ACCESS:        538  HIT:        172  MISS:        366  HIT %:    31.9703  MISS %:    68.0297  MPKI: 0.00732
L2C LOAD DATA	ACCESS:     731118  HIT:     651355  MISS:      79763  HIT %:    89.0903  MISS %:    10.9097  MPKI: 1.59526
L2C RFO DATA	ACCESS:     286798  HIT:     228256  MISS:      58542  HIT %:    79.5877  MISS %:    20.4123  MPKI: 1.17084
L2C PREFETCH DATA	ACCESS:     188618  HIT:     112971  MISS:      75647  HIT %:    59.8941  MISS %:    40.1059  MPKI: 1.51294
L2C WRITEBACK DATA	ACCESS:     525311  HIT:     510929  MISS:      14382  HIT %:    97.2622  MISS %:    2.73781  MPKI: 0.28764
L2C LOAD TRANSLATION DATA	ACCESS:       2067  HIT:        594  MISS:       1473  HIT %:    28.7373  MISS %:    71.2627  MPKI: 0.02946
L2C TRANSLATION FROM L1D PREFETCHER DATA	ACCESS:         40  HIT:         29  MISS:         11  HIT %:       72.5  MISS %:       27.5  MPKI: 0.00022

L2C PREFETCH  REQUESTED:      96291  ISSUED:      96291  USEFUL:       9199  USELESS:      66799
L2C USEFUL LOAD PREFETCHES:       9199 PREFETCH ISSUED TO LOWER LEVEL:      76135  ACCURACY: 12.0825
 TIMELY PREFETCHES:       9199 LATE PREFETCHES: 488 DROPPED PREFETCHES: 0
L2C AVERAGE MISS LATENCY: 38.4775 cycles
L2C RQ	ACCESS:    3802628	FORWARD:          0	MERGED:          0	TO_CACHE:    3802593
L2C WQ	ACCESS:     525311	FORWARD:         35	MERGED:          0	TO_CACHE:     525311
L2C PQ	ACCESS:     196812	FORWARD:          0	MERGED:       3454	TO_CACHE:     193358

L2C Dense regions hint from L2: 0
PSCL5 TOTAL     ACCESS:       4974  HIT:       2487  MISS:       2487  HIT %:         50  MISS %:         50   MPKI: 0.04974
PSCL5 LOAD TRANSLATION INSTRUCTION	ACCESS:       4894  HIT:       2447  MISS:       2447  HIT %:         50  MISS %:         50  MPKI: 0.04894
PSCL5 TRANSLATION FROM L1D PREFETCHER INSTRUCTION	ACCESS:         80  HIT:         40  MISS:         40  HIT %:         50  MISS %:         50  MPKI: 0.0008


PSCL4 TOTAL     ACCESS:       3966  HIT:       1979  MISS:       1987  HIT %:    49.8991  MISS %:    50.1009   MPKI: 0.03974
PSCL4 LOAD TRANSLATION INSTRUCTION	ACCESS:       2162  HIT:       1944  MISS:        218  HIT %:    89.9167  MISS %:    10.0833  MPKI: 0.00436
PSCL4 TRANSLATION FROM L1D PREFETCHER INSTRUCTION	ACCESS:         35  HIT:         35  MISS:          0  HIT %:        100  MISS %:          0  MPKI: 0
PSCL4 LOAD TRANSLATION DATA	ACCESS:       1734  HIT:          0  MISS:       1734  HIT %:          0  MISS %:        100  MPKI: 0.03468
PSCL4 TRANSLATION FROM L1D PREFETCHER DATA	ACCESS:         35  HIT:          0  MISS:         35  HIT %:          0  MISS %:        100  MPKI: 0.0007


PSCL3 TOTAL     ACCESS:       4711  HIT:       2347  MISS:       2364  HIT %:    49.8196  MISS %:    50.1804   MPKI: 0.04728
PSCL3 LOAD TRANSLATION INSTRUCTION	ACCESS:       2607  HIT:       2316  MISS:        291  HIT %:    88.8377  MISS %:    11.1623  MPKI: 0.00582
PSCL3 TRANSLATION FROM L1D PREFETCHER INSTRUCTION	ACCESS:         31  HIT:         31  MISS:          0  HIT %:        100  MISS %:          0  MPKI: 0
PSCL3 LOAD TRANSLATION DATA	ACCESS:       2042  HIT:          0  MISS:       2042  HIT %:          0  MISS %:        100  MPKI: 0.04084
PSCL3 TRANSLATION FROM L1D PREFETCHER DATA	ACCESS:         31  HIT:          0  MISS:         31  HIT %:          0  MISS %:        100  MPKI: 0.00062


PSCL2 TOTAL     ACCESS:       4838  HIT:       2351  MISS:       2487  HIT %:    48.5945  MISS %:    51.4055   MPKI: 0.04974
PSCL2 LOAD TRANSLATION INSTRUCTION	ACCESS:       2813  HIT:       2311  MISS:        502  HIT %:    82.1543  MISS %:    17.8457  MPKI: 0.01004
PSCL2 TRANSLATION FROM L1D PREFETCHER INSTRUCTION	ACCESS:         40  HIT:         40  MISS:          0  HIT %:        100  MISS %:          0  MPKI: 0
PSCL2 LOAD TRANSLATION DATA	ACCESS:       1945  HIT:          0  MISS:       1945  HIT %:          0  MISS %:        100  MPKI: 0.0389
PSCL2 TRANSLATION FROM L1D PREFETCHER DATA	ACCESS:         40  HIT:          0  MISS:         40  HIT %:          0  MISS %:        100  MPKI: 0.0008


LLC TOTAL     ACCESS:     561063  HIT:     532014  MISS:      29049  HIT %:    94.8225  MISS %:    5.17749   MPKI: 0.58098
LLC LOAD INSTRUCTION	ACCESS:     262654  HIT:     261613  MISS:       1041  HIT %:    99.6037  MISS %:   0.396339  MPKI: 0.02082
LLC LOAD TRANSLATION INSTRUCTION	ACCESS:        366  HIT:        327  MISS:         39  HIT %:    89.3443  MISS %:    10.6557  MPKI: 0.00078
LLC LOAD DATA	ACCESS:      79287  HIT:      75577  MISS:       3710  HIT %:    95.3208  MISS %:     4.6792  MPKI: 0.0742
LLC RFO DATA	ACCESS:      58527  HIT:      45284  MISS:      13243  HIT %:    77.3728  MISS %:    22.6272  MPKI: 0.26486
LLC PREFETCH DATA	ACCESS:      76135  HIT:      65515  MISS:      10620  HIT %:    86.0511  MISS %:    13.9489  MPKI: 0.2124
LLC WRITEBACK DATA	ACCESS:      82610  HIT:      82312  MISS:        298  HIT %:    99.6393  MISS %:   0.360731  MPKI: 0.00596
LLC LOAD TRANSLATION DATA	ACCESS:       1473  HIT:       1375  MISS:         98  HIT %:    93.3469  MISS %:    6.65309  MPKI: 0.00196
LLC TRANSLATION FROM L1D PREFETCHER DATA	ACCESS:         11  HIT:         11  MISS:          0  HIT %:        100  MISS %:          0  MPKI: 0

LLC AVERAGE MISS LATENCY: 157.477 cycles
LLC RQ	ACCESS:     402321	FORWARD:          0	MERGED:          0	TO_CACHE:     402318
LLC WQ	ACCESS:      82610	FORWARD:          3	MERGED:          0	TO_CACHE:      82610
LLC PQ	ACCESS:      76135	FORWARD:          0	MERGED:          0	TO_CACHE:      76135

LLC Dense regions hint to LLC: 0

RAW hits: 1578879
Loads Generated: 12636146
Loads sent to L1D: 11057267
Stores Generated: 6958655
Stores sent to L1D: 6958667
Major fault: 0 Minor fault: 2667
Allocated PAGES: 2667

stream: 
stream:times selected: 1173770
stream:pref_filled: 120754
stream:pref_useful: 23771
stream:pref_late: 6484
stream:misses: 6665
stream:misses_by_poll: 0

CS: 
CS:times selected: 178542
CS:pref_filled: 61015
CS:pref_useful: 37408
CS:pref_late: 6314
CS:misses: 14851
CS:misses_by_poll: 1

CPLX: 
CPLX:times selected: 994079
CPLX:pref_filled: 19692
CPLX:pref_useful: 4191
CPLX:pref_late: 2842
CPLX:misses: 90363
CPLX:misses_by_poll: 2

NL_L1: 
NL:times selected: 18632
NL:pref_filled: 499
NL:pref_useful: 237
NL:pref_late: 183
NL:misses: 984
NL:misses_by_poll: 0

total selections: 2365023
total_filled: 93570
total_useful: 32698
total_late: 17032
total_polluted: 3
total_misses_after_warmup: 773498
conflicts: 5767133

test: 110569

DRAM Statistics
 CHANNEL 0
 RQ ROW_BUFFER_HIT:      10438  ROW_BUFFER_MISS:      18304
 DBUS_CONGESTED:          7
 WQ ROW_BUFFER_HIT:       1474  ROW_BUFFER_MISS:      12266  FULL:          0

 AVG_CONGESTED_CYCLE: 5

CPU 0 Branch Prediction Accuracy: 99.8093% MPKI: 0.34888 Average ROB Occupancy at Mispredict: 95.3629
Branch types
NOT_BRANCH: 40850814 81.7016%
BRANCH_DIRECT_JUMP: 548469 1.09694%
BRANCH_INDIRECT: 182714 0.365428%
BRANCH_CONDITIONAL: 6177315 12.3546%
BRANCH_DIRECT_CALL: 948221 1.89644%
BRANCH_INDIRECT_CALL: 171998 0.343996%
BRANCH_RETURN: 1120222 2.24044%
BRANCH_OTHER: 0 0%

DRAM PAGES: 1048576
Allocated PAGES: 2667
Average_ROB_Occupancy: 92.4918
Average_Decode_Occupancy: 10.1666
Average_FTQ_Occupancy: 5.25298
Indirect max targets: 14 Average targets: 1.17834
Branch_type:  BRANCH_DIRECT_JUMP:  Count Percentage: 1.92743 7.52514 3.55414 8.4664 2.23318 5.97311 0.939159 69.3814 
Branch_type:  BRANCH_INDIRECT:  Count Percentage: 11.7616 5.57969 2.51023 0 1.34007 9.67705 2.2774 66.854 
Branch_type:  BRANCH_CONDITIONAL:  Count Percentage: 23.5925 4.41044 4.88236 4.94637 1.31042 4.88746 0.514106 55.4563 
Branch_type:  BRANCH_DIRECT_CALL:  Count Percentage: 0.258152 1.52803 0.963511 3.87699 1.90122 2.42371 0.775303 88.2731 
Branch_type:  BRANCH_INDIRECT_CALL:  Count Percentage: 9.5777 2.28637 3.00274 8.70191 0 2.26947 1.28002 72.8818 
Branch_type:  BRANCH_RETURN:  Count Percentage: 7.32409 1.84803 4.72867 5.96051 2.6007 6.50732 1.36192 69.6688 
Branch_type:  BRANCH_DIRECT_JUMP:  Total Count: 21112 82426 38930 92736 24461 65426 10287 759964 
Branch_type:  BRANCH_INDIRECT:  Total Count: 42989 20394 9175 0 4898 35370 8324 244354 
Branch_type:  BRANCH_CONDITIONAL:  Total Count: 2912802 544526 602790 610693 161788 603420 63473 6846801 
Branch_type:  BRANCH_DIRECT_CALL:  Total Count: 4883 28903 18225 73334 35962 45845 14665 1669702 
Branch_type:  BRANCH_INDIRECT_CALL:  Total Count: 32863 7845 10303 29858 0 7787 4392 250072 
Branch_type:  BRANCH_RETURN:  Total Count: 163731 41313 105710 133248 58139 145472 30446 1557454 
Number of unique branch instructions: 10852
Upper 32 bits: 
aaaa
ffff
ffff0000
Unique upper 32 bits: 3
Unique upper 36 bits: 3
Unique upper 40 bits: 5
Unique upper 44 bits: 32
Unique upper 48 bits: 159
Offset_3 4501
Offset_4 260
Offset_5 488
Offset_6 542
Offset_7 645
Offset_8 573
Offset_9 521
Offset_10 426
Offset_11 362
Offset_12 327
Offset_13 237
Offset_14 248
Offset_15 194
Offset_16 234
Offset_17 175
Offset_18 153
Offset_19 268
Offset_20 142
Offset_21 235
Offset_22 417
Offset_23 241
Offset_24 346
Offset_25 117
Offset_47 92
Offset_64 2
decode_dispatch_called: 20801272 43.365
Dispatch_width: 0 10472946 50.3476 21.8333
Dispatch_width: 1 629108 3.02437 1.31152
Dispatch_width: 2 827682 3.979 1.72549
Dispatch_width: 3 588626 2.82976 1.22713
Dispatch_width: 4 1651134 7.93766 3.44217
Dispatch_width: 5 445629 2.14232 0.929016
Dispatch_width: 6 6186147 29.7393 12.8964
Empty_decode_cycles: 27166572 56.635
ROB_full_cycles: 1640700 3.42042
Starvation_cycles_per_kilo_instr: 401.41
Starvation_cycles_per_kilo_instr_3: 380.442
Starvation_cycles_per_kilo_instr_0: 359.988
Branch_type_1  (3,1)  (4,9)  (5,39)  (6,72)  (7,124)  (8,149)  (9,136)  (10,112)  (11,78)  (12,55)  (13,11)  (14,2)  (15,3)  (16,4)  (18,1)  (19,5)  (20,2)  (21,1)  (22,3)  (23,2)  (24,10)  (25,12) 
Branch_type_2  (3,1)  (4,1)  (5,1)  (8,4)  (9,4)  (10,1)  (12,1)  (13,1)  (14,1)  (16,3)  (17,2)  (20,2)  (21,2)  (23,5)  (24,1)  (47,41) 
Branch_type_3  (3,4499)  (4,250)  (5,444)  (6,454)  (7,492)  (8,353)  (9,285)  (10,172)  (11,145)  (12,62)  (13,10)  (64,2) 
Branch_type_4  (6,3)  (7,8)  (8,25)  (9,56)  (10,67)  (11,71)  (12,116)  (13,101)  (14,112)  (15,92)  (16,103)  (17,82)  (18,67)  (19,132)  (20,72)  (21,124)  (22,222)  (23,136)  (24,201)  (25,101) 
Branch_type_5  (8,3)  (9,1)  (10,4)  (11,6)  (12,3)  (13,14)  (14,16)  (15,11)  (16,22)  (17,11)  (18,23)  (19,14)  (20,11)  (21,13)  (22,43)  (23,26)  (24,38) 
Branch_type_6  (5,4)  (6,13)  (7,21)  (8,39)  (9,39)  (10,70)  (11,62)  (12,90)  (13,100)  (14,117)  (15,88)  (16,102)  (17,80)  (18,62)  (19,117)  (20,55)  (21,95)  (22,149)  (23,72)  (24,96)  (25,4)  (47,51) 
aaaaab1fc620: 2ac9e77e 2aca717c 2aca8eff 2acaf6bc 2acaf9aa 2acaf9f1 2acb1abc 2acb1b7f 2acd4e22 2acdb712 2acf5f9e 2ad0ef44 2ad3f15c 2ad414e6 2ad60e42 2ad8609c 2ad99830 2ada35cc 2ada4676 2ada6612 2adf183e 2adf30e5 2adf5602 2adf785c 2ae11572 2aeb2dcf 2aee101b 2aee1ae1 2b156a8c 2b156b61 2b156bea 2b167f35 2b177656 2b17feec 2b1a3e5a 
aaaaab1fc640: 2ac9ec07 2aca656e 2aca801d 2acaea11 2acaee73 2acb13ee 2acb1470 2acd462b 2ad0ef5d 2ad3f3fe 2ad86e9b 2ada1641 2ada4115 2ada6638 2adf30d4 2ae12e57 2aee1033 2b1693ab 2b16948c 2b169491 2b17d915 2b17fa85 2b17fccd 
aaaaab1fcb00: 2acf2d72 2acf3734 2acf604c 2acfa5b7 2ad397b5 2ad3b800 2ae8af7d 2ae8aff0 2ae9aaba 2aea9fc6 2aeaa358 2aee910b 2aee91cf 2aee928e 2aee92e4 2af6fe87 2af70dfe 2b16850c 2b16c4a2 2b1765f4 2b178094 2b17d925 2b17db06 2b17ec8f 
aaaaab1fcb10: 2acf2d95 2acf3758 2acf6052 2acfa5f4 2ad397c3 2ad3b81c 2ae8af88 2ae8affe 2ae9aacf 2aeaa017 2aeaa36d 2aee9114 2aee91d8 2aee934d 2aee9353 2af6fe8c 2af70e22 2b168526 2b16c542 2b176609 2b1780a3 2b17d95d 2b17db44 2b17ecac 
aaaaac68f310: 2ac9ec8c 2ac9fb44 2ac9fbd2 2aca59ab 2acac04c 2acaf6e0 2acaf6ec 2acaf6f9 2acaf700 2acaf708 2acf2d90 2ad3cfbd 2ad3cfc4 2ad3d000 2ad3f35f 2ad4955d 2ad49571 2ad4f3f2 2ad4f400 2ad5f240 2ad5f37c 2ad5f86a 2ad5f86f 2ad5f880 2ad5fc0d 2ad5fc14 2ad5fc21 2ad5fe1b 2ad873bb 2ad873e3 2ad8a6b2 2ad9086e 2ad93096 2ad9bbb2 2ada152c 2ada1554 2ada3332 2ada5522 2adf3130 2adf313c 2adf3a3f 2adf3bd9 2adf5788 2adf7a8d 2ae07f6b 2ae0857a 2ae0857e 2ae08630 2ae08634 2ae08637 2ae08642 2ae0866f 2ae086e4 2ae086ec 2ae08717 2ae0871b 2aee0170 2aee1d38 2aee75f4 2aee7662 2aee85ca 2aee85e4 2aee8eef 2af70b84 2af74e8f 2b17d843 
aaaaac690ef0: 2aca598b 2acb111b 2acb175f 2acb1772 2acbfaf4 2acbfb00 2acf374f 2acf6d43 2acfa5c8 2ad3baf1 2ad3d4ac 2ad3d4b8 2ad3f1cf 2ad486b2 2ad5a59b 2ad5fc64 2ad5fcf9 2ad6121c 2ad906e9 2ad907bf 2ad9bada 2ada16ce 2ada1ad5 2ada43df 2ada64c0 2ada72ee 2adeb71a 2adf3bcb 2adf7a38 2adf7c6a 2adf8872 2adf8880 2adf9959 2adf9abe 2ae07f78 2ae08503 2ae08754 2ae12e80 2aea3bea 2aecb509 2aee00b0 2aee2bdd 2aee5467 2aee5601 2aee8f20 2af703fd 2af7048b 2af74e74 
Unique trigger count: 
1 10339
2 564
3 92
4 32
5 16
6 9
7 9
8 1
9 2
10 3
11 2
12 1
13 2
14 2
16 2
19 2
23 1
24 2
35 1
48 1
66 1
BTB PER SET UNIQUE ADDR: 14 18 9 10 5 15 13 18 17 7 13 8 19 14 10 14 15 12 16 15 11 16 13 16 15 12 7 11 11 14 21 14 15 11 18 18 18 18 14 12 15 13 9 16 18 12 13 16 21 11 14 8 18 9 12 17 16 12 17 12 15 24 12 15 13 21 12 19 19 12 8 8 11 8 9 21 13 20 14 14 13 13 13 11 15 12 13 13 21 15 21 21 17 12 12 14 18 13 13 15 15 14 17 14 14 13 12 15 16 11 18 11 9 18 14 19 7 14 14 9 15 16 11 12 12 11 10 11 22 17 15 9 14 9 16 14 13 12 13 13 18 11 12 10 16 16 11 16 24 11 13 25 13 19 13 15 14 21 14 19 17 16 22 15 20 14 11 11 23 19 15 10 16 15 11 12 14 14 13 13 9 13 15 15 19 19 13 15 9 20 13 13 13 20 9 14 18 10 18 14 10 11 14 11 20 10 6 16 12 5 8 10 13 12 10 15 6 20 16 17 14 6 14 16 16 11 20 11 8 19 19 19 8 10 13 13 19 12 11 8 9 10 12 13 22 22 11 11 12 13 15 17 13 13 19 19 10 12 20 13 8 10 14 9 15 26 11 8 15 11 11 13 15 17 19 16 10 12 8 17 14 12 16 18 21 14 13 11 21 8 13 11 12 17 14 13 10 16 9 10 12 11 10 10 7 10 11 14 20 13 16 8 13 10 12 9 17 20 14 9 14 14 15 15 9 11 12 15 8 8 16 8 11 15 19 11 13 13 16 9 12 15 9 20 15 13 10 15 17 13 9 17 25 13 14 15 17 12 12 12 13 20 14 10 14 14 11 8 9 12 14 12 16 10 15 9 17 15 16 13 14 15 12 15 15 17 13 8 20 13 13 11 17 11 14 15 11 14 11 16 12 10 10 17 11 13 16 11 13 10 15 10 20 16 9 11 14 16 8 11 14 16 13 15 21 19 7 12 13 17 9 8 22 14 17 18 17 12 17 9 19 13 15 9 17 22 12 16 11 11 16 8 8 12 19 12 15 12 12 11 8 14 19 18 13 10 16 10 18 14 6 11 15 14 8 8 19 13 12 11 12 13 7 15 9 18 13 9 12 7 18 8 11 14 8 17 11 14 14 8 20 9 16 7 11 10 9 11 16 12 23 9 
BTB PER SET COUNT: 14 35 13 10 5 16 13 508 25 1479 15 451 56 15 10 17 18 12 16 1494 11 18 14 504 20 12 7 12 1482 16 1842 369 18 11 26 33 2969 2396 16 13 21 15 15 17 3816 14 13 17 5199 12 14 9 3347 10 12 20 17 12 18 111 17 6005 12 15 13 3939 12 36 4861 49 9 8 1485 8 10 5767 498 95 14 16 16 1004 1004 13 498 12 14 13 46 17 3894 561 22 2912 17 18 32 17 19 19 16 16 26 15 1053 14 12 16 19 775 382 12 1481 65 15 2874 13 14 496 1480 16 22 11 14 501 14 10 11 5003 19 500 11 15 12 20 14 496 12 13 14 55 13 14 13 19 22 1460 18 14682 13 14 8791 14 5285 2965 986 14 58 507 31 28 17 7751 981 533 1995 629 12 7761 516 15 976 14740 1137 11 1843 1485 507 1004 981 10 14 16 16 27 22 15 37 9 85 13 13 165 1004 9 1495 1007 1482 240 14 13 11 980 13 1511 767 6 2450 17 6 8 15 13 15 10 643 6 6237 18 20 1005 6 14 18 17 12 824 2043 11 1505 257 4329 8 10 502 14 26 970 11 9 10 543 12 14 1737 5070 12 1001 12 15 1004 17 18 13 79 30 11 13 71 15 13 126 14 1481 1489 9523 1000 9 17 15 12 15 21 83 80 17 490 14 8 68 16 13 199 35 5974 979 13 11 120 8 228 13 2426 1503 18 15 15 92 9 11 12 528 11 14 10 12 15 15 33 14 19 414 15 10 1001 9 17 6247 15 10 14 14 38 15 15 11 12 18 222 8 984 1480 12 18 1021 11 984 14 16 10 13 17 9 1536 982 14 11 19 22 16 10 17 7677 1992 16 973 24 17 12 46 14 92 16 12 15 22 14 9 9 12 15 13 16 18 17 9 18 17 18 14 14 15 13 156 18 19 15 8 2566 16 138 76 22 16 15 18 1483 23 17 18 14 12 12 19 11 971 2958 13 15 2343 21 10 611 21 999 12 122 21 8 1922 14 529 13 15 6842 44 13 15 13 24 130 997 2662 21 29 266 19 13 22 10 453 14 19 11 24 3456 15 1008 11 499 16 8 14 14 38 13 16 12 495 12 965 369 49 23 1029 10 17 10 29 16 488 12 42 504 100 8 20652 13 16 12 12 13 8 496 9 365 272 387 13 8 56 9 12 16 8 28 16 16 1948 8 8024 375 1213 8 11 11 10 13 1506 13 895 13 
