
*** ChampSim Multicore Out-of-Order Simulator ***

Warmup Instructions: 50000000
Simulation Instructions: 50000000
Number of CPUs: 1
LLC sets: 2048
LLC ways: 16
Off-chip DRAM Size: 4096 MB Channels: 1 Width: 64-bit Data Rate: 6400 MT/s
CPU 0 runs ./micro_traces/srv292.trace.gz
.gz
ITLB has LRU replacement policy
DTLB has LRU replacement policy
STLB has LRU replacement policy
FDIP Prefetcher at L1I
L1I has LRU replacement policy
L1D has LRU replacement policy
Initialize SRRIP state for L2C
Initialize DRRIP state for LLC
Heartbeat_Variant_0 : 1095 0.267334 per_variant_size: 0 1095 0 0 0 0 0 0 0 
Heartbeat_Variant_1 : 2616 0.638672 per_variant_size: 0 1113 1503 0 0 0 0 0 0 
Heartbeat_Variant_2 : 0 0 per_variant_size: 0 0 0 0 0 0 0 0 0 
Heartbeat_Variant_3 : 0 0 per_variant_size: 0 0 0 0 0 0 0 0 0 
Heartbeat_Variant_0_evicts 0 : 12145 1 : 15206 2 : 0 3 : 0 
Heartbeat_Variant_1_evicts 0 : 15148 1 : 0 2 : 0 3 : 0 
Heartbeat_Variant_2_evicts 0 : 0 1 : 0 2 : 0 3 : 0 
Heartbeat_Variant_3_evicts 0 : 0 1 : 0 2 : 0 3 : 0 
Heartbeat CPU 0 instructions: 10000002 cycles: 2798893 heartbeat IPC: 3.57284 cumulative IPC: 3.57284 (Simulation time: 0 hr 1 min 40 sec) 
Heartbeat_Variant_0 : 1146 0.279785 per_variant_size: 0 1146 0 0 0 0 0 0 0 
Heartbeat_Variant_1 : 2644 0.645508 per_variant_size: 0 1001 1643 0 0 0 0 0 0 
Heartbeat_Variant_2 : 0 0 per_variant_size: 0 0 0 0 0 0 0 0 0 
Heartbeat_Variant_3 : 0 0 per_variant_size: 0 0 0 0 0 0 0 0 0 
Heartbeat_Variant_0_evicts 0 : 12508 1 : 15559 2 : 0 3 : 0 
Heartbeat_Variant_1_evicts 0 : 15522 1 : 0 2 : 0 3 : 0 
Heartbeat_Variant_2_evicts 0 : 0 1 : 0 2 : 0 3 : 0 
Heartbeat_Variant_3_evicts 0 : 0 1 : 0 2 : 0 3 : 0 
Heartbeat CPU 0 instructions: 20000003 cycles: 5597164 heartbeat IPC: 3.57364 cumulative IPC: 3.57324 (Simulation time: 0 hr 3 min 18 sec) 
Heartbeat_Variant_0 : 1133 0.276611 per_variant_size: 0 1133 0 0 0 0 0 0 0 
Heartbeat_Variant_1 : 2657 0.648682 per_variant_size: 0 1018 1639 0 0 0 0 0 0 
Heartbeat_Variant_2 : 0 0 per_variant_size: 0 0 0 0 0 0 0 0 0 
Heartbeat_Variant_3 : 0 0 per_variant_size: 0 0 0 0 0 0 0 0 0 
Heartbeat_Variant_0_evicts 0 : 12598 1 : 15376 2 : 0 3 : 0 
Heartbeat_Variant_1_evicts 0 : 15389 1 : 0 2 : 0 3 : 0 
Heartbeat_Variant_2_evicts 0 : 0 1 : 0 2 : 0 3 : 0 
Heartbeat_Variant_3_evicts 0 : 0 1 : 0 2 : 0 3 : 0 
Heartbeat CPU 0 instructions: 30000003 cycles: 8395875 heartbeat IPC: 3.57307 cumulative IPC: 3.57318 (Simulation time: 0 hr 4 min 58 sec) 
Heartbeat_Variant_0 : 1126 0.274902 per_variant_size: 0 1126 0 0 0 0 0 0 0 
Heartbeat_Variant_1 : 2679 0.654053 per_variant_size: 0 1009 1670 0 0 0 0 0 0 
Heartbeat_Variant_2 : 0 0 per_variant_size: 0 0 0 0 0 0 0 0 0 
Heartbeat_Variant_3 : 0 0 per_variant_size: 0 0 0 0 0 0 0 0 0 
Heartbeat_Variant_0_evicts 0 : 12332 1 : 15863 2 : 0 3 : 0 
Heartbeat_Variant_1_evicts 0 : 15874 1 : 0 2 : 0 3 : 0 
Heartbeat_Variant_2_evicts 0 : 0 1 : 0 2 : 0 3 : 0 
Heartbeat_Variant_3_evicts 0 : 0 1 : 0 2 : 0 3 : 0 
Heartbeat CPU 0 instructions: 40000003 cycles: 11193177 heartbeat IPC: 3.57487 cumulative IPC: 3.57361 (Simulation time: 0 hr 6 min 40 sec) 
Heartbeat_Variant_0 : 1142 0.278809 per_variant_size: 0 1142 0 0 0 0 0 0 0 
Heartbeat_Variant_1 : 2664 0.650391 per_variant_size: 0 1013 1651 0 0 0 0 0 0 
Heartbeat_Variant_2 : 0 0 per_variant_size: 0 0 0 0 0 0 0 0 0 
Heartbeat_Variant_3 : 0 0 per_variant_size: 0 0 0 0 0 0 0 0 0 
Heartbeat_Variant_0_evicts 0 : 12437 1 : 15457 2 : 0 3 : 0 
Heartbeat_Variant_1_evicts 0 : 15441 1 : 0 2 : 0 3 : 0 
Heartbeat_Variant_2_evicts 0 : 0 1 : 0 2 : 0 3 : 0 
Heartbeat_Variant_3_evicts 0 : 0 1 : 0 2 : 0 3 : 0 
Heartbeat CPU 0 instructions: 50000000 cycles: 13990269 heartbeat IPC: 3.57514 cumulative IPC: 3.57391 (Simulation time: 0 hr 8 min 20 sec) 

Warmup complete CPU 0 instructions: 50000004 cycles: 13990270 (Simulation time: 0 hr 8 min 20 sec) 

Cycle: 20000000 FTQ IN: 57464845 FTQ occupancy: 18.604 DECODE IN: 57464774 DECODE occupancy: 47.7813 ROB IN: 57464714 ROB occupancy: 289.753 ROB OUT: 57464362
Heartbeat_Variant_0 : 1154 0.281738 per_variant_size: 0 1154 0 0 0 0 0 0 0 
Heartbeat_Variant_1 : 2655 0.648193 per_variant_size: 0 992 1663 0 0 0 0 0 0 
Heartbeat_Variant_2 : 0 0 per_variant_size: 0 0 0 0 0 0 0 0 0 
Heartbeat_Variant_3 : 0 0 per_variant_size: 0 0 0 0 0 0 0 0 0 
Heartbeat_Variant_0_evicts 0 : 12535 1 : 15776 2 : 0 3 : 0 
Heartbeat_Variant_1_evicts 0 : 15764 1 : 0 2 : 0 3 : 0 
Heartbeat_Variant_2_evicts 0 : 0 1 : 0 2 : 0 3 : 0 
Heartbeat_Variant_3_evicts 0 : 0 1 : 0 2 : 0 3 : 0 
Heartbeat CPU 0 instructions: 60000003 cycles: 22153189 heartbeat IPC: 1.22505 cumulative IPC: 1.22505 (Simulation time: 0 hr 9 min 53 sec) 
Cycle: 30000000 FTQ IN: 12117901 FTQ occupancy: 8.50734 DECODE IN: 12117969 DECODE occupancy: 19.3429 ROB IN: 12118029 ROB occupancy: 151.535 ROB OUT: 12118377
Heartbeat_Variant_0 : 1150 0.280762 per_variant_size: 0 1150 0 0 0 0 0 0 0 
Heartbeat_Variant_1 : 2683 0.655029 per_variant_size: 0 978 1705 0 0 0 0 0 0 
Heartbeat_Variant_2 : 0 0 per_variant_size: 0 0 0 0 0 0 0 0 0 
Heartbeat_Variant_3 : 0 0 per_variant_size: 0 0 0 0 0 0 0 0 0 
Heartbeat_Variant_0_evicts 0 : 12488 1 : 15796 2 : 0 3 : 0 
Heartbeat_Variant_1_evicts 0 : 15805 1 : 0 2 : 0 3 : 0 
Heartbeat_Variant_2_evicts 0 : 0 1 : 0 2 : 0 3 : 0 
Heartbeat_Variant_3_evicts 0 : 0 1 : 0 2 : 0 3 : 0 
Heartbeat CPU 0 instructions: 70000001 cycles: 30341503 heartbeat IPC: 1.22125 cumulative IPC: 1.22315 (Simulation time: 0 hr 11 min 27 sec) 
Heartbeat_Variant_0 : 1141 0.278564 per_variant_size: 0 1141 0 0 0 0 0 0 0 
Heartbeat_Variant_1 : 2693 0.657471 per_variant_size: 0 995 1698 0 0 0 0 0 0 
Heartbeat_Variant_2 : 0 0 per_variant_size: 0 0 0 0 0 0 0 0 0 
Heartbeat_Variant_3 : 0 0 per_variant_size: 0 0 0 0 0 0 0 0 0 
Heartbeat_Variant_0_evicts 0 : 12514 1 : 15219 2 : 0 3 : 0 
Heartbeat_Variant_1_evicts 0 : 15228 1 : 0 2 : 0 3 : 0 
Heartbeat_Variant_2_evicts 0 : 0 1 : 0 2 : 0 3 : 0 
Heartbeat_Variant_3_evicts 0 : 0 1 : 0 2 : 0 3 : 0 
Heartbeat CPU 0 instructions: 80000003 cycles: 38369060 heartbeat IPC: 1.24571 cumulative IPC: 1.23058 (Simulation time: 0 hr 13 min 2 sec) 
Cycle: 40000000 FTQ IN: 12321655 FTQ occupancy: 8.53802 DECODE IN: 12321545 DECODE occupancy: 19.5868 ROB IN: 12321485 ROB occupancy: 155.959 ROB OUT: 12321215
Heartbeat_Variant_0 : 1146 0.279785 per_variant_size: 0 1146 0 0 0 0 0 0 0 
Heartbeat_Variant_1 : 2707 0.660889 per_variant_size: 0 960 1747 0 0 0 0 0 0 
Heartbeat_Variant_2 : 0 0 per_variant_size: 0 0 0 0 0 0 0 0 0 
Heartbeat_Variant_3 : 0 0 per_variant_size: 0 0 0 0 0 0 0 0 0 
Heartbeat_Variant_0_evicts 0 : 12547 1 : 15718 2 : 0 3 : 0 
Heartbeat_Variant_1_evicts 0 : 15715 1 : 0 2 : 0 3 : 0 
Heartbeat_Variant_2_evicts 0 : 0 1 : 0 2 : 0 3 : 0 
Heartbeat_Variant_3_evicts 0 : 0 1 : 0 2 : 0 3 : 0 
Heartbeat CPU 0 instructions: 90000001 cycles: 46608506 heartbeat IPC: 1.21367 cumulative IPC: 1.22631 (Simulation time: 0 hr 14 min 38 sec) 
Cycle: 50000000 FTQ IN: 12344818 FTQ occupancy: 8.34975 DECODE IN: 12344905 DECODE occupancy: 19.1834 ROB IN: 12344952 ROB occupancy: 153.645 ROB OUT: 12345136
Heartbeat_Variant_0 : 1135 0.2771 per_variant_size: 0 1135 0 0 0 0 0 0 0 
Heartbeat_Variant_1 : 2733 0.667236 per_variant_size: 0 932 1801 0 0 0 0 0 0 
Heartbeat_Variant_2 : 0 0 per_variant_size: 0 0 0 0 0 0 0 0 0 
Heartbeat_Variant_3 : 0 0 per_variant_size: 0 0 0 0 0 0 0 0 0 
Heartbeat_Variant_0_evicts 0 : 12476 1 : 15668 2 : 0 3 : 0 
Heartbeat_Variant_1_evicts 0 : 15680 1 : 0 2 : 0 3 : 0 
Heartbeat_Variant_2_evicts 0 : 0 1 : 0 2 : 0 3 : 0 
Heartbeat_Variant_3_evicts 0 : 0 1 : 0 2 : 0 3 : 0 
Heartbeat CPU 0 instructions: 100000002 cycles: 54779266 heartbeat IPC: 1.22388 cumulative IPC: 1.22582 (Simulation time: 0 hr 16 min 8 sec) 
Finished CPU 0 instructions: 50000002 cycles: 40788997 cumulative IPC: 1.22582 (Simulation time: 0 hr 16 min 8 sec) 

ChampSim completed all CPUs

Region of Interest Statistics

CPU 0 cumulative IPC: 1.22582 instructions: 50000002 cycles: 40788997
 Fetch stage stalled: 66.0105  Sim cycles: 40788997 fetch stall cycle: 26925002
 Empty decode stage: 52.8413  Sim cycles: 40788997 fetch stall cycle: 21553419
ITLB TOTAL     ACCESS:    5658185  HIT:    5164342  MISS:     493843  HIT %:    91.2721  MISS %:    8.72794   MPKI: 9.87686
ITLB LOAD TRANSLATION INSTRUCTION	ACCESS:    5542358  HIT:    5048515  MISS:     493843  HIT %:    91.0897  MISS %:    8.91034  MPKI: 9.87686
ITLB TRANSLATION FROM L1D PREFETCHER INSTRUCTION	ACCESS:     115827  HIT:     115827  MISS:          0  HIT %:        100  MISS %:          0  MPKI: 0

ITLB AVERAGE MISS LATENCY: 9.07487 cycles
ITLB RQ	ACCESS:    7584133	FORWARD:          0	MERGED:    1430736	TO_CACHE:    6153397

DTLB TOTAL     ACCESS:    9182797  HIT:    8713788  MISS:     469009  HIT %:    94.8925  MISS %:    5.10747   MPKI: 9.38018
DTLB LOAD TRANSLATION DATA	ACCESS:    9182797  HIT:    8713788  MISS:     469009  HIT %:    94.8925  MISS %:    5.10747  MPKI: 9.38018

DTLB AVERAGE MISS LATENCY: 9.35918 cycles
DTLB RQ	ACCESS:   13531008	FORWARD:          0	MERGED:    4311501	TO_CACHE:    9219507

STLB TOTAL     ACCESS:    1213021  HIT:    1210597  MISS:       2424  HIT %:    99.8002  MISS %:   0.199832   MPKI: 0.04848
STLB LOAD TRANSLATION INSTRUCTION	ACCESS:     493843  HIT:     493374  MISS:        469  HIT %:     99.905  MISS %:  0.0949695  MPKI: 0.00938
STLB LOAD TRANSLATION DATA	ACCESS:     468786  HIT:     466855  MISS:       1931  HIT %:    99.5881  MISS %:   0.411915  MPKI: 0.03862
STLB TRANSLATION FROM L1D PREFETCHER DATA	ACCESS:     250392  HIT:     250368  MISS:         24  HIT %:    99.9904  MISS %: 0.00958497  MPKI: 0.00048

STLB AVERAGE MISS LATENCY: 74.1873 cycles
STLB RQ	ACCESS:    1330253	FORWARD:          0	MERGED:     117194	TO_CACHE:    1213059

STLB Hit, L1D data hit: 0
STLB Hit, L2C data hit: 0
STLB Hit, LLC data hit: 0
STLB Hit, LLC data miss: 0
STLB STLB hints to L2: 0
L1D TOTAL     ACCESS:   13292207  HIT:   12177355  MISS:    1114852  HIT %:    91.6127  MISS %:    8.38726   MPKI: 22.297
L1D LOAD DATA	ACCESS:    6727799  HIT:    5993543  MISS:     734256  HIT %:    89.0862  MISS %:    10.9138  MPKI: 14.6851
L1D RFO DATA	ACCESS:    6233779  HIT:    5947521  MISS:     286258  HIT %:     95.408  MISS %:    4.59205  MPKI: 5.72516
L1D PREFETCH DATA	ACCESS:     330629  HIT:     236291  MISS:      94338  HIT %:    71.4671  MISS %:    28.5329  MPKI: 1.88676

L1D PREFETCH  REQUESTED:     735149  ISSUED:     735149  USEFUL:      33015  USELESS:      68466
L1D USEFUL LOAD PREFETCHES:      33015 PREFETCH ISSUED TO LOWER LEVEL:     101540  ACCURACY: 32.5143
 TIMELY PREFETCHES:      33015 LATE PREFETCHES: 7161 DROPPED PREFETCHES: 4
L1D AVERAGE MISS LATENCY: 224737 cycles
L1D RQ	ACCESS:   10812838	FORWARD:          0	MERGED:    3885931	TO_CACHE:    6760605
L1D WQ	ACCESS:    6953071	FORWARD:     166649	MERGED:     182668	TO_CACHE:    6770403
L1D PQ	ACCESS:     367748	FORWARD:          0	MERGED:          0	TO_CACHE:     367401

L1D UNIQUE REGIONS ACCESSED: 0
L1D REGIONS CONFLICTS: 0
L1D Cross Page Prefetch Requests: 5820
L1D Same Page Prefetch Requests: 744335
L1D ROI Sum of L1D PQ occupancy: 4672132
L1D PREFETCHES PUSHED FROM L2C: 0
L1I TOTAL     ACCESS:    6979230  HIT:    4215444  MISS:    2763786  HIT %:    60.3998  MISS %:    39.6002   MPKI: 55.2757
L1I LOAD INSTRUCTION	ACCESS:    6440935  HIT:    3677149  MISS:    2763786  HIT %:    57.0903  MISS %:    42.9097  MPKI: 55.2757
L1I PREFETCH INSTRUCTION	ACCESS:     538295  HIT:     538295  MISS:          0  HIT %:        100  MISS %:          0  MPKI: 0

L1I PREFETCH  REQUESTED:    1250989  ISSUED:    1250989  USEFUL:          0  USELESS:          0
L1I USEFUL LOAD PREFETCHES:          0 PREFETCH ISSUED TO LOWER LEVEL:          0  ACCURACY: -nan
 TIMELY PREFETCHES:          0 LATE PREFETCHES: 0 DROPPED PREFETCHES: 0
L1I AVERAGE MISS LATENCY: 17.3283 cycles
L1I RQ	ACCESS:    9462910	FORWARD:          0	MERGED:    2777369	TO_CACHE:    6685541
L1I PQ	ACCESS:    1250989	FORWARD:          0	MERGED:     352397	TO_CACHE:     898592

L1BTB TOTAL     ACCESS:    5672574  HIT:    2043864  MISS:    3628710  HIT %:    36.0306  MISS %:    63.9694   MPKI: 72.5742
L1BTB BRANCH_DIRECT_JUMP	ACCESS:     549329 HIT:     144792 MISS:     404537 AVERAGE STALL: 41.369 AVERAGE FETCH STALL: 19.224 AVERAGE FETCH QUEUE STALL: 11.424 AVERAGE DECODE STALL: 9.89734 AVERAGE EXECUTE STALL: 5.73664e+14
L1BTB BRANCH_INDIRECT	ACCESS:     183301 HIT:      66219 MISS:     117082 AVERAGE STALL: 95.335 AVERAGE FETCH STALL: 13.2722 AVERAGE FETCH QUEUE STALL: 9.93983 AVERAGE DECODE STALL: 8.16294 AVERAGE EXECUTE STALL: 63.0135
L1BTB BRANCH_CONDITIONAL	ACCESS:    2713604 HIT:    1419571 MISS:    1294033 AVERAGE STALL: 41.121 AVERAGE FETCH STALL: 22.2782 AVERAGE FETCH QUEUE STALL: 9.84844 AVERAGE DECODE STALL: 8.24622 AVERAGE EXECUTE STALL: 2.21886e+14
L1BTB BRANCH_DIRECT_CALL	ACCESS:     942115 HIT:     104253 MISS:     837862 AVERAGE STALL: 42.9246 AVERAGE FETCH STALL: 22.3399 AVERAGE FETCH QUEUE STALL: 10.8109 AVERAGE DECODE STALL: 9.01446 AVERAGE EXECUTE STALL: 1.69538e+14
L1BTB BRANCH_INDIRECT_CALL	ACCESS:     171051 HIT:      20704 MISS:     150347 AVERAGE STALL: 126.527 AVERAGE FETCH STALL: 17.4153 AVERAGE FETCH QUEUE STALL: 8.83747 AVERAGE DECODE STALL: 7.77959 AVERAGE EXECUTE STALL: 91.9771
L1BTB BRANCH_RETURN	ACCESS:    1113174 HIT:     288325 MISS:     824849 AVERAGE STALL: 40.9208 AVERAGE FETCH STALL: 18.257 AVERAGE FETCH QUEUE STALL: 6.80762 AVERAGE DECODE STALL: 6.78359 AVERAGE EXECUTE STALL: 2.4458e+14
L1BTB BRANCH_OTHER ACCESS:          0 HIT:          0 MISS:          0 AVERAGE STALL: -nan AVERAGE FETCH STALL: -nan AVERAGE FETCH QUEUE STALL: -nan AVERAGE DECODE STALL: -nan AVERAGE EXECUTE STALL: -nan
L1BTB TOTAL ROB OCCUPANCY AT BTB MISS: 11.7307

L2BTB TOTAL     ACCESS:    3603230  HIT:    3276048  MISS:     327182  HIT %:    90.9198  MISS %:    9.08024   MPKI: 6.54364
L2BTB BRANCH_DIRECT_JUMP	ACCESS:     400338 HIT:     372343 MISS:      27995 AVERAGE STALL: 41.369 AVERAGE FETCH STALL: 19.224 AVERAGE FETCH QUEUE STALL: 11.424 AVERAGE DECODE STALL: 9.89734 AVERAGE EXECUTE STALL: 5.73664e+14
L2BTB BRANCH_INDIRECT	ACCESS:     106796 HIT:     100345 MISS:       6451 AVERAGE STALL: 95.335 AVERAGE FETCH STALL: 13.2722 AVERAGE FETCH QUEUE STALL: 9.93983 AVERAGE DECODE STALL: 8.16294 AVERAGE EXECUTE STALL: 63.0135
L2BTB BRANCH_CONDITIONAL	ACCESS:    1294033 HIT:    1210326 MISS:      83707 AVERAGE STALL: 41.121 AVERAGE FETCH STALL: 22.2782 AVERAGE FETCH QUEUE STALL: 9.84844 AVERAGE DECODE STALL: 8.24622 AVERAGE EXECUTE STALL: 2.21886e+14
L2BTB BRANCH_DIRECT_CALL	ACCESS:     837862 HIT:     728960 MISS:     108902 AVERAGE STALL: 42.9246 AVERAGE FETCH STALL: 22.3399 AVERAGE FETCH QUEUE STALL: 10.8109 AVERAGE DECODE STALL: 9.01446 AVERAGE EXECUTE STALL: 1.69538e+14
L2BTB BRANCH_INDIRECT_CALL	ACCESS:     140756 HIT:     114710 MISS:      26046 AVERAGE STALL: 126.527 AVERAGE FETCH STALL: 17.4153 AVERAGE FETCH QUEUE STALL: 8.83747 AVERAGE DECODE STALL: 7.77959 AVERAGE EXECUTE STALL: 91.9771
L2BTB BRANCH_RETURN	ACCESS:     823445 HIT:     749364 MISS:      74081 AVERAGE STALL: 40.9208 AVERAGE FETCH STALL: 18.257 AVERAGE FETCH QUEUE STALL: 6.80762 AVERAGE DECODE STALL: 6.78359 AVERAGE EXECUTE STALL: 2.4458e+14
L2BTB BRANCH_OTHER ACCESS:          0 HIT:          0 MISS:          0 AVERAGE STALL: -nan AVERAGE FETCH STALL: -nan AVERAGE FETCH QUEUE STALL: -nan AVERAGE DECODE STALL: -nan AVERAGE EXECUTE STALL: -nan
L2BTB TOTAL ROB OCCUPANCY AT BTB MISS: 130.103

L2C TOTAL     ACCESS:    4489351  HIT:    4011681  MISS:     477670  HIT %:    89.3599  MISS %:    10.6401   MPKI: 9.5534
L2C LOAD INSTRUCTION	ACCESS:    2763786  HIT:    2500806  MISS:     262980  HIT %:    90.4848  MISS %:    9.51521  MPKI: 5.2596
L2C LOAD TRANSLATION INSTRUCTION	ACCESS:        527  HIT:        218  MISS:        309  HIT %:    41.3662  MISS %:    58.6338  MPKI: 0.00618
L2C LOAD DATA	ACCESS:     727050  HIT:     654266  MISS:      72784  HIT %:    89.9891  MISS %:    10.0109  MPKI: 1.45568
L2C RFO DATA	ACCESS:     286173  HIT:     231543  MISS:      54630  HIT %:    80.9101  MISS %:    19.0899  MPKI: 1.0926
L2C PREFETCH DATA	ACCESS:     184308  HIT:     112948  MISS:      71360  HIT %:    61.2822  MISS %:    38.7178  MPKI: 1.4272
L2C WRITEBACK DATA	ACCESS:     525438  HIT:     511280  MISS:      14158  HIT %:    97.3055  MISS %:    2.69451  MPKI: 0.28316
L2C LOAD TRANSLATION DATA	ACCESS:       2021  HIT:        591  MISS:       1430  HIT %:    29.2429  MISS %:    70.7571  MPKI: 0.0286
L2C TRANSLATION FROM L1D PREFETCHER DATA	ACCESS:         48  HIT:         29  MISS:         19  HIT %:    60.4167  MISS %:    39.5833  MPKI: 0.00038

L2C PREFETCH  REQUESTED:      90393  ISSUED:      90393  USEFUL:       7794  USELESS:      64186
L2C USEFUL LOAD PREFETCHES:       7794 PREFETCH ISSUED TO LOWER LEVEL:      71726  ACCURACY: 10.8664
 TIMELY PREFETCHES:       7794 LATE PREFETCHES: 366 DROPPED PREFETCHES: 0
L2C AVERAGE MISS LATENCY: 39.1912 cycles
L2C RQ	ACCESS:    3779693	FORWARD:          0	MERGED:          0	TO_CACHE:    3779605
L2C WQ	ACCESS:     525438	FORWARD:         88	MERGED:          0	TO_CACHE:     525438
L2C PQ	ACCESS:     191933	FORWARD:          0	MERGED:       3920	TO_CACHE:     188013

L2C Dense regions hint from L2: 0
PSCL5 TOTAL     ACCESS:       4856  HIT:       2428  MISS:       2428  HIT %:         50  MISS %:         50   MPKI: 0.04856
PSCL5 LOAD TRANSLATION INSTRUCTION	ACCESS:       4766  HIT:       2383  MISS:       2383  HIT %:         50  MISS %:         50  MPKI: 0.04766
PSCL5 TRANSLATION FROM L1D PREFETCHER INSTRUCTION	ACCESS:         90  HIT:         45  MISS:         45  HIT %:         50  MISS %:         50  MPKI: 0.0009


PSCL4 TOTAL     ACCESS:       4101  HIT:       2047  MISS:       2054  HIT %:    49.9147  MISS %:    50.0853   MPKI: 0.04108
PSCL4 LOAD TRANSLATION INSTRUCTION	ACCESS:       3459  HIT:       2017  MISS:       1442  HIT %:    58.3117  MISS %:    41.6883  MPKI: 0.02884
PSCL4 TRANSLATION FROM L1D PREFETCHER INSTRUCTION	ACCESS:         57  HIT:         30  MISS:         27  HIT %:    52.6316  MISS %:    47.3684  MPKI: 0.00054
PSCL4 LOAD TRANSLATION DATA	ACCESS:        582  HIT:          0  MISS:        582  HIT %:          0  MISS %:        100  MPKI: 0.01164
PSCL4 TRANSLATION FROM L1D PREFETCHER DATA	ACCESS:          3  HIT:          0  MISS:          3  HIT %:          0  MISS %:        100  MPKI: 6e-05


PSCL3 TOTAL     ACCESS:       4446  HIT:       2213  MISS:       2233  HIT %:    49.7751  MISS %:    50.2249   MPKI: 0.04466
PSCL3 LOAD TRANSLATION INSTRUCTION	ACCESS:       3731  HIT:       2177  MISS:       1554  HIT %:     58.349  MISS %:     41.651  MPKI: 0.03108
PSCL3 TRANSLATION FROM L1D PREFETCHER INSTRUCTION	ACCESS:         68  HIT:         36  MISS:         32  HIT %:    52.9412  MISS %:    47.0588  MPKI: 0.00064
PSCL3 LOAD TRANSLATION DATA	ACCESS:        643  HIT:          0  MISS:        643  HIT %:          0  MISS %:        100  MPKI: 0.01286
PSCL3 TRANSLATION FROM L1D PREFETCHER DATA	ACCESS:          4  HIT:          0  MISS:          4  HIT %:          0  MISS %:        100  MPKI: 8e-05


PSCL2 TOTAL     ACCESS:       4710  HIT:       2282  MISS:       2428  HIT %:    48.4501  MISS %:    51.5499   MPKI: 0.04856
PSCL2 LOAD TRANSLATION INSTRUCTION	ACCESS:       2709  HIT:       2238  MISS:        471  HIT %:    82.6135  MISS %:    17.3865  MPKI: 0.00942
PSCL2 TRANSLATION FROM L1D PREFETCHER INSTRUCTION	ACCESS:         44  HIT:         44  MISS:          0  HIT %:        100  MISS %:          0  MPKI: 0
PSCL2 LOAD TRANSLATION DATA	ACCESS:       1913  HIT:          0  MISS:       1913  HIT %:          0  MISS %:        100  MPKI: 0.03826
PSCL2 TRANSLATION FROM L1D PREFETCHER DATA	ACCESS:         44  HIT:          0  MISS:         44  HIT %:          0  MISS %:        100  MPKI: 0.00088


LLC TOTAL     ACCESS:     541720  HIT:     511116  MISS:      30604  HIT %:    94.3506  MISS %:    5.64941   MPKI: 0.61208
LLC LOAD INSTRUCTION	ACCESS:     262980  HIT:     261581  MISS:       1399  HIT %:     99.468  MISS %:    0.53198  MPKI: 0.02798
LLC LOAD TRANSLATION INSTRUCTION	ACCESS:        309  HIT:        260  MISS:         49  HIT %:    84.1424  MISS %:    15.8576  MPKI: 0.00098
LLC LOAD DATA	ACCESS:      72411  HIT:      68886  MISS:       3525  HIT %:     95.132  MISS %:    4.86804  MPKI: 0.0705
LLC RFO DATA	ACCESS:      54625  HIT:      39321  MISS:      15304  HIT %:    71.9835  MISS %:    28.0165  MPKI: 0.30608
LLC PREFETCH DATA	ACCESS:      71725  HIT:      61843  MISS:       9882  HIT %:    86.2224  MISS %:    13.7776  MPKI: 0.19764
LLC WRITEBACK DATA	ACCESS:      78221  HIT:      77888  MISS:        333  HIT %:    99.5743  MISS %:   0.425717  MPKI: 0.00666
LLC LOAD TRANSLATION DATA	ACCESS:       1430  HIT:       1321  MISS:        109  HIT %:    92.3776  MISS %:    7.62238  MPKI: 0.00218
LLC TRANSLATION FROM L1D PREFETCHER DATA	ACCESS:         19  HIT:         16  MISS:          3  HIT %:    84.2105  MISS %:    15.7895  MPKI: 6e-05

LLC AVERAGE MISS LATENCY: 156.017 cycles
LLC RQ	ACCESS:     391786	FORWARD:          0	MERGED:          0	TO_CACHE:     391774
LLC WQ	ACCESS:      78221	FORWARD:         13	MERGED:          0	TO_CACHE:      78221
LLC PQ	ACCESS:      71726	FORWARD:          0	MERGED:          0	TO_CACHE:      71725

LLC Dense regions hint to LLC: 0

RAW hits: 1832255
Loads Generated: 12645093
Loads sent to L1D: 10812838
Stores Generated: 6953059
Stores sent to L1D: 6953071
Major fault: 0 Minor fault: 2608
Allocated PAGES: 2608

stream: 
stream:times selected: 1184494
stream:pref_filled: 120267
stream:pref_useful: 23370
stream:pref_late: 6419
stream:misses: 6813
stream:misses_by_poll: 0

CS: 
CS:times selected: 178323
CS:pref_filled: 60065
CS:pref_useful: 35505
CS:pref_late: 6165
CS:misses: 15546
CS:misses_by_poll: 5

CPLX: 
CPLX:times selected: 1004815
CPLX:pref_filled: 19217
CPLX:pref_useful: 4275
CPLX:pref_late: 2961
CPLX:misses: 87446
CPLX:misses_by_poll: 0

NL_L1: 
NL:times selected: 18490
NL:pref_filled: 549
NL:pref_useful: 213
NL:pref_late: 189
NL:misses: 919
NL:misses_by_poll: 0

total selections: 2386122
total_filled: 94338
total_useful: 33015
total_late: 17013
total_polluted: 5
total_misses_after_warmup: 767062
conflicts: 5611716

test: 114174

DRAM Statistics
 CHANNEL 0
 RQ ROW_BUFFER_HIT:      11465  ROW_BUFFER_MISS:      18798
 DBUS_CONGESTED:         14
 WQ ROW_BUFFER_HIT:       1598  ROW_BUFFER_MISS:      12664  FULL:          0

 AVG_CONGESTED_CYCLE: 5

CPU 0 Branch Prediction Accuracy: 99.8137% MPKI: 0.34044 Average ROB Occupancy at Mispredict: 147.481
Branch types
NOT_BRANCH: 40860738 81.7215%
BRANCH_DIRECT_JUMP: 549329 1.09866%
BRANCH_INDIRECT: 183301 0.366602%
BRANCH_CONDITIONAL: 6179930 12.3599%
BRANCH_DIRECT_CALL: 942115 1.88423%
BRANCH_INDIRECT_CALL: 171051 0.342102%
BRANCH_RETURN: 1113174 2.22635%
BRANCH_OTHER: 0 0%

DRAM PAGES: 1048576
Allocated PAGES: 2608
Average_ROB_Occupancy: 154.308
Average_Decode_Occupancy: 19.334
Average_FTQ_Occupancy: 8.45701
Indirect max targets: 14 Average targets: 1.16118
Branch_type:  BRANCH_DIRECT_JUMP:  Count Percentage: 2.92003 7.34816 3.58526 14.466 1.6983 5.97264 1.00011 63.0094 
Branch_type:  BRANCH_INDIRECT:  Count Percentage: 11.75 3.46846 12.2466 23.3449 1.33541 14.5654 1.06434 32.2248 
Branch_type:  BRANCH_CONDITIONAL:  Count Percentage: 21.4662 2.95289 2.49668 9.07685 1.07333 4.53334 0.581155 57.8196 
Branch_type:  BRANCH_DIRECT_CALL:  Count Percentage: 0.752114 1.28736 1.45002 5.41881 2.00958 2.55916 0.801063 85.7219 
Branch_type:  BRANCH_INDIRECT_CALL:  Count Percentage: 9.56945 0.579887 2.99759 4.8655 0.000876404 3.52168 0 78.465 
Branch_type:  BRANCH_RETURN:  Count Percentage: 4.43908 0.700207 3.56211 9.46465 2.13403 5.19111 1.00792 73.5009 
Branch_type:  BRANCH_DIRECT_JUMP:  Total Count: 32070 80703 39376 158877 18652 65596 10984 692017 
Branch_type:  BRANCH_INDIRECT:  Total Count: 43088 12719 44909 85607 4897 53412 3903 118170 
Branch_type:  BRANCH_CONDITIONAL:  Total Count: 2652196 364837 308471 1121466 132612 560105 71803 7143744 
Branch_type:  BRANCH_DIRECT_CALL:  Total Count: 14167 24249 27313 102070 37853 48205 15089 1614677 
Branch_type:  BRANCH_INDIRECT_CALL:  Total Count: 32757 1985 10261 16655 3 12055 0 268592 
Branch_type:  BRANCH_RETURN:  Total Count: 98848 15592 79320 210756 47520 115594 22444 1636696 
Number of unique branch instructions: 10544
Upper 32 bits: 
aaaa
ffff
ffff0000
Unique upper 32 bits: 3
Unique upper 36 bits: 3
Unique upper 40 bits: 5
Unique upper 44 bits: 32
Unique upper 48 bits: 157
Variant_0 : 1135 0.2771
Variant_1 : 2733 0.667236
Variant_2 : 0 0
Variant_3 : 0 0
Offset_3 4348
Offset_4 272
Offset_5 484
Offset_6 529
Offset_7 626
Offset_8 546
Offset_9 505
Offset_10 413
Offset_11 341
Offset_12 313
Offset_13 217
Offset_14 242
Offset_15 200
Offset_16 236
Offset_17 166
Offset_18 129
Offset_19 252
Offset_20 142
Offset_21 261
Offset_22 408
Offset_23 243
Offset_24 350
Offset_25 92
Offset_47 86
decode_dispatch_called: 20835037 51.08
Dispatch_width: 0 10636685 51.0519 26.0773
Dispatch_width: 1 580806 2.78764 1.42393
Dispatch_width: 2 620690 2.97907 1.52171
Dispatch_width: 3 411215 1.97367 1.00815
Dispatch_width: 4 2155912 10.3475 5.28552
Dispatch_width: 5 258069 1.23863 0.632693
Dispatch_width: 6 6171660 29.6215 15.1307
Empty_decode_cycles: 19953960 48.92
ROB_full_cycles: 3323987 8.14922
Starvation_cycles_per_kilo_instr: 312.933
Starvation_cycles_per_kilo_instr_3: 288.794
Starvation_cycles_per_kilo_instr_0: 272.667
Branch_type_1  (3,1)  (4,12)  (5,39)  (6,74)  (7,122)  (8,137)  (9,135)  (10,103)  (11,74)  (12,51)  (13,8)  (14,2)  (15,3)  (16,4)  (18,1)  (19,4)  (20,2)  (21,1)  (22,3)  (23,2)  (24,10)  (25,12) 
Branch_type_2  (3,1)  (4,1)  (5,1)  (8,3)  (9,3)  (12,1)  (13,1)  (14,1)  (16,3)  (17,2)  (20,2)  (21,2)  (23,5)  (24,1)  (47,39) 
Branch_type_3  (3,4346)  (4,259)  (5,440)  (6,440)  (7,473)  (8,343)  (9,276)  (10,168)  (11,143)  (12,60)  (13,7) 
Branch_type_4  (6,3)  (7,8)  (8,26)  (9,54)  (10,67)  (11,62)  (12,111)  (13,92)  (14,109)  (15,95)  (16,107)  (17,76)  (18,60)  (19,122)  (20,72)  (21,141)  (22,218)  (23,137)  (24,200)  (25,76) 
Branch_type_5  (8,2)  (9,1)  (10,4)  (11,5)  (12,3)  (13,14)  (14,16)  (15,11)  (16,20)  (17,13)  (18,16)  (19,13)  (20,12)  (21,13)  (22,42)  (23,26)  (24,41) 
Branch_type_6  (5,4)  (6,12)  (7,23)  (8,35)  (9,36)  (10,71)  (11,57)  (12,87)  (13,95)  (14,114)  (15,91)  (16,102)  (17,75)  (18,52)  (19,113)  (20,54)  (21,104)  (22,145)  (23,73)  (24,98)  (25,4)  (47,47) 
Unique trigger count: 
Variant_0_evicts_0 : 0
Variant_0_evicts_1 : 0
Variant_0_evicts_2 : 0
Variant_0_evicts_3 : 0
Variant_1_evicts_0 : 0
Variant_1_evicts_1 : 0
Variant_1_evicts_2 : 0
Variant_1_evicts_3 : 0
Variant_2_evicts_0 : 0
Variant_2_evicts_1 : 0
Variant_2_evicts_2 : 0
Variant_2_evicts_3 : 0
Variant_3_evicts_0 : 0
Variant_3_evicts_1 : 0
Variant_3_evicts_2 : 0
Variant_3_evicts_3 : 0
BTB PER SET UNIQUE ADDR: 2 9 4 6 4 5 7 5 2 6 5 4 3 5 11 9 4 4 3 2 5 8 7 9 4 8 4 4 6 7 5 4 5 7 4 7 7 4 5 9 5 7 4 4 7 5 5 4 5 7 9 4 6 4 2 7 5 3 6 4 4 7 5 5 6 2 4 4 2 7 8 5 5 7 6 8 4 5 6 7 10 6 7 8 9 3 6 4 6 6 6 6 6 6 3 1 5 3 4 7 5 3 4 7 3 5 5 5 6 8 7 3 3 8 2 5 5 7 4 10 4 4 5 3 8 8 3 6 6 2 3 6 4 6 9 5 6 2 7 4 3 4 8 6 3 10 5 5 4 7 3 2 3 11 2 4 7 3 6 4 1 5 4 7 8 3 1 4 6 8 7 6 5 3 4 5 2 6 4 5 4 5 5 8 4 5 4 5 5 5 4 3 5 6 1 4 5 6 4 4 7 4 3 5 1 8 2 5 7 4 2 3 7 6 5 6 6 4 3 6 4 9 8 8 5 10 8 4 8 10 3 6 4 10 2 9 4 7 5 5 6 4 5 4 5 4 5 4 4 6 3 6 4 4 6 5 5 4 7 2 9 6 4 5 4 4 6 6 9 6 7 7 6 7 7 4 5 2 5 10 10 3 3 6 3 3 10 6 8 6 6 3 9 7 9 5 5 3 6 3 12 3 8 7 3 3 5 7 7 4 6 4 7 5 5 4 4 7 6 3 7 8 2 4 9 7 4 6 3 7 4 10 3 7 7 4 7 7 7 7 2 5 6 3 5 5 4 6 1 3 6 4 3 2 7 4 4 5 5 5 10 6 3 8 5 11 5 8 3 3 8 8 9 5 5 5 7 5 3 1 5 5 6 5 9 4 2 6 4 6 5 3 3 6 4 5 6 2 5 4 7 7 6 4 4 10 10 4 8 2 3 4 1 6 6 2 5 4 5 5 7 0 4 6 6 4 6 8 6 8 8 3 3 4 6 1 4 3 2 4 8 6 4 2 4 0 3 6 5 4 10 3 6 4 5 2 8 2 11 3 5 6 4 12 3 6 5 6 3 7 5 9 3 7 4 9 3 3 4 8 5 3 6 6 4 4 5 6 6 6 7 5 5 7 6 5 4 5 2 8 4 3 3 4 4 6 7 5 3 4 8 2 5 3 4 6 10 6 7 3 7 7 9 4 5 10 1 3 5 3 11 8 4 1 4 5 6 8 5 7 3 8 9 10 7 4 7 9 4 3 2 6 4 6 6 6 7 2 4 4 5 3 5 7 6 2 5 5 11 4 4 5 3 7 3 6 7 2 5 4 1 7 3 7 4 3 3 2 5 7 6 6 5 7 3 7 11 7 3 6 11 3 4 2 5 10 7 1 4 7 5 4 4 7 1 4 9 5 8 6 3 4 5 2 6 6 3 5 3 3 5 7 5 6 6 6 3 9 5 11 4 5 3 4 3 8 6 4 4 5 5 4 5 7 5 6 5 3 4 4 4 4 6 7 6 4 5 10 7 7 10 6 8 6 7 3 4 6 4 7 6 6 3 6 8 8 3 7 9 4 7 3 4 5 4 9 4 7 6 10 8 5 5 3 8 4 4 4 7 7 4 2 3 7 5 5 9 7 3 3 5 6 3 9 8 7 10 7 5 8 3 6 8 3 2 3 6 6 2 7 3 9 5 4 6 2 8 6 4 5 7 3 8 4 9 11 9 1 2 7 7 7 6 6 11 5 9 10 6 3 7 5 1 5 9 6 4 8 3 7 6 3 3 5 11 5 4 8 6 7 6 4 6 5 8 6 6 4 6 6 6 5 7 5 5 3 5 4 5 5 7 2 0 5 7 5 9 4 7 5 6 6 5 5 5 7 7 6 11 5 7 5 4 8 5 4 8 4 2 5 1 10 5 4 6 4 4 6 4 4 3 7 4 4 6 4 9 6 4 4 2 5 4 8 7 5 6 7 5 5 5 4 5 4 3 3 4 6 2 5 6 5 6 4 5 6 7 11 2 0 8 2 4 2 4 6 4 8 9 2 7 4 7 4 6 2 4 6 7 9 6 5 6 6 9 9 5 7 9 3 7 0 8 6 4 3 5 5 6 5 3 8 8 6 4 7 4 4 1 4 7 4 4 4 5 3 4 3 7 4 8 8 3 2 13 5 10 4 5 3 4 4 8 5 5 2 8 5 2 3 7 1 3 6 3 4 3 11 5 7 4 5 6 7 8 3 3 5 6 3 3 5 8 10 8 3 5 3 3 3 7 3 7 5 3 4 6 10 4 6 7 8 8 5 7 5 6 8 3 4 5 3 6 7 9 5 7 8 2 6 8 2 5 5 5 9 7 3 3 4 4 4 5 6 7 5 5 5 3 3 6 5 5 4 3 6 9 7 5 3 3 7 5 5 4 8 9 6 8 7 1 5 2 8 8 4 6 4 7 3 8 2 4 5 7 5 4 3 2 8 8 8 5 5 6 3 5 5 5 3 7 10 6 7 4 6 3 5 3 2 7 6 4 3 8 3 6 7 4 4 5 6 3 10 3 7 5 7 4 3 5 5 7 2 6 3 3 6 3 6 9 11 6 4 5 7 1 6 5 5 4 5 2 5 6 6 6 10 7 5 4 1 7 6 3 3 6 6 6 7 9 3 6 4 4 9 5 7 4 6 8 3 10 4 3 3 7 4 7 7 10 6 4 3 6 4 7 6 4 4 5 3 5 3 6 5 5 3 8 4 5 4 7 6 1 6 8 3 8 6 9 4 6 5 5 6 8 5 6 4 5 3 3 3 8 3 3 7 4 4 6 6 4 5 7 6 9 5 3 5 4 9 4 3 4 3 3 4 2 4 2 5 6 5 5 3 8 7 4 9 5 4 11 3 6 6 7 8 7 4 9 5 4 8 5 6 5 5 10 8 7 5 7 10 4 5 7 4 5 9 2 6 4 7 6 6 10 6 9 8 10 9 4 5 9 4 3 3 5 3 4 7 7 6 5 3 4 4 9 11 4 5 3 6 6 5 6 5 5 4 4 5 6 5 8 11 4 7 8 8 5 3 6 5 4 3 7 1 4 5 4 9 6 8 6 2 5 4 4 7 3 5 2 12 7 9 3 5 3 5 2 5 3 3 4 3 6 6 3 2 2 5 8 7 2 5 8 4 5 2 9 4 8 3 4 4 8 6 6 5 3 6 9 5 9 6 4 4 2 6 7 7 6 8 8 9 6 4 4 10 6 2 7 6 7 6 6 10 6 3 8 7 7 4 5 5 9 7 5 4 3 6 2 6 5 5 5 6 9 7 5 5 8 5 7 6 5 6 4 8 5 6 7 1 4 2 7 6 5 11 8 7 4 7 8 4 4 5 6 5 6 7 4 10 5 11 6 5 6 2 7 4 10 7 8 7 8 5 7 3 6 8 10 4 4 7 4 7 7 10 9 2 3 7 7 4 11 6 7 2 4 6 5 2 4 8 5 4 4 6 5 3 4 4 6 6 5 10 4 2 5 5 5 4 3 4 5 6 5 5 5 9 7 5 2 4 4 8 7 7 10 3 5 7 2 5 4 7 5 3 5 5 3 6 5 8 8 3 4 7 6 5 3 4 6 3 4 7 4 5 5 5 5 8 5 5 11 6 7 8 4 5 8 3 4 5 4 4 6 4 3 7 7 7 5 7 5 3 3 4 4 6 8 4 7 5 9 4 6 6 4 6 9 4 6 7 8 4 4 8 7 4 3 5 6 4 4 4 7 4 4 7 3 5 6 4 5 5 1 2 6 4 3 2 6 5 1 5 4 6 7 4 6 2 2 4 5 6 12 4 4 8 3 3 4 4 2 6 3 6 2 5 4 2 4 7 7 4 4 3 2 1 6 5 4 6 4 6 4 7 1 4 3 8 5 7 7 5 4 3 4 3 5 6 5 5 4 5 10 7 6 3 8 5 1 7 6 7 6 5 8 3 4 3 4 7 1 2 3 5 9 8 3 9 6 6 6 5 8 4 3 5 7 10 0 7 5 4 4 9 5 10 3 6 10 8 5 5 2 7 3 6 3 6 5 6 7 4 4 7 4 6 2 3 1 1 3 2 7 2 4 4 7 3 6 4 3 7 3 4 3 3 7 7 6 7 5 4 6 5 4 8 5 1 4 4 6 5 3 7 6 4 2 3 6 6 4 5 4 6 3 4 5 6 5 2 5 6 3 4 3 4 7 4 5 6 2 5 4 3 3 8 4 8 5 3 4 6 5 10 3 6 3 4 5 8 5 6 2 2 3 3 2 6 3 10 1 4 2 7 4 3 3 5 4 5 2 2 3 7 3 5 4 4 3 6 6 1 4 6 5 5 10 2 5 6 2 5 9 4 1 2 7 11 4 7 6 6 6 5 4 7 8 6 6 8 4 0 6 4 5 8 5 7 8 10 5 4 2 8 3 7 5 7 6 8 6 7 6 9 7 4 5 6 6 4 5 6 3 9 3 7 6 10 8 3 5 9 3 5 5 6 2 2 7 7 4 7 3 7 2 5 8 7 4 4 3 3 6 6 0 3 6 8 3 5 6 7 8 5 4 10 6 5 3 10 6 6 6 3 2 11 4 4 4 5 4 13 4 7 5 6 3 4 2 2 7 7 
BTB PER SET COUNT: 2 1760 95 502 182 155 338 285 2 1164 943 421 3 1493 1064 110 599 203 3 3 250 1020 730 446 446 1067 161 218 374 434 424 164 285 867 538 239 806 297 138 1042 16 1673 5 12 2398 646 10 141 5 733 463 4 694 10 2 503 474 1184 456 105 1197 823 188 16 359 9 212 385 2 697 1323 102 226 985 13 874 5 375 762 323 970 274 131 490 360 3 603 4 654 1564 399 469 290 264 3 1 160 3 148 442 261 95 99 28 6 7 134 267 635 545 102 3 251 1141 3 8 332 15 378 1978 378 188 1712 3 256 995 6 100 921 3 3 160 4 270 247 357 159 2 389 637 10 794 953 294 7 312 5 10 54 340 239 474 4 762 2 555 260 937 397 264 1 7 4 314 723 102 1 13 152 299 260 553 264 3 361 88 3 316 5 418 102 173 130 288 203 158 81 8 12 73 22 3 200 419 1 558 20 676 764 4 163 104 61 249 1 324 2 526 259 12 4 3 355 545 301 244 569 321 3 234 5 456 308 696 385 1076 102 32 365 1135 99 165 372 5012 2 301 8 264 255 492 401 217 331 179 312 212 57 22 4 227 122 717 4 177 366 35 1789 186 421 2 470 68 271 374 16 546 24 573 454 26 258 249 21 228 477 190 219 290 147 717 683 4 288 519 3 32 1182 216 454 129 18 3 1098 394 462 130 102 3 311 3 826 162 1436 329 5 4 300 94 241 18 177 5 249 236 16 172 28 467 296 3 463 260 216 251 1300 182 326 219 4 364 10 913 193 555 186 241 906 234 229 486 2 328 286 3 692 252 308 473 1 141 386 4 3 2 447 4 377 463 434 32 1306 421 4 722 82 2772 626 1375 3 287 1009 653 1120 11 179 134 941 181 111 1 44 976 23 847 785 9 2 301 4 136 362 3 3 122 172 7 1704 3 328 146 960 399 250 4 397 957 2158 370 162 2 5 56 1 323 846 5 352 421 240 142 463 0 5 301 234 557 497 446 1049 135 678 44 3 190 68 3 6 5 2 5 1259 288 4 3 185 0 3 36 432 195 840 745 355 139 170 2 439 2 703 320 881 10 39 1248 4 679 198 20 3 527 196 1134 3 160 976 178 168 6 4 621 68 289 311 520 6 4 172 380 640 420 1334 404 114 240 166 969 490 133 64 356 5 66 3 261 100 533 206 110 3 4 1030 2 869 967 5 86 669 1064 401 287 323 160 1054 4 145 1049 1 3 280 3 1256 483 4 5 5 208 968 576 8 12 176 460 1119 1194 330 1463 767 1012 238 6 2 1659 996 10 232 260 1067 2 4 102 434 7833 553 269 149 2 1524 115 1883 229 196 369 3 1071 3 586 684 4 209 4 1 68 7 419 4 176 190 2 5 1605 127 290 400 958 237 1479 646 418 3 71 405 7 277 2 62 1117 1049 1 87 136 8 4 982 450 1 97 501 392 10922 558 151 130 141 2 316 313 177 10 154 6 578 1166 246 478 534 587 5 409 7 1629 6 180 459 7 3 407 245 241 6 56 361 4 295 985 11 40 432 4 11 10 239 7 22 16 482 690 5 1149 280 912 494 468 285 3225 624 72 176 1167 123 612 646 208 68 1135 360 570 227 992 39 8 354 3 156 487 4 1024 12 839 7 819 169 927 7 3 747 5 7 138 712 596 145 3 308 238 77 514 260 333 3 6 397 334 928 511 532 644 982 336 419 383 320 329 434 138 2 3 8 212 2 2085 220 865 348 4 145 2 90 126 6 589 2156 3 345 245 38 472 653 1 3 1010 187 22 100 126 411 6 461 3277 461 3 32 311 1 115 603 338 6 676 47 203 463 3 3 211 899 378 639 529 299 862 287 342 132 257 217 512 132 239 466 93 147 5 417 380 48 4 19 4 7 234 377 6 0 257 220 192 1160 326 306 7 420 304 6 179 109 910 446 636 1698 481 804 172 152 787 5 136 1133 5 2 60 10 739 324 4 600 5 195 732 119 824 3 268 10 228 555 73 488 295 166 4 2 264 10 410 649 11 149 224 594 7 570 117 137 8 3 3 1181 904 2 133 380 900 519 7 5 504 154 1212 2 0 1516 2 138 2 8 437 393 684 502 246 190 158 550 994 101 186 4 54 226 926 249 204 335 327 639 627 17 17 929 519 1272 0 265 189 5 4 1476 259 201 175 4 399 1462 299 113 139 9 848 1 475 564 158 4 5 760 73 33 3 612 4 576 1151 3 2 2338 427 1081 6 1899 222 250 235 261 196 197 2 783 147 2 150 103 1 3 456 3 4 68 1286 219 95 320 17 496 21 714 4 3 959 31 3 5 479 217 992 239 7 162 3 4 3 177 48 189 1367 3 5 317 1938 1155 531 8 403 425 247 125 28 205 1100 4 57 335 391 320 126 510 274 720 788 2 158 235 2 253 354 97 1126 299 110 1466 4 40 6 9 183 423 414 633 58 5 3 394 245 166 101 153 156 825 827 1628 10 5 409 158 598 368 196 795 650 218 377 1 403 2 691 589 4 12 89 251 6 887 2 88 324 501 307 21 60 2 415 853 803 190 98 239 605 5 7 102 3 172 775 323 1194 382 527 17 68 3 4 140 515 495 472 373 3 207 242 32 12 191 9 410 108 3 505 239 27 8 3 98 265 201 2 253 230 3 502 4 399 566 16463 456 253 155 49 1 381 63 5 4 146 2 132 136 404 13 550 983 55 4 1 119 409 3 3 369 227 138 406 805 4 460 4 6 527 6 14 15 89 492 3 860 151 3 3 290 272 351 442 690 236 175 3 1387 487 877 359 482 183 366 5 13 5 511 397 112 3 275 383 600 4 569 1981 1 274 581 3 376 234 390 20 258 101 50 68 410 123 32 62 319 3 82 5 724 3 5 322 160 4 543 619 4 13 19 171 25 6 19 292 309 29 6 162 193 3 4 4 2 191 2 192 550 26 443 3 243 164 241 772 169 4 468 3 317 527 165 262 542 11 217 6 7 340 5 885 209 698 1986 616 127 447 12 1063 252 430 536 207 378 583 4 99 7 498 613 383 406 695 946 303 448 531 7 148 458 4 11 3 296 3 4 325 7 363 161 12 87 1472 297 1669 246 125 5 643 331 6 9 426 191 423 4 7 177 174 714 451 137 331 1252 498 433 3 147 251 12 5 573 1 4 7 408 570 728 223 22 2 191 4 102 692 3 82 149 1347 857 186 258 62 3 504 2 507 3 5 217 197 114 318 13 229 3 11 445 14 2 150 533 4 13 2 690 262 174 3 5 171 862 539 10 501 4 253 977 7 797 992 18 4 2 629 796 519 377 381 65 472 360 4 209 2449 1503 2 211 2918 644 699 403 157 441 4 185 670 192 109 203 33 474 65 260 7 3 332 3 443 131 6 11 278 427 18 218 12 40 9 792 171 6 18 10 865 202 423 492 1 4 2 475 301 465 1173 228 715 973 511 239 190 86 171 11 181 180 179 195 453 167 901 388 222 221 2 622 975 858 437 331 134 1122 481 139 3 195 439 1281 6 4 1238 4 428 763 1317 1069 2 3 1241 568 432 1096 361 1330 2 135 10 335 2 137 430 7 9 7 564 84 3 127 8 21 284 375 848 135 2 631 184 199 6 96 23 71 570 202 473 414 739 511 367 3 150 100 816 451 269 758 8 120 213 2 267 8 1146 10 1468 576 10 100 287 7 603 1142 4 159 298 92 204 3 532 550 13 4 507 46 134 155 375 286 423 230 421 968 11 1006 210 203 296 696 106 82 10 4 375 456 4 3 366 537 622 347 135 193 3 5 4 101 90 522 4 324 229 780 4 880 172 7 515 611 320 666 421 474 272 4 490 17 258 183 216 106 204 281 121 743 658 170 338 6 105 512 4 564 337 1 171 157 81 4 2 316 216 1 281 4 243 161 4 187 2 3 99 6 202 1631 10 82 1260 3 8 398 10 2 208 686 304 109 176 102 3 13 812 285 10 4 3 2 1 553 98 149 202 4 230 165 220 1 4 19 493 114 152 440 485 18 243 7 3 24 143 7 614 5 6 744 277 239 11 439 10 1 450 206 485 139 445 489 4 5 124 15 473 1 2 4 280 230 824 3 1242 115 270 349 264 929 236 5 6 240 824 0 222 225 5 4 1322 327 404 4 512 1835 113 109 220 2 1135 3 778 3 143 247 8 471 7 79 514 4 236 831 3 1 1 3 2 609 4 404 358 234 4 262 4 6 58 4 362 105 309 299 672 696 459 217 12 361 8 162 979 5 1 69 7 188 719 172 633 429 423 2 299 126 1386 859 261 4 960 3 18 69 274 628 2 317 181 143 391 3 7 451 270 127 357 2 491 4860 114 117 873 164 845 323 4 273 1035 223 912 216 307 264 5 258 73 7 8 2 2 4 3 2 1700 5 723 1 127 348 280 4 98 317 13 5 234 2 2 3 597 3 62 1470 663 3 261 394 1 94 919 10 275 606 2 462 763 2 701 517 96 2 2 385 751 5 183 259 229 143 165 424 272 586 265 679 491 4 0 43 142 248 815 376 353 1169 512 84 89 2 510 46 308 189 410 313 1270 439 729 776 638 750 1002 136 523 3044 739 10 223 143 634 114 983 398 1104 137 223 490 831 469 501 401 12 2 2 974 1285 5 855 41 236 2 144 559 434 88 194 1352 325 288 294 0 3 261 1186 3 228 192 822 681 565 145 889 489 1123 3 579 1821 9 172 4 3 1810 1334 7 194 528 126 1820 222 326 7 358 218 6 3 341 680 44 
To predecode: 0
Predecoding something: 0
Predecode request dropped: 0
sizeofblock_0 0
sizeofblock_1 221523
sizeofblock_2 210333
sizeofblock_3 0
sizeofblock_4 0
sizeofblock_5 0
sizeofblock_6 0
sizeofblock_7 0
sizeofblock_8 0
Variant_0 Correct: 1388299 Incorrect: 0 Accuracy: 1
Variant_1 Correct: 5432256 Incorrect: 0 Accuracy: 1
Variant_2 Correct: 0 Incorrect: 0 Accuracy: -nan
Variant_3 Correct: 0 Incorrect: 0 Accuracy: -nan
