
*** ChampSim Multicore Out-of-Order Simulator ***

Warmup Instructions: 50000000
Simulation Instructions: 50000000
Number of CPUs: 1
LLC sets: 2048
LLC ways: 16
Off-chip DRAM Size: 4096 MB Channels: 1 Width: 64-bit Data Rate: 6400 MT/s
CPU 0 runs ./micro_traces/srv212.trace.gz
.gz
ITLB has LRU replacement policy
DTLB has LRU replacement policy
STLB has LRU replacement policy
FDIP Prefetcher at L1I
L1I has LRU replacement policy
L1D has LRU replacement policy
Initialize SRRIP state for L2C
Initialize DRRIP state for LLC
Heartbeat_Variant_0 : 1327 0.161987 per_variant_size: 0 1327 0 0 0 0 0 0 0 
Heartbeat_Variant_1 : 2855 0.348511 per_variant_size: 0 1197 1658 0 0 0 0 0 0 
Heartbeat_Variant_2 : 0 0 per_variant_size: 0 0 0 0 0 0 0 0 0 
Heartbeat_Variant_3 : 0 0 per_variant_size: 0 0 0 0 0 0 0 0 0 
Heartbeat_Variant_0_evicts 0 : 5549 1 : 1 2 : 0 3 : 0 
Heartbeat_Variant_1_evicts 0 : 0 1 : 0 2 : 0 3 : 0 
Heartbeat_Variant_2_evicts 0 : 0 1 : 0 2 : 0 3 : 0 
Heartbeat_Variant_3_evicts 0 : 0 1 : 0 2 : 0 3 : 0 
Heartbeat CPU 0 instructions: 10000003 cycles: 2797569 heartbeat IPC: 3.57453 cumulative IPC: 3.57453 (Simulation time: 0 hr 2 min 16 sec) 
Heartbeat_Variant_0 : 1364 0.166504 per_variant_size: 0 1364 0 0 0 0 0 0 0 
Heartbeat_Variant_1 : 2962 0.361572 per_variant_size: 0 1215 1747 0 0 0 0 0 0 
Heartbeat_Variant_2 : 0 0 per_variant_size: 0 0 0 0 0 0 0 0 0 
Heartbeat_Variant_3 : 0 0 per_variant_size: 0 0 0 0 0 0 0 0 0 
Heartbeat_Variant_0_evicts 0 : 5687 1 : 0 2 : 0 3 : 0 
Heartbeat_Variant_1_evicts 0 : 0 1 : 0 2 : 0 3 : 0 
Heartbeat_Variant_2_evicts 0 : 0 1 : 0 2 : 0 3 : 0 
Heartbeat_Variant_3_evicts 0 : 0 1 : 0 2 : 0 3 : 0 
Heartbeat CPU 0 instructions: 20000000 cycles: 5594070 heartbeat IPC: 3.5759 cumulative IPC: 3.57521 (Simulation time: 0 hr 4 min 14 sec) 
Heartbeat_Variant_0 : 1420 0.17334 per_variant_size: 0 1420 0 0 0 0 0 0 0 
Heartbeat_Variant_1 : 3075 0.375366 per_variant_size: 0 1236 1839 0 0 0 0 0 0 
Heartbeat_Variant_2 : 0 0 per_variant_size: 0 0 0 0 0 0 0 0 0 
Heartbeat_Variant_3 : 0 0 per_variant_size: 0 0 0 0 0 0 0 0 0 
Heartbeat_Variant_0_evicts 0 : 5542 1 : 1 2 : 0 3 : 0 
Heartbeat_Variant_1_evicts 0 : 0 1 : 0 2 : 0 3 : 0 
Heartbeat_Variant_2_evicts 0 : 0 1 : 0 2 : 0 3 : 0 
Heartbeat_Variant_3_evicts 0 : 0 1 : 0 2 : 0 3 : 0 
Heartbeat CPU 0 instructions: 30000003 cycles: 8389566 heartbeat IPC: 3.57718 cumulative IPC: 3.57587 (Simulation time: 0 hr 6 min 40 sec) 
Heartbeat_Variant_0 : 1422 0.173584 per_variant_size: 0 1422 0 0 0 0 0 0 0 
Heartbeat_Variant_1 : 3091 0.377319 per_variant_size: 0 1242 1849 0 0 0 0 0 0 
Heartbeat_Variant_2 : 0 0 per_variant_size: 0 0 0 0 0 0 0 0 0 
Heartbeat_Variant_3 : 0 0 per_variant_size: 0 0 0 0 0 0 0 0 0 
Heartbeat_Variant_0_evicts 0 : 5558 1 : 1 2 : 0 3 : 0 
Heartbeat_Variant_1_evicts 0 : 0 1 : 0 2 : 0 3 : 0 
Heartbeat_Variant_2_evicts 0 : 0 1 : 0 2 : 0 3 : 0 
Heartbeat_Variant_3_evicts 0 : 0 1 : 0 2 : 0 3 : 0 
Heartbeat CPU 0 instructions: 40000002 cycles: 11187372 heartbeat IPC: 3.57423 cumulative IPC: 3.57546 (Simulation time: 0 hr 8 min 55 sec) 
Heartbeat_Variant_0 : 1424 0.173828 per_variant_size: 0 1424 0 0 0 0 0 0 0 
Heartbeat_Variant_1 : 3102 0.378662 per_variant_size: 0 1239 1863 0 0 0 0 0 0 
Heartbeat_Variant_2 : 0 0 per_variant_size: 0 0 0 0 0 0 0 0 0 
Heartbeat_Variant_3 : 0 0 per_variant_size: 0 0 0 0 0 0 0 0 0 
Heartbeat_Variant_0_evicts 0 : 5522 1 : 0 2 : 0 3 : 0 
Heartbeat_Variant_1_evicts 0 : 0 1 : 0 2 : 0 3 : 0 
Heartbeat_Variant_2_evicts 0 : 0 1 : 0 2 : 0 3 : 0 
Heartbeat_Variant_3_evicts 0 : 0 1 : 0 2 : 0 3 : 0 
Heartbeat CPU 0 instructions: 50000000 cycles: 13983053 heartbeat IPC: 3.57695 cumulative IPC: 3.57576 (Simulation time: 0 hr 10 min 58 sec) 

Warmup complete CPU 0 instructions: 50000004 cycles: 13983054 (Simulation time: 0 hr 10 min 58 sec) 

Cycle: 20000000 FTQ IN: 58287922 FTQ occupancy: 20.0521 DECODE IN: 58287859 DECODE occupancy: 52.3603 ROB IN: 58287799 ROB occupancy: 315.788 ROB OUT: 58287447
Heartbeat_Variant_0 : 1424 0.173828 per_variant_size: 0 1424 0 0 0 0 0 0 0 
Heartbeat_Variant_1 : 3102 0.378662 per_variant_size: 0 1254 1848 0 0 0 0 0 0 
Heartbeat_Variant_2 : 0 0 per_variant_size: 0 0 0 0 0 0 0 0 0 
Heartbeat_Variant_3 : 0 0 per_variant_size: 0 0 0 0 0 0 0 0 0 
Heartbeat_Variant_0_evicts 0 : 5682 1 : 0 2 : 0 3 : 0 
Heartbeat_Variant_1_evicts 0 : 0 1 : 0 2 : 0 3 : 0 
Heartbeat_Variant_2_evicts 0 : 0 1 : 0 2 : 0 3 : 0 
Heartbeat_Variant_3_evicts 0 : 0 1 : 0 2 : 0 3 : 0 
Heartbeat CPU 0 instructions: 60000001 cycles: 21240415 heartbeat IPC: 1.37791 cumulative IPC: 1.37791 (Simulation time: 0 hr 13 min 21 sec) 
Heartbeat_Variant_0 : 1424 0.173828 per_variant_size: 0 1424 0 0 0 0 0 0 0 
Heartbeat_Variant_1 : 3103 0.378784 per_variant_size: 0 1254 1849 0 0 0 0 0 0 
Heartbeat_Variant_2 : 0 0 per_variant_size: 0 0 0 0 0 0 0 0 0 
Heartbeat_Variant_3 : 0 0 per_variant_size: 0 0 0 0 0 0 0 0 0 
Heartbeat_Variant_0_evicts 0 : 5720 1 : 0 2 : 0 3 : 0 
Heartbeat_Variant_1_evicts 0 : 1 1 : 0 2 : 0 3 : 0 
Heartbeat_Variant_2_evicts 0 : 0 1 : 0 2 : 0 3 : 0 
Heartbeat_Variant_3_evicts 0 : 0 1 : 0 2 : 0 3 : 0 
Heartbeat CPU 0 instructions: 70000002 cycles: 28412360 heartbeat IPC: 1.39432 cumulative IPC: 1.38607 (Simulation time: 0 hr 15 min 56 sec) 
Cycle: 30000000 FTQ IN: 13918778 FTQ occupancy: 13.1183 DECODE IN: 13918775 DECODE occupancy: 34.6853 ROB IN: 13918835 ROB occupancy: 239.887 ROB OUT: 13919187
Heartbeat_Variant_0 : 1426 0.174072 per_variant_size: 0 1426 0 0 0 0 0 0 0 
Heartbeat_Variant_1 : 3107 0.379272 per_variant_size: 0 1254 1853 0 0 0 0 0 0 
Heartbeat_Variant_2 : 0 0 per_variant_size: 0 0 0 0 0 0 0 0 0 
Heartbeat_Variant_3 : 0 0 per_variant_size: 0 0 0 0 0 0 0 0 0 
Heartbeat_Variant_0_evicts 0 : 5601 1 : 0 2 : 0 3 : 0 
Heartbeat_Variant_1_evicts 0 : 0 1 : 0 2 : 0 3 : 0 
Heartbeat_Variant_2_evicts 0 : 0 1 : 0 2 : 0 3 : 0 
Heartbeat_Variant_3_evicts 0 : 0 1 : 0 2 : 0 3 : 0 
Heartbeat CPU 0 instructions: 80000003 cycles: 35710070 heartbeat IPC: 1.37029 cumulative IPC: 1.38077 (Simulation time: 0 hr 18 min 36 sec) 
Cycle: 40000000 FTQ IN: 13698432 FTQ occupancy: 13.1025 DECODE IN: 13698498 DECODE occupancy: 34.4858 ROB IN: 13698498 ROB occupancy: 239.624 ROB OUT: 13698473
Heartbeat_Variant_0 : 1467 0.179077 per_variant_size: 0 1467 0 0 0 0 0 0 0 
Heartbeat_Variant_1 : 3178 0.387939 per_variant_size: 0 1248 1930 0 0 0 0 0 0 
Heartbeat_Variant_2 : 0 0 per_variant_size: 0 0 0 0 0 0 0 0 0 
Heartbeat_Variant_3 : 0 0 per_variant_size: 0 0 0 0 0 0 0 0 0 
Heartbeat_Variant_0_evicts 0 : 5636 1 : 2 2 : 0 3 : 0 
Heartbeat_Variant_1_evicts 0 : 1 1 : 0 2 : 0 3 : 0 
Heartbeat_Variant_2_evicts 0 : 0 1 : 0 2 : 0 3 : 0 
Heartbeat_Variant_3_evicts 0 : 0 1 : 0 2 : 0 3 : 0 
Heartbeat CPU 0 instructions: 90000003 cycles: 42935688 heartbeat IPC: 1.38396 cumulative IPC: 1.38157 (Simulation time: 0 hr 21 min 4 sec) 
Cycle: 50000000 FTQ IN: 13779829 FTQ occupancy: 13.1396 DECODE IN: 13779829 DECODE occupancy: 34.437 ROB IN: 13779829 ROB occupancy: 239.171 ROB OUT: 13779577
Heartbeat_Variant_0 : 1468 0.179199 per_variant_size: 0 1468 0 0 0 0 0 0 0 
Heartbeat_Variant_1 : 3177 0.387817 per_variant_size: 0 1258 1919 0 0 0 0 0 0 
Heartbeat_Variant_2 : 0 0 per_variant_size: 0 0 0 0 0 0 0 0 0 
Heartbeat_Variant_3 : 0 0 per_variant_size: 0 0 0 0 0 0 0 0 0 
Heartbeat_Variant_0_evicts 0 : 5649 1 : 1 2 : 0 3 : 0 
Heartbeat_Variant_1_evicts 0 : 0 1 : 0 2 : 0 3 : 0 
Heartbeat_Variant_2_evicts 0 : 0 1 : 0 2 : 0 3 : 0 
Heartbeat_Variant_3_evicts 0 : 0 1 : 0 2 : 0 3 : 0 
Heartbeat CPU 0 instructions: 100000000 cycles: 50224447 heartbeat IPC: 1.37198 cumulative IPC: 1.37964 (Simulation time: 0 hr 23 min 26 sec) 
Finished CPU 0 instructions: 50000000 cycles: 36241394 cumulative IPC: 1.37964 (Simulation time: 0 hr 23 min 26 sec) 

ChampSim completed all CPUs

Region of Interest Statistics

CPU 0 cumulative IPC: 1.37964 instructions: 50000000 cycles: 36241394
 Fetch stage stalled: 53.1789  Sim cycles: 36241394 fetch stall cycle: 19272773
 Empty decode stage: 33.7989  Sim cycles: 36241394 fetch stall cycle: 12249180
ITLB TOTAL     ACCESS:    5859425  HIT:    5369494  MISS:     489931  HIT %:    91.6386  MISS %:    8.36142   MPKI: 9.79862
ITLB LOAD TRANSLATION INSTRUCTION	ACCESS:    5734911  HIT:    5244980  MISS:     489931  HIT %:     91.457  MISS %:    8.54296  MPKI: 9.79862
ITLB TRANSLATION FROM L1D PREFETCHER INSTRUCTION	ACCESS:     124514  HIT:     124514  MISS:          0  HIT %:        100  MISS %:          0  MPKI: 0

ITLB AVERAGE MISS LATENCY: 9.05976 cycles
ITLB RQ	ACCESS:    7995991	FORWARD:          0	MERGED:    1695831	TO_CACHE:    6300160

DTLB TOTAL     ACCESS:    8967330  HIT:    8498480  MISS:     468850  HIT %:    94.7716  MISS %:    5.22842   MPKI: 9.377
DTLB LOAD TRANSLATION DATA	ACCESS:    8967330  HIT:    8498480  MISS:     468850  HIT %:    94.7716  MISS %:    5.22842  MPKI: 9.377

DTLB AVERAGE MISS LATENCY: 9.3435 cycles
DTLB RQ	ACCESS:   13335795	FORWARD:          0	MERGED:    4331899	TO_CACHE:    9003896

STLB TOTAL     ACCESS:    1212398  HIT:    1210458  MISS:       1940  HIT %:      99.84  MISS %:   0.160013   MPKI: 0.0388
STLB LOAD TRANSLATION INSTRUCTION	ACCESS:     489931  HIT:     489717  MISS:        214  HIT %:    99.9563  MISS %:  0.0436796  MPKI: 0.00428
STLB LOAD TRANSLATION DATA	ACCESS:     468850  HIT:     467144  MISS:       1706  HIT %:    99.6361  MISS %:   0.363869  MPKI: 0.03412
STLB TRANSLATION FROM L1D PREFETCHER DATA	ACCESS:     253617  HIT:     253597  MISS:         20  HIT %:    99.9921  MISS %: 0.00788591  MPKI: 0.0004

STLB AVERAGE MISS LATENCY: 82.0479 cycles
STLB RQ	ACCESS:    1334963	FORWARD:          0	MERGED:     122528	TO_CACHE:    1212435

STLB Hit, L1D data hit: 0
STLB Hit, L2C data hit: 0
STLB Hit, LLC data hit: 0
STLB Hit, LLC data miss: 0
STLB STLB hints to L2: 0
L1D TOTAL     ACCESS:   13094437  HIT:   11983006  MISS:    1111431  HIT %:    91.5122  MISS %:    8.48781   MPKI: 22.2286
L1D LOAD DATA	ACCESS:    6557990  HIT:    5827429  MISS:     730561  HIT %:      88.86  MISS %:      11.14  MPKI: 14.6112
L1D RFO DATA	ACCESS:    6201689  HIT:    5915106  MISS:     286583  HIT %:     95.379  MISS %:    4.62105  MPKI: 5.73166
L1D PREFETCH DATA	ACCESS:     334758  HIT:     240471  MISS:      94287  HIT %:    71.8343  MISS %:    28.1657  MPKI: 1.88574

L1D PREFETCH  REQUESTED:     752707  ISSUED:     752707  USEFUL:      34537  USELESS:      68304
L1D USEFUL LOAD PREFETCHES:      34537 PREFETCH ISSUED TO LOWER LEVEL:     102889  ACCURACY: 33.5672
 TIMELY PREFETCHES:      34537 LATE PREFETCHES: 8518 DROPPED PREFETCHES: 9
L1D AVERAGE MISS LATENCY: 250973 cycles
L1D RQ	ACCESS:   10707977	FORWARD:          0	MERGED:    3952710	TO_CACHE:    6592005
L1D WQ	ACCESS:    6939568	FORWARD:     163605	MERGED:     195778	TO_CACHE:    6743790
L1D PQ	ACCESS:     376525	FORWARD:          0	MERGED:          0	TO_CACHE:     376182

L1D UNIQUE REGIONS ACCESSED: 0
L1D REGIONS CONFLICTS: 0
L1D Cross Page Prefetch Requests: 6985
L1D Same Page Prefetch Requests: 755924
L1D ROI Sum of L1D PQ occupancy: 4786147
L1D PREFETCHES PUSHED FROM L2C: 0
L1I TOTAL     ACCESS:    7158277  HIT:    4412208  MISS:    2746069  HIT %:    61.6378  MISS %:    38.3622   MPKI: 54.9214
L1I LOAD INSTRUCTION	ACCESS:    6493265  HIT:    3747196  MISS:    2746069  HIT %:     57.709  MISS %:     42.291  MPKI: 54.9214
L1I PREFETCH INSTRUCTION	ACCESS:     665012  HIT:     665012  MISS:          0  HIT %:        100  MISS %:          0  MPKI: 0

L1I PREFETCH  REQUESTED:    1610311  ISSUED:    1610311  USEFUL:          0  USELESS:          0
L1I USEFUL LOAD PREFETCHES:          0 PREFETCH ISSUED TO LOWER LEVEL:          0  ACCURACY: -nan
 TIMELY PREFETCHES:          0 LATE PREFETCHES: 0 DROPPED PREFETCHES: 0
L1I AVERAGE MISS LATENCY: 17.1204 cycles
L1I RQ	ACCESS:    9501301	FORWARD:          0	MERGED:    2685715	TO_CACHE:    6815586
L1I PQ	ACCESS:    1610311	FORWARD:          0	MERGED:     429906	TO_CACHE:    1180405

L1BTB TOTAL     ACCESS:    5669357  HIT:    2060736  MISS:    3608621  HIT %:    36.3487  MISS %:    63.6513   MPKI: 72.1724
L1BTB BRANCH_DIRECT_JUMP	ACCESS:     549973 HIT:     146585 MISS:     403388 AVERAGE STALL: 49.2862 AVERAGE FETCH STALL: 13.9091 AVERAGE FETCH QUEUE STALL: 15.6586 AVERAGE DECODE STALL: 18.7844 AVERAGE EXECUTE STALL: 2.3544e+15
L1BTB BRANCH_INDIRECT	ACCESS:     183898 HIT:      66780 MISS:     117118 AVERAGE STALL: 102.102 AVERAGE FETCH STALL: 10.7031 AVERAGE FETCH QUEUE STALL: 14.1471 AVERAGE DECODE STALL: 11.5853 AVERAGE EXECUTE STALL: 64.7062
L1BTB BRANCH_CONDITIONAL	ACCESS:    2722644 HIT:    1434747 MISS:    1287897 AVERAGE STALL: 82.5682 AVERAGE FETCH STALL: 20.4591 AVERAGE FETCH QUEUE STALL: 37.865 AVERAGE DECODE STALL: 23.6213 AVERAGE EXECUTE STALL: 4.16593e+15
L1BTB BRANCH_DIRECT_CALL	ACCESS:     936160 HIT:     104183 MISS:     831977 AVERAGE STALL: 69.6829 AVERAGE FETCH STALL: 30.8841 AVERAGE FETCH QUEUE STALL: 30.3049 AVERAGE DECODE STALL: 7.56707 AVERAGE EXECUTE STALL: 1.1248e+17
L1BTB BRANCH_INDIRECT_CALL	ACCESS:     170255 HIT:      20610 MISS:     149645 AVERAGE STALL: 133.951 AVERAGE FETCH STALL: 12.5854 AVERAGE FETCH QUEUE STALL: 13.0613 AVERAGE DECODE STALL: 10.6842 AVERAGE EXECUTE STALL: 97.1363
L1BTB BRANCH_RETURN	ACCESS:    1106427 HIT:     287831 MISS:     818596 AVERAGE STALL: 45.9693 AVERAGE FETCH STALL: 16.435 AVERAGE FETCH QUEUE STALL: 4.52665 AVERAGE DECODE STALL: 5.46788 AVERAGE EXECUTE STALL: 4.48008e+14
L1BTB BRANCH_OTHER ACCESS:          0 HIT:          0 MISS:          0 AVERAGE STALL: -nan AVERAGE FETCH STALL: -nan AVERAGE FETCH QUEUE STALL: -nan AVERAGE DECODE STALL: -nan AVERAGE EXECUTE STALL: -nan
L1BTB TOTAL ROB OCCUPANCY AT BTB MISS: 2.37574

L2BTB TOTAL     ACCESS:    3582998  HIT:    3522143  MISS:      60855  HIT %:    98.3016  MISS %:    1.69844   MPKI: 1.2171
L2BTB BRANCH_DIRECT_JUMP	ACCESS:     399104 HIT:     395543 MISS:       3561 AVERAGE STALL: 49.2862 AVERAGE FETCH STALL: 13.9091 AVERAGE FETCH QUEUE STALL: 15.6586 AVERAGE DECODE STALL: 18.7844 AVERAGE EXECUTE STALL: 2.3544e+15
L2BTB BRANCH_INDIRECT	ACCESS:     106864 HIT:     104256 MISS:       2608 AVERAGE STALL: 102.102 AVERAGE FETCH STALL: 10.7031 AVERAGE FETCH QUEUE STALL: 14.1471 AVERAGE DECODE STALL: 11.5853 AVERAGE EXECUTE STALL: 64.7062
L2BTB BRANCH_CONDITIONAL	ACCESS:    1287897 HIT:    1283417 MISS:       4480 AVERAGE STALL: 82.5682 AVERAGE FETCH STALL: 20.4591 AVERAGE FETCH QUEUE STALL: 37.865 AVERAGE DECODE STALL: 23.6213 AVERAGE EXECUTE STALL: 4.16593e+15
L2BTB BRANCH_DIRECT_CALL	ACCESS:     831977 HIT:     831799 MISS:        178 AVERAGE STALL: 69.6829 AVERAGE FETCH STALL: 30.8841 AVERAGE FETCH QUEUE STALL: 30.3049 AVERAGE DECODE STALL: 7.56707 AVERAGE EXECUTE STALL: 1.1248e+17
L2BTB BRANCH_INDIRECT_CALL	ACCESS:     139960 HIT:     129732 MISS:      10228 AVERAGE STALL: 133.951 AVERAGE FETCH STALL: 12.5854 AVERAGE FETCH QUEUE STALL: 13.0613 AVERAGE DECODE STALL: 10.6842 AVERAGE EXECUTE STALL: 97.1363
L2BTB BRANCH_RETURN	ACCESS:     817196 HIT:     777396 MISS:      39800 AVERAGE STALL: 45.9693 AVERAGE FETCH STALL: 16.435 AVERAGE FETCH QUEUE STALL: 4.52665 AVERAGE DECODE STALL: 5.46788 AVERAGE EXECUTE STALL: 4.48008e+14
L2BTB BRANCH_OTHER ACCESS:          0 HIT:          0 MISS:          0 AVERAGE STALL: -nan AVERAGE FETCH STALL: -nan AVERAGE FETCH QUEUE STALL: -nan AVERAGE DECODE STALL: -nan AVERAGE EXECUTE STALL: -nan
L2BTB TOTAL ROB OCCUPANCY AT BTB MISS: 140.878

L2C TOTAL     ACCESS:    4464400  HIT:    3995100  MISS:     469300  HIT %:    89.4879  MISS %:    10.5121   MPKI: 9.386
L2C LOAD INSTRUCTION	ACCESS:    2746069  HIT:    2497447  MISS:     248622  HIT %:    90.9463  MISS %:    9.05374  MPKI: 4.97244
L2C LOAD TRANSLATION INSTRUCTION	ACCESS:        247  HIT:         60  MISS:        187  HIT %:    24.2915  MISS %:    75.7085  MPKI: 0.00374
L2C LOAD DATA	ACCESS:     722013  HIT:     642498  MISS:      79515  HIT %:     88.987  MISS %:     11.013  MPKI: 1.5903
L2C RFO DATA	ACCESS:     286472  HIT:     237014  MISS:      49458  HIT %:    82.7355  MISS %:    17.2645  MPKI: 0.98916
L2C PREFETCH DATA	ACCESS:     188584  HIT:     112027  MISS:      76557  HIT %:    59.4043  MISS %:    40.5957  MPKI: 1.53114
L2C WRITEBACK DATA	ACCESS:     519211  HIT:     505581  MISS:      13630  HIT %:    97.3749  MISS %:    2.62514  MPKI: 0.2726
L2C LOAD TRANSLATION DATA	ACCESS:       1761  HIT:        442  MISS:       1319  HIT %:    25.0994  MISS %:    74.9006  MPKI: 0.02638
L2C TRANSLATION FROM L1D PREFETCHER DATA	ACCESS:         43  HIT:         31  MISS:         12  HIT %:     72.093  MISS %:     27.907  MPKI: 0.00024

L2C PREFETCH  REQUESTED:      94318  ISSUED:      94318  USEFUL:       8503  USELESS:      68863
L2C USEFUL LOAD PREFETCHES:       8503 PREFETCH ISSUED TO LOWER LEVEL:      77209  ACCURACY: 11.013
 TIMELY PREFETCHES:       8503 LATE PREFETCHES: 652 DROPPED PREFETCHES: 0
L2C AVERAGE MISS LATENCY: 39.7419 cycles
L2C RQ	ACCESS:    3756665	FORWARD:          0	MERGED:          0	TO_CACHE:    3756608
L2C WQ	ACCESS:     519211	FORWARD:         58	MERGED:          0	TO_CACHE:     519211
L2C PQ	ACCESS:     197207	FORWARD:          0	MERGED:       3748	TO_CACHE:     193458

L2C Dense regions hint from L2: 0
PSCL5 TOTAL     ACCESS:       3900  HIT:       1950  MISS:       1950  HIT %:         50  MISS %:         50   MPKI: 0.039
PSCL5 LOAD TRANSLATION INSTRUCTION	ACCESS:       3814  HIT:       1907  MISS:       1907  HIT %:         50  MISS %:         50  MPKI: 0.03814
PSCL5 TRANSLATION FROM L1D PREFETCHER INSTRUCTION	ACCESS:         86  HIT:         43  MISS:         43  HIT %:         50  MISS %:         50  MPKI: 0.00086


PSCL4 TOTAL     ACCESS:       3849  HIT:       1922  MISS:       1927  HIT %:     49.935  MISS %:     50.065   MPKI: 0.03854
PSCL4 LOAD TRANSLATION INSTRUCTION	ACCESS:       2306  HIT:       1885  MISS:        421  HIT %:    81.7433  MISS %:    18.2567  MPKI: 0.00842
PSCL4 TRANSLATION FROM L1D PREFETCHER INSTRUCTION	ACCESS:         40  HIT:         37  MISS:          3  HIT %:       92.5  MISS %:        7.5  MPKI: 6e-05
PSCL4 LOAD TRANSLATION DATA	ACCESS:       1469  HIT:          0  MISS:       1469  HIT %:          0  MISS %:        100  MPKI: 0.02938
PSCL4 TRANSLATION FROM L1D PREFETCHER DATA	ACCESS:         34  HIT:          0  MISS:         34  HIT %:          0  MISS %:        100  MPKI: 0.00068


PSCL3 TOTAL     ACCESS:       3851  HIT:       1923  MISS:       1928  HIT %:    49.9351  MISS %:    50.0649   MPKI: 0.03856
PSCL3 LOAD TRANSLATION INSTRUCTION	ACCESS:       2307  HIT:       1886  MISS:        421  HIT %:    81.7512  MISS %:    18.2488  MPKI: 0.00842
PSCL3 TRANSLATION FROM L1D PREFETCHER INSTRUCTION	ACCESS:         40  HIT:         37  MISS:          3  HIT %:       92.5  MISS %:        7.5  MPKI: 6e-05
PSCL3 LOAD TRANSLATION DATA	ACCESS:       1470  HIT:          0  MISS:       1470  HIT %:          0  MISS %:        100  MPKI: 0.0294
PSCL3 TRANSLATION FROM L1D PREFETCHER DATA	ACCESS:         34  HIT:          0  MISS:         34  HIT %:          0  MISS %:        100  MPKI: 0.00068


PSCL2 TOTAL     ACCESS:       3807  HIT:       1857  MISS:       1950  HIT %:    48.7786  MISS %:    51.2214   MPKI: 0.039
PSCL2 LOAD TRANSLATION INSTRUCTION	ACCESS:       2032  HIT:       1814  MISS:        218  HIT %:    89.2717  MISS %:    10.7283  MPKI: 0.00436
PSCL2 TRANSLATION FROM L1D PREFETCHER INSTRUCTION	ACCESS:         43  HIT:         43  MISS:          0  HIT %:        100  MISS %:          0  MPKI: 0
PSCL2 LOAD TRANSLATION DATA	ACCESS:       1689  HIT:          0  MISS:       1689  HIT %:          0  MISS %:        100  MPKI: 0.03378
PSCL2 TRANSLATION FROM L1D PREFETCHER DATA	ACCESS:         43  HIT:          0  MISS:         43  HIT %:          0  MISS %:        100  MPKI: 0.00086


LLC TOTAL     ACCESS:     528069  HIT:     497245  MISS:      30824  HIT %:    94.1629  MISS %:    5.83712   MPKI: 0.61648
LLC LOAD INSTRUCTION	ACCESS:     248622  HIT:     247420  MISS:       1202  HIT %:    99.5165  MISS %:   0.483465  MPKI: 0.02404
LLC LOAD TRANSLATION INSTRUCTION	ACCESS:        187  HIT:        149  MISS:         38  HIT %:    79.6791  MISS %:    20.3209  MPKI: 0.00076
LLC LOAD DATA	ACCESS:      78927  HIT:      75337  MISS:       3590  HIT %:    95.4515  MISS %:    4.54851  MPKI: 0.0718
LLC RFO DATA	ACCESS:      49388  HIT:      33656  MISS:      15732  HIT %:    68.1461  MISS %:    31.8539  MPKI: 0.31464
LLC PREFETCH DATA	ACCESS:      77209  HIT:      67465  MISS:       9744  HIT %:    87.3797  MISS %:    12.6203  MPKI: 0.19488
LLC WRITEBACK DATA	ACCESS:      72405  HIT:      71974  MISS:        431  HIT %:    99.4047  MISS %:   0.595263  MPKI: 0.00862
LLC LOAD TRANSLATION DATA	ACCESS:       1319  HIT:       1232  MISS:         87  HIT %:    93.4041  MISS %:    6.59591  MPKI: 0.00174
LLC TRANSLATION FROM L1D PREFETCHER DATA	ACCESS:         12  HIT:         12  MISS:          0  HIT %:        100  MISS %:          0  MPKI: 0

LLC AVERAGE MISS LATENCY: 159.947 cycles
LLC RQ	ACCESS:     378461	FORWARD:          0	MERGED:          0	TO_CACHE:     378455
LLC WQ	ACCESS:      72405	FORWARD:          6	MERGED:          0	TO_CACHE:      72405
LLC PQ	ACCESS:      77209	FORWARD:          0	MERGED:          0	TO_CACHE:      77209

LLC Dense regions hint to LLC: 0

RAW hits: 1935781
Loads Generated: 12643760
Loads sent to L1D: 10707977
Stores Generated: 6939563
Stores sent to L1D: 6939568
Major fault: 0 Minor fault: 2579
Allocated PAGES: 2579

stream: 
stream:times selected: 1198231
stream:pref_filled: 121469
stream:pref_useful: 24115
stream:pref_late: 6639
stream:misses: 8045
stream:misses_by_poll: 0

CS: 
CS:times selected: 181692
CS:pref_filled: 59012
CS:pref_useful: 35628
CS:pref_late: 7784
CS:misses: 17415
CS:misses_by_poll: 7

CPLX: 
CPLX:times selected: 1015379
CPLX:pref_filled: 19079
CPLX:pref_useful: 4481
CPLX:pref_late: 3059
CPLX:misses: 93099
CPLX:misses_by_poll: 0

NL_L1: 
NL:times selected: 21135
NL:pref_filled: 806
NL:pref_useful: 360
NL:pref_late: 277
NL:misses: 1854
NL:misses_by_poll: 0

total selections: 2416437
total_filled: 94287
total_useful: 34537
total_late: 19080
total_polluted: 7
total_misses_after_warmup: 764578
conflicts: 5510908

test: 115119

DRAM Statistics
 CHANNEL 0
 RQ ROW_BUFFER_HIT:      11393  ROW_BUFFER_MISS:      18989
 DBUS_CONGESTED:          9
 WQ ROW_BUFFER_HIT:       1558  ROW_BUFFER_MISS:      13465  FULL:          0

 AVG_CONGESTED_CYCLE: 4

CPU 0 Branch Prediction Accuracy: 99.8178% MPKI: 0.33282 Average ROB Occupancy at Mispredict: 189.892
Branch types
NOT_BRANCH: 40864466 81.7289%
BRANCH_DIRECT_JUMP: 549973 1.09995%
BRANCH_INDIRECT: 183898 0.367796%
BRANCH_CONDITIONAL: 6188726 12.3775%
BRANCH_DIRECT_CALL: 936160 1.87232%
BRANCH_INDIRECT_CALL: 170255 0.34051%
BRANCH_RETURN: 1106427 2.21285%
BRANCH_OTHER: 0 0%

DRAM PAGES: 1048576
Allocated PAGES: 2579
Average_ROB_Occupancy: 240.673
Average_Decode_Occupancy: 34.4982
Average_FTQ_Occupancy: 13.1247
Indirect max targets: 14 Average targets: 1.15512
Branch_type:  BRANCH_DIRECT_JUMP:  Count Percentage: 3.81452 5.04709 4.48423 3.571 4.03112 11.6196 1.39891 66.0336 
Branch_type:  BRANCH_INDIRECT:  Count Percentage: 11.744 3.44635 2.599 7.3176 3.33406 31.1973 3.18579 37.1759 
Branch_type:  BRANCH_CONDITIONAL:  Count Percentage: 21.9856 2.47386 1.54034 3.37032 1.95136 8.1984 0.849434 59.6307 
Branch_type:  BRANCH_DIRECT_CALL:  Count Percentage: 0.390743 1.7301 0.767127 1.94994 3.34003 4.96463 0.82844 86.029 
Branch_type:  BRANCH_INDIRECT_CALL:  Count Percentage: 9.56434 0 2.99583 4.26963 0.000585924 1.71178 1.00281 80.455 
Branch_type:  BRANCH_RETURN:  Count Percentage: 3.95613 1.97998 1.04306 4.53885 2.46794 9.66459 1.26832 75.0811 
Branch_type:  BRANCH_DIRECT_JUMP:  Total Count: 41807 55316 49147 39138 44181 127350 15332 723726 
Branch_type:  BRANCH_INDIRECT:  Total Count: 43090 12645 9536 26849 12233 114466 11689 136402 
Branch_type:  BRANCH_CONDITIONAL:  Total Count: 2718430 305882 190456 416726 241278 1013698 105029 7373081 
Branch_type:  BRANCH_DIRECT_CALL:  Total Count: 7348 32535 14426 36669 62810 93361 15579 1617794 
Branch_type:  BRANCH_INDIRECT_CALL:  Total Count: 32647 0 10226 14574 2 5843 3423 274626 
Branch_type:  BRANCH_RETURN:  Total Count: 87933 44009 23184 100885 54855 214815 28191 1668829 
Number of unique branch instructions: 10259
Upper 32 bits: 
aaaa
ffff
ffff0000
Unique upper 32 bits: 3
Unique upper 36 bits: 3
Unique upper 40 bits: 5
Unique upper 44 bits: 32
Unique upper 48 bits: 157
Variant_0 : 1468 0.179199
Variant_1 : 3177 0.387817
Variant_2 : 0 0
Variant_3 : 0 0
Offset_3 4221
Offset_4 266
Offset_5 472
Offset_6 520
Offset_7 604
Offset_8 534
Offset_9 489
Offset_10 397
Offset_11 324
Offset_12 297
Offset_13 214
Offset_14 231
Offset_15 193
Offset_16 230
Offset_17 156
Offset_18 126
Offset_19 246
Offset_20 144
Offset_21 261
Offset_22 398
Offset_23 241
Offset_24 353
Offset_25 88
Offset_47 86
decode_dispatch_called: 25648482 70.7712
Dispatch_width: 0 13789629 53.7639 38.0494
Dispatch_width: 1 960958 3.74665 2.65155
Dispatch_width: 2 834857 3.255 2.3036
Dispatch_width: 3 494582 1.92831 1.36469
Dispatch_width: 4 5687166 22.1735 15.6925
Dispatch_width: 5 150822 0.588035 0.416159
Dispatch_width: 6 3730468 14.5446 10.2934
Empty_decode_cycles: 10592912 29.2288
ROB_full_cycles: 9076896 25.0457
Starvation_cycles_per_kilo_instr: 234.34
Starvation_cycles_per_kilo_instr_3: 175.96
Starvation_cycles_per_kilo_instr_0: 153.056
Branch_type_1  (3,1)  (4,10)  (5,39)  (6,72)  (7,119)  (8,133)  (9,130)  (10,101)  (11,72)  (12,51)  (13,8)  (14,2)  (15,3)  (16,4)  (18,1)  (19,4)  (20,2)  (21,1)  (22,3)  (23,2)  (24,10)  (25,12) 
Branch_type_2  (3,1)  (5,1)  (8,3)  (9,3)  (12,1)  (13,1)  (14,1)  (16,3)  (17,2)  (20,2)  (21,2)  (23,5)  (24,1)  (47,40) 
Branch_type_3  (3,4219)  (4,256)  (5,428)  (6,432)  (7,452)  (8,336)  (9,269)  (10,160)  (11,133)  (12,59)  (13,7) 
Branch_type_4  (6,4)  (7,8)  (8,26)  (9,55)  (10,63)  (11,62)  (12,102)  (13,91)  (14,103)  (15,92)  (16,103)  (17,71)  (18,57)  (19,119)  (20,74)  (21,141)  (22,213)  (23,136)  (24,203)  (25,72) 
Branch_type_5  (8,2)  (9,1)  (10,4)  (11,5)  (12,3)  (13,14)  (14,16)  (15,11)  (16,20)  (17,11)  (18,16)  (19,13)  (20,11)  (21,13)  (22,42)  (23,26)  (24,41) 
Branch_type_6  (5,4)  (6,12)  (7,25)  (8,34)  (9,31)  (10,69)  (11,52)  (12,81)  (13,93)  (14,109)  (15,87)  (16,100)  (17,72)  (18,52)  (19,110)  (20,55)  (21,104)  (22,140)  (23,72)  (24,98)  (25,4)  (47,46) 
Unique trigger count: 
Variant_0_evicts_0 : 0
Variant_0_evicts_1 : 0
Variant_0_evicts_2 : 0
Variant_0_evicts_3 : 0
Variant_1_evicts_0 : 0
Variant_1_evicts_1 : 0
Variant_1_evicts_2 : 0
Variant_1_evicts_3 : 0
Variant_2_evicts_0 : 0
Variant_2_evicts_1 : 0
Variant_2_evicts_2 : 0
Variant_2_evicts_3 : 0
Variant_3_evicts_0 : 0
Variant_3_evicts_1 : 0
Variant_3_evicts_2 : 0
Variant_3_evicts_3 : 0
BTB PER SET UNIQUE ADDR: 1 4 2 5 3 3 4 2 2 3 4 4 4 4 2 5 2 3 2 1 1 4 3 3 3 3 3 2 3 3 4 3 2 4 2 3 3 3 3 3 3 4 3 3 3 3 3 3 5 3 2 4 4 3 2 4 2 2 2 3 5 3 1 3 5 2 4 2 3 1 4 3 3 5 4 4 3 3 4 4 3 6 5 4 3 5 2 4 3 2 2 2 3 4 3 1 6 3 3 3 3 4 4 5 2 4 3 2 4 5 5 4 2 4 0 0 4 5 2 5 3 3 3 3 5 4 4 5 2 2 3 4 4 3 3 3 4 2 4 3 2 3 2 5 2 5 3 3 4 6 3 1 3 4 3 2 3 2 5 3 1 3 2 4 2 2 0 4 4 5 6 2 4 1 4 5 2 5 3 2 3 3 4 3 2 3 2 6 5 3 3 3 3 4 1 2 3 3 3 3 5 2 3 4 0 5 3 3 4 3 3 5 5 4 4 3 3 2 3 4 2 5 2 3 6 2 3 3 3 3 2 5 4 3 3 5 4 5 2 2 4 3 4 3 4 2 4 2 5 4 2 3 2 2 4 5 3 3 3 3 5 3 4 3 2 2 4 4 4 4 4 3 4 3 6 3 5 1 4 5 5 3 2 4 3 3 5 3 4 2 4 5 3 3 3 4 3 4 3 3 4 1 3 3 4 2 3 3 4 4 4 3 4 3 4 5 2 2 3 6 5 4 3 2 5 5 2 4 1 5 2 4 2 2 3 4 3 5 3 2 2 4 3 3 2 2 2 1 2 3 3 4 3 1 4 5 4 2 1 4 4 4 2 5 2 4 2 2 3 3 3 4 3 4 2 4 2 3 1 4 4 3 3 4 3 4 1 5 4 4 4 3 1 6 2 6 4 4 3 2 5 5 3 3 3 3 3 2 5 3 3 3 1 5 5 2 3 3 3 3 2 1 3 5 3 2 3 4 3 3 5 1 4 3 2 2 3 3 2 3 3 1 5 3 3 1 2 5 4 5 3 1 3 4 3 2 4 4 3 1 3 4 2 4 2 3 5 2 4 4 5 3 5 4 4 4 1 3 2 5 3 2 4 4 2 1 3 3 4 2 3 5 3 3 4 6 3 2 1 3 3 3 3 3 2 5 3 1 3 4 3 3 3 4 1 4 4 2 4 4 5 5 3 4 4 3 0 2 2 4 4 3 4 2 4 4 1 3 3 4 3 4 3 3 4 4 5 3 2 1 1 5 3 5 4 4 4 2 2 3 1 3 4 3 4 1 4 3 4 2 3 2 0 1 4 4 3 2 4 4 1 4 4 3 4 3 2 2 4 3 3 4 2 2 1 3 3 4 3 3 4 3 2 3 3 3 4 1 4 3 5 3 3 4 1 3 4 4 3 3 4 1 4 4 3 6 3 4 3 2 2 2 5 3 2 3 3 3 4 3 3 6 1 3 2 5 3 3 5 2 2 2 3 3 3 3 3 1 3 2 1 3 3 2 3 1 4 3 4 5 3 2 4 5 4 5 2 4 4 3 3 4 2 3 5 3 2 6 5 2 4 3 2 3 2 4 5 1 5 5 4 2 3 2 4 4 2 2 4 4 5 2 2 3 2 2 4 4 3 3 4 4 3 4 3 4 5 4 2 4 3 2 5 3 2 3 3 4 2 3 2 5 5 4 3 2 5 2 4 5 4 4 3 3 3 5 2 1 2 4 5 4 5 3 3 5 3 3 2 4 4 2 1 3 5 2 4 3 1 2 3 3 4 2 3 3 3 3 4 4 4 2 4 4 3 4 5 1 2 4 3 4 5 3 2 4 2 3 5 5 3 2 1 2 3 4 4 2 3 3 5 2 5 5 3 2 4 3 3 4 4 5 3 5 4 4 4 4 4 4 0 5 3 4 3 4 4 3 3 2 4 5 3 1 5 4 3 3 2 4 3 6 3 4 6 3 3 1 3 3 5 2 3 5 4 4 3 3 3 4 5 5 4 3 3 3 4 2 3 1 5 2 1 1 2 5 3 5 5 1 3 2 4 2 3 1 4 4 4 3 5 3 3 4 4 5 2 4 4 2 3 1 3 3 4 4 5 3 3 3 2 5 4 2 3 2 3 2 2 3 4 4 6 3 4 1 2 2 5 4 4 5 4 2 4 3 4 3 3 2 3 3 4 4 3 1 5 2 2 5 4 1 2 5 3 4 4 3 4 2 3 3 3 5 5 1 3 3 4 3 2 1 2 5 4 3 2 3 2 5 4 3 3 5 4 4 3 4 2 3 4 5 4 5 4 3 4 4 3 3 2 2 4 4 4 3 4 5 4 3 2 2 3 3 3 3 5 3 1 3 3 3 3 5 6 2 2 4 3 3 3 3 4 2 2 4 5 4 2 3 4 3 4 3 2 3 3 3 5 3 2 5 4 5 4 5 3 4 3 2 5 2 3 2 3 2 3 2 1 2 4 5 2 5 4 4 3 3 3 3 5 3 5 4 3 3 2 3 3 2 2 5 5 1 3 5 6 4 4 4 3 2 3 4 4 3 3 3 3 1 5 4 6 3 3 2 3 2 4 4 4 6 3 2 2 2 2 4 4 4 4 4 2 3 1 3 5 3 3 1 4 4 5 4 4 2 5 4 4 3 6 3 4 5 2 3 3 3 2 4 3 1 3 3 4 4 5 2 2 4 4 3 3 0 5 3 4 3 3 1 4 2 2 3 3 4 3 2 5 3 3 4 3 3 2 4 4 3 4 4 5 1 3 4 3 4 2 6 5 1 4 2 4 4 4 4 2 4 4 4 3 3 5 3 4 2 4 5 1 4 3 5 3 2 2 4 2 4 3 5 3 4 3 5 4 4 5 3 3 4 4 4 6 2 3 4 2 2 3 4 5 6 3 5 4 2 5 1 4 4 4 3 3 3 2 4 4 5 4 3 2 4 5 4 4 3 3 2 4 4 4 5 5 3 4 3 3 3 3 2 4 3 3 1 3 2 3 4 5 3 2 4 5 2 3 3 4 3 4 2 4 5 2 3 4 5 3 3 5 3 3 2 3 5 3 3 4 1 5 3 4 3 2 4 2 2 5 3 3 6 4 4 2 4 4 5 2 4 3 4 2 1 4 2 4 4 3 4 2 3 3 2 2 4 2 4 3 3 2 3 4 3 4 3 5 3 3 4 3 3 3 4 5 6 4 2 1 2 2 3 4 3 3 4 4 2 2 5 3 5 2 2 2 4 2 2 4 4 5 3 4 5 3 2 3 4 3 3 4 4 3 3 2 2 2 3 2 3 4 6 4 4 4 3 5 3 3 5 4 5 1 2 4 2 5 1 3 4 5 4 4 5 5 4 5 3 4 4 5 4 3 4 2 3 3 4 2 3 3 1 3 2 4 5 4 2 2 3 4 3 6 4 2 4 2 4 4 4 2 5 4 2 2 5 4 2 4 3 4 1 2 5 4 1 4 5 4 2 1 3 6 3 4 3 2 2 2 2 2 2 2 4 2 3 4 3 5 3 3 4 3 4 4 3 3 3 3 5 5 6 4 2 4 3 3 3 4 2 5 5 3 2 3 2 4 3 2 3 3 4 6 3 3 3 5 1 4 2 3 4 5 3 3 3 5 3 3 5 3 2 5 3 3 1 3 3 3 3 3 5 5 2 2 3 2 3 2 1 2 3 2 2 4 5 3 3 4 4 2 4 3 4 3 2 4 5 2 2 5 3 4 3 4 1 5 3 3 3 5 3 4 4 2 5 2 2 2 3 2 2 5 3 3 2 4 2 3 2 4 5 3 2 4 1 1 2 6 5 4 4 2 4 2 2 2 3 2 3 3 4 2 5 4 0 3 3 3 1 2 3 4 0 6 2 1 3 4 3 3 5 1 4 3 4 4 4 5 3 3 1 3 4 4 5 4 2 4 6 5 4 6 3 5 5 1 6 4 5 4 3 3 4 4 3 3 3 1 1 3 3 3 3 1 6 3 2 5 3 2 2 4 5 5 2 2 5 4 4 3 5 3 5 3 5 4 3 5 3 2 2 3 2 3 2 3 4 4 5 3 3 5 3 1 4 1 2 4 2 3 1 3 4 3 2 5 1 3 4 1 3 1 2 2 4 3 4 4 3 2 2 3 6 5 1 4 3 3 3 3 2 5 1 2 2 3 4 1 4 2 1 4 3 6 4 5 2 3 5 3 5 2 4 6 4 3 3 2 4 2 0 2 4 3 3 3 3 2 4 4 2 1 4 3 3 4 4 4 3 3 2 3 3 2 3 4 4 1 4 2 4 4 1 0 4 2 3 2 2 3 6 3 2 3 2 2 3 5 2 3 2 3 2 3 3 3 4 3 2 4 3 1 2 2 2 1 4 3 4 2 3 4 2 2 3 3 6 4 0 5 2 5 4 3 4 3 4 4 3 2 5 3 5 3 2 5 5 3 4 3 2 3 3 4 2 3 2 4 3 2 4 1 3 3 6 5 3 3 3 1 2 4 2 2 2 4 5 4 3 2 3 1 3 4 5 4 2 2 2 4 4 1 1 3 4 3 2 5 3 4 3 3 2 4 6 5 4 5 3 4 1 2 5 5 2 3 2 5 2 5 4 4 3 1 2 2 1 3 3 
BTB PER SET COUNT: 1 4 2 7 5 3 4 2 2 4 49 4 5 4 2 6 2 4 2 1 1 4 3 3 505 3 3 2 6 458 7 3 2 5 2 3 3 3 3 4 3 962 3 5 1464 588 505 3 5 3 2 4 506 3 2 5 2 1006 2 3 963 4 1 4 5 2 8 2 3 1 4 4 3 5 4 285 3 3 4 4 3 6 5 4 3 7 2 4 4 1005 2 2 3 5 3 1 6 4 3 4 6 5 4 5 2 4 3 2 4 7 5 5 2 4 0 0 4 6 2 5 3 3 1702 3 5 4 4 5 2 3 3 4 4 3 3 4 5 2 4 1006 2 1006 2 5 2 5 3 3 5 22 3 1 6 5 3 960 3 1005 5 3 1 3 3 4 2 2 0 4 4 5 7 2 96 1 4 5 2 5 3 2 5 3 5 3 2 3 2 6 5 3 3 3 3 5 1 2 3 1006 3 3 5 2 4 6 0 5 3 3 45 3 3 5 7 385 4 3 4 503 3 7 2 5 2 459 6 2 3 5 3 3 495 5 4 3 3 11 5 5 2 2 4 4 4 3 6 2 7903 2 5 4 2 3 2 6 5 15 1463 3 3 3 5 3 6 3 3 2 4 4 4 4 4 3 6 3 6 3 972 1 6 5 6 3 2 4 3 3 5 3 4 2 6 5 3 5 11 4 3 5 3 5 6 1 1471 3 4 2 3 3 6 13 1011 3 5 3 5 6 3 2 3 6 5 5 5 2 5 6 23 4 1 5 2 6 2 2 3 4 3 5 3 2 2 5 3 12 2 4 2 1 2 5 3 4 3 1 4 5 5 2 1 14 4 7 2 9 2 4 2 2 3 3 3 15 3 4 2 5 2 3 1 6 7 374 3 4 3 7 1 5 6 5 5 3 1 6 2 9 1346 4 3 3 5 410 3 3 3 3 5 2 9 4 3 5 1 5 5 2 3 3 3 3 2 1 4 508 3 436 3 4 744 3 5 1 8 3 2 2 5 4 2 3 4 1 9 4 3 1 2 32 5 9 3 1 3 5 3 2 4 4 3 1 3 4 2 5 2 1463 5 3010 4 4 5 3 6 4 962 4 1 4 2 5 3 2 4 4 146 1 3 3 4 2 961 7 9 3 4 6 3 8 1 3 4 4 4 3 2 5 3 1 3 4 3 3 3 2011 1 5 4 504 4 4 5 5 3 4 4 4 0 2 2 6 6 3 4 8 4 4 1 95 3 4 4 5 3 3 4 1465 5 3 2 1 1 1509 1006 6 4 4 4 2 2 5 1004 4 6 4 4 1 2009 3 4 2 3 2 0 1 4 4 3 3 4 5 1 4 4 3 8 4 2 2 4 917 3 7 2 2 1 1463 3 4 3 3 4 3 2 5 4 3 4 1 4 3 5 4 967 4 1 3 1464 6 3 3 4 1 4 6 3 6 4 4 3 2 2 2 5 4 2 3 3 3 4 3 6 6 1 3 2 5 3 4 6 1005 2 2 3 3 3 3 3 2 3 2 1 3 3 2 3 1 7 3 6 6 3 2 4 7 4 1465 2 5 6 3 3 4 2 3 5 3 2 6 6 2 4 3 2 3 2 4 5 1 6 6 4 2 3 2 4 5 2 2 4 4 5 2 2 4 2 502 5 4 3 3 4 4 3 4 3 5 9 4 2 5 3 2 5 3 3 4 3 6 2 1475 2 5 5 4 3 2 5 2 10 5 1418 4 3 3 1006 5 2 1 229 5 5 4 5 3 3 5 3 2924 2 5 6 2 1 3 5 2 7 3 1 2 3 3 4 2 3 4 3 4 248 4 9 2 4 5 5 4 5 1 2 4 3 4 5 3 2 5 2 3 5 9 3 2 1 2 5 4 4 2 4 3 8 2 5 7 3 2 4 3 3 517 4 5 3 963 5 4 4 4 4 4 0 974 3 4 3 4 962 3 3 2 4 6 3 1 6 4 6 3 2 5 3 8 3 4 509 3 3 1 4 3 6 2 3 7 4 4 3 3 3 4 5 5 6 3 3 3 1007 3 3 1 5 2 1 3 4 5 384 5 5 1 3 2 4 2 4 1 6 4 4 1008 5 3 6 4 5 5 2 4 4 3 3 959 3 3 4 8 1468 3 4 3 3 5 5 2 5 3 3 960 2 3 4 4 8 3 4 1 2 3 9 5 4 5 6 2 1007 3 4 3 2010 2 3 3 4 4 3 1 508 2 2 5 5 1 2 16 3 5 4 3 4 2 3 3 3 6 5 1 3 46 4 3 2 1 2 5 4 5 2 3 2 6 5 4 3 5 4 4 3 1464 2 3 4 7 4 5 4 3 5 5 5 3 2 2 5 4 4 3 4 460 4 3 3 2 3 5 3 389 7 3 1 3 3 504 4 5 7 2 2 4 3 3 3 3 6 2 2 4 6 4 1462 6 5 3 4 3 3 3 4 3 8 3 2 441 4 7 5 5 4 6 3 6 5 2 3 960 3 2 3 2 1 2 6 7 2 7 4 4 12 3 3 3 5 3 7 2425 384 3 3 3 3 2 2 5 5 1 3 6 6 14 9 5 3 2 3 4 4 3 4 3 3 1 5 5 6 3 3 2 4 2 6 4 4 10 3 2 2 2 2 1007 6 6 4 4 2 3 1 3 5 3 3 1 4 4 5 5 4 2 5 6 5 3 508 3 4 9 2 3 3 3 3 4 1463 1 3 3 4 4 6 2 2 5 4 3 6 0 1935 4 4 4 158 1 4 2 2 5 3 7 3 2 5 385 1463 4 5 1463 4 6 5 3 4 4 615 1 3 4 3 4 2 8 1864 1 4 2 4 4 7 15 2 6 4 4 6 3 5 7 4 2 4 5 1 4 3 509 3 4 2 4 2 4 3 5 3 52 3 6 962 4 5 3 4 242 4 4 6 2 3 5 3 2 3 5 6 6 3 5 4 2 5 1 1464 4 4 3 3 3 2 4 4 5 5 3 4 4 10 7 4 3 3 2 4 4 4 6 5 3 4 3 5 3 3 2 5 3 3 1 3 2 3 1466 5 3 2 4 5 2 3 3 6 3 4 2 4 5 2 3 4 5 3 3 48 4 4 2 3 386 3 5 4 1 7 3 22 3 2 4 2 2 6 3 3 7 4 4 2 5 5 5 3 4 3 506 2 1 4 3 4 4 3 4 2 4 3 2 3 4 2 5 4 4 2 3 4 3 4 3 5 3 3 4 3 48 3 4 5 1467 8 2 1 2 2 3 4 3 5 4 4 2 8 7 3 2424 2 2 2 2880 2 2 4 5 6 3 4 6 4 2 3 5 3 504 4 4 3 3 2 2 2 3 2 3 4 6 5 4 6 3 5 3 3 8 4 5 1 2 4 2 5 1 3 4 13 506 5 5 963 4 6 3 4 5 5 4 3 4 2 3 3 4 2 3 4 2 261 960 6 5 4 2 2 4 4 4 10 4 2 4 3 4 4 4 2 7 4 2 2 2424 6 2 4 3 962 1 2 5 5 1 4 5 4 2 1 3 6 3 5 3 2 2 2 2 2 2 2 4 2 3 4 3 6 3 3 4 3 4 4 3 5 3 3425 5 7 9 4 2 5 3 3 4 6 2 5 1466 3 2 51 4 6 3 2 3 3 4 7 3 3 3 5 1 4 2 3 4 5 3 3 3 9 3 3 6 4 2 5 3 3 1 3 4 3 3 3 7 5 2 3 3 2 3 2 1 2 3 2 2 142 7 3 3 5 4 2 4 3 4 3 2 4 5 3 2 8 3 4 449 4 1 12 3 3 3 5 3 6 6 2 5 2 2 2 3 2 2 5 3 3 2 5 2 5 2 4 5 3 2 5 1 1 3 6 5 4 4 3 7 2 2 2 3 2 4 3 4 2 5 4 0 3 3 170 1 2 3 4 0 7 2 1 4 4 3 3 65 1 4 3 4 4 4 461 4 3 1 3 4 4 5 4 2 4 9 5 5 9 5 6 6 1 8 4 5 6 3 3 5 4 3 386 4 1 1 3 3 3 4 1 509 3 2 5 3 2 2 4 5 6 2 2 5 4 4 3 507 3 5 3 376 4 3 129 3 2 2 3 2 3 2 4 6 4 6 3 3 5 3 1 4 1 2 10 2 3 3 3 4 25 4 9 1 3 4 1 3 1 2 2 962 3 4 4 3 2 2 3 6 6 1 6 3 3 3 3 3 7 1 3 2 3 4 1 4 2 1 4 961 7 4 5 2 3 7 157 5 2 4 7 6 3 4 2 4 20462 0 2 6 3 3 3 4 2 4 4 2 1 4 5 4 78 6 4 5 3 2 3 3 2 1507 7 4 1 4 2 4 14613 1 0 5 2 8 2 2 3 6 5 2 1463 2 2 3 5 2 3 2 3 2 3 3 3 4 3 2 5 3 2 2 2 525 1 4 4 4 2 4 4 2 2 4 4 6 7 0 6 2 8 4 3 32 3 4 4 3 2 5 3 5 3 2 5 5 3 4 3 1005 12 23 4 2 5 2 4 123 503 4 1 3 3 11 5 5 3 3 1 2 125 2 2 2 4 1053 6 506 2 4 1 3 7 5 4 2 1342 3 4 4 1 1 3 1464 3 2 5 3 4 1463 3 8 4 1466 6 4 1510 3 5 1 2 6 1251 2 3 2 135 2 5 4 6 3 1 2 2 1 3 727 
To predecode: 0
Predecoding something: 0
Predecode request dropped: 0
sizeofblock_0 0
sizeofblock_1 64361
sizeofblock_2 63128
sizeofblock_3 0
sizeofblock_4 0
sizeofblock_5 0
sizeofblock_6 0
sizeofblock_7 0
sizeofblock_8 0
Variant_0 Correct: 1611822 Incorrect: 0 Accuracy: 1
Variant_1 Correct: 5725334 Incorrect: 0 Accuracy: 1
Variant_2 Correct: 0 Incorrect: 0 Accuracy: -nan
Variant_3 Correct: 0 Incorrect: 0 Accuracy: -nan
