
*** ChampSim Multicore Out-of-Order Simulator ***

Warmup Instructions: 50000000
Simulation Instructions: 50000000
Number of CPUs: 1
LLC sets: 2048
LLC ways: 16
Off-chip DRAM Size: 4096 MB Channels: 1 Width: 64-bit Data Rate: 6400 MT/s
CPU 0 runs ./micro_traces/srv282.trace.gz
.gz
ITLB has LRU replacement policy
DTLB has LRU replacement policy
STLB has LRU replacement policy
FDIP Prefetcher at L1I
L1I has LRU replacement policy
L1D has LRU replacement policy
Initialize SRRIP state for L2C
Initialize DRRIP state for LLC
Heartbeat_Variant_0 : 1328 0.324219 per_variant_size: 0 1328 0 0 0 0 0 0 0 
Heartbeat_Variant_1 : 2540 0.620117 per_variant_size: 0 567 1973 0 0 0 0 0 0 
Heartbeat_Variant_2 : 0 0 per_variant_size: 0 0 0 0 0 0 0 0 0 
Heartbeat_Variant_3 : 0 0 per_variant_size: 0 0 0 0 0 0 0 0 0 
Heartbeat_Variant_0_evicts 0 : 5819 1 : 415 2 : 0 3 : 0 
Heartbeat_Variant_1_evicts 0 : 366 1 : 0 2 : 0 3 : 0 
Heartbeat_Variant_2_evicts 0 : 0 1 : 0 2 : 0 3 : 0 
Heartbeat_Variant_3_evicts 0 : 0 1 : 0 2 : 0 3 : 0 
Heartbeat CPU 0 instructions: 10000000 cycles: 2798603 heartbeat IPC: 3.57321 cumulative IPC: 3.57321 (Simulation time: 0 hr 1 min 32 sec) 
Heartbeat_Variant_0 : 1348 0.329102 per_variant_size: 0 1348 0 0 0 0 0 0 0 
Heartbeat_Variant_1 : 2588 0.631836 per_variant_size: 0 532 2056 0 0 0 0 0 0 
Heartbeat_Variant_2 : 0 0 per_variant_size: 0 0 0 0 0 0 0 0 0 
Heartbeat_Variant_3 : 0 0 per_variant_size: 0 0 0 0 0 0 0 0 0 
Heartbeat_Variant_0_evicts 0 : 5766 1 : 234 2 : 0 3 : 0 
Heartbeat_Variant_1_evicts 0 : 233 1 : 0 2 : 0 3 : 0 
Heartbeat_Variant_2_evicts 0 : 0 1 : 0 2 : 0 3 : 0 
Heartbeat_Variant_3_evicts 0 : 0 1 : 0 2 : 0 3 : 0 
Heartbeat CPU 0 instructions: 20000000 cycles: 5595794 heartbeat IPC: 3.57502 cumulative IPC: 3.57411 (Simulation time: 0 hr 3 min 3 sec) 
Heartbeat_Variant_0 : 1349 0.329346 per_variant_size: 0 1349 0 0 0 0 0 0 0 
Heartbeat_Variant_1 : 2587 0.631592 per_variant_size: 0 518 2069 0 0 0 0 0 0 
Heartbeat_Variant_2 : 0 0 per_variant_size: 0 0 0 0 0 0 0 0 0 
Heartbeat_Variant_3 : 0 0 per_variant_size: 0 0 0 0 0 0 0 0 0 
Heartbeat_Variant_0_evicts 0 : 5635 1 : 5 2 : 0 3 : 0 
Heartbeat_Variant_1_evicts 0 : 4 1 : 0 2 : 0 3 : 0 
Heartbeat_Variant_2_evicts 0 : 0 1 : 0 2 : 0 3 : 0 
Heartbeat_Variant_3_evicts 0 : 0 1 : 0 2 : 0 3 : 0 
Heartbeat CPU 0 instructions: 30000002 cycles: 8393553 heartbeat IPC: 3.57429 cumulative IPC: 3.57417 (Simulation time: 0 hr 4 min 35 sec) 
Heartbeat_Variant_0 : 1357 0.331299 per_variant_size: 0 1357 0 0 0 0 0 0 0 
Heartbeat_Variant_1 : 2611 0.637451 per_variant_size: 0 524 2087 0 0 0 0 0 0 
Heartbeat_Variant_2 : 0 0 per_variant_size: 0 0 0 0 0 0 0 0 0 
Heartbeat_Variant_3 : 0 0 per_variant_size: 0 0 0 0 0 0 0 0 0 
Heartbeat_Variant_0_evicts 0 : 5699 1 : 174 2 : 0 3 : 0 
Heartbeat_Variant_1_evicts 0 : 169 1 : 0 2 : 0 3 : 0 
Heartbeat_Variant_2_evicts 0 : 0 1 : 0 2 : 0 3 : 0 
Heartbeat_Variant_3_evicts 0 : 0 1 : 0 2 : 0 3 : 0 
Heartbeat CPU 0 instructions: 40000002 cycles: 11191141 heartbeat IPC: 3.57451 cumulative IPC: 3.57426 (Simulation time: 0 hr 6 min 5 sec) 
Heartbeat_Variant_0 : 1358 0.331543 per_variant_size: 0 1358 0 0 0 0 0 0 0 
Heartbeat_Variant_1 : 2610 0.637207 per_variant_size: 0 521 2089 0 0 0 0 0 0 
Heartbeat_Variant_2 : 0 0 per_variant_size: 0 0 0 0 0 0 0 0 0 
Heartbeat_Variant_3 : 0 0 per_variant_size: 0 0 0 0 0 0 0 0 0 
Heartbeat_Variant_0_evicts 0 : 5556 1 : 4 2 : 0 3 : 0 
Heartbeat_Variant_1_evicts 0 : 3 1 : 0 2 : 0 3 : 0 
Heartbeat_Variant_2_evicts 0 : 0 1 : 0 2 : 0 3 : 0 
Heartbeat_Variant_3_evicts 0 : 0 1 : 0 2 : 0 3 : 0 
Heartbeat CPU 0 instructions: 50000001 cycles: 13988657 heartbeat IPC: 3.5746 cumulative IPC: 3.57432 (Simulation time: 0 hr 7 min 35 sec) 

Warmup complete CPU 0 instructions: 50000001 cycles: 13988657 (Simulation time: 0 hr 7 min 35 sec) 

Cycle: 20000000 FTQ IN: 58430336 FTQ occupancy: 20.9252 DECODE IN: 58430302 DECODE occupancy: 54.0146 ROB IN: 58430302 ROB occupancy: 319.636 ROB OUT: 58430300
Heartbeat_Variant_0 : 1364 0.333008 per_variant_size: 0 1364 0 0 0 0 0 0 0 
Heartbeat_Variant_1 : 2626 0.641113 per_variant_size: 0 539 2087 0 0 0 0 0 0 
Heartbeat_Variant_2 : 0 0 per_variant_size: 0 0 0 0 0 0 0 0 0 
Heartbeat_Variant_3 : 0 0 per_variant_size: 0 0 0 0 0 0 0 0 0 
Heartbeat_Variant_0_evicts 0 : 5688 1 : 197 2 : 0 3 : 0 
Heartbeat_Variant_1_evicts 0 : 195 1 : 0 2 : 0 3 : 0 
Heartbeat_Variant_2_evicts 0 : 0 1 : 0 2 : 0 3 : 0 
Heartbeat_Variant_3_evicts 0 : 0 1 : 0 2 : 0 3 : 0 
Heartbeat CPU 0 instructions: 60000000 cycles: 21203001 heartbeat IPC: 1.38613 cumulative IPC: 1.38613 (Simulation time: 0 hr 9 min 24 sec) 
Heartbeat_Variant_0 : 1370 0.334473 per_variant_size: 0 1370 0 0 0 0 0 0 0 
Heartbeat_Variant_1 : 2628 0.641602 per_variant_size: 0 519 2109 0 0 0 0 0 0 
Heartbeat_Variant_2 : 0 0 per_variant_size: 0 0 0 0 0 0 0 0 0 
Heartbeat_Variant_3 : 0 0 per_variant_size: 0 0 0 0 0 0 0 0 0 
Heartbeat_Variant_0_evicts 0 : 5577 1 : 75 2 : 0 3 : 0 
Heartbeat_Variant_1_evicts 0 : 70 1 : 0 2 : 0 3 : 0 
Heartbeat_Variant_2_evicts 0 : 0 1 : 0 2 : 0 3 : 0 
Heartbeat_Variant_3_evicts 0 : 0 1 : 0 2 : 0 3 : 0 
Heartbeat CPU 0 instructions: 70000003 cycles: 28337224 heartbeat IPC: 1.40169 cumulative IPC: 1.39387 (Simulation time: 0 hr 11 min 13 sec) 
Cycle: 30000000 FTQ IN: 13921724 FTQ occupancy: 16.2114 DECODE IN: 13921661 DECODE occupancy: 39.9878 ROB IN: 13921601 ROB occupancy: 251.996 ROB OUT: 13921255
Heartbeat_Variant_0 : 1367 0.33374 per_variant_size: 0 1367 0 0 0 0 0 0 0 
Heartbeat_Variant_1 : 2633 0.642822 per_variant_size: 0 521 2112 0 0 0 0 0 0 
Heartbeat_Variant_2 : 0 0 per_variant_size: 0 0 0 0 0 0 0 0 0 
Heartbeat_Variant_3 : 0 0 per_variant_size: 0 0 0 0 0 0 0 0 0 
Heartbeat_Variant_0_evicts 0 : 5641 1 : 29 2 : 0 3 : 0 
Heartbeat_Variant_1_evicts 0 : 33 1 : 0 2 : 0 3 : 0 
Heartbeat_Variant_2_evicts 0 : 0 1 : 0 2 : 0 3 : 0 
Heartbeat_Variant_3_evicts 0 : 0 1 : 0 2 : 0 3 : 0 
Heartbeat CPU 0 instructions: 80000003 cycles: 35519720 heartbeat IPC: 1.39227 cumulative IPC: 1.39334 (Simulation time: 0 hr 13 min 0 sec) 
Cycle: 40000000 FTQ IN: 13913422 FTQ occupancy: 16.2165 DECODE IN: 13913395 DECODE occupancy: 39.9634 ROB IN: 13913395 ROB occupancy: 252.719 ROB OUT: 13913391
Heartbeat_Variant_0 : 1373 0.335205 per_variant_size: 0 1373 0 0 0 0 0 0 0 
Heartbeat_Variant_1 : 2637 0.643799 per_variant_size: 0 511 2126 0 0 0 0 0 0 
Heartbeat_Variant_2 : 0 0 per_variant_size: 0 0 0 0 0 0 0 0 0 
Heartbeat_Variant_3 : 0 0 per_variant_size: 0 0 0 0 0 0 0 0 0 
Heartbeat_Variant_0_evicts 0 : 5608 1 : 94 2 : 0 3 : 0 
Heartbeat_Variant_1_evicts 0 : 88 1 : 0 2 : 0 3 : 0 
Heartbeat_Variant_2_evicts 0 : 0 1 : 0 2 : 0 3 : 0 
Heartbeat_Variant_3_evicts 0 : 0 1 : 0 2 : 0 3 : 0 
Heartbeat CPU 0 instructions: 90000002 cycles: 42655293 heartbeat IPC: 1.40143 cumulative IPC: 1.39535 (Simulation time: 0 hr 14 min 45 sec) 
Heartbeat_Variant_0 : 1373 0.335205 per_variant_size: 0 1373 0 0 0 0 0 0 0 
Heartbeat_Variant_1 : 2637 0.643799 per_variant_size: 0 506 2131 0 0 0 0 0 0 
Heartbeat_Variant_2 : 0 0 per_variant_size: 0 0 0 0 0 0 0 0 0 
Heartbeat_Variant_3 : 0 0 per_variant_size: 0 0 0 0 0 0 0 0 0 
Heartbeat_Variant_0_evicts 0 : 5624 1 : 0 2 : 0 3 : 0 
Heartbeat_Variant_1_evicts 0 : 0 1 : 0 2 : 0 3 : 0 
Heartbeat_Variant_2_evicts 0 : 0 1 : 0 2 : 0 3 : 0 
Heartbeat_Variant_3_evicts 0 : 0 1 : 0 2 : 0 3 : 0 
Heartbeat CPU 0 instructions: 100000001 cycles: 49738894 heartbeat IPC: 1.41171 cumulative IPC: 1.39859 (Simulation time: 0 hr 16 min 32 sec) 
Finished CPU 0 instructions: 50000000 cycles: 35750237 cumulative IPC: 1.39859 (Simulation time: 0 hr 16 min 32 sec) 

ChampSim completed all CPUs

Region of Interest Statistics

CPU 0 cumulative IPC: 1.39859 instructions: 50000000 cycles: 35750237
 Fetch stage stalled: 37.4249  Sim cycles: 35750237 fetch stall cycle: 13379496
 Empty decode stage: 20.4807  Sim cycles: 35750237 fetch stall cycle: 7321908
ITLB TOTAL     ACCESS:    5852015  HIT:    5353809  MISS:     498206  HIT %:    91.4866  MISS %:    8.51341   MPKI: 9.96412
ITLB LOAD TRANSLATION INSTRUCTION	ACCESS:    5707507  HIT:    5209301  MISS:     498206  HIT %:     91.271  MISS %:    8.72896  MPKI: 9.96412
ITLB TRANSLATION FROM L1D PREFETCHER INSTRUCTION	ACCESS:     144508  HIT:     144508  MISS:          0  HIT %:        100  MISS %:          0  MPKI: 0

ITLB AVERAGE MISS LATENCY: 9.05915 cycles
ITLB RQ	ACCESS:    7908370	FORWARD:          0	MERGED:    1535692	TO_CACHE:    6372678

DTLB TOTAL     ACCESS:    8980919  HIT:    8509538  MISS:     471381  HIT %:    94.7513  MISS %:    5.24869   MPKI: 9.42762
DTLB LOAD TRANSLATION DATA	ACCESS:    8980919  HIT:    8509538  MISS:     471381  HIT %:    94.7513  MISS %:    5.24869  MPKI: 9.42762

DTLB AVERAGE MISS LATENCY: 9.31685 cycles
DTLB RQ	ACCESS:   13385273	FORWARD:          0	MERGED:    4366408	TO_CACHE:    9018865

STLB TOTAL     ACCESS:    1209157  HIT:    1206913  MISS:       2244  HIT %:    99.8144  MISS %:   0.185584   MPKI: 0.04488
STLB LOAD TRANSLATION INSTRUCTION	ACCESS:     498206  HIT:     497794  MISS:        412  HIT %:    99.9173  MISS %:  0.0826967  MPKI: 0.00824
STLB LOAD TRANSLATION DATA	ACCESS:     471381  HIT:     469556  MISS:       1825  HIT %:    99.6128  MISS %:    0.38716  MPKI: 0.0365
STLB TRANSLATION FROM L1D PREFETCHER DATA	ACCESS:     239570  HIT:     239563  MISS:          7  HIT %:    99.9971  MISS %:  0.0029219  MPKI: 0.00014

STLB AVERAGE MISS LATENCY: 65.7398 cycles
STLB RQ	ACCESS:    1312498	FORWARD:          0	MERGED:     103310	TO_CACHE:    1209188

STLB Hit, L1D data hit: 0
STLB Hit, L2C data hit: 0
STLB Hit, LLC data hit: 0
STLB Hit, LLC data miss: 0
STLB STLB hints to L2: 0
L1D TOTAL     ACCESS:   13136434  HIT:   12043718  MISS:    1092716  HIT %:    91.6818  MISS %:    8.31821   MPKI: 21.8543
L1D LOAD DATA	ACCESS:    6572297  HIT:    5849082  MISS:     723215  HIT %:     88.996  MISS %:     11.004  MPKI: 14.4643
L1D RFO DATA	ACCESS:    6247043  HIT:    5965296  MISS:     281747  HIT %:    95.4899  MISS %:    4.51009  MPKI: 5.63494
L1D PREFETCH DATA	ACCESS:     317094  HIT:     229340  MISS:      87754  HIT %:    72.3256  MISS %:    27.6744  MPKI: 1.75508

L1D PREFETCH  REQUESTED:     686201  ISSUED:     686201  USEFUL:      25910  USELESS:      66774
L1D USEFUL LOAD PREFETCHES:      25910 PREFETCH ISSUED TO LOWER LEVEL:      92681  ACCURACY: 27.9561
 TIMELY PREFETCHES:      25910 LATE PREFETCHES: 4882 DROPPED PREFETCHES: 3
L1D AVERAGE MISS LATENCY: 139058 cycles
L1D RQ	ACCESS:   10692008	FORWARD:          0	MERGED:    3918277	TO_CACHE:    6605885
L1D WQ	ACCESS:    6978255	FORWARD:     168225	MERGED:     198867	TO_CACHE:    6779388
L1D PQ	ACCESS:     343290	FORWARD:          0	MERGED:          0	TO_CACHE:     342911

L1D UNIQUE REGIONS ACCESSED: 0
L1D REGIONS CONFLICTS: 0
L1D Cross Page Prefetch Requests: 4547
L1D Same Page Prefetch Requests: 705005
L1D ROI Sum of L1D PQ occupancy: 4354609
L1D PREFETCHES PUSHED FROM L2C: 0
L1I TOTAL     ACCESS:    7089244  HIT:    4301749  MISS:    2787495  HIT %:    60.6799  MISS %:    39.3201   MPKI: 55.7499
L1I LOAD INSTRUCTION	ACCESS:    6426970  HIT:    3639475  MISS:    2787495  HIT %:    56.6282  MISS %:    43.3718  MPKI: 55.7499
L1I PREFETCH INSTRUCTION	ACCESS:     662274  HIT:     662274  MISS:          0  HIT %:        100  MISS %:          0  MPKI: 0

L1I PREFETCH  REQUESTED:    1613542  ISSUED:    1613542  USEFUL:          0  USELESS:          0
L1I USEFUL LOAD PREFETCHES:          0 PREFETCH ISSUED TO LOWER LEVEL:          0  ACCURACY: -nan
 TIMELY PREFETCHES:          0 LATE PREFETCHES: 0 DROPPED PREFETCHES: 0
L1I AVERAGE MISS LATENCY: 17.4138 cycles
L1I RQ	ACCESS:    9657913	FORWARD:          0	MERGED:    2944517	TO_CACHE:    6713396
L1I PQ	ACCESS:    1613542	FORWARD:          0	MERGED:     418568	TO_CACHE:    1194974

L1BTB TOTAL     ACCESS:    5667917  HIT:    2012213  MISS:    3655704  HIT %:    35.5018  MISS %:    64.4982   MPKI: 73.1141
L1BTB BRANCH_DIRECT_JUMP	ACCESS:     550528 HIT:     144152 MISS:     406376 AVERAGE STALL: 58.4414 AVERAGE FETCH STALL: 13.1653 AVERAGE FETCH QUEUE STALL: 23.0525 AVERAGE DECODE STALL: 21.2885 AVERAGE EXECUTE STALL: 2.28925e+15
L1BTB BRANCH_INDIRECT	ACCESS:     183196 HIT:      65836 MISS:     117360 AVERAGE STALL: 115.644 AVERAGE FETCH STALL: 10.7765 AVERAGE FETCH QUEUE STALL: 23.2694 AVERAGE DECODE STALL: 12.8481 AVERAGE EXECUTE STALL: 67.7865
L1BTB BRANCH_CONDITIONAL	ACCESS:    2687841 HIT:    1386130 MISS:    1301711 AVERAGE STALL: 68.7035 AVERAGE FETCH STALL: 23.4329 AVERAGE FETCH QUEUE STALL: 27.7207 AVERAGE DECODE STALL: 16.9185 AVERAGE EXECUTE STALL: 3.20423e+15
L1BTB BRANCH_DIRECT_CALL	ACCESS:     950547 HIT:     104944 MISS:     845603 AVERAGE STALL: 69.3723 AVERAGE FETCH STALL: 25.5466 AVERAGE FETCH QUEUE STALL: 21.8137 AVERAGE DECODE STALL: 21.076 AVERAGE EXECUTE STALL: 7.92046e+15
L1BTB BRANCH_INDIRECT_CALL	ACCESS:     172626 HIT:      21040 MISS:     151586 AVERAGE STALL: 147.787 AVERAGE FETCH STALL: 12.5113 AVERAGE FETCH QUEUE STALL: 22.4252 AVERAGE DECODE STALL: 12.6026 AVERAGE EXECUTE STALL: 99.7544
L1BTB BRANCH_RETURN	ACCESS:    1123179 HIT:     290111 MISS:     833068 AVERAGE STALL: 53.2084 AVERAGE FETCH STALL: 17.7698 AVERAGE FETCH QUEUE STALL: 6.44266 AVERAGE DECODE STALL: 6.72129 AVERAGE EXECUTE STALL: 4.17896e+14
L1BTB BRANCH_OTHER ACCESS:          0 HIT:          0 MISS:          0 AVERAGE STALL: -nan AVERAGE FETCH STALL: -nan AVERAGE FETCH QUEUE STALL: -nan AVERAGE DECODE STALL: -nan AVERAGE EXECUTE STALL: -nan
L1BTB TOTAL ROB OCCUPANCY AT BTB MISS: 2.83904

L2BTB TOTAL     ACCESS:    3630314  HIT:    3562637  MISS:      67677  HIT %:    98.1358  MISS %:    1.86422   MPKI: 1.35354
L2BTB BRANCH_DIRECT_JUMP	ACCESS:     402266 HIT:     398309 MISS:       3957 AVERAGE STALL: 58.4414 AVERAGE FETCH STALL: 13.1653 AVERAGE FETCH QUEUE STALL: 23.0525 AVERAGE DECODE STALL: 21.2885 AVERAGE EXECUTE STALL: 2.28925e+15
L2BTB BRANCH_INDIRECT	ACCESS:     107018 HIT:     104292 MISS:       2726 AVERAGE STALL: 115.644 AVERAGE FETCH STALL: 10.7765 AVERAGE FETCH QUEUE STALL: 23.2694 AVERAGE DECODE STALL: 12.8481 AVERAGE EXECUTE STALL: 67.7865
L2BTB BRANCH_CONDITIONAL	ACCESS:    1301711 HIT:    1295907 MISS:       5804 AVERAGE STALL: 68.7035 AVERAGE FETCH STALL: 23.4329 AVERAGE FETCH QUEUE STALL: 27.7207 AVERAGE DECODE STALL: 16.9185 AVERAGE EXECUTE STALL: 3.20423e+15
L2BTB BRANCH_DIRECT_CALL	ACCESS:     845603 HIT:     843257 MISS:       2346 AVERAGE STALL: 69.3723 AVERAGE FETCH STALL: 25.5466 AVERAGE FETCH QUEUE STALL: 21.8137 AVERAGE DECODE STALL: 21.076 AVERAGE EXECUTE STALL: 7.92046e+15
L2BTB BRANCH_INDIRECT_CALL	ACCESS:     142070 HIT:     131961 MISS:      10109 AVERAGE STALL: 147.787 AVERAGE FETCH STALL: 12.5113 AVERAGE FETCH QUEUE STALL: 22.4252 AVERAGE DECODE STALL: 12.6026 AVERAGE EXECUTE STALL: 99.7544
L2BTB BRANCH_RETURN	ACCESS:     831646 HIT:     788911 MISS:      42735 AVERAGE STALL: 53.2084 AVERAGE FETCH STALL: 17.7698 AVERAGE FETCH QUEUE STALL: 6.44266 AVERAGE DECODE STALL: 6.72129 AVERAGE EXECUTE STALL: 4.17896e+14
L2BTB BRANCH_OTHER ACCESS:          0 HIT:          0 MISS:          0 AVERAGE STALL: -nan AVERAGE FETCH STALL: -nan AVERAGE FETCH QUEUE STALL: -nan AVERAGE DECODE STALL: -nan AVERAGE EXECUTE STALL: -nan
L2BTB TOTAL ROB OCCUPANCY AT BTB MISS: 153.356

L2C TOTAL     ACCESS:    4489771  HIT:    4019696  MISS:     470075  HIT %:    89.5301  MISS %:    10.4699   MPKI: 9.4015
L2C LOAD INSTRUCTION	ACCESS:    2787495  HIT:    2512199  MISS:     275296  HIT %:    90.1239  MISS %:    9.87611  MPKI: 5.50592
L2C LOAD TRANSLATION INSTRUCTION	ACCESS:        443  HIT:        104  MISS:        339  HIT %:    23.4763  MISS %:    76.5237  MPKI: 0.00678
L2C LOAD DATA	ACCESS:     718262  HIT:     646597  MISS:      71665  HIT %:    90.0224  MISS %:    9.97756  MPKI: 1.4333
L2C RFO DATA	ACCESS:     281668  HIT:     240935  MISS:      40733  HIT %:    85.5386  MISS %:    14.4614  MPKI: 0.81466
L2C PREFETCH DATA	ACCESS:     177674  HIT:     108492  MISS:      69182  HIT %:    61.0624  MISS %:    38.9376  MPKI: 1.38364
L2C WRITEBACK DATA	ACCESS:     522322  HIT:     510812  MISS:      11510  HIT %:    97.7964  MISS %:    2.20362  MPKI: 0.2302
L2C LOAD TRANSLATION DATA	ACCESS:       1895  HIT:        547  MISS:       1348  HIT %:    28.8654  MISS %:    71.1346  MPKI: 0.02696
L2C TRANSLATION FROM L1D PREFETCHER DATA	ACCESS:         12  HIT:         10  MISS:          2  HIT %:    83.3333  MISS %:    16.6667  MPKI: 4e-05

L2C PREFETCH  REQUESTED:      91592  ISSUED:      91592  USEFUL:       7929  USELESS:      61760
L2C USEFUL LOAD PREFETCHES:       7929 PREFETCH ISSUED TO LOWER LEVEL:      69530  ACCURACY: 11.4037
 TIMELY PREFETCHES:       7929 LATE PREFETCHES: 348 DROPPED PREFETCHES: 0
L2C AVERAGE MISS LATENCY: 38.0806 cycles
L2C RQ	ACCESS:    3789880	FORWARD:          0	MERGED:          0	TO_CACHE:    3789775
L2C WQ	ACCESS:     522322	FORWARD:        105	MERGED:          0	TO_CACHE:     522322
L2C PQ	ACCESS:     184273	FORWARD:          0	MERGED:       2987	TO_CACHE:     181286

L2C Dense regions hint from L2: 0
PSCL5 TOTAL     ACCESS:       4494  HIT:       2247  MISS:       2247  HIT %:         50  MISS %:         50   MPKI: 0.04494
PSCL5 LOAD TRANSLATION INSTRUCTION	ACCESS:       4470  HIT:       2235  MISS:       2235  HIT %:         50  MISS %:         50  MPKI: 0.0447
PSCL5 TRANSLATION FROM L1D PREFETCHER INSTRUCTION	ACCESS:         24  HIT:         12  MISS:         12  HIT %:         50  MISS %:         50  MPKI: 0.00024


PSCL4 TOTAL     ACCESS:       3064  HIT:       1530  MISS:       1534  HIT %:    49.9347  MISS %:    50.0653   MPKI: 0.03068
PSCL4 LOAD TRANSLATION INSTRUCTION	ACCESS:       2819  HIT:       1526  MISS:       1293  HIT %:    54.1327  MISS %:    45.8673  MPKI: 0.02586
PSCL4 TRANSLATION FROM L1D PREFETCHER INSTRUCTION	ACCESS:          8  HIT:          4  MISS:          4  HIT %:         50  MISS %:         50  MPKI: 8e-05
PSCL4 LOAD TRANSLATION DATA	ACCESS:        237  HIT:          0  MISS:        237  HIT %:          0  MISS %:        100  MPKI: 0.00474


PSCL3 TOTAL     ACCESS:       4340  HIT:       2162  MISS:       2178  HIT %:    49.8157  MISS %:    50.1843   MPKI: 0.04356
PSCL3 LOAD TRANSLATION INSTRUCTION	ACCESS:       3416  HIT:       2154  MISS:       1262  HIT %:    63.0562  MISS %:    36.9438  MPKI: 0.02524
PSCL3 TRANSLATION FROM L1D PREFETCHER INSTRUCTION	ACCESS:         15  HIT:          8  MISS:          7  HIT %:    53.3333  MISS %:    46.6667  MPKI: 0.00014
PSCL3 LOAD TRANSLATION DATA	ACCESS:        908  HIT:          0  MISS:        908  HIT %:          0  MISS %:        100  MPKI: 0.01816
PSCL3 TRANSLATION FROM L1D PREFETCHER DATA	ACCESS:          1  HIT:          0  MISS:          1  HIT %:          0  MISS %:        100  MPKI: 2e-05


PSCL2 TOTAL     ACCESS:       4411  HIT:       2164  MISS:       2247  HIT %:    49.0592  MISS %:    50.9408   MPKI: 0.04494
PSCL2 LOAD TRANSLATION INSTRUCTION	ACCESS:       2565  HIT:       2152  MISS:        413  HIT %:    83.8986  MISS %:    16.1014  MPKI: 0.00826
PSCL2 TRANSLATION FROM L1D PREFETCHER INSTRUCTION	ACCESS:         12  HIT:         12  MISS:          0  HIT %:        100  MISS %:          0  MPKI: 0
PSCL2 LOAD TRANSLATION DATA	ACCESS:       1822  HIT:          0  MISS:       1822  HIT %:          0  MISS %:        100  MPKI: 0.03644
PSCL2 TRANSLATION FROM L1D PREFETCHER DATA	ACCESS:         12  HIT:          0  MISS:         12  HIT %:          0  MISS %:        100  MPKI: 0.00024


LLC TOTAL     ACCESS:     520201  HIT:     493301  MISS:      26900  HIT %:    94.8289  MISS %:    5.17108   MPKI: 0.538
LLC LOAD INSTRUCTION	ACCESS:     275296  HIT:     274640  MISS:        656  HIT %:    99.7617  MISS %:   0.238289  MPKI: 0.01312
LLC LOAD TRANSLATION INSTRUCTION	ACCESS:        339  HIT:        318  MISS:         21  HIT %:    93.8053  MISS %:    6.19469  MPKI: 0.00042
LLC LOAD DATA	ACCESS:      71385  HIT:      67967  MISS:       3418  HIT %:    95.2119  MISS %:    4.78812  MPKI: 0.06836
LLC RFO DATA	ACCESS:      40662  HIT:      27683  MISS:      12979  HIT %:    68.0808  MISS %:    31.9192  MPKI: 0.25958
LLC PREFETCH DATA	ACCESS:      69530  HIT:      60085  MISS:       9445  HIT %:    86.4159  MISS %:    13.5841  MPKI: 0.1889
LLC WRITEBACK DATA	ACCESS:      61639  HIT:      61325  MISS:        314  HIT %:    99.4906  MISS %:   0.509418  MPKI: 0.00628
LLC LOAD TRANSLATION DATA	ACCESS:       1348  HIT:       1281  MISS:         67  HIT %:    95.0297  MISS %:    4.97033  MPKI: 0.00134
LLC TRANSLATION FROM L1D PREFETCHER DATA	ACCESS:          2  HIT:          2  MISS:          0  HIT %:        100  MISS %:          0  MPKI: 0

LLC AVERAGE MISS LATENCY: 152.615 cycles
LLC RQ	ACCESS:     389035	FORWARD:          0	MERGED:          0	TO_CACHE:     389032
LLC WQ	ACCESS:      61639	FORWARD:          3	MERGED:          0	TO_CACHE:      61639
LLC PQ	ACCESS:      69530	FORWARD:          0	MERGED:          0	TO_CACHE:      69530

LLC Dense regions hint to LLC: 0

RAW hits: 1959929
Loads Generated: 12651937
Loads sent to L1D: 10692008
Stores Generated: 6978249
Stores sent to L1D: 6978255
Major fault: 0 Minor fault: 2512
Allocated PAGES: 2512

stream: 
stream:times selected: 1139573
stream:pref_filled: 121027
stream:pref_useful: 22399
stream:pref_late: 4002
stream:misses: 6510
stream:misses_by_poll: 0

CS: 
CS:times selected: 164467
CS:pref_filled: 51465
CS:pref_useful: 28949
CS:pref_late: 3580
CS:misses: 10470
CS:misses_by_poll: 7

CPLX: 
CPLX:times selected: 973848
CPLX:pref_filled: 18091
CPLX:pref_useful: 3479
CPLX:pref_late: 1192
CPLX:misses: 66584
CPLX:misses_by_poll: 0

NL_L1: 
NL:times selected: 13228
NL:pref_filled: 530
NL:pref_useful: 170
NL:pref_late: 149
NL:misses: 534
NL:misses_by_poll: 0

total selections: 2291116
total_filled: 87754
total_useful: 25910
total_late: 9718
total_polluted: 7
total_misses_after_warmup: 756802
conflicts: 5561250

test: 113889

DRAM Statistics
 CHANNEL 0
 RQ ROW_BUFFER_HIT:       9986  ROW_BUFFER_MISS:      16594
 DBUS_CONGESTED:         11
 WQ ROW_BUFFER_HIT:       1295  ROW_BUFFER_MISS:      11264  FULL:          0

 AVG_CONGESTED_CYCLE: 4

CPU 0 Branch Prediction Accuracy: 99.8231% MPKI: 0.32354 Average ROB Occupancy at Mispredict: 198.801
Branch types
NOT_BRANCH: 40857478 81.715%
BRANCH_DIRECT_JUMP: 550528 1.10106%
BRANCH_INDIRECT: 183196 0.366392%
BRANCH_CONDITIONAL: 6162400 12.3248%
BRANCH_DIRECT_CALL: 950547 1.90109%
BRANCH_INDIRECT_CALL: 172626 0.345252%
BRANCH_RETURN: 1123179 2.24636%
BRANCH_OTHER: 0 0%

DRAM PAGES: 1048576
Allocated PAGES: 2512
Average_ROB_Occupancy: 253.991
Average_Decode_Occupancy: 40.0902
Average_FTQ_Occupancy: 16.2243
Indirect max targets: 14 Average targets: 1.14576
Branch_type:  BRANCH_DIRECT_JUMP:  Count Percentage: 3.80297 6.01754 3.6726 8.84384 2.22938 6.32363 0.581012 68.529 
Branch_type:  BRANCH_INDIRECT:  Count Percentage: 6.1156 3.44168 8.14823 9.68129 3.34602 2.81156 0.937004 65.5186 
Branch_type:  BRANCH_CONDITIONAL:  Count Percentage: 20.6651 3.83628 1.48798 7.5525 2.19096 4.34824 0.533507 59.3854 
Branch_type:  BRANCH_DIRECT_CALL:  Count Percentage: 0.898473 1.30601 0.730926 4.43279 1.93834 2.83945 0.660648 87.1934 
Branch_type:  BRANCH_INDIRECT_CALL:  Count Percentage: 9.56936 0 3.00121 0 0 2.33076 0.997406 84.1013 
Branch_type:  BRANCH_RETURN:  Count Percentage: 4.749 4.80292 1.0254 3.95663 3.34545 4.97962 0.580714 76.5603 
Branch_type:  BRANCH_DIRECT_JUMP:  Total Count: 41858 66233 40423 97341 24538 69602 6395 754275 
Branch_type:  BRANCH_INDIRECT:  Total Count: 22439 12628 29897 35522 12277 10316 3438 240397 
Branch_type:  BRANCH_CONDITIONAL:  Total Count: 2546323 472701 183347 930608 269967 535784 65738 7317392 
Branch_type:  BRANCH_DIRECT_CALL:  Total Count: 17042 24772 13864 84080 36766 53858 12531 1653860 
Branch_type:  BRANCH_INDIRECT_CALL:  Total Count: 32985 0 10345 0 0 8034 3438 289892 
Branch_type:  BRANCH_RETURN:  Total Count: 106484 107693 22992 88717 75013 111655 13021 1716664 
Number of unique branch instructions: 9734
Upper 32 bits: 
aaaa
ffff
ffff0000
Unique upper 32 bits: 3
Unique upper 36 bits: 3
Unique upper 40 bits: 5
Unique upper 44 bits: 32
Unique upper 48 bits: 153
Variant_0 : 1373 0.335205
Variant_1 : 2637 0.643799
Variant_2 : 0 0
Variant_3 : 0 0
Offset_3 4016
Offset_4 238
Offset_5 440
Offset_6 494
Offset_7 570
Offset_8 504
Offset_9 459
Offset_10 371
Offset_11 302
Offset_12 266
Offset_13 199
Offset_14 223
Offset_15 184
Offset_16 214
Offset_17 143
Offset_18 118
Offset_19 230
Offset_20 135
Offset_21 235
Offset_22 389
Offset_23 241
Offset_24 328
Offset_25 88
Offset_47 82
decode_dispatch_called: 26669605 74.5998
Dispatch_width: 0 14444504 54.1609 40.4039
Dispatch_width: 1 1037269 3.88933 2.90143
Dispatch_width: 2 863562 3.238 2.41554
Dispatch_width: 3 487652 1.82849 1.36405
Dispatch_width: 4 6578122 24.6652 18.4002
Dispatch_width: 5 90813 0.340511 0.254021
Dispatch_width: 6 3167683 11.8775 8.86059
Empty_decode_cycles: 9080632 25.4002
ROB_full_cycles: 10519499 29.425
Starvation_cycles_per_kilo_instr: 220.631
Starvation_cycles_per_kilo_instr_3: 153.941
Starvation_cycles_per_kilo_instr_0: 130.056
Branch_type_1  (3,1)  (4,7)  (5,36)  (6,68)  (7,113)  (8,126)  (9,122)  (10,97)  (11,67)  (12,43)  (13,5)  (14,2)  (15,3)  (16,4)  (18,1)  (19,4)  (20,2)  (21,1)  (22,3)  (23,2)  (24,10)  (25,12) 
Branch_type_2  (3,1)  (5,1)  (8,3)  (9,3)  (12,1)  (13,1)  (14,1)  (16,3)  (17,2)  (20,2)  (21,2)  (23,5)  (24,1)  (47,38) 
Branch_type_3  (3,4014)  (4,231)  (5,399)  (6,411)  (7,428)  (8,316)  (9,252)  (10,149)  (11,122)  (12,50)  (13,4) 
Branch_type_4  (6,3)  (7,8)  (8,24)  (9,51)  (10,59)  (11,57)  (12,94)  (13,86)  (14,98)  (15,86)  (16,95)  (17,64)  (18,53)  (19,112)  (20,71)  (21,124)  (22,207)  (23,136)  (24,190)  (25,72) 
Branch_type_5  (8,2)  (9,1)  (10,3)  (11,5)  (12,3)  (13,14)  (14,16)  (15,11)  (16,20)  (17,11)  (18,16)  (19,12)  (20,10)  (21,13)  (22,42)  (23,26)  (24,36) 
Branch_type_6  (5,4)  (6,12)  (7,21)  (8,33)  (9,30)  (10,63)  (11,51)  (12,75)  (13,89)  (14,106)  (15,84)  (16,92)  (17,66)  (18,48)  (19,102)  (20,50)  (21,95)  (22,137)  (23,72)  (24,91)  (25,4)  (47,44) 
Unique trigger count: 
Variant_0_evicts_0 : 0
Variant_0_evicts_1 : 0
Variant_0_evicts_2 : 0
Variant_0_evicts_3 : 0
Variant_1_evicts_0 : 0
Variant_1_evicts_1 : 0
Variant_1_evicts_2 : 0
Variant_1_evicts_3 : 0
Variant_2_evicts_0 : 0
Variant_2_evicts_1 : 0
Variant_2_evicts_2 : 0
Variant_2_evicts_3 : 0
Variant_3_evicts_0 : 0
Variant_3_evicts_1 : 0
Variant_3_evicts_2 : 0
Variant_3_evicts_3 : 0
BTB PER SET UNIQUE ADDR: 11 12 9 7 10 10 8 7 6 9 8 11 9 9 8 8 7 8 6 9 8 8 10 12 6 7 10 10 6 8 11 9 12 8 5 8 8 11 6 8 9 8 10 12 5 10 12 8 8 9 10 9 8 9 9 7 11 6 8 8 9 11 7 11 8 8 11 8 9 11 10 10 14 4 8 6 7 10 6 13 10 7 9 12 10 9 12 6 7 15 7 8 13 9 6 8 7 9 11 14 13 15 10 9 7 12 12 8 9 7 9 10 9 10 9 7 9 8 10 8 14 13 6 5 7 9 7 12 13 9 10 7 11 10 8 9 8 11 7 13 9 8 9 9 8 9 15 11 7 10 10 11 9 9 9 10 8 9 11 10 9 8 9 9 11 10 17 7 8 8 11 12 8 11 7 7 10 10 11 10 9 10 10 14 12 12 3 9 12 10 13 9 8 12 9 8 8 9 7 11 10 12 9 5 6 8 9 7 8 10 10 8 8 11 11 10 8 9 10 17 6 13 7 7 5 8 9 11 9 12 8 7 11 8 8 9 12 8 9 4 10 8 9 10 7 8 9 7 12 10 10 9 10 7 10 15 8 7 6 8 8 5 4 12 11 6 7 9 9 9 11 12 6 6 7 8 8 10 11 10 9 10 10 8 11 6 8 13 15 11 8 8 13 13 9 9 11 13 10 9 10 10 11 14 9 7 6 6 7 8 8 12 9 12 13 8 12 8 13 9 7 10 9 10 13 9 9 9 8 8 7 10 7 11 12 9 10 6 8 12 11 12 7 9 12 8 8 10 12 8 12 7 10 9 9 11 7 12 8 5 7 11 7 10 8 8 6 11 11 10 9 7 8 10 11 11 11 11 12 11 10 7 7 9 9 11 9 13 10 9 11 9 8 14 9 8 9 8 13 8 8 8 7 10 10 8 7 13 10 10 9 8 10 8 11 8 10 7 11 11 6 11 10 11 11 9 11 9 9 8 17 8 6 8 12 18 8 5 9 8 8 9 7 9 11 6 9 11 12 13 9 8 9 9 7 14 12 9 5 9 8 9 9 13 13 8 12 11 10 10 12 7 9 11 11 11 7 14 8 9 13 11 11 8 8 8 11 5 12 11 13 10 9 9 6 9 12 11 11 11 10 10 8 12 9 7 7 10 10 10 9 10 11 4 13 10 10 13 7 7 9 10 8 9 10 9 12 8 6 14 10 7 11 7 12 12 6 8 10 9 11 10 11 10 11 6 9 11 9 8 8 12 7 8 8 9 10 10 10 14 10 9 9 9 9 13 11 13 6 9 12 13 9 10 10 11 11 12 8 11 8 9 6 9 7 10 10 11 11 10 9 9 8 8 10 9 6 6 13 11 10 10 9 7 9 9 13 10 10 9 12 12 5 13 5 6 8 11 8 14 10 7 9 7 8 11 8 12 9 10 6 8 7 15 9 10 11 8 6 13 11 11 13 13 9 10 8 9 13 7 10 11 5 12 11 11 14 11 11 8 8 7 9 13 7 9 7 10 8 11 9 7 9 12 15 8 8 10 7 6 7 11 11 13 12 9 10 10 10 9 7 11 10 7 12 9 5 9 8 14 5 12 12 12 7 10 8 8 10 5 10 11 7 9 8 7 14 8 4 8 9 9 7 8 6 11 9 5 10 8 8 7 10 9 10 10 9 8 11 9 10 9 9 10 7 15 10 9 10 6 10 11 11 9 8 11 17 11 7 6 6 5 7 10 11 13 8 14 7 9 11 6 11 6 13 8 10 10 11 7 9 8 10 9 6 10 8 11 15 9 6 7 13 9 10 12 8 11 9 6 12 13 11 13 16 10 13 9 8 9 11 12 8 7 9 11 10 16 7 16 8 13 7 10 11 11 7 9 13 16 8 12 12 7 6 9 11 10 6 8 8 10 9 9 9 15 8 15 7 8 6 9 8 11 13 10 14 7 8 12 11 11 7 11 10 5 8 10 11 9 9 11 10 11 7 7 9 11 7 7 12 9 7 8 9 8 10 7 10 9 11 8 8 9 10 11 16 9 9 9 12 8 12 13 5 11 11 13 10 12 12 14 7 9 11 12 11 9 11 11 11 9 9 6 7 9 4 10 8 8 10 15 9 10 7 13 8 9 11 8 7 8 10 8 9 7 11 12 7 10 9 8 8 9 6 8 9 12 9 7 11 8 7 10 8 8 11 7 9 11 10 7 10 10 10 9 12 10 11 13 7 13 14 12 11 13 10 10 11 11 12 10 9 11 9 7 10 9 15 9 13 11 9 8 14 10 8 12 7 12 10 13 12 9 9 7 7 7 6 6 8 11 10 7 
BTB PER SET COUNT: 14 12 1490 9 16 11 10 8 1483 9 12 295 11 12 8 10 1989 13 6 9 11 385 299 14 6 8 14 13 8 11 13 9 19 9 5 16 8 13 6 10 12 11 11 23 5 13 15 8 379 291 11 11 9 11 13 318 13 6 497 9 9 22 7 12 11 9 12 9 10 13 13 497 22 4 10 8 9 12 8 19 16 9 12 232 12 32 13 6 7 21 9 614 100 66 6 10 978 9 13 17 13 20 15 10 2087 13 17 8 1802 10 11 33 986 10 9 7 9 10 12 16 18 13 7 6 7 70 7 23 17 529 11 7 423 12 191 10 994 17 7 15 9 9 14 9 12 9 21 13 10 27 12 287 1078 9 9 17 1504 9 13 11 10 216 12 10 146 16 31 7 10 1243 16 14 8 17 7 8 31 11 26 818 10 11 173 17 212 13 3 12 12 679 15 10 17 15 9 100 8 9 7 12 12 127 1003 5 6 9 9 8 972 1469 15 11 8 23 11 253 8 10 2965 23 8 15 403 9 5 8 10 11 10 16 8 10 16 9 8 9 15 18 11 4 13 11 9 10 9 14 13 8 13 10 15 9 16 10 10 17 8 325 6 8 1004 5 5 310 12 8 7 11 11 10 12 16 8 6 7 10 8 13 15 12 15 10 11 593 13 6 9 22 17 11 10 8 18 18 14 9 11 16 12 982 11 10 228 14 10 8 9 6 319 172 8 12 9 12 613 11 18 10 22 23 7 3771 14 13 1253 9 474 11 12 13 7 11 44 11 14 11 10 1000 9 247 12 724 7 9 21 8 8 12 13 9 2177 247 28 11 9 12 8 15 159 7 8 19 7 21 8 8 6 11 17 10 11 374 8 12 922 12 11 11 14 1259 287 7 8 10 10 11 12 19 12 1086 27 9 10 18 12 176 9 8 129 8 8 8 1485 13 18 13 9 502 14 13 10 10 11 10 11 11 16 71 12 11 6 14 13 14 13 12 943 13 9 12 22 9 6 8 215 29 8 5 9 8 9 9 34 9 2483 6 517 15 19 15 87 8 12 9 163 334 14 9 6 9 37 10 11 15 17 10 5955 12 10 10 17 10 10 20 13 23 7 76 9 9 18 13 13 8 8 981 14 6 14 41 16 16 987 10 6 1983 455 1002 17 11 16 13 8 36 15 7 7 10 11 12 14 12 1250 975 15 11 11 17 7 8 9 12 11 11 13 9 1690 10 8 2140 13 9 491 7 12 13 1234 1025 14 11 11 11 29 13 15 8 11 16 12 823 9 13 998 774 9 9 13 11 14 18 11 95 12 10 1497 15 172 16 8 10 1486 14 11 11 14 14 11 13 9 13 14 11 6 3634 7 12 16 18 12 12 11 854 10 10 17 11 7 374 18 11 14 11 9 7 16 15 19 2291 11 9 14 22 5 15 7 8 8 17 13 31 11 8 18 394 10 13 13 169 1248 10 6 10 978 26 14 12 15 10 6 17 18 18 14 13 9 184 8 9 17 7 17 13 5 15 12 500 20 13 13 8 9 8 9 15 21141 12 9 558 251 17 13 7 1604 14 24 807 10 12 8 12 7 14 593 33 20 11 12 14 13 10 7 13 10 8 2083 9 5 412 10 18 6 19 261 15 7 12 9 8 12 5 12 20 1191 9 14 7 15 18 15 9 10 1000 9 16 6 13 9 5 410 8 9 6386 137 124 10 1744 496 9 11 9 1393 10 10 12 7 16 13 9 12 7 850 13 16 1488 12 18 26 14 7 6 6 6 7 118 11 21 9 22 7 9 14 373 916 7 16 11 14 12 14 10 528 8 299 9 7 224 10 14 19 10 9 7 17 9 1355 792 12 15 11 6 13 17 18 95 20 20 19 10 8 63 13 7839 11 8 12 1053 11 2489 7 570 11 1117 7 12 12 13 10 9 16 26 8 13 14 10 6 1995 11 11 579 10 8 1586 9 9 493 16 9 18 8 2458 130 1036 452 14 14 15 18 7 10 15 819 12 9 17 16 5 8 17 11 12 15 20 16 12 10 7 15 13 2855 9 17 10 7 8 494 8 13 9 11 12 13 8 9 10 10 14 20 12 13 11 15 8 15 184 5 18 11 19 127 17 15 986 7 10 39 17 1978 20 14 12 11 10 495 6 8 10 7 12 10 12 10 21 9 11 7 78 8 11 17 8 7 2379 10 8 9 7 11 13 7 11 9 20 12 9 6 9 14 13 115 7 258 10 977 13 9 9 1489 9 11 12 32 1484 15 11 120 11 12 10 307 926 190 562 1951 635 12 35 12 987 15 16 16 10 10 15 1481 9 12 1490 16 9 16 1488 10 13 19 459 9 18 7 38 14 198 18 11 9 7 9 9 7 6 11 432 11 8 
To predecode: 0
Predecoding something: 0
Predecode request dropped: 0
sizeofblock_0 0
sizeofblock_1 47561
sizeofblock_2 91875
sizeofblock_3 0
sizeofblock_4 0
sizeofblock_5 0
sizeofblock_6 0
sizeofblock_7 0
sizeofblock_8 0
Variant_0 Correct: 1622850 Incorrect: 0 Accuracy: 1
Variant_1 Correct: 5765066 Incorrect: 0 Accuracy: 1
Variant_2 Correct: 0 Incorrect: 0 Accuracy: -nan
Variant_3 Correct: 0 Incorrect: 0 Accuracy: -nan
