
*** ChampSim Multicore Out-of-Order Simulator ***

Warmup Instructions: 50000000
Simulation Instructions: 50000000
Number of CPUs: 1
LLC sets: 2048
LLC ways: 16
Off-chip DRAM Size: 4096 MB Channels: 1 Width: 64-bit Data Rate: 6400 MT/s
CPU 0 runs ./micro_traces/srv282.trace.gz
.gz
ITLB has LRU replacement policy
DTLB has LRU replacement policy
STLB has LRU replacement policy
FDIP Prefetcher at L1I
L1I has LRU replacement policy
L1D has LRU replacement policy
Initialize SRRIP state for L2C
Initialize DRRIP state for LLC
Heartbeat CPU 0 instructions: 10000000 cycles: 2798604 heartbeat IPC: 3.57321 cumulative IPC: 3.57321 (Simulation time: 0 hr 1 min 41 sec) 
Heartbeat CPU 0 instructions: 20000000 cycles: 5595874 heartbeat IPC: 3.57491 cumulative IPC: 3.57406 (Simulation time: 0 hr 3 min 16 sec) 
Heartbeat CPU 0 instructions: 30000002 cycles: 8393754 heartbeat IPC: 3.57414 cumulative IPC: 3.57409 (Simulation time: 0 hr 4 min 50 sec) 
Heartbeat CPU 0 instructions: 40000002 cycles: 11191423 heartbeat IPC: 3.5744 cumulative IPC: 3.57417 (Simulation time: 0 hr 6 min 24 sec) 
Heartbeat CPU 0 instructions: 50000001 cycles: 13989064 heartbeat IPC: 3.57444 cumulative IPC: 3.57422 (Simulation time: 0 hr 8 min 1 sec) 

Warmup complete CPU 0 instructions: 50000001 cycles: 13989064 (Simulation time: 0 hr 8 min 1 sec) 

Cycle: 20000000 FTQ IN: 55467434 FTQ occupancy: 17.4549 DECODE IN: 55467413 DECODE occupancy: 44.6845 ROB IN: 55467413 ROB occupancy: 267.003 ROB OUT: 55467360
Heartbeat CPU 0 instructions: 60000000 cycles: 25242401 heartbeat IPC: 0.888625 cumulative IPC: 0.888625 (Simulation time: 0 hr 9 min 21 sec) 
Cycle: 30000000 FTQ IN: 8723378 FTQ occupancy: 4.56183 DECODE IN: 8723312 DECODE occupancy: 8.8497 ROB IN: 8723252 ROB occupancy: 75.1123 ROB OUT: 8723228
Heartbeat CPU 0 instructions: 70000003 cycles: 36434699 heartbeat IPC: 0.893472 cumulative IPC: 0.891042 (Simulation time: 0 hr 10 min 40 sec) 
Cycle: 40000000 FTQ IN: 8978150 FTQ occupancy: 4.49629 DECODE IN: 8978204 DECODE occupancy: 8.7486 ROB IN: 8978253 ROB occupancy: 75.3779 ROB OUT: 8978272
Heartbeat CPU 0 instructions: 80000003 cycles: 47794114 heartbeat IPC: 0.880327 cumulative IPC: 0.887441 (Simulation time: 0 hr 11 min 59 sec) 
Cycle: 50000000 FTQ IN: 8800254 FTQ occupancy: 4.64125 DECODE IN: 8800270 DECODE occupancy: 9.02429 ROB IN: 8800281 ROB occupancy: 75.9712 ROB OUT: 8800305
Heartbeat CPU 0 instructions: 90000000 cycles: 58937590 heartbeat IPC: 0.897386 cumulative IPC: 0.889907 (Simulation time: 0 hr 13 min 17 sec) 
Cycle: 60000000 FTQ IN: 8967144 FTQ occupancy: 4.53378 DECODE IN: 8967019 DECODE occupancy: 8.80413 ROB IN: 8966959 ROB occupancy: 75.2342 ROB OUT: 8966871
Cycle: 70000000 FTQ IN: 8953116 FTQ occupancy: 4.52211 DECODE IN: 8953231 DECODE occupancy: 8.83922 ROB IN: 8953291 ROB occupancy: 75.0501 ROB OUT: 8953402
Heartbeat CPU 0 instructions: 100000001 cycles: 70128674 heartbeat IPC: 0.893569 cumulative IPC: 0.890637 (Simulation time: 0 hr 14 min 31 sec) 
Finished CPU 0 instructions: 50000000 cycles: 56139610 cumulative IPC: 0.890637 (Simulation time: 0 hr 14 min 31 sec) 

ChampSim completed all CPUs

Region of Interest Statistics

CPU 0 cumulative IPC: 0.890637 instructions: 50000000 cycles: 56139610
 Fetch stage stalled: 78.273  Sim cycles: 56139610 fetch stall cycle: 43942136
 Empty decode stage: 67.7157  Sim cycles: 56139610 fetch stall cycle: 38015334
ITLB TOTAL     ACCESS:    5671813  HIT:    5173070  MISS:     498743  HIT %:    91.2066  MISS %:    8.79336   MPKI: 9.97486
ITLB LOAD TRANSLATION INSTRUCTION	ACCESS:    5585613  HIT:    5086870  MISS:     498743  HIT %:    91.0709  MISS %:    8.92906  MPKI: 9.97486
ITLB TRANSLATION FROM L1D PREFETCHER INSTRUCTION	ACCESS:      86200  HIT:      86200  MISS:          0  HIT %:        100  MISS %:          0  MPKI: 0

ITLB AVERAGE MISS LATENCY: 9.05115 cycles
ITLB RQ	ACCESS:    7257641	FORWARD:          0	MERGED:    1141638	TO_CACHE:    6116003

DTLB TOTAL     ACCESS:    9772891  HIT:    9299890  MISS:     473001  HIT %:    95.1601  MISS %:    4.83993   MPKI: 9.46002
DTLB LOAD TRANSLATION DATA	ACCESS:    9772891  HIT:    9299890  MISS:     473001  HIT %:    95.1601  MISS %:    4.83993  MPKI: 9.46002

DTLB AVERAGE MISS LATENCY: 9.29989 cycles
DTLB RQ	ACCESS:   13986043	FORWARD:          0	MERGED:    4181363	TO_CACHE:    9804680

STLB TOTAL     ACCESS:    1211465  HIT:    1209227  MISS:       2238  HIT %:    99.8153  MISS %:   0.184735   MPKI: 0.04476
STLB LOAD TRANSLATION INSTRUCTION	ACCESS:     498743  HIT:     498337  MISS:        406  HIT %:    99.9186  MISS %:  0.0814047  MPKI: 0.00812
STLB LOAD TRANSLATION DATA	ACCESS:     472755  HIT:     470928  MISS:       1827  HIT %:    99.6135  MISS %:   0.386458  MPKI: 0.03654
STLB TRANSLATION FROM L1D PREFETCHER DATA	ACCESS:     239967  HIT:     239962  MISS:          5  HIT %:    99.9979  MISS %: 0.00208362  MPKI: 0.0001

STLB AVERAGE MISS LATENCY: 65.5433 cycles
STLB RQ	ACCESS:    1314141	FORWARD:          0	MERGED:     102647	TO_CACHE:    1211494

STLB Hit, L1D data hit: 0
STLB Hit, L2C data hit: 0
STLB Hit, LLC data hit: 0
STLB Hit, LLC data miss: 0
STLB STLB hints to L2: 0
L1D TOTAL     ACCESS:   13765072  HIT:   12673830  MISS:    1091242  HIT %:    92.0724  MISS %:    7.92762   MPKI: 21.8248
L1D LOAD DATA	ACCESS:    7130284  HIT:    6408293  MISS:     721991  HIT %:    89.8743  MISS %:    10.1257  MPKI: 14.4398
L1D RFO DATA	ACCESS:    6318086  HIT:    6034787  MISS:     283299  HIT %:    95.5161  MISS %:    4.48394  MPKI: 5.66598
L1D PREFETCH DATA	ACCESS:     316702  HIT:     230750  MISS:      85952  HIT %:    72.8603  MISS %:    27.1397  MPKI: 1.71904

L1D PREFETCH  REQUESTED:     684947  ISSUED:     684947  USEFUL:      25478  USELESS:      65443
L1D USEFUL LOAD PREFETCHES:      25478 PREFETCH ISSUED TO LOWER LEVEL:      90948  ACCURACY: 28.0138
 TIMELY PREFETCHES:      25478 LATE PREFETCHES: 4917 DROPPED PREFETCHES: 3
L1D AVERAGE MISS LATENCY: 185090 cycles
L1D RQ	ACCESS:   11114640	FORWARD:          0	MERGED:    3790394	TO_CACHE:    7158850
L1D WQ	ACCESS:    6978255	FORWARD:     165549	MERGED:     151062	TO_CACHE:    6827193
L1D PQ	ACCESS:     342550	FORWARD:          0	MERGED:          0	TO_CACHE:     342397

L1D UNIQUE REGIONS ACCESSED: 0
L1D REGIONS CONFLICTS: 0
L1D Cross Page Prefetch Requests: 4577
L1D Same Page Prefetch Requests: 704487
L1D ROI Sum of L1D PQ occupancy: 4347932
L1D PREFETCHES PUSHED FROM L2C: 0
L1I TOTAL     ACCESS:    6986619  HIT:    4199249  MISS:    2787370  HIT %:    60.1042  MISS %:    39.8958   MPKI: 55.7474
L1I LOAD INSTRUCTION	ACCESS:    6614679  HIT:    3827309  MISS:    2787370  HIT %:    57.8608  MISS %:    42.1392  MPKI: 55.7474
L1I PREFETCH INSTRUCTION	ACCESS:     371940  HIT:     371940  MISS:          0  HIT %:        100  MISS %:          0  MPKI: 0

L1I PREFETCH  REQUESTED:     720380  ISSUED:     720380  USEFUL:          0  USELESS:          0
L1I USEFUL LOAD PREFETCHES:          0 PREFETCH ISSUED TO LOWER LEVEL:          0  ACCURACY: -nan
 TIMELY PREFETCHES:          0 LATE PREFETCHES: 0 DROPPED PREFETCHES: 0
L1I AVERAGE MISS LATENCY: 16.9099 cycles
L1I RQ	ACCESS:    9439162	FORWARD:          0	MERGED:    2685273	TO_CACHE:    6753889
L1I PQ	ACCESS:     720380	FORWARD:          0	MERGED:     216628	TO_CACHE:     503752

L1BTB TOTAL     ACCESS:    5667848  HIT:    2012146  MISS:    3655702  HIT %:    35.5011  MISS %:    64.4989   MPKI: 73.114
L1BTB BRANCH_DIRECT_JUMP	ACCESS:     550526  HIT:     144162  MISS:     406364	AVERAGE STALL: 30.3126
L1BTB BRANCH_INDIRECT	ACCESS:     183196  HIT:      65840  MISS:     117356	AVERAGE STALL: 73.4768
L1BTB BRANCH_CONDITIONAL	ACCESS:    2687787  HIT:    1386052  MISS:    1301735	AVERAGE STALL: 31.1218
L1BTB BRANCH_DIRECT_CALL	ACCESS:     950542  HIT:     104946  MISS:     845596	AVERAGE STALL: 32.5195
L1BTB BRANCH_INDIRECT_CALL	ACCESS:     172625  HIT:      21034  MISS:     151591	AVERAGE STALL: 95.0878
L1BTB BRANCH_RETURN	ACCESS:    1123172  HIT:     290112  MISS:     833060	AVERAGE STALL: 32.2096
L1BTB BRANCH_OTHER ACCESS:          0  HIT:          0  MISS:          0	AVERAGE STALL: -nan
L1BTB TOTAL ROB OCCUPANCY AT BTB MISS: 18.0034

L2BTB TOTAL     ACCESS:    3630298  HIT:    2593233  MISS:    1037065  HIT %:    71.4331  MISS %:    28.5669   MPKI: 20.7413
L2BTB BRANCH_DIRECT_JUMP	ACCESS:     402266  HIT:     285157  MISS:     117109	AVERAGE STALL: 30.3126
L2BTB BRANCH_INDIRECT	ACCESS:     106994  HIT:      93700  MISS:      13294	AVERAGE STALL: 73.4768
L2BTB BRANCH_CONDITIONAL	ACCESS:    1301735  HIT:     926399  MISS:     375336	AVERAGE STALL: 31.1218
L2BTB BRANCH_DIRECT_CALL	ACCESS:     845596  HIT:     578684  MISS:     266912	AVERAGE STALL: 32.5195
L2BTB BRANCH_INDIRECT_CALL	ACCESS:     142069  HIT:      93336  MISS:      48733	AVERAGE STALL: 95.0878
L2BTB BRANCH_RETURN	ACCESS:     831638  HIT:     615957  MISS:     215681	AVERAGE STALL: 32.2096
L2BTB BRANCH_OTHER ACCESS:          0  HIT:          0  MISS:          0	AVERAGE STALL: -nan
L2BTB TOTAL ROB OCCUPANCY AT BTB MISS: 63.4627

L2C TOTAL     ACCESS:    4487666  HIT:    4050494  MISS:     437172  HIT %:    90.2584  MISS %:    9.74163   MPKI: 8.74344
L2C LOAD INSTRUCTION	ACCESS:    2787370  HIT:    2550333  MISS:     237037  HIT %:     91.496  MISS %:    8.50397  MPKI: 4.74074
L2C LOAD TRANSLATION INSTRUCTION	ACCESS:        437  HIT:         84  MISS:        353  HIT %:     19.222  MISS %:     80.778  MPKI: 0.00706
L2C LOAD DATA	ACCESS:     716987  HIT:     645999  MISS:      70988  HIT %:    90.0991  MISS %:    9.90088  MPKI: 1.41976
L2C RFO DATA	ACCESS:     283206  HIT:     236793  MISS:      46413  HIT %:    83.6116  MISS %:    16.3884  MPKI: 0.92826
L2C PREFETCH DATA	ACCESS:     175645  HIT:     107780  MISS:      67865  HIT %:    61.3624  MISS %:    38.6376  MPKI: 1.3573
L2C WRITEBACK DATA	ACCESS:     522112  HIT:     509017  MISS:      13095  HIT %:    97.4919  MISS %:    2.50808  MPKI: 0.2619
L2C LOAD TRANSLATION DATA	ACCESS:       1895  HIT:        478  MISS:       1417  HIT %:    25.2243  MISS %:    74.7757  MPKI: 0.02834
L2C TRANSLATION FROM L1D PREFETCHER DATA	ACCESS:         14  HIT:         10  MISS:          4  HIT %:    71.4286  MISS %:    28.5714  MPKI: 8e-05

L2C PREFETCH  REQUESTED:      90853  ISSUED:      90853  USEFUL:       7376  USELESS:      60941
L2C USEFUL LOAD PREFETCHES:       7376 PREFETCH ISSUED TO LOWER LEVEL:      68231  ACCURACY: 10.8103
 TIMELY PREFETCHES:       7376 LATE PREFETCHES: 366 DROPPED PREFETCHES: 0
L2C AVERAGE MISS LATENCY: 38.6387 cycles
L2C RQ	ACCESS:    3790010	FORWARD:          0	MERGED:          0	TO_CACHE:    3789909
L2C WQ	ACCESS:     522112	FORWARD:        102	MERGED:          0	TO_CACHE:     522112
L2C PQ	ACCESS:     181801	FORWARD:          0	MERGED:       2822	TO_CACHE:     178978

L2C Dense regions hint from L2: 0
PSCL5 TOTAL     ACCESS:       4486  HIT:       2243  MISS:       2243  HIT %:         50  MISS %:         50   MPKI: 0.04486
PSCL5 LOAD TRANSLATION INSTRUCTION	ACCESS:       4458  HIT:       2229  MISS:       2229  HIT %:         50  MISS %:         50  MPKI: 0.04458
PSCL5 TRANSLATION FROM L1D PREFETCHER INSTRUCTION	ACCESS:         28  HIT:         14  MISS:         14  HIT %:         50  MISS %:         50  MPKI: 0.00028


PSCL4 TOTAL     ACCESS:       3056  HIT:       1526  MISS:       1530  HIT %:    49.9346  MISS %:    50.0654   MPKI: 0.0306
PSCL4 LOAD TRANSLATION INSTRUCTION	ACCESS:       2799  HIT:       1516  MISS:       1283  HIT %:    54.1622  MISS %:    45.8378  MPKI: 0.02566
PSCL4 TRANSLATION FROM L1D PREFETCHER INSTRUCTION	ACCESS:         20  HIT:         10  MISS:         10  HIT %:         50  MISS %:         50  MPKI: 0.0002
PSCL4 LOAD TRANSLATION DATA	ACCESS:        237  HIT:          0  MISS:        237  HIT %:          0  MISS %:        100  MPKI: 0.00474


PSCL3 TOTAL     ACCESS:       4332  HIT:       2158  MISS:       2174  HIT %:    49.8153  MISS %:    50.1847   MPKI: 0.04348
PSCL3 LOAD TRANSLATION INSTRUCTION	ACCESS:       3415  HIT:       2148  MISS:       1267  HIT %:     62.899  MISS %:     37.101  MPKI: 0.02534
PSCL3 TRANSLATION FROM L1D PREFETCHER INSTRUCTION	ACCESS:         14  HIT:         10  MISS:          4  HIT %:    71.4286  MISS %:    28.5714  MPKI: 8e-05
PSCL3 LOAD TRANSLATION DATA	ACCESS:        897  HIT:          0  MISS:        897  HIT %:          0  MISS %:        100  MPKI: 0.01794
PSCL3 TRANSLATION FROM L1D PREFETCHER DATA	ACCESS:          6  HIT:          0  MISS:          6  HIT %:          0  MISS %:        100  MPKI: 0.00012


PSCL2 TOTAL     ACCESS:       4403  HIT:       2160  MISS:       2243  HIT %:    49.0575  MISS %:    50.9425   MPKI: 0.04486
PSCL2 LOAD TRANSLATION INSTRUCTION	ACCESS:       2553  HIT:       2146  MISS:        407  HIT %:     84.058  MISS %:     15.942  MPKI: 0.00814
PSCL2 TRANSLATION FROM L1D PREFETCHER INSTRUCTION	ACCESS:         14  HIT:         14  MISS:          0  HIT %:        100  MISS %:          0  MPKI: 0
PSCL2 LOAD TRANSLATION DATA	ACCESS:       1822  HIT:          0  MISS:       1822  HIT %:          0  MISS %:        100  MPKI: 0.03644
PSCL2 TRANSLATION FROM L1D PREFETCHER DATA	ACCESS:         14  HIT:          0  MISS:         14  HIT %:          0  MISS %:        100  MPKI: 0.00028


LLC TOTAL     ACCESS:     491975  HIT:     464881  MISS:      27094  HIT %:    94.4928  MISS %:    5.50719   MPKI: 0.54188
LLC LOAD INSTRUCTION	ACCESS:     237037  HIT:     236308  MISS:        729  HIT %:    99.6925  MISS %:   0.307547  MPKI: 0.01458
LLC LOAD TRANSLATION INSTRUCTION	ACCESS:        353  HIT:        331  MISS:         22  HIT %:    93.7677  MISS %:    6.23229  MPKI: 0.00044
LLC LOAD DATA	ACCESS:      70671  HIT:      67233  MISS:       3438  HIT %:    95.1352  MISS %:     4.8648  MPKI: 0.06876
LLC RFO DATA	ACCESS:      46362  HIT:      33384  MISS:      12978  HIT %:    72.0072  MISS %:    27.9928  MPKI: 0.25956
LLC PREFETCH DATA	ACCESS:      68231  HIT:      58675  MISS:       9556  HIT %:    85.9946  MISS %:    14.0054  MPKI: 0.19112
LLC WRITEBACK DATA	ACCESS:      67900  HIT:      67599  MISS:        301  HIT %:    99.5567  MISS %:   0.443299  MPKI: 0.00602
LLC LOAD TRANSLATION DATA	ACCESS:       1417  HIT:       1347  MISS:         70  HIT %:      95.06  MISS %:    4.94001  MPKI: 0.0014
LLC TRANSLATION FROM L1D PREFETCHER DATA	ACCESS:          4  HIT:          4  MISS:          0  HIT %:        100  MISS %:          0  MPKI: 0

LLC AVERAGE MISS LATENCY: 152.862 cycles
LLC RQ	ACCESS:     355846	FORWARD:          0	MERGED:          0	TO_CACHE:     355844
LLC WQ	ACCESS:      67900	FORWARD:          2	MERGED:          0	TO_CACHE:      67900
LLC PQ	ACCESS:      68231	FORWARD:          0	MERGED:          0	TO_CACHE:      68231

LLC Dense regions hint to LLC: 0

RAW hits: 1537297
Loads Generated: 12651937
Loads sent to L1D: 11114640
Stores Generated: 6978249
Stores sent to L1D: 6978255
Major fault: 0 Minor fault: 2512
Allocated PAGES: 2512

stream: 
stream:times selected: 1137736
stream:pref_filled: 119689
stream:pref_useful: 22234
stream:pref_late: 3934
stream:misses: 6643
stream:misses_by_poll: 0

CS: 
CS:times selected: 163302
CS:pref_filled: 51372
CS:pref_useful: 28812
CS:pref_late: 3663
CS:misses: 10629
CS:misses_by_poll: 0

CPLX: 
CPLX:times selected: 973236
CPLX:pref_filled: 18117
CPLX:pref_useful: 3494
CPLX:pref_late: 1205
CPLX:misses: 65798
CPLX:misses_by_poll: 0

NL_L1: 
NL:times selected: 12797
NL:pref_filled: 510
NL:pref_useful: 178
NL:pref_late: 137
NL:misses: 526
NL:misses_by_poll: 0

total selections: 2287071
total_filled: 85952
total_useful: 25478
total_late: 9775
total_polluted: 0
total_misses_after_warmup: 750556
conflicts: 5828036

test: 112934

DRAM Statistics
 CHANNEL 0
 RQ ROW_BUFFER_HIT:       9968  ROW_BUFFER_MISS:      16818
 DBUS_CONGESTED:          5
 WQ ROW_BUFFER_HIT:       1175  ROW_BUFFER_MISS:      11305  FULL:          0

 AVG_CONGESTED_CYCLE: 5

CPU 0 Branch Prediction Accuracy: 99.8231% MPKI: 0.32354 Average ROB Occupancy at Mispredict: 99.85
Branch types
NOT_BRANCH: 40857330 81.7147%
BRANCH_DIRECT_JUMP: 550526 1.10105%
BRANCH_INDIRECT: 183196 0.366392%
BRANCH_CONDITIONAL: 6162379 12.3248%
BRANCH_DIRECT_CALL: 950542 1.90108%
BRANCH_INDIRECT_CALL: 172625 0.34525%
BRANCH_RETURN: 1123172 2.24634%
BRANCH_OTHER: 0 0%

DRAM PAGES: 1048576
Allocated PAGES: 2512
Average_ROB_Occupancy: 76.3958
Average_Decode_Occupancy: 8.86308
Average_FTQ_Occupancy: 4.55274
Indirect max targets: 14 Average targets: 1.14576
Branch_type:  BRANCH_DIRECT_JUMP:  Count Percentage: 3.80298 6.01755 3.6726 8.84385 2.22938 6.32364 0.581013 68.529 
Branch_type:  BRANCH_INDIRECT:  Count Percentage: 6.1156 3.44168 8.14823 9.68129 3.34602 2.81156 0.937004 65.5186 
Branch_type:  BRANCH_CONDITIONAL:  Count Percentage: 20.6651 3.83629 1.48798 7.55251 2.19096 4.34825 0.533508 59.3854 
Branch_type:  BRANCH_DIRECT_CALL:  Count Percentage: 0.898476 1.30601 0.730928 4.4328 1.93835 2.83946 0.66065 87.1933 
Branch_type:  BRANCH_INDIRECT_CALL:  Count Percentage: 9.56938 0 3.00122 0 0 2.33077 0.997409 84.1012 
Branch_type:  BRANCH_RETURN:  Count Percentage: 4.74902 4.80294 1.02541 3.95664 3.34546 4.97964 0.580716 76.5602 
Branch_type:  BRANCH_DIRECT_JUMP:  Total Count: 41858 66233 40423 97341 24538 69602 6395 754273 
Branch_type:  BRANCH_INDIRECT:  Total Count: 22439 12628 29897 35522 12277 10316 3438 240397 
Branch_type:  BRANCH_CONDITIONAL:  Total Count: 2546323 472701 183347 930608 269967 535784 65738 7317371 
Branch_type:  BRANCH_DIRECT_CALL:  Total Count: 17042 24772 13864 84080 36766 53858 12531 1653855 
Branch_type:  BRANCH_INDIRECT_CALL:  Total Count: 32985 0 10345 0 0 8034 3438 289891 
Branch_type:  BRANCH_RETURN:  Total Count: 106484 107693 22992 88717 75013 111655 13021 1716657 
Number of unique branch instructions: 9734
Upper 32 bits: 
aaaa
ffff
ffff0000
Unique upper 32 bits: 3
Unique upper 36 bits: 3
Unique upper 40 bits: 5
Unique upper 44 bits: 32
Unique upper 48 bits: 153
Offset_3 4016
Offset_4 238
Offset_5 440
Offset_6 494
Offset_7 570
Offset_8 504
Offset_9 459
Offset_10 371
Offset_11 302
Offset_12 266
Offset_13 199
Offset_14 223
Offset_15 184
Offset_16 214
Offset_17 143
Offset_18 118
Offset_19 230
Offset_20 135
Offset_21 235
Offset_22 389
Offset_23 241
Offset_24 328
Offset_25 88
Offset_47 82
decode_dispatch_called: 20110866 35.823
Dispatch_width: 0 9897269 49.2135 17.6297
Dispatch_width: 1 598865 2.97782 1.06674
Dispatch_width: 2 815944 4.05723 1.45342
Dispatch_width: 3 557547 2.77237 0.993144
Dispatch_width: 4 1462570 7.27254 2.60524
Dispatch_width: 5 425742 2.11697 0.758363
Dispatch_width: 6 6352929 31.5895 11.3163
Empty_decode_cycles: 36028744 64.177
ROB_full_cycles: 1453529 2.58913
Starvation_cycles_per_kilo_instr: 483.332
Starvation_cycles_per_kilo_instr_3: 464.448
Starvation_cycles_per_kilo_instr_0: 444.725
Branch_type_1  (3,1)  (4,7)  (5,36)  (6,68)  (7,113)  (8,126)  (9,122)  (10,97)  (11,67)  (12,43)  (13,5)  (14,2)  (15,3)  (16,4)  (18,1)  (19,4)  (20,2)  (21,1)  (22,3)  (23,2)  (24,10)  (25,12) 
Branch_type_2  (3,1)  (5,1)  (8,3)  (9,3)  (12,1)  (13,1)  (14,1)  (16,3)  (17,2)  (20,2)  (21,2)  (23,5)  (24,1)  (47,38) 
Branch_type_3  (3,4014)  (4,231)  (5,399)  (6,411)  (7,428)  (8,316)  (9,252)  (10,149)  (11,122)  (12,50)  (13,4) 
Branch_type_4  (6,3)  (7,8)  (8,24)  (9,51)  (10,59)  (11,57)  (12,94)  (13,86)  (14,98)  (15,86)  (16,95)  (17,64)  (18,53)  (19,112)  (20,71)  (21,124)  (22,207)  (23,136)  (24,190)  (25,72) 
Branch_type_5  (8,2)  (9,1)  (10,3)  (11,5)  (12,3)  (13,14)  (14,16)  (15,11)  (16,20)  (17,11)  (18,16)  (19,12)  (20,10)  (21,13)  (22,42)  (23,26)  (24,36) 
Branch_type_6  (5,4)  (6,12)  (7,21)  (8,33)  (9,30)  (10,63)  (11,51)  (12,75)  (13,89)  (14,106)  (15,84)  (16,92)  (17,66)  (18,48)  (19,102)  (20,50)  (21,95)  (22,137)  (23,72)  (24,91)  (25,4)  (47,44) 
Unique trigger count: 
BTB PER SET UNIQUE ADDR: 23 26 20 27 26 26 18 23 13 25 20 27 25 20 23 17 21 21 22 25 23 21 23 26 18 24 25 25 25 22 22 23 27 15 17 22 22 26 15 19 21 22 24 29 20 14 25 16 24 20 29 19 22 26 21 11 21 17 17 24 23 30 24 23 23 27 25 16 28 24 22 20 27 18 18 15 15 24 19 32 24 15 21 28 26 23 27 22 16 39 19 14 25 19 13 26 19 20 27 29 35 30 24 18 23 18 22 25 14 17 20 32 24 19 21 15 26 26 23 23 25 17 21 15 23 20 11 24 32 18 19 30 22 30 20 29 14 27 21 32 20 28 20 22 24 23 27 20 15 23 23 25 17 23 15 31 26 27 27 25 26 23 27 27 20 26 25 17 27 19 21 27 24 24 24 21 21 22 20 26 18 21 21 29 34 32 16 25 27 19 23 18 16 30 25 16 17 23 22 24 28 26 19 19 16 21 23 22 21 24 20 26 22 21 24 22 20 25 17 37 13 26 16 22 19 26 29 25 16 30 22 13 22 27 18 26 27 20 20 18 24 24 30 27 18 22 20 21 25 23 29 25 25 17 26 27 19 18 17 20 25 18 9 22 22 15 19 18 19 21 21 23 18 14 16 17 23 27 22 22 14 25 17 18 27 18 18 33 32 26 24 17 23 26 18 29 24 25 24 23 21 21 20 37 22 29 26 22 31 25 22 29 21 34 27 13 28 21 22 28 20 26 17 22 27 30 24 18 21 17 21 30 18 20 20 24 19 20 18 37 23 25 16 25 25 27 19 22 22 22 25 22 27 22 23 27 24 26 18 17 18 29 20 31 23 27 13 23 26 20 23 17 23 25 17 29 23 28 20 24 23 22 17 15 20 22 27 28 26 24 29 13 26 29 17 16 21 17 29 22 20 26 22 23 27 26 26 27 21 23 25 19 18 27 22 21 21 31 37 30 20 25 23 26 28 18 26 19 25 20 29 21 19 23 28 28 26 19 20 25 26 19 17 30 32 20 16 25 28 24 27 38 25 18 27 32 26 28 18 29 18 23 19 27 34 20 23 24 27 25 24 27 27 23 23 35 25 33 17 24 34 27 20 25 17 25 35 31 27 21 19 26 18 19 18 20 25 25 20 25 19 30 19 35 20 20 17 31 30 27 23 32 24 21 20 26 19 30 18 18 17 22 25 15 24 33 37 15 15 33 27 23 24 24 26 29 21 24 26 25 27 18 25 25 26 30 15 25 17 23 24 31 24 23 18 22 23 24 31 25 21 34 23 21 24 28 23 28 23 28 28 25 31 34 23 28 29 28 22 23 26 26 15 23 25 25 20 23 34 28 20 20 24 15 25 18 15 22 25 19 25 21 22 12 25 24 32 23 22 24 30 27 21 15 10 30 16 27 20 25 29 24 19 20 21 32 21 29 18 24 22 30 29 23 22 22 25 28 23 27 22 25 27 30 26 26 20 24 35 17 16 24 19 20 30 24 23 23 27 21 23 13 27 31 21 26 17 21 20 20 24 20 19 26 33 21 26 26 27 29 21 30 21 27 25 21 22 24 25 29 22 24 22 16 15 21 17 26 20 25 15 26 27 33 14 27 21 17 17 13 22 22 15 22 18 19 34 26 20 28 26 23 22 21 18 22 25 23 20 18 25 20 22 19 23 27 24 30 36 21 20 21 21 25 32 28 22 23 21 18 24 20 25 23 19 21 32 21 20 18 24 15 13 21 23 29 17 23 21 27 23 29 19 17 25 17 28 21 22 26 15 25 22 20 24 23 19 25 21 14 17 13 26 28 21 30 21 18 28 23 35 25 32 30 33 20 24 21 23 21 21 35 30 31 19 25 36 30 13 27 24 28 17 28 26 22 18 26 25 27 23 30 27 23 19 26 26 24 25 23 27 23 22 24 24 25 20 36 20 26 24 20 18 20 30 30 31 27 26 27 25 23 19 26 27 17 23 17 30 20 18 28 28 21 24 13 20 22 19 23 29 16 21 29 25 25 29 21 25 21 25 17 21 21 20 28 30 23 19 19 24 20 22 25 14 29 21 27 22 32 20 23 22 24 25 26 33 21 23 26 24 23 17 25 20 18 12 29 17 17 30 32 28 22 20 31 22 21 25 26 17 29 24 21 23 25 23 29 22 27 23 24 18 24 21 24 25 22 27 25 23 25 21 32 30 23 27 24 19 26 23 28 28 22 27 18 33 29 28 34 18 29 26 23 22 31 36 19 26 25 26 26 24 22 22 20 20 23 29 22 30 29 20 21 29 27 18 32 20 26 27 26 27 17 19 23 14 19 10 14 20 31 21 16 
BTB PER SET COUNT: 2295 2407 2903 2148 2747 2193 1848 1775 1587 2165 1253 2659 14316 1759 1846 1096 2184 2243 1737 2253 1860 1570 2164 2319 1135 1969 2191 1922 2265 1968 1919 2532 2077 880 1299 2021 2014 2414 1120 2308 1584 1554 2487 2309 1773 674 2159 1506 2167 1752 2495 1355 2045 2080 1722 870 1564 1577 1252 2097 1795 3057 2047 2018 2542 2284 1728 1568 2244 1863 2430 2141 2571 1445 1218 859 941 2187 1561 2703 2545 1023 1987 2572 2115 1730 2255 2114 1876 3890 1491 1448 2327 1900 888 2074 1535 1536 2240 3883 3737 2725 2234 1619 3748 1362 1730 2297 1658 3093 1861 2904 2431 1592 1838 1118 2132 2381 2609 1988 2381 1476 1737 1106 1819 1584 752 2643 3321 1714 1369 3324 1523 2452 1717 2207 1471 2200 1660 2817 1692 2356 1807 1859 1900 1765 2688 1411 1011 1829 1830 2064 1565 1632 928 2933 2645 2289 2321 2491 2096 1876 2601 2273 1719 2195 1883 1494 2225 1793 1606 2392 2077 1792 2137 1959 1765 1604 1786 2549 1570 1957 1861 2209 2834 3065 1013 2009 2473 2376 1816 1316 1162 2797 2112 1329 1242 1893 1593 1626 2128 2073 1894 1537 1118 2005 1771 1871 1905 2293 1513 2331 1329 3332 1981 2306 1633 2367 1710 3440 1072 2112 1348 1776 1653 2190 2813 2211 1403 3363 1720 630 1664 2241 1428 5435 2229 1681 2216 1166 1887 1997 2878 2764 1630 2175 1384 1822 2090 1718 1789 2086 2172 1535 2106 2506 1465 1333 1367 1667 2205 1466 350 1869 2165 769 1739 1517 2160 1932 1700 1779 1151 953 1524 1197 2063 2374 1961 2000 1001 2234 1442 1707 2146 1574 1282 3053 3050 2389 1982 1248 1805 2537 1073 2770 2360 2080 1780 2122 1608 1514 1947 3029 2035 2760 2019 1763 2886 2210 2517 2319 1345 3290 3101 1368 2587 1803 1758 2748 1506 3041 1127 1599 2688 2517 2416 1412 1611 1121 1780 2896 1300 1426 1871 1795 1332 1823 1205 3548 1894 2994 1165 2071 2591 1914 1424 1716 1907 2181 2272 1838 2420 1807 1684 2598 2239 2657 1572 1340 1278 2701 1536 2661 1898 2948 702 1657 1826 1541 2025 1282 2229 2260 1225 2800 1979 2419 1800 2489 2395 2104 1499 978 1168 1813 3005 2419 2160 2174 2185 999 2243 2533 1337 1238 1383 1522 2848 2098 1609 2116 2117 1597 2191 2252 2191 2347 1372 2188 2142 1360 1459 2603 1664 1856 1786 4358 3422 2750 1381 2227 2430 1910 2432 1719 2617 1478 1603 1937 2721 2111 1357 1642 2621 2242 1771 1614 1635 1909 2727 1454 1374 2741 2963 1787 1406 2003 2350 1849 2423 4103 1932 1707 2603 3235 1982 2750 1280 2255 1415 1937 1507 2555 2831 1748 6159 1896 2514 2073 2024 2111 2016 1740 1922 2912 1770 3343 1284 1943 2711 2375 1608 2414 1528 1837 3325 2424 2598 1880 1844 2270 4442 1068 1104 1741 2753 2671 1593 2275 1497 2940 1378 3472 1469 1367 1272 2966 2616 1917 1944 3300 2656 2658 1762 2779 1572 2911 1234 1267 922 1976 2170 1092 1850 2869 3455 2224 1161 4245 3145 2132 2038 1903 2386 2448 2267 2421 2147 1799 2411 1743 2556 2065 2337 2713 982 2095 1218 2349 1723 2880 2143 2267 1517 1411 1735 1817 2331 2238 1313 2853 1633 1954 2372 2750 1840 2295 1763 2572 2758 2266 3163 2886 2192 2639 2659 2658 1740 1995 2376 2319 997 3114 2090 2385 1834 2108 2952 2860 2073 1765 2245 1053 1891 1293 1743 2313 2089 1429 1464 1925 1842 1065 2079 2221 2676 2034 1439 1697 2925 2556 2168 1198 696 2483 1080 2397 2211 2445 2934 1865 987 1592 1568 2876 1523 2882 2265 1955 1690 3191 3213 1733 1774 1706 2411 2485 1612 2342 2195 2255 2568 2631 3236 2432 1342 2485 3514 1210 1023 2158 1201 1840 3201 2001 1676 1758 2323 1913 2264 786 2303 2750 5710 2603 1371 2033 2140 1805 1728 1702 1530 2239 2893 2067 2000 2645 2292 2963 1863 2592 2019 2411 2889 2114 1872 2009 2191 2472 1638 2594 2168 900 1432 1702 1776 2461 1593 2044 1447 2393 2369 2886 891 2262 1822 1407 1199 1111 1942 2098 1201 1845 1749 1587 3128 2087 1511 2671 2270 2498 1644 1770 1821 1709 1830 2398 1628 2133 2255 5589 1635 1812 1806 2054 2378 3043 3664 1665 1819 1553 1970 2356 3126 2680 2159 1851 1982 1664 2474 1540 2515 2123 1185 1916 2815 2231 1768 1127 2254 1067 757 1708 2744 3013 1155 2071 1124 2183 1787 2475 1838 1448 2166 1345 2347 1917 1509 2640 1754 2302 1967 1655 1918 1866 1483 2248 1502 1073 1321 1501 2087 2307 1677 2835 1749 1334 1761 2117 3272 1883 2597 2556 2915 1648 1945 1907 1847 1569 1455 5015 2707 2450 1780 2955 2742 3151 1043 2895 1901 2715 1220 2443 2803 1930 1539 2090 2187 2740 2113 3061 2169 2171 1167 2761 1909 1904 2336 1871 2397 2113 2078 1907 2131 2200 1682 3302 1454 6578 2549 2003 1586 1698 2706 2605 2923 2351 2480 2164 2635 2048 1603 1960 2759 1039 1884 1030 2715 1477 1620 2825 2308 1605 1925 906 1665 1937 2616 1866 2074 891 1407 2957 2207 2354 2475 1873 1940 1893 2343 1102 3001 2831 1528 2596 2941 1714 1631 1553 2113 1786 1781 2311 768 2239 1608 2605 1790 2774 1712 1827 2023 2334 2473 2352 3815 2125 1984 2178 2097 2159 1341 2398 1310 1504 709 2612 1289 1155 2244 2746 3155 1488 1786 3118 2079 1712 2400 2408 1379 3151 2023 1539 1975 2045 1668 2444 2310 2268 2172 2493 1915 3473 1704 2140 2423 1879 2123 2152 2037 2155 1604 2578 2570 1411 2735 2199 1383 2165 1975 2771 2519 1790 2746 1606 3368 2334 2698 3234 1865 2288 2384 2141 1430 3422 4100 1475 2464 2069 2202 2698 1946 1999 2355 1888 1484 3226 2368 2273 2632 3114 1650 1792 2326 2045 1491 3085 1583 2384 2534 2464 2434 1215 1386 1827 936 1687 506 1201 1558 2941 2041 1042 
