
*** ChampSim Multicore Out-of-Order Simulator ***

Warmup Instructions: 50000000
Simulation Instructions: 50000000
Number of CPUs: 1
LLC sets: 2048
LLC ways: 16
Off-chip DRAM Size: 4096 MB Channels: 1 Width: 64-bit Data Rate: 6400 MT/s
CPU 0 runs ./micro_traces/srv245.trace.gz
.gz
ITLB has LRU replacement policy
DTLB has LRU replacement policy
STLB has LRU replacement policy
CPU 0 L1I next line prefetcher
L1I has LRU replacement policy
L1D has LRU replacement policy
Initialize SRRIP state for L2C
Initialize DRRIP state for LLC
Heartbeat CPU 0 instructions: 10000001 cycles: 2791803 heartbeat IPC: 3.58191 cumulative IPC: 3.58191 (Simulation time: 0 hr 1 min 41 sec) 
Heartbeat CPU 0 instructions: 20000000 cycles: 5583759 heartbeat IPC: 3.58172 cumulative IPC: 3.58182 (Simulation time: 0 hr 3 min 17 sec) 
Heartbeat CPU 0 instructions: 30000003 cycles: 8375583 heartbeat IPC: 3.58189 cumulative IPC: 3.58184 (Simulation time: 0 hr 4 min 54 sec) 
Heartbeat CPU 0 instructions: 40000003 cycles: 11166212 heartbeat IPC: 3.58342 cumulative IPC: 3.58224 (Simulation time: 0 hr 6 min 32 sec) 
Heartbeat CPU 0 instructions: 50000001 cycles: 13957486 heartbeat IPC: 3.58259 cumulative IPC: 3.58231 (Simulation time: 0 hr 8 min 7 sec) 

Warmup complete CPU 0 instructions: 50000001 cycles: 13957486 (Simulation time: 0 hr 8 min 7 sec) 

Cycle: 20000000 FTQ IN: 57682299 FTQ occupancy: 18.1906 DECODE IN: 57682270 DECODE occupancy: 47.8788 ROB IN: 57682264 ROB occupancy: 299.213 ROB OUT: 57682205
Heartbeat CPU 0 instructions: 60000000 cycles: 21803527 heartbeat IPC: 1.27453 cumulative IPC: 1.27453 (Simulation time: 0 hr 9 min 34 sec) 
Heartbeat CPU 0 instructions: 70000000 cycles: 29515987 heartbeat IPC: 1.2966 cumulative IPC: 1.28547 (Simulation time: 0 hr 11 min 1 sec) 
Cycle: 30000000 FTQ IN: 12942653 FTQ occupancy: 6.8582 DECODE IN: 12942682 DECODE occupancy: 19.3921 ROB IN: 12942688 ROB occupancy: 184.534 ROB OUT: 12942709
Heartbeat CPU 0 instructions: 80000002 cycles: 37309043 heartbeat IPC: 1.28319 cumulative IPC: 1.28471 (Simulation time: 0 hr 12 min 30 sec) 
Cycle: 40000000 FTQ IN: 12827054 FTQ occupancy: 6.93302 DECODE IN: 12827054 DECODE occupancy: 19.4518 ROB IN: 12827054 ROB occupancy: 184.634 ROB OUT: 12826885
Heartbeat CPU 0 instructions: 90000000 cycles: 45071690 heartbeat IPC: 1.28822 cumulative IPC: 1.28559 (Simulation time: 0 hr 13 min 58 sec) 
Cycle: 50000000 FTQ IN: 12951233 FTQ occupancy: 7.10824 DECODE IN: 12951092 DECODE occupancy: 19.9988 ROB IN: 12951032 ROB occupancy: 186.515 ROB OUT: 12950891
Heartbeat CPU 0 instructions: 100000000 cycles: 52699160 heartbeat IPC: 1.31105 cumulative IPC: 1.2906 (Simulation time: 0 hr 15 min 26 sec) 
Finished CPU 0 instructions: 50000003 cycles: 38741675 cumulative IPC: 1.2906 (Simulation time: 0 hr 15 min 26 sec) 

ChampSim completed all CPUs

Region of Interest Statistics

CPU 0 cumulative IPC: 1.2906 instructions: 50000003 cycles: 38741675
 Fetch stage stalled: 63.3526  Sim cycles: 38741675 fetch stall cycle: 24543859
 Empty decode stage: 45.8682  Sim cycles: 38741675 fetch stall cycle: 17770116
ITLB TOTAL     ACCESS:    7343955  HIT:    6786090  MISS:     557865  HIT %:    92.4038  MISS %:    7.59625   MPKI: 11.1573
ITLB LOAD TRANSLATION INSTRUCTION	ACCESS:    5753693  HIT:    5624173  MISS:     129520  HIT %:    97.7489  MISS %:    2.25108  MPKI: 2.5904
ITLB TRANSLATION FROM L1D PREFETCHER INSTRUCTION	ACCESS:    1590262  HIT:    1161917  MISS:     428345  HIT %:    73.0645  MISS %:    26.9355  MPKI: 8.5669

ITLB AVERAGE MISS LATENCY: 149546 cycles
ITLB RQ	ACCESS:   10853446	FORWARD:          0	MERGED:    3360135	TO_CACHE:    7493311

DTLB TOTAL     ACCESS:    8952258  HIT:    8477674  MISS:     474584  HIT %:    94.6987  MISS %:    5.30128   MPKI: 9.49168
DTLB LOAD TRANSLATION DATA	ACCESS:    8952258  HIT:    8477674  MISS:     474584  HIT %:    94.6987  MISS %:    5.30128  MPKI: 9.49168

DTLB AVERAGE MISS LATENCY: 9.43261 cycles
DTLB RQ	ACCESS:   13196487	FORWARD:          0	MERGED:    4207278	TO_CACHE:    8989209

STLB TOTAL     ACCESS:    1331788  HIT:    1328665  MISS:       3123  HIT %:    99.7655  MISS %:   0.234497   MPKI: 0.06246
STLB LOAD TRANSLATION INSTRUCTION	ACCESS:     127071  HIT:     126879  MISS:        192  HIT %:    99.8489  MISS %:   0.151097  MPKI: 0.00384
STLB TRANSLATION FROM L1D PREFETCHER INSTRUCTION	ACCESS:     430794  HIT:     430469  MISS:        325  HIT %:    99.9246  MISS %:  0.0754421  MPKI: 0.0065
STLB LOAD TRANSLATION DATA	ACCESS:     474584  HIT:     472011  MISS:       2573  HIT %:    99.4578  MISS %:   0.542159  MPKI: 0.05146
STLB TRANSLATION FROM L1D PREFETCHER DATA	ACCESS:     299339  HIT:     299306  MISS:         33  HIT %:     99.989  MISS %:  0.0110243  MPKI: 0.00066

STLB AVERAGE MISS LATENCY: 68.6074 cycles
STLB RQ	ACCESS:    1512818	FORWARD:          0	MERGED:     178035	TO_CACHE:    1334783

STLB Hit, L1D data hit: 0
STLB Hit, L2C data hit: 0
STLB Hit, LLC data hit: 0
STLB Hit, LLC data miss: 0
STLB STLB hints to L2: 0
L1D TOTAL     ACCESS:   13036474  HIT:   11935940  MISS:    1100534  HIT %:     91.558  MISS %:    8.44196   MPKI: 22.0107
L1D LOAD DATA	ACCESS:    6559014  HIT:    5844641  MISS:     714373  HIT %:    89.1085  MISS %:    10.8915  MPKI: 14.2875
L1D RFO DATA	ACCESS:    6082778  HIT:    5806313  MISS:     276465  HIT %:     95.455  MISS %:    4.54505  MPKI: 5.5293
L1D PREFETCH DATA	ACCESS:     394682  HIT:     284986  MISS:     109696  HIT %:    72.2065  MISS %:    27.7935  MPKI: 2.19392

L1D PREFETCH  REQUESTED:     955303  ISSUED:     955303  USEFUL:      57928  USELESS:      72821
L1D USEFUL LOAD PREFETCHES:      57928 PREFETCH ISSUED TO LOWER LEVEL:     130816  ACCURACY: 44.282
 TIMELY PREFETCHES:      57928 LATE PREFETCHES: 21046 DROPPED PREFETCHES: 45
L1D AVERAGE MISS LATENCY: 630790 cycles
L1D RQ	ACCESS:   10679306	FORWARD:          0	MERGED:    3927533	TO_CACHE:    6600914
L1D WQ	ACCESS:    6770009	FORWARD:     151242	MERGED:     174436	TO_CACHE:    6595573
L1D PQ	ACCESS:     477843	FORWARD:          0	MERGED:          0	TO_CACHE:     477460

L1D UNIQUE REGIONS ACCESSED: 0
L1D REGIONS CONFLICTS: 0
L1D Cross Page Prefetch Requests: 10351
L1D Same Page Prefetch Requests: 959239
L1D ROI Sum of L1D PQ occupancy: 6065624
L1D PREFETCHES PUSHED FROM L2C: 0
L1I TOTAL     ACCESS:   10462345  HIT:    7175346  MISS:    3286999  HIT %:    68.5826  MISS %:    31.4174   MPKI: 65.74
L1I LOAD INSTRUCTION	ACCESS:    6429996  HIT:    5848169  MISS:     581827  HIT %:    90.9514  MISS %:    9.04864  MPKI: 11.6365
L1I PREFETCH INSTRUCTION	ACCESS:    4032349  HIT:    1327177  MISS:    2705172  HIT %:    32.9132  MISS %:    67.0868  MPKI: 54.1034

L1I PREFETCH  REQUESTED:    4681758  ISSUED:    4681191  USEFUL:    2099616  USELESS:     689956
L1I USEFUL LOAD PREFETCHES:    2099616 PREFETCH ISSUED TO LOWER LEVEL:    2789576  ACCURACY: 75.2665
 TIMELY PREFETCHES:    2099616 LATE PREFETCHES: 84398 DROPPED PREFETCHES: 8512
L1I AVERAGE MISS LATENCY: 846453 cycles
L1I RQ	ACCESS:    9425964	FORWARD:          0	MERGED:    2952967	TO_CACHE:    6472997
L1I PQ	ACCESS:    4681191	FORWARD:          0	MERGED:     300742	TO_CACHE:    4380449

L1BTB TOTAL     ACCESS:    5844351  HIT:    2450465  MISS:    3393886  HIT %:    41.9288  MISS %:    58.0712   MPKI: 67.8777
L1BTB BRANCH_DIRECT_JUMP	ACCESS:     589577  HIT:     197485  MISS:     392092	AVERAGE STALL: 24.7397
L1BTB BRANCH_INDIRECT	ACCESS:     172403  HIT:      56757  MISS:     115646	AVERAGE STALL: 113.663
L1BTB BRANCH_CONDITIONAL	ACCESS:    2990694  HIT:    1780574  MISS:    1210120	AVERAGE STALL: 28.4861
L1BTB BRANCH_DIRECT_CALL	ACCESS:     886103  HIT:     107605  MISS:     778498	AVERAGE STALL: 30.5944
L1BTB BRANCH_INDIRECT_CALL	ACCESS:     159736  HIT:      20350  MISS:     139386	AVERAGE STALL: 121.49
L1BTB BRANCH_RETURN	ACCESS:    1045838  HIT:     287694  MISS:     758144	AVERAGE STALL: 31.5628
L1BTB BRANCH_OTHER ACCESS:          0  HIT:          0  MISS:          0	AVERAGE STALL: -nan
L1BTB TOTAL ROB OCCUPANCY AT BTB MISS: 15.3843

L2BTB1 TOTAL     ACCESS:    3368601  HIT:    3032969  MISS:     335632  HIT %:    90.0365  MISS %:    9.96354   MPKI: 6.71264
L2BTB1 BRANCH_DIRECT_JUMP	ACCESS:     387029  HIT:     358113  MISS:      28916	AVERAGE STALL: 24.7397
L2BTB1 BRANCH_INDIRECT	ACCESS:     105830  HIT:      85408  MISS:      20422	AVERAGE STALL: 113.663
L2BTB1 BRANCH_CONDITIONAL	ACCESS:    1210120  HIT:    1127021  MISS:      83099	AVERAGE STALL: 28.4861
L2BTB1 BRANCH_DIRECT_CALL	ACCESS:     778498  HIT:     680039  MISS:      98459	AVERAGE STALL: 30.5944
L2BTB1 BRANCH_INDIRECT_CALL	ACCESS:     130002  HIT:     107206  MISS:      22796	AVERAGE STALL: 121.49
L2BTB1 BRANCH_RETURN	ACCESS:     757122  HIT:     675182  MISS:      81940	AVERAGE STALL: 31.5628
L2BTB1 BRANCH_OTHER ACCESS:          0  HIT:          0  MISS:          0	AVERAGE STALL: -nan
L2BTB1 TOTAL ROB OCCUPANCY AT BTB MISS: 155.565

L2C TOTAL     ACCESS:    6060844  HIT:    5095374  MISS:     965470  HIT %:    84.0704  MISS %:    15.9296   MPKI: 19.3094
L2C LOAD INSTRUCTION	ACCESS:     497429  HIT:     400993  MISS:      96436  HIT %:    80.6131  MISS %:    19.3869  MPKI: 1.92872
L2C PREFETCH INSTRUCTION	ACCESS:    2789571  HIT:    2432974  MISS:     356597  HIT %:    87.2168  MISS %:    12.7832  MPKI: 7.13194
L2C LOAD TRANSLATION INSTRUCTION	ACCESS:        218  HIT:         50  MISS:        168  HIT %:    22.9358  MISS %:    77.0642  MPKI: 0.00336
L2C TRANSLATION FROM L1D PREFETCHER INSTRUCTION	ACCESS:       4495  HIT:       4186  MISS:        309  HIT %:    93.1257  MISS %:     6.8743  MPKI: 0.00618
L2C LOAD DATA	ACCESS:     693258  HIT:     549872  MISS:     143386  HIT %:    79.3171  MISS %:    20.6829  MPKI: 2.86772
L2C RFO DATA	ACCESS:     276372  HIT:     197338  MISS:      79034  HIT %:     71.403  MISS %:     28.597  MPKI: 1.58068
L2C PREFETCH DATA	ACCESS:    1312800  HIT:    1057120  MISS:     255680  HIT %:    80.5241  MISS %:    19.4759  MPKI: 5.1136
L2C WRITEBACK DATA	ACCESS:     483819  HIT:     452124  MISS:      31695  HIT %:     93.449  MISS %:      6.551  MPKI: 0.6339
L2C LOAD TRANSLATION DATA	ACCESS:       2796  HIT:        677  MISS:       2119  HIT %:    24.2132  MISS %:    75.7868  MPKI: 0.04238
L2C TRANSLATION FROM L1D PREFETCHER DATA	ACCESS:         86  HIT:         40  MISS:         46  HIT %:    46.5116  MISS %:    53.4884  MPKI: 0.00092

L2C PREFETCH  REQUESTED:    2883452  ISSUED:    2883452  USEFUL:      31356  USELESS:     583553
L2C USEFUL LOAD PREFETCHES:      31356 PREFETCH ISSUED TO LOWER LEVEL:     613886  ACCURACY: 5.10779
 TIMELY PREFETCHES:      31356 LATE PREFETCHES: 1604 DROPPED PREFETCHES: 0
L2C AVERAGE MISS LATENCY: 35.8597 cycles
L2C RQ	ACCESS:    1474742	FORWARD:          0	MERGED:          0	TO_CACHE:    1474654
L2C WQ	ACCESS:     483819	FORWARD:         88	MERGED:          0	TO_CACHE:     483819
L2C PQ	ACCESS:    5803844	FORWARD:          0	MERGED:    1681777	TO_CACHE:    4122067

L2C Dense regions hint from L2: 0
PSCL5 TOTAL     ACCESS:      12156  HIT:       6078  MISS:       6078  HIT %:         50  MISS %:         50   MPKI: 0.12156
PSCL5 LOAD TRANSLATION INSTRUCTION	ACCESS:       5520  HIT:       2760  MISS:       2760  HIT %:         50  MISS %:         50  MPKI: 0.0552
PSCL5 TRANSLATION FROM L1D PREFETCHER INSTRUCTION	ACCESS:       6636  HIT:       3318  MISS:       3318  HIT %:         50  MISS %:         50  MPKI: 0.06636


PSCL4 TOTAL     ACCESS:      11651  HIT:       5819  MISS:       5832  HIT %:    49.9442  MISS %:    50.0558   MPKI: 0.11664
PSCL4 LOAD TRANSLATION INSTRUCTION	ACCESS:       2661  HIT:       2538  MISS:        123  HIT %:    95.3777  MISS %:    4.62232  MPKI: 0.00246
PSCL4 TRANSLATION FROM L1D PREFETCHER INSTRUCTION	ACCESS:       3293  HIT:       3281  MISS:         12  HIT %:    99.6356  MISS %:   0.364409  MPKI: 0.00024
PSCL4 LOAD TRANSLATION DATA	ACCESS:       2428  HIT:          0  MISS:       2428  HIT %:          0  MISS %:        100  MPKI: 0.04856
PSCL4 TRANSLATION FROM L1D PREFETCHER DATA	ACCESS:       3269  HIT:          0  MISS:       3269  HIT %:          0  MISS %:        100  MPKI: 0.06538


PSCL3 TOTAL     ACCESS:      12029  HIT:       6008  MISS:       6021  HIT %:     49.946  MISS %:     50.054   MPKI: 0.12042
PSCL3 LOAD TRANSLATION INSTRUCTION	ACCESS:       2850  HIT:       2727  MISS:        123  HIT %:    95.6842  MISS %:    4.31579  MPKI: 0.00246
PSCL3 TRANSLATION FROM L1D PREFETCHER INSTRUCTION	ACCESS:       3293  HIT:       3281  MISS:         12  HIT %:    99.6356  MISS %:   0.364409  MPKI: 0.00024
PSCL3 LOAD TRANSLATION DATA	ACCESS:       2617  HIT:          0  MISS:       2617  HIT %:          0  MISS %:        100  MPKI: 0.05234
PSCL3 TRANSLATION FROM L1D PREFETCHER DATA	ACCESS:       3269  HIT:          0  MISS:       3269  HIT %:          0  MISS %:        100  MPKI: 0.06538


PSCL2 TOTAL     ACCESS:       9483  HIT:       4610  MISS:       4873  HIT %:    48.6133  MISS %:    51.3867   MPKI: 0.09746
PSCL2 LOAD TRANSLATION INSTRUCTION	ACCESS:       2747  HIT:       2529  MISS:        218  HIT %:    92.0641  MISS %:    7.93593  MPKI: 0.00436
PSCL2 TRANSLATION FROM L1D PREFETCHER INSTRUCTION	ACCESS:       4080  HIT:       2081  MISS:       1999  HIT %:    51.0049  MISS %:    48.9951  MPKI: 0.03998
PSCL2 LOAD TRANSLATION DATA	ACCESS:       2574  HIT:          0  MISS:       2574  HIT %:          0  MISS %:        100  MPKI: 0.05148
PSCL2 TRANSLATION FROM L1D PREFETCHER DATA	ACCESS:         82  HIT:          0  MISS:         82  HIT %:          0  MISS %:        100  MPKI: 0.00164


LLC TOTAL     ACCESS:    1050481  HIT:    1010130  MISS:      40351  HIT %:    96.1588  MISS %:    3.84119   MPKI: 0.80702
LLC LOAD INSTRUCTION	ACCESS:      95761  HIT:      95315  MISS:        446  HIT %:    99.5343  MISS %:   0.465743  MPKI: 0.00892
LLC PREFETCH INSTRUCTION	ACCESS:     354337  HIT:     353741  MISS:        596  HIT %:    99.8318  MISS %:   0.168201  MPKI: 0.01192
LLC LOAD TRANSLATION INSTRUCTION	ACCESS:        168  HIT:        135  MISS:         33  HIT %:    80.3571  MISS %:    19.6429  MPKI: 0.00066
LLC TRANSLATION FROM L1D PREFETCHER INSTRUCTION	ACCESS:        309  HIT:        291  MISS:         18  HIT %:    94.1748  MISS %:    5.82524  MPKI: 0.00036
LLC LOAD DATA	ACCESS:     142480  HIT:     137331  MISS:       5149  HIT %:    96.3862  MISS %:    3.61384  MPKI: 0.10298
LLC RFO DATA	ACCESS:      79001  HIT:      59941  MISS:      19060  HIT %:    75.8737  MISS %:    24.1263  MPKI: 0.3812
LLC PREFETCH DATA	ACCESS:     259544  HIT:     244941  MISS:      14603  HIT %:    94.3736  MISS %:    5.62641  MPKI: 0.29206
LLC WRITEBACK DATA	ACCESS:     116716  HIT:     116403  MISS:        313  HIT %:    99.7318  MISS %:   0.268172  MPKI: 0.00626
LLC LOAD TRANSLATION DATA	ACCESS:       2119  HIT:       1990  MISS:        129  HIT %:    93.9122  MISS %:    6.08778  MPKI: 0.00258
LLC TRANSLATION FROM L1D PREFETCHER DATA	ACCESS:         46  HIT:         42  MISS:          4  HIT %:    91.3043  MISS %:    8.69565  MPKI: 8e-05

LLC AVERAGE MISS LATENCY: 162.55 cycles
LLC RQ	ACCESS:     319894	FORWARD:          0	MERGED:          0	TO_CACHE:     319884
LLC WQ	ACCESS:     116716	FORWARD:         10	MERGED:          0	TO_CACHE:     116716
LLC PQ	ACCESS:     613886	FORWARD:          0	MERGED:          0	TO_CACHE:     613886

LLC Dense regions hint to LLC: 0

RAW hits: 1771007
Loads Generated: 12450313
Loads sent to L1D: 10679306
Stores Generated: 6769986
Stores sent to L1D: 6770009
Major fault: 0 Minor fault: 2529
Allocated PAGES: 2529
I-Shadow cache 408 bytes
Touched + WorthPF tables 12288 bytes 
MMA filter 174 bytes 
FNL filter 272 bytes 
TOTAL PREFETCHER STORAGE SIZE: 31318 bytes
CPU 0 L1I next line prefetcher final stats

stream: 
stream:times selected: 1485252
stream:pref_filled: 126432
stream:pref_useful: 28821
stream:pref_late: 12142
stream:misses: 13573
stream:misses_by_poll: 0

CS: 
CS:times selected: 233495
CS:pref_filled: 79381
CS:pref_useful: 54593
CS:pref_late: 18671
CS:misses: 36903
CS:misses_by_poll: 2

CPLX: 
CPLX:times selected: 1249669
CPLX:pref_filled: 28756
CPLX:pref_useful: 8542
CPLX:pref_late: 6049
CPLX:misses: 152409
CPLX:misses_by_poll: 1

NL_L1: 
NL:times selected: 28683
NL:pref_filled: 1747
NL:pref_useful: 794
NL:pref_late: 887
NL:misses: 4011
NL:misses_by_poll: 0

total selections: 2997099
total_filled: 109696
total_useful: 57928
total_late: 41164
total_polluted: 3
total_misses_after_warmup: 756277
conflicts: 5243489

test: 176466

DRAM Statistics
 CHANNEL 0
 RQ ROW_BUFFER_HIT:      13468  ROW_BUFFER_MISS:      26555
 DBUS_CONGESTED:          7
 WQ ROW_BUFFER_HIT:       2238  ROW_BUFFER_MISS:      19244  FULL:          0

 AVG_CONGESTED_CYCLE: 3

CPU 0 Branch Prediction Accuracy: 99.7504% MPKI: 0.4573 Average ROB Occupancy at Mispredict: 164.46
Branch types
NOT_BRANCH: 40838073 81.6761%
BRANCH_DIRECT_JUMP: 589577 1.17915%
BRANCH_INDIRECT: 172403 0.344806%
BRANCH_CONDITIONAL: 6307923 12.6158%
BRANCH_DIRECT_CALL: 886103 1.77221%
BRANCH_INDIRECT_CALL: 159736 0.319472%
BRANCH_RETURN: 1045838 2.09168%
BRANCH_OTHER: 0 0%

DRAM PAGES: 1048576
Allocated PAGES: 2529
Average_ROB_Occupancy: 186.993
Average_Decode_Occupancy: 19.7321
Average_FTQ_Occupancy: 7.01226
Indirect max targets: 14 Average targets: 1.14901
Branch_type:  BRANCH_DIRECT_JUMP:  Count Percentage: 9.64262 5.0962 4.6661 13.5033 5.22454 2.2454 1.96707 57.6548 
Branch_type:  BRANCH_INDIRECT:  Count Percentage: 5.52771 1.162 14.3352 25.1969 1.37866 16.586 1.78003 34.0335 
Branch_type:  BRANCH_CONDITIONAL:  Count Percentage: 26.4339 2.77985 2.97641 8.35979 2.38979 2.26326 2.16892 52.6281 
Branch_type:  BRANCH_DIRECT_CALL:  Count Percentage: 0.341337 1.29045 1.83381 4.84843 3.03075 2.1258 3.43734 83.0921 
Branch_type:  BRANCH_INDIRECT_CALL:  Count Percentage: 8.72641 0.835574 2.97789 10.165 0.000626133 3.89204 2.77158 70.6309 
Branch_type:  BRANCH_RETURN:  Count Percentage: 3.92467 0.647503 3.47117 9.9493 4.04037 3.69417 2.74145 71.5314 
Branch_type:  BRANCH_DIRECT_JUMP:  Total Count: 113531 60002 54938 158986 61513 26437 23160 678820 
Branch_type:  BRANCH_INDIRECT:  Total Count: 19033 4001 49359 86758 4747 57109 6129 117184 
Branch_type:  BRANCH_CONDITIONAL:  Total Count: 3333099 350517 375301 1054103 301334 285379 273484 6635983 
Branch_type:  BRANCH_DIRECT_CALL:  Total Count: 6052 22880 32514 85964 53736 37691 60945 1473246 
Branch_type:  BRANCH_INDIRECT_CALL:  Total Count: 27874 2669 9512 32469 2 12432 8853 225610 
Branch_type:  BRANCH_RETURN:  Total Count: 82154 13554 72661 208266 84576 77329 57386 1497347 
Number of unique branch instructions: 10145
Upper 32 bits: 
aaaa
ffff
ffff0000
Unique upper 32 bits: 3
Unique upper 36 bits: 3
Unique upper 40 bits: 5
Unique upper 44 bits: 32
Unique upper 48 bits: 157
Offset_3 4186
Offset_4 265
Offset_5 474
Offset_6 514
Offset_7 604
Offset_8 522
Offset_9 482
Offset_10 380
Offset_11 324
Offset_12 282
Offset_13 216
Offset_14 231
Offset_15 193
Offset_16 226
Offset_17 155
Offset_18 118
Offset_19 242
Offset_20 142
Offset_21 265
Offset_22 396
Offset_23 241
Offset_24 353
Offset_25 88
Offset_47 86
Offset_64 3
decode_dispatch_called: 22191501 57.2807
Dispatch_width: 0 11057416 49.8273 28.5414
Dispatch_width: 1 779356 3.51196 2.01167
Dispatch_width: 2 946947 4.26716 2.44426
Dispatch_width: 3 598607 2.69746 1.54512
Dispatch_width: 4 3482535 15.6931 8.98912
Dispatch_width: 5 359244 1.61884 0.927281
Dispatch_width: 6 4967396 22.3842 12.8218
Empty_decode_cycles: 16550174 42.7193
ROB_full_cycles: 5273309 13.6115
Starvation_cycles_per_kilo_instr: 285.01
Starvation_cycles_per_kilo_instr_3: 246.592
Starvation_cycles_per_kilo_instr_0: 223.343
Branch_type_1  (3,1)  (4,11)  (5,38)  (6,69)  (7,118)  (8,135)  (9,129)  (10,90)  (11,74)  (12,44)  (13,9)  (14,2)  (15,3)  (16,4)  (18,1)  (19,4)  (20,2)  (21,1)  (22,3)  (23,2)  (24,10)  (25,12) 
Branch_type_2  (3,1)  (5,1)  (8,2)  (9,3)  (12,1)  (13,1)  (14,1)  (16,3)  (17,2)  (20,2)  (21,2)  (23,5)  (24,1)  (47,40) 
Branch_type_3  (3,4184)  (4,254)  (5,431)  (6,430)  (7,453)  (8,324)  (9,264)  (10,156)  (11,132)  (12,54)  (13,8)  (64,3) 
Branch_type_4  (6,3)  (7,8)  (8,25)  (9,54)  (10,62)  (11,61)  (12,100)  (13,91)  (14,104)  (15,91)  (16,101)  (17,70)  (18,53)  (19,118)  (20,73)  (21,144)  (22,211)  (23,136)  (24,202)  (25,72) 
Branch_type_5  (8,2)  (9,1)  (10,4)  (11,5)  (12,3)  (13,14)  (14,16)  (15,11)  (16,20)  (17,11)  (18,16)  (19,13)  (20,11)  (21,13)  (22,42)  (23,26)  (24,41) 
Branch_type_6  (5,4)  (6,12)  (7,25)  (8,34)  (9,31)  (10,68)  (11,52)  (12,80)  (13,93)  (14,108)  (15,88)  (16,98)  (17,72)  (18,48)  (19,107)  (20,54)  (21,105)  (22,140)  (23,72)  (24,99)  (25,4)  (47,46) 
Unique trigger count: 
L2BTB1 768 4
L2BTB2 768 4
L2BTB3 768 4
L2BTB4 112 4
