
*** ChampSim Multicore Out-of-Order Simulator ***

Warmup Instructions: 50000000
Simulation Instructions: 50000000
Number of CPUs: 1
LLC sets: 2048
LLC ways: 16
Off-chip DRAM Size: 4096 MB Channels: 1 Width: 64-bit Data Rate: 6400 MT/s
CPU 0 runs ./micro_traces/srv27.trace.gz
.gz
ITLB has LRU replacement policy
DTLB has LRU replacement policy
STLB has LRU replacement policy
FDIP Prefetcher at L1I
L1I has LRU replacement policy
L1D has LRU replacement policy
Initialize SRRIP state for L2C
Initialize DRRIP state for LLC
Heartbeat CPU 0 instructions: 10000003 cycles: 2796905 heartbeat IPC: 3.57538 cumulative IPC: 3.57538 (Simulation time: 0 hr 1 min 42 sec) 
Heartbeat CPU 0 instructions: 20000000 cycles: 5593660 heartbeat IPC: 3.57557 cumulative IPC: 3.57548 (Simulation time: 0 hr 3 min 18 sec) 
Heartbeat CPU 0 instructions: 30000000 cycles: 8390795 heartbeat IPC: 3.57509 cumulative IPC: 3.57535 (Simulation time: 0 hr 4 min 54 sec) 
Heartbeat CPU 0 instructions: 40000001 cycles: 11187297 heartbeat IPC: 3.5759 cumulative IPC: 3.57548 (Simulation time: 0 hr 6 min 29 sec) 
Heartbeat CPU 0 instructions: 50000000 cycles: 13983092 heartbeat IPC: 3.5768 cumulative IPC: 3.57575 (Simulation time: 0 hr 8 min 2 sec) 

Warmup complete CPU 0 instructions: 50000004 cycles: 13983093 (Simulation time: 0 hr 8 min 2 sec) 

Cycle: 20000000 FTQ IN: 55446220 FTQ occupancy: 17.4382 DECODE IN: 55446189 DECODE occupancy: 44.6283 ROB IN: 55446189 ROB occupancy: 266.786 ROB OUT: 55446169
Heartbeat CPU 0 instructions: 60000000 cycles: 25047044 heartbeat IPC: 0.903836 cumulative IPC: 0.903836 (Simulation time: 0 hr 9 min 17 sec) 
Cycle: 30000000 FTQ IN: 9148680 FTQ occupancy: 4.72254 DECODE IN: 9148676 DECODE occupancy: 9.29775 ROB IN: 9148676 ROB occupancy: 79.1269 ROB OUT: 9148440
Heartbeat CPU 0 instructions: 70000001 cycles: 36201695 heartbeat IPC: 0.896487 cumulative IPC: 0.900146 (Simulation time: 0 hr 10 min 35 sec) 
Cycle: 40000000 FTQ IN: 8733992 FTQ occupancy: 4.59734 DECODE IN: 8733963 DECODE occupancy: 8.94049 ROB IN: 8733963 ROB occupancy: 74.9507 ROB OUT: 8734096
Heartbeat CPU 0 instructions: 80000003 cycles: 47389584 heartbeat IPC: 0.893824 cumulative IPC: 0.898029 (Simulation time: 0 hr 11 min 52 sec) 
Cycle: 50000000 FTQ IN: 9027230 FTQ occupancy: 4.62264 DECODE IN: 9027265 DECODE occupancy: 9.08173 ROB IN: 9027265 ROB occupancy: 77.2808 ROB OUT: 9027388
Heartbeat CPU 0 instructions: 90000001 cycles: 58516404 heartbeat IPC: 0.898729 cumulative IPC: 0.898204 (Simulation time: 0 hr 13 min 9 sec) 
Cycle: 60000000 FTQ IN: 8957414 FTQ occupancy: 4.716 DECODE IN: 8957426 DECODE occupancy: 9.23361 ROB IN: 8957426 ROB occupancy: 78.8573 ROB OUT: 8957419
Heartbeat CPU 0 instructions: 100000001 cycles: 69741310 heartbeat IPC: 0.890876 cumulative IPC: 0.896729 (Simulation time: 0 hr 14 min 27 sec) 
Finished CPU 0 instructions: 50000000 cycles: 55758218 cumulative IPC: 0.896729 (Simulation time: 0 hr 14 min 27 sec) 

ChampSim completed all CPUs

Region of Interest Statistics

CPU 0 cumulative IPC: 0.896729 instructions: 50000000 cycles: 55758218
 Fetch stage stalled: 77.9968  Sim cycles: 55758218 fetch stall cycle: 43489633
 Empty decode stage: 67.5227  Sim cycles: 55758218 fetch stall cycle: 37649434
ITLB TOTAL     ACCESS:    5667044  HIT:    5172738  MISS:     494306  HIT %:    91.2775  MISS %:    8.72247   MPKI: 9.88612
ITLB LOAD TRANSLATION INSTRUCTION	ACCESS:    5579259  HIT:    5084953  MISS:     494306  HIT %:    91.1403  MISS %:    8.85971  MPKI: 9.88612
ITLB TRANSLATION FROM L1D PREFETCHER INSTRUCTION	ACCESS:      87785  HIT:      87785  MISS:          0  HIT %:        100  MISS %:          0  MPKI: 0

ITLB AVERAGE MISS LATENCY: 9.0378 cycles
ITLB RQ	ACCESS:    7252847	FORWARD:          0	MERGED:    1144359	TO_CACHE:    6108488

DTLB TOTAL     ACCESS:    9736474  HIT:    9260192  MISS:     476282  HIT %:    95.1083  MISS %:    4.89173   MPKI: 9.52564
DTLB LOAD TRANSLATION DATA	ACCESS:    9736474  HIT:    9260192  MISS:     476282  HIT %:    95.1083  MISS %:    4.89173  MPKI: 9.52564

DTLB AVERAGE MISS LATENCY: 9.29121 cycles
DTLB RQ	ACCESS:   13911473	FORWARD:          0	MERGED:    4144395	TO_CACHE:    9767078

STLB TOTAL     ACCESS:    1219164  HIT:    1217170  MISS:       1994  HIT %:    99.8364  MISS %:   0.163555   MPKI: 0.03988
STLB LOAD TRANSLATION INSTRUCTION	ACCESS:     494306  HIT:     494077  MISS:        229  HIT %:    99.9537  MISS %:  0.0463276  MPKI: 0.00458
STLB LOAD TRANSLATION DATA	ACCESS:     475969  HIT:     474232  MISS:       1737  HIT %:    99.6351  MISS %:    0.36494  MPKI: 0.03474
STLB TRANSLATION FROM L1D PREFETCHER DATA	ACCESS:     248889  HIT:     248861  MISS:         28  HIT %:    99.9888  MISS %:    0.01125  MPKI: 0.00056

STLB AVERAGE MISS LATENCY: 68.4478 cycles
STLB RQ	ACCESS:    1339738	FORWARD:          0	MERGED:     120524	TO_CACHE:    1219214

STLB Hit, L1D data hit: 0
STLB Hit, L2C data hit: 0
STLB Hit, LLC data hit: 0
STLB Hit, LLC data miss: 0
STLB STLB hints to L2: 0
L1D TOTAL     ACCESS:   13695577  HIT:   12581753  MISS:    1113824  HIT %:    91.8673  MISS %:    8.13273   MPKI: 22.2765
L1D LOAD DATA	ACCESS:    7088504  HIT:    6354803  MISS:     733701  HIT %:    89.6494  MISS %:    10.3506  MPKI: 14.674
L1D RFO DATA	ACCESS:    6278258  HIT:    5991943  MISS:     286315  HIT %:    95.4396  MISS %:    4.56042  MPKI: 5.7263
L1D PREFETCH DATA	ACCESS:     328815  HIT:     235007  MISS:      93808  HIT %:    71.4709  MISS %:    28.5291  MPKI: 1.87616

L1D PREFETCH  REQUESTED:     738514  ISSUED:     738514  USEFUL:      33023  USELESS:      68138
L1D USEFUL LOAD PREFETCHES:      33023 PREFETCH ISSUED TO LOWER LEVEL:     101228  ACCURACY: 32.6224
 TIMELY PREFETCHES:      33023 LATE PREFETCHES: 7338 DROPPED PREFETCHES: 12
L1D AVERAGE MISS LATENCY: 280788 cycles
L1D RQ	ACCESS:   11094008	FORWARD:          0	MERGED:    3814354	TO_CACHE:    7117617
L1D WQ	ACCESS:    6944847	FORWARD:     162251	MERGED:     150991	TO_CACHE:    6793856
L1D PQ	ACCESS:     369364	FORWARD:          0	MERGED:          0	TO_CACHE:     369150

L1D UNIQUE REGIONS ACCESSED: 0
L1D REGIONS CONFLICTS: 0
L1D Cross Page Prefetch Requests: 6919
L1D Same Page Prefetch Requests: 750305
L1D ROI Sum of L1D PQ occupancy: 4678343
L1D PREFETCHES PUSHED FROM L2C: 0
L1I TOTAL     ACCESS:    6978834  HIT:    4215943  MISS:    2762891  HIT %:    60.4104  MISS %:    39.5896   MPKI: 55.2578
L1I LOAD INSTRUCTION	ACCESS:    6598264  HIT:    3835373  MISS:    2762891  HIT %:     58.127  MISS %:     41.873  MPKI: 55.2578
L1I PREFETCH INSTRUCTION	ACCESS:     380570  HIT:     380570  MISS:          0  HIT %:        100  MISS %:          0  MPKI: 0

L1I PREFETCH  REQUESTED:     737460  ISSUED:     737460  USEFUL:          0  USELESS:          0
L1I USEFUL LOAD PREFETCHES:          0 PREFETCH ISSUED TO LOWER LEVEL:          0  ACCURACY: -nan
 TIMELY PREFETCHES:          0 LATE PREFETCHES: 0 DROPPED PREFETCHES: 0
L1I AVERAGE MISS LATENCY: 17.1216 cycles
L1I RQ	ACCESS:    9446368	FORWARD:          0	MERGED:    2708209	TO_CACHE:    6738159
L1I PQ	ACCESS:     737460	FORWARD:          0	MERGED:     222772	TO_CACHE:     514688

L1BTB TOTAL     ACCESS:    5670687  HIT:    2040788  MISS:    3629899  HIT %:    35.9884  MISS %:    64.0116   MPKI: 72.598
L1BTB BRANCH_DIRECT_JUMP	ACCESS:     547196  HIT:     144338  MISS:     402858	AVERAGE STALL: 30.7839
L1BTB BRANCH_INDIRECT	ACCESS:     182549  HIT:      65777  MISS:     116772	AVERAGE STALL: 73.961
L1BTB BRANCH_CONDITIONAL	ACCESS:    2702370  HIT:    1410205  MISS:    1292165	AVERAGE STALL: 31.4407
L1BTB BRANCH_DIRECT_CALL	ACCESS:     946904  HIT:     106386  MISS:     840518	AVERAGE STALL: 32.5078
L1BTB BRANCH_INDIRECT_CALL	ACCESS:     172379  HIT:      21863  MISS:     150516	AVERAGE STALL: 95.245
L1BTB BRANCH_RETURN	ACCESS:    1119289  HIT:     292219  MISS:     827070	AVERAGE STALL: 32.2922
L1BTB BRANCH_OTHER ACCESS:          0  HIT:          0  MISS:          0	AVERAGE STALL: -nan
L1BTB TOTAL ROB OCCUPANCY AT BTB MISS: 17.9994

L2BTB TOTAL     ACCESS:    3604550  HIT:    2587793  MISS:    1016757  HIT %:    71.7924  MISS %:    28.2076   MPKI: 20.3351
L2BTB BRANCH_DIRECT_JUMP	ACCESS:     398720  HIT:     284273  MISS:     114447	AVERAGE STALL: 30.7839
L2BTB BRANCH_INDIRECT	ACCESS:     106491  HIT:      93490  MISS:      13001	AVERAGE STALL: 73.961
L2BTB BRANCH_CONDITIONAL	ACCESS:    1292165  HIT:     927103  MISS:     365062	AVERAGE STALL: 31.4407
L2BTB BRANCH_DIRECT_CALL	ACCESS:     840518  HIT:     577447  MISS:     263071	AVERAGE STALL: 32.5078
L2BTB BRANCH_INDIRECT_CALL	ACCESS:     140990  HIT:      92766  MISS:      48224	AVERAGE STALL: 95.245
L2BTB BRANCH_RETURN	ACCESS:     825666  HIT:     612714  MISS:     212952	AVERAGE STALL: 32.2922
L2BTB BRANCH_OTHER ACCESS:          0  HIT:          0  MISS:          0	AVERAGE STALL: -nan
L2BTB TOTAL ROB OCCUPANCY AT BTB MISS: 64.2593

L2C TOTAL     ACCESS:    4485157  HIT:    4018275  MISS:     466882  HIT %:    89.5905  MISS %:    10.4095   MPKI: 9.33764
L2C LOAD INSTRUCTION	ACCESS:    2762894  HIT:    2508915  MISS:     253979  HIT %:    90.8075  MISS %:     9.1925  MPKI: 5.07958
L2C LOAD TRANSLATION INSTRUCTION	ACCESS:        252  HIT:         55  MISS:        197  HIT %:    21.8254  MISS %:    78.1746  MPKI: 0.00394
L2C LOAD DATA	ACCESS:     726343  HIT:     647155  MISS:      79188  HIT %:    89.0977  MISS %:    10.9023  MPKI: 1.58376
L2C RFO DATA	ACCESS:     286213  HIT:     240376  MISS:      45837  HIT %:     83.985  MISS %:     16.015  MPKI: 0.91674
L2C PREFETCH DATA	ACCESS:     187501  HIT:     115126  MISS:      72375  HIT %:    61.4002  MISS %:    38.5998  MPKI: 1.4475
L2C WRITEBACK DATA	ACCESS:     520112  HIT:     506085  MISS:      14027  HIT %:    97.3031  MISS %:    2.69692  MPKI: 0.28054
L2C LOAD TRANSLATION DATA	ACCESS:       1786  HIT:        525  MISS:       1261  HIT %:    29.3953  MISS %:    70.6047  MPKI: 0.02522
L2C TRANSLATION FROM L1D PREFETCHER DATA	ACCESS:         56  HIT:         38  MISS:         18  HIT %:    67.8571  MISS %:    32.1429  MPKI: 0.00036

L2C PREFETCH  REQUESTED:      93644  ISSUED:      93644  USEFUL:       7698  USELESS:      65194
L2C USEFUL LOAD PREFETCHES:       7698 PREFETCH ISSUED TO LOWER LEVEL:      72867  ACCURACY: 10.5645
 TIMELY PREFETCHES:       7698 LATE PREFETCHES: 492 DROPPED PREFETCHES: 0
L2C AVERAGE MISS LATENCY: 38.1745 cycles
L2C RQ	ACCESS:    3777584	FORWARD:          0	MERGED:          0	TO_CACHE:    3777544
L2C WQ	ACCESS:     520112	FORWARD:         41	MERGED:          0	TO_CACHE:     520112
L2C PQ	ACCESS:     194872	FORWARD:          0	MERGED:       3322	TO_CACHE:     191549

L2C Dense regions hint from L2: 0
PSCL5 TOTAL     ACCESS:       4020  HIT:       2010  MISS:       2010  HIT %:         50  MISS %:         50   MPKI: 0.0402
PSCL5 LOAD TRANSLATION INSTRUCTION	ACCESS:       3910  HIT:       1955  MISS:       1955  HIT %:         50  MISS %:         50  MPKI: 0.0391
PSCL5 TRANSLATION FROM L1D PREFETCHER INSTRUCTION	ACCESS:        110  HIT:         55  MISS:         55  HIT %:         50  MISS %:         50  MPKI: 0.0011


PSCL4 TOTAL     ACCESS:       3913  HIT:       1953  MISS:       1960  HIT %:    49.9106  MISS %:    50.0894   MPKI: 0.0392
PSCL4 LOAD TRANSLATION INSTRUCTION	ACCESS:       2564  HIT:       1898  MISS:        666  HIT %:     74.025  MISS %:     25.975  MPKI: 0.01332
PSCL4 TRANSLATION FROM L1D PREFETCHER INSTRUCTION	ACCESS:         78  HIT:         55  MISS:         23  HIT %:    70.5128  MISS %:    29.4872  MPKI: 0.00046
PSCL4 LOAD TRANSLATION DATA	ACCESS:       1239  HIT:          0  MISS:       1239  HIT %:          0  MISS %:        100  MPKI: 0.02478
PSCL4 TRANSLATION FROM L1D PREFETCHER DATA	ACCESS:         32  HIT:          0  MISS:         32  HIT %:          0  MISS %:        100  MPKI: 0.00064


PSCL3 TOTAL     ACCESS:       3989  HIT:       1991  MISS:       1998  HIT %:    49.9123  MISS %:    50.0877   MPKI: 0.03996
PSCL3 LOAD TRANSLATION INSTRUCTION	ACCESS:       2602  HIT:       1936  MISS:        666  HIT %:    74.4043  MISS %:    25.5957  MPKI: 0.01332
PSCL3 TRANSLATION FROM L1D PREFETCHER INSTRUCTION	ACCESS:         78  HIT:         55  MISS:         23  HIT %:    70.5128  MISS %:    29.4872  MPKI: 0.00046
PSCL3 LOAD TRANSLATION DATA	ACCESS:       1277  HIT:          0  MISS:       1277  HIT %:          0  MISS %:        100  MPKI: 0.02554
PSCL3 TRANSLATION FROM L1D PREFETCHER DATA	ACCESS:         32  HIT:          0  MISS:         32  HIT %:          0  MISS %:        100  MPKI: 0.00064


PSCL2 TOTAL     ACCESS:       3950  HIT:       1940  MISS:       2010  HIT %:    49.1139  MISS %:    50.8861   MPKI: 0.0402
PSCL2 LOAD TRANSLATION INSTRUCTION	ACCESS:       2115  HIT:       1886  MISS:        229  HIT %:    89.1726  MISS %:    10.8274  MPKI: 0.00458
PSCL2 TRANSLATION FROM L1D PREFETCHER INSTRUCTION	ACCESS:         54  HIT:         54  MISS:          0  HIT %:        100  MISS %:          0  MPKI: 0
PSCL2 LOAD TRANSLATION DATA	ACCESS:       1727  HIT:          0  MISS:       1727  HIT %:          0  MISS %:        100  MPKI: 0.03454
PSCL2 TRANSLATION FROM L1D PREFETCHER DATA	ACCESS:         54  HIT:          0  MISS:         54  HIT %:          0  MISS %:        100  MPKI: 0.00108


LLC TOTAL     ACCESS:     521397  HIT:     493847  MISS:      27550  HIT %:    94.7161  MISS %:    5.28388   MPKI: 0.551
LLC LOAD INSTRUCTION	ACCESS:     253979  HIT:     253224  MISS:        755  HIT %:    99.7027  MISS %:   0.297269  MPKI: 0.0151
LLC LOAD TRANSLATION INSTRUCTION	ACCESS:        197  HIT:        168  MISS:         29  HIT %:    85.2792  MISS %:    14.7208  MPKI: 0.00058
LLC LOAD DATA	ACCESS:      78718  HIT:      75305  MISS:       3413  HIT %:    95.6643  MISS %:    4.33573  MPKI: 0.06826
LLC RFO DATA	ACCESS:      45811  HIT:      32665  MISS:      13146  HIT %:    71.3038  MISS %:    28.6962  MPKI: 0.26292
LLC PREFETCH DATA	ACCESS:      72867  HIT:      63062  MISS:       9805  HIT %:     86.544  MISS %:     13.456  MPKI: 0.1961
LLC WRITEBACK DATA	ACCESS:      68546  HIT:      68201  MISS:        345  HIT %:    99.4967  MISS %:   0.503312  MPKI: 0.0069
LLC LOAD TRANSLATION DATA	ACCESS:       1261  HIT:       1204  MISS:         57  HIT %:    95.4798  MISS %:    4.52022  MPKI: 0.00114
LLC TRANSLATION FROM L1D PREFETCHER DATA	ACCESS:         18  HIT:         18  MISS:          0  HIT %:        100  MISS %:          0  MPKI: 0

LLC AVERAGE MISS LATENCY: 152.553 cycles
LLC RQ	ACCESS:     379988	FORWARD:          0	MERGED:          0	TO_CACHE:     379984
LLC WQ	ACCESS:      68546	FORWARD:          4	MERGED:          0	TO_CACHE:      68546
LLC PQ	ACCESS:      72867	FORWARD:          0	MERGED:          0	TO_CACHE:      72867

LLC Dense regions hint to LLC: 0

RAW hits: 1535444
Loads Generated: 12629451
Loads sent to L1D: 11094008
Stores Generated: 6944835
Stores sent to L1D: 6944847
Major fault: 0 Minor fault: 2650
Allocated PAGES: 2650

stream: 
stream:times selected: 1185604
stream:pref_filled: 120799
stream:pref_useful: 23540
stream:pref_late: 6586
stream:misses: 8027
stream:misses_by_poll: 0

CS: 
CS:times selected: 177889
CS:pref_filled: 61344
CS:pref_useful: 37660
CS:pref_late: 6815
CS:misses: 16064
CS:misses_by_poll: 3

CPLX: 
CPLX:times selected: 1006575
CPLX:pref_filled: 19790
CPLX:pref_useful: 4598
CPLX:pref_late: 3230
CPLX:misses: 92862
CPLX:misses_by_poll: 0

NL_L1: 
NL:times selected: 20888
NL:pref_filled: 754
NL:pref_useful: 347
NL:pref_late: 309
NL:misses: 1696
NL:misses_by_poll: 0

total selections: 2390956
total_filled: 93808
total_useful: 33023
total_late: 18257
total_polluted: 3
total_misses_after_warmup: 762815
conflicts: 5773219

test: 116246

DRAM Statistics
 CHANNEL 0
 RQ ROW_BUFFER_HIT:      10249  ROW_BUFFER_MISS:      16941
 DBUS_CONGESTED:          7
 WQ ROW_BUFFER_HIT:       1227  ROW_BUFFER_MISS:      11872  FULL:          0

 AVG_CONGESTED_CYCLE: 6

CPU 0 Branch Prediction Accuracy: 99.822% MPKI: 0.3256 Average ROB Occupancy at Mispredict: 101.358
Branch types
NOT_BRANCH: 40852318 81.7046%
BRANCH_DIRECT_JUMP: 547196 1.09439%
BRANCH_INDIRECT: 182549 0.365098%
BRANCH_CONDITIONAL: 6178928 12.3579%
BRANCH_DIRECT_CALL: 946904 1.89381%
BRANCH_INDIRECT_CALL: 172379 0.344758%
BRANCH_RETURN: 1119289 2.23858%
BRANCH_OTHER: 0 0%

DRAM PAGES: 1048576
Allocated PAGES: 2650
Average_ROB_Occupancy: 77.9098
Average_Decode_Occupancy: 9.05319
Average_FTQ_Occupancy: 4.62429
Indirect max targets: 14 Average targets: 1.18125
Branch_type:  BRANCH_DIRECT_JUMP:  Count Percentage: 3.81159 5.29532 4.21402 6.94868 3.49059 2.54431 2.26796 71.4275 
Branch_type:  BRANCH_INDIRECT:  Count Percentage: 11.7744 3.42164 2.54066 9.68398 3.34478 2.80843 1.73817 64.6879 
Branch_type:  BRANCH_CONDITIONAL:  Count Percentage: 21.3704 2.92028 2.29739 4.11466 2.50993 2.37157 5.93476 58.481 
Branch_type:  BRANCH_DIRECT_CALL:  Count Percentage: 0.389487 1.77129 0.737652 3.56832 3.61632 2.05885 4.09756 83.7605 
Branch_type:  BRANCH_INDIRECT_CALL:  Count Percentage: 9.54769 0 2.99263 5.27325 1.05622 2.03288 3.85009 75.2472 
Branch_type:  BRANCH_RETURN:  Count Percentage: 3.94404 1.99214 2.35568 4.1468 4.54678 3.28299 6.61415 73.1174 
Branch_type:  BRANCH_DIRECT_JUMP:  Total Count: 41750 58002 46158 76112 38234 27869 24842 782377 
Branch_type:  BRANCH_INDIRECT:  Total Count: 43049 12510 9289 35406 12229 10268 6355 236508 
Branch_type:  BRANCH_CONDITIONAL:  Total Count: 2640359 360806 283847 508375 310107 293012 733252 7225442 
Branch_type:  BRANCH_DIRECT_CALL:  Total Count: 7352 33435 13924 67356 68262 38863 77346 1581073 
Branch_type:  BRANCH_INDIRECT_CALL:  Total Count: 32759 0 10268 18093 3624 6975 13210 258180 
Branch_type:  BRANCH_RETURN:  Total Count: 88016 44457 52570 92541 101467 73264 147603 1631705 
Number of unique branch instructions: 11078
Upper 32 bits: 
aaaa
ffff
ffff0000
Unique upper 32 bits: 3
Unique upper 36 bits: 3
Unique upper 40 bits: 5
Unique upper 44 bits: 32
Unique upper 48 bits: 160
Offset_3 4579
Offset_4 273
Offset_5 501
Offset_6 558
Offset_7 652
Offset_8 593
Offset_9 537
Offset_10 446
Offset_11 360
Offset_12 336
Offset_13 241
Offset_14 248
Offset_15 201
Offset_16 233
Offset_17 176
Offset_18 154
Offset_19 264
Offset_20 149
Offset_21 261
Offset_22 417
Offset_23 241
Offset_24 361
Offset_25 117
Offset_47 96
Offset_64 1
decode_dispatch_called: 20131073 36.1042
Dispatch_width: 0 9924267 49.2983 17.7988
Dispatch_width: 1 594783 2.95455 1.06672
Dispatch_width: 2 808356 4.01546 1.44975
Dispatch_width: 3 558646 2.77504 1.00191
Dispatch_width: 4 1469102 7.29768 2.63477
Dispatch_width: 5 419656 2.08462 0.752635
Dispatch_width: 6 6356263 31.5744 11.3997
Empty_decode_cycles: 35627145 63.8958
ROB_full_cycles: 1481681 2.65733
Starvation_cycles_per_kilo_instr: 479.203
Starvation_cycles_per_kilo_instr_3: 460.315
Starvation_cycles_per_kilo_instr_0: 440.697
Branch_type_1  (3,1)  (4,10)  (5,41)  (6,77)  (7,126)  (8,152)  (9,141)  (10,114)  (11,80)  (12,55)  (13,11)  (14,2)  (15,3)  (16,4)  (18,1)  (19,5)  (20,2)  (21,1)  (22,3)  (23,2)  (24,10)  (25,12) 
Branch_type_2  (3,1)  (4,1)  (5,1)  (8,4)  (9,4)  (10,1)  (12,1)  (13,1)  (14,1)  (16,3)  (17,2)  (20,2)  (21,2)  (23,5)  (24,1)  (47,43) 
Branch_type_3  (3,4577)  (4,262)  (5,455)  (6,464)  (7,493)  (8,370)  (9,294)  (10,182)  (11,141)  (12,62)  (13,10)  (64,1) 
Branch_type_4  (6,4)  (7,8)  (8,26)  (9,59)  (10,70)  (11,72)  (12,122)  (13,103)  (14,113)  (15,96)  (16,103)  (17,85)  (18,67)  (19,126)  (20,75)  (21,141)  (22,222)  (23,136)  (24,208)  (25,101) 
Branch_type_5  (8,3)  (9,1)  (10,4)  (11,5)  (12,3)  (13,14)  (14,16)  (15,11)  (16,22)  (17,11)  (18,23)  (19,15)  (20,12)  (21,13)  (22,43)  (23,26)  (24,42) 
Branch_type_6  (5,4)  (6,13)  (7,25)  (8,38)  (9,38)  (10,75)  (11,62)  (12,93)  (13,102)  (14,116)  (15,91)  (16,101)  (17,78)  (18,63)  (19,118)  (20,58)  (21,104)  (22,149)  (23,72)  (24,100)  (25,4)  (47,53) 
Unique trigger count: 
BTB PER SET UNIQUE ADDR: 23 28 19 27 26 26 17 24 14 28 20 26 27 20 24 19 20 24 22 26 24 19 24 30 18 26 24 25 26 23 22 23 27 16 17 25 24 28 17 22 21 21 26 29 20 14 30 17 28 24 30 22 24 27 21 11 20 17 18 27 24 34 23 23 25 27 26 17 29 24 23 23 28 18 18 18 16 25 21 34 27 15 21 29 27 23 28 22 20 41 20 16 26 21 15 26 24 22 29 29 35 31 24 19 23 22 23 25 14 19 21 32 25 20 22 13 25 27 25 23 25 17 23 17 24 23 13 24 33 19 20 32 23 29 19 29 15 28 21 33 21 29 20 24 25 23 28 22 15 22 24 26 17 22 17 31 26 27 27 27 27 26 29 27 21 25 26 18 30 22 24 27 24 23 27 22 22 21 22 27 21 21 22 31 33 30 18 28 29 19 25 18 18 30 27 16 17 24 22 24 28 25 19 22 17 21 22 23 23 24 21 28 21 22 24 28 23 26 20 39 15 27 17 23 21 28 31 25 16 29 21 14 25 32 21 29 28 20 20 18 23 24 29 29 20 23 20 24 26 21 29 31 25 18 28 28 20 19 18 21 25 18 9 21 21 17 19 19 21 23 22 26 19 16 16 18 25 28 23 23 18 25 18 19 27 20 19 32 31 27 25 17 25 29 18 30 24 27 25 24 21 21 21 38 23 30 27 22 33 26 22 31 21 37 28 16 30 22 22 29 21 28 17 22 27 26 25 17 21 17 22 30 20 21 21 27 19 19 21 39 25 24 16 29 27 26 19 24 22 23 25 24 28 25 24 30 24 27 19 18 20 31 21 32 25 26 13 22 29 23 24 18 23 27 19 33 25 28 22 26 23 25 18 16 19 23 29 28 26 23 33 15 27 30 17 18 22 20 30 25 20 27 24 25 28 28 27 26 25 25 26 20 19 32 21 21 22 33 38 31 19 27 24 26 30 20 28 19 26 22 31 24 21 23 30 30 26 21 21 24 28 20 17 31 32 19 18 26 30 24 28 39 26 19 27 32 27 28 17 30 20 23 17 28 34 21 25 25 30 26 24 26 27 23 24 37 26 34 18 25 34 28 20 26 19 28 37 30 27 22 20 27 18 19 19 21 29 26 23 27 21 31 19 32 24 20 18 32 30 27 25 31 23 24 22 28 20 31 18 17 17 22 28 16 24 34 39 16 16 31 27 25 25 25 26 29 21 25 26 25 27 21 28 25 30 32 16 25 18 24 24 33 25 23 19 25 24 26 31 27 21 34 25 26 25 31 21 27 25 26 28 26 31 36 23 30 29 30 23 23 28 25 16 25 27 27 23 25 37 28 20 22 24 17 27 18 14 24 28 20 23 22 24 15 25 29 34 22 22 25 35 27 22 17 10 34 17 28 23 27 28 26 20 20 21 32 24 29 18 27 23 31 32 24 22 24 26 32 24 26 22 29 26 34 27 27 20 26 35 21 19 27 18 20 30 25 21 25 29 24 24 14 26 34 21 26 21 21 19 21 26 20 20 27 33 21 25 25 28 32 22 30 20 29 26 23 22 27 28 30 21 25 22 15 14 21 18 26 20 27 17 27 26 34 14 31 23 18 19 16 24 22 19 23 22 21 31 25 21 33 28 24 23 24 21 22 26 23 21 19 26 21 23 20 24 26 26 31 37 23 20 20 23 26 33 31 25 25 23 21 23 24 24 24 18 23 32 22 22 19 28 15 15 24 26 30 16 25 24 27 25 30 23 19 27 20 29 22 25 31 17 24 23 21 24 22 20 28 20 14 16 14 27 25 24 31 20 18 27 24 36 24 35 31 35 20 24 25 22 21 21 36 30 30 20 26 36 30 14 28 26 33 17 28 27 22 20 27 25 28 23 30 30 24 20 27 25 23 24 23 27 23 22 25 24 28 19 37 21 26 24 21 18 21 31 29 33 29 29 29 26 24 19 28 29 18 26 18 32 18 19 29 29 23 24 12 23 23 19 23 32 15 22 31 27 27 30 24 25 21 25 19 23 23 22 29 32 23 19 19 23 22 22 25 15 29 22 27 23 31 19 24 23 25 27 27 36 22 24 28 26 25 19 25 22 20 16 31 20 16 31 33 27 20 21 34 22 21 25 27 17 31 25 23 23 24 25 27 23 26 23 25 18 24 19 26 26 21 29 24 24 24 24 34 28 26 28 25 19 26 23 28 29 22 28 20 34 32 29 36 21 28 26 24 24 34 40 21 30 20 27 27 26 23 22 22 23 26 30 24 31 30 20 23 28 28 19 34 21 27 26 28 26 16 19 22 14 19 13 14 23 31 23 17 
BTB PER SET COUNT: 2163 2444 2726 2206 2852 2090 1664 1829 1708 2213 1285 2579 13547 1729 1991 1147 2186 2304 1682 2240 1815 1559 2200 2315 1138 1898 2199 1998 2194 1840 1707 2548 2067 911 1208 1905 2005 2413 1070 2337 1662 1685 2518 2333 1794 716 2242 1472 2131 1875 2419 1429 1973 2172 1785 932 1716 1548 1425 2107 1688 2923 2087 1942 2472 2228 1741 1568 2167 1914 2492 2080 2546 1473 1215 854 900 2148 1557 2515 2541 1038 1920 2457 2211 1795 2263 2319 1802 3888 1472 1287 2248 2003 896 2131 1585 1594 2218 3977 3697 2752 2228 1659 3516 1351 1612 2099 1475 3076 1920 2880 2331 1639 1606 1174 2043 2379 2477 2028 2193 1404 1681 1079 1819 1582 778 2810 3439 1716 1378 3036 1591 2430 1699 2306 1464 2148 1579 2777 1572 2290 1742 1833 1874 1700 2685 1457 1131 1842 1761 2159 1481 1645 962 2995 2619 2127 2266 2605 2076 1817 2655 2274 1721 2194 1875 1554 2186 1799 1548 2373 1979 1816 2132 2015 1745 1524 1662 2535 1550 1902 1829 2185 2808 3035 996 1984 2465 2214 1740 1360 1220 2646 2158 1261 1293 1904 1608 1657 2193 2061 1785 1513 1151 1924 1843 1998 1858 2334 1531 2232 1386 3538 1913 2327 1594 2265 1626 3482 1124 2080 1411 1687 1659 2184 2826 2182 1323 3257 1647 561 1685 2331 1416 5661 2257 1615 2145 1082 1909 2079 3059 2685 1700 2022 1411 1972 2065 1659 2042 1991 2035 1566 2123 2405 1516 1430 1434 1698 2125 1463 316 1821 2001 843 1827 1537 2431 1883 1584 1824 1118 915 1522 1218 2042 2392 1853 1902 995 2220 1382 1818 2132 1454 1337 2938 3094 2421 2023 1200 1867 2603 1113 2791 2319 2084 1690 2118 1611 1465 1882 2937 1964 2836 1849 1867 2933 2238 2662 2192 1330 3079 3145 1387 2547 1697 1743 2783 1545 3166 1133 1642 2641 2318 2280 1318 1800 1053 1824 2840 1240 1417 1892 1778 1323 1728 1068 3533 1949 2923 1210 2169 2459 1910 1456 1780 1835 2173 2314 1835 2453 1776 1700 2591 2062 2654 1521 1327 1276 2792 1390 2828 1878 2866 716 1615 1935 1653 2114 1272 2183 2312 1250 2825 1923 2342 1756 2495 2344 2096 1665 923 1150 1769 3044 2569 2099 2164 2154 907 2168 2372 1308 1192 1517 1508 2823 2233 1657 2022 2182 1586 2161 2298 2168 2191 1534 2094 2082 1417 1340 2638 1576 1864 1730 4553 3344 2613 1369 2242 2410 1905 2562 1687 2637 1431 1681 1781 2735 2056 1367 1672 2699 2361 1870 1646 1786 1815 2750 1396 1284 2806 2926 1763 1374 2092 2428 1944 2337 3857 1810 1632 2538 3313 2005 2575 1311 2229 1296 1777 1522 2496 2894 1716 8383 1967 2580 2149 2050 2008 1860 1702 1941 2919 1788 3235 1233 1927 2749 2235 1567 2175 1489 1852 3266 2475 2675 1794 1730 2233 4427 1078 1058 1787 2727 2549 1658 2203 1600 2742 1476 3266 1478 1271 1195 2900 2669 2026 1978 3233 2810 2506 1675 2590 1423 2887 1176 1409 865 1987 2178 1101 1745 2948 3378 2231 1139 4173 3098 2031 2012 1791 2482 2331 2331 2331 2125 2002 2344 1675 2452 1950 2332 2754 936 2287 1263 2373 1723 2843 2149 2154 1475 1400 1858 1814 2385 2272 1290 2947 1684 1904 2310 2669 1701 2189 1845 2562 2801 2153 3210 2906 2064 2631 2522 2647 1787 1962 2362 2201 1061 3098 2055 2302 1835 2210 2974 2780 1958 1767 2356 922 1847 1281 1815 2300 1932 1569 1405 1810 1785 1001 1926 2238 2598 2903 1357 1718 2966 2603 2213 1122 652 2503 1057 2494 2159 2450 2772 1756 1021 1518 1642 2815 1572 2723 2238 2087 1800 3074 3003 1826 1825 1731 2336 2597 1663 2357 2181 2228 2652 2636 3124 2300 1425 2326 3859 1201 1121 2182 1219 1790 3256 1912 1547 1788 2374 1976 2116 699 2353 2833 5781 2412 1357 1918 2209 1820 1644 1702 1564 2232 3018 1994 2061 2590 2403 3010 1939 2687 1982 2375 2785 1993 1845 2027 2222 2404 1623 2481 2064 912 1488 1866 1704 2394 1602 2043 1408 2265 2422 2930 824 2289 1841 1400 1187 1118 2046 2118 1215 1925 1671 1590 3333 2140 1471 2721 2254 2387 1581 1894 1705 1570 1670 2253 1857 1976 2246 4905 1665 1862 1918 1995 2323 3075 3686 1717 1787 1379 1868 2331 2854 2569 2192 1773 2000 1606 2639 1567 2654 1958 1343 1825 2704 2194 1698 1158 2087 1066 823 1787 2876 2861 1170 2025 1244 2104 1800 2480 1654 1386 2050 1326 2371 1825 1491 2645 1617 2357 1971 1725 1985 1789 1411 2229 1426 1020 1278 1444 2124 2387 1708 2774 1665 1286 1665 2199 3344 1981 2574 2379 2910 1548 1904 1941 1807 1554 1440 5248 2613 2429 1805 2922 2859 3160 1116 2813 1877 2793 1179 2462 2773 1952 1497 1988 2155 2723 2112 2887 2201 2002 1211 2863 1948 1857 2433 1857 2345 2045 2096 1978 2074 2168 1715 3276 1589 4885 2690 1976 1556 1730 2757 2446 2842 2316 2504 2223 2599 1966 1765 1974 2742 1130 1899 1050 2824 1500 1577 2723 2232 1625 1945 895 1694 1982 2521 1967 2165 904 1441 2753 2212 2201 2455 1876 1964 1908 2291 1152 2989 2487 1469 2519 2976 1705 1656 1638 2193 1672 1849 2271 873 2308 1605 2586 1723 2727 1723 1938 1939 2423 2478 2424 3567 2117 2025 2195 2038 2184 1359 2503 1361 1539 701 2627 1273 1195 2345 2793 3192 1432 1857 3187 1989 1646 2463 2323 1278 3229 2082 1569 1918 2015 1853 2461 2184 2164 2189 2611 1967 3608 1659 2195 2283 1806 2039 2208 2033 2114 1727 2697 2598 1491 2812 2199 1431 2139 2017 2791 2458 1763 2670 1556 3309 2340 2808 3116 1872 2333 2296 2171 1483 3282 4132 1359 2517 2149 2261 2602 1837 1891 2303 1802 1457 2356 2232 2110 2664 2999 1666 1848 2329 2065 1556 3179 1680 2324 2496 2429 2373 1340 1471 1911 971 1723 525 1141 1615 2963 1977 1012 
