
*** ChampSim Multicore Out-of-Order Simulator ***

Warmup Instructions: 50000000
Simulation Instructions: 50000000
Number of CPUs: 1
LLC sets: 2048
LLC ways: 16
Off-chip DRAM Size: 4096 MB Channels: 1 Width: 64-bit Data Rate: 6400 MT/s
CPU 0 runs ./micro_traces/srv245.trace.gz
.gz
ITLB has LRU replacement policy
DTLB has LRU replacement policy
STLB has LRU replacement policy
FDIP Prefetcher at L1I
L1I has LRU replacement policy
L1D has LRU replacement policy
Initialize SRRIP state for L2C
Initialize DRRIP state for LLC
Heartbeat CPU 0 instructions: 10000001 cycles: 2791435 heartbeat IPC: 3.58239 cumulative IPC: 3.58239 (Simulation time: 0 hr 2 min 16 sec) 
Heartbeat CPU 0 instructions: 20000000 cycles: 5583273 heartbeat IPC: 3.58187 cumulative IPC: 3.58213 (Simulation time: 0 hr 4 min 7 sec) 
Heartbeat CPU 0 instructions: 30000002 cycles: 8374758 heartbeat IPC: 3.58232 cumulative IPC: 3.58219 (Simulation time: 0 hr 6 min 5 sec) 
Heartbeat CPU 0 instructions: 40000003 cycles: 11165100 heartbeat IPC: 3.58379 cumulative IPC: 3.58259 (Simulation time: 0 hr 7 min 56 sec) 
Heartbeat CPU 0 instructions: 50000001 cycles: 13956127 heartbeat IPC: 3.58291 cumulative IPC: 3.58266 (Simulation time: 0 hr 9 min 48 sec) 

Warmup complete CPU 0 instructions: 50000001 cycles: 13956127 (Simulation time: 0 hr 9 min 48 sec) 

Cycle: 20000000 FTQ IN: 58328906 FTQ occupancy: 20.6789 DECODE IN: 58328875 DECODE occupancy: 53.6964 ROB IN: 58328818 ROB occupancy: 319.219 ROB OUT: 58328541
Heartbeat CPU 0 instructions: 60000000 cycles: 21204439 heartbeat IPC: 1.37963 cumulative IPC: 1.37963 (Simulation time: 0 hr 12 min 16 sec) 
Heartbeat CPU 0 instructions: 70000000 cycles: 28287183 heartbeat IPC: 1.41188 cumulative IPC: 1.39557 (Simulation time: 0 hr 14 min 33 sec) 
Cycle: 30000000 FTQ IN: 13963259 FTQ occupancy: 15.4698 DECODE IN: 13963185 DECODE occupancy: 39.4039 ROB IN: 13963182 ROB occupancy: 253.31 ROB OUT: 13963110
Heartbeat CPU 0 instructions: 80000002 cycles: 35470031 heartbeat IPC: 1.39221 cumulative IPC: 1.39445 (Simulation time: 0 hr 16 min 58 sec) 
Cycle: 40000000 FTQ IN: 14090470 FTQ occupancy: 15.4636 DECODE IN: 14090500 DECODE occupancy: 39.6566 ROB IN: 14090560 ROB occupancy: 254.874 ROB OUT: 14090886
Heartbeat CPU 0 instructions: 90000002 cycles: 42622334 heartbeat IPC: 1.39815 cumulative IPC: 1.39537 (Simulation time: 0 hr 19 min 20 sec) 
Heartbeat CPU 0 instructions: 100000002 cycles: 49645234 heartbeat IPC: 1.42391 cumulative IPC: 1.40099 (Simulation time: 0 hr 21 min 41 sec) 
Finished CPU 0 instructions: 50000001 cycles: 35689107 cumulative IPC: 1.40099 (Simulation time: 0 hr 21 min 41 sec) 

ChampSim completed all CPUs

Region of Interest Statistics

CPU 0 cumulative IPC: 1.40099 instructions: 50000001 cycles: 35689107
 Fetch stage stalled: 43.0487  Sim cycles: 35689107 fetch stall cycle: 15363684
 Empty decode stage: 22.5633  Sim cycles: 35689107 fetch stall cycle: 8052645
ITLB TOTAL     ACCESS:    5839842  HIT:    5393552  MISS:     446290  HIT %:    92.3578  MISS %:    7.64216   MPKI: 8.9258
ITLB LOAD TRANSLATION INSTRUCTION	ACCESS:    5692790  HIT:    5246500  MISS:     446290  HIT %:    92.1604  MISS %:    7.83957  MPKI: 8.9258
ITLB TRANSLATION FROM L1D PREFETCHER INSTRUCTION	ACCESS:     147052  HIT:     147052  MISS:          0  HIT %:        100  MISS %:          0  MPKI: 0

ITLB AVERAGE MISS LATENCY: 9.11678 cycles
ITLB RQ	ACCESS:    7812572	FORWARD:          0	MERGED:    1536573	TO_CACHE:    6275999

DTLB TOTAL     ACCESS:    8823101  HIT:    8348958  MISS:     474143  HIT %:    94.6261  MISS %:    5.37388   MPKI: 9.48286
DTLB LOAD TRANSLATION DATA	ACCESS:    8823101  HIT:    8348958  MISS:     474143  HIT %:    94.6261  MISS %:    5.37388  MPKI: 9.48286

DTLB AVERAGE MISS LATENCY: 9.41626 cycles
DTLB RQ	ACCESS:   13099955	FORWARD:          0	MERGED:    4237614	TO_CACHE:    8862341

STLB TOTAL     ACCESS:    1219030  HIT:    1215870  MISS:       3160  HIT %:    99.7408  MISS %:   0.259222   MPKI: 0.0632
STLB LOAD TRANSLATION INSTRUCTION	ACCESS:     446290  HIT:     445715  MISS:        575  HIT %:    99.8712  MISS %:    0.12884  MPKI: 0.0115
STLB LOAD TRANSLATION DATA	ACCESS:     474143  HIT:     471588  MISS:       2555  HIT %:    99.4611  MISS %:   0.538867  MPKI: 0.0511
STLB TRANSLATION FROM L1D PREFETCHER DATA	ACCESS:     298597  HIT:     298567  MISS:         30  HIT %:      99.99  MISS %:   0.010047  MPKI: 0.0006

STLB AVERAGE MISS LATENCY: 66.8816 cycles
STLB RQ	ACCESS:    1396067	FORWARD:          0	MERGED:     176944	TO_CACHE:    1219123

STLB Hit, L1D data hit: 0
STLB Hit, L2C data hit: 0
STLB Hit, LLC data hit: 0
STLB Hit, LLC data miss: 0
STLB STLB hints to L2: 0
L1D TOTAL     ACCESS:   12942924  HIT:   11842383  MISS:    1100541  HIT %:     91.497  MISS %:    8.50303   MPKI: 22.0108
L1D LOAD DATA	ACCESS:    6474189  HIT:    5760863  MISS:     713326  HIT %:     88.982  MISS %:     11.018  MPKI: 14.2665
L1D RFO DATA	ACCESS:    6072622  HIT:    5796635  MISS:     275987  HIT %:    95.4552  MISS %:    4.54477  MPKI: 5.51974
L1D PREFETCH DATA	ACCESS:     396113  HIT:     284885  MISS:     111228  HIT %:    71.9201  MISS %:    28.0799  MPKI: 2.22456

L1D PREFETCH  REQUESTED:     951578  ISSUED:     951578  USEFUL:      57780  USELESS:      72554
L1D USEFUL LOAD PREFETCHES:      57780 PREFETCH ISSUED TO LOWER LEVEL:     130384  ACCURACY: 44.3153
 TIMELY PREFETCHES:      57780 LATE PREFETCHES: 19099 DROPPED PREFETCHES: 47
L1D AVERAGE MISS LATENCY: 545857 cycles
L1D RQ	ACCESS:   10613629	FORWARD:          0	MERGED:    3947659	TO_CACHE:    6513230
L1D WQ	ACCESS:    6770009	FORWARD:     153050	MERGED:     183284	TO_CACHE:    6586725
L1D PQ	ACCESS:     475944	FORWARD:          0	MERGED:          0	TO_CACHE:     475634

L1D UNIQUE REGIONS ACCESSED: 0
L1D REGIONS CONFLICTS: 0
L1D Cross Page Prefetch Requests: 10374
L1D Same Page Prefetch Requests: 956867
L1D ROI Sum of L1D PQ occupancy: 6037333
L1D PREFETCHES PUSHED FROM L2C: 0
L1I TOTAL     ACCESS:    7048959  HIT:    4536983  MISS:    2511976  HIT %:    64.3639  MISS %:    35.6361   MPKI: 50.2395
L1I LOAD INSTRUCTION	ACCESS:    6349433  HIT:    3837457  MISS:    2511976  HIT %:    60.4378  MISS %:    39.5622  MPKI: 50.2395
L1I PREFETCH INSTRUCTION	ACCESS:     699526  HIT:     699526  MISS:          0  HIT %:        100  MISS %:          0  MPKI: 0

L1I PREFETCH  REQUESTED:    1623705  ISSUED:    1623705  USEFUL:          0  USELESS:          0
L1I USEFUL LOAD PREFETCHES:          0 PREFETCH ISSUED TO LOWER LEVEL:          0  ACCURACY: -nan
 TIMELY PREFETCHES:          0 LATE PREFETCHES: 0 DROPPED PREFETCHES: 0
L1I AVERAGE MISS LATENCY: 17.8079 cycles
L1I RQ	ACCESS:    9554155	FORWARD:          0	MERGED:    2921465	TO_CACHE:    6632690
L1I PQ	ACCESS:    1623705	FORWARD:          0	MERGED:     443823	TO_CACHE:    1179882

L1BTB TOTAL     ACCESS:    5844384  HIT:    2450554  MISS:    3393830  HIT %:    41.9301  MISS %:    58.0699   MPKI: 67.8766
L1BTB BRANCH_DIRECT_JUMP	ACCESS:     589583  HIT:     197486  MISS:     392097	AVERAGE STALL: 53.6812
L1BTB BRANCH_INDIRECT	ACCESS:     172404  HIT:      56758  MISS:     115646	AVERAGE STALL: 113.055
L1BTB BRANCH_CONDITIONAL	ACCESS:    2990717  HIT:    1780662  MISS:    1210055	AVERAGE STALL: 89.717
L1BTB BRANCH_DIRECT_CALL	ACCESS:     886105  HIT:     107601  MISS:     778504	AVERAGE STALL: 68.4422
L1BTB BRANCH_INDIRECT_CALL	ACCESS:     159736  HIT:      20351  MISS:     139385	AVERAGE STALL: 138.417
L1BTB BRANCH_RETURN	ACCESS:    1045839  HIT:     287696  MISS:     758143	AVERAGE STALL: 53.8933
L1BTB BRANCH_OTHER ACCESS:          0  HIT:          0  MISS:          0	AVERAGE STALL: -nan
L1BTB TOTAL ROB OCCUPANCY AT BTB MISS: 2.12751

L2BTB TOTAL     ACCESS:    3368560  HIT:    3323429  MISS:      45131  HIT %:    98.6602  MISS %:    1.33977   MPKI: 0.90262
L2BTB BRANCH_DIRECT_JUMP	ACCESS:     387034  HIT:     384128  MISS:       2906	AVERAGE STALL: 53.6812
L2BTB BRANCH_INDIRECT	ACCESS:     105834  HIT:     103356  MISS:       2478	AVERAGE STALL: 113.055
L2BTB BRANCH_CONDITIONAL	ACCESS:    1210055  HIT:    1209055  MISS:       1000	AVERAGE STALL: 89.717
L2BTB BRANCH_DIRECT_CALL	ACCESS:     778504  HIT:     777835  MISS:        669	AVERAGE STALL: 68.4422
L2BTB BRANCH_INDIRECT_CALL	ACCESS:     130012  HIT:     120795  MISS:       9217	AVERAGE STALL: 138.417
L2BTB BRANCH_RETURN	ACCESS:     757121  HIT:     728260  MISS:      28861	AVERAGE STALL: 53.8933
L2BTB BRANCH_OTHER ACCESS:          0  HIT:          0  MISS:          0	AVERAGE STALL: -nan
L2BTB TOTAL ROB OCCUPANCY AT BTB MISS: 159.988

L2C TOTAL     ACCESS:    4182833  HIT:    3646947  MISS:     535886  HIT %:    87.1884  MISS %:    12.8116   MPKI: 10.7177
L2C LOAD INSTRUCTION	ACCESS:    2511975  HIT:    2232069  MISS:     279906  HIT %:    88.8571  MISS %:    11.1429  MPKI: 5.59812
L2C LOAD TRANSLATION INSTRUCTION	ACCESS:        642  HIT:        175  MISS:        467  HIT %:    27.2586  MISS %:    72.7414  MPKI: 0.00934
L2C LOAD DATA	ACCESS:     694111  HIT:     605704  MISS:      88407  HIT %:    87.2633  MISS %:    12.7367  MPKI: 1.76814
L2C RFO DATA	ACCESS:     275912  HIT:     217119  MISS:      58793  HIT %:    78.6914  MISS %:    21.3086  MPKI: 1.17586
L2C PREFETCH DATA	ACCESS:     213330  HIT:     123491  MISS:      89839  HIT %:    57.8873  MISS %:    42.1127  MPKI: 1.79678
L2C WRITEBACK DATA	ACCESS:     484000  HIT:     467500  MISS:      16500  HIT %:    96.5909  MISS %:    3.40909  MPKI: 0.33
L2C LOAD TRANSLATION DATA	ACCESS:       2778  HIT:        849  MISS:       1929  HIT %:    30.5616  MISS %:    69.4384  MPKI: 0.03858
L2C TRANSLATION FROM L1D PREFETCHER DATA	ACCESS:         85  HIT:         40  MISS:         45  HIT %:    47.0588  MISS %:    52.9412  MPKI: 0.0009

L2C PREFETCH  REQUESTED:      92210  ISSUED:      92210  USEFUL:       9759  USELESS:      80802
L2C USEFUL LOAD PREFETCHES:       9759 PREFETCH ISSUED TO LOWER LEVEL:      90432  ACCURACY: 10.7915
 TIMELY PREFETCHES:       9759 LATE PREFETCHES: 593 DROPPED PREFETCHES: 0
L2C AVERAGE MISS LATENCY: 40.8078 cycles
L2C RQ	ACCESS:    3485637	FORWARD:          0	MERGED:          0	TO_CACHE:    3485503
L2C WQ	ACCESS:     484000	FORWARD:        135	MERGED:          0	TO_CACHE:     484000
L2C PQ	ACCESS:     222594	FORWARD:          0	MERGED:       3697	TO_CACHE:     218896

L2C Dense regions hint from L2: 0
PSCL5 TOTAL     ACCESS:       6414  HIT:       3207  MISS:       3207  HIT %:         50  MISS %:         50   MPKI: 0.06414
PSCL5 LOAD TRANSLATION INSTRUCTION	ACCESS:       6248  HIT:       3124  MISS:       3124  HIT %:         50  MISS %:         50  MPKI: 0.06248
PSCL5 TRANSLATION FROM L1D PREFETCHER INSTRUCTION	ACCESS:        166  HIT:         83  MISS:         83  HIT %:         50  MISS %:         50  MPKI: 0.00166


PSCL4 TOTAL     ACCESS:       5975  HIT:       2981  MISS:       2994  HIT %:    49.8912  MISS %:    50.1088   MPKI: 0.05988
PSCL4 LOAD TRANSLATION INSTRUCTION	ACCESS:       3073  HIT:       2898  MISS:        175  HIT %:    94.3052  MISS %:    5.69476  MPKI: 0.0035
PSCL4 TRANSLATION FROM L1D PREFETCHER INSTRUCTION	ACCESS:         83  HIT:         83  MISS:          0  HIT %:        100  MISS %:          0  MPKI: 0
PSCL4 LOAD TRANSLATION DATA	ACCESS:       2736  HIT:          0  MISS:       2736  HIT %:          0  MISS %:        100  MPKI: 0.05472
PSCL4 TRANSLATION FROM L1D PREFETCHER DATA	ACCESS:         83  HIT:          0  MISS:         83  HIT %:          0  MISS %:        100  MPKI: 0.00166


PSCL3 TOTAL     ACCESS:       6329  HIT:       3158  MISS:       3171  HIT %:    49.8973  MISS %:    50.1027   MPKI: 0.06342
PSCL3 LOAD TRANSLATION INSTRUCTION	ACCESS:       3250  HIT:       3075  MISS:        175  HIT %:    94.6154  MISS %:    5.38462  MPKI: 0.0035
PSCL3 TRANSLATION FROM L1D PREFETCHER INSTRUCTION	ACCESS:         83  HIT:         83  MISS:          0  HIT %:        100  MISS %:          0  MPKI: 0
PSCL3 LOAD TRANSLATION DATA	ACCESS:       2913  HIT:          0  MISS:       2913  HIT %:          0  MISS %:        100  MPKI: 0.05826
PSCL3 TRANSLATION FROM L1D PREFETCHER DATA	ACCESS:         83  HIT:          0  MISS:         83  HIT %:          0  MISS %:        100  MPKI: 0.00166


PSCL2 TOTAL     ACCESS:       6139  HIT:       2934  MISS:       3205  HIT %:    47.7928  MISS %:    52.2072   MPKI: 0.0641
PSCL2 LOAD TRANSLATION INSTRUCTION	ACCESS:       3422  HIT:       2853  MISS:        569  HIT %:    83.3723  MISS %:    16.6277  MPKI: 0.01138
PSCL2 TRANSLATION FROM L1D PREFETCHER INSTRUCTION	ACCESS:         81  HIT:         81  MISS:          0  HIT %:        100  MISS %:          0  MPKI: 0
PSCL2 LOAD TRANSLATION DATA	ACCESS:       2555  HIT:          0  MISS:       2555  HIT %:          0  MISS %:        100  MPKI: 0.0511
PSCL2 TRANSLATION FROM L1D PREFETCHER DATA	ACCESS:         81  HIT:          0  MISS:         81  HIT %:          0  MISS %:        100  MPKI: 0.00162


LLC TOTAL     ACCESS:     601743  HIT:     562812  MISS:      38931  HIT %:    93.5303  MISS %:    6.46971   MPKI: 0.77862
LLC LOAD INSTRUCTION	ACCESS:     279906  HIT:     278799  MISS:       1107  HIT %:    99.6045  MISS %:    0.39549  MPKI: 0.02214
LLC LOAD TRANSLATION INSTRUCTION	ACCESS:        467  HIT:        421  MISS:         46  HIT %:    90.1499  MISS %:    9.85011  MPKI: 0.00092
LLC LOAD DATA	ACCESS:      87837  HIT:      83057  MISS:       4780  HIT %:    94.5581  MISS %:     5.4419  MPKI: 0.0956
LLC RFO DATA	ACCESS:      58764  HIT:      39853  MISS:      18911  HIT %:    67.8187  MISS %:    32.1813  MPKI: 0.37822
LLC PREFETCH DATA	ACCESS:      90432  HIT:      76874  MISS:      13558  HIT %:    85.0075  MISS %:    14.9925  MPKI: 0.27116
LLC WRITEBACK DATA	ACCESS:      82363  HIT:      81950  MISS:        413  HIT %:    99.4986  MISS %:   0.501439  MPKI: 0.00826
LLC LOAD TRANSLATION DATA	ACCESS:       1929  HIT:       1818  MISS:        111  HIT %:    94.2457  MISS %:    5.75428  MPKI: 0.00222
LLC TRANSLATION FROM L1D PREFETCHER DATA	ACCESS:         45  HIT:         40  MISS:          5  HIT %:    88.8889  MISS %:    11.1111  MPKI: 0.0001

LLC AVERAGE MISS LATENCY: 160.68 cycles
LLC RQ	ACCESS:     428954	FORWARD:          0	MERGED:          0	TO_CACHE:     428948
LLC WQ	ACCESS:      82363	FORWARD:          6	MERGED:          0	TO_CACHE:      82363
LLC PQ	ACCESS:      90432	FORWARD:          0	MERGED:          0	TO_CACHE:      90432

LLC Dense regions hint to LLC: 0

RAW hits: 1836684
Loads Generated: 12450313
Loads sent to L1D: 10613629
Stores Generated: 6769986
Stores sent to L1D: 6770009
Major fault: 0 Minor fault: 2529
Allocated PAGES: 2529

stream: 
stream:times selected: 1485261
stream:pref_filled: 130182
stream:pref_useful: 30977
stream:pref_late: 10911
stream:misses: 13361
stream:misses_by_poll: 0

CS: 
CS:times selected: 234684
CS:pref_filled: 85664
CS:pref_useful: 60949
CS:pref_late: 11892
CS:misses: 29872
CS:misses_by_poll: 3

CPLX: 
CPLX:times selected: 1248469
CPLX:pref_filled: 29244
CPLX:pref_useful: 9448
CPLX:pref_late: 5276
CPLX:misses: 150364
CPLX:misses_by_poll: 0

NL_L1: 
NL:times selected: 28700
NL:pref_filled: 1977
NL:pref_useful: 925
NL:pref_late: 753
NL:misses: 3920
NL:misses_by_poll: 0

total selections: 2997114
total_filled: 111228
total_useful: 57780
total_late: 32040
total_polluted: 3
total_misses_after_warmup: 752372
conflicts: 5200319

test: 176587

DRAM Statistics
 CHANNEL 0
 RQ ROW_BUFFER_HIT:      13443  ROW_BUFFER_MISS:      25058
 DBUS_CONGESTED:         15
 WQ ROW_BUFFER_HIT:       2072  ROW_BUFFER_MISS:      18884  FULL:          0

 AVG_CONGESTED_CYCLE: 5

CPU 0 Branch Prediction Accuracy: 99.7504% MPKI: 0.4573 Average ROB Occupancy at Mispredict: 185.04
Branch types
NOT_BRANCH: 40838334 81.6767%
BRANCH_DIRECT_JUMP: 589583 1.17917%
BRANCH_INDIRECT: 172404 0.344808%
BRANCH_CONDITIONAL: 6307967 12.6159%
BRANCH_DIRECT_CALL: 886105 1.77221%
BRANCH_INDIRECT_CALL: 159736 0.319472%
BRANCH_RETURN: 1045839 2.09168%
BRANCH_OTHER: 0 0%

DRAM PAGES: 1048576
Allocated PAGES: 2529
Average_ROB_Occupancy: 255.633
Average_Decode_Occupancy: 39.5688
Average_FTQ_Occupancy: 15.4877
Indirect max targets: 14 Average targets: 1.14901
Branch_type:  BRANCH_DIRECT_JUMP:  Count Percentage: 9.64257 5.09617 4.66607 13.5032 5.22451 2.24538 1.96706 57.655 
Branch_type:  BRANCH_INDIRECT:  Count Percentage: 5.52769 1.162 14.3352 25.1968 1.37866 16.586 1.78003 34.0336 
Branch_type:  BRANCH_CONDITIONAL:  Count Percentage: 26.4338 2.77984 2.9764 8.35976 2.38979 2.26325 2.16892 52.6283 
Branch_type:  BRANCH_DIRECT_CALL:  Count Percentage: 0.341337 1.29045 1.83381 4.84842 3.03074 2.1258 3.43734 83.0921 
Branch_type:  BRANCH_INDIRECT_CALL:  Count Percentage: 8.72641 0.835574 2.97789 10.165 0.000626133 3.89204 2.77158 70.6309 
Branch_type:  BRANCH_RETURN:  Count Percentage: 3.92467 0.647502 3.47117 9.94929 4.04037 3.69417 2.74145 71.5314 
Branch_type:  BRANCH_DIRECT_JUMP:  Total Count: 113531 60002 54938 158986 61513 26437 23160 678826 
Branch_type:  BRANCH_INDIRECT:  Total Count: 19033 4001 49359 86758 4747 57109 6129 117185 
Branch_type:  BRANCH_CONDITIONAL:  Total Count: 3333099 350517 375301 1054103 301334 285379 273484 6636027 
Branch_type:  BRANCH_DIRECT_CALL:  Total Count: 6052 22880 32514 85964 53736 37691 60945 1473248 
Branch_type:  BRANCH_INDIRECT_CALL:  Total Count: 27874 2669 9512 32469 2 12432 8853 225610 
Branch_type:  BRANCH_RETURN:  Total Count: 82154 13554 72661 208266 84576 77329 57386 1497348 
Number of unique branch instructions: 10145
Upper 32 bits: 
aaaa
ffff
ffff0000
Unique upper 32 bits: 3
Unique upper 36 bits: 3
Unique upper 40 bits: 5
Unique upper 44 bits: 32
Unique upper 48 bits: 157
Offset_3 4186
Offset_4 265
Offset_5 474
Offset_6 514
Offset_7 604
Offset_8 522
Offset_9 482
Offset_10 380
Offset_11 324
Offset_12 282
Offset_13 216
Offset_14 231
Offset_15 193
Offset_16 226
Offset_17 155
Offset_18 118
Offset_19 242
Offset_20 142
Offset_21 265
Offset_22 396
Offset_23 241
Offset_24 353
Offset_25 88
Offset_47 86
Offset_64 3
decode_dispatch_called: 26660779 74.7028
Dispatch_width: 0 14386701 53.962 40.3112
Dispatch_width: 1 1047429 3.92873 2.93487
Dispatch_width: 2 882555 3.31031 2.4729
Dispatch_width: 3 502467 1.88467 1.4079
Dispatch_width: 4 6635335 24.888 18.592
Dispatch_width: 5 99031 0.371448 0.277482
Dispatch_width: 6 3107261 11.6548 8.70647
Empty_decode_cycles: 9028328 25.2972
ROB_full_cycles: 10575022 29.631
Starvation_cycles_per_kilo_instr: 220.068
Starvation_cycles_per_kilo_instr_3: 152.725
Starvation_cycles_per_kilo_instr_0: 128.4
Branch_type_1  (3,1)  (4,11)  (5,38)  (6,69)  (7,118)  (8,135)  (9,129)  (10,90)  (11,74)  (12,44)  (13,9)  (14,2)  (15,3)  (16,4)  (18,1)  (19,4)  (20,2)  (21,1)  (22,3)  (23,2)  (24,10)  (25,12) 
Branch_type_2  (3,1)  (5,1)  (8,2)  (9,3)  (12,1)  (13,1)  (14,1)  (16,3)  (17,2)  (20,2)  (21,2)  (23,5)  (24,1)  (47,40) 
Branch_type_3  (3,4184)  (4,254)  (5,431)  (6,430)  (7,453)  (8,324)  (9,264)  (10,156)  (11,132)  (12,54)  (13,8)  (64,3) 
Branch_type_4  (6,3)  (7,8)  (8,25)  (9,54)  (10,62)  (11,61)  (12,100)  (13,91)  (14,104)  (15,91)  (16,101)  (17,70)  (18,53)  (19,118)  (20,73)  (21,144)  (22,211)  (23,136)  (24,202)  (25,72) 
Branch_type_5  (8,2)  (9,1)  (10,4)  (11,5)  (12,3)  (13,14)  (14,16)  (15,11)  (16,20)  (17,11)  (18,16)  (19,13)  (20,11)  (21,13)  (22,42)  (23,26)  (24,41) 
Branch_type_6  (5,4)  (6,12)  (7,25)  (8,34)  (9,31)  (10,68)  (11,52)  (12,80)  (13,93)  (14,108)  (15,88)  (16,98)  (17,72)  (18,48)  (19,107)  (20,54)  (21,105)  (22,140)  (23,72)  (24,99)  (25,4)  (47,46) 
aaaaab1fc620: 2ac9e77e 2aca717c 2aca8eff 2acaf6bc 2acaf9aa 2acaf9f1 2acb1abc 2acb1b7f 2acd4e22 2acdb712 2acf5f9e 2ad0ef44 2ad3f15c 2ad414e6 2ad60e42 2ad8609c 2ad99830 2ada35cc 2ada4676 2ada6612 2adf183e 2adf30e5 2adf5602 2adf785c 2ae11572 2aeb2dcf 2aee101b 2aee1ae1 2aee9456 2b156a8c 2b156b61 2b156bea 2b167f35 2b177656 2b17feec 2b1a3e5a 
aaaaab1fc740: 2aca1fb0 2aca45b3 2aca5aa1 2aca5c69 2aca66f9 2aca9426 2acaeecb 2acf3d2d 2acf3d64 2acf6089 2ad017ea 2ad5e7ef 2ad61064 2ad87373 2ad9bf84 2ad9c093 2ae9b606 2aea9ffa 2aee99f5 2aee9a2c 2aeece4b 
aaaaac68f310: 2ac9ec8c 2ac9fb44 2ac9fbd2 2aca59ab 2acac04c 2acaf6e0 2acaf6ec 2acaf6f9 2acaf700 2acaf708 2acf2d90 2ad3cfbd 2ad3cfc4 2ad3d000 2ad3f35f 2ad4955d 2ad49571 2ad4f3f2 2ad4f400 2ad5f240 2ad5f37c 2ad5f86a 2ad5f86f 2ad5f880 2ad5fc0d 2ad5fc14 2ad5fc21 2ad5fe1b 2ad873bb 2ad873e3 2ad8a6b2 2ad9086e 2ad93096 2ad9bbb2 2ada152c 2ada1554 2ada3332 2ada5522 2adf3130 2adf313c 2adf3a3f 2adf3bd9 2adf5788 2adf7a8d 2ae07f6b 2ae0857a 2ae0857e 2ae08630 2ae08634 2ae08637 2ae08642 2ae0866f 2ae086e4 2ae086ec 2ae08717 2ae0871b 2aee0170 2aee1d38 2aee75f4 2aee7662 2aee85ca 2aee85e4 2aee8eef 2aee9a0a 2af70b84 2af74e8f 2b17d843 
aaaaac690ef0: 2aca598b 2acb111b 2acb175f 2acb1772 2acbfaf4 2acbfb00 2acf374f 2acf6d43 2acfa5c8 2ad3baf1 2ad3d4ac 2ad3d4b8 2ad3f1cf 2ad486b2 2ad5a59b 2ad5fc64 2ad5fcf9 2ad6121c 2ad906e9 2ad907bf 2ad9bada 2ada16ce 2ada1ad5 2ada43df 2ada64c0 2ada72ee 2adeb71a 2adf3bcb 2adf7a38 2adf7c6a 2adf8872 2adf8880 2adf9959 2adf9abe 2ae07f78 2ae08503 2ae08754 2ae12e80 2aea3bea 2aecb509 2aee00b0 2aee2bdd 2aee5467 2aee5601 2aee8f20 2af703fd 2af7048b 2af74e74 2dfba627 
Unique trigger count: 
1 9661
2 531
3 93
4 36
5 10
6 8
7 7
8 1
9 3
10 1
11 2
12 1
13 3
16 2
18 2
19 2
21 1
36 1
49 1
67 1
BTB PER SET UNIQUE ADDR: 0 1 1 1 0 1 0 0 0 0 1 0 1 0 1 1 1 0 0 1 0 1 1 2 0 2 0 1 1 0 1 0 1 0 0 1 0 1 5 1 1 0 1 3 1 0 1 0 1 1 2 0 1 1 1 2 1 2 0 0 0 0 0 1 0 2 1 0 0 1 1 0 1 0 0 0 1 2 1 2 1 0 1 1 1 1 0 1 3 1 1 2 1 1 1 0 0 0 0 1 0 2 0 1 0 1 0 0 0 0 1 0 0 1 0 1 0 0 0 0 0 1 0 0 0 0 1 0 2 0 1 0 0 0 1 0 0 0 0 1 0 1 1 0 0 0 0 1 1 1 0 3 1 0 0 0 0 0 0 0 0 0 0 1 0 0 0 1 2 1 0 0 1 0 0 0 0 1 0 0 1 0 1 0 0 1 0 0 0 0 2 0 1 2 0 1 1 0 0 1 0 1 0 0 0 0 0 0 0 0 0 1 1 1 1 0 0 1 0 0 0 0 1 1 1 0 0 0 0 1 1 0 0 0 0 2 1 0 0 0 1 0 1 0 3 1 0 1 1 0 1 0 0 1 0 2 1 0 0 0 2 1 1 0 2 3 1 0 1 0 0 0 0 1 0 1 0 0 0 1 1 0 0 0 1 1 0 0 0 0 0 0 0 0 0 0 1 2 0 0 1 0 1 0 1 0 2 0 0 0 1 0 0 0 2 0 1 1 0 1 0 0 0 0 0 0 1 1 0 0 0 0 1 0 1 0 0 0 2 0 2 0 0 0 0 0 1 0 0 0 0 1 0 2 1 0 1 0 2 0 0 2 1 0 1 1 0 0 0 0 1 0 0 0 0 1 0 0 1 0 0 0 0 1 0 0 1 0 0 0 0 0 1 0 0 0 0 0 0 1 1 1 0 0 0 0 1 1 0 0 0 0 0 0 1 0 2 0 0 1 1 0 1 2 0 2 0 0 0 0 0 0 1 1 1 0 0 0 0 0 0 2 0 1 0 0 0 0 0 0 0 0 0 0 1 0 1 0 2 0 2 0 1 1 0 0 1 0 1 2 0 0 1 1 2 0 0 1 0 0 0 1 0 2 0 0 1 0 0 1 1 0 0 2 0 2 0 1 0 0 1 0 0 0 0 0 0 0 0 1 1 1 0 0 2 0 0 1 1 3 1 1 1 1 3 0 0 1 1 1 1 1 0 2 1 1 0 0 3 0 0 2 1 0 0 1 2 2 0 2 0 0 0 1 0 1 1 0 1 0 3 0 0 0 0 0 0 0 1 2 2 0 1 2 1 0 0 0 0 0 0 0 0 0 0 0 0 0 0 0 0 0 0 0 0 0 1 0 1 0 0 0 0 1 0 1 0 1 0 0 1 0 0 0 0 0 0 0 0 0 0 0 1 0 1 1 0 0 0 0 2 0 0 1 0 0 0 0 0 0 0 0 1 1 1 0 0 0 0 1 0 0 0 0 0 0 0 0 0 1 0 1 0 1 1 1 1 0 0 0 1 0 1 0 1 1 0 1 1 0 1 0 0 0 0 0 1 1 1 0 0 0 0 1 0 1 1 1 0 0 0 1 0 1 0 0 0 0 0 0 1 1 0 0 1 0 1 1 0 0 0 0 0 0 0 0 0 0 0 1 0 1 0 0 0 0 2 1 1 0 1 1 1 0 1 0 0 0 0 1 0 0 1 0 0 1 1 2 0 0 1 0 0 0 0 0 1 0 0 1 2 0 0 1 0 1 3 0 1 1 1 0 0 0 1 1 1 1 0 0 1 0 0 0 1 1 1 0 0 0 0 0 0 0 0 0 0 0 0 1 0 1 0 0 0 0 1 0 0 0 2 0 1 0 0 0 0 1 0 0 0 1 1 0 0 0 0 0 1 0 0 0 0 0 0 1 0 2 1 0 1 0 1 0 0 0 0 0 0 0 0 0 0 0 0 0 0 0 1 0 0 0 0 0 0 0 0 0 2 1 1 1 0 0 0 0 0 1 0 0 0 0 0 0 0 0 2 0 1 0 0 0 0 1 0 1 0 0 0 1 0 1 0 0 0 0 0 0 0 0 0 1 1 0 1 0 0 0 1 0 0 0 2 0 1 0 0 1 0 0 0 0 0 1 0 0 1 0 0 1 0 0 0 0 0 0 0 2 0 0 2 0 1 1 0 1 4 1 0 1 0 0 0 0 1 0 1 3 0 0 2 1 1 2 1 0 0 1 2 0 2 1 0 0 1 0 0 1 0 2 0 0 2 0 1 1 2 0 0 1 0 0 1 0 0 0 1 1 0 1 1 1 4 2 0 0 0 1 1 1 3 2 1 1 1 0 0 1 1 0 0 0 0 2 0 1 3 0 2 3 0 1 0 2 1 1 2 1 1 0 0 0 1 0 2 0 1 1 2 1 1 3 0 2 0 0 3 0 0 1 0 0 0 1 1 2 2 2 1 2 0 2 1 2 1 0 2 0 0 1 0 2 1 0 2 1 1 1 0 2 0 2 1 2 1 1 1 0 1 2 1 1 1 1 0 2 1 2 0 1 1 1 1 0 2 1 0 0 2 0 0 0 1 0 1 0 0 1 1 2 0 2 1 0 1 0 1 1 0 0 0 0 0 3 0 1 1 1 0 1 0 0 1 0 3 0 0 1 2 4 2 1 0 3 4 0 2 0 0 0 0 1 1 0 1 0 2 3 1 0 0 1 2 1 0 2 0 0 0 2 1 3 0 2 0 1 0 0 2 3 4 0 4 0 0 0 2 1 2 0 2 1 1 1 0 0 0 1 1 1 0 1 2 2 2 0 2 1 0 2 3 2 1 1 1 2 0 0 1 3 5 1 1 1 1 1 2 1 2 0 0 1 1 0 4 2 1 0 0 0 1 1 0 0 1 0 0 1 2 2 1 0 2 0 0 0 0 2 1 0 1 0 0 1 1 0 2 1 4 1 1 2 1 0 2 1 0 2 1 2 0 2 0 1 2 0 0 0 0 1 0 1 0 1 1 1 1 0 0 0 0 1 1 0 0 1 0 0 0 0 1 2 1 0 1 0 0 0 1 2 1 1 1 1 0 2 0 2 2 0 1 0 0 1 1 2 1 1 1 0 1 1 0 0 1 2 0 1 1 0 1 0 0 1 1 1 1 1 1 0 4 1 1 1 0 0 1 3 0 1 0 2 0 1 2 0 0 0 0 1 0 0 0 1 0 1 1 1 0 1 0 0 1 0 1 0 0 0 0 1 1 0 0 0 0 2 1 1 3 1 1 0 1 1 1 0 1 0 0 3 0 0 0 0 0 1 1 0 0 0 0 0 0 0 0 0 1 0 2 0 1 0 2 0 1 0 0 2 0 0 2 1 1 1 1 0 0 1 0 0 1 0 1 1 1 2 0 0 1 0 2 1 0 0 2 1 0 1 0 2 1 1 1 1 0 1 1 1 0 1 1 0 1 0 2 0 0 0 0 0 0 1 0 2 1 0 1 1 0 1 0 0 1 0 1 1 0 0 0 2 1 0 0 1 1 1 0 0 0 1 1 2 1 0 0 1 2 0 0 0 4 1 2 0 2 0 2 2 1 1 1 2 4 0 1 0 2 1 0 5 2 2 1 2 3 0 0 2 0 1 1 0 1 0 2 0 0 1 0 1 2 0 0 0 1 1 2 1 3 0 0 0 2 0 0 2 1 0 0 0 0 2 0 1 0 1 1 0 1 2 1 1 0 1 1 1 1 0 1 0 0 0 1 1 1 2 0 0 1 1 0 1 2 0 0 1 2 0 0 0 0 0 0 2 1 0 0 2 0 0 0 0 0 2 0 0 1 1 2 1 1 1 4 0 1 3 3 2 2 1 0 2 0 1 1 1 0 0 0 1 1 2 2 0 0 1 1 1 0 0 1 0 0 1 1 1 0 1 0 0 1 0 0 0 0 0 1 0 0 0 0 0 1 1 0 1 2 0 2 1 0 0 0 0 0 2 0 0 0 0 0 0 1 0 3 0 1 0 0 0 1 0 0 0 1 0 0 0 0 0 1 1 0 0 1 0 0 1 1 0 0 4 0 0 0 0 1 1 1 0 2 0 3 1 0 1 0 2 1 1 2 0 1 0 3 0 1 0 1 0 1 0 0 1 0 0 1 1 0 0 0 0 1 0 1 0 1 0 1 0 1 0 0 1 0 1 1 0 0 0 0 0 0 2 2 2 0 0 0 1 0 0 0 1 0 1 1 0 0 2 0 0 1 0 0 0 2 0 1 0 0 1 1 1 0 0 0 0 1 0 0 0 0 0 0 0 0 0 1 0 0 1 1 1 0 0 0 1 0 0 0 0 0 1 1 0 1 0 0 0 0 0 0 0 0 0 0 0 0 0 0 0 1 0 2 1 0 2 1 0 0 1 0 0 0 0 0 1 0 2 0 1 0 1 2 3 0 0 0 0 2 0 1 0 0 0 1 1 0 0 0 0 0 3 1 0 1 1 0 0 0 0 2 0 0 1 1 0 0 1 0 0 0 1 2 0 0 0 2 0 0 0 1 1 0 0 0 2 0 1 0 2 0 0 0 1 0 0 1 0 1 0 1 0 1 0 1 0 0 0 0 0 0 0 0 1 0 0 1 1 1 0 1 0 1 1 1 0 0 0 1 2 1 1 1 1 0 1 1 1 0 0 1 2 0 0 1 0 1 3 0 1 0 0 1 1 0 1 2 1 0 1 2 1 1 0 2 1 1 0 0 1 0 0 0 0 0 1 0 1 0 0 0 0 1 0 0 0 0 0 0 0 1 0 1 0 0 0 0 1 0 0 0 0 1 0 0 0 1 0 1 1 0 0 0 1 1 1 0 1 0 0 0 0 0 0 0 0 1 0 1 0 0 1 1 0 2 1 0 1 0 0 0 0 0 0 2 1 1 0 1 0 1 0 2 0 0 0 1 0 1 1 0 1 1 0 1 0 0 1 1 1 1 0 2 0 2 0 2 2 0 2 1 1 2 0 3 0 0 0 1 0 0 0 1 0 1 0 0 1 1 0 1 0 0 0 1 1 0 1 2 1 1 2 1 1 1 1 1 1 1 0 3 1 0 2 2 0 2 2 2 1 0 1 2 1 2 0 0 0 0 0 0 1 0 0 0 0 0 0 0 0 0 0 1 0 0 0 0 0 1 1 2 1 0 0 1 1 0 1 0 0 0 0 0 1 1 0 1 0 0 0 1 1 0 0 0 0 0 0 1 0 0 1 0 1 0 0 1 0 1 0 2 0 1 0 0 0 0 2 0 2 1 0 1 0 1 0 0 0 0 0 1 0 1 0 1 1 1 0 1 0 1 1 2 3 0 0 0 3 1 1 1 0 0 1 0 0 1 0 0 1 0 1 0 0 1 0 0 0 1 1 2 0 0 0 1 0 1 3 1 1 2 0 0 0 1 0 1 2 1 2 3 2 0 1 0 1 0 0 0 1 3 1 1 2 2 0 2 1 0 0 2 2 1 1 1 1 3 1 1 0 0 1 2 1 1 1 0 0 0 0 0 2 1 0 0 0 0 1 0 2 1 0 2 2 1 1 0 0 2 2 1 0 2 0 1 1 0 1 2 0 2 2 0 0 0 0 0 0 1 1 0 2 0 0 1 0 1 0 1 1 2 1 0 1 2 1 0 2 1 1 1 1 1 1 2 0 0 2 3 0 0 0 1 3 0 1 2 0 2 0 0 1 1 1 1 0 2 1 0 2 1 2 1 1 0 2 1 0 0 0 1 0 1 1 1 1 0 0 0 3 0 1 0 1 0 1 0 3 1 0 0 3 0 2 1 1 0 0 0 1 0 1 1 1 1 1 0 2 0 0 0 1 1 0 0 1 0 0 1 1 0 0 0 1 1 0 0 0 1 0 0 0 1 0 0 1 0 0 0 0 0 0 2 2 1 1 1 2 0 0 0 0 0 2 2 1 1 2 0 0 1 0 2 0 2 0 3 2 2 3 1 3 1 0 0 3 1 0 0 0 0 2 0 0 0 1 1 2 2 1 0 2 1 1 1 0 2 2 1 1 2 1 2 3 0 1 1 1 0 0 0 0 0 1 1 1 1 0 1 1 0 0 0 0 1 0 1 0 0 1 0 2 3 2 0 3 0 0 1 4 0 0 1 2 0 0 1 1 3 0 0 2 1 0 0 1 1 1 0 0 0 0 3 0 3 0 0 2 1 1 0 0 2 0 1 0 1 1 3 0 0 1 4 0 0 0 1 0 0 0 1 0 0 1 1 0 2 1 0 0 0 2 0 2 1 0 0 1 1 1 1 1 1 0 1 0 0 2 0 1 1 0 0 2 0 0 0 1 0 3 1 1 3 1 1 1 0 1 0 1 2 0 2 1 0 0 1 1 0 0 3 3 0 0 0 1 0 1 0 1 0 1 2 0 0 0 2 1 2 1 1 0 1 1 0 0 1 0 1 0 1 1 0 1 0 0 0 1 1 1 0 0 1 1 2 0 2 0 1 1 0 0 0 0 0 0 2 0 1 2 0 2 0 1 0 1 2 0 0 2 0 0 0 1 2 3 1 4 0 0 1 2 2 3 0 1 0 2 2 1 0 0 0 0 2 2 0 2 3 0 2 2 1 0 1 2 2 0 0 1 0 0 0 0 0 1 3 1 1 1 1 2 1 2 1 0 2 1 0 2 0 1 0 0 1 0 1 1 1 1 1 0 0 1 2 2 1 0 2 3 1 1 1 3 1 1 2 1 0 0 0 1 2 1 1 0 3 0 0 2 1 1 0 2 2 1 0 0 0 0 0 2 1 0 1 1 0 1 0 0 1 0 3 1 0 0 4 0 1 0 1 0 1 1 1 0 1 2 0 0 1 2 0 1 2 0 0 0 0 1 0 1 0 1 1 1 2 1 1 3 0 0 0 0 0 0 0 1 2 1 1 1 0 0 1 1 2 4 2 0 0 0 2 0 0 1 1 1 1 1 0 1 0 2 0 2 0 1 0 1 1 0 0 0 0 0 1 1 0 0 0 0 0 0 0 1 0 3 1 0 1 0 3 0 0 2 0 0 3 2 1 1 0 1 0 2 1 0 0 0 0 0 1 0 1 1 1 1 2 0 2 1 5 1 2 1 1 3 1 3 1 0 3 0 1 1 1 1 1 1 1 0 1 1 2 1 3 1 0 2 0 0 1 0 1 1 1 0 1 1 2 1 1 1 2 0 1 0 1 1 2 0 2 0 1 1 1 1 1 0 0 0 1 1 1 1 0 1 0 2 1 0 0 2 0 1 1 0 1 1 2 0 3 0 3 1 1 1 2 2 0 0 1 0 1 0 1 0 1 0 1 0 1 2 1 2 1 0 2 3 0 2 1 0 0 1 1 0 1 0 0 0 1 0 1 0 1 0 1 0 0 0 2 1 1 0 1 1 1 1 0 0 2 0 1 2 4 0 0 1 0 1 2 1 0 0 0 1 0 1 1 0 1 2 0 0 0 1 0 0 1 0 0 2 1 0 0 1 1 1 1 1 1 0 2 0 0 0 0 1 2 0 1 1 1 3 1 0 1 0 1 3 1 1 0 0 2 1 3 1 0 1 0 1 3 0 1 0 1 0 0 1 2 0 2 0 0 0 0 2 1 0 2 0 0 0 2 4 1 2 1 0 1 1 0 1 0 0 0 0 0 1 0 1 0 0 0 2 0 0 0 0 0 2 0 0 0 0 2 0 1 1 2 1 0 0 2 1 2 0 0 0 0 1 1 0 2 1 0 0 0 0 0 0 0 0 0 1 1 1 0 2 0 1 2 1 1 0 0 0 3 0 3 1 2 1 1 3 0 0 0 0 1 0 2 0 2 0 1 0 1 0 2 1 0 0 1 0 0 1 1 0 0 0 3 1 0 0 0 1 1 1 1 1 3 0 0 3 1 3 1 1 1 0 2 2 2 1 1 1 2 1 1 1 1 1 2 2 0 1 1 1 2 0 2 1 4 0 0 2 1 1 3 1 2 0 4 0 0 1 2 0 0 0 1 3 3 0 0 0 2 2 1 1 1 4 0 1 1 1 4 0 0 0 1 1 2 1 0 2 1 1 1 1 1 1 0 2 2 2 1 0 1 0 2 3 1 0 2 1 1 2 0 1 1 1 1 0 1 1 1 1 1 1 3 1 2 2 1 0 1 0 0 0 0 2 1 0 0 0 1 1 0 1 1 1 1 1 1 0 3 0 3 1 2 0 0 1 0 1 2 1 0 1 1 1 1 1 0 0 0 1 0 0 0 0 0 3 0 1 0 1 2 0 0 0 1 1 1 1 2 0 0 2 1 1 1 2 1 1 0 0 0 0 1 1 1 2 0 1 1 0 0 1 1 0 2 1 1 0 0 2 1 2 0 1 1 1 0 2 2 0 0 1 1 0 0 1 0 2 3 0 0 0 0 2 1 0 1 2 1 1 0 0 0 0 0 0 0 1 0 1 0 1 0 0 1 1 1 0 1 0 0 1 0 0 0 1 0 0 2 1 0 0 1 3 0 2 1 1 1 0 1 0 1 1 1 2 0 0 1 0 1 0 1 0 0 3 0 2 0 2 0 0 0 1 0 0 0 0 0 1 1 1 1 0 0 0 2 0 0 0 0 1 0 0 0 2 1 0 1 1 1 0 1 0 1 0 0 0 1 1 0 1 3 0 0 1 1 1 0 0 0 0 1 1 1 1 1 1 2 3 1 1 0 0 0 1 0 0 1 1 0 0 0 0 1 0 1 0 2 1 2 1 0 0 0 2 1 0 0 1 1 0 0 0 0 0 0 1 1 0 1 0 1 0 0 0 0 0 0 0 2 1 1 3 0 1 2 0 1 2 1 2 0 1 1 0 1 0 0 0 0 1 0 1 2 0 1 1 1 0 0 1 0 2 0 1 1 0 1 0 0 0 0 1 2 1 1 1 2 0 1 1 1 1 2 3 0 1 2 4 0 0 2 0 1 2 0 1 1 0 1 0 0 1 1 0 1 0 1 1 1 1 0 3 2 0 0 2 1 0 0 1 0 0 1 1 0 1 1 1 2 0 0 0 0 0 2 0 1 1 1 1 1 2 1 2 1 1 1 2 2 0 0 1 0 2 1 0 0 0 3 1 2 0 0 0 3 0 0 0 0 0 0 1 1 1 0 0 0 1 1 0 0 1 1 0 0 1 1 0 0 1 0 0 1 2 0 0 0 0 0 1 2 0 1 1 1 0 0 2 0 0 1 2 1 1 0 0 1 1 3 0 1 0 0 1 0 0 1 1 1 1 0 0 0 1 1 1 1 1 0 1 1 1 1 0 2 0 0 2 0 0 0 2 1 1 0 0 1 1 3 0 1 1 1 0 0 1 2 1 1 1 1 2 2 1 0 3 4 0 2 1 4 1 0 2 1 1 1 4 0 0 0 1 1 3 2 0 1 3 0 1 2 1 1 2 1 0 1 3 0 1 3 0 1 2 1 1 1 1 4 0 0 1 3 1 1 2 1 2 1 0 3 2 2 0 1 1 1 1 0 2 2 0 1 0 1 1 0 0 1 1 2 2 1 0 0 0 1 2 2 1 1 2 0 2 1 0 0 2 1 1 0 0 0 0 2 2 0 1 3 0 1 2 2 1 1 0 1 0 3 1 1 2 4 2 2 1 2 0 1 1 2 1 0 0 1 0 0 1 0 0 2 0 1 0 0 0 1 0 0 0 0 1 1 0 1 1 0 1 1 0 0 0 0 1 1 0 2 2 0 1 4 2 1 1 1 0 1 0 1 1 0 0 0 1 2 1 1 1 1 1 0 1 1 0 0 2 1 2 2 2 1 2 1 2 0 1 2 0 1 1 2 2 1 1 2 1 1 0 3 1 1 2 1 1 1 2 2 1 1 1 0 0 1 2 0 1 2 0 0 1 1 2 0 1 1 2 1 2 3 3 1 1 2 2 1 0 1 1 1 0 1 2 2 2 0 2 0 2 0 0 3 0 1 2 2 1 1 2 2 0 0 0 0 1 1 2 0 1 0 2 1 1 2 0 1 2 0 0 1 0 0 0 0 2 2 1 1 0 0 0 2 1 2 0 1 1 2 1 1 3 0 0 1 2 0 0 1 1 2 1 1 2 1 2 2 0 3 0 0 1 2 0 3 1 1 0 1 2 0 1 0 1 1 1 0 0 1 1 1 1 0 1 1 0 1 1 0 0 1 3 1 0 4 1 2 3 2 1 0 0 0 2 3 2 2 1 1 3 1 1 3 0 0 0 2 0 0 3 0 1 1 0 2 1 0 0 1 0 0 1 0 1 0 0 0 1 0 0 0 0 0 1 1 0 0 2 1 0 2 0 1 1 1 1 0 1 1 0 3 0 2 0 0 1 0 2 1 0 0 1 2 1 2 2 0 0 1 2 0 1 0 0 2 0 0 2 0 2 2 0 3 0 2 0 0 3 0 0 0 0 0 2 2 0 5 0 3 2 4 3 1 3 2 2 0 0 0 0 0 1 4 0 1 2 1 0 0 1 1 1 2 0 0 3 1 0 0 1 0 0 0 1 0 0 1 0 0 4 2 2 2 3 0 1 1 2 1 0 0 1 0 0 1 2 1 0 1 0 3 0 1 1 3 1 2 0 2 0 2 1 3 1 2 0 1 0 1 2 1 0 1 1 0 0 2 1 0 0 1 1 4 1 2 2 0 0 1 0 2 0 1 1 3 1 1 0 3 0 1 2 2 1 3 2 1 0 0 1 0 0 3 1 0 0 4 1 0 0 1 2 0 0 2 3 1 1 0 1 1 1 0 2 1 0 1 3 2 2 2 3 0 1 0 1 1 1 0 1 0 0 0 1 0 1 1 0 0 0 0 2 1 0 1 1 0 1 1 1 0 2 2 1 1 0 1 1 2 0 0 0 0 1 0 2 0 0 2 1 1 1 0 0 0 2 0 0 1 1 1 0 0 1 0 2 0 1 2 1 0 1 0 2 0 0 1 1 0 1 0 0 0 1 0 0 2 2 2 2 0 0 0 3 0 0 1 2 2 1 1 0 2 2 1 2 1 1 1 3 0 1 0 1 1 0 2 1 0 0 0 3 1 0 0 0 2 0 1 0 1 4 1 0 1 1 3 0 1 0 2 2 0 1 0 1 0 0 3 0 2 0 1 0 2 1 3 1 0 0 1 0 0 0 0 1 4 1 1 0 1 0 1 1 1 2 1 0 2 1 1 0 1 0 1 0 0 0 0 1 0 0 2 0 1 2 1 1 3 0 0 1 1 0 1 0 1 2 0 1 0 3 3 2 0 0 0 1 0 1 1 2 4 0 2 1 1 0 3 0 1 1 3 1 2 2 1 1 1 1 0 1 1 1 0 2 2 2 0 2 1 0 1 1 4 1 1 0 4 0 2 1 0 1 1 1 2 3 3 1 2 0 1 1 0 2 1 1 2 0 1 2 1 1 0 2 0 1 1 0 0 1 1 0 1 2 1 1 2 1 1 1 0 1 1 1 1 2 1 2 0 1 2 0 2 0 1 2 2 1 1 2 2 0 3 1 0 2 2 0 0 0 0 2 1 0 2 0 0 0 0 0 2 0 1 1 0 1 1 1 1 0 0 0 3 0 0 2 0 0 1 1 0 1 1 0 0 0 0 1 1 2 0 1 3 0 0 1 4 0 1 0 1 1 2 1 0 2 1 1 2 1 1 2 1 0 0 0 2 0 1 1 1 3 0 0 2 0 0 0 2 0 1 0 2 2 1 1 1 1 0 1 3 1 0 1 1 0 2 0 0 3 0 1 1 1 0 2 0 1 2 1 0 2 0 0 0 2 1 0 0 0 1 1 1 0 0 1 2 1 1 0 2 0 0 0 2 0 1 1 1 3 0 1 3 0 0 1 1 1 0 0 0 3 0 3 0 0 0 1 2 0 0 0 2 0 0 1 0 1 0 0 0 1 1 0 1 0 0 0 1 2 0 1 2 0 0 1 0 0 0 1 2 0 0 0 0 1 0 0 2 0 0 2 1 0 1 1 0 3 0 2 0 0 0 3 1 1 0 1 0 0 1 1 0 2 2 1 0 0 2 0 0 0 1 1 0 0 1 1 1 1 1 0 0 1 0 1 3 0 0 2 0 0 2 1 2 0 0 0 0 1 1 0 1 1 1 0 1 0 4 0 0 1 0 3 1 0 0 0 0 1 0 0 2 1 1 1 0 1 1 0 0 2 1 0 0 3 1 1 1 2 1 0 1 2 0 1 2 1 1 2 0 0 2 0 2 1 0 1 1 1 1 0 0 0 1 0 1 1 1 0 0 0 0 0 1 2 1 1 0 1 1 0 1 1 0 1 0 2 0 1 0 1 0 1 2 0 3 0 3 2 0 0 1 1 2 0 0 0 2 0 1 1 0 2 1 0 2 0 1 0 1 1 0 1 0 1 1 1 2 0 0 1 1 3 2 0 1 0 0 1 1 0 0 2 0 1 1 0 0 1 0 0 1 1 0 1 0 2 1 0 0 0 0 0 0 0 0 0 0 1 1 0 1 0 0 0 0 0 0 0 0 0 0 0 0 0 1 0 0 0 1 0 0 0 0 0 0 2 1 0 0 0 2 0 0 0 1 1 1 0 1 0 0 0 0 0 1 0 1 0 1 0 0 1 1 0 0 0 0 1 0 1 0 0 2 1 1 1 0 0 0 0 0 0 1 0 0 1 0 0 0 1 0 0 0 0 0 0 1 0 1 1 1 2 0 0 1 0 0 0 0 0 0 0 1 0 1 1 0 0 0 0 2 0 0 0 0 2 0 0 0 0 1 0 0 1 0 1 1 1 2 0 2 0 0 0 0 1 1 0 1 1 1 1 2 0 0 0 2 0 0 1 0 1 1 0 2 0 0 0 0 0 1 1 2 0 0 1 0 2 1 1 0 0 2 1 1 1 2 1 3 0 1 0 1 0 1 1 0 3 1 0 0 0 0 2 2 1 0 0 1 0 1 0 1 1 0 0 0 0 0 1 2 1 0 1 1 0 1 1 1 1 1 0 0 0 0 1 1 1 0 0 0 1 1 0 1 1 1 2 1 0 0 1 1 4 0 0 1 1 1 1 3 1 0 0 0 0 0 2 2 0 0 0 0 3 2 0 1 2 0 0 1 1 0 1 1 0 2 2 0 0 0 2 0 1 1 1 0 0 0 0 0 0 2 0 1 0 1 0 1 0 2 1 1 1 0 3 0 0 0 1 0 1 1 0 0 0 0 1 1 0 0 1 0 0 1 1 1 1 0 1 2 0 2 0 0 0 1 1 1 2 1 0 2 1 2 1 1 2 3 0 0 3 0 1 0 1 1 3 2 0 1 1 2 0 2 0 2 2 1 2 0 0 1 0 0 1 0 2 0 1 1 2 1 1 3 1 1 1 2 0 1 0 3 0 2 2 3 2 3 1 0 1 1 0 1 0 1 2 0 0 0 1 0 0 0 2 0 1 2 1 2 0 2 0 0 2 2 0 1 1 1 0 0 2 2 2 1 0 0 1 0 0 1 0 0 1 0 1 2 0 0 1 0 0 0 1 1 1 1 0 1 0 2 2 1 0 1 1 0 1 1 2 1 2 1 0 1 0 2 1 0 1 0 1 1 0 1 2 0 1 0 1 0 0 2 1 0 2 2 2 0 1 0 1 1 0 0 1 3 1 1 0 1 0 2 0 0 0 2 3 0 3 1 0 2 0 1 1 1 1 0 1 0 1 0 1 2 1 1 0 0 2 2 1 0 0 0 3 1 0 2 2 1 0 3 1 0 0 1 2 0 0 0 3 1 1 2 1 0 1 1 2 1 0 1 0 1 1 2 1 0 2 3 1 3 0 0 1 1 0 0 0 1 0 0 0 0 0 3 0 0 1 1 0 2 1 2 2 1 1 2 1 0 2 1 1 3 1 2 1 3 2 0 2 1 1 1 1 1 2 3 1 1 2 0 2 1 1 1 0 1 1 1 0 3 1 0 1 0 1 1 0 0 2 1 3 0 0 0 2 0 2 0 0 0 1 1 0 0 0 0 2 0 0 0 0 2 1 0 1 0 0 2 0 0 1 1 0 1 0 1 0 0 1 0 2 0 0 0 3 1 2 0 1 1 0 2 1 0 0 0 1 1 0 1 1 1 2 2 0 2 1 0 1 2 1 1 1 0 1 1 3 0 2 0 1 1 2 1 2 0 0 1 1 0 1 1 3 3 1 1 0 0 1 1 0 1 0 1 1 0 1 1 4 0 0 1 0 0 1 1 3 1 1 0 2 1 0 0 1 2 1 0 1 2 3 0 0 2 1 0 2 1 2 0 1 0 0 1 2 1 0 0 1 1 0 1 1 1 1 1 1 1 1 0 1 3 1 2 0 2 1 0 2 1 1 0 0 3 1 2 3 0 0 0 1 1 0 0 2 2 1 1 1 1 1 0 1 2 0 0 1 0 1 2 1 1 0 0 1 2 0 0 1 0 1 1 0 4 1 1 2 0 2 0 0 0 1 0 3 0 0 1 1 1 1 1 1 0 1 0 0 0 0 2 1 0 1 0 0 1 0 2 1 1 1 2 3 0 1 1 0 1 1 2 1 0 0 0 2 2 0 1 0 0 0 1 0 0 2 0 0 0 1 1 1 0 0 1 0 1 1 1 0 0 1 1 1 0 0 0 1 0 0 2 0 0 1 0 3 0 1 0 1 0 1 3 1 1 1 1 1 1 0 1 0 1 1 1 0 1 0 0 0 0 0 1 1 1 1 1 2 2 0 1 0 0 1 3 0 0 2 0 0 0 0 0 0 0 1 1 0 1 0 0 0 1 1 2 1 0 1 1 2 3 1 2 0 1 0 2 3 1 1 1 1 0 3 0 1 0 0 0 0 3 0 0 1 0 3 0 2 1 1 0 0 0 1 1 1 0 0 2 1 1 0 0 0 0 0 0 1 0 0 2 0 0 0 2 0 0 2 1 1 0 0 1 1 1 0 0 0 0 1 1 0 0 0 0 1 0 0 1 1 3 0 2 1 1 1 3 0 0 1 2 1 0 2 1 3 2 0 0 0 0 0 2 0 3 2 0 0 1 0 2 4 2 3 0 2 1 2 2 0 1 2 1 3 3 0 1 1 3 1 0 2 0 2 2 3 1 2 1 0 1 3 3 0 1 0 0 0 0 3 1 0 2 2 1 0 0 1 1 2 0 0 1 0 1 1 0 1 1 3 0 0 3 1 0 1 0 0 0 0 1 0 1 0 1 2 0 0 0 2 0 2 0 1 2 0 1 0 0 0 1 0 2 0 1 1 0 0 2 2 0 2 2 1 1 0 2 0 1 3 0 0 2 0 2 0 4 1 1 0 1 1 1 2 2 0 1 4 2 0 0 1 1 1 0 0 3 0 3 1 2 1 0 1 1 1 1 0 0 1 0 2 0 2 0 0 2 1 1 0 2 1 1 0 0 0 0 0 2 1 0 1 0 0 0 0 0 0 0 2 1 1 1 1 1 1 1 1 0 0 0 2 0 0 0 1 0 0 0 1 0 0 0 0 0 0 1 1 0 1 3 1 2 1 1 0 3 2 2 0 1 1 2 0 0 2 0 2 0 0 0 2 1 2 0 3 2 0 0 0 0 1 1 0 2 0 1 3 2 1 1 2 1 0 2 0 2 2 1 0 2 1 0 1 2 0 1 1 0 1 0 1 1 1 2 1 0 0 0 0 1 0 0 0 0 0 2 2 1 1 2 0 1 0 2 1 1 1 3 1 2 1 2 2 2 1 2 3 3 1 2 1 3 2 2 0 4 0 0 1 3 2 0 0 0 3 2 0 0 0 1 1 1 2 0 4 3 1 0 0 1 2 0 2 2 1 2 1 2 3 0 0 1 1 0 1 2 0 2 2 2 1 0 0 0 1 0 2 0 0 3 0 1 3 1 1 1 1 0 1 1 4 0 3 3 2 2 2 4 1 0 3 1 1 0 1 2 2 2 2 1 1 2 0 1 1 0 2 2 2 0 0 0 1 1 3 1 0 0 2 3 0 1 1 0 2 2 0 1 0 0 1 0 2 1 1 0 0 0 1 0 1 1 2 1 5 1 1 2 2 0 1 1 1 2 0 0 1 1 0 2 0 2 2 0 1 4 0 2 0 1 1 2 0 0 0 1 0 1 1 0 1 0 0 2 1 0 2 1 1 2 0 0 2 2 0 1 1 1 3 1 1 0 1 0 0 2 2 0 0 1 1 2 0 0 1 2 1 2 1 0 1 1 1 1 1 1 0 0 1 1 1 0 1 0 2 1 2 0 1 2 1 0 1 0 0 0 1 0 0 2 1 1 2 1 1 1 3 1 0 0 2 3 0 1 1 1 2 1 0 2 0 2 1 1 0 2 2 2 3 0 1 2 3 2 1 2 0 0 1 0 3 0 0 0 0 1 1 0 0 2 0 0 2 1 0 3 0 2 1 1 2 0 0 2 2 1 3 0 2 0 1 2 2 2 1 0 2 2 1 0 3 0 1 2 1 0 1 1 0 0 1 0 0 0 2 2 0 0 0 0 1 1 0 0 2 1 1 2 2 0 0 0 1 1 1 0 1 2 2 0 1 1 0 2 0 1 3 2 1 0 1 0 0 1 0 0 0 2 0 0 1 0 2 2 0 2 0 0 1 1 2 2 1 1 3 3 3 0 0 1 3 2 2 0 0 2 2 0 1 2 2 0 2 1 1 0 4 1 2 2 4 0 0 2 0 0 0 2 1 2 5 1 3 0 1 1 4 0 3 0 4 2 1 0 1 0 0 1 1 1 2 1 2 2 1 3 1 3 1 0 2 0 4 2 3 1 0 0 1 1 2 1 1 4 0 1 0 0 0 0 1 1 3 1 0 0 2 1 1 2 1 2 1 1 1 1 1 3 0 3 1 3 1 1 0 1 2 0 0 0 3 0 4 3 0 0 0 1 0 2 2 2 0 1 3 1 3 1 2 0 1 0 1 1 1 2 1 3 0 0 0 3 0 0 2 3 2 2 3 0 0 1 0 1 0 0 0 0 0 0 0 0 2 0 1 0 1 0 2 1 0 1 2 2 0 1 0 2 0 0 1 2 1 0 1 0 2 1 0 0 2 0 2 1 1 0 1 3 0 0 1 2 0 1 0 1 0 1 0 0 0 0 2 2 0 0 0 1 0 1 2 0 2 1 2 0 0 0 0 1 1 1 0 0 1 0 1 0 2 0 2 0 0 0 0 0 0 0 2 0 0 1 2 1 0 1 0 0 2 0 0 0 1 0 1 0 0 0 0 0 1 0 0 0 2 0 1 1 1 0 1 0 3 1 1 1 0 1 0 1 2 2 2 0 1 0 0 0 2 0 0 2 0 1 1 0 1 0 0 0 1 0 4 2 2 1 1 2 0 1 1 1 1 0 0 0 0 1 0 1 1 1 2 2 0 1 1 1 1 2 0 0 4 1 0 2 2 0 3 0 1 1 2 2 2 0 1 0 3 1 1 0 1 1 2 2 1 1 1 2 0 0 3 1 2 0 1 2 0 3 1 1 1 0 4 2 1 1 0 1 1 2 0 1 1 1 0 0 2 0 2 0 0 0 0 1 2 0 0 1 1 2 0 2 0 3 0 3 1 1 0 4 0 3 1 2 1 1 4 0 1 1 3 3 2 0 2 0 2 2 0 2 2 1 1 2 1 1 1 0 3 0 1 0 2 0 2 0 1 2 1 1 1 0 3 1 1 1 1 1 3 0 1 0 1 1 2 0 3 0 3 0 1 1 3 1 2 2 1 2 0 2 2 0 5 0 3 2 1 1 1 1 0 2 1 2 1 2 2 1 2 2 0 0 3 2 1 3 1 0 2 0 2 4 2 0 2 3 2 1 1 4 1 1 1 1 2 0 1 0 0 0 1 0 0 2 0 1 1 0 0 0 1 0 2 0 2 2 1 0 1 0 1 1 1 1 0 0 0 0 1 1 2 1 2 0 0 0 0 0 1 0 1 2 3 0 0 1 0 1 1 0 1 1 1 1 1 0 0 2 1 0 2 1 0 0 1 1 1 1 0 2 0 0 1 1 2 0 1 1 2 1 1 0 0 2 0 0 0 2 1 0 2 1 3 3 1 1 1 1 0 0 1 1 0 0 1 2 1 3 0 1 0 0 0 2 2 1 1 1 0 0 4 1 0 3 0 2 2 0 0 1 2 2 1 3 0 2 0 0 1 1 2 1 3 0 0 1 0 2 2 2 0 0 2 0 0 0 0 0 0 1 1 1 0 1 0 2 0 2 1 0 0 0 1 1 1 4 1 0 0 0 1 0 0 0 3 2 0 0 1 0 1 0 0 0 0 0 2 1 2 0 0 0 1 1 0 2 1 1 1 0 1 2 1 2 2 1 1 1 4 0 2 2 0 1 0 1 1 2 1 1 0 1 0 1 1 3 0 1 2 1 0 0 1 1 0 1 0 
BTB PER SET COUNT: 0 1 1 1 0 1 0 0 0 0 1 0 1 0 1 1 1 0 0 1 0 1 1 2 0 2 0 1 1045 0 1 0 1 0 0 1 0 1 11 1 1 0 1 3 1 0 1 0 1 1 2 0 1 1 1 2 2 3 0 0 0 0 0 1 0 3 1 0 0 1 1 0 1 0 0 0 356 2 1 2 1 0 1 3 1 1 0 1 3 1 1 356 1 1 2 0 0 0 0 1 0 2 0 1 0 1 0 0 0 0 1 0 0 1 0 1 0 0 0 0 0 1 0 0 0 0 1 0 2 0 1 0 0 0 2 0 0 0 0 1 0 1 1 0 0 0 0 1 1 1 0 62 1 0 0 0 0 0 0 0 0 0 0 1 0 0 0 1 1378 1 0 0 1 0 0 0 0 1 0 0 1 0 2 0 0 1 0 0 0 0 2 0 2 2 0 2 1 0 0 1 0 1 0 0 0 0 0 0 0 0 0 2 1 1 1 0 0 2 0 0 0 0 1 1 1 0 0 0 0 1 1 0 0 0 0 2 1 0 0 0 1 0 1 0 3 2 0 1 1 0 1 0 0 1 0 2 3 0 0 0 2 1 2 0 3 3 1 0 1 0 0 0 0 1 0 1 0 0 0 1 1 0 0 0 1 1 0 0 0 0 0 0 0 0 0 0 6 2 0 0 2 0 1 0 1 0 2 0 0 0 1 0 0 0 2 0 1 1 0 1 0 0 0 0 0 0 1 1 0 0 0 0 1 0 1 0 0 0 2 0 3 0 0 0 0 0 1 0 0 0 0 1 0 2 1 0 1 0 2 0 0 3 1 0 2 2 0 0 0 0 1 0 0 0 0 1 0 0 1 0 0 0 0 2 0 0 1 0 0 0 0 0 1 0 0 0 0 0 0 1 1 1 0 0 0 0 1089 3 0 0 0 0 0 0 1 0 5 0 0 47 1 0 1 2 0 2 0 0 0 0 0 0 2 1 3 0 0 0 0 0 0 2 0 3 0 0 0 0 0 0 0 0 0 0 1 0 1 0 2 0 2 0 2 1 0 0 1 0 1 2 0 0 1 397 2 0 0 1 0 0 0 1 0 339 0 0 1 0 0 1 1 0 0 2 0 2 0 2 0 0 1 0 0 0 0 0 0 0 0 1 1 1 0 0 2 0 0 1 1 341 1 1 1 1 3 0 0 1 1 2 1 1 0 2 1 5 0 0 14 0 0 2 1 0 0 1 2 2 0 2 0 0 0 1 0 1 3 0 1 0 3 0 0 0 0 0 0 0 1 2 2 0 1 2 1 0 0 0 0 0 0 0 0 0 0 0 0 0 0 0 0 0 0 0 0 0 1 0 1 0 0 0 0 1 0 1 0 1 0 0 2 0 0 0 0 0 0 0 0 0 0 0 2 0 2 1 0 0 0 0 354 0 0 6 0 0 0 0 0 0 0 0 1 1 1 0 0 0 0 1 0 0 0 0 0 0 0 0 0 1 0 1 0 2 1 2 12 0 0 0 2 0 1 0 1 1 0 1 1 0 1 0 0 0 0 0 1 1089 1 0 0 0 0 1 0 1 1 1 0 0 0 1 0 1 0 0 0 0 0 0 1 1 0 0 1 0 1089 1 0 0 0 0 0 0 0 0 0 0 0 1 0 1 0 0 0 0 3 1 1 0 1 1 3 0 1 0 0 0 0 1 0 0 1 0 0 1 1 2 0 0 1 0 0 0 0 0 1 0 0 1 2 0 0 1 0 1 3 0 1 1 1 0 0 0 1 1 1 1 0 0 1 0 0 0 3 1 1 0 0 0 0 0 0 0 0 0 0 0 0 1 0 1 0 0 0 0 4 0 0 0 2 0 1 0 0 0 0 1 0 0 0 2 1 0 0 0 0 0 1 0 0 0 0 0 0 1 0 2 1 0 1 0 1 0 0 0 0 0 0 0 0 0 0 0 0 0 0 0 1 0 0 0 0 0 0 0 0 0 2 1 1 2 0 0 0 0 0 1 0 0 0 0 0 0 0 0 3 0 1 0 0 0 0 1 0 1 0 0 0 1 0 1 0 0 0 0 0 0 0 0 0 1 1 0 1 0 0 0 1 0 0 0 2 0 2 0 0 3 0 0 0 0 0 1 0 0 1 0 0 2 0 0 0 0 0 0 0 2 0 0 2 0 1 1 0 1 4 1 0 1 0 0 0 0 1 0 1 4 0 0 2 2 2 4 1 0 0 4 4 0 2 1 0 0 1 0 0 1 0 35 0 0 7 0 1 1 3 0 0 3 0 0 1738 0 0 0 1 1 0 1 1 4 8 3 0 0 0 2 1 1 6 2 1 1 1 0 0 1 1 0 0 0 0 2 0 1 3 0 2 3 0 1 0 3 1 1 2 2 2 0 0 0 1 0 3 0 1 1 2 1 1 3 0 3 0 0 3 0 0 1 0 0 0 1 1 2 2 2 1 2 0 3 1 2 2 0 2 0 0 1 0 2 1 0 2 1 1 1 0 5 0 2 1 4 1 1 1 0 4 3 1 1 1 1 0 2 1 2 0 1 1 1 1 0 2 1 0 0 2 0 0 0 1 0 1 0 0 1 1 3 0 2 1 0 1 0 1 1 0 0 0 0 0 4 0 1 1 1 0 1 0 0 1 0 3 0 0 1 2 12 2 1 0 4 5 0 3 0 0 0 0 2 1 0 1 0 4 87 1 0 0 3 2 1 0 2 0 0 0 2 1 5 0 3 0 1 0 0 2 6 696 0 4 0 0 0 2 1 2 0 2 1 1 1 0 0 0 2 1 1 0 1 2 2 2 0 2 1 0 2 4 1399 2 1 1 7 0 0 1 3 8 1 1 1 1 1 2 1 2 0 0 1 1 0 6 2 1 0 0 0 1 1 0 0 1 0 0 1 2 2 1 0 2 0 0 0 0 3 1 0 1 0 0 1 1 0 2 1 4 2 1 2 1 0 2 1 0 2 1 2 0 3 0 1 2 0 0 0 0 2 0 2 0 1 1 1 1 0 0 0 0 1 1 0 0 1 0 0 0 0 1 2 2 0 1 0 0 0 1 2 4 1 1 1 0 2 0 2 2 0 2 0 0 1 1 2 1 1 1 0 1 1 0 0 1 2 0 1 1 0 1 0 0 1 1 1 1 2 1 0 4 1 1 1 0 0 1 184 0 1 0 2 0 1 2 0 0 0 0 2 0 0 0 1 0 1 1 1 0 1 0 0 1 0 1 0 0 0 0 1 1 0 0 0 0 2 1 1 3 1 1 0 1 1 1 0 1 0 0 5 0 0 0 0 0 1 1 0 0 0 0 0 0 0 0 0 1 0 2 0 1 0 2 0 1 0 0 3 0 0 2 1 1 1 1 0 0 1 0 0 1 0 1 1 1 7 0 0 1 0 2 512 0 0 14 1 0 1 0 2 1 1 1 1 0 2 1 1 0 1 1 0 1 0 2 0 0 0 0 0 0 1 0 2 1 0 2 1 0 1 0 0 1 0 1 1 0 0 0 2 1 0 0 1 1 1 0 0 0 1 1 3 1 0 0 1 2 0 0 0 7 1 2 0 2 0 2 3 1 1 2 2 4 0 1 0 2 1 0 23 2 2 1 2 3 0 0 2 0 1 2 0 1 0 2 0 0 692 0 1 3 0 0 0 1 4 2 1 3 0 0 0 2 0 0 2 1 0 0 0 0 2 0 1 0 1 1 0 1 2 1 1 0 1 1 1 2 0 1 0 0 0 1 1 1 2 0 0 1 1 0 1 2 0 0 1 2 0 0 0 0 0 0 2 2 0 0 3 0 0 0 0 0 3 0 0 5 1 2 1 1 1 4 0 1 3 3 2 5 1 0 2 0 1 1 1 0 0 0 1 1 2 2 0 0 1 1 1 0 0 1 0 0 1089 121 2 0 1 0 0 4 0 0 0 0 0 1 0 0 0 0 0 1 1 0 1 2 0 3 1 0 0 0 0 0 2 0 0 0 0 0 0 1 0 3 0 1 0 0 0 1 0 0 0 1 0 0 0 0 0 1 1 0 0 2 0 0 1 1 0 0 7 0 0 0 0 1 1 1 0 2 0 621 1 0 1 0 2 1 1 75 0 1 0 3 0 1 0 1 0 1 0 0 1 0 0 1 1 0 0 0 0 1 0 1 0 1 0 1 0 1 0 0 1 0 1 1 0 0 0 0 0 0 2 166 2 0 0 0 1 0 0 0 2 0 1 1 0 0 2 0 0 3 0 0 0 2 0 1 0 0 2 1 1 0 0 0 0 1 0 0 0 0 0 0 0 0 0 1 0 0 1 1 1 0 0 0 1 0 0 0 0 0 1 1 0 76 0 0 0 0 0 0 0 0 0 0 0 0 0 0 0 1 0 2 1 0 2 1 0 0 1 0 0 0 0 0 1 0 6 0 1 0 1 2 3 0 0 0 0 59 0 1 0 0 0 1 1 0 0 0 0 0 3 1 0 2 1 0 0 0 0 2 0 0 1 2 0 0 3 0 0 0 1 2 0 0 0 2 0 0 0 1 1 0 0 0 2 0 1 0 5 0 0 0 1 0 0 1 0 1 0 2 0 1 0 2 0 0 0 0 0 0 0 0 1 0 0 1 1 1 0 1 0 1 1 1 0 0 0 1 2 1 1 1 3 0 1103 1 2 0 0 1 4 0 0 1 0 1 4 0 1 0 0 2720 1 0 1 2 1 0 1 2 1 1 0 2 1 1 0 0 1 0 0 0 0 0 1 0 1 0 0 0 0 1 0 0 0 0 0 0 0 1 0 1 0 0 0 0 1 0 0 0 0 1 0 0 0 1 0 1 1 0 0 0 1 1 1 0 1 0 0 0 0 0 0 0 0 1 0 1 0 0 1 1 0 2 9 0 1 0 0 0 0 0 0 2 2 1 0 1 0 1 0 2 0 0 0 1 0 1 2 0 2 1 0 1 0 0 1 1 1 2 0 2 0 2 0 2 3 0 2 1 1385 2 0 4 0 0 0 1 0 0 0 1 0 1 0 0 1 1 0 1 0 0 0 1 1 0 1 2 1 1 2 1 1 1 1 2 1 1 0 5 1 0 1104 2 0 2 3 2 2 0 1 5 1 2 0 0 0 0 0 0 1 0 0 0 0 0 0 0 0 0 0 2 0 0 0 0 0 1 1 2 1 0 0 1 1 0 1 0 0 0 0 0 1 1 0 3 0 0 0 1089 3 0 0 0 0 0 0 2 0 0 1 0 1 0 0 2 0 1 0 2 0 1 0 0 0 0 2 0 2 1 0 3 0 1 0 0 0 0 0 1 0 1 0 1 2 1 0 1 0 1 1 2 6 0 0 0 8 2 1 1 0 0 1 0 0 1 0 0 2 0 1 0 0 1 0 0 0 1 2 3 0 0 0 1 0 1 4 1 1 2 0 0 0 2 0 1 2 1 4 5 4 0 2 0 1 0 0 0 1 6 1 1 2 2 0 2 1 0 0 2 2 1 100 1 1 4 1 1 0 0 1 1046 11 1 1 0 0 0 0 0 2 1 0 0 0 0 4 0 2 692 0 115 2 2 1 0 0 4 3 1 0 4 0 1 1 0 3 3 0 2 2345 0 0 0 0 0 0 1 1 0 2 0 0 1 0 1 0 2 1 3 1 0 2 398 1 0 22 1 1 1 1 1 1 2 0 0 4 54 0 0 0 1 4 0 2 2 0 24 0 0 3 1 1 1 0 2 1 0 2 1 24 9 1 0 2 1 0 0 0 1 0 1 1 1 1 0 0 0 3 0 1 0 1 0 1 0 1091 1 0 0 3 0 2 1 1 0 0 0 1 0 2 2 1 1 1 0 2 0 0 0 2 1 0 0 1 0 0 1 1 0 0 0 1 1 0 0 0 1 0 0 0 1 0 0 1 0 0 0 0 0 0 2 2 1 1 1 50 0 0 0 0 0 2 2 1 1 2 0 0 1 0 3 0 2 0 4 2 2 3 1 279 1 0 0 5 364 0 0 0 0 2 0 0 0 2 1 355 2 1147 0 2 1 1 1 0 1619 1090 1 1 2 1 2 3 0 1 1 1 0 0 0 0 0 1 1 3 1 0 1 1 0 0 0 0 1 0 2 0 0 1 0 2 2184 3 0 5 0 0 1 5 0 0 1 2 0 0 2 1 3 0 0 3 2 0 0 1 2 3 0 0 0 0 4 0 5 0 0 2 1 1 0 0 2 0 1 0 1 2 6 0 0 1 4 0 0 0 1 0 0 0 1 0 0 1 1 0 2 1 0 0 0 2 0 4 1 0 0 3 2 1 1 2 411 0 1 0 0 4 0 2 1 0 0 3 0 0 0 2 0 3 2 1 3 1 1 1 0 1 0 1 2 0 2 1 0 0 1 1 0 0 3 3 0 0 0 1 0 1 0 1 0 1 3 0 0 0 2 1 2 2 1 0 1 2 0 0 1 0 1 0 2 1 0 1 0 0 0 1 1 1 0 0 1 1 2 0 3 0 1 1 0 0 0 0 0 0 2 0 1 1050 0 2 0 1 0 1 2 0 0 2 0 0 0 1 2 4 1 4 0 0 2 693 3 3 0 2 0 2 2 1 0 0 0 0 2 2 0 2 3 0 2 2 1 0 1 2 2 0 0 1 0 0 0 0 0 1 3 1 1 2 1 3 1 2 2 0 2 1 0 2 0 1 0 0 1 0 2 4 1 1 1 0 0 1 2 2 1 0 2 3 1 1 1 3 1 1 2 1 0 0 0 9 2 180 1 0 3 0 0 4 1 1 0 27 2 1 0 0 0 0 0 2 1 0 1 1 0 2 0 0 1 0 694 1 0 0 4 0 1 0 2 0 1 1 1 0 1 2 0 0 2 2 0 1 2 0 0 0 0 1 0 1 0 1 1 1 2 3 1 3 0 0 0 0 0 0 0 1 2 1 1 1 0 0 1 1 2 4 3 0 0 0 2 0 0 2 1 1 1 1 0 2 0 2 0 2 0 1 0 1 1 0 0 0 0 0 1 1 0 0 0 0 0 0 0 1 0 3 1 0 1 0 4 0 0 2 0 0 3 2 1 1 0 1 0 2 1 0 0 0 0 0 1 0 1 2 2 1 2 0 2 1 6 1 3 1 3 3 1 4 1 0 3 0 2 1 1 1 1 1 1 0 1 1 2 1 3 1 0 2 0 0 1 0 1 1 2 0 1 1 2 1 1 1 413 0 1 0 1 1 2 0 2 0 1 1 1 1 2 0 0 0 2 1 1 1 0 1 0 2 2 0 0 2 0 1 1 0 1 1 2 0 694 0 5 2 1 1 9 2 0 0 1 0 1 0 1 0 1 0 1 0 1 2 1 2 1 0 2 3 0 2 1 0 0 1 3 0 2 0 0 0 1 0 1 0 1 0 2 0 0 0 2 2 1 0 1 1 1 1 0 0 2 0 1 2 4 0 0 3 0 2 2 1 0 0 0 1 0 1 1 0 1 2 0 0 0 2 0 0 1 0 0 2 1 0 0 1 1 1 1 1 1 0 3 0 0 0 0 1 2 0 1 1 1 4 1 0 1 0 1 3 1 2 0 0 2 1 3 1 0 1 0 1 3 0 1 0 1 0 0 1 2 0 3 0 0 0 0 2 1 0 2 0 0 0 2 5 1 3 2 0 1 1 0 1 0 0 0 0 0 1 0 1 0 0 0 2 0 0 0 0 0 2 0 0 0 0 3 0 1 1 2 692 0 0 5 1 2 0 0 0 0 1 1 0 4 1 0 0 0 0 0 0 0 0 0 1 1 1 0 2 0 1 2 1 1 0 0 0 3 0 3 1 2 1 1 3 0 0 0 0 1 0 4 0 3 0 1 0 1 0 371 1 0 0 1 0 0 1 1 0 0 0 5 1 0 0 0 1 2 1 1 1 3 0 0 3 1 3 1 1 1 0 4 2 2 2 1 1 2 1 1 2 1 2 2 2 0 1 673 1 9 0 2 1 5 0 0 3 1 1 5 4 3 0 19036 0 0 1 2 0 0 0 1 3 4 0 0 0 2 2 1 1 1 4 0 1 1 1 6 0 0 0 1 1 2 1 0 3 1 1 1 1 1 1 0 2 4 2 2 0 1 0 2 3 1 0 3 1 1 2 0 1 1 1 1 0 1 1 1 1 1 3 4 1 3 2 1 0 1 0 0 0 0 2 692 0 0 0 1 2 0 2 1 1 1 4 4 0 6 0 3 1 3 0 0 1 0 1 19 1 0 1 1 1 2 1 0 0 0 1 0 0 0 0 0 4 0 1 0 3 2 0 0 0 1 1 1 1 2 0 0 2 1 1 1 2 1 1 0 0 0 0 1 1 1 142 0 1 1 0 0 1 1 0 2 1 1 0 0 2 1 2 0 1 1 1 0 3 2 0 0 1 1 0 0 1 0 2 3 0 0 0 0 2 1 0 1 2 1 1 0 0 0 0 0 0 0 1 0 1 0 1 0 0 1 1 1089 0 1 0 0 1 0 0 0 1 0 0 2 1 0 0 1 3 0 1091 1 1 1 0 1 0 2 1 1 2 0 0 1 0 1 0 1 0 0 3 0 3 0 2 0 0 0 1 0 0 0 0 0 1 1 1 1 0 0 0 2 0 0 0 0 1 0 0 0 2 2 0 1 1 1 0 1 0 1 0 0 0 1 1 0 1 3 0 0 1 1 1 0 0 0 0 1 1 1 2 1 1 2 3 1 1 0 0 0 1 0 0 2 3 0 0 0 0 1 0 1 0 2 2 2 370 0 0 0 2 1 0 0 1 1 0 0 0 0 0 0 2 1 0 1 0 1 0 0 0 0 0 0 0 2 1 1 3 0 1 3 0 1 2 1 2 0 1 1 0 1 0 0 0 0 1 0 1 5 0 1 1 1 0 0 1 0 2 0 1 1 0 1 0 0 0 0 5 2 1 1 1 3 0 1 1 1 1 2 3 0 1 2 4 0 0 2 0 1 2 0 1 15 0 1 0 0 1 1 0 1 0 1 1 1 4 0 5 2 0 0 2 2 0 0 1 0 0 1 1 0 1 1 1 2 0 0 0 0 0 3 0 1 1 1 1 2 2 1 2 1 2 1 2 3 0 0 1 0 2 1 0 0 0 3 1 2 0 0 0 3 0 0 0 0 0 0 1 1 1 0 0 0 1 1 0 0 1 1 0 0 1 1 0 0 1 0 0 1 2 0 0 0 0 0 2 3 0 1 1 1 0 0 2 0 0 1 2 1 1 0 0 2 1 4 0 1 0 0 1 0 0 1 1 1 1 0 0 0 1 1 1 1 1 0 1 1 1 1 0 2 0 0 2 0 0 0 2 1 1 0 0 1 1 4 0 1 1 1 0 0 1 2 1 1 1 1 2 2 1 0 254 4 0 3 1 4 1 0 2 1 1 1 4 0 0 0 1 1 3 2 0 1 4 0 1 3 2 1 3 1 0 1 4 0 1 4 0 1 2 1 2 1 1 6 0 0 1 3 1 1 2 1 2 1 0 3 4 3 0 2 1 1 1 0 2 356 0 1 0 1 1 0 0 1 1 2 3 1 0 0 0 1 2 2 1 1 2 0 2 1 0 0 2 1 1 0 0 0 0 2 3 0 1 3 0 1 2 2 1 1 0 1 0 694 1 2 2 4 2 2 1 3 0 1 1 2 1 0 0 1 0 0 1 0 0 2 0 1 0 0 0 1 0 0 0 0 1 1 0 2 3 0 1 1 0 0 0 0 1 1 0 2 40 0 1 279 3 1 4 1 0 1 0 1 1 0 0 0 1 3 1 1 1 1 1 0 1 2 0 0 2 1 2 2 2 1 2 1 2 0 1 2 0 1 1 2 2 1 1 2 1 1 0 4 1 1 2 1 1 1 1335 2 1 1 1 0 0 1 2 0 2 2 0 0 1 1 4 0 2 1 2 1 2 3 3 1 1 2 3 1 0 1 1 1 0 1 2 2 2 0 2 0 4 0 0 1344 0 2 2 693 1 1335 2 2 0 0 0 0 1334 1334 2 0 1 0 3 1 10 2 0 1 4 0 0 1 0 0 0 0 2 2 1 1 0 0 0 4 1 2 0 2 1 2 1 1 3 0 0 1 3 0 0 1 1 2 1 1 3 1 2 2 0 3 0 0 1 2 0 3 1 1 0 1 2 0 692 0 1 1 1 0 0 1 3 1 1 0 1 1 0 6 1 0 0 1 3 1 0 4 1 2 5 2 1 0 0 0 2 3 2 2 1 1 3 1 1 3 0 0 0 2 0 0 3 0 1 1 0 2 1 0 0 2 0 0 1 0 1 0 0 0 1 0 0 0 0 0 1 1 0 0 2 1 0 3 0 1 1 2 1 0 1 1 0 3 0 3 0 0 1 0 2 1 0 0 1 2 1 2 2 0 0 1 2 0 1 0 0 2 0 0 2 0 2 2 0 4 0 2 0 0 415 0 0 0 0 0 2 2 0 14 0 3 5 4 4 1 5 4 4 0 0 0 0 0 1 5 0 1 2 1 0 0 1 1 1 2 0 0 3 1 0 0 1 0 0 0 1 0 0 2 0 0 5 3 2 2 4 0 1 692 2 1 0 0 1 0 0 1 2 1 0 1 0 4 0 1 1 3 1 2 0 742 0 2 2 4 1 2 0 1 0 1 2 1 0 1 1 0 0 3 1 0 0 1 1 4 1 2 2 0 0 1 0 3 0 2 1 4 1 2 0 3 0 1 2 8755 2 3 2 1 0 0 1334 0 0 4 1 0 0 5 1334 0 0 1 3 0 0 2 1336 1 1 0 1 1 1 0 1335 1 0 1 3 3 2 3 3 0 2 0 1 1 1334 0 1 0 0 0 1 0 1 1334 0 0 0 0 2 1 0 1 1 0 1 1 1 0 2 2 1 693 0 1 1 2 0 0 0 0 1 0 2 0 0 3 1 1 673 0 0 0 2 0 0 1 3 1 0 0 1 0 2 0 1 2 1 0 1 0 2 0 0 1 1 0 4 0 0 0 2 0 0 2 2 4 3 0 0 0 51 0 0 1 3 2 1 1 0 2 2 1 2 1 1 2 5 0 3 0 1 1 0 2 1 0 0 0 3 3 0 0 0 2 0 1 0 1 97 1 0 1 1 3 0 6 0 2 2 0 1 0 1 0 0 3 0 2 0 1 0 2 1 3 1 0 0 1 0 0 0 0 3 6 1 1 0 1 0 1 1 1 4 1 0 5 1 1 0 1 0 2 0 0 0 0 1 0 0 3 0 1 2 1 3 3 0 0 2 1 0 1 0 1 3 0 1 0 4 3 2 0 0 0 1 0 1 1 2 7 0 2 1 1 0 3 0 1 1 3 1 2 357 1 1 35 1 0 1 1 1 0 693 3 2 0 3 2 0 1 1 6 1 1 0 8 0 2 1 0 412 1 1 2 3 7 1 2 0 1 1 0 252 1 2 2 0 1 2 1 1 0 2 0 1 1 0 0 1 3 0 1 2 1 1 2 1 1 2 0 1 1 2 1 2 1 9 0 1 2009 0 3 0 2 3 2 3 1 3 2 0 5 1 0 2 3 0 0 0 0 2 1 0 2 0 0 0 0 0 2 0 1 2 0 1 2 3 1 0 0 0 3 0 0 257 0 0 1 6 0 1 1 0 0 0 0 2 1 3 0 1 3 0 0 2 5 0 1 0 4 1 2 4 0 3 2 1 2 1 1 2 2 0 0 0 4 0 1 1 3 4 0 0 2 0 0 0 355 0 1 0 2 3 1 2 1 2 0 2 3 1 0 1 1 0 3 0 0 4 0 2 1 1 0 4 0 1 2 1 0 3 0 0 0 3 1 0 0 0 1 1 1 0 0 1 4 1 1 0 2 0 0 0 2 0 1 1 1 3 0 1 344 0 0 2 1 1 0 0 0 3 0 4 0 0 0 1 2 0 0 0 412 0 0 1 0 1 0 0 0 353 1 0 1 0 0 0 1 2 0 1 2 0 0 7 0 0 0 2 2 0 0 0 0 1 0 0 2 0 0 676 1 0 1 1 0 3 0 2 0 0 0 3 1 1 0 1 0 0 1 1 0 2 2 1 0 0 5 0 0 0 1 1 0 0 1 1 2 1 1 0 0 1 0 1 3 0 0 2 0 0 2 1 3 0 0 0 0 1089 1 0 1 1 7 0 1 0 5 0 0 1 0 3 1 0 0 0 0 1 0 0 2 1 1 95 0 1 1 0 0 55 1 0 0 24 1 7 16 10 1 0 1 31 0 1 13 1 1 4 0 0 57 0 2 1 0 1 1 1 1 0 0 0 1 0 1 1 1 0 0 0 0 0 1 2 1 1 0 1 1 0 1 1 0 1 0 2 0 2 0 1 0 1 3 0 3 0 3 2 0 0 2 1 3 0 0 0 2 0 1 1 0 2 1 0 2 0 1 0 1 1 0 2 0 1 1 3 8 0 0 1 2 3 2 0 1 0 0 2 1089 0 0 945 0 1 2 0 0 1 0 0 12 943 0 1 0 3 1 0 0 0 0 0 0 0 0 0 0 1 3 0 1 0 0 0 0 0 0 0 0 0 0 0 0 0 1 0 0 0 7 0 0 0 0 0 0 2 33 0 0 0 18 0 0 0 3 1 132 0 11 0 0 0 0 0 1 0 2 0 1 0 0 1 1 0 0 0 0 1 0 1 0 0 17 1 1 1 0 0 0 0 0 0 1 0 0 1 0 0 0 1 0 0 0 0 0 0 1 0 1 1 1 3 0 0 1 0 0 0 0 0 0 0 1 0 1 1 0 0 0 0 2 0 0 0 0 2 0 0 0 0 1 0 0 1 0 1 1 1 2 0 2 0 0 0 0 2 1 0 1 1 1 2 1102 0 0 0 1090 0 0 1 0 1 1 0 2 0 0 0 0 0 1 1 2 0 0 1 0 4003 1 1 0 0 5 2 1 3 2 1 4 0 1 0 1 0 1 1 0 3 1 0 0 0 0 2 2 1 0 0 2 0 1 0 1 1 0 0 0 0 0 1 2 1 0 1 1 0 1 2 1 1 1335 0 0 0 0 1 1 1335 0 0 0 2 411 0 1 1 1 2 2 0 0 1 1 414 0 0 10890 1334 1 1 4 16 0 0 0 0 0 2 2 0 0 0 0 3 2 0 1 2 0 0 1 1 0 1 1 0 2 2 0 0 0 2 0 1 1 1 0 0 0 0 0 0 2 0 1 0 1 0 1 0 2 2 7 1 0 3 0 0 0 1 0 1 7 0 0 0 0 1 1 0 0 1 0 0 694 1 1 1 0 2 2 0 2 0 0 0 1 1089 1 2 1 0 2 1 2 1 1 2 3 0 0 3 0 1 0 1 1 3 2 0 1 1 2 0 2 0 2 1104 1 3 0 0 1 0 0 1 0 2 0 1 1 4 1 1 3 1 1 1 693 0 1 0 3 0 2 2 4 2 3 1 0 1 1 0 1 0 1 2 0 0 0 1 0 0 0 2 0 1 2 1 2 0 2 0 0 2 2 0 1 1 1 0 0 2 2 2 1 0 0 1 0 0 1 0 0 1 0 1 2 0 0 2 0 0 0 1 1 1 1 0 1 0 2 2 1 0 1 1 0 1 1 2 1 2 1 0 1 0 2 1 0 1 0 1 1 0 1 2 0 2 0 1 0 0 2 1 0 2 1091 2 0 1 0 1 1 0 0 1 5 1 1 0 3 0 2 0 0 0 3 3 0 3 1 0 2 0 1 1 1 1 0 1 0 1 0 1 2 1 2 0 0 3 2 1 0 0 0 3 1 0 2 2 1 0 3 1 0 0 1 2 0 0 0 3 1 1 2 1 0 2 2 2 1 0 1 0 1 1 3 1 0 2 1051 1 4 0 0 3 1 0 0 0 1 0 0 0 0 0 3 0 0 1 1 0 3 1 2 2 2 1 2 1 0 2 1 1 3 1 2 1 3 2 0 2 1 1 1 1 1 2 695 1 1 2 0 2 1 1 2 0 6 1 1 0 3 1 0 1 0 1 1 0 0 2 1 3 0 0 0 2 0 2 0 0 0 1 1 0 0 0 0 3 0 0 0 0 2 1 0 1 0 0 3 0 0 1 2 0 1 0 1 0 0 1 0 14 0 0 0 4 1 3 0 1 1 0 2 3 0 0 0 1 2 0 1 1 1 3 2 0 2 1 0 1 2 1 1 1 0 1 1 11 0 3 0 1 1 3 1 2 0 0 1 1 0 1 1 3 3 1 2 0 0 1 2 0 1 0 1 1 0 1 1 4 0 0 1 0 0 1 1 3 1 2 0 2 1 0 0 1 2 3 0 1 3 3 0 0 2 1 0 2 1 2 0 1 0 0 2 2 1 0 0 1 1 0 1 1 2 1 1 1 1 2 0 1 3 1 2 0 3 1 0 2 1 1 0 0 3 1 2 3 0 0 0 1 1 0 0 2 2 1 1 1 1 3 0 1 3 0 0 1 0 1 2 1 1 0 0 1 2 0 0 1 0 1 6 0 5 1 1 2 0 2 0 0 0 1 0 5 0 0 1 1 2 1 2 1 0 1 0 0 0 0 2 1 0 1 0 0 1 0 2 1 1 1 2 3 0 1 1 0 4 1 2 1 0 0 0 2 2 0 1 0 0 0 2 0 0 2 0 0 0 1 1 3 0 0 1 0 1 2 1 0 0 2 1 1 0 0 0 1 0 0 2 0 0 1 0 3 0 2 0 1 0 1 3 1 1 1 3 1 2 0 1 0 1 1 1 0 1 0 0 0 0 0 1 1 1 1 1 2 2 0 1 0 0 1 3 0 0 2 0 0 0 0 0 0 0 1 1 0 4 0 0 0 90 1 4 1 0 1 1 2 3 2 5 0 1 0 3 6 2 1 1 1 0 3 0 1 0 0 0 0 3 0 0 1 0 3 0 2 1 1 0 0 0 1 3 1 0 0 3 1 1 0 0 0 0 0 0 1 0 0 2 0 0 0 2 0 0 2 1 1 0 0 1 14 1 0 0 0 0 1 2 0 0 0 0 1 0 0 1 2 4 0 2 1 1 1 3 0 0 1 2 1 0 2 1 6 2 0 0 0 0 0 2 0 4 6 0 0 1 0 2 4 2 3 0 3 1 2 5 0 1 2 1 3 3 0 1 1 3 1 0 2 0 3 2 5 1 2 1 0 4 3 3 0 1 0 0 0 0 5 1 0 2 12 2 0 0 3 1 2 0 0 1 0 1 3 0 1 1 3 0 0 3 2 0 1 0 0 0 0 1 0 1 0 1 2 0 0 0 2 0 2 0 1 2 0 1 0 0 0 1 0 2 0 2 1 0 0 2 4 0 2 3 1 1 0 3 0 1 3 0 0 3 0 2 0 4 2 1 0 2 1 1 3 2 0 1 4 2 0 0 1 1 1 0 0 4 0 3 1 2 1 0 1 1 4 1 0 0 1 0 45 0 2 0 0 2 1 1 0 3 1 1 0 0 0 0 0 2 1 0 1 0 0 0 0 0 0 0 2 1 1 1 1 1 1 2 1 0 0 0 2 0 0 0 1 0 0 0 1 0 0 0 0 0 0 1 1 0 1 3 1 2 1 1 0 3 2 8 0 2 1 2 0 0 132 0 3 0 0 0 2 1 2 0 4 2 0 0 0 0 1 2 0 2 0 2 4 2 1 1 2 1 0 2 0 2670 3 1 0 2 1 0 1 2 0 1 1 0 1 0 1 2 1 2 1 0 0 0 0 1 0 0 0 0 0 8 4 1 1 2 0 1 0 2 1 1 5 3 1 6 2 2 2 2 1 2 3 3 2 2 1 3 2 2 0 4 0 0 1 3 2 0 0 0 5 2 0 0 0 1 1 1 2 0 4 3 1 0 0 1 5 0 2 2 1 2 2 2 6 0 0 1 1 0 110 3 0 2 2 2 1 0 0 0 1 0 2 0 0 3 0 1 3 1 1 23 1 0 1 1 5 0 356 3 2 2 2 5 1 0 12 2 1 0 1 2 2 2 2 1 1 2 0 1 1 0 2 2 2 0 0 0 1 1 3 1 0 0 2 3 0 1 1 0 3 2 0 1 0 0 1 0 3 355 1 0 0 0 1 0 1 1 2 1 1350 1 1 2 2 0 1 1 1 2 0 0 2 1 0 2 0 2 2 0 251 674 0 2 0 1 1 2 0 0 0 1 0 1 1 0 1 0 0 2 8 0 2 1 1 2 0 0 2 2 0 1 1 1 3 1 1 0 1 0 0 1092 3 0 0 1 1 3 0 0 1 2 1 2 1 0 1 1 1 1 2 1 0 0 1 1 1 0 1 0 61 1 2 0 1 2 2 0 1 0 0 0 1 0 0 2 1 1 2 1 1 1 3 1 0 0 2 3 0 1 1 1 2 1 0 2 0 2 1 1 0 3 2 2 3 0 2 2 3 2 1 2 0 0 2 0 3 0 0 0 0 2 1 0 0 2 0 0 2 1 0 3 0 2 1 1 3 0 0 2 2 1 5 0 2 0 2 2 2 3 1 0 2 2 1 0 4 0 1 2 1 0 1 1 0 0 1 0 0 0 3 2 0 0 0 0 1 1 0 0 2 1 1 2 2 0 0 0 1 1 1 0 1 2 2 0 1 1 0 2 0 1 3 2 1 0 1 0 0 1 0 0 0 2 0 0 2 0 2 2 0 2 0 0 1 1 2 2 2 1 1091 3 3 0 0 1 7 5 2 0 0 2 2 0 1 2 2 0 2 1 1 0 13 1 2 3 6 0 0 2 0 0 0 3 1 2 885 692 3 0 1 1 11 0 3 0 8 3 2 0 1 0 0 5 1 1 2 1 2 2 1 3 1 343 1 0 10 0 112 2 3 1 0 0 1 1 2 6 1 4 0 1 0 0 0 0 1 1 5 1 0 0 2 1 1 9 1 3 1 1 1 1 1 3 0 3 2 5 1 1 0 1 4 0 0 0 3 0 5 3 0 0 0 1 0 2 2 3 0 1 58 1 3 1 3 0 1 0 1 1 1 2 1 6 0 0 0 5 0 0 2 3 3 2 11 0 0 1 0 1 0 0 0 0 0 0 0 0 2 0 1 0 1 0 2 1 0 1 2 2 0 1 0 2 0 0 1 2 1 0 1 0 3 1 0 0 3 0 2 1 1 0 1 3 0 0 1 2 0 1 0 1 0 1 0 0 0 0 693 2 0 0 0 2 0 1 2 0 2 1 3 0 0 0 0 1 1 1 0 0 1 0 1 0 3 0 2 0 0 0 0 0 0 0 2 0 0 199 2 1 0 1 0 0 2 0 0 0 1 0 1 0 0 0 0 0 1 0 0 0 2 0 1 1 2 0 1 0 3 1 1 1 0 1 0 1 2 2 2 0 1 0 0 0 2 0 0 2 0 1 1 0 1 0 0 0 2 0 5 2 2 2 1 2 0 1 1 2 1 0 0 0 0 1 0 1 1 1 2 3 0 1 1 1 1 2 0 0 4 2 0 4 2 0 3 0 1 1 2 2 2 0 1 0 3 1 2 0 1 1 2 3 1 1 1 2 0 0 8 1 4 0 1 2 0 3 2 2 1 0 5 2 1 253 0 1089 1 3 0 1 1 1 0 0 2 0 2 0 0 0 0 1 2 0 0 1 19 2 0 340 0 3 0 5 1 1 0 4 0 342 1 2 1 1 4 0 1 1 4 3 2 0 2 0 2 2 0 340 3 1 1 2 1 1 1 0 3 0 252 0 2 0 2 0 1 2 1 1 1 0 46 1 1 1 1 1 3 0 1 0 1 1 2 0 3 0 3 0 1 1 3 2 3 3 1 2 0 2 5 0 1010 0 3 2 1 1 1 1 0 2 1 2 1 2 3 1 2 2 0 0 5 44 1 3 2 0 3 0 2 5 693 0 2 4 2 1 1 4 1 1 1 1 2 0 1 0 0 0 1 0 0 2 0 1 1 0 0 0 2 0 2 0 2 2 1 0 1 0 1 1 1 1 0 0 0 0 1 1 3 1 2 0 0 0 0 0 1 0 1 2 3 0 0 2 0 1 1 0 1 1 1 1 1 0 0 26 1 0 2 1 0 0 1 1 1 1 0 2 0 0 1 1 2 0 1 1 2 1 1 0 0 2 0 0 0 2 1 0 676 1 3 3 1 1 1 1 0 0 1 2 0 0 1 3 1 3 0 1 0 0 0 2 2 2 1 1 0 0 4 1 0 3 0 2 3 0 0 1 2 2 1 3 0 3 0 0 1 1 674 2 3 0 0 1 0 2 2 2 0 0 2 0 0 0 0 0 0 1 1 1 0 1 0 2 0 8 1 0 0 0 1 1 1 4 1 0 0 0 412 0 0 0 3 2 0 0 1 0 1 0 0 0 0 0 2 1 2 0 0 0 1 1 0 2 1 2 1 0 1 3 1 2 2 1 1 1 4 0 2 2 0 1 0 1 1 2 1 1 0 1 0 1 1 3 0 1 2 1 0 0 1 6 0 1 0 
