
*** ChampSim Multicore Out-of-Order Simulator ***

Warmup Instructions: 50000000
Simulation Instructions: 50000000
Number of CPUs: 1
LLC sets: 2048
LLC ways: 16
Off-chip DRAM Size: 4096 MB Channels: 1 Width: 64-bit Data Rate: 6400 MT/s
CPU 0 runs ./micro_traces/srv290.trace.gz
.gz
ITLB has LRU replacement policy
DTLB has LRU replacement policy
STLB has LRU replacement policy
FDIP Prefetcher at L1I
L1I has LRU replacement policy
L1D has LRU replacement policy
Initialize SRRIP state for L2C
Initialize DRRIP state for LLC
Heartbeat_Variant_0 : 1334 0.325684 per_variant_size: 0 1334 0 0 0 0 0 0 0 
Heartbeat_Variant_1 : 2535 0.618896 per_variant_size: 0 534 2001 0 0 0 0 0 0 
Heartbeat_Variant_2 : 0 0 per_variant_size: 0 0 0 0 0 0 0 0 0 
Heartbeat_Variant_3 : 0 0 per_variant_size: 0 0 0 0 0 0 0 0 0 
Heartbeat_Variant_0_evicts 0 : 5860 1 : 521 2 : 0 3 : 0 
Heartbeat_Variant_1_evicts 0 : 450 1 : 0 2 : 0 3 : 0 
Heartbeat_Variant_2_evicts 0 : 0 1 : 0 2 : 0 3 : 0 
Heartbeat_Variant_3_evicts 0 : 0 1 : 0 2 : 0 3 : 0 
Heartbeat CPU 0 instructions: 10000001 cycles: 2797626 heartbeat IPC: 3.57446 cumulative IPC: 3.57446 (Simulation time: 0 hr 1 min 44 sec) 
Heartbeat_Variant_0 : 1366 0.333496 per_variant_size: 0 1366 0 0 0 0 0 0 0 
Heartbeat_Variant_1 : 2624 0.640625 per_variant_size: 0 487 2137 0 0 0 0 0 0 
Heartbeat_Variant_2 : 0 0 per_variant_size: 0 0 0 0 0 0 0 0 0 
Heartbeat_Variant_3 : 0 0 per_variant_size: 0 0 0 0 0 0 0 0 0 
Heartbeat_Variant_0_evicts 0 : 5743 1 : 334 2 : 0 3 : 0 
Heartbeat_Variant_1_evicts 0 : 333 1 : 0 2 : 0 3 : 0 
Heartbeat_Variant_2_evicts 0 : 0 1 : 0 2 : 0 3 : 0 
Heartbeat_Variant_3_evicts 0 : 0 1 : 0 2 : 0 3 : 0 
Heartbeat CPU 0 instructions: 20000002 cycles: 5594631 heartbeat IPC: 3.57525 cumulative IPC: 3.57486 (Simulation time: 0 hr 3 min 24 sec) 
Heartbeat_Variant_0 : 1374 0.335449 per_variant_size: 0 1374 0 0 0 0 0 0 0 
Heartbeat_Variant_1 : 2653 0.647705 per_variant_size: 0 454 2199 0 0 0 0 0 0 
Heartbeat_Variant_2 : 0 0 per_variant_size: 0 0 0 0 0 0 0 0 0 
Heartbeat_Variant_3 : 0 0 per_variant_size: 0 0 0 0 0 0 0 0 0 
Heartbeat_Variant_0_evicts 0 : 5728 1 : 491 2 : 0 3 : 0 
Heartbeat_Variant_1_evicts 0 : 491 1 : 0 2 : 0 3 : 0 
Heartbeat_Variant_2_evicts 0 : 0 1 : 0 2 : 0 3 : 0 
Heartbeat_Variant_3_evicts 0 : 0 1 : 0 2 : 0 3 : 0 
Heartbeat CPU 0 instructions: 30000002 cycles: 8390963 heartbeat IPC: 3.57611 cumulative IPC: 3.57528 (Simulation time: 0 hr 5 min 2 sec) 
Heartbeat_Variant_0 : 1377 0.336182 per_variant_size: 0 1377 0 0 0 0 0 0 0 
Heartbeat_Variant_1 : 2652 0.647461 per_variant_size: 0 442 2210 0 0 0 0 0 0 
Heartbeat_Variant_2 : 0 0 per_variant_size: 0 0 0 0 0 0 0 0 0 
Heartbeat_Variant_3 : 0 0 per_variant_size: 0 0 0 0 0 0 0 0 0 
Heartbeat_Variant_0_evicts 0 : 5637 1 : 33 2 : 0 3 : 0 
Heartbeat_Variant_1_evicts 0 : 31 1 : 0 2 : 0 3 : 0 
Heartbeat_Variant_2_evicts 0 : 0 1 : 0 2 : 0 3 : 0 
Heartbeat_Variant_3_evicts 0 : 0 1 : 0 2 : 0 3 : 0 
Heartbeat CPU 0 instructions: 40000003 cycles: 11188869 heartbeat IPC: 3.5741 cumulative IPC: 3.57498 (Simulation time: 0 hr 6 min 42 sec) 
Heartbeat_Variant_0 : 1388 0.338867 per_variant_size: 0 1388 0 0 0 0 0 0 0 
Heartbeat_Variant_1 : 2656 0.648438 per_variant_size: 0 424 2232 0 0 0 0 0 0 
Heartbeat_Variant_2 : 0 0 per_variant_size: 0 0 0 0 0 0 0 0 0 
Heartbeat_Variant_3 : 0 0 per_variant_size: 0 0 0 0 0 0 0 0 0 
Heartbeat_Variant_0_evicts 0 : 5742 1 : 226 2 : 0 3 : 0 
Heartbeat_Variant_1_evicts 0 : 220 1 : 0 2 : 0 3 : 0 
Heartbeat_Variant_2_evicts 0 : 0 1 : 0 2 : 0 3 : 0 
Heartbeat_Variant_3_evicts 0 : 0 1 : 0 2 : 0 3 : 0 
Heartbeat CPU 0 instructions: 50000003 cycles: 13986113 heartbeat IPC: 3.57495 cumulative IPC: 3.57498 (Simulation time: 0 hr 8 min 21 sec) 

Warmup complete CPU 0 instructions: 50000003 cycles: 13986113 (Simulation time: 0 hr 8 min 21 sec) 

Cycle: 20000000 FTQ IN: 58311449 FTQ occupancy: 19.958 DECODE IN: 58311324 DECODE occupancy: 52.1315 ROB IN: 58311264 ROB occupancy: 315.352 ROB OUT: 58310912
Heartbeat_Variant_0 : 1388 0.338867 per_variant_size: 0 1388 0 0 0 0 0 0 0 
Heartbeat_Variant_1 : 2657 0.648682 per_variant_size: 0 440 2217 0 0 0 0 0 0 
Heartbeat_Variant_2 : 0 0 per_variant_size: 0 0 0 0 0 0 0 0 0 
Heartbeat_Variant_3 : 0 0 per_variant_size: 0 0 0 0 0 0 0 0 0 
Heartbeat_Variant_0_evicts 0 : 5519 1 : 20 2 : 0 3 : 0 
Heartbeat_Variant_1_evicts 0 : 20 1 : 0 2 : 0 3 : 0 
Heartbeat_Variant_2_evicts 0 : 0 1 : 0 2 : 0 3 : 0 
Heartbeat_Variant_3_evicts 0 : 0 1 : 0 2 : 0 3 : 0 
Heartbeat CPU 0 instructions: 60000000 cycles: 21222328 heartbeat IPC: 1.38194 cumulative IPC: 1.38194 (Simulation time: 0 hr 10 min 11 sec) 
Heartbeat_Variant_0 : 1391 0.3396 per_variant_size: 0 1391 0 0 0 0 0 0 0 
Heartbeat_Variant_1 : 2658 0.648926 per_variant_size: 0 441 2217 0 0 0 0 0 0 
Heartbeat_Variant_2 : 0 0 per_variant_size: 0 0 0 0 0 0 0 0 0 
Heartbeat_Variant_3 : 0 0 per_variant_size: 0 0 0 0 0 0 0 0 0 
Heartbeat_Variant_0_evicts 0 : 5669 1 : 143 2 : 0 3 : 0 
Heartbeat_Variant_1_evicts 0 : 141 1 : 0 2 : 0 3 : 0 
Heartbeat_Variant_2_evicts 0 : 0 1 : 0 2 : 0 3 : 0 
Heartbeat_Variant_3_evicts 0 : 0 1 : 0 2 : 0 3 : 0 
Heartbeat CPU 0 instructions: 70000003 cycles: 28455010 heartbeat IPC: 1.38261 cumulative IPC: 1.38228 (Simulation time: 0 hr 12 min 0 sec) 
Cycle: 30000000 FTQ IN: 13530074 FTQ occupancy: 12.7165 DECODE IN: 13530189 DECODE occupancy: 32.8939 ROB IN: 13530191 ROB occupancy: 233.801 ROB OUT: 13530524
Heartbeat_Variant_0 : 1388 0.338867 per_variant_size: 0 1388 0 0 0 0 0 0 0 
Heartbeat_Variant_1 : 2679 0.654053 per_variant_size: 0 444 2235 0 0 0 0 0 0 
Heartbeat_Variant_2 : 0 0 per_variant_size: 0 0 0 0 0 0 0 0 0 
Heartbeat_Variant_3 : 0 0 per_variant_size: 0 0 0 0 0 0 0 0 0 
Heartbeat_Variant_0_evicts 0 : 5958 1 : 813 2 : 0 3 : 0 
Heartbeat_Variant_1_evicts 0 : 820 1 : 0 2 : 0 3 : 0 
Heartbeat_Variant_2_evicts 0 : 0 1 : 0 2 : 0 3 : 0 
Heartbeat_Variant_3_evicts 0 : 0 1 : 0 2 : 0 3 : 0 
Heartbeat CPU 0 instructions: 80000001 cycles: 35921168 heartbeat IPC: 1.33938 cumulative IPC: 1.36767 (Simulation time: 0 hr 13 min 48 sec) 
Cycle: 40000000 FTQ IN: 13812679 FTQ occupancy: 12.5583 DECODE IN: 13812597 DECODE occupancy: 32.6065 ROB IN: 13812595 ROB occupancy: 232.967 ROB OUT: 13812262
Heartbeat_Variant_0 : 1383 0.337646 per_variant_size: 0 1383 0 0 0 0 0 0 0 
Heartbeat_Variant_1 : 2684 0.655273 per_variant_size: 0 446 2238 0 0 0 0 0 0 
Heartbeat_Variant_2 : 0 0 per_variant_size: 0 0 0 0 0 0 0 0 0 
Heartbeat_Variant_3 : 0 0 per_variant_size: 0 0 0 0 0 0 0 0 0 
Heartbeat_Variant_0_evicts 0 : 5652 1 : 109 2 : 0 3 : 0 
Heartbeat_Variant_1_evicts 0 : 114 1 : 0 2 : 0 3 : 0 
Heartbeat_Variant_2_evicts 0 : 0 1 : 0 2 : 0 3 : 0 
Heartbeat_Variant_3_evicts 0 : 0 1 : 0 2 : 0 3 : 0 
Heartbeat CPU 0 instructions: 90000000 cycles: 43136530 heartbeat IPC: 1.38593 cumulative IPC: 1.37219 (Simulation time: 0 hr 15 min 35 sec) 
Cycle: 50000000 FTQ IN: 13720867 FTQ occupancy: 12.8251 DECODE IN: 13720820 DECODE occupancy: 33.0331 ROB IN: 13720820 ROB occupancy: 235.404 ROB OUT: 13720824
Heartbeat_Variant_0 : 1389 0.339111 per_variant_size: 0 1389 0 0 0 0 0 0 0 
Heartbeat_Variant_1 : 2682 0.654785 per_variant_size: 0 420 2262 0 0 0 0 0 0 
Heartbeat_Variant_2 : 0 0 per_variant_size: 0 0 0 0 0 0 0 0 0 
Heartbeat_Variant_3 : 0 0 per_variant_size: 0 0 0 0 0 0 0 0 0 
Heartbeat_Variant_0_evicts 0 : 5751 1 : 366 2 : 0 3 : 0 
Heartbeat_Variant_1_evicts 0 : 361 1 : 0 2 : 0 3 : 0 
Heartbeat_Variant_2_evicts 0 : 0 1 : 0 2 : 0 3 : 0 
Heartbeat_Variant_3_evicts 0 : 0 1 : 0 2 : 0 3 : 0 
Heartbeat CPU 0 instructions: 100000002 cycles: 50449674 heartbeat IPC: 1.3674 cumulative IPC: 1.37123 (Simulation time: 0 hr 17 min 24 sec) 
Finished CPU 0 instructions: 50000003 cycles: 36463562 cumulative IPC: 1.37123 (Simulation time: 0 hr 17 min 24 sec) 

ChampSim completed all CPUs

Region of Interest Statistics

CPU 0 cumulative IPC: 1.37123 instructions: 50000003 cycles: 36463562
 Fetch stage stalled: 54.3705  Sim cycles: 36463562 fetch stall cycle: 19825422
 Empty decode stage: 36.1841  Sim cycles: 36463562 fetch stall cycle: 13194003
ITLB TOTAL     ACCESS:    5857198  HIT:    5359795  MISS:     497403  HIT %:    91.5078  MISS %:    8.49217   MPKI: 9.94806
ITLB LOAD TRANSLATION INSTRUCTION	ACCESS:    5732341  HIT:    5234938  MISS:     497403  HIT %:    91.3229  MISS %:    8.67714  MPKI: 9.94806
ITLB TRANSLATION FROM L1D PREFETCHER INSTRUCTION	ACCESS:     124857  HIT:     124857  MISS:          0  HIT %:        100  MISS %:          0  MPKI: 0

ITLB AVERAGE MISS LATENCY: 9.07333 cycles
ITLB RQ	ACCESS:    7998961	FORWARD:          0	MERGED:    1692368	TO_CACHE:    6306593

DTLB TOTAL     ACCESS:    8978751  HIT:    8501721  MISS:     477030  HIT %:    94.6871  MISS %:    5.31288   MPKI: 9.5406
DTLB LOAD TRANSLATION DATA	ACCESS:    8978751  HIT:    8501721  MISS:     477030  HIT %:    94.6871  MISS %:    5.31288  MPKI: 9.5406

DTLB AVERAGE MISS LATENCY: 9.34951 cycles
DTLB RQ	ACCESS:   13357652	FORWARD:          0	MERGED:    4341791	TO_CACHE:    9015861

STLB TOTAL     ACCESS:    1219875  HIT:    1217399  MISS:       2476  HIT %:     99.797  MISS %:   0.202972   MPKI: 0.04952
STLB LOAD TRANSLATION INSTRUCTION	ACCESS:     497403  HIT:     496907  MISS:        496  HIT %:    99.9003  MISS %:  0.0997179  MPKI: 0.00992
STLB LOAD TRANSLATION DATA	ACCESS:     477027  HIT:     475069  MISS:       1958  HIT %:    99.5895  MISS %:   0.410459  MPKI: 0.03916
STLB TRANSLATION FROM L1D PREFETCHER DATA	ACCESS:     245445  HIT:     245423  MISS:         22  HIT %:     99.991  MISS %: 0.00896331  MPKI: 0.00044

STLB AVERAGE MISS LATENCY: 69.393 cycles
STLB RQ	ACCESS:    1337145	FORWARD:          0	MERGED:     117235	TO_CACHE:    1219910

STLB Hit, L1D data hit: 0
STLB Hit, L2C data hit: 0
STLB Hit, LLC data hit: 0
STLB Hit, LLC data miss: 0
STLB STLB hints to L2: 0
L1D TOTAL     ACCESS:   13102609  HIT:   11983034  MISS:    1119575  HIT %:    91.4553  MISS %:    8.54467   MPKI: 22.3915
L1D LOAD DATA	ACCESS:    6559629  HIT:    5820515  MISS:     739114  HIT %:    88.7324  MISS %:    11.2676  MPKI: 14.7823
L1D RFO DATA	ACCESS:    6218280  HIT:    5931688  MISS:     286592  HIT %:    95.3911  MISS %:    4.60886  MPKI: 5.73184
L1D PREFETCH DATA	ACCESS:     324700  HIT:     230831  MISS:      93869  HIT %:    71.0905  MISS %:    28.9095  MPKI: 1.87738

L1D PREFETCH  REQUESTED:     725748  ISSUED:     725748  USEFUL:      32562  USELESS:      68766
L1D USEFUL LOAD PREFETCHES:      32562 PREFETCH ISSUED TO LOWER LEVEL:     101375  ACCURACY: 32.1203
 TIMELY PREFETCHES:      32562 LATE PREFETCHES: 7472 DROPPED PREFETCHES: 8
L1D AVERAGE MISS LATENCY: 219742 cycles
L1D RQ	ACCESS:   10690383	FORWARD:          0	MERGED:    3931261	TO_CACHE:    6594909
L1D WQ	ACCESS:    6958667	FORWARD:     164537	MERGED:     195924	TO_CACHE:    6762743
L1D PQ	ACCESS:     363036	FORWARD:          0	MERGED:          0	TO_CACHE:     362712

L1D UNIQUE REGIONS ACCESSED: 0
L1D REGIONS CONFLICTS: 0
L1D Cross Page Prefetch Requests: 5753
L1D Same Page Prefetch Requests: 739770
L1D ROI Sum of L1D PQ occupancy: 4618419
L1D PREFETCHES PUSHED FROM L2C: 0
L1I TOTAL     ACCESS:    7169472  HIT:    4389083  MISS:    2780389  HIT %:    61.2191  MISS %:    38.7809   MPKI: 55.6078
L1I LOAD INSTRUCTION	ACCESS:    6501505  HIT:    3721116  MISS:    2780389  HIT %:    57.2347  MISS %:    42.7653  MPKI: 55.6078
L1I PREFETCH INSTRUCTION	ACCESS:     667967  HIT:     667967  MISS:          0  HIT %:        100  MISS %:          0  MPKI: 0

L1I PREFETCH  REQUESTED:    1600675  ISSUED:    1600675  USEFUL:          0  USELESS:          0
L1I USEFUL LOAD PREFETCHES:          0 PREFETCH ISSUED TO LOWER LEVEL:          0  ACCURACY: -nan
 TIMELY PREFETCHES:          0 LATE PREFETCHES: 0 DROPPED PREFETCHES: 0
L1I AVERAGE MISS LATENCY: 17.0989 cycles
L1I RQ	ACCESS:    9506791	FORWARD:          0	MERGED:    2681361	TO_CACHE:    6825430
L1I PQ	ACCESS:    1600675	FORWARD:          0	MERGED:     427144	TO_CACHE:    1173531

L1BTB TOTAL     ACCESS:    5670131  HIT:    2024318  MISS:    3645813  HIT %:    35.7014  MISS %:    64.2986   MPKI: 72.9163
L1BTB BRANCH_DIRECT_JUMP	ACCESS:     548470 HIT:     143255 MISS:     405215 AVERAGE STALL: 50.445 AVERAGE FETCH STALL: 15.9824 AVERAGE FETCH QUEUE STALL: 16.1566 AVERAGE DECODE STALL: 17.3919 AVERAGE EXECUTE STALL: 2.022e+15
L1BTB BRANCH_INDIRECT	ACCESS:     182715 HIT:      65675 MISS:     117040 AVERAGE STALL: 103.166 AVERAGE FETCH STALL: 11.0086 AVERAGE FETCH QUEUE STALL: 14.7706 AVERAGE DECODE STALL: 12.1174 AVERAGE EXECUTE STALL: 64.3067
L1BTB BRANCH_CONDITIONAL	ACCESS:    2698490 HIT:    1399867 MISS:    1298623 AVERAGE STALL: 52.5809 AVERAGE FETCH STALL: 21.8601 AVERAGE FETCH QUEUE STALL: 16.2058 AVERAGE DECODE STALL: 13.8179 AVERAGE EXECUTE STALL: 2.54087e+15
L1BTB BRANCH_DIRECT_CALL	ACCESS:     948226 HIT:     104983 MISS:     843243 AVERAGE STALL: 62.2545 AVERAGE FETCH STALL: 23.2245 AVERAGE FETCH QUEUE STALL: 19.807 AVERAGE DECODE STALL: 18.5467 AVERAGE EXECUTE STALL: 4.4622e+15
L1BTB BRANCH_INDIRECT_CALL	ACCESS:     172000 HIT:      20933 MISS:     151067 AVERAGE STALL: 130.958 AVERAGE FETCH STALL: 13.5478 AVERAGE FETCH QUEUE STALL: 12.5449 AVERAGE DECODE STALL: 9.56212 AVERAGE EXECUTE STALL: 94.8061
L1BTB BRANCH_RETURN	ACCESS:    1120230 HIT:     289605 MISS:     830625 AVERAGE STALL: 45.6083 AVERAGE FETCH STALL: 16.1609 AVERAGE FETCH QUEUE STALL: 4.19949 AVERAGE DECODE STALL: 5.70457 AVERAGE EXECUTE STALL: 4.18978e+14
L1BTB BRANCH_OTHER ACCESS:          0 HIT:          0 MISS:          0 AVERAGE STALL: -nan AVERAGE FETCH STALL: -nan AVERAGE FETCH QUEUE STALL: -nan AVERAGE DECODE STALL: -nan AVERAGE EXECUTE STALL: -nan
L1BTB TOTAL ROB OCCUPANCY AT BTB MISS: 2.81361

L2BTB TOTAL     ACCESS:    3620488  HIT:    3548008  MISS:      72480  HIT %:    97.9981  MISS %:    2.00194   MPKI: 1.4496
L2BTB BRANCH_DIRECT_JUMP	ACCESS:     401113 HIT:     396055 MISS:       5058 AVERAGE STALL: 50.445 AVERAGE FETCH STALL: 15.9824 AVERAGE FETCH QUEUE STALL: 16.1566 AVERAGE DECODE STALL: 17.3919 AVERAGE EXECUTE STALL: 2.022e+15
L2BTB BRANCH_INDIRECT	ACCESS:     106698 HIT:     103984 MISS:       2714 AVERAGE STALL: 103.166 AVERAGE FETCH STALL: 11.0086 AVERAGE FETCH QUEUE STALL: 14.7706 AVERAGE DECODE STALL: 12.1174 AVERAGE EXECUTE STALL: 64.3067
L2BTB BRANCH_CONDITIONAL	ACCESS:    1298623 HIT:    1291240 MISS:       7383 AVERAGE STALL: 52.5809 AVERAGE FETCH STALL: 21.8601 AVERAGE FETCH QUEUE STALL: 16.2058 AVERAGE DECODE STALL: 13.8179 AVERAGE EXECUTE STALL: 2.54087e+15
L2BTB BRANCH_DIRECT_CALL	ACCESS:     843243 HIT:     839058 MISS:       4185 AVERAGE STALL: 62.2545 AVERAGE FETCH STALL: 23.2245 AVERAGE FETCH QUEUE STALL: 19.807 AVERAGE DECODE STALL: 18.5467 AVERAGE EXECUTE STALL: 4.4622e+15
L2BTB BRANCH_INDIRECT_CALL	ACCESS:     141602 HIT:     131112 MISS:      10490 AVERAGE STALL: 130.958 AVERAGE FETCH STALL: 13.5478 AVERAGE FETCH QUEUE STALL: 12.5449 AVERAGE DECODE STALL: 9.56212 AVERAGE EXECUTE STALL: 94.8061
L2BTB BRANCH_RETURN	ACCESS:     829209 HIT:     786559 MISS:      42650 AVERAGE STALL: 45.6083 AVERAGE FETCH STALL: 16.1609 AVERAGE FETCH QUEUE STALL: 4.19949 AVERAGE DECODE STALL: 5.70457 AVERAGE EXECUTE STALL: 4.18978e+14
L2BTB BRANCH_OTHER ACCESS:          0 HIT:          0 MISS:          0 AVERAGE STALL: -nan AVERAGE FETCH STALL: -nan AVERAGE FETCH QUEUE STALL: -nan AVERAGE DECODE STALL: -nan AVERAGE EXECUTE STALL: -nan
L2BTB TOTAL ROB OCCUPANCY AT BTB MISS: 141.527

L2C TOTAL     ACCESS:    4517024  HIT:    4040149  MISS:     476875  HIT %:    89.4427  MISS %:    10.5573   MPKI: 9.5375
L2C LOAD INSTRUCTION	ACCESS:    2780389  HIT:    2528916  MISS:     251473  HIT %:    90.9555  MISS %:    9.04453  MPKI: 5.02946
L2C LOAD TRANSLATION INSTRUCTION	ACCESS:        537  HIT:        130  MISS:        407  HIT %:    24.2086  MISS %:    75.7914  MPKI: 0.00814
L2C LOAD DATA	ACCESS:     731603  HIT:     649148  MISS:      82455  HIT %:    88.7295  MISS %:    11.2705  MPKI: 1.6491
L2C RFO DATA	ACCESS:     286524  HIT:     236398  MISS:      50126  HIT %:    82.5055  MISS %:    17.4945  MPKI: 1.00252
L2C PREFETCH DATA	ACCESS:     190407  HIT:     113275  MISS:      77132  HIT %:     59.491  MISS %:     40.509  MPKI: 1.54264
L2C WRITEBACK DATA	ACCESS:     525456  HIT:     511650  MISS:      13806  HIT %:    97.3726  MISS %:    2.62743  MPKI: 0.27612
L2C LOAD TRANSLATION DATA	ACCESS:       2067  HIT:        602  MISS:       1465  HIT %:    29.1243  MISS %:    70.8757  MPKI: 0.0293
L2C TRANSLATION FROM L1D PREFETCHER DATA	ACCESS:         41  HIT:         30  MISS:         11  HIT %:    73.1707  MISS %:    26.8293  MPKI: 0.00022

L2C PREFETCH  REQUESTED:      97723  ISSUED:      97723  USEFUL:       8538  USELESS:      68920
L2C USEFUL LOAD PREFETCHES:       8538 PREFETCH ISSUED TO LOWER LEVEL:      77508  ACCURACY: 11.0156
 TIMELY PREFETCHES:       8538 LATE PREFETCHES: 376 DROPPED PREFETCHES: 0
L2C AVERAGE MISS LATENCY: 38.6696 cycles
L2C RQ	ACCESS:    3801235	FORWARD:          0	MERGED:          0	TO_CACHE:    3801163
L2C WQ	ACCESS:     525457	FORWARD:         72	MERGED:          0	TO_CACHE:     525457
L2C PQ	ACCESS:     199098	FORWARD:          0	MERGED:       3964	TO_CACHE:     195134

L2C Dense regions hint from L2: 0
PSCL5 TOTAL     ACCESS:       4968  HIT:       2484  MISS:       2484  HIT %:         50  MISS %:         50   MPKI: 0.04968
PSCL5 LOAD TRANSLATION INSTRUCTION	ACCESS:       4886  HIT:       2443  MISS:       2443  HIT %:         50  MISS %:         50  MPKI: 0.04886
PSCL5 TRANSLATION FROM L1D PREFETCHER INSTRUCTION	ACCESS:         82  HIT:         41  MISS:         41  HIT %:         50  MISS %:         50  MPKI: 0.00082


PSCL4 TOTAL     ACCESS:       3952  HIT:       1972  MISS:       1980  HIT %:    49.8988  MISS %:    50.1012   MPKI: 0.0396
PSCL4 LOAD TRANSLATION INSTRUCTION	ACCESS:       2153  HIT:       1936  MISS:        217  HIT %:     89.921  MISS %:     10.079  MPKI: 0.00434
PSCL4 TRANSLATION FROM L1D PREFETCHER INSTRUCTION	ACCESS:         36  HIT:         36  MISS:          0  HIT %:        100  MISS %:          0  MPKI: 0
PSCL4 LOAD TRANSLATION DATA	ACCESS:       1727  HIT:          0  MISS:       1727  HIT %:          0  MISS %:        100  MPKI: 0.03454
PSCL4 TRANSLATION FROM L1D PREFETCHER DATA	ACCESS:         36  HIT:          0  MISS:         36  HIT %:          0  MISS %:        100  MPKI: 0.00072


PSCL3 TOTAL     ACCESS:       4694  HIT:       2338  MISS:       2356  HIT %:    49.8083  MISS %:    50.1917   MPKI: 0.04712
PSCL3 LOAD TRANSLATION INSTRUCTION	ACCESS:       2598  HIT:       2308  MISS:        290  HIT %:    88.8376  MISS %:    11.1624  MPKI: 0.0058
PSCL3 TRANSLATION FROM L1D PREFETCHER INSTRUCTION	ACCESS:         30  HIT:         30  MISS:          0  HIT %:        100  MISS %:          0  MPKI: 0
PSCL3 LOAD TRANSLATION DATA	ACCESS:       2036  HIT:          0  MISS:       2036  HIT %:          0  MISS %:        100  MPKI: 0.04072
PSCL3 TRANSLATION FROM L1D PREFETCHER DATA	ACCESS:         30  HIT:          0  MISS:         30  HIT %:          0  MISS %:        100  MPKI: 0.0006


PSCL2 TOTAL     ACCESS:       4830  HIT:       2346  MISS:       2484  HIT %:    48.5714  MISS %:    51.4286   MPKI: 0.04968
PSCL2 LOAD TRANSLATION INSTRUCTION	ACCESS:       2806  HIT:       2305  MISS:        501  HIT %:    82.1454  MISS %:    17.8546  MPKI: 0.01002
PSCL2 TRANSLATION FROM L1D PREFETCHER INSTRUCTION	ACCESS:         41  HIT:         41  MISS:          0  HIT %:        100  MISS %:          0  MPKI: 0
PSCL2 LOAD TRANSLATION DATA	ACCESS:       1942  HIT:          0  MISS:       1942  HIT %:          0  MISS %:        100  MPKI: 0.03884
PSCL2 TRANSLATION FROM L1D PREFETCHER DATA	ACCESS:         41  HIT:          0  MISS:         41  HIT %:          0  MISS %:        100  MPKI: 0.00082


LLC TOTAL     ACCESS:     538415  HIT:     509615  MISS:      28800  HIT %:     94.651  MISS %:    5.34903   MPKI: 0.576
LLC LOAD INSTRUCTION	ACCESS:     251473  HIT:     250457  MISS:       1016  HIT %:     99.596  MISS %:    0.40402  MPKI: 0.02032
LLC LOAD TRANSLATION INSTRUCTION	ACCESS:        407  HIT:        380  MISS:         27  HIT %:    93.3661  MISS %:    6.63391  MPKI: 0.00054
LLC LOAD DATA	ACCESS:      82094  HIT:      78375  MISS:       3719  HIT %:    95.4698  MISS %:    4.53017  MPKI: 0.07438
LLC RFO DATA	ACCESS:      50105  HIT:      36896  MISS:      13209  HIT %:    73.6374  MISS %:    26.3626  MPKI: 0.26418
LLC PREFETCH DATA	ACCESS:      77508  HIT:      67083  MISS:      10425  HIT %:    86.5498  MISS %:    13.4502  MPKI: 0.2085
LLC WRITEBACK DATA	ACCESS:      75352  HIT:      75046  MISS:        306  HIT %:    99.5939  MISS %:   0.406094  MPKI: 0.00612
LLC LOAD TRANSLATION DATA	ACCESS:       1465  HIT:       1367  MISS:         98  HIT %:    93.3106  MISS %:    6.68942  MPKI: 0.00196
LLC TRANSLATION FROM L1D PREFETCHER DATA	ACCESS:         11  HIT:         11  MISS:          0  HIT %:        100  MISS %:          0  MPKI: 0

LLC AVERAGE MISS LATENCY: 156.641 cycles
LLC RQ	ACCESS:     385561	FORWARD:          0	MERGED:          0	TO_CACHE:     385555
LLC WQ	ACCESS:      75352	FORWARD:          6	MERGED:          0	TO_CACHE:      75352
LLC PQ	ACCESS:      77508	FORWARD:          0	MERGED:          0	TO_CACHE:      77508

LLC Dense regions hint to LLC: 0

RAW hits: 1945763
Loads Generated: 12636146
Loads sent to L1D: 10690383
Stores Generated: 6958655
Stores sent to L1D: 6958667
Major fault: 0 Minor fault: 2667
Allocated PAGES: 2667

stream: 
stream:times selected: 1172804
stream:pref_filled: 121442
stream:pref_useful: 23518
stream:pref_late: 6596
stream:misses: 6630
stream:misses_by_poll: 0

CS: 
CS:times selected: 174841
CS:pref_filled: 60186
CS:pref_useful: 36766
CS:pref_late: 6443
CS:misses: 15090
CS:misses_by_poll: 3

CPLX: 
CPLX:times selected: 996788
CPLX:pref_filled: 19452
CPLX:pref_useful: 4333
CPLX:pref_late: 2914
CPLX:misses: 90659
CPLX:misses_by_poll: 2

NL_L1: 
NL:times selected: 18909
NL:pref_filled: 529
NL:pref_useful: 247
NL:pref_late: 184
NL:misses: 1015
NL:misses_by_poll: 0

total selections: 2363342
total_filled: 93869
total_useful: 32562
total_late: 17488
total_polluted: 5
total_misses_after_warmup: 774395
conflicts: 5534336

test: 112187

DRAM Statistics
 CHANNEL 0
 RQ ROW_BUFFER_HIT:      10419  ROW_BUFFER_MISS:      18062
 DBUS_CONGESTED:         20
 WQ ROW_BUFFER_HIT:       1411  ROW_BUFFER_MISS:      12437  FULL:          0

 AVG_CONGESTED_CYCLE: 5

CPU 0 Branch Prediction Accuracy: 99.8093% MPKI: 0.34888 Average ROB Occupancy at Mispredict: 178.988
Branch types
NOT_BRANCH: 40851025 81.702%
BRANCH_DIRECT_JUMP: 548470 1.09694%
BRANCH_INDIRECT: 182715 0.36543%
BRANCH_CONDITIONAL: 6177339 12.3547%
BRANCH_DIRECT_CALL: 948226 1.89645%
BRANCH_INDIRECT_CALL: 172000 0.344%
BRANCH_RETURN: 1120230 2.24046%
BRANCH_OTHER: 0 0%

DRAM PAGES: 1048576
Allocated PAGES: 2667
Average_ROB_Occupancy: 235.896
Average_Decode_Occupancy: 32.9777
Average_FTQ_Occupancy: 12.7266
Indirect max targets: 14 Average targets: 1.17834
Branch_type:  BRANCH_DIRECT_JUMP:  Count Percentage: 1.92743 7.52513 3.55414 8.46639 2.23318 5.97311 0.939158 69.3815 
Branch_type:  BRANCH_INDIRECT:  Count Percentage: 11.7615 3.43333 2.51023 0 1.34006 9.67702 2.2774 69.0004 
Branch_type:  BRANCH_CONDITIONAL:  Count Percentage: 23.5925 3.96564 1.00874 4.94636 5.18407 4.88745 0.514105 55.9012 
Branch_type:  BRANCH_DIRECT_CALL:  Count Percentage: 0.258152 1.52803 0.963509 3.87698 1.90122 2.42371 0.775301 88.2731 
Branch_type:  BRANCH_INDIRECT_CALL:  Count Percentage: 9.57764 0 3.00272 8.70186 0 2.26946 1.28001 75.1683 
Branch_type:  BRANCH_RETURN:  Count Percentage: 7.32406 1.14618 0.71849 5.96049 6.17364 6.5073 1.36192 70.8079 
Branch_type:  BRANCH_DIRECT_JUMP:  Total Count: 21112 82426 38930 92736 24461 65426 10287 759965 
Branch_type:  BRANCH_INDIRECT:  Total Count: 42989 12549 9175 0 4898 35370 8324 252200 
Branch_type:  BRANCH_CONDITIONAL:  Total Count: 2912802 489611 124542 610693 640042 603420 63473 6901734 
Branch_type:  BRANCH_DIRECT_CALL:  Total Count: 4883 28903 18225 73334 35962 45845 14665 1669707 
Branch_type:  BRANCH_INDIRECT_CALL:  Total Count: 32863 0 10303 29858 0 7787 4392 257919 
Branch_type:  BRANCH_RETURN:  Total Count: 163731 25623 16062 133248 138013 145472 30446 1582926 
Number of unique branch instructions: 10852
Upper 32 bits: 
aaaa
ffff
ffff0000
Unique upper 32 bits: 3
Unique upper 36 bits: 3
Unique upper 40 bits: 5
Unique upper 44 bits: 32
Unique upper 48 bits: 159
Variant_0 : 1389 0.339111
Variant_1 : 2682 0.654785
Variant_2 : 0 0
Variant_3 : 0 0
Offset_3 4501
Offset_4 260
Offset_5 488
Offset_6 542
Offset_7 645
Offset_8 573
Offset_9 521
Offset_10 426
Offset_11 362
Offset_12 327
Offset_13 237
Offset_14 248
Offset_15 194
Offset_16 234
Offset_17 175
Offset_18 153
Offset_19 268
Offset_20 142
Offset_21 235
Offset_22 417
Offset_23 241
Offset_24 346
Offset_25 117
Offset_47 92
Offset_64 2
decode_dispatch_called: 25262506 69.2815
Dispatch_width: 0 13469264 53.3172 36.939
Dispatch_width: 1 951531 3.76657 2.60954
Dispatch_width: 2 826715 3.2725 2.26724
Dispatch_width: 3 497548 1.96951 1.36451
Dispatch_width: 4 5520072 21.8508 15.1386
Dispatch_width: 5 162146 0.641844 0.44468
Dispatch_width: 6 3835230 15.1815 10.518
Empty_decode_cycles: 11201056 30.7185
ROB_full_cycles: 8723004 23.9225
Starvation_cycles_per_kilo_instr: 239.053
Starvation_cycles_per_kilo_instr_3: 182.231
Starvation_cycles_per_kilo_instr_0: 159.473
Branch_type_1  (3,1)  (4,9)  (5,39)  (6,72)  (7,124)  (8,149)  (9,136)  (10,112)  (11,78)  (12,55)  (13,11)  (14,2)  (15,3)  (16,4)  (18,1)  (19,5)  (20,2)  (21,1)  (22,3)  (23,2)  (24,10)  (25,12) 
Branch_type_2  (3,1)  (4,1)  (5,1)  (8,4)  (9,4)  (10,1)  (12,1)  (13,1)  (14,1)  (16,3)  (17,2)  (20,2)  (21,2)  (23,5)  (24,1)  (47,41) 
Branch_type_3  (3,4499)  (4,250)  (5,444)  (6,454)  (7,492)  (8,353)  (9,285)  (10,172)  (11,145)  (12,62)  (13,10)  (64,2) 
Branch_type_4  (6,3)  (7,8)  (8,25)  (9,56)  (10,67)  (11,71)  (12,116)  (13,101)  (14,112)  (15,92)  (16,103)  (17,82)  (18,67)  (19,132)  (20,72)  (21,124)  (22,222)  (23,136)  (24,201)  (25,101) 
Branch_type_5  (8,3)  (9,1)  (10,4)  (11,6)  (12,3)  (13,14)  (14,16)  (15,11)  (16,22)  (17,11)  (18,23)  (19,14)  (20,11)  (21,13)  (22,43)  (23,26)  (24,38) 
Branch_type_6  (5,4)  (6,13)  (7,21)  (8,39)  (9,39)  (10,70)  (11,62)  (12,90)  (13,100)  (14,117)  (15,88)  (16,102)  (17,80)  (18,62)  (19,117)  (20,55)  (21,95)  (22,149)  (23,72)  (24,96)  (25,4)  (47,51) 
Unique trigger count: 
Variant_0_evicts_0 : 0
Variant_0_evicts_1 : 0
Variant_0_evicts_2 : 0
Variant_0_evicts_3 : 0
Variant_1_evicts_0 : 0
Variant_1_evicts_1 : 0
Variant_1_evicts_2 : 0
Variant_1_evicts_3 : 0
Variant_2_evicts_0 : 0
Variant_2_evicts_1 : 0
Variant_2_evicts_2 : 0
Variant_2_evicts_3 : 0
Variant_3_evicts_0 : 0
Variant_3_evicts_1 : 0
Variant_3_evicts_2 : 0
Variant_3_evicts_3 : 0
BTB PER SET UNIQUE ADDR: 13 13 10 15 17 8 8 13 10 17 14 14 11 14 15 10 17 14 15 13 9 16 13 18 13 14 11 14 12 13 17 16 19 10 10 14 13 11 10 12 13 14 14 14 13 12 17 10 13 12 19 13 16 11 10 8 13 9 10 17 11 12 11 13 15 15 13 13 18 15 12 13 16 13 10 10 11 14 14 19 16 11 13 16 15 16 20 11 10 16 12 8 8 15 6 13 9 11 16 15 17 14 12 12 12 11 10 13 9 9 8 20 10 13 12 11 16 15 14 8 17 11 9 13 14 10 11 18 18 9 10 18 11 17 11 13 13 11 11 19 11 13 12 13 12 16 16 11 6 16 16 15 11 13 11 15 11 11 15 13 15 14 16 14 11 17 15 10 18 15 12 17 10 14 14 10 11 11 15 11 7 11 14 17 13 17 5 12 10 15 11 12 13 14 14 9 10 14 10 9 11 14 8 10 9 11 16 10 11 14 6 18 12 16 8 16 11 19 9 15 7 17 10 13 7 12 15 15 8 13 12 7 17 13 7 14 16 17 14 12 16 18 18 17 16 16 9 13 14 14 18 17 18 9 11 19 10 12 13 11 13 11 5 12 15 10 9 11 12 16 12 14 12 7 7 11 15 15 15 16 13 18 11 8 13 13 10 15 13 10 11 12 14 18 10 13 11 13 15 13 9 9 9 23 14 17 15 11 18 16 6 17 8 17 11 9 13 10 14 21 12 17 10 10 10 23 11 13 15 10 13 17 10 13 16 15 9 13 9 20 11 12 8 17 15 15 15 22 11 10 18 12 13 17 14 15 9 10 10 10 14 17 11 18 10 18 8 14 20 10 16 9 11 12 10 16 14 15 15 17 13 10 9 12 10 11 15 14 13 12 12 13 13 20 13 12 10 9 12 18 10 10 14 15 20 13 17 11 11 15 14 11 15 15 12 15 12 17 16 15 13 18 15 20 15 13 16 14 9 13 16 12 12 11 15 17 17 13 15 14 16 16 14 14 16 11 11 17 16 16 14 19 13 15 21 17 20 15 12 16 10 14 12 16 21 11 12 14 13 17 18 16 17 20 16 18 16 18 9 14 13 17 14 14 9 15 16 16 17 13 11 16 14 10 11 13 17 14 12 16 14 17 12 16 15 8 10 20 16 12 11 14 18 12 15 11 11 15 14 8 12 12 12 10 12 14 23 8 11 15 19 13 16 13 12 13 11 17 15 10 13 13 12 15 15 17 10 19 13 14 17 19 14 12 12 18 12 14 19 16 13 16 9 17 9 13 14 17 15 16 14 12 19 14 8 13 19 20 10 11 14 11 9 11 13 16 17 16 14 13 11 14 15 15 12 12 12 8 11 14 12 11 9 9 14 13 16 18 10 11 13 12 15 12 6 23 11 14 15 15 17 17 11 12 11 19 11 21 14 11 12 20 15 14 13 15 16 13 12 15 13 14 14 17 10 15 15 14 15 12 9 16 13 15 15 12 10 14 14 9 14 7 19 19 11 13 12 12 11 11 11 13 13 13 21 13 11 17 11 15 9 17 13 14 15 11 13 14 13 14 14 14 11 8 10 13 11 15 8 18 7 15 11 19 10 18 14 9 10 11 7 11 12 13 9 14 17 15 12 11 11 12 9 11 12 12 11 14 11 11 18 14 15 11 9 18 12 14 17 12 12 14 16 20 17 15 15 11 11 13 14 12 12 14 12 14 19 12 11 10 14 8 11 11 10 17 12 16 10 18 15 19 12 10 16 12 13 12 13 17 10 16 14 13 15 13 14 13 13 10 12 10 15 11 14 12 11 12 19 16 16 14 20 20 16 13 16 17 15 13 16 21 16 10 14 17 20 14 8 18 14 14 12 13 13 9 12 16 12 17 17 16 15 15 14 13 15 10 14 14 16 14 10 17 13 14 14 16 10 12 15 14 10 15 11 15 16 14 13 18 9 11 15 10 20 10 17 10 15 6 13 14 19 10 14 10 9 12 9 16 11 9 11 13 13 14 18 10 14 14 19 7 14 12 18 14 15 16 9 8 11 12 14 16 8 10 10 14 12 19 15 13 10 16 13 16 14 11 14 11 12 15 10 15 11 10 9 12 8 12 16 17 13 12 14 15 14 17 16 16 7 17 11 15 9 13 17 18 12 14 10 15 9 15 11 13 11 16 16 13 16 17 14 17 12 14 18 12 13 15 14 15 11 12 15 11 18 16 16 17 16 17 10 14 14 21 18 16 13 17 14 14 15 14 12 10 13 14 15 14 17 16 9 14 14 11 11 14 11 15 15 20 8 11 10 15 9 13 9 13 14 18 11 13 
BTB PER SET COUNT: 224 22 1952 26 24 9 8 20 1485 34 19 109 20 433 23 11 1582 22 500 26 14 59 86 221 22 16 17 22 12 16 391 218 38 16 10 231 16 11 14 735 20 25 20 464 19 12 29 12 20 226 23 18 24 18 12 364 18 10 512 25 13 12 495 14 22 1040 21 841 29 20 795 68 20 20 12 11 13 17 25 30 33 18 272 21 23 68 26 13 18 23 36 832 491 570 9 16 458 1010 26 3982 28 36 14 388 3408 12 13 25 546 9 12 31 19 21 21 765 28 21 762 333 166 13 9 25 18 88 16 26 31 977 16 28 21 30 20 17 814 16 22 25 16 20 18 22 18 28 461 13 9 94 25 270 863 26 15 28 1002 16 130 17 23 186 28 14 40 26 20 11 24 987 17 28 12 27 19 12 14 14 501 712 8 13 429 20 17 51 5 13 106 1000 13 12 17 19 23 11 10 22 11 11 18 99 986 14 11 12 19 13 15 1627 6 28 15 26 12 427 13 32 2954 24 11 33 17 27 14 22 20 20 9 22 15 7 25 16 7 18 23 225 140 14 22 24 585 533 27 40 15 14 164 22 30 28 24 10 14 26 14 23 17 19 472 17 7 396 21 10 11 16 1586 32 14 228 522 10 7 18 21 16 19 21 25 28 118 9 13 19 14 931 19 12 12 18 19 259 10 20 1207 20 23 32 9 13 11 38 17 64 55 151 24 101 6 23 13 32 1055 273 21 18 18 38 18 4832 11 13 13 140 371 18 33 16 16 30 14 17 21 21 11 18 9 27 19 21 11 143 38 21 23 41 13 11 39 208 20 21 19 23 18 11 120 26 21 33 20 27 12 54 11 21 27 15 30 210 14 923 990 26 16 26 22 305 15 13 274 13 14 13 2277 22 17 20 14 24 23 30 17 23 11 11 134 1259 11 13 20 30 34 20 30 495 16 24 15 12 20 23 18 22 20 6501 223 24 34 28 34 40 20 18 852 20 18 437 22 15 15 14 23 25 28 34 22 18 24 27 25 19 1803 19 613 22 27 23 705 856 17 23 27 30 35 22 15 26 23 18 15 867 30 19 15113 22 23 25 25 25 23 34 24 23 19 29 10 18 19 24 19 22 965 27 24 28 22 23 16 28 495 394 16 18 34 31 22 23 33 24 18 137 25 8 13 33 23 17 22 21 1166 483 24 14 13 18 19 10 18 14 20 526 16 304 74 10 15 1758 35 20 32 27 13 20 17 92 22 13 15 17 17 21 20 24 16 28 24 599 25 26 1131 782 20 34 18 18 23 22 18 55 11 34 20 19 19 21 22 31 24 21 32 21 1481 16 29 747 16 17 29 26 16 2959 22 23 22 25 22 20 16 20 17 18 19 17 840 369 19 15 12 16 10 14 19 13 23 1079 13 15 21 1478 39 18 8 34 380 22 22 481 40 25 15 970 15 23 14 197 860 19 21 46 113 87 17 26 24 896 16 20 22 23 15 30 13 18 111 26 24 15 9 23 17 17 46 18 18 21 21 10 178 9 33 22 14213 16 21 428 1520 14 16 15 465 23 1019 21 22 27 19 25 13 24 448 28 382 11 16 18 23 26 14 20 15 10 2483 19 18 2377 8 35 13 26 500 29 16 374 22 14 14 16 364 26 982 16 9 105 806 20 26 21 17 1145 13 758 18 16 18 16 14 17 22 28 21 12 9 1886 17 21 166 14 316 22 623 64 27 26 56 12 15 13 1497 16 1033 1374 1490 15 30 1053 12 13 20 11 13 411 24 29 17 25 17 67 21 33 17 15 39 18 17 19 15 29 1987 26 779 22 25 21 20 17 15 14 37 17 18 19 26 18 20 13 29 70 23 20 104 285 20 16 33 22 24 65 23 2696 34 10 21 30 276 2476 11 28 20 21 21 17 20 11 21 21 26 25 31 24 21 27 32 1988 20 970 31 124 22 521 11 19 295 17 69 35 11 19 26 505 10 45 1002 23 122 24 28 21 976 291 27 14 23 14 21 14 23 7 176 45 27 13 25 12 9 16 2065 26 17 11 134 17 14 883 20 11 15 277 28 8 22 1270 25 17 28 27 19 12 20 18 17 292 11 18 20 18 124 34 83 822 32 28 15 27 15 25 22 15 18 988 467 23 11 15 12 18 8 25 23 23 23 19 20 30 22 29 23 36 8 27 17 17 11 504 39 28 17 15 16 73 1975 1782 12 17 451 27 22 860 192 20 224 23 17 21 1057 16 52 23 21 371 17 16 26 12 30 21 297 655 948 503 16 25 28 425 29 557 20 210 15 28 23 1236 16 15 17 1080 27 435 28 442 11 21 23 15 23 23 17 35 167 779 13 13 10 22 15 35 12 17 23 90 17 19 
To predecode: 0
Predecoding something: 0
Predecode request dropped: 0
sizeofblock_0 0
sizeofblock_1 56187
sizeofblock_2 89025
sizeofblock_3 0
sizeofblock_4 0
sizeofblock_5 0
sizeofblock_6 0
sizeofblock_7 0
sizeofblock_8 0
Variant_0 Correct: 1614827 Incorrect: 0 Accuracy: 1
Variant_1 Correct: 5743643 Incorrect: 0 Accuracy: 1
Variant_2 Correct: 0 Incorrect: 0 Accuracy: -nan
Variant_3 Correct: 0 Incorrect: 0 Accuracy: -nan
