
*** ChampSim Multicore Out-of-Order Simulator ***

Warmup Instructions: 50000000
Simulation Instructions: 50000000
Number of CPUs: 1
LLC sets: 2048
LLC ways: 16
Off-chip DRAM Size: 4096 MB Channels: 1 Width: 64-bit Data Rate: 6400 MT/s
CPU 0 runs ./micro_traces/srv389.trace.gz
.gz
ITLB has LRU replacement policy
DTLB has LRU replacement policy
STLB has LRU replacement policy
FDIP Prefetcher at L1I
L1I has LRU replacement policy
L1D has LRU replacement policy
Initialize SRRIP state for L2C
Initialize DRRIP state for LLC
Heartbeat_Variant_0 : 1379 0.33667 per_variant_size: 0 1379 0 0 0 0 0 0 0 
Heartbeat_Variant_1 : 2502 0.61084 per_variant_size: 0 308 2194 0 0 0 0 0 0 
Heartbeat_Variant_2 : 0 0 per_variant_size: 0 0 0 0 0 0 0 0 0 
Heartbeat_Variant_3 : 0 0 per_variant_size: 0 0 0 0 0 0 0 0 0 
Heartbeat_Variant_0_evicts 0 : 5543 1 : 71 2 : 0 3 : 0 
Heartbeat_Variant_1_evicts 0 : 59 1 : 0 2 : 0 3 : 0 
Heartbeat_Variant_2_evicts 0 : 0 1 : 0 2 : 0 3 : 0 
Heartbeat_Variant_3_evicts 0 : 0 1 : 0 2 : 0 3 : 0 
Heartbeat CPU 0 instructions: 10000003 cycles: 2794406 heartbeat IPC: 3.57858 cumulative IPC: 3.57858 (Simulation time: 0 hr 1 min 43 sec) 
Heartbeat_Variant_0 : 1405 0.343018 per_variant_size: 0 1405 0 0 0 0 0 0 0 
Heartbeat_Variant_1 : 2568 0.626953 per_variant_size: 0 288 2280 0 0 0 0 0 0 
Heartbeat_Variant_2 : 0 0 per_variant_size: 0 0 0 0 0 0 0 0 0 
Heartbeat_Variant_3 : 0 0 per_variant_size: 0 0 0 0 0 0 0 0 0 
Heartbeat_Variant_0_evicts 0 : 5502 1 : 65 2 : 0 3 : 0 
Heartbeat_Variant_1_evicts 0 : 61 1 : 0 2 : 0 3 : 0 
Heartbeat_Variant_2_evicts 0 : 0 1 : 0 2 : 0 3 : 0 
Heartbeat_Variant_3_evicts 0 : 0 1 : 0 2 : 0 3 : 0 
Heartbeat CPU 0 instructions: 20000003 cycles: 5589284 heartbeat IPC: 3.57797 cumulative IPC: 3.57828 (Simulation time: 0 hr 3 min 25 sec) 
Heartbeat_Variant_0 : 1406 0.343262 per_variant_size: 0 1406 0 0 0 0 0 0 0 
Heartbeat_Variant_1 : 2575 0.628662 per_variant_size: 0 281 2294 0 0 0 0 0 0 
Heartbeat_Variant_2 : 0 0 per_variant_size: 0 0 0 0 0 0 0 0 0 
Heartbeat_Variant_3 : 0 0 per_variant_size: 0 0 0 0 0 0 0 0 0 
Heartbeat_Variant_0_evicts 0 : 5497 1 : 7 2 : 0 3 : 0 
Heartbeat_Variant_1_evicts 0 : 7 1 : 0 2 : 0 3 : 0 
Heartbeat_Variant_2_evicts 0 : 0 1 : 0 2 : 0 3 : 0 
Heartbeat_Variant_3_evicts 0 : 0 1 : 0 2 : 0 3 : 0 
Heartbeat CPU 0 instructions: 30000000 cycles: 8384267 heartbeat IPC: 3.57784 cumulative IPC: 3.57813 (Simulation time: 0 hr 5 min 7 sec) 
Heartbeat_Variant_0 : 1425 0.3479 per_variant_size: 0 1425 0 0 0 0 0 0 0 
Heartbeat_Variant_1 : 2605 0.635986 per_variant_size: 0 248 2357 0 0 0 0 0 0 
Heartbeat_Variant_2 : 0 0 per_variant_size: 0 0 0 0 0 0 0 0 0 
Heartbeat_Variant_3 : 0 0 per_variant_size: 0 0 0 0 0 0 0 0 0 
Heartbeat_Variant_0_evicts 0 : 5519 1 : 74 2 : 0 3 : 0 
Heartbeat_Variant_1_evicts 0 : 73 1 : 0 2 : 0 3 : 0 
Heartbeat_Variant_2_evicts 0 : 0 1 : 0 2 : 0 3 : 0 
Heartbeat_Variant_3_evicts 0 : 0 1 : 0 2 : 0 3 : 0 
Heartbeat CPU 0 instructions: 40000003 cycles: 11178831 heartbeat IPC: 3.57838 cumulative IPC: 3.57819 (Simulation time: 0 hr 6 min 48 sec) 
Heartbeat_Variant_0 : 1429 0.348877 per_variant_size: 0 1429 0 0 0 0 0 0 0 
Heartbeat_Variant_1 : 2619 0.639404 per_variant_size: 0 234 2385 0 0 0 0 0 0 
Heartbeat_Variant_2 : 0 0 per_variant_size: 0 0 0 0 0 0 0 0 0 
Heartbeat_Variant_3 : 0 0 per_variant_size: 0 0 0 0 0 0 0 0 0 
Heartbeat_Variant_0_evicts 0 : 5500 1 : 63 2 : 0 3 : 0 
Heartbeat_Variant_1_evicts 0 : 64 1 : 0 2 : 0 3 : 0 
Heartbeat_Variant_2_evicts 0 : 0 1 : 0 2 : 0 3 : 0 
Heartbeat_Variant_3_evicts 0 : 0 1 : 0 2 : 0 3 : 0 
Heartbeat CPU 0 instructions: 50000000 cycles: 13973220 heartbeat IPC: 3.5786 cumulative IPC: 3.57827 (Simulation time: 0 hr 8 min 30 sec) 

Warmup complete CPU 0 instructions: 50000004 cycles: 13973221 (Simulation time: 0 hr 8 min 30 sec) 

*** Reached end of trace for Core: 0 Repeating trace: ./micro_traces/srv389.trace.gz
Cycle: 20000000 FTQ IN: 58219840 FTQ occupancy: 20.5376 DECODE IN: 58219769 DECODE occupancy: 53.1374 ROB IN: 58219709 ROB occupancy: 317.379 ROB OUT: 58219357
Heartbeat_Variant_0 : 1435 0.350342 per_variant_size: 0 1435 0 0 0 0 0 0 0 
Heartbeat_Variant_1 : 2639 0.644287 per_variant_size: 0 246 2393 0 0 0 0 0 0 
Heartbeat_Variant_2 : 0 0 per_variant_size: 0 0 0 0 0 0 0 0 0 
Heartbeat_Variant_3 : 0 0 per_variant_size: 0 0 0 0 0 0 0 0 0 
Heartbeat_Variant_0_evicts 0 : 5648 1 : 166 2 : 0 3 : 0 
Heartbeat_Variant_1_evicts 0 : 165 1 : 0 2 : 0 3 : 0 
Heartbeat_Variant_2_evicts 0 : 0 1 : 0 2 : 0 3 : 0 
Heartbeat_Variant_3_evicts 0 : 0 1 : 0 2 : 0 3 : 0 
Heartbeat CPU 0 instructions: 60000000 cycles: 21275591 heartbeat IPC: 1.36942 cumulative IPC: 1.36942 (Simulation time: 0 hr 10 min 31 sec) 
Heartbeat_Variant_0 : 1436 0.350586 per_variant_size: 0 1436 0 0 0 0 0 0 0 
Heartbeat_Variant_1 : 2644 0.645508 per_variant_size: 0 244 2400 0 0 0 0 0 0 
Heartbeat_Variant_2 : 0 0 per_variant_size: 0 0 0 0 0 0 0 0 0 
Heartbeat_Variant_3 : 0 0 per_variant_size: 0 0 0 0 0 0 0 0 0 
Heartbeat_Variant_0_evicts 0 : 5659 1 : 111 2 : 0 3 : 0 
Heartbeat_Variant_1_evicts 0 : 112 1 : 0 2 : 0 3 : 0 
Heartbeat_Variant_2_evicts 0 : 0 1 : 0 2 : 0 3 : 0 
Heartbeat_Variant_3_evicts 0 : 0 1 : 0 2 : 0 3 : 0 
Heartbeat CPU 0 instructions: 70000002 cycles: 28498315 heartbeat IPC: 1.38452 cumulative IPC: 1.37693 (Simulation time: 0 hr 12 min 33 sec) 
Cycle: 30000000 FTQ IN: 13892781 FTQ occupancy: 15.0139 DECODE IN: 13892775 DECODE occupancy: 38.0323 ROB IN: 13892833 ROB occupancy: 250.526 ROB OUT: 13893185
Heartbeat_Variant_0 : 1434 0.350098 per_variant_size: 0 1434 0 0 0 0 0 0 0 
Heartbeat_Variant_1 : 2647 0.64624 per_variant_size: 0 255 2392 0 0 0 0 0 0 
Heartbeat_Variant_2 : 0 0 per_variant_size: 0 0 0 0 0 0 0 0 0 
Heartbeat_Variant_3 : 0 0 per_variant_size: 0 0 0 0 0 0 0 0 0 
Heartbeat_Variant_0_evicts 0 : 5483 1 : 14 2 : 0 3 : 0 
Heartbeat_Variant_1_evicts 0 : 17 1 : 0 2 : 0 3 : 0 
Heartbeat_Variant_2_evicts 0 : 0 1 : 0 2 : 0 3 : 0 
Heartbeat_Variant_3_evicts 0 : 0 1 : 0 2 : 0 3 : 0 
Heartbeat CPU 0 instructions: 80000002 cycles: 35613621 heartbeat IPC: 1.40542 cumulative IPC: 1.3863 (Simulation time: 0 hr 14 min 34 sec) 
Cycle: 40000000 FTQ IN: 14072358 FTQ occupancy: 15.1234 DECODE IN: 14072339 DECODE occupancy: 38.6905 ROB IN: 14072281 ROB occupancy: 253.278 ROB OUT: 14071933
Heartbeat_Variant_0 : 1436 0.350586 per_variant_size: 0 1436 0 0 0 0 0 0 0 
Heartbeat_Variant_1 : 2645 0.645752 per_variant_size: 0 246 2399 0 0 0 0 0 0 
Heartbeat_Variant_2 : 0 0 per_variant_size: 0 0 0 0 0 0 0 0 0 
Heartbeat_Variant_3 : 0 0 per_variant_size: 0 0 0 0 0 0 0 0 0 
Heartbeat_Variant_0_evicts 0 : 5544 1 : 21 2 : 0 3 : 0 
Heartbeat_Variant_1_evicts 0 : 19 1 : 0 2 : 0 3 : 0 
Heartbeat_Variant_2_evicts 0 : 0 1 : 0 2 : 0 3 : 0 
Heartbeat_Variant_3_evicts 0 : 0 1 : 0 2 : 0 3 : 0 
Heartbeat CPU 0 instructions: 90000001 cycles: 42789105 heartbeat IPC: 1.39363 cumulative IPC: 1.38812 (Simulation time: 0 hr 16 min 37 sec) 
Heartbeat_Variant_0 : 1443 0.352295 per_variant_size: 0 1443 0 0 0 0 0 0 0 
Heartbeat_Variant_1 : 2640 0.644531 per_variant_size: 0 223 2417 0 0 0 0 0 0 
Heartbeat_Variant_2 : 0 0 per_variant_size: 0 0 0 0 0 0 0 0 0 
Heartbeat_Variant_3 : 0 0 per_variant_size: 0 0 0 0 0 0 0 0 0 
Heartbeat_Variant_0_evicts 0 : 5555 1 : 175 2 : 0 3 : 0 
Heartbeat_Variant_1_evicts 0 : 169 1 : 0 2 : 0 3 : 0 
Heartbeat_Variant_2_evicts 0 : 0 1 : 0 2 : 0 3 : 0 
Heartbeat_Variant_3_evicts 0 : 0 1 : 0 2 : 0 3 : 0 
Heartbeat CPU 0 instructions: 100000001 cycles: 49936121 heartbeat IPC: 1.39919 cumulative IPC: 1.39032 (Simulation time: 0 hr 18 min 30 sec) 
Finished CPU 0 instructions: 50000001 cycles: 35962901 cumulative IPC: 1.39032 (Simulation time: 0 hr 18 min 30 sec) 

ChampSim completed all CPUs

Region of Interest Statistics

CPU 0 cumulative IPC: 1.39032 instructions: 50000001 cycles: 35962901
 Fetch stage stalled: 45.56  Sim cycles: 35962901 fetch stall cycle: 16384680
 Empty decode stage: 25.7812  Sim cycles: 35962901 fetch stall cycle: 9271657
ITLB TOTAL     ACCESS:    5837144  HIT:    5346512  MISS:     490632  HIT %:    91.5947  MISS %:    8.40534   MPKI: 9.81264
ITLB LOAD TRANSLATION INSTRUCTION	ACCESS:    5700534  HIT:    5209902  MISS:     490632  HIT %:    91.3932  MISS %:    8.60677  MPKI: 9.81264
ITLB TRANSLATION FROM L1D PREFETCHER INSTRUCTION	ACCESS:     136610  HIT:     136610  MISS:          0  HIT %:        100  MISS %:          0  MPKI: 0

ITLB AVERAGE MISS LATENCY: 9.05735 cycles
ITLB RQ	ACCESS:    7929340	FORWARD:          0	MERGED:    1611715	TO_CACHE:    6317625

DTLB TOTAL     ACCESS:    8921430  HIT:    8447606  MISS:     473824  HIT %:    94.6889  MISS %:    5.31108   MPKI: 9.47648
DTLB LOAD TRANSLATION DATA	ACCESS:    8921430  HIT:    8447606  MISS:     473824  HIT %:    94.6889  MISS %:    5.31108  MPKI: 9.47648

DTLB AVERAGE MISS LATENCY: 9.30094 cycles
DTLB RQ	ACCESS:   13277070	FORWARD:          0	MERGED:    4318115	TO_CACHE:    8958955

STLB TOTAL     ACCESS:    1219073  HIT:    1216875  MISS:       2198  HIT %:    99.8197  MISS %:   0.180301   MPKI: 0.04396
STLB LOAD TRANSLATION INSTRUCTION	ACCESS:     490632  HIT:     490363  MISS:        269  HIT %:    99.9452  MISS %:  0.0548272  MPKI: 0.00538
STLB LOAD TRANSLATION DATA	ACCESS:     473824  HIT:     471924  MISS:       1900  HIT %:     99.599  MISS %:   0.400993  MPKI: 0.038
STLB TRANSLATION FROM L1D PREFETCHER DATA	ACCESS:     254617  HIT:     254588  MISS:         29  HIT %:    99.9886  MISS %:  0.0113897  MPKI: 0.00058

STLB AVERAGE MISS LATENCY: 65.298 cycles
STLB RQ	ACCESS:    1364800	FORWARD:          0	MERGED:     145694	TO_CACHE:    1219106

STLB Hit, L1D data hit: 0
STLB Hit, L2C data hit: 0
STLB Hit, LLC data hit: 0
STLB Hit, LLC data miss: 0
STLB STLB hints to L2: 0
L1D TOTAL     ACCESS:   13019115  HIT:   11853539  MISS:    1165576  HIT %:    91.0472  MISS %:    8.95281   MPKI: 23.3115
L1D LOAD DATA	ACCESS:    6530175  HIT:    5761374  MISS:     768801  HIT %:    88.2269  MISS %:    11.7731  MPKI: 15.376
L1D RFO DATA	ACCESS:    6155525  HIT:    5864052  MISS:     291473  HIT %:    95.2649  MISS %:    4.73514  MPKI: 5.82946
L1D PREFETCH DATA	ACCESS:     333415  HIT:     228113  MISS:     105302  HIT %:    68.4171  MISS %:    31.5829  MPKI: 2.10604

L1D PREFETCH  REQUESTED:     801183  ISSUED:     801183  USEFUL:      50421  USELESS:      69591
L1D USEFUL LOAD PREFETCHES:      50421 PREFETCH ISSUED TO LOWER LEVEL:     120072  ACCURACY: 41.9923
 TIMELY PREFETCHES:      50421 LATE PREFETCHES: 14723 DROPPED PREFETCHES: 1
L1D AVERAGE MISS LATENCY: 396453 cycles
L1D RQ	ACCESS:   10670648	FORWARD:          0	MERGED:    3938752	TO_CACHE:    6567010
L1D WQ	ACCESS:    6906967	FORWARD:     165381	MERGED:     196907	TO_CACHE:    6710060
L1D PQ	ACCESS:     400839	FORWARD:          0	MERGED:          0	TO_CACHE:     400344

L1D UNIQUE REGIONS ACCESSED: 0
L1D REGIONS CONFLICTS: 0
L1D Cross Page Prefetch Requests: 6315
L1D Same Page Prefetch Requests: 805937
L1D ROI Sum of L1D PQ occupancy: 5098021
L1D PREFETCHES PUSHED FROM L2C: 0
L1I TOTAL     ACCESS:    7106948  HIT:    4357838  MISS:    2749110  HIT %:     61.318  MISS %:     38.682   MPKI: 54.9822
L1I LOAD INSTRUCTION	ACCESS:    6442642  HIT:    3693532  MISS:    2749110  HIT %:    57.3295  MISS %:    42.6705  MPKI: 54.9822
L1I PREFETCH INSTRUCTION	ACCESS:     664306  HIT:     664306  MISS:          0  HIT %:        100  MISS %:          0  MPKI: 0

L1I PREFETCH  REQUESTED:    1613695  ISSUED:    1613695  USEFUL:          0  USELESS:          0
L1I USEFUL LOAD PREFETCHES:          0 PREFETCH ISSUED TO LOWER LEVEL:          0  ACCURACY: -nan
 TIMELY PREFETCHES:          0 LATE PREFETCHES: 0 DROPPED PREFETCHES: 0
L1I AVERAGE MISS LATENCY: 17.851 cycles
L1I RQ	ACCESS:    9573056	FORWARD:          0	MERGED:    2825530	TO_CACHE:    6747526
L1I PQ	ACCESS:    1613695	FORWARD:          0	MERGED:     431881	TO_CACHE:    1181814

L1BTB TOTAL     ACCESS:    5678634  HIT:    2070677  MISS:    3607957  HIT %:    36.4644  MISS %:    63.5356   MPKI: 72.1591
L1BTB BRANCH_DIRECT_JUMP	ACCESS:     543113 HIT:     143332 MISS:     399781 AVERAGE STALL: 56.6662 AVERAGE FETCH STALL: 16.2917 AVERAGE FETCH QUEUE STALL: 17.9255 AVERAGE DECODE STALL: 21.5286 AVERAGE EXECUTE STALL: 2.36043e+15
L1BTB BRANCH_INDIRECT	ACCESS:     180923 HIT:      65105 MISS:     115818 AVERAGE STALL: 111.734 AVERAGE FETCH STALL: 10.8975 AVERAGE FETCH QUEUE STALL: 18.3953 AVERAGE DECODE STALL: 13.6009 AVERAGE EXECUTE STALL: 67.8775
L1BTB BRANCH_CONDITIONAL	ACCESS:    2730506 HIT:    1445852 MISS:    1284654 AVERAGE STALL: 67.7135 AVERAGE FETCH STALL: 25.0079 AVERAGE FETCH QUEUE STALL: 24.5768 AVERAGE DECODE STALL: 17.3635 AVERAGE EXECUTE STALL: 3.64993e+15
L1BTB BRANCH_DIRECT_CALL	ACCESS:     941028 HIT:     104517 MISS:     836511 AVERAGE STALL: 81.9348 AVERAGE FETCH STALL: 27.4073 AVERAGE FETCH QUEUE STALL: 29.1243 AVERAGE DECODE STALL: 24.8444 AVERAGE EXECUTE STALL: 9.47444e+15
L1BTB BRANCH_INDIRECT_CALL	ACCESS:     171033 HIT:      21623 MISS:     149410 AVERAGE STALL: 140.191 AVERAGE FETCH STALL: 13.4554 AVERAGE FETCH QUEUE STALL: 16.6249 AVERAGE DECODE STALL: 12.1704 AVERAGE EXECUTE STALL: 97.45
L1BTB BRANCH_RETURN	ACCESS:    1112031 HIT:     290248 MISS:     821783 AVERAGE STALL: 51.1367 AVERAGE FETCH STALL: 16.8431 AVERAGE FETCH QUEUE STALL: 5.72942 AVERAGE DECODE STALL: 6.32994 AVERAGE EXECUTE STALL: 4.35208e+14
L1BTB BRANCH_OTHER ACCESS:          0 HIT:          0 MISS:          0 AVERAGE STALL: -nan AVERAGE FETCH STALL: -nan AVERAGE FETCH QUEUE STALL: -nan AVERAGE DECODE STALL: -nan AVERAGE EXECUTE STALL: -nan
L1BTB TOTAL ROB OCCUPANCY AT BTB MISS: 2.69737

L2BTB TOTAL     ACCESS:    3583021  HIT:    3518375  MISS:      64646  HIT %:    98.1958  MISS %:    1.80423   MPKI: 1.29292
L2BTB BRANCH_DIRECT_JUMP	ACCESS:     395685 HIT:     391958 MISS:       3727 AVERAGE STALL: 56.6662 AVERAGE FETCH STALL: 16.2917 AVERAGE FETCH QUEUE STALL: 17.9255 AVERAGE DECODE STALL: 21.5286 AVERAGE EXECUTE STALL: 2.36043e+15
L2BTB BRANCH_INDIRECT	ACCESS:     105626 HIT:     102955 MISS:       2671 AVERAGE STALL: 111.734 AVERAGE FETCH STALL: 10.8975 AVERAGE FETCH QUEUE STALL: 18.3953 AVERAGE DECODE STALL: 13.6009 AVERAGE EXECUTE STALL: 67.8775
L2BTB BRANCH_CONDITIONAL	ACCESS:    1284654 HIT:    1279558 MISS:       5096 AVERAGE STALL: 67.7135 AVERAGE FETCH STALL: 25.0079 AVERAGE FETCH QUEUE STALL: 24.5768 AVERAGE DECODE STALL: 17.3635 AVERAGE EXECUTE STALL: 3.64993e+15
L2BTB BRANCH_DIRECT_CALL	ACCESS:     836511 HIT:     834545 MISS:       1966 AVERAGE STALL: 81.9348 AVERAGE FETCH STALL: 27.4073 AVERAGE FETCH QUEUE STALL: 29.1243 AVERAGE DECODE STALL: 24.8444 AVERAGE EXECUTE STALL: 9.47444e+15
L2BTB BRANCH_INDIRECT_CALL	ACCESS:     139989 HIT:     129997 MISS:       9992 AVERAGE STALL: 140.191 AVERAGE FETCH STALL: 13.4554 AVERAGE FETCH QUEUE STALL: 16.6249 AVERAGE DECODE STALL: 12.1704 AVERAGE EXECUTE STALL: 97.45
L2BTB BRANCH_RETURN	ACCESS:     820556 HIT:     779362 MISS:      41194 AVERAGE STALL: 51.1367 AVERAGE FETCH STALL: 16.8431 AVERAGE FETCH QUEUE STALL: 5.72942 AVERAGE DECODE STALL: 6.32994 AVERAGE EXECUTE STALL: 4.35208e+14
L2BTB BRANCH_OTHER ACCESS:          0 HIT:          0 MISS:          0 AVERAGE STALL: -nan AVERAGE FETCH STALL: -nan AVERAGE FETCH QUEUE STALL: -nan AVERAGE DECODE STALL: -nan AVERAGE EXECUTE STALL: -nan
L2BTB TOTAL ROB OCCUPANCY AT BTB MISS: 150.543

L2C TOTAL     ACCESS:    4537068  HIT:    3963817  MISS:     573251  HIT %:    87.3652  MISS %:    12.6348   MPKI: 11.465
L2C LOAD INSTRUCTION	ACCESS:    2749110  HIT:    2436898  MISS:     312212  HIT %:    88.6432  MISS %:    11.3568  MPKI: 6.24424
L2C LOAD TRANSLATION INSTRUCTION	ACCESS:        313  HIT:         87  MISS:        226  HIT %:    27.7955  MISS %:    72.2045  MPKI: 0.00452
L2C LOAD DATA	ACCESS:     754048  HIT:     665082  MISS:      88966  HIT %:    88.2015  MISS %:    11.7985  MPKI: 1.77932
L2C RFO DATA	ACCESS:     291408  HIT:     223219  MISS:      68189  HIT %:    76.6002  MISS %:    23.3998  MPKI: 1.36378
L2C PREFETCH DATA	ACCESS:     210755  HIT:     126073  MISS:      84682  HIT %:    59.8197  MISS %:    40.1803  MPKI: 1.69364
L2C WRITEBACK DATA	ACCESS:     529395  HIT:     511908  MISS:      17487  HIT %:    96.6968  MISS %:     3.3032  MPKI: 0.34974
L2C LOAD TRANSLATION DATA	ACCESS:       2002  HIT:        521  MISS:       1481  HIT %:     26.024  MISS %:     73.976  MPKI: 0.02962
L2C TRANSLATION FROM L1D PREFETCHER DATA	ACCESS:         37  HIT:         29  MISS:          8  HIT %:    78.3784  MISS %:    21.6216  MPKI: 0.00016

L2C PREFETCH  REQUESTED:      98803  ISSUED:      98803  USEFUL:      10525  USELESS:      74793
L2C USEFUL LOAD PREFETCHES:      10525 PREFETCH ISSUED TO LOWER LEVEL:      85197  ACCURACY: 12.3537
 TIMELY PREFETCHES:      10525 LATE PREFETCHES: 515 DROPPED PREFETCHES: 0
L2C AVERAGE MISS LATENCY: 37.0738 cycles
L2C RQ	ACCESS:    3796969	FORWARD:          0	MERGED:          0	TO_CACHE:    3796921
L2C WQ	ACCESS:     529395	FORWARD:         50	MERGED:          0	TO_CACHE:     529395
L2C PQ	ACCESS:     218875	FORWARD:          0	MERGED:       3460	TO_CACHE:     215413

L2C Dense regions hint from L2: 0
PSCL5 TOTAL     ACCESS:       4398  HIT:       2199  MISS:       2199  HIT %:         50  MISS %:         50   MPKI: 0.04398
PSCL5 LOAD TRANSLATION INSTRUCTION	ACCESS:       4324  HIT:       2162  MISS:       2162  HIT %:         50  MISS %:         50  MPKI: 0.04324
PSCL5 TRANSLATION FROM L1D PREFETCHER INSTRUCTION	ACCESS:         74  HIT:         37  MISS:         37  HIT %:         50  MISS %:         50  MPKI: 0.00074


PSCL4 TOTAL     ACCESS:       4079  HIT:       2037  MISS:       2042  HIT %:    49.9387  MISS %:    50.0613   MPKI: 0.04084
PSCL4 LOAD TRANSLATION INSTRUCTION	ACCESS:       2133  HIT:       2000  MISS:        133  HIT %:    93.7647  MISS %:    6.23535  MPKI: 0.00266
PSCL4 TRANSLATION FROM L1D PREFETCHER INSTRUCTION	ACCESS:         37  HIT:         37  MISS:          0  HIT %:        100  MISS %:          0  MPKI: 0
PSCL4 LOAD TRANSLATION DATA	ACCESS:       1872  HIT:          0  MISS:       1872  HIT %:          0  MISS %:        100  MPKI: 0.03744
PSCL4 TRANSLATION FROM L1D PREFETCHER DATA	ACCESS:         37  HIT:          0  MISS:         37  HIT %:          0  MISS %:        100  MPKI: 0.00074


PSCL3 TOTAL     ACCESS:       4304  HIT:       2146  MISS:       2158  HIT %:    49.8606  MISS %:    50.1394   MPKI: 0.04316
PSCL3 LOAD TRANSLATION INSTRUCTION	ACCESS:       2325  HIT:       2109  MISS:        216  HIT %:    90.7097  MISS %:    9.29032  MPKI: 0.00432
PSCL3 TRANSLATION FROM L1D PREFETCHER INSTRUCTION	ACCESS:         37  HIT:         37  MISS:          0  HIT %:        100  MISS %:          0  MPKI: 0
PSCL3 LOAD TRANSLATION DATA	ACCESS:       1905  HIT:          0  MISS:       1905  HIT %:          0  MISS %:        100  MPKI: 0.0381
PSCL3 TRANSLATION FROM L1D PREFETCHER DATA	ACCESS:         37  HIT:          0  MISS:         37  HIT %:          0  MISS %:        100  MPKI: 0.00074


PSCL2 TOTAL     ACCESS:       4258  HIT:       2059  MISS:       2199  HIT %:     48.356  MISS %:     51.644   MPKI: 0.04398
PSCL2 LOAD TRANSLATION INSTRUCTION	ACCESS:       2291  HIT:       2022  MISS:        269  HIT %:    88.2584  MISS %:    11.7416  MPKI: 0.00538
PSCL2 TRANSLATION FROM L1D PREFETCHER INSTRUCTION	ACCESS:         37  HIT:         37  MISS:          0  HIT %:        100  MISS %:          0  MPKI: 0
PSCL2 LOAD TRANSLATION DATA	ACCESS:       1893  HIT:          0  MISS:       1893  HIT %:          0  MISS %:        100  MPKI: 0.03786
PSCL2 TRANSLATION FROM L1D PREFETCHER DATA	ACCESS:         37  HIT:          0  MISS:         37  HIT %:          0  MISS %:        100  MPKI: 0.00074


LLC TOTAL     ACCESS:     651507  HIT:     625237  MISS:      26270  HIT %:    95.9678  MISS %:    4.03219   MPKI: 0.5254
LLC LOAD INSTRUCTION	ACCESS:     312212  HIT:     311093  MISS:       1119  HIT %:    99.6416  MISS %:    0.35841  MPKI: 0.02238
LLC LOAD TRANSLATION INSTRUCTION	ACCESS:        226  HIT:        191  MISS:         35  HIT %:    84.5133  MISS %:    15.4867  MPKI: 0.0007
LLC LOAD DATA	ACCESS:      88471  HIT:      85145  MISS:       3326  HIT %:    96.2406  MISS %:    3.75942  MPKI: 0.06652
LLC RFO DATA	ACCESS:      68159  HIT:      56411  MISS:      11748  HIT %:    82.7638  MISS %:    17.2362  MPKI: 0.23496
LLC PREFETCH DATA	ACCESS:      85197  HIT:      75502  MISS:       9695  HIT %:    88.6205  MISS %:    11.3795  MPKI: 0.1939
LLC WRITEBACK DATA	ACCESS:      95753  HIT:      95506  MISS:        247  HIT %:     99.742  MISS %:   0.257955  MPKI: 0.00494
LLC LOAD TRANSLATION DATA	ACCESS:       1481  HIT:       1381  MISS:        100  HIT %:    93.2478  MISS %:    6.75219  MPKI: 0.002
LLC TRANSLATION FROM L1D PREFETCHER DATA	ACCESS:          8  HIT:          8  MISS:          0  HIT %:        100  MISS %:          0  MPKI: 0

LLC AVERAGE MISS LATENCY: 173.929 cycles
LLC RQ	ACCESS:     470567	FORWARD:          0	MERGED:          0	TO_CACHE:     470557
LLC WQ	ACCESS:      95753	FORWARD:         10	MERGED:          0	TO_CACHE:      95753
LLC PQ	ACCESS:      85197	FORWARD:          0	MERGED:          0	TO_CACHE:      85197

LLC Dense regions hint to LLC: 0

RAW hits: 1939121
Loads Generated: 12609767
Loads sent to L1D: 10670648
Stores Generated: 6906960
Stores sent to L1D: 6906967
Major fault: 0 Minor fault: 2327
Allocated PAGES: 2327

stream: 
stream:times selected: 1238426
stream:pref_filled: 126050
stream:pref_useful: 28944
stream:pref_late: 9922
stream:misses: 10397
stream:misses_by_poll: 0

CS: 
CS:times selected: 194145
CS:pref_filled: 73277
CS:pref_useful: 49889
CS:pref_late: 10857
CS:misses: 26440
CS:misses_by_poll: 4

CPLX: 
CPLX:times selected: 1043089
CPLX:pref_filled: 25427
CPLX:pref_useful: 7928
CPLX:pref_late: 4220
CPLX:misses: 134230
CPLX:misses_by_poll: 2

NL_L1: 
NL:times selected: 14430
NL:pref_filled: 1220
NL:pref_useful: 351
NL:pref_late: 553
NL:misses: 2314
NL:misses_by_poll: 0

total selections: 2490090
total_filled: 105302
total_useful: 50421
total_late: 28001
total_polluted: 6
total_misses_after_warmup: 805640
conflicts: 5490738

test: 119621

DRAM Statistics
 CHANNEL 0
 RQ ROW_BUFFER_HIT:       9408  ROW_BUFFER_MISS:      16604
 DBUS_CONGESTED:         12
 WQ ROW_BUFFER_HIT:       1610  ROW_BUFFER_MISS:      10673  FULL:          0

 AVG_CONGESTED_CYCLE: 4

CPU 0 Branch Prediction Accuracy: 99.8183% MPKI: 0.33278 Average ROB Occupancy at Mispredict: 199.386
Branch types
NOT_BRANCH: 40841632 81.6833%
BRANCH_DIRECT_JUMP: 543113 1.08623%
BRANCH_INDIRECT: 180923 0.361846%
BRANCH_CONDITIONAL: 6210189 12.4204%
BRANCH_DIRECT_CALL: 941028 1.88206%
BRANCH_INDIRECT_CALL: 171033 0.342066%
BRANCH_RETURN: 1112031 2.22406%
BRANCH_OTHER: 0 0%

DRAM PAGES: 1048576
Allocated PAGES: 2327
Average_ROB_Occupancy: 251.396
Average_Decode_Occupancy: 38.0343
Average_FTQ_Occupancy: 14.9997
Indirect max targets: 14 Average targets: 1.15203
Branch_type:  BRANCH_DIRECT_JUMP:  Count Percentage: 3.73147 6.46184 3.50168 14.4724 1.69056 6.28938 0.979254 62.8734 
Branch_type:  BRANCH_INDIRECT:  Count Percentage: 11.7645 3.39273 12.1567 23.397 1.34469 14.4954 1.08284 32.3661 
Branch_type:  BRANCH_CONDITIONAL:  Count Percentage: 22.2014 2.82195 2.45874 8.87684 1.05477 4.48219 0.577416 57.5267 
Branch_type:  BRANCH_DIRECT_CALL:  Count Percentage: 0.765576 1.29424 1.39204 5.3942 1.96912 2.65414 0.796974 85.7337 
Branch_type:  BRANCH_INDIRECT_CALL:  Count Percentage: 9.51963 0.551224 2.98402 4.81569 0 3.85273 0 78.2767 
Branch_type:  BRANCH_RETURN:  Count Percentage: 4.40138 0.720688 3.66243 9.02286 2.11177 5.29991 1.01244 73.7685 
Branch_type:  BRANCH_DIRECT_JUMP:  Total Count: 40483 70105 37990 157012 18341 68234 10624 682119 
Branch_type:  BRANCH_INDIRECT:  Total Count: 42502 12257 43919 84527 4858 52368 3912 116930 
Branch_type:  BRANCH_CONDITIONAL:  Total Count: 2755795 350281 305196 1101857 130926 556362 71673 7140632 
Branch_type:  BRANCH_DIRECT_CALL:  Total Count: 14435 24403 26247 101708 37128 50044 15027 1616516 
Branch_type:  BRANCH_INDIRECT_CALL:  Total Count: 32623 1889 10226 16503 0 13203 0 268248 
Branch_type:  BRANCH_RETURN:  Total Count: 98106 16064 81635 201118 47071 118134 22567 1644287 
Number of unique branch instructions: 10407
Upper 32 bits: 
aaaa
ffff
ffff0000
Unique upper 32 bits: 3
Unique upper 36 bits: 3
Unique upper 40 bits: 5
Unique upper 44 bits: 32
Unique upper 48 bits: 156
Variant_0 : 1443 0.352295
Variant_1 : 2640 0.644531
Variant_2 : 0 0
Variant_3 : 0 0
Offset_3 4310
Offset_4 258
Offset_5 473
Offset_6 537
Offset_7 615
Offset_8 538
Offset_9 489
Offset_10 410
Offset_11 343
Offset_12 277
Offset_13 223
Offset_14 229
Offset_15 199
Offset_16 232
Offset_17 164
Offset_18 135
Offset_19 246
Offset_20 147
Offset_21 246
Offset_22 408
Offset_23 245
Offset_24 333
Offset_25 88
Offset_47 82
Offset_64 1
decode_dispatch_called: 26376157 73.3427
Dispatch_width: 0 14211647 53.8807 39.5175
Dispatch_width: 1 1044066 3.95837 2.90318
Dispatch_width: 2 843277 3.19712 2.34485
Dispatch_width: 3 501244 1.90037 1.39378
Dispatch_width: 4 6391376 24.2316 17.7721
Dispatch_width: 5 107156 0.406261 0.297963
Dispatch_width: 6 3277391 12.4256 9.11326
Empty_decode_cycles: 9586744 26.6573
ROB_full_cycles: 10219697 28.4173
Starvation_cycles_per_kilo_instr: 224.658
Starvation_cycles_per_kilo_instr_3: 159.673
Starvation_cycles_per_kilo_instr_0: 135.787
Branch_type_1  (3,1)  (4,7)  (5,36)  (6,75)  (7,118)  (8,135)  (9,129)  (10,106)  (11,79)  (12,44)  (13,4)  (14,2)  (15,3)  (16,4)  (18,1)  (19,4)  (20,2)  (21,1)  (22,3)  (23,2)  (24,10)  (25,12) 
Branch_type_2  (3,1)  (5,1)  (8,3)  (9,3)  (12,1)  (13,1)  (14,1)  (16,3)  (17,2)  (20,2)  (21,2)  (23,5)  (24,1)  (47,37) 
Branch_type_3  (3,4308)  (4,251)  (5,432)  (6,445)  (7,463)  (8,337)  (9,269)  (10,174)  (11,138)  (12,49)  (13,4)  (21,1) 
Branch_type_4  (6,4)  (7,8)  (8,30)  (9,52)  (10,61)  (11,63)  (12,102)  (13,100)  (14,100)  (15,96)  (16,105)  (17,76)  (18,62)  (19,120)  (20,74)  (21,130)  (22,219)  (23,138)  (24,194)  (25,72) 
Branch_type_5  (8,2)  (9,1)  (10,3)  (11,5)  (12,3)  (13,14)  (14,16)  (15,11)  (16,20)  (17,12)  (18,16)  (19,12)  (20,12)  (21,13)  (22,42)  (23,26)  (24,36) 
Branch_type_6  (5,4)  (6,13)  (7,26)  (8,31)  (9,35)  (10,66)  (11,58)  (12,78)  (13,100)  (14,110)  (15,89)  (16,100)  (17,74)  (18,56)  (19,110)  (20,57)  (21,99)  (22,144)  (23,74)  (24,92)  (25,4)  (47,45)  (64,1) 
Unique trigger count: 
Variant_0_evicts_0 : 0
Variant_0_evicts_1 : 0
Variant_0_evicts_2 : 0
Variant_0_evicts_3 : 0
Variant_1_evicts_0 : 0
Variant_1_evicts_1 : 0
Variant_1_evicts_2 : 0
Variant_1_evicts_3 : 0
Variant_2_evicts_0 : 0
Variant_2_evicts_1 : 0
Variant_2_evicts_2 : 0
Variant_2_evicts_3 : 0
Variant_3_evicts_0 : 0
Variant_3_evicts_1 : 0
Variant_3_evicts_2 : 0
Variant_3_evicts_3 : 0
BTB PER SET UNIQUE ADDR: 23 15 17 24 16 24 23 19 15 17 25 18 22 14 12 18 16 28 25 15 24 12 15 18 20 15 18 21 21 22 17 14 16 18 15 16 27 19 14 17 16 13 11 26 20 27 21 16 18 18 21 17 19 19 17 17 18 20 25 13 16 13 14 19 15 16 22 16 22 16 17 25 26 14 17 19 15 20 22 16 20 16 20 24 15 21 29 15 15 20 28 19 27 16 17 20 16 14 14 17 14 19 29 16 14 18 21 17 23 15 24 20 14 22 19 17 20 11 13 21 21 11 13 20 16 13 16 16 17 19 22 14 15 18 20 21 23 15 15 26 16 20 18 18 21 16 16 21 18 20 20 17 16 21 22 13 24 14 14 21 21 15 14 25 20 23 23 18 17 20 25 16 20 15 18 25 16 23 28 16 29 20 10 23 20 14 20 19 13 25 23 18 23 18 11 23 17 21 25 25 15 20 24 14 24 18 13 16 19 19 21 18 19 20 17 25 18 13 14 26 15 17 19 18 17 23 28 21 23 16 19 24 21 19 14 22 12 15 21 17 20 15 13 23 17 26 24 15 16 18 19 17 23 21 18 23 19 18 22 13 26 18 17 18 28 18 17 18 14 27 21 19 16 14 20 23 16 27 23 12 16 17 19 16 18 17 16 21 18 16 16 21 14 18 23 19 12 21 24 19 21 17 16 26 19 20 17 11 24 15 18 20 17 17 14 25 14 27 15 15 21 15 14 22 17 26 19 16 19 24 18 11 22 22 16 19 17 28 24 14 20 19 18 24 23 16 20 30 21 28 26 16 13 16 19 23 22 17 14 28 20 18 14 20 18 17 17 15 24 16 18 27 15 23 20 16 15 24 22 20 13 16 19 17 20 19 16 20 16 22 21 17 14 19 23 18 19 15 20 26 16 22 22 16 25 17 12 20 17 16 16 20 15 25 24 17 18 14 22 17 26 18 14 25 24 19 14 23 15 20 21 18 26 16 16 17 17 20 17 15 14 13 25 13 19 15 12 19 18 23 20 13 23 17 19 28 24 17 16 19 13 18 26 16 20 15 18 21 19 29 26 16 17 23 25 12 25 19 20 27 26 19 18 20 12 18 19 17 16 25 24 14 22 14 16 17 16 24 24 14 26 18 17 22 27 15 15 21 12 21 31 17 
BTB PER SET COUNT: 24 16 26 29 2621 27 32 23 15 18 28 21 936 19 14 21 16 1478 479 445 885 12 26 293 22 1425 762 286 518 25 17 14 17 648 20 19 46 20 17 26 16 13 988 28 71 31 25 117 19 27 899 19 21 23 21 17 18 22 1326 13 22 1999 14 1908 16 16 709 18 25 20 26 310 27 1003 19 554 16 25 2126 18 23 19 40 948 16 852 31 17 15 22 32 21 636 27 18 553 1097 1430 15 19 16 20 39 2725 16 846 25 873 64 212 1304 24 14 35 966 18 44 532 14 24 59 13 16 3795 17 13 17 17 956 26 25 17 103 21 1548 24 30 21 15 27 62 806 22 20 24 8214 219 26 2869 753 47 19 502 23 26 13 29 14 419 689 56 951 16 974 21 28 185 724 27 1590 1647 18 918 15 23 512 17 485 928 17 175 23 10 30 104 16 25 36 13 574 26 678 1262 29 15 24 20 104 31 25 20 24 703 15 30 22 19 508 1149 111 25 1481 20 749 18 29 25 17 19 965 98 19 19 18 17 25 1584 26 29 19 209 1261 23 30 14 83 14 37 471 18 418 2915 18 24 1036 27 26 16 820 602 22 73 132 248 557 181 25 23 23 15 37 24 669 18 2655 20 21 25 20 38 25 55 18 15 27 23 1819 1663 26 16 45 521 19 16 24 22 17 26 22 30 17 28 487 28 1025 1163 1098 21 29 2203 251 20 16 29 22 22 64 12 218 2277 1645 131 23 17 17 4121 14 2008 16 18 63 19 17 14840 20 228 20 491 517 41 32 13 852 1964 21 19 18 42 1017 16 24 838 19 59 841 153 21 1561 23 1023 37 30 15 39 26 1749 28 17 19 29 21 603 16 22 24 19 22 15 26 20 18 39 475 25 21 16 2106 26 23 23 14 19 20 19 2634 19 258 25 19 118 26 912 15 20 26 19 26 23 164 31 18 387 31 37 431 19 15 465 13007 18 23 22 22 402 583 91 20 441 31 17 32 18 16 2281 25 24 85 143 18 21 1649 18 381 2033 317 649 19 21 18 17 16 14 25 13 21 41 16 19 1056 49 94 13 758 1025 25 30 28 18 21 19 16 242 2659 17 288 16 63 25 300 956 1021 1476 31 28 27 12 44 29 21 31 740 930 18 1967 17 1066 22 469 16 29 32 16 320 1289 16 17 17 24 1044 14 1020 28 18 25 32 314 17 23 13 488 147 18 
To predecode: 0
Predecoding something: 0
Predecode request dropped: 0
sizeofblock_0 0
sizeofblock_1 44036
sizeofblock_2 91468
sizeofblock_3 0
sizeofblock_4 0
sizeofblock_5 0
sizeofblock_6 0
sizeofblock_7 0
sizeofblock_8 0
Variant_0 Correct: 1606133 Incorrect: 0 Accuracy: 1
Variant_1 Correct: 5717426 Incorrect: 0 Accuracy: 1
Variant_2 Correct: 0 Incorrect: 0 Accuracy: -nan
Variant_3 Correct: 0 Incorrect: 0 Accuracy: -nan
