
*** ChampSim Multicore Out-of-Order Simulator ***

Warmup Instructions: 50000000
Simulation Instructions: 50000000
Number of CPUs: 1
LLC sets: 2048
LLC ways: 16
Off-chip DRAM Size: 4096 MB Channels: 1 Width: 64-bit Data Rate: 6400 MT/s
CPU 0 runs ./micro_traces/srv385.trace.gz
.gz
ITLB has LRU replacement policy
DTLB has LRU replacement policy
STLB has LRU replacement policy
CPU 0 L1I next line prefetcher
L1I has LRU replacement policy
L1D has LRU replacement policy
Initialize SRRIP state for L2C
Initialize DRRIP state for LLC
Heartbeat CPU 0 instructions: 10000003 cycles: 2798362 heartbeat IPC: 3.57352 cumulative IPC: 3.57352 (Simulation time: 0 hr 1 min 38 sec) 
Heartbeat CPU 0 instructions: 20000000 cycles: 5595835 heartbeat IPC: 3.57465 cumulative IPC: 3.57409 (Simulation time: 0 hr 3 min 15 sec) 
Heartbeat CPU 0 instructions: 30000000 cycles: 8393195 heartbeat IPC: 3.5748 cumulative IPC: 3.57432 (Simulation time: 0 hr 4 min 52 sec) 
Heartbeat CPU 0 instructions: 40000000 cycles: 11190952 heartbeat IPC: 3.57429 cumulative IPC: 3.57432 (Simulation time: 0 hr 6 min 28 sec) 
Heartbeat CPU 0 instructions: 50000002 cycles: 13988293 heartbeat IPC: 3.57482 cumulative IPC: 3.57442 (Simulation time: 0 hr 8 min 6 sec) 

Warmup complete CPU 0 instructions: 50000002 cycles: 13988293 (Simulation time: 0 hr 8 min 6 sec) 

Cycle: 20000000 FTQ IN: 58149420 FTQ occupancy: 18.677 DECODE IN: 58149420 DECODE occupancy: 49.8278 ROB IN: 58149383 ROB occupancy: 308.939 ROB OUT: 58149031
Heartbeat CPU 0 instructions: 60000000 cycles: 21371124 heartbeat IPC: 1.35449 cumulative IPC: 1.35449 (Simulation time: 0 hr 9 min 38 sec) 
Heartbeat CPU 0 instructions: 70000003 cycles: 28834522 heartbeat IPC: 1.33987 cumulative IPC: 1.34714 (Simulation time: 0 hr 11 min 14 sec) 
Cycle: 30000000 FTQ IN: 13407328 FTQ occupancy: 8.83678 DECODE IN: 13407328 DECODE occupancy: 26.3592 ROB IN: 13407365 ROB occupancy: 216.145 ROB OUT: 13407664
Heartbeat CPU 0 instructions: 80000001 cycles: 36204361 heartbeat IPC: 1.35688 cumulative IPC: 1.35037 (Simulation time: 0 hr 12 min 49 sec) 
Cycle: 40000000 FTQ IN: 13592145 FTQ occupancy: 8.70379 DECODE IN: 13592097 DECODE occupancy: 26.2534 ROB IN: 13592097 ROB occupancy: 219.487 ROB OUT: 13591847
Heartbeat CPU 0 instructions: 90000000 cycles: 43655294 heartbeat IPC: 1.34211 cumulative IPC: 1.3483 (Simulation time: 0 hr 14 min 23 sec) 
Cycle: 50000000 FTQ IN: 13425464 FTQ occupancy: 8.85045 DECODE IN: 13425413 DECODE occupancy: 26.3242 ROB IN: 13425353 ROB occupancy: 217.318 ROB OUT: 13425525
Heartbeat CPU 0 instructions: 100000003 cycles: 51041973 heartbeat IPC: 1.35379 cumulative IPC: 1.34939 (Simulation time: 0 hr 15 min 57 sec) 
Finished CPU 0 instructions: 50000001 cycles: 37053680 cumulative IPC: 1.34939 (Simulation time: 0 hr 15 min 57 sec) 

ChampSim completed all CPUs

Region of Interest Statistics

CPU 0 cumulative IPC: 1.34939 instructions: 50000001 cycles: 37053680
 Fetch stage stalled: 60.3625  Sim cycles: 37053680 fetch stall cycle: 22366511
 Empty decode stage: 41.7696  Sim cycles: 37053680 fetch stall cycle: 15477158
ITLB TOTAL     ACCESS:    7702283  HIT:    7098258  MISS:     604025  HIT %:    92.1578  MISS %:    7.84216   MPKI: 12.0805
ITLB LOAD TRANSLATION INSTRUCTION	ACCESS:    5975253  HIT:    5848624  MISS:     126629  HIT %:    97.8808  MISS %:    2.11922  MPKI: 2.53258
ITLB TRANSLATION FROM L1D PREFETCHER INSTRUCTION	ACCESS:    1727030  HIT:    1249634  MISS:     477396  HIT %:    72.3574  MISS %:    27.6426  MPKI: 9.54792

ITLB AVERAGE MISS LATENCY: 84758.2 cycles
ITLB RQ	ACCESS:   11565018	FORWARD:          0	MERGED:    3717530	TO_CACHE:    7847488

DTLB TOTAL     ACCESS:    9005488  HIT:    8529504  MISS:     475984  HIT %:    94.7145  MISS %:    5.28549   MPKI: 9.51968
DTLB LOAD TRANSLATION DATA	ACCESS:    9005488  HIT:    8529504  MISS:     475984  HIT %:    94.7145  MISS %:    5.28549  MPKI: 9.51968

DTLB AVERAGE MISS LATENCY: 9.34028 cycles
DTLB RQ	ACCESS:   13375430	FORWARD:          0	MERGED:    4333821	TO_CACHE:    9041609

STLB TOTAL     ACCESS:    1329244  HIT:    1327276  MISS:       1968  HIT %:    99.8519  MISS %:   0.148054   MPKI: 0.03936
STLB LOAD TRANSLATION INSTRUCTION	ACCESS:     124952  HIT:     124822  MISS:        130  HIT %:     99.896  MISS %:    0.10404  MPKI: 0.0026
STLB TRANSLATION FROM L1D PREFETCHER INSTRUCTION	ACCESS:     479073  HIT:     478976  MISS:         97  HIT %:    99.9798  MISS %:  0.0202474  MPKI: 0.00194
STLB LOAD TRANSLATION DATA	ACCESS:     475984  HIT:     474261  MISS:       1723  HIT %:     99.638  MISS %:   0.361987  MPKI: 0.03446
STLB TRANSLATION FROM L1D PREFETCHER DATA	ACCESS:     249235  HIT:     249217  MISS:         18  HIT %:    99.9928  MISS %:  0.0072221  MPKI: 0.00036

STLB AVERAGE MISS LATENCY: 79.1474 cycles
STLB RQ	ACCESS:    1453952	FORWARD:          0	MERGED:     121084	TO_CACHE:    1332868

STLB Hit, L1D data hit: 0
STLB Hit, L2C data hit: 0
STLB Hit, LLC data hit: 0
STLB Hit, LLC data miss: 0
STLB STLB hints to L2: 0
L1D TOTAL     ACCESS:   13112839  HIT:   11998001  MISS:    1114838  HIT %:    91.4981  MISS %:    8.50188   MPKI: 22.2968
L1D LOAD DATA	ACCESS:    6591887  HIT:    5854991  MISS:     736896  HIT %:    88.8212  MISS %:    11.1788  MPKI: 14.7379
L1D RFO DATA	ACCESS:    6193363  HIT:    5908646  MISS:     284717  HIT %:    95.4029  MISS %:    4.59713  MPKI: 5.69434
L1D PREFETCH DATA	ACCESS:     327589  HIT:     234364  MISS:      93225  HIT %:    71.5421  MISS %:    28.4579  MPKI: 1.8645

L1D PREFETCH  REQUESTED:     741121  ISSUED:     741121  USEFUL:      33297  USELESS:      69216
L1D USEFUL LOAD PREFETCHES:      33297 PREFETCH ISSUED TO LOWER LEVEL:     102615  ACCURACY: 32.4485
 TIMELY PREFETCHES:      33297 LATE PREFETCHES: 9309 DROPPED PREFETCHES: 5
L1D AVERAGE MISS LATENCY: 275457 cycles
L1D RQ	ACCESS:   10706096	FORWARD:          0	MERGED:    3917106	TO_CACHE:    6629145
L1D WQ	ACCESS:    6943836	FORWARD:     160254	MERGED:     197551	TO_CACHE:    6746285
L1D PQ	ACCESS:     370765	FORWARD:          0	MERGED:          0	TO_CACHE:     370356

L1D UNIQUE REGIONS ACCESSED: 0
L1D REGIONS CONFLICTS: 0
L1D Cross Page Prefetch Requests: 6486
L1D Same Page Prefetch Requests: 750551
L1D ROI Sum of L1D PQ occupancy: 4716329
L1D PREFETCHES PUSHED FROM L2C: 0
L1I TOTAL     ACCESS:   11143032  HIT:    7538348  MISS:    3604684  HIT %:    67.6508  MISS %:    32.3492   MPKI: 72.0937
L1I LOAD INSTRUCTION	ACCESS:    6700860  HIT:    6117025  MISS:     583835  HIT %:    91.2872  MISS %:    8.71284  MPKI: 11.6767
L1I PREFETCH INSTRUCTION	ACCESS:    4442172  HIT:    1421323  MISS:    3020849  HIT %:    31.9961  MISS %:    68.0039  MPKI: 60.417

L1I PREFETCH  REQUESTED:    5098899  ISSUED:    5098827  USEFUL:    2365998  USELESS:     754855
L1I USEFUL LOAD PREFETCHES:    2365998 PREFETCH ISSUED TO LOWER LEVEL:    3120782  ACCURACY: 75.8143
 TIMELY PREFETCHES:    2365998 LATE PREFETCHES: 99928 DROPPED PREFETCHES: 9077
L1I AVERAGE MISS LATENCY: 883853 cycles
L1I RQ	ACCESS:    9455268	FORWARD:          0	MERGED:    2693012	TO_CACHE:    6762256
L1I PQ	ACCESS:    5098827	FORWARD:          0	MERGED:     296065	TO_CACHE:    4802762

L1BTB TOTAL     ACCESS:    5671903  HIT:    2043713  MISS:    3628190  HIT %:    36.0322  MISS %:    63.9678   MPKI: 72.5638
L1BTB BRANCH_DIRECT_JUMP	ACCESS:     548747  HIT:     144633  MISS:     404114	AVERAGE STALL: 30.2992
L1BTB BRANCH_INDIRECT	ACCESS:     183366  HIT:      66349  MISS:     117017	AVERAGE STALL: 126.027
L1BTB BRANCH_CONDITIONAL	ACCESS:    2710566  HIT:    1417655  MISS:    1292911	AVERAGE STALL: 40.1317
L1BTB BRANCH_DIRECT_CALL	ACCESS:     943398  HIT:     104639  MISS:     838759	AVERAGE STALL: 44.4375
L1BTB BRANCH_INDIRECT_CALL	ACCESS:     171214  HIT:      20842  MISS:     150372	AVERAGE STALL: 141.284
L1BTB BRANCH_RETURN	ACCESS:    1114612  HIT:     289595  MISS:     825017	AVERAGE STALL: 39.763
L1BTB BRANCH_OTHER ACCESS:          0  HIT:          0  MISS:          0	AVERAGE STALL: -nan
L1BTB TOTAL ROB OCCUPANCY AT BTB MISS: 5.71347

L2BTB1 TOTAL     ACCESS:    3602745  HIT:    3479194  MISS:     123551  HIT %:    96.5706  MISS %:    3.42936   MPKI: 2.47102
L2BTB1 BRANCH_DIRECT_JUMP	ACCESS:     399920  HIT:     391649  MISS:       8271	AVERAGE STALL: 30.2992
L2BTB1 BRANCH_INDIRECT	ACCESS:     106728  HIT:      95763  MISS:      10965	AVERAGE STALL: 126.027
L2BTB1 BRANCH_CONDITIONAL	ACCESS:    1292911  HIT:    1277949  MISS:      14962	AVERAGE STALL: 40.1317
L2BTB1 BRANCH_DIRECT_CALL	ACCESS:     838759  HIT:     815915  MISS:      22844	AVERAGE STALL: 44.4375
L2BTB1 BRANCH_INDIRECT_CALL	ACCESS:     140807  HIT:     127468  MISS:      13339	AVERAGE STALL: 141.284
L2BTB1 BRANCH_RETURN	ACCESS:     823620  HIT:     770450  MISS:      53170	AVERAGE STALL: 39.763
L2BTB1 BRANCH_OTHER ACCESS:          0  HIT:          0  MISS:          0	AVERAGE STALL: -nan
L2BTB1 TOTAL ROB OCCUPANCY AT BTB MISS: 167.781

L2C TOTAL     ACCESS:    6565027  HIT:    5579609  MISS:     985418  HIT %:    84.9899  MISS %:    15.0101   MPKI: 19.7084
L2C LOAD INSTRUCTION	ACCESS:     483907  HIT:     395126  MISS:      88781  HIT %:    81.6533  MISS %:    18.3467  MPKI: 1.77562
L2C PREFETCH INSTRUCTION	ACCESS:    3120777  HIT:    2757484  MISS:     363293  HIT %:    88.3589  MISS %:    11.6411  MPKI: 7.26586
L2C LOAD TRANSLATION INSTRUCTION	ACCESS:        143  HIT:         42  MISS:        101  HIT %:    29.3706  MISS %:    70.6294  MPKI: 0.00202
L2C TRANSLATION FROM L1D PREFETCHER INSTRUCTION	ACCESS:       4844  HIT:       4742  MISS:        102  HIT %:    97.8943  MISS %:     2.1057  MPKI: 0.00204
L2C LOAD DATA	ACCESS:     727570  HIT:     579217  MISS:     148353  HIT %:    79.6098  MISS %:    20.3902  MPKI: 2.96706
L2C RFO DATA	ACCESS:     284604  HIT:     201372  MISS:      83232  HIT %:    70.7552  MISS %:    29.2448  MPKI: 1.66464
L2C PREFETCH DATA	ACCESS:    1420652  HIT:    1158530  MISS:     262122  HIT %:    81.5492  MISS %:    18.4508  MPKI: 5.24244
L2C WRITEBACK DATA	ACCESS:     520703  HIT:     482713  MISS:      37990  HIT %:    92.7041  MISS %:    7.29591  MPKI: 0.7598
L2C LOAD TRANSLATION DATA	ACCESS:       1791  HIT:        356  MISS:       1435  HIT %:    19.8772  MISS %:    80.1228  MPKI: 0.0287
L2C TRANSLATION FROM L1D PREFETCHER DATA	ACCESS:         36  HIT:         27  MISS:          9  HIT %:         75  MISS %:         25  MPKI: 0.00018

L2C PREFETCH  REQUESTED:    3230318  ISSUED:    3230318  USEFUL:      28909  USELESS:     598783
L2C USEFUL LOAD PREFETCHES:      28909 PREFETCH ISSUED TO LOWER LEVEL:     626820  ACCURACY: 4.61201
 TIMELY PREFETCHES:      28909 LATE PREFETCHES: 1405 DROPPED PREFETCHES: 0
L2C AVERAGE MISS LATENCY: 33.4879 cycles
L2C RQ	ACCESS:    1502944	FORWARD:          0	MERGED:          0	TO_CACHE:    1502895
L2C WQ	ACCESS:     520703	FORWARD:         49	MERGED:          0	TO_CACHE:     520703
L2C PQ	ACCESS:    6453715	FORWARD:          0	MERGED:    1892494	TO_CACHE:    4561221

L2C Dense regions hint from L2: 0
PSCL5 TOTAL     ACCESS:      11132  HIT:       5566  MISS:       5566  HIT %:         50  MISS %:         50   MPKI: 0.11132
PSCL5 LOAD TRANSLATION INSTRUCTION	ACCESS:       3692  HIT:       1846  MISS:       1846  HIT %:         50  MISS %:         50  MPKI: 0.03692
PSCL5 TRANSLATION FROM L1D PREFETCHER INSTRUCTION	ACCESS:       7440  HIT:       3720  MISS:       3720  HIT %:         50  MISS %:         50  MPKI: 0.0744


PSCL4 TOTAL     ACCESS:      10938  HIT:       5464  MISS:       5474  HIT %:    49.9543  MISS %:    50.0457   MPKI: 0.10948
PSCL4 LOAD TRANSLATION INSTRUCTION	ACCESS:       2477  HIT:       1770  MISS:        707  HIT %:    71.4574  MISS %:    28.5426  MPKI: 0.01414
PSCL4 TRANSLATION FROM L1D PREFETCHER INSTRUCTION	ACCESS:       5409  HIT:       3694  MISS:       1715  HIT %:    68.2936  MISS %:    31.7064  MPKI: 0.0343
PSCL4 LOAD TRANSLATION DATA	ACCESS:       1073  HIT:          0  MISS:       1073  HIT %:          0  MISS %:        100  MPKI: 0.02146
PSCL4 TRANSLATION FROM L1D PREFETCHER DATA	ACCESS:       1979  HIT:          0  MISS:       1979  HIT %:          0  MISS %:        100  MPKI: 0.03958


PSCL3 TOTAL     ACCESS:      11052  HIT:       5521  MISS:       5531  HIT %:    49.9548  MISS %:    50.0452   MPKI: 0.11062
PSCL3 LOAD TRANSLATION INSTRUCTION	ACCESS:       2534  HIT:       1827  MISS:        707  HIT %:    72.0994  MISS %:    27.9006  MPKI: 0.01414
PSCL3 TRANSLATION FROM L1D PREFETCHER INSTRUCTION	ACCESS:       5409  HIT:       3694  MISS:       1715  HIT %:    68.2936  MISS %:    31.7064  MPKI: 0.0343
PSCL3 LOAD TRANSLATION DATA	ACCESS:       1130  HIT:          0  MISS:       1130  HIT %:          0  MISS %:        100  MPKI: 0.0226
PSCL3 TRANSLATION FROM L1D PREFETCHER DATA	ACCESS:       1979  HIT:          0  MISS:       1979  HIT %:          0  MISS %:        100  MPKI: 0.03958


PSCL2 TOTAL     ACCESS:       8787  HIT:       4350  MISS:       4437  HIT %:     49.505  MISS %:     50.495   MPKI: 0.08874
PSCL2 LOAD TRANSLATION INSTRUCTION	ACCESS:       1918  HIT:       1774  MISS:        144  HIT %:    92.4922  MISS %:    7.50782  MPKI: 0.00288
PSCL2 TRANSLATION FROM L1D PREFETCHER INSTRUCTION	ACCESS:       5116  HIT:       2576  MISS:       2540  HIT %:    50.3518  MISS %:    49.6482  MPKI: 0.0508
PSCL2 LOAD TRANSLATION DATA	ACCESS:       1717  HIT:          0  MISS:       1717  HIT %:          0  MISS %:        100  MPKI: 0.03434
PSCL2 TRANSLATION FROM L1D PREFETCHER DATA	ACCESS:         36  HIT:          0  MISS:         36  HIT %:          0  MISS %:        100  MPKI: 0.00072


LLC TOTAL     ACCESS:    1075193  HIT:    1046860  MISS:      28333  HIT %:    97.3648  MISS %:    2.63515   MPKI: 0.56666
LLC LOAD INSTRUCTION	ACCESS:      88116  HIT:      87779  MISS:        337  HIT %:    99.6175  MISS %:    0.38245  MPKI: 0.00674
LLC PREFETCH INSTRUCTION	ACCESS:     360664  HIT:     360170  MISS:        494  HIT %:     99.863  MISS %:    0.13697  MPKI: 0.00988
LLC LOAD TRANSLATION INSTRUCTION	ACCESS:        101  HIT:         82  MISS:         19  HIT %:    81.1881  MISS %:    18.8119  MPKI: 0.00038
LLC TRANSLATION FROM L1D PREFETCHER INSTRUCTION	ACCESS:        102  HIT:         88  MISS:         14  HIT %:    86.2745  MISS %:    13.7255  MPKI: 0.00028
LLC LOAD DATA	ACCESS:     147687  HIT:     144128  MISS:       3559  HIT %:    97.5902  MISS %:    2.40983  MPKI: 0.07118
LLC RFO DATA	ACCESS:      83140  HIT:      69722  MISS:      13418  HIT %:     83.861  MISS %:     16.139  MPKI: 0.26836
LLC PREFETCH DATA	ACCESS:     266155  HIT:     256051  MISS:      10104  HIT %:    96.2037  MISS %:    3.79628  MPKI: 0.20208
LLC WRITEBACK DATA	ACCESS:     127784  HIT:     127511  MISS:        273  HIT %:    99.7864  MISS %:   0.213642  MPKI: 0.00546
LLC LOAD TRANSLATION DATA	ACCESS:       1435  HIT:       1320  MISS:        115  HIT %:    91.9861  MISS %:    8.01394  MPKI: 0.0023
LLC TRANSLATION FROM L1D PREFETCHER DATA	ACCESS:          9  HIT:          9  MISS:          0  HIT %:        100  MISS %:          0  MPKI: 0

LLC AVERAGE MISS LATENCY: 160.361 cycles
LLC RQ	ACCESS:     320608	FORWARD:          0	MERGED:          0	TO_CACHE:     320590
LLC WQ	ACCESS:     127784	FORWARD:         19	MERGED:          0	TO_CACHE:     127784
LLC PQ	ACCESS:     626820	FORWARD:          0	MERGED:          0	TO_CACHE:     626819

LLC Dense regions hint to LLC: 0

RAW hits: 1926708
Loads Generated: 12632804
Loads sent to L1D: 10706096
Stores Generated: 6943833
Stores sent to L1D: 6943836
Major fault: 0 Minor fault: 2545
Allocated PAGES: 2545
I-Shadow cache 408 bytes
Touched + WorthPF tables 12288 bytes 
MMA filter 174 bytes 
FNL filter 272 bytes 
TOTAL PREFETCHER STORAGE SIZE: 31318 bytes
CPU 0 L1I next line prefetcher final stats

stream: 
stream:times selected: 1188569
stream:pref_filled: 118598
stream:pref_useful: 21705
stream:pref_late: 7889
stream:misses: 8123
stream:misses_by_poll: 0

CS: 
CS:times selected: 179418
CS:pref_filled: 53991
CS:pref_useful: 30319
CS:pref_late: 13860
CS:misses: 22577
CS:misses_by_poll: 6

CPLX: 
CPLX:times selected: 1007992
CPLX:pref_filled: 19405
CPLX:pref_useful: 3923
CPLX:pref_late: 3233
CPLX:misses: 95807
CPLX:misses_by_poll: 1

NL_L1: 
NL:times selected: 18486
NL:pref_filled: 548
NL:pref_useful: 199
NL:pref_late: 398
NL:misses: 1558
NL:misses_by_poll: 0

total selections: 2394465
total_filled: 93225
total_useful: 33297
total_late: 26842
total_polluted: 7
total_misses_after_warmup: 774154
conflicts: 5541540

test: 117076

DRAM Statistics
 CHANNEL 0
 RQ ROW_BUFFER_HIT:       9891  ROW_BUFFER_MISS:      18153
 DBUS_CONGESTED:          9
 WQ ROW_BUFFER_HIT:       1337  ROW_BUFFER_MISS:      12538  FULL:          0

 AVG_CONGESTED_CYCLE: 4

CPU 0 Branch Prediction Accuracy: 99.8223% MPKI: 0.32502 Average ROB Occupancy at Mispredict: 189.509
Branch types
NOT_BRANCH: 40852833 81.7057%
BRANCH_DIRECT_JUMP: 548747 1.09749%
BRANCH_INDIRECT: 183366 0.366732%
BRANCH_CONDITIONAL: 6185532 12.3711%
BRANCH_DIRECT_CALL: 943398 1.8868%
BRANCH_INDIRECT_CALL: 171214 0.342428%
BRANCH_RETURN: 1114612 2.22922%
BRANCH_OTHER: 0 0%

DRAM PAGES: 1048576
Allocated PAGES: 2545
Average_ROB_Occupancy: 218.693
Average_Decode_Occupancy: 26.2779
Average_FTQ_Occupancy: 8.77583
Indirect max targets: 14 Average targets: 1.14527
Branch_type:  BRANCH_DIRECT_JUMP:  Count Percentage: 2.51394 6.83068 4.03621 9.36068 2.2314 6.29142 0.267669 68.468 
Branch_type:  BRANCH_INDIRECT:  Count Percentage: 14.4773 0.804522 2.54797 0 1.33613 9.66983 2.27151 68.8927 
Branch_type:  BRANCH_CONDITIONAL:  Count Percentage: 21.2518 2.5784 1.75294 5.52861 1.49166 9.44615 3.57491 54.3755 
Branch_type:  BRANCH_DIRECT_CALL:  Count Percentage: 0.769916 1.30846 1.28201 4.55414 2.1969 2.54684 0.56934 86.7724 
Branch_type:  BRANCH_INDIRECT_CALL:  Count Percentage: 9.55435 0 2.99454 8.70743 0 2.3401 1.28496 75.1186 
Branch_type:  BRANCH_RETURN:  Count Percentage: 4.90625 0.78538 1.16408 6.19803 2.45626 9.40985 4.27704 70.8031 
Branch_type:  BRANCH_DIRECT_JUMP:  Total Count: 27556 74873 44242 102605 24459 68962 2934 750497 
Branch_type:  BRANCH_INDIRECT:  Total Count: 52995 2945 9327 0 4891 35397 8315 252186 
Branch_type:  BRANCH_CONDITIONAL:  Total Count: 2626633 318679 216656 683313 184363 1167505 441844 6720591 
Branch_type:  BRANCH_DIRECT_CALL:  Total Count: 14525 24685 24186 85917 41446 48048 10741 1637022 
Branch_type:  BRANCH_INDIRECT_CALL:  Total Count: 32761 0 10268 29857 0 8024 4406 257575 
Branch_type:  BRANCH_RETURN:  Total Count: 109422 17516 25962 138232 54781 209864 95389 1579092 
Number of unique branch instructions: 9824
Upper 32 bits: 
aaaa
ffff
ffff0000
Unique upper 32 bits: 3
Unique upper 36 bits: 3
Unique upper 40 bits: 5
Unique upper 44 bits: 32
Unique upper 48 bits: 154
Offset_3 4037
Offset_4 247
Offset_5 449
Offset_6 502
Offset_7 576
Offset_8 508
Offset_9 465
Offset_10 376
Offset_11 303
Offset_12 269
Offset_13 203
Offset_14 227
Offset_15 185
Offset_16 222
Offset_17 146
Offset_18 118
Offset_19 236
Offset_20 136
Offset_21 235
Offset_22 392
Offset_23 241
Offset_24 332
Offset_25 88
Offset_47 82
decode_dispatch_called: 25071584 67.6629
Dispatch_width: 0 13493536 53.82 36.4162
Dispatch_width: 1 895312 3.57102 2.41626
Dispatch_width: 2 922273 3.67856 2.48902
Dispatch_width: 3 588395 2.34686 1.58795
Dispatch_width: 4 4623378 18.4407 12.4775
Dispatch_width: 5 290878 1.16019 0.785018
Dispatch_width: 6 4257812 16.9826 11.4909
Empty_decode_cycles: 11982096 32.3371
ROB_full_cycles: 7208027 19.4529
Starvation_cycles_per_kilo_instr: 255.878
Starvation_cycles_per_kilo_instr_3: 206.736
Starvation_cycles_per_kilo_instr_0: 182.676
Branch_type_1  (3,1)  (4,9)  (5,37)  (6,70)  (7,114)  (8,127)  (9,122)  (10,97)  (11,67)  (12,43)  (13,5)  (14,2)  (15,3)  (16,4)  (18,1)  (19,4)  (20,2)  (21,1)  (22,3)  (23,2)  (24,10)  (25,12) 
Branch_type_2  (3,1)  (5,1)  (8,3)  (9,3)  (12,1)  (13,1)  (14,1)  (16,3)  (17,2)  (20,2)  (21,2)  (23,5)  (24,1)  (47,38) 
Branch_type_3  (3,4035)  (4,238)  (5,407)  (6,417)  (7,433)  (8,319)  (9,257)  (10,153)  (11,120)  (12,50)  (13,4) 
Branch_type_4  (6,3)  (7,8)  (8,25)  (9,51)  (10,60)  (11,59)  (12,96)  (13,88)  (14,100)  (15,87)  (16,99)  (17,65)  (18,53)  (19,115)  (20,71)  (21,124)  (22,208)  (23,136)  (24,193)  (25,72) 
Branch_type_5  (8,2)  (9,1)  (10,3)  (11,5)  (12,3)  (13,14)  (14,16)  (15,11)  (16,20)  (17,11)  (18,16)  (19,12)  (20,10)  (21,13)  (22,42)  (23,26)  (24,37) 
Branch_type_6  (5,4)  (6,12)  (7,21)  (8,32)  (9,31)  (10,63)  (11,52)  (12,76)  (13,91)  (14,108)  (15,84)  (16,96)  (17,68)  (18,48)  (19,105)  (20,51)  (21,95)  (22,139)  (23,72)  (24,91)  (25,4)  (47,44) 
Unique trigger count: 
L2BTB1 1536 4
L2BTB2 1536 4
L2BTB3 1536 4
L2BTB4 224 4
