
*** ChampSim Multicore Out-of-Order Simulator ***

Warmup Instructions: 50000000
Simulation Instructions: 50000000
Number of CPUs: 1
LLC sets: 2048
LLC ways: 16
Off-chip DRAM Size: 4096 MB Channels: 1 Width: 64-bit Data Rate: 6400 MT/s
CPU 0 runs ./micro_traces/srv344.trace.gz
.gz
ITLB has LRU replacement policy
DTLB has LRU replacement policy
STLB has LRU replacement policy
FDIP Prefetcher at L1I
L1I has LRU replacement policy
L1D has LRU replacement policy
Initialize SRRIP state for L2C
Initialize DRRIP state for LLC
Heartbeat_Variant_0 : 1297 0.31665 per_variant_size: 0 1297 0 0 0 0 0 0 0 
Heartbeat_Variant_1 : 2477 0.604736 per_variant_size: 0 610 1867 0 0 0 0 0 0 
Heartbeat_Variant_2 : 0 0 per_variant_size: 0 0 0 0 0 0 0 0 0 
Heartbeat_Variant_3 : 0 0 per_variant_size: 0 0 0 0 0 0 0 0 0 
Heartbeat_Variant_0_evicts 0 : 5726 1 : 391 2 : 0 3 : 0 
Heartbeat_Variant_1_evicts 0 : 327 1 : 0 2 : 0 3 : 0 
Heartbeat_Variant_2_evicts 0 : 0 1 : 0 2 : 0 3 : 0 
Heartbeat_Variant_3_evicts 0 : 0 1 : 0 2 : 0 3 : 0 
Heartbeat CPU 0 instructions: 10000001 cycles: 2795592 heartbeat IPC: 3.57706 cumulative IPC: 3.57706 (Simulation time: 0 hr 1 min 46 sec) 
Heartbeat_Variant_0 : 1323 0.322998 per_variant_size: 0 1323 0 0 0 0 0 0 0 
Heartbeat_Variant_1 : 2538 0.619629 per_variant_size: 0 569 1969 0 0 0 0 0 0 
Heartbeat_Variant_2 : 0 0 per_variant_size: 0 0 0 0 0 0 0 0 0 
Heartbeat_Variant_3 : 0 0 per_variant_size: 0 0 0 0 0 0 0 0 0 
Heartbeat_Variant_0_evicts 0 : 5609 1 : 142 2 : 0 3 : 0 
Heartbeat_Variant_1_evicts 0 : 144 1 : 0 2 : 0 3 : 0 
Heartbeat_Variant_2_evicts 0 : 0 1 : 0 2 : 0 3 : 0 
Heartbeat_Variant_3_evicts 0 : 0 1 : 0 2 : 0 3 : 0 
Heartbeat CPU 0 instructions: 20000001 cycles: 5591270 heartbeat IPC: 3.57695 cumulative IPC: 3.57701 (Simulation time: 0 hr 3 min 25 sec) 
Heartbeat_Variant_0 : 1362 0.33252 per_variant_size: 0 1362 0 0 0 0 0 0 0 
Heartbeat_Variant_1 : 2648 0.646484 per_variant_size: 0 505 2143 0 0 0 0 0 0 
Heartbeat_Variant_2 : 0 0 per_variant_size: 0 0 0 0 0 0 0 0 0 
Heartbeat_Variant_3 : 0 0 per_variant_size: 0 0 0 0 0 0 0 0 0 
Heartbeat_Variant_0_evicts 0 : 5890 1 : 531 2 : 0 3 : 0 
Heartbeat_Variant_1_evicts 0 : 539 1 : 0 2 : 0 3 : 0 
Heartbeat_Variant_2_evicts 0 : 0 1 : 0 2 : 0 3 : 0 
Heartbeat_Variant_3_evicts 0 : 0 1 : 0 2 : 0 3 : 0 
Heartbeat CPU 0 instructions: 30000001 cycles: 8386484 heartbeat IPC: 3.57754 cumulative IPC: 3.57718 (Simulation time: 0 hr 5 min 3 sec) 
Heartbeat_Variant_0 : 1370 0.334473 per_variant_size: 0 1370 0 0 0 0 0 0 0 
Heartbeat_Variant_1 : 2649 0.646729 per_variant_size: 0 495 2154 0 0 0 0 0 0 
Heartbeat_Variant_2 : 0 0 per_variant_size: 0 0 0 0 0 0 0 0 0 
Heartbeat_Variant_3 : 0 0 per_variant_size: 0 0 0 0 0 0 0 0 0 
Heartbeat_Variant_0_evicts 0 : 5667 1 : 162 2 : 0 3 : 0 
Heartbeat_Variant_1_evicts 0 : 156 1 : 0 2 : 0 3 : 0 
Heartbeat_Variant_2_evicts 0 : 0 1 : 0 2 : 0 3 : 0 
Heartbeat_Variant_3_evicts 0 : 0 1 : 0 2 : 0 3 : 0 
Heartbeat CPU 0 instructions: 40000000 cycles: 11181794 heartbeat IPC: 3.57742 cumulative IPC: 3.57724 (Simulation time: 0 hr 6 min 43 sec) 
Heartbeat_Variant_0 : 1370 0.334473 per_variant_size: 0 1370 0 0 0 0 0 0 0 
Heartbeat_Variant_1 : 2651 0.647217 per_variant_size: 0 498 2153 0 0 0 0 0 0 
Heartbeat_Variant_2 : 0 0 per_variant_size: 0 0 0 0 0 0 0 0 0 
Heartbeat_Variant_3 : 0 0 per_variant_size: 0 0 0 0 0 0 0 0 0 
Heartbeat_Variant_0_evicts 0 : 5755 1 : 4 2 : 0 3 : 0 
Heartbeat_Variant_1_evicts 0 : 5 1 : 0 2 : 0 3 : 0 
Heartbeat_Variant_2_evicts 0 : 0 1 : 0 2 : 0 3 : 0 
Heartbeat_Variant_3_evicts 0 : 0 1 : 0 2 : 0 3 : 0 
Heartbeat CPU 0 instructions: 50000002 cycles: 13977864 heartbeat IPC: 3.57645 cumulative IPC: 3.57708 (Simulation time: 0 hr 8 min 24 sec) 

Warmup complete CPU 0 instructions: 50000002 cycles: 13977864 (Simulation time: 0 hr 8 min 24 sec) 

*** Reached end of trace for Core: 0 Repeating trace: ./micro_traces/srv344.trace.gz
Cycle: 20000000 FTQ IN: 58160298 FTQ occupancy: 19.9734 DECODE IN: 58160284 DECODE occupancy: 52.0672 ROB IN: 58160284 ROB occupancy: 314.186 ROB OUT: 58160256
Heartbeat_Variant_0 : 1379 0.33667 per_variant_size: 0 1379 0 0 0 0 0 0 0 
Heartbeat_Variant_1 : 2653 0.647705 per_variant_size: 0 487 2166 0 0 0 0 0 0 
Heartbeat_Variant_2 : 0 0 per_variant_size: 0 0 0 0 0 0 0 0 0 
Heartbeat_Variant_3 : 0 0 per_variant_size: 0 0 0 0 0 0 0 0 0 
Heartbeat_Variant_0_evicts 0 : 5644 1 : 274 2 : 0 3 : 0 
Heartbeat_Variant_1_evicts 0 : 268 1 : 0 2 : 0 3 : 0 
Heartbeat_Variant_2_evicts 0 : 0 1 : 0 2 : 0 3 : 0 
Heartbeat_Variant_3_evicts 0 : 0 1 : 0 2 : 0 3 : 0 
Heartbeat CPU 0 instructions: 60000000 cycles: 21319242 heartbeat IPC: 1.36214 cumulative IPC: 1.36214 (Simulation time: 0 hr 10 min 16 sec) 
Heartbeat_Variant_0 : 1379 0.33667 per_variant_size: 0 1379 0 0 0 0 0 0 0 
Heartbeat_Variant_1 : 2654 0.647949 per_variant_size: 0 491 2163 0 0 0 0 0 0 
Heartbeat_Variant_2 : 0 0 per_variant_size: 0 0 0 0 0 0 0 0 0 
Heartbeat_Variant_3 : 0 0 per_variant_size: 0 0 0 0 0 0 0 0 0 
Heartbeat_Variant_0_evicts 0 : 5576 1 : 18 2 : 0 3 : 0 
Heartbeat_Variant_1_evicts 0 : 18 1 : 0 2 : 0 3 : 0 
Heartbeat_Variant_2_evicts 0 : 0 1 : 0 2 : 0 3 : 0 
Heartbeat_Variant_3_evicts 0 : 0 1 : 0 2 : 0 3 : 0 
Heartbeat CPU 0 instructions: 70000003 cycles: 28470333 heartbeat IPC: 1.39839 cumulative IPC: 1.38003 (Simulation time: 0 hr 12 min 5 sec) 
Cycle: 30000000 FTQ IN: 13846622 FTQ occupancy: 13.3513 DECODE IN: 13846607 DECODE occupancy: 34.9376 ROB IN: 13846607 ROB occupancy: 240.459 ROB OUT: 13846587
Heartbeat_Variant_0 : 1383 0.337646 per_variant_size: 0 1383 0 0 0 0 0 0 0 
Heartbeat_Variant_1 : 2659 0.64917 per_variant_size: 0 494 2165 0 0 0 0 0 0 
Heartbeat_Variant_2 : 0 0 per_variant_size: 0 0 0 0 0 0 0 0 0 
Heartbeat_Variant_3 : 0 0 per_variant_size: 0 0 0 0 0 0 0 0 0 
Heartbeat_Variant_0_evicts 0 : 5644 1 : 149 2 : 0 3 : 0 
Heartbeat_Variant_1_evicts 0 : 148 1 : 0 2 : 0 3 : 0 
Heartbeat_Variant_2_evicts 0 : 0 1 : 0 2 : 0 3 : 0 
Heartbeat_Variant_3_evicts 0 : 0 1 : 0 2 : 0 3 : 0 
Heartbeat CPU 0 instructions: 80000003 cycles: 35761597 heartbeat IPC: 1.3715 cumulative IPC: 1.37717 (Simulation time: 0 hr 13 min 56 sec) 
Cycle: 40000000 FTQ IN: 13868856 FTQ occupancy: 12.9823 DECODE IN: 13868844 DECODE occupancy: 33.9752 ROB IN: 13868824 ROB occupancy: 236.003 ROB OUT: 13868575
Heartbeat_Variant_0 : 1388 0.338867 per_variant_size: 0 1388 0 0 0 0 0 0 0 
Heartbeat_Variant_1 : 2661 0.649658 per_variant_size: 0 492 2169 0 0 0 0 0 0 
Heartbeat_Variant_2 : 0 0 per_variant_size: 0 0 0 0 0 0 0 0 0 
Heartbeat_Variant_3 : 0 0 per_variant_size: 0 0 0 0 0 0 0 0 0 
Heartbeat_Variant_0_evicts 0 : 5782 1 : 202 2 : 0 3 : 0 
Heartbeat_Variant_1_evicts 0 : 198 1 : 0 2 : 0 3 : 0 
Heartbeat_Variant_2_evicts 0 : 0 1 : 0 2 : 0 3 : 0 
Heartbeat_Variant_3_evicts 0 : 0 1 : 0 2 : 0 3 : 0 
Heartbeat CPU 0 instructions: 90000001 cycles: 42945402 heartbeat IPC: 1.39202 cumulative IPC: 1.38086 (Simulation time: 0 hr 15 min 48 sec) 
Cycle: 50000000 FTQ IN: 13843940 FTQ occupancy: 13.0614 DECODE IN: 13843884 DECODE occupancy: 34.0121 ROB IN: 13843844 ROB occupancy: 235.301 ROB OUT: 13843789
Heartbeat_Variant_0 : 1388 0.338867 per_variant_size: 0 1388 0 0 0 0 0 0 0 
Heartbeat_Variant_1 : 2665 0.650635 per_variant_size: 0 490 2175 0 0 0 0 0 0 
Heartbeat_Variant_2 : 0 0 per_variant_size: 0 0 0 0 0 0 0 0 0 
Heartbeat_Variant_3 : 0 0 per_variant_size: 0 0 0 0 0 0 0 0 0 
Heartbeat_Variant_0_evicts 0 : 5597 1 : 79 2 : 0 3 : 0 
Heartbeat_Variant_1_evicts 0 : 80 1 : 0 2 : 0 3 : 0 
Heartbeat_Variant_2_evicts 0 : 0 1 : 0 2 : 0 3 : 0 
Heartbeat_Variant_3_evicts 0 : 0 1 : 0 2 : 0 3 : 0 
Heartbeat CPU 0 instructions: 100000000 cycles: 50200470 heartbeat IPC: 1.37835 cumulative IPC: 1.38035 (Simulation time: 0 hr 17 min 54 sec) 
Finished CPU 0 instructions: 50000002 cycles: 36222607 cumulative IPC: 1.38035 (Simulation time: 0 hr 17 min 54 sec) 

ChampSim completed all CPUs

Region of Interest Statistics

CPU 0 cumulative IPC: 1.38035 instructions: 50000002 cycles: 36222607
 Fetch stage stalled: 53.3243  Sim cycles: 36222607 fetch stall cycle: 19315445
 Empty decode stage: 34.4253  Sim cycles: 36222607 fetch stall cycle: 12469734
ITLB TOTAL     ACCESS:    5858887  HIT:    5370931  MISS:     487956  HIT %:    91.6715  MISS %:    8.32848   MPKI: 9.75912
ITLB LOAD TRANSLATION INSTRUCTION	ACCESS:    5732833  HIT:    5244877  MISS:     487956  HIT %:    91.4884  MISS %:     8.5116  MPKI: 9.75912
ITLB TRANSLATION FROM L1D PREFETCHER INSTRUCTION	ACCESS:     126054  HIT:     126054  MISS:          0  HIT %:        100  MISS %:          0  MPKI: 0

ITLB AVERAGE MISS LATENCY: 9.04865 cycles
ITLB RQ	ACCESS:    7981033	FORWARD:          0	MERGED:    1681611	TO_CACHE:    6299422

DTLB TOTAL     ACCESS:    8939287  HIT:    8466865  MISS:     472422  HIT %:    94.7152  MISS %:    5.28478   MPKI: 9.44844
DTLB LOAD TRANSLATION DATA	ACCESS:    8939287  HIT:    8466865  MISS:     472422  HIT %:    94.7152  MISS %:    5.28478  MPKI: 9.44844

DTLB AVERAGE MISS LATENCY: 9.29575 cycles
DTLB RQ	ACCESS:   13296283	FORWARD:          0	MERGED:    4320098	TO_CACHE:    8976185

STLB TOTAL     ACCESS:    1218060  HIT:    1215946  MISS:       2114  HIT %:    99.8264  MISS %:   0.173555   MPKI: 0.04228
STLB LOAD TRANSLATION INSTRUCTION	ACCESS:     487956  HIT:     487683  MISS:        273  HIT %:    99.9441  MISS %:  0.0559477  MPKI: 0.00546
STLB LOAD TRANSLATION DATA	ACCESS:     472421  HIT:     470591  MISS:       1830  HIT %:    99.6126  MISS %:   0.387366  MPKI: 0.0366
STLB TRANSLATION FROM L1D PREFETCHER DATA	ACCESS:     257683  HIT:     257672  MISS:         11  HIT %:    99.9957  MISS %: 0.00426881  MPKI: 0.00022

STLB AVERAGE MISS LATENCY: 64.4238 cycles
STLB RQ	ACCESS:    1364424	FORWARD:          0	MERGED:     146327	TO_CACHE:    1218097

STLB Hit, L1D data hit: 0
STLB Hit, L2C data hit: 0
STLB Hit, LLC data hit: 0
STLB Hit, LLC data miss: 0
STLB STLB hints to L2: 0
L1D TOTAL     ACCESS:   13048596  HIT:   11891536  MISS:    1157060  HIT %:    91.1327  MISS %:    8.86731   MPKI: 23.1412
L1D LOAD DATA	ACCESS:    6554668  HIT:    5793745  MISS:     760923  HIT %:    88.3911  MISS %:    11.6089  MPKI: 15.2185
L1D RFO DATA	ACCESS:    6154491  HIT:    5864305  MISS:     290186  HIT %:     95.285  MISS %:    4.71503  MPKI: 5.80372
L1D PREFETCH DATA	ACCESS:     339437  HIT:     233486  MISS:     105951  HIT %:    68.7863  MISS %:    31.2137  MPKI: 2.11902

L1D PREFETCH  REQUESTED:     808440  ISSUED:     808440  USEFUL:      49298  USELESS:      69924
L1D USEFUL LOAD PREFETCHES:      49298 PREFETCH ISSUED TO LOWER LEVEL:     119280  ACCURACY: 41.3296
 TIMELY PREFETCHES:      49298 LATE PREFETCHES: 13282 DROPPED PREFETCHES: 2
L1D AVERAGE MISS LATENCY: 363825 cycles
L1D RQ	ACCESS:   10691241	FORWARD:          0	MERGED:    3940813	TO_CACHE:    6588884
L1D WQ	ACCESS:    6901340	FORWARD:     161896	MERGED:     193941	TO_CACHE:    6707399
L1D PQ	ACCESS:     404396	FORWARD:          0	MERGED:          0	TO_CACHE:     404044

L1D UNIQUE REGIONS ACCESSED: 0
L1D REGIONS CONFLICTS: 0
L1D Cross Page Prefetch Requests: 5941
L1D Same Page Prefetch Requests: 817313
L1D ROI Sum of L1D PQ occupancy: 5145279
L1D PREFETCHES PUSHED FROM L2C: 0
L1I TOTAL     ACCESS:    7161326  HIT:    4422912  MISS:    2738414  HIT %:    61.7611  MISS %:    38.2389   MPKI: 54.7683
L1I LOAD INSTRUCTION	ACCESS:    6490418  HIT:    3752004  MISS:    2738414  HIT %:    57.8084  MISS %:    42.1916  MPKI: 54.7683
L1I PREFETCH INSTRUCTION	ACCESS:     670908  HIT:     670908  MISS:          0  HIT %:        100  MISS %:          0  MPKI: 0

L1I PREFETCH  REQUESTED:    1608463  ISSUED:    1608463  USEFUL:          0  USELESS:          0
L1I USEFUL LOAD PREFETCHES:          0 PREFETCH ISSUED TO LOWER LEVEL:          0  ACCURACY: -nan
 TIMELY PREFETCHES:          0 LATE PREFETCHES: 0 DROPPED PREFETCHES: 0
L1I AVERAGE MISS LATENCY: 17.0621 cycles
L1I RQ	ACCESS:    9517251	FORWARD:          0	MERGED:    2711521	TO_CACHE:    6805730
L1I PQ	ACCESS:    1608463	FORWARD:          0	MERGED:     433160	TO_CACHE:    1175303

L1BTB TOTAL     ACCESS:    5677703  HIT:    2081484  MISS:    3596219  HIT %:    36.6607  MISS %:    63.3393   MPKI: 71.9244
L1BTB BRANCH_DIRECT_JUMP	ACCESS:     544284 HIT:     144579 MISS:     399705 AVERAGE STALL: 48.5346 AVERAGE FETCH STALL: 15.2945 AVERAGE FETCH QUEUE STALL: 15.1549 AVERAGE DECODE STALL: 17.1766 AVERAGE EXECUTE STALL: 2.19866e+15
L1BTB BRANCH_INDIRECT	ACCESS:     181794 HIT:      65711 MISS:     116083 AVERAGE STALL: 106.057 AVERAGE FETCH STALL: 10.7675 AVERAGE FETCH QUEUE STALL: 16.9327 AVERAGE DECODE STALL: 11.9 AVERAGE EXECUTE STALL: 65.496
L1BTB BRANCH_CONDITIONAL	ACCESS:    2739321 HIT:    1457021 MISS:    1282300 AVERAGE STALL: 51.0185 AVERAGE FETCH STALL: 21.6512 AVERAGE FETCH QUEUE STALL: 16.5117 AVERAGE DECODE STALL: 12.2304 AVERAGE EXECUTE STALL: 3.52373e+15
L1BTB BRANCH_DIRECT_CALL	ACCESS:     936020 HIT:     103924 MISS:     832096 AVERAGE STALL: 78.2725 AVERAGE FETCH STALL: 28.5755 AVERAGE FETCH QUEUE STALL: 26.2011 AVERAGE DECODE STALL: 23.0064 AVERAGE EXECUTE STALL: 9.83826e+15
L1BTB BRANCH_INDIRECT_CALL	ACCESS:     170134 HIT:      21120 MISS:     149014 AVERAGE STALL: 129.904 AVERAGE FETCH STALL: 12.6834 AVERAGE FETCH QUEUE STALL: 12.4706 AVERAGE DECODE STALL: 10.3754 AVERAGE EXECUTE STALL: 93.8873
L1BTB BRANCH_RETURN	ACCESS:    1106150 HIT:     289129 MISS:     817021 AVERAGE STALL: 46.3712 AVERAGE FETCH STALL: 16.5252 AVERAGE FETCH QUEUE STALL: 5.30085 AVERAGE DECODE STALL: 5.90466 AVERAGE EXECUTE STALL: 4.27265e+14
L1BTB BRANCH_OTHER ACCESS:          0 HIT:          0 MISS:          0 AVERAGE STALL: -nan AVERAGE FETCH STALL: -nan AVERAGE FETCH QUEUE STALL: -nan AVERAGE DECODE STALL: -nan AVERAGE EXECUTE STALL: -nan
L1BTB TOTAL ROB OCCUPANCY AT BTB MISS: 2.59598

L2BTB TOTAL     ACCESS:    3571126  HIT:    3504882  MISS:      66244  HIT %:     98.145  MISS %:    1.85499   MPKI: 1.32488
L2BTB BRANCH_DIRECT_JUMP	ACCESS:     395528 HIT:     391309 MISS:       4219 AVERAGE STALL: 48.5346 AVERAGE FETCH STALL: 15.2945 AVERAGE FETCH QUEUE STALL: 15.1549 AVERAGE DECODE STALL: 17.1766 AVERAGE EXECUTE STALL: 2.19866e+15
L2BTB BRANCH_INDIRECT	ACCESS:     105890 HIT:     103243 MISS:       2647 AVERAGE STALL: 106.057 AVERAGE FETCH STALL: 10.7675 AVERAGE FETCH QUEUE STALL: 16.9327 AVERAGE DECODE STALL: 11.9 AVERAGE EXECUTE STALL: 65.496
L2BTB BRANCH_CONDITIONAL	ACCESS:    1282300 HIT:    1277008 MISS:       5292 AVERAGE STALL: 51.0185 AVERAGE FETCH STALL: 21.6512 AVERAGE FETCH QUEUE STALL: 16.5117 AVERAGE DECODE STALL: 12.2304 AVERAGE EXECUTE STALL: 3.52373e+15
L2BTB BRANCH_DIRECT_CALL	ACCESS:     832096 HIT:     830202 MISS:       1894 AVERAGE STALL: 78.2725 AVERAGE FETCH STALL: 28.5755 AVERAGE FETCH QUEUE STALL: 26.2011 AVERAGE DECODE STALL: 23.0064 AVERAGE EXECUTE STALL: 9.83826e+15
L2BTB BRANCH_INDIRECT_CALL	ACCESS:     139499 HIT:     129300 MISS:      10199 AVERAGE STALL: 129.904 AVERAGE FETCH STALL: 12.6834 AVERAGE FETCH QUEUE STALL: 12.4706 AVERAGE DECODE STALL: 10.3754 AVERAGE EXECUTE STALL: 93.8873
L2BTB BRANCH_RETURN	ACCESS:     815813 HIT:     773820 MISS:      41993 AVERAGE STALL: 46.3712 AVERAGE FETCH STALL: 16.5252 AVERAGE FETCH QUEUE STALL: 5.30085 AVERAGE DECODE STALL: 5.90466 AVERAGE EXECUTE STALL: 4.27265e+14
L2BTB BRANCH_OTHER ACCESS:          0 HIT:          0 MISS:          0 AVERAGE STALL: -nan AVERAGE FETCH STALL: -nan AVERAGE FETCH QUEUE STALL: -nan AVERAGE DECODE STALL: -nan AVERAGE EXECUTE STALL: -nan
L2BTB TOTAL ROB OCCUPANCY AT BTB MISS: 140.929

L2C TOTAL     ACCESS:    4512301  HIT:    4022444  MISS:     489857  HIT %:     89.144  MISS %:     10.856   MPKI: 9.79714
L2C LOAD INSTRUCTION	ACCESS:    2738413  HIT:    2492733  MISS:     245680  HIT %:    91.0284  MISS %:    8.97162  MPKI: 4.9136
L2C LOAD TRANSLATION INSTRUCTION	ACCESS:        316  HIT:         82  MISS:        234  HIT %:    25.9494  MISS %:    74.0506  MPKI: 0.00468
L2C LOAD DATA	ACCESS:     747609  HIT:     663454  MISS:      84155  HIT %:    88.7434  MISS %:    11.2566  MPKI: 1.6831
L2C RFO DATA	ACCESS:     290124  HIT:     230689  MISS:      59435  HIT %:    79.5139  MISS %:    20.4861  MPKI: 1.1887
L2C PREFETCH DATA	ACCESS:     208980  HIT:     126060  MISS:      82920  HIT %:    60.3216  MISS %:    39.6784  MPKI: 1.6584
L2C WRITEBACK DATA	ACCESS:     524932  HIT:     508999  MISS:      15933  HIT %:    96.9647  MISS %:    3.03525  MPKI: 0.31866
L2C LOAD TRANSLATION DATA	ACCESS:       1904  HIT:        413  MISS:       1491  HIT %:    21.6912  MISS %:    78.3088  MPKI: 0.02982
L2C TRANSLATION FROM L1D PREFETCHER DATA	ACCESS:         23  HIT:         14  MISS:          9  HIT %:    60.8696  MISS %:    39.1304  MPKI: 0.00018

L2C PREFETCH  REQUESTED:      96774  ISSUED:      96774  USEFUL:       9037  USELESS:      74369
L2C USEFUL LOAD PREFETCHES:       9037 PREFETCH ISSUED TO LOWER LEVEL:      83405  ACCURACY: 10.8351
 TIMELY PREFETCHES:       9037 LATE PREFETCHES: 485 DROPPED PREFETCHES: 0
L2C AVERAGE MISS LATENCY: 37.6087 cycles
L2C RQ	ACCESS:    3778438	FORWARD:          0	MERGED:          0	TO_CACHE:    3778391
L2C WQ	ACCESS:     524932	FORWARD:         47	MERGED:          0	TO_CACHE:     524932
L2C PQ	ACCESS:     216054	FORWARD:          0	MERGED:       3421	TO_CACHE:     212633

L2C Dense regions hint from L2: 0
PSCL5 TOTAL     ACCESS:       4232  HIT:       2116  MISS:       2116  HIT %:         50  MISS %:         50   MPKI: 0.04232
PSCL5 LOAD TRANSLATION INSTRUCTION	ACCESS:       4188  HIT:       2094  MISS:       2094  HIT %:         50  MISS %:         50  MPKI: 0.04188
PSCL5 TRANSLATION FROM L1D PREFETCHER INSTRUCTION	ACCESS:         44  HIT:         22  MISS:         22  HIT %:         50  MISS %:         50  MPKI: 0.00044


PSCL4 TOTAL     ACCESS:       3973  HIT:       1984  MISS:       1989  HIT %:    49.9371  MISS %:    50.0629   MPKI: 0.03978
PSCL4 LOAD TRANSLATION INSTRUCTION	ACCESS:       3674  HIT:       1963  MISS:       1711  HIT %:    53.4295  MISS %:    46.5705  MPKI: 0.03422
PSCL4 TRANSLATION FROM L1D PREFETCHER INSTRUCTION	ACCESS:         41  HIT:         21  MISS:         20  HIT %:    51.2195  MISS %:    48.7805  MPKI: 0.0004
PSCL4 LOAD TRANSLATION DATA	ACCESS:        257  HIT:          0  MISS:        257  HIT %:          0  MISS %:        100  MPKI: 0.00514
PSCL4 TRANSLATION FROM L1D PREFETCHER DATA	ACCESS:          1  HIT:          0  MISS:          1  HIT %:          0  MISS %:        100  MPKI: 2e-05


PSCL3 TOTAL     ACCESS:       3979  HIT:       1987  MISS:       1992  HIT %:    49.9372  MISS %:    50.0628   MPKI: 0.03984
PSCL3 LOAD TRANSLATION INSTRUCTION	ACCESS:       3677  HIT:       1966  MISS:       1711  HIT %:    53.4675  MISS %:    46.5325  MPKI: 0.03422
PSCL3 TRANSLATION FROM L1D PREFETCHER INSTRUCTION	ACCESS:         41  HIT:         21  MISS:         20  HIT %:    51.2195  MISS %:    48.7805  MPKI: 0.0004
PSCL3 LOAD TRANSLATION DATA	ACCESS:        260  HIT:          0  MISS:        260  HIT %:          0  MISS %:        100  MPKI: 0.0052
PSCL3 TRANSLATION FROM L1D PREFETCHER DATA	ACCESS:          1  HIT:          0  MISS:          1  HIT %:          0  MISS %:        100  MPKI: 2e-05


PSCL2 TOTAL     ACCESS:       4113  HIT:       1998  MISS:       2115  HIT %:    48.5777  MISS %:    51.4223   MPKI: 0.0423
PSCL2 LOAD TRANSLATION INSTRUCTION	ACCESS:       2256  HIT:       1977  MISS:        279  HIT %:     87.633  MISS %:     12.367  MPKI: 0.00558
PSCL2 TRANSLATION FROM L1D PREFETCHER INSTRUCTION	ACCESS:         21  HIT:         21  MISS:          0  HIT %:        100  MISS %:          0  MPKI: 0
PSCL2 LOAD TRANSLATION DATA	ACCESS:       1815  HIT:          0  MISS:       1815  HIT %:          0  MISS %:        100  MPKI: 0.0363
PSCL2 TRANSLATION FROM L1D PREFETCHER DATA	ACCESS:         21  HIT:          0  MISS:         21  HIT %:          0  MISS %:        100  MPKI: 0.00042


LLC TOTAL     ACCESS:     557742  HIT:     532858  MISS:      24884  HIT %:    95.5384  MISS %:    4.46156   MPKI: 0.49768
LLC LOAD INSTRUCTION	ACCESS:     245679  HIT:     244736  MISS:        943  HIT %:    99.6162  MISS %:   0.383834  MPKI: 0.01886
LLC LOAD TRANSLATION INSTRUCTION	ACCESS:        234  HIT:        202  MISS:         32  HIT %:    86.3248  MISS %:    13.6752  MPKI: 0.00064
LLC LOAD DATA	ACCESS:      83682  HIT:      80590  MISS:       3092  HIT %:    96.3051  MISS %:    3.69494  MPKI: 0.06184
LLC RFO DATA	ACCESS:      59418  HIT:      48260  MISS:      11158  HIT %:    81.2212  MISS %:    18.7788  MPKI: 0.22316
LLC PREFETCH DATA	ACCESS:      83403  HIT:      74169  MISS:       9234  HIT %:    88.9285  MISS %:    11.0715  MPKI: 0.18468
LLC WRITEBACK DATA	ACCESS:      83826  HIT:      83491  MISS:        335  HIT %:    99.6004  MISS %:   0.399637  MPKI: 0.0067
LLC LOAD TRANSLATION DATA	ACCESS:       1491  HIT:       1401  MISS:         90  HIT %:    93.9638  MISS %:    6.03622  MPKI: 0.0018
LLC TRANSLATION FROM L1D PREFETCHER DATA	ACCESS:          9  HIT:          9  MISS:          0  HIT %:        100  MISS %:          0  MPKI: 0

LLC AVERAGE MISS LATENCY: 168.779 cycles
LLC RQ	ACCESS:     390519	FORWARD:          0	MERGED:          0	TO_CACHE:     390513
LLC WQ	ACCESS:      83826	FORWARD:          8	MERGED:          0	TO_CACHE:      83826
LLC PQ	ACCESS:      83405	FORWARD:          0	MERGED:          0	TO_CACHE:      83403

LLC Dense regions hint to LLC: 0

RAW hits: 1924576
Loads Generated: 12615818
Loads sent to L1D: 10691241
Stores Generated: 6901322
Stores sent to L1D: 6901340
Major fault: 0 Minor fault: 2256
Allocated PAGES: 2256

stream: 
stream:times selected: 1264291
stream:pref_filled: 126298
stream:pref_useful: 28947
stream:pref_late: 9099
stream:misses: 10643
stream:misses_by_poll: 0

CS: 
CS:times selected: 198964
CS:pref_filled: 73754
CS:pref_useful: 50329
CS:pref_late: 9487
CS:misses: 24607
CS:misses_by_poll: 6

CPLX: 
CPLX:times selected: 1064117
CPLX:pref_filled: 24900
CPLX:pref_useful: 7614
CPLX:pref_late: 3749
CPLX:misses: 129017
CPLX:misses_by_poll: 1

NL_L1: 
NL:times selected: 13159
NL:pref_filled: 1093
NL:pref_useful: 285
NL:pref_late: 527
NL:misses: 2130
NL:misses_by_poll: 0

total selections: 2540531
total_filled: 105951
total_useful: 49298
total_late: 25064
total_polluted: 7
total_misses_after_warmup: 795141
conflicts: 5480243

test: 121091

DRAM Statistics
 CHANNEL 0
 RQ ROW_BUFFER_HIT:       8306  ROW_BUFFER_MISS:      16226
 DBUS_CONGESTED:          6
 WQ ROW_BUFFER_HIT:       1448  ROW_BUFFER_MISS:      10486  FULL:          0

 AVG_CONGESTED_CYCLE: 2

CPU 0 Branch Prediction Accuracy: 99.822% MPKI: 0.32584 Average ROB Occupancy at Mispredict: 191.985
Branch types
NOT_BRANCH: 40848569 81.6971%
BRANCH_DIRECT_JUMP: 544284 1.08857%
BRANCH_INDIRECT: 181794 0.363588%
BRANCH_CONDITIONAL: 6212966 12.4259%
BRANCH_DIRECT_CALL: 936020 1.87204%
BRANCH_INDIRECT_CALL: 170134 0.340268%
BRANCH_RETURN: 1106150 2.2123%
BRANCH_OTHER: 0 0%

DRAM PAGES: 1048576
Allocated PAGES: 2256
Average_ROB_Occupancy: 238.127
Average_Decode_Occupancy: 34.1835
Average_FTQ_Occupancy: 13.1007
Indirect max targets: 14 Average targets: 1.14966
Branch_type:  BRANCH_DIRECT_JUMP:  Count Percentage: 3.69274 6.211 3.82575 8.48133 2.41593 6.34667 1.90805 67.1185 
Branch_type:  BRANCH_INDIRECT:  Count Percentage: 11.7499 3.39815 2.62879 9.70296 3.33225 2.7971 1.72626 64.6646 
Branch_type:  BRANCH_CONDITIONAL:  Count Percentage: 22.3497 5.96069 2.06507 5.00982 5.80974 3.9088 2.68616 52.21 
Branch_type:  BRANCH_DIRECT_CALL:  Count Percentage: 0.832199 1.22235 0.766709 4.50145 2.37922 2.8679 4.34852 83.0816 
Branch_type:  BRANCH_INDIRECT_CALL:  Count Percentage: 9.51523 0 2.98157 4.58775 0.000883166 2.36512 3.84148 76.708 
Branch_type:  BRANCH_RETURN:  Count Percentage: 4.61022 3.87854 2.00544 4.49133 7.15218 4.0406 3.76649 70.0552 
Branch_type:  BRANCH_DIRECT_JUMP:  Total Count: 40201 67616 41649 92332 26301 69093 20772 730686 
Branch_type:  BRANCH_INDIRECT:  Total Count: 42793 12376 9574 35338 12136 10187 6287 235507 
Branch_type:  BRANCH_CONDITIONAL:  Total Count: 2776641 740534 256556 622401 721780 485615 333719 6486382 
Branch_type:  BRANCH_DIRECT_CALL:  Total Count: 15541 22827 14318 84063 44431 53557 81207 1551519 
Branch_type:  BRANCH_INDIRECT_CALL:  Total Count: 32322 0 10128 15584 3 8034 13049 260567 
Branch_type:  BRANCH_RETURN:  Total Count: 101791 85636 44279 99166 157916 89214 83162 1546778 
Number of unique branch instructions: 10002
Upper 32 bits: 
aaaa
ffff
ffff0000
Unique upper 32 bits: 3
Unique upper 36 bits: 3
Unique upper 40 bits: 5
Unique upper 44 bits: 32
Unique upper 48 bits: 154
Variant_0 : 1388 0.338867
Variant_1 : 2665 0.650635
Variant_2 : 0 0
Variant_3 : 0 0
Offset_3 4142
Offset_4 247
Offset_5 449
Offset_6 516
Offset_7 592
Offset_8 516
Offset_9 468
Offset_10 395
Offset_11 327
Offset_12 266
Offset_13 198
Offset_14 225
Offset_15 190
Offset_16 230
Offset_17 150
Offset_18 129
Offset_19 240
Offset_20 137
Offset_21 235
Offset_22 399
Offset_23 241
Offset_24 329
Offset_25 88
Offset_47 80
decode_dispatch_called: 25530055 70.481
Dispatch_width: 0 13688063 53.6155 37.7887
Dispatch_width: 1 962968 3.7719 2.65847
Dispatch_width: 2 834023 3.26683 2.30249
Dispatch_width: 3 497140 1.94727 1.37246
Dispatch_width: 4 5630397 22.054 15.5439
Dispatch_width: 5 148804 0.582858 0.410804
Dispatch_width: 6 3768660 14.7617 10.4042
Empty_decode_cycles: 10692552 29.519
ROB_full_cycles: 8905959 24.5867
Starvation_cycles_per_kilo_instr: 235.48
Starvation_cycles_per_kilo_instr_3: 177.688
Starvation_cycles_per_kilo_instr_0: 154.747
Branch_type_1  (3,1)  (4,7)  (5,36)  (6,75)  (7,117)  (8,127)  (9,125)  (10,101)  (11,78)  (12,43)  (13,7)  (14,2)  (15,3)  (16,4)  (18,1)  (19,4)  (20,2)  (21,1)  (22,3)  (23,2)  (24,10)  (25,12) 
Branch_type_2  (3,1)  (5,1)  (8,3)  (9,3)  (12,1)  (13,1)  (14,1)  (16,3)  (17,2)  (20,2)  (21,2)  (23,5)  (24,1)  (47,36) 
Branch_type_3  (3,4140)  (4,240)  (5,408)  (6,425)  (7,443)  (8,326)  (9,257)  (10,165)  (11,136)  (12,49)  (13,7) 
Branch_type_4  (6,4)  (7,8)  (8,26)  (9,51)  (10,61)  (11,57)  (12,96)  (13,83)  (14,99)  (15,91)  (16,105)  (17,66)  (18,59)  (19,117)  (20,71)  (21,124)  (22,214)  (23,136)  (24,190)  (25,72) 
Branch_type_5  (8,2)  (9,1)  (10,3)  (11,5)  (12,3)  (13,13)  (14,16)  (15,11)  (16,20)  (17,13)  (18,16)  (19,12)  (20,10)  (21,13)  (22,42)  (23,26)  (24,36) 
Branch_type_6  (5,4)  (6,12)  (7,24)  (8,32)  (9,31)  (10,65)  (11,51)  (12,74)  (13,87)  (14,107)  (15,85)  (16,98)  (17,69)  (18,53)  (19,107)  (20,52)  (21,95)  (22,140)  (23,72)  (24,92)  (25,4)  (47,44) 
Unique trigger count: 
Variant_0_evicts_0 : 0
Variant_0_evicts_1 : 0
Variant_0_evicts_2 : 0
Variant_0_evicts_3 : 0
Variant_1_evicts_0 : 0
Variant_1_evicts_1 : 0
Variant_1_evicts_2 : 0
Variant_1_evicts_3 : 0
Variant_2_evicts_0 : 0
Variant_2_evicts_1 : 0
Variant_2_evicts_2 : 0
Variant_2_evicts_3 : 0
Variant_3_evicts_0 : 0
Variant_3_evicts_1 : 0
Variant_3_evicts_2 : 0
Variant_3_evicts_3 : 0
BTB PER SET UNIQUE ADDR: 11 9 7 14 14 11 9 13 8 11 12 14 11 14 10 8 11 11 9 10 9 11 13 13 9 10 11 11 11 8 10 13 14 8 5 9 10 14 8 9 10 10 13 10 10 8 15 10 8 10 13 11 12 8 8 7 11 9 9 15 7 8 10 15 9 12 9 7 10 12 11 10 15 9 11 7 9 12 11 16 10 10 10 17 11 12 11 11 8 16 5 9 9 12 5 13 9 12 13 14 16 17 10 12 13 11 8 12 6 10 8 18 11 10 9 7 9 8 8 10 14 11 8 8 11 8 6 13 21 13 8 12 11 11 8 12 13 12 7 18 10 15 10 13 8 9 12 7 8 10 9 12 7 10 11 11 13 16 9 14 9 10 11 14 12 11 13 8 13 9 8 9 8 8 12 10 11 10 14 7 9 8 11 12 13 17 3 8 11 8 11 13 12 11 13 8 8 10 9 10 12 9 6 12 12 11 12 11 12 13 10 13 10 10 11 12 8 11 9 13 6 11 9 8 10 9 13 9 7 16 11 6 10 14 12 13 13 10 12 8 8 14 14 10 11 11 9 9 12 13 13 14 11 8 10 13 8 9 9 15 10 12 6 13 11 6 8 10 11 10 8 14 6 7 7 7 11 12 8 13 10 12 10 7 14 9 9 11 17 11 7 12 11 11 11 15 11 11 11 11 11 11 9 17 13 11 10 9 15 8 10 11 9 15 11 9 15 15 11 13 9 13 7 11 12 12 10 8 11 8 8 13 9 11 10 15 10 7 7 14 7 11 5 10 14 10 10 9 6 8 11 6 11 7 12 11 7 9 9 8 11 13 11 14 10 12 8 13 13 13 8 7 12 9 10 14 10 15 12 12 10 7 7 9 6 16 18 12 11 8 11 9 12 11 10 8 8 6 11 10 8 12 12 15 9 11 14 12 10 8 11 7 9 12 12 12 10 13 15 13 7 12 12 10 13 10 12 8 13 11 16 12 12 10 11 10 11 8 9 13 13 8 13 12 12 11 10 14 16 13 11 17 9 12 10 11 10 12 10 14 6 9 10 7 15 13 9 11 6 13 14 12 8 8 15 15 9 13 9 14 11 15 11 9 9 16 15 13 15 11 10 10 9 8 10 12 11 9 8 15 13 12 11 15 7 9 9 13 12 11 9 14 7 9 13 16 12 12 10 7 9 10 13 8 9 8 14 9 7 12 12 13 14 9 13 17 12 10 9 13 12 10 12 13 15 16 9 12 11 9 13 16 13 10 9 11 14 9 16 9 9 13 7 10 11 14 12 14 10 10 11 16 13 11 8 14 10 12 9 11 13 13 5 12 16 7 8 10 10 13 9 9 11 8 12 9 8 10 11 12 8 9 10 5 11 11 17 10 10 11 17 13 10 11 5 8 9 9 9 11 14 9 9 10 12 9 11 13 11 9 7 16 10 9 9 14 10 12 7 12 10 13 13 14 10 11 7 10 15 7 9 11 6 13 13 11 10 13 11 12 13 8 12 13 12 12 10 11 14 11 12 10 10 11 10 9 10 12 12 10 9 13 11 14 8 9 13 11 13 11 12 11 10 8 12 10 9 12 10 13 8 10 11 18 10 12 11 11 10 9 9 13 11 9 8 10 19 11 6 11 16 11 9 11 10 10 8 12 11 8 14 9 12 13 11 13 14 11 15 8 10 9 9 12 14 19 11 12 13 8 11 10 13 15 9 11 11 12 10 11 10 10 9 8 12 11 8 14 14 12 13 12 14 8 11 8 9 13 10 11 7 11 10 8 10 10 8 11 7 7 5 6 10 11 16 15 9 7 10 13 16 12 11 14 17 10 15 11 16 11 10 11 8 14 12 16 9 18 6 20 11 14 11 12 11 11 8 10 10 16 13 12 12 10 9 12 11 11 10 11 11 9 10 13 12 14 12 11 11 12 14 9 12 12 15 12 17 9 9 16 9 15 11 9 8 8 10 9 10 9 10 14 11 11 13 8 15 12 8 10 10 8 10 13 12 12 9 10 13 9 10 10 10 10 12 10 15 13 10 8 10 12 13 9 8 14 9 14 14 17 12 12 8 17 14 10 18 12 10 11 11 10 9 12 8 8 7 10 8 11 12 15 11 12 8 18 11 10 15 10 8 13 11 10 10 13 11 16 12 10 8 10 7 11 9 8 9 14 11 10 13 15 15 13 8 11 15 10 9 13 10 12 12 10 12 9 11 11 11 17 8 9 13 12 11 10 9 12 12 13 11 14 12 12 10 9 10 12 14 6 9 15 9 10 14 9 8 15 13 12 11 16 13 8 13 9 8 8 7 10 7 11 12 10 
BTB PER SET COUNT: 1004 11 1871 20 809 14 1445 18 1456 12 15 453 14783 1076 11 11 1214 14 9 14 10 447 748 122 11 11 16 12 250 9 12 18 16 13 6 9 17 20 10 18 11 13 17 14 406 9 24 15 14 15 15 87 20 9 9 247 16 10 451 23 7 12 14 19 9 241 10 7 13 13 103 650 23 10 15 7 9 294 13 22 1023 15 19 39 13 17 13 14 14 22 8 903 515 38 5 17 776 17 19 17 27 860 10 15 314 14 11 20 6 1282 8 28 15 17 13 10 10 10 12 333 16 15 10 8 16 74 6 45 33 1002 10 2115 13 11 8 13 640 15 7 28 19 22 12 23 10 9 15 9 10 36 9 245 90 14 14 14 1052 28 11 20 9 13 17 16 55 617 25 8 17 12 11 11 8 14 17 12 16 12 16 1017 15 10 783 15 15 47 3 8 754 1015 11 16 16 14 16 8 9 13 12 14 17 13 948 16 14 13 19 14 943 449 11 16 11 14 14 409 8 14 2898 17 7 12 12 8 17 19 18 14 10 27 13 6 10 21 14 14 15 22 56 11 8 19 249 15 20 24 9 10 166 17 19 23 15 8 13 17 8 10 10 23 266 15 6 20 14 9 9 11 32 12 11 20 7 7 7 8 12 18 8 751 15 16 12 8 18 12 11 19 28 14 7 14 12 16 16 18 16 13 12 474 15 11 10 29 17 15 15 9 20 12 12 19 10 18 1459 11 19 24 20 17 12 2282 9 13 15 19 12 11 17 8 18 21 57 13 12 27 12 11 8 175 7 1357 6 41 19 11 14 13 6 110 14 6 15 10 14 13 12 12 129 10 16 15 14 20 13 2411 9 19 25 19 657 330 19 1143 941 22 17 20 14 411 653 8 9 10 6 19 24 15 16 1135 14 11 13 389 12 1020 8 8 1066 16 11 13 25 18 12 12 19 515 14 8 12 7 10 16 14 16 10 14 23 24 8 18 15 18 18 13 102 12 22 1063 28 13 13 12 19 27 17 29 11 14 939 11 28 25 2405 13 455 21 23 21 1022 2238 9 14 516 22 14 21 14 24 37 303 17 7 24 16 10 14 8 22 21 14 9 8 27 24 21 17 10 18 11 28 15 10 10 19 19 19 33 11 10 325 6699 43 15 25 1507 945 10 19 17 15 14 21 13 12 10 19 14 13 11 861 553 11 18 21 16 17 16 10 9 10 21 8 11 9 19 1264 11 1472 28 21 22 10 18 22 17 1026 13 22 16 12 40 19 19 22 11 15 22 1022 14 19 221 24 11 15 20 9 35 10 12 102 8 16 15 23 140 17 14 16 18 21 17 11 203 19 10 15 12 14 14 16 6 1398 26 9 8 18 10 13 14 17 11 8 16 12 9 335 259 13 11 11 10 6 19 14 29 210 11 13 26 18 21 13 5 8 10 13 11 12 19 12 11 283 21 11 14 25 1067 12 13 23 11 9 9 18 11 289 12 13 12 16 18 19 13 175 275 12 561 7 10 21 8 21 18 519 15 16 15 129 15 8 12 25 5493 17 15 12 1800 18 14 14 955 12 470 846 12 14 15 12 11 18 20 452 1439 9 15 20 17 17 17 14 10 9 2407 10 10 2336 11 19 12 14 1457 24 14 18 13 17 12 11 14 127 548 11 14 144 1038 13 7 20 522 966 10 1960 14 14 11 17 11 10 20 5919 17 136 20 1395 26 14 19 8 838 12 10 17 222 30 17 18 15 15 1462 11 17 1271 10 15 13 18 15 15 16 18 11 374 644 14 10 14 23 143 17 231 24 9 14 10 10 586 14 16 1510 22 32 9 13 14 11 11 7 7 6 690 11 12 18 394 10 7 10 85 18 14 12 124 359 18 21 11 20 16 15 2135 13 1036 25 1393 16 2553 10 636 15 796 15 15 691 17 12 14 14 970 18 16 15 16 47 1894 15 15 1015 15 15 235 10 19 19 15 84 13 11 8573 25 1393 659 22 233 16 25 11 12 21 1018 24 11 12 10 9 13 11 12 9 506 32 15 15 16 9 20 26 8 15 10 11 292 17 347 13 16 13 14 12 15 15 434 12 14 16 27 19 15 8 11 18 18 328 11 17 10 20 17 191 17 538 13 30 31 13 188 27 11 55 15 1028 519 23 10 778 8 13 8 34 19 19 1674 15 44 208 18 13 23 15 9 1641 20 11 14 19 12 20 14 12 375 19 947 1056 15 10 10 15 16 13 23 19 539 16 9 11 1461 14 54 17 11 317 16 19 12 9 13 15 420 516 8 9 544 502 16 33 1364 625 15 19 16 891 20 14 128 13 13 1467 27 6 10 460 14 14 26 9 12 37 24 28 518 609 18 11 21 11 10 11 12 13 7 40 14 12 
To predecode: 0
Predecoding something: 0
Predecode request dropped: 0
sizeofblock_0 0
sizeofblock_1 53324
sizeofblock_2 83635
sizeofblock_3 0
sizeofblock_4 0
sizeofblock_5 0
sizeofblock_6 0
sizeofblock_7 0
sizeofblock_8 0
Variant_0 Correct: 1595302 Incorrect: 0 Accuracy: 1
Variant_1 Correct: 5675382 Incorrect: 0 Accuracy: 1
Variant_2 Correct: 0 Incorrect: 0 Accuracy: -nan
Variant_3 Correct: 0 Incorrect: 0 Accuracy: -nan
