
*** ChampSim Multicore Out-of-Order Simulator ***

Warmup Instructions: 50000000
Simulation Instructions: 50000000
Number of CPUs: 1
LLC sets: 2048
LLC ways: 16
Off-chip DRAM Size: 4096 MB Channels: 1 Width: 64-bit Data Rate: 6400 MT/s
CPU 0 runs ./micro_traces/srv344.trace.gz
.gz
ITLB has LRU replacement policy
DTLB has LRU replacement policy
STLB has LRU replacement policy
FDIP Prefetcher at L1I
L1I has LRU replacement policy
L1D has LRU replacement policy
Initialize SRRIP state for L2C
Initialize DRRIP state for LLC
Heartbeat_Variant_0 : 1297 0.31665 per_variant_size: 0 1297 0 0 0 0 0 0 0 
Heartbeat_Variant_1 : 1191 0.290771 per_variant_size: 0 617 574 0 0 0 0 0 0 
Heartbeat_Variant_2 : 1275 0.311279 per_variant_size: 0 527 362 214 172 0 0 0 0 
Heartbeat_Variant_3 : 0 0 per_variant_size: 0 0 0 0 0 0 0 0 0 
Heartbeat_Variant_0_evicts 0 : 5735 1 : 176 2 : 216 3 : 0 
Heartbeat_Variant_1_evicts 0 : 168 1 : 0 2 : 353 3 : 0 
Heartbeat_Variant_2_evicts 0 : 175 1 : 349 2 : 0 3 : 0 
Heartbeat_Variant_3_evicts 0 : 0 1 : 0 2 : 0 3 : 0 
Heartbeat CPU 0 instructions: 10000001 cycles: 2795587 heartbeat IPC: 3.57707 cumulative IPC: 3.57707 (Simulation time: 0 hr 1 min 46 sec) 
Heartbeat_Variant_0 : 1325 0.323486 per_variant_size: 0 1325 0 0 0 0 0 0 0 
Heartbeat_Variant_1 : 1206 0.294434 per_variant_size: 0 592 614 0 0 0 0 0 0 
Heartbeat_Variant_2 : 1304 0.318359 per_variant_size: 0 513 379 235 177 0 0 0 0 
Heartbeat_Variant_3 : 0 0 per_variant_size: 0 0 0 0 0 0 0 0 0 
Heartbeat_Variant_0_evicts 0 : 5615 1 : 59 2 : 68 3 : 0 
Heartbeat_Variant_1_evicts 0 : 55 1 : 0 2 : 240 3 : 0 
Heartbeat_Variant_2_evicts 0 : 64 1 : 245 2 : 0 3 : 0 
Heartbeat_Variant_3_evicts 0 : 0 1 : 0 2 : 0 3 : 0 
Heartbeat CPU 0 instructions: 20000001 cycles: 5591271 heartbeat IPC: 3.57694 cumulative IPC: 3.577 (Simulation time: 0 hr 3 min 25 sec) 
Heartbeat_Variant_0 : 1368 0.333984 per_variant_size: 0 1368 0 0 0 0 0 0 0 
Heartbeat_Variant_1 : 1268 0.30957 per_variant_size: 0 582 686 0 0 0 0 0 0 
Heartbeat_Variant_2 : 1355 0.330811 per_variant_size: 0 531 368 245 211 0 0 0 0 
Heartbeat_Variant_3 : 0 0 per_variant_size: 0 0 0 0 0 0 0 0 0 
Heartbeat_Variant_0_evicts 0 : 5899 1 : 249 2 : 233 3 : 0 
Heartbeat_Variant_1_evicts 0 : 248 1 : 0 2 : 434 3 : 0 
Heartbeat_Variant_2_evicts 0 : 241 1 : 416 2 : 0 3 : 0 
Heartbeat_Variant_3_evicts 0 : 0 1 : 0 2 : 0 3 : 0 
Heartbeat CPU 0 instructions: 30000001 cycles: 8386394 heartbeat IPC: 3.57766 cumulative IPC: 3.57722 (Simulation time: 0 hr 5 min 4 sec) 
Heartbeat_Variant_0 : 1374 0.335449 per_variant_size: 0 1374 0 0 0 0 0 0 0 
Heartbeat_Variant_1 : 1268 0.30957 per_variant_size: 0 584 684 0 0 0 0 0 0 
Heartbeat_Variant_2 : 1363 0.332764 per_variant_size: 0 540 366 249 208 0 0 0 0 
Heartbeat_Variant_3 : 0 0 per_variant_size: 0 0 0 0 0 0 0 0 0 
Heartbeat_Variant_0_evicts 0 : 5635 1 : 94 2 : 106 3 : 0 
Heartbeat_Variant_1_evicts 0 : 95 1 : 0 2 : 296 3 : 0 
Heartbeat_Variant_2_evicts 0 : 103 1 : 300 2 : 0 3 : 0 
Heartbeat_Variant_3_evicts 0 : 0 1 : 0 2 : 0 3 : 0 
Heartbeat CPU 0 instructions: 40000000 cycles: 11181655 heartbeat IPC: 3.57748 cumulative IPC: 3.57729 (Simulation time: 0 hr 6 min 43 sec) 
Heartbeat_Variant_0 : 1374 0.335449 per_variant_size: 0 1374 0 0 0 0 0 0 0 
Heartbeat_Variant_1 : 1269 0.309814 per_variant_size: 0 582 687 0 0 0 0 0 0 
Heartbeat_Variant_2 : 1363 0.332764 per_variant_size: 0 538 368 254 203 0 0 0 0 
Heartbeat_Variant_3 : 0 0 per_variant_size: 0 0 0 0 0 0 0 0 0 
Heartbeat_Variant_0_evicts 0 : 5757 1 : 7 2 : 4 3 : 0 
Heartbeat_Variant_1_evicts 0 : 7 1 : 0 2 : 202 3 : 0 
Heartbeat_Variant_2_evicts 0 : 4 1 : 202 2 : 0 3 : 0 
Heartbeat_Variant_3_evicts 0 : 0 1 : 0 2 : 0 3 : 0 
Heartbeat CPU 0 instructions: 50000002 cycles: 13977685 heartbeat IPC: 3.5765 cumulative IPC: 3.57713 (Simulation time: 0 hr 8 min 24 sec) 

Warmup complete CPU 0 instructions: 50000002 cycles: 13977685 (Simulation time: 0 hr 8 min 24 sec) 

*** Reached end of trace for Core: 0 Repeating trace: ./micro_traces/srv344.trace.gz
Cycle: 20000000 FTQ IN: 58232327 FTQ occupancy: 20.5037 DECODE IN: 58232182 DECODE occupancy: 53.1968 ROB IN: 58232122 ROB occupancy: 318.075 ROB OUT: 58231774
Heartbeat_Variant_0 : 1380 0.336914 per_variant_size: 0 1380 0 0 0 0 0 0 0 
Heartbeat_Variant_1 : 1266 0.309082 per_variant_size: 0 576 690 0 0 0 0 0 0 
Heartbeat_Variant_2 : 1375 0.335693 per_variant_size: 0 551 372 257 195 0 0 0 0 
Heartbeat_Variant_3 : 0 0 per_variant_size: 0 0 0 0 0 0 0 0 0 
Heartbeat_Variant_0_evicts 0 : 5645 1 : 148 2 : 132 3 : 0 
Heartbeat_Variant_1_evicts 0 : 148 1 : 0 2 : 324 3 : 0 
Heartbeat_Variant_2_evicts 0 : 129 1 : 330 2 : 0 3 : 0 
Heartbeat_Variant_3_evicts 0 : 0 1 : 0 2 : 0 3 : 0 
Heartbeat CPU 0 instructions: 60000000 cycles: 21257290 heartbeat IPC: 1.3737 cumulative IPC: 1.3737 (Simulation time: 0 hr 10 min 21 sec) 
Heartbeat_Variant_0 : 1380 0.336914 per_variant_size: 0 1380 0 0 0 0 0 0 0 
Heartbeat_Variant_1 : 1269 0.309814 per_variant_size: 0 581 688 0 0 0 0 0 0 
Heartbeat_Variant_2 : 1372 0.334961 per_variant_size: 0 546 376 252 198 0 0 0 0 
Heartbeat_Variant_3 : 0 0 per_variant_size: 0 0 0 0 0 0 0 0 0 
Heartbeat_Variant_0_evicts 0 : 5573 1 : 1 2 : 5 3 : 0 
Heartbeat_Variant_1_evicts 0 : 2 1 : 0 2 : 200 3 : 0 
Heartbeat_Variant_2_evicts 0 : 4 1 : 198 2 : 0 3 : 0 
Heartbeat_Variant_3_evicts 0 : 0 1 : 0 2 : 0 3 : 0 
Heartbeat CPU 0 instructions: 70000003 cycles: 28353064 heartbeat IPC: 1.40929 cumulative IPC: 1.39127 (Simulation time: 0 hr 12 min 14 sec) 
Cycle: 30000000 FTQ IN: 13947943 FTQ occupancy: 15.1679 DECODE IN: 13948088 DECODE occupancy: 38.7299 ROB IN: 13948148 ROB occupancy: 251.376 ROB OUT: 13948487
Heartbeat_Variant_0 : 1380 0.336914 per_variant_size: 0 1380 0 0 0 0 0 0 0 
Heartbeat_Variant_1 : 1284 0.313477 per_variant_size: 0 599 685 0 0 0 0 0 0 
Heartbeat_Variant_2 : 1373 0.335205 per_variant_size: 0 541 384 253 195 0 0 0 0 
Heartbeat_Variant_3 : 0 0 per_variant_size: 0 0 0 0 0 0 0 0 0 
Heartbeat_Variant_0_evicts 0 : 5666 1 : 100 2 : 113 3 : 0 
Heartbeat_Variant_1_evicts 0 : 96 1 : 0 2 : 307 3 : 0 
Heartbeat_Variant_2_evicts 0 : 119 1 : 294 2 : 0 3 : 0 
Heartbeat_Variant_3_evicts 0 : 0 1 : 0 2 : 0 3 : 0 
Heartbeat CPU 0 instructions: 80000003 cycles: 35597782 heartbeat IPC: 1.38032 cumulative IPC: 1.3876 (Simulation time: 0 hr 14 min 0 sec) 
Cycle: 40000000 FTQ IN: 13973517 FTQ occupancy: 14.7234 DECODE IN: 13973510 DECODE occupancy: 37.6523 ROB IN: 13973510 ROB occupancy: 246.553 ROB OUT: 13973513
Heartbeat_Variant_0 : 1390 0.339355 per_variant_size: 0 1390 0 0 0 0 0 0 0 
Heartbeat_Variant_1 : 1293 0.315674 per_variant_size: 0 613 680 0 0 0 0 0 0 
Heartbeat_Variant_2 : 1367 0.33374 per_variant_size: 0 515 415 245 192 0 0 0 0 
Heartbeat_Variant_3 : 0 0 per_variant_size: 0 0 0 0 0 0 0 0 0 
Heartbeat_Variant_0_evicts 0 : 5802 1 : 156 2 : 140 3 : 0 
Heartbeat_Variant_1_evicts 0 : 155 1 : 0 2 : 330 3 : 0 
Heartbeat_Variant_2_evicts 0 : 132 1 : 324 2 : 0 3 : 0 
Heartbeat_Variant_3_evicts 0 : 0 1 : 0 2 : 0 3 : 0 
Heartbeat CPU 0 instructions: 90000001 cycles: 42732335 heartbeat IPC: 1.40163 cumulative IPC: 1.39108 (Simulation time: 0 hr 15 min 48 sec) 
Heartbeat_Variant_0 : 1389 0.339111 per_variant_size: 0 1389 0 0 0 0 0 0 0 
Heartbeat_Variant_1 : 1288 0.314453 per_variant_size: 0 590 698 0 0 0 0 0 0 
Heartbeat_Variant_2 : 1375 0.335693 per_variant_size: 0 526 401 253 195 0 0 0 0 
Heartbeat_Variant_3 : 0 0 per_variant_size: 0 0 0 0 0 0 0 0 0 
Heartbeat_Variant_0_evicts 0 : 5614 1 : 41 2 : 23 3 : 0 
Heartbeat_Variant_1_evicts 0 : 39 1 : 0 2 : 223 3 : 0 
Heartbeat_Variant_2_evicts 0 : 26 1 : 227 2 : 0 3 : 0 
Heartbeat_Variant_3_evicts 0 : 0 1 : 0 2 : 0 3 : 0 
Heartbeat CPU 0 instructions: 100000000 cycles: 49926777 heartbeat IPC: 1.38996 cumulative IPC: 1.39086 (Simulation time: 0 hr 17 min 40 sec) 
Finished CPU 0 instructions: 50000002 cycles: 35949093 cumulative IPC: 1.39086 (Simulation time: 0 hr 17 min 40 sec) 

ChampSim completed all CPUs

Region of Interest Statistics

CPU 0 cumulative IPC: 1.39086 instructions: 50000002 cycles: 35949093
 Fetch stage stalled: 45.8695  Sim cycles: 35949093 fetch stall cycle: 16489681
 Empty decode stage: 25.4621  Sim cycles: 35949093 fetch stall cycle: 9153392
ITLB TOTAL     ACCESS:    5841719  HIT:    5353767  MISS:     487952  HIT %:    91.6471  MISS %:    8.35288   MPKI: 9.75904
ITLB LOAD TRANSLATION INSTRUCTION	ACCESS:    5710068  HIT:    5222116  MISS:     487952  HIT %:    91.4545  MISS %:    8.54547  MPKI: 9.75904
ITLB TRANSLATION FROM L1D PREFETCHER INSTRUCTION	ACCESS:     131651  HIT:     131651  MISS:          0  HIT %:        100  MISS %:          0  MPKI: 0

ITLB AVERAGE MISS LATENCY: 9.05334 cycles
ITLB RQ	ACCESS:    7931592	FORWARD:          0	MERGED:    1614150	TO_CACHE:    6317442

DTLB TOTAL     ACCESS:    8922018  HIT:    8449902  MISS:     472116  HIT %:    94.7084  MISS %:    5.29158   MPKI: 9.44232
DTLB LOAD TRANSLATION DATA	ACCESS:    8922018  HIT:    8449902  MISS:     472116  HIT %:    94.7084  MISS %:    5.29158  MPKI: 9.44232

DTLB AVERAGE MISS LATENCY: 9.29393 cycles
DTLB RQ	ACCESS:   13280960	FORWARD:          0	MERGED:    4321161	TO_CACHE:    8959799

STLB TOTAL     ACCESS:    1217937  HIT:    1215823  MISS:       2114  HIT %:    99.8264  MISS %:   0.173572   MPKI: 0.04228
STLB LOAD TRANSLATION INSTRUCTION	ACCESS:     487952  HIT:     487679  MISS:        273  HIT %:    99.9441  MISS %:  0.0559481  MPKI: 0.00546
STLB LOAD TRANSLATION DATA	ACCESS:     472116  HIT:     470296  MISS:       1820  HIT %:    99.6145  MISS %:   0.385498  MPKI: 0.0364
STLB TRANSLATION FROM L1D PREFETCHER DATA	ACCESS:     257869  HIT:     257848  MISS:         21  HIT %:    99.9919  MISS %: 0.00814367  MPKI: 0.00042

STLB AVERAGE MISS LATENCY: 64.8254 cycles
STLB RQ	ACCESS:    1364472	FORWARD:          0	MERGED:     146509	TO_CACHE:    1217963

STLB Hit, L1D data hit: 0
STLB Hit, L2C data hit: 0
STLB Hit, LLC data hit: 0
STLB Hit, LLC data miss: 0
STLB STLB hints to L2: 0
L1D TOTAL     ACCESS:   13032569  HIT:   11875008  MISS:    1157561  HIT %:    91.1179  MISS %:    8.88206   MPKI: 23.1512
L1D LOAD DATA	ACCESS:    6539775  HIT:    5777936  MISS:     761839  HIT %:    88.3507  MISS %:    11.6493  MPKI: 15.2368
L1D RFO DATA	ACCESS:    6153291  HIT:    5863794  MISS:     289497  HIT %:    95.2952  MISS %:    4.70475  MPKI: 5.78994
L1D PREFETCH DATA	ACCESS:     339503  HIT:     233278  MISS:     106225  HIT %:    68.7116  MISS %:    31.2884  MPKI: 2.1245

L1D PREFETCH  REQUESTED:     809240  ISSUED:     809240  USEFUL:      49281  USELESS:      70358
L1D USEFUL LOAD PREFETCHES:      49281 PREFETCH ISSUED TO LOWER LEVEL:     119729  ACCURACY: 41.1605
 TIMELY PREFETCHES:      49281 LATE PREFETCHES: 13424 DROPPED PREFETCHES: 2
L1D AVERAGE MISS LATENCY: 367343 cycles
L1D RQ	ACCESS:   10682022	FORWARD:          0	MERGED:    3943217	TO_CACHE:    6574474
L1D WQ	ACCESS:    6901340	FORWARD:     164765	MERGED:     194854	TO_CACHE:    6706486
L1D PQ	ACCESS:     404837	FORWARD:          0	MERGED:          0	TO_CACHE:     404403

L1D UNIQUE REGIONS ACCESSED: 0
L1D REGIONS CONFLICTS: 0
L1D Cross Page Prefetch Requests: 5952
L1D Same Page Prefetch Requests: 817162
L1D ROI Sum of L1D PQ occupancy: 5156242
L1D PREFETCHES PUSHED FROM L2C: 0
L1I TOTAL     ACCESS:    7127293  HIT:    4388630  MISS:    2738663  HIT %:     61.575  MISS %:     38.425   MPKI: 54.7733
L1I LOAD INSTRUCTION	ACCESS:    6456869  HIT:    3718206  MISS:    2738663  HIT %:    57.5853  MISS %:    42.4147  MPKI: 54.7733
L1I PREFETCH INSTRUCTION	ACCESS:     670424  HIT:     670424  MISS:          0  HIT %:        100  MISS %:          0  MPKI: 0

L1I PREFETCH  REQUESTED:    1609865  ISSUED:    1609865  USEFUL:          0  USELESS:          0
L1I USEFUL LOAD PREFETCHES:          0 PREFETCH ISSUED TO LOWER LEVEL:          0  ACCURACY: -nan
 TIMELY PREFETCHES:          0 LATE PREFETCHES: 0 DROPPED PREFETCHES: 0
L1I AVERAGE MISS LATENCY: 17.3433 cycles
L1I RQ	ACCESS:    9570775	FORWARD:          0	MERGED:    2817322	TO_CACHE:    6753453
L1I PQ	ACCESS:    1609865	FORWARD:          0	MERGED:     431726	TO_CACHE:    1178139

L1BTB TOTAL     ACCESS:    5677706  HIT:    2081480  MISS:    3596226  HIT %:    36.6606  MISS %:    63.3394   MPKI: 71.9245
L1BTB BRANCH_DIRECT_JUMP	ACCESS:     544284  HIT:     144579  MISS:     399705	AVERAGE STALL: 55.4316
L1BTB BRANCH_INDIRECT	ACCESS:     181795  HIT:      65710  MISS:     116085	AVERAGE STALL: 114.227
L1BTB BRANCH_CONDITIONAL	ACCESS:    2739321  HIT:    1457020  MISS:    1282301	AVERAGE STALL: 65.6781
L1BTB BRANCH_DIRECT_CALL	ACCESS:     936021  HIT:     103922  MISS:     832099	AVERAGE STALL: 73.7773
L1BTB BRANCH_INDIRECT_CALL	ACCESS:     170134  HIT:      21120  MISS:     149014	AVERAGE STALL: 140.033
L1BTB BRANCH_RETURN	ACCESS:    1106151  HIT:     289129  MISS:     817022	AVERAGE STALL: 54.1065
L1BTB BRANCH_OTHER ACCESS:          0  HIT:          0  MISS:          0	AVERAGE STALL: -nan
L1BTB TOTAL ROB OCCUPANCY AT BTB MISS: 2.81469

L2BTB TOTAL     ACCESS:    3571152  HIT:    3504771  MISS:      66381  HIT %:    98.1412  MISS %:    1.85881   MPKI: 1.32762
L2BTB BRANCH_DIRECT_JUMP	ACCESS:     395528  HIT:     390975  MISS:       4553	AVERAGE STALL: 55.4316
L2BTB BRANCH_INDIRECT	ACCESS:     105910  HIT:     103245  MISS:       2665	AVERAGE STALL: 114.227
L2BTB BRANCH_CONDITIONAL	ACCESS:    1282301  HIT:    1278111  MISS:       4190	AVERAGE STALL: 65.6781
L2BTB BRANCH_DIRECT_CALL	ACCESS:     832099  HIT:     830423  MISS:       1676	AVERAGE STALL: 73.7773
L2BTB BRANCH_INDIRECT_CALL	ACCESS:     139500  HIT:     129242  MISS:      10258	AVERAGE STALL: 140.033
L2BTB BRANCH_RETURN	ACCESS:     815814  HIT:     772775  MISS:      43039	AVERAGE STALL: 54.1065
L2BTB BRANCH_OTHER ACCESS:          0  HIT:          0  MISS:          0	AVERAGE STALL: -nan
L2BTB TOTAL ROB OCCUPANCY AT BTB MISS: 152.487

L2C TOTAL     ACCESS:    4515908  HIT:    3993923  MISS:     521985  HIT %:    88.4412  MISS %:    11.5588   MPKI: 10.4397
L2C LOAD INSTRUCTION	ACCESS:    2738663  HIT:    2472862  MISS:     265801  HIT %:    90.2945  MISS %:     9.7055  MPKI: 5.31602
L2C LOAD TRANSLATION INSTRUCTION	ACCESS:        316  HIT:         81  MISS:        235  HIT %:    25.6329  MISS %:    74.3671  MPKI: 0.0047
L2C LOAD DATA	ACCESS:     748370  HIT:     660234  MISS:      88136  HIT %:    88.2229  MISS %:    11.7771  MPKI: 1.76272
L2C RFO DATA	ACCESS:     289406  HIT:     227145  MISS:      62261  HIT %:    78.4866  MISS %:    21.5134  MPKI: 1.24522
L2C PREFETCH DATA	ACCESS:     212267  HIT:     124873  MISS:      87394  HIT %:    58.8283  MISS %:    41.1717  MPKI: 1.74788
L2C WRITEBACK DATA	ACCESS:     524960  HIT:     508344  MISS:      16616  HIT %:    96.8348  MISS %:    3.16519  MPKI: 0.33232
L2C LOAD TRANSLATION DATA	ACCESS:       1894  HIT:        359  MISS:       1535  HIT %:    18.9546  MISS %:    81.0454  MPKI: 0.0307
L2C TRANSLATION FROM L1D PREFETCHER DATA	ACCESS:         32  HIT:         25  MISS:          7  HIT %:     78.125  MISS %:     21.875  MPKI: 0.00014

L2C PREFETCH  REQUESTED:      99686  ISSUED:      99686  USEFUL:       9789  USELESS:      78083
L2C USEFUL LOAD PREFETCHES:       9789 PREFETCH ISSUED TO LOWER LEVEL:      87868  ACCURACY: 11.1406
 TIMELY PREFETCHES:       9789 LATE PREFETCHES: 474 DROPPED PREFETCHES: 0
L2C AVERAGE MISS LATENCY: 37.0306 cycles
L2C RQ	ACCESS:    3778740	FORWARD:          0	MERGED:          0	TO_CACHE:    3778684
L2C WQ	ACCESS:     524960	FORWARD:         57	MERGED:          0	TO_CACHE:     524960
L2C PQ	ACCESS:     219415	FORWARD:          0	MERGED:       3547	TO_CACHE:     215867

L2C Dense regions hint from L2: 0
PSCL5 TOTAL     ACCESS:       4232  HIT:       2116  MISS:       2116  HIT %:         50  MISS %:         50   MPKI: 0.04232
PSCL5 LOAD TRANSLATION INSTRUCTION	ACCESS:       4168  HIT:       2084  MISS:       2084  HIT %:         50  MISS %:         50  MPKI: 0.04168
PSCL5 TRANSLATION FROM L1D PREFETCHER INSTRUCTION	ACCESS:         64  HIT:         32  MISS:         32  HIT %:         50  MISS %:         50  MPKI: 0.00064


PSCL4 TOTAL     ACCESS:       3975  HIT:       1985  MISS:       1990  HIT %:    49.9371  MISS %:    50.0629   MPKI: 0.0398
PSCL4 LOAD TRANSLATION INSTRUCTION	ACCESS:       3655  HIT:       1954  MISS:       1701  HIT %:     53.461  MISS %:     46.539  MPKI: 0.03402
PSCL4 TRANSLATION FROM L1D PREFETCHER INSTRUCTION	ACCESS:         62  HIT:         31  MISS:         31  HIT %:         50  MISS %:         50  MPKI: 0.00062
PSCL4 LOAD TRANSLATION DATA	ACCESS:        258  HIT:          0  MISS:        258  HIT %:          0  MISS %:        100  MPKI: 0.00516


PSCL3 TOTAL     ACCESS:       3979  HIT:       1987  MISS:       1992  HIT %:    49.9372  MISS %:    50.0628   MPKI: 0.03984
PSCL3 LOAD TRANSLATION INSTRUCTION	ACCESS:       3657  HIT:       1956  MISS:       1701  HIT %:    53.4865  MISS %:    46.5135  MPKI: 0.03402
PSCL3 TRANSLATION FROM L1D PREFETCHER INSTRUCTION	ACCESS:         62  HIT:         31  MISS:         31  HIT %:         50  MISS %:         50  MPKI: 0.00062
PSCL3 LOAD TRANSLATION DATA	ACCESS:        260  HIT:          0  MISS:        260  HIT %:          0  MISS %:        100  MPKI: 0.0052


PSCL2 TOTAL     ACCESS:       4115  HIT:       1999  MISS:       2116  HIT %:    48.5784  MISS %:    51.4216   MPKI: 0.04232
PSCL2 LOAD TRANSLATION INSTRUCTION	ACCESS:       2246  HIT:       1967  MISS:        279  HIT %:    87.5779  MISS %:    12.4221  MPKI: 0.00558
PSCL2 TRANSLATION FROM L1D PREFETCHER INSTRUCTION	ACCESS:         32  HIT:         32  MISS:          0  HIT %:        100  MISS %:          0  MPKI: 0
PSCL2 LOAD TRANSLATION DATA	ACCESS:       1805  HIT:          0  MISS:       1805  HIT %:          0  MISS %:        100  MPKI: 0.0361
PSCL2 TRANSLATION FROM L1D PREFETCHER DATA	ACCESS:         32  HIT:          0  MISS:         32  HIT %:          0  MISS %:        100  MPKI: 0.00064


LLC TOTAL     ACCESS:     593351  HIT:     568598  MISS:      24753  HIT %:    95.8283  MISS %:    4.17173   MPKI: 0.49506
LLC LOAD INSTRUCTION	ACCESS:     265801  HIT:     264908  MISS:        893  HIT %:     99.664  MISS %:   0.335966  MPKI: 0.01786
LLC LOAD TRANSLATION INSTRUCTION	ACCESS:        235  HIT:        199  MISS:         36  HIT %:    84.6809  MISS %:    15.3191  MPKI: 0.00072
LLC LOAD DATA	ACCESS:      87669  HIT:      84510  MISS:       3159  HIT %:    96.3967  MISS %:    3.60333  MPKI: 0.06318
LLC RFO DATA	ACCESS:      62249  HIT:      51128  MISS:      11121  HIT %:    82.1347  MISS %:    17.8653  MPKI: 0.22242
LLC PREFETCH DATA	ACCESS:      87867  HIT:      78679  MISS:       9188  HIT %:    89.5433  MISS %:    10.4567  MPKI: 0.18376
LLC WRITEBACK DATA	ACCESS:      87988  HIT:      87719  MISS:        269  HIT %:    99.6943  MISS %:   0.305724  MPKI: 0.00538
LLC LOAD TRANSLATION DATA	ACCESS:       1535  HIT:       1448  MISS:         87  HIT %:    94.3322  MISS %:    5.66775  MPKI: 0.00174
LLC TRANSLATION FROM L1D PREFETCHER DATA	ACCESS:          7  HIT:          7  MISS:          0  HIT %:        100  MISS %:          0  MPKI: 0

LLC AVERAGE MISS LATENCY: 168.035 cycles
LLC RQ	ACCESS:     417501	FORWARD:          0	MERGED:          0	TO_CACHE:     417496
LLC WQ	ACCESS:      87988	FORWARD:          6	MERGED:          0	TO_CACHE:      87988
LLC PQ	ACCESS:      87868	FORWARD:          0	MERGED:          0	TO_CACHE:      87867

LLC Dense regions hint to LLC: 0

RAW hits: 1933795
Loads Generated: 12615818
Loads sent to L1D: 10682022
Stores Generated: 6901322
Stores sent to L1D: 6901340
Major fault: 0 Minor fault: 2256
Allocated PAGES: 2256

stream: 
stream:times selected: 1264622
stream:pref_filled: 126178
stream:pref_useful: 28758
stream:pref_late: 8966
stream:misses: 10679
stream:misses_by_poll: 0

CS: 
CS:times selected: 198577
CS:pref_filled: 73648
CS:pref_useful: 50134
CS:pref_late: 9708
CS:misses: 24738
CS:misses_by_poll: 4

CPLX: 
CPLX:times selected: 1064824
CPLX:pref_filled: 24989
CPLX:pref_useful: 7653
CPLX:pref_late: 3839
CPLX:misses: 129383
CPLX:misses_by_poll: 0

NL_L1: 
NL:times selected: 13030
NL:pref_filled: 1088
NL:pref_useful: 304
NL:pref_late: 516
NL:misses: 2142
NL:misses_by_poll: 0

total selections: 2541053
total_filled: 106225
total_useful: 49281
total_late: 25192
total_polluted: 4
total_misses_after_warmup: 796540
conflicts: 5473490

test: 121553

DRAM Statistics
 CHANNEL 0
 RQ ROW_BUFFER_HIT:       8496  ROW_BUFFER_MISS:      15971
 DBUS_CONGESTED:         12
 WQ ROW_BUFFER_HIT:       1382  ROW_BUFFER_MISS:      10486  FULL:          0

 AVG_CONGESTED_CYCLE: 4

CPU 0 Branch Prediction Accuracy: 99.822% MPKI: 0.32584 Average ROB Occupancy at Mispredict: 200.042
Branch types
NOT_BRANCH: 40848598 81.6972%
BRANCH_DIRECT_JUMP: 544284 1.08857%
BRANCH_INDIRECT: 181795 0.36359%
BRANCH_CONDITIONAL: 6212971 12.4259%
BRANCH_DIRECT_CALL: 936021 1.87204%
BRANCH_INDIRECT_CALL: 170134 0.340268%
BRANCH_RETURN: 1106151 2.2123%
BRANCH_OTHER: 0 0%

DRAM PAGES: 1048576
Allocated PAGES: 2256
Average_ROB_Occupancy: 249.895
Average_Decode_Occupancy: 38.0627
Average_FTQ_Occupancy: 14.9147
Indirect max targets: 14 Average targets: 1.14966
Branch_type:  BRANCH_DIRECT_JUMP:  Count Percentage: 3.69274 6.211 3.82575 8.48133 2.41593 6.34667 1.90805 67.1185 
Branch_type:  BRANCH_INDIRECT:  Count Percentage: 11.7499 3.39814 2.62878 9.70294 3.33224 2.7971 1.72625 64.6646 
Branch_type:  BRANCH_CONDITIONAL:  Count Percentage: 22.3497 5.96069 2.06506 5.00981 5.80973 3.9088 2.68616 52.2101 
Branch_type:  BRANCH_DIRECT_CALL:  Count Percentage: 0.832198 1.22235 0.766708 4.50145 2.37922 2.8679 4.34852 83.0817 
Branch_type:  BRANCH_INDIRECT_CALL:  Count Percentage: 9.51523 0 2.98157 4.58775 0.000883166 2.36512 3.84148 76.708 
Branch_type:  BRANCH_RETURN:  Count Percentage: 4.61022 3.87854 2.00544 4.49133 7.15218 4.04059 3.76649 70.0552 
Branch_type:  BRANCH_DIRECT_JUMP:  Total Count: 40201 67616 41649 92332 26301 69093 20772 730686 
Branch_type:  BRANCH_INDIRECT:  Total Count: 42793 12376 9574 35338 12136 10187 6287 235508 
Branch_type:  BRANCH_CONDITIONAL:  Total Count: 2776641 740534 256556 622401 721780 485615 333719 6486387 
Branch_type:  BRANCH_DIRECT_CALL:  Total Count: 15541 22827 14318 84063 44431 53557 81207 1551520 
Branch_type:  BRANCH_INDIRECT_CALL:  Total Count: 32322 0 10128 15584 3 8034 13049 260567 
Branch_type:  BRANCH_RETURN:  Total Count: 101791 85636 44279 99166 157916 89214 83162 1546779 
Number of unique branch instructions: 10002
Upper 32 bits: 
aaaa
ffff
ffff0000
Unique upper 32 bits: 3
Unique upper 36 bits: 3
Unique upper 40 bits: 5
Unique upper 44 bits: 32
Unique upper 48 bits: 154
Variant_0 : 1389 0.339111
Variant_1 : 1288 0.314453
Variant_2 : 1375 0.335693
Variant_3 : 0 0
Offset_3 4142
Offset_4 247
Offset_5 449
Offset_6 516
Offset_7 592
Offset_8 516
Offset_9 468
Offset_10 395
Offset_11 327
Offset_12 266
Offset_13 198
Offset_14 225
Offset_15 190
Offset_16 230
Offset_17 150
Offset_18 129
Offset_19 240
Offset_20 137
Offset_21 235
Offset_22 399
Offset_23 241
Offset_24 329
Offset_25 88
Offset_47 80
decode_dispatch_called: 26368481 73.3495
Dispatch_width: 0 14282698 54.1658 39.7303
Dispatch_width: 1 1024655 3.88591 2.85029
Dispatch_width: 2 826453 3.13425 2.29895
Dispatch_width: 3 495981 1.88096 1.37968
Dispatch_width: 4 6244272 23.6808 17.3698
Dispatch_width: 5 109122 0.413835 0.303546
Dispatch_width: 6 3385300 12.8384 9.41693
Empty_decode_cycles: 9580612 26.6505
ROB_full_cycles: 9989605 27.7882
Starvation_cycles_per_kilo_instr: 225.742
Starvation_cycles_per_kilo_instr_3: 162.208
Starvation_cycles_per_kilo_instr_0: 138.737
Branch_type_1  (3,1)  (4,7)  (5,36)  (6,75)  (7,117)  (8,127)  (9,125)  (10,101)  (11,78)  (12,43)  (13,7)  (14,2)  (15,3)  (16,4)  (18,1)  (19,4)  (20,2)  (21,1)  (22,3)  (23,2)  (24,10)  (25,12) 
Branch_type_2  (3,1)  (5,1)  (8,3)  (9,3)  (12,1)  (13,1)  (14,1)  (16,3)  (17,2)  (20,2)  (21,2)  (23,5)  (24,1)  (47,36) 
Branch_type_3  (3,4140)  (4,240)  (5,408)  (6,425)  (7,443)  (8,326)  (9,257)  (10,165)  (11,136)  (12,49)  (13,7) 
Branch_type_4  (6,4)  (7,8)  (8,26)  (9,51)  (10,61)  (11,57)  (12,96)  (13,83)  (14,99)  (15,91)  (16,105)  (17,66)  (18,59)  (19,117)  (20,71)  (21,124)  (22,214)  (23,136)  (24,190)  (25,72) 
Branch_type_5  (8,2)  (9,1)  (10,3)  (11,5)  (12,3)  (13,13)  (14,16)  (15,11)  (16,20)  (17,13)  (18,16)  (19,12)  (20,10)  (21,13)  (22,42)  (23,26)  (24,36) 
Branch_type_6  (5,4)  (6,12)  (7,24)  (8,32)  (9,31)  (10,65)  (11,51)  (12,74)  (13,87)  (14,107)  (15,85)  (16,98)  (17,69)  (18,53)  (19,107)  (20,52)  (21,95)  (22,140)  (23,72)  (24,92)  (25,4)  (47,44) 
Unique trigger count: 
Variant_0_evicts_0 : 0
Variant_0_evicts_1 : 0
Variant_0_evicts_2 : 0
Variant_0_evicts_3 : 0
Variant_1_evicts_0 : 0
Variant_1_evicts_1 : 0
Variant_1_evicts_2 : 0
Variant_1_evicts_3 : 0
Variant_2_evicts_0 : 0
Variant_2_evicts_1 : 0
Variant_2_evicts_2 : 0
Variant_2_evicts_3 : 0
Variant_3_evicts_0 : 0
Variant_3_evicts_1 : 0
Variant_3_evicts_2 : 0
Variant_3_evicts_3 : 0
BTB PER SET UNIQUE ADDR: 14 16 10 12 12 17 8 10 8 13 9 17 15 8 10 12 7 15 9 14 10 10 13 9 10 12 11 12 13 13 10 13 15 9 5 10 12 12 9 10 8 10 11 14 14 9 12 7 11 10 14 12 12 13 14 5 12 12 10 15 10 14 12 12 10 12 14 9 17 17 13 13 14 9 9 7 9 17 11 16 12 10 10 14 10 14 11 10 8 16 5 7 11 8 7 14 10 11 12 10 16 15 15 11 11 11 9 11 6 8 8 17 14 9 10 8 6 16 10 17 12 9 10 9 10 16 6 12 15 12 12 17 11 12 8 13 10 16 10 16 10 16 15 9 14 15 19 9 6 12 9 10 12 10 13 15 12 16 12 16 18 7 14 14 13 12 9 8 14 10 8 15 7 12 9 10 11 10 12 12 5 12 10 13 17 18 8 11 14 12 10 10 10 11 14 12 11 14 9 13 16 11 10 11 11 11 14 14 12 8 12 14 10 9 9 13 11 10 11 15 11 12 6 8 10 9 16 11 8 16 7 5 12 19 15 17 13 10 10 9 17 11 13 13 10 9 11 8 13 10 13 15 14 11 14 13 11 10 7 11 12 9 6 9 14 8 11 10 10 7 8 13 7 7 11 9 8 9 12 11 10 12 5 9 14 13 10 13 19 11 13 8 10 17 6 18 9 11 11 11 8 12 10 14 12 14 11 11 18 9 13 16 9 18 10 7 11 12 14 16 9 13 10 12 13 9 13 9 11 10 8 10 7 10 10 10 12 11 9 18 9 12 4 13 14 11 9 11 10 6 11 11 14 9 14 15 11 14 11 7 12 16 11 17 14 8 8 15 11 15 13 4 12 10 7 14 15 14 13 13 13 12 9 10 11 10 14 13 14 13 18 6 14 14 10 9 9 9 11 14 8 16 11 15 19 10 10 14 13 10 9 9 11 18 11 13 11 8 16 18 10 12 12 9 12 10 9 8 14 11 14 14 13 10 12 10 14 8 13 12 15 7 11 11 20 8 10 8 13 15 15 15 14 10 16 17 18 14 10 15 10 8 12 15 19 13 11 13 13 11 12 16 12 10 16 18 6 13 8 20 17 15 13 16 8 13 19 15 12 9 8 13 12 8 8 9 10 15 13 11 12 17 11 17 14 10 5 20 15 14 14 20 9 13 13 11 13 15 10 8 10 16 10 9 10 13 15 9 7 19 21 11 13 13 11 13 10 14 13 12 15 12 15 15 17 14 10 13 11 13 15 13 11 11 14 18 15 13 12 15 10 12 12 9 13 14 14 12 12 14 11 14 16 13 13 11 13 12 5 14 12 11 9 13 14 10 13 10 16 16 11 12 9 12 16 9 8 11 8 15 11 10 10 9 10 12 13 8 11 9 12 16 8 10 4 9 13 15 10 10 15 11 7 8 12 18 12 17 11 12 9 15 16 11 11 12 13 15 8 16 9 11 13 8 10 14 12 11 14 9 9 14 12 14 14 11 12 13 16 10 10 8 15 16 14 14 9 11 10 9 15 10 13 14 12 8 15 14 18 12 11 19 10 9 20 12 12 15 18 13 13 13 15 10 9 15 11 14 6 12 9 15 14 11 8 7 10 10 8 9 9 12 6 8 14 11 17 10 10 16 12 10 11 11 10 6 13 11 10 11 9 9 13 11 9 11 16 11 15 12 12 8 12 17 14 19 10 13 14 14 17 10 12 11 11 9 15 14 10 7 11 9 8 8 12 12 11 17 12 10 11 17 11 8 11 12 8 10 14 18 5 11 14 12 10 13 7 15 7 7 7 9 13 10 13 12 8 13 11 10 16 12 12 15 15 14 15 15 11 10 9 22 15 9 8 16 11 10 8 14 12 14 9 12 18 9 8 12 13 10 13 14 11 7 8 12 13 15 14 8 12 14 8 13 9 12 8 17 14 9 9 10 13 11 16 16 14 14 12 16 10 11 13 10 16 9 10 7 18 8 9 14 13 10 15 7 10 9 10 9 13 9 13 15 14 15 14 13 14 15 13 10 8 13 11 13 20 8 10 9 12 12 14 14 5 11 12 13 11 16 11 15 8 15 14 13 18 13 11 9 12 13 8 9 9 14 8 11 13 7 15 16 20 11 8 19 13 15 15 11 9 16 12 11 10 12 8 15 11 14 15 13 11 13 12 8 9 13 12 12 12 11 15 13 11 11 13 16 11 14 12 14 12 8 16 8 19 10 13 18 8 15 10 12 8 17 15 14 14 9 13 9 13 12 11 10 9 9 15 12 17 18 9 10 16 10 7 12 10 19 6 14 10 10 14 14 8 8 6 8 7 11 8 9 
BTB PER SET COUNT: 308 34 2030 22 15 26 8 448 1457 15 16 735 15695 13 13 18 949 1282 10 18 15 401 746 12 22 15 19 19 334 16 13 22 18 10 5 928 12 1057 12 16 9 10 17 18 409 10 21 7 18 11 18 101 25 15 20 52 23 14 17 21 13 18 475 14 12 17 22 9 24 23 1420 929 23 12 10 8 13 20 13 20 1027 14 15 154 10 1014 15 17 12 50 9 901 491 11 7 18 13 20 18 15 18 25 15 155 1175 14 13 13 6 362 8 33 395 14 13 15 6 24 1449 1202 21 12 10 13 11 22 9 20 25 922 21 887 16 14 13 19 11 24 13 21 16 26 29 13 23 407 1461 982 7 37 14 12 723 16 22 24 1023 18 16 177 21 224 31 15 29 15 14 11 18 81 9 16 11 14 18 11 12 10 467 339 6 246 3409 16 19 26 10 12 18 1025 12 12 11 13 19 144 18 524 12 17 21 113 746 12 11 12 14 381 13 8 18 17 15 11 10 1048 13 15 1887 28 16 23 9 8 12 16 20 15 433 22 7 5 12 28 971 28 307 17 19 12 305 14 21 87 16 598 12 11 20 16 17 19 23 13 21 26 32 12 8 19 359 14 15 13 19 9 16 11 380 9 8 17 9 9 982 9 9 9 15 568 11 19 6 12 14 18 12 16 29 17 14 8 12 529 7 28 10 12 14 56 8 20 10 19 15 28 50 18 100 551 16 21 9 21 418 21 19 20 16 20 15 5154 14 13 13 14 152 14 15 12 8 11 10 18 12 14 17 735 9 27 10 348 5 18 19 13 12 13 14 7 278 122 20 14 17 24 20 31 24 7 17 25 14 25 23 9 8 26 11 20 22 4 17 15 743 157 16 23 82 325 1313 12 949 10 13 11 16 18 17 14 465 7 20 186 13 16 15 13 1152 33 8 19 14 16 35 10 14 89 19 13 10 10 12 1033 15 18 11 36 25 25 12 31 22 12 16 10 14 15 18 11 57 17 16 16 16 19 23 11 15 15 378 8 35 13 1014 11 447 9 16 20 1631 1415 26 14 63 22 24 20 18 38 17 11 13 541 26 19 11 18 16 15 19 22 17 13 25 23 6 630 9 34 26 26 18 25 13 22 358 19 14 9 9 657 1744 17 10 9 635 18 17 16 16 24 17 21 25 11 7 48 21 23 135 317 24 42 21 12 17 18 19 90 10 25 12 323 13 24 22 1050 7 195 38 12 742 14 18 23 13 51 23 125 17 15 26 21 23 17 12 25 28 1042 18 15 12 17 19 27 21 14 19 18 12 23 12 10 222 20 144 16 20 105 18 25 26 21 2399 12 21 15 5 23 17 15 10 173 19 14 19 22 27 26 18 121 9 19 25 14 9 337 12 20 12 14 10 9 15 13 21 750 19 11 12 1061 172 13 4 10 153 26 26 14 21 18 12 1015 15 25 14 20 11 21 13 25 27 18 14 15 17 475 15 166 10 21 15 11 15 84 489 20 165 9 11 17 20 15 2410 528 19 16 228 85 334 13 21 21 4596 14 12 956 1468 11 16 12 38 16 737 10 25 22 22 16 12 34 10 12 774 17 12 25 40 17 25 17 18 11 532 27 17 120 10 15 10 20 1462 12 9 8 13 15 11 10 12 521 152 8 27 12 46 22 11 72 23 1062 11 508 12 8 17 24 887 1258 11 14 21 19 10 872 1032 18 21 14 1044 8 746 28 877 21 119 16 23 16 1481 12 17 1964 1129 11 22 21 13 9 16 20 9 8 19 17 14 585 15 10 13 23 16 9 14 18 14 442 23 19 1012 19 345 15 11 231 8 26 9 8 9 608 22 16 62 19 11 18 15 13 33 17 15 21 16 16 19 24 16 62 12 5971 30 11 9 42 490 1961 12 3701 15 657 16 23 35 13 15 17 16 16 13 26 11 7 18 556 19 21 155 10 17 20 15 16 1274 12 9 19 16 14481 13 328 17 15 1466 27 154 15 15 29 748 15 16 17 24 11 12 8 30 9 12 30 14 11 15 8 13 13 12 9 15 9 295 18 1018 44 15 17 20 19 13 14 916 736 13 24 29 13 419 11 16 18 17 541 7 20 15 22 14 278 21 522 14 29 22 19 84 16 14 10 17 814 8 13 14 725 9 14 17 12 15 22 31 17 10 1651 14 21 146 21 9 24 19 14 11 20 13 21 22 21 16 14 1647 2813 14 9 16 14 21 18 229 16 448 16 15 19 1336 32 24 49 69 73 14 11 21 11 27 15 28 50 8 289 12 254 9 1705 1891 524 19 10 23 14 77 16 11 11 13 1461 21 715 23 411 13 11 28 11 11 19 11 964 513 41 14 12 22 17 9 9 7 13 7 13 9 9 
To predecode: 0
Predecoding something: 0
Predecode request dropped: 0
sizeofblock_0 0
sizeofblock_1 43491
sizeofblock_2 33089
sizeofblock_3 38181
sizeofblock_4 22233
sizeofblock_5 0
sizeofblock_6 0
sizeofblock_7 0
sizeofblock_8 0
Variant_0 Correct: 1595157 Incorrect: 0 Accuracy: 1
Variant_1 Correct: 2070084 Incorrect: 0 Accuracy: 1
Variant_2 Correct: 3605880 Incorrect: 0 Accuracy: 1
Variant_3 Correct: 0 Incorrect: 0 Accuracy: -nan
