
*** ChampSim Multicore Out-of-Order Simulator ***

Warmup Instructions: 50000000
Simulation Instructions: 50000000
Number of CPUs: 1
LLC sets: 2048
LLC ways: 16
Off-chip DRAM Size: 4096 MB Channels: 1 Width: 64-bit Data Rate: 6400 MT/s
CPU 0 runs ./micro_traces/srv347.trace.gz
.gz
ITLB has LRU replacement policy
DTLB has LRU replacement policy
STLB has LRU replacement policy
FDIP Prefetcher at L1I
L1I has LRU replacement policy
L1D has LRU replacement policy
Initialize SRRIP state for L2C
Initialize DRRIP state for LLC
Heartbeat CPU 0 instructions: 10000001 cycles: 2796812 heartbeat IPC: 3.5755 cumulative IPC: 3.5755 (Simulation time: 0 hr 2 min 25 sec) 
Heartbeat CPU 0 instructions: 20000003 cycles: 5594643 heartbeat IPC: 3.5742 cumulative IPC: 3.57485 (Simulation time: 0 hr 4 min 5 sec) 
Heartbeat CPU 0 instructions: 30000003 cycles: 8391115 heartbeat IPC: 3.57593 cumulative IPC: 3.57521 (Simulation time: 0 hr 5 min 44 sec) 
Heartbeat CPU 0 instructions: 40000002 cycles: 11187457 heartbeat IPC: 3.5761 cumulative IPC: 3.57543 (Simulation time: 0 hr 7 min 26 sec) 
Heartbeat CPU 0 instructions: 50000000 cycles: 13984001 heartbeat IPC: 3.57584 cumulative IPC: 3.57551 (Simulation time: 0 hr 9 min 12 sec) 

Warmup complete CPU 0 instructions: 50000004 cycles: 13984002 (Simulation time: 0 hr 9 min 12 sec) 

Cycle: 20000000 FTQ IN: 54885972 FTQ occupancy: 15.4662 DECODE IN: 54885954 DECODE occupancy: 9.34937 ROB IN: 54885954 ROB occupancy: 258.776 ROB OUT: 54885940
Heartbeat CPU 0 instructions: 60000002 cycles: 26232992 heartbeat IPC: 0.816394 cumulative IPC: 0.816394 (Simulation time: 0 hr 10 min 50 sec) 
Cycle: 30000000 FTQ IN: 8232224 FTQ occupancy: 13.5641 DECODE IN: 8232235 DECODE occupancy: 4.38754 ROB IN: 8232235 ROB occupancy: 47.3152 ROB OUT: 8232095
Heartbeat CPU 0 instructions: 70000002 cycles: 38349327 heartbeat IPC: 0.825332 cumulative IPC: 0.820839 (Simulation time: 0 hr 12 min 25 sec) 
Cycle: 40000000 FTQ IN: 8252129 FTQ occupancy: 13.5111 DECODE IN: 8252134 DECODE occupancy: 4.40596 ROB IN: 8252122 ROB occupancy: 48.1868 ROB OUT: 8252251
Cycle: 50000000 FTQ IN: 8131984 FTQ occupancy: 13.5943 DECODE IN: 8131968 DECODE occupancy: 4.41384 ROB IN: 8131968 ROB occupancy: 49.2381 ROB OUT: 8131944
Heartbeat CPU 0 instructions: 80000000 cycles: 50608066 heartbeat IPC: 0.815744 cumulative IPC: 0.819133 (Simulation time: 0 hr 14 min 3 sec) 
Cycle: 60000000 FTQ IN: 8242408 FTQ occupancy: 13.4992 DECODE IN: 8242408 DECODE occupancy: 4.39026 ROB IN: 8242408 ROB occupancy: 47.218 ROB OUT: 8242258
Heartbeat CPU 0 instructions: 90000000 cycles: 62734271 heartbeat IPC: 0.82466 cumulative IPC: 0.820508 (Simulation time: 0 hr 15 min 44 sec) 
Cycle: 70000000 FTQ IN: 8257557 FTQ occupancy: 13.5392 DECODE IN: 8257557 DECODE occupancy: 4.41161 ROB IN: 8257560 ROB occupancy: 47.6346 ROB OUT: 8257706
Heartbeat CPU 0 instructions: 100000000 cycles: 74973139 heartbeat IPC: 0.817069 cumulative IPC: 0.819818 (Simulation time: 0 hr 17 min 1 sec) 
Finished CPU 0 instructions: 50000000 cycles: 60989138 cumulative IPC: 0.819818 (Simulation time: 0 hr 17 min 1 sec) 

ChampSim completed all CPUs

Region of Interest Statistics

CPU 0 cumulative IPC: 0.819818 instructions: 50000000 cycles: 60989138
 Fetch stage stalled: 35.5778  Sim cycles: 60989138 fetch stall cycle: 21698602
 Empty decode stage: 68.2923  Sim cycles: 60989138 fetch stall cycle: 41650854
ITLB TOTAL     ACCESS:    7211771  HIT:    6717688  MISS:     494083  HIT %:    93.1489  MISS %:    6.85106   MPKI: 9.88166
ITLB LOAD TRANSLATION INSTRUCTION	ACCESS:    7211771  HIT:    6717688  MISS:     494083  HIT %:    93.1489  MISS %:    6.85106  MPKI: 9.88166

ITLB AVERAGE MISS LATENCY: 9.04698 cycles
ITLB RQ	ACCESS:    8289841	FORWARD:          0	MERGED:     875986	TO_CACHE:    7413855

DTLB TOTAL     ACCESS:   10417443  HIT:    9943661  MISS:     473782  HIT %:     95.452  MISS %:    4.54797   MPKI: 9.47564
DTLB LOAD TRANSLATION DATA	ACCESS:   10417443  HIT:    9943661  MISS:     473782  HIT %:     95.452  MISS %:    4.54797  MPKI: 9.47564

DTLB AVERAGE MISS LATENCY: 9.30683 cycles
DTLB RQ	ACCESS:   14492801	FORWARD:          0	MERGED:    4046840	TO_CACHE:   10445961

STLB TOTAL     ACCESS:    1227550  HIT:    1225491  MISS:       2059  HIT %:    99.8323  MISS %:   0.167732   MPKI: 0.04118
STLB LOAD TRANSLATION INSTRUCTION	ACCESS:     494083  HIT:     493823  MISS:        260  HIT %:    99.9474  MISS %:  0.0526227  MPKI: 0.0052
STLB LOAD TRANSLATION DATA	ACCESS:     473769  HIT:     471997  MISS:       1772  HIT %:     99.626  MISS %:   0.374022  MPKI: 0.03544
STLB TRANSLATION FROM L1D PREFETCHER DATA	ACCESS:     259698  HIT:     259671  MISS:         27  HIT %:    99.9896  MISS %:  0.0103967  MPKI: 0.00054

STLB AVERAGE MISS LATENCY: 72.8237 cycles
STLB RQ	ACCESS:    1351149	FORWARD:          0	MERGED:     123555	TO_CACHE:    1227594

STLB Hit, L1D data hit: 0
STLB Hit, L2C data hit: 0
STLB Hit, LLC data hit: 0
STLB Hit, LLC data miss: 0
STLB STLB hints to L2: 0
L1D TOTAL     ACCESS:   14283717  HIT:   13155957  MISS:    1127760  HIT %:    92.1046  MISS %:    7.89542   MPKI: 22.5552
L1D LOAD DATA	ACCESS:    7642254  HIT:    6899708  MISS:     742546  HIT %:    90.2837  MISS %:    9.71632  MPKI: 14.8509
L1D RFO DATA	ACCESS:    6305834  HIT:    6016950  MISS:     288884  HIT %:    95.4188  MISS %:    4.58122  MPKI: 5.77768
L1D PREFETCH DATA	ACCESS:     335629  HIT:     239299  MISS:      96330  HIT %:    71.2987  MISS %:    28.7013  MPKI: 1.9266

L1D PREFETCH  REQUESTED:     766675  ISSUED:     766675  USEFUL:      39249  USELESS:      67661
L1D USEFUL LOAD PREFETCHES:      39249 PREFETCH ISSUED TO LOWER LEVEL:     106971  ACCURACY: 36.6913
 TIMELY PREFETCHES:      39249 LATE PREFETCHES: 10557 DROPPED PREFETCHES: 6
L1D AVERAGE MISS LATENCY: 420300 cycles
L1D RQ	ACCESS:   11467804	FORWARD:          0	MERGED:    3642354	TO_CACHE:    7671270
L1D WQ	ACCESS:    6939464	FORWARD:     154289	MERGED:     117933	TO_CACHE:    6821531
L1D PQ	ACCESS:     383392	FORWARD:          0	MERGED:          0	TO_CACHE:     383283

L1D UNIQUE REGIONS ACCESSED: 0
L1D REGIONS CONFLICTS: 0
L1D Cross Page Prefetch Requests: 6732
L1D Same Page Prefetch Requests: 763960
L1D ROI Sum of L1D PQ occupancy: 4876571
L1D PREFETCHES PUSHED FROM L2C: 0
L1I TOTAL     ACCESS:    7882824  HIT:    5122307  MISS:    2760517  HIT %:    64.9806  MISS %:    35.0194   MPKI: 55.2103
L1I LOAD INSTRUCTION	ACCESS:    7882824  HIT:    5122307  MISS:    2760517  HIT %:    64.9806  MISS %:    35.0194  MPKI: 55.2103

L1I AVERAGE MISS LATENCY: 17.2976 cycles
L1I RQ	ACCESS:   15483960	FORWARD:          0	MERGED:    7194119	TO_CACHE:    8289841

L1BTB TOTAL     ACCESS:    5672013  HIT:    2048302  MISS:    3623711  HIT %:    36.1124  MISS %:    63.8876   MPKI: 72.4742
L1BTB BRANCH_DIRECT_JUMP	ACCESS:     546800 HIT:     144229 MISS:     402571 AVERAGE STALL: 25.4776 AVERAGE FETCH STALL: 16.9919 AVERAGE FETCH QUEUE STALL: 2.87777 AVERAGE DECODE STALL: 4.60798 AVERAGE EXECUTE STALL: 3.50672e+14
L1BTB BRANCH_INDIRECT	ACCESS:     182469 HIT:      65906 MISS:     116563 AVERAGE STALL: 54.1389 AVERAGE FETCH STALL: 12.4138 AVERAGE FETCH QUEUE STALL: 4.00419 AVERAGE DECODE STALL: 4.16054 AVERAGE EXECUTE STALL: 32.5603
L1BTB BRANCH_CONDITIONAL	ACCESS:    2711912 HIT:    1421370 MISS:    1290542 AVERAGE STALL: 26.78 AVERAGE FETCH STALL: 18.11 AVERAGE FETCH QUEUE STALL: 3.35931 AVERAGE DECODE STALL: 4.31005 AVERAGE EXECUTE STALL: 1.30265e+14
L1BTB BRANCH_DIRECT_CALL	ACCESS:     943841 HIT:     105220 MISS:     838621 AVERAGE STALL: 28.7612 AVERAGE FETCH STALL: 19.3127 AVERAGE FETCH QUEUE STALL: 3.68482 AVERAGE DECODE STALL: 4.76369 AVERAGE EXECUTE STALL: 1.60189e+14
L1BTB BRANCH_INDIRECT_CALL	ACCESS:     171576 HIT:      21353 MISS:     150223 AVERAGE STALL: 68.4341 AVERAGE FETCH STALL: 12.9483 AVERAGE FETCH QUEUE STALL: 2.98218 AVERAGE DECODE STALL: 4.72028 AVERAGE EXECUTE STALL: 46.7834
L1BTB BRANCH_RETURN	ACCESS:    1115415 HIT:     290224 MISS:     825191 AVERAGE STALL: 29.3376 AVERAGE FETCH STALL: 16.0312 AVERAGE FETCH QUEUE STALL: 3.52144 AVERAGE DECODE STALL: 4.5146 AVERAGE EXECUTE STALL: 1.82052e+14
L1BTB BRANCH_OTHER ACCESS:          0 HIT:          0 MISS:          0 AVERAGE STALL: -nan AVERAGE FETCH STALL: -nan AVERAGE FETCH QUEUE STALL: -nan AVERAGE DECODE STALL: -nan AVERAGE EXECUTE STALL: -nan
L1BTB TOTAL ROB OCCUPANCY AT BTB MISS: 4.50675

L2BTB TOTAL     ACCESS:    3598387  HIT:    3165825  MISS:     432562  HIT %:     87.979  MISS %:     12.021   MPKI: 8.65124
L2BTB BRANCH_DIRECT_JUMP	ACCESS:     398427 HIT:     349959 MISS:      48468 AVERAGE STALL: 25.4776 AVERAGE FETCH STALL: 16.9919 AVERAGE FETCH QUEUE STALL: 2.87777 AVERAGE DECODE STALL: 4.60798 AVERAGE EXECUTE STALL: 3.50672e+14
L2BTB BRANCH_INDIRECT	ACCESS:     106286 HIT:     101052 MISS:       5234 AVERAGE STALL: 54.1389 AVERAGE FETCH STALL: 12.4138 AVERAGE FETCH QUEUE STALL: 4.00419 AVERAGE DECODE STALL: 4.16054 AVERAGE EXECUTE STALL: 32.5603
L2BTB BRANCH_CONDITIONAL	ACCESS:    1290542 HIT:    1148124 MISS:     142418 AVERAGE STALL: 26.78 AVERAGE FETCH STALL: 18.11 AVERAGE FETCH QUEUE STALL: 3.35931 AVERAGE DECODE STALL: 4.31005 AVERAGE EXECUTE STALL: 1.30265e+14
L2BTB BRANCH_DIRECT_CALL	ACCESS:     838621 HIT:     723438 MISS:     115183 AVERAGE STALL: 28.7612 AVERAGE FETCH STALL: 19.3127 AVERAGE FETCH QUEUE STALL: 3.68482 AVERAGE DECODE STALL: 4.76369 AVERAGE EXECUTE STALL: 1.60189e+14
L2BTB BRANCH_INDIRECT_CALL	ACCESS:     140716 HIT:     119403 MISS:      21313 AVERAGE STALL: 68.4341 AVERAGE FETCH STALL: 12.9483 AVERAGE FETCH QUEUE STALL: 2.98218 AVERAGE DECODE STALL: 4.72028 AVERAGE EXECUTE STALL: 46.7834
L2BTB BRANCH_RETURN	ACCESS:     823795 HIT:     723849 MISS:      99946 AVERAGE STALL: 29.3376 AVERAGE FETCH STALL: 16.0312 AVERAGE FETCH QUEUE STALL: 3.52144 AVERAGE DECODE STALL: 4.5146 AVERAGE EXECUTE STALL: 1.82052e+14
L2BTB BRANCH_OTHER ACCESS:          0 HIT:          0 MISS:          0 AVERAGE STALL: -nan AVERAGE FETCH STALL: -nan AVERAGE FETCH QUEUE STALL: -nan AVERAGE DECODE STALL: -nan AVERAGE EXECUTE STALL: -nan
L2BTB TOTAL ROB OCCUPANCY AT BTB MISS: 37.7545

L2C TOTAL     ACCESS:    4494086  HIT:    4004582  MISS:     489504  HIT %:    89.1078  MISS %:    10.8922   MPKI: 9.79008
L2C LOAD INSTRUCTION	ACCESS:    2760517  HIT:    2475246  MISS:     285271  HIT %:     89.666  MISS %:     10.334  MPKI: 5.70542
L2C LOAD TRANSLATION INSTRUCTION	ACCESS:        294  HIT:         59  MISS:        235  HIT %:     20.068  MISS %:     79.932  MPKI: 0.0047
L2C LOAD DATA	ACCESS:     731976  HIT:     665509  MISS:      66467  HIT %:    90.9195  MISS %:    9.08049  MPKI: 1.32934
L2C RFO DATA	ACCESS:     288796  HIT:     235760  MISS:      53036  HIT %:    81.6355  MISS %:    18.3645  MPKI: 1.06072
L2C PREFETCH DATA	ACCESS:     186885  HIT:     116694  MISS:      70191  HIT %:    62.4416  MISS %:    37.5584  MPKI: 1.40382
L2C WRITEBACK DATA	ACCESS:     523732  HIT:     510796  MISS:      12936  HIT %:      97.53  MISS %:    2.46997  MPKI: 0.25872
L2C LOAD TRANSLATION DATA	ACCESS:       1839  HIT:        486  MISS:       1353  HIT %:    26.4274  MISS %:    73.5726  MPKI: 0.02706
L2C TRANSLATION FROM L1D PREFETCHER DATA	ACCESS:         47  HIT:         32  MISS:         15  HIT %:    68.0851  MISS %:    31.9149  MPKI: 0.0003

L2C PREFETCH  REQUESTED:      86629  ISSUED:      86629  USEFUL:       8497  USELESS:      62402
L2C USEFUL LOAD PREFETCHES:       8497 PREFETCH ISSUED TO LOWER LEVEL:      70722  ACCURACY: 12.0146
 TIMELY PREFETCHES:       8497 LATE PREFETCHES: 531 DROPPED PREFETCHES: 0
L2C AVERAGE MISS LATENCY: 39.0063 cycles
L2C RQ	ACCESS:    3783487	FORWARD:          0	MERGED:          0	TO_CACHE:    3783471
L2C WQ	ACCESS:     523732	FORWARD:         16	MERGED:          0	TO_CACHE:     523732
L2C PQ	ACCESS:     193600	FORWARD:          0	MERGED:       3594	TO_CACHE:     190006

L2C Dense regions hint from L2: 0
PSCL5 TOTAL     ACCESS:       4134  HIT:       2067  MISS:       2067  HIT %:         50  MISS %:         50   MPKI: 0.04134
PSCL5 LOAD TRANSLATION INSTRUCTION	ACCESS:       4040  HIT:       2020  MISS:       2020  HIT %:         50  MISS %:         50  MPKI: 0.0404
PSCL5 TRANSLATION FROM L1D PREFETCHER INSTRUCTION	ACCESS:         94  HIT:         47  MISS:         47  HIT %:         50  MISS %:         50  MPKI: 0.00094


PSCL4 TOTAL     ACCESS:       3741  HIT:       1865  MISS:       1876  HIT %:     49.853  MISS %:     50.147   MPKI: 0.03752
PSCL4 LOAD TRANSLATION INSTRUCTION	ACCESS:       3410  HIT:       1818  MISS:       1592  HIT %:    53.3138  MISS %:    46.6862  MPKI: 0.03184
PSCL4 TRANSLATION FROM L1D PREFETCHER INSTRUCTION	ACCESS:         94  HIT:         47  MISS:         47  HIT %:         50  MISS %:         50  MPKI: 0.00094
PSCL4 LOAD TRANSLATION DATA	ACCESS:        237  HIT:          0  MISS:        237  HIT %:          0  MISS %:        100  MPKI: 0.00474


PSCL3 TOTAL     ACCESS:       3775  HIT:       1882  MISS:       1893  HIT %:    49.8543  MISS %:    50.1457   MPKI: 0.03786
PSCL3 LOAD TRANSLATION INSTRUCTION	ACCESS:       3427  HIT:       1835  MISS:       1592  HIT %:    53.5454  MISS %:    46.4546  MPKI: 0.03184
PSCL3 TRANSLATION FROM L1D PREFETCHER INSTRUCTION	ACCESS:         94  HIT:         47  MISS:         47  HIT %:         50  MISS %:         50  MPKI: 0.00094
PSCL3 LOAD TRANSLATION DATA	ACCESS:        254  HIT:          0  MISS:        254  HIT %:          0  MISS %:        100  MPKI: 0.00508


PSCL2 TOTAL     ACCESS:       4043  HIT:       1976  MISS:       2067  HIT %:    48.8746  MISS %:    51.1254   MPKI: 0.04134
PSCL2 LOAD TRANSLATION INSTRUCTION	ACCESS:       2190  HIT:       1929  MISS:        261  HIT %:    88.0822  MISS %:    11.9178  MPKI: 0.00522
PSCL2 TRANSLATION FROM L1D PREFETCHER INSTRUCTION	ACCESS:         47  HIT:         47  MISS:          0  HIT %:        100  MISS %:          0  MPKI: 0
PSCL2 LOAD TRANSLATION DATA	ACCESS:       1759  HIT:          0  MISS:       1759  HIT %:          0  MISS %:        100  MPKI: 0.03518
PSCL2 TRANSLATION FROM L1D PREFETCHER DATA	ACCESS:         47  HIT:          0  MISS:         47  HIT %:          0  MISS %:        100  MPKI: 0.00094


LLC TOTAL     ACCESS:     550721  HIT:     520524  MISS:      30197  HIT %:    94.5168  MISS %:    5.48318   MPKI: 0.60394
LLC LOAD INSTRUCTION	ACCESS:     285271  HIT:     284298  MISS:        973  HIT %:    99.6589  MISS %:   0.341079  MPKI: 0.01946
LLC LOAD TRANSLATION INSTRUCTION	ACCESS:        235  HIT:        198  MISS:         37  HIT %:    84.2553  MISS %:    15.7447  MPKI: 0.00074
LLC LOAD DATA	ACCESS:      65979  HIT:      62482  MISS:       3497  HIT %:    94.6998  MISS %:    5.30017  MPKI: 0.06994
LLC RFO DATA	ACCESS:      52993  HIT:      37656  MISS:      15337  HIT %:    71.0584  MISS %:    28.9416  MPKI: 0.30674
LLC PREFETCH DATA	ACCESS:      70721  HIT:      60812  MISS:       9909  HIT %:    85.9886  MISS %:    14.0114  MPKI: 0.19818
LLC WRITEBACK DATA	ACCESS:      74154  HIT:      73797  MISS:        357  HIT %:    99.5186  MISS %:   0.481431  MPKI: 0.00714
LLC LOAD TRANSLATION DATA	ACCESS:       1353  HIT:       1268  MISS:         85  HIT %:    93.7177  MISS %:    6.28234  MPKI: 0.0017
LLC TRANSLATION FROM L1D PREFETCHER DATA	ACCESS:         15  HIT:         13  MISS:          2  HIT %:    86.6667  MISS %:    13.3333  MPKI: 4e-05

LLC AVERAGE MISS LATENCY: 157.496 cycles
LLC RQ	ACCESS:     405846	FORWARD:          0	MERGED:          0	TO_CACHE:     405846
LLC WQ	ACCESS:      74154	FORWARD:          1	MERGED:          0	TO_CACHE:      74154
LLC PQ	ACCESS:      70722	FORWARD:          0	MERGED:          0	TO_CACHE:      70721

LLC Dense regions hint to LLC: 0

RAW hits: 1163546
Loads Generated: 12631350
Loads sent to L1D: 11467804
Stores Generated: 6939455
Stores sent to L1D: 6939464
Major fault: 0 Minor fault: 2545
Allocated PAGES: 2545

stream: 
stream:times selected: 1193195
stream:pref_filled: 123354
stream:pref_useful: 26971
stream:pref_late: 7265
stream:misses: 8046
stream:misses_by_poll: 0

CS: 
CS:times selected: 182964
CS:pref_filled: 63117
CS:pref_useful: 39048
CS:pref_late: 8047
CS:misses: 19316
CS:misses_by_poll: 4

CPLX: 
CPLX:times selected: 1009131
CPLX:pref_filled: 22292
CPLX:pref_useful: 5677
CPLX:pref_late: 3377
CPLX:misses: 100977
CPLX:misses_by_poll: 0

NL_L1: 
NL:times selected: 19568
NL:pref_filled: 513
NL:pref_useful: 261
NL:pref_late: 396
NL:misses: 1653
NL:misses_by_poll: 0

total selections: 2404858
total_filled: 96330
total_useful: 39249
total_late: 20547
total_polluted: 4
total_misses_after_warmup: 771568
conflicts: 6016492

test: 117047

DRAM Statistics
 CHANNEL 0
 RQ ROW_BUFFER_HIT:      11273  ROW_BUFFER_MISS:      18553
 DBUS_CONGESTED:          2
 WQ ROW_BUFFER_HIT:       1525  ROW_BUFFER_MISS:      12551  FULL:          0

 AVG_CONGESTED_CYCLE: 3

CPU 0 Branch Prediction Accuracy: 99.8249% MPKI: 0.3202 Average ROB Occupancy at Mispredict: 71.873
Branch types
NOT_BRANCH: 40853946 81.7079%
BRANCH_DIRECT_JUMP: 546800 1.0936%
BRANCH_INDIRECT: 182469 0.364938%
BRANCH_CONDITIONAL: 6185620 12.3712%
BRANCH_DIRECT_CALL: 943841 1.88768%
BRANCH_INDIRECT_CALL: 171576 0.343152%
BRANCH_RETURN: 1115415 2.23083%
BRANCH_OTHER: 0 0%

DRAM PAGES: 1048576
Allocated PAGES: 2545
Average_ROB_Occupancy: 49.2457
Average_Decode_Occupancy: 4.40248
Average_FTQ_Occupancy: 13.5377
Indirect max targets: 14 Average targets: 1.14527
Branch_type:  BRANCH_DIRECT_JUMP:  Count Percentage: 3.2862 6.37765 4.42913 3.4393 10.298 8.94488 1.699 61.5258 
Branch_type:  BRANCH_INDIRECT:  Count Percentage: 13.7528 3.46422 2.49789 3.76812 9.67587 16.6076 3.22428 47.0092 
Branch_type:  BRANCH_CONDITIONAL:  Count Percentage: 21.542 3.03833 1.60996 3.09364 6.18126 13.3239 0.993242 50.2176 
Branch_type:  BRANCH_DIRECT_CALL:  Count Percentage: 0.767941 1.27833 1.00376 2.45462 4.77145 4.22695 0.884211 84.6127 
Branch_type:  BRANCH_INDIRECT_CALL:  Count Percentage: 9.53317 0 2.98951 4.27841 0 5.50916 0.992627 76.6971 
Branch_type:  BRANCH_RETURN:  Count Percentage: 4.53488 1.37297 2.07592 3.16352 7.80555 14.6066 1.38201 65.0586 
Branch_type:  BRANCH_DIRECT_JUMP:  Total Count: 35889 69651 48371 37561 112466 97688 18555 671930 
Branch_type:  BRANCH_INDIRECT:  Total Count: 50097 12619 9099 13726 35246 60496 11745 171239 
Branch_type:  BRANCH_CONDITIONAL:  Total Count: 2663424 375655 199053 382493 764242 1647351 122803 6208834 
Branch_type:  BRANCH_DIRECT_CALL:  Total Count: 14524 24177 18984 46424 90242 79944 16723 1600273 
Branch_type:  BRANCH_INDIRECT_CALL:  Total Count: 32788 0 10282 14715 0 18948 3414 263789 
Branch_type:  BRANCH_RETURN:  Total Count: 101401 30700 46418 70737 174534 326606 30902 1454726 
Number of unique branch instructions: 9923
Upper 32 bits: 
aaaa
ffff
ffff0000
Unique upper 32 bits: 3
Unique upper 36 bits: 3
Unique upper 40 bits: 5
Unique upper 44 bits: 32
Unique upper 48 bits: 154
Offset_3 4076
Offset_4 256
Offset_5 452
Offset_6 505
Offset_7 581
Offset_8 512
Offset_9 471
Offset_10 381
Offset_11 310
Offset_12 272
Offset_13 203
Offset_14 227
Offset_15 193
Offset_16 224
Offset_17 145
Offset_18 118
Offset_19 235
Offset_20 137
Offset_21 235
Offset_22 391
Offset_23 245
Offset_24 331
Offset_25 88
Offset_47 82
decode_dispatch_called: 29698852 48.6953
Dispatch_width: 0 17594620 59.2434 28.8488
Dispatch_width: 1 2138864 7.20184 3.50696
Dispatch_width: 2 1255624 4.22785 2.05877
Dispatch_width: 3 1138488 3.83344 1.86671
Dispatch_width: 4 1150679 3.87449 1.88669
Dispatch_width: 5 1192077 4.01388 1.95457
Dispatch_width: 6 5228500 17.6051 8.57284
Empty_decode_cycles: 31290286 51.3047
ROB_full_cycles: 494003 0.809985
Starvation_cycles_per_kilo_instr: 552.666
Starvation_cycles_per_kilo_instr_3: 529.239
Starvation_cycles_per_kilo_instr_0: 483.909
Branch_type_1  (3,1)  (4,11)  (5,37)  (6,70)  (7,115)  (8,130)  (9,123)  (10,97)  (11,70)  (12,43)  (13,5)  (14,2)  (15,3)  (16,4)  (18,1)  (19,4)  (20,2)  (21,1)  (22,3)  (23,2)  (24,10)  (25,12) 
Branch_type_2  (3,1)  (5,1)  (8,3)  (9,3)  (12,1)  (13,1)  (14,1)  (16,3)  (17,2)  (20,2)  (21,2)  (23,5)  (24,1)  (47,38) 
Branch_type_3  (3,4074)  (4,245)  (5,410)  (6,420)  (7,436)  (8,317)  (9,258)  (10,152)  (11,125)  (12,52)  (13,4) 
Branch_type_4  (6,3)  (7,8)  (8,26)  (9,53)  (10,64)  (11,58)  (12,97)  (13,88)  (14,100)  (15,91)  (16,100)  (17,65)  (18,53)  (19,115)  (20,72)  (21,124)  (22,208)  (23,138)  (24,192)  (25,72) 
Branch_type_5  (8,2)  (9,1)  (10,3)  (11,5)  (12,3)  (13,14)  (14,16)  (15,11)  (16,20)  (17,11)  (18,16)  (19,12)  (20,10)  (21,13)  (22,42)  (23,26)  (24,37) 
Branch_type_6  (5,4)  (6,12)  (7,22)  (8,34)  (9,33)  (10,65)  (11,52)  (12,76)  (13,91)  (14,108)  (15,88)  (16,97)  (17,67)  (18,48)  (19,104)  (20,51)  (21,95)  (22,138)  (23,74)  (24,91)  (25,4)  (47,44) 
aaaaab1fc620: 2ac9e77e 2aca717c 2aca8eff 2acaf6bc 2acaf9aa 2acaf9f1 2acb1abc 2acb1b7f 2acd4e22 2acdb712 2acf5f9e 2ad0ef44 2ad3f15c 2ad414e6 2ad60e42 2ad8609c 2ad99830 2ada35cc 2ada4676 2ada6612 2adf183e 2adf30e5 2adf5602 2adf785c 2ae11572 2aeb2dcf 2aee101b 2aee1ae1 2aee9456 2b156a8c 2b156b61 2b156bea 2b167f35 2b177656 2b17feec 2b1a3e5a 
aaaaab1fc740: 2aca1fb0 2aca45b3 2aca5aa1 2aca5c69 2aca66f9 2aca9426 2acaeecb 2acf3d2d 2acf3d64 2acf6089 2ad017ea 2ad5e7ef 2ad61064 2ad87373 2ad9bf84 2ad9c093 2ae9b606 2aea9ffa 2aee99f5 2aee9a2c 2aeece4b 
aaaaac68f310: 2ac9ec8c 2ac9fb44 2ac9fbd2 2aca59ab 2acac04c 2acaf6e0 2acaf6ec 2acaf6f9 2acaf700 2acaf708 2acf2d90 2ad3cfbd 2ad3cfc4 2ad3d000 2ad3f35f 2ad4955d 2ad49571 2ad4f3f2 2ad4f400 2ad5f240 2ad5f37c 2ad5f86a 2ad5f86f 2ad5f880 2ad5fc0d 2ad5fc14 2ad5fc21 2ad5fe1b 2ad873bb 2ad873e3 2ad8a6b2 2ad9086e 2ad93096 2ad9bbb2 2ada152c 2ada1554 2ada3332 2ada5522 2adf3130 2adf313c 2adf3a3f 2adf3bd9 2adf5788 2adf7a8d 2ae07f6b 2ae0857a 2ae0857e 2ae08630 2ae08634 2ae08637 2ae08642 2ae0866f 2ae086e4 2ae086ec 2ae08717 2ae0871b 2aee0170 2aee1d38 2aee75f4 2aee7662 2aee85ca 2aee85e4 2aee8eef 2aee9a0a 2af70b84 2af74e8f 2b17d843 
aaaaac690ef0: 2aca598b 2acb111b 2acb175f 2acb1772 2acbfaf4 2acbfb00 2acf374f 2acf6d43 2acfa5c8 2ad3baf1 2ad3d4ac 2ad3d4b8 2ad3f1cf 2ad486b2 2ad5a59b 2ad5fc64 2ad5fcf9 2ad6121c 2ad906e9 2ad907bf 2ad9bada 2ada16ce 2ada1ad5 2ada43df 2ada64c0 2ada72ee 2adeb71a 2adf3bcb 2adf7a38 2adf7c6a 2adf8872 2adf8880 2adf9959 2adf9abe 2ae07f78 2ae08503 2ae08754 2ae12e80 2aea3bea 2aecb509 2aee00b0 2aee2bdd 2aee5467 2aee5601 2aee8f20 2af703fd 2af7048b 2af74e74 2dfba627 
Unique trigger count: 
1 9475
2 484
3 86
4 31
5 7
6 8
7 6
8 1
9 3
10 1
11 2
12 1
13 3
16 2
18 2
19 2
21 1
36 1
49 1
67 1
BTB PER SET UNIQUE ADDR: 2 4 3 2 2 0 3 2 4 0 2 1 5 3 1 3 3 2 3 4 3 4 2 4 4 5 1 4 3 2 6 6 4 2 4 2 1 5 5 2 3 4 3 6 6 2 4 4 6 3 3 2 3 1 0 4 4 3 3 3 1 4 2 3 1 4 5 2 3 5 5 1 1 4 2 3 3 6 1 3 2 3 1 4 3 3 2 5 3 3 6 4 3 5 2 0 3 3 1 3 4 2 3 3 2 2 1 3 3 2 2 1 3 6 2 6 2 4 4 1 4 4 2 0 1 2 2 1 6 4 5 2 4 1 5 3 2 1 3 3 5 3 3 2 1 4 2 5 4 3 3 8 3 5 2 0 3 3 3 2 3 5 4 4 4 3 2 2 8 1 2 2 4 2 1 1 3 4 5 1 3 3 6 3 4 5 3 1 2 3 5 3 3 4 4 4 2 3 3 5 3 2 4 1 3 3 2 4 2 1 2 4 5 4 3 2 3 5 4 0 1 1 2 3 3 2 3 3 0 3 8 3 3 1 3 3 3 2 1 2 1 0 5 3 9 7 1 1 3 3 2 2 1 3 2 6 3 4 4 3 4 4 4 2 3 6 3 1 4 2 3 2 2 3 4 2 1 1 3 3 4 2 6 2 5 5 3 3 1 1 0 3 1 5 1 1 5 3 1 2 3 3 1 2 3 2 4 2 6 5 3 1 3 2 5 1 6 6 2 2 3 6 3 4 2 3 1 6 1 1 4 0 2 5 5 2 2 2 5 0 3 0 1 4 4 3 1 2 3 3 3 5 4 3 5 3 2 0 4 1 3 4 2 4 6 5 1 1 2 2 2 2 2 5 4 4 3 3 3 4 5 3 2 5 3 2 5 2 4 1 5 4 4 2 3 1 5 0 1 3 4 2 4 2 2 4 4 3 1 1 2 3 5 3 2 2 5 3 1 3 1 1 3 4 3 3 2 0 2 4 2 2 9 4 5 5 3 3 3 0 2 5 5 4 4 6 2 4 3 2 4 3 1 2 5 1 1 4 7 2 3 4 4 6 1 3 4 2 3 3 0 4 4 2 2 1 4 5 1 1 2 1 3 2 1 4 3 1 5 1 4 2 3 4 0 6 4 4 3 1 5 2 1 1 1 2 2 2 2 3 3 2 2 6 3 1 2 5 4 5 3 5 4 2 6 5 0 6 6 3 4 3 3 6 3 4 1 1 4 1 2 5 6 2 5 2 7 3 6 9 3 6 3 6 1 5 3 1 2 3 7 2 5 2 2 1 4 2 2 7 4 2 3 8 3 2 3 3 1 5 4 2 1 0 1 0 0 9 5 3 5 7 1 1 2 3 5 2 2 1 3 2 4 6 2 4 3 4 3 2 5 2 3 2 2 2 2 0 3 1 5 3 6 2 2 3 2 5 2 3 5 4 3 2 5 2 2 3 2 2 7 1 4 3 0 0 3 3 3 3 3 2 5 2 3 0 4 3 2 3 5 2 5 4 6 4 5 2 1 4 5 3 4 3 5 6 3 3 3 3 3 2 4 2 5 3 5 3 4 3 1 4 2 2 2 3 6 4 5 3 0 6 0 3 3 2 3 1 3 1 3 3 3 1 2 1 7 2 0 3 2 0 1 1 1 1 1 4 2 4 5 4 2 1 2 4 4 3 2 2 1 3 2 4 2 1 3 2 2 2 0 2 1 3 2 2 2 6 4 1 3 3 1 5 4 4 8 2 2 2 4 3 0 3 3 4 5 2 1 3 3 4 0 3 8 6 3 3 0 2 2 4 1 1 4 7 7 2 2 2 5 3 5 3 4 3 3 5 1 2 1 3 4 0 4 3 1 2 0 4 4 2 4 2 2 1 2 2 4 4 3 1 3 2 5 2 2 1 5 2 2 1 3 3 1 4 6 4 4 2 6 2 5 4 4 5 3 2 5 4 3 7 2 1 9 3 2 4 5 3 1 3 3 6 4 0 3 2 5 4 3 5 3 4 5 3 2 2 2 4 4 2 3 3 3 1 6 3 1 1 5 2 2 3 4 5 3 5 3 4 5 4 0 3 1 5 0 0 5 2 5 4 5 3 4 1 3 2 5 6 4 4 8 7 5 4 6 5 1 5 4 2 0 4 4 5 5 5 3 2 6 1 5 4 2 3 6 5 4 2 2 2 4 5 2 5 9 4 6 3 2 3 0 4 5 1 6 5 1 3 6 5 3 5 2 1 2 2 3 2 5 4 2 7 4 3 4 5 3 5 1 2 4 2 2 5 4 3 2 2 5 2 4 3 5 2 5 2 2 3 5 2 9 5 2 3 3 2 2 3 4 7 6 2 3 2 3 2 3 1 3 2 4 4 1 4 5 5 4 6 0 3 3 3 3 4 2 1 3 2 3 1 2 1 4 1 3 3 3 5 2 8 5 3 2 1 10 1 2 4 1 2 5 5 3 6 3 5 5 5 2 5 2 2 1 1 5 0 4 4 3 7 4 1 7 4 6 2 3 4 5 3 5 7 4 4 6 1 4 4 7 4 3 3 4 3 6 6 2 6 5 6 4 3 5 3 1 2 4 5 1 3 2 1 3 4 2 2 5 2 2 5 4 1 5 1 7 3 3 2 3 1 3 4 3 4 3 4 2 6 1 3 6 3 4 3 3 5 2 8 3 5 3 8 6 1 6 1 5 2 1 2 4 4 2 1 3 4 2 1 2 1 4 3 3 3 2 3 2 5 2 4 4 5 0 5 3 2 2 6 8 0 6 0 1 4 5 2 5 1 3 3 4 1 1 2 4 5 3 4 1 4 4 6 5 1 4 3 3 6 10 4 2 6 6 5 1 1 3 5 6 3 2 2 4 3 4 4 5 3 1 4 2 2 6 8 5 3 3 6 1 2 5 2 4 1 3 2 6 8 3 3 3 3 4 4 2 5 6 5 4 2 1 5 3 2 4 3 4 4 4 4 7 3 5 4 3 5 5 3 1 7 4 4 3 3 3 2 3 3 2 2 5 4 3 2 5 1 1 3 3 8 5 1 4 4 2 3 3 3 4 3 2 1 3 2 4 2 5 3 4 4 2 1 2 6 1 4 2 4 3 4 6 2 1 4 4 4 3 3 5 2 3 4 4 5 4 4 4 3 3 2 2 3 5 2 4 1 3 0 8 3 2 6 4 4 5 7 3 2 3 3 1 2 4 1 4 2 4 2 0 5 1 5 2 2 3 3 3 2 4 2 4 2 3 1 5 1 0 3 4 1 1 3 1 4 2 3 6 3 1 2 2 3 2 2 6 2 3 6 3 3 3 3 2 2 3 0 2 2 2 3 2 1 2 0 4 0 4 2 4 3 3 3 2 1 2 4 4 2 7 1 3 3 2 2 4 5 2 2 5 0 1 2 3 1 1 2 3 3 5 3 1 1 5 3 1 4 1 6 1 4 2 3 6 2 2 2 1 3 3 1 1 3 4 1 3 3 1 2 0 5 1 3 3 0 3 2 5 3 4 3 3 4 1 3 1 2 1 3 3 0 2 3 2 3 3 1 3 3 2 9 6 2 2 2 4 1 1 3 5 2 3 0 3 2 3 2 3 4 5 5 7 0 4 1 6 4 4 5 3 7 2 4 8 3 0 6 3 3 3 4 3 3 2 1 2 4 2 2 2 3 2 3 5 3 5 3 6 1 1 5 5 3 3 4 4 3 6 2 5 5 2 6 3 3 3 1 3 7 5 3 2 3 3 3 3 4 2 2 3 1 3 1 3 7 0 2 2 3 3 3 5 3 4 2 6 1 2 2 5 2 5 5 6 1 1 7 2 4 2 3 4 6 2 3 2 3 6 3 3 3 5 3 4 9 4 4 3 5 3 5 4 3 2 3 0 2 2 4 4 3 2 3 3 4 4 2 3 7 0 4 2 5 4 4 3 4 4 6 2 5 1 5 2 3 5 2 3 0 2 5 0 7 2 5 5 1 4 3 2 0 4 2 3 5 3 6 2 2 2 1 3 4 6 1 3 3 0 3 2 5 5 3 1 3 6 3 3 3 6 3 4 1 5 3 0 2 4 1 1 8 2 0 4 1 4 3 2 3 6 3 3 6 1 5 3 5 2 5 4 2 3 2 7 1 4 0 3 3 4 4 3 3 2 1 2 3 0 3 0 3 4 6 2 2 5 2 3 3 3 1 2 3 4 2 4 2 5 3 2 3 1 2 4 3 3 2 3 5 2 1 1 2 2 5 1 4 1 5 4 2 3 1 4 1 2 4 5 2 3 4 4 5 3 4 3 4 4 2 0 3 2 0 2 1 2 2 4 2 5 2 2 3 4 1 2 4 3 2 3 7 4 2 7 7 4 2 3 1 2 6 3 4 5 2 5 0 1 2 4 3 2 4 3 2 5 3 4 7 4 2 0 4 2 0 2 3 0 4 4 6 1 3 4 6 4 0 2 2 4 1 4 1 3 2 9 3 1 2 3 6 3 7 3 4 7 0 1 4 2 4 2 1 0 2 3 4 6 4 1 0 3 4 5 1 1 1 4 5 2 1 5 4 3 3 5 4 1 6 3 6 2 1 2 2 2 3 5 1 3 2 3 2 3 1 5 2 5 3 4 2 1 3 5 4 4 0 
BTB PER SET COUNT: 2 4 3 3 3 0 4 2 4 0 2 1 2397 3 2 3 3 2 3 1472 3 4 2 4 4 15 1 5 1471 2 2878 28 4 2 5 2 2937 706 707 2 3 4 3 2154 5468 2 4 4 1554 3 4 2 3 1 0 4 5 3 3 3 1 4 2 3 1 352 456 2 3 957 706 1 1 4 2 3 483 719 1 3 2 4 1 4 3 4 2 12 3 3 2440 512 3 3987 3 0 3 4 1 3 4 2 4 3 2 2 1 3 3 2 2 1 3 1909 2 1806 2 4 4 1 4 4 2 0 1 2 2 1 2339 6 1921 2 4 2 963 3 2 1 3 3 541 5 3 2 1 5 2 4466 4 3 3 6833 3 2401 2 0 3 3 3 2 3 942 4 4 4 1981 2 2 8366 1 2 2 4 2 1 1 3 4 998 1 3 3 6835 3 4 8 3 1 2 3 51 3 4 4 4 8 2 3 4 6 3 2 4 1 6 4 2 1472 2 1 2 5 17 4 3 2 3 210 4 0 1 1 2 3 3 2 3 36 0 3 5821 3 3 1 3 3 3 2 1 2 2 0 2399 3 9321 1974 1 1 3 3 2 2 1 3 2 2023 4 4 4 3 4 4 4 2 1471 1488 3 1 4 2 3 2 2 3 4 2 1 1 4 3 5 2 1922 2 706 2398 3 3 1 1 0 3 1 16 1 1 9 3 1 2 3 3 1 2 4 2 4 2 1922 940 3 1 3 2 939 2 2400 1179 2 4 3 2144 3 4 2 3 1 174 1 1 961 0 2 17 1520 3 960 2 24 0 3 0 1 963 963 3 1 2 3 4 3 117 4 3 60 4 2 0 4 1 3 4 2 4 2767 592 1 1 2 2 2 2 2 12 4 4 3 3 3 4 24 3 2 593 4 2 11 2 4 1 20 4 4 2 4 1 3513 0 1 3 4 2 4 2 2 5 1472 3 2 989 2 3 9 3 990 2 166 3 1 90 1 1 3 4 3 3 5 0 2 6 143 2 2642 4 932 2398 3 3 3 0 3 6 1174 4 5 948 2 4 3 2 4 3 1 2 1920 1 1 4 1461 3 3 4 4 1929 1 3 4 2 3 3 0 5 34 481 2 1 4 940 1 1 2 1 3 481 1 4 3 1 23 1 4 2 3 4 0 25 5 4 3 1 1919 12 1 1 2 2 2 2 2 3 3 2 2 34 3 1 2 2400 4 487 3 1476 4 2 21 1441 0 1924 4952 3 4 3 4 22 3 484 1 1 6 1 2 1440 205 3 15 2 69 5 978 9254 3 1456 5 2876 1 5 7 2 2 3 6865 2 1923 2 2 1 4 2 2 2906 4 3 3 5438 3 2 3 3 3 24 4 45 1 0 1 0 0 3835 6 3 1919 2880 1 1 990 3 5 2 2 1 3 2 6 1410 2 4 3 4 3 2 2398 2 3 2 2 2 1020 0 3 1 13 483 3358 2 2 3 2 17 2 3 1921 1472 4 9 962 2 2 3 2 2 2886 1 4 3 0 0 4 3 3 3 3 2 10 2 3 0 4 3 2 3 7780 2 24 4 1921 5 2956 961 2 4 705 3 5 3 1440 2941 3 3 5 3 3 2 4 961 1441 3 21 1471 4 3 2 965 3 3 2 3 1925 4 19 31 0 2402 0 3 3 961 4 1 3 1 3 3 6 1 961 1 2443 2 0 3 2 0 1 1 1 1 1 5 2 4 1441 4 990 1 2 5 4 4 3 2 1 3 2 4 2 2 482 2 2 962 0 2 1 4 2 2 2 2878 4 2 3 3 1 18 4 4 5913 2 3 2 4 3 0 90 3 4 2999 3 1 3 3 4 0 3 2980 4952 3 3 0 2 2 30 1 1 5 2903 1908 2 2 2 11 3 5 5 1922 3 3 20 2 5 1 3 4 0 5 4 3 2 0 4 4 2 4 2 2 1 2 2 4 120 3 1 3 2 1920 2 2 1 1441 2 2 1 4 1474 1 8 1920 4 4 2 2400 2 1921 6 4 12 3 2 9 4 3 4917 2 1 6456 991 2 4 1440 3 1 3 3 2566 4 0 4 2 25 4 3 4946 4 4 69 3 2 2 2 4 5 2 4 4 3 1 723 3 1 1 1669 2 2 63 5 2546 3 939 3 4 42 4 0 3 1 1442 0 0 962 2 48 4 1441 3 5 1 3 2 1919 84 4 484 5432 3993 1441 4 2032 9 1 24 4 2 0 992 4 2398 21 1441 3 2 738 1 386 5 4 3 1378 1922 4 2 2 482 4 4947 3 17 1075 4 1925 6 2 3 0 352 24 1 7373 19 1 3 1929 20 482 8 2 4 2 2 3 2 1670 4 2 3357 5 3 4 1918 3 27 1 2 4 2 2 19 4 4 2 3 1932 2 2461 350 1664 3 23 3 2 3 1669 2 5203 23 2 3 3 2 2 3 4 2882 1926 3 3 2 3 2 3 4 4 2 4 5 1 4 13 1921 4 1451 0 3 3 3 1471 354 2 1 3 4 3 1 3 1 4 1 4 3 3 8 2 3837 1440 3 2 1 11275 1 2 4 1 2 1920 138 3 5425 4 24 7 2398 2 28 2 2 1 1 27 0 5 4 3 1935 4 1 2008 4 2403 2 482 4 14 3 2398 1811 4 4 2402 1 5 5 4952 4 3 3 5 3 1446 1907 2 2399 1441 1902 4 3 13 4 1 2 4 1921 1 3 2 1 3 4 2 2 494 2 2 18 5 1 12 1 5737 3 3 2 3 1 3 4 3 4 4 4 2 26 1 3 1666 3 4 4 3 1922 2 5880 3 1441 4 2518 7376 1 5426 1 19 2 1 2 483 6 2 1 3 125 3 1 2 480 4 3 3 3 2 3 2 1441 2 5 4 16 0 1920 3 2 2 47 7387 0 36 0 1 4 7 2 23 1 3 962 5 1 1 2 4 13 3 4 1 4 4 7344 18 1 4 3 3 2861 10253 1992 2 7374 25 1921 1 1 3 1921 2398 3 2 2 5 3 4 4 16 3 1 4 2 2 3465 7960 3988 3 5 348 1 2 23 2 4 1 3 2 2877 6636 991 3 3 3 4 4 2 1920 1925 2399 4 2 1 22 3 2 7 3 4 4 4 4 1930 3 1921 4 483 1920 2398 7 1 2955 4 4 3 4 3 2 3 4 2 2 17 4 4 2 931 1 1 5 3 2886 11 1 4 4 2 4 4 3 4 3 4 1 3 2 5 2 14 3 9 4 2 1 2 944 1 4 2 4 3 4 364 2 1 4 4 992 3 3 2401 2 3 47 4 14 4 4 4 3 3 2 2 3 1918 5 5 1 3 0 5972 3 2 2877 4 4 2397 6900 4 2 3 3 1 2 4 1 4 4 4 3 0 3941 1 13 2 2 4 3 3 3 1472 2 4 1338 3 1 538 1 0 3 4 1 1 1339 1 5 2 3 1924 3 1 2 2 3 2 2 2878 3 3 73 4 3 3 3 2 2 4 0 3 2 2 991 2 1 2 0 5 0 4 2 4 3 3 3 961 1 15 4 20 2 2402 1 3 3 2 2 6 11 106 2 21530 0 1 2 3 1 1 2 3 3 1992 382 1 1 1353 3 1 4 1 2402 1 4 2 3 1901 2 2 2 1 3 3 1 1 3 4 1 4 3 1 2 0 3987 1 3 4 0 3 453 1916 3 4 3 3 4 1 4 1 2 1 4 3 0 2 3 2 4 11 1 3 3 2 3606 2877 2 2 2 4 1 1 3 1694 2 3 0 3 2 3 2 3 4 2398 18 5904 0 4 1 2154 4 4 23 3 3358 2 4 8514 3 0 2881 1471 3 3 4 3 3 2 1 2 992 3 2 2 3 2 3 1631 5 1921 3 978 2873 1 1159 6865 3 8 7 4 3 3505 2 1504 1921 2 1926 3 259 350 1 1471 1451 10 227 10 3 3 3 5 4 2 2 3 1 3 1 3 2550 0 2 2 3 3 3 499 3 4 2 3963 2 2 3 1441 2 1444 1441 2879 1 1 6403 2 962 2 3 5 1924 482 3 2 3 2878 3 485 3 4562 3 4 8853 4 4 14693 2875 3 1920 1473 3 2 3 0 3 2 4 4 3 2 6 3 4 4 2 153 3356 0 1473 2 1475 71 4 3 4 4 2267 2 770 1 2397 2 3 8 2 3 0 2 2958 0 5424 2 1159 2401 1 4 3 2 0 4 2 3 2547 3 4914 2 2 2 1 3 4 7344 1 3 550 0 4 2 7 1920 991 1 3 1954 3 3 3 2156 3 4 1 24 3 0 2 4 1469 1 3784 2 0 4 1 4 3 2 3 2345 3 411 2399 1 2398 3 1920 230 1919 102 2 3 2 4269 1 233 0 4 1471 4 4 4 3 2 1 2 512 0 3 0 3 5 3290 2 2 711 394 3 6 991 1 2 3 4 2 4 2 125 3 2 3 1 2 234 3 3 2 3 5 2 1 1 2 2 1357 1 4 1 3988 4 2 3 2 4 1 2 4 13 2 4 964 4 963 3 4 3 5 4 2 0 3 3 0 2 1 3 2 4 8 2398 2 2 3 4 1 3 4 3 2 3 3256 6 2 3111 2401 127 2 4 2 2 22 3 4 9 2 8 0 1 2 4 962 2 4 3 2 8 4 4 2503 4 2 0 4 2 0 2 3 0 5 1473 975 1 3 4 2377 4 0 2 2 6 2 4 1 3 2 3785 3 1 2 3 2406 6 3357 3 4 5194 0 1 4 2 5 2 1 0 2 3 5 22 4 2 0 3 5 1441 1 1 1 4 2398 2 1 22 4 3 5 1918 5 1 2403 3 1923 2 1 2 2 2 3 5 1 3 2 3 2 3 1 17 2 214 3 4 2 1 3 1492 4 5 0 
