
*** ChampSim Multicore Out-of-Order Simulator ***

Warmup Instructions: 50000000
Simulation Instructions: 50000000
Number of CPUs: 1
LLC sets: 2048
LLC ways: 16
Off-chip DRAM Size: 4096 MB Channels: 1 Width: 64-bit Data Rate: 6400 MT/s
CPU 0 runs ./micro_traces/srv389.trace.gz
.gz
ITLB has LRU replacement policy
DTLB has LRU replacement policy
STLB has LRU replacement policy
FDIP Prefetcher at L1I
L1I has LRU replacement policy
L1D has LRU replacement policy
Initialize SRRIP state for L2C
Initialize DRRIP state for LLC
Heartbeat CPU 0 instructions: 10000003 cycles: 2794581 heartbeat IPC: 3.57836 cumulative IPC: 3.57836 (Simulation time: 0 hr 2 min 28 sec) 
Heartbeat CPU 0 instructions: 20000003 cycles: 5589535 heartbeat IPC: 3.57788 cumulative IPC: 3.57812 (Simulation time: 0 hr 4 min 24 sec) 
Heartbeat CPU 0 instructions: 30000000 cycles: 8384605 heartbeat IPC: 3.57773 cumulative IPC: 3.57799 (Simulation time: 0 hr 6 min 35 sec) 
Heartbeat CPU 0 instructions: 40000003 cycles: 11179131 heartbeat IPC: 3.57843 cumulative IPC: 3.5781 (Simulation time: 0 hr 8 min 44 sec) 
Heartbeat CPU 0 instructions: 50000000 cycles: 13973484 heartbeat IPC: 3.57864 cumulative IPC: 3.57821 (Simulation time: 0 hr 10 min 44 sec) 

Warmup complete CPU 0 instructions: 50000004 cycles: 13973485 (Simulation time: 0 hr 10 min 44 sec) 

Cycle: 20000000 FTQ IN: 54269837 FTQ occupancy: 17.2262 DECODE IN: 54269793 DECODE occupancy: 44.1655 ROB IN: 54269793 ROB occupancy: 261.474 ROB OUT: 54269778
*** Reached end of trace for Core: 0 Repeating trace: ./micro_traces/srv389.trace.gz
Heartbeat CPU 0 instructions: 60000000 cycles: 27755357 heartbeat IPC: 0.725591 cumulative IPC: 0.725591 (Simulation time: 0 hr 12 min 23 sec) 
Cycle: 30000000 FTQ IN: 7396722 FTQ occupancy: 3.54423 DECODE IN: 7396766 DECODE occupancy: 6.59994 ROB IN: 7396763 ROB occupancy: 55.5197 ROB OUT: 7396739
Cycle: 40000000 FTQ IN: 7279553 FTQ occupancy: 3.72754 DECODE IN: 7279502 DECODE occupancy: 7.0634 ROB IN: 7279505 ROB occupancy: 58.2391 ROB OUT: 7279368
Heartbeat CPU 0 instructions: 70000002 cycles: 41450542 heartbeat IPC: 0.730184 cumulative IPC: 0.72788 (Simulation time: 0 hr 13 min 53 sec) 
Cycle: 50000000 FTQ IN: 7396609 FTQ occupancy: 3.51841 DECODE IN: 7396624 DECODE occupancy: 6.49559 ROB IN: 7396624 ROB occupancy: 54.7422 ROB OUT: 7396787
Heartbeat CPU 0 instructions: 80000000 cycles: 54923805 heartbeat IPC: 0.742211 cumulative IPC: 0.732595 (Simulation time: 0 hr 15 min 22 sec) 
Cycle: 60000000 FTQ IN: 7437668 FTQ occupancy: 3.55194 DECODE IN: 7437701 DECODE occupancy: 6.64863 ROB IN: 7437701 ROB occupancy: 55.5971 ROB OUT: 7437713
Heartbeat CPU 0 instructions: 90000001 cycles: 68490887 heartbeat IPC: 0.737078 cumulative IPC: 0.733711 (Simulation time: 0 hr 16 min 50 sec) 
Cycle: 70000000 FTQ IN: 7347952 FTQ occupancy: 3.70891 DECODE IN: 7347946 DECODE occupancy: 6.98028 ROB IN: 7347942 ROB occupancy: 57.3692 ROB OUT: 7347865
Cycle: 80000000 FTQ IN: 7392014 FTQ occupancy: 3.55173 DECODE IN: 7392015 DECODE occupancy: 6.60128 ROB IN: 7392019 ROB occupancy: 55.7112 ROB OUT: 7392097
Heartbeat CPU 0 instructions: 100000003 cycles: 82017811 heartbeat IPC: 0.739267 cumulative IPC: 0.734815 (Simulation time: 0 hr 18 min 8 sec) 
Finished CPU 0 instructions: 50000003 cycles: 68044327 cumulative IPC: 0.734815 (Simulation time: 0 hr 18 min 8 sec) 

ChampSim completed all CPUs

Region of Interest Statistics

CPU 0 cumulative IPC: 0.734815 instructions: 50000003 cycles: 68044327
 Fetch stage stalled: 82.0838  Sim cycles: 68044327 fetch stall cycle: 55853393
 Empty decode stage: 69.7832  Sim cycles: 68044327 fetch stall cycle: 47483499
ITLB TOTAL     ACCESS:    5732141  HIT:    5241333  MISS:     490808  HIT %:    91.4376  MISS %:    8.56239   MPKI: 9.81616
ITLB LOAD TRANSLATION INSTRUCTION	ACCESS:    5650793  HIT:    5159985  MISS:     490808  HIT %:    91.3144  MISS %:    8.68565  MPKI: 9.81616
ITLB TRANSLATION FROM L1D PREFETCHER INSTRUCTION	ACCESS:      81348  HIT:      81348  MISS:          0  HIT %:        100  MISS %:          0  MPKI: 0

ITLB AVERAGE MISS LATENCY: 9.04824 cycles
ITLB RQ	ACCESS:    7199863	FORWARD:          0	MERGED:    1064052	TO_CACHE:    6135811

DTLB TOTAL     ACCESS:   10084497  HIT:    9607480  MISS:     477017  HIT %:    95.2698  MISS %:     4.7302   MPKI: 9.54034
DTLB LOAD TRANSLATION DATA	ACCESS:   10084497  HIT:    9607480  MISS:     477017  HIT %:    95.2698  MISS %:     4.7302  MPKI: 9.54034

DTLB AVERAGE MISS LATENCY: 9.26916 cycles
DTLB RQ	ACCESS:   14125495	FORWARD:          0	MERGED:    4011899	TO_CACHE:   10113596

STLB TOTAL     ACCESS:    1223941  HIT:    1221743  MISS:       2198  HIT %:    99.8204  MISS %:   0.179584   MPKI: 0.04396
STLB LOAD TRANSLATION INSTRUCTION	ACCESS:     490808  HIT:     490539  MISS:        269  HIT %:    99.9452  MISS %:  0.0548076  MPKI: 0.00538
STLB LOAD TRANSLATION DATA	ACCESS:     476927  HIT:     475015  MISS:       1912  HIT %:    99.5991  MISS %:     0.4009  MPKI: 0.03824
STLB TRANSLATION FROM L1D PREFETCHER DATA	ACCESS:     256206  HIT:     256189  MISS:         17  HIT %:    99.9934  MISS %: 0.00663529  MPKI: 0.00034

STLB AVERAGE MISS LATENCY: 60.7202 cycles
STLB RQ	ACCESS:    1373259	FORWARD:          0	MERGED:     149281	TO_CACHE:    1223978

STLB Hit, L1D data hit: 0
STLB Hit, L2C data hit: 0
STLB Hit, LLC data hit: 0
STLB Hit, LLC data miss: 0
STLB STLB hints to L2: 0
L1D TOTAL     ACCESS:   13915491  HIT:   12750770  MISS:    1164721  HIT %:      91.63  MISS %:    8.36996   MPKI: 23.2944
L1D LOAD DATA	ACCESS:    7319236  HIT:    6553261  MISS:     765975  HIT %:    89.5348  MISS %:    10.4652  MPKI: 15.3195
L1D RFO DATA	ACCESS:    6257421  HIT:    5963570  MISS:     293851  HIT %:     95.304  MISS %:    4.69604  MPKI: 5.87702
L1D PREFETCH DATA	ACCESS:     338834  HIT:     233939  MISS:     104895  HIT %:    69.0424  MISS %:    30.9576  MPKI: 2.0979

L1D PREFETCH  REQUESTED:     811089  ISSUED:     811089  USEFUL:      49428  USELESS:      69122
L1D USEFUL LOAD PREFETCHES:      49428 PREFETCH ISSUED TO LOWER LEVEL:     118626  ACCURACY: 41.6671
 TIMELY PREFETCHES:      49428 LATE PREFETCHES: 13660 DROPPED PREFETCHES: 0
L1D AVERAGE MISS LATENCY: 547314 cycles
L1D RQ	ACCESS:   11262513	FORWARD:          0	MERGED:    3755056	TO_CACHE:    7347347
L1D WQ	ACCESS:    6906967	FORWARD:     160331	MERGED:     128819	TO_CACHE:    6778148
L1D PQ	ACCESS:     405655	FORWARD:          0	MERGED:          0	TO_CACHE:     405434

L1D UNIQUE REGIONS ACCESSED: 0
L1D REGIONS CONFLICTS: 0
L1D Cross Page Prefetch Requests: 5797
L1D Same Page Prefetch Requests: 810488
L1D ROI Sum of L1D PQ occupancy: 5157555
L1D PREFETCHES PUSHED FROM L2C: 0
L1I TOTAL     ACCESS:    7042974  HIT:    4292676  MISS:    2750298  HIT %:    60.9498  MISS %:    39.0502   MPKI: 55.006
L1I LOAD INSTRUCTION	ACCESS:    6704744  HIT:    3954446  MISS:    2750298  HIT %:    58.9798  MISS %:    41.0202  MPKI: 55.006
L1I PREFETCH INSTRUCTION	ACCESS:     338230  HIT:     338230  MISS:          0  HIT %:        100  MISS %:          0  MPKI: 0

L1I PREFETCH  REQUESTED:     594812  ISSUED:     594812  USEFUL:          0  USELESS:          0
L1I USEFUL LOAD PREFETCHES:          0 PREFETCH ISSUED TO LOWER LEVEL:          0  ACCURACY: -nan
 TIMELY PREFETCHES:          0 LATE PREFETCHES: 0 DROPPED PREFETCHES: 0
L1I AVERAGE MISS LATENCY: 17.7646 cycles
L1I RQ	ACCESS:    9475967	FORWARD:          0	MERGED:    2682947	TO_CACHE:    6793020
L1I PQ	ACCESS:     594812	FORWARD:          0	MERGED:     187969	TO_CACHE:     406843

L1BTB TOTAL     ACCESS:    5678242  HIT:    2070319  MISS:    3607923  HIT %:    36.4606  MISS %:    63.5394   MPKI: 72.1585
L1BTB BRANCH_DIRECT_JUMP	ACCESS:     543105  HIT:     143333  MISS:     399772	AVERAGE STALL: 28.7991
L1BTB BRANCH_INDIRECT	ACCESS:     180921  HIT:      65106  MISS:     115815	AVERAGE STALL: 67.3479
L1BTB BRANCH_CONDITIONAL	ACCESS:    2730139  HIT:    1445490  MISS:    1284649	AVERAGE STALL: 30.1655
L1BTB BRANCH_DIRECT_CALL	ACCESS:     941021  HIT:     104517  MISS:     836504	AVERAGE STALL: 31.6653
L1BTB BRANCH_INDIRECT_CALL	ACCESS:     171031  HIT:      21623  MISS:     149408	AVERAGE STALL: 88.277
L1BTB BRANCH_RETURN	ACCESS:    1112025  HIT:     290250  MISS:     821775	AVERAGE STALL: 30.2437
L1BTB BRANCH_OTHER ACCESS:          0  HIT:          0  MISS:          0	AVERAGE STALL: -nan
L1BTB TOTAL ROB OCCUPANCY AT BTB MISS: 19.6172

L2BTB TOTAL     ACCESS:    3582976  HIT:    2082032  MISS:    1500944  HIT %:     58.109  MISS %:     41.891   MPKI: 30.0189
L2BTB BRANCH_DIRECT_JUMP	ACCESS:     395687  HIT:     218705  MISS:     176982	AVERAGE STALL: 28.7991
L2BTB BRANCH_INDIRECT	ACCESS:     105603  HIT:      88958  MISS:      16645	AVERAGE STALL: 67.3479
L2BTB BRANCH_CONDITIONAL	ACCESS:    1284649  HIT:     750827  MISS:     533822	AVERAGE STALL: 30.1655
L2BTB BRANCH_DIRECT_CALL	ACCESS:     836504  HIT:     435840  MISS:     400664	AVERAGE STALL: 31.6653
L2BTB BRANCH_INDIRECT_CALL	ACCESS:     139984  HIT:      75620  MISS:      64364	AVERAGE STALL: 88.277
L2BTB BRANCH_RETURN	ACCESS:     820549  HIT:     512082  MISS:     308467	AVERAGE STALL: 30.2437
L2BTB BRANCH_OTHER ACCESS:          0  HIT:          0  MISS:          0	AVERAGE STALL: -nan
L2BTB TOTAL ROB OCCUPANCY AT BTB MISS: 47.1551

L2C TOTAL     ACCESS:    4537548  HIT:    3969147  MISS:     568401  HIT %:    87.4734  MISS %:    12.5266   MPKI: 11.368
L2C LOAD INSTRUCTION	ACCESS:    2750297  HIT:    2436126  MISS:     314171  HIT %:    88.5768  MISS %:    11.4232  MPKI: 6.28342
L2C LOAD TRANSLATION INSTRUCTION	ACCESS:        313  HIT:         84  MISS:        229  HIT %:    26.8371  MISS %:    73.1629  MPKI: 0.00458
L2C LOAD DATA	ACCESS:     752275  HIT:     665507  MISS:      86768  HIT %:    88.4659  MISS %:    11.5341  MPKI: 1.73536
L2C RFO DATA	ACCESS:     293777  HIT:     227528  MISS:      66249  HIT %:    77.4492  MISS %:    22.5508  MPKI: 1.32498
L2C PREFETCH DATA	ACCESS:     209721  HIT:     127612  MISS:      82109  HIT %:    60.8485  MISS %:    39.1515  MPKI: 1.64218
L2C WRITEBACK DATA	ACCESS:     529127  HIT:     511697  MISS:      17430  HIT %:    96.7059  MISS %:    3.29411  MPKI: 0.3486
L2C LOAD TRANSLATION DATA	ACCESS:       2014  HIT:        576  MISS:       1438  HIT %:    28.5998  MISS %:    71.4002  MPKI: 0.02876
L2C TRANSLATION FROM L1D PREFETCHER DATA	ACCESS:         24  HIT:         17  MISS:          7  HIT %:    70.8333  MISS %:    29.1667  MPKI: 0.00014

L2C PREFETCH  REQUESTED:      98235  ISSUED:      98235  USEFUL:       9757  USELESS:      73050
L2C USEFUL LOAD PREFETCHES:       9757 PREFETCH ISSUED TO LOWER LEVEL:      82706  ACCURACY: 11.7972
 TIMELY PREFETCHES:       9757 LATE PREFETCHES: 595 DROPPED PREFETCHES: 0
L2C AVERAGE MISS LATENCY: 37.2086 cycles
L2C RQ	ACCESS:    3798746	FORWARD:          0	MERGED:          0	TO_CACHE:    3798702
L2C WQ	ACCESS:     529127	FORWARD:         44	MERGED:          0	TO_CACHE:     529127
L2C PQ	ACCESS:     216861	FORWARD:          0	MERGED:       3345	TO_CACHE:     213516

L2C Dense regions hint from L2: 0
PSCL5 TOTAL     ACCESS:       4396  HIT:       2198  MISS:       2198  HIT %:         50  MISS %:         50   MPKI: 0.04396
PSCL5 LOAD TRANSLATION INSTRUCTION	ACCESS:       4348  HIT:       2174  MISS:       2174  HIT %:         50  MISS %:         50  MPKI: 0.04348
PSCL5 TRANSLATION FROM L1D PREFETCHER INSTRUCTION	ACCESS:         48  HIT:         24  MISS:         24  HIT %:         50  MISS %:         50  MPKI: 0.00048


PSCL4 TOTAL     ACCESS:       4077  HIT:       2036  MISS:       2041  HIT %:    49.9387  MISS %:    50.0613   MPKI: 0.04082
PSCL4 LOAD TRANSLATION INSTRUCTION	ACCESS:       2145  HIT:       2012  MISS:        133  HIT %:    93.7995  MISS %:    6.20047  MPKI: 0.00266
PSCL4 TRANSLATION FROM L1D PREFETCHER INSTRUCTION	ACCESS:         24  HIT:         24  MISS:          0  HIT %:        100  MISS %:          0  MPKI: 0
PSCL4 LOAD TRANSLATION DATA	ACCESS:       1884  HIT:          0  MISS:       1884  HIT %:          0  MISS %:        100  MPKI: 0.03768
PSCL4 TRANSLATION FROM L1D PREFETCHER DATA	ACCESS:         24  HIT:          0  MISS:         24  HIT %:          0  MISS %:        100  MPKI: 0.00048


PSCL3 TOTAL     ACCESS:       4300  HIT:       2144  MISS:       2156  HIT %:    49.8605  MISS %:    50.1395   MPKI: 0.04312
PSCL3 LOAD TRANSLATION INSTRUCTION	ACCESS:       2335  HIT:       2120  MISS:        215  HIT %:    90.7923  MISS %:    9.20771  MPKI: 0.0043
PSCL3 TRANSLATION FROM L1D PREFETCHER INSTRUCTION	ACCESS:         24  HIT:         24  MISS:          0  HIT %:        100  MISS %:          0  MPKI: 0
PSCL3 LOAD TRANSLATION DATA	ACCESS:       1917  HIT:          0  MISS:       1917  HIT %:          0  MISS %:        100  MPKI: 0.03834
PSCL3 TRANSLATION FROM L1D PREFETCHER DATA	ACCESS:         24  HIT:          0  MISS:         24  HIT %:          0  MISS %:        100  MPKI: 0.00048


PSCL2 TOTAL     ACCESS:       4256  HIT:       2058  MISS:       2198  HIT %:    48.3553  MISS %:    51.6447   MPKI: 0.04396
PSCL2 LOAD TRANSLATION INSTRUCTION	ACCESS:       2303  HIT:       2034  MISS:        269  HIT %:    88.3196  MISS %:    11.6804  MPKI: 0.00538
PSCL2 TRANSLATION FROM L1D PREFETCHER INSTRUCTION	ACCESS:         24  HIT:         24  MISS:          0  HIT %:        100  MISS %:          0  MPKI: 0
PSCL2 LOAD TRANSLATION DATA	ACCESS:       1905  HIT:          0  MISS:       1905  HIT %:          0  MISS %:        100  MPKI: 0.0381
PSCL2 TRANSLATION FROM L1D PREFETCHER DATA	ACCESS:         24  HIT:          0  MISS:         24  HIT %:          0  MISS %:        100  MPKI: 0.00048


LLC TOTAL     ACCESS:     643470  HIT:     616955  MISS:      26515  HIT %:    95.8794  MISS %:    4.12063   MPKI: 0.5303
LLC LOAD INSTRUCTION	ACCESS:     314173  HIT:     313058  MISS:       1115  HIT %:    99.6451  MISS %:     0.3549  MPKI: 0.0223
LLC LOAD TRANSLATION INSTRUCTION	ACCESS:        229  HIT:        196  MISS:         33  HIT %:    85.5895  MISS %:    14.4105  MPKI: 0.00066
LLC LOAD DATA	ACCESS:      86198  HIT:      82813  MISS:       3385  HIT %:     96.073  MISS %:    3.92701  MPKI: 0.0677
LLC RFO DATA	ACCESS:      66222  HIT:      54319  MISS:      11903  HIT %:    82.0256  MISS %:    17.9744  MPKI: 0.23806
LLC PREFETCH DATA	ACCESS:      82704  HIT:      72965  MISS:       9739  HIT %:    88.2243  MISS %:    11.7757  MPKI: 0.19478
LLC WRITEBACK DATA	ACCESS:      92499  HIT:      92263  MISS:        236  HIT %:    99.7449  MISS %:   0.255138  MPKI: 0.00472
LLC LOAD TRANSLATION DATA	ACCESS:       1438  HIT:       1334  MISS:        104  HIT %:    92.7677  MISS %:    7.23227  MPKI: 0.00208
LLC TRANSLATION FROM L1D PREFETCHER DATA	ACCESS:          7  HIT:          7  MISS:          0  HIT %:        100  MISS %:          0  MPKI: 0

LLC AVERAGE MISS LATENCY: 174.128 cycles
LLC RQ	ACCESS:     468269	FORWARD:          0	MERGED:          0	TO_CACHE:     468267
LLC WQ	ACCESS:      92499	FORWARD:          2	MERGED:          0	TO_CACHE:      92499
LLC PQ	ACCESS:      82706	FORWARD:          0	MERGED:          0	TO_CACHE:      82706

LLC Dense regions hint to LLC: 0

RAW hits: 1347256
Loads Generated: 12609767
Loads sent to L1D: 11262513
Stores Generated: 6906960
Stores sent to L1D: 6906967
Major fault: 0 Minor fault: 2327
Allocated PAGES: 2327

stream: 
stream:times selected: 1237078
stream:pref_filled: 124746
stream:pref_useful: 28804
stream:pref_late: 9454
stream:misses: 10232
stream:misses_by_poll: 0

CS: 
CS:times selected: 193289
CS:pref_filled: 73911
CS:pref_useful: 50489
CS:pref_late: 10434
CS:misses: 26168
CS:misses_by_poll: 2

CPLX: 
CPLX:times selected: 1042648
CPLX:pref_filled: 26349
CPLX:pref_useful: 7738
CPLX:pref_late: 4110
CPLX:misses: 133306
CPLX:misses_by_poll: 1

NL_L1: 
NL:times selected: 12717
NL:pref_filled: 1041
NL:pref_useful: 271
NL:pref_late: 541
NL:misses: 2040
NL:misses_by_poll: 0

total selections: 2485732
total_filled: 104895
total_useful: 49428
total_late: 26850
total_polluted: 3
total_misses_after_warmup: 794090
conflicts: 5871835

test: 119793

DRAM Statistics
 CHANNEL 0
 RQ ROW_BUFFER_HIT:       9390  ROW_BUFFER_MISS:      16872
 DBUS_CONGESTED:          8
 WQ ROW_BUFFER_HIT:       1494  ROW_BUFFER_MISS:      10809  FULL:          0

 AVG_CONGESTED_CYCLE: 4

CPU 0 Branch Prediction Accuracy: 99.8183% MPKI: 0.33278 Average ROB Occupancy at Mispredict: 101.257
Branch types
NOT_BRANCH: 40841323 81.6826%
BRANCH_DIRECT_JUMP: 543105 1.08621%
BRANCH_INDIRECT: 180921 0.361842%
BRANCH_CONDITIONAL: 6210135 12.4203%
BRANCH_DIRECT_CALL: 941021 1.88204%
BRANCH_INDIRECT_CALL: 171031 0.342062%
BRANCH_RETURN: 1112025 2.22405%
BRANCH_OTHER: 0 0%

DRAM PAGES: 1048576
Allocated PAGES: 2327
Average_ROB_Occupancy: 57.1743
Average_Decode_Occupancy: 6.78384
Average_FTQ_Occupancy: 3.62014
Indirect max targets: 14 Average targets: 1.15203
Branch_type:  BRANCH_DIRECT_JUMP:  Count Percentage: 3.7315 6.46189 3.50171 14.4725 1.69057 6.28943 0.979261 62.8732 
Branch_type:  BRANCH_INDIRECT:  Count Percentage: 11.7646 3.39274 12.1568 23.3968 3.35565 14.4955 1.08284 30.3551 
Branch_type:  BRANCH_CONDITIONAL:  Count Percentage: 22.0235 2.82196 2.45875 8.87686 1.16662 4.48221 0.577418 57.5927 
Branch_type:  BRANCH_DIRECT_CALL:  Count Percentage: 0.765579 1.29424 1.39204 5.39422 1.96913 2.65415 0.796977 85.7337 
Branch_type:  BRANCH_INDIRECT_CALL:  Count Percentage: 9.51968 0.551227 2.98404 4.81572 0 3.85275 0 78.2766 
Branch_type:  BRANCH_RETURN:  Count Percentage: 4.40139 0.72069 3.66244 9.02289 2.26023 5.29992 1.01244 73.62 
Branch_type:  BRANCH_DIRECT_JUMP:  Total Count: 40483 70105 37990 157012 18341 68234 10624 682111 
Branch_type:  BRANCH_INDIRECT:  Total Count: 42502 12257 43919 84526 12123 52368 3912 109664 
Branch_type:  BRANCH_CONDITIONAL:  Total Count: 2733700 350281 305196 1101855 144809 556362 71673 7148792 
Branch_type:  BRANCH_DIRECT_CALL:  Total Count: 14435 24403 26247 101708 37128 50044 15027 1616509 
Branch_type:  BRANCH_INDIRECT_CALL:  Total Count: 32623 1889 10226 16503 0 13203 0 268246 
Branch_type:  BRANCH_RETURN:  Total Count: 98106 16064 81635 201118 50380 118134 22567 1640972 
Number of unique branch instructions: 10407
Upper 32 bits: 
aaaa
ffff
ffff0000
Unique upper 32 bits: 3
Unique upper 36 bits: 3
Unique upper 40 bits: 5
Unique upper 44 bits: 32
Unique upper 48 bits: 156
Offset_3 4310
Offset_4 258
Offset_5 473
Offset_6 537
Offset_7 615
Offset_8 538
Offset_9 489
Offset_10 410
Offset_11 343
Offset_12 277
Offset_13 223
Offset_14 229
Offset_15 199
Offset_16 232
Offset_17 164
Offset_18 135
Offset_19 246
Offset_20 147
Offset_21 246
Offset_22 408
Offset_23 245
Offset_24 333
Offset_25 88
Offset_47 82
Offset_64 1
decode_dispatch_called: 21183887 31.1325
Dispatch_width: 0 10715886 50.5851 15.7484
Dispatch_width: 1 677334 3.1974 0.995431
Dispatch_width: 2 942165 4.44755 1.38463
Dispatch_width: 3 641923 3.03024 0.943389
Dispatch_width: 4 1622451 7.65889 2.3844
Dispatch_width: 5 482289 2.27668 0.708786
Dispatch_width: 6 6101839 28.8042 8.96745
Empty_decode_cycles: 46860440 68.8675
ROB_full_cycles: 1432600 2.10539
Starvation_cycles_per_kilo_instr: 605.099
Starvation_cycles_per_kilo_instr_3: 584.051
Starvation_cycles_per_kilo_instr_0: 561.437
Branch_type_1  (3,1)  (4,7)  (5,36)  (6,75)  (7,118)  (8,135)  (9,129)  (10,106)  (11,79)  (12,44)  (13,4)  (14,2)  (15,3)  (16,4)  (18,1)  (19,4)  (20,2)  (21,1)  (22,3)  (23,2)  (24,10)  (25,12) 
Branch_type_2  (3,1)  (5,1)  (8,3)  (9,3)  (12,1)  (13,1)  (14,1)  (16,3)  (17,2)  (20,2)  (21,2)  (23,5)  (24,1)  (47,37) 
Branch_type_3  (3,4308)  (4,251)  (5,432)  (6,445)  (7,463)  (8,337)  (9,269)  (10,174)  (11,138)  (12,49)  (13,4)  (21,1) 
Branch_type_4  (6,4)  (7,8)  (8,30)  (9,52)  (10,61)  (11,63)  (12,102)  (13,100)  (14,100)  (15,96)  (16,105)  (17,76)  (18,62)  (19,120)  (20,74)  (21,130)  (22,219)  (23,138)  (24,194)  (25,72) 
Branch_type_5  (8,2)  (9,1)  (10,3)  (11,5)  (12,3)  (13,14)  (14,16)  (15,11)  (16,20)  (17,12)  (18,16)  (19,12)  (20,12)  (21,13)  (22,42)  (23,26)  (24,36) 
Branch_type_6  (5,4)  (6,13)  (7,26)  (8,31)  (9,35)  (10,66)  (11,58)  (12,78)  (13,100)  (14,110)  (15,89)  (16,100)  (17,74)  (18,56)  (19,110)  (20,57)  (21,99)  (22,144)  (23,74)  (24,92)  (25,4)  (47,45)  (64,1) 
aaaaab1fc620: 2ac9e77e 2aca717c 2aca8eff 2acaf6bc 2acaf9aa 2acaf9f1 2acb1abc 2acb1b7f 2acd4e22 2acdb712 2acf5f9e 2ad0ef44 2ad3f15c 2ad414e6 2ad60e42 2ad8609c 2ad99830 2ada35cc 2ada4676 2ada6612 2adf183e 2adf30e5 2adf5602 2adf785c 2ae11572 2aeb2dcf 2aee101b 2aee1ae1 2b156a8c 2b156b61 2b156bea 2b167f35 2b177656 2b17feec 2b1a3e5a 
aaaaac68f310: 2ac9ec8c 2ac9fb44 2ac9fbd2 2aca59ab 2acac04c 2acaf6e0 2acaf6ec 2acaf6f9 2acaf700 2acaf708 2acf2d90 2ad3cfbd 2ad3cfc4 2ad3d000 2ad3f35f 2ad4955d 2ad49571 2ad4f3f2 2ad4f400 2ad5f240 2ad5f37c 2ad5f86a 2ad5f86f 2ad5f880 2ad5fc0d 2ad5fc14 2ad5fc21 2ad5fe1b 2ad873bb 2ad873e3 2ad8a6b2 2ad9086e 2ad93096 2ad9bbb2 2ada152c 2ada1554 2ada3332 2ada5522 2adf3130 2adf313c 2adf3a3f 2adf3bd9 2adf5788 2adf7a8d 2ae07f6b 2ae0857a 2ae0857e 2ae08630 2ae08634 2ae08637 2ae08642 2ae0866f 2ae086e4 2ae086ec 2ae08717 2ae0871b 2aee0170 2aee1d38 2aee75f4 2aee7662 2aee85ca 2aee85e4 2aee8eef 2af70b84 2af74e8f 2b17d843 
aaaaac690ef0: 2aca598b 2acb111b 2acb175f 2acb1772 2acbfaf4 2acbfb00 2acf374f 2acf6d43 2acfa5c8 2ad3baf1 2ad3d4ac 2ad3d4b8 2ad3f1cf 2ad486b2 2ad5a59b 2ad5fc64 2ad5fcf9 2ad6121c 2ad906e9 2ad907bf 2ad9bada 2ada16ce 2ada1ad5 2ada43df 2ada64c0 2ada72ee 2adeb71a 2adf3bcb 2adf7a38 2adf7c6a 2adf8872 2adf8880 2adf9959 2adf9abe 2ae07f78 2ae08503 2ae08754 2ae12e80 2aea3bea 2aecb509 2aee00b0 2aee2bdd 2aee5467 2aee5601 2aee8f20 2af703fd 2af7048b 2af74e74 
Unique trigger count: 
1 9935
2 521
3 91
4 32
5 7
6 8
7 9
8 1
9 4
10 1
11 1
12 1
13 3
16 3
17 2
19 3
35 1
48 1
66 1
BTB PER SET UNIQUE ADDR: 4 7 6 5 3 3 7 10 10 2 6 2 8 6 5 4 7 4 8 8 6 8 6 8 9 12 1 7 6 5 9 10 6 6 7 4 4 6 6 3 8 5 5 10 9 6 5 12 11 6 5 4 13 2 2 8 5 5 8 8 4 12 4 9 5 10 7 7 5 7 6 2 6 5 6 8 6 13 6 4 8 7 7 6 6 7 7 9 8 11 10 8 9 6 9 4 11 7 4 6 8 5 9 9 6 8 6 8 7 5 6 4 5 8 5 11 3 7 6 2 8 8 4 2 6 6 4 7 11 8 10 3 12 5 8 7 5 2 6 8 8 7 6 7 5 10 4 9 10 6 6 11 6 11 4 8 9 9 7 10 9 6 10 5 12 5 3 4 12 5 6 4 8 7 3 2 7 6 9 5 7 6 10 7 7 10 5 7 8 8 5 8 6 6 6 11 10 3 10 5 4 8 8 3 8 4 5 7 6 2 3 6 9 9 6 6 5 9 7 6 6 2 7 6 6 8 12 7 2 9 13 8 5 2 6 8 10 6 3 4 4 3 9 7 14 11 2 5 5 5 9 10 8 6 5 12 4 7 9 5 8 5 7 4 9 17 6 4 7 5 7 6 4 9 11 8 6 5 4 8 7 4 10 5 10 9 6 7 8 4 5 7 4 12 6 3 6 10 6 6 6 6 4 4 7 5 5 4 11 10 5 3 8 3 6 4 9 14 7 4 6 12 6 8 5 6 6 9 3 2 7 2 6 7 10 6 7 9 7 1 7 6 2 8 7 6 3 9 9 4 4 10 9 6 8 7 8 2 8 5 6 11 7 9 10 9 4 3 4 5 9 4 7 5 7 6 12 7 7 10 10 7 7 13 6 6 8 5 5 3 9 7 8 4 7 4 5 5 2 8 6 4 6 6 7 6 7 4 4 3 5 5 9 6 3 5 9 4 3 6 2 5 5 7 11 6 4 2 5 7 2 3 14 5 9 10 6 6 6 4 4 7 9 3 6 8 4 6 5 4 6 3 3 2 9 3 5 8 9 5 5 4 6 11 7 5 11 4 6 7 2 6 9 9 8 3 9 5 2 4 5 2 3 4 3 7 8 3 7 3 9 3 4 8 2 11 4 7 5 4 11 3 3 4 2 5 5 3 2 6 7 3 6 10 2 4 2 11 7 8 6 3 8 5 11 10 4 11 10 7 4 7 5 8 5 7 5 2 6 5 5 9 9 5 8 5 11 14 12 12 5 8 7 7 2 6 8 3 5 5 10 4 8 4 5 6 9 8 10 7 8 5 10 11 6 7 7 10 3 9 12 5 1 6 4 3 2 14 7 6 7 8 4 5 4 5 7 5 3 4 8 5 9 11 6 4 5 8 7 5 8 6 7 5 8 4 7 5 5 7 7 7 10 3 6 9 6 8 4 6 8 8 7 6 7 7 5 5 5 4 10 8 5 5 2 3 6 7 8 7 8 5 9 4 6 3 10 5 6 9 13 2 7 11 8 7 9 6 5 10 7 6 7 7 12 9 8 6 8 6 8 11 8 6 8 9 7 8 7 8 3 8 4 4 4 6 11 7 6 8 3 11 6 5 7 11 4 5 5 5 8 9 7 7 5 6 10 6 1 8 4 3 5 4 4 1 4 8 2 10 8 10 7 3 7 8 7 3 6 4 4 8 5 10 4 4 6 3 9 6 8 4 5 6 3 5 5 10 9 4 4 7 7 7 7 6 15 6 6 4 10 8 0 5 6 5 6 10 4 3 8 6 4 6 13 9 9 9 3 9 3 9 5 6 7 12 12 4 6 6 13 4 10 3 8 7 7 9 6 6 4 5 6 4 4 7 1 5 5 10 6 5 11 4 6 5 8 4 7 6 7 4 7 4 10 5 4 4 8 4 6 5 6 6 4 7 9 6 5 6 8 7 7 8 5 9 7 4 7 5 6 7 5 5 13 5 6 8 11 9 4 7 7 9 9 4 3 6 8 5 3 6 8 6 10 6 7 4 5 8 8 4 6 8 7 4 9 10 5 3 12 8 4 5 9 6 6 11 6 7 9 6 4 3 2 8 6 5 7 7 10 7 10 6 8 8 6 5 6 11 5 4 11 10 5 9 10 10 3 10 8 8 4 4 7 8 10 6 8 3 10 1 13 8 3 6 9 11 7 9 6 7 10 5 3 9 10 8 8 4 3 7 3 9 11 6 8 5 4 7 12 6 4 6 7 6 4 5 8 7 8 9 8 11 5 11 7 11 5 6 3 5 6 4 7 6 8 4 7 5 8 4 9 6 10 4 9 4 3 7 11 6 13 5 
BTB PER SET COUNT: 4 6805 6794 9 3 3 2610 6802 8267 2 1431 2 3310 1420 7 5 1908 4 1998 6461 24 3346 975 3314 7785 9753 1 767 2808 28 9685 6770 5377 15 5949 7 2927 2379 2732 4 2377 733 15 3557 10707 741 2357 7777 8906 3248 494 4 14154 2 2 3306 972 7256 6333 4396 4 8844 4 3307 24 7046 2001 1899 1425 2630 3529 2 33 9 1299 2834 687 9036 973 4 2995 5376 2597 2604 2535 4230 1899 2857 9231 4669 7599 4017 3782 4448 1948 4 6847 2836 4 954 2398 1403 3309 5180 48 6327 1871 3406 3305 1424 2363 6 8 6367 12 11212 4 1906 1503 2 3311 5884 5 2 4909 10 4 5369 10244 1920 4729 4 10869 9 8707 1893 1404 2 35 8553 6378 8285 1428 4911 7 4283 4 6802 7573 2338 1093 9538 2832 11670 5 5774 7749 8288 2075 8348 11682 2608 9803 2616 7767 3872 3 5 12938 1873 19 4 1436 144 3 2 107 1898 6426 7 99 1406 10034 1354 1433 10191 3964 866 6332 7125 50 6859 1408 2834 2824 2856 9784 3 2182 7 4 491 6328 5 5411 4 1404 4499 737 2 3 3313 2242 6471 4385 5354 8 3978 1192 7245 404 2 2097 6791 6318 6381 12198 5302 2 11214 11673 6868 9 2 29 7770 3780 25 3 5 4 3 10684 2220 13647 6916 2 3919 948 12 8761 9341 6848 1899 15 7691 5 3230 3801 1417 3304 971 2792 4 5548 12986 1508 6 2368 2360 2857 2360 5 7259 3803 2860 1871 6 5 3312 3323 4 2903 964 9293 8675 2835 3766 1923 4 1885 3302 477 7800 2835 7 69 7646 2368 4410 2828 1874 4 10 2141 12 970 4 7575 5147 1212 3 3062 4 1213 8 3799 9207 2851 6 3528 5091 979 7289 16 2336 41 3346 4 2 4944 2 1159 2112 10108 82 3777 2381 2367 1 41 980 2 4039 1075 1056 3 991 3173 5 5 7357 6405 5308 2860 112 9201 3 6355 1914 2361 4730 23 3087 4076 6908 4 3 4 20 2941 5 2117 745 2573 10 8455 47 1421 4018 3319 3292 2836 10920 38 19 1918 975 736 3 4690 29 3772 4 5378 4 3554 3679 2 1894 2655 5 2570 1425 779 23 4581 5 4 2265 13 15 4290 14 990 946 1660 5 4 1745 2 939 729 1928 5874 986 6 2 7 2361 2 3 8865 2336 6672 9219 1437 5904 2835 5 4 963 2962 3 1872 3082 4 3353 18 4 2804 3 3 3 9314 3 6 1489 7273 16 945 4 2115 7288 989 24 7952 6 29 1430 2 1231 7257 873 165 3 26195 975 2 4 29 2 3 475 3 2442 2596 393 1872 3 6543 3 5 6876 2 10256 10 2362 12 4 11388 12 3 5 2 1423 12 3 2 51 2459 3 272 6791 3 4 2 12163 35 2844 2338 1462 2358 461 4400 6758 4 5826 7785 5822 4 2600 7 520 24 2849 16 3 980 7 9 6329 6841 8 5162 15 2082 4570 10616 10625 1403 7759 1473 6782 2 1875 4700 3 2350 7 10286 4 6302 4 2085 954 6331 2840 7799 2882 7352 8 8287 11189 5360 2833 4743 9729 3 6106 12226 292 1 2832 1465 3 2 10649 2855 22 4711 3338 4 1926 993 1880 53 1891 3 4 6193 2362 9245 4482 5810 2841 1675 7721 7808 1870 3779 2997 2363 3490 7794 5 4388 1882 20 5379 2763 3018 7767 3 1480 4254 2340 6356 7 2361 6341 10185 1913 35 8236 14 970 10 945 4 10687 4227 7 29 2 4 1423 2381 8287 34 5815 60 12652 4 939 6 9784 1417 8147 3781 15870 3 1899 11949 6274 3785 5297 994 25 4272 4455 7723 2363 2833 10105 3998 2858 2364 7449 2364 8253 10705 2496 6757 20930 3553 2456 6803 2935 2413 3 2923 7 4 4 2359 8336 2362 1423 1457 3 9726 63 2358 5530 7347 4 1468 1867 2408 5854 2418 3985 961 3272 2356 9243 3404 1 7278 4 4 4351 4 4 1 4 8053 2 10198 6790 9256 8729 4 1895 4733 4487 3 1874 5 10 5944 26 12702 5 5 2385 3 1494 3290 7296 4 14 472 3 1417 10 9637 10250 992 4 7295 5819 2141 3930 2132 12630 746 2396 4 3230 774 0 1950 63 1471 4910 4212 5 3 4847 22 4 5911 5295 7317 3277 142 393 3773 3 4060 28 1907 2549 11389 7706 4 1896 20 9832 4 7306 5 2814 3669 4939 9238 38 53 4 6 1436 537 4 35 4 34 52 7009 603 9 5888 378 1451 14 1722 4 2440 2358 4221 4 7308 4 10532 2089 16 5 2897 4 2117 84 1868 5899 4 3073 6009 1468 83 10 8685 2791 2843 5354 2362 12175 2838 4 6758 3546 1696 7304 44 7 10771 1011 751 9690 10147 8228 4 5906 2835 6867 5372 4 3 1427 78 44 5 8228 119 4101 6889 1398 3299 4 12 3357 6872 4 14 2750 1461 5 3830 7146 7 3 5324 4695 283 59 2886 2623 22 6831 191 4035 3270 1439 4 3 2 3368 26 941 7728 2744 6767 1921 8273 4911 6576 3167 2363 7 1873 3875 28 475 8039 5641 1430 3778 7232 8688 4 3335 3105 3755 5 991 1333 3313 2393 2351 5295 3 6415 1 10258 3795 3 1643 8009 11126 3546 4952 1865 1929 9727 4914 3 3480 5302 2736 3314 8 4 1447 3 8036 5681 1798 7331 19 4 2369 9686 38 475 509 1876 2367 4 8 3095 2380 6326 1980 3359 9169 16 3337 2387 5647 9 1436 3 12 1436 4 1904 40 5824 11 1897 11 7776 5 10268 1427 7822 5 2663 8 3 48 4859 2138 6624 25 
