
*** ChampSim Multicore Out-of-Order Simulator ***

Warmup Instructions: 50000000
Simulation Instructions: 50000000
Number of CPUs: 1
LLC sets: 2048
LLC ways: 16
Off-chip DRAM Size: 4096 MB Channels: 1 Width: 64-bit Data Rate: 6400 MT/s
CPU 0 runs ./micro_traces/srv301.trace.gz
.gz
ITLB has LRU replacement policy
DTLB has LRU replacement policy
STLB has LRU replacement policy
FDIP Prefetcher at L1I
L1I has LRU replacement policy
L1D has LRU replacement policy
Initialize SRRIP state for L2C
Initialize DRRIP state for LLC
Heartbeat_Variant_0 : 1262 0.308105 per_variant_size: 0 1262 0 0 0 0 0 0 0 
Heartbeat_Variant_1 : 1165 0.284424 per_variant_size: 0 584 581 0 0 0 0 0 0 
Heartbeat_Variant_2 : 928 0.226562 per_variant_size: 0 509 279 101 39 0 0 0 0 
Heartbeat_Variant_3 : 708 0.172852 per_variant_size: 0 462 191 48 6 1 0 0 0 
Heartbeat_Variant_0_evicts 0 : 7222 1 : 1543 2 : 1298 3 : 948 
Heartbeat_Variant_1_evicts 0 : 1519 1 : 0 2 : 1148 3 : 1040 
Heartbeat_Variant_2_evicts 0 : 1266 1 : 1137 2 : 0 3 : 758 
Heartbeat_Variant_3_evicts 0 : 939 1 : 1053 2 : 721 3 : 0 
Heartbeat CPU 0 instructions: 10000000 cycles: 2797989 heartbeat IPC: 3.574 cumulative IPC: 3.574 (Simulation time: 0 hr 1 min 44 sec) 
Heartbeat_Variant_0 : 1276 0.311523 per_variant_size: 0 1276 0 0 0 0 0 0 0 
Heartbeat_Variant_1 : 1170 0.285645 per_variant_size: 0 553 617 0 0 0 0 0 0 
Heartbeat_Variant_2 : 932 0.227539 per_variant_size: 0 483 292 116 41 0 0 0 0 
Heartbeat_Variant_3 : 703 0.171631 per_variant_size: 0 446 196 51 8 2 0 0 0 
Heartbeat_Variant_0_evicts 0 : 7384 1 : 1562 2 : 1171 3 : 969 
Heartbeat_Variant_1_evicts 0 : 1587 1 : 0 2 : 1114 3 : 1039 
Heartbeat_Variant_2_evicts 0 : 1145 1 : 1117 2 : 0 3 : 693 
Heartbeat_Variant_3_evicts 0 : 960 1 : 1058 2 : 672 3 : 0 
Heartbeat CPU 0 instructions: 20000003 cycles: 5596574 heartbeat IPC: 3.57324 cumulative IPC: 3.57362 (Simulation time: 0 hr 3 min 22 sec) 
Heartbeat_Variant_0 : 1270 0.310059 per_variant_size: 0 1270 0 0 0 0 0 0 0 
Heartbeat_Variant_1 : 1162 0.283691 per_variant_size: 0 573 589 0 0 0 0 0 0 
Heartbeat_Variant_2 : 938 0.229004 per_variant_size: 0 504 285 109 40 0 0 0 0 
Heartbeat_Variant_3 : 713 0.174072 per_variant_size: 0 468 187 49 7 2 0 0 0 
Heartbeat_Variant_0_evicts 0 : 6769 1 : 1233 2 : 877 3 : 684 
Heartbeat_Variant_1_evicts 0 : 1199 1 : 0 2 : 835 3 : 832 
Heartbeat_Variant_2_evicts 0 : 877 1 : 838 2 : 0 3 : 517 
Heartbeat_Variant_3_evicts 0 : 724 1 : 805 2 : 514 3 : 0 
Heartbeat CPU 0 instructions: 30000001 cycles: 8393782 heartbeat IPC: 3.57499 cumulative IPC: 3.57407 (Simulation time: 0 hr 5 min 0 sec) 
Heartbeat_Variant_0 : 1261 0.307861 per_variant_size: 0 1261 0 0 0 0 0 0 0 
Heartbeat_Variant_1 : 1161 0.283447 per_variant_size: 0 541 620 0 0 0 0 0 0 
Heartbeat_Variant_2 : 948 0.231445 per_variant_size: 0 499 293 114 42 0 0 0 0 
Heartbeat_Variant_3 : 718 0.175293 per_variant_size: 0 468 187 45 17 1 0 0 0 
Heartbeat_Variant_0_evicts 0 : 7079 1 : 1556 2 : 1129 3 : 938 
Heartbeat_Variant_1_evicts 0 : 1573 1 : 0 2 : 1078 3 : 1055 
Heartbeat_Variant_2_evicts 0 : 1128 1 : 1062 2 : 0 3 : 640 
Heartbeat_Variant_3_evicts 0 : 931 1 : 1090 2 : 616 3 : 0 
Heartbeat CPU 0 instructions: 40000000 cycles: 11191076 heartbeat IPC: 3.57488 cumulative IPC: 3.57428 (Simulation time: 0 hr 6 min 41 sec) 
Heartbeat_Variant_0 : 1273 0.310791 per_variant_size: 0 1273 0 0 0 0 0 0 0 
Heartbeat_Variant_1 : 1165 0.284424 per_variant_size: 0 546 619 0 0 0 0 0 0 
Heartbeat_Variant_2 : 932 0.227539 per_variant_size: 0 497 278 109 48 0 0 0 0 
Heartbeat_Variant_3 : 719 0.175537 per_variant_size: 0 464 190 50 14 1 0 0 0 
Heartbeat_Variant_0_evicts 0 : 7547 1 : 1687 2 : 1301 3 : 977 
Heartbeat_Variant_1_evicts 0 : 1687 1 : 0 2 : 1289 3 : 1022 
Heartbeat_Variant_2_evicts 0 : 1271 1 : 1274 2 : 0 3 : 796 
Heartbeat_Variant_3_evicts 0 : 996 1 : 1033 2 : 767 3 : 0 
Heartbeat CPU 0 instructions: 50000002 cycles: 13989492 heartbeat IPC: 3.57345 cumulative IPC: 3.57411 (Simulation time: 0 hr 8 min 20 sec) 

Warmup complete CPU 0 instructions: 50000002 cycles: 13989492 (Simulation time: 0 hr 8 min 20 sec) 

Cycle: 20000000 FTQ IN: 58100696 FTQ occupancy: 19.2647 DECODE IN: 58100695 DECODE occupancy: 49.8972 ROB IN: 58100695 ROB occupancy: 304.141 ROB OUT: 58100695
Heartbeat_Variant_0 : 1276 0.311523 per_variant_size: 0 1276 0 0 0 0 0 0 0 
Heartbeat_Variant_1 : 1175 0.286865 per_variant_size: 0 581 594 0 0 0 0 0 0 
Heartbeat_Variant_2 : 925 0.22583 per_variant_size: 0 494 280 109 42 0 0 0 0 
Heartbeat_Variant_3 : 714 0.174316 per_variant_size: 0 467 196 42 8 1 0 0 0 
Heartbeat_Variant_0_evicts 0 : 7043 1 : 1305 2 : 950 3 : 802 
Heartbeat_Variant_1_evicts 0 : 1272 1 : 0 2 : 927 3 : 963 
Heartbeat_Variant_2_evicts 0 : 950 1 : 902 2 : 0 3 : 598 
Heartbeat_Variant_3_evicts 0 : 832 1 : 945 2 : 580 3 : 0 
Heartbeat CPU 0 instructions: 60000001 cycles: 21405071 heartbeat IPC: 1.34851 cumulative IPC: 1.34851 (Simulation time: 0 hr 10 min 1 sec) 
Heartbeat_Variant_0 : 1276 0.311523 per_variant_size: 0 1276 0 0 0 0 0 0 0 
Heartbeat_Variant_1 : 1176 0.287109 per_variant_size: 0 566 610 0 0 0 0 0 0 
Heartbeat_Variant_2 : 920 0.224609 per_variant_size: 0 475 279 127 39 0 0 0 0 
Heartbeat_Variant_3 : 718 0.175293 per_variant_size: 0 469 185 45 17 2 0 0 0 
Heartbeat_Variant_0_evicts 0 : 6876 1 : 1350 2 : 1053 3 : 799 
Heartbeat_Variant_1_evicts 0 : 1351 1 : 0 2 : 987 3 : 885 
Heartbeat_Variant_2_evicts 0 : 1043 1 : 975 2 : 0 3 : 539 
Heartbeat_Variant_3_evicts 0 : 808 1 : 897 2 : 522 3 : 0 
Heartbeat CPU 0 instructions: 70000000 cycles: 28978761 heartbeat IPC: 1.32036 cumulative IPC: 1.33429 (Simulation time: 0 hr 11 min 44 sec) 
Cycle: 30000000 FTQ IN: 13275300 FTQ occupancy: 10.8354 DECODE IN: 13275254 DECODE occupancy: 26.8974 ROB IN: 13275249 ROB occupancy: 202.351 ROB OUT: 13275145
Heartbeat_Variant_0 : 1272 0.310547 per_variant_size: 0 1272 0 0 0 0 0 0 0 
Heartbeat_Variant_1 : 1159 0.282959 per_variant_size: 0 548 611 0 0 0 0 0 0 
Heartbeat_Variant_2 : 945 0.230713 per_variant_size: 0 519 284 108 34 0 0 0 0 
Heartbeat_Variant_3 : 714 0.174316 per_variant_size: 0 469 193 40 11 1 0 0 0 
Heartbeat_Variant_0_evicts 0 : 6717 1 : 1144 2 : 859 3 : 713 
Heartbeat_Variant_1_evicts 0 : 1149 1 : 0 2 : 797 3 : 779 
Heartbeat_Variant_2_evicts 0 : 851 1 : 835 2 : 0 3 : 516 
Heartbeat_Variant_3_evicts 0 : 720 1 : 763 2 : 521 3 : 0 
Heartbeat CPU 0 instructions: 80000000 cycles: 36388216 heartbeat IPC: 1.34963 cumulative IPC: 1.33936 (Simulation time: 0 hr 13 min 24 sec) 
Cycle: 40000000 FTQ IN: 13429144 FTQ occupancy: 10.8221 DECODE IN: 13429191 DECODE occupancy: 27.0767 ROB IN: 13429150 ROB occupancy: 203.809 ROB OUT: 13428902
Heartbeat_Variant_0 : 1252 0.305664 per_variant_size: 0 1252 0 0 0 0 0 0 0 
Heartbeat_Variant_1 : 1212 0.295898 per_variant_size: 0 578 634 0 0 0 0 0 0 
Heartbeat_Variant_2 : 930 0.227051 per_variant_size: 0 505 266 112 47 0 0 0 0 
Heartbeat_Variant_3 : 697 0.170166 per_variant_size: 0 440 197 41 18 1 0 0 0 
Heartbeat_Variant_0_evicts 0 : 5304 1 : 1051 2 : 771 3 : 605 
Heartbeat_Variant_1_evicts 0 : 1049 1 : 0 2 : 775 3 : 770 
Heartbeat_Variant_2_evicts 0 : 763 1 : 752 2 : 0 3 : 481 
Heartbeat_Variant_3_evicts 0 : 635 1 : 738 2 : 466 3 : 0 
Heartbeat CPU 0 instructions: 90000000 cycles: 43682909 heartbeat IPC: 1.37086 cumulative IPC: 1.3471 (Simulation time: 0 hr 15 min 9 sec) 
Cycle: 50000000 FTQ IN: 13883158 FTQ occupancy: 13.4833 DECODE IN: 13883113 DECODE occupancy: 35.2784 ROB IN: 13883159 ROB occupancy: 243.93 ROB OUT: 13883212
Heartbeat_Variant_0 : 1260 0.307617 per_variant_size: 0 1260 0 0 0 0 0 0 0 
Heartbeat_Variant_1 : 1181 0.28833 per_variant_size: 0 583 598 0 0 0 0 0 0 
Heartbeat_Variant_2 : 932 0.227539 per_variant_size: 0 514 262 113 43 0 0 0 0 
Heartbeat_Variant_3 : 719 0.175537 per_variant_size: 0 466 192 47 13 1 0 0 0 
Heartbeat_Variant_0_evicts 0 : 4520 1 : 1328 2 : 968 3 : 828 
Heartbeat_Variant_1_evicts 0 : 1344 1 : 0 2 : 955 3 : 875 
Heartbeat_Variant_2_evicts 0 : 972 1 : 953 2 : 0 3 : 621 
Heartbeat_Variant_3_evicts 0 : 801 1 : 924 2 : 621 3 : 0 
Heartbeat CPU 0 instructions: 100000001 cycles: 50995173 heartbeat IPC: 1.36757 cumulative IPC: 1.35114 (Simulation time: 0 hr 16 min 48 sec) 
Finished CPU 0 instructions: 50000003 cycles: 37005682 cumulative IPC: 1.35114 (Simulation time: 0 hr 16 min 48 sec) 

ChampSim completed all CPUs

Region of Interest Statistics

CPU 0 cumulative IPC: 1.35114 instructions: 50000003 cycles: 37005682
 Fetch stage stalled: 57.254  Sim cycles: 37005682 fetch stall cycle: 21187237
 Empty decode stage: 42.0229  Sim cycles: 37005682 fetch stall cycle: 15550871
ITLB TOTAL     ACCESS:    6076886  HIT:    5642149  MISS:     434737  HIT %:    92.8461  MISS %:    7.15394   MPKI: 8.69474
ITLB LOAD TRANSLATION INSTRUCTION	ACCESS:    5965400  HIT:    5530663  MISS:     434737  HIT %:    92.7124  MISS %:    7.28764  MPKI: 8.69474
ITLB TRANSLATION FROM L1D PREFETCHER INSTRUCTION	ACCESS:     111486  HIT:     111486  MISS:          0  HIT %:        100  MISS %:          0  MPKI: 0

ITLB AVERAGE MISS LATENCY: 9.08103 cycles
ITLB RQ	ACCESS:    8175322	FORWARD:          0	MERGED:    1704182	TO_CACHE:    6471140

DTLB TOTAL     ACCESS:    9102227  HIT:    8657207  MISS:     445020  HIT %:    95.1109  MISS %:    4.88913   MPKI: 8.9004
DTLB LOAD TRANSLATION DATA	ACCESS:    9102227  HIT:    8657207  MISS:     445020  HIT %:    95.1109  MISS %:    4.88913  MPKI: 8.9004

DTLB AVERAGE MISS LATENCY: 9.32901 cycles
DTLB RQ	ACCESS:   13424283	FORWARD:          0	MERGED:    4288063	TO_CACHE:    9136220

STLB TOTAL     ACCESS:    1088576  HIT:    1086432  MISS:       2144  HIT %:     99.803  MISS %:   0.196955   MPKI: 0.04288
STLB LOAD TRANSLATION INSTRUCTION	ACCESS:     434737  HIT:     434262  MISS:        475  HIT %:    99.8907  MISS %:   0.109261  MPKI: 0.0095
STLB LOAD TRANSLATION DATA	ACCESS:     444989  HIT:     443349  MISS:       1640  HIT %:    99.6315  MISS %:   0.368548  MPKI: 0.0328
STLB TRANSLATION FROM L1D PREFETCHER DATA	ACCESS:     208850  HIT:     208821  MISS:         29  HIT %:    99.9861  MISS %:  0.0138856  MPKI: 0.00058

STLB AVERAGE MISS LATENCY: 72.8806 cycles
STLB RQ	ACCESS:    1187390	FORWARD:          0	MERGED:      98765	TO_CACHE:    1088625

STLB Hit, L1D data hit: 0
STLB Hit, L2C data hit: 0
STLB Hit, LLC data hit: 0
STLB Hit, LLC data miss: 0
STLB STLB hints to L2: 0
L1D TOTAL     ACCESS:   13197598  HIT:   12215975  MISS:     981623  HIT %:    92.5621  MISS %:    7.43789   MPKI: 19.6325
L1D LOAD DATA	ACCESS:    6656746  HIT:    6005419  MISS:     651327  HIT %:    90.2155  MISS %:    9.78447  MPKI: 13.0265
L1D RFO DATA	ACCESS:    6267442  HIT:    6017850  MISS:     249592  HIT %:    96.0176  MISS %:    3.98236  MPKI: 4.99184
L1D PREFETCH DATA	ACCESS:     273410  HIT:     192706  MISS:      80704  HIT %:    70.4824  MISS %:    29.5176  MPKI: 1.61408

L1D PREFETCH  REQUESTED:     615594  ISSUED:     615594  USEFUL:      28645  USELESS:      59763
L1D USEFUL LOAD PREFETCHES:      28645 PREFETCH ISSUED TO LOWER LEVEL:      88458  ACCURACY: 32.3826
 TIMELY PREFETCHES:      28645 LATE PREFETCHES: 7732 DROPPED PREFETCHES: 10
L1D AVERAGE MISS LATENCY: 251014 cycles
L1D RQ	ACCESS:   10734341	FORWARD:          0	MERGED:    3862486	TO_CACHE:    6685809
L1D WQ	ACCESS:    6957598	FORWARD:     186374	MERGED:     219124	TO_CACHE:    6738474
L1D PQ	ACCESS:     307961	FORWARD:          0	MERGED:          0	TO_CACHE:     307633

L1D UNIQUE REGIONS ACCESSED: 0
L1D REGIONS CONFLICTS: 0
L1D Cross Page Prefetch Requests: 5451
L1D Same Page Prefetch Requests: 686435
L1D ROI Sum of L1D PQ occupancy: 3918938
L1D PREFETCHES PUSHED FROM L2C: 0
L1I TOTAL     ACCESS:    7496740  HIT:    5070542  MISS:    2426198  HIT %:    67.6366  MISS %:    32.3634   MPKI: 48.524
L1I LOAD INSTRUCTION	ACCESS:    6752980  HIT:    4326782  MISS:    2426198  HIT %:    64.0722  MISS %:    35.9278  MPKI: 48.524
L1I PREFETCH INSTRUCTION	ACCESS:     743760  HIT:     743760  MISS:          0  HIT %:        100  MISS %:          0  MPKI: 0

L1I PREFETCH  REQUESTED:    1543435  ISSUED:    1543435  USEFUL:          0  USELESS:          0
L1I USEFUL LOAD PREFETCHES:          0 PREFETCH ISSUED TO LOWER LEVEL:          0  ACCURACY: -nan
 TIMELY PREFETCHES:          0 LATE PREFETCHES: 0 DROPPED PREFETCHES: 0
L1I AVERAGE MISS LATENCY: 17.3808 cycles
L1I RQ	ACCESS:    9614157	FORWARD:          0	MERGED:    2587178	TO_CACHE:    7026979
L1I PQ	ACCESS:    1543435	FORWARD:          0	MERGED:     395092	TO_CACHE:    1148343

L1BTB TOTAL     ACCESS:    5842678  HIT:    2391559  MISS:    3451119  HIT %:    40.9326  MISS %:    59.0674   MPKI: 69.0224
L1BTB BRANCH_DIRECT_JUMP	ACCESS:     550525 HIT:     175580 MISS:     374945 AVERAGE STALL: 44.9283 AVERAGE FETCH STALL: 18.0159 AVERAGE FETCH QUEUE STALL: 14.314 AVERAGE DECODE STALL: 11.7271 AVERAGE EXECUTE STALL: 1.31875e+15
L1BTB BRANCH_INDIRECT	ACCESS:     180198 HIT:      63730 MISS:     116468 AVERAGE STALL: 96.3927 AVERAGE FETCH STALL: 11.6364 AVERAGE FETCH QUEUE STALL: 13.2862 AVERAGE DECODE STALL: 10.1388 AVERAGE EXECUTE STALL: 60.3735
L1BTB BRANCH_CONDITIONAL	ACCESS:    2723128 HIT:    1508783 MISS:    1214345 AVERAGE STALL: 48.8701 AVERAGE FETCH STALL: 23.2904 AVERAGE FETCH QUEUE STALL: 13.4961 AVERAGE DECODE STALL: 11.35 AVERAGE EXECUTE STALL: 7.51824e+14
L1BTB BRANCH_DIRECT_CALL	ACCESS:    1021702 HIT:     213448 MISS:     808254 AVERAGE STALL: 50.3322 AVERAGE FETCH STALL: 23.684 AVERAGE FETCH QUEUE STALL: 14.0144 AVERAGE DECODE STALL: 11.8749 AVERAGE EXECUTE STALL: 8.07191e+14
L1BTB BRANCH_INDIRECT_CALL	ACCESS:     172711 HIT:      33444 MISS:     139267 AVERAGE STALL: 131.116 AVERAGE FETCH STALL: 14.5943 AVERAGE FETCH QUEUE STALL: 10.6538 AVERAGE DECODE STALL: 9.19661 AVERAGE EXECUTE STALL: 96.1578
L1BTB BRANCH_RETURN	ACCESS:    1194414 HIT:     396574 MISS:     797840 AVERAGE STALL: 45.1003 AVERAGE FETCH STALL: 17.6417 AVERAGE FETCH QUEUE STALL: 6.14274 AVERAGE DECODE STALL: 6.98892 AVERAGE EXECUTE STALL: 3.82055e+14
L1BTB BRANCH_OTHER ACCESS:          0 HIT:          0 MISS:          0 AVERAGE STALL: -nan AVERAGE FETCH STALL: -nan AVERAGE FETCH QUEUE STALL: -nan AVERAGE DECODE STALL: -nan AVERAGE EXECUTE STALL: -nan
L1BTB TOTAL ROB OCCUPANCY AT BTB MISS: 5.12445

L2BTB TOTAL     ACCESS:    3429325  HIT:    3308654  MISS:     120671  HIT %:    96.4812  MISS %:     3.5188   MPKI: 2.41342
L2BTB BRANCH_DIRECT_JUMP	ACCESS:     371500 HIT:     360908 MISS:      10592 AVERAGE STALL: 44.9283 AVERAGE FETCH STALL: 18.0159 AVERAGE FETCH QUEUE STALL: 14.314 AVERAGE DECODE STALL: 11.7271 AVERAGE EXECUTE STALL: 1.31875e+15
L2BTB BRANCH_INDIRECT	ACCESS:     107462 HIT:     104258 MISS:       3204 AVERAGE STALL: 96.3927 AVERAGE FETCH STALL: 11.6364 AVERAGE FETCH QUEUE STALL: 13.2862 AVERAGE DECODE STALL: 10.1388 AVERAGE EXECUTE STALL: 60.3735
L2BTB BRANCH_CONDITIONAL	ACCESS:    1214345 HIT:    1189434 MISS:      24911 AVERAGE STALL: 48.8701 AVERAGE FETCH STALL: 23.2904 AVERAGE FETCH QUEUE STALL: 13.4961 AVERAGE DECODE STALL: 11.35 AVERAGE EXECUTE STALL: 7.51824e+14
L2BTB BRANCH_DIRECT_CALL	ACCESS:     808254 HIT:     785315 MISS:      22939 AVERAGE STALL: 50.3322 AVERAGE FETCH STALL: 23.684 AVERAGE FETCH QUEUE STALL: 14.0144 AVERAGE DECODE STALL: 11.8749 AVERAGE EXECUTE STALL: 8.07191e+14
L2BTB BRANCH_INDIRECT_CALL	ACCESS:     131168 HIT:     119249 MISS:      11919 AVERAGE STALL: 131.116 AVERAGE FETCH STALL: 14.5943 AVERAGE FETCH QUEUE STALL: 10.6538 AVERAGE DECODE STALL: 9.19661 AVERAGE EXECUTE STALL: 96.1578
L2BTB BRANCH_RETURN	ACCESS:     796596 HIT:     749490 MISS:      47106 AVERAGE STALL: 45.1003 AVERAGE FETCH STALL: 17.6417 AVERAGE FETCH QUEUE STALL: 6.14274 AVERAGE DECODE STALL: 6.98892 AVERAGE EXECUTE STALL: 3.82055e+14
L2BTB BRANCH_OTHER ACCESS:          0 HIT:          0 MISS:          0 AVERAGE STALL: -nan AVERAGE FETCH STALL: -nan AVERAGE FETCH QUEUE STALL: -nan AVERAGE DECODE STALL: -nan AVERAGE EXECUTE STALL: -nan
L2BTB TOTAL ROB OCCUPANCY AT BTB MISS: 146.556

L2C TOTAL     ACCESS:    3944433  HIT:    3520485  MISS:     423948  HIT %:     89.252  MISS %:     10.748   MPKI: 8.47896
L2C LOAD INSTRUCTION	ACCESS:    2426199  HIT:    2185331  MISS:     240868  HIT %:    90.0722  MISS %:    9.92779  MPKI: 4.81736
L2C LOAD TRANSLATION INSTRUCTION	ACCESS:        511  HIT:        162  MISS:        349  HIT %:    31.7025  MISS %:    68.2975  MPKI: 0.00698
L2C LOAD DATA	ACCESS:     643566  HIT:     578171  MISS:      65395  HIT %:    89.8386  MISS %:    10.1614  MPKI: 1.3079
L2C RFO DATA	ACCESS:     249535  HIT:     209206  MISS:      40329  HIT %:    83.8383  MISS %:    16.1617  MPKI: 0.80658
L2C PREFETCH DATA	ACCESS:     161257  HIT:      96362  MISS:      64895  HIT %:    59.7568  MISS %:    40.2432  MPKI: 1.2979
L2C WRITEBACK DATA	ACCESS:     461576  HIT:     450785  MISS:      10791  HIT %:    97.6621  MISS %:    2.33786  MPKI: 0.21582
L2C LOAD TRANSLATION DATA	ACCESS:       1730  HIT:        429  MISS:       1301  HIT %:    24.7977  MISS %:    75.2023  MPKI: 0.02602
L2C TRANSLATION FROM L1D PREFETCHER DATA	ACCESS:         59  HIT:         39  MISS:         20  HIT %:    66.1017  MISS %:    33.8983  MPKI: 0.0004

L2C PREFETCH  REQUESTED:      78938  ISSUED:      78938  USEFUL:       6528  USELESS:      58781
L2C USEFUL LOAD PREFETCHES:       6528 PREFETCH ISSUED TO LOWER LEVEL:      65356  ACCURACY: 9.98837
 TIMELY PREFETCHES:       6528 LATE PREFETCHES: 461 DROPPED PREFETCHES: 0
L2C AVERAGE MISS LATENCY: 38.5092 cycles
L2C RQ	ACCESS:    3321664	FORWARD:          0	MERGED:          0	TO_CACHE:    3321600
L2C WQ	ACCESS:     461576	FORWARD:         65	MERGED:          0	TO_CACHE:     461576
L2C PQ	ACCESS:     167396	FORWARD:          0	MERGED:       2713	TO_CACHE:     164682

L2C Dense regions hint from L2: 0
PSCL5 TOTAL     ACCESS:       4322  HIT:       2161  MISS:       2161  HIT %:         50  MISS %:         50   MPKI: 0.04322
PSCL5 LOAD TRANSLATION INSTRUCTION	ACCESS:       4204  HIT:       2102  MISS:       2102  HIT %:         50  MISS %:         50  MPKI: 0.04204
PSCL5 TRANSLATION FROM L1D PREFETCHER INSTRUCTION	ACCESS:        118  HIT:         59  MISS:         59  HIT %:         50  MISS %:         50  MPKI: 0.00118


PSCL4 TOTAL     ACCESS:       2972  HIT:       1482  MISS:       1490  HIT %:    49.8654  MISS %:    50.1346   MPKI: 0.0298
PSCL4 LOAD TRANSLATION INSTRUCTION	ACCESS:       1469  HIT:       1439  MISS:         30  HIT %:    97.9578  MISS %:    2.04221  MPKI: 0.0006
PSCL4 TRANSLATION FROM L1D PREFETCHER INSTRUCTION	ACCESS:         43  HIT:         43  MISS:          0  HIT %:        100  MISS %:          0  MPKI: 0
PSCL4 LOAD TRANSLATION DATA	ACCESS:       1417  HIT:          0  MISS:       1417  HIT %:          0  MISS %:        100  MPKI: 0.02834
PSCL4 TRANSLATION FROM L1D PREFETCHER DATA	ACCESS:         43  HIT:          0  MISS:         43  HIT %:          0  MISS %:        100  MPKI: 0.00086


PSCL3 TOTAL     ACCESS:       3987  HIT:       1984  MISS:       2003  HIT %:    49.7617  MISS %:    50.2383   MPKI: 0.04006
PSCL3 LOAD TRANSLATION INSTRUCTION	ACCESS:       2564  HIT:       1934  MISS:        630  HIT %:     75.429  MISS %:     24.571  MPKI: 0.0126
PSCL3 TRANSLATION FROM L1D PREFETCHER INSTRUCTION	ACCESS:         69  HIT:         50  MISS:         19  HIT %:    72.4638  MISS %:    27.5362  MPKI: 0.00038
PSCL3 LOAD TRANSLATION DATA	ACCESS:       1323  HIT:          0  MISS:       1323  HIT %:          0  MISS %:        100  MPKI: 0.02646
PSCL3 TRANSLATION FROM L1D PREFETCHER DATA	ACCESS:         31  HIT:          0  MISS:         31  HIT %:          0  MISS %:        100  MPKI: 0.00062


PSCL2 TOTAL     ACCESS:       4206  HIT:       2045  MISS:       2161  HIT %:     48.621  MISS %:     51.379   MPKI: 0.04322
PSCL2 LOAD TRANSLATION INSTRUCTION	ACCESS:       2476  HIT:       1986  MISS:        490  HIT %:      80.21  MISS %:      19.79  MPKI: 0.0098
PSCL2 TRANSLATION FROM L1D PREFETCHER INSTRUCTION	ACCESS:         59  HIT:         59  MISS:          0  HIT %:        100  MISS %:          0  MPKI: 0
PSCL2 LOAD TRANSLATION DATA	ACCESS:       1612  HIT:          0  MISS:       1612  HIT %:          0  MISS %:        100  MPKI: 0.03224
PSCL2 TRANSLATION FROM L1D PREFETCHER DATA	ACCESS:         59  HIT:          0  MISS:         59  HIT %:          0  MISS %:        100  MPKI: 0.00118


LLC TOTAL     ACCESS:     471398  HIT:     446644  MISS:      24754  HIT %:    94.7488  MISS %:    5.25119   MPKI: 0.49508
LLC LOAD INSTRUCTION	ACCESS:     240868  HIT:     239818  MISS:       1050  HIT %:    99.5641  MISS %:   0.435923  MPKI: 0.021
LLC LOAD TRANSLATION INSTRUCTION	ACCESS:        349  HIT:        305  MISS:         44  HIT %:    87.3926  MISS %:    12.6074  MPKI: 0.00088
LLC LOAD DATA	ACCESS:      64969  HIT:      61720  MISS:       3249  HIT %:    94.9992  MISS %:    5.00085  MPKI: 0.06498
LLC RFO DATA	ACCESS:      40285  HIT:      29309  MISS:      10976  HIT %:    72.7541  MISS %:    27.2459  MPKI: 0.21952
LLC PREFETCH DATA	ACCESS:      65356  HIT:      56356  MISS:       9000  HIT %:    86.2293  MISS %:    13.7707  MPKI: 0.18
LLC WRITEBACK DATA	ACCESS:      58250  HIT:      57909  MISS:        341  HIT %:    99.4146  MISS %:   0.585408  MPKI: 0.00682
LLC LOAD TRANSLATION DATA	ACCESS:       1301  HIT:       1207  MISS:         94  HIT %:    92.7748  MISS %:    7.22521  MPKI: 0.00188
LLC TRANSLATION FROM L1D PREFETCHER DATA	ACCESS:         20  HIT:         20  MISS:          0  HIT %:        100  MISS %:          0  MPKI: 0

LLC AVERAGE MISS LATENCY: 157.488 cycles
LLC RQ	ACCESS:     347801	FORWARD:          0	MERGED:          0	TO_CACHE:     347792
LLC WQ	ACCESS:      58250	FORWARD:          9	MERGED:          0	TO_CACHE:      58250
LLC PQ	ACCESS:      65356	FORWARD:          0	MERGED:          0	TO_CACHE:      65356

LLC Dense regions hint to LLC: 0

RAW hits: 2006300
Loads Generated: 12740642
Loads sent to L1D: 10734341
Stores Generated: 6957586
Stores sent to L1D: 6957598
Major fault: 0 Minor fault: 2555
Allocated PAGES: 2555

stream: 
stream:times selected: 1120476
stream:pref_filled: 115082
stream:pref_useful: 22680
stream:pref_late: 6774
stream:misses: 6089
stream:misses_by_poll: 0

CS: 
CS:times selected: 163268
CS:pref_filled: 55727
CS:pref_useful: 32620
CS:pref_late: 6726
CS:misses: 14828
CS:misses_by_poll: 4

CPLX: 
CPLX:times selected: 955960
CPLX:pref_filled: 18178
CPLX:pref_useful: 4109
CPLX:pref_late: 2979
CPLX:misses: 82995
CPLX:misses_by_poll: 0

NL_L1: 
NL:times selected: 23010
NL:pref_filled: 580
NL:pref_useful: 231
NL:pref_late: 197
NL:misses: 930
NL:misses_by_poll: 0

total selections: 2262714
total_filled: 80704
total_useful: 28645
total_late: 17772
total_polluted: 4
total_misses_after_warmup: 680390
conflicts: 5640856

test: 119065

DRAM Statistics
 CHANNEL 0
 RQ ROW_BUFFER_HIT:       8687  ROW_BUFFER_MISS:      15719
 DBUS_CONGESTED:         13
 WQ ROW_BUFFER_HIT:       1310  ROW_BUFFER_MISS:      10246  FULL:          0

 AVG_CONGESTED_CYCLE: 5

CPU 0 Branch Prediction Accuracy: 99.8142% MPKI: 0.34676 Average ROB Occupancy at Mispredict: 174.952
Branch types
NOT_BRANCH: 40668872 81.3377%
BRANCH_DIRECT_JUMP: 550525 1.10105%
BRANCH_INDIRECT: 180198 0.360396%
BRANCH_CONDITIONAL: 6211494 12.423%
BRANCH_DIRECT_CALL: 1021702 2.0434%
BRANCH_INDIRECT_CALL: 172711 0.345422%
BRANCH_RETURN: 1194414 2.38883%
BRANCH_OTHER: 0 0%

DRAM PAGES: 1048576
Allocated PAGES: 2555
Average_ROB_Occupancy: 214.556
Average_Decode_Occupancy: 29.0304
Average_FTQ_Occupancy: 11.4778
Indirect max targets: 14 Average targets: 1.17981
Branch_type:  BRANCH_DIRECT_JUMP:  Count Percentage: 3.51882 4.82299 3.34977 8.43135 8.25384 5.88988 4.57342 61.1599 
Branch_type:  BRANCH_INDIRECT:  Count Percentage: 11.0281 3.21184 2.31017 18.4054 12.4856 2.64283 2.97136 46.9447 
Branch_type:  BRANCH_CONDITIONAL:  Count Percentage: 20.036 2.44914 2.24137 12.7552 3.023 4.22901 1.15978 54.1064 
Branch_type:  BRANCH_DIRECT_CALL:  Count Percentage: 0.348107 1.64047 0.63857 3.69266 2.06227 2.53534 3.0963 85.9863 
Branch_type:  BRANCH_INDIRECT_CALL:  Count Percentage: 8.95544 0 2.80752 0.00465399 0 2.13705 3.14115 82.9542 
Branch_type:  BRANCH_RETURN:  Count Percentage: 3.57182 1.69715 0.921307 11.6736 4.763 4.79475 2.3251 70.2533 
Branch_type:  BRANCH_DIRECT_JUMP:  Total Count: 38675 53009 36817 92668 90717 64735 50266 672202 
Branch_type:  BRANCH_INDIRECT:  Total Count: 40080 11673 8396 66892 45377 9605 10799 170614 
Branch_type:  BRANCH_CONDITIONAL:  Total Count: 2481527 303334 277601 1579777 374408 523776 143643 6701249 
Branch_type:  BRANCH_DIRECT_CALL:  Total Count: 6836 32215 12540 72515 40498 49788 60804 1688566 
Branch_type:  BRANCH_INDIRECT_CALL:  Total Count: 30788 0 9652 16 0 7347 10799 285189 
Branch_type:  BRANCH_RETURN:  Total Count: 82454 39178 21268 269480 109952 110685 53674 1621769 
Number of unique branch instructions: 10867
Upper 32 bits: 
aaaa
ffff
ffff0000
Unique upper 32 bits: 3
Unique upper 36 bits: 3
Unique upper 40 bits: 5
Unique upper 44 bits: 32
Unique upper 48 bits: 159
Variant_0 : 1260 0.307617
Variant_1 : 1181 0.28833
Variant_2 : 932 0.227539
Variant_3 : 719 0.175537
Offset_3 4515
Offset_4 261
Offset_5 485
Offset_6 540
Offset_7 646
Offset_8 581
Offset_9 534
Offset_10 424
Offset_11 361
Offset_12 324
Offset_13 237
Offset_14 249
Offset_15 194
Offset_16 229
Offset_17 173
Offset_18 153
Offset_19 265
Offset_20 140
Offset_21 235
Offset_22 415
Offset_23 241
Offset_24 352
Offset_25 118
Offset_47 96
Offset_64 2
decode_dispatch_called: 23986490 64.8184
Dispatch_width: 0 12675194 52.8431 34.252
Dispatch_width: 1 877444 3.65808 2.37111
Dispatch_width: 2 708881 2.95533 1.9156
Dispatch_width: 3 502675 2.09566 1.35837
Dispatch_width: 4 4467028 18.6231 12.0712
Dispatch_width: 5 202951 0.846105 0.548432
Dispatch_width: 6 4552317 18.9787 12.3017
Empty_decode_cycles: 13019192 35.1816
ROB_full_cycles: 7052885 19.0589
Starvation_cycles_per_kilo_instr: 254.005
Starvation_cycles_per_kilo_instr_3: 207.305
Starvation_cycles_per_kilo_instr_0: 186.415
Branch_type_1  (3,1)  (4,7)  (5,39)  (6,74)  (7,128)  (8,148)  (9,139)  (10,113)  (11,81)  (12,55)  (13,11)  (14,2)  (15,3)  (16,4)  (18,1)  (19,5)  (20,2)  (21,1)  (22,3)  (23,2)  (24,10)  (25,13)  (64,1) 
Branch_type_2  (3,1)  (4,1)  (5,1)  (8,4)  (9,4)  (10,1)  (12,1)  (13,1)  (14,1)  (16,3)  (17,2)  (20,2)  (21,2)  (23,5)  (24,1)  (47,44) 
Branch_type_3  (3,4513)  (4,253)  (5,441)  (6,450)  (7,488)  (8,364)  (9,295)  (10,170)  (11,140)  (12,62)  (13,10) 
Branch_type_4  (6,3)  (7,8)  (8,25)  (9,55)  (10,67)  (11,71)  (12,114)  (13,101)  (14,111)  (15,92)  (16,101)  (17,82)  (18,67)  (19,129)  (20,71)  (21,124)  (22,220)  (23,136)  (24,208)  (25,101) 
Branch_type_5  (8,3)  (9,1)  (10,4)  (11,6)  (12,3)  (13,14)  (14,17)  (15,11)  (16,22)  (17,11)  (18,23)  (19,15)  (20,11)  (21,13)  (22,43)  (23,26)  (24,37) 
Branch_type_6  (5,4)  (6,13)  (7,22)  (8,37)  (9,40)  (10,69)  (11,63)  (12,89)  (13,100)  (14,118)  (15,88)  (16,99)  (17,78)  (18,62)  (19,116)  (20,54)  (21,95)  (22,149)  (23,72)  (24,96)  (25,4)  (47,52)  (64,1) 
Unique trigger count: 
Variant_0_evicts_0 : 0
Variant_0_evicts_1 : 0
Variant_0_evicts_2 : 0
Variant_0_evicts_3 : 0
Variant_1_evicts_0 : 0
Variant_1_evicts_1 : 0
Variant_1_evicts_2 : 0
Variant_1_evicts_3 : 0
Variant_2_evicts_0 : 0
Variant_2_evicts_1 : 0
Variant_2_evicts_2 : 0
Variant_2_evicts_3 : 0
Variant_3_evicts_0 : 0
Variant_3_evicts_1 : 0
Variant_3_evicts_2 : 0
Variant_3_evicts_3 : 0
BTB PER SET UNIQUE ADDR: 23 24 21 26 25 26 16 23 15 24 18 26 24 20 20 17 21 22 22 23 23 21 24 27 18 27 25 24 24 18 22 23 27 18 18 22 23 26 15 19 16 19 26 29 19 14 26 16 27 24 31 20 23 25 21 15 18 20 19 25 19 32 25 23 24 25 23 17 28 24 23 22 26 18 18 13 15 27 19 35 24 14 21 28 21 21 23 22 18 38 20 15 25 21 12 26 20 23 26 27 34 33 22 19 23 19 20 26 12 17 18 33 23 19 20 13 26 26 24 25 23 20 19 20 22 19 12 22 33 18 17 29 21 28 19 30 17 25 19 31 20 27 22 25 25 22 26 19 15 25 24 24 16 22 17 32 26 26 27 27 27 22 29 29 23 27 26 16 26 19 22 26 24 22 25 20 23 22 21 27 18 22 21 26 32 32 15 25 26 20 27 20 14 27 25 16 17 23 22 22 28 25 21 19 17 21 22 21 21 23 20 27 24 22 24 22 20 23 17 36 15 26 16 25 20 24 30 24 17 30 19 12 22 28 18 27 28 20 20 17 26 22 30 25 20 21 20 21 24 23 28 27 26 18 26 25 20 19 16 20 24 19 7 20 24 16 20 18 20 20 19 21 18 13 16 18 22 27 23 24 17 23 19 18 26 18 17 30 32 28 24 18 24 29 18 29 23 25 24 24 20 20 21 33 23 28 26 20 31 22 22 29 22 33 26 14 28 22 20 29 21 27 18 22 24 30 23 17 20 16 21 30 18 20 20 26 17 18 17 36 22 25 15 23 29 25 17 24 23 24 23 21 27 23 21 28 23 25 19 18 20 29 19 30 24 24 14 21 27 23 25 17 23 24 19 34 23 30 22 25 23 22 17 16 20 22 29 28 24 23 28 15 27 31 18 16 21 19 29 20 19 25 21 21 27 30 25 26 23 23 26 21 18 26 20 21 24 32 37 32 17 27 23 26 26 21 24 18 25 22 28 21 20 21 28 26 24 19 23 22 26 19 18 30 35 17 16 26 28 26 27 35 26 17 26 31 25 28 19 28 18 19 20 27 34 20 23 24 25 26 24 25 27 24 21 31 27 32 17 25 33 24 23 25 18 26 31 30 27 23 18 27 20 15 18 19 26 26 22 24 20 28 19 34 18 18 16 30 28 26 21 31 27 21 20 28 21 29 17 17 18 22 25 19 21 35 36 15 16 34 27 26 24 23 26 30 20 25 26 24 27 21 27 23 26 30 14 28 18 22 21 33 23 24 19 25 22 20 31 25 21 33 22 24 22 30 20 25 22 27 28 26 30 35 22 27 28 29 20 26 25 25 17 25 26 27 19 24 34 28 19 20 25 17 24 16 15 21 26 20 20 22 21 16 23 26 33 21 18 24 32 25 21 18 10 31 18 27 22 26 29 22 15 20 22 28 17 27 18 24 18 27 31 23 23 20 26 27 18 25 21 25 26 34 26 25 22 25 35 22 17 25 19 18 30 22 23 22 29 26 22 13 27 30 22 26 15 20 19 20 24 21 18 25 32 20 25 27 29 30 20 28 21 24 27 24 23 22 25 28 23 24 22 13 14 21 17 27 19 27 20 26 26 33 14 23 22 17 19 18 22 23 19 22 17 18 30 24 19 30 25 26 22 20 20 19 24 21 19 20 23 20 22 17 20 28 24 31 31 21 18 21 21 25 29 29 22 23 21 23 23 20 24 23 17 22 32 20 19 17 24 12 15 26 24 29 16 22 24 27 24 27 22 16 25 17 26 20 25 31 16 24 22 20 26 23 19 24 21 15 15 14 31 25 22 30 22 18 26 23 36 25 31 25 32 18 24 23 20 19 19 37 29 28 19 25 35 30 14 28 22 32 18 28 24 22 18 25 23 26 21 31 28 21 18 27 23 22 23 26 27 22 22 27 25 26 21 35 21 24 22 21 15 18 30 31 31 28 27 29 23 22 18 22 31 16 22 18 31 21 19 30 22 23 23 15 21 22 19 20 26 13 20 29 26 24 28 19 26 22 25 18 19 22 21 29 30 23 19 18 23 22 21 24 13 28 20 27 24 32 19 24 24 25 25 24 37 21 25 27 26 26 19 27 18 18 12 32 20 18 29 30 27 19 18 30 22 20 25 26 17 31 25 21 23 25 24 28 22 27 22 24 18 22 19 27 25 22 27 22 25 25 23 29 30 23 29 27 18 27 23 25 25 21 27 23 32 29 27 31 19 29 25 24 23 31 34 19 25 21 27 24 25 24 24 21 19 26 31 24 29 30 22 22 26 27 18 29 20 29 25 26 23 19 21 20 13 17 13 17 20 30 23 16 
BTB PER SET COUNT: 773 161 1756 136 416 203 960 337 979 203 128 870 15498 1298 114 115 497 1205 295 165 159 245 285 205 84 196 163 248 358 355 343 175 208 65 133 564 166 605 86 1355 77 98 214 566 262 63 211 98 404 248 174 126 118 190 177 293 110 125 290 138 105 202 155 156 227 265 148 413 274 170 285 483 236 122 98 77 76 329 144 201 544 95 214 424 138 341 191 116 251 392 314 616 260 233 54 191 129 353 226 850 267 482 140 198 1221 117 159 172 724 1494 124 293 431 116 182 716 196 198 1369 367 420 87 104 105 130 233 58 309 317 488 159 139 124 214 163 220 980 177 139 245 102 504 171 142 158 215 387 227 101 365 153 274 1050 140 107 255 284 146 233 526 159 250 185 142 1202 549 161 84 155 510 135 168 157 147 180 975 146 154 298 346 122 198 148 163 351 489 89 145 354 403 176 118 90 179 157 113 93 330 165 102 236 165 691 71 89 162 163 434 194 571 175 210 146 3267 143 877 133 163 1293 376 102 172 218 111 105 176 216 212 97 259 96 52 179 218 258 710 161 170 247 99 206 138 237 386 150 296 493 157 162 145 194 134 195 112 163 350 94 144 126 140 202 90 12 308 155 70 91 127 1028 229 119 385 227 64 461 63 128 212 122 511 73 215 544 664 145 99 77 338 287 187 148 114 118 316 91 221 519 181 204 250 165 106 169 275 117 247 193 219 324 564 480 227 110 215 646 349 214 264 211 204 172 314 80 117 231 352 292 116 116 87 140 263 88 104 122 181 115 465 54 374 145 1090 79 241 282 145 121 195 139 225 215 100 197 174 123 205 184 214 180 148 95 187 68 282 168 976 61 146 183 138 163 73 178 280 561 227 180 223 300 706 524 150 665 84 89 128 755 218 235 505 321 58 206 459 95 109 114 126 415 1199 106 188 132 95 264 192 184 265 129 172 220 91 96 405 133 168 138 2085 468 221 133 153 178 179 207 154 636 141 177 494 214 134 112 142 309 199 191 328 150 178 383 130 146 217 520 146 485 185 207 193 895 822 193 127 292 499 218 177 95 252 111 93 163 301 253 208 5017 136 147 211 193 174 148 202 152 248 178 345 76 209 243 388 143 153 228 556 231 177 391 286 653 217 2947 117 113 194 337 566 194 144 147 227 109 330 124 81 82 310 228 229 286 385 905 540 137 188 111 200 114 185 104 215 151 176 136 319 484 1061 107 1512 195 186 252 172 209 337 421 923 156 390 259 97 181 184 211 304 51 189 122 790 147 284 733 208 151 148 101 97 246 231 161 285 122 172 399 201 175 164 149 421 373 184 192 308 912 163 256 195 126 184 197 223 115 1407 194 163 365 174 365 157 938 155 231 100 196 82 1667 379 208 69 115 157 138 85 172 144 254 1679 81 161 310 1238 350 91 31 217 79 172 246 559 204 130 67 162 146 195 93 521 1297 163 85 258 408 182 130 299 175 486 111 275 175 177 174 193 678 213 378 180 387 111 89 178 104 133 444 466 135 156 364 371 177 73 159 262 1973 184 76 942 1048 183 151 149 695 244 473 308 163 167 187 246 190 188 978 320 600 203 147 198 236 238 121 189 181 79 1329 171 200 534 148 178 935 167 393 228 55 309 185 145 98 90 192 495 531 129 333 180 359 242 120 499 232 441 146 234 219 128 164 116 704 250 306 541 120 151 105 158 303 188 362 140 287 99 475 218 354 289 804 147 126 177 1374 116 566 359 87 143 261 1007 125 79 165 89 48 279 1472 297 75 311 151 224 134 318 463 93 182 114 206 457 143 212 596 212 645 124 150 262 104 185 127 91 122 749 198 176 402 360 158 109 201 740 360 203 285 319 538 117 151 154 132 118 137 4003 237 396 374 790 494 407 53 990 128 198 110 195 231 134 128 149 186 287 189 269 217 178 343 331 150 100 359 250 188 309 163 200 804 198 191 178 152 5569 440 456 107 126 619 227 790 189 233 175 499 199 208 153 395 104 184 95 214 157 192 236 167 127 175 55 103 140 469 149 174 67 244 216 342 273 162 157 175 163 240 606 513 456 99 178 291 162 210 114 212 127 141 491 85 196 124 234 183 379 132 260 177 208 142 498 533 505 204 181 140 414 146 455 83 155 45 230 113 118 228 243 423 150 116 625 96 165 758 194 109 597 220 100 132 255 195 177 166 204 227 1215 1018 3623 152 168 203 147 200 329 168 192 319 224 184 108 435 167 82 200 256 416 181 146 408 177 226 214 287 322 423 298 622 628 102 793 728 360 165 148 203 708 258 331 593 128 141 834 190 326 271 439 140 173 177 269 115 201 151 689 382 400 147 128 153 142 91 380 51 120 389 498 125 100 
To predecode: 0
Predecoding something: 0
Predecode request dropped: 0
sizeofblock_0 0
sizeofblock_1 136143
sizeofblock_2 67054
sizeofblock_3 15442
sizeofblock_4 3965
sizeofblock_5 89
sizeofblock_6 0
sizeofblock_7 0
sizeofblock_8 0
Variant_0 Correct: 1530964 Incorrect: 0 Accuracy: 1
Variant_1 Correct: 1995300 Incorrect: 0 Accuracy: 1
Variant_2 Correct: 1827489 Incorrect: 0 Accuracy: 1
Variant_3 Correct: 1662453 Incorrect: 9746 Accuracy: 0.994172
