
*** ChampSim Multicore Out-of-Order Simulator ***

Warmup Instructions: 50000000
Simulation Instructions: 50000000
Number of CPUs: 1
LLC sets: 2048
LLC ways: 16
Off-chip DRAM Size: 4096 MB Channels: 1 Width: 64-bit Data Rate: 6400 MT/s
CPU 0 runs ./micro_traces/srv345.trace.gz
.gz
ITLB has LRU replacement policy
DTLB has LRU replacement policy
STLB has LRU replacement policy
FDIP Prefetcher at L1I
L1I has LRU replacement policy
L1D has LRU replacement policy
Initialize SRRIP state for L2C
Initialize DRRIP state for LLC
Heartbeat CPU 0 instructions: 10000000 cycles: 2797444 heartbeat IPC: 3.57469 cumulative IPC: 3.57469 (Simulation time: 0 hr 2 min 20 sec) 
Heartbeat CPU 0 instructions: 20000001 cycles: 5593392 heartbeat IPC: 3.5766 cumulative IPC: 3.57565 (Simulation time: 0 hr 4 min 24 sec) 
Heartbeat CPU 0 instructions: 30000001 cycles: 8389304 heartbeat IPC: 3.57665 cumulative IPC: 3.57598 (Simulation time: 0 hr 6 min 40 sec) 
Heartbeat CPU 0 instructions: 40000003 cycles: 11185383 heartbeat IPC: 3.57644 cumulative IPC: 3.5761 (Simulation time: 0 hr 8 min 32 sec) 
Heartbeat CPU 0 instructions: 50000000 cycles: 13981510 heartbeat IPC: 3.57637 cumulative IPC: 3.57615 (Simulation time: 0 hr 10 min 32 sec) 

Warmup complete CPU 0 instructions: 50000004 cycles: 13981511 (Simulation time: 0 hr 10 min 32 sec) 

Cycle: 20000000 FTQ IN: 56298170 FTQ occupancy: 17.955 DECODE IN: 56298159 DECODE occupancy: 45.8732 ROB IN: 56298159 ROB occupancy: 276.438 ROB OUT: 56298101
Heartbeat CPU 0 instructions: 60000003 cycles: 23484363 heartbeat IPC: 1.05232 cumulative IPC: 1.05232 (Simulation time: 0 hr 12 min 18 sec) 
Cycle: 30000000 FTQ IN: 10635242 FTQ occupancy: 6.09018 DECODE IN: 10635253 DECODE occupancy: 12.7587 ROB IN: 10635253 ROB occupancy: 106.726 ROB OUT: 10635298
Heartbeat CPU 0 instructions: 70000000 cycles: 32864137 heartbeat IPC: 1.06612 cumulative IPC: 1.05917 (Simulation time: 0 hr 14 min 11 sec) 
Cycle: 40000000 FTQ IN: 10488528 FTQ occupancy: 6.29431 DECODE IN: 10488387 DECODE occupancy: 13.1787 ROB IN: 10488327 ROB occupancy: 107.56 ROB OUT: 10487992
Heartbeat CPU 0 instructions: 80000003 cycles: 42397576 heartbeat IPC: 1.04894 cumulative IPC: 1.05574 (Simulation time: 0 hr 16 min 8 sec) 
Cycle: 50000000 FTQ IN: 10683784 FTQ occupancy: 6.16276 DECODE IN: 10683909 DECODE occupancy: 12.9259 ROB IN: 10683969 ROB occupancy: 107.555 ROB OUT: 10684307
Heartbeat CPU 0 instructions: 90000003 cycles: 51810419 heartbeat IPC: 1.06238 cumulative IPC: 1.05739 (Simulation time: 0 hr 17 min 55 sec) 
Cycle: 60000000 FTQ IN: 10483441 FTQ occupancy: 6.23379 DECODE IN: 10483320 DECODE occupancy: 12.98 ROB IN: 10483260 ROB occupancy: 107.224 ROB OUT: 10482918
Heartbeat CPU 0 instructions: 100000003 cycles: 61326374 heartbeat IPC: 1.05087 cumulative IPC: 1.05608 (Simulation time: 0 hr 19 min 39 sec) 
Finished CPU 0 instructions: 50000003 cycles: 47344864 cumulative IPC: 1.05608 (Simulation time: 0 hr 19 min 39 sec) 

ChampSim completed all CPUs

Region of Interest Statistics

CPU 0 cumulative IPC: 1.05608 instructions: 50000003 cycles: 47344864
 Fetch stage stalled: 72.7096  Sim cycles: 47344864 fetch stall cycle: 34424241
 Empty decode stage: 61.1231  Sim cycles: 47344864 fetch stall cycle: 28938670
ITLB TOTAL     ACCESS:    5531485  HIT:    5040309  MISS:     491176  HIT %:    91.1204  MISS %:    8.87964   MPKI: 9.82352
ITLB LOAD TRANSLATION INSTRUCTION	ACCESS:    5425659  HIT:    4934483  MISS:     491176  HIT %:    90.9472  MISS %:    9.05284  MPKI: 9.82352
ITLB TRANSLATION FROM L1D PREFETCHER INSTRUCTION	ACCESS:     105826  HIT:     105826  MISS:          0  HIT %:        100  MISS %:          0  MPKI: 0

ITLB AVERAGE MISS LATENCY: 9.04643 cycles
ITLB RQ	ACCESS:    7203912	FORWARD:          0	MERGED:    1165337	TO_CACHE:    6038575

DTLB TOTAL     ACCESS:    9448315  HIT:    8975972  MISS:     472343  HIT %:    95.0008  MISS %:    4.99923   MPKI: 9.44686
DTLB LOAD TRANSLATION DATA	ACCESS:    9448315  HIT:    8975972  MISS:     472343  HIT %:    95.0008  MISS %:    4.99923  MPKI: 9.44686

DTLB AVERAGE MISS LATENCY: 9.31675 cycles
DTLB RQ	ACCESS:   13705274	FORWARD:          0	MERGED:    4225205	TO_CACHE:    9480069

STLB TOTAL     ACCESS:    1215457  HIT:    1213454  MISS:       2003  HIT %:    99.8352  MISS %:   0.164794   MPKI: 0.04006
STLB LOAD TRANSLATION INSTRUCTION	ACCESS:     491176  HIT:     490927  MISS:        249  HIT %:    99.9493  MISS %:  0.0506947  MPKI: 0.00498
STLB LOAD TRANSLATION DATA	ACCESS:     472310  HIT:     470583  MISS:       1727  HIT %:    99.6344  MISS %:    0.36565  MPKI: 0.03454
STLB TRANSLATION FROM L1D PREFETCHER DATA	ACCESS:     251971  HIT:     251944  MISS:         27  HIT %:    99.9893  MISS %:  0.0107155  MPKI: 0.00054

STLB AVERAGE MISS LATENCY: 73.8612 cycles
STLB RQ	ACCESS:    1338874	FORWARD:          0	MERGED:     123381	TO_CACHE:    1215493

STLB Hit, L1D data hit: 0
STLB Hit, L2C data hit: 0
STLB Hit, LLC data hit: 0
STLB Hit, LLC data miss: 0
STLB STLB hints to L2: 0
L1D TOTAL     ACCESS:   13482718  HIT:   12371425  MISS:    1111293  HIT %:    91.7576  MISS %:    8.24235   MPKI: 22.2259
L1D LOAD DATA	ACCESS:    6896365  HIT:    6166202  MISS:     730163  HIT %:    89.4123  MISS %:    10.5877  MPKI: 14.6033
L1D RFO DATA	ACCESS:    6250855  HIT:    5965307  MISS:     285548  HIT %:    95.4319  MISS %:    4.56814  MPKI: 5.71096
L1D PREFETCH DATA	ACCESS:     335498  HIT:     239916  MISS:      95582  HIT %:    71.5104  MISS %:    28.4896  MPKI: 1.91164

L1D PREFETCH  REQUESTED:     750964  ISSUED:     750964  USEFUL:      35315  USELESS:      68315
L1D USEFUL LOAD PREFETCHES:      35315 PREFETCH ISSUED TO LOWER LEVEL:     103789  ACCURACY: 34.0258
 TIMELY PREFETCHES:      35315 LATE PREFETCHES: 8061 DROPPED PREFETCHES: 7
L1D AVERAGE MISS LATENCY: 271640 cycles
L1D RQ	ACCESS:   10962383	FORWARD:          0	MERGED:    3877928	TO_CACHE:    6927495
L1D WQ	ACCESS:    6942405	FORWARD:     157214	MERGED:     164626	TO_CACHE:    6777779
L1D PQ	ACCESS:     375609	FORWARD:          0	MERGED:          0	TO_CACHE:     375355

L1D UNIQUE REGIONS ACCESSED: 0
L1D REGIONS CONFLICTS: 0
L1D Cross Page Prefetch Requests: 7080
L1D Same Page Prefetch Requests: 754532
L1D ROI Sum of L1D PQ occupancy: 4775516
L1D PREFETCHES PUSHED FROM L2C: 0
L1I TOTAL     ACCESS:    6855140  HIT:    4103648  MISS:    2751492  HIT %:    59.8624  MISS %:    40.1376   MPKI: 55.0298
L1I LOAD INSTRUCTION	ACCESS:    6424808  HIT:    3673316  MISS:    2751492  HIT %:    57.1739  MISS %:    42.8261  MPKI: 55.0298
L1I PREFETCH INSTRUCTION	ACCESS:     430332  HIT:     430332  MISS:          0  HIT %:        100  MISS %:          0  MPKI: 0

L1I PREFETCH  REQUESTED:     866786  ISSUED:     866786  USEFUL:          0  USELESS:          0
L1I USEFUL LOAD PREFETCHES:          0 PREFETCH ISSUED TO LOWER LEVEL:          0  ACCURACY: -nan
 TIMELY PREFETCHES:          0 LATE PREFETCHES: 0 DROPPED PREFETCHES: 0
L1I AVERAGE MISS LATENCY: 16.9703 cycles
L1I RQ	ACCESS:    9456767	FORWARD:          0	MERGED:    2857265	TO_CACHE:    6599502
L1I PQ	ACCESS:     866786	FORWARD:          0	MERGED:     262376	TO_CACHE:     604410

L1BTB TOTAL     ACCESS:    5669366  HIT:    2053404  MISS:    3615962  HIT %:    36.2193  MISS %:    63.7807   MPKI: 72.3192
L1BTB BRANCH_DIRECT_JUMP	ACCESS:     548314 HIT:     145687 MISS:     402627 AVERAGE STALL: 33.2206 AVERAGE FETCH STALL: 18.4592 AVERAGE FETCH QUEUE STALL: 6.44678 AVERAGE DECODE STALL: 7.46753 AVERAGE EXECUTE STALL: 2.00506e+14
L1BTB BRANCH_INDIRECT	ACCESS:     183294 HIT:      66411 MISS:     116883 AVERAGE STALL: 90.5711 AVERAGE FETCH STALL: 14.8324 AVERAGE FETCH QUEUE STALL: 7.09711 AVERAGE DECODE STALL: 7.1673 AVERAGE EXECUTE STALL: 60.5369
L1BTB BRANCH_CONDITIONAL	ACCESS:    2710692 HIT:    1422148 MISS:    1288544 AVERAGE STALL: 33.9504 AVERAGE FETCH STALL: 20.933 AVERAGE FETCH QUEUE STALL: 5.95628 AVERAGE DECODE STALL: 6.3127 AVERAGE EXECUTE STALL: 7.42064e+13
L1BTB BRANCH_DIRECT_CALL	ACCESS:     942184 HIT:     106495 MISS:     835689 AVERAGE STALL: 35.2509 AVERAGE FETCH STALL: 20.2081 AVERAGE FETCH QUEUE STALL: 6.985 AVERAGE DECODE STALL: 7.3021 AVERAGE EXECUTE STALL: 9.76142e+13
L1BTB BRANCH_INDIRECT_CALL	ACCESS:     171357 HIT:      21466 MISS:     149891 AVERAGE STALL: 106.614 AVERAGE FETCH STALL: 17.3692 AVERAGE FETCH QUEUE STALL: 6.94513 AVERAGE DECODE STALL: 6.97181 AVERAGE EXECUTE STALL: 74.7837
L1BTB BRANCH_RETURN	ACCESS:    1113525 HIT:     291197 MISS:     822328 AVERAGE STALL: 34.4933 AVERAGE FETCH STALL: 18.5066 AVERAGE FETCH QUEUE STALL: 5.75285 AVERAGE DECODE STALL: 6.16402 AVERAGE EXECUTE STALL: 1.13429e+14
L1BTB BRANCH_OTHER ACCESS:          0 HIT:          0 MISS:          0 AVERAGE STALL: -nan AVERAGE FETCH STALL: -nan AVERAGE FETCH QUEUE STALL: -nan AVERAGE DECODE STALL: -nan AVERAGE EXECUTE STALL: -nan
L1BTB TOTAL ROB OCCUPANCY AT BTB MISS: 18.4836

L2BTB TOTAL     ACCESS:    3590511  HIT:    2860374  MISS:     730137  HIT %:    79.6648  MISS %:    20.3352   MPKI: 14.6027
L2BTB BRANCH_DIRECT_JUMP	ACCESS:     398421 HIT:     310615 MISS:      87806 AVERAGE STALL: 33.2206 AVERAGE FETCH STALL: 18.4592 AVERAGE FETCH QUEUE STALL: 6.44678 AVERAGE DECODE STALL: 7.46753 AVERAGE EXECUTE STALL: 2.00506e+14
L2BTB BRANCH_INDIRECT	ACCESS:     106615 HIT:      97347 MISS:       9268 AVERAGE STALL: 90.5711 AVERAGE FETCH STALL: 14.8324 AVERAGE FETCH QUEUE STALL: 7.09711 AVERAGE DECODE STALL: 7.1673 AVERAGE EXECUTE STALL: 60.5369
L2BTB BRANCH_CONDITIONAL	ACCESS:    1288544 HIT:    1038850 MISS:     249694 AVERAGE STALL: 33.9504 AVERAGE FETCH STALL: 20.933 AVERAGE FETCH QUEUE STALL: 5.95628 AVERAGE DECODE STALL: 6.3127 AVERAGE EXECUTE STALL: 7.42064e+13
L2BTB BRANCH_DIRECT_CALL	ACCESS:     835689 HIT:     646684 MISS:     189005 AVERAGE STALL: 35.2509 AVERAGE FETCH STALL: 20.2081 AVERAGE FETCH QUEUE STALL: 6.985 AVERAGE DECODE STALL: 7.3021 AVERAGE EXECUTE STALL: 9.76142e+13
L2BTB BRANCH_INDIRECT_CALL	ACCESS:     140310 HIT:     107211 MISS:      33099 AVERAGE STALL: 106.614 AVERAGE FETCH STALL: 17.3692 AVERAGE FETCH QUEUE STALL: 6.94513 AVERAGE DECODE STALL: 6.97181 AVERAGE EXECUTE STALL: 74.7837
L2BTB BRANCH_RETURN	ACCESS:     820932 HIT:     659667 MISS:     161265 AVERAGE STALL: 34.4933 AVERAGE FETCH STALL: 18.5066 AVERAGE FETCH QUEUE STALL: 5.75285 AVERAGE DECODE STALL: 6.16402 AVERAGE EXECUTE STALL: 1.13429e+14
L2BTB BRANCH_OTHER ACCESS:          0 HIT:          0 MISS:          0 AVERAGE STALL: -nan AVERAGE FETCH STALL: -nan AVERAGE FETCH QUEUE STALL: -nan AVERAGE DECODE STALL: -nan AVERAGE EXECUTE STALL: -nan
L2BTB TOTAL ROB OCCUPANCY AT BTB MISS: 91.5389

L2C TOTAL     ACCESS:    4466214  HIT:    4021603  MISS:     444611  HIT %:     90.045  MISS %:    9.95499   MPKI: 8.89222
L2C LOAD INSTRUCTION	ACCESS:    2751492  HIT:    2519405  MISS:     232087  HIT %:     91.565  MISS %:    8.43495  MPKI: 4.64174
L2C LOAD TRANSLATION INSTRUCTION	ACCESS:        292  HIT:         65  MISS:        227  HIT %:    22.2603  MISS %:    77.7397  MPKI: 0.00454
L2C LOAD DATA	ACCESS:     722084  HIT:     651490  MISS:      70594  HIT %:    90.2236  MISS %:    9.77642  MPKI: 1.41188
L2C RFO DATA	ACCESS:     285390  HIT:     230613  MISS:      54777  HIT %:    80.8063  MISS %:    19.1937  MPKI: 1.09554
L2C PREFETCH DATA	ACCESS:     186075  HIT:     116672  MISS:      69403  HIT %:    62.7016  MISS %:    37.2984  MPKI: 1.38806
L2C WRITEBACK DATA	ACCESS:     519033  HIT:     502806  MISS:      16227  HIT %:    96.8736  MISS %:    3.12639  MPKI: 0.32454
L2C LOAD TRANSLATION DATA	ACCESS:       1801  HIT:        518  MISS:       1283  HIT %:    28.7618  MISS %:    71.2382  MPKI: 0.02566
L2C TRANSLATION FROM L1D PREFETCHER DATA	ACCESS:         47  HIT:         34  MISS:         13  HIT %:    72.3404  MISS %:    27.6596  MPKI: 0.00026

L2C PREFETCH  REQUESTED:      88781  ISSUED:      88781  USEFUL:       7940  USELESS:      61987
L2C USEFUL LOAD PREFETCHES:       7940 PREFETCH ISSUED TO LOWER LEVEL:      69851  ACCURACY: 11.3671
 TIMELY PREFETCHES:       7940 LATE PREFETCHES: 448 DROPPED PREFETCHES: 0
L2C AVERAGE MISS LATENCY: 39.487 cycles
L2C RQ	ACCESS:    3761134	FORWARD:          0	MERGED:          0	TO_CACHE:    3761105
L2C WQ	ACCESS:     519033	FORWARD:         29	MERGED:          0	TO_CACHE:     519033
L2C PQ	ACCESS:     192570	FORWARD:          0	MERGED:       3205	TO_CACHE:     189365

L2C Dense regions hint from L2: 0
PSCL5 TOTAL     ACCESS:       4026  HIT:       2013  MISS:       2013  HIT %:         50  MISS %:         50   MPKI: 0.04026
PSCL5 LOAD TRANSLATION INSTRUCTION	ACCESS:       3932  HIT:       1966  MISS:       1966  HIT %:         50  MISS %:         50  MPKI: 0.03932
PSCL5 TRANSLATION FROM L1D PREFETCHER INSTRUCTION	ACCESS:         94  HIT:         47  MISS:         47  HIT %:         50  MISS %:         50  MPKI: 0.00094


PSCL4 TOTAL     ACCESS:       3861  HIT:       1926  MISS:       1935  HIT %:    49.8834  MISS %:    50.1166   MPKI: 0.0387
PSCL4 LOAD TRANSLATION INSTRUCTION	ACCESS:       3516  HIT:       1885  MISS:       1631  HIT %:    53.6121  MISS %:    46.3879  MPKI: 0.03262
PSCL4 TRANSLATION FROM L1D PREFETCHER INSTRUCTION	ACCESS:         82  HIT:         41  MISS:         41  HIT %:         50  MISS %:         50  MPKI: 0.00082
PSCL4 LOAD TRANSLATION DATA	ACCESS:        263  HIT:          0  MISS:        263  HIT %:          0  MISS %:        100  MPKI: 0.00526


PSCL3 TOTAL     ACCESS:       3925  HIT:       1958  MISS:       1967  HIT %:    49.8854  MISS %:    50.1146   MPKI: 0.03934
PSCL3 LOAD TRANSLATION INSTRUCTION	ACCESS:       3548  HIT:       1917  MISS:       1631  HIT %:    54.0304  MISS %:    45.9696  MPKI: 0.03262
PSCL3 TRANSLATION FROM L1D PREFETCHER INSTRUCTION	ACCESS:         82  HIT:         41  MISS:         41  HIT %:         50  MISS %:         50  MPKI: 0.00082
PSCL3 LOAD TRANSLATION DATA	ACCESS:        295  HIT:          0  MISS:        295  HIT %:          0  MISS %:        100  MPKI: 0.0059


PSCL2 TOTAL     ACCESS:       3916  HIT:       1903  MISS:       2013  HIT %:    48.5955  MISS %:    51.4045   MPKI: 0.04026
PSCL2 LOAD TRANSLATION INSTRUCTION	ACCESS:       2103  HIT:       1856  MISS:        247  HIT %:    88.2549  MISS %:    11.7451  MPKI: 0.00494
PSCL2 TRANSLATION FROM L1D PREFETCHER INSTRUCTION	ACCESS:         47  HIT:         47  MISS:          0  HIT %:        100  MISS %:          0  MPKI: 0
PSCL2 LOAD TRANSLATION DATA	ACCESS:       1719  HIT:          0  MISS:       1719  HIT %:          0  MISS %:        100  MPKI: 0.03438
PSCL2 TRANSLATION FROM L1D PREFETCHER DATA	ACCESS:         47  HIT:          0  MISS:         47  HIT %:          0  MISS %:        100  MPKI: 0.00094


LLC TOTAL     ACCESS:     507521  HIT:     477871  MISS:      29650  HIT %:    94.1579  MISS %:    5.84212   MPKI: 0.593
LLC LOAD INSTRUCTION	ACCESS:     232087  HIT:     231248  MISS:        839  HIT %:    99.6385  MISS %:   0.361502  MPKI: 0.01678
LLC LOAD TRANSLATION INSTRUCTION	ACCESS:        227  HIT:        193  MISS:         34  HIT %:     85.022  MISS %:     14.978  MPKI: 0.00068
LLC LOAD DATA	ACCESS:      70172  HIT:      66895  MISS:       3277  HIT %:      95.33  MISS %:    4.66995  MPKI: 0.06554
LLC RFO DATA	ACCESS:      54746  HIT:      39301  MISS:      15445  HIT %:    71.7879  MISS %:    28.2121  MPKI: 0.3089
LLC PREFETCH DATA	ACCESS:      69851  HIT:      60241  MISS:       9610  HIT %:    86.2421  MISS %:    13.7579  MPKI: 0.1922
LLC WRITEBACK DATA	ACCESS:      79142  HIT:      78782  MISS:        360  HIT %:    99.5451  MISS %:   0.454879  MPKI: 0.0072
LLC LOAD TRANSLATION DATA	ACCESS:       1283  HIT:       1199  MISS:         84  HIT %:    93.4528  MISS %:    6.54716  MPKI: 0.00168
LLC TRANSLATION FROM L1D PREFETCHER DATA	ACCESS:         13  HIT:         12  MISS:          1  HIT %:    92.3077  MISS %:    7.69231  MPKI: 2e-05

LLC AVERAGE MISS LATENCY: 157.374 cycles
LLC RQ	ACCESS:     358533	FORWARD:          0	MERGED:          0	TO_CACHE:     358528
LLC WQ	ACCESS:      79142	FORWARD:          5	MERGED:          0	TO_CACHE:      79142
LLC PQ	ACCESS:      69851	FORWARD:          0	MERGED:          0	TO_CACHE:      69851

LLC Dense regions hint to LLC: 0

RAW hits: 1676444
Loads Generated: 12638827
Loads sent to L1D: 10962383
Stores Generated: 6942400
Stores sent to L1D: 6942405
Major fault: 0 Minor fault: 2557
Allocated PAGES: 2557

stream: 
stream:times selected: 1194307
stream:pref_filled: 121105
stream:pref_useful: 24180
stream:pref_late: 6660
stream:misses: 8071
stream:misses_by_poll: 0

CS: 
CS:times selected: 183170
CS:pref_filled: 60848
CS:pref_useful: 36779
CS:pref_late: 7154
CS:misses: 16533
CS:misses_by_poll: 1

CPLX: 
CPLX:times selected: 1009843
CPLX:pref_filled: 19714
CPLX:pref_useful: 4627
CPLX:pref_late: 3129
CPLX:misses: 91310
CPLX:misses_by_poll: 1

NL_L1: 
NL:times selected: 21362
NL:pref_filled: 680
NL:pref_useful: 343
NL:pref_late: 279
NL:misses: 1701
NL:misses_by_poll: 0

total selections: 2408682
total_filled: 95582
total_useful: 35315
total_late: 18426
total_polluted: 2
total_misses_after_warmup: 761291
conflicts: 5676221

test: 118861

DRAM Statistics
 CHANNEL 0
 RQ ROW_BUFFER_HIT:      11291  ROW_BUFFER_MISS:      17989
 DBUS_CONGESTED:          7
 WQ ROW_BUFFER_HIT:       1347  ROW_BUFFER_MISS:      12648  FULL:          0

 AVG_CONGESTED_CYCLE: 5

CPU 0 Branch Prediction Accuracy: 99.8267% MPKI: 0.3168 Average ROB Occupancy at Mispredict: 105.589
Branch types
NOT_BRANCH: 40859860 81.7197%
BRANCH_DIRECT_JUMP: 548314 1.09663%
BRANCH_INDIRECT: 183294 0.366588%
BRANCH_CONDITIONAL: 6181536 12.3631%
BRANCH_DIRECT_CALL: 942184 1.88437%
BRANCH_INDIRECT_CALL: 171357 0.342714%
BRANCH_RETURN: 1113525 2.22705%
BRANCH_OTHER: 0 0%

DRAM PAGES: 1048576
Allocated PAGES: 2557
Average_ROB_Occupancy: 108.431
Average_Decode_Occupancy: 12.9624
Average_FTQ_Occupancy: 6.20178
Indirect max targets: 14 Average targets: 1.14527
Branch_type:  BRANCH_DIRECT_JUMP:  Count Percentage: 3.26741 6.26219 4.55407 8.10877 2.42602 6.30342 1.00456 68.0736 
Branch_type:  BRANCH_INDIRECT:  Count Percentage: 11.7665 3.4654 2.59168 0 2.54775 9.6903 19.2499 50.6884 
Branch_type:  BRANCH_CONDITIONAL:  Count Percentage: 21.1482 2.94492 1.87333 7.8215 1.55958 4.88506 1.87229 57.8951 
Branch_type:  BRANCH_DIRECT_CALL:  Count Percentage: 0.261105 1.2606 1.46457 3.59063 3.07145 2.64944 0.889625 86.8126 
Branch_type:  BRANCH_INDIRECT_CALL:  Count Percentage: 9.51484 0.582571 2.98112 4.83998 0 2.47848 1.28912 78.3139 
Branch_type:  BRANCH_RETURN:  Count Percentage: 3.47799 0.573939 1.29069 8.91537 2.71251 6.68576 3.08634 73.2574 
Branch_type:  BRANCH_DIRECT_JUMP:  Total Count: 35824 68659 49931 88905 26599 69111 11014 746362 
Branch_type:  BRANCH_INDIRECT:  Total Count: 43122 12700 9498 0 9337 35513 70547 185763 
Branch_type:  BRANCH_CONDITIONAL:  Total Count: 2613894 363989 231542 966729 192762 603789 231413 7155782 
Branch_type:  BRANCH_DIRECT_CALL:  Total Count: 4917 23739 27580 67617 57840 49893 16753 1634813 
Branch_type:  BRANCH_INDIRECT_CALL:  Total Count: 32616 1997 10219 16591 0 8496 4419 268453 
Branch_type:  BRANCH_RETURN:  Total Count: 77445 12780 28740 198520 60400 148873 68724 1631235 
Number of unique branch instructions: 9840
Upper 32 bits: 
aaaa
ffff
ffff0000
Unique upper 32 bits: 3
Unique upper 36 bits: 3
Unique upper 40 bits: 5
Unique upper 44 bits: 32
Unique upper 48 bits: 154
Offset_3 4061
Offset_4 244
Offset_5 449
Offset_6 500
Offset_7 572
Offset_8 506
Offset_9 465
Offset_10 377
Offset_11 303
Offset_12 270
Offset_13 203
Offset_14 227
Offset_15 184
Offset_16 221
Offset_17 145
Offset_18 118
Offset_19 235
Offset_20 137
Offset_21 235
Offset_22 391
Offset_23 241
Offset_24 331
Offset_25 88
Offset_47 82
decode_dispatch_called: 19474720 41.1338
Dispatch_width: 0 9376670 48.1479 19.805
Dispatch_width: 1 539263 2.76904 1.13901
Dispatch_width: 2 709247 3.64189 1.49804
Dispatch_width: 3 462022 2.37242 0.975865
Dispatch_width: 4 1663646 8.54259 3.51389
Dispatch_width: 5 341636 1.75425 0.72159
Dispatch_width: 6 6382236 32.7719 13.4803
Empty_decode_cycles: 27870144 58.8662
ROB_full_cycles: 2157847 4.55772
Starvation_cycles_per_kilo_instr: 388.048
Starvation_cycles_per_kilo_instr_3: 367.995
Starvation_cycles_per_kilo_instr_0: 350.89
Branch_type_1  (3,1)  (4,9)  (5,37)  (6,68)  (7,113)  (8,128)  (9,122)  (10,97)  (11,67)  (12,43)  (13,5)  (14,2)  (15,3)  (16,4)  (18,1)  (19,4)  (20,2)  (21,1)  (22,3)  (23,2)  (24,10)  (25,12) 
Branch_type_2  (3,1)  (5,1)  (8,3)  (9,3)  (12,1)  (13,1)  (14,1)  (16,3)  (17,2)  (20,2)  (21,2)  (23,5)  (24,1)  (47,38) 
Branch_type_3  (3,4059)  (4,235)  (5,407)  (6,417)  (7,429)  (8,314)  (9,256)  (10,152)  (11,122)  (12,50)  (13,4) 
Branch_type_4  (6,3)  (7,8)  (8,25)  (9,52)  (10,61)  (11,58)  (12,97)  (13,88)  (14,100)  (15,86)  (16,99)  (17,65)  (18,53)  (19,115)  (20,72)  (21,124)  (22,208)  (23,136)  (24,192)  (25,72) 
Branch_type_5  (8,2)  (9,1)  (10,3)  (11,5)  (12,3)  (13,14)  (14,16)  (15,11)  (16,20)  (17,11)  (18,16)  (19,12)  (20,10)  (21,13)  (22,42)  (23,26)  (24,37) 
Branch_type_6  (5,4)  (6,12)  (7,22)  (8,34)  (9,31)  (10,64)  (11,51)  (12,76)  (13,91)  (14,108)  (15,84)  (16,95)  (17,67)  (18,48)  (19,104)  (20,51)  (21,95)  (22,138)  (23,72)  (24,91)  (25,4)  (47,44) 
aaaaab1fc620: 2ac9e77e 2aca717c 2aca8eff 2acaf6bc 2acaf9aa 2acaf9f1 2acb1abc 2acb1b7f 2acd4e22 2acdb712 2acf5f9e 2ad0ef44 2ad3f15c 2ad414e6 2ad60e42 2ad8609c 2ad99830 2ada35cc 2ada4676 2ada6612 2adf183e 2adf30e5 2adf5602 2adf785c 2ae11572 2aeb2dcf 2aee101b 2aee1ae1 2aee9456 2b156a8c 2b156b61 2b156bea 2b167f35 2b177656 2b17feec 2b1a3e5a 
aaaaab1fc740: 2aca1fb0 2aca45b3 2aca5aa1 2aca5c69 2aca66f9 2aca9426 2acaeecb 2acf3d2d 2acf3d64 2acf6089 2ad017ea 2ad5e7ef 2ad61064 2ad87373 2ad9bf84 2ad9c093 2ae9b606 2aea9ffa 2aee99f5 2aee9a2c 2aeece4b 
aaaaac68f310: 2ac9ec8c 2ac9fb44 2ac9fbd2 2aca59ab 2acac04c 2acaf6e0 2acaf6ec 2acaf6f9 2acaf700 2acaf708 2acf2d90 2ad3cfbd 2ad3cfc4 2ad3d000 2ad3f35f 2ad4955d 2ad49571 2ad4f3f2 2ad4f400 2ad5f240 2ad5f37c 2ad5f86a 2ad5f86f 2ad5f880 2ad5fc0d 2ad5fc14 2ad5fc21 2ad5fe1b 2ad873bb 2ad873e3 2ad8a6b2 2ad9086e 2ad93096 2ad9bbb2 2ada152c 2ada1554 2ada3332 2ada5522 2adf3130 2adf313c 2adf3a3f 2adf3bd9 2adf5788 2adf7a8d 2ae07f6b 2ae0857a 2ae0857e 2ae08630 2ae08634 2ae08637 2ae08642 2ae0866f 2ae086e4 2ae086ec 2ae08717 2ae0871b 2aee0170 2aee1d38 2aee75f4 2aee7662 2aee85ca 2aee85e4 2aee8eef 2aee9a0a 2af70b84 2af74e8f 2b17d843 
aaaaac690ef0: 2aca598b 2acb111b 2acb175f 2acb1772 2acbfaf4 2acbfb00 2acf374f 2acf6d43 2acfa5c8 2ad3baf1 2ad3d4ac 2ad3d4b8 2ad3f1cf 2ad486b2 2ad5a59b 2ad5fc64 2ad5fcf9 2ad6121c 2ad906e9 2ad907bf 2ad9bada 2ada16ce 2ada1ad5 2ada43df 2ada64c0 2ada72ee 2adeb71a 2adf3bcb 2adf7a38 2adf7c6a 2adf8872 2adf8880 2adf9959 2adf9abe 2ae07f78 2ae08503 2ae08754 2ae12e80 2aea3bea 2aecb509 2aee00b0 2aee2bdd 2aee5467 2aee5601 2aee8f20 2af703fd 2af7048b 2af74e74 2dfba627 
Unique trigger count: 
1 9389
2 485
3 86
4 31
5 6
6 9
7 6
8 1
9 3
10 1
11 2
12 1
13 3
16 2
18 2
19 2
21 1
36 1
49 1
67 1
BTB PER SET UNIQUE ADDR: 1 2 2 2 0 0 1 1 3 0 2 0 1 1 0 1 2 1 1 2 0 1 1 2 1 2 1 2 1 1 2 2 2 0 2 0 0 3 4 0 1 2 2 3 1 0 2 1 4 1 1 1 2 0 0 2 3 3 1 1 1 2 2 2 0 4 4 0 2 2 5 1 1 2 1 1 2 6 1 1 1 1 1 4 3 2 1 4 3 2 3 3 2 3 2 0 1 3 0 1 3 2 2 3 1 2 1 1 3 0 1 1 3 2 1 3 1 2 1 0 2 2 2 0 1 1 1 1 2 2 3 0 1 0 2 1 0 0 1 2 2 2 2 0 0 0 1 3 3 2 1 5 1 2 1 0 0 2 1 1 0 0 0 1 2 2 0 1 5 1 1 2 2 1 1 0 1 1 3 1 1 2 5 2 2 2 2 0 1 1 4 1 1 2 1 1 1 1 0 1 2 1 1 0 0 0 1 0 0 0 0 2 2 1 2 1 0 2 1 0 0 0 1 2 2 0 2 2 0 2 5 2 1 1 1 2 2 0 1 1 1 0 1 1 5 2 1 1 2 1 1 1 1 1 0 4 2 2 2 2 3 3 2 2 2 4 3 0 2 1 2 2 1 2 2 2 1 0 3 2 2 2 1 1 2 3 2 1 1 1 0 0 1 2 0 1 3 2 0 1 2 2 1 1 2 2 3 2 3 3 2 1 2 2 3 0 2 2 1 1 1 1 2 2 0 2 1 3 0 0 3 0 2 2 3 1 1 2 4 0 2 0 0 1 1 2 1 1 0 2 1 2 2 2 2 2 1 0 3 0 0 2 1 2 3 2 1 0 0 0 2 1 2 0 1 2 2 1 2 3 0 0 1 3 0 0 2 1 2 1 1 2 2 2 2 0 3 0 0 2 3 1 3 1 1 0 2 3 0 1 0 1 1 1 1 0 3 1 1 2 1 1 2 2 1 3 0 0 1 3 1 0 5 2 3 3 2 1 0 0 0 4 3 3 2 1 1 3 1 1 3 0 0 0 3 0 1 3 2 1 3 0 3 2 0 0 1 0 1 3 0 1 1 1 2 1 0 1 0 0 0 1 1 2 0 2 2 0 2 1 2 1 1 2 0 3 1 1 3 0 3 0 0 1 0 2 1 0 0 2 3 2 2 2 2 0 1 3 1 4 1 1 3 1 3 2 0 3 3 1 4 1 2 2 1 4 0 0 3 0 0 4 3 0 5 1 5 3 4 4 1 3 2 3 0 1 1 0 0 1 6 0 1 2 1 0 0 1 2 4 4 0 1 5 2 0 0 1 0 0 0 1 0 0 1 0 0 4 2 2 2 3 0 1 1 2 2 0 0 1 0 0 1 3 1 1 1 1 3 0 2 1 3 1 2 0 2 0 2 1 3 1 3 0 2 1 1 2 1 0 3 1 0 1 2 1 0 0 1 1 4 1 3 2 0 0 1 0 2 0 1 1 3 1 1 0 3 0 1 3 2 2 3 3 2 1 1 1 0 0 4 1 1 0 4 2 0 1 3 2 1 0 1 2 2 1 1 2 2 1 0 2 1 1 1 3 3 3 2 1 0 2 0 2 1 1 0 1 0 0 1 2 0 1 2 0 1 1 0 2 1 0 1 1 0 1 1 1 0 3 2 2 1 0 1 1 4 1 1 0 1 2 1 2 1 0 2 1 1 2 0 0 1 2 0 1 2 3 1 0 1 1 0 2 0 1 3 1 0 0 2 2 0 0 1 2 3 1 1 1 2 1 0 0 3 3 3 3 0 0 1 3 0 0 2 3 3 1 1 0 2 2 1 2 1 1 1 4 0 2 0 2 1 0 2 1 1 0 0 3 3 0 1 0 2 1 1 1 1 4 1 1 2 1 3 0 1 0 3 2 0 1 0 1 0 1 3 2 2 0 2 0 3 1 2 2 0 0 1 0 0 0 0 1 4 1 1 0 2 0 1 1 1 2 1 0 2 1 3 1 2 1 1 0 0 0 1 2 0 0 2 0 1 2 1 1 4 0 1 1 1 0 0 1 1 3 0 1 0 4 3 3 0 0 1 2 0 0 1 2 3 1 3 1 2 0 3 0 2 1 3 1 4 2 2 1 1 1 0 1 1 1 0 3 2 2 1 2 1 1 1 0 4 1 1 0 4 2 2 1 2 1 2 2 2 4 8 2 2 2 1 1 0 2 2 1 3 4 1 2 3 2 1 3 1 1 1 1 2 1 3 1 1 2 2 1 2 2 1 4 0 1 2 1 2 3 3 2 0 2 2 0 3 0 1 2 3 2 1 3 3 1 7 4 0 2 2 1 1 1 3 4 2 1 3 0 0 1 1 0 2 0 1 3 0 2 4 1 3 3 0 1 3 2 1 3 2 1 2 1 0 1 2 0 2 0 1 2 3 3 1 4 3 2 0 1 7 0 1 1 1 1 2 2 1 4 3 3 3 3 1 4 2 2 1 0 4 0 1 2 1 5 1 0 4 1 1 1 2 1 1 2 3 3 2 2 2 1 1 3 4 2 1 2 1 1 3 2 1 4 1 2 2 1 3 3 0 1 4 1 0 2 1 0 1 2 1 1 1 2 1 3 2 0 1 1 3 2 1 0 2 0 0 3 2 1 2 2 1 4 0 1 4 0 3 1 1 2 2 4 2 4 0 6 4 0 2 1 2 0 0 1 3 0 1 1 2 4 1 0 0 1 3 1 1 2 0 0 1 4 1 4 2 2 0 2 1 0 2 4 6 0 4 0 0 1 3 1 4 0 2 3 2 1 1 1 0 4 1 3 0 1 2 5 3 1 2 2 0 2 4 3 1 3 3 2 0 0 3 3 4 1 2 2 1 1 3 2 3 1 1 1 1 1 5 3 4 0 0 2 1 1 2 1 3 0 0 1 2 3 2 0 3 1 1 0 1 1 5 0 1 2 0 4 2 0 2 1 3 2 1 1 2 1 2 2 0 3 2 1 0 3 1 1 2 2 1 1 0 2 1 1 1 2 1 2 3 1 1 2 0 1 3 0 2 2 0 1 1 1 2 2 1 0 2 0 1 1 2 2 1 1 1 1 1 4 1 3 2 1 2 0 1 1 1 3 1 2 1 1 1 2 0 1 3 2 3 1 4 2 1 0 1 2 3 1 1 1 3 0 5 2 1 3 1 0 3 3 1 1 1 3 0 2 2 1 1 1 2 1 0 1 1 4 2 1 2 1 0 2 1 0 1 2 1 1 1 0 0 2 1 0 1 1 0 2 1 3 4 1 1 0 1 1 1 0 1 0 0 3 1 0 1 0 0 1 1 0 0 0 0 0 0 0 0 0 2 0 2 0 2 0 2 0 1 0 0 4 1 0 2 1 3 1 1 0 1 2 1 0 2 0 1 1 1 1 1 0 2 0 3 1 0 1 3 1 0 1 0 3 1 2 1 1 2 2 2 2 0 1 1 0 1 0 3 0 1 1 0 0 0 1 0 1 1 0 1 2 2 1 1 1 2 2 1 1 1 0 0 2 1 0 0 1 2 1 2 1 0 1 1 3 3 0 0 1 2 1 0 0 3 1 3 0 2 1 2 2 1 2 3 2 5 0 1 0 2 2 1 5 3 3 2 3 4 0 0 2 2 1 1 1 1 1 2 0 2 1 0 1 2 0 1 1 3 1 2 2 3 1 0 1 3 0 2 3 2 1 2 1 3 3 1 1 1 2 2 1 1 5 2 1 1 1 1 3 3 1 1 0 1 0 2 1 2 3 0 0 1 1 0 2 3 1 0 2 3 0 1 2 1 1 1 2 1 0 0 3 2 1 0 0 0 2 1 0 2 1 3 3 1 1 4 1 2 7 3 2 3 2 1 3 3 1 1 1 0 0 0 2 3 1 2 0 0 2 3 1 1 1 0 0 1 2 2 2 2 1 2 2 1 1 0 2 0 1 2 1 0 0 0 1 0 1 2 0 3 0 3 1 1 0 2 1 1 3 0 3 0 0 0 1 1 1 4 0 1 1 0 1 2 1 0 1 0 0 1 1 1 1 2 2 3 0 3 0 0 1 2 1 1 6 1 0 2 1 3 2 1 2 5 1 3 3 0 2 0 3 2 4 4 0 2 1 5 0 4 0 3 2 2 2 1 1 1 0 1 2 0 2 0 1 2 3 2 1 4 2 2 2 3 0 1 0 3 1 3 2 2 2 2 1 0 2 3 2 1 0 1 2 0 0 0 1 0 1 1 2 0 2 2 1 3 1 2 1 2 2 3 0 1 2 2 1 0 2 2 2 2 0 0 1 0 0 1 0 0 1 1 1 2 1 1 2 0 0 0 2 1 1 1 0 2 1 2 2 2 0 2 1 0 1 1 2 1 2 1 0 1 0 2 1 0 1 2 1 3 2 2 2 0 2 0 1 0 0 2 2 0 4 2 4 0 2 2 5 1 0 0 1 4 1 2 0 1 0 3 1 0 0 2 3 1 6 2 0 3 0 1 1 1 1 2 1 0 2 0 1 2 2 1 0 0 3 4 1 0 0 2 3 1 0 3 3 1 0 3 3 0 1 1 4 0 0 0 2 1 0 3 0 1 0 2 2 2 0 2 1 2 1 2 1 0 2 4 2 3 0 1 2 1 0 1 0 2 1 1 0 0 0 4 2 1 2 1 1 2 2 3 3 1 1 3 3 0 2 2 1 4 4 2 2 2 2 1 2 1 2 2 2 1 3 5 2 2 2 2 2 2 1 1 1 0 1 1 0 2 2 0 2 0 1 1 0 1 2 1 3 0 0 0 2 1 2 1 0 0 2 1 1 0 0 0 2 1 1 0 1 3 1 1 2 0 0 2 0 1 2 1 0 1 0 1 0 0 1 0 2 1 0 0 4 1 3 1 2 3 1 2 2 0 0 0 1 1 0 4 2 2 2 3 1 3 2 2 1 2 1 3 1 1 2 1 4 1 2 1 1 2 3 2 3 1 0 3 1 2 1 3 5 4 3 2 1 2 1 3 0 1 0 2 1 0 1 2 3 2 0 2 1 1 1 2 3 1 1 1 2 1 2 2 2 3 3 1 2 3 4 1 1 3 1 3 3 1 4 2 1 2 2 3 3 1 1 3 3 3 0 1 1 1 1 1 2 1 1 0 1 3 1 2 0 2 1 1 2 0 1 0 0 4 2 4 5 0 0 1 2 1 1 0 2 2 2 1 2 2 1 1 1 2 0 1 2 0 1 2 1 1 0 1 1 2 0 0 1 0 1 2 0 5 1 3 2 1 2 0 0 0 3 0 3 1 0 2 1 1 1 1 1 0 1 1 0 1 0 3 2 1 0 1 0 2 1 4 4 1 1 2 5 1 2 2 0 0 3 1 1 1 0 0 3 2 1 1 0 1 0 1 0 1 3 3 0 0 1 3 1 2 3 2 1 3 1 1 0 1 1 2 2 1 2 3 3 0 1 2 1 0 1 0 4 3 2 1 2 1 1 5 3 0 2 3 2 3 1 2 0 4 2 2 0 0 1 2 0 1 1 1 1 1 1 1 3 2 0 1 0 1 2 4 2 1 2 2 2 0 1 0 0 1 2 2 0 2 0 1 1 1 2 4 1 2 2 1 2 3 0 2 0 2 1 2 5 1 1 2 1 1 3 1 1 2 1 0 1 5 1 0 3 1 4 1 3 3 2 2 0 0 3 3 1 0 0 4 4 1 1 2 0 1 0 0 2 1 0 3 0 2 1 2 2 0 3 2 2 0 1 2 1 1 0 1 0 1 2 2 1 0 0 0 4 0 1 1 2 3 1 2 4 1 1 3 3 0 3 3 2 0 2 1 4 2 0 1 1 1 1 2 1 3 2 0 1 2 0 2 5 2 3 1 3 1 2 2 1 2 2 1 2 4 0 1 1 4 1 0 3 0 2 2 3 1 2 3 2 1 5 4 1 1 0 0 0 0 5 3 1 3 4 1 0 1 1 3 2 2 0 3 2 3 3 1 3 2 3 0 2 3 1 0 1 0 2 0 0 1 0 2 2 3 2 0 2 1 3 1 3 2 3 3 1 3 1 2 3 1 1 3 0 1 1 0 0 2 3 1 3 2 1 2 1 2 0 1 3 1 0 3 0 2 1 4 3 4 1 1 4 1 2 3 4 1 4 3 2 0 1 2 2 3 0 3 2 4 1 2 2 1 2 1 1 1 0 3 1 3 2 0 4 0 1 2 1 3 0 3 1 2 1 3 0 0 1 6 1 0 1 1 0 0 0 1 0 0 3 2 1 3 2 1 1 1 3 0 2 1 2 0 1 1 2 1 1 1 1 1 0 0 2 0 1 2 1 0 3 3 1 2 2 1 3 4 3 5 1 2 2 2 1 0 3 2 2 2 1 0 2 1 3 0 3 5 3 0 0 0 2 1 1 1 1 2 4 4 1 1 2 3 1 4 1 3 2 2 1 1 0 1 1 3 0 2 2 0 2 0 1 1 2 3 2 0 0 1 1 3 0 2 0 1 1 2 2 1 1 2 0 2 0 3 2 1 3 3 2 2 2 4 2 2 3 2 3 3 2 4 4 3 6 2 0 5 2 1 4 3 3 0 2 2 4 3 0 0 1 2 3 1 4 2 4 5 3 1 0 2 4 2 2 2 1 2 0 2 3 0 0 4 2 1 2 3 2 3 4 3 0 2 1 0 3 0 3 0 0 4 0 2 3 2 2 2 1 0 2 3 5 1 3 4 5 3 3 5 3 1 4 3 1 0 1 2 3 4 3 2 1 5 0 1 3 1 3 2 3 2 1 0 1 2 3 0 1 1 2 4 1 1 2 0 2 3 0 3 1 0 1 3 3 2 1 1 0 1 1 1 1 2 3 1 5 2 2 2 3 2 1 1 1 2 1 0 2 1 1 2 1 3 2 1 3 4 0 2 0 1 0 2 1 2 1 2 1 1 1 1 2 1 3 4 1 0 2 3 1 2 1 1 2 3 1 1 2 1 4 1 3 0 2 0 1 2 1 0 0 1 1 3 0 0 1 2 1 2 1 0 2 1 4 2 1 2 0 3 1 1 3 0 1 3 3 2 2 0 2 2 2 1 1 0 0 0 1 1 0 3 2 2 2 3 1 3 3 5 1 1 3 4 1 2 4 2 2 4 0 3 1 3 2 2 1 3 2 3 4 1 2 4 4 2 2 2 0 1 1 0 4 1 1 1 1 2 2 1 1 4 0 1 2 2 1 4 0 4 1 2 2 1 1 3 1 1 3 1 2 1 2 1 2 2 3 0 2 2 3 0 4 1 1 3 2 2 1 4 0 3 2 1 1 1 4 1 0 1 0 1 1 2 0 1 2 2 1 2 3 1 1 1 0 2 3 0 3 3 2 0 2 2 0 2 0 1 3 3 1 1 1 1 0 2 0 0 1 4 1 2 1 1 3 2 1 2 0 2 1 3 4 6 1 1 3 3 3 1 1 0 2 2 2 0 0 3 2 1 2 2 2 0 3 1 1 1 5 1 3 3 4 0 1 3 1 1 1 3 1 4 5 1 3 0 2 3 4 1 4 1 5 3 1 1 1 1 2 2 2 1 2 3 3 5 2 3 2 3 2 3 2 1 4 3 3 1 1 2 1 3 1 1 1 4 2 2 0 2 0 0 1 3 7 2 1 1 2 2 2 2 2 2 1 1 1 1 2 3 1 3 1 3 3 1 0 1 2 0 1 0 3 0 4 4 0 0 1 3 1 2 2 4 0 3 3 1 3 1 3 0 1 2 2 1 1 2 1 3 0 0 0 3 1 1 3 3 4 2 4 2 1 2 0 1 0 2 0 3 1 2 1 0 4 0 1 0 1 1 2 3 0 3 2 3 0 2 0 4 1 0 1 3 1 0 2 1 2 1 0 2 2 0 2 1 2 1 2 5 2 3 2 2 3 2 3 2 1 2 0 2 2 2 3 2 1 2 0 2 0 2 2 2 3 1 3 1 1 2 0 3 2 5 0 0 2 1 2 3 3 1 2 3 0 0 1 2 0 0 2 1 3 2 2 1 0 2 2 1 3 1 3 0 2 1 2 4 0 0 0 1 2 2 1 0 3 1 1 2 2 1 2 0 4 1 2 2 0 2 0 3 2 3 2 1 2 0 2 0 2 1 1 2 0 2 2 0 2 1 0 3 2 1 6 3 2 2 1 2 0 1 3 2 1 0 0 1 1 1 0 2 2 2 3 2 0 3 1 4 2 3 0 0 4 0 1 4 3 0 4 1 2 2 3 2 2 0 1 0 3 2 1 0 3 1 2 2 2 3 1 3 0 1 4 2 3 1 1 2 2 4 1 2 2 1 5 2 1 1 0 2 2 3 2 1 2 2 0 0 3 1 2 2 1 1 0 1 4 0 2 1 2 3 1 2 2 4 0 3 1 1 0 4 1 3 3 5 1 1 4 0 3 2 3 4 4 1 3 0 2 3 0 2 2 1 2 2 2 1 2 0 3 1 2 1 2 1 2 0 2 2 1 1 2 0 3 3 2 1 1 2 6 0 3 1 2 2 2 1 3 1 4 1 3 1 3 2 2 2 1 3 0 2 4 0 6 0 5 2 1 1 2 1 0 2 1 2 2 3 3 2 2 2 0 2 3 2 1 2 2 0 2 0 3 5 2 1 3 4 1 2 1 4 1 1 1 2 3 0 1 2 0 0 2 1 0 2 0 1 1 1 1 1 2 0 3 1 3 3 2 0 1 0 2 1 1 2 1 0 0 0 1 2 2 2 2 1 1 1 1 0 1 0 2 2 3 0 1 1 0 1 1 0 1 1 2 1 1 1 0 3 1 0 2 1 0 0 1 2 2 2 2 2 1 1 1 2 4 0 2 1 3 2 1 0 0 2 0 0 1 2 2 2 2 2 4 3 1 1 2 1 2 0 2 2 0 1 1 2 1 3 1 3 1 1 1 4 1 2 2 2 1 2 7 1 1 5 4 2 2 2 0 2 4 2 2 4 0 3 0 0 2 2 2 2 3 1 1 2 1 2 5 4 0 0 3 1 0 0 1 0 0 2 2 1 1 2 1 3 0 2 1 0 0 2 1 2 2 5 2 1 2 1 3 1 1 1 4 4 0 0 2 0 3 0 0 0 0 3 3 3 2 0 0 3 1 1 0 1 1 1 2 1 1 2 1 2 3 2 1 1 5 1 2 2 1 2 0 1 2 2 1 2 1 1 0 1 1 3 1 3 2 2 1 1 1 1 2 1 0 
BTB PER SET COUNT: 1 2 2 2 0 0 2 1 2381 0 2 0 1 1 0 1 3 1 1 2 0 1 1 2 1 2 1 2 1460 1 2 2 2 0 2 0 0 1382 3082 0 1 2 2 484 1 0 2 1 3880 1 1 1 2 0 0 2 1382 4380 1 1 1 2 2 2 0 1754 2000 0 2 2 5340 1 1 2 1 1 501 2677 1 1 1 1 1 1741 715 2 1 29 4380 2 735 468 2 2881 2 0 1 12 0 1 13 2 2 1001 1 3 1 1 1500 0 1 1 1001 2 1 724 1 2 1 0 2 2 2 0 1 1 1 1 2 2 1500 0 1 0 2 1 0 0 1 2 2 5 2 0 0 0 1 2882 1500 2 1 5184 1 2 1 0 0 2 1 1 0 0 0 1 2 2 0 1 4842 1 1 2 2 1 1 0 1 1 972 1 1 2 7300 2 2 2 2 0 1 1 4395 1 1 2 1 3 1 1 0 1 2 1 1 0 0 0 1 0 0 0 0 2 2 1 2 1 0 2 1 0 0 0 1 2 2 0 2 31 0 2 2444 2 1 1 1 2 2 0 1 1 2 0 1 1 5340 3 1 1 2 1 1 1 1 1 0 3380 2 2 3 2 1113 1500 2 2 2 3879 1001 0 2 1 4 2 1 2 2 3 1 0 2882 2 2 2 1 1 2 2000 2 1 1 1 0 0 1 2 0 1 7 2 0 1 2 2 1 1 2 2 30 3 1500 1002 2 1 2 2 1001 0 2 2 1 1 1 1 2 2 0 2 1 12 0 0 1501 0 2 2 2772 1 1001 2 1011 0 2 0 0 999 999 2 1 1 0 2 1 3 2 2 2 2 1 0 2921 0 0 2 1 2 1131 2 1 0 0 0 2 1 2 0 1 2 2 1 2 17 0 0 1 1383 0 0 2 1 2 1 1 2 2 2 2 0 2882 0 0 2 1500 1 4 1 1 0 1461 5 0 960 0 1 1 2 1 0 18 1 1 92 1 1 2 2 1 15 0 0 1 1500 1 0 2001 2 718 1502 2 1 0 0 0 1011 1500 5 2 1 1 5 1 1 1500 0 0 0 1500 0 1 5 2 1 12 0 1500 2 0 0 1 0 1 20 0 1 1 500 2 1 0 1 0 0 0 1 1 501 0 2 2 0 2 1 2 1 1 2 0 4 1 3 5 0 1001 0 0 2 0 2 1 0 0 2 1500 2 2 2 3 0 1 4380 1 1503 1 1 1001 1 5 2 0 4 2893 1 4375 1 2 3 1 5341 0 0 10 0 0 2000 2921 0 3428 1 1044 14 2886 4880 1 1500 4 1500 0 1 2 0 0 1 7800 0 1 2 1 0 0 1 2 1526 4381 0 1 3881 2 0 0 1 0 0 0 1 0 0 1 0 0 1010 2 2 3 7 0 1 960 2 2 0 0 1 0 0 1 1382 1 1 1 1 3 0 2 1 4 1 2 0 922 0 2 1 14 1 1501 0 2 1 1 2 1 0 3381 1 0 8 2 1 0 0 1 1 2000 1 2882 2 0 0 2 0 2 0 1 1 1501 1 1 0 2881 0 1 1499 7879 2 12 1001 2 2 1 999 0 0 1742 1 1 0 2000 1000 0 1 9 2 1 0 1 1000 2 1 1 1461 2 1 0 1000 1 1 1 1500 1500 1499 3 1 0 2 0 2 1 999 0 1 0 0 1 2 0 1 1000 0 1460 1 0 2 1 0 1 1 0 1 1 1 0 30 2 2 960 0 1 1 4879 1 1 0 1 2 1 2 1 0 2 1 1 1000 0 0 1 4 0 1 2 1500 1 0 1 1 0 2 0 1 1500 1 0 0 2 3 0 0 1 2 2381 2 1 1 2 1 0 0 1119 2881 11 11 0 0 1 1127 0 0 2 17 1119 1 1 0 2 2 1 2 1 2 2 1013 0 4 0 2 1 0 3 1 2 0 0 386 14 0 1 0 3 1 1 1 1 2000 1 1 2 1 1500 0 1 0 1500 2 0 1 0 1 0 1 1001 2 2 0 2 0 1501 1 2 2 0 0 1 0 0 0 0 1 2140 1 1 0 2 0 1 1 1 3 1 0 2 1 4380 1 2 1 1 0 0 0 1 3 0 0 2 0 1 2 1 1 1153 0 2 1 1 0 0 2 1 2881 0 1 0 3582 32 1001 0 0 1 2 0 0 1 2 27 1 1922 1 2 0 1006 0 2 1 15 1 1741 461 2 1 42 3 0 1 1 1 0 1959 2 2 1 2 1 1 1 0 2958 1 1 0 2195 4 2 1 2 501 2 2 5 705 5701 2 2 5 1 1 0 374 2 1 2882 2925 1 2 1501 2 2 485 1 2 1 1 2 1 1001 2 1 2 2 1 2 2 1 1511 0 1 2 1 2 14 1501 2 0 3 2002 0 3342 0 1 3 16 4 1 16 1040 1 6305 22 0 2 3 1 1 1 14 2000 2 1 1500 0 0 1 1 0 2 0 1 1001 0 2 14 2 2381 17 0 1 748 2 1 386 2 2 2 2 0 1 3 0 5 0 1 2 1500 6 1 2000 1001 2 0 1 8265 0 1 1 1 1 2 5 1 4840 8 17 6 4379 1 23 2 2 1 0 22 0 1 2 1 4385 1 0 255 1 1 1 502 1 1 2 1500 13 2 2 2 1 1 14 2640 2 1 2 1 1 14 2 1 5341 1 2 2 1 6 10 0 1 14 1 0 2 1 0 1 3 1 1 1 2 1 8 2 0 1 1 922 2 1 0 2 0 0 4381 2 1 2 2 1 18 0 1 3880 0 1502 2 1 2 2 3381 2 4377 0 5842 4841 0 3 1 2 0 0 1 3380 0 1 1 2 1249 1 0 0 500 2882 1 1 2 0 0 1 4380 1 2886 3 2 0 2 1 0 2 1510 5349 0 1507 0 0 1 3 2 23 0 2 1009 2 1 1 1 0 2886 1 1001 0 1 2 6340 17 1 2 2 0 2 1505 3425 1 4380 5 2 0 0 13 2882 2001 1 2 2 1 1 2881 2 13 1 1 1 1 1 7761 1001 4840 0 0 2 1 1 2 1 1001 0 0 1 2 1471 2 0 17 1 1 0 1 1 2007 0 1 2 0 1504 2 0 2 1 4380 2 1 1 3 1 2 2 0 2882 2 2 0 1500 1 1 2 2 1 1 0 2 1 1 1 2 2 2 1096 1 1 2 0 1 8 0 2 2 0 1 1 1 2 2 2 0 2 0 1 1 2 2 4 1 1 1 1 2399 1 275 2 1 3 0 1 1 1 4380 1 2 1 1 1 3 0 1 1500 2 12 1 18 2 1 0 1 2 1001 1 1 1 17 0 3351 2 1 1500 1 0 1500 1130 2 1 1 1500 0 3 2 3 1 3 2 3 0 5 2 16 3 1 2 1 0 2 1460 0 1 1334 1 1 2 0 0 2 1 0 2 1333 0 3 1 1500 1505 1 1 0 1 1 1 0 1 0 0 1001 1 0 1 0 0 1 1 0 0 0 0 0 0 0 0 0 3 0 2 0 2 0 2 0 1 0 0 4384 23 0 2 1 3381 1 1 0 2 2 147 0 3 0 1 1 1 1 1 0 2 0 1323 376 0 1 2381 1 0 1 0 8 1 2 1 2 20 2 2 2 0 1 1 0 1 0 10 0 1 1 0 0 0 1 0 1 1 0 1 445 2 1 1 1 2 2 1 3 1 0 0 2 1 0 0 1 2 1 6 1 0 1 1 10 1500 0 0 1 2 1 0 0 724 1 1500 0 2 1 2 2 1 2 1500 2 4340 0 1 0 2 2 1 2006 1500 2881 2 1147 6300 0 0 2 1461 1 1 1 1 1 2 0 2 960 0 1 2 0 1 1 2882 1 2 2 2881 3001 0 1 4379 0 2 11 2 1 2 1 1500 2880 1 1 1 284 2 1 1 2931 2 1 7 1 1 4379 8 1 1 0 3 0 2 1 3 1001 0 0 1 1 0 2 14 1 0 2 8 0 1 2 1 1 1000 2 1 0 0 1141 2 1001 0 0 0 3 501 0 2 1 1001 7 1 1 5456 1 2 7304 216 2 16520 1001 1 2381 8 1 1 1 0 0 0 2 2882 1 2 0 0 2 724 1 151 1 0 0 1 1461 225 2 2 1 2 2 1 674 0 2 0 1 2 1 0 0 0 577 0 1 2 0 1500 0 1000 2 1 0 2 1 1 1382 0 1500 0 0 0 1 1 1 4880 0 1 505 0 1 2 1 0 1 0 0 961 1 1 1 2 2 4380 0 18 0 0 1 2 1460 1 2947 1 0 2 1 1210 2 1 2 2444 1 1716 1500 0 2 0 1500 233 3880 1569 0 2 1 4542 0 4916 0 83 1461 2 2 1 1 1 0 1 2 0 2 0 1 4 1388 2 1 2426 367 2 6 1442 0 1 0 486 1 1500 2 2 2 2 1 0 2 4413 2 1 0 1 2 0 0 0 1 0 1 1 2 0 2 2 1 1500 11 2 1 2 2 7 0 1 2 2 1 0 2 2 3 2 0 0 1 0 0 1 0 0 1 1 1 2 1 1 2 0 0 0 2 1 1 1 0 4 1 2 2 135 0 2 1 0 1 1 2 1 2 1 0 1 0 2 1 0 1 2 1 10 2 2 2 0 2 0 1 0 0 2 2 0 1999 1462 1512 0 2 2 2480 1 0 0 1 28 1 2 0 1 0 1500 1 0 0 2 12 8 4879 2 0 2879 0 1 1 1 1 2 1 0 2 0 1 2 3 1 0 0 1500 4380 1 0 0 2 1500 1 0 1500 1500 1 0 1500 13 0 1 1 1507 0 0 0 2 1 0 1500 0 1 0 2 2 2 0 2 1 222 1 2 1 0 2 1498 2 10 0 1 2 1 0 1 0 2 1 1 0 0 0 2000 2 1 2 1 1 2 1461 4380 14 1 1 10 10 0 3 2 1 2002 18 2 2 2 2 2920 2 1 2 2 2 1 1500 6802 2 2 2 2 2 2 1 1 1 0 1 1 0 2 2 0 2 0 1 1 0 1 2 1 1032 0 0 0 2 1 2 1 0 0 2 1 1 0 0 0 3 1 1 0 1 1500 1 1 2 0 0 2 0 1 2 2 0 1 0 1 0 0 1 0 2 1 0 0 4381 1 1502 2 2 266 1 2 2 0 0 0 1 2 0 4435 2 2 2 4 2 1001 2 2 1 2 1 167 1 1 2 1 487 1 2 1 1 2 1372 2 1501 1 0 1500 1 2 1 1499 3099 1608 1382 2 1921 2 1 2881 0 1 0 2 1 0 1 2 1500 2 0 2 1 1 1 2 5 1 1 1 2 1 3 2 2 1500 14 1 2 4 2383 2 1 5 1 2881 1040 1 3301 2 1 2 2 13 4 1 1 3 89 5 0 1 1 1 1 1 2 1 1 0 1 2921 1 2 0 2 1 1 2 0 1 0 0 2000 2 2639 1637 0 0 1 2 1 1 0 2 2 2 1 2 2 1 1 1 2 0 1460 2 0 1 2 1 1 0 1 1 2 0 0 1 0 1 2 0 2000 1 1382 2 1 2 0 0 0 1001 0 2882 1 0 3 1 1 1 1 1 0 1 1 0 1 0 4 3 1 0 1 0 2 1 1503 731 1 1 2 2897 1 2 2 0 0 89 1 1 1 0 0 483 2 1 1 0 1 0 1 0 1 1500 3 0 0 1 922 1 2 483 2 1 1500 1 1 0 1 1 2 2 1 2 724 168 0 2 2 1 0 1 0 1242 1488 2 1 2 1 1 1511 1500 0 4 18 2 14 1 4 0 737 2 2 0 0 1 1462 0 1 1 1 1 1 1 1 1368 2 0 1 0 1 2 1998 2 960 2 115 2 0 1 0 0 1 3 2 0 4 0 1 2 124 2 18 1 2 2 1 2 1500 0 3 0 2 1 2 1746 2 1 2 1 1 1001 1 1 2 1 0 1 1513 1 0 1001 1 2000 1 17 112 2 2 0 0 16 2945 1 0 0 619 3340 1 1 2 0 1 0 0 2 1 0 16 0 2 1 2 2 0 14 2 2 0 2 2 4 1 0 1 0 1 2 2 1 0 0 0 22 0 1 1 2 12 1 2 1475 1 1 12 1501 0 1500 12 2 0 2 1 22 2 0 1 1 1 1 2 1 12 4 0 1 2 0 2 2994 2 17 1 990 1 2 4 1 2 2 1 2 2000 0 1 1 1504 1 0 1501 0 3 2 17 1 2 1382 2 1 3845 2000 41 1 0 0 0 0 2497 1382 1 1500 1999 1 0 1 1 6 2 2 0 14 2 1382 723 1 17 2 1000 0 2 1499 1 0 1 0 3 0 0 1 0 2 502 1500 2 0 2 1 8 1 2881 2 4380 1499 1 1001 1 2 1500 1 1 14 0 1 1 0 0 2 12 1 10 2 1 2 1 2 0 1 1001 1 0 13 0 2 1 1501 8 3931 2 3 1004 1 2 17 1501 1 1633 1500 2 0 1 2 2 9 0 1001 2 4384 1 2 2 2 4 1 1 1 0 12 1 11 30 0 1508 0 1 2 1 13 0 1000 1 2 1 14 0 0 1 3432 1 0 1 1 0 0 0 1 0 0 10 2 1 2881 2 1 1 1 1490 0 2 1 2 0 1 1 2 1 1 500 1 1 0 0 2 0 1 2 1 0 2880 2881 1 2 2 1 12 1505 1001 2895 1 4 2 2 1 0 1131 2 4 2 1 0 2 1 10 0 2882 4884 17 0 0 0 2 1 1 1 1 2 3476 1930 1 1 2 12 1 23 2 2010 4 2 1 2 0 1 1 7 0 2 3 0 2 0 1 1 2 1002 2 0 0 1 1 1500 0 2 0 1 1 2 4 1 3 2 0 2 0 2882 1462 1 484 1015 2 3 3 3000 2 2 8 2 8 17 2 1504 5840 6 6800 2 0 3346 961 1 4880 1001 1477 0 2 2 3844 2881 0 0 1 2 1922 1 5340 2 3350 2177 1500 1 0 2 2241 2 2 3 1 2 0 2 1500 0 0 2000 2 1 52 479 2 17 2140 1383 0 2 1 0 2882 0 1500 0 0 4380 0 2 1500 2 2 5 1 0 2 1500 2011 1 1501 3880 2898 1500 1500 2742 724 2 2000 922 1 0 1 2 1500 1511 1500 2 1 4840 0 1 1259 1 1001 2 1500 2 1 0 1 2 2880 0 1 1 2 4880 1 1 2 0 2 1500 0 2882 1 0 1 17 1001 501 1 1 0 1 1 1 1 3 17 1 2500 2 2 2 1500 2 1 1 1 2 1 0 2 1 1 2 1 1001 2 1 1121 3139 0 3 0 1 0 2 1 2 1 2 1 1 1 1 2 1 13 1010 2 0 2 14 1 2 3 1 2 13 1 1 2 1 2000 1 2381 0 2 0 1 1461 1 0 0 1 1 1001 0 0 1 2 1 3 1 0 2 1 2000 2 1 2 0 1001 1 1 1500 0 1 1500 114 2 2 0 2 2 2 2 1 0 0 0 1 1 0 1002 2 2 2 1500 1 1500 1001 2005 1 1 2881 1037 1 2 2000 2 2 1505 0 1500 1 1001 2 2 1 1001 2 1001 2206 1 2 4380 2000 2 2 2 0 1 1 0 4881 1 1 1 1 2 2 1 1 4968 0 1 2 2 1 62 0 4203 1 2 2 1 1 17 1 1 1762 3 2 1 3 1 2 3 1000 0 2 2 1501 0 1598 1 1 398 2 2 1 3382 0 17 2 1 1 1 2000 1 0 1 0 1 1 2 0 1 2 2 1 2 13 1 1 1 0 2 12 0 1500 17 2 0 2 2 0 2 0 1 17 17 1 1 1 1 0 2 0 0 1 410 1 2 1 1 1500 2 1 2 0 2 1 4371 3898 6840 1 1 3380 2862 1500 1 1 0 2 4 2 0 0 1500 2 1 2 2 2 0 2881 1 1 1 5467 1 17 14 1634 0 1 1500 1 1 1 1500 1 1999 4880 960 2881 0 2 1501 2242 1 2000 1 2499 1002 1 1 1 1 2 2 2 1 2 8 1001 1515 2 1499 2 625 2 1500 8 1 1592 1500 1001 1 1 2 2 1499 1 1 1 1010 2 2 0 2 0 0 1 1498 6841 2 1 1 2 2 3 2 2 2 1 1 1 2 2 5 1 5 1 1499 1001 1 0 1 2 0 1 0 114 0 725 1999 0 0 2 1500 960 2 2 4881 0 1001 1043 1 1002 1 1001 0 1 3 2 1 1 3 2 1499 0 0 0 930 1 1 1500 1499 3381 2 3849 2 1 2 0 1 0 2 0 1500 1 2 1 0 3841 0 1 0 1 1 2 582 0 1500 2 4 0 2 0 3380 1 0 1 17 1 0 2 1 3 1 0 2 2 0 2 1 2 1 2 3880 3 4380 5 2 4380 2 723 2 1 2 0 3 2 2 1960 2 1 2 0 2 0 2 2 2 727 1 1500 1000 1 13 0 1001 2 3421 0 0 2 1 2 14 12 1 2 21441 0 0 1 2 0 0 2 1 113 257 2 1 0 2 2 1 2381 1 1501 0 2 1 2 2001 0 0 0 1 2 2 1 0 35 1 1 2 2 1 2 0 4340 1 2 2 0 2 0 1499 2 1499 2 1 2 0 2 0 2 1 1 2 0 2 2 0 2 1 0 1382 2 1 3397 1499 2 2 1 2 0 1 1484 961 2 0 0 1 1 1 0 2 2 2 17 2 0 922 1 1741 2 2881 0 0 2000 0 1 2522 1001 0 2000 1 2 2 1500 2 2 0 1 0 1501 2 1 0 1001 1 2 2 3 1001 1 8 0 1 1872 2 1394 1 1 2 2 4379 1 2 2 1 3851 2 1 373 0 1461 2 14 156 1 2 2 0 0 17 1 2 2 1 1 0 1 1122 0 2 1 2 1001 1 502 2 3921 0 2921 1 1 0 3880 1 3921 1001 3000 1 1 4380 0 1001 2 1001 2000 2001 1 4379 0 3 1501 0 502 2 1 2 2 2 1 2 0 1501 1 375 1460 2 1 2 0 3 2 1 1 2 0 1500 1735 2 1 1 2 4380 0 2461 1 2 2 2 1 1001 1 1873 1 1500 1 1500 2 2 2 1 1500 0 2 1998 0 6300 0 2988 2 1 1 2 1 0 2 1 2 2 1500 2381 2 2 2 0 2 1501 2 1 2 2 0 2 0 483 4340 961 1 1502 2921 1 2 1 1740 1 1 1 2 1141 0 1 2 0 0 2 1 0 2 0 1 1 1 1 1 2 0 2381 1 1500 1500 2 0 1 0 2 1 1 2 1 0 0 0 1 2 2 2 2 1 1 1 461 0 1 0 2 2 1001 0 1 1 0 1 1 0 1 1 2 1 1 1 0 113 1 0 2 1 0 0 1 2 2 2 2 2 1 1 1 2 1751 0 2 1 2881 2 1 0 0 2 0 0 1 3 2 2 1001 2 3380 1499 1 1 2 1 2 0 2 3 0 1 1 2 1 2882 6 1499 1 1 1 2499 1 2 2 2 1 2 4304 1 1 2241 1502 2 2 2 0 2 2739 2 3 1335 0 2689 0 0 2 2 1001 2 890 1 1 3 1 2 2055 1003 0 0 2881 1 0 0 1 0 0 2 2 1 1 2 1 1001 0 2 1 0 0 2 1 2 2 2926 2 1 2 1 2000 1 1 1 1003 1005 0 0 2 0 1001 0 0 0 0 1001 4380 12 2 0 0 725 1 1 0 1 1 1 2 1 1 3 1 2 12 2 1 1 2004 1 2 2 1 2 0 1 3 2 1 2 1 1 0 1 1 4380 1 8 2 2 1 1 1 8 2 1 0 
