
*** ChampSim Multicore Out-of-Order Simulator ***

Warmup Instructions: 50000000
Simulation Instructions: 50000000
Number of CPUs: 1
LLC sets: 2048
LLC ways: 16
Off-chip DRAM Size: 4096 MB Channels: 1 Width: 64-bit Data Rate: 6400 MT/s
CPU 0 runs ./micro_traces/srv307.trace.gz
.gz
ITLB has LRU replacement policy
DTLB has LRU replacement policy
STLB has LRU replacement policy
FDIP Prefetcher at L1I
L1I has LRU replacement policy
L1D has LRU replacement policy
Initialize SRRIP state for L2C
Initialize DRRIP state for LLC
Heartbeat CPU 0 instructions: 10000002 cycles: 2797445 heartbeat IPC: 3.57469 cumulative IPC: 3.57469 (Simulation time: 0 hr 1 min 35 sec) 
Heartbeat CPU 0 instructions: 20000003 cycles: 5593836 heartbeat IPC: 3.57604 cumulative IPC: 3.57536 (Simulation time: 0 hr 3 min 9 sec) 
Heartbeat CPU 0 instructions: 30000003 cycles: 8391893 heartbeat IPC: 3.57391 cumulative IPC: 3.57488 (Simulation time: 0 hr 4 min 43 sec) 
Heartbeat CPU 0 instructions: 40000003 cycles: 11188932 heartbeat IPC: 3.57521 cumulative IPC: 3.57496 (Simulation time: 0 hr 6 min 17 sec) 
Heartbeat CPU 0 instructions: 50000002 cycles: 13985855 heartbeat IPC: 3.57536 cumulative IPC: 3.57504 (Simulation time: 0 hr 7 min 52 sec) 

Warmup complete CPU 0 instructions: 50000002 cycles: 13985855 (Simulation time: 0 hr 7 min 52 sec) 

Cycle: 20000000 FTQ IN: 56868568 FTQ occupancy: 18.363 DECODE IN: 56868545 DECODE occupancy: 46.9457 ROB IN: 56868513 ROB occupancy: 283.517 ROB OUT: 56868314
Heartbeat CPU 0 instructions: 60000002 cycles: 22682436 heartbeat IPC: 1.14988 cumulative IPC: 1.14988 (Simulation time: 0 hr 9 min 16 sec) 
Cycle: 30000000 FTQ IN: 11737493 FTQ occupancy: 7.41609 DECODE IN: 11737432 DECODE occupancy: 16.2778 ROB IN: 11737464 ROB occupancy: 134.289 ROB OUT: 11737492
Heartbeat CPU 0 instructions: 70000002 cycles: 31207653 heartbeat IPC: 1.17299 cumulative IPC: 1.16132 (Simulation time: 0 hr 10 min 37 sec) 
Heartbeat CPU 0 instructions: 80000000 cycles: 39859974 heartbeat IPC: 1.15576 cumulative IPC: 1.15946 (Simulation time: 0 hr 11 min 58 sec) 
Cycle: 40000000 FTQ IN: 11557145 FTQ occupancy: 7.58708 DECODE IN: 11557142 DECODE occupancy: 16.4833 ROB IN: 11557095 ROB occupancy: 132.84 ROB OUT: 11556914
Heartbeat CPU 0 instructions: 90000003 cycles: 48589289 heartbeat IPC: 1.14557 cumulative IPC: 1.15595 (Simulation time: 0 hr 13 min 21 sec) 
Cycle: 50000000 FTQ IN: 11487765 FTQ occupancy: 7.32975 DECODE IN: 11487834 DECODE occupancy: 15.9772 ROB IN: 11487881 ROB occupancy: 130.88 ROB OUT: 11488224
Heartbeat CPU 0 instructions: 100000000 cycles: 57144472 heartbeat IPC: 1.16888 cumulative IPC: 1.15852 (Simulation time: 0 hr 14 min 42 sec) 
Finished CPU 0 instructions: 50000002 cycles: 43158618 cumulative IPC: 1.15852 (Simulation time: 0 hr 14 min 42 sec) 

ChampSim completed all CPUs

Region of Interest Statistics

CPU 0 cumulative IPC: 1.15852 instructions: 50000002 cycles: 43158618
 Fetch stage stalled: 68.8296  Sim cycles: 43158618 fetch stall cycle: 29705895
 Empty decode stage: 55.8924  Sim cycles: 43158618 fetch stall cycle: 24122402
ITLB TOTAL     ACCESS:    5605061  HIT:    5112892  MISS:     492169  HIT %:    91.2192  MISS %:     8.7808   MPKI: 9.84338
ITLB LOAD TRANSLATION INSTRUCTION	ACCESS:    5494445  HIT:    5002276  MISS:     492169  HIT %:    91.0424  MISS %:    8.95757  MPKI: 9.84338
ITLB TRANSLATION FROM L1D PREFETCHER INSTRUCTION	ACCESS:     110616  HIT:     110616  MISS:          0  HIT %:        100  MISS %:          0  MPKI: 0

ITLB AVERAGE MISS LATENCY: 9.05562 cycles
ITLB RQ	ACCESS:    7485131	FORWARD:          0	MERGED:    1391180	TO_CACHE:    6093951

DTLB TOTAL     ACCESS:    9259792  HIT:    8789686  MISS:     470106  HIT %:    94.9231  MISS %:    5.07685   MPKI: 9.40212
DTLB LOAD TRANSLATION DATA	ACCESS:    9259792  HIT:    8789686  MISS:     470106  HIT %:    94.9231  MISS %:    5.07685  MPKI: 9.40212

DTLB AVERAGE MISS LATENCY: 9.3365 cycles
DTLB RQ	ACCESS:   13547604	FORWARD:          0	MERGED:    4252841	TO_CACHE:    9294763

STLB TOTAL     ACCESS:    1215626  HIT:    1213533  MISS:       2093  HIT %:    99.8278  MISS %:   0.172175   MPKI: 0.04186
STLB LOAD TRANSLATION INSTRUCTION	ACCESS:     492168  HIT:     491899  MISS:        269  HIT %:    99.9453  MISS %:  0.0546561  MPKI: 0.00538
STLB LOAD TRANSLATION DATA	ACCESS:     470034  HIT:     468232  MISS:       1802  HIT %:    99.6166  MISS %:   0.383377  MPKI: 0.03604
STLB TRANSLATION FROM L1D PREFETCHER DATA	ACCESS:     253424  HIT:     253402  MISS:         22  HIT %:    99.9913  MISS %:  0.0086811  MPKI: 0.00044

STLB AVERAGE MISS LATENCY: 77.5901 cycles
STLB RQ	ACCESS:    1336525	FORWARD:          0	MERGED:     120854	TO_CACHE:    1215671

STLB Hit, L1D data hit: 0
STLB Hit, L2C data hit: 0
STLB Hit, LLC data hit: 0
STLB Hit, LLC data miss: 0
STLB STLB hints to L2: 0
L1D TOTAL     ACCESS:   13315669  HIT:   12202736  MISS:    1112933  HIT %:    91.6419  MISS %:    8.35807   MPKI: 22.2587
L1D LOAD DATA	ACCESS:    6747258  HIT:    6014655  MISS:     732603  HIT %:    89.1422  MISS %:    10.8578  MPKI: 14.6521
L1D RFO DATA	ACCESS:    6235089  HIT:    5948954  MISS:     286135  HIT %:    95.4109  MISS %:    4.58911  MPKI: 5.7227
L1D PREFETCH DATA	ACCESS:     333322  HIT:     239127  MISS:      94195  HIT %:    71.7405  MISS %:    28.2595  MPKI: 1.8839

L1D PREFETCH  REQUESTED:     748768  ISSUED:     748768  USEFUL:      34090  USELESS:      67999
L1D USEFUL LOAD PREFETCHES:      34090 PREFETCH ISSUED TO LOWER LEVEL:     102191  ACCURACY: 33.3591
 TIMELY PREFETCHES:      34090 LATE PREFETCHES: 7925 DROPPED PREFETCHES: 10
L1D AVERAGE MISS LATENCY: 246499 cycles
L1D RQ	ACCESS:   10847516	FORWARD:          0	MERGED:    3902377	TO_CACHE:    6780954
L1D WQ	ACCESS:    6943592	FORWARD:     164451	MERGED:     176942	TO_CACHE:    6766650
L1D PQ	ACCESS:     374517	FORWARD:          0	MERGED:          0	TO_CACHE:     374251

L1D UNIQUE REGIONS ACCESSED: 0
L1D REGIONS CONFLICTS: 0
L1D Cross Page Prefetch Requests: 6942
L1D Same Page Prefetch Requests: 755441
L1D ROI Sum of L1D PQ occupancy: 4757632
L1D PREFETCHES PUSHED FROM L2C: 0
L1I TOTAL     ACCESS:    6921485  HIT:    4167043  MISS:    2754442  HIT %:    60.2045  MISS %:    39.7955   MPKI: 55.0888
L1I LOAD INSTRUCTION	ACCESS:    6408795  HIT:    3654353  MISS:    2754442  HIT %:    57.0209  MISS %:    42.9791  MPKI: 55.0888
L1I PREFETCH INSTRUCTION	ACCESS:     512690  HIT:     512690  MISS:          0  HIT %:        100  MISS %:          0  MPKI: 0

L1I PREFETCH  REQUESTED:    1177583  ISSUED:    1177583  USEFUL:          0  USELESS:          0
L1I USEFUL LOAD PREFETCHES:          0 PREFETCH ISSUED TO LOWER LEVEL:          0  ACCURACY: -nan
 TIMELY PREFETCHES:          0 LATE PREFETCHES: 0 DROPPED PREFETCHES: 0
L1I AVERAGE MISS LATENCY: 17.3357 cycles
L1I RQ	ACCESS:    9463529	FORWARD:          0	MERGED:    2822782	TO_CACHE:    6640747
L1I PQ	ACCESS:    1177583	FORWARD:          0	MERGED:     333199	TO_CACHE:     844384

L1BTB TOTAL     ACCESS:    5670148  HIT:    2051514  MISS:    3618634  HIT %:     36.181  MISS %:     63.819   MPKI: 72.3727
L1BTB BRANCH_DIRECT_JUMP	ACCESS:     548686  HIT:     145654  MISS:     403032	AVERAGE STALL: 36.8281
L1BTB BRANCH_INDIRECT	ACCESS:     183413  HIT:      66313  MISS:     117100	AVERAGE STALL: 106.836
L1BTB BRANCH_CONDITIONAL	ACCESS:    2714066  HIT:    1424792  MISS:    1289274	AVERAGE STALL: 39.3755
L1BTB BRANCH_DIRECT_CALL	ACCESS:     941307  HIT:     104656  MISS:     836651	AVERAGE STALL: 39.9316
L1BTB BRANCH_INDIRECT_CALL	ACCESS:     170683  HIT:      20678  MISS:     150005	AVERAGE STALL: 116.083
L1BTB BRANCH_RETURN	ACCESS:    1111993  HIT:     289421  MISS:     822572	AVERAGE STALL: 39.2741
L1BTB BRANCH_OTHER ACCESS:          0  HIT:          0  MISS:          0	AVERAGE STALL: -nan
L1BTB TOTAL ROB OCCUPANCY AT BTB MISS: 12.1221

L2BTB1 TOTAL     ACCESS:    3593127  HIT:    3185061  MISS:     408066  HIT %:    88.6432  MISS %:    11.3568   MPKI: 8.16132
L2BTB1 BRANCH_DIRECT_JUMP	ACCESS:     398809  HIT:     362356  MISS:      36453	AVERAGE STALL: 36.8281
L2BTB1 BRANCH_INDIRECT	ACCESS:     106810  HIT:      84618  MISS:      22192	AVERAGE STALL: 106.836
L2BTB1 BRANCH_CONDITIONAL	ACCESS:    1289274  HIT:    1179566  MISS:     109708	AVERAGE STALL: 39.3755
L2BTB1 BRANCH_DIRECT_CALL	ACCESS:     836651  HIT:     721662  MISS:     114989	AVERAGE STALL: 39.9316
L2BTB1 BRANCH_INDIRECT_CALL	ACCESS:     140405  HIT:     115782  MISS:      24623	AVERAGE STALL: 116.083
L2BTB1 BRANCH_RETURN	ACCESS:     821178  HIT:     721077  MISS:     100101	AVERAGE STALL: 39.2741
L2BTB1 BRANCH_OTHER ACCESS:          0  HIT:          0  MISS:          0	AVERAGE STALL: -nan
L2BTB1 TOTAL ROB OCCUPANCY AT BTB MISS: 107.496

L2C TOTAL     ACCESS:    4486133  HIT:    3973487  MISS:     512646  HIT %:    88.5727  MISS %:    11.4273   MPKI: 10.2529
L2C LOAD INSTRUCTION	ACCESS:    2754442  HIT:    2490111  MISS:     264331  HIT %:    90.4035  MISS %:    9.59654  MPKI: 5.28662
L2C LOAD TRANSLATION INSTRUCTION	ACCESS:        307  HIT:         67  MISS:        240  HIT %:    21.8241  MISS %:    78.1759  MPKI: 0.0048
L2C LOAD DATA	ACCESS:     724665  HIT:     634160  MISS:      90505  HIT %:    87.5108  MISS %:    12.4892  MPKI: 1.8101
L2C RFO DATA	ACCESS:     286036  HIT:     228527  MISS:      57509  HIT %:    79.8945  MISS %:    20.1055  MPKI: 1.15018
L2C PREFETCH DATA	ACCESS:     198912  HIT:     118947  MISS:      79965  HIT %:    59.7988  MISS %:    40.2012  MPKI: 1.5993
L2C WRITEBACK DATA	ACCESS:     519853  HIT:     501133  MISS:      18720  HIT %:     96.399  MISS %:    3.60102  MPKI: 0.3744
L2C LOAD TRANSLATION DATA	ACCESS:       1869  HIT:        509  MISS:       1360  HIT %:    27.2338  MISS %:    72.7662  MPKI: 0.0272
L2C TRANSLATION FROM L1D PREFETCHER DATA	ACCESS:         49  HIT:         33  MISS:         16  HIT %:    67.3469  MISS %:    32.6531  MPKI: 0.00032

L2C PREFETCH  REQUESTED:     105296  ISSUED:     105296  USEFUL:       9364  USELESS:      71355
L2C USEFUL LOAD PREFETCHES:       9364 PREFETCH ISSUED TO LOWER LEVEL:      80578  ACCURACY: 11.621
 TIMELY PREFETCHES:       9364 LATE PREFETCHES: 613 DROPPED PREFETCHES: 0
L2C AVERAGE MISS LATENCY: 37.977 cycles
L2C RQ	ACCESS:    3767410	FORWARD:          0	MERGED:          0	TO_CACHE:    3767369
L2C WQ	ACCESS:     519853	FORWARD:         41	MERGED:          0	TO_CACHE:     519853
L2C PQ	ACCESS:     207487	FORWARD:          0	MERGED:       3611	TO_CACHE:     203876

L2C Dense regions hint from L2: 0
PSCL5 TOTAL     ACCESS:       4208  HIT:       2104  MISS:       2104  HIT %:         50  MISS %:         50   MPKI: 0.04208
PSCL5 LOAD TRANSLATION INSTRUCTION	ACCESS:       4112  HIT:       2056  MISS:       2056  HIT %:         50  MISS %:         50  MPKI: 0.04112
PSCL5 TRANSLATION FROM L1D PREFETCHER INSTRUCTION	ACCESS:         96  HIT:         48  MISS:         48  HIT %:         50  MISS %:         50  MPKI: 0.00096


PSCL4 TOTAL     ACCESS:       3975  HIT:       1983  MISS:       1992  HIT %:    49.8868  MISS %:    50.1132   MPKI: 0.03984
PSCL4 LOAD TRANSLATION INSTRUCTION	ACCESS:       3570  HIT:       1942  MISS:       1628  HIT %:    54.3978  MISS %:    45.6022  MPKI: 0.03256
PSCL4 TRANSLATION FROM L1D PREFETCHER INSTRUCTION	ACCESS:         81  HIT:         41  MISS:         40  HIT %:    50.6173  MISS %:    49.3827  MPKI: 0.0008
PSCL4 LOAD TRANSLATION DATA	ACCESS:        323  HIT:          0  MISS:        323  HIT %:          0  MISS %:        100  MPKI: 0.00646
PSCL4 TRANSLATION FROM L1D PREFETCHER DATA	ACCESS:          1  HIT:          0  MISS:          1  HIT %:          0  MISS %:        100  MPKI: 2e-05


PSCL3 TOTAL     ACCESS:       4037  HIT:       2014  MISS:       2023  HIT %:    49.8885  MISS %:    50.1115   MPKI: 0.04046
PSCL3 LOAD TRANSLATION INSTRUCTION	ACCESS:       3601  HIT:       1973  MISS:       1628  HIT %:    54.7903  MISS %:    45.2097  MPKI: 0.03256
PSCL3 TRANSLATION FROM L1D PREFETCHER INSTRUCTION	ACCESS:         81  HIT:         41  MISS:         40  HIT %:    50.6173  MISS %:    49.3827  MPKI: 0.0008
PSCL3 LOAD TRANSLATION DATA	ACCESS:        354  HIT:          0  MISS:        354  HIT %:          0  MISS %:        100  MPKI: 0.00708
PSCL3 TRANSLATION FROM L1D PREFETCHER DATA	ACCESS:          1  HIT:          0  MISS:          1  HIT %:          0  MISS %:        100  MPKI: 2e-05


PSCL2 TOTAL     ACCESS:       4100  HIT:       1997  MISS:       2103  HIT %:    48.7073  MISS %:    51.2927   MPKI: 0.04206
PSCL2 LOAD TRANSLATION INSTRUCTION	ACCESS:       2227  HIT:       1950  MISS:        277  HIT %:    87.5617  MISS %:    12.4383  MPKI: 0.00554
PSCL2 TRANSLATION FROM L1D PREFETCHER INSTRUCTION	ACCESS:         47  HIT:         47  MISS:          0  HIT %:        100  MISS %:          0  MPKI: 0
PSCL2 LOAD TRANSLATION DATA	ACCESS:       1779  HIT:          0  MISS:       1779  HIT %:          0  MISS %:        100  MPKI: 0.03558
PSCL2 TRANSLATION FROM L1D PREFETCHER DATA	ACCESS:         47  HIT:          0  MISS:         47  HIT %:          0  MISS %:        100  MPKI: 0.00094


LLC TOTAL     ACCESS:     579297  HIT:     549667  MISS:      29630  HIT %:    94.8852  MISS %:    5.11482   MPKI: 0.5926
LLC LOAD INSTRUCTION	ACCESS:     264331  HIT:     263042  MISS:       1289  HIT %:    99.5124  MISS %:   0.487646  MPKI: 0.02578
LLC LOAD TRANSLATION INSTRUCTION	ACCESS:        240  HIT:        198  MISS:         42  HIT %:       82.5  MISS %:       17.5  MPKI: 0.00084
LLC LOAD DATA	ACCESS:      89914  HIT:      86269  MISS:       3645  HIT %:    95.9461  MISS %:    4.05387  MPKI: 0.0729
LLC RFO DATA	ACCESS:      57486  HIT:      43354  MISS:      14132  HIT %:    75.4166  MISS %:    24.5834  MPKI: 0.28264
LLC PREFETCH DATA	ACCESS:      80578  HIT:      70553  MISS:      10025  HIT %:    87.5586  MISS %:    12.4414  MPKI: 0.2005
LLC WRITEBACK DATA	ACCESS:      85372  HIT:      84989  MISS:        383  HIT %:    99.5514  MISS %:   0.448625  MPKI: 0.00766
LLC LOAD TRANSLATION DATA	ACCESS:       1360  HIT:       1249  MISS:        111  HIT %:    91.8382  MISS %:    8.16176  MPKI: 0.00222
LLC TRANSLATION FROM L1D PREFETCHER DATA	ACCESS:         16  HIT:         13  MISS:          3  HIT %:      81.25  MISS %:      18.75  MPKI: 6e-05

LLC AVERAGE MISS LATENCY: 155.627 cycles
LLC RQ	ACCESS:     413348	FORWARD:          0	MERGED:          0	TO_CACHE:     413347
LLC WQ	ACCESS:      85372	FORWARD:          1	MERGED:          0	TO_CACHE:      85372
LLC PQ	ACCESS:      80578	FORWARD:          0	MERGED:          0	TO_CACHE:      80578

LLC Dense regions hint to LLC: 0

RAW hits: 1789891
Loads Generated: 12637409
Loads sent to L1D: 10847516
Stores Generated: 6943578
Stores sent to L1D: 6943592
Major fault: 0 Minor fault: 2597
Allocated PAGES: 2597

stream: 
stream:times selected: 1192694
stream:pref_filled: 121060
stream:pref_useful: 24027
stream:pref_late: 6958
stream:misses: 8063
stream:misses_by_poll: 0

CS: 
CS:times selected: 179840
CS:pref_filled: 59056
CS:pref_useful: 35541
CS:pref_late: 6808
CS:misses: 16275
CS:misses_by_poll: 3

CPLX: 
CPLX:times selected: 1011745
CPLX:pref_filled: 19720
CPLX:pref_useful: 4698
CPLX:pref_late: 2981
CPLX:misses: 92793
CPLX:misses_by_poll: 0

NL_L1: 
NL:times selected: 20625
NL:pref_filled: 700
NL:pref_useful: 308
NL:pref_late: 290
NL:misses: 1802
NL:misses_by_poll: 0

total selections: 2404904
total_filled: 94195
total_useful: 34090
total_late: 18430
total_polluted: 3
total_misses_after_warmup: 766303
conflicts: 5609209

test: 116939

DRAM Statistics
 CHANNEL 0
 RQ ROW_BUFFER_HIT:      10712  ROW_BUFFER_MISS:      18528
 DBUS_CONGESTED:         11
 WQ ROW_BUFFER_HIT:       1640  ROW_BUFFER_MISS:      12520  FULL:          0

 AVG_CONGESTED_CYCLE: 5

CPU 0 Branch Prediction Accuracy: 99.8062% MPKI: 0.3542 Average ROB Occupancy at Mispredict: 143.624
Branch types
NOT_BRANCH: 40859324 81.7186%
BRANCH_DIRECT_JUMP: 548686 1.09737%
BRANCH_INDIRECT: 183413 0.366826%
BRANCH_CONDITIONAL: 6184274 12.3685%
BRANCH_DIRECT_CALL: 941307 1.88261%
BRANCH_INDIRECT_CALL: 170683 0.341366%
BRANCH_RETURN: 1111993 2.22399%
BRANCH_OTHER: 0 0%

DRAM PAGES: 1048576
Allocated PAGES: 2597
Average_ROB_Occupancy: 133.486
Average_Decode_Occupancy: 16.2593
Average_FTQ_Occupancy: 7.4508
Indirect max targets: 14 Average targets: 1.17949
Branch_type:  BRANCH_DIRECT_JUMP:  Count Percentage: 2.13512 6.66012 4.42913 9.17953 2.23363 11.106 1.30623 62.9502 
Branch_type:  BRANCH_INDIRECT:  Count Percentage: 11.7665 3.41891 2.57045 0 1.33488 25.0078 2.26981 53.6317 
Branch_type:  BRANCH_CONDITIONAL:  Count Percentage: 25.0652 2.69424 1.66544 5.18489 1.34856 8.30766 0.679901 55.0541 
Branch_type:  BRANCH_DIRECT_CALL:  Count Percentage: 0.260657 1.74958 1.29739 4.60523 1.91304 2.83298 0.860963 86.4802 
Branch_type:  BRANCH_INDIRECT_CALL:  Count Percentage: 9.56943 0 2.99878 8.7333 0 2.55105 1.29145 74.856 
Branch_type:  BRANCH_RETURN:  Count Percentage: 7.69753 1.36257 1.17108 5.98157 3.19112 9.15944 1.70725 69.7294 
Branch_type:  BRANCH_DIRECT_JUMP:  Total Count: 23407 73014 48556 100634 24487 121754 14320 690115 
Branch_type:  BRANCH_INDIRECT:  Total Count: 43130 12532 9422 0 4893 91666 8320 196587 
Branch_type:  BRANCH_CONDITIONAL:  Total Count: 3098439 333048 205874 640930 166702 1026951 84046 6805512 
Branch_type:  BRANCH_DIRECT_CALL:  Total Count: 4910 32957 24439 86749 36036 53365 16218 1629031 
Branch_type:  BRANCH_INDIRECT_CALL:  Total Count: 32744 0 10261 29883 0 8729 4419 256137 
Branch_type:  BRANCH_RETURN:  Total Count: 171404 30341 26077 133194 71058 203957 38016 1552693 
Number of unique branch instructions: 10693
Upper 32 bits: 
aaaa
ffff
ffff0000
Unique upper 32 bits: 3
Unique upper 36 bits: 3
Unique upper 40 bits: 5
Unique upper 44 bits: 32
Unique upper 48 bits: 157
Offset_3 4443
Offset_4 257
Offset_5 476
Offset_6 538
Offset_7 636
Offset_8 580
Offset_9 513
Offset_10 417
Offset_11 348
Offset_12 321
Offset_13 236
Offset_14 247
Offset_15 199
Offset_16 227
Offset_17 163
Offset_18 152
Offset_19 257
Offset_20 144
Offset_21 235
Offset_22 408
Offset_23 241
Offset_24 342
Offset_25 117
Offset_47 92
decode_dispatch_called: 20180718 46.7594
Dispatch_width: 0 10023563 49.669 23.2249
Dispatch_width: 1 543179 2.69157 1.25856
Dispatch_width: 2 683588 3.38733 1.5839
Dispatch_width: 3 425842 2.11014 0.986691
Dispatch_width: 4 1962993 9.72707 4.54832
Dispatch_width: 5 289377 1.43393 0.670496
Dispatch_width: 6 6252176 30.9809 14.4865
Empty_decode_cycles: 22977900 53.2406
ROB_full_cycles: 2811937 6.51535
Starvation_cycles_per_kilo_instr: 340.945
Starvation_cycles_per_kilo_instr_3: 318.421
Starvation_cycles_per_kilo_instr_0: 301.895
Branch_type_1  (3,1)  (4,7)  (5,38)  (6,74)  (7,125)  (8,148)  (9,135)  (10,110)  (11,77)  (12,55)  (13,11)  (14,2)  (15,3)  (16,4)  (18,1)  (19,5)  (20,2)  (21,1)  (22,3)  (23,2)  (24,10)  (25,12) 
Branch_type_2  (3,1)  (4,1)  (5,1)  (8,4)  (9,4)  (10,1)  (12,1)  (13,1)  (14,1)  (16,3)  (17,2)  (20,2)  (21,2)  (23,5)  (24,1)  (47,41) 
Branch_type_3  (3,4441)  (4,249)  (5,433)  (6,447)  (7,480)  (8,362)  (9,281)  (10,167)  (11,135)  (12,62)  (13,10) 
Branch_type_4  (6,4)  (7,8)  (8,26)  (9,55)  (10,66)  (11,70)  (12,113)  (13,100)  (14,111)  (15,95)  (16,100)  (17,75)  (18,65)  (19,124)  (20,73)  (21,124)  (22,214)  (23,136)  (24,198)  (25,101) 
Branch_type_5  (8,3)  (9,1)  (10,4)  (11,5)  (12,3)  (13,14)  (14,16)  (15,11)  (16,22)  (17,11)  (18,23)  (19,14)  (20,11)  (21,13)  (22,43)  (23,26)  (24,37) 
Branch_type_6  (5,4)  (6,13)  (7,23)  (8,37)  (9,37)  (10,69)  (11,61)  (12,87)  (13,100)  (14,117)  (15,90)  (16,98)  (17,75)  (18,63)  (19,114)  (20,56)  (21,95)  (22,148)  (23,72)  (24,96)  (25,4)  (47,51) 
Unique trigger count: 
L2BTB1 768 4
L2BTB2 768 4
L2BTB3 768 4
L2BTB4 112 4
