
*** ChampSim Multicore Out-of-Order Simulator ***

Warmup Instructions: 50000000
Simulation Instructions: 50000000
Number of CPUs: 1
LLC sets: 2048
LLC ways: 16
Off-chip DRAM Size: 4096 MB Channels: 1 Width: 64-bit Data Rate: 6400 MT/s
CPU 0 runs ./micro_traces/srv38.trace.gz
.gz
ITLB has LRU replacement policy
DTLB has LRU replacement policy
STLB has LRU replacement policy
FDIP Prefetcher at L1I
L1I has LRU replacement policy
L1D has LRU replacement policy
Initialize SRRIP state for L2C
Initialize DRRIP state for LLC
Heartbeat_Variant_0 : 1200 0.292969 per_variant_size: 0 1200 0 0 0 0 0 0 0 
Heartbeat_Variant_1 : 1179 0.287842 per_variant_size: 0 495 684 0 0 0 0 0 0 
Heartbeat_Variant_2 : 1017 0.248291 per_variant_size: 0 274 283 251 209 0 0 0 0 
Heartbeat_Variant_3 : 0 0 per_variant_size: 0 0 0 0 0 0 0 0 0 
Heartbeat_Variant_0_evicts 0 : 18286 1 : 7515 2 : 6919 3 : 0 
Heartbeat_Variant_1_evicts 0 : 7494 1 : 0 2 : 4522 3 : 0 
Heartbeat_Variant_2_evicts 0 : 6881 1 : 4334 2 : 0 3 : 0 
Heartbeat_Variant_3_evicts 0 : 0 1 : 0 2 : 0 3 : 0 
Heartbeat CPU 0 instructions: 10000000 cycles: 2796185 heartbeat IPC: 3.5763 cumulative IPC: 3.5763 (Simulation time: 0 hr 2 min 12 sec) 
Heartbeat_Variant_0 : 1209 0.295166 per_variant_size: 0 1209 0 0 0 0 0 0 0 
Heartbeat_Variant_1 : 1196 0.291992 per_variant_size: 0 487 709 0 0 0 0 0 0 
Heartbeat_Variant_2 : 1021 0.249268 per_variant_size: 0 267 289 238 227 0 0 0 0 
Heartbeat_Variant_3 : 0 0 per_variant_size: 0 0 0 0 0 0 0 0 0 
Heartbeat_Variant_0_evicts 0 : 18213 1 : 7461 2 : 6822 3 : 0 
Heartbeat_Variant_1_evicts 0 : 7442 1 : 0 2 : 4565 3 : 0 
Heartbeat_Variant_2_evicts 0 : 6839 1 : 4541 2 : 0 3 : 0 
Heartbeat_Variant_3_evicts 0 : 0 1 : 0 2 : 0 3 : 0 
Heartbeat CPU 0 instructions: 20000002 cycles: 5590072 heartbeat IPC: 3.57924 cumulative IPC: 3.57777 (Simulation time: 0 hr 4 min 12 sec) 
Heartbeat_Variant_0 : 1221 0.298096 per_variant_size: 0 1221 0 0 0 0 0 0 0 
Heartbeat_Variant_1 : 1207 0.294678 per_variant_size: 0 482 725 0 0 0 0 0 0 
Heartbeat_Variant_2 : 1030 0.251465 per_variant_size: 0 278 280 237 235 0 0 0 0 
Heartbeat_Variant_3 : 0 0 per_variant_size: 0 0 0 0 0 0 0 0 0 
Heartbeat_Variant_0_evicts 0 : 18225 1 : 7464 2 : 6949 3 : 0 
Heartbeat_Variant_1_evicts 0 : 7461 1 : 0 2 : 4478 3 : 0 
Heartbeat_Variant_2_evicts 0 : 6949 1 : 4474 2 : 0 3 : 0 
Heartbeat_Variant_3_evicts 0 : 0 1 : 0 2 : 0 3 : 0 
Heartbeat CPU 0 instructions: 30000003 cycles: 8385510 heartbeat IPC: 3.57726 cumulative IPC: 3.5776 (Simulation time: 0 hr 6 min 17 sec) 
Heartbeat_Variant_0 : 1229 0.300049 per_variant_size: 0 1229 0 0 0 0 0 0 0 
Heartbeat_Variant_1 : 1214 0.296387 per_variant_size: 0 484 730 0 0 0 0 0 0 
Heartbeat_Variant_2 : 1024 0.25 per_variant_size: 0 266 280 245 233 0 0 0 0 
Heartbeat_Variant_3 : 0 0 per_variant_size: 0 0 0 0 0 0 0 0 0 
Heartbeat_Variant_0_evicts 0 : 18277 1 : 7386 2 : 6972 3 : 0 
Heartbeat_Variant_1_evicts 0 : 7252 1 : 0 2 : 4447 3 : 0 
Heartbeat_Variant_2_evicts 0 : 7098 1 : 4314 2 : 0 3 : 0 
Heartbeat_Variant_3_evicts 0 : 0 1 : 0 2 : 0 3 : 0 
Heartbeat CPU 0 instructions: 40000000 cycles: 11180445 heartbeat IPC: 3.5779 cumulative IPC: 3.57768 (Simulation time: 0 hr 8 min 19 sec) 
Heartbeat_Variant_0 : 1233 0.301025 per_variant_size: 0 1233 0 0 0 0 0 0 0 
Heartbeat_Variant_1 : 1229 0.300049 per_variant_size: 0 473 756 0 0 0 0 0 0 
Heartbeat_Variant_2 : 1029 0.251221 per_variant_size: 0 260 280 250 239 0 0 0 0 
Heartbeat_Variant_3 : 0 0 per_variant_size: 0 0 0 0 0 0 0 0 0 
Heartbeat_Variant_0_evicts 0 : 18564 1 : 7503 2 : 7112 3 : 0 
Heartbeat_Variant_1_evicts 0 : 7376 1 : 0 2 : 4506 3 : 0 
Heartbeat_Variant_2_evicts 0 : 7241 1 : 4372 2 : 0 3 : 0 
Heartbeat_Variant_3_evicts 0 : 0 1 : 0 2 : 0 3 : 0 
Heartbeat CPU 0 instructions: 50000001 cycles: 13975294 heartbeat IPC: 3.57801 cumulative IPC: 3.57774 (Simulation time: 0 hr 10 min 16 sec) 

Warmup complete CPU 0 instructions: 50000001 cycles: 13975294 (Simulation time: 0 hr 10 min 16 sec) 

*** Reached end of trace for Core: 0 Repeating trace: ./micro_traces/srv38.trace.gz
Cycle: 20000000 FTQ IN: 56607149 FTQ occupancy: 18.1486 DECODE IN: 56607116 DECODE occupancy: 46.3525 ROB IN: 56607116 ROB occupancy: 279.718 ROB OUT: 56606827
Heartbeat_Variant_0 : 1241 0.302979 per_variant_size: 0 1241 0 0 0 0 0 0 0 
Heartbeat_Variant_1 : 1221 0.298096 per_variant_size: 0 468 753 0 0 0 0 0 0 
Heartbeat_Variant_2 : 1031 0.251709 per_variant_size: 0 259 279 257 236 0 0 0 0 
Heartbeat_Variant_3 : 0 0 per_variant_size: 0 0 0 0 0 0 0 0 0 
Heartbeat_Variant_0_evicts 0 : 18425 1 : 7387 2 : 7091 3 : 0 
Heartbeat_Variant_1_evicts 0 : 7325 1 : 0 2 : 4359 3 : 0 
Heartbeat_Variant_2_evicts 0 : 7145 1 : 4306 2 : 0 3 : 0 
Heartbeat_Variant_3_evicts 0 : 0 1 : 0 2 : 0 3 : 0 
Heartbeat CPU 0 instructions: 60000003 cycles: 23033703 heartbeat IPC: 1.10395 cumulative IPC: 1.10395 (Simulation time: 0 hr 12 min 7 sec) 
Cycle: 30000000 FTQ IN: 11088556 FTQ occupancy: 6.70457 DECODE IN: 11088541 DECODE occupancy: 14.1259 ROB IN: 11088481 ROB occupancy: 117.216 ROB OUT: 11088650
Heartbeat_Variant_0 : 1230 0.300293 per_variant_size: 0 1230 0 0 0 0 0 0 0 
Heartbeat_Variant_1 : 1230 0.300293 per_variant_size: 0 493 737 0 0 0 0 0 0 
Heartbeat_Variant_2 : 1035 0.252686 per_variant_size: 0 265 270 262 238 0 0 0 0 
Heartbeat_Variant_3 : 0 0 per_variant_size: 0 0 0 0 0 0 0 0 0 
Heartbeat_Variant_0_evicts 0 : 18178 1 : 7310 2 : 7056 3 : 0 
Heartbeat_Variant_1_evicts 0 : 7235 1 : 0 2 : 4337 3 : 0 
Heartbeat_Variant_2_evicts 0 : 7142 1 : 4253 2 : 0 3 : 0 
Heartbeat_Variant_3_evicts 0 : 0 1 : 0 2 : 0 3 : 0 
Heartbeat CPU 0 instructions: 70000002 cycles: 32055388 heartbeat IPC: 1.10844 cumulative IPC: 1.10619 (Simulation time: 0 hr 13 min 56 sec) 
Cycle: 40000000 FTQ IN: 11271447 FTQ occupancy: 6.63046 DECODE IN: 11271459 DECODE occupancy: 14.157 ROB IN: 11271519 ROB occupancy: 119.686 ROB OUT: 11271574
Heartbeat_Variant_0 : 1225 0.299072 per_variant_size: 0 1225 0 0 0 0 0 0 0 
Heartbeat_Variant_1 : 1241 0.302979 per_variant_size: 0 503 738 0 0 0 0 0 0 
Heartbeat_Variant_2 : 1029 0.251221 per_variant_size: 0 250 279 263 237 0 0 0 0 
Heartbeat_Variant_3 : 0 0 per_variant_size: 0 0 0 0 0 0 0 0 0 
Heartbeat_Variant_0_evicts 0 : 17970 1 : 7180 2 : 6933 3 : 0 
Heartbeat_Variant_1_evicts 0 : 7113 1 : 0 2 : 4252 3 : 0 
Heartbeat_Variant_2_evicts 0 : 7005 1 : 4174 2 : 0 3 : 0 
Heartbeat_Variant_3_evicts 0 : 0 1 : 0 2 : 0 3 : 0 
Heartbeat CPU 0 instructions: 80000002 cycles: 40910259 heartbeat IPC: 1.12932 cumulative IPC: 1.11379 (Simulation time: 0 hr 15 min 38 sec) 
Heartbeat_Variant_0 : 1254 0.306152 per_variant_size: 0 1254 0 0 0 0 0 0 0 
Heartbeat_Variant_1 : 1215 0.296631 per_variant_size: 0 484 731 0 0 0 0 0 0 
Heartbeat_Variant_2 : 1026 0.250488 per_variant_size: 0 256 276 259 235 0 0 0 0 
Heartbeat_Variant_3 : 0 0 per_variant_size: 0 0 0 0 0 0 0 0 0 
Heartbeat_Variant_0_evicts 0 : 18293 1 : 7363 2 : 7152 3 : 0 
Heartbeat_Variant_1_evicts 0 : 7327 1 : 0 2 : 4242 3 : 0 
Heartbeat_Variant_2_evicts 0 : 7159 1 : 4232 2 : 0 3 : 0 
Heartbeat_Variant_3_evicts 0 : 0 1 : 0 2 : 0 3 : 0 
Heartbeat CPU 0 instructions: 90000003 cycles: 49900087 heartbeat IPC: 1.11237 cumulative IPC: 1.11344 (Simulation time: 0 hr 17 min 34 sec) 
Cycle: 50000000 FTQ IN: 11141846 FTQ occupancy: 6.78513 DECODE IN: 11141868 DECODE occupancy: 14.4077 ROB IN: 11141868 ROB occupancy: 119.227 ROB OUT: 11141927
Heartbeat_Variant_0 : 1227 0.299561 per_variant_size: 0 1227 0 0 0 0 0 0 0 
Heartbeat_Variant_1 : 1242 0.303223 per_variant_size: 0 507 735 0 0 0 0 0 0 
Heartbeat_Variant_2 : 1026 0.250488 per_variant_size: 0 255 269 262 240 0 0 0 0 
Heartbeat_Variant_3 : 0 0 per_variant_size: 0 0 0 0 0 0 0 0 0 
Heartbeat_Variant_0_evicts 0 : 18110 1 : 7252 2 : 7016 3 : 0 
Heartbeat_Variant_1_evicts 0 : 7199 1 : 0 2 : 4246 3 : 0 
Heartbeat_Variant_2_evicts 0 : 7096 1 : 4166 2 : 0 3 : 0 
Heartbeat_Variant_3_evicts 0 : 0 1 : 0 2 : 0 3 : 0 
Heartbeat CPU 0 instructions: 100000003 cycles: 58742341 heartbeat IPC: 1.13093 cumulative IPC: 1.11689 (Simulation time: 0 hr 19 min 53 sec) 
Finished CPU 0 instructions: 50000002 cycles: 44767047 cumulative IPC: 1.11689 (Simulation time: 0 hr 19 min 53 sec) 

ChampSim completed all CPUs

Region of Interest Statistics

CPU 0 cumulative IPC: 1.11689 instructions: 50000002 cycles: 44767047
 Fetch stage stalled: 70.8345  Sim cycles: 44767047 fetch stall cycle: 31710499
 Empty decode stage: 63.5444  Sim cycles: 44767047 fetch stall cycle: 28446934
ITLB TOTAL     ACCESS:    5778660  HIT:    5288450  MISS:     490210  HIT %:    91.5169  MISS %:    8.48311   MPKI: 9.8042
ITLB LOAD TRANSLATION INSTRUCTION	ACCESS:    5676236  HIT:    5186026  MISS:     490210  HIT %:    91.3638  MISS %:    8.63618  MPKI: 9.8042
ITLB TRANSLATION FROM L1D PREFETCHER INSTRUCTION	ACCESS:     102424  HIT:     102424  MISS:          0  HIT %:        100  MISS %:          0  MPKI: 0

ITLB AVERAGE MISS LATENCY: 9.06327 cycles
ITLB RQ	ACCESS:    7595136	FORWARD:          0	MERGED:    1386508	TO_CACHE:    6208628

DTLB TOTAL     ACCESS:    9301888  HIT:    8825972  MISS:     475916  HIT %:    94.8837  MISS %:    5.11634   MPKI: 9.51832
DTLB LOAD TRANSLATION DATA	ACCESS:    9301888  HIT:    8825972  MISS:     475916  HIT %:    94.8837  MISS %:    5.11634  MPKI: 9.51832

DTLB AVERAGE MISS LATENCY: 9.3066 cycles
DTLB RQ	ACCESS:   13576327	FORWARD:          0	MERGED:    4239386	TO_CACHE:    9336941

STLB TOTAL     ACCESS:    1222046  HIT:    1219537  MISS:       2509  HIT %:    99.7947  MISS %:   0.205311   MPKI: 0.05018
STLB LOAD TRANSLATION INSTRUCTION	ACCESS:     490210  HIT:     489863  MISS:        347  HIT %:    99.9292  MISS %:   0.070786  MPKI: 0.00694
STLB LOAD TRANSLATION DATA	ACCESS:     475598  HIT:     473485  MISS:       2113  HIT %:    99.5557  MISS %:   0.444283  MPKI: 0.04226
STLB TRANSLATION FROM L1D PREFETCHER DATA	ACCESS:     256238  HIT:     256189  MISS:         49  HIT %:    99.9809  MISS %:  0.0191228  MPKI: 0.00098

STLB AVERAGE MISS LATENCY: 61.1427 cycles
STLB RQ	ACCESS:    1367754	FORWARD:          0	MERGED:     145674	TO_CACHE:    1222080

STLB Hit, L1D data hit: 0
STLB Hit, L2C data hit: 0
STLB Hit, LLC data hit: 0
STLB Hit, LLC data miss: 0
STLB STLB hints to L2: 0
L1D TOTAL     ACCESS:   13342887  HIT:   12174615  MISS:    1168272  HIT %:    91.2442  MISS %:    8.75577   MPKI: 23.3654
L1D LOAD DATA	ACCESS:    6808163  HIT:    6041158  MISS:     767005  HIT %:     88.734  MISS %:     11.266  MPKI: 15.3401
L1D RFO DATA	ACCESS:    6198514  HIT:    5904555  MISS:     293959  HIT %:    95.2576  MISS %:    4.74241  MPKI: 5.87918
L1D PREFETCH DATA	ACCESS:     336210  HIT:     228902  MISS:     107308  HIT %:     68.083  MISS %:     31.917  MPKI: 2.14616

L1D PREFETCH  REQUESTED:     803559  ISSUED:     803559  USEFUL:      49922  USELESS:      70299
L1D USEFUL LOAD PREFETCHES:      49922 PREFETCH ISSUED TO LOWER LEVEL:     120279  ACCURACY: 41.5052
 TIMELY PREFETCHES:      49922 LATE PREFETCHES: 12944 DROPPED PREFETCHES: 1
L1D AVERAGE MISS LATENCY: 395720 cycles
L1D RQ	ACCESS:   10873879	FORWARD:          0	MERGED:    3873597	TO_CACHE:    6840353
L1D WQ	ACCESS:    6907638	FORWARD:     160232	MERGED:     171664	TO_CACHE:    6735974
L1D PQ	ACCESS:     401931	FORWARD:          0	MERGED:          0	TO_CACHE:     401628

L1D UNIQUE REGIONS ACCESSED: 0
L1D REGIONS CONFLICTS: 0
L1D Cross Page Prefetch Requests: 8207
L1D Same Page Prefetch Requests: 811095
L1D ROI Sum of L1D PQ occupancy: 5121360
L1D PREFETCHES PUSHED FROM L2C: 0
L1I TOTAL     ACCESS:    7079046  HIT:    4331287  MISS:    2747759  HIT %:    61.1846  MISS %:    38.8154   MPKI: 54.9552
L1I LOAD INSTRUCTION	ACCESS:    6568167  HIT:    3820408  MISS:    2747759  HIT %:    58.1655  MISS %:    41.8345  MPKI: 54.9552
L1I PREFETCH INSTRUCTION	ACCESS:     510879  HIT:     510879  MISS:          0  HIT %:        100  MISS %:          0  MPKI: 0

L1I PREFETCH  REQUESTED:    1091564  ISSUED:    1091564  USEFUL:          0  USELESS:          0
L1I USEFUL LOAD PREFETCHES:          0 PREFETCH ISSUED TO LOWER LEVEL:          0  ACCURACY: -nan
 TIMELY PREFETCHES:          0 LATE PREFETCHES: 0 DROPPED PREFETCHES: 0
L1I AVERAGE MISS LATENCY: 17.3582 cycles
L1I RQ	ACCESS:    9458747	FORWARD:          0	MERGED:    2643888	TO_CACHE:    6814859
L1I PQ	ACCESS:    1091564	FORWARD:          0	MERGED:     311287	TO_CACHE:     780277

L1BTB TOTAL     ACCESS:    5680877  HIT:    2074078  MISS:    3606799  HIT %:    36.5098  MISS %:    63.4902   MPKI: 72.136
L1BTB BRANCH_DIRECT_JUMP	ACCESS:     543190  HIT:     143754  MISS:     399436	AVERAGE STALL: 36.1958
L1BTB BRANCH_INDIRECT	ACCESS:     181400  HIT:      65432  MISS:     115968	AVERAGE STALL: 83.9424
L1BTB BRANCH_CONDITIONAL	ACCESS:    2732102  HIT:    1447748  MISS:    1284354	AVERAGE STALL: 36.8822
L1BTB BRANCH_DIRECT_CALL	ACCESS:     941242  HIT:     104904  MISS:     836338	AVERAGE STALL: 36.8509
L1BTB BRANCH_INDIRECT_CALL	ACCESS:     170851  HIT:      21534  MISS:     149317	AVERAGE STALL: 106.388
L1BTB BRANCH_RETURN	ACCESS:    1112092  HIT:     290706  MISS:     821386	AVERAGE STALL: 36.6859
L1BTB BRANCH_OTHER ACCESS:          0  HIT:          0  MISS:          0	AVERAGE STALL: -nan
L1BTB TOTAL ROB OCCUPANCY AT BTB MISS: 12.7727

L2BTB TOTAL     ACCESS:    3581832  HIT:    3124005  MISS:     457827  HIT %:    87.2181  MISS %:    12.7819   MPKI: 9.15654
L2BTB BRANCH_DIRECT_JUMP	ACCESS:     395331  HIT:     351821  MISS:      43510	AVERAGE STALL: 36.1958
L2BTB BRANCH_INDIRECT	ACCESS:     105736  HIT:      98658  MISS:       7078	AVERAGE STALL: 83.9424
L2BTB BRANCH_CONDITIONAL	ACCESS:    1284354  HIT:    1135033  MISS:     149321	AVERAGE STALL: 36.8822
L2BTB BRANCH_DIRECT_CALL	ACCESS:     836338  HIT:     698304  MISS:     138034	AVERAGE STALL: 36.8509
L2BTB BRANCH_INDIRECT_CALL	ACCESS:     139904  HIT:     111752  MISS:      28152	AVERAGE STALL: 106.388
L2BTB BRANCH_RETURN	ACCESS:     820169  HIT:     728437  MISS:      91732	AVERAGE STALL: 36.6859
L2BTB BRANCH_OTHER ACCESS:          0  HIT:          0  MISS:          0	AVERAGE STALL: -nan
L2BTB TOTAL ROB OCCUPANCY AT BTB MISS: 100.624

L2C TOTAL     ACCESS:    4543811  HIT:    4029073  MISS:     514738  HIT %:    88.6717  MISS %:    11.3283   MPKI: 10.2948
L2C LOAD INSTRUCTION	ACCESS:    2747758  HIT:    2474412  MISS:     273346  HIT %:     90.052  MISS %:    9.94796  MPKI: 5.46692
L2C LOAD TRANSLATION INSTRUCTION	ACCESS:        404  HIT:        111  MISS:        293  HIT %:    27.4752  MISS %:    72.5248  MPKI: 0.00586
L2C LOAD DATA	ACCESS:     754022  HIT:     662306  MISS:      91716  HIT %:    87.8364  MISS %:    12.1636  MPKI: 1.83432
L2C RFO DATA	ACCESS:     293907  HIT:     236101  MISS:      57806  HIT %:    80.3319  MISS %:    19.6681  MPKI: 1.15612
L2C PREFETCH DATA	ACCESS:     213602  HIT:     136645  MISS:      76957  HIT %:    63.9718  MISS %:    36.0282  MPKI: 1.53914
L2C WRITEBACK DATA	ACCESS:     531786  HIT:     518755  MISS:      13031  HIT %:    97.5496  MISS %:    2.45042  MPKI: 0.26062
L2C LOAD TRANSLATION DATA	ACCESS:       2263  HIT:        693  MISS:       1570  HIT %:    30.6231  MISS %:    69.3769  MPKI: 0.0314
L2C TRANSLATION FROM L1D PREFETCHER DATA	ACCESS:         69  HIT:         50  MISS:         19  HIT %:    72.4638  MISS %:    27.5362  MPKI: 0.00038

L2C PREFETCH  REQUESTED:     101355  ISSUED:     101355  USEFUL:       9486  USELESS:      68370
L2C USEFUL LOAD PREFETCHES:       9486 PREFETCH ISSUED TO LOWER LEVEL:      77906  ACCURACY: 12.1762
 TIMELY PREFETCHES:       9486 LATE PREFETCHES: 949 DROPPED PREFETCHES: 0
L2C AVERAGE MISS LATENCY: 40.4073 cycles
L2C RQ	ACCESS:    3798487	FORWARD:          0	MERGED:          0	TO_CACHE:    3798423
L2C WQ	ACCESS:     531786	FORWARD:         64	MERGED:          0	TO_CACHE:     531786
L2C PQ	ACCESS:     221634	FORWARD:          0	MERGED:       3451	TO_CACHE:     218183

L2C Dense regions hint from L2: 0
PSCL5 TOTAL     ACCESS:       5022  HIT:       2511  MISS:       2511  HIT %:         50  MISS %:         50   MPKI: 0.05022
PSCL5 LOAD TRANSLATION INSTRUCTION	ACCESS:       4884  HIT:       2442  MISS:       2442  HIT %:         50  MISS %:         50  MPKI: 0.04884
PSCL5 TRANSLATION FROM L1D PREFETCHER INSTRUCTION	ACCESS:        138  HIT:         69  MISS:         69  HIT %:         50  MISS %:         50  MPKI: 0.00138


PSCL4 TOTAL     ACCESS:       3160  HIT:       1577  MISS:       1583  HIT %:    49.9051  MISS %:    50.0949   MPKI: 0.03166
PSCL4 LOAD TRANSLATION INSTRUCTION	ACCESS:       2671  HIT:       1533  MISS:       1138  HIT %:    57.3942  MISS %:    42.6058  MPKI: 0.02276
PSCL4 TRANSLATION FROM L1D PREFETCHER INSTRUCTION	ACCESS:         88  HIT:         44  MISS:         44  HIT %:         50  MISS %:         50  MPKI: 0.00088
PSCL4 LOAD TRANSLATION DATA	ACCESS:        401  HIT:          0  MISS:        401  HIT %:          0  MISS %:        100  MPKI: 0.00802


PSCL3 TOTAL     ACCESS:       4885  HIT:       2433  MISS:       2452  HIT %:    49.8055  MISS %:    50.1945   MPKI: 0.04904
PSCL3 LOAD TRANSLATION INSTRUCTION	ACCESS:       3938  HIT:       2380  MISS:       1558  HIT %:    60.4368  MISS %:    39.5632  MPKI: 0.03116
PSCL3 TRANSLATION FROM L1D PREFETCHER INSTRUCTION	ACCESS:         98  HIT:         53  MISS:         45  HIT %:    54.0816  MISS %:    45.9184  MPKI: 0.0009
PSCL3 LOAD TRANSLATION DATA	ACCESS:        841  HIT:          0  MISS:        841  HIT %:          0  MISS %:        100  MPKI: 0.01682
PSCL3 TRANSLATION FROM L1D PREFETCHER DATA	ACCESS:          8  HIT:          0  MISS:          8  HIT %:          0  MISS %:        100  MPKI: 0.00016


PSCL2 TOTAL     ACCESS:       4822  HIT:       2311  MISS:       2511  HIT %:    47.9262  MISS %:    52.0738   MPKI: 0.05022
PSCL2 LOAD TRANSLATION INSTRUCTION	ACCESS:       2593  HIT:       2242  MISS:        351  HIT %:    86.4636  MISS %:    13.5364  MPKI: 0.00702
PSCL2 TRANSLATION FROM L1D PREFETCHER INSTRUCTION	ACCESS:         69  HIT:         69  MISS:          0  HIT %:        100  MISS %:          0  MPKI: 0
PSCL2 LOAD TRANSLATION DATA	ACCESS:       2091  HIT:          0  MISS:       2091  HIT %:          0  MISS %:        100  MPKI: 0.04182
PSCL2 TRANSLATION FROM L1D PREFETCHER DATA	ACCESS:         69  HIT:          0  MISS:         69  HIT %:          0  MISS %:        100  MPKI: 0.00138


LLC TOTAL     ACCESS:     581601  HIT:     551546  MISS:      30055  HIT %:    94.8324  MISS %:    5.16763   MPKI: 0.6011
LLC LOAD INSTRUCTION	ACCESS:     273346  HIT:     272138  MISS:       1208  HIT %:    99.5581  MISS %:   0.441931  MPKI: 0.02416
LLC LOAD TRANSLATION INSTRUCTION	ACCESS:        293  HIT:        255  MISS:         38  HIT %:    87.0307  MISS %:    12.9693  MPKI: 0.00076
LLC LOAD DATA	ACCESS:      90780  HIT:      87163  MISS:       3617  HIT %:    96.0156  MISS %:    3.98436  MPKI: 0.07234
LLC RFO DATA	ACCESS:      57789  HIT:      43146  MISS:      14643  HIT %:    74.6613  MISS %:    25.3387  MPKI: 0.29286
LLC PREFETCH DATA	ACCESS:      77906  HIT:      67675  MISS:      10231  HIT %:    86.8675  MISS %:    13.1325  MPKI: 0.20462
LLC WRITEBACK DATA	ACCESS:      79898  HIT:      79667  MISS:        231  HIT %:    99.7109  MISS %:   0.289119  MPKI: 0.00462
LLC LOAD TRANSLATION DATA	ACCESS:       1570  HIT:       1483  MISS:         87  HIT %:    94.4586  MISS %:     5.5414  MPKI: 0.00174
LLC TRANSLATION FROM L1D PREFETCHER DATA	ACCESS:         19  HIT:         19  MISS:          0  HIT %:        100  MISS %:          0  MPKI: 0

LLC AVERAGE MISS LATENCY: 191.167 cycles
LLC RQ	ACCESS:     423801	FORWARD:          0	MERGED:          0	TO_CACHE:     423797
LLC WQ	ACCESS:      79898	FORWARD:          4	MERGED:          0	TO_CACHE:      79898
LLC PQ	ACCESS:      77906	FORWARD:          0	MERGED:          0	TO_CACHE:      77906

LLC Dense regions hint to LLC: 0

RAW hits: 1731256
Loads Generated: 12605135
Loads sent to L1D: 10873879
Stores Generated: 6907628
Stores sent to L1D: 6907638
Major fault: 0 Minor fault: 2405
Allocated PAGES: 2405

stream: 
stream:times selected: 1247033
stream:pref_filled: 128329
stream:pref_useful: 28546
stream:pref_late: 10010
stream:misses: 10924
stream:misses_by_poll: 0

CS: 
CS:times selected: 195744
CS:pref_filled: 73572
CS:pref_useful: 50660
CS:pref_late: 9352
CS:misses: 24136
CS:misses_by_poll: 8

CPLX: 
CPLX:times selected: 1049985
CPLX:pref_filled: 24575
CPLX:pref_useful: 7560
CPLX:pref_late: 3972
CPLX:misses: 132300
CPLX:misses_by_poll: 4

NL_L1: 
NL:times selected: 22347
NL:pref_filled: 1219
NL:pref_useful: 567
NL:pref_late: 682
NL:misses: 3307
NL:misses_by_poll: 0

total selections: 2515109
total_filled: 107308
total_useful: 49922
total_late: 26545
total_polluted: 12
total_misses_after_warmup: 799200
conflicts: 5612983

test: 119648

DRAM Statistics
 CHANNEL 0
 RQ ROW_BUFFER_HIT:      10754  ROW_BUFFER_MISS:      19056
 DBUS_CONGESTED:         19
 WQ ROW_BUFFER_HIT:       2150  ROW_BUFFER_MISS:      13624  FULL:          0

 AVG_CONGESTED_CYCLE: 3

CPU 0 Branch Prediction Accuracy: 99.8185% MPKI: 0.33254 Average ROB Occupancy at Mispredict: 139.041
Branch types
NOT_BRANCH: 40838963 81.6779%
BRANCH_DIRECT_JUMP: 543190 1.08638%
BRANCH_INDIRECT: 181400 0.3628%
BRANCH_CONDITIONAL: 6212143 12.4243%
BRANCH_DIRECT_CALL: 941242 1.88248%
BRANCH_INDIRECT_CALL: 170851 0.341702%
BRANCH_RETURN: 1112092 2.22418%
BRANCH_OTHER: 0 0%

DRAM PAGES: 1048576
Allocated PAGES: 2405
Average_ROB_Occupancy: 120
Average_Decode_Occupancy: 14.2856
Average_FTQ_Occupancy: 6.72912
Indirect max targets: 14 Average targets: 1.17572
Branch_type:  BRANCH_DIRECT_JUMP:  Count Percentage: 3.25272 6.03104 3.7296 7.6714 2.79195 5.97148 1.55593 68.9959 
Branch_type:  BRANCH_INDIRECT:  Count Percentage: 11.7615 3.47504 2.53226 0 2.53722 9.69166 19.2082 50.7942 
Branch_type:  BRANCH_CONDITIONAL:  Count Percentage: 22.6358 1.94812 1.87309 7.78005 1.66063 4.83747 1.90736 57.3575 
Branch_type:  BRANCH_DIRECT_CALL:  Count Percentage: 0.264899 1.24886 1.43212 3.74089 3.46498 2.34726 0.613627 86.8874 
Branch_type:  BRANCH_INDIRECT_CALL:  Count Percentage: 9.51994 0.566925 2.9817 4.83249 1.29763 1.71015 1.27829 77.8129 
Branch_type:  BRANCH_RETURN:  Count Percentage: 3.44186 0.569291 1.48104 8.45382 3.60332 6.37661 2.8646 73.2095 
Branch_type:  BRANCH_DIRECT_JUMP:  Total Count: 35332 65511 40512 83329 30327 64864 16901 749454 
Branch_type:  BRANCH_INDIRECT:  Total Count: 42703 12617 9194 0 9212 35188 69740 184421 
Branch_type:  BRANCH_CONDITIONAL:  Total Count: 2811833 241997 232677 966444 206285 600914 236934 7124991 
Branch_type:  BRANCH_DIRECT_CALL:  Total Count: 4977 23464 26907 70285 65101 44101 11529 1632465 
Branch_type:  BRANCH_INDIRECT_CALL:  Total Count: 32493 1935 10177 16494 4429 5837 4363 265587 
Branch_type:  BRANCH_RETURN:  Total Count: 76444 12644 32894 187760 80030 141625 63623 1625989 
Number of unique branch instructions: 10849
Upper 32 bits: 
aaaa
ffff
ffff0000
Unique upper 32 bits: 3
Unique upper 36 bits: 3
Unique upper 40 bits: 5
Unique upper 44 bits: 32
Unique upper 48 bits: 160
Variant_0 : 1227 0.299561
Variant_1 : 1242 0.303223
Variant_2 : 1026 0.250488
Variant_3 : 0 0
Offset_3 4511
Offset_4 261
Offset_5 486
Offset_6 554
Offset_7 641
Offset_8 574
Offset_9 522
Offset_10 436
Offset_11 357
Offset_12 298
Offset_13 235
Offset_14 233
Offset_15 207
Offset_16 234
Offset_17 168
Offset_18 163
Offset_19 261
Offset_20 149
Offset_21 245
Offset_22 413
Offset_23 241
Offset_24 342
Offset_25 114
Offset_47 91
decode_dispatch_called: 20640475 46.1064
Dispatch_width: 0 10592052 51.3169 23.6604
Dispatch_width: 1 567440 2.74916 1.26754
Dispatch_width: 2 648136 3.14012 1.4478
Dispatch_width: 3 463084 2.24357 1.03443
Dispatch_width: 4 1559344 7.55479 3.48324
Dispatch_width: 5 352994 1.7102 0.788513
Dispatch_width: 6 6457425 31.2853 14.4245
Empty_decode_cycles: 24126572 53.8936
ROB_full_cycles: 2252624 5.03188
Starvation_cycles_per_kilo_instr: 360.57
Starvation_cycles_per_kilo_instr_3: 341.447
Starvation_cycles_per_kilo_instr_0: 324.66
Branch_type_1  (3,1)  (4,7)  (5,38)  (6,80)  (7,126)  (8,145)  (9,137)  (10,115)  (11,84)  (12,48)  (13,10)  (14,2)  (15,3)  (16,4)  (18,1)  (19,5)  (20,2)  (21,1)  (22,3)  (23,2)  (24,10)  (25,12) 
Branch_type_2  (3,1)  (4,1)  (5,1)  (8,4)  (9,4)  (10,1)  (12,1)  (13,1)  (14,1)  (16,3)  (17,2)  (20,2)  (21,2)  (23,5)  (24,1)  (47,40) 
Branch_type_3  (3,4509)  (4,253)  (5,443)  (6,457)  (7,482)  (8,361)  (9,288)  (10,182)  (11,140)  (12,53)  (13,10) 
Branch_type_4  (6,4)  (7,8)  (8,26)  (9,57)  (10,65)  (11,68)  (12,108)  (13,101)  (14,104)  (15,100)  (16,104)  (17,77)  (18,72)  (19,126)  (20,75)  (21,130)  (22,221)  (23,136)  (24,198)  (25,98)  (47,1) 
Branch_type_5  (8,3)  (9,1)  (10,4)  (11,5)  (12,3)  (13,14)  (14,16)  (15,11)  (16,22)  (17,12)  (18,23)  (19,14)  (20,12)  (21,13)  (22,43)  (23,26)  (24,37) 
Branch_type_6  (5,4)  (6,13)  (7,25)  (8,35)  (9,35)  (10,69)  (11,60)  (12,85)  (13,99)  (14,110)  (15,93)  (16,101)  (17,77)  (18,67)  (19,116)  (20,58)  (21,99)  (22,146)  (23,72)  (24,96)  (25,4)  (47,50) 
Unique trigger count: 
Variant_0_evicts_0 : 0
Variant_0_evicts_1 : 0
Variant_0_evicts_2 : 0
Variant_0_evicts_3 : 0
Variant_1_evicts_0 : 0
Variant_1_evicts_1 : 0
Variant_1_evicts_2 : 0
Variant_1_evicts_3 : 0
Variant_2_evicts_0 : 0
Variant_2_evicts_1 : 0
Variant_2_evicts_2 : 0
Variant_2_evicts_3 : 0
Variant_3_evicts_0 : 0
Variant_3_evicts_1 : 0
Variant_3_evicts_2 : 0
Variant_3_evicts_3 : 0
BTB PER SET UNIQUE ADDR: 5 8 6 5 3 4 6 10 10 2 6 2 8 5 3 4 7 4 8 9 5 8 7 8 9 12 1 7 6 6 10 9 6 7 7 4 4 6 6 3 7 5 6 10 9 7 5 13 11 6 5 3 12 2 2 8 5 5 8 8 4 12 4 8 5 10 8 9 6 7 6 2 6 6 6 8 6 14 6 5 8 7 7 6 6 8 7 9 8 11 10 9 9 6 9 5 11 8 5 6 7 7 9 9 7 7 7 8 7 5 6 6 5 8 5 11 3 7 6 2 9 9 4 3 6 6 4 8 11 9 11 3 11 4 9 8 5 3 6 8 8 8 7 7 4 11 5 9 12 7 6 14 6 11 6 9 9 10 7 10 10 8 10 5 12 8 3 4 12 6 5 5 8 8 4 3 8 5 9 6 6 8 11 8 9 11 5 8 8 8 6 7 6 7 6 10 10 4 11 4 4 8 8 4 7 4 5 7 6 2 3 6 9 9 7 6 4 9 7 6 6 3 7 7 6 8 13 7 3 10 12 10 5 5 7 9 11 6 4 4 4 3 10 7 16 10 1 7 6 7 8 10 8 7 5 11 4 7 10 6 8 5 7 4 9 16 6 5 7 5 7 7 4 8 9 8 8 4 4 8 8 5 9 5 9 8 6 7 8 4 5 8 4 11 7 4 5 10 6 6 6 6 5 4 8 4 5 4 11 10 6 4 8 4 6 5 9 14 7 5 7 11 6 9 5 6 7 10 3 1 10 2 5 6 9 6 6 8 8 1 7 6 2 9 7 6 3 9 10 6 5 12 10 6 8 7 8 2 9 5 7 11 7 9 10 9 4 4 4 5 9 4 7 5 8 6 12 7 7 8 10 7 7 13 6 5 8 5 8 4 9 7 8 4 7 4 5 5 2 9 6 5 7 7 7 6 8 5 4 3 6 5 11 6 3 6 8 4 3 7 2 6 7 7 10 7 5 2 5 8 2 3 15 5 9 10 6 6 7 4 5 7 11 3 7 9 6 6 5 4 6 3 3 3 9 3 6 8 9 5 5 4 6 12 7 5 11 4 5 6 2 6 10 9 8 3 10 5 2 4 5 2 3 4 3 7 8 3 6 3 10 3 4 8 2 12 4 7 5 4 10 3 4 4 2 5 5 3 4 6 7 4 6 10 2 5 2 10 8 9 7 3 9 5 10 9 6 10 10 8 5 7 5 7 5 7 7 1 6 5 6 9 11 4 9 5 10 14 13 12 6 8 7 6 2 6 9 3 7 4 10 4 9 5 5 6 10 9 11 7 8 5 11 11 6 7 7 11 3 10 13 5 2 6 5 3 2 15 6 6 8 9 3 7 5 5 8 5 5 5 12 5 11 9 7 4 5 8 6 5 8 9 6 6 7 3 7 5 5 7 8 7 9 3 6 10 7 8 4 6 8 8 8 7 7 8 6 5 6 3 10 7 5 6 3 3 7 7 8 8 8 5 9 4 6 3 10 5 6 9 10 2 6 12 7 7 8 6 6 10 7 7 7 7 11 9 7 6 8 5 10 10 7 6 8 8 7 9 7 8 3 7 4 5 5 7 11 7 6 8 3 11 6 5 7 11 4 5 5 5 8 9 6 7 5 6 12 6 1 8 5 3 5 3 4 3 4 8 2 10 8 11 8 3 8 8 9 4 6 4 5 9 5 10 4 5 5 4 8 7 7 4 5 7 3 5 5 10 9 5 5 7 7 7 7 6 15 7 6 3 9 8 0 5 6 5 5 10 4 3 8 7 4 6 12 9 9 8 2 8 4 9 6 7 6 13 13 5 6 5 13 4 9 3 8 7 7 7 5 7 4 5 6 4 5 7 1 5 5 10 7 5 10 4 6 5 7 4 7 6 7 4 7 4 10 5 4 5 8 4 6 5 5 6 5 7 8 7 6 4 8 8 7 9 6 9 7 5 7 6 7 7 5 5 12 7 5 8 11 10 4 7 7 9 8 3 3 7 7 5 3 7 7 6 8 6 7 5 4 8 8 4 4 8 5 3 8 12 4 3 12 8 4 6 11 7 7 11 6 8 9 7 5 4 3 10 6 7 8 7 9 6 9 5 9 9 5 5 5 12 6 4 11 10 6 8 10 10 4 11 7 9 6 4 7 9 10 7 10 6 10 3 13 8 4 6 9 13 7 9 5 7 10 5 3 9 10 9 10 5 2 7 2 9 12 6 8 5 4 7 13 6 4 6 6 7 4 5 8 8 8 9 8 11 5 10 7 11 5 6 5 4 6 4 7 6 8 6 7 7 9 5 9 7 11 4 9 4 3 8 11 6 12 5 
BTB PER SET COUNT: 8 1460 6 6 3 5 6 1968 7282 2 10 1943 1463 9 3 7 1457 4 52 3396 5 9 11 1273 5831 2926 1 8 1459 6 4511 321 2849 21 9 7 2915 6 14 3 23 5 13 2225 5346 22 5 4866 2905 7 5 4 12242 2 2 1481 5 5 13 145 4 2988 4 9 5 595 2046 34 6 7 1253 2 10 6 971 15 488 6798 999 5 1099 1458 1478 749 966 17 12 21 3868 2609 1470 512 1941 6 16 9 942 12 5 6 8 20 9 955 17 7 1455 4095 2418 5 1935 9 5 11 8 7537 3 9 6 2 10 33 8 3 2436 6 4 41 3412 1967 1469 3 4034 7 3409 70 6 4 6 1599 9 23 11 8 5 1580 5 13 518 2428 8 4030 8 9222 9 35 13 1947 1367 983 5000 36 1949 977 66 2037 3 4 4866 974 5 6 16 147 4 3 12 488 1961 6 6 36 1653 24 26 8742 6 9 2972 10 7 11 6 1455 1454 24 1955 4 49 4 4 30 15 7 12 4 5 2705 8 2 3 7 231 4853 8 6 8 17 13 6 6 3 11 7 6 8 6103 1989 6 2922 8139 14 6 5 12 3879 3402 7 5 4 4 4 7168 7 4579 10 1 7 7 12 18 3721 13 14 6 4260 4 12 1460 9 1457 5 7 7 2604 8524 979 8 2429 5 1939 11 4 8 58 756 14 4 4 2420 8 971 11 5 3411 1457 6 1000 9 4 5 2432 969 3890 2902 976 6 4018 8 10 6 8 5 4 13 5 5 4 4625 66 13 4 999 7 6 8 17 2215 1502 8 30 41 6 20 25 12 8 182 3 1 3533 2 5 6 1953 11 2423 43 14 1 33 6 2 2750 976 957 5 10 489 8 5 1078 13 1947 8 58 45 4 5117 35 11 1810 15 2927 2406 20 4 4 6 7 20 6 11 9 70 6 7479 7 8 876 3395 2902 11 7969 6 8 33 5 21 4 2231 19 3882 4 1460 5 1459 8 2 13 20 8 1460 9 771 8 2915 5 4 2250 7 5 3069 11 974 6 230 5 4 1432 2 977 12 18 35 13 9 2 5 10 2 3 5642 5 63 22 8 6 1947 7 5 11 598 3 9 994 8 976 5 4 6 5 3 4 242 3 9 37 532 6 970 4 16 292 67 5 3452 5 6 7 2 19 4700 1459 165 3 24817 5 2 4 10 2 3 486 3 19 1497 373 10 3 2441 3 6 13 2 7382 4 7 5 4 34 15 8 6 2 5 5 3 4 7 12 5 6 31 3 9 2 9712 12 982 8 1456 12 456 34 1974 12 11 987 11 7 25 5 12 5 1206 17 1 9 5 12 1457 36 5 1947 5 68 179 2923 7984 10 1010 7 8 2 11 1701 3 9 4 7877 1944 2435 5 5 7 60 17 50 982 1077 5 1479 4879 1454 2425 68 3897 3 4207 9184 280 3 970 1458 3 2 7217 10 15 14 95 5 1953 977 7 12 5 7 9 50 10 7047 768 2913 2913 5 972 11 5 3868 22 6 6 7 4 1949 8 6 7 13 2281 1770 3 1459 1061 12 2460 11 2708 490 1461 8 11 7 26 6 5 15 3 7768 7 5 7 3 5 16 7 948 14 14 5 10186 4 8 5 39 7 1458 3882 7769 3 15 7473 7 1457 2937 975 24 68 1950 9 11 971 6292 3444 493 10 2426 5 2538 7393 9 974 20843 983 55 4853 1460 25 3 2218 8 5 5 7 8343 9 8 47 3 2912 6 5 130 3011 5 2432 6 1459 131 9 12 1009 970 6 1498 626 1 8 6 4 6 3 1944 4 970 1646 2 9475 1957 85 1951 5 12 14 1737 7 8 4 9 9 5 9891 4 5 492 5 12 972 62 7 6 709 3 5 5 19 6304 1946 5 11 1040 755 3888 7 6083 9 10 3 32 20 0 200 9 1459 8 3301 8 3 2426 26 4 3403 1273 79 12 20 412 979 4 1763 29 9 198 4821 1252 5 6 5 2673 5 426 968 1959 2921 10 8 7 13 4 8 6 490 6 11 3 6 8 3305 26 5 3407 375 1477 8 1945 4 2430 121 1698 4 502 4 7819 975 971 6 25 4 422 5 5 2355 6 11 3589 25 9 4 3392 1738 11 16 19 11605 10 5 11 16 26 9 5 5 7097 981 5 975 2926 804 4 25 7 17 8 3 3 8 7 5 3 8 12 8 13 15 1459 6 4 1802 11 4 4 1554 5 3 21 3168 4 3 5115 2421 292 42 2672 9 10 4080 6 10 1116 10 9 4 5 40 12 983 3340 2226 21 6 3907 5 35 360 5 6 5 2935 7 486 3500 1469 6 8 3459 1898 6 3405 7 924 12 976 9 47 23 247 22 11 3550 3 8249 14 5 7 1492 11152 14 2904 5 497 8255 8 6 860 54 14 15 7 2 11 2 3233 5815 8 992 5 8 7 1530 6 486 6 6 12 4 5 8 12 1456 987 31 3372 5 1480 11 5595 15 6 7 4 15 4 22 6 1462 11 7 9 6793 10 7102 322 3188 5 1865 7 3 11 3517 10 4245 9 
To predecode: 0
Predecoding something: 0
Predecode request dropped: 0
sizeofblock_0 0
sizeofblock_1 262210
sizeofblock_2 185847
sizeofblock_3 134201
sizeofblock_4 72500
sizeofblock_5 0
sizeofblock_6 0
sizeofblock_7 0
sizeofblock_8 0
Variant_0 Correct: 0 Incorrect: 0 Accuracy: -nan
Variant_1 Correct: 0 Incorrect: 0 Accuracy: -nan
Variant_2 Correct: 0 Incorrect: 0 Accuracy: -nan
Variant_3 Correct: 0 Incorrect: 0 Accuracy: -nan
