
*** ChampSim Multicore Out-of-Order Simulator ***

Warmup Instructions: 50000000
Simulation Instructions: 50000000
Number of CPUs: 1
LLC sets: 2048
LLC ways: 16
Off-chip DRAM Size: 4096 MB Channels: 1 Width: 64-bit Data Rate: 6400 MT/s
CPU 0 runs ./micro_traces/srv389.trace.gz
.gz
ITLB has LRU replacement policy
DTLB has LRU replacement policy
STLB has LRU replacement policy
FDIP Prefetcher at L1I
L1I has LRU replacement policy
L1D has LRU replacement policy
Initialize SRRIP state for L2C
Initialize DRRIP state for LLC
Heartbeat CPU 0 instructions: 10000003 cycles: 2794581 heartbeat IPC: 3.57836 cumulative IPC: 3.57836 (Simulation time: 0 hr 2 min 28 sec) 
Heartbeat CPU 0 instructions: 20000003 cycles: 5589535 heartbeat IPC: 3.57788 cumulative IPC: 3.57812 (Simulation time: 0 hr 4 min 33 sec) 
Heartbeat CPU 0 instructions: 30000000 cycles: 8384605 heartbeat IPC: 3.57773 cumulative IPC: 3.57799 (Simulation time: 0 hr 6 min 46 sec) 
Heartbeat CPU 0 instructions: 40000003 cycles: 11179131 heartbeat IPC: 3.57843 cumulative IPC: 3.5781 (Simulation time: 0 hr 8 min 51 sec) 
Heartbeat CPU 0 instructions: 50000000 cycles: 13973484 heartbeat IPC: 3.57864 cumulative IPC: 3.57821 (Simulation time: 0 hr 10 min 46 sec) 

Warmup complete CPU 0 instructions: 50000004 cycles: 13973485 (Simulation time: 0 hr 10 min 46 sec) 

*** Reached end of trace for Core: 0 Repeating trace: ./micro_traces/srv389.trace.gz
Cycle: 20000000 FTQ IN: 56027229 FTQ occupancy: 18.0218 DECODE IN: 56027227 DECODE occupancy: 45.9361 ROB IN: 56027227 ROB occupancy: 275.038 ROB OUT: 56027146
Heartbeat CPU 0 instructions: 60000000 cycles: 23757685 heartbeat IPC: 1.02206 cumulative IPC: 1.02206 (Simulation time: 0 hr 12 min 35 sec) 
Cycle: 30000000 FTQ IN: 10369384 FTQ occupancy: 6.40876 DECODE IN: 10369330 DECODE occupancy: 13.0462 ROB IN: 10369322 ROB occupancy: 106.203 ROB OUT: 10369137
Heartbeat CPU 0 instructions: 70000002 cycles: 33454634 heartbeat IPC: 1.03125 cumulative IPC: 1.02663 (Simulation time: 0 hr 14 min 23 sec) 
Cycle: 40000000 FTQ IN: 10495267 FTQ occupancy: 6.23351 DECODE IN: 10495290 DECODE occupancy: 12.5883 ROB IN: 10495293 ROB occupancy: 104.367 ROB OUT: 10495539
Heartbeat CPU 0 instructions: 80000000 cycles: 42950640 heartbeat IPC: 1.05307 cumulative IPC: 1.0353 (Simulation time: 0 hr 16 min 7 sec) 
Cycle: 50000000 FTQ IN: 10425977 FTQ occupancy: 6.42143 DECODE IN: 10425972 DECODE occupancy: 13.0756 ROB IN: 10425975 ROB occupancy: 105.732 ROB OUT: 10425938
Heartbeat CPU 0 instructions: 90000001 cycles: 52555938 heartbeat IPC: 1.04109 cumulative IPC: 1.03674 (Simulation time: 0 hr 17 min 56 sec) 
Cycle: 60000000 FTQ IN: 10495024 FTQ occupancy: 6.30677 DECODE IN: 10495060 DECODE occupancy: 12.7821 ROB IN: 10495062 ROB occupancy: 105.346 ROB OUT: 10495035
Heartbeat CPU 0 instructions: 100000003 cycles: 62111131 heartbeat IPC: 1.04655 cumulative IPC: 1.03869 (Simulation time: 0 hr 19 min 40 sec) 
Finished CPU 0 instructions: 50000003 cycles: 48137647 cumulative IPC: 1.03869 (Simulation time: 0 hr 19 min 40 sec) 

ChampSim completed all CPUs

Region of Interest Statistics

CPU 0 cumulative IPC: 1.03869 instructions: 50000003 cycles: 48137647
 Fetch stage stalled: 72.9123  Sim cycles: 48137647 fetch stall cycle: 35098258
 Empty decode stage: 61.7411  Sim cycles: 48137647 fetch stall cycle: 29720724
ITLB TOTAL     ACCESS:    5528627  HIT:    5038310  MISS:     490317  HIT %:    91.1313  MISS %:    8.86869   MPKI: 9.80634
ITLB LOAD TRANSLATION INSTRUCTION	ACCESS:    5421885  HIT:    4931568  MISS:     490317  HIT %:    90.9567  MISS %:    9.04329  MPKI: 9.80634
ITLB TRANSLATION FROM L1D PREFETCHER INSTRUCTION	ACCESS:     106742  HIT:     106742  MISS:          0  HIT %:        100  MISS %:          0  MPKI: 0

ITLB AVERAGE MISS LATENCY: 9.05197 cycles
ITLB RQ	ACCESS:    7196195	FORWARD:          0	MERGED:    1161418	TO_CACHE:    6034777

DTLB TOTAL     ACCESS:    9429548  HIT:    8954693  MISS:     474855  HIT %:    94.9642  MISS %:    5.03582   MPKI: 9.4971
DTLB LOAD TRANSLATION DATA	ACCESS:    9429548  HIT:    8954693  MISS:     474855  HIT %:    94.9642  MISS %:    5.03582  MPKI: 9.4971

DTLB AVERAGE MISS LATENCY: 9.28743 cycles
DTLB RQ	ACCESS:   13666261	FORWARD:          0	MERGED:    4205265	TO_CACHE:    9460996

STLB TOTAL     ACCESS:    1221069  HIT:    1218870  MISS:       2199  HIT %:    99.8199  MISS %:   0.180088   MPKI: 0.04398
STLB LOAD TRANSLATION INSTRUCTION	ACCESS:     490317  HIT:     490048  MISS:        269  HIT %:    99.9451  MISS %:  0.0548625  MPKI: 0.00538
STLB LOAD TRANSLATION DATA	ACCESS:     474829  HIT:     472918  MISS:       1911  HIT %:    99.5975  MISS %:   0.402461  MPKI: 0.03822
STLB TRANSLATION FROM L1D PREFETCHER DATA	ACCESS:     255923  HIT:     255904  MISS:         19  HIT %:    99.9926  MISS %: 0.00742411  MPKI: 0.00038

STLB AVERAGE MISS LATENCY: 63.1214 cycles
STLB RQ	ACCESS:    1368867	FORWARD:          0	MERGED:     147759	TO_CACHE:    1221108

STLB Hit, L1D data hit: 0
STLB Hit, L2C data hit: 0
STLB Hit, LLC data hit: 0
STLB Hit, LLC data miss: 0
STLB STLB hints to L2: 0
L1D TOTAL     ACCESS:   13436716  HIT:   12271913  MISS:    1164803  HIT %:    91.3312  MISS %:    8.66881   MPKI: 23.2961
L1D LOAD DATA	ACCESS:    6890269  HIT:    6122570  MISS:     767699  HIT %:    88.8582  MISS %:    11.1418  MPKI: 15.354
L1D RFO DATA	ACCESS:    6208337  HIT:    5916774  MISS:     291563  HIT %:    95.3037  MISS %:    4.69631  MPKI: 5.83126
L1D PREFETCH DATA	ACCESS:     338110  HIT:     232569  MISS:     105541  HIT %:     68.785  MISS %:     31.215  MPKI: 2.11082

L1D PREFETCH  REQUESTED:     807757  ISSUED:     807757  USEFUL:      50508  USELESS:      69589
L1D USEFUL LOAD PREFETCHES:      50508 PREFETCH ISSUED TO LOWER LEVEL:     120175  ACCURACY: 42.0287
 TIMELY PREFETCHES:      50508 LATE PREFETCHES: 14564 DROPPED PREFETCHES: 1
L1D AVERAGE MISS LATENCY: 466373 cycles
L1D RQ	ACCESS:   10946068	FORWARD:          0	MERGED:    3862545	TO_CACHE:    6922717
L1D WQ	ACCESS:    6906967	FORWARD:     161175	MERGED:     163423	TO_CACHE:    6743544
L1D PQ	ACCESS:     404063	FORWARD:          0	MERGED:          0	TO_CACHE:     403694

L1D UNIQUE REGIONS ACCESSED: 0
L1D REGIONS CONFLICTS: 0
L1D Cross Page Prefetch Requests: 5778
L1D Same Page Prefetch Requests: 808915
L1D ROI Sum of L1D PQ occupancy: 5154456
L1D PREFETCHES PUSHED FROM L2C: 0
L1I TOTAL     ACCESS:    6837317  HIT:    4087148  MISS:    2750169  HIT %:    59.7771  MISS %:    40.2229   MPKI: 55.0034
L1I LOAD INSTRUCTION	ACCESS:    6408212  HIT:    3658043  MISS:    2750169  HIT %:    57.0837  MISS %:    42.9163  MPKI: 55.0034
L1I PREFETCH INSTRUCTION	ACCESS:     429105  HIT:     429105  MISS:          0  HIT %:        100  MISS %:          0  MPKI: 0

L1I PREFETCH  REQUESTED:     871413  ISSUED:     871413  USEFUL:          0  USELESS:          0
L1I USEFUL LOAD PREFETCHES:          0 PREFETCH ISSUED TO LOWER LEVEL:          0  ACCURACY: -nan
 TIMELY PREFETCHES:          0 LATE PREFETCHES: 0 DROPPED PREFETCHES: 0
L1I AVERAGE MISS LATENCY: 17.8874 cycles
L1I RQ	ACCESS:    9469595	FORWARD:          0	MERGED:    2878981	TO_CACHE:    6590614
L1I PQ	ACCESS:     871413	FORWARD:          0	MERGED:     265832	TO_CACHE:     605581

L1BTB TOTAL     ACCESS:    5678589  HIT:    2070650  MISS:    3607939  HIT %:    36.4642  MISS %:    63.5358   MPKI: 72.1588
L1BTB BRANCH_DIRECT_JUMP	ACCESS:     543106 HIT:     143335 MISS:     399771 AVERAGE STALL: 34.5176 AVERAGE FETCH STALL: 19.2206 AVERAGE FETCH QUEUE STALL: 7.26144 AVERAGE DECODE STALL: 7.18725 AVERAGE EXECUTE STALL: 2.04607e+14
L1BTB BRANCH_INDIRECT	ACCESS:     180921 HIT:      65105 MISS:     115816 AVERAGE STALL: 89.0286 AVERAGE FETCH STALL: 14.7028 AVERAGE FETCH QUEUE STALL: 7.61561 AVERAGE DECODE STALL: 6.71257 AVERAGE EXECUTE STALL: 59.0594
L1BTB BRANCH_CONDITIONAL	ACCESS:    2730485 HIT:    1445820 MISS:    1284665 AVERAGE STALL: 35.1757 AVERAGE FETCH STALL: 21.4097 AVERAGE FETCH QUEUE STALL: 6.6995 AVERAGE DECODE STALL: 6.31867 AVERAGE EXECUTE STALL: 7.50468e+13
L1BTB BRANCH_DIRECT_CALL	ACCESS:     941021 HIT:     104517 MISS:     836504 AVERAGE STALL: 36.4847 AVERAGE FETCH STALL: 21.0844 AVERAGE FETCH QUEUE STALL: 7.43421 AVERAGE DECODE STALL: 7.20974 AVERAGE EXECUTE STALL: 9.83349e+13
L1BTB BRANCH_INDIRECT_CALL	ACCESS:     171031 HIT:      21626 MISS:     149405 AVERAGE STALL: 106.478 AVERAGE FETCH STALL: 18.5395 AVERAGE FETCH QUEUE STALL: 7.30102 AVERAGE DECODE STALL: 6.85649 AVERAGE EXECUTE STALL: 73.2363
L1BTB BRANCH_RETURN	ACCESS:    1112025 HIT:     290247 MISS:     821778 AVERAGE STALL: 35.8097 AVERAGE FETCH STALL: 19.4571 AVERAGE FETCH QUEUE STALL: 6.03277 AVERAGE DECODE STALL: 6.16057 AVERAGE EXECUTE STALL: 1.13953e+14
L1BTB BRANCH_OTHER ACCESS:          0 HIT:          0 MISS:          0 AVERAGE STALL: -nan AVERAGE FETCH STALL: -nan AVERAGE FETCH QUEUE STALL: -nan AVERAGE DECODE STALL: -nan AVERAGE EXECUTE STALL: -nan
L1BTB TOTAL ROB OCCUPANCY AT BTB MISS: 17.8087

L2BTB TOTAL     ACCESS:    3582985  HIT:    2859495  MISS:     723490  HIT %:    79.8076  MISS %:    20.1924   MPKI: 14.4698
L2BTB BRANCH_DIRECT_JUMP	ACCESS:     395675 HIT:     309598 MISS:      86077 AVERAGE STALL: 34.5176 AVERAGE FETCH STALL: 19.2206 AVERAGE FETCH QUEUE STALL: 7.26144 AVERAGE DECODE STALL: 7.18725 AVERAGE EXECUTE STALL: 2.04607e+14
L2BTB BRANCH_INDIRECT	ACCESS:     105602 HIT:      96458 MISS:       9144 AVERAGE STALL: 89.0286 AVERAGE FETCH STALL: 14.7028 AVERAGE FETCH QUEUE STALL: 7.61561 AVERAGE DECODE STALL: 6.71257 AVERAGE EXECUTE STALL: 59.0594
L2BTB BRANCH_CONDITIONAL	ACCESS:    1284665 HIT:    1037282 MISS:     247383 AVERAGE STALL: 35.1757 AVERAGE FETCH STALL: 21.4097 AVERAGE FETCH QUEUE STALL: 6.6995 AVERAGE DECODE STALL: 6.31867 AVERAGE EXECUTE STALL: 7.50468e+13
L2BTB BRANCH_DIRECT_CALL	ACCESS:     836504 HIT:     648871 MISS:     187633 AVERAGE STALL: 36.4847 AVERAGE FETCH STALL: 21.0844 AVERAGE FETCH QUEUE STALL: 7.43421 AVERAGE DECODE STALL: 7.20974 AVERAGE EXECUTE STALL: 9.83349e+13
L2BTB BRANCH_INDIRECT_CALL	ACCESS:     139988 HIT:     107434 MISS:      32554 AVERAGE STALL: 106.478 AVERAGE FETCH STALL: 18.5395 AVERAGE FETCH QUEUE STALL: 7.30102 AVERAGE DECODE STALL: 6.85649 AVERAGE EXECUTE STALL: 73.2363
L2BTB BRANCH_RETURN	ACCESS:     820551 HIT:     659852 MISS:     160699 AVERAGE STALL: 35.8097 AVERAGE FETCH STALL: 19.4571 AVERAGE FETCH QUEUE STALL: 6.03277 AVERAGE DECODE STALL: 6.16057 AVERAGE EXECUTE STALL: 1.13953e+14
L2BTB BRANCH_OTHER ACCESS:          0 HIT:          0 MISS:          0 AVERAGE STALL: -nan AVERAGE FETCH STALL: -nan AVERAGE FETCH QUEUE STALL: -nan AVERAGE DECODE STALL: -nan AVERAGE EXECUTE STALL: -nan
L2BTB TOTAL ROB OCCUPANCY AT BTB MISS: 88.8095

L2C TOTAL     ACCESS:    4537893  HIT:    3967285  MISS:     570608  HIT %:    87.4257  MISS %:    12.5743   MPKI: 11.4122
L2C LOAD INSTRUCTION	ACCESS:    2750168  HIT:    2435123  MISS:     315045  HIT %:    88.5445  MISS %:    11.4555  MPKI: 6.3009
L2C LOAD TRANSLATION INSTRUCTION	ACCESS:        313  HIT:         86  MISS:        227  HIT %:     27.476  MISS %:     72.524  MPKI: 0.00454
L2C LOAD DATA	ACCESS:     753106  HIT:     665455  MISS:      87651  HIT %:    88.3614  MISS %:    11.6386  MPKI: 1.75302
L2C RFO DATA	ACCESS:     291477  HIT:     225125  MISS:      66352  HIT %:    77.2359  MISS %:    22.7641  MPKI: 1.32704
L2C PREFETCH DATA	ACCESS:     211693  HIT:     129411  MISS:      82282  HIT %:    61.1314  MISS %:    38.8686  MPKI: 1.64564
L2C WRITEBACK DATA	ACCESS:     529096  HIT:     511494  MISS:      17602  HIT %:    96.6732  MISS %:    3.32681  MPKI: 0.35204
L2C LOAD TRANSLATION DATA	ACCESS:       2013  HIT:        570  MISS:       1443  HIT %:    28.3159  MISS %:    71.6841  MPKI: 0.02886
L2C TRANSLATION FROM L1D PREFETCHER DATA	ACCESS:         27  HIT:         21  MISS:          6  HIT %:    77.7778  MISS %:    22.2222  MPKI: 0.00012

L2C PREFETCH  REQUESTED:      99249  ISSUED:      99249  USEFUL:       9416  USELESS:      73502
L2C USEFUL LOAD PREFETCHES:       9416 PREFETCH ISSUED TO LOWER LEVEL:      82802  ACCURACY: 11.3717
 TIMELY PREFETCHES:       9416 LATE PREFETCHES: 520 DROPPED PREFETCHES: 0
L2C AVERAGE MISS LATENCY: 37.2223 cycles
L2C RQ	ACCESS:    3797149	FORWARD:          0	MERGED:          0	TO_CACHE:    3797104
L2C WQ	ACCESS:     529096	FORWARD:         45	MERGED:          0	TO_CACHE:     529096
L2C PQ	ACCESS:     219424	FORWARD:          0	MERGED:       3164	TO_CACHE:     216260

L2C Dense regions hint from L2: 0
PSCL5 TOTAL     ACCESS:       4400  HIT:       2200  MISS:       2200  HIT %:         50  MISS %:         50   MPKI: 0.044
PSCL5 LOAD TRANSLATION INSTRUCTION	ACCESS:       4346  HIT:       2173  MISS:       2173  HIT %:         50  MISS %:         50  MPKI: 0.04346
PSCL5 TRANSLATION FROM L1D PREFETCHER INSTRUCTION	ACCESS:         54  HIT:         27  MISS:         27  HIT %:         50  MISS %:         50  MPKI: 0.00054


PSCL4 TOTAL     ACCESS:       4081  HIT:       2038  MISS:       2043  HIT %:    49.9387  MISS %:    50.0613   MPKI: 0.04086
PSCL4 LOAD TRANSLATION INSTRUCTION	ACCESS:       2144  HIT:       2011  MISS:        133  HIT %:    93.7966  MISS %:    6.20336  MPKI: 0.00266
PSCL4 TRANSLATION FROM L1D PREFETCHER INSTRUCTION	ACCESS:         27  HIT:         27  MISS:          0  HIT %:        100  MISS %:          0  MPKI: 0
PSCL4 LOAD TRANSLATION DATA	ACCESS:       1883  HIT:          0  MISS:       1883  HIT %:          0  MISS %:        100  MPKI: 0.03766
PSCL4 TRANSLATION FROM L1D PREFETCHER DATA	ACCESS:         27  HIT:          0  MISS:         27  HIT %:          0  MISS %:        100  MPKI: 0.00054


PSCL3 TOTAL     ACCESS:       4306  HIT:       2147  MISS:       2159  HIT %:    49.8607  MISS %:    50.1393   MPKI: 0.04318
PSCL3 LOAD TRANSLATION INSTRUCTION	ACCESS:       2336  HIT:       2120  MISS:        216  HIT %:    90.7534  MISS %:    9.24658  MPKI: 0.00432
PSCL3 TRANSLATION FROM L1D PREFETCHER INSTRUCTION	ACCESS:         27  HIT:         27  MISS:          0  HIT %:        100  MISS %:          0  MPKI: 0
PSCL3 LOAD TRANSLATION DATA	ACCESS:       1916  HIT:          0  MISS:       1916  HIT %:          0  MISS %:        100  MPKI: 0.03832
PSCL3 TRANSLATION FROM L1D PREFETCHER DATA	ACCESS:         27  HIT:          0  MISS:         27  HIT %:          0  MISS %:        100  MPKI: 0.00054


PSCL2 TOTAL     ACCESS:       4260  HIT:       2060  MISS:       2200  HIT %:    48.3568  MISS %:    51.6432   MPKI: 0.044
PSCL2 LOAD TRANSLATION INSTRUCTION	ACCESS:       2302  HIT:       2033  MISS:        269  HIT %:    88.3145  MISS %:    11.6855  MPKI: 0.00538
PSCL2 TRANSLATION FROM L1D PREFETCHER INSTRUCTION	ACCESS:         27  HIT:         27  MISS:          0  HIT %:        100  MISS %:          0  MPKI: 0
PSCL2 LOAD TRANSLATION DATA	ACCESS:       1904  HIT:          0  MISS:       1904  HIT %:          0  MISS %:        100  MPKI: 0.03808
PSCL2 TRANSLATION FROM L1D PREFETCHER DATA	ACCESS:         27  HIT:          0  MISS:         27  HIT %:          0  MISS %:        100  MPKI: 0.00054


LLC TOTAL     ACCESS:     645639  HIT:     619072  MISS:      26567  HIT %:    95.8852  MISS %:    4.11484   MPKI: 0.53134
LLC LOAD INSTRUCTION	ACCESS:     315045  HIT:     313920  MISS:       1125  HIT %:    99.6429  MISS %:   0.357092  MPKI: 0.0225
LLC LOAD TRANSLATION INSTRUCTION	ACCESS:        227  HIT:        194  MISS:         33  HIT %:    85.4626  MISS %:    14.5374  MPKI: 0.00066
LLC LOAD DATA	ACCESS:      87192  HIT:      83850  MISS:       3342  HIT %:    96.1671  MISS %:    3.83292  MPKI: 0.06684
LLC RFO DATA	ACCESS:      66290  HIT:      54412  MISS:      11878  HIT %:    82.0818  MISS %:    17.9182  MPKI: 0.23756
LLC PREFETCH DATA	ACCESS:      82802  HIT:      72946  MISS:       9856  HIT %:    88.0969  MISS %:    11.9031  MPKI: 0.19712
LLC WRITEBACK DATA	ACCESS:      92634  HIT:      92407  MISS:        227  HIT %:    99.7549  MISS %:    0.24505  MPKI: 0.00454
LLC LOAD TRANSLATION DATA	ACCESS:       1443  HIT:       1337  MISS:        106  HIT %:    92.6542  MISS %:    7.34581  MPKI: 0.00212
LLC TRANSLATION FROM L1D PREFETCHER DATA	ACCESS:          6  HIT:          6  MISS:          0  HIT %:        100  MISS %:          0  MPKI: 0

LLC AVERAGE MISS LATENCY: 174.645 cycles
LLC RQ	ACCESS:     470204	FORWARD:          0	MERGED:          0	TO_CACHE:     470203
LLC WQ	ACCESS:      92634	FORWARD:          1	MERGED:          0	TO_CACHE:      92634
LLC PQ	ACCESS:      82802	FORWARD:          0	MERGED:          0	TO_CACHE:      82802

LLC Dense regions hint to LLC: 0

RAW hits: 1663701
Loads Generated: 12609767
Loads sent to L1D: 10946068
Stores Generated: 6906960
Stores sent to L1D: 6906967
Major fault: 0 Minor fault: 2327
Allocated PAGES: 2327

stream: 
stream:times selected: 1238754
stream:pref_filled: 126012
stream:pref_useful: 29335
stream:pref_late: 9502
stream:misses: 10594
stream:misses_by_poll: 0

CS: 
CS:times selected: 197706
CS:pref_filled: 74023
CS:pref_useful: 50049
CS:pref_late: 10882
CS:misses: 26394
CS:misses_by_poll: 2

CPLX: 
CPLX:times selected: 1039832
CPLX:pref_filled: 25632
CPLX:pref_useful: 7809
CPLX:pref_late: 4365
CPLX:misses: 132970
CPLX:misses_by_poll: 2

NL_L1: 
NL:times selected: 12848
NL:pref_filled: 1049
NL:pref_useful: 282
NL:pref_late: 538
NL:misses: 2092
NL:misses_by_poll: 0

total selections: 2489140
total_filled: 105541
total_useful: 50508
total_late: 27754
total_polluted: 4
total_misses_after_warmup: 800151
conflicts: 5665376

test: 120149

DRAM Statistics
 CHANNEL 0
 RQ ROW_BUFFER_HIT:       9300  ROW_BUFFER_MISS:      17017
 DBUS_CONGESTED:         16
 WQ ROW_BUFFER_HIT:       1575  ROW_BUFFER_MISS:      10774  FULL:          0

 AVG_CONGESTED_CYCLE: 3

CPU 0 Branch Prediction Accuracy: 99.8183% MPKI: 0.33278 Average ROB Occupancy at Mispredict: 112.29
Branch types
NOT_BRANCH: 40841333 81.6827%
BRANCH_DIRECT_JUMP: 543106 1.08621%
BRANCH_INDIRECT: 180921 0.361842%
BRANCH_CONDITIONAL: 6210145 12.4203%
BRANCH_DIRECT_CALL: 941021 1.88204%
BRANCH_INDIRECT_CALL: 171031 0.342062%
BRANCH_RETURN: 1112025 2.22405%
BRANCH_OTHER: 0 0%

DRAM PAGES: 1048576
Allocated PAGES: 2327
Average_ROB_Occupancy: 106.085
Average_Decode_Occupancy: 12.8998
Average_FTQ_Occupancy: 6.35317
Indirect max targets: 14 Average targets: 1.15203
Branch_type:  BRANCH_DIRECT_JUMP:  Count Percentage: 3.73149 6.46188 3.5017 14.4725 1.69057 6.28942 0.97926 62.8732 
Branch_type:  BRANCH_INDIRECT:  Count Percentage: 11.7646 3.39274 12.1568 23.3968 3.35565 14.4955 1.08284 30.3551 
Branch_type:  BRANCH_CONDITIONAL:  Count Percentage: 22.0235 2.82196 2.45874 8.87685 1.16662 4.48221 0.577418 57.5927 
Branch_type:  BRANCH_DIRECT_CALL:  Count Percentage: 0.765579 1.29424 1.39204 5.39422 1.96913 2.65415 0.796977 85.7337 
Branch_type:  BRANCH_INDIRECT_CALL:  Count Percentage: 9.51968 0.551227 2.98404 4.81572 0 3.85275 0 78.2766 
Branch_type:  BRANCH_RETURN:  Count Percentage: 4.40139 0.72069 3.66244 9.02289 2.26023 5.29992 1.01244 73.62 
Branch_type:  BRANCH_DIRECT_JUMP:  Total Count: 40483 70105 37990 157012 18341 68234 10624 682112 
Branch_type:  BRANCH_INDIRECT:  Total Count: 42502 12257 43919 84526 12123 52368 3912 109664 
Branch_type:  BRANCH_CONDITIONAL:  Total Count: 2733700 350281 305196 1101855 144809 556362 71673 7148802 
Branch_type:  BRANCH_DIRECT_CALL:  Total Count: 14435 24403 26247 101708 37128 50044 15027 1616509 
Branch_type:  BRANCH_INDIRECT_CALL:  Total Count: 32623 1889 10226 16503 0 13203 0 268246 
Branch_type:  BRANCH_RETURN:  Total Count: 98106 16064 81635 201118 50380 118134 22567 1640972 
Number of unique branch instructions: 10407
Upper 32 bits: 
aaaa
ffff
ffff0000
Unique upper 32 bits: 3
Unique upper 36 bits: 3
Unique upper 40 bits: 5
Unique upper 44 bits: 32
Unique upper 48 bits: 156
Offset_3 4310
Offset_4 258
Offset_5 473
Offset_6 537
Offset_7 615
Offset_8 538
Offset_9 489
Offset_10 410
Offset_11 343
Offset_12 277
Offset_13 223
Offset_14 229
Offset_15 199
Offset_16 232
Offset_17 164
Offset_18 135
Offset_19 246
Offset_20 147
Offset_21 246
Offset_22 408
Offset_23 245
Offset_24 333
Offset_25 88
Offset_47 82
Offset_64 1
decode_dispatch_called: 19460573 40.4269
Dispatch_width: 0 9368247 48.1396 19.4614
Dispatch_width: 1 544609 2.79852 1.13136
Dispatch_width: 2 697498 3.58416 1.44897
Dispatch_width: 3 459433 2.36084 0.954415
Dispatch_width: 4 1663948 8.55035 3.45665
Dispatch_width: 5 334991 1.72138 0.695902
Dispatch_width: 6 6391847 32.8451 13.2783
Empty_decode_cycles: 28677074 59.5731
ROB_full_cycles: 2147075 4.46028
Starvation_cycles_per_kilo_instr: 395.987
Starvation_cycles_per_kilo_instr_3: 375.998
Starvation_cycles_per_kilo_instr_0: 358.982
Branch_type_1  (3,1)  (4,7)  (5,36)  (6,75)  (7,118)  (8,135)  (9,129)  (10,106)  (11,79)  (12,44)  (13,4)  (14,2)  (15,3)  (16,4)  (18,1)  (19,4)  (20,2)  (21,1)  (22,3)  (23,2)  (24,10)  (25,12) 
Branch_type_2  (3,1)  (5,1)  (8,3)  (9,3)  (12,1)  (13,1)  (14,1)  (16,3)  (17,2)  (20,2)  (21,2)  (23,5)  (24,1)  (47,37) 
Branch_type_3  (3,4308)  (4,251)  (5,432)  (6,445)  (7,463)  (8,337)  (9,269)  (10,174)  (11,138)  (12,49)  (13,4)  (21,1) 
Branch_type_4  (6,4)  (7,8)  (8,30)  (9,52)  (10,61)  (11,63)  (12,102)  (13,100)  (14,100)  (15,96)  (16,105)  (17,76)  (18,62)  (19,120)  (20,74)  (21,130)  (22,219)  (23,138)  (24,194)  (25,72) 
Branch_type_5  (8,2)  (9,1)  (10,3)  (11,5)  (12,3)  (13,14)  (14,16)  (15,11)  (16,20)  (17,12)  (18,16)  (19,12)  (20,12)  (21,13)  (22,42)  (23,26)  (24,36) 
Branch_type_6  (5,4)  (6,13)  (7,26)  (8,31)  (9,35)  (10,66)  (11,58)  (12,78)  (13,100)  (14,110)  (15,89)  (16,100)  (17,74)  (18,56)  (19,110)  (20,57)  (21,99)  (22,144)  (23,74)  (24,92)  (25,4)  (47,45)  (64,1) 
aaaaab1fc620: 2ac9e77e 2aca717c 2aca8eff 2acaf6bc 2acaf9aa 2acaf9f1 2acb1abc 2acb1b7f 2acd4e22 2acdb712 2acf5f9e 2ad0ef44 2ad3f15c 2ad414e6 2ad60e42 2ad8609c 2ad99830 2ada35cc 2ada4676 2ada6612 2adf183e 2adf30e5 2adf5602 2adf785c 2ae11572 2aeb2dcf 2aee101b 2aee1ae1 2b156a8c 2b156b61 2b156bea 2b167f35 2b177656 2b17feec 2b1a3e5a 
aaaaac68f310: 2ac9ec8c 2ac9fb44 2ac9fbd2 2aca59ab 2acac04c 2acaf6e0 2acaf6ec 2acaf6f9 2acaf700 2acaf708 2acf2d90 2ad3cfbd 2ad3cfc4 2ad3d000 2ad3f35f 2ad4955d 2ad49571 2ad4f3f2 2ad4f400 2ad5f240 2ad5f37c 2ad5f86a 2ad5f86f 2ad5f880 2ad5fc0d 2ad5fc14 2ad5fc21 2ad5fe1b 2ad873bb 2ad873e3 2ad8a6b2 2ad9086e 2ad93096 2ad9bbb2 2ada152c 2ada1554 2ada3332 2ada5522 2adf3130 2adf313c 2adf3a3f 2adf3bd9 2adf5788 2adf7a8d 2ae07f6b 2ae0857a 2ae0857e 2ae08630 2ae08634 2ae08637 2ae08642 2ae0866f 2ae086e4 2ae086ec 2ae08717 2ae0871b 2aee0170 2aee1d38 2aee75f4 2aee7662 2aee85ca 2aee85e4 2aee8eef 2af70b84 2af74e8f 2b17d843 
aaaaac690ef0: 2aca598b 2acb111b 2acb175f 2acb1772 2acbfaf4 2acbfb00 2acf374f 2acf6d43 2acfa5c8 2ad3baf1 2ad3d4ac 2ad3d4b8 2ad3f1cf 2ad486b2 2ad5a59b 2ad5fc64 2ad5fcf9 2ad6121c 2ad906e9 2ad907bf 2ad9bada 2ada16ce 2ada1ad5 2ada43df 2ada64c0 2ada72ee 2adeb71a 2adf3bcb 2adf7a38 2adf7c6a 2adf8872 2adf8880 2adf9959 2adf9abe 2ae07f78 2ae08503 2ae08754 2ae12e80 2aea3bea 2aecb509 2aee00b0 2aee2bdd 2aee5467 2aee5601 2aee8f20 2af703fd 2af7048b 2af74e74 
Unique trigger count: 
1 9935
2 521
3 91
4 32
5 7
6 8
7 9
8 1
9 4
10 1
11 1
12 1
13 3
16 3
17 2
19 3
35 1
48 1
66 1
BTB PER SET UNIQUE ADDR: 1 2 2 2 0 0 1 1 3 0 2 0 1 1 0 1 2 1 1 2 0 1 1 2 1 2 1 2 1 1 2 2 2 1 2 0 0 3 4 0 1 2 2 3 1 0 2 1 4 1 1 2 2 0 0 2 3 3 1 1 1 3 2 2 0 4 4 0 2 2 5 1 1 2 1 1 2 6 2 1 1 2 1 4 3 1 1 4 3 2 3 3 2 3 3 0 1 3 0 1 3 2 2 3 2 2 1 1 3 0 1 1 3 2 1 3 1 2 1 0 2 2 2 0 1 1 1 1 2 3 3 0 1 1 2 1 0 0 1 2 2 2 2 1 1 0 1 3 3 2 1 5 1 2 1 0 0 2 2 1 0 0 0 1 3 2 0 1 5 1 2 2 2 1 1 0 1 1 3 1 1 2 5 2 2 2 2 0 1 1 4 1 1 2 1 2 2 1 0 1 2 1 1 0 0 0 1 0 0 0 0 2 2 1 2 1 1 2 1 0 0 0 1 2 2 0 2 2 0 2 5 2 1 1 1 2 2 1 1 1 1 0 1 1 5 3 1 1 2 1 1 1 1 1 0 4 2 2 2 2 2 3 2 2 2 4 3 0 2 1 2 2 1 2 3 2 2 0 3 2 2 2 1 1 2 3 2 1 1 1 0 0 1 3 0 1 3 2 0 1 2 2 1 1 2 2 2 2 3 3 2 1 2 2 3 0 2 2 1 1 1 2 2 3 0 2 1 3 0 0 3 0 2 2 3 1 1 3 4 0 3 0 0 1 1 2 1 2 0 2 1 2 2 2 2 2 1 0 3 0 0 2 1 2 3 2 1 0 0 0 3 1 2 0 1 2 2 1 2 3 0 0 1 3 0 0 2 1 2 1 1 2 2 2 2 0 3 0 0 2 3 1 2 1 1 0 1 2 0 1 0 0 0 1 1 0 4 1 1 2 1 1 2 2 2 3 0 0 1 3 0 0 4 2 3 3 2 1 0 0 0 4 3 2 2 1 1 2 1 1 3 0 0 0 3 0 1 2 2 1 3 0 3 2 0 0 1 0 1 3 0 1 1 1 3 1 0 1 0 0 0 1 1 2 0 2 2 0 3 1 2 1 1 2 0 2 1 1 2 0 3 0 0 1 0 2 1 0 0 2 3 2 2 3 1 0 1 4 2 4 1 0 4 1 3 3 0 4 3 1 4 1 2 2 1 4 0 0 3 1 0 4 3 1 5 1 6 3 4 4 1 3 2 3 0 1 1 0 0 2 6 0 1 2 1 0 0 1 2 4 3 0 2 4 1 0 0 1 0 0 0 1 0 0 1 0 0 4 1 2 2 2 0 1 1 2 2 0 0 1 0 0 1 3 0 0 1 1 2 0 2 1 2 1 2 1 2 0 2 1 3 1 4 0 3 1 1 2 1 0 3 2 0 1 2 3 0 0 1 2 4 1 3 2 0 0 1 0 2 0 1 1 3 2 2 0 3 0 1 4 3 2 4 3 2 1 2 1 0 0 4 1 1 0 5 2 0 1 3 2 1 0 1 2 2 2 1 2 2 1 0 3 1 1 1 3 3 3 2 3 0 2 0 2 1 1 0 1 0 0 1 2 0 1 2 0 1 1 0 2 1 0 1 1 0 1 1 1 0 2 2 2 1 0 1 1 5 1 1 0 1 2 1 2 1 1 3 1 3 2 0 0 1 2 1 1 2 3 1 0 1 1 0 2 0 1 3 1 0 1 2 2 0 0 1 2 3 1 1 1 2 1 0 0 3 3 3 4 0 0 1 3 0 0 3 3 3 1 1 1 2 2 2 2 1 1 1 4 0 2 0 2 1 1 2 1 1 0 0 3 3 0 1 0 2 1 2 1 1 4 1 1 2 1 3 0 1 0 3 2 0 1 0 1 0 1 3 2 2 0 2 0 3 1 2 2 0 0 1 0 0 0 0 1 4 1 1 0 2 0 1 1 1 2 1 0 2 1 3 1 2 1 2 0 0 0 1 2 0 0 2 0 2 2 1 2 4 0 2 1 1 0 0 1 1 3 1 1 0 4 3 3 0 0 1 2 0 1 1 2 4 1 3 1 2 0 3 0 2 1 3 1 4 2 2 1 1 1 0 1 1 1 0 3 2 2 1 2 1 1 1 0 4 1 1 0 4 2 2 1 2 1 2 2 2 4 8 2 2 2 1 1 0 2 2 1 3 4 1 2 3 2 1 3 2 1 1 1 2 1 3 2 1 2 2 1 2 2 1 4 0 1 2 1 2 3 3 2 1 2 2 0 3 0 1 2 3 2 1 3 3 1 7 4 0 2 2 1 1 1 3 5 2 1 3 0 0 1 1 0 2 0 1 3 0 2 3 1 4 4 0 1 3 2 1 3 2 2 2 1 0 1 1 0 2 0 1 2 3 2 1 5 3 2 0 1 7 0 1 1 1 1 2 2 1 4 2 3 2 4 1 4 2 2 1 0 4 0 1 2 1 5 1 0 3 1 1 1 2 1 1 2 3 4 2 2 2 1 1 3 4 2 1 1 1 1 3 2 1 4 1 2 2 1 2 3 0 1 3 1 0 2 1 0 1 2 1 1 1 2 1 4 2 1 1 1 3 2 1 0 2 0 0 3 2 1 2 2 1 4 0 2 4 0 3 1 1 2 2 4 2 4 0 6 4 0 2 1 2 0 0 1 3 0 1 1 2 4 1 0 0 2 3 2 1 1 0 0 1 4 1 4 2 2 0 2 0 0 2 4 5 0 4 0 0 1 1 1 4 0 2 3 2 1 1 1 0 4 1 3 0 1 1 5 3 1 2 2 0 2 3 3 1 3 2 2 0 0 3 3 4 1 2 2 0 1 3 2 3 1 1 1 1 1 5 3 4 0 0 2 1 1 2 1 3 0 0 1 2 3 1 0 3 1 1 0 1 1 5 0 1 2 0 4 2 0 2 1 3 2 1 1 2 1 2 2 0 3 2 0 0 3 1 1 2 2 1 1 0 2 1 1 1 2 0 2 3 1 1 2 0 1 2 0 2 2 0 1 1 1 2 2 1 0 2 0 1 1 2 2 1 1 1 1 1 4 1 3 2 1 2 0 1 1 1 3 2 2 1 2 1 2 0 1 3 2 3 1 4 2 1 0 1 2 3 1 1 1 3 0 5 2 1 3 1 0 3 3 1 1 1 3 0 2 2 1 1 1 2 2 0 1 1 3 2 1 2 2 0 2 1 0 1 2 1 1 1 0 0 2 0 0 1 1 0 2 1 3 4 1 1 0 1 1 1 0 1 0 0 3 1 0 1 1 0 1 1 0 0 0 0 0 0 1 0 0 1 0 2 0 1 1 1 0 1 0 0 5 1 0 1 1 3 1 1 0 1 2 1 0 2 0 1 1 1 1 1 0 2 0 3 1 0 1 3 0 0 1 0 2 1 2 2 1 2 2 2 2 0 1 1 0 0 0 3 0 1 1 0 0 0 1 0 1 1 0 1 2 2 1 1 1 2 2 0 1 1 0 0 2 1 0 0 1 2 1 2 1 0 1 1 4 3 0 0 1 2 1 0 0 3 1 3 0 2 1 2 2 1 3 3 3 5 0 1 1 2 2 1 5 4 3 2 3 4 0 0 2 2 1 1 2 1 1 2 0 2 1 0 1 3 0 1 1 3 1 2 3 3 1 0 1 3 0 2 3 2 1 2 1 3 3 1 1 1 2 2 1 1 4 2 1 1 1 1 3 3 1 1 1 1 0 2 1 2 3 1 0 1 1 0 3 3 1 0 2 2 0 1 2 2 1 1 2 1 0 0 3 2 1 0 0 0 3 1 0 2 1 3 2 2 1 4 1 2 6 3 2 3 2 0 3 2 1 1 1 2 0 0 2 3 1 2 0 0 3 3 1 2 2 0 0 1 2 3 2 2 1 2 2 2 1 0 2 0 1 2 1 0 0 1 1 0 1 2 0 3 0 4 1 1 0 2 1 1 3 0 3 0 0 0 1 1 1 5 0 2 1 0 1 3 1 0 1 0 0 1 1 1 1 2 2 3 0 3 0 0 1 2 1 1 6 1 0 3 2 3 2 4 2 5 1 3 3 0 2 0 3 2 4 4 0 2 1 5 0 4 0 3 2 2 2 2 1 1 0 1 2 0 2 0 1 3 3 2 1 5 2 2 2 4 0 2 0 3 1 3 2 2 2 2 1 0 2 3 2 0 1 1 2 0 0 0 3 0 1 1 2 0 2 2 1 3 1 2 1 2 2 3 0 1 2 3 1 0 2 2 1 3 0 0 1 1 0 0 0 0 1 1 1 2 1 1 2 0 0 1 1 2 1 2 1 2 1 2 3 2 0 2 1 0 2 1 2 1 2 1 0 1 0 4 1 0 1 3 1 3 2 2 2 0 3 1 1 0 0 2 2 0 5 2 4 1 2 2 5 1 0 0 1 4 1 2 0 2 0 3 1 0 1 2 3 2 6 2 0 3 0 1 1 1 1 2 1 0 2 0 1 2 3 1 0 0 3 4 1 0 0 3 3 1 1 3 3 1 0 3 3 0 1 2 4 0 0 0 2 1 0 3 0 1 0 2 2 2 0 2 1 2 1 2 1 0 2 5 2 3 0 1 2 1 0 1 0 2 1 1 0 1 0 4 2 1 2 2 1 3 2 3 3 1 1 3 3 0 2 2 1 4 4 2 2 2 2 1 2 1 2 3 2 1 4 5 2 2 2 2 2 2 1 1 1 0 1 1 0 2 2 0 2 0 1 1 0 1 2 1 3 0 0 0 2 1 3 1 0 0 2 1 1 0 0 0 2 1 2 0 1 3 1 1 2 0 0 3 0 1 2 1 0 1 0 1 0 0 1 0 2 1 0 0 4 1 3 1 2 3 1 2 2 0 0 0 2 1 0 5 2 2 2 3 1 3 2 2 1 2 1 3 1 1 2 1 4 1 2 1 1 2 3 2 3 1 0 4 2 2 1 3 5 4 3 3 1 2 1 3 0 1 1 3 2 0 1 3 3 2 0 2 2 2 1 3 3 1 2 2 2 1 2 2 2 3 3 1 2 3 4 1 2 3 1 3 3 1 4 2 1 2 2 3 3 1 1 3 3 3 0 1 1 1 1 1 2 1 1 0 1 3 1 2 0 2 1 2 2 0 1 0 0 4 2 4 5 0 0 1 2 2 1 1 2 2 2 1 3 2 1 2 1 2 0 1 4 0 1 2 1 1 0 1 2 2 0 0 2 0 1 2 0 5 1 4 2 1 2 0 0 0 3 0 4 1 0 2 1 2 1 1 1 0 1 2 0 1 0 3 2 1 0 1 0 2 1 4 4 1 1 2 5 2 2 2 0 1 3 1 1 1 0 0 3 2 1 2 2 1 0 1 0 1 3 4 0 0 3 4 1 2 4 2 1 3 1 1 0 1 1 2 4 2 2 3 3 0 1 2 2 0 1 1 4 3 2 1 3 2 1 6 3 1 3 3 4 3 1 2 0 4 4 2 0 1 1 2 0 1 2 1 1 1 1 2 4 2 0 1 0 1 3 4 3 2 2 2 2 0 1 0 0 1 2 3 0 3 0 1 1 0 1 4 1 2 2 1 2 3 0 2 1 2 1 2 5 1 1 2 1 1 3 1 2 2 1 1 2 5 1 0 3 1 4 3 3 4 3 2 1 0 3 4 3 2 0 4 4 1 2 2 0 1 0 0 2 1 0 3 1 2 0 2 2 1 4 2 2 0 1 2 1 1 1 1 0 1 2 2 1 0 0 1 4 0 1 1 2 3 1 2 3 1 2 3 3 0 3 3 2 0 2 1 4 3 0 1 2 1 1 2 1 3 2 0 1 3 0 2 5 2 3 1 3 1 2 2 1 2 3 1 2 4 0 1 1 4 1 0 3 1 3 2 3 1 2 3 2 1 5 4 1 1 0 0 0 0 5 3 1 3 4 2 0 1 1 2 2 2 0 4 2 3 4 1 3 3 3 0 2 3 1 0 1 0 1 0 0 1 0 1 3 3 2 0 2 1 2 1 3 2 3 3 1 3 1 2 3 1 1 3 0 1 1 0 0 2 3 1 4 3 1 1 1 2 0 1 3 1 0 3 0 2 1 3 2 4 2 1 3 1 2 4 4 1 5 3 2 0 1 2 2 3 0 3 2 5 1 2 4 1 2 1 1 1 0 3 1 2 2 0 4 1 1 2 1 4 1 3 1 2 3 4 2 0 1 6 1 0 1 1 0 0 0 1 0 0 2 2 1 4 4 1 2 1 4 0 2 1 2 0 1 1 2 1 1 1 1 3 0 1 3 0 1 2 1 0 3 3 1 2 2 2 3 4 3 6 2 2 2 3 3 0 3 2 2 2 1 1 2 1 3 0 3 5 3 0 2 0 3 1 1 2 1 2 4 5 1 2 3 4 1 3 1 4 3 2 1 2 1 2 3 3 0 2 3 0 2 0 1 1 2 4 2 0 1 2 2 3 0 2 1 1 1 2 2 1 1 2 0 3 0 3 2 1 3 4 2 3 2 4 2 3 3 2 2 3 2 3 4 2 6 2 1 4 2 2 4 3 4 0 3 3 4 3 1 0 2 2 3 1 4 3 4 6 3 1 0 3 5 2 3 2 2 1 0 2 3 0 0 4 2 1 2 4 2 3 4 3 0 2 1 0 3 0 4 0 1 4 0 2 4 3 2 2 1 0 2 3 6 1 3 5 5 3 3 5 3 1 6 3 1 0 1 3 4 5 3 3 1 5 0 1 4 1 3 2 3 2 1 1 2 2 3 0 2 1 2 4 1 2 4 0 3 4 0 4 1 0 1 4 3 2 2 1 0 1 2 1 2 2 4 2 5 3 4 2 3 2 1 1 2 3 1 1 2 2 1 3 1 3 3 1 4 4 0 2 0 1 1 2 1 2 1 2 1 1 2 1 2 1 3 4 1 0 2 3 2 3 1 1 2 3 1 3 2 1 4 1 3 0 2 0 1 2 1 0 1 1 1 3 0 0 1 2 1 1 1 0 2 0 4 2 1 2 0 3 1 1 4 0 1 3 3 2 3 0 3 2 2 1 1 0 0 0 1 1 1 3 2 2 2 3 1 3 3 5 1 1 3 4 1 2 4 2 2 4 0 5 1 3 2 2 2 3 2 3 4 2 2 4 4 2 2 2 0 2 1 0 4 1 1 1 1 3 2 1 1 4 1 1 2 2 2 4 0 5 1 2 4 1 1 3 2 1 3 1 2 2 2 2 2 2 3 0 2 2 4 0 4 3 1 3 2 2 1 4 0 4 2 1 1 1 4 2 0 1 0 1 1 3 0 1 2 3 1 3 4 1 1 1 1 3 3 0 3 3 2 0 2 2 0 3 0 1 4 3 1 1 1 1 0 2 0 0 1 4 1 2 1 1 3 2 1 2 0 3 1 3 4 6 1 1 3 3 3 2 1 0 2 2 2 0 0 3 2 1 2 2 2 0 3 1 1 1 5 2 3 3 4 0 1 3 1 1 1 3 1 4 6 2 3 0 2 3 4 1 4 1 6 3 1 1 1 1 2 2 2 1 2 2 3 5 2 3 2 3 2 3 2 1 4 3 3 1 1 2 1 3 1 1 1 4 3 2 0 2 0 0 1 3 7 3 2 1 3 2 2 2 3 2 1 1 1 1 2 3 1 3 2 3 3 1 0 2 2 0 1 0 3 0 4 4 0 0 1 3 1 2 2 5 0 4 3 1 3 1 4 0 2 2 2 1 1 3 1 3 0 0 2 4 1 2 3 3 4 2 4 2 1 2 0 1 0 2 0 3 1 2 1 0 4 0 1 0 1 1 2 4 0 3 2 2 0 3 1 4 2 0 1 3 1 1 2 1 2 1 0 2 2 0 2 2 2 1 2 5 2 4 2 2 3 2 3 2 1 3 0 2 2 2 3 2 1 2 0 1 0 2 2 2 3 1 3 1 1 2 0 3 2 5 0 0 2 1 2 3 3 2 2 3 0 0 1 2 0 0 2 1 3 2 2 1 0 2 2 1 3 1 3 0 2 1 2 4 0 0 0 1 2 2 1 0 3 1 1 2 2 1 3 0 4 2 2 2 0 2 0 3 3 3 3 2 2 0 3 1 2 1 1 3 0 2 2 1 3 1 1 3 2 1 7 3 3 2 1 2 0 1 3 2 1 0 0 1 1 1 0 2 2 2 3 3 0 3 1 4 2 3 0 0 4 0 1 4 3 0 4 1 2 1 3 2 2 0 2 0 3 2 1 0 3 0 2 1 2 3 1 2 0 1 3 2 3 1 1 3 2 4 1 2 2 1 5 2 1 1 0 2 2 2 3 1 2 2 0 1 3 1 2 2 2 1 0 1 4 0 2 1 2 3 1 2 2 4 1 3 1 1 1 4 1 3 3 6 0 1 4 1 3 3 3 4 4 1 3 0 2 3 0 3 2 1 2 3 3 1 2 0 3 1 2 1 2 1 2 0 2 2 1 2 2 0 3 3 2 2 1 2 7 0 3 1 2 2 2 1 3 1 3 1 3 1 3 2 2 2 2 3 0 2 4 0 6 0 4 2 1 1 2 1 0 2 1 2 2 3 3 2 2 2 0 2 3 2 1 2 2 0 2 0 3 5 2 1 4 4 1 2 1 4 1 1 1 2 3 0 1 1 0 0 2 1 0 2 0 1 1 1 1 1 2 0 3 1 3 3 2 0 1 0 2 1 1 2 1 1 0 0 1 2 2 2 2 1 0 1 1 0 1 0 2 2 3 0 2 1 0 2 1 0 1 1 2 1 1 1 0 3 1 0 2 3 0 0 2 3 2 2 1 2 2 0 1 2 4 0 2 1 3 2 1 0 0 2 0 1 1 2 2 2 2 3 4 3 1 1 2 2 3 1 2 2 1 0 1 3 1 3 2 3 1 1 1 4 1 1 3 3 1 1 6 1 1 5 3 1 2 2 0 2 4 2 1 3 0 3 0 0 2 2 2 2 4 1 1 1 1 2 5 3 0 0 3 1 0 0 1 0 0 2 2 1 1 2 1 3 0 2 1 0 0 2 1 2 1 5 2 1 2 1 3 1 1 1 4 3 0 0 2 0 3 0 0 0 0 3 3 3 2 0 0 3 1 1 0 1 1 1 2 1 1 2 1 2 3 2 1 0 5 1 2 2 1 2 0 0 2 1 1 2 1 1 0 1 1 3 1 3 1 2 1 1 1 1 2 1 0 
BTB PER SET COUNT: 1 2 2 3 0 0 1 1 2494 0 2 0 1 1 0 1 2 1 1 2 0 1 1 2 1 2 1 3 1460 1 2 2 2 1 2 0 0 1565 3248 0 1 6 3 485 1 0 2 1 3893 2 1 2 2 0 0 2 1566 4383 1 1 1 6 2 2 0 1851 1890 0 2 2 5348 1 1 2 1 1 473 2568 2 1 2 2 1 1659 727 1 1 29 4355 2 641 528 2 2947 14 0 1 13 0 1 10 2 3 945 3 3 1 1 1417 0 1 1 942 2 1 727 1 2 1 0 2 2 2 0 1 1 1 1 2 14 1417 0 1 2 2 1 0 0 1 2 2 2 2 1 1 0 1 2930 1411 2 1 5253 1 2 1 0 0 2 2 1 0 0 0 1 5 2 0 1 4891 1 2 2 2 1 1 0 1 1 999 1 1 2 7296 2 2 3 2 0 1 1 4371 1 1 2 1 2 2 1 0 2 2 1 1 0 0 0 1 0 0 0 0 4 2 1 3 1 1 2 1 0 0 0 1 2 2 0 2 28 0 2 2303 3 1 1 1 2 2 1 1 1 1 0 1 1 5337 8 1 2 2 1 1 1 1 1 0 3414 2 2 3 2 2 1418 2 2 2 3902 946 0 2 1 2 2 1 2 14 2 2 0 2946 2 2 2 1 1 2 1889 2 1 1 1 0 0 1 9 0 1 39 2 0 1 2 2 1 1 2 2 2 2 1417 946 2 1 2 3 942 0 2 2 1 1 1 2 2 14 0 2 1 13 0 0 1420 0 3 2 2835 1 945 12 945 0 9 0 0 944 944 3 1 2 0 3 1 2 2 2 2 2 1 0 2928 0 0 2 1 2 1312 2 1 0 0 0 37 1 2 0 1 2 2 1 2 17 0 0 1 1564 0 0 2 1 2 1 1 2 2 2 2 0 2969 0 0 3 1419 1 2 1 1 0 1460 2 0 988 0 0 0 1 1 0 25 1 1 88 1 1 2 2 3 14 0 0 1 1417 0 0 1890 2 720 1419 2 1 0 0 0 952 1417 2 2 1 1 2 1 1 1412 0 0 0 1411 0 1 2 2 1 10 0 1418 2 0 0 2 0 1 50 0 1 1 472 5 1 0 1 0 0 0 1 1 473 0 2 2 0 8 1 2 1 2 2 0 2 1 2 2 0 946 0 0 1 0 3 1 0 0 2 1418 2 2 8 2 0 1 4376 2 1428 1 0 938 1 8 6 0 9 2950 1 4276 1 2 3 1 5346 0 0 16 1 0 1890 2904 1 3411 1 1010 14 2943 4828 1 1411 5 1414 0 1 5 0 0 2 7754 0 1 2 1 0 0 1 2 1456 4354 0 3 3889 1 0 0 1 0 0 0 1 0 0 3 0 0 945 1 3 2 2 0 3 988 2 2 0 0 1 0 0 1 1564 0 0 1 1 3 0 2 1 2 1 2 1 1073 0 2 1 15 1 1421 0 5 1 1 2 1 0 3409 2 0 2 2 4 0 0 1 2 1887 1 2945 2 0 0 1 0 2 0 1 1 1419 2 2 0 2933 0 1 1417 7700 3 18 946 2 1 2 944 0 0 1667 1 1 0 1893 945 0 1 7 2 1 0 1 947 2 3 1 1461 2 1 0 949 4 1 1 1402 1402 1416 2 8 0 2 0 2 1 944 0 1 0 0 1 2 0 1 945 0 1460 1 0 2 1 0 1 1 0 1 1 1 0 2 2 2 988 0 1 1 4830 1 1 0 1 2 1 2 1 2 6 1 8 939 0 0 1 3 1 1 2 1411 1 0 1 1 0 2 0 1 1414 1 0 1 2 3 0 0 1 2 2471 3 1 1 2 2 0 0 862 2937 10 16 0 0 1 878 0 0 6 17 862 1 1 1 2 2 3 2 1 2 3 952 0 4 0 2 1 1 2 1 4 0 0 279 13 0 1 0 2 1 3 1 1 1891 1 1 2 1 1417 0 13 0 1418 2 0 1 0 1 0 1 935 2 2 0 2 0 1417 1 2 2 0 0 1 0 0 0 0 2 2278 1 1 0 3 0 1 1 1 3 1 0 2 1 4361 1 4 1 2 0 0 0 1 2 0 0 2 0 2 2 1 3 1332 0 2 1 1 0 0 2 1 2936 1 1 0 3759 37 944 0 0 1 2 0 1 1 3 40 1 1977 1 2 0 941 0 3 1 16 1 1661 522 3 1 61 2 0 2 1 1 0 1921 2 2 1 2 1 1 2 0 3063 1 1 0 2197 3 2 1 2 486 2 2 2 733 5733 2 2 6 1 1 0 288 2 1 2948 2924 1 2 1417 2 1 487 2 2 1 1 2 1 960 3 1 2 2 1 2 3 1 1428 0 1 2 1 2 15 1418 9 1 2 1889 0 3524 0 1 3 16 6 1 17 1070 1 6373 29 0 2 2 1 1 1 13 1879 2 1 1418 0 0 1 1 0 3 0 1 942 0 2 10 1 2501 21 0 1 575 2 1 300 2 2 3 4 0 1 2 0 2 0 1 2 1417 2 1 1893 949 2 0 1 8307 0 1 1 1 1 2 8 1 4888 2 17 2 4349 1 22 2 2 6 0 22 0 1 2 2 4361 1 0 251 1 1 1 473 1 1 2 1402 22 2 2 3 1 2 14 2740 2 1 1 1 1 14 2 1 5372 1 3 2 1 2 8 0 1 10 1 0 2 1 0 1 3 2 1 1 2 1 45 2 1 1 1 1044 3 1 0 3 0 0 4355 2 1 2 2 1 18 0 3 3894 0 1420 1 1 3 2 3406 2 4357 0 5836 4894 0 2 1 3 0 0 2 3420 0 1 1 3 1189 1 0 0 475 2943 2 1 1 0 0 2 4357 1 2950 2 2 0 8 0 0 2 1429 5381 0 1413 0 0 1 1 3 22 0 2 943 3 1 1 1 0 2958 1 936 0 1 1 6280 17 1 2 2 0 2 1419 3402 1 4383 2 2 0 0 14 2932 1886 1 2 3 0 1 2948 2 10 1 1 1 1 1 7810 939 4861 0 0 2 1 1 2 1 944 0 0 1 2 1471 1 0 17 1 7 0 2 1 1898 0 1 2 0 1421 2 0 2 1 4354 2 1 1 2 1 2 2 0 2932 2 0 0 1416 1 1 2 3 1 7 0 2 1 1 1 2 0 2 1219 1 1 4 0 1 5 0 2 2 0 1 1 1 2 2 2 0 2 0 1 1 2 2 4 1 1 1 1 2494 1 276 2 1 2 0 1 1 1 4344 2 2 1 2 1 3 0 1 1417 2 10 1 21 2 1 0 1 2 947 1 1 1 17 0 3469 2 1 1418 1 0 1418 1066 1 1 1 1402 0 2 2 1 1 1 9 2 0 1 1 14 2 1 2 2 0 2 1460 0 1 1277 1 1 1 0 0 2 0 0 2 1276 0 2 1 1411 1416 1 1 0 1 1 1 0 1 0 0 942 2 0 1 2 0 1 1 0 0 0 0 0 0 1 0 0 1 0 2 0 1 1 1 0 1 0 0 4375 30 0 1 1 3426 1 1 0 1 2 99 0 4 0 1 1 1 1 1 0 2 0 1250 391 0 1 2482 0 0 1 0 2 1 2 2 1 30 3 2 2 0 1 1 0 0 0 10 0 1 1 0 0 0 1 0 1 1 0 2 452 3 1 1 1 2 2 0 1 1 0 0 2 1 0 0 1 2 1 9 1 0 1 1 55 1417 0 0 1 2 1 0 0 727 1 1410 0 3 1 2 2 1 6 1401 58 4410 0 1 1 2 2 1 1899 1458 2947 2 1332 6379 0 0 2 1461 1 1 2 1 1 2 0 2 988 0 1 6 0 1 1 2944 1 2 5 2948 2833 0 1 4377 0 3 14 2 1 2 2 1402 2947 1 1 1 299 2 1 1 2928 3 1 4 1 1 4354 14 1 1 1 1 0 2 1 2 935 1 0 1 1 0 48 26 1 0 2 2 0 1 5 3 3 944 2 1 0 0 1312 2 945 0 0 0 9 486 0 4 1 947 2 4 1 5489 1 2 7305 227 2 16582 945 0 2471 2 15 1 1 2 0 0 2 2960 2 2 0 0 42 720 1 132 2 0 0 2 1461 192 2 2 1 2 2 2 641 0 2 0 1 2 1 0 0 1 531 0 1 2 0 1417 0 952 1 2 0 2 1 7 1565 0 1409 0 0 0 1 1 1 4836 0 2 430 0 1 6 1 0 1 0 0 989 1 2 2 2 3 4353 0 17 0 0 1 2 1460 1 2783 1 0 8 2 1099 2 6 2 2309 1 1540 1416 0 2 0 1418 216 3916 1532 0 2 1 4707 0 4896 0 106 1475 2 2 2 1 1 0 1 2 0 2 0 1 40 1578 2 1 2479 376 2 4 1474 0 3 0 488 1 1418 2 3 2 2 1 0 2 4391 2 0 1 1 2 0 0 0 8 0 1 1 2 0 2 2 1 1417 7 2 1 2 2 8 0 1 2 6 1 0 2 2 1 8 0 0 1 2 0 0 0 0 1 1 1 2 1 1 2 0 0 1 1 2 1 2 1 2 1 2 6 280 0 2 1 0 2 1 2 1 2 1 0 1 0 14 1 0 1 8 1 10 3 2 2 0 5 1 1 0 0 2 2 0 1889 1463 1430 2 2 2 2338 2 0 0 1 25 1 2 0 2 0 1402 1 0 1 2 10 5 4834 2 0 2933 0 1 1 1 1 2 1 0 2 0 1 4 12 1 0 0 1410 4362 1 0 0 5 1417 1 1 1416 1418 1 0 1401 10 0 1 4 1411 0 0 0 2 1 0 1418 0 1 0 2 2 2 0 2 1 214 1 2 1 0 2 1549 3 8 0 1 2 1 0 1 0 2 1 1 0 2 0 1889 2 1 2 2 1 12 1475 4355 14 1 1 10 10 0 2 2 1 1886 19 2 2 2 2 2924 2 1 3 6 2 1 1422 6824 2 3 2 2 2 2 1 1 1 0 1 1 0 2 2 0 2 0 1 1 0 2 3 1 965 0 0 0 2 1 4 1 0 0 2 1 1 0 0 0 2 1 2 0 1 1417 1 1 3 0 0 50 0 1 2 1 0 1 0 1 0 0 1 0 10 1 0 0 4379 1 1419 2 2 198 1 2 2 0 0 0 2 1 0 4419 4 2 3 6 1 935 4 2 1 2 1 191 2 1 2 1 480 1 3 1 1 3 936 2 1420 2 0 1419 2 2 1 1417 3265 1528 1570 5 1979 2 1 867 0 1 1 5 2 0 1 6 1412 2 0 2 2 2 1 5 8 1 2 2 2 1 2 2 2 1418 14 1 2 6 2505 1 2 8 1 2960 1072 1 3562 2 1 2 3 14 6 1 1 5 109 8 0 1 1 1 1 1 2 1 1 0 1 2925 1 3 0 2 1 2 2 0 1 0 0 1889 2 2740 1572 0 0 1 2 2 1 1 2 2 2 2 6 2 1 2 1 2 0 1460 10 0 1 2 1 1 0 1 2 2 0 0 2 0 1 3 0 1889 1 1572 3 1 2 0 0 0 937 0 2952 1 0 4 1 3 1 1 1 0 1 2 0 1 0 8 2 1 0 1 0 2 3 1431 730 1 3 2 2966 2 2 2 0 1 108 1 1 1 0 0 491 2 3 2 3 1 0 1 0 1 1418 9 0 0 13 1052 1 3 500 2 1 1410 1 1 0 1 1 2 41 2 5 725 190 0 1 2 2 0 1 1 1199 1374 2 3 5 2 1 1431 1416 1 5 26 11 27 1 2 0 738 15 2 0 1 1 1461 0 1 2 1 1 1 1 2 1324 2 0 1 0 1 12 1888 5 989 2 119 3 0 1 0 0 1 2 10 0 11 0 2 1 0 1 30 1 2 2 1 4 1418 0 2 1 2 1 3 1666 1 1 2 1 1 946 1 3 3 1 1 2 1428 2 0 936 1 1886 4 17 135 9 2 1 0 13 2954 4 2 0 639 3485 1 2 2 0 1 0 0 2 1 0 13 1 2 0 2 2 1 21 8 2 0 1 2 9 1 2 1 0 2 2 2 1 0 0 1 22 0 1 1 2 12 1 2 1471 1 3 12 1415 0 1401 12 2 0 2 1 22 14 0 3 3 1 1 3 1 12 3 0 1 4 0 2 2825 2 17 1 927 1 2 2 1 2 6 1 2 1885 0 1 1 1422 1 0 1403 1 5 2 17 1 2 1565 2 1 2845 1885 36 1 0 0 0 0 2350 1565 1 1417 1897 2 0 1 1 2 2 2 0 37 2 1565 730 1 17 838 941 0 2 1417 1 0 1 0 1 0 0 1 0 1 1309 1418 2 0 2 1 2 1 2955 2 4367 1418 1 943 1 2 1418 1 1 14 0 1 1 0 0 2 10 1 14 6 1 1 1 2 0 1 946 1 0 10 0 2 1 1415 2 3867 2 3 948 1 2 21 1429 1 1558 1418 2 0 1 2 2 5 0 947 2 4397 1 3 53 1 3 1 1 1 0 14 1 2 24 0 1428 1 1 2 1 24 1 936 1 2 5 62 2 0 1 3410 1 0 1 1 0 0 0 1 0 0 2 2 1 2943 62 1 3 1 1430 0 2 1 3 0 1 1 2 1 1 486 1 5 0 1 50 0 2 2 1 0 2964 2948 2 2 2 2 12 1423 946 2926 4 2 2 14 9 0 1109 2 3 2 1 1 2 1 13 0 2963 4850 17 0 4 0 8 1 1 5 1 2 4874 1986 1 2 10 62 1 17 3 1907 42 2 1 2 1 2 4 12 0 2 10 0 3 0 1 1 2 953 2 0 1 2 2 1418 0 2 1 1 1 8 4 1 2 2 0 8 0 2927 1463 1 491 965 2 49 2 2829 2 50 14 2 2 17 2 1390 5845 2 6851 2 1 3497 989 3 4821 946 1415 0 42 5 3964 2939 1 0 2 3 1964 1 5359 28 3573 2306 1418 1 0 6 2150 2 14 2 2 1 0 2 1418 0 0 1890 2 1 47 485 2 10 2257 1565 0 2 1 0 2939 0 1458 0 1 4368 0 2 1431 6 2 10 1 0 2 1401 1914 1 1418 3920 2950 1417 1419 2623 727 1 1948 1045 1 0 1 34 1419 1430 1417 50 1 4882 0 1 1181 1 974 2 1418 2 1 2 2 2 2948 0 2 1 2 4852 1 3 50 0 14 1432 0 2979 1 0 1 53 948 473 2 1 0 1 3 1 2 3 50 2 2360 14 35 2 1402 2 1 1 5 14 1 1 2 2 1 8 1 942 9 1 873 3209 0 2 0 1 2 2 1 2 1 2 1 1 2 1 2 1 10 945 1 0 2 14 2 8 2 1 2 16 1 6 2 1 1890 1 2499 0 2 0 1 1461 1 0 1 1 1 946 0 0 1 2 1 1 1 0 2 0 1880 2 1 2 0 947 1 1 1418 0 1 1411 124 2 5 0 5 2 2 1 1 0 0 0 1 1 1 947 2 2 2 1410 1 1411 946 1891 1 1 2963 955 1 2 1884 3 2 1415 0 1427 1 942 2 2 2 944 2 947 2105 2 2 4352 1886 2 2 2 0 2 2 0 4838 1 1 1 1 6 2 1 1 5371 1 1 2 2 2 29 0 4875 1 2 6 1 1 18 6 1 2937 1 2 2 2 2 2 3 935 0 2 2 1396 0 1485 5 1 296 3 2 1 3414 0 49 2 1 1 1 1881 3 0 1 0 1 1 9 0 1 2 4 1 863 251 1 1 1 1 4 12 0 1402 17 2 0 2 2 0 12 0 1 20 17 1 1 1 1 0 2 0 0 1 304 2 2 1 1 1411 3 1 3 0 4 1 4349 3899 6774 2 1 3436 2910 1411 3 1 0 2 2 3 0 0 1418 2 1 2 2 2 0 2938 1 1 1 5449 2 17 15 1495 0 1 1419 1 1 1 1419 1 1890 4868 989 2959 0 2 1420 2118 1 1875 1 2371 935 1 1 1 1 2 4 2 1 3 2 946 1423 2 1411 2 567 2 1418 6 1 1507 1419 943 1 1 2 1 1418 2 1 1 965 43 2 0 2 0 0 1 1417 6763 34 2 1 5 2 2 3 4 2 1 1 1 1 2 9 1 7 2 1418 949 1 0 2 2 0 1 0 88 0 728 1890 0 0 1 1418 988 2 2 4835 0 939 972 1 947 1 957 0 3 2 2 1 1 35 2 1402 0 0 2 1056 1 2 1399 1416 3412 2 3979 2 1 2 0 1 0 2 0 1412 1 2 1 0 3947 0 1 0 2 1 2 605 0 1419 3 2 0 44 1 3415 2 0 1 17 1 1 2 1 2 1 0 3 3 0 2 2 3 1 2 3893 2 4356 7 2 4355 2 742 2 1 5 0 2 2 2 1925 2 1 2 0 1 0 2 2 2 742 1 1418 934 1 11 0 936 2 3399 0 0 2 1 2 15 12 2 2 21407 0 0 1 2 0 0 2 1 125 266 2 1 0 2 2 1 2471 1 1415 0 2 1 2 1894 0 0 0 1 2 2 1 0 38 1 1 2 2 1 5 0 4428 2 2 2 0 2 0 1418 9 1411 5 3 2 0 10 1 2 1 1 8 0 2 2 1 42 1 1 1564 2 1 3464 1417 34 2 1 2 0 1 1402 989 1 0 0 1 1 1 0 2 3 2 17 6 0 1043 1 1659 2 2934 0 0 1889 0 1 3409 946 0 1889 1 2 1 1418 2 2 0 2 0 1417 4 1 0 946 0 2 1 2 951 1 2 0 1 1410 3 2469 2 1 6 2 4368 1 3 2 1 3961 3 1 288 0 1461 2 2 223 1 2 2 0 1 17 1 2 2 2 1 0 1 1404 0 2 1 3 942 1 477 2 3855 1 2908 1 1 1 3908 1 3832 948 2839 0 1 4356 1 942 6 948 1892 1892 1 4371 0 2 1409 0 481 2 1 2 34 8 1 2 0 1417 1 290 1460 2 1 2 0 2 2 1 2 2 0 1402 2861 2 2 1 2 4411 0 2406 1 2 2 2 1 936 1 1418 1 1412 1 1420 2 3 2 2 1402 0 2 1889 0 6346 0 1884 3 1 1 2 1 0 2 1 2 2 1410 2473 3 2 2 0 2 1411 2 1 2 2 0 2 0 459 4418 989 1 1466 2923 1 2 1 1647 1 1 1 2 1282 0 1 1 0 0 2 2 0 2 0 1 1 1 1 1 3 0 2471 1 1411 1402 2 0 1 0 2 1 1 2 1 1 0 0 1 2 2 2 3 1 0 1 534 0 1 0 2 2 945 0 2 3 0 2 1 0 1 1 2 1 1 1 0 108 1 0 2 4 0 0 2 5 2 2 1 2 2 0 1 2 1276 0 2 1 2938 2 1 0 0 2 0 1 1 2 2 2 935 5 3424 1417 1 1 2 2 5 1 2 4 1 0 1 42 1 2945 6 1418 1 1 1 2357 1 1 42 5 1 1 4472 1 1 2132 1401 2 2 2 0 2 3359 2 1 1261 0 2722 0 0 2 2 935 2 858 1 1 1 1 2 1943 945 0 0 2938 2 0 0 1 0 0 2 2 1 1 2 1 949 0 8 1 0 0 2 1 2 1 2761 2 1 2 1 1903 1 1 1 952 974 0 0 2 0 945 0 0 0 0 952 4355 12 2 0 0 1205 1 1 0 1 1 1 2 1 1 3 1 2 12 2 1 0 1894 1 2 4 1 2 0 0 2 2 1 2 1 1 0 1 1 4354 1 10 1 3 1 1 1 11 2 1 0 
