
*** ChampSim Multicore Out-of-Order Simulator ***

Warmup Instructions: 50000000
Simulation Instructions: 50000000
Number of CPUs: 1
LLC sets: 2048
LLC ways: 16
Off-chip DRAM Size: 4096 MB Channels: 1 Width: 64-bit Data Rate: 6400 MT/s
CPU 0 runs ./micro_traces/srv389.trace.gz
.gz
ITLB has LRU replacement policy
DTLB has LRU replacement policy
STLB has LRU replacement policy
FDIP Prefetcher at L1I
L1I has LRU replacement policy
L1D has LRU replacement policy
Initialize SRRIP state for L2C
Initialize DRRIP state for LLC
Heartbeat_Variant_0 : 1382 0.224935 per_variant_size: 0 1382 0 0 0 0 0 0 0 
Heartbeat_Variant_1 : 1344 0.21875 per_variant_size: 0 791 553 0 0 0 0 0 0 
Heartbeat_Variant_2 : 1519 0.247233 per_variant_size: 0 763 390 197 169 0 0 0 0 
Heartbeat_Variant_3 : 0 0 per_variant_size: 0 0 0 0 0 0 0 0 0 
Heartbeat_Variant_0_evicts 0 : 5531 1 : 23 2 : 20 3 : 0 
Heartbeat_Variant_1_evicts 0 : 24 1 : 0 2 : 209 3 : 0 
Heartbeat_Variant_2_evicts 0 : 28 1 : 212 2 : 0 3 : 0 
Heartbeat_Variant_3_evicts 0 : 0 1 : 0 2 : 0 3 : 0 
Heartbeat CPU 0 instructions: 10000003 cycles: 2794627 heartbeat IPC: 3.5783 cumulative IPC: 3.5783 (Simulation time: 0 hr 2 min 17 sec) 
Heartbeat_Variant_0 : 1414 0.230143 per_variant_size: 0 1414 0 0 0 0 0 0 0 
Heartbeat_Variant_1 : 1400 0.227865 per_variant_size: 0 808 592 0 0 0 0 0 0 
Heartbeat_Variant_2 : 1554 0.25293 per_variant_size: 0 783 394 199 178 0 0 0 0 
Heartbeat_Variant_3 : 0 0 per_variant_size: 0 0 0 0 0 0 0 0 0 
Heartbeat_Variant_0_evicts 0 : 5475 1 : 4 2 : 8 3 : 0 
Heartbeat_Variant_1_evicts 0 : 7 1 : 0 2 : 201 3 : 0 
Heartbeat_Variant_2_evicts 0 : 9 1 : 202 2 : 0 3 : 0 
Heartbeat_Variant_3_evicts 0 : 0 1 : 0 2 : 0 3 : 0 
Heartbeat CPU 0 instructions: 20000003 cycles: 5589698 heartbeat IPC: 3.57773 cumulative IPC: 3.57801 (Simulation time: 0 hr 4 min 28 sec) 
Heartbeat_Variant_0 : 1414 0.230143 per_variant_size: 0 1414 0 0 0 0 0 0 0 
Heartbeat_Variant_1 : 1411 0.229655 per_variant_size: 0 815 596 0 0 0 0 0 0 
Heartbeat_Variant_2 : 1560 0.253906 per_variant_size: 0 786 393 205 176 0 0 0 0 
Heartbeat_Variant_3 : 0 0 per_variant_size: 0 0 0 0 0 0 0 0 0 
Heartbeat_Variant_0_evicts 0 : 5496 1 : 0 2 : 0 3 : 0 
Heartbeat_Variant_1_evicts 0 : 0 1 : 0 2 : 195 3 : 0 
Heartbeat_Variant_2_evicts 0 : 2 1 : 193 2 : 0 3 : 0 
Heartbeat_Variant_3_evicts 0 : 0 1 : 0 2 : 0 3 : 0 
Heartbeat CPU 0 instructions: 30000000 cycles: 8384851 heartbeat IPC: 3.57762 cumulative IPC: 3.57788 (Simulation time: 0 hr 6 min 37 sec) 
Heartbeat_Variant_0 : 1438 0.234049 per_variant_size: 0 1438 0 0 0 0 0 0 0 
Heartbeat_Variant_1 : 1435 0.233561 per_variant_size: 0 811 624 0 0 0 0 0 0 
Heartbeat_Variant_2 : 1582 0.257487 per_variant_size: 0 774 409 218 181 0 0 0 0 
Heartbeat_Variant_3 : 0 0 per_variant_size: 0 0 0 0 0 0 0 0 0 
Heartbeat_Variant_0_evicts 0 : 5489 1 : 2 2 : 5 3 : 0 
Heartbeat_Variant_1_evicts 0 : 4 1 : 0 2 : 198 3 : 0 
Heartbeat_Variant_2_evicts 0 : 3 1 : 197 2 : 0 3 : 0 
Heartbeat_Variant_3_evicts 0 : 0 1 : 0 2 : 0 3 : 0 
Heartbeat CPU 0 instructions: 40000003 cycles: 11179456 heartbeat IPC: 3.57832 cumulative IPC: 3.57799 (Simulation time: 0 hr 8 min 36 sec) 
Heartbeat_Variant_0 : 1439 0.234212 per_variant_size: 0 1439 0 0 0 0 0 0 0 
Heartbeat_Variant_1 : 1448 0.235677 per_variant_size: 0 818 630 0 0 0 0 0 0 
Heartbeat_Variant_2 : 1587 0.258301 per_variant_size: 0 778 405 220 184 0 0 0 0 
Heartbeat_Variant_3 : 0 0 per_variant_size: 0 0 0 0 0 0 0 0 0 
Heartbeat_Variant_0_evicts 0 : 5459 1 : 0 2 : 1 3 : 0 
Heartbeat_Variant_1_evicts 0 : 0 1 : 0 2 : 195 3 : 0 
Heartbeat_Variant_2_evicts 0 : 3 1 : 193 2 : 0 3 : 0 
Heartbeat_Variant_3_evicts 0 : 0 1 : 0 2 : 0 3 : 0 
Heartbeat CPU 0 instructions: 50000000 cycles: 13973893 heartbeat IPC: 3.57854 cumulative IPC: 3.5781 (Simulation time: 0 hr 10 min 37 sec) 

Warmup complete CPU 0 instructions: 50000004 cycles: 13973894 (Simulation time: 0 hr 10 min 37 sec) 

*** Reached end of trace for Core: 0 Repeating trace: ./micro_traces/srv389.trace.gz
Cycle: 20000000 FTQ IN: 58125182 FTQ occupancy: 20.0367 DECODE IN: 58125089 DECODE occupancy: 52.0221 ROB IN: 58125029 ROB occupancy: 313.852 ROB OUT: 58124918
Heartbeat_Variant_0 : 1460 0.23763 per_variant_size: 0 1460 0 0 0 0 0 0 0 
Heartbeat_Variant_1 : 1476 0.240234 per_variant_size: 0 832 644 0 0 0 0 0 0 
Heartbeat_Variant_2 : 1603 0.260905 per_variant_size: 0 776 406 231 190 0 0 0 0 
Heartbeat_Variant_3 : 0 0 per_variant_size: 0 0 0 0 0 0 0 0 0 
Heartbeat_Variant_0_evicts 0 : 5532 1 : 5 2 : 6 3 : 0 
Heartbeat_Variant_1_evicts 0 : 4 1 : 0 2 : 197 3 : 0 
Heartbeat_Variant_2_evicts 0 : 9 1 : 196 2 : 0 3 : 0 
Heartbeat_Variant_3_evicts 0 : 0 1 : 0 2 : 0 3 : 0 
Heartbeat CPU 0 instructions: 60000000 cycles: 21361585 heartbeat IPC: 1.3536 cumulative IPC: 1.3536 (Simulation time: 0 hr 13 min 0 sec) 
Heartbeat_Variant_0 : 1461 0.237793 per_variant_size: 0 1461 0 0 0 0 0 0 0 
Heartbeat_Variant_1 : 1475 0.240072 per_variant_size: 0 829 646 0 0 0 0 0 0 
Heartbeat_Variant_2 : 1603 0.260905 per_variant_size: 0 776 406 228 193 0 0 0 0 
Heartbeat_Variant_3 : 0 0 per_variant_size: 0 0 0 0 0 0 0 0 0 
Heartbeat_Variant_0_evicts 0 : 5604 1 : 1 2 : 0 3 : 0 
Heartbeat_Variant_1_evicts 0 : 0 1 : 0 2 : 195 3 : 0 
Heartbeat_Variant_2_evicts 0 : 0 1 : 195 2 : 0 3 : 0 
Heartbeat_Variant_3_evicts 0 : 0 1 : 0 2 : 0 3 : 0 
Heartbeat CPU 0 instructions: 70000002 cycles: 28653969 heartbeat IPC: 1.37129 cumulative IPC: 1.36239 (Simulation time: 0 hr 15 min 25 sec) 
Cycle: 30000000 FTQ IN: 13749142 FTQ occupancy: 13.2253 DECODE IN: 13749215 DECODE occupancy: 33.9883 ROB IN: 13749244 ROB occupancy: 237.505 ROB OUT: 13749228
Heartbeat_Variant_0 : 1461 0.237793 per_variant_size: 0 1461 0 0 0 0 0 0 0 
Heartbeat_Variant_1 : 1474 0.239909 per_variant_size: 0 829 645 0 0 0 0 0 0 
Heartbeat_Variant_2 : 1604 0.261068 per_variant_size: 0 776 406 228 194 0 0 0 0 
Heartbeat_Variant_3 : 0 0 per_variant_size: 0 0 0 0 0 0 0 0 0 
Heartbeat_Variant_0_evicts 0 : 5474 1 : 0 2 : 0 3 : 0 
Heartbeat_Variant_1_evicts 0 : 0 1 : 0 2 : 192 3 : 0 
Heartbeat_Variant_2_evicts 0 : 0 1 : 193 2 : 0 3 : 0 
Heartbeat_Variant_3_evicts 0 : 0 1 : 0 2 : 0 3 : 0 
Heartbeat CPU 0 instructions: 80000002 cycles: 35839091 heartbeat IPC: 1.39176 cumulative IPC: 1.37204 (Simulation time: 0 hr 17 min 39 sec) 
Cycle: 40000000 FTQ IN: 13933042 FTQ occupancy: 13.129 DECODE IN: 13933005 DECODE occupancy: 34.071 ROB IN: 13932996 ROB occupancy: 238.655 ROB OUT: 13933070
Heartbeat_Variant_0 : 1461 0.237793 per_variant_size: 0 1461 0 0 0 0 0 0 0 
Heartbeat_Variant_1 : 1474 0.239909 per_variant_size: 0 831 643 0 0 0 0 0 0 
Heartbeat_Variant_2 : 1605 0.26123 per_variant_size: 0 778 406 230 191 0 0 0 0 
Heartbeat_Variant_3 : 0 0 per_variant_size: 0 0 0 0 0 0 0 0 0 
Heartbeat_Variant_0_evicts 0 : 5527 1 : 0 2 : 0 3 : 0 
Heartbeat_Variant_1_evicts 0 : 0 1 : 0 2 : 193 3 : 0 
Heartbeat_Variant_2_evicts 0 : 0 1 : 193 2 : 0 3 : 0 
Heartbeat_Variant_3_evicts 0 : 0 1 : 0 2 : 0 3 : 0 
Heartbeat CPU 0 instructions: 90000001 cycles: 43091007 heartbeat IPC: 1.37895 cumulative IPC: 1.37376 (Simulation time: 0 hr 19 min 58 sec) 
Cycle: 50000000 FTQ IN: 13769017 FTQ occupancy: 13.2053 DECODE IN: 13768932 DECODE occupancy: 33.8941 ROB IN: 13768912 ROB occupancy: 236.758 ROB OUT: 13768617
Heartbeat_Variant_0 : 1461 0.237793 per_variant_size: 0 1461 0 0 0 0 0 0 0 
Heartbeat_Variant_1 : 1474 0.239909 per_variant_size: 0 824 650 0 0 0 0 0 0 
Heartbeat_Variant_2 : 1605 0.26123 per_variant_size: 0 777 407 228 193 0 0 0 0 
Heartbeat_Variant_3 : 0 0 per_variant_size: 0 0 0 0 0 0 0 0 0 
Heartbeat_Variant_0_evicts 0 : 5486 1 : 0 2 : 0 3 : 0 
Heartbeat_Variant_1_evicts 0 : 0 1 : 0 2 : 193 3 : 0 
Heartbeat_Variant_2_evicts 0 : 0 1 : 193 2 : 0 3 : 0 
Heartbeat_Variant_3_evicts 0 : 0 1 : 0 2 : 0 3 : 0 
Heartbeat CPU 0 instructions: 100000001 cycles: 50302764 heartbeat IPC: 1.38662 cumulative IPC: 1.37632 (Simulation time: 0 hr 21 min 42 sec) 
Finished CPU 0 instructions: 50000001 cycles: 36328871 cumulative IPC: 1.37632 (Simulation time: 0 hr 21 min 42 sec) 

ChampSim completed all CPUs

Region of Interest Statistics

CPU 0 cumulative IPC: 1.37632 instructions: 50000001 cycles: 36328871
 Fetch stage stalled: 53.2162  Sim cycles: 36328871 fetch stall cycle: 19332835
 Empty decode stage: 34.8071  Sim cycles: 36328871 fetch stall cycle: 12645045
ITLB TOTAL     ACCESS:    5864452  HIT:    5373821  MISS:     490631  HIT %:    91.6338  MISS %:    8.36619   MPKI: 9.81262
ITLB LOAD TRANSLATION INSTRUCTION	ACCESS:    5740853  HIT:    5250222  MISS:     490631  HIT %:    91.4537  MISS %:    8.54631  MPKI: 9.81262
ITLB TRANSLATION FROM L1D PREFETCHER INSTRUCTION	ACCESS:     123599  HIT:     123599  MISS:          0  HIT %:        100  MISS %:          0  MPKI: 0

ITLB AVERAGE MISS LATENCY: 9.05477 cycles
ITLB RQ	ACCESS:    7994407	FORWARD:          0	MERGED:    1689180	TO_CACHE:    6305227

DTLB TOTAL     ACCESS:    8940013  HIT:    8465946  MISS:     474067  HIT %:    94.6972  MISS %:    5.30276   MPKI: 9.48134
DTLB LOAD TRANSLATION DATA	ACCESS:    8940013  HIT:    8465946  MISS:     474067  HIT %:    94.6972  MISS %:    5.30276  MPKI: 9.48134

DTLB AVERAGE MISS LATENCY: 9.29506 cycles
DTLB RQ	ACCESS:   13294949	FORWARD:          0	MERGED:    4317478	TO_CACHE:    8977471

STLB TOTAL     ACCESS:    1220290  HIT:    1218092  MISS:       2198  HIT %:    99.8199  MISS %:   0.180121   MPKI: 0.04396
STLB LOAD TRANSLATION INSTRUCTION	ACCESS:     490631  HIT:     490362  MISS:        269  HIT %:    99.9452  MISS %:  0.0548274  MPKI: 0.00538
STLB LOAD TRANSLATION DATA	ACCESS:     474067  HIT:     472154  MISS:       1913  HIT %:    99.5965  MISS %:   0.403529  MPKI: 0.03826
STLB TRANSLATION FROM L1D PREFETCHER DATA	ACCESS:     255592  HIT:     255576  MISS:         16  HIT %:    99.9937  MISS %: 0.00625998  MPKI: 0.00032

STLB AVERAGE MISS LATENCY: 63.227 cycles
STLB RQ	ACCESS:    1365846	FORWARD:          0	MERGED:     145515	TO_CACHE:    1220331

STLB Hit, L1D data hit: 0
STLB Hit, L2C data hit: 0
STLB Hit, LLC data hit: 0
STLB Hit, LLC data miss: 0
STLB STLB hints to L2: 0
L1D TOTAL     ACCESS:   13039088  HIT:   11873181  MISS:    1165907  HIT %:    91.0584  MISS %:    8.94163   MPKI: 23.3181
L1D LOAD DATA	ACCESS:    6546469  HIT:    5778049  MISS:     768420  HIT %:    88.2621  MISS %:    11.7379  MPKI: 15.3684
L1D RFO DATA	ACCESS:    6158825  HIT:    5866901  MISS:     291924  HIT %:    95.2601  MISS %:    4.73993  MPKI: 5.83848
L1D PREFETCH DATA	ACCESS:     333794  HIT:     228231  MISS:     105563  HIT %:    68.3748  MISS %:    31.6252  MPKI: 2.11126

L1D PREFETCH  REQUESTED:     802726  ISSUED:     802726  USEFUL:      50456  USELESS:      69980
L1D USEFUL LOAD PREFETCHES:      50456 PREFETCH ISSUED TO LOWER LEVEL:     120512  ACCURACY: 41.868
 TIMELY PREFETCHES:      50456 LATE PREFETCHES: 14890 DROPPED PREFETCHES: 0
L1D AVERAGE MISS LATENCY: 402243 cycles
L1D RQ	ACCESS:   10680361	FORWARD:          0	MERGED:    3933890	TO_CACHE:    6582838
L1D WQ	ACCESS:    6906967	FORWARD:     164063	MERGED:     194856	TO_CACHE:    6712111
L1D PQ	ACCESS:     401578	FORWARD:          0	MERGED:          0	TO_CACHE:     401148

L1D UNIQUE REGIONS ACCESSED: 0
L1D REGIONS CONFLICTS: 0
L1D Cross Page Prefetch Requests: 6319
L1D Same Page Prefetch Requests: 806592
L1D ROI Sum of L1D PQ occupancy: 5112433
L1D PREFETCHES PUSHED FROM L2C: 0
L1I TOTAL     ACCESS:    7157889  HIT:    4409133  MISS:    2748756  HIT %:    61.5982  MISS %:    38.4018   MPKI: 54.9751
L1I LOAD INSTRUCTION	ACCESS:    6488139  HIT:    3739383  MISS:    2748756  HIT %:    57.6341  MISS %:    42.3659  MPKI: 54.9751
L1I PREFETCH INSTRUCTION	ACCESS:     669750  HIT:     669750  MISS:          0  HIT %:        100  MISS %:          0  MPKI: 0

L1I PREFETCH  REQUESTED:    1617651  ISSUED:    1617651  USEFUL:          0  USELESS:          0
L1I USEFUL LOAD PREFETCHES:          0 PREFETCH ISSUED TO LOWER LEVEL:          0  ACCURACY: -nan
 TIMELY PREFETCHES:          0 LATE PREFETCHES: 0 DROPPED PREFETCHES: 0
L1I AVERAGE MISS LATENCY: 17.7797 cycles
L1I RQ	ACCESS:    9518873	FORWARD:          0	MERGED:    2701241	TO_CACHE:    6817632
L1I PQ	ACCESS:    1617651	FORWARD:          0	MERGED:     440876	TO_CACHE:    1176775

L1BTB TOTAL     ACCESS:    5678624  HIT:    2070688  MISS:    3607936  HIT %:    36.4646  MISS %:    63.5354   MPKI: 72.1587
L1BTB BRANCH_DIRECT_JUMP	ACCESS:     543113  HIT:     143332  MISS:     399781	AVERAGE STALL: 50.7548
L1BTB BRANCH_INDIRECT	ACCESS:     180923  HIT:      65106  MISS:     115817	AVERAGE STALL: 104.4
L1BTB BRANCH_CONDITIONAL	ACCESS:    2730504  HIT:    1445858  MISS:    1284646	AVERAGE STALL: 64.1838
L1BTB BRANCH_DIRECT_CALL	ACCESS:     941024  HIT:     104519  MISS:     836505	AVERAGE STALL: 68.1098
L1BTB BRANCH_INDIRECT_CALL	ACCESS:     171031  HIT:      21625  MISS:     149406	AVERAGE STALL: 137.29
L1BTB BRANCH_RETURN	ACCESS:    1112029  HIT:     290248  MISS:     821781	AVERAGE STALL: 48.319
L1BTB BRANCH_OTHER ACCESS:          0  HIT:          0  MISS:          0	AVERAGE STALL: -nan
L1BTB TOTAL ROB OCCUPANCY AT BTB MISS: 2.55641

L2BTB TOTAL     ACCESS:    3582988  HIT:    3520350  MISS:      62638  HIT %:    98.2518  MISS %:    1.74821   MPKI: 1.25276
L2BTB BRANCH_DIRECT_JUMP	ACCESS:     395685  HIT:     390903  MISS:       4782	AVERAGE STALL: 50.7548
L2BTB BRANCH_INDIRECT	ACCESS:     105612  HIT:     102971  MISS:       2641	AVERAGE STALL: 104.4
L2BTB BRANCH_CONDITIONAL	ACCESS:    1284646  HIT:    1280907  MISS:       3739	AVERAGE STALL: 64.1838
L2BTB BRANCH_DIRECT_CALL	ACCESS:     836505  HIT:     835826  MISS:        679	AVERAGE STALL: 68.1098
L2BTB BRANCH_INDIRECT_CALL	ACCESS:     139986  HIT:     129964  MISS:      10022	AVERAGE STALL: 137.29
L2BTB BRANCH_RETURN	ACCESS:     820554  HIT:     779779  MISS:      40775	AVERAGE STALL: 48.319
L2BTB BRANCH_OTHER ACCESS:          0  HIT:          0  MISS:          0	AVERAGE STALL: -nan
L2BTB TOTAL ROB OCCUPANCY AT BTB MISS: 147.249

L2C TOTAL     ACCESS:    4539817  HIT:    3952016  MISS:     587801  HIT %:    87.0523  MISS %:    12.9477   MPKI: 11.756
L2C LOAD INSTRUCTION	ACCESS:    2748755  HIT:    2437590  MISS:     311165  HIT %:    88.6798  MISS %:    11.3202  MPKI: 6.2233
L2C LOAD TRANSLATION INSTRUCTION	ACCESS:        313  HIT:         92  MISS:        221  HIT %:     29.393  MISS %:     70.607  MPKI: 0.00442
L2C LOAD DATA	ACCESS:     753500  HIT:     656199  MISS:      97301  HIT %:    87.0868  MISS %:    12.9132  MPKI: 1.94602
L2C RFO DATA	ACCESS:     291851  HIT:     221554  MISS:      70297  HIT %:    75.9134  MISS %:    24.0866  MPKI: 1.40594
L2C PREFETCH DATA	ACCESS:     213943  HIT:     125466  MISS:      88477  HIT %:    58.6446  MISS %:    41.3554  MPKI: 1.76954
L2C WRITEBACK DATA	ACCESS:     529417  HIT:     510539  MISS:      18878  HIT %:    96.4342  MISS %:    3.56581  MPKI: 0.37756
L2C LOAD TRANSLATION DATA	ACCESS:       2015  HIT:        557  MISS:       1458  HIT %:    27.6427  MISS %:    72.3573  MPKI: 0.02916
L2C TRANSLATION FROM L1D PREFETCHER DATA	ACCESS:         23  HIT:         19  MISS:          4  HIT %:    82.6087  MISS %:    17.3913  MPKI: 8e-05

L2C PREFETCH  REQUESTED:     101780  ISSUED:     101780  USEFUL:      10364  USELESS:      78775
L2C USEFUL LOAD PREFETCHES:      10364 PREFETCH ISSUED TO LOWER LEVEL:      88971  ACCURACY: 11.6487
 TIMELY PREFETCHES:      10364 LATE PREFETCHES: 494 DROPPED PREFETCHES: 0
L2C AVERAGE MISS LATENCY: 37.0528 cycles
L2C RQ	ACCESS:    3796502	FORWARD:          0	MERGED:          0	TO_CACHE:    3796458
L2C WQ	ACCESS:     529417	FORWARD:         44	MERGED:          0	TO_CACHE:     529417
L2C PQ	ACCESS:     222292	FORWARD:          0	MERGED:       3541	TO_CACHE:     218751

L2C Dense regions hint from L2: 0
PSCL5 TOTAL     ACCESS:       4396  HIT:       2198  MISS:       2198  HIT %:         50  MISS %:         50   MPKI: 0.04396
PSCL5 LOAD TRANSLATION INSTRUCTION	ACCESS:       4350  HIT:       2175  MISS:       2175  HIT %:         50  MISS %:         50  MPKI: 0.0435
PSCL5 TRANSLATION FROM L1D PREFETCHER INSTRUCTION	ACCESS:         46  HIT:         23  MISS:         23  HIT %:         50  MISS %:         50  MPKI: 0.00046


PSCL4 TOTAL     ACCESS:       4077  HIT:       2036  MISS:       2041  HIT %:    49.9387  MISS %:    50.0613   MPKI: 0.04082
PSCL4 LOAD TRANSLATION INSTRUCTION	ACCESS:       2146  HIT:       2013  MISS:        133  HIT %:    93.8024  MISS %:    6.19758  MPKI: 0.00266
PSCL4 TRANSLATION FROM L1D PREFETCHER INSTRUCTION	ACCESS:         23  HIT:         23  MISS:          0  HIT %:        100  MISS %:          0  MPKI: 0
PSCL4 LOAD TRANSLATION DATA	ACCESS:       1885  HIT:          0  MISS:       1885  HIT %:          0  MISS %:        100  MPKI: 0.0377
PSCL4 TRANSLATION FROM L1D PREFETCHER DATA	ACCESS:         23  HIT:          0  MISS:         23  HIT %:          0  MISS %:        100  MPKI: 0.00046


PSCL3 TOTAL     ACCESS:       4306  HIT:       2147  MISS:       2159  HIT %:    49.8607  MISS %:    50.1393   MPKI: 0.04318
PSCL3 LOAD TRANSLATION INSTRUCTION	ACCESS:       2342  HIT:       2124  MISS:        218  HIT %:    90.6917  MISS %:    9.30828  MPKI: 0.00436
PSCL3 TRANSLATION FROM L1D PREFETCHER INSTRUCTION	ACCESS:         23  HIT:         23  MISS:          0  HIT %:        100  MISS %:          0  MPKI: 0
PSCL3 LOAD TRANSLATION DATA	ACCESS:       1918  HIT:          0  MISS:       1918  HIT %:          0  MISS %:        100  MPKI: 0.03836
PSCL3 TRANSLATION FROM L1D PREFETCHER DATA	ACCESS:         23  HIT:          0  MISS:         23  HIT %:          0  MISS %:        100  MPKI: 0.00046


PSCL2 TOTAL     ACCESS:       4256  HIT:       2058  MISS:       2198  HIT %:    48.3553  MISS %:    51.6447   MPKI: 0.04396
PSCL2 LOAD TRANSLATION INSTRUCTION	ACCESS:       2304  HIT:       2035  MISS:        269  HIT %:    88.3247  MISS %:    11.6753  MPKI: 0.00538
PSCL2 TRANSLATION FROM L1D PREFETCHER INSTRUCTION	ACCESS:         23  HIT:         23  MISS:          0  HIT %:        100  MISS %:          0  MPKI: 0
PSCL2 LOAD TRANSLATION DATA	ACCESS:       1906  HIT:          0  MISS:       1906  HIT %:          0  MISS %:        100  MPKI: 0.03812
PSCL2 TRANSLATION FROM L1D PREFETCHER DATA	ACCESS:         23  HIT:          0  MISS:         23  HIT %:          0  MISS %:        100  MPKI: 0.00046


LLC TOTAL     ACCESS:     666027  HIT:     639042  MISS:      26985  HIT %:    95.9484  MISS %:    4.05164   MPKI: 0.5397
LLC LOAD INSTRUCTION	ACCESS:     311165  HIT:     310115  MISS:       1050  HIT %:    99.6626  MISS %:   0.337442  MPKI: 0.021
LLC LOAD TRANSLATION INSTRUCTION	ACCESS:        221  HIT:        189  MISS:         32  HIT %:    85.5204  MISS %:    14.4796  MPKI: 0.00064
LLC LOAD DATA	ACCESS:      96826  HIT:      93348  MISS:       3478  HIT %:     96.408  MISS %:    3.59201  MPKI: 0.06956
LLC RFO DATA	ACCESS:      70227  HIT:      58181  MISS:      12046  HIT %:    82.8471  MISS %:    17.1529  MPKI: 0.24092
LLC PREFETCH DATA	ACCESS:      88971  HIT:      78988  MISS:       9983  HIT %:    88.7795  MISS %:    11.2205  MPKI: 0.19966
LLC WRITEBACK DATA	ACCESS:      97155  HIT:      96853  MISS:        302  HIT %:    99.6892  MISS %:   0.310843  MPKI: 0.00604
LLC LOAD TRANSLATION DATA	ACCESS:       1458  HIT:       1364  MISS:         94  HIT %:    93.5528  MISS %:    6.44719  MPKI: 0.00188
LLC TRANSLATION FROM L1D PREFETCHER DATA	ACCESS:          4  HIT:          4  MISS:          0  HIT %:        100  MISS %:          0  MPKI: 0

LLC AVERAGE MISS LATENCY: 174.275 cycles
LLC RQ	ACCESS:     479952	FORWARD:          0	MERGED:          0	TO_CACHE:     479901
LLC WQ	ACCESS:      97155	FORWARD:         51	MERGED:          0	TO_CACHE:      97155
LLC PQ	ACCESS:      88971	FORWARD:          0	MERGED:          0	TO_CACHE:      88971

LLC Dense regions hint to LLC: 0

RAW hits: 1929408
Loads Generated: 12609767
Loads sent to L1D: 10680361
Stores Generated: 6906960
Stores sent to L1D: 6906967
Major fault: 0 Minor fault: 2327
Allocated PAGES: 2327

stream: 
stream:times selected: 1239800
stream:pref_filled: 126218
stream:pref_useful: 29081
stream:pref_late: 10199
stream:misses: 10457
stream:misses_by_poll: 0

CS: 
CS:times selected: 195183
CS:pref_filled: 72902
CS:pref_useful: 49610
CS:pref_late: 11154
CS:misses: 26517
CS:misses_by_poll: 2

CPLX: 
CPLX:times selected: 1043426
CPLX:pref_filled: 25306
CPLX:pref_useful: 7684
CPLX:pref_late: 4226
CPLX:misses: 134660
CPLX:misses_by_poll: 1

NL_L1: 
NL:times selected: 14261
NL:pref_filled: 1220
NL:pref_useful: 347
NL:pref_late: 539
NL:misses: 2242
NL:misses_by_poll: 0

total selections: 2492670
total_filled: 105563
total_useful: 50456
total_late: 28559
total_polluted: 3
total_misses_after_warmup: 804793
conflicts: 5496829

test: 119554

DRAM Statistics
 CHANNEL 0
 RQ ROW_BUFFER_HIT:       9587  ROW_BUFFER_MISS:      17090
 DBUS_CONGESTED:         14
 WQ ROW_BUFFER_HIT:       1531  ROW_BUFFER_MISS:      11072  FULL:          0

 AVG_CONGESTED_CYCLE: 4

CPU 0 Branch Prediction Accuracy: 99.8183% MPKI: 0.33278 Average ROB Occupancy at Mispredict: 193.135
Branch types
NOT_BRANCH: 40841504 81.683%
BRANCH_DIRECT_JUMP: 543113 1.08623%
BRANCH_INDIRECT: 180923 0.361846%
BRANCH_CONDITIONAL: 6210178 12.4204%
BRANCH_DIRECT_CALL: 941024 1.88205%
BRANCH_INDIRECT_CALL: 171031 0.342062%
BRANCH_RETURN: 1112029 2.22406%
BRANCH_OTHER: 0 0%

DRAM PAGES: 1048576
Allocated PAGES: 2327
Average_ROB_Occupancy: 238.263
Average_Decode_Occupancy: 33.8864
Average_FTQ_Occupancy: 13.1821
Indirect max targets: 14 Average targets: 1.15203
Branch_type:  BRANCH_DIRECT_JUMP:  Count Percentage: 3.73147 6.46184 3.50168 14.4724 1.69056 6.28938 0.979254 62.8734 
Branch_type:  BRANCH_INDIRECT:  Count Percentage: 11.7645 3.39273 12.1567 23.397 1.34469 14.4954 1.08284 32.3661 
Branch_type:  BRANCH_CONDITIONAL:  Count Percentage: 22.2014 2.82195 2.45874 8.87684 1.05477 4.4822 0.577416 57.5267 
Branch_type:  BRANCH_DIRECT_CALL:  Count Percentage: 0.765578 1.29424 1.39204 5.39421 1.96913 2.65414 0.796975 85.7337 
Branch_type:  BRANCH_INDIRECT_CALL:  Count Percentage: 9.51968 0.551227 2.98404 4.81572 0 3.85275 0 78.2766 
Branch_type:  BRANCH_RETURN:  Count Percentage: 4.40139 0.720688 3.66244 9.02287 2.11177 5.29991 1.01244 73.7685 
Branch_type:  BRANCH_DIRECT_JUMP:  Total Count: 40483 70105 37990 157012 18341 68234 10624 682119 
Branch_type:  BRANCH_INDIRECT:  Total Count: 42502 12257 43919 84527 4858 52368 3912 116930 
Branch_type:  BRANCH_CONDITIONAL:  Total Count: 2755795 350281 305196 1101857 130926 556362 71673 7140621 
Branch_type:  BRANCH_DIRECT_CALL:  Total Count: 14435 24403 26247 101708 37128 50044 15027 1616512 
Branch_type:  BRANCH_INDIRECT_CALL:  Total Count: 32623 1889 10226 16503 0 13203 0 268246 
Branch_type:  BRANCH_RETURN:  Total Count: 98106 16064 81635 201118 47071 118134 22567 1644285 
Number of unique branch instructions: 10407
Upper 32 bits: 
aaaa
ffff
ffff0000
Unique upper 32 bits: 3
Unique upper 36 bits: 3
Unique upper 40 bits: 5
Unique upper 44 bits: 32
Unique upper 48 bits: 156
Variant_0 : 1461 0.237793
Variant_1 : 1474 0.239909
Variant_2 : 1605 0.26123
Variant_3 : 0 0
Offset_3 4310
Offset_4 258
Offset_5 473
Offset_6 537
Offset_7 615
Offset_8 538
Offset_9 489
Offset_10 410
Offset_11 343
Offset_12 277
Offset_13 223
Offset_14 229
Offset_15 199
Offset_16 232
Offset_17 164
Offset_18 135
Offset_19 246
Offset_20 147
Offset_21 246
Offset_22 408
Offset_23 245
Offset_24 333
Offset_25 88
Offset_47 82
Offset_64 1
decode_dispatch_called: 25440850 70.0293
Dispatch_width: 0 13711891 53.8971 37.7438
Dispatch_width: 1 937795 3.68618 2.5814
Dispatch_width: 2 808222 3.17687 2.22474
Dispatch_width: 3 496818 1.95284 1.36756
Dispatch_width: 4 5407185 21.2539 14.884
Dispatch_width: 5 147149 0.578397 0.405047
Dispatch_width: 6 3931790 15.4546 10.8228
Empty_decode_cycles: 10888021 29.9707
ROB_full_cycles: 8765078 24.127
Starvation_cycles_per_kilo_instr: 236.32
Starvation_cycles_per_kilo_instr_3: 180.777
Starvation_cycles_per_kilo_instr_0: 158.348
Branch_type_1  (3,1)  (4,7)  (5,36)  (6,75)  (7,118)  (8,135)  (9,129)  (10,106)  (11,79)  (12,44)  (13,4)  (14,2)  (15,3)  (16,4)  (18,1)  (19,4)  (20,2)  (21,1)  (22,3)  (23,2)  (24,10)  (25,12) 
Branch_type_2  (3,1)  (5,1)  (8,3)  (9,3)  (12,1)  (13,1)  (14,1)  (16,3)  (17,2)  (20,2)  (21,2)  (23,5)  (24,1)  (47,37) 
Branch_type_3  (3,4308)  (4,251)  (5,432)  (6,445)  (7,463)  (8,337)  (9,269)  (10,174)  (11,138)  (12,49)  (13,4)  (21,1) 
Branch_type_4  (6,4)  (7,8)  (8,30)  (9,52)  (10,61)  (11,63)  (12,102)  (13,100)  (14,100)  (15,96)  (16,105)  (17,76)  (18,62)  (19,120)  (20,74)  (21,130)  (22,219)  (23,138)  (24,194)  (25,72) 
Branch_type_5  (8,2)  (9,1)  (10,3)  (11,5)  (12,3)  (13,14)  (14,16)  (15,11)  (16,20)  (17,12)  (18,16)  (19,12)  (20,12)  (21,13)  (22,42)  (23,26)  (24,36) 
Branch_type_6  (5,4)  (6,13)  (7,26)  (8,31)  (9,35)  (10,66)  (11,58)  (12,78)  (13,100)  (14,110)  (15,89)  (16,100)  (17,74)  (18,56)  (19,110)  (20,57)  (21,99)  (22,144)  (23,74)  (24,92)  (25,4)  (47,45)  (64,1) 
Unique trigger count: 
Variant_0_evicts_0 : 0
Variant_0_evicts_1 : 0
Variant_0_evicts_2 : 0
Variant_0_evicts_3 : 0
Variant_1_evicts_0 : 0
Variant_1_evicts_1 : 0
Variant_1_evicts_2 : 0
Variant_1_evicts_3 : 0
Variant_2_evicts_0 : 0
Variant_2_evicts_1 : 0
Variant_2_evicts_2 : 0
Variant_2_evicts_3 : 0
Variant_3_evicts_0 : 0
Variant_3_evicts_1 : 0
Variant_3_evicts_2 : 0
Variant_3_evicts_3 : 0
BTB PER SET UNIQUE ADDR: 5 8 5 9 8 6 7 3 6 6 8 5 4 9 8 10 7 6 8 7 6 6 6 7 6 7 4 8 3 8 7 6 7 9 9 6 3 5 4 4 7 8 7 5 2 4 5 6 6 5 7 5 6 7 6 5 6 5 4 5 4 5 4 4 6 5 5 3 5 4 7 4 7 6 6 7 8 6 8 7 8 8 7 10 6 4 4 8 9 6 4 6 3 8 3 4 5 6 4 5 5 6 6 8 5 6 5 4 4 8 8 3 6 9 7 5 4 5 7 8 6 6 9 7 9 9 6 10 5 6 6 8 9 1 9 5 7 2 5 7 4 5 5 6 7 8 11 5 5 5 7 6 9 5 7 7 2 5 4 9 4 5 5 6 4 5 6 8 7 5 8 3 4 4 4 6 4 7 2 5 4 4 8 8 3 9 4 5 8 6 6 3 5 6 3 6 5 7 5 3 8 8 5 6 5 6 4 5 6 5 6 10 8 5 4 4 6 8 6 6 3 5 4 6 6 4 3 6 6 7 5 5 8 6 5 6 7 11 4 10 7 12 7 5 6 6 6 7 8 5 5 6 6 3 7 5 5 2 6 7 7 5 8 3 5 5 7 9 3 7 8 6 7 5 5 4 8 5 10 9 9 6 6 7 7 5 5 9 3 6 5 5 4 4 7 9 6 3 5 9 10 4 4 10 4 4 5 7 8 3 4 6 5 4 6 5 6 6 6 4 9 7 8 6 8 7 7 6 4 7 7 7 5 6 3 4 6 4 5 6 5 4 5 6 3 7 6 2 4 6 4 7 3 6 5 9 5 6 5 7 4 6 4 7 5 6 5 5 4 6 6 5 7 4 6 8 4 7 6 4 10 5 6 4 6 7 4 4 5 6 4 6 7 6 4 5 5 10 6 7 5 7 6 9 7 4 3 4 8 7 3 5 4 6 8 8 11 8 7 7 6 7 3 9 4 9 6 8 8 6 11 5 10 4 4 3 8 2 6 3 9 5 5 8 5 5 3 5 6 5 7 5 4 4 9 5 7 3 8 4 8 8 7 7 6 4 6 8 5 6 8 6 6 5 6 11 3 4 5 4 6 6 6 8 7 4 6 7 8 4 7 5 6 8 4 8 6 5 6 5 8 4 7 7 7 7 5 4 5 3 3 5 5 4 3 5 6 3 3 3 4 5 5 3 4 5 3 4 3 4 6 3 6 4 4 4 2 2 3 5 4 4 6 7 3 4 3 4 4 4 5 8 2 8 4 3 7 2 6 4 1 4 3 6 4 3 3 3 4 2 3 2 1 3 3 4 5 2 4 2 2 4 2 4 2 2 2 3 4 3 4 4 2 4 3 6 4 5 4 5 4 4 2 2 2 3 4 2 4 2 3 2 3 3 2 5 4 5 3 4 4 2 4 3 6 7 3 3 3 4 3 2 7 3 4 5 5 4 7 4 4 6 2 1 5 5 5 4 2 3 4 2 3 4 3 4 4 3 4 2 1 3 3 7 4 2 6 3 8 4 4 5 5 5 3 4 3 8 4 6 3 6 3 2 3 7 2 6 6 4 3 3 3 3 4 4 3 4 3 6 6 2 4 3 3 6 3 2 5 4 4 1 1 3 5 3 3 4 3 4 4 4 3 3 5 4 5 5 3 6 5 3 6 3 3 2 6 4 2 3 4 7 3 4 5 3 5 2 2 4 5 4 2 3 5 6 2 1 4 2 5 5 4 5 4 5 4 5 4 6 3 2 3 3 4 4 5 3 2 3 2 5 3 3 6 6 2 3 5 3 5 4 5 5 4 3 8 1 4 2 4 3 2 2 7 4 7 4 4 2 4 1 0 2 3 3 4 3 4 3 3 4 4 1 4 3 4 2 5 4 3 7 4 5 5 5 6 4 3 2 2 5 4 4 5 4 6 3 2 4 8 4 4 7 4 4 5 6 3 5 3 5 3 5 5 5 5 2 3 3 6 1 4 2 2 3 2 4 4 3 4 5 4 4 2 4 4 2 5 1 7 2 3 4 2 5 2 3 5 3 4 1 6 3 5 2 3 3 5 4 6 4 2 5 3 4 3 4 5 2 4 4 5 4 3 5 6 5 3 3 4 8 3 4 3 4 4 3 4 4 3 3 5 5 4 4 2 2 5 5 5 5 4 6 6 3 2 6 3 2 5 2 5 6 3 2 7 3 3 3 4 2 3 9 2 5 3 3 4 3 3 2 3 4 4 3 4 3 4 3 3 3 5 5 5 2 4 6 3 4 6 3 6 4 4 4 4 3 3 6 3 5 6 4 4 3 4 3 4 4 3 4 5 4 7 2 6 5 4 3 2 5 4 1 3 4 5 4 5 4 5 5 3 5 3 3 7 7 3 3 2 3 3 3 1 6 7 4 2 4 5 6 4 4 2 4 6 5 6 5 4 5 4 6 7 3 2 4 2 6 6 4 4 4 4 4 3 1 3 6 3 6 4 5 4 4 5 2 4 3 4 5 5 8 3 6 2 4 2 2 5 5 3 1 4 3 4 4 4 5 4 4 3 4 4 6 4 5 4 3 6 3 4 2 3 3 3 3 4 3 6 4 2 4 3 6 3 4 4 4 3 4 0 3 3 2 4 5 3 3 4 3 7 4 3 5 5 6 6 4 8 5 2 3 2 5 2 3 5 4 2 2 6 5 3 3 5 3 6 6 3 3 1 1 6 4 3 3 4 2 1 2 2 1 6 2 5 2 7 4 4 3 2 4 2 5 3 3 4 5 7 1 4 6 4 4 4 3 3 4 4 3 5 4 3 5 4 2 4 2 4 3 8 2 5 3 5 3 3 4 4 3 4 3 5 3 4 5 4 6 3 2 5 4 3 3 4 3 4 5 4 3 6 2 3 5 4 5 4 5 6 7 6 2 5 3 4 2 5 5 6 3 1 8 3 4 4 6 3 4 2 5 4 6 4 2 2 3 4 5 4 6 6 3 4 3 5 3 3 4 6 4 4 3 4 2 3 4 6 4 2 4 3 5 5 2 5 3 5 6 4 3 3 3 6 7 4 4 7 3 3 2 5 6 3 1 4 2 2 2 3 3 3 6 4 5 2 8 4 4 4 4 1 7 3 6 2 6 2 5 3 3 2 2 5 3 6 6 4 2 2 5 3 4 1 3 6 6 3 5 2 2 5 3 3 2 3 4 6 6 3 3 6 4 4 2 1 1 1 5 5 3 4 7 6 5 3 3 5 5 4 3 3 4 3 3 5 6 7 3 5 5 3 2 4 6 4 5 4 4 3 3 3 2 3 4 5 6 4 6 4 1 4 5 4 3 4 2 2 6 2 4 4 4 6 5 5 3 6 5 3 5 3 6 5 4 5 4 5 4 3 2 2 8 4 7 4 4 2 3 4 4 5 7 5 5 3 3 6 3 2 6 5 5 5 2 6 4 6 8 5 2 2 5 2 3 7 2 3 4 2 4 4 2 4 4 
BTB PER SET COUNT: 5 2945 1464 1462 8 6 7 3 6 6 11 6 4 9 295 14 7 6 9 9 6 7 6 7 483 7 4 8 3 530 3873 6 12 10 12 7 3 5 6 5 10 1981 9 5 2 994 480 7 6 6 7 7 480 7 6 6 6 1421 4 5 4 5 4 4 6 6 186 3 6 4 9 4 10 8 6 228 8 7 995 7 20 9 7 12 8 4 4 11 480 2922 4 6 3 9 3 4 6 8 4 5 7 11 6 8 5 8 5 5 4 8 8 3 6 9 7 456 4 5 8 1893 7 6 1800 9 12 10 6 11 5 6 6 340 9 1 9 5 8 2 5 951 644 5 5 6 7 8 13 5 7 19 7 6 10 6 7 995 2 8 4 14 4 7 5 6 4 5 7 8 9 5 9 3 4 4 4 6 4 7 2 5 4 4 8 8 3 9 4 6 8 7 7 3 6 6 5 6 5 945 5 4 12 1471 5 7 5 6 5 6 28 5 195 17 954 5 4 4 6 935 6 8 3 5 4 539 7 991 3 7 6 7 302 5 10 6 6 10 7 11 4 10 8 38 7 5 12 6 7700 7 8 5 5 8 7 3 7 9 5 3 7 8 7 5 15 3 5 5 9 9 3 7 68 6 10 5 5 4 42 5 21 10 15 8 6 9 9 8 5 9 3 6 8 5 4 4 13 255 6 3 5 10 10 5 4 132 6 4 7 7 8 1468 948 7 5 4 8 6 10 6 6 4 11 7 102 7 996 9 8 8 1087 7 9 7 20465 6 3 4 7 4 5 6 5 4 5 6 3 11 11 2 60 10 4 7 3 7 5 10 5 950 9 121 4 6 5 10 14614 7 6 5 4 9 6 5 1939 4 6 9 1465 7 6 4 12 387 6 4 6 7 4 4 5 6 4 6 7 7 4 6 1281 1197 6 7 5 17 6 9 8 4 1993 6 8 7 3 5 5 6 8 8 11 61 7 7 6 7 3 977 5 295 6 16 12 6 11 948 10 4 4 3 12 2 2842 3 10 5 477 9 379 6 3 7 6 7 9 333 4 5 132 6 7 3 8 534 1467 497 9 7 20 4 7 8 5 6 1418 6 6 7 993 11 3 4 5 4 7 6 6 1467 101 4 8 2911 9 4 995 5 397 8 4 18 1406 6 7 5 288 5 9 7 7 7 5 4 7 3 3 7 6 1890 3 6 6 488 3 3 4 5 5 3 4 5 3 13 3 10 2451 3 7 12 32 4 3 88 7 5 11 4 6 7 3 1478 3 4 4 4 22 943 945 9 4 3 9 2 6 4 944 4 3 7 4 8 936 3 4 2 4 2 7 3 3 4 5 2 4 3 2 4 2 4 2 2 2 3 4 3 5 4 2 4 4 383 1463 5 4 5 4 4 2 2 3 3 4 2 4 2 3 2 3 3 2 5 7 5 3 4 8 3 5 5 6 800 3 3 3 4 3 2 7 3 5 5 7 4 7 4 4 8 2 1 9 5 5 4 2 936 4 6 3 4 3 4 4 3 4 2 1 1462 4 7 4 2 10 4 10 5 5 5 5 5 3 1464 17 9 6 477 3 388 3 2 3 8 2 7 6 4 3 3 3 3 5 4 3 4 3 7 6 2 4 3 3 6 3 2 5 4 5 1 1 3 5 474 3 4 3 4 5 6 3 3 6 4 7 6 4 6 7 3 6 3 4 2 6 5 2 3 4 7 3 5 6 3 5 2 2 4 6 6 2 3 945 6 2 1 187 2 9 5 4 31 4 6 4 2931 5 13 5 2 3 3 5 12 6 3 2 3 2 5 3 3 6 6 2 8 246 3 9 4 8 6 10 3 9 1 4 2 4 4 2 2 7 5 8 4 4 2 5 1 0 2 3 4 5 3 6 4 3 4 4 1 6 3 4 2 5 484 3 9 4 6 5 6 6 4 3 2 3 7 947 4 7 4 993 3 3 4 17 4 5 10 5 4 7 6 3 7 4 5 3 5 476 6 8 2 4 3 6 1 6 2 3 4 2 5 4 3 4 5 4 5 2 4 4 3 5 1 1469 3 3 4 2 8 2 5 5 3 4 1 9 3 7 2 3 4 41 6 8 4 2 5 3 4 4 4 6 4 234 992 5 10 3 5 1468 6 3 4 14 9 3 4 3 4 4 3 4 4 3 3 6 5 4 5 2 4 6 5 5 7 4 6 970 3 2 6 1892 2 6 2 5 7 3 2 478 3 3 3 4 2 4 20 5 5 3 3 16 3 3 2 3 5 4 3 4 1021 4 3 4 3 5 5 6 2 4 1465 3 49 6 4 7 4 5 4 4 4 3 478 3 7 6 4 4 3 5 3 5 5 3 5 8 4 8 2 6 525 4 3 2 5 4 1 5 4 5 6 6 4 6 5 991 5 3 3 959 479 3 3 2 3 3 4 1 6 7 227 2 10 5 6 4 4 2 11 6 6 6 6 4 5 4 6 9 3 2 4 2 7 6 4 4 991 4 4 3 1 3 6 3 8 8 5 4 4 15 2 112 3 4 5 5 2457 289 351 2 4 2 2 291 5 3 1 4 4 4 43 5 6 5 4 3 6 4 7 4 5 4 3 6 3 5 2 3 3 4 3 4 3 6 4 2 4 3 480 3 947 4 6 3 4 0 3 3 2 4 7 3 3 5 3 9 4 10 926 5 6 6 4 480 5 2 4 2 5 3 3 8 6 2 2 6 7 491 3 993 3 9 6 3 3 1 1 8 5 3 3 4 2 1 2 2 1 7 2 6 2 7 333 1463 3 2 4 5 5 3 4 5 5 397 1 4 6 5 4 4 3 3 4 7 3 5 4 3 6 6 2 5 2 7 3 9 5 7 3 5 3 4 4 4 3 4 564 6 3 4 5 4 8 3 2 6 5 3 3 4 3 10 580 5 3 8 2 3 6 5 5 4 5 6 7 6 2 7 3 4 2 5 5 6 3 1 10 3 4 4 8 3 948 3 6 4 14 4 2 2 4 4 5 4 6 6 3 6 3 9 5 3 4 6 4 4 936 4 3 3 1477 10 4 2 4 3 6 5 2 1464 3 5 295 5 3 4 3 1949 8 10 4 68 4 3 2 5 6 3 1 4 2 2 2 11 3 3 6 5 5 2 12 5 4 4 4 1 12 3 6 2 6 2 491 3 3 2 2 5 3 7 8 4 2 2 5 3 4 1 3 7 9 7 5 2 2 5 3 4 2 3 4 8 76 3 5 6 4 17 2 1 1 1 6 5 3 4 7 8 7 3 3 5 2428 4 3 3 2969 4 3 5 7 7 5 5 5 5 2 4 8 4 9 6 4 4 3 3 2 3 4 11 6 4 8 4 1 4 5 4 3 4 2 2 6 2 4 4 4 6 5 6 6 11 6 3 5 3 6 5 4 1075 6 5 4 3 2 2 8 4 7 4 10 2 3 243 4 6 7 7 992 3 3 9 3 2 6 5 13 5 487 7 6 7 999 5 2 2 1478 2 3 11 2 990 5 2 5 4 2 4 991 
To predecode: 0
Predecoding something: 0
Predecode request dropped: 0
sizeofblock_0 0
sizeofblock_1 37206
sizeofblock_2 41250
sizeofblock_3 36016
sizeofblock_4 18422
sizeofblock_5 0
sizeofblock_6 0
sizeofblock_7 0
sizeofblock_8 0
Variant_0 Correct: 1607158 Incorrect: 0 Accuracy: 1
Variant_1 Correct: 2081329 Incorrect: 0 Accuracy: 1
Variant_2 Correct: 3639704 Incorrect: 3494 Accuracy: 0.999041
Variant_3 Correct: 0 Incorrect: 0 Accuracy: -nan
