
*** ChampSim Multicore Out-of-Order Simulator ***

Warmup Instructions: 50000000
Simulation Instructions: 50000000
Number of CPUs: 1
LLC sets: 2048
LLC ways: 16
Off-chip DRAM Size: 4096 MB Channels: 1 Width: 64-bit Data Rate: 6400 MT/s
CPU 0 runs ./micro_traces/srv345.trace.gz
.gz
ITLB has LRU replacement policy
DTLB has LRU replacement policy
STLB has LRU replacement policy
FDIP Prefetcher at L1I
L1I has LRU replacement policy
L1D has LRU replacement policy
Initialize SRRIP state for L2C
Initialize DRRIP state for LLC
Heartbeat_Variant_0 : 1313 0.320557 per_variant_size: 0 1313 0 0 0 0 0 0 0 
Heartbeat_Variant_1 : 2526 0.616699 per_variant_size: 0 567 1959 0 0 0 0 0 0 
Heartbeat_Variant_2 : 0 0 per_variant_size: 0 0 0 0 0 0 0 0 0 
Heartbeat_Variant_3 : 0 0 per_variant_size: 0 0 0 0 0 0 0 0 0 
Heartbeat_Variant_0_evicts 0 : 5852 1 : 451 2 : 0 3 : 0 
Heartbeat_Variant_1_evicts 0 : 402 1 : 0 2 : 0 3 : 0 
Heartbeat_Variant_2_evicts 0 : 0 1 : 0 2 : 0 3 : 0 
Heartbeat_Variant_3_evicts 0 : 0 1 : 0 2 : 0 3 : 0 
Heartbeat CPU 0 instructions: 10000000 cycles: 2862176 heartbeat IPC: 3.49385 cumulative IPC: 3.49385 (Simulation time: 0 hr 2 min 3 sec) 
Heartbeat_Variant_0 : 1345 0.328369 per_variant_size: 0 1345 0 0 0 0 0 0 0 
Heartbeat_Variant_1 : 2587 0.631592 per_variant_size: 0 528 2059 0 0 0 0 0 0 
Heartbeat_Variant_2 : 0 0 per_variant_size: 0 0 0 0 0 0 0 0 0 
Heartbeat_Variant_3 : 0 0 per_variant_size: 0 0 0 0 0 0 0 0 0 
Heartbeat_Variant_0_evicts 0 : 5831 1 : 266 2 : 0 3 : 0 
Heartbeat_Variant_1_evicts 0 : 258 1 : 0 2 : 0 3 : 0 
Heartbeat_Variant_2_evicts 0 : 0 1 : 0 2 : 0 3 : 0 
Heartbeat_Variant_3_evicts 0 : 0 1 : 0 2 : 0 3 : 0 
Heartbeat CPU 0 instructions: 20000001 cycles: 5721820 heartbeat IPC: 3.49694 cumulative IPC: 3.49539 (Simulation time: 0 hr 3 min 49 sec) 
Heartbeat_Variant_0 : 1346 0.328613 per_variant_size: 0 1346 0 0 0 0 0 0 0 
Heartbeat_Variant_1 : 2594 0.633301 per_variant_size: 0 520 2074 0 0 0 0 0 0 
Heartbeat_Variant_2 : 0 0 per_variant_size: 0 0 0 0 0 0 0 0 0 
Heartbeat_Variant_3 : 0 0 per_variant_size: 0 0 0 0 0 0 0 0 0 
Heartbeat_Variant_0_evicts 0 : 5478 1 : 23 2 : 0 3 : 0 
Heartbeat_Variant_1_evicts 0 : 23 1 : 0 2 : 0 3 : 0 
Heartbeat_Variant_2_evicts 0 : 0 1 : 0 2 : 0 3 : 0 
Heartbeat_Variant_3_evicts 0 : 0 1 : 0 2 : 0 3 : 0 
Heartbeat CPU 0 instructions: 30000001 cycles: 8579881 heartbeat IPC: 3.49888 cumulative IPC: 3.49655 (Simulation time: 0 hr 5 min 35 sec) 
Heartbeat_Variant_0 : 1361 0.332275 per_variant_size: 0 1361 0 0 0 0 0 0 0 
Heartbeat_Variant_1 : 2620 0.639648 per_variant_size: 0 495 2125 0 0 0 0 0 0 
Heartbeat_Variant_2 : 0 0 per_variant_size: 0 0 0 0 0 0 0 0 0 
Heartbeat_Variant_3 : 0 0 per_variant_size: 0 0 0 0 0 0 0 0 0 
Heartbeat_Variant_0_evicts 0 : 5654 1 : 157 2 : 0 3 : 0 
Heartbeat_Variant_1_evicts 0 : 152 1 : 0 2 : 0 3 : 0 
Heartbeat_Variant_2_evicts 0 : 0 1 : 0 2 : 0 3 : 0 
Heartbeat_Variant_3_evicts 0 : 0 1 : 0 2 : 0 3 : 0 
Heartbeat CPU 0 instructions: 40000001 cycles: 11436936 heartbeat IPC: 3.50011 cumulative IPC: 3.49744 (Simulation time: 0 hr 7 min 21 sec) 
Heartbeat_Variant_0 : 1372 0.334961 per_variant_size: 0 1372 0 0 0 0 0 0 0 
Heartbeat_Variant_1 : 2620 0.639648 per_variant_size: 0 501 2119 0 0 0 0 0 0 
Heartbeat_Variant_2 : 0 0 per_variant_size: 0 0 0 0 0 0 0 0 0 
Heartbeat_Variant_3 : 0 0 per_variant_size: 0 0 0 0 0 0 0 0 0 
Heartbeat_Variant_0_evicts 0 : 5691 1 : 95 2 : 0 3 : 0 
Heartbeat_Variant_1_evicts 0 : 87 1 : 0 2 : 0 3 : 0 
Heartbeat_Variant_2_evicts 0 : 0 1 : 0 2 : 0 3 : 0 
Heartbeat_Variant_3_evicts 0 : 0 1 : 0 2 : 0 3 : 0 
Heartbeat CPU 0 instructions: 50000000 cycles: 14296355 heartbeat IPC: 3.49721 cumulative IPC: 3.4974 (Simulation time: 0 hr 9 min 5 sec) 

Warmup complete CPU 0 instructions: 50000004 cycles: 14296356 (Simulation time: 0 hr 9 min 5 sec) 

Cycle: 20000000 FTQ IN: 56536247 FTQ occupancy: 20.9663 DECODE IN: 56536183 DECODE occupancy: 54.5487 ROB IN: 56536123 ROB occupancy: 326.179 ROB OUT: 56535774
Heartbeat_Variant_0 : 1378 0.336426 per_variant_size: 0 1378 0 0 0 0 0 0 0 
Heartbeat_Variant_1 : 2629 0.641846 per_variant_size: 0 506 2123 0 0 0 0 0 0 
Heartbeat_Variant_2 : 0 0 per_variant_size: 0 0 0 0 0 0 0 0 0 
Heartbeat_Variant_3 : 0 0 per_variant_size: 0 0 0 0 0 0 0 0 0 
Heartbeat_Variant_0_evicts 0 : 5590 1 : 127 2 : 0 3 : 0 
Heartbeat_Variant_1_evicts 0 : 123 1 : 0 2 : 0 3 : 0 
Heartbeat_Variant_2_evicts 0 : 0 1 : 0 2 : 0 3 : 0 
Heartbeat_Variant_3_evicts 0 : 0 1 : 0 2 : 0 3 : 0 
Heartbeat CPU 0 instructions: 60000001 cycles: 22992559 heartbeat IPC: 1.14993 cumulative IPC: 1.14993 (Simulation time: 0 hr 11 min 24 sec) 
Cycle: 30000000 FTQ IN: 11631352 FTQ occupancy: 15.6438 DECODE IN: 11631393 DECODE occupancy: 40.7831 ROB IN: 11631453 ROB occupancy: 269.371 ROB OUT: 11631760
Heartbeat_Variant_0 : 1382 0.337402 per_variant_size: 0 1382 0 0 0 0 0 0 0 
Heartbeat_Variant_1 : 2632 0.642578 per_variant_size: 0 494 2138 0 0 0 0 0 0 
Heartbeat_Variant_2 : 0 0 per_variant_size: 0 0 0 0 0 0 0 0 0 
Heartbeat_Variant_3 : 0 0 per_variant_size: 0 0 0 0 0 0 0 0 0 
Heartbeat_Variant_0_evicts 0 : 5637 1 : 68 2 : 0 3 : 0 
Heartbeat_Variant_1_evicts 0 : 66 1 : 0 2 : 0 3 : 0 
Heartbeat_Variant_2_evicts 0 : 0 1 : 0 2 : 0 3 : 0 
Heartbeat_Variant_3_evicts 0 : 0 1 : 0 2 : 0 3 : 0 
Heartbeat CPU 0 instructions: 70000000 cycles: 31579759 heartbeat IPC: 1.16452 cumulative IPC: 1.15718 (Simulation time: 0 hr 13 min 41 sec) 
Cycle: 40000000 FTQ IN: 11522640 FTQ occupancy: 15.7561 DECODE IN: 11522594 DECODE occupancy: 40.852 ROB IN: 11522594 ROB occupancy: 270.51 ROB OUT: 11522450
Heartbeat_Variant_0 : 1382 0.337402 per_variant_size: 0 1382 0 0 0 0 0 0 0 
Heartbeat_Variant_1 : 2636 0.643555 per_variant_size: 0 508 2128 0 0 0 0 0 0 
Heartbeat_Variant_2 : 0 0 per_variant_size: 0 0 0 0 0 0 0 0 0 
Heartbeat_Variant_3 : 0 0 per_variant_size: 0 0 0 0 0 0 0 0 0 
Heartbeat_Variant_0_evicts 0 : 5648 1 : 83 2 : 0 3 : 0 
Heartbeat_Variant_1_evicts 0 : 83 1 : 0 2 : 0 3 : 0 
Heartbeat_Variant_2_evicts 0 : 0 1 : 0 2 : 0 3 : 0 
Heartbeat_Variant_3_evicts 0 : 0 1 : 0 2 : 0 3 : 0 
Heartbeat CPU 0 instructions: 80000003 cycles: 40273846 heartbeat IPC: 1.15021 cumulative IPC: 1.15485 (Simulation time: 0 hr 16 min 2 sec) 
Heartbeat_Variant_0 : 1382 0.337402 per_variant_size: 0 1382 0 0 0 0 0 0 0 
Heartbeat_Variant_1 : 2646 0.645996 per_variant_size: 0 506 2140 0 0 0 0 0 0 
Heartbeat_Variant_2 : 0 0 per_variant_size: 0 0 0 0 0 0 0 0 0 
Heartbeat_Variant_3 : 0 0 per_variant_size: 0 0 0 0 0 0 0 0 0 
Heartbeat_Variant_0_evicts 0 : 5766 1 : 125 2 : 0 3 : 0 
Heartbeat_Variant_1_evicts 0 : 128 1 : 0 2 : 0 3 : 0 
Heartbeat_Variant_2_evicts 0 : 0 1 : 0 2 : 0 3 : 0 
Heartbeat_Variant_3_evicts 0 : 0 1 : 0 2 : 0 3 : 0 
Heartbeat CPU 0 instructions: 90000001 cycles: 48852537 heartbeat IPC: 1.16568 cumulative IPC: 1.15754 (Simulation time: 0 hr 18 min 20 sec) 
Cycle: 50000000 FTQ IN: 11640179 FTQ occupancy: 15.7053 DECODE IN: 11640153 DECODE occupancy: 40.8736 ROB IN: 11640098 ROB occupancy: 269.928 ROB OUT: 11639934
Heartbeat_Variant_0 : 1382 0.337402 per_variant_size: 0 1382 0 0 0 0 0 0 0 
Heartbeat_Variant_1 : 2646 0.645996 per_variant_size: 0 492 2154 0 0 0 0 0 0 
Heartbeat_Variant_2 : 0 0 per_variant_size: 0 0 0 0 0 0 0 0 0 
Heartbeat_Variant_3 : 0 0 per_variant_size: 0 0 0 0 0 0 0 0 0 
Heartbeat_Variant_0_evicts 0 : 5574 1 : 45 2 : 0 3 : 0 
Heartbeat_Variant_1_evicts 0 : 45 1 : 0 2 : 0 3 : 0 
Heartbeat_Variant_2_evicts 0 : 0 1 : 0 2 : 0 3 : 0 
Heartbeat_Variant_3_evicts 0 : 0 1 : 0 2 : 0 3 : 0 
Heartbeat CPU 0 instructions: 100000001 cycles: 57521269 heartbeat IPC: 1.15357 cumulative IPC: 1.15674 (Simulation time: 0 hr 20 min 24 sec) 
Finished CPU 0 instructions: 50000001 cycles: 43224914 cumulative IPC: 1.15674 (Simulation time: 0 hr 20 min 24 sec) 

ChampSim completed all CPUs

Region of Interest Statistics

CPU 0 cumulative IPC: 1.15674 instructions: 50000001 cycles: 43224914
 Fetch stage stalled: 42.5881  Sim cycles: 43224914 fetch stall cycle: 18408658
 Empty decode stage: 18.5964  Sim cycles: 43224914 fetch stall cycle: 8038272
ITLB TOTAL     ACCESS:    5922037  HIT:    5430539  MISS:     491498  HIT %:    91.7005  MISS %:    8.29948   MPKI: 9.82996
ITLB LOAD TRANSLATION INSTRUCTION	ACCESS:    5787449  HIT:    5295951  MISS:     491498  HIT %:    91.5075  MISS %:    8.49248  MPKI: 9.82996
ITLB TRANSLATION FROM L1D PREFETCHER INSTRUCTION	ACCESS:     134588  HIT:     134588  MISS:          0  HIT %:        100  MISS %:          0  MPKI: 0

ITLB AVERAGE MISS LATENCY: 9.05304 cycles
ITLB RQ	ACCESS:    7998924	FORWARD:          0	MERGED:    1608311	TO_CACHE:    6390613

DTLB TOTAL     ACCESS:    8972391  HIT:    8501068  MISS:     471323  HIT %:     94.747  MISS %:    5.25304   MPKI: 9.42646
DTLB LOAD TRANSLATION DATA	ACCESS:    8972391  HIT:    8501068  MISS:     471323  HIT %:     94.747  MISS %:    5.25304  MPKI: 9.42646

DTLB AVERAGE MISS LATENCY: 9.32089 cycles
DTLB RQ	ACCESS:   13332428	FORWARD:          0	MERGED:    4325350	TO_CACHE:    9007078

STLB TOTAL     ACCESS:    1205901  HIT:    1203898  MISS:       2003  HIT %:    99.8339  MISS %:     0.1661   MPKI: 0.04006
STLB LOAD TRANSLATION INSTRUCTION	ACCESS:     491498  HIT:     491251  MISS:        247  HIT %:    99.9497  MISS %:  0.0502545  MPKI: 0.00494
STLB LOAD TRANSLATION DATA	ACCESS:     471323  HIT:     469567  MISS:       1756  HIT %:    99.6274  MISS %:   0.372568  MPKI: 0.03512
STLB TRANSLATION FROM L1D PREFETCHER DATA	ACCESS:     243080  HIT:     243080  MISS:          0  HIT %:        100  MISS %:          0  MPKI: 0

STLB AVERAGE MISS LATENCY: 74.6071 cycles
STLB RQ	ACCESS:    1312458	FORWARD:          0	MERGED:     106557	TO_CACHE:    1205901

STLB Hit, L1D data hit: 0
STLB Hit, L2C data hit: 0
STLB Hit, LLC data hit: 0
STLB Hit, LLC data miss: 0
STLB STLB hints to L2: 0
L1D TOTAL     ACCESS:   11891552  HIT:    6967966  MISS:    4923586  HIT %:    58.5959  MISS %:    41.4041   MPKI: 98.4717
L1D LOAD DATA	ACCESS:    6350337  HIT:    3064570  MISS:    3285767  HIT %:    48.2584  MISS %:    51.7416  MPKI: 65.7153
L1D RFO DATA	ACCESS:    5262768  HIT:    3839605  MISS:    1423163  HIT %:    72.9579  MISS %:    27.0421  MPKI: 28.4633
L1D PREFETCH DATA	ACCESS:     278447  HIT:      63791  MISS:     214656  HIT %:    22.9096  MISS %:    77.0904  MPKI: 4.29312

L1D PREFETCH  REQUESTED:     699514  ISSUED:     699514  USEFUL:      26436  USELESS:     203919
L1D USEFUL LOAD PREFETCHES:      26436 PREFETCH ISSUED TO LOWER LEVEL:     231346  ACCURACY: 11.427
 TIMELY PREFETCHES:      26436 LATE PREFETCHES: 15760 DROPPED PREFETCHES: 0
L1D AVERAGE MISS LATENCY: 119899 cycles
L1D RQ	ACCESS:   10665711	FORWARD:          0	MERGED:    3927508	TO_CACHE:    6582611
L1D WQ	ACCESS:    6942405	FORWARD:     155832	MERGED:     192588	TO_CACHE:    6749817
L1D PQ	ACCESS:     349877	FORWARD:          0	MERGED:          0	TO_CACHE:     349637

L1D UNIQUE REGIONS ACCESSED: 0
L1D REGIONS CONFLICTS: 0
L1D Cross Page Prefetch Requests: 2451
L1D Same Page Prefetch Requests: 714883
L1D ROI Sum of L1D PQ occupancy: 4407209
L1D PREFETCHES PUSHED FROM L2C: 0
L1I TOTAL     ACCESS:    7204475  HIT:    4453097  MISS:    2751378  HIT %:    61.8102  MISS %:    38.1898   MPKI: 55.0276
L1I LOAD INSTRUCTION	ACCESS:    6517213  HIT:    3765835  MISS:    2751378  HIT %:    57.7829  MISS %:    42.2171  MPKI: 55.0276
L1I PREFETCH INSTRUCTION	ACCESS:     687262  HIT:     687262  MISS:          0  HIT %:        100  MISS %:          0  MPKI: 0

L1I PREFETCH  REQUESTED:    1612867  ISSUED:    1612867  USEFUL:          0  USELESS:          0
L1I USEFUL LOAD PREFETCHES:          0 PREFETCH ISSUED TO LOWER LEVEL:          0  ACCURACY: -nan
 TIMELY PREFETCHES:          0 LATE PREFETCHES: 0 DROPPED PREFETCHES: 0
L1I AVERAGE MISS LATENCY: 17.0842 cycles
L1I RQ	ACCESS:    9585471	FORWARD:          0	MERGED:    2781976	TO_CACHE:    6803495
L1I PQ	ACCESS:    1612867	FORWARD:          0	MERGED:     417438	TO_CACHE:    1195429

L1BTB TOTAL     ACCESS:    5669368  HIT:    2053433  MISS:    3615935  HIT %:    36.2198  MISS %:    63.7802   MPKI: 72.3187
L1BTB BRANCH_DIRECT_JUMP	ACCESS:     548314 HIT:     145682 MISS:     402632 AVERAGE STALL: 69.6231 AVERAGE FETCH STALL: 15.3095 AVERAGE FETCH QUEUE STALL: 27.1648 AVERAGE DECODE STALL: 26.2405 AVERAGE EXECUTE STALL: 2.18771e+15
L1BTB BRANCH_INDIRECT	ACCESS:     183294 HIT:      66407 MISS:     116887 AVERAGE STALL: 152.909 AVERAGE FETCH STALL: 10.8453 AVERAGE FETCH QUEUE STALL: 23.6249 AVERAGE DECODE STALL: 16.4862 AVERAGE EXECUTE STALL: 100.992
L1BTB BRANCH_CONDITIONAL	ACCESS:    2710694 HIT:    1422174 MISS:    1288520 AVERAGE STALL: 72.1427 AVERAGE FETCH STALL: 26.1182 AVERAGE FETCH QUEUE STALL: 27.5224 AVERAGE DECODE STALL: 17.9777 AVERAGE EXECUTE STALL: 3.73491e+15
L1BTB BRANCH_DIRECT_CALL	ACCESS:     942184 HIT:     106494 MISS:     835690 AVERAGE STALL: 103.785 AVERAGE FETCH STALL: 27.3253 AVERAGE FETCH QUEUE STALL: 54.7876 AVERAGE DECODE STALL: 20.7862 AVERAGE EXECUTE STALL: 8.90287e+15
L1BTB BRANCH_INDIRECT_CALL	ACCESS:     171357 HIT:      21466 MISS:     149891 AVERAGE STALL: 167.279 AVERAGE FETCH STALL: 12.4016 AVERAGE FETCH QUEUE STALL: 21.4911 AVERAGE DECODE STALL: 17.0672 AVERAGE EXECUTE STALL: 115.832
L1BTB BRANCH_RETURN	ACCESS:    1113525 HIT:     291210 MISS:     822315 AVERAGE STALL: 55.6841 AVERAGE FETCH STALL: 16.2333 AVERAGE FETCH QUEUE STALL: 7.22943 AVERAGE DECODE STALL: 6.95145 AVERAGE EXECUTE STALL: 4.24239e+14
L1BTB BRANCH_OTHER ACCESS:          0 HIT:          0 MISS:          0 AVERAGE STALL: -nan AVERAGE FETCH STALL: -nan AVERAGE FETCH QUEUE STALL: -nan AVERAGE DECODE STALL: -nan AVERAGE EXECUTE STALL: -nan
L1BTB TOTAL ROB OCCUPANCY AT BTB MISS: 2.97192

L2BTB TOTAL     ACCESS:    3590500  HIT:    3524173  MISS:      66327  HIT %:    98.1527  MISS %:    1.84729   MPKI: 1.32654
L2BTB BRANCH_DIRECT_JUMP	ACCESS:     398423 HIT:     394196 MISS:       4227 AVERAGE STALL: 69.6231 AVERAGE FETCH STALL: 15.3095 AVERAGE FETCH QUEUE STALL: 27.1648 AVERAGE DECODE STALL: 26.2405 AVERAGE EXECUTE STALL: 2.18771e+15
L2BTB BRANCH_INDIRECT	ACCESS:     106638 HIT:     103900 MISS:       2738 AVERAGE STALL: 152.909 AVERAGE FETCH STALL: 10.8453 AVERAGE FETCH QUEUE STALL: 23.6249 AVERAGE DECODE STALL: 16.4862 AVERAGE EXECUTE STALL: 100.992
L2BTB BRANCH_CONDITIONAL	ACCESS:    1288520 HIT:    1283545 MISS:       4975 AVERAGE STALL: 72.1427 AVERAGE FETCH STALL: 26.1182 AVERAGE FETCH QUEUE STALL: 27.5224 AVERAGE DECODE STALL: 17.9777 AVERAGE EXECUTE STALL: 3.73491e+15
L2BTB BRANCH_DIRECT_CALL	ACCESS:     835690 HIT:     833602 MISS:       2088 AVERAGE STALL: 103.785 AVERAGE FETCH STALL: 27.3253 AVERAGE FETCH QUEUE STALL: 54.7876 AVERAGE DECODE STALL: 20.7862 AVERAGE EXECUTE STALL: 8.90287e+15
L2BTB BRANCH_INDIRECT_CALL	ACCESS:     140310 HIT:     130110 MISS:      10200 AVERAGE STALL: 167.279 AVERAGE FETCH STALL: 12.4016 AVERAGE FETCH QUEUE STALL: 21.4911 AVERAGE DECODE STALL: 17.0672 AVERAGE EXECUTE STALL: 115.832
L2BTB BRANCH_RETURN	ACCESS:     820919 HIT:     778820 MISS:      42099 AVERAGE STALL: 55.6841 AVERAGE FETCH STALL: 16.2333 AVERAGE FETCH QUEUE STALL: 7.22943 AVERAGE DECODE STALL: 6.95145 AVERAGE EXECUTE STALL: 4.24239e+14
L2BTB BRANCH_OTHER ACCESS:          0 HIT:          0 MISS:          0 AVERAGE STALL: -nan AVERAGE FETCH STALL: -nan AVERAGE FETCH QUEUE STALL: -nan AVERAGE DECODE STALL: -nan AVERAGE EXECUTE STALL: -nan
L2BTB TOTAL ROB OCCUPANCY AT BTB MISS: 162.02

L2C TOTAL     ACCESS:    9250494  HIT:    8808139  MISS:     442355  HIT %:     95.218  MISS %:    4.78196   MPKI: 8.8471
L2C LOAD INSTRUCTION	ACCESS:    2751378  HIT:    2509450  MISS:     241928  HIT %:     91.207  MISS %:    8.79298  MPKI: 4.83856
L2C LOAD TRANSLATION INSTRUCTION	ACCESS:        288  HIT:         67  MISS:        221  HIT %:    23.2639  MISS %:    76.7361  MPKI: 0.00442
L2C LOAD DATA	ACCESS:    3248147  HIT:    3180159  MISS:      67988  HIT %:    97.9069  MISS %:    2.09313  MPKI: 1.35976
L2C RFO DATA	ACCESS:    1391451  HIT:    1333891  MISS:      57560  HIT %:    95.8633  MISS %:    4.13669  MPKI: 1.1512
L2C PREFETCH DATA	ACCESS:     321061  HIT:     257530  MISS:      63531  HIT %:    80.2122  MISS %:    19.7878  MPKI: 1.27062
L2C WRITEBACK DATA	ACCESS:    1536329  HIT:    1526499  MISS:       9830  HIT %:    99.3602  MISS %:   0.639837  MPKI: 0.1966
L2C LOAD TRANSLATION DATA	ACCESS:       1840  HIT:        543  MISS:       1297  HIT %:    29.5109  MISS %:    70.4891  MPKI: 0.02594

L2C PREFETCH  REQUESTED:      97044  ISSUED:      97044  USEFUL:      11819  USELESS:      52026
L2C USEFUL LOAD PREFETCHES:      11819 PREFETCH ISSUED TO LOWER LEVEL:      63828  ACCURACY: 18.517
 TIMELY PREFETCHES:      11819 LATE PREFETCHES: 297 DROPPED PREFETCHES: 0
L2C AVERAGE MISS LATENCY: 39.1639 cycles
L2C RQ	ACCESS:    7445750	FORWARD:          0	MERGED:          0	TO_CACHE:    7393106
L2C WQ	ACCESS:    1556090	FORWARD:      53495	MERGED:      19761	TO_CACHE:    1536329
L2C PQ	ACCESS:     328390	FORWARD:          0	MERGED:       3204	TO_CACHE:     324335

L2C Dense regions hint from L2: 0
PSCL5 TOTAL     ACCESS:       4006  HIT:       2003  MISS:       2003  HIT %:         50  MISS %:         50   MPKI: 0.04006
PSCL5 LOAD TRANSLATION INSTRUCTION	ACCESS:       4006  HIT:       2003  MISS:       2003  HIT %:         50  MISS %:         50  MPKI: 0.04006


PSCL4 TOTAL     ACCESS:       3843  HIT:       1917  MISS:       1926  HIT %:    49.8829  MISS %:    50.1171   MPKI: 0.03852
PSCL4 LOAD TRANSLATION INSTRUCTION	ACCESS:       3543  HIT:       1917  MISS:       1626  HIT %:    54.1067  MISS %:    45.8933  MPKI: 0.03252
PSCL4 LOAD TRANSLATION DATA	ACCESS:        300  HIT:          0  MISS:        300  HIT %:          0  MISS %:        100  MPKI: 0.006


PSCL3 TOTAL     ACCESS:       3907  HIT:       1949  MISS:       1958  HIT %:    49.8848  MISS %:    50.1152   MPKI: 0.03916
PSCL3 LOAD TRANSLATION INSTRUCTION	ACCESS:       3575  HIT:       1949  MISS:       1626  HIT %:    54.5175  MISS %:    45.4825  MPKI: 0.03252
PSCL3 LOAD TRANSLATION DATA	ACCESS:        332  HIT:          0  MISS:        332  HIT %:          0  MISS %:        100  MPKI: 0.00664


PSCL2 TOTAL     ACCESS:       3898  HIT:       1895  MISS:       2003  HIT %:    48.6147  MISS %:    51.3853   MPKI: 0.04006
PSCL2 LOAD TRANSLATION INSTRUCTION	ACCESS:       2140  HIT:       1895  MISS:        245  HIT %:    88.5514  MISS %:    11.4486  MPKI: 0.0049
PSCL2 LOAD TRANSLATION DATA	ACCESS:       1758  HIT:          0  MISS:       1758  HIT %:          0  MISS %:        100  MPKI: 0.03516


LLC TOTAL     ACCESS:     514256  HIT:     486113  MISS:      28143  HIT %:    94.5274  MISS %:    5.47257   MPKI: 0.56286
LLC LOAD INSTRUCTION	ACCESS:     241928  HIT:     241219  MISS:        709  HIT %:    99.7069  MISS %:   0.293062  MPKI: 0.01418
LLC LOAD TRANSLATION INSTRUCTION	ACCESS:        221  HIT:        190  MISS:         31  HIT %:    85.9729  MISS %:    14.0271  MPKI: 0.00062
LLC LOAD DATA	ACCESS:      67717  HIT:      63899  MISS:       3818  HIT %:    94.3618  MISS %:    5.63817  MPKI: 0.07636
LLC RFO DATA	ACCESS:      57505  HIT:      41965  MISS:      15540  HIT %:    72.9763  MISS %:    27.0237  MPKI: 0.3108
LLC PREFETCH DATA	ACCESS:      63827  HIT:      56162  MISS:       7665  HIT %:     87.991  MISS %:     12.009  MPKI: 0.1533
LLC WRITEBACK DATA	ACCESS:      81761  HIT:      81458  MISS:        303  HIT %:    99.6294  MISS %:   0.370592  MPKI: 0.00606
LLC LOAD TRANSLATION DATA	ACCESS:       1297  HIT:       1220  MISS:         77  HIT %:    94.0632  MISS %:    5.93678  MPKI: 0.00154

LLC AVERAGE MISS LATENCY: 153.054 cycles
LLC RQ	ACCESS:     368697	FORWARD:          0	MERGED:          0	TO_CACHE:     368668
LLC WQ	ACCESS:      81761	FORWARD:         30	MERGED:          0	TO_CACHE:      81761
LLC PQ	ACCESS:      63828	FORWARD:          0	MERGED:          0	TO_CACHE:      63827

LLC Dense regions hint to LLC: 0

RAW hits: 1973114
Loads Generated: 12638826
Loads sent to L1D: 10665711
Stores Generated: 6942400
Stores sent to L1D: 6942405
Major fault: 0 Minor fault: 2557
Allocated PAGES: 2557

stream: 
stream:times selected: 1197447
stream:pref_filled: 392254
stream:pref_useful: 23657
stream:pref_late: 38504
stream:misses: 117920
stream:misses_by_poll: 0

CS: 
CS:times selected: 178594
CS:pref_filled: 6196
CS:pref_useful: 2138
CS:pref_late: 4562
CS:misses: 5578
CS:misses_by_poll: 0

CPLX: 
CPLX:times selected: 1195486
CPLX:pref_filled: 40908
CPLX:pref_useful: 3168
CPLX:pref_late: 7348
CPLX:misses: 801662
CPLX:misses_by_poll: 0

NL_L1: 
NL:times selected: 6000
NL:pref_filled: 1746
NL:pref_useful: 103
NL:pref_late: 203
NL:misses: 5656
NL:misses_by_poll: 0

total selections: 2577527
total_filled: 214656
total_useful: 26436
total_late: 54092
total_polluted: 0
total_misses_after_warmup: 3518041
conflicts: 5543776

test: 120994

DRAM Statistics
 CHANNEL 0
 RQ ROW_BUFFER_HIT:      10559  ROW_BUFFER_MISS:      17273
 DBUS_CONGESTED:          8
 WQ ROW_BUFFER_HIT:       1298  ROW_BUFFER_MISS:      12597  FULL:          0

 AVG_CONGESTED_CYCLE: 2

CPU 0 Branch Prediction Accuracy: 99.8267% MPKI: 0.3168 Average ROB Occupancy at Mispredict: 206.128
Branch types
NOT_BRANCH: 40859855 81.7197%
BRANCH_DIRECT_JUMP: 548314 1.09663%
BRANCH_INDIRECT: 183294 0.366588%
BRANCH_CONDITIONAL: 6181535 12.3631%
BRANCH_DIRECT_CALL: 942184 1.88437%
BRANCH_INDIRECT_CALL: 171357 0.342714%
BRANCH_RETURN: 1113525 2.22705%
BRANCH_OTHER: 0 0%

DRAM PAGES: 1048576
Allocated PAGES: 2557
Average_ROB_Occupancy: 270.984
Average_Decode_Occupancy: 40.8435
Average_FTQ_Occupancy: 15.7305
Indirect max targets: 14 Average targets: 1.14527
Branch_type:  BRANCH_DIRECT_JUMP:  Count Percentage: 3.26741 6.26219 4.55407 8.10877 2.42602 6.30342 1.00456 68.0736 
Branch_type:  BRANCH_INDIRECT:  Count Percentage: 11.7665 3.4654 2.59168 0 2.54775 9.6903 19.2499 50.6884 
Branch_type:  BRANCH_CONDITIONAL:  Count Percentage: 21.1482 2.94492 1.87333 7.8215 1.55958 4.88506 1.87229 57.8951 
Branch_type:  BRANCH_DIRECT_CALL:  Count Percentage: 0.261105 1.2606 1.46457 3.59063 3.07145 2.64944 0.889625 86.8126 
Branch_type:  BRANCH_INDIRECT_CALL:  Count Percentage: 9.51484 0.582571 2.98112 4.83998 0 2.47848 1.28912 78.3139 
Branch_type:  BRANCH_RETURN:  Count Percentage: 3.47799 0.573939 1.29069 8.91537 2.71251 6.68576 3.08634 73.2574 
Branch_type:  BRANCH_DIRECT_JUMP:  Total Count: 35824 68659 49931 88905 26599 69111 11014 746362 
Branch_type:  BRANCH_INDIRECT:  Total Count: 43122 12700 9498 0 9337 35513 70547 185763 
Branch_type:  BRANCH_CONDITIONAL:  Total Count: 2613893 363989 231542 966729 192762 603789 231413 7155782 
Branch_type:  BRANCH_DIRECT_CALL:  Total Count: 4917 23739 27580 67617 57840 49893 16753 1634813 
Branch_type:  BRANCH_INDIRECT_CALL:  Total Count: 32616 1997 10219 16591 0 8496 4419 268453 
Branch_type:  BRANCH_RETURN:  Total Count: 77445 12780 28740 198520 60400 148873 68724 1631235 
Number of unique branch instructions: 9840
Upper 32 bits: 
aaaa
ffff
ffff0000
Unique upper 32 bits: 3
Unique upper 36 bits: 3
Unique upper 40 bits: 5
Unique upper 44 bits: 32
Unique upper 48 bits: 154
Variant_0 : 1382 0.337402
Variant_1 : 2646 0.645996
Variant_2 : 0 0
Variant_3 : 0 0
Offset_3 4061
Offset_4 244
Offset_5 449
Offset_6 500
Offset_7 572
Offset_8 506
Offset_9 465
Offset_10 377
Offset_11 303
Offset_12 270
Offset_13 203
Offset_14 227
Offset_15 184
Offset_16 221
Offset_17 145
Offset_18 118
Offset_19 235
Offset_20 137
Offset_21 235
Offset_22 391
Offset_23 241
Offset_24 331
Offset_25 88
Offset_47 82
decode_dispatch_called: 32772295 75.8181
Dispatch_width: 0 20039801 61.1486 46.3617
Dispatch_width: 1 1187147 3.62241 2.74644
Dispatch_width: 2 978721 2.98643 2.26425
Dispatch_width: 3 558738 1.70491 1.29263
Dispatch_width: 4 7388394 22.5446 17.0929
Dispatch_width: 5 91342 0.278717 0.211318
Dispatch_width: 6 2528152 7.7143 5.84883
Empty_decode_cycles: 10452619 24.1819
ROB_full_cycles: 16975395 39.2722
Starvation_cycles_per_kilo_instr: 237.214
Starvation_cycles_per_kilo_instr_3: 162.416
Starvation_cycles_per_kilo_instr_0: 135.17
Branch_type_1  (3,1)  (4,9)  (5,37)  (6,68)  (7,113)  (8,128)  (9,122)  (10,97)  (11,67)  (12,43)  (13,5)  (14,2)  (15,3)  (16,4)  (18,1)  (19,4)  (20,2)  (21,1)  (22,3)  (23,2)  (24,10)  (25,12) 
Branch_type_2  (3,1)  (5,1)  (8,3)  (9,3)  (12,1)  (13,1)  (14,1)  (16,3)  (17,2)  (20,2)  (21,2)  (23,5)  (24,1)  (47,38) 
Branch_type_3  (3,4059)  (4,235)  (5,407)  (6,417)  (7,429)  (8,314)  (9,256)  (10,152)  (11,122)  (12,50)  (13,4) 
Branch_type_4  (6,3)  (7,8)  (8,25)  (9,52)  (10,61)  (11,58)  (12,97)  (13,88)  (14,100)  (15,86)  (16,99)  (17,65)  (18,53)  (19,115)  (20,72)  (21,124)  (22,208)  (23,136)  (24,192)  (25,72) 
Branch_type_5  (8,2)  (9,1)  (10,3)  (11,5)  (12,3)  (13,14)  (14,16)  (15,11)  (16,20)  (17,11)  (18,16)  (19,12)  (20,10)  (21,13)  (22,42)  (23,26)  (24,37) 
Branch_type_6  (5,4)  (6,12)  (7,22)  (8,34)  (9,31)  (10,64)  (11,51)  (12,76)  (13,91)  (14,108)  (15,84)  (16,95)  (17,67)  (18,48)  (19,104)  (20,51)  (21,95)  (22,138)  (23,72)  (24,91)  (25,4)  (47,44) 
Unique trigger count: 
Variant_0_evicts_0 : 0
Variant_0_evicts_1 : 0
Variant_0_evicts_2 : 0
Variant_0_evicts_3 : 0
Variant_1_evicts_0 : 0
Variant_1_evicts_1 : 0
Variant_1_evicts_2 : 0
Variant_1_evicts_3 : 0
Variant_2_evicts_0 : 0
Variant_2_evicts_1 : 0
Variant_2_evicts_2 : 0
Variant_2_evicts_3 : 0
Variant_3_evicts_0 : 0
Variant_3_evicts_1 : 0
Variant_3_evicts_2 : 0
Variant_3_evicts_3 : 0
BTB PER SET UNIQUE ADDR: 11 15 9 8 7 11 11 10 8 11 9 11 11 9 13 9 9 8 8 10 9 8 11 13 8 11 11 7 10 9 11 10 9 7 4 10 8 13 6 7 11 8 9 11 8 7 12 8 9 6 12 11 14 8 10 6 7 7 7 14 8 12 8 12 9 11 10 9 10 12 10 9 13 8 8 6 7 9 6 14 10 6 9 11 10 9 10 8 9 9 8 7 9 9 6 9 9 8 14 11 13 20 9 12 7 11 10 8 8 9 7 11 12 9 8 7 8 8 6 9 13 10 5 5 7 11 7 10 15 8 10 13 9 14 11 9 6 14 8 15 9 6 10 8 11 11 16 12 6 15 11 13 6 12 11 12 14 9 11 8 11 8 8 11 9 9 9 6 10 8 7 9 13 12 6 10 9 9 12 11 12 10 11 9 8 11 5 9 7 8 12 10 11 12 14 8 10 10 9 9 9 14 7 10 10 13 11 9 10 11 10 7 9 10 6 11 6 11 9 18 7 11 9 11 6 10 10 10 8 11 11 6 8 13 10 10 12 8 9 7 8 10 11 10 11 9 9 9 8 10 10 10 9 8 11 12 8 8 10 8 8 9 6 12 9 7 9 8 6 9 9 7 6 8 8 8 8 11 10 10 9 10 6 10 8 9 8 14 11 9 10 9 12 8 7 10 10 9 8 8 10 11 8 15 12 6 10 10 8 9 6 12 6 17 13 8 10 8 12 11 7 10 13 9 11 13 7 8 10 8 10 12 6 13 8 13 9 10 7 16 7 10 7 12 11 12 10 12 8 9 10 7 11 12 9 9 8 10 7 7 11 14 9 13 11 9 6 11 12 9 8 6 9 10 8 10 12 16 13 11 15 8 7 10 8 11 14 8 9 12 11 9 14 13 8 7 10 10 11 12 10 10 11 9 9 16 9 10 10 12 12 7 8 15 9 10 13 14 9 13 5 11 12 7 9 11 12 9 15 8 12 10 8 8 9 12 11 9 8 10 10 9 9 8 13 7 11 9 10 10 10 14 8 11 13 12 14 11 6 9 6 8 11 15 12 9 11 11 8 7 8 10 8 12 10 11 4 14 7 12 8 11 10 8 8 14 11 11 12 14 11 11 8 10 6 9 14 11 7 9 11 11 10 14 10 6 6 10 10 12 10 13 8 13 9 11 10 10 8 7 8 7 9 8 10 14 10 7 8 14 13 4 15 8 6 12 8 12 10 7 10 7 12 9 10 11 12 12 7 9 10 15 11 8 8 15 12 11 11 10 12 10 10 10 8 12 9 9 8 9 10 7 10 10 11 12 11 9 10 7 14 14 9 8 11 7 8 9 10 10 8 8 8 8 10 9 9 9 10 11 9 10 9 8 9 9 9 9 10 9 14 14 5 10 4 9 8 11 10 11 11 5 9 7 9 11 9 11 7 13 8 12 10 10 8 8 9 10 8 11 10 7 16 13 8 11 6 8 10 6 9 8 7 10 16 9 9 14 9 5 10 7 9 18 10 12 7 9 11 7 14 9 9 11 10 8 9 9 13 7 7 16 9 11 7 7 8 9 10 16 11 9 10 9 9 11 7 7 5 12 7 8 10 10 7 10 9 11 10 7 11 9 10 7 9 9 15 12 8 10 10 13 8 10 8 10 11 9 5 10 8 8 11 12 10 8 13 14 14 9 11 9 10 11 6 12 7 10 12 9 13 8 12 9 10 13 12 12 9 9 9 7 6 9 7 9 8 15 12 13 9 10 11 6 8 11 9 10 12 7 6 10 11 8 8 10 9 16 9 9 5 4 12 11 11 13 10 9 13 11 13 10 12 10 10 12 8 9 9 9 9 11 14 15 8 12 11 10 7 14 11 10 9 12 14 10 10 7 10 9 9 12 9 6 8 8 12 9 6 8 10 10 8 10 9 12 11 11 10 9 10 8 10 8 13 12 13 9 8 14 11 13 6 8 14 7 10 9 10 10 10 10 12 9 9 8 7 11 8 8 10 6 10 13 10 12 10 8 10 9 8 8 10 10 11 12 10 9 7 11 12 9 11 8 9 12 10 7 11 11 8 10 8 11 15 11 11 11 8 11 8 14 8 11 7 9 6 6 7 6 10 13 14 13 7 15 8 8 12 12 9 10 10 6 9 10 9 10 8 10 11 8 7 11 9 10 9 10 8 10 11 12 9 9 8 4 9 12 9 9 10 11 10 9 12 11 17 8 12 13 11 12 16 10 7 14 16 7 9 9 11 10 13 10 10 6 8 9 11 7 13 10 12 8 12 8 7 13 6 9 7 9 11 8 8 8 7 5 6 7 8 16 9 7 
BTB PER SET COUNT: 1007 21 1476 10 8 17 844 14 1469 12 12 212 18394 11 16 10 2234 10 10 11 10 8 780 75 17 12 13 7 381 9 460 10 10 7 4 15 9 15 6 7 11 14 9 13 1467 106 13 8 16 6 21 13 19 8 17 6 7 7 10 16 9 17 108 16 10 13 11 9 15 13 15 297 15 8 9 6 10 13 7 21 1010 6 13 16 13 36 10 11 1014 17 8 840 515 47 6 10 1783 8 18 13 26 332 12 497 2195 15 10 11 160 11 12 28 943 13 10 395 14 12 6 157 166 12 5 7 7 88 9 1581 24 458 12 18 14 15 15 10 819 18 13 18 9 7 12 11 13 216 113 15 6 20 13 276 378 12 23 16 25 10 15 9 11 14 10 13 55 15 11 6 14 8 8 10 18 19 7 1330 10 11 17 319 14 40 372 10 8 13 7 12 9 1007 15 13 11 14 19 113 12 14 10 13 9 18 966 13 11 23 15 14 10 1140 12 9 9 17 6 1004 6 14 1472 30 9 11 385 11 8 17 11 11 803 16 13 6 8 13 647 12 18 431 148 9 9 11 212 10 12 12 14 16 10 12 12 15 11 9 13 18 8 13 12 14 967 9 7 23 10 7 11 11 6 10 9 7 6 11 8 12 10 12 13 117 21 13 8 14 8 13 8 17 14 13 13 9 16 8 9 11 165 10 9 10 13 17 10 23 12 9 10 16 170 706 6 16 6 22 707 10 14 9 16 20 8 2942 22 9 13 19 511 8 15 8 10 16 48 18 8 16 15 12 7 20 7 885 10 282 12 15 10 16 9 135 11 8 20 17 11 10 8 15 36 8 14 18 9 16 15 3157 6 14 13 11 10 378 10 712 12 15 18 21 147 258 200 8 8 13 11 16 20 9 11 1371 477 12 19 15 11 1008 11 12 1159 16 10 13 152 17 15 26 9 509 16 18 42 7 8 23 9 14 16 71 14 23 5 33 15 7 12 12 1336 9 25 1292 20 13 8 12 289 20 13 20 9 17 10 12 11 8 2256 7 471 11 10 11 933 15 14 19 24 326 17 12 6 10 24 10 11 707 17 12 15 12 10 9 8 13 9 12 18 13 4 66 7 13 10 153 10 10 9 730 52 18 415 149 321 16 14 13 7 207 21 973 10 9 17 13 17 47 10 7 6 11 12 20 13 15 1882 17 11 15 11 12 9 7 11 8 10 336 13 15 63 7 8 1483 14 5 24 11 6 13 11 182 13 8 12 7 14 10 13 13 16 18 8 1008 12 25 873 22 10 26 14 11 16 13 13 14 10 11 558 15 164 12 10 12 12 7 16 10 13 14 12 11 16 7 18 17 11 4502 12 8 702 11 16 15 10 8 8 8 20 16 11 385 263 11 11 14 10 13 14 14 10 40 12 12 16 1473 5 16 4 9 8 11 12 25 14 5 15 1007 9 17 12 14 7 14 12 15 15 14 8 14 9 903 9 12 15 7 21 15 9 180 506 8 11 6 9 8 8 12 21 513 9 21 170 5 10 7 10 22 2069 19 8 969 602 8 17 10 830 12 10 11 9 13 16 11 7 25 1349 496 2005 7 11 12 13 24 12 9 13 11 1982 14 108 9 5 22 966 19 1475 18 10 12 10 13 10 7 17 12 1099 9 10 9 94 18 8 10 11 1216 11 2377 11 11 12 10 5 193 12 9 145 115 15 1924 214 19 15 9 939 10 15 13 6 14 1005 11 13 9 482 8 17 11 18 18 15 1383 11 13 13 10 6 361 9 10 9 1489 16 113 9 384 129 8 8 12 10 10 18 8 1489 12 18 8 9 10 13 18 10 11 5 4 20 12 11 116 14 10 22 286 92 10 24 10 14 13 12 11 13 54 13 7890 21 20 10 15 15 2761 7 2900 13 1041 11 22 18 10 12 7 13 13 12 20 14 6 10 1927 12 11 1005 192 14 969 9 13 733 13 74 19 11 14610 14 730 687 12 151 13 16 10 11 17 16 13 6 13 24 9 12 12 13 10 375 37 21 9 9 8 7 14 2656 11 12 6 15 17 13 13 12 11 10 626 10 8 11 10 15 13 12 10 9 12 15 13 12 10 12 18 12 7 125 15 10 861 9 17 21 14 22 974 9 15 8 142 509 15 7 931 6 6 12 6 10 16 429 16 9 374 8 13 1920 15 10 1534 13 7 12 18 103 11 10 12 179 9 970 14 13 11 12 12 8 623 630 14 39 11 8 4 26 25 9 10 15 1470 12 9 15 13 33 9 105 158 14 15 26 14 8 1351 23 891 10 12 14 13 23 11 767 8 9 1471 26 8 25 1469 18 13 14 9 10 19 7 973 231 10 14 11 8 10 8 5 7 8 10 18 12 7 
To predecode: 0
Predecoding something: 0
Predecode request dropped: 0
sizeofblock_0 0
sizeofblock_1 43919
sizeofblock_2 92989
sizeofblock_3 0
sizeofblock_4 0
sizeofblock_5 0
sizeofblock_6 0
sizeofblock_7 0
sizeofblock_8 0
Variant_0 Correct: 1608690 Incorrect: 0 Accuracy: 1
Variant_1 Correct: 5712735 Incorrect: 0 Accuracy: 1
Variant_2 Correct: 0 Incorrect: 0 Accuracy: -nan
Variant_3 Correct: 0 Incorrect: 0 Accuracy: -nan
