
*** ChampSim Multicore Out-of-Order Simulator ***

Warmup Instructions: 50000000
Simulation Instructions: 50000000
Number of CPUs: 1
LLC sets: 2048
LLC ways: 16
Off-chip DRAM Size: 4096 MB Channels: 1 Width: 64-bit Data Rate: 6400 MT/s
CPU 0 runs ./micro_traces/srv38.trace.gz
.gz
ITLB has LRU replacement policy
DTLB has LRU replacement policy
STLB has LRU replacement policy
L1I has LRU replacement policy
L1D has LRU replacement policy
Initialize SRRIP state for L2C
Initialize DRRIP state for LLC
Heartbeat_Variant_0 : 1357 0.331299 per_variant_size: 0 1357 0 0 0 0 0 0 0 
Heartbeat_Variant_1 : 1273 0.310791 per_variant_size: 0 578 695 0 0 0 0 0 0 
Heartbeat_Variant_2 : 1333 0.325439 per_variant_size: 0 503 370 235 225 0 0 0 0 
Heartbeat_Variant_3 : 0 0 per_variant_size: 0 0 0 0 0 0 0 0 0 
Heartbeat_Variant_0_evicts 0 : 6049 1 : 393 2 : 463 3 : 0 
Heartbeat_Variant_1_evicts 0 : 396 1 : 0 2 : 556 3 : 0 
Heartbeat_Variant_2_evicts 0 : 445 1 : 544 2 : 0 3 : 0 
Heartbeat_Variant_3_evicts 0 : 0 1 : 0 2 : 0 3 : 0 
Heartbeat CPU 0 instructions: 10000000 cycles: 2796523 heartbeat IPC: 3.57587 cumulative IPC: 3.57587 (Simulation time: 0 hr 1 min 20 sec) 
Heartbeat_Variant_0 : 1382 0.337402 per_variant_size: 0 1382 0 0 0 0 0 0 0 
Heartbeat_Variant_1 : 1283 0.313232 per_variant_size: 0 569 714 0 0 0 0 0 0 
Heartbeat_Variant_2 : 1342 0.327637 per_variant_size: 0 492 383 235 232 0 0 0 0 
Heartbeat_Variant_3 : 0 0 per_variant_size: 0 0 0 0 0 0 0 0 0 
Heartbeat_Variant_0_evicts 0 : 5682 1 : 150 2 : 187 3 : 0 
Heartbeat_Variant_1_evicts 0 : 156 1 : 0 2 : 388 3 : 0 
Heartbeat_Variant_2_evicts 0 : 172 1 : 398 2 : 0 3 : 0 
Heartbeat_Variant_3_evicts 0 : 0 1 : 0 2 : 0 3 : 0 
Heartbeat CPU 0 instructions: 20000002 cycles: 5590596 heartbeat IPC: 3.57901 cumulative IPC: 3.57744 (Simulation time: 0 hr 2 min 38 sec) 
Heartbeat_Variant_0 : 1382 0.337402 per_variant_size: 0 1382 0 0 0 0 0 0 0 
Heartbeat_Variant_1 : 1301 0.317627 per_variant_size: 0 591 710 0 0 0 0 0 0 
Heartbeat_Variant_2 : 1351 0.329834 per_variant_size: 0 501 388 235 227 0 0 0 0 
Heartbeat_Variant_3 : 0 0 per_variant_size: 0 0 0 0 0 0 0 0 0 
Heartbeat_Variant_0_evicts 0 : 5716 1 : 261 2 : 243 3 : 0 
Heartbeat_Variant_1_evicts 0 : 261 1 : 0 2 : 438 3 : 0 
Heartbeat_Variant_2_evicts 0 : 250 1 : 428 2 : 0 3 : 0 
Heartbeat_Variant_3_evicts 0 : 0 1 : 0 2 : 0 3 : 0 
Heartbeat CPU 0 instructions: 30000003 cycles: 8386260 heartbeat IPC: 3.57697 cumulative IPC: 3.57728 (Simulation time: 0 hr 3 min 55 sec) 
Heartbeat_Variant_0 : 1386 0.338379 per_variant_size: 0 1386 0 0 0 0 0 0 0 
Heartbeat_Variant_1 : 1298 0.316895 per_variant_size: 0 582 716 0 0 0 0 0 0 
Heartbeat_Variant_2 : 1360 0.332031 per_variant_size: 0 492 404 235 229 0 0 0 0 
Heartbeat_Variant_3 : 0 0 per_variant_size: 0 0 0 0 0 0 0 0 0 
Heartbeat_Variant_0_evicts 0 : 5650 1 : 152 2 : 145 3 : 0 
Heartbeat_Variant_1_evicts 0 : 151 1 : 0 2 : 323 3 : 0 
Heartbeat_Variant_2_evicts 0 : 142 1 : 328 2 : 0 3 : 0 
Heartbeat_Variant_3_evicts 0 : 0 1 : 0 2 : 0 3 : 0 
Heartbeat CPU 0 instructions: 40000000 cycles: 11181348 heartbeat IPC: 3.5777 cumulative IPC: 3.57739 (Simulation time: 0 hr 5 min 11 sec) 
Heartbeat_Variant_0 : 1396 0.34082 per_variant_size: 0 1396 0 0 0 0 0 0 0 
Heartbeat_Variant_1 : 1294 0.315918 per_variant_size: 0 564 730 0 0 0 0 0 0 
Heartbeat_Variant_2 : 1368 0.333984 per_variant_size: 0 509 378 245 236 0 0 0 0 
Heartbeat_Variant_3 : 0 0 per_variant_size: 0 0 0 0 0 0 0 0 0 
Heartbeat_Variant_0_evicts 0 : 5724 1 : 157 2 : 152 3 : 0 
Heartbeat_Variant_1_evicts 0 : 163 1 : 0 2 : 336 3 : 0 
Heartbeat_Variant_2_evicts 0 : 139 1 : 350 2 : 0 3 : 0 
Heartbeat_Variant_3_evicts 0 : 0 1 : 0 2 : 0 3 : 0 
Heartbeat CPU 0 instructions: 50000001 cycles: 13976389 heartbeat IPC: 3.57777 cumulative IPC: 3.57746 (Simulation time: 0 hr 6 min 28 sec) 

Warmup complete CPU 0 instructions: 50000001 cycles: 13976389 (Simulation time: 0 hr 6 min 28 sec) 

*** Reached end of trace for Core: 0 Repeating trace: ./micro_traces/srv38.trace.gz
Cycle: 20000000 FTQ IN: 55132903 FTQ occupancy: 15.7331 DECODE IN: 55132887 DECODE occupancy: 9.47395 ROB IN: 55132887 ROB occupancy: 259.487 ROB OUT: 55132834
Heartbeat_Variant_0 : 1403 0.342529 per_variant_size: 0 1403 0 0 0 0 0 0 0 
Heartbeat_Variant_1 : 1305 0.318604 per_variant_size: 0 554 751 0 0 0 0 0 0 
Heartbeat_Variant_2 : 1359 0.331787 per_variant_size: 0 496 377 258 228 0 0 0 0 
Heartbeat_Variant_3 : 0 0 per_variant_size: 0 0 0 0 0 0 0 0 0 
Heartbeat_Variant_0_evicts 0 : 5797 1 : 195 2 : 207 3 : 0 
Heartbeat_Variant_1_evicts 0 : 191 1 : 0 2 : 422 3 : 0 
Heartbeat_Variant_2_evicts 0 : 204 1 : 411 2 : 0 3 : 0 
Heartbeat_Variant_3_evicts 0 : 0 1 : 0 2 : 0 3 : 0 
Heartbeat CPU 0 instructions: 60000000 cycles: 25545658 heartbeat IPC: 0.864359 cumulative IPC: 0.864359 (Simulation time: 0 hr 7 min 43 sec) 
Cycle: 30000000 FTQ IN: 8654620 FTQ occupancy: 14.3302 DECODE IN: 8654636 DECODE occupancy: 4.83415 ROB IN: 8654636 ROB occupancy: 54.0103 ROB OUT: 8654686
Heartbeat_Variant_0 : 1403 0.342529 per_variant_size: 0 1403 0 0 0 0 0 0 0 
Heartbeat_Variant_1 : 1307 0.319092 per_variant_size: 0 551 756 0 0 0 0 0 0 
Heartbeat_Variant_2 : 1364 0.333008 per_variant_size: 0 497 368 277 222 0 0 0 0 
Heartbeat_Variant_3 : 0 0 per_variant_size: 0 0 0 0 0 0 0 0 0 
Heartbeat_Variant_0_evicts 0 : 5887 1 : 297 2 : 272 3 : 0 
Heartbeat_Variant_1_evicts 0 : 295 1 : 0 2 : 470 3 : 0 
Heartbeat_Variant_2_evicts 0 : 275 1 : 468 2 : 0 3 : 0 
Heartbeat_Variant_3_evicts 0 : 0 1 : 0 2 : 0 3 : 0 
Heartbeat CPU 0 instructions: 70000002 cycles: 37116735 heartbeat IPC: 0.864224 cumulative IPC: 0.864291 (Simulation time: 0 hr 8 min 55 sec) 
Cycle: 40000000 FTQ IN: 8712497 FTQ occupancy: 14.3403 DECODE IN: 8712487 DECODE occupancy: 4.82367 ROB IN: 8712480 ROB occupancy: 51.4931 ROB OUT: 8712458
Heartbeat_Variant_0 : 1404 0.342773 per_variant_size: 0 1404 0 0 0 0 0 0 0 
Heartbeat_Variant_1 : 1309 0.31958 per_variant_size: 0 542 767 0 0 0 0 0 0 
Heartbeat_Variant_2 : 1362 0.33252 per_variant_size: 0 493 367 279 223 0 0 0 0 
Heartbeat_Variant_3 : 0 0 per_variant_size: 0 0 0 0 0 0 0 0 0 
Heartbeat_Variant_0_evicts 0 : 5589 1 : 157 2 : 160 3 : 0 
Heartbeat_Variant_1_evicts 0 : 160 1 : 0 2 : 318 3 : 0 
Heartbeat_Variant_2_evicts 0 : 156 1 : 319 2 : 0 3 : 0 
Heartbeat_Variant_3_evicts 0 : 0 1 : 0 2 : 0 3 : 0 
Heartbeat CPU 0 instructions: 80000002 cycles: 48548777 heartbeat IPC: 0.874734 cumulative IPC: 0.867745 (Simulation time: 0 hr 10 min 6 sec) 
Cycle: 50000000 FTQ IN: 8777255 FTQ occupancy: 14.3671 DECODE IN: 8777247 DECODE occupancy: 4.83047 ROB IN: 8777242 ROB occupancy: 50.6406 ROB OUT: 8777249
Cycle: 60000000 FTQ IN: 8692515 FTQ occupancy: 14.4227 DECODE IN: 8692515 DECODE occupancy: 4.85499 ROB IN: 8692527 ROB occupancy: 53.3395 ROB OUT: 8692530
Heartbeat_Variant_0 : 1406 0.343262 per_variant_size: 0 1406 0 0 0 0 0 0 0 
Heartbeat_Variant_1 : 1308 0.319336 per_variant_size: 0 537 771 0 0 0 0 0 0 
Heartbeat_Variant_2 : 1362 0.33252 per_variant_size: 0 487 370 279 226 0 0 0 0 
Heartbeat_Variant_3 : 0 0 per_variant_size: 0 0 0 0 0 0 0 0 0 
Heartbeat_Variant_0_evicts 0 : 5666 1 : 92 2 : 79 3 : 0 
Heartbeat_Variant_1_evicts 0 : 89 1 : 0 2 : 279 3 : 0 
Heartbeat_Variant_2_evicts 0 : 81 1 : 277 2 : 0 3 : 0 
Heartbeat_Variant_3_evicts 0 : 0 1 : 0 2 : 0 3 : 0 
Heartbeat CPU 0 instructions: 90000003 cycles: 60034162 heartbeat IPC: 0.870672 cumulative IPC: 0.868475 (Simulation time: 0 hr 11 min 21 sec) 
Cycle: 70000000 FTQ IN: 8798785 FTQ occupancy: 14.4093 DECODE IN: 8798785 DECODE occupancy: 4.86233 ROB IN: 8798785 ROB occupancy: 51.7914 ROB OUT: 8798800
Heartbeat_Variant_0 : 1399 0.341553 per_variant_size: 0 1399 0 0 0 0 0 0 0 
Heartbeat_Variant_1 : 1310 0.319824 per_variant_size: 0 539 771 0 0 0 0 0 0 
Heartbeat_Variant_2 : 1369 0.334229 per_variant_size: 0 489 379 273 228 0 0 0 0 
Heartbeat_Variant_3 : 0 0 per_variant_size: 0 0 0 0 0 0 0 0 0 
Heartbeat_Variant_0_evicts 0 : 5541 1 : 47 2 : 39 3 : 0 
Heartbeat_Variant_1_evicts 0 : 56 1 : 0 2 : 243 3 : 0 
Heartbeat_Variant_2_evicts 0 : 38 1 : 250 2 : 0 3 : 0 
Heartbeat_Variant_3_evicts 0 : 0 1 : 0 2 : 0 3 : 0 
Heartbeat CPU 0 instructions: 100000003 cycles: 71380397 heartbeat IPC: 0.88135 cumulative IPC: 0.871019 (Simulation time: 0 hr 12 min 29 sec) 
Finished CPU 0 instructions: 50000002 cycles: 57404008 cumulative IPC: 0.871019 (Simulation time: 0 hr 12 min 29 sec) 

ChampSim completed all CPUs

Region of Interest Statistics

CPU 0 cumulative IPC: 0.871019 instructions: 50000002 cycles: 57404008
 Fetch stage stalled: 32.839  Sim cycles: 57404008 fetch stall cycle: 18850913
 Empty decode stage: 69.3253  Sim cycles: 57404008 fetch stall cycle: 39795519
ITLB TOTAL     ACCESS:    7280002  HIT:    6789062  MISS:     490940  HIT %:    93.2563  MISS %:    6.74368   MPKI: 9.8188
ITLB LOAD TRANSLATION INSTRUCTION	ACCESS:    7280002  HIT:    6789062  MISS:     490940  HIT %:    93.2563  MISS %:    6.74368  MPKI: 9.8188

ITLB AVERAGE MISS LATENCY: 9.06361 cycles
ITLB RQ	ACCESS:    8396361	FORWARD:          0	MERGED:     917360	TO_CACHE:    7479001

DTLB TOTAL     ACCESS:   10355986  HIT:    9877897  MISS:     478089  HIT %:    95.3835  MISS %:    4.61655   MPKI: 9.56178
DTLB LOAD TRANSLATION DATA	ACCESS:   10355986  HIT:    9877897  MISS:     478089  HIT %:    95.3835  MISS %:    4.61655  MPKI: 9.56178

DTLB AVERAGE MISS LATENCY: 9.30287 cycles
DTLB RQ	ACCESS:   14437954	FORWARD:          0	MERGED:    4051809	TO_CACHE:   10386145

STLB TOTAL     ACCESS:    1234700  HIT:    1232190  MISS:       2510  HIT %:    99.7967  MISS %:   0.203288   MPKI: 0.0502
STLB LOAD TRANSLATION INSTRUCTION	ACCESS:     490939  HIT:     490593  MISS:        346  HIT %:    99.9295  MISS %:  0.0704772  MPKI: 0.00692
STLB LOAD TRANSLATION DATA	ACCESS:     478083  HIT:     475962  MISS:       2121  HIT %:    99.5564  MISS %:   0.443647  MPKI: 0.04242
STLB TRANSLATION FROM L1D PREFETCHER DATA	ACCESS:     265678  HIT:     265635  MISS:         43  HIT %:    99.9838  MISS %:   0.016185  MPKI: 0.00086

STLB AVERAGE MISS LATENCY: 61.6924 cycles
STLB RQ	ACCESS:    1378234	FORWARD:          0	MERGED:     143497	TO_CACHE:    1234737

STLB Hit, L1D data hit: 0
STLB Hit, L2C data hit: 0
STLB Hit, LLC data hit: 0
STLB Hit, LLC data miss: 0
STLB STLB hints to L2: 0
L1D TOTAL     ACCESS:   14231504  HIT:   13064337  MISS:    1167167  HIT %:    91.7987  MISS %:    8.20129   MPKI: 23.3433
L1D LOAD DATA	ACCESS:    7611072  HIT:    6844771  MISS:     766301  HIT %:    89.9318  MISS %:    10.0682  MPKI: 15.326
L1D RFO DATA	ACCESS:    6277426  HIT:    5982351  MISS:     295075  HIT %:    95.2994  MISS %:    4.70057  MPKI: 5.9015
L1D PREFETCH DATA	ACCESS:     343006  HIT:     237215  MISS:     105791  HIT %:    69.1577  MISS %:    30.8423  MPKI: 2.11582

L1D PREFETCH  REQUESTED:     818557  ISSUED:     818557  USEFUL:      51766  USELESS:      69492
L1D USEFUL LOAD PREFETCHES:      51766 PREFETCH ISSUED TO LOWER LEVEL:     121345  ACCURACY: 42.6602
 TIMELY PREFETCHES:      51766 LATE PREFETCHES: 15495 DROPPED PREFETCHES: 1
L1D AVERAGE MISS LATENCY: 559093 cycles
L1D RQ	ACCESS:   11423464	FORWARD:          0	MERGED:    3624621	TO_CACHE:    7646084
L1D WQ	ACCESS:    6907638	FORWARD:     152906	MERGED:     115768	TO_CACHE:    6791870
L1D PQ	ACCESS:     409352	FORWARD:          0	MERGED:          0	TO_CACHE:     409205

L1D UNIQUE REGIONS ACCESSED: 0
L1D REGIONS CONFLICTS: 0
L1D Cross Page Prefetch Requests: 7950
L1D Same Page Prefetch Requests: 821395
L1D ROI Sum of L1D PQ occupancy: 5203673
L1D PREFETCHES PUSHED FROM L2C: 0
L1I TOTAL     ACCESS:    7870694  HIT:    5121803  MISS:    2748891  HIT %:    65.0744  MISS %:    34.9256   MPKI: 54.9778
L1I LOAD INSTRUCTION	ACCESS:    7870694  HIT:    5121803  MISS:    2748891  HIT %:    65.0744  MISS %:    34.9256  MPKI: 54.9778

L1I AVERAGE MISS LATENCY: 17.0352 cycles
L1I RQ	ACCESS:   15427208	FORWARD:          0	MERGED:    7030847	TO_CACHE:    8396361

L1BTB TOTAL     ACCESS:    5680841  HIT:    2074091  MISS:    3606750  HIT %:    36.5103  MISS %:    63.4897   MPKI: 72.135
L1BTB BRANCH_DIRECT_JUMP	ACCESS:     543191  HIT:     143751  MISS:     399440	AVERAGE STALL: 24.1328
L1BTB BRANCH_INDIRECT	ACCESS:     181399  HIT:      65476  MISS:     115923	AVERAGE STALL: 50.3251
L1BTB BRANCH_CONDITIONAL	ACCESS:    2732062  HIT:    1447725  MISS:    1284337	AVERAGE STALL: 30.2433
L1BTB BRANCH_DIRECT_CALL	ACCESS:     941243  HIT:     104901  MISS:     836342	AVERAGE STALL: 34.1703
L1BTB BRANCH_INDIRECT_CALL	ACCESS:     170851  HIT:      21534  MISS:     149317	AVERAGE STALL: 65.6101
L1BTB BRANCH_RETURN	ACCESS:    1112095  HIT:     290704  MISS:     821391	AVERAGE STALL: 33.3504
L1BTB BRANCH_OTHER ACCESS:          0  HIT:          0  MISS:          0	AVERAGE STALL: -nan
L1BTB TOTAL ROB OCCUPANCY AT BTB MISS: 0.651701

L2BTB TOTAL     ACCESS:    3581783  HIT:    3513098  MISS:      68685  HIT %:    98.0824  MISS %:    1.91762   MPKI: 1.3737
L2BTB BRANCH_DIRECT_JUMP	ACCESS:     395335  HIT:     390395  MISS:       4940	AVERAGE STALL: 24.1328
L2BTB BRANCH_INDIRECT	ACCESS:     105691  HIT:     102964  MISS:       2727	AVERAGE STALL: 50.3251
L2BTB BRANCH_CONDITIONAL	ACCESS:    1284337  HIT:    1279096  MISS:       5241	AVERAGE STALL: 30.2433
L2BTB BRANCH_DIRECT_CALL	ACCESS:     836342  HIT:     833028  MISS:       3314	AVERAGE STALL: 34.1703
L2BTB BRANCH_INDIRECT_CALL	ACCESS:     139904  HIT:     129408  MISS:      10496	AVERAGE STALL: 65.6101
L2BTB BRANCH_RETURN	ACCESS:     820174  HIT:     778207  MISS:      41967	AVERAGE STALL: 33.3504
L2BTB BRANCH_OTHER ACCESS:          0  HIT:          0  MISS:          0	AVERAGE STALL: -nan
L2BTB TOTAL ROB OCCUPANCY AT BTB MISS: 34.2218

L2C TOTAL     ACCESS:    4544165  HIT:    4028964  MISS:     515201  HIT %:    88.6624  MISS %:    11.3376   MPKI: 10.304
L2C LOAD INSTRUCTION	ACCESS:    2748890  HIT:    2487878  MISS:     261012  HIT %:    90.5048  MISS %:    9.49518  MPKI: 5.22024
L2C LOAD TRANSLATION INSTRUCTION	ACCESS:        404  HIT:        101  MISS:        303  HIT %:         25  MISS %:         75  MPKI: 0.00606
L2C LOAD DATA	ACCESS:     750774  HIT:     662093  MISS:      88681  HIT %:    88.1881  MISS %:    11.8119  MPKI: 1.77362
L2C RFO DATA	ACCESS:     295002  HIT:     232453  MISS:      62549  HIT %:    78.7971  MISS %:    21.2029  MPKI: 1.25098
L2C PREFETCH DATA	ACCESS:     215413  HIT:     132462  MISS:      82951  HIT %:    61.4921  MISS %:    38.5079  MPKI: 1.65902
L2C WRITEBACK DATA	ACCESS:     531343  HIT:     513299  MISS:      18044  HIT %:    96.6041  MISS %:    3.39592  MPKI: 0.36088
L2C LOAD TRANSLATION DATA	ACCESS:       2281  HIT:        634  MISS:       1647  HIT %:    27.7948  MISS %:    72.2052  MPKI: 0.03294
L2C TRANSLATION FROM L1D PREFETCHER DATA	ACCESS:         58  HIT:         44  MISS:         14  HIT %:    75.8621  MISS %:    24.1379  MPKI: 0.00028

L2C PREFETCH  REQUESTED:     101875  ISSUED:     101875  USEFUL:      10295  USELESS:      73133
L2C USEFUL LOAD PREFETCHES:      10295 PREFETCH ISSUED TO LOWER LEVEL:      83453  ACCURACY: 12.3363
 TIMELY PREFETCHES:      10295 LATE PREFETCHES: 502 DROPPED PREFETCHES: 0
L2C AVERAGE MISS LATENCY: 40.1274 cycles
L2C RQ	ACCESS:    3797455	FORWARD:          0	MERGED:          0	TO_CACHE:    3797410
L2C WQ	ACCESS:     531343	FORWARD:         45	MERGED:          0	TO_CACHE:     531343
L2C PQ	ACCESS:     223220	FORWARD:          0	MERGED:       3597	TO_CACHE:     219623

L2C Dense regions hint from L2: 0
PSCL5 TOTAL     ACCESS:       5024  HIT:       2512  MISS:       2512  HIT %:         50  MISS %:         50   MPKI: 0.05024
PSCL5 LOAD TRANSLATION INSTRUCTION	ACCESS:       4908  HIT:       2454  MISS:       2454  HIT %:         50  MISS %:         50  MPKI: 0.04908
PSCL5 TRANSLATION FROM L1D PREFETCHER INSTRUCTION	ACCESS:        116  HIT:         58  MISS:         58  HIT %:         50  MISS %:         50  MPKI: 0.00116


PSCL4 TOTAL     ACCESS:       3993  HIT:       1990  MISS:       2003  HIT %:    49.8372  MISS %:    50.1628   MPKI: 0.04006
PSCL4 LOAD TRANSLATION INSTRUCTION	ACCESS:       3082  HIT:       1940  MISS:       1142  HIT %:    62.9461  MISS %:    37.0539  MPKI: 0.02284
PSCL4 TRANSLATION FROM L1D PREFETCHER INSTRUCTION	ACCESS:         86  HIT:         50  MISS:         36  HIT %:    58.1395  MISS %:    41.8605  MPKI: 0.00072
PSCL4 LOAD TRANSLATION DATA	ACCESS:        811  HIT:          0  MISS:        811  HIT %:          0  MISS %:        100  MPKI: 0.01622
PSCL4 TRANSLATION FROM L1D PREFETCHER DATA	ACCESS:         14  HIT:          0  MISS:         14  HIT %:          0  MISS %:        100  MPKI: 0.00028


PSCL3 TOTAL     ACCESS:       4909  HIT:       2444  MISS:       2465  HIT %:    49.7861  MISS %:    50.2139   MPKI: 0.0493
PSCL3 LOAD TRANSLATION INSTRUCTION	ACCESS:       3321  HIT:       2386  MISS:        935  HIT %:    71.8458  MISS %:    28.1542  MPKI: 0.0187
PSCL3 TRANSLATION FROM L1D PREFETCHER INSTRUCTION	ACCESS:         77  HIT:         58  MISS:         19  HIT %:    75.3247  MISS %:    24.6753  MPKI: 0.00038
PSCL3 LOAD TRANSLATION DATA	ACCESS:       1472  HIT:          0  MISS:       1472  HIT %:          0  MISS %:        100  MPKI: 0.02944
PSCL3 TRANSLATION FROM L1D PREFETCHER DATA	ACCESS:         39  HIT:          0  MISS:         39  HIT %:          0  MISS %:        100  MPKI: 0.00078


PSCL2 TOTAL     ACCESS:       4827  HIT:       2315  MISS:       2512  HIT %:    47.9594  MISS %:    52.0406   MPKI: 0.05024
PSCL2 LOAD TRANSLATION INSTRUCTION	ACCESS:       2618  HIT:       2257  MISS:        361  HIT %:    86.2108  MISS %:    13.7892  MPKI: 0.00722
PSCL2 TRANSLATION FROM L1D PREFETCHER INSTRUCTION	ACCESS:         58  HIT:         58  MISS:          0  HIT %:        100  MISS %:          0  MPKI: 0
PSCL2 LOAD TRANSLATION DATA	ACCESS:       2093  HIT:          0  MISS:       2093  HIT %:          0  MISS %:        100  MPKI: 0.04186
PSCL2 TRANSLATION FROM L1D PREFETCHER DATA	ACCESS:         58  HIT:          0  MISS:         58  HIT %:          0  MISS %:        100  MPKI: 0.00116


LLC TOTAL     ACCESS:     588006  HIT:     558050  MISS:      29956  HIT %:    94.9055  MISS %:    5.09451   MPKI: 0.59912
LLC LOAD INSTRUCTION	ACCESS:     261012  HIT:     259767  MISS:       1245  HIT %:     99.523  MISS %:    0.47699  MPKI: 0.0249
LLC LOAD TRANSLATION INSTRUCTION	ACCESS:        303  HIT:        254  MISS:         49  HIT %:    83.8284  MISS %:    16.1716  MPKI: 0.00098
LLC LOAD DATA	ACCESS:      88190  HIT:      84508  MISS:       3682  HIT %:    95.8249  MISS %:    4.17508  MPKI: 0.07364
LLC RFO DATA	ACCESS:      62536  HIT:      47915  MISS:      14621  HIT %:    76.6199  MISS %:    23.3801  MPKI: 0.29242
LLC PREFETCH DATA	ACCESS:      83453  HIT:      73482  MISS:       9971  HIT %:     88.052  MISS %:     11.948  MPKI: 0.19942
LLC WRITEBACK DATA	ACCESS:      90851  HIT:      90561  MISS:        290  HIT %:    99.6808  MISS %:   0.319204  MPKI: 0.0058
LLC LOAD TRANSLATION DATA	ACCESS:       1647  HIT:       1549  MISS:         98  HIT %:    94.0498  MISS %:    5.95021  MPKI: 0.00196
LLC TRANSLATION FROM L1D PREFETCHER DATA	ACCESS:         14  HIT:         14  MISS:          0  HIT %:        100  MISS %:          0  MPKI: 0

LLC AVERAGE MISS LATENCY: 192.074 cycles
LLC RQ	ACCESS:     413704	FORWARD:          0	MERGED:          0	TO_CACHE:     413702
LLC WQ	ACCESS:      90851	FORWARD:          2	MERGED:          0	TO_CACHE:      90851
LLC PQ	ACCESS:      83453	FORWARD:          0	MERGED:          0	TO_CACHE:      83453

LLC Dense regions hint to LLC: 0

RAW hits: 1181671
Loads Generated: 12605135
Loads sent to L1D: 11423464
Stores Generated: 6907628
Stores sent to L1D: 6907638
Major fault: 0 Minor fault: 2405
Allocated PAGES: 2405

stream: 
stream:times selected: 1248400
stream:pref_filled: 127527
stream:pref_useful: 30059
stream:pref_late: 9499
stream:misses: 10017
stream:misses_by_poll: 0

CS: 
CS:times selected: 196900
CS:pref_filled: 72979
CS:pref_useful: 50325
CS:pref_late: 10140
CS:misses: 25437
CS:misses_by_poll: 3

CPLX: 
CPLX:times selected: 1050280
CPLX:pref_filled: 26512
CPLX:pref_useful: 7761
CPLX:pref_late: 4508
CPLX:misses: 130365
CPLX:misses_by_poll: 0

NL_L1: 
NL:times selected: 21434
NL:pref_filled: 1091
NL:pref_useful: 541
NL:pref_late: 716
NL:misses: 3023
NL:misses_by_poll: 0

total selections: 2517014
total_filled: 105791
total_useful: 51766
total_late: 27457
total_polluted: 3
total_misses_after_warmup: 801318
conflicts: 5972046

test: 121317

DRAM Statistics
 CHANNEL 0
 RQ ROW_BUFFER_HIT:      10625  ROW_BUFFER_MISS:      19032
 DBUS_CONGESTED:         15
 WQ ROW_BUFFER_HIT:       2174  ROW_BUFFER_MISS:      13712  FULL:          0

 AVG_CONGESTED_CYCLE: 4

CPU 0 Branch Prediction Accuracy: 99.8185% MPKI: 0.33254 Average ROB Occupancy at Mispredict: 74.4591
Branch types
NOT_BRANCH: 40838942 81.6779%
BRANCH_DIRECT_JUMP: 543191 1.08638%
BRANCH_INDIRECT: 181399 0.362798%
BRANCH_CONDITIONAL: 6212141 12.4243%
BRANCH_DIRECT_CALL: 941243 1.88249%
BRANCH_INDIRECT_CALL: 170851 0.341702%
BRANCH_RETURN: 1112095 2.22419%
BRANCH_OTHER: 0 0%

DRAM PAGES: 1048576
Allocated PAGES: 2405
Average_ROB_Occupancy: 53.2873
Average_Decode_Occupancy: 4.83939
Average_FTQ_Occupancy: 14.374
Indirect max targets: 14 Average targets: 1.17572
Branch_type:  BRANCH_DIRECT_JUMP:  Count Percentage: 3.25272 6.70522 3.7296 7.67141 2.79196 5.97149 0.881583 68.996 
Branch_type:  BRANCH_INDIRECT:  Count Percentage: 11.7615 3.47505 2.53227 0 2.53722 9.69169 19.2079 50.7943 
Branch_type:  BRANCH_CONDITIONAL:  Count Percentage: 22.6357 2.12498 1.93205 7.78006 1.66063 4.77852 1.73045 57.3576 
Branch_type:  BRANCH_DIRECT_CALL:  Count Percentage: 0.264899 1.24886 1.43212 3.7409 3.46498 2.34726 0.613574 86.8874 
Branch_type:  BRANCH_INDIRECT_CALL:  Count Percentage: 9.51994 0.566925 2.9817 4.83249 1.29763 1.71015 1.27829 77.8129 
Branch_type:  BRANCH_RETURN:  Count Percentage: 3.44186 0.569291 1.48104 8.45382 3.60332 6.37661 2.86456 73.2095 
Branch_type:  BRANCH_DIRECT_JUMP:  Total Count: 35332 72834 40512 83329 30327 64864 9576 749454 
Branch_type:  BRANCH_INDIRECT:  Total Count: 42703 12617 9194 0 9212 35188 69739 184421 
Branch_type:  BRANCH_CONDITIONAL:  Total Count: 2811824 263966 240000 966444 206285 593590 214958 7124991 
Branch_type:  BRANCH_DIRECT_CALL:  Total Count: 4977 23464 26907 70285 65101 44101 11528 1632465 
Branch_type:  BRANCH_INDIRECT_CALL:  Total Count: 32493 1935 10177 16494 4429 5837 4363 265587 
Branch_type:  BRANCH_RETURN:  Total Count: 76444 12644 32894 187760 80030 141625 63622 1625989 
Number of unique branch instructions: 10849
Upper 32 bits: 
aaaa
ffff
ffff0000
Unique upper 32 bits: 3
Unique upper 36 bits: 3
Unique upper 40 bits: 5
Unique upper 44 bits: 32
Unique upper 48 bits: 160
Variant_0 : 1399 0.341553
Variant_1 : 1310 0.319824
Variant_2 : 1369 0.334229
Variant_3 : 0 0
Offset_3 4511
Offset_4 261
Offset_5 486
Offset_6 554
Offset_7 641
Offset_8 574
Offset_9 522
Offset_10 436
Offset_11 357
Offset_12 298
Offset_13 235
Offset_14 233
Offset_15 207
Offset_16 234
Offset_17 168
Offset_18 163
Offset_19 261
Offset_20 149
Offset_21 245
Offset_22 413
Offset_23 241
Offset_24 342
Offset_25 114
Offset_47 91
decode_dispatch_called: 30610039 53.3239
Dispatch_width: 0 18515573 60.4886 32.2548
Dispatch_width: 1 2329448 7.61008 4.05799
Dispatch_width: 2 1105078 3.61018 1.92509
Dispatch_width: 3 1082044 3.53493 1.88496
Dispatch_width: 4 994683 3.24953 1.73278
Dispatch_width: 5 1263882 4.12898 2.20173
Dispatch_width: 6 5319331 17.3777 9.26648
Empty_decode_cycles: 26793969 46.6761
ROB_full_cycles: 603214 1.05082
Starvation_cycles_per_kilo_instr: 514.815
Starvation_cycles_per_kilo_instr_3: 492.229
Starvation_cycles_per_kilo_instr_0: 447.063
Branch_type_1  (3,1)  (4,7)  (5,38)  (6,80)  (7,126)  (8,145)  (9,137)  (10,115)  (11,84)  (12,48)  (13,10)  (14,2)  (15,3)  (16,4)  (18,1)  (19,5)  (20,2)  (21,1)  (22,3)  (23,2)  (24,10)  (25,12) 
Branch_type_2  (3,1)  (4,1)  (5,1)  (8,4)  (9,4)  (10,1)  (12,1)  (13,1)  (14,1)  (16,3)  (17,2)  (20,2)  (21,2)  (23,5)  (24,1)  (47,40) 
Branch_type_3  (3,4509)  (4,253)  (5,443)  (6,457)  (7,482)  (8,361)  (9,288)  (10,182)  (11,140)  (12,53)  (13,10) 
Branch_type_4  (6,4)  (7,8)  (8,26)  (9,57)  (10,65)  (11,68)  (12,108)  (13,101)  (14,104)  (15,100)  (16,104)  (17,77)  (18,72)  (19,126)  (20,75)  (21,130)  (22,221)  (23,136)  (24,198)  (25,98)  (47,1) 
Branch_type_5  (8,3)  (9,1)  (10,4)  (11,5)  (12,3)  (13,14)  (14,16)  (15,11)  (16,22)  (17,12)  (18,23)  (19,14)  (20,12)  (21,13)  (22,43)  (23,26)  (24,37) 
Branch_type_6  (5,4)  (6,13)  (7,25)  (8,35)  (9,35)  (10,69)  (11,60)  (12,85)  (13,99)  (14,110)  (15,93)  (16,101)  (17,77)  (18,67)  (19,116)  (20,58)  (21,99)  (22,146)  (23,72)  (24,96)  (25,4)  (47,50) 
Unique trigger count: 
Variant_0_evicts_0 : 0
Variant_0_evicts_1 : 0
Variant_0_evicts_2 : 0
Variant_0_evicts_3 : 0
Variant_1_evicts_0 : 0
Variant_1_evicts_1 : 0
Variant_1_evicts_2 : 0
Variant_1_evicts_3 : 0
Variant_2_evicts_0 : 0
Variant_2_evicts_1 : 0
Variant_2_evicts_2 : 0
Variant_2_evicts_3 : 0
Variant_3_evicts_0 : 0
Variant_3_evicts_1 : 0
Variant_3_evicts_2 : 0
Variant_3_evicts_3 : 0
BTB PER SET UNIQUE ADDR: 17 14 12 18 17 18 14 17 16 17 12 27 20 15 16 14 16 14 16 15 16 17 17 16 15 14 16 20 17 17 16 18 14 11 13 15 16 14 12 11 12 12 15 15 15 12 20 9 17 14 18 11 15 18 19 8 11 7 11 15 11 23 13 14 15 18 16 11 24 11 18 14 15 14 11 6 11 20 13 20 14 6 12 18 20 18 13 10 13 26 13 8 13 11 8 13 16 13 16 20 23 24 19 13 13 7 14 16 8 13 8 22 19 16 13 10 17 17 13 17 16 15 10 12 15 16 10 14 26 14 10 21 15 18 13 19 10 16 16 17 13 13 14 14 15 15 14 12 13 16 16 19 14 17 7 18 22 16 16 15 17 17 19 15 16 20 22 12 17 9 14 17 12 16 18 10 15 17 13 17 13 17 17 17 21 21 11 17 13 16 17 13 10 17 14 13 9 18 10 18 21 11 14 8 10 9 13 16 12 13 11 20 15 14 15 22 18 13 11 28 12 19 15 17 7 12 21 16 11 17 8 11 10 17 20 19 14 13 11 12 19 15 19 18 15 18 11 13 15 14 16 18 14 14 18 19 11 11 16 17 12 13 8 10 15 14 13 19 15 16 15 22 13 9 9 12 13 18 13 13 15 20 9 13 16 9 12 14 23 16 14 15 13 20 6 15 14 16 17 17 13 16 10 25 16 16 21 14 22 14 16 24 11 23 19 12 19 18 14 24 12 19 12 15 18 16 15 15 13 13 13 20 15 10 14 16 8 17 11 22 19 14 11 17 15 15 13 15 10 12 14 16 17 14 19 17 16 12 12 13 14 25 8 22 11 19 8 11 16 14 11 11 20 17 14 22 12 16 18 16 18 18 12 10 16 14 20 23 20 14 14 14 14 19 13 15 11 14 16 15 15 13 18 16 15 15 14 15 17 16 16 10 10 13 15 11 13 18 21 25 16 15 12 15 16 13 19 12 15 13 17 15 16 14 19 12 16 13 12 12 17 13 9 18 21 10 13 17 11 15 11 23 17 11 15 21 17 18 9 22 13 12 17 25 26 16 13 17 20 22 14 18 12 11 20 21 18 16 9 20 20 15 17 20 14 18 21 20 21 15 10 15 15 8 16 10 19 19 11 12 17 19 13 21 12 12 15 17 20 17 15 23 12 18 18 17 18 22 11 10 12 10 11 10 17 20 26 9 11 22 15 16 17 14 15 19 16 22 13 18 18 10 15 16 20 23 13 16 12 14 17 19 13 16 15 18 15 11 23 17 19 23 15 13 18 23 13 19 16 15 15 19 22 19 13 19 23 18 12 18 18 16 13 15 20 15 20 16 28 18 12 14 12 12 14 11 8 16 12 11 20 13 15 11 16 20 22 11 16 14 23 18 14 14 7 19 12 20 18 16 24 18 15 14 15 18 16 21 12 17 17 21 21 16 12 13 13 23 11 16 16 16 19 22 14 13 11 19 22 16 12 20 12 14 16 14 18 15 13 16 15 7 17 22 13 14 15 14 17 16 15 15 14 16 25 11 17 18 17 21 15 20 13 16 12 14 16 18 20 10 16 17 17 14 10 15 10 20 13 15 9 15 22 16 8 16 19 14 15 14 13 17 9 14 14 11 21 17 14 19 21 14 18 18 12 14 16 13 14 13 18 9 15 15 12 22 21 16 15 14 16 15 19 16 17 24 15 16 17 11 19 21 15 14 14 15 17 18 14 10 13 15 12 17 18 17 11 18 19 16 15 15 12 13 11 12 16 17 19 15 11 16 13 13 14 18 12 16 13 9 12 10 19 12 17 19 15 15 16 13 29 16 19 20 21 17 10 10 18 17 13 22 23 19 15 21 26 15 9 24 20 19 11 16 17 19 12 17 16 16 14 18 18 14 11 17 14 16 16 9 17 22 17 13 15 17 12 19 14 14 14 17 12 18 18 19 18 13 15 19 17 12 11 21 23 12 15 13 15 14 15 17 14 13 11 5 13 13 12 14 19 11 18 21 12 17 18 13 21 16 18 13 16 14 17 19 16 16 12 16 13 13 18 14 8 15 9 16 12 23 11 13 12 17 21 16 22 18 18 13 16 16 12 15 12 14 10 17 13 13 18 25 23 14 13 23 14 12 12 17 14 20 17 13 13 11 10 21 15 21 18 16 10 16 16 17 15 20 17 15 16 14 15 18 20 11 18 18 12 22 16 15 16 14 22 13 23 22 18 24 14 17 16 16 16 18 18 13 19 18 20 16 15 16 12 12 16 19 18 14 20 20 11 17 17 19 12 19 13 20 23 11 13 12 12 19 6 14 12 9 13 17 15 10 
BTB PER SET COUNT: 25 15 1417 38 155 28 996 29 24 23 14 127 15335 293 23 18 749 2077 29 22 27 140 763 56 28 21 30 369 258 367 291 763 18 13 25 29 20 21 17 24 17 18 23 30 172 13 38 12 554 66 28 208 30 30 72 257 13 7 21 30 14 35 18 19 20 117 19 1714 32 12 685 500 30 23 16 6 16 781 24 28 354 9 12 537 33 1507 25 18 32 48 22 13 14 237 11 21 238 22 21 49 40 796 27 18 1341 14 22 24 976 19 11 37 349 32 18 574 26 35 2005 189 193 32 15 15 20 87 22 653 45 896 12 2666 25 32 23 25 982 33 20 28 23 18 25 17 26 376 19 995 26 257 20 77 547 28 12 30 467 26 32 26 26 254 139 25 151 375 39 18 33 214 21 23 22 27 19 711 31 29 443 283 354 194 876 33 28 47 16 30 591 138 41 15 16 27 50 131 9 295 19 167 26 19 913 9 15 13 18 251 22 17 14 34 26 1441 34 485 46 296 12 46 21 35 291 26 8 47 33 132 15 32 18 16 12 29 442 335 26 18 15 19 27 33 35 104 29 321 134 23 21 20 21 30 18 21 22 35 83 13 21 26 24 19 10 18 26 23 23 36 1805 19 23 714 15 15 18 15 19 28 20 888 32 28 12 15 22 14 17 22 38 20 27 24 18 724 10 19 17 26 31 406 20 28 10 52 23 23 31 84 35 718 908 28 13 40 1733 654 31 29 27 57 14 1151 12 26 276 111 500 34 20 28 16 36 18 14 25 31 14 199 15 35 24 354 12 22 20 17 17 32 14 17 634 20 32 32 29 25 24 20 289 29 20 45 12 36 14 173 10 17 29 22 234 250 39 25 20 128 17 27 102 1237 375 27 902 18 31 21 1408 42 42 456 234 20 18 30 13 681 14 25 342 535 25 16 1354 25 28 30 25 23 24 25 20 13 18 17 25 19 20 3062 34 34 19 25 19 21 25 20 251 19 25 20 26 28 26 16 398 21 32 334 15 21 39 23 23 20 728 1338 237 24 17 25 20 78 28 14 22 30 22 37 14 47 23 22 34 579 46 30 4378 30 34 31 21 32 17 13 51 52 37 30 15 47 39 21 22 30 894 359 247 30 276 114 19 626 380 11 19 17 999 27 20 19 28 32 21 39 18 18 35 30 32 28 25 1051 25 653 32 27 32 33 20 442 14 14 11 12 28 29 2281 1463 11 264 29 22 150 28 18 34 119 44 20 217 30 11 19 30 32 206 18 32 32 824 32 36 15 201 25 30 44 16 38 30 24 131 23 13 206 48 166 40 24 17 402 27 40 50 2436 31 44 493 16 32 29 23 16 3325 35 28 681 27 50 27 18 166 17 18 24 18 1663 327 17 21 35 20 21 14 25 25 30 219 21 21 41 1224 20 24 10 31 19 25 513 277 53 28 33 418 17 35 28 32 14 34 26 40 42 27 16 25 21 40 16 279 26 32 26 36 19 176 20 42 1080 22 17 55 12 20 41 250 34 23 16 993 54 9 28 48 1748 35 26 727 1493 24 28 23 524 25 301 510 27 37 21 43 21 34 23 27 22 22 24 23 72 16 27 25 27 20 321 26 184 1647 17 26 15 32 1390 30 11 32 27 18 21 19 30 319 16 24 20 15 198 29 29 33 48 24 28 353 23 21 30 19 118 90 312 8773 26 143 12 274 1005 25 19 20 710 23 812 22 21 41 27 20 32 18 1483 40 19 1024 22 23 29 744 24 10 31 22 15 31 26 33 15 51 30 28 45 17 26 19 13 16 20 34 24 21 809 25 941 16 23 24 15 20 18 12 15 981 41 12 1298 25 18 22 28 18 47 28 31 29 52 24 12 13 33 83 16 3051 42 198 32 256 45 38 16 247 38 649 18 27 26 26 14 26 31 33 18 28 25 30 283 31 20 132 24 12 30 124 29 17 284 23 20 39 21 20 30 611 23 27 58 30 168 19 24 28 524 22 12 34 334 15 24 14 15 83 22 27 14 19 13 5 21 17 2901 26 34 17 98 32 501 141 28 22 56 286 30 1024 181 4749 22 23 19 24 32 24 19 20 34 649 12 35 10 23 19 148 305 248 15 26 30 1906 37 818 29 18 22 361 17 1050 19 20 13 30 20 27 29 55 389 34 31 35 18 21 22 39 17 1807 33 26 25 12 19 31 29 37 31 1428 27 3855 24 23 146 34 21 20 31 21 16 26 34 16 1129 29 43 31 30 561 29 24 394 21 40 35 399 58 23 23 437 727 28 36 1765 109 33 32 32 27 517 707 25 14 25 1487 29 21 251 54 16 31 34 92 23 31 30 995 35 470 21 20 13 28 10 37 16 10 13 398 21 17 
To predecode: 0
Predecoding something: 0
Predecode request dropped: 0
sizeofblock_0 0
sizeofblock_1 42578
sizeofblock_2 43954
sizeofblock_3 37526
sizeofblock_4 18918
sizeofblock_5 0
sizeofblock_6 0
sizeofblock_7 0
sizeofblock_8 0
Variant_0 Correct: 1596736 Incorrect: 0 Accuracy: 1
Variant_1 Correct: 2071777 Incorrect: 0 Accuracy: 1
Variant_2 Correct: 3618954 Incorrect: 0 Accuracy: 1
Variant_3 Correct: 0 Incorrect: 0 Accuracy: -nan
