
*** ChampSim Multicore Out-of-Order Simulator ***

Warmup Instructions: 50000000
Simulation Instructions: 50000000
Number of CPUs: 1
LLC sets: 2048
LLC ways: 16
Off-chip DRAM Size: 4096 MB Channels: 1 Width: 64-bit Data Rate: 6400 MT/s
CPU 0 runs ./micro_traces/srv345.trace.gz
.gz
ITLB has LRU replacement policy
DTLB has LRU replacement policy
STLB has LRU replacement policy
FDIP Prefetcher at L1I
L1I has LRU replacement policy
L1D has LRU replacement policy
Initialize SRRIP state for L2C
Initialize DRRIP state for LLC
Heartbeat_Variant_0 : 1313 0.320557 per_variant_size: 0 1313 0 0 0 0 0 0 0 
Heartbeat_Variant_1 : 2526 0.616699 per_variant_size: 0 567 1959 0 0 0 0 0 0 
Heartbeat_Variant_2 : 0 0 per_variant_size: 0 0 0 0 0 0 0 0 0 
Heartbeat_Variant_3 : 0 0 per_variant_size: 0 0 0 0 0 0 0 0 0 
Heartbeat_Variant_0_evicts 0 : 5852 1 : 451 2 : 0 3 : 0 
Heartbeat_Variant_1_evicts 0 : 402 1 : 0 2 : 0 3 : 0 
Heartbeat_Variant_2_evicts 0 : 0 1 : 0 2 : 0 3 : 0 
Heartbeat_Variant_3_evicts 0 : 0 1 : 0 2 : 0 3 : 0 
Heartbeat CPU 0 instructions: 10000000 cycles: 2797461 heartbeat IPC: 3.57467 cumulative IPC: 3.57467 (Simulation time: 0 hr 1 min 33 sec) 
Heartbeat_Variant_0 : 1345 0.328369 per_variant_size: 0 1345 0 0 0 0 0 0 0 
Heartbeat_Variant_1 : 2587 0.631592 per_variant_size: 0 528 2059 0 0 0 0 0 0 
Heartbeat_Variant_2 : 0 0 per_variant_size: 0 0 0 0 0 0 0 0 0 
Heartbeat_Variant_3 : 0 0 per_variant_size: 0 0 0 0 0 0 0 0 0 
Heartbeat_Variant_0_evicts 0 : 5831 1 : 266 2 : 0 3 : 0 
Heartbeat_Variant_1_evicts 0 : 258 1 : 0 2 : 0 3 : 0 
Heartbeat_Variant_2_evicts 0 : 0 1 : 0 2 : 0 3 : 0 
Heartbeat_Variant_3_evicts 0 : 0 1 : 0 2 : 0 3 : 0 
Heartbeat CPU 0 instructions: 20000001 cycles: 5593439 heartbeat IPC: 3.57657 cumulative IPC: 3.57562 (Simulation time: 0 hr 3 min 3 sec) 
Heartbeat_Variant_0 : 1346 0.328613 per_variant_size: 0 1346 0 0 0 0 0 0 0 
Heartbeat_Variant_1 : 2594 0.633301 per_variant_size: 0 520 2074 0 0 0 0 0 0 
Heartbeat_Variant_2 : 0 0 per_variant_size: 0 0 0 0 0 0 0 0 0 
Heartbeat_Variant_3 : 0 0 per_variant_size: 0 0 0 0 0 0 0 0 0 
Heartbeat_Variant_0_evicts 0 : 5478 1 : 23 2 : 0 3 : 0 
Heartbeat_Variant_1_evicts 0 : 23 1 : 0 2 : 0 3 : 0 
Heartbeat_Variant_2_evicts 0 : 0 1 : 0 2 : 0 3 : 0 
Heartbeat_Variant_3_evicts 0 : 0 1 : 0 2 : 0 3 : 0 
Heartbeat CPU 0 instructions: 30000001 cycles: 8389371 heartbeat IPC: 3.57662 cumulative IPC: 3.57595 (Simulation time: 0 hr 4 min 36 sec) 
Heartbeat_Variant_0 : 1361 0.332275 per_variant_size: 0 1361 0 0 0 0 0 0 0 
Heartbeat_Variant_1 : 2620 0.639648 per_variant_size: 0 495 2125 0 0 0 0 0 0 
Heartbeat_Variant_2 : 0 0 per_variant_size: 0 0 0 0 0 0 0 0 0 
Heartbeat_Variant_3 : 0 0 per_variant_size: 0 0 0 0 0 0 0 0 0 
Heartbeat_Variant_0_evicts 0 : 5654 1 : 157 2 : 0 3 : 0 
Heartbeat_Variant_1_evicts 0 : 152 1 : 0 2 : 0 3 : 0 
Heartbeat_Variant_2_evicts 0 : 0 1 : 0 2 : 0 3 : 0 
Heartbeat_Variant_3_evicts 0 : 0 1 : 0 2 : 0 3 : 0 
Heartbeat CPU 0 instructions: 40000003 cycles: 11185462 heartbeat IPC: 3.57642 cumulative IPC: 3.57607 (Simulation time: 0 hr 6 min 9 sec) 
Heartbeat_Variant_0 : 1372 0.334961 per_variant_size: 0 1372 0 0 0 0 0 0 0 
Heartbeat_Variant_1 : 2620 0.639648 per_variant_size: 0 501 2119 0 0 0 0 0 0 
Heartbeat_Variant_2 : 0 0 per_variant_size: 0 0 0 0 0 0 0 0 0 
Heartbeat_Variant_3 : 0 0 per_variant_size: 0 0 0 0 0 0 0 0 0 
Heartbeat_Variant_0_evicts 0 : 5691 1 : 95 2 : 0 3 : 0 
Heartbeat_Variant_1_evicts 0 : 87 1 : 0 2 : 0 3 : 0 
Heartbeat_Variant_2_evicts 0 : 0 1 : 0 2 : 0 3 : 0 
Heartbeat_Variant_3_evicts 0 : 0 1 : 0 2 : 0 3 : 0 
Heartbeat CPU 0 instructions: 50000000 cycles: 13981551 heartbeat IPC: 3.57642 cumulative IPC: 3.57614 (Simulation time: 0 hr 7 min 42 sec) 

Warmup complete CPU 0 instructions: 50000004 cycles: 13981552 (Simulation time: 0 hr 7 min 42 sec) 

Cycle: 20000000 FTQ IN: 58362463 FTQ occupancy: 20.9607 DECODE IN: 58362331 DECODE occupancy: 54.0886 ROB IN: 58362271 ROB occupancy: 320.55 ROB OUT: 58362090
Heartbeat_Variant_0 : 1378 0.336426 per_variant_size: 0 1378 0 0 0 0 0 0 0 
Heartbeat_Variant_1 : 2629 0.641846 per_variant_size: 0 506 2123 0 0 0 0 0 0 
Heartbeat_Variant_2 : 0 0 per_variant_size: 0 0 0 0 0 0 0 0 0 
Heartbeat_Variant_3 : 0 0 per_variant_size: 0 0 0 0 0 0 0 0 0 
Heartbeat_Variant_0_evicts 0 : 5590 1 : 127 2 : 0 3 : 0 
Heartbeat_Variant_1_evicts 0 : 123 1 : 0 2 : 0 3 : 0 
Heartbeat_Variant_2_evicts 0 : 0 1 : 0 2 : 0 3 : 0 
Heartbeat_Variant_3_evicts 0 : 0 1 : 0 2 : 0 3 : 0 
Heartbeat CPU 0 instructions: 60000001 cycles: 21164236 heartbeat IPC: 1.39224 cumulative IPC: 1.39224 (Simulation time: 0 hr 9 min 33 sec) 
Heartbeat_Variant_0 : 1382 0.337402 per_variant_size: 0 1382 0 0 0 0 0 0 0 
Heartbeat_Variant_1 : 2632 0.642578 per_variant_size: 0 494 2138 0 0 0 0 0 0 
Heartbeat_Variant_2 : 0 0 per_variant_size: 0 0 0 0 0 0 0 0 0 
Heartbeat_Variant_3 : 0 0 per_variant_size: 0 0 0 0 0 0 0 0 0 
Heartbeat_Variant_0_evicts 0 : 5637 1 : 68 2 : 0 3 : 0 
Heartbeat_Variant_1_evicts 0 : 66 1 : 0 2 : 0 3 : 0 
Heartbeat_Variant_2_evicts 0 : 0 1 : 0 2 : 0 3 : 0 
Heartbeat_Variant_3_evicts 0 : 0 1 : 0 2 : 0 3 : 0 
Heartbeat CPU 0 instructions: 70000000 cycles: 28250632 heartbeat IPC: 1.41115 cumulative IPC: 1.40163 (Simulation time: 0 hr 11 min 18 sec) 
Cycle: 30000000 FTQ IN: 14011097 FTQ occupancy: 16.2407 DECODE IN: 14011114 DECODE occupancy: 40.4508 ROB IN: 14011114 ROB occupancy: 255.601 ROB OUT: 14010943
Heartbeat_Variant_0 : 1382 0.337402 per_variant_size: 0 1382 0 0 0 0 0 0 0 
Heartbeat_Variant_1 : 2636 0.643555 per_variant_size: 0 508 2128 0 0 0 0 0 0 
Heartbeat_Variant_2 : 0 0 per_variant_size: 0 0 0 0 0 0 0 0 0 
Heartbeat_Variant_3 : 0 0 per_variant_size: 0 0 0 0 0 0 0 0 0 
Heartbeat_Variant_0_evicts 0 : 5648 1 : 83 2 : 0 3 : 0 
Heartbeat_Variant_1_evicts 0 : 83 1 : 0 2 : 0 3 : 0 
Heartbeat_Variant_2_evicts 0 : 0 1 : 0 2 : 0 3 : 0 
Heartbeat_Variant_3_evicts 0 : 0 1 : 0 2 : 0 3 : 0 
Heartbeat CPU 0 instructions: 80000003 cycles: 35418668 heartbeat IPC: 1.39508 cumulative IPC: 1.39944 (Simulation time: 0 hr 13 min 7 sec) 
Cycle: 40000000 FTQ IN: 14141754 FTQ occupancy: 16.2501 DECODE IN: 14141869 DECODE occupancy: 40.6312 ROB IN: 14141906 ROB occupancy: 256.135 ROB OUT: 14141906
Heartbeat_Variant_0 : 1382 0.337402 per_variant_size: 0 1382 0 0 0 0 0 0 0 
Heartbeat_Variant_1 : 2646 0.645996 per_variant_size: 0 506 2140 0 0 0 0 0 0 
Heartbeat_Variant_2 : 0 0 per_variant_size: 0 0 0 0 0 0 0 0 0 
Heartbeat_Variant_3 : 0 0 per_variant_size: 0 0 0 0 0 0 0 0 0 
Heartbeat_Variant_0_evicts 0 : 5766 1 : 125 2 : 0 3 : 0 
Heartbeat_Variant_1_evicts 0 : 128 1 : 0 2 : 0 3 : 0 
Heartbeat_Variant_2_evicts 0 : 0 1 : 0 2 : 0 3 : 0 
Heartbeat_Variant_3_evicts 0 : 0 1 : 0 2 : 0 3 : 0 
Heartbeat CPU 0 instructions: 90000001 cycles: 42484297 heartbeat IPC: 1.4153 cumulative IPC: 1.40337 (Simulation time: 0 hr 14 min 52 sec) 
Heartbeat_Variant_0 : 1382 0.337402 per_variant_size: 0 1382 0 0 0 0 0 0 0 
Heartbeat_Variant_1 : 2646 0.645996 per_variant_size: 0 492 2154 0 0 0 0 0 0 
Heartbeat_Variant_2 : 0 0 per_variant_size: 0 0 0 0 0 0 0 0 0 
Heartbeat_Variant_3 : 0 0 per_variant_size: 0 0 0 0 0 0 0 0 0 
Heartbeat_Variant_0_evicts 0 : 5574 1 : 45 2 : 0 3 : 0 
Heartbeat_Variant_1_evicts 0 : 45 1 : 0 2 : 0 3 : 0 
Heartbeat_Variant_2_evicts 0 : 0 1 : 0 2 : 0 3 : 0 
Heartbeat_Variant_3_evicts 0 : 0 1 : 0 2 : 0 3 : 0 
Heartbeat CPU 0 instructions: 100000003 cycles: 49641293 heartbeat IPC: 1.39723 cumulative IPC: 1.40214 (Simulation time: 0 hr 16 min 55 sec) 
Finished CPU 0 instructions: 50000003 cycles: 35659742 cumulative IPC: 1.40214 (Simulation time: 0 hr 16 min 55 sec) 

ChampSim completed all CPUs

Region of Interest Statistics

CPU 0 cumulative IPC: 1.40214 instructions: 50000003 cycles: 35659742
 Fetch stage stalled: 37.3909  Sim cycles: 35659742 fetch stall cycle: 13333491
 Empty decode stage: 19.5614  Sim cycles: 35659742 fetch stall cycle: 6975541
ITLB TOTAL     ACCESS:    5858438  HIT:    5367387  MISS:     491051  HIT %:    91.6181  MISS %:    8.38194   MPKI: 9.82102
ITLB LOAD TRANSLATION INSTRUCTION	ACCESS:    5707204  HIT:    5216153  MISS:     491051  HIT %:    91.3959  MISS %:    8.60406  MPKI: 9.82102
ITLB TRANSLATION FROM L1D PREFETCHER INSTRUCTION	ACCESS:     151234  HIT:     151234  MISS:          0  HIT %:        100  MISS %:          0  MPKI: 0

ITLB AVERAGE MISS LATENCY: 9.05546 cycles
ITLB RQ	ACCESS:    7902246	FORWARD:          0	MERGED:    1524884	TO_CACHE:    6377362

DTLB TOTAL     ACCESS:    8953972  HIT:    8483045  MISS:     470927  HIT %:    94.7406  MISS %:    5.25942   MPKI: 9.41854
DTLB LOAD TRANSLATION DATA	ACCESS:    8953972  HIT:    8483045  MISS:     470927  HIT %:    94.7406  MISS %:    5.25942  MPKI: 9.41854

DTLB AVERAGE MISS LATENCY: 9.32355 cycles
DTLB RQ	ACCESS:   13319216	FORWARD:          0	MERGED:    4329027	TO_CACHE:    8990189

STLB TOTAL     ACCESS:    1212800  HIT:    1210797  MISS:       2003  HIT %:    99.8348  MISS %:   0.165155   MPKI: 0.04006
STLB LOAD TRANSLATION INSTRUCTION	ACCESS:     491051  HIT:     490803  MISS:        248  HIT %:    99.9495  MISS %:  0.0505039  MPKI: 0.00496
STLB LOAD TRANSLATION DATA	ACCESS:     470927  HIT:     469195  MISS:       1732  HIT %:    99.6322  MISS %:   0.367785  MPKI: 0.03464
STLB TRANSLATION FROM L1D PREFETCHER DATA	ACCESS:     250822  HIT:     250799  MISS:         23  HIT %:    99.9908  MISS %: 0.00916985  MPKI: 0.00046

STLB AVERAGE MISS LATENCY: 74.8487 cycles
STLB RQ	ACCESS:    1335220	FORWARD:          0	MERGED:     122382	TO_CACHE:    1212838

STLB Hit, L1D data hit: 0
STLB Hit, L2C data hit: 0
STLB Hit, LLC data hit: 0
STLB Hit, LLC data miss: 0
STLB STLB hints to L2: 0
L1D TOTAL     ACCESS:   13070893  HIT:   11957395  MISS:    1113498  HIT %:    91.4811  MISS %:    8.51891   MPKI: 22.27
L1D LOAD DATA	ACCESS:    6538579  HIT:    5807403  MISS:     731176  HIT %:    88.8175  MISS %:    11.1825  MPKI: 14.6235
L1D RFO DATA	ACCESS:    6199508  HIT:    5914001  MISS:     285507  HIT %:    95.3947  MISS %:    4.60532  MPKI: 5.71014
L1D PREFETCH DATA	ACCESS:     332806  HIT:     235991  MISS:      96815  HIT %:    70.9095  MISS %:    29.0905  MPKI: 1.9363

L1D PREFETCH  REQUESTED:     746867  ISSUED:     746867  USEFUL:      35278  USELESS:      69544
L1D USEFUL LOAD PREFETCHES:      35278 PREFETCH ISSUED TO LOWER LEVEL:     104912  ACCURACY: 33.6263
 TIMELY PREFETCHES:      35278 LATE PREFETCHES: 8018 DROPPED PREFETCHES: 9
L1D AVERAGE MISS LATENCY: 227573 cycles
L1D RQ	ACCESS:   10693215	FORWARD:          0	MERGED:    3956881	TO_CACHE:    6573817
L1D WQ	ACCESS:    6942405	FORWARD:     162900	MERGED:     197006	TO_CACHE:    6745399
L1D PQ	ACCESS:     373625	FORWARD:          0	MERGED:          0	TO_CACHE:     373242

L1D UNIQUE REGIONS ACCESSED: 0
L1D REGIONS CONFLICTS: 0
L1D Cross Page Prefetch Requests: 6985
L1D Same Page Prefetch Requests: 752861
L1D ROI Sum of L1D PQ occupancy: 4746294
L1D PREFETCHES PUSHED FROM L2C: 0
L1I TOTAL     ACCESS:    7109205  HIT:    4358050  MISS:    2751155  HIT %:    61.3015  MISS %:    38.6985   MPKI: 55.0231
L1I LOAD INSTRUCTION	ACCESS:    6434606  HIT:    3683451  MISS:    2751155  HIT %:    57.2444  MISS %:    42.7556  MPKI: 55.0231
L1I PREFETCH INSTRUCTION	ACCESS:     674599  HIT:     674599  MISS:          0  HIT %:        100  MISS %:          0  MPKI: 0

L1I PREFETCH  REQUESTED:    1616265  ISSUED:    1616265  USEFUL:          0  USELESS:          0
L1I USEFUL LOAD PREFETCHES:          0 PREFETCH ISSUED TO LOWER LEVEL:          0  ACCURACY: -nan
 TIMELY PREFETCHES:          0 LATE PREFETCHES: 0 DROPPED PREFETCHES: 0
L1I AVERAGE MISS LATENCY: 16.9758 cycles
L1I RQ	ACCESS:    9655134	FORWARD:          0	MERGED:    2949950	TO_CACHE:    6705184
L1I PQ	ACCESS:    1616265	FORWARD:          0	MERGED:     419203	TO_CACHE:    1197062

L1BTB TOTAL     ACCESS:    5669368  HIT:    2053435  MISS:    3615933  HIT %:    36.2198  MISS %:    63.7802   MPKI: 72.3187
L1BTB BRANCH_DIRECT_JUMP	ACCESS:     548314 HIT:     145681 MISS:     402633 AVERAGE STALL: 58.0414 AVERAGE FETCH STALL: 15.0953 AVERAGE FETCH QUEUE STALL: 20.3907 AVERAGE DECODE STALL: 21.647 AVERAGE EXECUTE STALL: 2.18745e+15
L1BTB BRANCH_INDIRECT	ACCESS:     183294 HIT:      66409 MISS:     116885 AVERAGE STALL: 119.082 AVERAGE FETCH STALL: 10.8249 AVERAGE FETCH QUEUE STALL: 24.0496 AVERAGE DECODE STALL: 13.8631 AVERAGE EXECUTE STALL: 69.3833
L1BTB BRANCH_CONDITIONAL	ACCESS:    2710694 HIT:    1422175 MISS:    1288519 AVERAGE STALL: 69.1713 AVERAGE FETCH STALL: 26.0366 AVERAGE FETCH QUEUE STALL: 26.1282 AVERAGE DECODE STALL: 16.4134 AVERAGE EXECUTE STALL: 3.73491e+15
L1BTB BRANCH_DIRECT_CALL	ACCESS:     942184 HIT:     106494 MISS:     835690 AVERAGE STALL: 101.084 AVERAGE FETCH STALL: 26.9831 AVERAGE FETCH QUEUE STALL: 55.4339 AVERAGE DECODE STALL: 17.7804 AVERAGE EXECUTE STALL: 8.90287e+15
L1BTB BRANCH_INDIRECT_CALL	ACCESS:     171357 HIT:      21466 MISS:     149891 AVERAGE STALL: 146.762 AVERAGE FETCH STALL: 12.2439 AVERAGE FETCH QUEUE STALL: 19.4588 AVERAGE DECODE STALL: 13.58 AVERAGE EXECUTE STALL: 100.991
L1BTB BRANCH_RETURN	ACCESS:    1113525 HIT:     291210 MISS:     822315 AVERAGE STALL: 52.5523 AVERAGE FETCH STALL: 16.1726 AVERAGE FETCH QUEUE STALL: 6.83025 AVERAGE DECODE STALL: 6.66239 AVERAGE EXECUTE STALL: 4.24239e+14
L1BTB BRANCH_OTHER ACCESS:          0 HIT:          0 MISS:          0 AVERAGE STALL: -nan AVERAGE FETCH STALL: -nan AVERAGE FETCH QUEUE STALL: -nan AVERAGE DECODE STALL: -nan AVERAGE EXECUTE STALL: -nan
L1BTB TOTAL ROB OCCUPANCY AT BTB MISS: 2.81313

L2BTB TOTAL     ACCESS:    3590509  HIT:    3524172  MISS:      66337  HIT %:    98.1524  MISS %:    1.84757   MPKI: 1.32674
L2BTB BRANCH_DIRECT_JUMP	ACCESS:     398424 HIT:     394196 MISS:       4228 AVERAGE STALL: 58.0414 AVERAGE FETCH STALL: 15.0953 AVERAGE FETCH QUEUE STALL: 20.3907 AVERAGE DECODE STALL: 21.647 AVERAGE EXECUTE STALL: 2.18745e+15
L2BTB BRANCH_INDIRECT	ACCESS:     106647 HIT:     103900 MISS:       2747 AVERAGE STALL: 119.082 AVERAGE FETCH STALL: 10.8249 AVERAGE FETCH QUEUE STALL: 24.0496 AVERAGE DECODE STALL: 13.8631 AVERAGE EXECUTE STALL: 69.3833
L2BTB BRANCH_CONDITIONAL	ACCESS:    1288519 HIT:    1283544 MISS:       4975 AVERAGE STALL: 69.1713 AVERAGE FETCH STALL: 26.0366 AVERAGE FETCH QUEUE STALL: 26.1282 AVERAGE DECODE STALL: 16.4134 AVERAGE EXECUTE STALL: 3.73491e+15
L2BTB BRANCH_DIRECT_CALL	ACCESS:     835690 HIT:     833602 MISS:       2088 AVERAGE STALL: 101.084 AVERAGE FETCH STALL: 26.9831 AVERAGE FETCH QUEUE STALL: 55.4339 AVERAGE DECODE STALL: 17.7804 AVERAGE EXECUTE STALL: 8.90287e+15
L2BTB BRANCH_INDIRECT_CALL	ACCESS:     140310 HIT:     130110 MISS:      10200 AVERAGE STALL: 146.762 AVERAGE FETCH STALL: 12.2439 AVERAGE FETCH QUEUE STALL: 19.4588 AVERAGE DECODE STALL: 13.58 AVERAGE EXECUTE STALL: 100.991
L2BTB BRANCH_RETURN	ACCESS:     820919 HIT:     778820 MISS:      42099 AVERAGE STALL: 52.5523 AVERAGE FETCH STALL: 16.1726 AVERAGE FETCH QUEUE STALL: 6.83025 AVERAGE DECODE STALL: 6.66239 AVERAGE EXECUTE STALL: 4.24239e+14
L2BTB BRANCH_OTHER ACCESS:          0 HIT:          0 MISS:          0 AVERAGE STALL: -nan AVERAGE FETCH STALL: -nan AVERAGE FETCH QUEUE STALL: -nan AVERAGE DECODE STALL: -nan AVERAGE EXECUTE STALL: -nan
L2BTB TOTAL ROB OCCUPANCY AT BTB MISS: 153.34

L2C TOTAL     ACCESS:    4469037  HIT:    4025527  MISS:     443510  HIT %:    90.0759  MISS %:    9.92406   MPKI: 8.8702
L2C LOAD INSTRUCTION	ACCESS:    2751155  HIT:    2521040  MISS:     230115  HIT %:    91.6357  MISS %:    8.36431  MPKI: 4.6023
L2C LOAD TRANSLATION INSTRUCTION	ACCESS:        289  HIT:         60  MISS:        229  HIT %:    20.7612  MISS %:    79.2388  MPKI: 0.00458
L2C LOAD DATA	ACCESS:     723145  HIT:     651820  MISS:      71325  HIT %:    90.1368  MISS %:    9.86317  MPKI: 1.4265
L2C RFO DATA	ACCESS:     285392  HIT:     230232  MISS:      55160  HIT %:    80.6722  MISS %:    19.3278  MPKI: 1.1032
L2C PREFETCH DATA	ACCESS:     187607  HIT:     118208  MISS:      69399  HIT %:    63.0083  MISS %:    36.9917  MPKI: 1.38798
L2C WRITEBACK DATA	ACCESS:     519599  HIT:     503627  MISS:      15972  HIT %:    96.9261  MISS %:    3.07391  MPKI: 0.31944
L2C LOAD TRANSLATION DATA	ACCESS:       1807  HIT:        508  MISS:       1299  HIT %:    28.1129  MISS %:    71.8871  MPKI: 0.02598
L2C TRANSLATION FROM L1D PREFETCHER DATA	ACCESS:         43  HIT:         32  MISS:         11  HIT %:    74.4186  MISS %:    25.5814  MPKI: 0.00022

L2C PREFETCH  REQUESTED:      89463  ISSUED:      89463  USEFUL:       7725  USELESS:      62065
L2C USEFUL LOAD PREFETCHES:       7725 PREFETCH ISSUED TO LOWER LEVEL:      69716  ACCURACY: 11.0807
 TIMELY PREFETCHES:       7725 LATE PREFETCHES: 317 DROPPED PREFETCHES: 0
L2C AVERAGE MISS LATENCY: 39.3891 cycles
L2C RQ	ACCESS:    3761878	FORWARD:          0	MERGED:          0	TO_CACHE:    3761830
L2C WQ	ACCESS:     519599	FORWARD:         48	MERGED:          0	TO_CACHE:     519599
L2C PQ	ACCESS:     194375	FORWARD:          0	MERGED:       3390	TO_CACHE:     190985

L2C Dense regions hint from L2: 0
PSCL5 TOTAL     ACCESS:       4028  HIT:       2014  MISS:       2014  HIT %:         50  MISS %:         50   MPKI: 0.04028
PSCL5 LOAD TRANSLATION INSTRUCTION	ACCESS:       3942  HIT:       1971  MISS:       1971  HIT %:         50  MISS %:         50  MPKI: 0.03942
PSCL5 TRANSLATION FROM L1D PREFETCHER INSTRUCTION	ACCESS:         86  HIT:         43  MISS:         43  HIT %:         50  MISS %:         50  MPKI: 0.00086


PSCL4 TOTAL     ACCESS:       3865  HIT:       1928  MISS:       1937  HIT %:    49.8836  MISS %:    50.1164   MPKI: 0.03874
PSCL4 LOAD TRANSLATION INSTRUCTION	ACCESS:       3526  HIT:       1891  MISS:       1635  HIT %:    53.6302  MISS %:    46.3698  MPKI: 0.0327
PSCL4 TRANSLATION FROM L1D PREFETCHER INSTRUCTION	ACCESS:         74  HIT:         37  MISS:         37  HIT %:         50  MISS %:         50  MPKI: 0.00074
PSCL4 LOAD TRANSLATION DATA	ACCESS:        265  HIT:          0  MISS:        265  HIT %:          0  MISS %:        100  MPKI: 0.0053


PSCL3 TOTAL     ACCESS:       3929  HIT:       1960  MISS:       1969  HIT %:    49.8855  MISS %:    50.1145   MPKI: 0.03938
PSCL3 LOAD TRANSLATION INSTRUCTION	ACCESS:       3558  HIT:       1923  MISS:       1635  HIT %:    54.0472  MISS %:    45.9528  MPKI: 0.0327
PSCL3 TRANSLATION FROM L1D PREFETCHER INSTRUCTION	ACCESS:         74  HIT:         37  MISS:         37  HIT %:         50  MISS %:         50  MPKI: 0.00074
PSCL3 LOAD TRANSLATION DATA	ACCESS:        297  HIT:          0  MISS:        297  HIT %:          0  MISS %:        100  MPKI: 0.00594


PSCL2 TOTAL     ACCESS:       3920  HIT:       1906  MISS:       2014  HIT %:    48.6224  MISS %:    51.3776   MPKI: 0.04028
PSCL2 LOAD TRANSLATION INSTRUCTION	ACCESS:       2109  HIT:       1863  MISS:        246  HIT %:    88.3357  MISS %:    11.6643  MPKI: 0.00492
PSCL2 TRANSLATION FROM L1D PREFETCHER INSTRUCTION	ACCESS:         43  HIT:         43  MISS:          0  HIT %:        100  MISS %:          0  MPKI: 0
PSCL2 LOAD TRANSLATION DATA	ACCESS:       1725  HIT:          0  MISS:       1725  HIT %:          0  MISS %:        100  MPKI: 0.0345
PSCL2 TRANSLATION FROM L1D PREFETCHER DATA	ACCESS:         43  HIT:          0  MISS:         43  HIT %:          0  MISS %:        100  MPKI: 0.00086


LLC TOTAL     ACCESS:     506845  HIT:     477340  MISS:      29505  HIT %:    94.1787  MISS %:    5.82131   MPKI: 0.5901
LLC LOAD INSTRUCTION	ACCESS:     230115  HIT:     229211  MISS:        904  HIT %:    99.6072  MISS %:   0.392847  MPKI: 0.01808
LLC LOAD TRANSLATION INSTRUCTION	ACCESS:        229  HIT:        194  MISS:         35  HIT %:    84.7162  MISS %:    15.2838  MPKI: 0.0007
LLC LOAD DATA	ACCESS:      71027  HIT:      67772  MISS:       3255  HIT %:    95.4172  MISS %:    4.58276  MPKI: 0.0651
LLC RFO DATA	ACCESS:      55124  HIT:      39629  MISS:      15495  HIT %:    71.8906  MISS %:    28.1094  MPKI: 0.3099
LLC PREFETCH DATA	ACCESS:      69715  HIT:      60307  MISS:       9408  HIT %:    86.5051  MISS %:    13.4949  MPKI: 0.18816
LLC WRITEBACK DATA	ACCESS:      79325  HIT:      78996  MISS:        329  HIT %:    99.5853  MISS %:   0.414749  MPKI: 0.00658
LLC LOAD TRANSLATION DATA	ACCESS:       1299  HIT:       1220  MISS:         79  HIT %:    93.9184  MISS %:     6.0816  MPKI: 0.00158
LLC TRANSLATION FROM L1D PREFETCHER DATA	ACCESS:         11  HIT:         11  MISS:          0  HIT %:        100  MISS %:          0  MPKI: 0

LLC AVERAGE MISS LATENCY: 156.102 cycles
LLC RQ	ACCESS:     357822	FORWARD:          0	MERGED:          0	TO_CACHE:     357805
LLC WQ	ACCESS:      79325	FORWARD:         18	MERGED:          0	TO_CACHE:      79325
LLC PQ	ACCESS:      69716	FORWARD:          0	MERGED:          0	TO_CACHE:      69715

LLC Dense regions hint to LLC: 0

RAW hits: 1945612
Loads Generated: 12638827
Loads sent to L1D: 10693215
Stores Generated: 6942400
Stores sent to L1D: 6942405
Major fault: 0 Minor fault: 2557
Allocated PAGES: 2557

stream: 
stream:times selected: 1194020
stream:pref_filled: 122757
stream:pref_useful: 24311
stream:pref_late: 6654
stream:misses: 7994
stream:misses_by_poll: 0

CS: 
CS:times selected: 179412
CS:pref_filled: 60050
CS:pref_useful: 36530
CS:pref_late: 7044
CS:misses: 16485
CS:misses_by_poll: 6

CPLX: 
CPLX:times selected: 1013345
CPLX:pref_filled: 19996
CPLX:pref_useful: 4775
CPLX:pref_late: 3126
CPLX:misses: 92386
CPLX:misses_by_poll: 1

NL_L1: 
NL:times selected: 21705
NL:pref_filled: 670
NL:pref_useful: 308
NL:pref_late: 269
NL:misses: 1673
NL:misses_by_poll: 0

total selections: 2408482
total_filled: 96815
total_useful: 35278
total_late: 18331
total_polluted: 7
total_misses_after_warmup: 766412
conflicts: 5504616

test: 118913

DRAM Statistics
 CHANNEL 0
 RQ ROW_BUFFER_HIT:      11370  ROW_BUFFER_MISS:      17794
 DBUS_CONGESTED:         10
 WQ ROW_BUFFER_HIT:       1357  ROW_BUFFER_MISS:      12735  FULL:          0

 AVG_CONGESTED_CYCLE: 3

CPU 0 Branch Prediction Accuracy: 99.8267% MPKI: 0.3168 Average ROB Occupancy at Mispredict: 204.327
Branch types
NOT_BRANCH: 40859860 81.7197%
BRANCH_DIRECT_JUMP: 548314 1.09663%
BRANCH_INDIRECT: 183294 0.366588%
BRANCH_CONDITIONAL: 6181536 12.3631%
BRANCH_DIRECT_CALL: 942184 1.88437%
BRANCH_INDIRECT_CALL: 171357 0.342714%
BRANCH_RETURN: 1113525 2.22705%
BRANCH_OTHER: 0 0%

DRAM PAGES: 1048576
Allocated PAGES: 2557
Average_ROB_Occupancy: 256.389
Average_Decode_Occupancy: 40.4234
Average_FTQ_Occupancy: 16.2338
Indirect max targets: 14 Average targets: 1.14527
Branch_type:  BRANCH_DIRECT_JUMP:  Count Percentage: 3.26741 6.26219 4.55407 8.10877 2.42602 6.30342 1.00456 68.0736 
Branch_type:  BRANCH_INDIRECT:  Count Percentage: 11.7665 3.4654 2.59168 0 2.54775 9.6903 19.2499 50.6884 
Branch_type:  BRANCH_CONDITIONAL:  Count Percentage: 21.1482 2.94492 1.87333 7.8215 1.55958 4.88506 1.87229 57.8951 
Branch_type:  BRANCH_DIRECT_CALL:  Count Percentage: 0.261105 1.2606 1.46457 3.59063 3.07145 2.64944 0.889625 86.8126 
Branch_type:  BRANCH_INDIRECT_CALL:  Count Percentage: 9.51484 0.582571 2.98112 4.83998 0 2.47848 1.28912 78.3139 
Branch_type:  BRANCH_RETURN:  Count Percentage: 3.47799 0.573939 1.29069 8.91537 2.71251 6.68576 3.08634 73.2574 
Branch_type:  BRANCH_DIRECT_JUMP:  Total Count: 35824 68659 49931 88905 26599 69111 11014 746362 
Branch_type:  BRANCH_INDIRECT:  Total Count: 43122 12700 9498 0 9337 35513 70547 185763 
Branch_type:  BRANCH_CONDITIONAL:  Total Count: 2613894 363989 231542 966729 192762 603789 231413 7155782 
Branch_type:  BRANCH_DIRECT_CALL:  Total Count: 4917 23739 27580 67617 57840 49893 16753 1634813 
Branch_type:  BRANCH_INDIRECT_CALL:  Total Count: 32616 1997 10219 16591 0 8496 4419 268453 
Branch_type:  BRANCH_RETURN:  Total Count: 77445 12780 28740 198520 60400 148873 68724 1631235 
Number of unique branch instructions: 9840
Upper 32 bits: 
aaaa
ffff
ffff0000
Unique upper 32 bits: 3
Unique upper 36 bits: 3
Unique upper 40 bits: 5
Unique upper 44 bits: 32
Unique upper 48 bits: 154
Variant_0 : 1382 0.337402
Variant_1 : 2646 0.645996
Variant_2 : 0 0
Variant_3 : 0 0
Offset_3 4061
Offset_4 244
Offset_5 449
Offset_6 500
Offset_7 572
Offset_8 506
Offset_9 465
Offset_10 377
Offset_11 303
Offset_12 270
Offset_13 203
Offset_14 227
Offset_15 184
Offset_16 221
Offset_17 145
Offset_18 118
Offset_19 235
Offset_20 137
Offset_21 235
Offset_22 391
Offset_23 241
Offset_24 331
Offset_25 88
Offset_47 82
decode_dispatch_called: 26753111 75.0233
Dispatch_width: 0 14462515 54.0592 40.557
Dispatch_width: 1 1051340 3.92979 2.94825
Dispatch_width: 2 864898 3.23289 2.42542
Dispatch_width: 3 494330 1.84775 1.38624
Dispatch_width: 4 6730445 25.1576 18.8741
Dispatch_width: 5 83401 0.311743 0.23388
Dispatch_width: 6 3066182 11.461 8.59844
Empty_decode_cycles: 8906631 24.9767
ROB_full_cycles: 10689152 29.9754
Starvation_cycles_per_kilo_instr: 219.044
Starvation_cycles_per_kilo_instr_3: 150.906
Starvation_cycles_per_kilo_instr_0: 126.8
Branch_type_1  (3,1)  (4,9)  (5,37)  (6,68)  (7,113)  (8,128)  (9,122)  (10,97)  (11,67)  (12,43)  (13,5)  (14,2)  (15,3)  (16,4)  (18,1)  (19,4)  (20,2)  (21,1)  (22,3)  (23,2)  (24,10)  (25,12) 
Branch_type_2  (3,1)  (5,1)  (8,3)  (9,3)  (12,1)  (13,1)  (14,1)  (16,3)  (17,2)  (20,2)  (21,2)  (23,5)  (24,1)  (47,38) 
Branch_type_3  (3,4059)  (4,235)  (5,407)  (6,417)  (7,429)  (8,314)  (9,256)  (10,152)  (11,122)  (12,50)  (13,4) 
Branch_type_4  (6,3)  (7,8)  (8,25)  (9,52)  (10,61)  (11,58)  (12,97)  (13,88)  (14,100)  (15,86)  (16,99)  (17,65)  (18,53)  (19,115)  (20,72)  (21,124)  (22,208)  (23,136)  (24,192)  (25,72) 
Branch_type_5  (8,2)  (9,1)  (10,3)  (11,5)  (12,3)  (13,14)  (14,16)  (15,11)  (16,20)  (17,11)  (18,16)  (19,12)  (20,10)  (21,13)  (22,42)  (23,26)  (24,37) 
Branch_type_6  (5,4)  (6,12)  (7,22)  (8,34)  (9,31)  (10,64)  (11,51)  (12,76)  (13,91)  (14,108)  (15,84)  (16,95)  (17,67)  (18,48)  (19,104)  (20,51)  (21,95)  (22,138)  (23,72)  (24,91)  (25,4)  (47,44) 
Unique trigger count: 
Variant_0_evicts_0 : 0
Variant_0_evicts_1 : 0
Variant_0_evicts_2 : 0
Variant_0_evicts_3 : 0
Variant_1_evicts_0 : 0
Variant_1_evicts_1 : 0
Variant_1_evicts_2 : 0
Variant_1_evicts_3 : 0
Variant_2_evicts_0 : 0
Variant_2_evicts_1 : 0
Variant_2_evicts_2 : 0
Variant_2_evicts_3 : 0
Variant_3_evicts_0 : 0
Variant_3_evicts_1 : 0
Variant_3_evicts_2 : 0
Variant_3_evicts_3 : 0
BTB PER SET UNIQUE ADDR: 11 15 9 8 7 11 11 10 8 11 9 11 11 9 13 9 9 8 8 10 9 8 11 13 8 11 11 7 10 9 11 10 9 7 4 10 8 13 6 7 11 8 9 11 8 7 12 8 9 6 12 11 14 8 10 6 7 7 7 14 8 12 8 12 9 11 10 9 10 12 10 9 13 8 8 6 7 9 6 14 10 6 9 11 10 9 10 8 9 9 8 7 9 9 6 9 9 8 14 11 13 20 9 12 7 11 10 8 8 9 7 11 12 9 8 7 8 8 6 9 13 10 5 5 7 11 7 10 15 8 10 13 9 14 11 9 6 14 8 15 9 6 10 8 11 11 16 12 6 15 11 13 6 12 11 12 14 9 11 8 11 8 8 11 9 9 9 6 10 8 7 9 13 12 6 10 9 9 12 11 12 10 11 9 8 11 5 9 7 8 12 10 11 12 14 8 10 10 9 9 9 14 7 10 10 13 11 9 10 11 10 7 9 10 6 11 6 11 9 18 7 11 9 11 6 10 10 10 8 11 11 6 8 13 10 10 12 8 9 7 8 10 11 10 11 9 9 9 8 10 10 10 9 8 11 12 8 8 10 8 8 9 6 12 9 7 9 8 6 9 9 7 6 8 8 8 8 11 10 10 9 10 6 10 8 9 8 14 11 9 10 9 12 8 7 10 10 9 8 8 10 11 8 15 12 6 10 10 8 9 6 12 6 17 13 8 10 8 12 11 7 10 13 9 11 13 7 8 10 8 10 12 6 13 8 13 9 10 7 16 7 10 7 12 11 12 10 12 8 9 10 7 11 12 9 9 8 10 7 7 11 14 9 13 11 9 6 11 12 9 8 6 9 10 8 10 12 16 13 11 15 8 7 10 8 11 14 8 9 12 11 9 14 13 8 7 10 10 11 12 10 10 11 9 9 16 9 10 10 12 12 7 8 15 9 10 13 14 9 13 5 11 12 7 9 11 12 9 15 8 12 10 8 8 9 12 11 9 8 10 10 9 9 8 13 7 11 9 10 10 10 14 8 11 13 12 14 11 6 9 6 8 11 15 12 9 11 11 8 7 8 10 8 12 10 11 4 14 7 12 8 11 10 8 8 14 11 11 12 14 11 11 8 10 6 9 14 11 7 9 11 11 10 14 10 6 6 10 10 12 10 13 8 13 9 11 10 10 8 7 8 7 9 8 10 14 10 7 8 14 13 4 15 8 6 12 8 12 10 7 10 7 12 9 10 11 12 12 7 9 10 15 11 8 8 15 12 11 11 10 12 10 10 10 8 12 9 9 8 9 10 7 10 10 11 12 11 9 10 7 14 14 9 8 11 7 8 9 10 10 8 8 8 8 10 9 9 9 10 11 9 10 9 8 9 9 9 9 10 9 14 14 5 10 4 9 8 11 10 11 11 5 9 7 9 11 9 11 7 13 8 12 10 10 8 8 9 10 8 11 10 7 16 13 8 11 6 8 10 6 9 8 7 10 16 9 9 14 9 5 10 7 9 18 10 12 7 9 11 7 14 9 9 11 10 8 9 9 13 7 7 16 9 11 7 7 8 9 10 16 11 9 10 9 9 11 7 7 5 12 7 8 10 10 7 10 9 11 10 7 11 9 10 7 9 9 15 12 8 10 10 13 8 10 8 10 11 9 5 10 8 8 11 12 10 8 13 14 14 9 11 9 10 11 6 12 7 10 12 9 13 8 12 9 10 13 12 12 9 9 9 7 6 9 7 9 8 15 12 13 9 10 11 6 8 11 9 10 12 7 6 10 11 8 8 10 9 16 9 9 5 4 12 11 11 13 10 9 13 11 13 10 12 10 10 12 8 9 9 9 9 11 14 15 8 12 11 10 7 14 11 10 9 12 14 10 10 7 10 9 9 12 9 6 8 8 12 9 6 8 10 10 8 10 9 12 11 11 10 9 10 8 10 8 13 12 13 9 8 14 11 13 6 8 14 7 10 9 10 10 10 10 12 9 9 8 7 11 8 8 10 6 10 13 10 12 10 8 10 9 8 8 10 10 11 12 10 9 7 11 12 9 11 8 9 12 10 7 11 11 8 10 8 11 15 11 11 11 8 11 8 14 8 11 7 9 6 6 7 6 10 13 14 13 7 15 8 8 12 12 9 10 10 6 9 10 9 10 8 10 11 8 7 11 9 10 9 10 8 10 11 12 9 9 8 4 9 12 9 9 10 11 10 9 12 11 17 8 12 13 11 12 16 10 7 14 16 7 9 9 11 10 13 10 10 6 8 9 11 7 13 10 12 8 12 8 7 13 6 9 7 9 11 8 8 8 7 5 6 7 8 16 9 7 
BTB PER SET COUNT: 1007 21 1476 10 8 17 844 14 1469 12 12 212 18394 11 16 10 2234 10 10 11 10 8 780 75 17 12 13 7 381 9 460 10 10 7 4 15 9 15 6 7 11 14 9 13 1467 106 13 8 16 6 21 13 19 8 17 6 7 7 10 16 9 17 108 16 10 13 11 9 15 13 15 297 15 8 9 6 10 13 7 21 1010 6 13 16 13 36 10 11 1014 17 8 840 515 47 6 10 1783 8 18 13 26 332 12 497 2195 15 10 11 160 11 12 28 943 13 10 395 14 12 6 157 166 12 5 7 7 88 9 1581 24 458 12 18 14 15 15 10 819 18 13 18 9 7 12 11 13 216 113 15 6 20 13 276 378 12 23 16 25 10 15 9 11 14 10 13 55 15 11 6 14 8 8 10 18 19 7 1330 10 11 17 319 14 40 372 10 8 13 7 12 9 1007 15 13 11 14 19 113 12 14 10 13 9 18 966 13 11 23 15 14 10 1140 12 9 9 17 6 1004 6 14 1472 30 9 11 385 11 8 17 11 11 803 16 13 6 8 13 647 12 18 431 148 9 9 11 212 10 12 12 14 16 10 12 12 15 11 9 13 18 8 13 12 14 967 9 7 23 10 7 11 11 6 10 9 7 6 11 8 12 10 12 13 117 21 13 8 14 8 13 8 17 14 13 13 9 16 8 9 11 165 10 9 10 13 17 10 23 12 9 10 16 169 706 6 16 6 22 707 10 14 9 16 20 8 2942 22 9 13 19 511 8 15 8 10 16 48 18 8 16 15 12 7 20 7 885 10 282 12 15 10 16 9 135 11 8 20 17 11 10 8 15 36 8 14 18 9 16 15 3157 6 14 13 11 10 378 10 712 12 15 18 21 147 258 200 8 8 13 11 16 20 9 11 1371 477 12 19 15 11 1008 11 12 1159 16 10 13 152 17 15 26 9 509 16 18 42 7 8 23 9 14 16 71 14 23 5 33 15 7 12 12 1336 9 25 1292 20 13 8 12 289 20 13 20 9 17 10 12 11 8 2256 7 471 11 10 11 933 15 14 19 24 326 17 12 6 10 24 10 11 707 17 12 15 12 10 9 8 13 9 12 18 13 4 66 7 13 10 153 10 10 9 730 52 18 415 149 321 16 14 13 7 207 21 973 10 9 17 13 17 47 10 7 6 11 12 20 13 15 1882 17 11 15 11 12 9 7 11 8 10 336 13 15 63 7 8 1483 14 5 24 11 6 13 11 182 13 8 12 7 14 10 13 13 16 18 8 1008 12 25 873 22 10 26 14 11 16 13 13 14 10 11 558 15 164 12 10 12 12 7 16 10 13 14 12 11 16 7 18 17 11 4502 12 8 702 11 16 15 10 8 8 8 20 16 11 385 263 11 11 14 10 13 14 14 10 40 12 12 16 1473 5 16 4 9 8 11 12 25 14 5 15 1007 9 17 12 14 7 14 12 15 15 14 8 14 9 903 9 12 15 7 21 15 9 180 506 8 11 6 9 8 8 12 21 513 9 21 170 5 10 7 10 22 2069 19 8 969 602 8 17 10 830 12 10 11 9 13 16 11 7 25 1349 496 2005 7 11 12 13 24 12 9 13 11 1982 14 108 9 5 22 966 19 1475 18 10 12 10 13 10 7 17 12 1100 9 10 9 94 18 8 10 11 1216 11 2377 11 11 12 10 5 193 12 9 145 115 15 1924 214 19 15 9 939 10 15 13 6 14 1005 11 13 9 482 8 17 11 18 18 15 1383 11 13 13 10 6 361 9 10 9 1489 16 113 9 384 129 8 8 12 10 10 18 8 1489 12 18 8 9 10 13 18 10 11 5 4 20 12 11 116 14 10 22 286 92 10 24 10 14 13 12 11 13 54 13 7890 21 20 10 15 15 2761 7 2900 13 1041 11 22 18 10 12 7 13 13 12 20 14 6 10 1927 12 11 1005 192 14 969 9 13 733 13 74 19 11 14610 14 729 687 12 151 13 16 10 11 17 16 13 6 13 24 9 12 12 13 10 375 37 21 9 9 8 7 14 2656 11 12 6 15 17 13 13 12 11 10 626 10 8 11 10 15 13 12 10 9 12 15 13 12 10 12 18 12 7 125 15 10 861 9 17 21 14 22 974 9 15 8 142 509 15 7 931 6 6 12 6 10 16 429 16 9 374 8 13 1920 15 10 1534 13 7 12 18 103 11 10 12 179 9 970 14 13 11 12 12 8 623 630 14 39 11 8 4 26 25 9 10 15 1470 12 9 15 13 33 9 105 158 14 15 26 14 8 1351 23 891 10 12 14 13 23 11 767 8 9 1471 26 8 25 1469 18 13 14 9 10 19 7 973 231 10 14 11 8 10 8 5 7 8 10 18 12 7 
To predecode: 0
Predecoding something: 0
Predecode request dropped: 0
sizeofblock_0 0
sizeofblock_1 43917
sizeofblock_2 92990
sizeofblock_3 0
sizeofblock_4 0
sizeofblock_5 0
sizeofblock_6 0
sizeofblock_7 0
sizeofblock_8 0
Variant_0 Correct: 1608701 Incorrect: 0 Accuracy: 1
Variant_1 Correct: 5712732 Incorrect: 0 Accuracy: 1
Variant_2 Correct: 0 Incorrect: 0 Accuracy: -nan
Variant_3 Correct: 0 Incorrect: 0 Accuracy: -nan
