
*** ChampSim Multicore Out-of-Order Simulator ***

Warmup Instructions: 50000000
Simulation Instructions: 50000000
Number of CPUs: 1
LLC sets: 2048
LLC ways: 16
Off-chip DRAM Size: 4096 MB Channels: 1 Width: 64-bit Data Rate: 6400 MT/s
CPU 0 runs ./micro_traces/srv383.trace.gz
.gz
ITLB has LRU replacement policy
DTLB has LRU replacement policy
STLB has LRU replacement policy
FDIP Prefetcher at L1I
L1I has LRU replacement policy
L1D has LRU replacement policy
Initialize SRRIP state for L2C
Initialize DRRIP state for LLC
Heartbeat_Variant_0 : 1296 0.316406 per_variant_size: 0 1296 0 0 0 0 0 0 0 
Heartbeat_Variant_1 : 2468 0.602539 per_variant_size: 0 566 1902 0 0 0 0 0 0 
Heartbeat_Variant_2 : 0 0 per_variant_size: 0 0 0 0 0 0 0 0 0 
Heartbeat_Variant_3 : 0 0 per_variant_size: 0 0 0 0 0 0 0 0 0 
Heartbeat_Variant_0_evicts 0 : 5657 1 : 334 2 : 0 3 : 0 
Heartbeat_Variant_1_evicts 0 : 270 1 : 0 2 : 0 3 : 0 
Heartbeat_Variant_2_evicts 0 : 0 1 : 0 2 : 0 3 : 0 
Heartbeat_Variant_3_evicts 0 : 0 1 : 0 2 : 0 3 : 0 
Heartbeat CPU 0 instructions: 10000002 cycles: 2796330 heartbeat IPC: 3.57612 cumulative IPC: 3.57612 (Simulation time: 0 hr 1 min 45 sec) 
Heartbeat_Variant_0 : 1353 0.330322 per_variant_size: 0 1353 0 0 0 0 0 0 0 
Heartbeat_Variant_1 : 2568 0.626953 per_variant_size: 0 479 2089 0 0 0 0 0 0 
Heartbeat_Variant_2 : 0 0 per_variant_size: 0 0 0 0 0 0 0 0 0 
Heartbeat_Variant_3 : 0 0 per_variant_size: 0 0 0 0 0 0 0 0 0 
Heartbeat_Variant_0_evicts 0 : 5731 1 : 279 2 : 0 3 : 0 
Heartbeat_Variant_1_evicts 0 : 266 1 : 0 2 : 0 3 : 0 
Heartbeat_Variant_2_evicts 0 : 0 1 : 0 2 : 0 3 : 0 
Heartbeat_Variant_3_evicts 0 : 0 1 : 0 2 : 0 3 : 0 
Heartbeat CPU 0 instructions: 20000000 cycles: 5593142 heartbeat IPC: 3.5755 cumulative IPC: 3.57581 (Simulation time: 0 hr 3 min 21 sec) 
Heartbeat_Variant_0 : 1354 0.330566 per_variant_size: 0 1354 0 0 0 0 0 0 0 
Heartbeat_Variant_1 : 2575 0.628662 per_variant_size: 0 473 2102 0 0 0 0 0 0 
Heartbeat_Variant_2 : 0 0 per_variant_size: 0 0 0 0 0 0 0 0 0 
Heartbeat_Variant_3 : 0 0 per_variant_size: 0 0 0 0 0 0 0 0 0 
Heartbeat_Variant_0_evicts 0 : 5693 1 : 32 2 : 0 3 : 0 
Heartbeat_Variant_1_evicts 0 : 31 1 : 0 2 : 0 3 : 0 
Heartbeat_Variant_2_evicts 0 : 0 1 : 0 2 : 0 3 : 0 
Heartbeat_Variant_3_evicts 0 : 0 1 : 0 2 : 0 3 : 0 
Heartbeat CPU 0 instructions: 30000002 cycles: 8390044 heartbeat IPC: 3.57539 cumulative IPC: 3.57567 (Simulation time: 0 hr 4 min 59 sec) 
Heartbeat_Variant_0 : 1353 0.330322 per_variant_size: 0 1353 0 0 0 0 0 0 0 
Heartbeat_Variant_1 : 2606 0.63623 per_variant_size: 0 468 2138 0 0 0 0 0 0 
Heartbeat_Variant_2 : 0 0 per_variant_size: 0 0 0 0 0 0 0 0 0 
Heartbeat_Variant_3 : 0 0 per_variant_size: 0 0 0 0 0 0 0 0 0 
Heartbeat_Variant_0_evicts 0 : 5600 1 : 67 2 : 0 3 : 0 
Heartbeat_Variant_1_evicts 0 : 76 1 : 0 2 : 0 3 : 0 
Heartbeat_Variant_2_evicts 0 : 0 1 : 0 2 : 0 3 : 0 
Heartbeat_Variant_3_evicts 0 : 0 1 : 0 2 : 0 3 : 0 
Heartbeat CPU 0 instructions: 40000002 cycles: 11186168 heartbeat IPC: 3.57638 cumulative IPC: 3.57585 (Simulation time: 0 hr 6 min 38 sec) 
Heartbeat_Variant_0 : 1365 0.333252 per_variant_size: 0 1365 0 0 0 0 0 0 0 
Heartbeat_Variant_1 : 2609 0.636963 per_variant_size: 0 461 2148 0 0 0 0 0 0 
Heartbeat_Variant_2 : 0 0 per_variant_size: 0 0 0 0 0 0 0 0 0 
Heartbeat_Variant_3 : 0 0 per_variant_size: 0 0 0 0 0 0 0 0 0 
Heartbeat_Variant_0_evicts 0 : 5571 1 : 107 2 : 0 3 : 0 
Heartbeat_Variant_1_evicts 0 : 100 1 : 0 2 : 0 3 : 0 
Heartbeat_Variant_2_evicts 0 : 0 1 : 0 2 : 0 3 : 0 
Heartbeat_Variant_3_evicts 0 : 0 1 : 0 2 : 0 3 : 0 
Heartbeat CPU 0 instructions: 50000003 cycles: 13981858 heartbeat IPC: 3.57693 cumulative IPC: 3.57606 (Simulation time: 0 hr 8 min 13 sec) 

Warmup complete CPU 0 instructions: 50000003 cycles: 13981858 (Simulation time: 0 hr 8 min 13 sec) 

Cycle: 20000000 FTQ IN: 58354396 FTQ occupancy: 20.0111 DECODE IN: 58354302 DECODE occupancy: 52.2764 ROB IN: 58354302 ROB occupancy: 315.389 ROB OUT: 58354140
Heartbeat_Variant_0 : 1365 0.333252 per_variant_size: 0 1365 0 0 0 0 0 0 0 
Heartbeat_Variant_1 : 2609 0.636963 per_variant_size: 0 463 2146 0 0 0 0 0 0 
Heartbeat_Variant_2 : 0 0 per_variant_size: 0 0 0 0 0 0 0 0 0 
Heartbeat_Variant_3 : 0 0 per_variant_size: 0 0 0 0 0 0 0 0 0 
Heartbeat_Variant_0_evicts 0 : 5604 1 : 2 2 : 0 3 : 0 
Heartbeat_Variant_1_evicts 0 : 2 1 : 0 2 : 0 3 : 0 
Heartbeat_Variant_2_evicts 0 : 0 1 : 0 2 : 0 3 : 0 
Heartbeat_Variant_3_evicts 0 : 0 1 : 0 2 : 0 3 : 0 
Heartbeat CPU 0 instructions: 60000001 cycles: 21189403 heartbeat IPC: 1.38743 cumulative IPC: 1.38743 (Simulation time: 0 hr 10 min 5 sec) 
Heartbeat_Variant_0 : 1366 0.333496 per_variant_size: 0 1366 0 0 0 0 0 0 0 
Heartbeat_Variant_1 : 2631 0.642334 per_variant_size: 0 513 2118 0 0 0 0 0 0 
Heartbeat_Variant_2 : 0 0 per_variant_size: 0 0 0 0 0 0 0 0 0 
Heartbeat_Variant_3 : 0 0 per_variant_size: 0 0 0 0 0 0 0 0 0 
Heartbeat_Variant_0_evicts 0 : 5647 1 : 171 2 : 0 3 : 0 
Heartbeat_Variant_1_evicts 0 : 172 1 : 0 2 : 0 3 : 0 
Heartbeat_Variant_2_evicts 0 : 0 1 : 0 2 : 0 3 : 0 
Heartbeat_Variant_3_evicts 0 : 0 1 : 0 2 : 0 3 : 0 
Heartbeat CPU 0 instructions: 70000002 cycles: 28530723 heartbeat IPC: 1.36215 cumulative IPC: 1.37468 (Simulation time: 0 hr 11 min 56 sec) 
Cycle: 30000000 FTQ IN: 13700423 FTQ occupancy: 13.1624 DECODE IN: 13700517 DECODE occupancy: 34.1615 ROB IN: 13700517 ROB occupancy: 236.312 ROB OUT: 13700407
Heartbeat_Variant_0 : 1368 0.333984 per_variant_size: 0 1368 0 0 0 0 0 0 0 
Heartbeat_Variant_1 : 2631 0.642334 per_variant_size: 0 513 2118 0 0 0 0 0 0 
Heartbeat_Variant_2 : 0 0 per_variant_size: 0 0 0 0 0 0 0 0 0 
Heartbeat_Variant_3 : 0 0 per_variant_size: 0 0 0 0 0 0 0 0 0 
Heartbeat_Variant_0_evicts 0 : 5630 1 : 22 2 : 0 3 : 0 
Heartbeat_Variant_1_evicts 0 : 22 1 : 0 2 : 0 3 : 0 
Heartbeat_Variant_2_evicts 0 : 0 1 : 0 2 : 0 3 : 0 
Heartbeat_Variant_3_evicts 0 : 0 1 : 0 2 : 0 3 : 0 
Heartbeat CPU 0 instructions: 80000003 cycles: 35710823 heartbeat IPC: 1.39274 cumulative IPC: 1.38065 (Simulation time: 0 hr 13 min 48 sec) 
Cycle: 40000000 FTQ IN: 13773358 FTQ occupancy: 13.2677 DECODE IN: 13773263 DECODE occupancy: 34.4289 ROB IN: 13773203 ROB occupancy: 237.328 ROB OUT: 13773272
Heartbeat_Variant_0 : 1365 0.333252 per_variant_size: 0 1365 0 0 0 0 0 0 0 
Heartbeat_Variant_1 : 2646 0.645996 per_variant_size: 0 506 2140 0 0 0 0 0 0 
Heartbeat_Variant_2 : 0 0 per_variant_size: 0 0 0 0 0 0 0 0 0 
Heartbeat_Variant_3 : 0 0 per_variant_size: 0 0 0 0 0 0 0 0 0 
Heartbeat_Variant_0_evicts 0 : 5667 1 : 200 2 : 0 3 : 0 
Heartbeat_Variant_1_evicts 0 : 205 1 : 0 2 : 0 3 : 0 
Heartbeat_Variant_2_evicts 0 : 0 1 : 0 2 : 0 3 : 0 
Heartbeat_Variant_3_evicts 0 : 0 1 : 0 2 : 0 3 : 0 
Heartbeat CPU 0 instructions: 90000002 cycles: 43041561 heartbeat IPC: 1.36412 cumulative IPC: 1.37648 (Simulation time: 0 hr 15 min 37 sec) 
Cycle: 50000000 FTQ IN: 13844115 FTQ occupancy: 13.0753 DECODE IN: 13844094 DECODE occupancy: 34.169 ROB IN: 13844094 ROB occupancy: 236.998 ROB OUT: 13843945
Heartbeat_Variant_0 : 1377 0.336182 per_variant_size: 0 1377 0 0 0 0 0 0 0 
Heartbeat_Variant_1 : 2641 0.644775 per_variant_size: 0 481 2160 0 0 0 0 0 0 
Heartbeat_Variant_2 : 0 0 per_variant_size: 0 0 0 0 0 0 0 0 0 
Heartbeat_Variant_3 : 0 0 per_variant_size: 0 0 0 0 0 0 0 0 0 
Heartbeat_Variant_0_evicts 0 : 5725 1 : 86 2 : 0 3 : 0 
Heartbeat_Variant_1_evicts 0 : 76 1 : 0 2 : 0 3 : 0 
Heartbeat_Variant_2_evicts 0 : 0 1 : 0 2 : 0 3 : 0 
Heartbeat_Variant_3_evicts 0 : 0 1 : 0 2 : 0 3 : 0 
Heartbeat CPU 0 instructions: 100000000 cycles: 50234544 heartbeat IPC: 1.39024 cumulative IPC: 1.37921 (Simulation time: 0 hr 17 min 25 sec) 
Finished CPU 0 instructions: 50000001 cycles: 36252687 cumulative IPC: 1.37921 (Simulation time: 0 hr 17 min 25 sec) 

ChampSim completed all CPUs

Region of Interest Statistics

CPU 0 cumulative IPC: 1.37921 instructions: 50000001 cycles: 36252687
 Fetch stage stalled: 53.4034  Sim cycles: 36252687 fetch stall cycle: 19360161
 Empty decode stage: 34.2287  Sim cycles: 36252687 fetch stall cycle: 12408833
ITLB TOTAL     ACCESS:    5873424  HIT:    5381234  MISS:     492190  HIT %:      91.62  MISS %:    8.37995   MPKI: 9.8438
ITLB LOAD TRANSLATION INSTRUCTION	ACCESS:    5745518  HIT:    5253328  MISS:     492190  HIT %:    91.4335  MISS %:     8.5665  MPKI: 9.8438
ITLB TRANSLATION FROM L1D PREFETCHER INSTRUCTION	ACCESS:     127906  HIT:     127906  MISS:          0  HIT %:        100  MISS %:          0  MPKI: 0

ITLB AVERAGE MISS LATENCY: 9.04864 cycles
ITLB RQ	ACCESS:    8009537	FORWARD:          0	MERGED:    1694149	TO_CACHE:    6315388

DTLB TOTAL     ACCESS:    8971620  HIT:    8502938  MISS:     468682  HIT %:    94.7759  MISS %:    5.22405   MPKI: 9.37364
DTLB LOAD TRANSLATION DATA	ACCESS:    8971620  HIT:    8502938  MISS:     468682  HIT %:    94.7759  MISS %:    5.22405  MPKI: 9.37364

DTLB AVERAGE MISS LATENCY: 9.33168 cycles
DTLB RQ	ACCESS:   13336840	FORWARD:          0	MERGED:    4328385	TO_CACHE:    9008455

STLB TOTAL     ACCESS:    1210565  HIT:    1208600  MISS:       1965  HIT %:    99.8377  MISS %:   0.162321   MPKI: 0.0393
STLB LOAD TRANSLATION INSTRUCTION	ACCESS:     492190  HIT:     491963  MISS:        227  HIT %:    99.9539  MISS %:  0.0461204  MPKI: 0.00454
STLB LOAD TRANSLATION DATA	ACCESS:     468680  HIT:     466966  MISS:       1714  HIT %:    99.6343  MISS %:   0.365708  MPKI: 0.03428
STLB TRANSLATION FROM L1D PREFETCHER DATA	ACCESS:     249695  HIT:     249671  MISS:         24  HIT %:    99.9904  MISS %: 0.00961173  MPKI: 0.00048

STLB AVERAGE MISS LATENCY: 75.8575 cycles
STLB RQ	ACCESS:    1331266	FORWARD:          0	MERGED:     120663	TO_CACHE:    1210603

STLB Hit, L1D data hit: 0
STLB Hit, L2C data hit: 0
STLB Hit, LLC data hit: 0
STLB Hit, LLC data miss: 0
STLB STLB hints to L2: 0
L1D TOTAL     ACCESS:   13093808  HIT:   11979555  MISS:    1114253  HIT %:    91.4902  MISS %:    8.50977   MPKI: 22.2851
L1D LOAD DATA	ACCESS:    6558653  HIT:    5824584  MISS:     734069  HIT %:    88.8076  MISS %:    11.1924  MPKI: 14.6814
L1D RFO DATA	ACCESS:    6204537  HIT:    5919056  MISS:     285481  HIT %:    95.3988  MISS %:    4.60117  MPKI: 5.70962
L1D PREFETCH DATA	ACCESS:     330618  HIT:     235915  MISS:      94703  HIT %:    71.3558  MISS %:    28.6442  MPKI: 1.89406

L1D PREFETCH  REQUESTED:     741194  ISSUED:     741194  USEFUL:      33367  USELESS:      68754
L1D USEFUL LOAD PREFETCHES:      33367 PREFETCH ISSUED TO LOWER LEVEL:     102159  ACCURACY: 32.6618
 TIMELY PREFETCHES:      33367 LATE PREFETCHES: 7403 DROPPED PREFETCHES: 7
L1D AVERAGE MISS LATENCY: 212801 cycles
L1D RQ	ACCESS:   10699311	FORWARD:          0	MERGED:    3942420	TO_CACHE:    6593702
L1D WQ	ACCESS:    6940768	FORWARD:     163595	MERGED:     197630	TO_CACHE:    6743138
L1D PQ	ACCESS:     370800	FORWARD:          0	MERGED:          0	TO_CACHE:     370394

L1D UNIQUE REGIONS ACCESSED: 0
L1D REGIONS CONFLICTS: 0
L1D Cross Page Prefetch Requests: 6916
L1D Same Page Prefetch Requests: 746874
L1D ROI Sum of L1D PQ occupancy: 4704479
L1D PREFETCHES PUSHED FROM L2C: 0
L1I TOTAL     ACCESS:    7189714  HIT:    4434258  MISS:    2755456  HIT %:     61.675  MISS %:     38.325   MPKI: 55.1091
L1I LOAD INSTRUCTION	ACCESS:    6510007  HIT:    3754551  MISS:    2755456  HIT %:    57.6735  MISS %:    42.3265  MPKI: 55.1091
L1I PREFETCH INSTRUCTION	ACCESS:     679707  HIT:     679707  MISS:          0  HIT %:        100  MISS %:          0  MPKI: 0

L1I PREFETCH  REQUESTED:    1611860  ISSUED:    1611860  USEFUL:          0  USELESS:          0
L1I USEFUL LOAD PREFETCHES:          0 PREFETCH ISSUED TO LOWER LEVEL:          0  ACCURACY: -nan
 TIMELY PREFETCHES:          0 LATE PREFETCHES: 0 DROPPED PREFETCHES: 0
L1I AVERAGE MISS LATENCY: 17.1709 cycles
L1I RQ	ACCESS:    9508272	FORWARD:          0	MERGED:    2680918	TO_CACHE:    6827354
L1I PQ	ACCESS:    1611860	FORWARD:          0	MERGED:     429677	TO_CACHE:    1182183

L1BTB TOTAL     ACCESS:    5672743  HIT:    2052157  MISS:    3620586  HIT %:    36.1757  MISS %:    63.8243   MPKI: 72.4117
L1BTB BRANCH_DIRECT_JUMP	ACCESS:     548750 HIT:     145892 MISS:     402858 AVERAGE STALL: 47.4168 AVERAGE FETCH STALL: 14.5135 AVERAGE FETCH QUEUE STALL: 14.2283 AVERAGE DECODE STALL: 17.7476 AVERAGE EXECUTE STALL: 2.33829e+15
L1BTB BRANCH_INDIRECT	ACCESS:     183452 HIT:      66470 MISS:     116982 AVERAGE STALL: 105.26 AVERAGE FETCH STALL: 11.5038 AVERAGE FETCH QUEUE STALL: 14.5625 AVERAGE DECODE STALL: 12.2252 AVERAGE EXECUTE STALL: 66.0068
L1BTB BRANCH_CONDITIONAL	ACCESS:    2713881 HIT:    1423783 MISS:    1290098 AVERAGE STALL: 56.8383 AVERAGE FETCH STALL: 21.3271 AVERAGE FETCH QUEUE STALL: 22.4769 AVERAGE DECODE STALL: 12.4321 AVERAGE EXECUTE STALL: 2.69453e+15
L1BTB BRANCH_DIRECT_CALL	ACCESS:     942473 HIT:     105019 MISS:     837454 AVERAGE STALL: 61.7948 AVERAGE FETCH STALL: 19.6086 AVERAGE FETCH QUEUE STALL: 25.2304 AVERAGE DECODE STALL: 16.1199 AVERAGE EXECUTE STALL: 1.16457e+16
L1BTB BRANCH_INDIRECT_CALL	ACCESS:     170856 HIT:      20791 MISS:     150065 AVERAGE STALL: 129.033 AVERAGE FETCH STALL: 12.8173 AVERAGE FETCH QUEUE STALL: 11.7829 AVERAGE DECODE STALL: 9.72026 AVERAGE EXECUTE STALL: 94.2256
L1BTB BRANCH_RETURN	ACCESS:    1113331 HIT:     290202 MISS:     823129 AVERAGE STALL: 47.0766 AVERAGE FETCH STALL: 16.3539 AVERAGE FETCH QUEUE STALL: 5.57326 AVERAGE DECODE STALL: 5.99772 AVERAGE EXECUTE STALL: 4.34368e+14
L1BTB BRANCH_OTHER ACCESS:          0 HIT:          0 MISS:          0 AVERAGE STALL: -nan AVERAGE FETCH STALL: -nan AVERAGE FETCH QUEUE STALL: -nan AVERAGE DECODE STALL: -nan AVERAGE EXECUTE STALL: -nan
L1BTB TOTAL ROB OCCUPANCY AT BTB MISS: 2.61869

L2BTB TOTAL     ACCESS:    3595151  HIT:    3529022  MISS:      66129  HIT %:    98.1606  MISS %:    1.83939   MPKI: 1.32258
L2BTB BRANCH_DIRECT_JUMP	ACCESS:     398657 HIT:     394964 MISS:       3693 AVERAGE STALL: 47.4168 AVERAGE FETCH STALL: 14.5135 AVERAGE FETCH QUEUE STALL: 14.2283 AVERAGE DECODE STALL: 17.7476 AVERAGE EXECUTE STALL: 2.33829e+15
L2BTB BRANCH_INDIRECT	ACCESS:     106726 HIT:     104048 MISS:       2678 AVERAGE STALL: 105.26 AVERAGE FETCH STALL: 11.5038 AVERAGE FETCH QUEUE STALL: 14.5625 AVERAGE DECODE STALL: 12.2252 AVERAGE EXECUTE STALL: 66.0068
L2BTB BRANCH_CONDITIONAL	ACCESS:    1290098 HIT:    1283219 MISS:       6879 AVERAGE STALL: 56.8383 AVERAGE FETCH STALL: 21.3271 AVERAGE FETCH QUEUE STALL: 22.4769 AVERAGE DECODE STALL: 12.4321 AVERAGE EXECUTE STALL: 2.69453e+15
L2BTB BRANCH_DIRECT_CALL	ACCESS:     837454 HIT:     835855 MISS:       1599 AVERAGE STALL: 61.7948 AVERAGE FETCH STALL: 19.6086 AVERAGE FETCH QUEUE STALL: 25.2304 AVERAGE DECODE STALL: 16.1199 AVERAGE EXECUTE STALL: 1.16457e+16
L2BTB BRANCH_INDIRECT_CALL	ACCESS:     140482 HIT:     130284 MISS:      10198 AVERAGE STALL: 129.033 AVERAGE FETCH STALL: 12.8173 AVERAGE FETCH QUEUE STALL: 11.7829 AVERAGE DECODE STALL: 9.72026 AVERAGE EXECUTE STALL: 94.2256
L2BTB BRANCH_RETURN	ACCESS:     821734 HIT:     780652 MISS:      41082 AVERAGE STALL: 47.0766 AVERAGE FETCH STALL: 16.3539 AVERAGE FETCH QUEUE STALL: 5.57326 AVERAGE DECODE STALL: 5.99772 AVERAGE EXECUTE STALL: 4.34368e+14
L2BTB BRANCH_OTHER ACCESS:          0 HIT:          0 MISS:          0 AVERAGE STALL: -nan AVERAGE FETCH STALL: -nan AVERAGE FETCH QUEUE STALL: -nan AVERAGE DECODE STALL: -nan AVERAGE EXECUTE STALL: -nan
L2BTB TOTAL ROB OCCUPANCY AT BTB MISS: 143.374

L2C TOTAL     ACCESS:    4479351  HIT:    4000512  MISS:     478839  HIT %:    89.3101  MISS %:    10.6899   MPKI: 9.57678
L2C LOAD INSTRUCTION	ACCESS:    2755456  HIT:    2499085  MISS:     256371  HIT %:    90.6959  MISS %:    9.30412  MPKI: 5.12742
L2C LOAD TRANSLATION INSTRUCTION	ACCESS:        243  HIT:         66  MISS:        177  HIT %:    27.1605  MISS %:    72.8395  MPKI: 0.00354
L2C LOAD DATA	ACCESS:     726649  HIT:     644644  MISS:      82005  HIT %:    88.7146  MISS %:    11.2854  MPKI: 1.6401
L2C RFO DATA	ACCESS:     285415  HIT:     235456  MISS:      49959  HIT %:     82.496  MISS %:     17.504  MPKI: 0.99918
L2C PREFETCH DATA	ACCESS:     189502  HIT:     115068  MISS:      74434  HIT %:    60.7213  MISS %:    39.2787  MPKI: 1.48868
L2C WRITEBACK DATA	ACCESS:     520288  HIT:     505760  MISS:      14528  HIT %:    97.2077  MISS %:     2.7923  MPKI: 0.29056
L2C LOAD TRANSLATION DATA	ACCESS:       1754  HIT:        400  MISS:       1354  HIT %:     22.805  MISS %:     77.195  MPKI: 0.02708
L2C TRANSLATION FROM L1D PREFETCHER DATA	ACCESS:         44  HIT:         33  MISS:         11  HIT %:         75  MISS %:         25  MPKI: 0.00022

L2C PREFETCH  REQUESTED:      95717  ISSUED:      95717  USEFUL:       7792  USELESS:      67095
L2C USEFUL LOAD PREFETCHES:       7792 PREFETCH ISSUED TO LOWER LEVEL:      74777  ACCURACY: 10.4203
 TIMELY PREFETCHES:       7792 LATE PREFETCHES: 343 DROPPED PREFETCHES: 0
L2C AVERAGE MISS LATENCY: 38.02 cycles
L2C RQ	ACCESS:    3769591	FORWARD:          0	MERGED:          0	TO_CACHE:    3769561
L2C WQ	ACCESS:     520288	FORWARD:         30	MERGED:          0	TO_CACHE:     520288
L2C PQ	ACCESS:     197876	FORWARD:          0	MERGED:       3816	TO_CACHE:     194060

L2C Dense regions hint from L2: 0
PSCL5 TOTAL     ACCESS:       3946  HIT:       1973  MISS:       1973  HIT %:         50  MISS %:         50   MPKI: 0.03946
PSCL5 LOAD TRANSLATION INSTRUCTION	ACCESS:       3858  HIT:       1929  MISS:       1929  HIT %:         50  MISS %:         50  MPKI: 0.03858
PSCL5 TRANSLATION FROM L1D PREFETCHER INSTRUCTION	ACCESS:         88  HIT:         44  MISS:         44  HIT %:         50  MISS %:         50  MPKI: 0.00088


PSCL4 TOTAL     ACCESS:       3850  HIT:       1922  MISS:       1928  HIT %:    49.9221  MISS %:    50.0779   MPKI: 0.03856
PSCL4 LOAD TRANSLATION INSTRUCTION	ACCESS:       2378  HIT:       1878  MISS:        500  HIT %:    78.9739  MISS %:    21.0261  MPKI: 0.01
PSCL4 TRANSLATION FROM L1D PREFETCHER INSTRUCTION	ACCESS:         55  HIT:         44  MISS:         11  HIT %:         80  MISS %:         20  MPKI: 0.00022
PSCL4 LOAD TRANSLATION DATA	ACCESS:       1384  HIT:          0  MISS:       1384  HIT %:          0  MISS %:        100  MPKI: 0.02768
PSCL4 TRANSLATION FROM L1D PREFETCHER DATA	ACCESS:         33  HIT:          0  MISS:         33  HIT %:          0  MISS %:        100  MPKI: 0.00066


PSCL3 TOTAL     ACCESS:       3912  HIT:       1953  MISS:       1959  HIT %:    49.9233  MISS %:    50.0767   MPKI: 0.03918
PSCL3 LOAD TRANSLATION INSTRUCTION	ACCESS:       2409  HIT:       1909  MISS:        500  HIT %:    79.2445  MISS %:    20.7555  MPKI: 0.01
PSCL3 TRANSLATION FROM L1D PREFETCHER INSTRUCTION	ACCESS:         55  HIT:         44  MISS:         11  HIT %:         80  MISS %:         20  MPKI: 0.00022
PSCL3 LOAD TRANSLATION DATA	ACCESS:       1415  HIT:          0  MISS:       1415  HIT %:          0  MISS %:        100  MPKI: 0.0283
PSCL3 TRANSLATION FROM L1D PREFETCHER DATA	ACCESS:         33  HIT:          0  MISS:         33  HIT %:          0  MISS %:        100  MPKI: 0.00066


PSCL2 TOTAL     ACCESS:       3890  HIT:       1917  MISS:       1973  HIT %:    49.2802  MISS %:    50.7198   MPKI: 0.03946
PSCL2 LOAD TRANSLATION INSTRUCTION	ACCESS:       2102  HIT:       1873  MISS:        229  HIT %:    89.1056  MISS %:    10.8944  MPKI: 0.00458
PSCL2 TRANSLATION FROM L1D PREFETCHER INSTRUCTION	ACCESS:         44  HIT:         44  MISS:          0  HIT %:        100  MISS %:          0  MPKI: 0
PSCL2 LOAD TRANSLATION DATA	ACCESS:       1700  HIT:          0  MISS:       1700  HIT %:          0  MISS %:        100  MPKI: 0.034
PSCL2 TRANSLATION FROM L1D PREFETCHER DATA	ACCESS:         44  HIT:          0  MISS:         44  HIT %:          0  MISS %:        100  MPKI: 0.00088


LLC TOTAL     ACCESS:     538881  HIT:     511242  MISS:      27639  HIT %:     94.871  MISS %:    5.12896   MPKI: 0.55278
LLC LOAD INSTRUCTION	ACCESS:     256371  HIT:     255504  MISS:        867  HIT %:    99.6618  MISS %:   0.338182  MPKI: 0.01734
LLC LOAD TRANSLATION INSTRUCTION	ACCESS:        177  HIT:        151  MISS:         26  HIT %:    85.3107  MISS %:    14.6893  MPKI: 0.00052
LLC LOAD DATA	ACCESS:      81682  HIT:      78245  MISS:       3437  HIT %:    95.7922  MISS %:    4.20778  MPKI: 0.06874
LLC RFO DATA	ACCESS:      49929  HIT:      36659  MISS:      13270  HIT %:    73.4223  MISS %:    26.5777  MPKI: 0.2654
LLC PREFETCH DATA	ACCESS:      74777  HIT:      65172  MISS:       9605  HIT %:    87.1551  MISS %:    12.8449  MPKI: 0.1921
LLC WRITEBACK DATA	ACCESS:      74580  HIT:      74229  MISS:        351  HIT %:    99.5294  MISS %:   0.470636  MPKI: 0.00702
LLC LOAD TRANSLATION DATA	ACCESS:       1354  HIT:       1271  MISS:         83  HIT %:      93.87  MISS %:    6.12999  MPKI: 0.00166
LLC TRANSLATION FROM L1D PREFETCHER DATA	ACCESS:         11  HIT:         11  MISS:          0  HIT %:        100  MISS %:          0  MPKI: 0

LLC AVERAGE MISS LATENCY: 153.375 cycles
LLC RQ	ACCESS:     389534	FORWARD:          0	MERGED:          0	TO_CACHE:     389524
LLC WQ	ACCESS:      74580	FORWARD:         10	MERGED:          0	TO_CACHE:      74580
LLC PQ	ACCESS:      74777	FORWARD:          0	MERGED:          0	TO_CACHE:      74777

LLC Dense regions hint to LLC: 0

RAW hits: 1935004
Loads Generated: 12634315
Loads sent to L1D: 10699311
Stores Generated: 6940765
Stores sent to L1D: 6940768
Major fault: 0 Minor fault: 2515
Allocated PAGES: 2515

stream: 
stream:times selected: 1184864
stream:pref_filled: 121666
stream:pref_useful: 24110
stream:pref_late: 6820
stream:misses: 7803
stream:misses_by_poll: 0

CS: 
CS:times selected: 176060
CS:pref_filled: 59110
CS:pref_useful: 35700
CS:pref_late: 6467
CS:misses: 15342
CS:misses_by_poll: 10

CPLX: 
CPLX:times selected: 1007650
CPLX:pref_filled: 19633
CPLX:pref_useful: 4655
CPLX:pref_late: 3299
CPLX:misses: 93847
CPLX:misses_by_poll: 0

NL_L1: 
NL:times selected: 21065
NL:pref_filled: 785
NL:pref_useful: 351
NL:pref_late: 235
NL:misses: 1766
NL:misses_by_poll: 0

total selections: 2389639
total_filled: 94703
total_useful: 33367
total_late: 18099
total_polluted: 10
total_misses_after_warmup: 769118
conflicts: 5523866

test: 116354

DRAM Statistics
 CHANNEL 0
 RQ ROW_BUFFER_HIT:      10293  ROW_BUFFER_MISS:      16986
 DBUS_CONGESTED:          9
 WQ ROW_BUFFER_HIT:       1361  ROW_BUFFER_MISS:      11548  FULL:          0

 AVG_CONGESTED_CYCLE: 4

CPU 0 Branch Prediction Accuracy: 99.8254% MPKI: 0.31926 Average ROB Occupancy at Mispredict: 188.225
Branch types
NOT_BRANCH: 40855165 81.7103%
BRANCH_DIRECT_JUMP: 548750 1.0975%
BRANCH_INDIRECT: 183452 0.366904%
BRANCH_CONDITIONAL: 6185931 12.3719%
BRANCH_DIRECT_CALL: 942473 1.88495%
BRANCH_INDIRECT_CALL: 170856 0.341712%
BRANCH_RETURN: 1113331 2.22666%
BRANCH_OTHER: 0 0%

DRAM PAGES: 1048576
Allocated PAGES: 2515
Average_ROB_Occupancy: 238.258
Average_Decode_Occupancy: 34.2222
Average_FTQ_Occupancy: 13.1452
Indirect max targets: 14 Average targets: 1.14915
Branch_type:  BRANCH_DIRECT_JUMP:  Count Percentage: 4.42255 6.15839 4.20873 3.01511 2.32289 12.5295 7.18705 60.1558 
Branch_type:  BRANCH_INDIRECT:  Count Percentage: 13.7433 3.46104 2.53886 0 0 33.0694 15.4852 31.7023 
Branch_type:  BRANCH_CONDITIONAL:  Count Percentage: 25.1876 3.41753 1.45266 5.34155 1.13911 9.50299 3.34501 50.6136 
Branch_type:  BRANCH_DIRECT_CALL:  Count Percentage: 0.388724 1.77073 0.74018 2.44447 1.92933 5.32811 2.48237 84.9161 
Branch_type:  BRANCH_INDIRECT_CALL:  Count Percentage: 9.56045 0 2.99694 0 0 4.05017 0.998104 82.3943 
Branch_type:  BRANCH_RETURN:  Count Percentage: 9.17856 2.01282 0.722867 5.59159 1.2603 11.6273 3.14812 66.4585 
Branch_type:  BRANCH_DIRECT_JUMP:  Total Count: 48441 67454 46099 33025 25443 137238 78721 658897 
Branch_type:  BRANCH_INDIRECT:  Total Count: 50283 12663 9289 0 0 120992 56656 115990 
Branch_type:  BRANCH_CONDITIONAL:  Total Count: 3112869 422364 179530 660149 140780 1174451 413401 6255203 
Branch_type:  BRANCH_DIRECT_CALL:  Total Count: 7343 33449 13982 46176 36445 100648 46892 1604065 
Branch_type:  BRANCH_INDIRECT_CALL:  Total Count: 32778 0 10275 0 0 13886 3422 282489 
Branch_type:  BRANCH_RETURN:  Total Count: 204924 44939 16139 124840 28138 259595 70286 1483776 
Number of unique branch instructions: 9887
Upper 32 bits: 
aaaa
ffff
ffff0000
Unique upper 32 bits: 3
Unique upper 36 bits: 3
Unique upper 40 bits: 5
Unique upper 44 bits: 32
Unique upper 48 bits: 153
Variant_0 : 1377 0.336182
Variant_1 : 2641 0.644775
Variant_2 : 0 0
Variant_3 : 0 0
Offset_3 4079
Offset_4 244
Offset_5 449
Offset_6 500
Offset_7 579
Offset_8 515
Offset_9 465
Offset_10 377
Offset_11 318
Offset_12 283
Offset_13 203
Offset_14 228
Offset_15 189
Offset_16 219
Offset_17 144
Offset_18 126
Offset_19 235
Offset_20 139
Offset_21 235
Offset_22 389
Offset_23 241
Offset_24 331
Offset_25 88
Offset_47 82
decode_dispatch_called: 25550559 70.4791
Dispatch_width: 0 13750236 53.8158 37.9289
Dispatch_width: 1 948796 3.71341 2.61717
Dispatch_width: 2 823373 3.22252 2.27121
Dispatch_width: 3 486463 1.90392 1.34187
Dispatch_width: 4 5578461 21.833 15.3877
Dispatch_width: 5 148154 0.579846 0.40867
Dispatch_width: 6 3815076 14.9315 10.5236
Empty_decode_cycles: 10702128 29.5209
ROB_full_cycles: 8865811 24.4556
Starvation_cycles_per_kilo_instr: 235.718
Starvation_cycles_per_kilo_instr_3: 178.452
Starvation_cycles_per_kilo_instr_0: 155.866
Branch_type_1  (3,1)  (4,7)  (5,36)  (6,69)  (7,115)  (8,127)  (9,124)  (10,98)  (11,72)  (12,51)  (13,5)  (14,2)  (15,3)  (16,4)  (18,1)  (19,4)  (20,2)  (21,1)  (22,3)  (23,2)  (24,10)  (25,12) 
Branch_type_2  (3,1)  (5,1)  (8,3)  (9,3)  (12,1)  (13,1)  (14,1)  (16,3)  (17,2)  (20,2)  (21,2)  (23,5)  (24,1)  (47,38) 
Branch_type_3  (3,4077)  (4,237)  (5,408)  (6,415)  (7,433)  (8,325)  (9,255)  (10,152)  (11,131)  (12,58)  (13,4) 
Branch_type_4  (6,4)  (7,8)  (8,26)  (9,51)  (10,60)  (11,59)  (12,95)  (13,88)  (14,101)  (15,89)  (16,98)  (17,64)  (18,57)  (19,114)  (20,72)  (21,124)  (22,207)  (23,136)  (24,193)  (25,72) 
Branch_type_5  (8,2)  (9,1)  (10,3)  (11,5)  (12,3)  (13,14)  (14,16)  (15,11)  (16,20)  (17,11)  (18,16)  (19,12)  (20,10)  (21,13)  (22,42)  (23,26)  (24,36) 
Branch_type_6  (5,4)  (6,12)  (7,23)  (8,32)  (9,31)  (10,64)  (11,51)  (12,75)  (13,91)  (14,108)  (15,86)  (16,94)  (17,67)  (18,52)  (19,105)  (20,53)  (21,95)  (22,137)  (23,72)  (24,91)  (25,4)  (47,44) 
Unique trigger count: 
Variant_0_evicts_0 : 0
Variant_0_evicts_1 : 0
Variant_0_evicts_2 : 0
Variant_0_evicts_3 : 0
Variant_1_evicts_0 : 0
Variant_1_evicts_1 : 0
Variant_1_evicts_2 : 0
Variant_1_evicts_3 : 0
Variant_2_evicts_0 : 0
Variant_2_evicts_1 : 0
Variant_2_evicts_2 : 0
Variant_2_evicts_3 : 0
Variant_3_evicts_0 : 0
Variant_3_evicts_1 : 0
Variant_3_evicts_2 : 0
Variant_3_evicts_3 : 0
BTB PER SET UNIQUE ADDR: 13 12 7 12 9 10 7 8 8 11 7 8 10 7 11 6 9 10 6 10 9 7 12 12 10 9 8 12 10 11 12 12 12 8 9 11 8 11 7 7 12 10 8 11 7 8 8 9 9 10 9 8 10 13 9 6 9 8 9 13 12 9 7 11 10 8 11 5 8 9 11 11 11 7 9 8 8 7 9 8 9 8 7 12 11 10 11 7 7 17 9 6 9 7 6 12 10 8 11 8 14 9 8 10 7 7 7 10 7 8 7 12 11 7 8 7 6 8 7 10 8 8 6 8 8 8 6 10 14 8 9 10 8 12 10 12 9 11 8 14 6 12 13 8 8 11 8 7 6 10 9 9 8 12 10 10 11 10 14 10 10 12 10 10 8 12 11 9 12 8 8 8 8 10 7 8 9 8 9 6 6 8 11 11 10 10 3 9 9 12 10 14 8 8 13 8 11 10 7 7 7 12 9 8 8 10 11 7 9 10 7 9 10 13 9 6 10 12 9 9 8 13 8 9 6 7 12 9 7 9 10 6 10 8 8 10 10 9 10 6 11 10 12 14 11 10 12 6 9 12 11 11 9 6 8 13 7 10 7 9 11 7 6 10 11 8 8 8 6 8 8 10 10 5 6 5 7 10 11 10 11 10 7 6 8 10 8 12 16 10 13 10 9 13 7 11 8 11 7 7 8 9 8 12 11 9 8 10 12 10 9 13 5 13 9 6 7 7 8 11 10 10 7 10 11 12 6 9 10 8 7 13 11 11 9 10 7 13 6 15 9 10 6 8 10 8 10 9 9 10 8 12 9 13 10 10 8 10 7 6 10 10 7 8 9 9 8 8 8 10 10 8 11 10 10 9 9 11 12 8 10 8 7 11 7 7 11 10 10 9 8 9 9 12 5 9 9 9 13 9 7 9 9 10 8 7 9 10 7 6 11 9 9 7 10 9 8 9 11 12 8 11 7 10 13 9 11 9 5 10 12 8 11 7 11 15 12 10 8 8 8 11 9 9 15 7 9 12 13 11 8 10 12 9 8 11 13 9 8 15 9 10 9 11 11 12 10 9 7 9 12 11 11 15 7 12 9 13 7 12 8 6 10 9 9 10 11 10 14 11 9 10 10 8 8 8 9 14 8 10 8 11 9 12 5 10 4 8 10 6 11 7 11 10 10 10 10 11 8 7 10 8 11 10 11 14 15 9 7 13 10 9 12 8 8 10 8 15 9 12 9 7 10 10 12 11 10 11 7 7 9 13 13 11 7 12 10 9 12 9 8 12 7 12 10 11 9 9 9 12 13 11 9 13 10 8 13 13 8 5 9 8 6 9 9 7 8 10 7 9 7 7 13 10 11 8 8 11 11 10 10 9 6 5 7 13 14 10 6 9 9 8 9 8 5 10 9 9 9 10 13 7 8 8 12 10 11 9 8 10 8 18 11 11 8 8 14 7 7 12 10 9 10 14 7 12 9 12 15 8 8 9 9 13 13 11 12 18 9 8 13 9 10 14 9 10 10 12 9 12 8 10 11 14 12 12 12 9 12 12 9 17 12 12 17 8 6 11 13 8 11 11 8 9 11 9 12 11 9 11 6 13 11 9 9 15 11 9 5 6 7 10 8 7 6 7 11 9 6 12 9 8 9 10 8 7 9 6 10 10 6 5 8 8 10 9 8 9 12 12 12 9 9 8 11 13 9 9 9 5 14 10 9 12 8 10 15 9 10 7 14 7 9 7 9 12 9 10 10 10 13 11 8 6 13 8 10 13 8 11 5 10 9 8 11 10 7 11 12 9 6 8 15 10 9 11 8 7 9 11 12 9 11 13 11 11 12 7 10 7 8 16 11 17 8 8 9 11 6 11 9 14 6 11 10 9 9 9 9 12 9 9 10 7 8 8 11 9 6 9 8 13 10 12 10 10 9 11 7 10 7 8 7 15 14 12 9 8 11 12 10 8 6 7 8 10 10 7 9 8 8 11 9 7 15 9 10 8 8 7 11 7 9 10 11 9 12 11 13 10 10 8 8 9 13 13 11 11 7 9 12 12 10 10 8 10 10 9 7 11 7 8 6 12 10 8 12 6 12 9 11 5 8 10 11 10 7 9 11 9 13 13 10 9 8 17 7 11 13 16 8 11 10 9 7 8 9 15 7 9 8 9 7 9 8 12 8 9 8 9 9 9 6 12 10 9 10 6 10 10 10 10 9 12 13 10 9 11 11 15 8 8 10 11 6 16 15 9 11 10 13 9 9 12 11 8 7 13 13 12 10 12 8 8 14 13 8 11 7 10 9 7 9 8 7 9 4 7 5 9 5 11 10 6 
BTB PER SET COUNT: 602 17 1963 19 9 16 8 8 1482 11 9 500 13 147 13 6 1185 10 8 11 10 619 727 91 18 10 9 17 12 232 419 16 16 10 19 408 8 11 8 9 17 26 8 1486 1474 11 10 10 178 498 11 8 11 16 10 367 12 10 16 17 14 11 496 15 16 9 16 5 10 12 14 14 16 7 12 9 13 7 12 10 49 12 9 25 11 67 13 9 9 19 9 799 500 8 6 13 500 986 18 7781 20 11 8 10 3327 8 9 12 7 2937 8 20 14 7 9 9 9 11 7 381 10 11 11 9 10 144 6 11 16 986 10 11 13 19 11 16 346 14 10 16 6 14 20 9 13 208 1476 915 7 125 12 287 985 13 13 11 992 12 16 10 12 15 19 10 89 21 13 10 12 368 10 11 8 14 7 9 20 10 181 984 6 8 1922 12 11 10 4 14 10 781 11 15 9 9 14 8 14 987 9 7 10 15 826 12 13 12 13 407 11 1483 9 16 16 16 10 1060 10 21 2928 10 10 17 11 9 9 24 14 12 749 9 11 8 12 10 8 11 14 313 1085 9 13 10 20 179 13 194 16 7 10 20 14 12 9 8 9 17 7 18 9 13 13 10 7 503 11 11 8 8 1963 13 11 13 621 8 6 5 7 14 13 12 19 13 7 6 10 11 8 976 20 11 14 10 9 17 10 12 8 13 7 27 8 10 8 14 14 14 12 12 14 23 11 21 5 13 1473 9 7 10 10 22 11 4902 9 12 11 253 449 15 15 11 9 19 16 14 12 13 11 21 7 17 9 12 6 15 122 8 11 13 10 87 13 134 10 16 12 11 11 15 497 6 12 11 7 9 9 15 8 8 16 12 13 9 15 1184 985 9 11 13 14 1427 13 10 8 17 7 8 910 16 11 367 8 9 12 12 5 15 11 14 156 12 7 9 20 12 9 7 11 98 7 6 15 10 10 11 11 10 8 10 654 12 8 12 7 13 23 9 729 9 5 1232 16 9 13 13 11 23 15 784 8 12 8 15 11 14 407 8 9 16 16 15 986 12 13 9 8 1470 13 9 8 18 11 11 9 886 14 20 548 14 9 10 12 12 15 31 8 22 10 16 10 14 10 7 10 10 13 15 11 15 22 12 986 11 86 9 9 8 1477 805 10 13 9 15 14 108 9 11 4 10 12 7 15 10 412 14 11 15 10 12 10 7 12 10 11 499 12 840 18 1250 11 258 10 13 15 9 11 10 1147 90 9 16 13 7 12 10 13 13 11 15 9 1963 10 22 625 245 7 13 14 10 17 14 12 12 7 14 13 22 118 12 10 16 23 17 9 22 14 8 16 18 10 5 11 12 8 19 10 8 9 17 8 11 9 9 17 12 16 12 2064 376 263 10 15 9 6 5 7 18 20 244 7 11 11 8 1570 10 7 11 116 11 11 17 21 8 11 988 12 12 17 9 8 197 20 34 12 14 12 10 18 984 7 14 12 15 12 19 7 14 15 14 20 8 9 11 10 21 14 105 16 24 10 8 20 10 16 23 20563 16 13 18 1482 18 10 10 601 19 199 18 16 10 17 18 11 24 17 820 22 9 6 13 18 9 11 16 9 10 514 16 409 3419 10 20 6 26 11 10 11 20 13 11 6 6 368 206 1025 10 9 151 16 10 6 13 9 986 15 2368 8 7 11 6 12 17 6 14634 10 8 12 1963 9 9 14 18 1028 10 9 15 15 15 9 10 10 7 1334 12 540 413 1474 13 25 10 14 7 21 7 10 334 14 16 11 11 13 10 16 21 10 6 13 9 10 665 8 16 1471 14 600 8 11 12 7 13 18 9 61 10 28 10 814 11 8 11 11 374 12 10 19 19 12 17 20 7 11 50 8 71 15 1382 8 38 164 2887 7 13 10 22 7 15 239 37 11 11 10 123 9 9 12 9 388 1721 16 988 985 9 10 1434 11 13 13 12 21 16 7 15 11 1669 687 18 224 14 499 11 16 13 12 10 6 7 11 12 19 7 9 9 499 26 13 7 17 9 10 10 2944 7 14 7 13 12 193 9 15 15 16 12 12 468 8 34 14 25 15 13 7 14 13 18 15 330 9 11 11 9 8 20 64 848 13 18 44 8 14 8 17 14 16 985 10 12 11 11 7 11 12 17 17 17 410 14 58 31 7 17 29 24 8 459 12 9 7 411 101 22 10 10 71 53 7 1480 8 13 506 13 8 9 11 12 399 16 11 9 11 7 54 12 11 1337 12 19 20 15 11 11 14 657 891 1369 16 633 6 553 16 584 15 13 18 13 480 798 302 8 8 1484 16 25 120 619 8 8 21 15 13 15 9 11 12 7 10 9 7 11 5 366 5 12 5 12 10 7 
To predecode: 0
Predecoding something: 0
Predecode request dropped: 0
sizeofblock_0 0
sizeofblock_1 51509
sizeofblock_2 86323
sizeofblock_3 0
sizeofblock_4 0
sizeofblock_5 0
sizeofblock_6 0
sizeofblock_7 0
sizeofblock_8 0
Variant_0 Correct: 1613830 Incorrect: 0 Accuracy: 1
Variant_1 Correct: 5734416 Incorrect: 0 Accuracy: 1
Variant_2 Correct: 0 Incorrect: 0 Accuracy: -nan
Variant_3 Correct: 0 Incorrect: 0 Accuracy: -nan
