
*** ChampSim Multicore Out-of-Order Simulator ***

Warmup Instructions: 50000000
Simulation Instructions: 50000000
Number of CPUs: 1
LLC sets: 2048
LLC ways: 16
Off-chip DRAM Size: 4096 MB Channels: 1 Width: 64-bit Data Rate: 6400 MT/s
CPU 0 runs ./micro_traces/srv392.trace.gz
.gz
ITLB has LRU replacement policy
DTLB has LRU replacement policy
STLB has LRU replacement policy
FDIP Prefetcher at L1I
L1I has LRU replacement policy
L1D has LRU replacement policy
Initialize SRRIP state for L2C
Initialize DRRIP state for LLC
Heartbeat_Variant_0 : 1276 0.311523 per_variant_size: 0 1276 0 0 0 0 0 0 0 
Heartbeat_Variant_1 : 1137 0.277588 per_variant_size: 0 542 595 0 0 0 0 0 0 
Heartbeat_Variant_2 : 935 0.228271 per_variant_size: 0 532 261 94 48 0 0 0 0 
Heartbeat_Variant_3 : 711 0.173584 per_variant_size: 0 471 183 50 6 1 0 0 0 
Heartbeat_Variant_0_evicts 0 : 7202 1 : 1610 2 : 1276 3 : 1085 
Heartbeat_Variant_1_evicts 0 : 1561 1 : 0 2 : 1193 3 : 1149 
Heartbeat_Variant_2_evicts 0 : 1273 1 : 1190 2 : 0 3 : 798 
Heartbeat_Variant_3_evicts 0 : 1053 1 : 1138 2 : 798 3 : 0 
Heartbeat CPU 0 instructions: 10000000 cycles: 2797197 heartbeat IPC: 3.57501 cumulative IPC: 3.57501 (Simulation time: 0 hr 1 min 40 sec) 
Heartbeat_Variant_0 : 1266 0.309082 per_variant_size: 0 1266 0 0 0 0 0 0 0 
Heartbeat_Variant_1 : 1171 0.285889 per_variant_size: 0 612 559 0 0 0 0 0 0 
Heartbeat_Variant_2 : 937 0.22876 per_variant_size: 0 537 265 96 39 0 0 0 0 
Heartbeat_Variant_3 : 700 0.170898 per_variant_size: 0 455 190 50 5 0 0 0 0 
Heartbeat_Variant_0_evicts 0 : 6854 1 : 1239 2 : 937 3 : 684 
Heartbeat_Variant_1_evicts 0 : 1276 1 : 0 2 : 927 3 : 838 
Heartbeat_Variant_2_evicts 0 : 926 1 : 923 2 : 0 3 : 551 
Heartbeat_Variant_3_evicts 0 : 668 1 : 852 2 : 540 3 : 0 
Heartbeat CPU 0 instructions: 20000002 cycles: 5593886 heartbeat IPC: 3.57566 cumulative IPC: 3.57533 (Simulation time: 0 hr 3 min 21 sec) 
Heartbeat_Variant_0 : 1264 0.308594 per_variant_size: 0 1264 0 0 0 0 0 0 0 
Heartbeat_Variant_1 : 1159 0.282959 per_variant_size: 0 547 612 0 0 0 0 0 0 
Heartbeat_Variant_2 : 940 0.229492 per_variant_size: 0 514 267 119 40 0 0 0 0 
Heartbeat_Variant_3 : 723 0.176514 per_variant_size: 0 470 195 52 6 0 0 0 0 
Heartbeat_Variant_0_evicts 0 : 7369 1 : 1591 2 : 1192 3 : 980 
Heartbeat_Variant_1_evicts 0 : 1588 1 : 0 2 : 1097 3 : 1044 
Heartbeat_Variant_2_evicts 0 : 1200 1 : 1100 2 : 0 3 : 709 
Heartbeat_Variant_3_evicts 0 : 978 1 : 1055 2 : 720 3 : 0 
Heartbeat CPU 0 instructions: 30000003 cycles: 8388210 heartbeat IPC: 3.57868 cumulative IPC: 3.57645 (Simulation time: 0 hr 5 min 1 sec) 
Heartbeat_Variant_0 : 1274 0.311035 per_variant_size: 0 1274 0 0 0 0 0 0 0 
Heartbeat_Variant_1 : 1171 0.285889 per_variant_size: 0 571 600 0 0 0 0 0 0 
Heartbeat_Variant_2 : 923 0.225342 per_variant_size: 0 483 296 104 40 0 0 0 0 
Heartbeat_Variant_3 : 718 0.175293 per_variant_size: 0 472 188 48 10 0 0 0 0 
Heartbeat_Variant_0_evicts 0 : 6696 1 : 1201 2 : 870 3 : 707 
Heartbeat_Variant_1_evicts 0 : 1211 1 : 0 2 : 813 3 : 822 
Heartbeat_Variant_2_evicts 0 : 846 1 : 794 2 : 0 3 : 512 
Heartbeat_Variant_3_evicts 0 : 711 1 : 839 2 : 486 3 : 0 
Heartbeat CPU 0 instructions: 40000003 cycles: 11184467 heartbeat IPC: 3.57621 cumulative IPC: 3.57639 (Simulation time: 0 hr 6 min 38 sec) 
Heartbeat_Variant_0 : 1275 0.311279 per_variant_size: 0 1275 0 0 0 0 0 0 0 
Heartbeat_Variant_1 : 1157 0.282471 per_variant_size: 0 546 611 0 0 0 0 0 0 
Heartbeat_Variant_2 : 938 0.229004 per_variant_size: 0 520 257 114 47 0 0 0 0 
Heartbeat_Variant_3 : 717 0.175049 per_variant_size: 0 474 177 53 13 0 0 0 0 
Heartbeat_Variant_0_evicts 0 : 6711 1 : 1175 2 : 864 3 : 686 
Heartbeat_Variant_1_evicts 0 : 1165 1 : 0 2 : 902 3 : 805 
Heartbeat_Variant_2_evicts 0 : 858 1 : 916 2 : 0 3 : 511 
Heartbeat_Variant_3_evicts 0 : 701 1 : 796 2 : 504 3 : 0 
Heartbeat CPU 0 instructions: 50000002 cycles: 13981719 heartbeat IPC: 3.57494 cumulative IPC: 3.5761 (Simulation time: 0 hr 8 min 19 sec) 

Warmup complete CPU 0 instructions: 50000002 cycles: 13981719 (Simulation time: 0 hr 8 min 19 sec) 

Cycle: 20000000 FTQ IN: 58184680 FTQ occupancy: 19.3919 DECODE IN: 58184547 DECODE occupancy: 50.3172 ROB IN: 58184487 ROB occupancy: 306.714 ROB OUT: 58184448
Heartbeat_Variant_0 : 1279 0.312256 per_variant_size: 0 1279 0 0 0 0 0 0 0 
Heartbeat_Variant_1 : 1159 0.282959 per_variant_size: 0 552 607 0 0 0 0 0 0 
Heartbeat_Variant_2 : 945 0.230713 per_variant_size: 0 526 264 112 43 0 0 0 0 
Heartbeat_Variant_3 : 704 0.171875 per_variant_size: 0 447 202 41 14 0 0 0 0 
Heartbeat_Variant_0_evicts 0 : 6636 1 : 1069 2 : 843 3 : 649 
Heartbeat_Variant_1_evicts 0 : 1074 1 : 0 2 : 748 3 : 774 
Heartbeat_Variant_2_evicts 0 : 833 1 : 766 2 : 0 3 : 466 
Heartbeat_Variant_3_evicts 0 : 650 1 : 759 2 : 467 3 : 0 
Heartbeat CPU 0 instructions: 60000003 cycles: 21342122 heartbeat IPC: 1.35862 cumulative IPC: 1.35862 (Simulation time: 0 hr 10 min 4 sec) 
Heartbeat_Variant_0 : 1273 0.310791 per_variant_size: 0 1273 0 0 0 0 0 0 0 
Heartbeat_Variant_1 : 1172 0.286133 per_variant_size: 0 586 586 0 0 0 0 0 0 
Heartbeat_Variant_2 : 941 0.229736 per_variant_size: 0 521 270 100 50 0 0 0 0 
Heartbeat_Variant_3 : 701 0.171143 per_variant_size: 0 448 190 49 14 0 0 0 0 
Heartbeat_Variant_0_evicts 0 : 6882 1 : 1273 2 : 936 3 : 776 
Heartbeat_Variant_1_evicts 0 : 1250 1 : 0 2 : 897 3 : 842 
Heartbeat_Variant_2_evicts 0 : 958 1 : 865 2 : 0 3 : 504 
Heartbeat_Variant_3_evicts 0 : 783 1 : 838 2 : 498 3 : 0 
Heartbeat CPU 0 instructions: 70000003 cycles: 28800059 heartbeat IPC: 1.34085 cumulative IPC: 1.34968 (Simulation time: 0 hr 11 min 47 sec) 
Cycle: 30000000 FTQ IN: 13444454 FTQ occupancy: 10.9874 DECODE IN: 13444583 DECODE occupancy: 27.3672 ROB IN: 13444643 ROB occupancy: 204.919 ROB OUT: 13444679
Heartbeat_Variant_0 : 1270 0.310059 per_variant_size: 0 1270 0 0 0 0 0 0 0 
Heartbeat_Variant_1 : 1160 0.283203 per_variant_size: 0 555 605 0 0 0 0 0 0 
Heartbeat_Variant_2 : 944 0.230469 per_variant_size: 0 532 253 114 45 0 0 0 0 
Heartbeat_Variant_3 : 713 0.174072 per_variant_size: 0 467 183 50 13 0 0 0 0 
Heartbeat_Variant_0_evicts 0 : 7021 1 : 1444 2 : 1028 3 : 764 
Heartbeat_Variant_1_evicts 0 : 1421 1 : 0 2 : 1010 3 : 1037 
Heartbeat_Variant_2_evicts 0 : 1023 1 : 990 2 : 0 3 : 660 
Heartbeat_Variant_3_evicts 0 : 795 1 : 1046 2 : 632 3 : 0 
Heartbeat CPU 0 instructions: 80000001 cycles: 36241901 heartbeat IPC: 1.34375 cumulative IPC: 1.3477 (Simulation time: 0 hr 13 min 28 sec) 
Cycle: 40000000 FTQ IN: 13511456 FTQ occupancy: 10.867 DECODE IN: 13511378 DECODE occupancy: 27.2863 ROB IN: 13511318 ROB occupancy: 204.922 ROB OUT: 13511084
Heartbeat_Variant_0 : 1267 0.309326 per_variant_size: 0 1267 0 0 0 0 0 0 0 
Heartbeat_Variant_1 : 1178 0.287598 per_variant_size: 0 585 593 0 0 0 0 0 0 
Heartbeat_Variant_2 : 936 0.228516 per_variant_size: 0 518 262 100 56 0 0 0 0 
Heartbeat_Variant_3 : 706 0.172363 per_variant_size: 0 448 196 52 10 0 0 0 0 
Heartbeat_Variant_0_evicts 0 : 6583 1 : 1045 2 : 788 3 : 617 
Heartbeat_Variant_1_evicts 0 : 1035 1 : 0 2 : 714 3 : 763 
Heartbeat_Variant_2_evicts 0 : 815 1 : 692 2 : 0 3 : 425 
Heartbeat_Variant_3_evicts 0 : 603 1 : 757 2 : 438 3 : 0 
Heartbeat CPU 0 instructions: 90000000 cycles: 43677224 heartbeat IPC: 1.34493 cumulative IPC: 1.34701 (Simulation time: 0 hr 15 min 15 sec) 
Cycle: 50000000 FTQ IN: 13364861 FTQ occupancy: 11.0466 DECODE IN: 13364913 DECODE occupancy: 27.5177 ROB IN: 13364973 ROB occupancy: 204.89 ROB OUT: 13365206
Heartbeat_Variant_0 : 1266 0.309082 per_variant_size: 0 1266 0 0 0 0 0 0 0 
Heartbeat_Variant_1 : 1165 0.284424 per_variant_size: 0 571 594 0 0 0 0 0 0 
Heartbeat_Variant_2 : 952 0.232422 per_variant_size: 0 532 276 99 45 0 0 0 0 
Heartbeat_Variant_3 : 704 0.171875 per_variant_size: 0 464 165 59 16 0 0 0 0 
Heartbeat_Variant_0_evicts 0 : 6938 1 : 1333 2 : 987 3 : 791 
Heartbeat_Variant_1_evicts 0 : 1310 1 : 0 2 : 980 3 : 874 
Heartbeat_Variant_2_evicts 0 : 996 1 : 983 2 : 0 3 : 564 
Heartbeat_Variant_3_evicts 0 : 806 1 : 861 2 : 560 3 : 0 
Heartbeat CPU 0 instructions: 100000000 cycles: 51104265 heartbeat IPC: 1.34643 cumulative IPC: 1.34689 (Simulation time: 0 hr 17 min 26 sec) 
Finished CPU 0 instructions: 50000003 cycles: 37122569 cumulative IPC: 1.34689 (Simulation time: 0 hr 17 min 26 sec) 

ChampSim completed all CPUs

Region of Interest Statistics

CPU 0 cumulative IPC: 1.34689 instructions: 50000003 cycles: 37122569
 Fetch stage stalled: 59.3351  Sim cycles: 37122569 fetch stall cycle: 22026728
 Empty decode stage: 44.5366  Sim cycles: 37122569 fetch stall cycle: 16533114
ITLB TOTAL     ACCESS:    5818949  HIT:    5322821  MISS:     496128  HIT %:    91.4739  MISS %:    8.52608   MPKI: 9.92256
ITLB LOAD TRANSLATION INSTRUCTION	ACCESS:    5698985  HIT:    5202857  MISS:     496128  HIT %:    91.2944  MISS %:    8.70555  MPKI: 9.92256
ITLB TRANSLATION FROM L1D PREFETCHER INSTRUCTION	ACCESS:     119964  HIT:     119964  MISS:          0  HIT %:        100  MISS %:          0  MPKI: 0

ITLB AVERAGE MISS LATENCY: 9.04024 cycles
ITLB RQ	ACCESS:    7908503	FORWARD:          0	MERGED:    1640584	TO_CACHE:    6267919

DTLB TOTAL     ACCESS:    9015874  HIT:    8541418  MISS:     474456  HIT %:    94.7375  MISS %:    5.26245   MPKI: 9.48912
DTLB LOAD TRANSLATION DATA	ACCESS:    9015874  HIT:    8541418  MISS:     474456  HIT %:    94.7375  MISS %:    5.26245  MPKI: 9.48912

DTLB AVERAGE MISS LATENCY: 9.32008 cycles
DTLB RQ	ACCESS:   13378986	FORWARD:          0	MERGED:    4325825	TO_CACHE:    9053161

STLB TOTAL     ACCESS:    1216363  HIT:    1214331  MISS:       2032  HIT %:    99.8329  MISS %:   0.167055   MPKI: 0.04064
STLB LOAD TRANSLATION INSTRUCTION	ACCESS:     496128  HIT:     495884  MISS:        244  HIT %:    99.9508  MISS %:  0.0491809  MPKI: 0.00488
STLB LOAD TRANSLATION DATA	ACCESS:     474409  HIT:     472649  MISS:       1760  HIT %:     99.629  MISS %:   0.370988  MPKI: 0.0352
STLB TRANSLATION FROM L1D PREFETCHER DATA	ACCESS:     245826  HIT:     245798  MISS:         28  HIT %:    99.9886  MISS %:  0.0113902  MPKI: 0.00056

STLB AVERAGE MISS LATENCY: 69.469 cycles
STLB RQ	ACCESS:    1336076	FORWARD:          0	MERGED:     119673	TO_CACHE:    1216403

STLB Hit, L1D data hit: 0
STLB Hit, L2C data hit: 0
STLB Hit, LLC data hit: 0
STLB Hit, LLC data miss: 0
STLB STLB hints to L2: 0
L1D TOTAL     ACCESS:   13128591  HIT:   12007767  MISS:    1120824  HIT %:    91.4627  MISS %:    8.53728   MPKI: 22.4165
L1D LOAD DATA	ACCESS:    6587103  HIT:    5847535  MISS:     739568  HIT %:    88.7725  MISS %:    11.2275  MPKI: 14.7914
L1D RFO DATA	ACCESS:    6215772  HIT:    5929968  MISS:     285804  HIT %:     95.402  MISS %:    4.59805  MPKI: 5.71608
L1D PREFETCH DATA	ACCESS:     325716  HIT:     230264  MISS:      95452  HIT %:    70.6947  MISS %:    29.3053  MPKI: 1.90904

L1D PREFETCH  REQUESTED:     731385  ISSUED:     731385  USEFUL:      33629  USELESS:      68727
L1D USEFUL LOAD PREFETCHES:      33629 PREFETCH ISSUED TO LOWER LEVEL:     102421  ACCURACY: 32.8341
 TIMELY PREFETCHES:      33629 LATE PREFETCHES: 6911 DROPPED PREFETCHES: 6
L1D AVERAGE MISS LATENCY: 204828 cycles
L1D RQ	ACCESS:   10705998	FORWARD:          0	MERGED:    3919534	TO_CACHE:    6621143
L1D WQ	ACCESS:    6949781	FORWARD:     165722	MERGED:     191938	TO_CACHE:    6757843
L1D PQ	ACCESS:     365893	FORWARD:          0	MERGED:          0	TO_CACHE:     365492

L1D UNIQUE REGIONS ACCESSED: 0
L1D REGIONS CONFLICTS: 0
L1D Cross Page Prefetch Requests: 6920
L1D Same Page Prefetch Requests: 742263
L1D ROI Sum of L1D PQ occupancy: 4634605
L1D PREFETCHES PUSHED FROM L2C: 0
L1I TOTAL     ACCESS:    7128618  HIT:    4357679  MISS:    2770939  HIT %:    61.1294  MISS %:    38.8706   MPKI: 55.4188
L1I LOAD INSTRUCTION	ACCESS:    6495875  HIT:    3724936  MISS:    2770939  HIT %:    57.3431  MISS %:    42.6569  MPKI: 55.4188
L1I PREFETCH INSTRUCTION	ACCESS:     632743  HIT:     632743  MISS:          0  HIT %:        100  MISS %:          0  MPKI: 0

L1I PREFETCH  REQUESTED:    1517695  ISSUED:    1517695  USEFUL:          0  USELESS:          0
L1I USEFUL LOAD PREFETCHES:          0 PREFETCH ISSUED TO LOWER LEVEL:          0  ACCURACY: -nan
 TIMELY PREFETCHES:          0 LATE PREFETCHES: 0 DROPPED PREFETCHES: 0
L1I AVERAGE MISS LATENCY: 17.1744 cycles
L1I RQ	ACCESS:    9488309	FORWARD:          0	MERGED:    2680616	TO_CACHE:    6807693
L1I PQ	ACCESS:    1517695	FORWARD:          0	MERGED:     416885	TO_CACHE:    1100810

L1BTB TOTAL     ACCESS:    5671570  HIT:    2032452  MISS:    3639118  HIT %:    35.8358  MISS %:    64.1642   MPKI: 72.7824
L1BTB BRANCH_DIRECT_JUMP	ACCESS:     547868 HIT:     144014 MISS:     403854 AVERAGE STALL: 44.4044 AVERAGE FETCH STALL: 18.2182 AVERAGE FETCH QUEUE STALL: 12.6597 AVERAGE DECODE STALL: 12.634 AVERAGE EXECUTE STALL: 1.24254e+15
L1BTB BRANCH_INDIRECT	ACCESS:     182376 HIT:      65594 MISS:     116782 AVERAGE STALL: 97.421 AVERAGE FETCH STALL: 11.4006 AVERAGE FETCH QUEUE STALL: 11.5215 AVERAGE DECODE STALL: 10.0177 AVERAGE EXECUTE STALL: 63.523
L1BTB BRANCH_CONDITIONAL	ACCESS:    2696930 HIT:    1401531 MISS:    1295399 AVERAGE STALL: 50.4368 AVERAGE FETCH STALL: 21.9303 AVERAGE FETCH QUEUE STALL: 15.189 AVERAGE DECODE STALL: 12.5751 AVERAGE EXECUTE STALL: 7.81079e+14
L1BTB BRANCH_DIRECT_CALL	ACCESS:     949406 HIT:     107173 MISS:     842233 AVERAGE STALL: 51.9593 AVERAGE FETCH STALL: 23.1174 AVERAGE FETCH QUEUE STALL: 15.2791 AVERAGE DECODE STALL: 12.8056 AVERAGE EXECUTE STALL: 8.21462e+14
L1BTB BRANCH_INDIRECT_CALL	ACCESS:     172792 HIT:      21990 MISS:     150802 AVERAGE STALL: 128.281 AVERAGE FETCH STALL: 14.1179 AVERAGE FETCH QUEUE STALL: 9.88336 AVERAGE DECODE STALL: 9.35354 AVERAGE EXECUTE STALL: 94.4186
L1BTB BRANCH_RETURN	ACCESS:    1122198 HIT:     292150 MISS:     830048 AVERAGE STALL: 45.4351 AVERAGE FETCH STALL: 17.202 AVERAGE FETCH QUEUE STALL: 6.27479 AVERAGE DECODE STALL: 7.00657 AVERAGE EXECUTE STALL: 3.49218e+14
L1BTB BRANCH_OTHER ACCESS:          0 HIT:          0 MISS:          0 AVERAGE STALL: -nan AVERAGE FETCH STALL: -nan AVERAGE FETCH QUEUE STALL: -nan AVERAGE DECODE STALL: -nan AVERAGE EXECUTE STALL: -nan
L1BTB TOTAL ROB OCCUPANCY AT BTB MISS: 5.30927

L2BTB TOTAL     ACCESS:    3613861  HIT:    3488606  MISS:     125255  HIT %:     96.534  MISS %:    3.46596   MPKI: 2.5051
L2BTB BRANCH_DIRECT_JUMP	ACCESS:     399757 HIT:     389002 MISS:      10755 AVERAGE STALL: 44.4044 AVERAGE FETCH STALL: 18.2182 AVERAGE FETCH QUEUE STALL: 12.6597 AVERAGE DECODE STALL: 12.634 AVERAGE EXECUTE STALL: 1.24254e+15
L2BTB BRANCH_INDIRECT	ACCESS:     106496 HIT:     103030 MISS:       3466 AVERAGE STALL: 97.421 AVERAGE FETCH STALL: 11.4006 AVERAGE FETCH QUEUE STALL: 11.5215 AVERAGE DECODE STALL: 10.0177 AVERAGE EXECUTE STALL: 63.523
L2BTB BRANCH_CONDITIONAL	ACCESS:    1295399 HIT:    1271570 MISS:      23829 AVERAGE STALL: 50.4368 AVERAGE FETCH STALL: 21.9303 AVERAGE FETCH QUEUE STALL: 15.189 AVERAGE DECODE STALL: 12.5751 AVERAGE EXECUTE STALL: 7.81079e+14
L2BTB BRANCH_DIRECT_CALL	ACCESS:     842233 HIT:     819734 MISS:      22499 AVERAGE STALL: 51.9593 AVERAGE FETCH STALL: 23.1174 AVERAGE FETCH QUEUE STALL: 15.2791 AVERAGE DECODE STALL: 12.8056 AVERAGE EXECUTE STALL: 8.21462e+14
L2BTB BRANCH_INDIRECT_CALL	ACCESS:     141348 HIT:     128087 MISS:      13261 AVERAGE STALL: 128.281 AVERAGE FETCH STALL: 14.1179 AVERAGE FETCH QUEUE STALL: 9.88336 AVERAGE DECODE STALL: 9.35354 AVERAGE EXECUTE STALL: 94.4186
L2BTB BRANCH_RETURN	ACCESS:     828628 HIT:     777183 MISS:      51445 AVERAGE STALL: 45.4351 AVERAGE FETCH STALL: 17.202 AVERAGE FETCH QUEUE STALL: 6.27479 AVERAGE DECODE STALL: 7.00657 AVERAGE EXECUTE STALL: 3.49218e+14
L2BTB BRANCH_OTHER ACCESS:          0 HIT:          0 MISS:          0 AVERAGE STALL: -nan AVERAGE FETCH STALL: -nan AVERAGE FETCH QUEUE STALL: -nan AVERAGE DECODE STALL: -nan AVERAGE EXECUTE STALL: -nan
L2BTB TOTAL ROB OCCUPANCY AT BTB MISS: 154.254

L2C TOTAL     ACCESS:    4499433  HIT:    4033083  MISS:     466350  HIT %:    89.6354  MISS %:    10.3646   MPKI: 9.327
L2C LOAD INSTRUCTION	ACCESS:    2770941  HIT:    2512243  MISS:     258698  HIT %:    90.6639  MISS %:    9.33611  MPKI: 5.17396
L2C LOAD TRANSLATION INSTRUCTION	ACCESS:        273  HIT:         68  MISS:        205  HIT %:    24.9084  MISS %:    75.0916  MPKI: 0.0041
L2C LOAD DATA	ACCESS:     732630  HIT:     659364  MISS:      73266  HIT %:    89.9996  MISS %:    10.0004  MPKI: 1.46532
L2C RFO DATA	ACCESS:     285721  HIT:     237899  MISS:      47822  HIT %:    83.2627  MISS %:    16.7373  MPKI: 0.95644
L2C PREFETCH DATA	ACCESS:     185383  HIT:     113248  MISS:      72135  HIT %:    61.0887  MISS %:    38.9113  MPKI: 1.4427
L2C WRITEBACK DATA	ACCESS:     522628  HIT:     509783  MISS:      12845  HIT %:    97.5422  MISS %:    2.45777  MPKI: 0.2569
L2C LOAD TRANSLATION DATA	ACCESS:       1807  HIT:        446  MISS:       1361  HIT %:    24.6818  MISS %:    75.3182  MPKI: 0.02722
L2C TRANSLATION FROM L1D PREFETCHER DATA	ACCESS:         50  HIT:         32  MISS:         18  HIT %:         64  MISS %:         36  MPKI: 0.00036

L2C PREFETCH  REQUESTED:      91624  ISSUED:      91624  USEFUL:       7902  USELESS:      64777
L2C USEFUL LOAD PREFETCHES:       7902 PREFETCH ISSUED TO LOWER LEVEL:      72623  ACCURACY: 10.8809
 TIMELY PREFETCHES:       7902 LATE PREFETCHES: 488 DROPPED PREFETCHES: 0
L2C AVERAGE MISS LATENCY: 38.1754 cycles
L2C RQ	ACCESS:    3791476	FORWARD:          0	MERGED:          0	TO_CACHE:    3791424
L2C WQ	ACCESS:     522628	FORWARD:         53	MERGED:          0	TO_CACHE:     522628
L2C PQ	ACCESS:     194045	FORWARD:          0	MERGED:       3956	TO_CACHE:     190088

L2C Dense regions hint from L2: 0
PSCL5 TOTAL     ACCESS:       4082  HIT:       2041  MISS:       2041  HIT %:         50  MISS %:         50   MPKI: 0.04082
PSCL5 LOAD TRANSLATION INSTRUCTION	ACCESS:       3984  HIT:       1992  MISS:       1992  HIT %:         50  MISS %:         50  MPKI: 0.03984
PSCL5 TRANSLATION FROM L1D PREFETCHER INSTRUCTION	ACCESS:         98  HIT:         49  MISS:         49  HIT %:         50  MISS %:         50  MPKI: 0.00098


PSCL4 TOTAL     ACCESS:       3988  HIT:       1992  MISS:       1996  HIT %:    49.9498  MISS %:    50.0502   MPKI: 0.03992
PSCL4 LOAD TRANSLATION INSTRUCTION	ACCESS:       3341  HIT:       1943  MISS:       1398  HIT %:    58.1562  MISS %:    41.8438  MPKI: 0.02796
PSCL4 TRANSLATION FROM L1D PREFETCHER INSTRUCTION	ACCESS:         83  HIT:         49  MISS:         34  HIT %:    59.0361  MISS %:    40.9639  MPKI: 0.00068
PSCL4 LOAD TRANSLATION DATA	ACCESS:        549  HIT:          0  MISS:        549  HIT %:          0  MISS %:        100  MPKI: 0.01098
PSCL4 TRANSLATION FROM L1D PREFETCHER DATA	ACCESS:         15  HIT:          0  MISS:         15  HIT %:          0  MISS %:        100  MPKI: 0.0003


PSCL3 TOTAL     ACCESS:       4032  HIT:       2014  MISS:       2018  HIT %:    49.9504  MISS %:    50.0496   MPKI: 0.04036
PSCL3 LOAD TRANSLATION INSTRUCTION	ACCESS:       3363  HIT:       1965  MISS:       1398  HIT %:      58.43  MISS %:      41.57  MPKI: 0.02796
PSCL3 TRANSLATION FROM L1D PREFETCHER INSTRUCTION	ACCESS:         83  HIT:         49  MISS:         34  HIT %:    59.0361  MISS %:    40.9639  MPKI: 0.00068
PSCL3 LOAD TRANSLATION DATA	ACCESS:        571  HIT:          0  MISS:        571  HIT %:          0  MISS %:        100  MPKI: 0.01142
PSCL3 TRANSLATION FROM L1D PREFETCHER DATA	ACCESS:         15  HIT:          0  MISS:         15  HIT %:          0  MISS %:        100  MPKI: 0.0003


PSCL2 TOTAL     ACCESS:       4001  HIT:       1960  MISS:       2041  HIT %:    48.9878  MISS %:    51.0122   MPKI: 0.04082
PSCL2 LOAD TRANSLATION INSTRUCTION	ACCESS:       2155  HIT:       1912  MISS:        243  HIT %:    88.7239  MISS %:    11.2761  MPKI: 0.00486
PSCL2 TRANSLATION FROM L1D PREFETCHER INSTRUCTION	ACCESS:         48  HIT:         48  MISS:          0  HIT %:        100  MISS %:          0  MPKI: 0
PSCL2 LOAD TRANSLATION DATA	ACCESS:       1750  HIT:          0  MISS:       1750  HIT %:          0  MISS %:        100  MPKI: 0.035
PSCL2 TRANSLATION FROM L1D PREFETCHER DATA	ACCESS:         48  HIT:          0  MISS:         48  HIT %:          0  MISS %:        100  MPKI: 0.00096


LLC TOTAL     ACCESS:     522829  HIT:     495762  MISS:      27067  HIT %:     94.823  MISS %:    5.17703   MPKI: 0.54134
LLC LOAD INSTRUCTION	ACCESS:     258698  HIT:     257916  MISS:        782  HIT %:    99.6977  MISS %:   0.302283  MPKI: 0.01564
LLC LOAD TRANSLATION INSTRUCTION	ACCESS:        205  HIT:        182  MISS:         23  HIT %:    88.7805  MISS %:    11.2195  MPKI: 0.00046
LLC LOAD DATA	ACCESS:      72789  HIT:      69458  MISS:       3331  HIT %:    95.4238  MISS %:    4.57624  MPKI: 0.06662
LLC RFO DATA	ACCESS:      47800  HIT:      34932  MISS:      12868  HIT %:    73.0795  MISS %:    26.9205  MPKI: 0.25736
LLC PREFETCH DATA	ACCESS:      72623  HIT:      62959  MISS:       9664  HIT %:    86.6929  MISS %:    13.3071  MPKI: 0.19328
LLC WRITEBACK DATA	ACCESS:      69335  HIT:      69016  MISS:        319  HIT %:    99.5399  MISS %:   0.460085  MPKI: 0.00638
LLC LOAD TRANSLATION DATA	ACCESS:       1361  HIT:       1282  MISS:         79  HIT %:    94.1954  MISS %:    5.80456  MPKI: 0.00158
LLC TRANSLATION FROM L1D PREFETCHER DATA	ACCESS:         18  HIT:         17  MISS:          1  HIT %:    94.4444  MISS %:    5.55556  MPKI: 2e-05

LLC AVERAGE MISS LATENCY: 153.732 cycles
LLC RQ	ACCESS:     380882	FORWARD:          0	MERGED:          0	TO_CACHE:     380871
LLC WQ	ACCESS:      69335	FORWARD:         11	MERGED:          0	TO_CACHE:      69335
LLC PQ	ACCESS:      72623	FORWARD:          0	MERGED:          0	TO_CACHE:      72623

LLC Dense regions hint to LLC: 0

RAW hits: 1922871
Loads Generated: 12628869
Loads sent to L1D: 10705998
Stores Generated: 6949757
Stores sent to L1D: 6949781
Major fault: 0 Minor fault: 2587
Allocated PAGES: 2587

stream: 
stream:times selected: 1176965
stream:pref_filled: 120933
stream:pref_useful: 23787
stream:pref_late: 6751
stream:misses: 8140
stream:misses_by_poll: 0

CS: 
CS:times selected: 177978
CS:pref_filled: 61270
CS:pref_useful: 37940
CS:pref_late: 6301
CS:misses: 15420
CS:misses_by_poll: 5

CPLX: 
CPLX:times selected: 997818
CPLX:pref_filled: 19673
CPLX:pref_useful: 4581
CPLX:pref_late: 3294
CPLX:misses: 94176
CPLX:misses_by_poll: 0

NL_L1: 
NL:times selected: 20603
NL:pref_filled: 591
NL:pref_useful: 254
NL:pref_late: 399
NL:misses: 1801
NL:misses_by_poll: 0

total selections: 2373364
total_filled: 95452
total_useful: 33629
total_late: 17955
total_polluted: 5
total_misses_after_warmup: 773608
conflicts: 5542914

test: 115670

DRAM Statistics
 CHANNEL 0
 RQ ROW_BUFFER_HIT:       9892  ROW_BUFFER_MISS:      16853
 DBUS_CONGESTED:         10
 WQ ROW_BUFFER_HIT:       1156  ROW_BUFFER_MISS:      11687  FULL:          0

 AVG_CONGESTED_CYCLE: 4

CPU 0 Branch Prediction Accuracy: 99.8269% MPKI: 0.31696 Average ROB Occupancy at Mispredict: 168.732
Branch types
NOT_BRANCH: 40846172 81.6923%
BRANCH_DIRECT_JUMP: 547868 1.09574%
BRANCH_INDIRECT: 182376 0.364752%
BRANCH_CONDITIONAL: 6178958 12.3579%
BRANCH_DIRECT_CALL: 949406 1.89881%
BRANCH_INDIRECT_CALL: 172792 0.345584%
BRANCH_RETURN: 1122198 2.2444%
BRANCH_OTHER: 0 0%

DRAM PAGES: 1048576
Allocated PAGES: 2587
Average_ROB_Occupancy: 206.753
Average_Decode_Occupancy: 27.4111
Average_FTQ_Occupancy: 10.9655
Indirect max targets: 14 Average targets: 1.14527
Branch_type:  BRANCH_DIRECT_JUMP:  Count Percentage: 3.38073 5.42582 4.18493 7.86648 1.86553 5.96348 1.1486 70.1644 
Branch_type:  BRANCH_INDIRECT:  Count Percentage: 11.7572 3.41318 2.49149 9.67814 3.35227 4.01822 2.01871 63.2708 
Branch_type:  BRANCH_CONDITIONAL:  Count Percentage: 21.3706 5.35118 2.31055 4.04565 2.21597 4.44315 0.647675 59.6152 
Branch_type:  BRANCH_DIRECT_CALL:  Count Percentage: 0.256493 1.30821 1.41074 3.45065 2.85587 2.34099 0.608596 87.7685 
Branch_type:  BRANCH_INDIRECT_CALL:  Count Percentage: 9.51905 0.554184 2.98472 4.81703 1.5067 2.97342 0.991043 76.6539 
Branch_type:  BRANCH_RETURN:  Count Percentage: 3.72485 3.6212 1.61679 4.97594 4.51761 4.86961 1.0259 75.6481 
Branch_type:  BRANCH_DIRECT_JUMP:  Total Count: 36998 59379 45799 86089 20416 65263 12570 767864 
Branch_type:  BRANCH_INDIRECT:  Total Count: 42848 12439 9080 35271 12217 14644 7357 230584 
Branch_type:  BRANCH_CONDITIONAL:  Total Count: 2638941 660789 285318 499576 273638 548661 79978 7361570 
Branch_type:  BRANCH_DIRECT_CALL:  Total Count: 4861 24793 26736 65396 54124 44366 11534 1663371 
Branch_type:  BRANCH_INDIRECT_CALL:  Total Count: 32859 1913 10303 16628 5201 10264 3421 264603 
Branch_type:  BRANCH_RETURN:  Total Count: 83480 81157 36235 111519 101247 109136 22992 1695397 
Number of unique branch instructions: 9858
Upper 32 bits: 
aaaa
ffff
ffff0000
Unique upper 32 bits: 3
Unique upper 36 bits: 3
Unique upper 40 bits: 5
Unique upper 44 bits: 32
Unique upper 48 bits: 154
Variant_0 : 1266 0.309082
Variant_1 : 1165 0.284424
Variant_2 : 952 0.232422
Variant_3 : 704 0.171875
Offset_3 4068
Offset_4 241
Offset_5 453
Offset_6 505
Offset_7 585
Offset_8 497
Offset_9 466
Offset_10 380
Offset_11 312
Offset_12 270
Offset_13 203
Offset_14 226
Offset_15 192
Offset_16 222
Offset_17 145
Offset_18 120
Offset_19 239
Offset_20 137
Offset_21 235
Offset_22 394
Offset_23 242
Offset_24 328
Offset_25 88
Offset_47 80
Offset_64 1
decode_dispatch_called: 23362107 62.9324
Dispatch_width: 0 12398826 53.0724 33.3997
Dispatch_width: 1 760983 3.25734 2.04992
Dispatch_width: 2 709749 3.03804 1.91191
Dispatch_width: 3 449309 1.92324 1.21034
Dispatch_width: 4 3789838 16.2222 10.209
Dispatch_width: 5 208396 0.892026 0.561373
Dispatch_width: 6 5045006 21.5948 13.5901
Empty_decode_cycles: 13760462 37.0676
ROB_full_cycles: 6082546 16.385
Starvation_cycles_per_kilo_instr: 259.95
Starvation_cycles_per_kilo_instr_3: 219.968
Starvation_cycles_per_kilo_instr_0: 200.767
Branch_type_1  (3,1)  (4,9)  (5,37)  (6,70)  (7,116)  (8,124)  (9,124)  (10,96)  (11,69)  (12,43)  (13,8)  (14,2)  (15,3)  (16,4)  (18,1)  (19,4)  (20,2)  (21,1)  (22,3)  (23,2)  (24,10)  (25,12) 
Branch_type_2  (3,1)  (5,1)  (8,3)  (9,3)  (12,1)  (13,1)  (14,1)  (16,3)  (17,2)  (20,2)  (21,2)  (23,5)  (24,1)  (47,36) 
Branch_type_3  (3,4066)  (4,232)  (5,411)  (6,420)  (7,438)  (8,308)  (9,253)  (10,156)  (11,126)  (12,50)  (13,7)  (64,1) 
Branch_type_4  (6,3)  (7,8)  (8,25)  (9,54)  (10,61)  (11,60)  (12,97)  (13,85)  (14,101)  (15,91)  (16,100)  (17,63)  (18,54)  (19,117)  (20,72)  (21,124)  (22,209)  (23,136)  (24,188)  (25,72) 
Branch_type_5  (8,2)  (9,1)  (10,3)  (11,5)  (12,3)  (13,14)  (14,16)  (15,11)  (16,20)  (17,13)  (18,16)  (19,12)  (20,10)  (21,13)  (22,42)  (23,26)  (24,37) 
Branch_type_6  (5,4)  (6,12)  (7,23)  (8,35)  (9,31)  (10,64)  (11,52)  (12,76)  (13,88)  (14,106)  (15,87)  (16,95)  (17,67)  (18,49)  (19,106)  (20,51)  (21,95)  (22,140)  (23,73)  (24,92)  (25,4)  (47,44) 
Unique trigger count: 
Variant_0_evicts_0 : 0
Variant_0_evicts_1 : 0
Variant_0_evicts_2 : 0
Variant_0_evicts_3 : 0
Variant_1_evicts_0 : 0
Variant_1_evicts_1 : 0
Variant_1_evicts_2 : 0
Variant_1_evicts_3 : 0
Variant_2_evicts_0 : 0
Variant_2_evicts_1 : 0
Variant_2_evicts_2 : 0
Variant_2_evicts_3 : 0
Variant_3_evicts_0 : 0
Variant_3_evicts_1 : 0
Variant_3_evicts_2 : 0
Variant_3_evicts_3 : 0
BTB PER SET UNIQUE ADDR: 20 26 19 28 23 25 16 24 12 22 20 26 25 18 19 14 18 22 20 25 19 18 23 25 18 24 22 25 22 20 22 24 27 15 16 23 22 24 15 18 19 18 23 26 19 12 24 15 22 19 27 21 22 25 20 11 20 18 17 24 22 29 21 23 23 25 24 17 25 25 20 20 28 20 17 12 14 23 18 31 25 13 19 27 25 22 26 22 14 41 19 13 24 20 12 25 15 20 25 28 34 30 21 19 22 20 19 24 12 18 17 30 21 18 20 12 26 25 22 23 22 17 20 16 20 21 10 21 32 18 17 29 21 27 20 25 14 27 21 29 18 27 20 22 24 22 25 18 16 19 23 24 16 22 17 30 24 26 23 24 24 22 25 28 21 21 26 17 27 17 21 24 23 20 24 19 21 18 20 26 17 21 19 23 31 29 12 24 26 18 20 15 15 27 21 15 16 23 22 23 26 26 19 17 17 22 22 23 21 21 20 25 21 20 23 25 20 25 17 37 14 26 15 21 19 23 28 22 16 29 21 13 21 27 20 29 25 21 22 14 23 22 28 25 22 20 20 21 24 23 27 24 22 17 27 26 16 17 16 19 25 18 9 22 20 15 20 19 19 20 19 22 18 14 16 15 21 26 20 22 16 21 16 17 26 17 16 31 32 26 24 17 21 27 18 28 21 25 21 20 19 18 20 36 20 29 26 21 31 22 22 27 18 33 23 13 28 21 19 28 20 26 16 21 23 29 22 16 20 14 21 29 18 20 21 25 17 20 19 38 21 23 16 24 27 24 17 23 19 21 23 20 26 22 20 27 23 26 18 16 18 27 19 29 22 25 11 24 23 22 22 16 24 23 14 31 24 27 20 23 23 22 16 12 15 22 27 28 22 24 31 13 24 27 16 14 20 20 28 23 16 24 21 20 27 25 24 25 21 23 24 18 17 26 21 20 20 30 36 31 20 26 23 25 30 17 26 17 23 21 26 21 18 24 28 25 24 19 19 25 26 20 15 27 33 19 16 22 27 23 28 32 25 17 28 33 26 26 18 29 17 20 17 25 31 20 19 23 27 25 23 24 24 21 23 33 26 33 16 23 31 25 20 23 14 25 34 28 26 23 20 26 18 17 17 20 27 27 19 25 18 28 19 34 20 17 17 31 29 25 21 31 23 20 21 26 20 29 17 16 16 22 24 15 21 32 35 15 17 29 28 26 24 22 26 29 19 24 24 21 27 19 26 24 26 29 15 25 17 20 20 30 22 24 19 25 20 22 29 26 19 33 22 21 22 29 21 27 21 28 27 24 29 32 22 24 28 30 21 23 24 26 15 22 25 24 19 22 32 25 19 22 21 14 25 17 15 21 23 17 19 21 23 13 22 22 32 21 20 24 30 26 21 16 10 28 14 27 19 24 28 24 16 17 20 28 19 27 18 23 17 25 31 23 24 19 25 27 18 26 22 25 26 31 25 25 20 24 35 17 17 25 18 19 29 23 20 22 23 21 21 13 27 30 20 25 14 22 18 20 22 19 18 25 30 21 25 27 26 30 21 29 19 28 26 22 21 21 25 26 24 24 20 12 15 21 17 27 18 27 15 26 23 31 13 23 19 18 17 15 21 21 15 22 17 20 29 23 18 25 22 23 21 20 20 19 23 22 21 18 26 19 23 19 21 26 21 30 36 20 19 17 20 25 30 30 21 22 19 18 23 21 24 22 16 23 31 21 18 15 22 14 13 24 22 28 17 24 20 25 24 28 19 16 23 18 28 20 25 30 14 25 22 18 24 20 18 24 18 13 17 12 26 24 20 31 19 19 22 22 34 25 33 29 34 20 23 22 22 17 21 34 28 31 19 27 34 31 13 26 21 27 17 27 25 21 18 24 24 27 20 29 23 22 16 26 24 21 24 21 24 20 22 23 21 26 19 34 19 25 22 18 13 22 30 31 28 26 26 26 23 24 17 23 27 15 25 15 29 18 17 28 25 19 20 12 20 22 18 23 27 15 19 27 23 22 29 18 23 20 26 16 18 19 20 27 31 22 19 18 22 19 20 26 13 26 20 27 22 30 19 22 21 23 24 24 35 20 21 24 23 25 21 25 20 20 13 27 19 17 27 31 27 19 20 27 21 21 25 25 17 30 22 17 18 22 22 27 21 27 22 23 18 24 20 24 24 21 28 23 24 22 21 28 26 18 28 23 14 24 25 24 26 21 27 18 32 26 29 29 18 30 25 22 21 31 33 19 27 23 28 25 21 19 22 20 20 23 30 22 29 29 18 21 25 27 18 32 19 27 29 24 25 16 19 21 12 18 10 15 17 27 20 14 
BTB PER SET COUNT: 421 146 1525 191 693 176 862 231 469 135 116 667 5554 1108 109 88 711 1378 383 148 118 183 283 189 63 180 134 381 365 318 267 215 189 88 94 512 161 470 100 1537 103 72 158 560 913 68 259 126 540 140 206 545 177 186 161 327 116 122 217 210 125 306 190 164 181 272 136 861 178 141 524 414 206 107 94 90 95 439 156 237 496 81 225 345 139 482 134 142 397 341 302 313 333 146 45 169 245 441 193 1899 271 499 117 200 1343 91 129 188 1005 610 131 225 495 110 165 360 175 209 1520 344 368 66 118 97 121 186 42 951 289 312 129 843 129 178 157 228 1060 206 133 217 86 595 157 104 114 148 813 137 100 240 154 221 830 163 70 245 579 191 242 298 117 248 223 141 843 320 146 79 178 454 117 195 136 148 193 261 134 172 470 418 189 339 230 173 281 393 90 166 225 507 117 87 84 208 135 122 76 290 125 118 166 177 1143 88 68 166 164 348 552 1069 137 236 105 4097 138 965 131 200 1347 327 91 199 255 120 105 173 207 233 361 249 98 53 123 186 285 10009 183 216 280 75 419 144 187 446 179 587 276 136 146 125 173 167 166 73 179 314 94 137 109 156 280 113 26 267 156 57 81 113 969 155 118 341 254 70 339 63 133 169 109 439 55 156 507 399 174 123 100 387 262 135 182 70 144 477 95 193 616 139 121 442 133 110 136 258 82 238 201 137 320 550 278 241 80 191 857 320 195 152 124 194 126 936 88 132 397 239 244 103 111 83 148 226 98 111 111 178 83 342 57 398 144 980 63 240 314 145 104 182 130 172 262 161 206 124 104 164 127 231 254 101 126 200 119 188 143 853 30 186 154 145 152 147 161 412 142 333 153 149 255 462 447 134 559 89 94 121 496 182 259 438 305 90 133 234 80 72 105 137 582 577 86 144 167 137 234 173 140 360 115 216 124 51 122 477 105 117 163 1632 399 220 105 155 147 196 231 109 556 122 170 676 224 139 111 120 497 190 148 264 108 131 533 128 132 172 613 141 409 169 193 130 466 580 173 73 266 678 214 182 117 209 103 215 100 200 242 184 8371 111 146 154 182 180 182 113 128 216 146 517 62 222 246 428 139 150 218 423 211 165 254 221 352 221 368 100 74 205 543 548 133 136 149 250 125 384 137 103 71 303 223 146 268 713 641 566 143 214 110 263 83 196 69 176 155 126 149 370 516 760 108 1403 279 173 228 142 207 234 221 750 170 491 181 100 196 146 186 455 49 151 127 1050 106 231 354 300 121 143 168 133 218 216 101 268 127 183 453 175 216 185 166 507 585 169 155 324 705 176 196 246 154 135 138 244 86 2713 192 193 305 200 298 184 234 132 452 67 164 88 1573 710 194 92 88 158 152 61 114 162 230 1360 78 159 250 923 874 95 34 186 57 184 187 685 202 163 62 303 141 200 106 398 655 129 101 217 615 189 184 222 204 428 93 299 135 166 245 359 795 225 456 217 567 60 83 197 95 130 484 301 142 178 567 607 184 70 256 225 4257 197 112 868 1446 179 144 147 857 168 359 310 168 176 207 205 160 228 712 225 609 175 150 144 278 191 137 159 200 90 325 169 667 483 116 159 533 192 500 264 37 177 112 134 72 84 163 457 486 152 423 111 367 289 91 543 139 223 157 492 180 104 166 175 221 548 189 1880 219 93 91 311 289 226 286 95 222 79 605 201 271 220 891 86 154 191 1343 112 581 626 120 175 230 314 96 86 129 94 58 183 280 212 67 283 95 229 183 237 458 60 171 125 192 232 133 292 750 171 604 115 155 244 113 168 91 90 238 817 166 151 503 419 160 108 172 718 239 172 264 321 531 118 132 141 127 150 120 5812 245 224 319 771 278 788 53 652 161 210 87 161 912 116 108 151 152 232 175 251 191 159 324 470 175 106 524 230 150 146 130 193 621 135 147 194 102 1330 458 399 153 147 837 226 925 154 212 146 331 277 100 153 365 81 152 80 181 118 246 275 159 92 141 70 112 125 2147 171 154 56 216 198 390 161 177 159 135 234 182 488 575 788 85 203 265 129 119 113 179 122 143 490 85 182 104 257 128 307 150 171 156 206 177 521 679 902 161 174 120 264 97 569 91 715 67 177 108 87 222 244 567 126 151 624 143 162 450 199 87 1017 200 80 139 294 201 158 157 186 179 742 1138 2626 151 238 186 147 153 486 243 187 291 189 188 104 872 157 79 133 198 285 194 144 681 164 279 148 331 237 238 403 596 395 101 672 555 511 196 172 184 1288 184 461 714 138 115 1623 180 636 263 683 128 144 152 396 97 264 143 269 411 209 185 110 116 174 72 331 49 117 295 702 142 71 
To predecode: 0
Predecoding something: 0
Predecode request dropped: 0
sizeofblock_0 0
sizeofblock_1 130484
sizeofblock_2 71903
sizeofblock_3 16548
sizeofblock_4 2882
sizeofblock_5 84
sizeofblock_6 0
sizeofblock_7 0
sizeofblock_8 0
Variant_0 Correct: 1574159 Incorrect: 0 Accuracy: 1
Variant_1 Correct: 2052226 Incorrect: 0 Accuracy: 1
Variant_2 Correct: 1894891 Incorrect: 0 Accuracy: 1
Variant_3 Correct: 1704054 Incorrect: 9499 Accuracy: 0.994457
