
*** ChampSim Multicore Out-of-Order Simulator ***

Warmup Instructions: 50000000
Simulation Instructions: 50000000
Number of CPUs: 1
LLC sets: 2048
LLC ways: 16
Off-chip DRAM Size: 4096 MB Channels: 1 Width: 64-bit Data Rate: 6400 MT/s
CPU 0 runs ./micro_traces/srv388.trace.gz
.gz
ITLB has LRU replacement policy
DTLB has LRU replacement policy
STLB has LRU replacement policy
FDIP Prefetcher at L1I
L1I has LRU replacement policy
L1D has LRU replacement policy
Initialize SRRIP state for L2C
Initialize DRRIP state for LLC
Heartbeat_Variant_0 : 1380 0.336914 per_variant_size: 0 1380 0 0 0 0 0 0 0 
Heartbeat_Variant_1 : 2453 0.598877 per_variant_size: 0 180 2273 0 0 0 0 0 0 
Heartbeat_Variant_2 : 0 0 per_variant_size: 0 0 0 0 0 0 0 0 0 
Heartbeat_Variant_3 : 0 0 per_variant_size: 0 0 0 0 0 0 0 0 0 
Heartbeat_Variant_0_evicts 0 : 5521 1 : 7 2 : 0 3 : 0 
Heartbeat_Variant_1_evicts 0 : 3 1 : 0 2 : 0 3 : 0 
Heartbeat_Variant_2_evicts 0 : 0 1 : 0 2 : 0 3 : 0 
Heartbeat_Variant_3_evicts 0 : 0 1 : 0 2 : 0 3 : 0 
Heartbeat CPU 0 instructions: 10000003 cycles: 2797452 heartbeat IPC: 3.57468 cumulative IPC: 3.57468 (Simulation time: 0 hr 1 min 50 sec) 
Heartbeat_Variant_0 : 1390 0.339355 per_variant_size: 0 1390 0 0 0 0 0 0 0 
Heartbeat_Variant_1 : 2464 0.601562 per_variant_size: 0 167 2297 0 0 0 0 0 0 
Heartbeat_Variant_2 : 0 0 per_variant_size: 0 0 0 0 0 0 0 0 0 
Heartbeat_Variant_3 : 0 0 per_variant_size: 0 0 0 0 0 0 0 0 0 
Heartbeat_Variant_0_evicts 0 : 5612 1 : 5 2 : 0 3 : 0 
Heartbeat_Variant_1_evicts 0 : 3 1 : 0 2 : 0 3 : 0 
Heartbeat_Variant_2_evicts 0 : 0 1 : 0 2 : 0 3 : 0 
Heartbeat_Variant_3_evicts 0 : 0 1 : 0 2 : 0 3 : 0 
Heartbeat CPU 0 instructions: 20000000 cycles: 5593517 heartbeat IPC: 3.57645 cumulative IPC: 3.57557 (Simulation time: 0 hr 3 min 30 sec) 
Heartbeat_Variant_0 : 1390 0.339355 per_variant_size: 0 1390 0 0 0 0 0 0 0 
Heartbeat_Variant_1 : 2464 0.601562 per_variant_size: 0 161 2303 0 0 0 0 0 0 
Heartbeat_Variant_2 : 0 0 per_variant_size: 0 0 0 0 0 0 0 0 0 
Heartbeat_Variant_3 : 0 0 per_variant_size: 0 0 0 0 0 0 0 0 0 
Heartbeat_Variant_0_evicts 0 : 5668 1 : 0 2 : 0 3 : 0 
Heartbeat_Variant_1_evicts 0 : 0 1 : 0 2 : 0 3 : 0 
Heartbeat_Variant_2_evicts 0 : 0 1 : 0 2 : 0 3 : 0 
Heartbeat_Variant_3_evicts 0 : 0 1 : 0 2 : 0 3 : 0 
Heartbeat CPU 0 instructions: 30000001 cycles: 8389930 heartbeat IPC: 3.57601 cumulative IPC: 3.57572 (Simulation time: 0 hr 5 min 12 sec) 
Heartbeat_Variant_0 : 1452 0.354492 per_variant_size: 0 1452 0 0 0 0 0 0 0 
Heartbeat_Variant_1 : 2620 0.639648 per_variant_size: 0 98 2522 0 0 0 0 0 0 
Heartbeat_Variant_2 : 0 0 per_variant_size: 0 0 0 0 0 0 0 0 0 
Heartbeat_Variant_3 : 0 0 per_variant_size: 0 0 0 0 0 0 0 0 0 
Heartbeat_Variant_0_evicts 0 : 5722 1 : 143 2 : 0 3 : 0 
Heartbeat_Variant_1_evicts 0 : 139 1 : 0 2 : 0 3 : 0 
Heartbeat_Variant_2_evicts 0 : 0 1 : 0 2 : 0 3 : 0 
Heartbeat_Variant_3_evicts 0 : 0 1 : 0 2 : 0 3 : 0 
Heartbeat CPU 0 instructions: 40000003 cycles: 11186617 heartbeat IPC: 3.57566 cumulative IPC: 3.5757 (Simulation time: 0 hr 6 min 53 sec) 
Heartbeat_Variant_0 : 1451 0.354248 per_variant_size: 0 1451 0 0 0 0 0 0 0 
Heartbeat_Variant_1 : 2622 0.640137 per_variant_size: 0 103 2519 0 0 0 0 0 0 
Heartbeat_Variant_2 : 0 0 per_variant_size: 0 0 0 0 0 0 0 0 0 
Heartbeat_Variant_3 : 0 0 per_variant_size: 0 0 0 0 0 0 0 0 0 
Heartbeat_Variant_0_evicts 0 : 5596 1 : 17 2 : 0 3 : 0 
Heartbeat_Variant_1_evicts 0 : 18 1 : 0 2 : 0 3 : 0 
Heartbeat_Variant_2_evicts 0 : 0 1 : 0 2 : 0 3 : 0 
Heartbeat_Variant_3_evicts 0 : 0 1 : 0 2 : 0 3 : 0 
Heartbeat CPU 0 instructions: 50000000 cycles: 13982556 heartbeat IPC: 3.57661 cumulative IPC: 3.57588 (Simulation time: 0 hr 8 min 39 sec) 

Warmup complete CPU 0 instructions: 50000002 cycles: 13982557 (Simulation time: 0 hr 8 min 39 sec) 

Cycle: 20000000 FTQ IN: 58406439 FTQ occupancy: 20.4884 DECODE IN: 58406417 DECODE occupancy: 53.2436 ROB IN: 58406371 ROB occupancy: 318.232 ROB OUT: 58406209
Heartbeat_Variant_0 : 1452 0.354492 per_variant_size: 0 1452 0 0 0 0 0 0 0 
Heartbeat_Variant_1 : 2641 0.644775 per_variant_size: 0 109 2532 0 0 0 0 0 0 
Heartbeat_Variant_2 : 0 0 per_variant_size: 0 0 0 0 0 0 0 0 0 
Heartbeat_Variant_3 : 0 0 per_variant_size: 0 0 0 0 0 0 0 0 0 
Heartbeat_Variant_0_evicts 0 : 5710 1 : 133 2 : 0 3 : 0 
Heartbeat_Variant_1_evicts 0 : 135 1 : 0 2 : 0 3 : 0 
Heartbeat_Variant_2_evicts 0 : 0 1 : 0 2 : 0 3 : 0 
Heartbeat_Variant_3_evicts 0 : 0 1 : 0 2 : 0 3 : 0 
Heartbeat CPU 0 instructions: 60000003 cycles: 21223358 heartbeat IPC: 1.38106 cumulative IPC: 1.38106 (Simulation time: 0 hr 10 min 41 sec) 
Heartbeat_Variant_0 : 1453 0.354736 per_variant_size: 0 1453 0 0 0 0 0 0 0 
Heartbeat_Variant_1 : 2641 0.644775 per_variant_size: 0 112 2529 0 0 0 0 0 0 
Heartbeat_Variant_2 : 0 0 per_variant_size: 0 0 0 0 0 0 0 0 0 
Heartbeat_Variant_3 : 0 0 per_variant_size: 0 0 0 0 0 0 0 0 0 
Heartbeat_Variant_0_evicts 0 : 5544 1 : 5 2 : 0 3 : 0 
Heartbeat_Variant_1_evicts 0 : 4 1 : 0 2 : 0 3 : 0 
Heartbeat_Variant_2_evicts 0 : 0 1 : 0 2 : 0 3 : 0 
Heartbeat_Variant_3_evicts 0 : 0 1 : 0 2 : 0 3 : 0 
Heartbeat CPU 0 instructions: 70000000 cycles: 28366855 heartbeat IPC: 1.39987 cumulative IPC: 1.3904 (Simulation time: 0 hr 12 min 43 sec) 
Cycle: 30000000 FTQ IN: 13887880 FTQ occupancy: 15.0012 DECODE IN: 13887782 DECODE occupancy: 38.1235 ROB IN: 13887768 ROB occupancy: 249.856 ROB OUT: 13887582
Heartbeat_Variant_0 : 1452 0.354492 per_variant_size: 0 1452 0 0 0 0 0 0 0 
Heartbeat_Variant_1 : 2643 0.645264 per_variant_size: 0 104 2539 0 0 0 0 0 0 
Heartbeat_Variant_2 : 0 0 per_variant_size: 0 0 0 0 0 0 0 0 0 
Heartbeat_Variant_3 : 0 0 per_variant_size: 0 0 0 0 0 0 0 0 0 
Heartbeat_Variant_0_evicts 0 : 5617 1 : 119 2 : 0 3 : 0 
Heartbeat_Variant_1_evicts 0 : 120 1 : 0 2 : 0 3 : 0 
Heartbeat_Variant_2_evicts 0 : 0 1 : 0 2 : 0 3 : 0 
Heartbeat_Variant_3_evicts 0 : 0 1 : 0 2 : 0 3 : 0 
Heartbeat CPU 0 instructions: 80000003 cycles: 35523072 heartbeat IPC: 1.39739 cumulative IPC: 1.39272 (Simulation time: 0 hr 14 min 44 sec) 
Cycle: 40000000 FTQ IN: 13816054 FTQ occupancy: 14.936 DECODE IN: 13816146 DECODE occupancy: 37.9738 ROB IN: 13816178 ROB occupancy: 249.011 ROB OUT: 13816260
Heartbeat_Variant_0 : 1455 0.355225 per_variant_size: 0 1455 0 0 0 0 0 0 0 
Heartbeat_Variant_1 : 2641 0.644775 per_variant_size: 0 94 2547 0 0 0 0 0 0 
Heartbeat_Variant_2 : 0 0 per_variant_size: 0 0 0 0 0 0 0 0 0 
Heartbeat_Variant_3 : 0 0 per_variant_size: 0 0 0 0 0 0 0 0 0 
Heartbeat_Variant_0_evicts 0 : 5556 1 : 49 2 : 0 3 : 0 
Heartbeat_Variant_1_evicts 0 : 46 1 : 0 2 : 0 3 : 0 
Heartbeat_Variant_2_evicts 0 : 0 1 : 0 2 : 0 3 : 0 
Heartbeat_Variant_3_evicts 0 : 0 1 : 0 2 : 0 3 : 0 
Heartbeat CPU 0 instructions: 90000003 cycles: 42783956 heartbeat IPC: 1.37724 cumulative IPC: 1.38882 (Simulation time: 0 hr 16 min 47 sec) 
Heartbeat_Variant_0 : 1452 0.354492 per_variant_size: 0 1452 0 0 0 0 0 0 0 
Heartbeat_Variant_1 : 2644 0.645508 per_variant_size: 0 80 2564 0 0 0 0 0 0 
Heartbeat_Variant_2 : 0 0 per_variant_size: 0 0 0 0 0 0 0 0 0 
Heartbeat_Variant_3 : 0 0 per_variant_size: 0 0 0 0 0 0 0 0 0 
Heartbeat_Variant_0_evicts 0 : 5527 1 : 10 2 : 0 3 : 0 
Heartbeat_Variant_1_evicts 0 : 13 1 : 0 2 : 0 3 : 0 
Heartbeat_Variant_2_evicts 0 : 0 1 : 0 2 : 0 3 : 0 
Heartbeat_Variant_3_evicts 0 : 0 1 : 0 2 : 0 3 : 0 
Heartbeat CPU 0 instructions: 100000000 cycles: 49944354 heartbeat IPC: 1.39657 cumulative IPC: 1.39036 (Simulation time: 0 hr 18 min 44 sec) 
Finished CPU 0 instructions: 50000002 cycles: 35961798 cumulative IPC: 1.39036 (Simulation time: 0 hr 18 min 44 sec) 

ChampSim completed all CPUs

Region of Interest Statistics

CPU 0 cumulative IPC: 1.39036 instructions: 50000002 cycles: 35961798
 Fetch stage stalled: 45.7964  Sim cycles: 35961798 fetch stall cycle: 16469218
 Empty decode stage: 25.4004  Sim cycles: 35961798 fetch stall cycle: 9134432
ITLB TOTAL     ACCESS:    5838318  HIT:    5341738  MISS:     496580  HIT %:    91.4945  MISS %:    8.50553   MPKI: 9.9316
ITLB LOAD TRANSLATION INSTRUCTION	ACCESS:    5703596  HIT:    5207016  MISS:     496580  HIT %:    91.2936  MISS %:    8.70644  MPKI: 9.9316
ITLB TRANSLATION FROM L1D PREFETCHER INSTRUCTION	ACCESS:     134722  HIT:     134722  MISS:          0  HIT %:        100  MISS %:          0  MPKI: 0

ITLB AVERAGE MISS LATENCY: 9.04594 cycles
ITLB RQ	ACCESS:    7943633	FORWARD:          0	MERGED:    1618091	TO_CACHE:    6325542

DTLB TOTAL     ACCESS:    8956185  HIT:    8481981  MISS:     474204  HIT %:    94.7053  MISS %:    5.29471   MPKI: 9.48408
DTLB LOAD TRANSLATION DATA	ACCESS:    8956185  HIT:    8481981  MISS:     474204  HIT %:    94.7053  MISS %:    5.29471  MPKI: 9.48408

DTLB AVERAGE MISS LATENCY: 9.3112 cycles
DTLB RQ	ACCESS:   13328530	FORWARD:          0	MERGED:    4336209	TO_CACHE:    8992321

STLB TOTAL     ACCESS:    1217354  HIT:    1215305  MISS:       2049  HIT %:    99.8317  MISS %:   0.168316   MPKI: 0.04098
STLB LOAD TRANSLATION INSTRUCTION	ACCESS:     496580  HIT:     496368  MISS:        212  HIT %:    99.9573  MISS %:   0.042692  MPKI: 0.00424
STLB LOAD TRANSLATION DATA	ACCESS:     474204  HIT:     472396  MISS:       1808  HIT %:    99.6187  MISS %:   0.381271  MPKI: 0.03616
STLB TRANSLATION FROM L1D PREFETCHER DATA	ACCESS:     246570  HIT:     246541  MISS:         29  HIT %:    99.9882  MISS %:  0.0117614  MPKI: 0.00058

STLB AVERAGE MISS LATENCY: 68.6613 cycles
STLB RQ	ACCESS:    1337404	FORWARD:          0	MERGED:     120021	TO_CACHE:    1217383

STLB Hit, L1D data hit: 0
STLB Hit, L2C data hit: 0
STLB Hit, LLC data hit: 0
STLB Hit, LLC data miss: 0
STLB STLB hints to L2: 0
L1D TOTAL     ACCESS:   13072124  HIT:   11950838  MISS:    1121286  HIT %:    91.4223  MISS %:    8.57769   MPKI: 22.4257
L1D LOAD DATA	ACCESS:    6540999  HIT:    5799199  MISS:     741800  HIT %:    88.6592  MISS %:    11.3408  MPKI: 14.836
L1D RFO DATA	ACCESS:    6205891  HIT:    5920789  MISS:     285102  HIT %:    95.4059  MISS %:    4.59405  MPKI: 5.70204
L1D PREFETCH DATA	ACCESS:     325234  HIT:     230850  MISS:      94384  HIT %:    70.9797  MISS %:    29.0203  MPKI: 1.88768

L1D PREFETCH  REQUESTED:     733603  ISSUED:     733603  USEFUL:      34075  USELESS:      68202
L1D USEFUL LOAD PREFETCHES:      34075 PREFETCH ISSUED TO LOWER LEVEL:     102436  ACCURACY: 33.2647
 TIMELY PREFETCHES:      34075 LATE PREFETCHES: 7897 DROPPED PREFETCHES: 5
L1D AVERAGE MISS LATENCY: 226374 cycles
L1D RQ	ACCESS:   10678011	FORWARD:          0	MERGED:    3932726	TO_CACHE:    6576123
L1D WQ	ACCESS:    6952044	FORWARD:     169527	MERGED:     199637	TO_CACHE:    6752407
L1D PQ	ACCESS:     366984	FORWARD:          0	MERGED:          0	TO_CACHE:     366619

L1D UNIQUE REGIONS ACCESSED: 0
L1D REGIONS CONFLICTS: 0
L1D Cross Page Prefetch Requests: 6978
L1D Same Page Prefetch Requests: 747597
L1D ROI Sum of L1D PQ occupancy: 4646937
L1D PREFETCHES PUSHED FROM L2C: 0
L1I TOTAL     ACCESS:    7121244  HIT:    4345413  MISS:    2775831  HIT %:    61.0204  MISS %:    38.9796   MPKI: 55.5166
L1I LOAD INSTRUCTION	ACCESS:    6454198  HIT:    3678367  MISS:    2775831  HIT %:    56.9919  MISS %:    43.0081  MPKI: 55.5166
L1I PREFETCH INSTRUCTION	ACCESS:     667046  HIT:     667046  MISS:          0  HIT %:        100  MISS %:          0  MPKI: 0

L1I PREFETCH  REQUESTED:    1614215  ISSUED:    1614215  USEFUL:          0  USELESS:          0
L1I USEFUL LOAD PREFETCHES:          0 PREFETCH ISSUED TO LOWER LEVEL:          0  ACCURACY: -nan
 TIMELY PREFETCHES:          0 LATE PREFETCHES: 0 DROPPED PREFETCHES: 0
L1I AVERAGE MISS LATENCY: 17.2266 cycles
L1I RQ	ACCESS:    9569395	FORWARD:          0	MERGED:    2810927	TO_CACHE:    6758468
L1I PQ	ACCESS:    1614215	FORWARD:          0	MERGED:     429050	TO_CACHE:    1185165

L1BTB TOTAL     ACCESS:    5671887  HIT:    2030314  MISS:    3641573  HIT %:    35.7961  MISS %:    64.2039   MPKI: 72.8315
L1BTB BRANCH_DIRECT_JUMP	ACCESS:     547661 HIT:     143386 MISS:     404275 AVERAGE STALL: 62.6506 AVERAGE FETCH STALL: 14.1257 AVERAGE FETCH QUEUE STALL: 26.5264 AVERAGE DECODE STALL: 21.1044 AVERAGE EXECUTE STALL: 2.26368e+15
L1BTB BRANCH_INDIRECT	ACCESS:     182452 HIT:      65571 MISS:     116881 AVERAGE STALL: 116.012 AVERAGE FETCH STALL: 10.7925 AVERAGE FETCH QUEUE STALL: 19.039 AVERAGE DECODE STALL: 13.4321 AVERAGE EXECUTE STALL: 71.785
L1BTB BRANCH_CONDITIONAL	ACCESS:    2701304 HIT:    1404859 MISS:    1296445 AVERAGE STALL: 71.421 AVERAGE FETCH STALL: 23.2547 AVERAGE FETCH QUEUE STALL: 26.9647 AVERAGE DECODE STALL: 20.5248 AVERAGE EXECUTE STALL: 3.63913e+15
L1BTB BRANCH_DIRECT_CALL	ACCESS:     948360 HIT:     105212 MISS:     843148 AVERAGE STALL: 62.7023 AVERAGE FETCH STALL: 25.1685 AVERAGE FETCH QUEUE STALL: 19.1831 AVERAGE DECODE STALL: 17.7033 AVERAGE EXECUTE STALL: 8.95908e+15
L1BTB BRANCH_INDIRECT_CALL	ACCESS:     171879 HIT:      20949 MISS:     150930 AVERAGE STALL: 139.433 AVERAGE FETCH STALL: 12.2492 AVERAGE FETCH QUEUE STALL: 17.6624 AVERAGE DECODE STALL: 11.7276 AVERAGE EXECUTE STALL: 97.3019
L1BTB BRANCH_RETURN	ACCESS:    1120231 HIT:     290337 MISS:     829894 AVERAGE STALL: 49.6093 AVERAGE FETCH STALL: 16.5373 AVERAGE FETCH QUEUE STALL: 4.63516 AVERAGE DECODE STALL: 6.11453 AVERAGE EXECUTE STALL: 4.33551e+14
L1BTB BRANCH_OTHER ACCESS:          0 HIT:          0 MISS:          0 AVERAGE STALL: -nan AVERAGE FETCH STALL: -nan AVERAGE FETCH QUEUE STALL: -nan AVERAGE DECODE STALL: -nan AVERAGE EXECUTE STALL: -nan
L1BTB TOTAL ROB OCCUPANCY AT BTB MISS: 2.76124

L2BTB TOTAL     ACCESS:    3616276  HIT:    3551112  MISS:      65164  HIT %:     98.198  MISS %:    1.80196   MPKI: 1.30328
L2BTB BRANCH_DIRECT_JUMP	ACCESS:     400178 HIT:     396111 MISS:       4067 AVERAGE STALL: 62.6506 AVERAGE FETCH STALL: 14.1257 AVERAGE FETCH QUEUE STALL: 26.5264 AVERAGE DECODE STALL: 21.1044 AVERAGE EXECUTE STALL: 2.26368e+15
L2BTB BRANCH_INDIRECT	ACCESS:     106568 HIT:     103865 MISS:       2703 AVERAGE STALL: 116.012 AVERAGE FETCH STALL: 10.7925 AVERAGE FETCH QUEUE STALL: 19.039 AVERAGE DECODE STALL: 13.4321 AVERAGE EXECUTE STALL: 71.785
L2BTB BRANCH_CONDITIONAL	ACCESS:    1296445 HIT:    1291314 MISS:       5131 AVERAGE STALL: 71.421 AVERAGE FETCH STALL: 23.2547 AVERAGE FETCH QUEUE STALL: 26.9647 AVERAGE DECODE STALL: 20.5248 AVERAGE EXECUTE STALL: 3.63913e+15
L2BTB BRANCH_DIRECT_CALL	ACCESS:     843148 HIT:     841059 MISS:       2089 AVERAGE STALL: 62.7023 AVERAGE FETCH STALL: 25.1685 AVERAGE FETCH QUEUE STALL: 19.1831 AVERAGE DECODE STALL: 17.7033 AVERAGE EXECUTE STALL: 8.95908e+15
L2BTB BRANCH_INDIRECT_CALL	ACCESS:     141461 HIT:     131441 MISS:      10020 AVERAGE STALL: 139.433 AVERAGE FETCH STALL: 12.2492 AVERAGE FETCH QUEUE STALL: 17.6624 AVERAGE DECODE STALL: 11.7276 AVERAGE EXECUTE STALL: 97.3019
L2BTB BRANCH_RETURN	ACCESS:     828476 HIT:     787322 MISS:      41154 AVERAGE STALL: 49.6093 AVERAGE FETCH STALL: 16.5373 AVERAGE FETCH QUEUE STALL: 4.63516 AVERAGE DECODE STALL: 6.11453 AVERAGE EXECUTE STALL: 4.33551e+14
L2BTB BRANCH_OTHER ACCESS:          0 HIT:          0 MISS:          0 AVERAGE STALL: -nan AVERAGE FETCH STALL: -nan AVERAGE FETCH QUEUE STALL: -nan AVERAGE DECODE STALL: -nan AVERAGE EXECUTE STALL: -nan
L2BTB TOTAL ROB OCCUPANCY AT BTB MISS: 154.307

L2C TOTAL     ACCESS:    4509244  HIT:    4021218  MISS:     488026  HIT %:    89.1772  MISS %:    10.8228   MPKI: 9.76052
L2C LOAD INSTRUCTION	ACCESS:    2775832  HIT:    2517790  MISS:     258042  HIT %:     90.704  MISS %:    9.29602  MPKI: 5.16084
L2C LOAD TRANSLATION INSTRUCTION	ACCESS:        248  HIT:         53  MISS:        195  HIT %:     21.371  MISS %:     78.629  MPKI: 0.0039
L2C LOAD DATA	ACCESS:     733888  HIT:     655110  MISS:      78778  HIT %:    89.2657  MISS %:    10.7343  MPKI: 1.57556
L2C RFO DATA	ACCESS:     284928  HIT:     225834  MISS:      59094  HIT %:      79.26  MISS %:      20.74  MPKI: 1.18188
L2C PREFETCH DATA	ACCESS:     188661  HIT:     114066  MISS:      74595  HIT %:    60.4608  MISS %:    39.5392  MPKI: 1.4919
L2C WRITEBACK DATA	ACCESS:     523762  HIT:     507752  MISS:      16010  HIT %:    96.9433  MISS %:    3.05673  MPKI: 0.3202
L2C LOAD TRANSLATION DATA	ACCESS:       1882  HIT:        581  MISS:       1301  HIT %:    30.8714  MISS %:    69.1286  MPKI: 0.02602
L2C TRANSLATION FROM L1D PREFETCHER DATA	ACCESS:         43  HIT:         32  MISS:         11  HIT %:    74.4186  MISS %:    25.5814  MPKI: 0.00022

L2C PREFETCH  REQUESTED:      94063  ISSUED:      94063  USEFUL:       7885  USELESS:      67279
L2C USEFUL LOAD PREFETCHES:       7885 PREFETCH ISSUED TO LOWER LEVEL:      75038  ACCURACY: 10.508
 TIMELY PREFETCHES:       7885 LATE PREFETCHES: 444 DROPPED PREFETCHES: 0
L2C AVERAGE MISS LATENCY: 37.7583 cycles
L2C RQ	ACCESS:    3796857	FORWARD:          0	MERGED:          0	TO_CACHE:    3796826
L2C WQ	ACCESS:     523762	FORWARD:         32	MERGED:          0	TO_CACHE:     523762
L2C PQ	ACCESS:     196499	FORWARD:          0	MERGED:       3307	TO_CACHE:     193191

L2C Dense regions hint from L2: 0
PSCL5 TOTAL     ACCESS:       4110  HIT:       2055  MISS:       2055  HIT %:         50  MISS %:         50   MPKI: 0.0411
PSCL5 LOAD TRANSLATION INSTRUCTION	ACCESS:       4024  HIT:       2012  MISS:       2012  HIT %:         50  MISS %:         50  MPKI: 0.04024
PSCL5 TRANSLATION FROM L1D PREFETCHER INSTRUCTION	ACCESS:         86  HIT:         43  MISS:         43  HIT %:         50  MISS %:         50  MPKI: 0.00086


PSCL4 TOTAL     ACCESS:       3845  HIT:       1915  MISS:       1930  HIT %:    49.8049  MISS %:    50.1951   MPKI: 0.0386
PSCL4 LOAD TRANSLATION INSTRUCTION	ACCESS:       3221  HIT:       1880  MISS:       1341  HIT %:     58.367  MISS %:     41.633  MPKI: 0.02682
PSCL4 TRANSLATION FROM L1D PREFETCHER INSTRUCTION	ACCESS:         63  HIT:         35  MISS:         28  HIT %:    55.5556  MISS %:    44.4444  MPKI: 0.00056
PSCL4 LOAD TRANSLATION DATA	ACCESS:        554  HIT:          0  MISS:        554  HIT %:          0  MISS %:        100  MPKI: 0.01108
PSCL4 TRANSLATION FROM L1D PREFETCHER DATA	ACCESS:          7  HIT:          0  MISS:          7  HIT %:          0  MISS %:        100  MPKI: 0.00014


PSCL3 TOTAL     ACCESS:       3899  HIT:       1942  MISS:       1957  HIT %:    49.8076  MISS %:    50.1924   MPKI: 0.03914
PSCL3 LOAD TRANSLATION INSTRUCTION	ACCESS:       3248  HIT:       1907  MISS:       1341  HIT %:    58.7131  MISS %:    41.2869  MPKI: 0.02682
PSCL3 TRANSLATION FROM L1D PREFETCHER INSTRUCTION	ACCESS:         63  HIT:         35  MISS:         28  HIT %:    55.5556  MISS %:    44.4444  MPKI: 0.00056
PSCL3 LOAD TRANSLATION DATA	ACCESS:        581  HIT:          0  MISS:        581  HIT %:          0  MISS %:        100  MPKI: 0.01162
PSCL3 TRANSLATION FROM L1D PREFETCHER DATA	ACCESS:          7  HIT:          0  MISS:          7  HIT %:          0  MISS %:        100  MPKI: 0.00014


PSCL2 TOTAL     ACCESS:       4020  HIT:       1965  MISS:       2055  HIT %:    48.8806  MISS %:    51.1194   MPKI: 0.0411
PSCL2 LOAD TRANSLATION INSTRUCTION	ACCESS:       2133  HIT:       1922  MISS:        211  HIT %:    90.1078  MISS %:    9.89217  MPKI: 0.00422
PSCL2 TRANSLATION FROM L1D PREFETCHER INSTRUCTION	ACCESS:         43  HIT:         43  MISS:          0  HIT %:        100  MISS %:          0  MPKI: 0
PSCL2 LOAD TRANSLATION DATA	ACCESS:       1801  HIT:          0  MISS:       1801  HIT %:          0  MISS %:        100  MPKI: 0.03602
PSCL2 TRANSLATION FROM L1D PREFETCHER DATA	ACCESS:         43  HIT:          0  MISS:         43  HIT %:          0  MISS %:        100  MPKI: 0.00086


LLC TOTAL     ACCESS:     553026  HIT:     525495  MISS:      27531  HIT %:    95.0218  MISS %:    4.97825   MPKI: 0.55062
LLC LOAD INSTRUCTION	ACCESS:     258042  HIT:     257167  MISS:        875  HIT %:    99.6609  MISS %:   0.339092  MPKI: 0.0175
LLC LOAD TRANSLATION INSTRUCTION	ACCESS:        195  HIT:        168  MISS:         27  HIT %:    86.1538  MISS %:    13.8462  MPKI: 0.00054
LLC LOAD DATA	ACCESS:      78341  HIT:      74997  MISS:       3344  HIT %:    95.7315  MISS %:    4.26852  MPKI: 0.06688
LLC RFO DATA	ACCESS:      59081  HIT:      45979  MISS:      13102  HIT %:    77.8237  MISS %:    22.1763  MPKI: 0.26204
LLC PREFETCH DATA	ACCESS:      75038  HIT:      65240  MISS:       9798  HIT %:    86.9426  MISS %:    13.0574  MPKI: 0.19596
LLC WRITEBACK DATA	ACCESS:      81017  HIT:      80684  MISS:        333  HIT %:     99.589  MISS %:   0.411025  MPKI: 0.00666
LLC LOAD TRANSLATION DATA	ACCESS:       1301  HIT:       1249  MISS:         52  HIT %:    96.0031  MISS %:    3.99693  MPKI: 0.00104
LLC TRANSLATION FROM L1D PREFETCHER DATA	ACCESS:         11  HIT:         11  MISS:          0  HIT %:        100  MISS %:          0  MPKI: 0

LLC AVERAGE MISS LATENCY: 153.331 cycles
LLC RQ	ACCESS:     396977	FORWARD:          0	MERGED:          0	TO_CACHE:     396971
LLC WQ	ACCESS:      81018	FORWARD:          7	MERGED:          0	TO_CACHE:      81018
LLC PQ	ACCESS:      75038	FORWARD:          0	MERGED:          0	TO_CACHE:      75037

LLC Dense regions hint to LLC: 0

RAW hits: 1952695
Loads Generated: 12630703
Loads sent to L1D: 10678011
Stores Generated: 6952043
Stores sent to L1D: 6952044
Major fault: 0 Minor fault: 2633
Allocated PAGES: 2633

stream: 
stream:times selected: 1184181
stream:pref_filled: 121367
stream:pref_useful: 24235
stream:pref_late: 7204
stream:misses: 8116
stream:misses_by_poll: 0

CS: 
CS:times selected: 176578
CS:pref_filled: 60050
CS:pref_useful: 36499
CS:pref_late: 6787
CS:misses: 15853
CS:misses_by_poll: 1

CPLX: 
CPLX:times selected: 1006424
CPLX:pref_filled: 19403
CPLX:pref_useful: 4650
CPLX:pref_late: 3156
CPLX:misses: 93641
CPLX:misses_by_poll: 0

NL_L1: 
NL:times selected: 21332
NL:pref_filled: 783
NL:pref_useful: 362
NL:pref_late: 272
NL:misses: 1792
NL:misses_by_poll: 0

total selections: 2388515
total_filled: 94384
total_useful: 34075
total_late: 18666
total_polluted: 1
total_misses_after_warmup: 776925
conflicts: 5517637

test: 117363

DRAM Statistics
 CHANNEL 0
 RQ ROW_BUFFER_HIT:      10193  ROW_BUFFER_MISS:      16992
 DBUS_CONGESTED:         13
 WQ ROW_BUFFER_HIT:       1397  ROW_BUFFER_MISS:      11400  FULL:          0

 AVG_CONGESTED_CYCLE: 5

CPU 0 Branch Prediction Accuracy: 99.8241% MPKI: 0.32188 Average ROB Occupancy at Mispredict: 192.758
Branch types
NOT_BRANCH: 40849206 81.6984%
BRANCH_DIRECT_JUMP: 547661 1.09532%
BRANCH_INDIRECT: 182452 0.364904%
BRANCH_CONDITIONAL: 6180219 12.3604%
BRANCH_DIRECT_CALL: 948360 1.89672%
BRANCH_INDIRECT_CALL: 171879 0.343758%
BRANCH_RETURN: 1120231 2.24046%
BRANCH_OTHER: 0 0%

DRAM PAGES: 1048576
Allocated PAGES: 2633
Average_ROB_Occupancy: 250.696
Average_Decode_Occupancy: 37.9964
Average_FTQ_Occupancy: 14.9114
Indirect max targets: 14 Average targets: 1.17778
Branch_type:  BRANCH_DIRECT_JUMP:  Count Percentage: 2.89966 7.27592 3.94087 14.4893 1.69595 5.97385 1.22926 62.4952 
Branch_type:  BRANCH_INDIRECT:  Count Percentage: 11.7637 3.41888 12.2102 23.3787 1.33895 14.5395 1.07209 32.2778 
Branch_type:  BRANCH_CONDITIONAL:  Count Percentage: 21.0438 3.40866 2.39187 9.18468 1.07188 4.4555 0.757607 57.686 
Branch_type:  BRANCH_DIRECT_CALL:  Count Percentage: 0.788009 1.29926 1.43335 5.40607 1.99518 2.56055 0.932477 85.5851 
Branch_type:  BRANCH_INDIRECT_CALL:  Count Percentage: 9.57296 0.56859 2.99961 4.8562 0 3.55799 0 78.4446 
Branch_type:  BRANCH_RETURN:  Count Percentage: 4.49776 0.699924 3.65908 9.44006 2.12782 5.06094 1.01073 73.5037 
Branch_type:  BRANCH_DIRECT_JUMP:  Total Count: 31781 79746 43193 158806 18588 65475 13473 684964 
Branch_type:  BRANCH_INDIRECT:  Total Count: 43024 12504 44657 85504 4897 53176 3921 118051 
Branch_type:  BRANCH_CONDITIONAL:  Total Count: 2600537 421233 295581 1135017 132460 550598 93623 7128675 
Branch_type:  BRANCH_DIRECT_CALL:  Total Count: 14880 24534 27066 102083 37675 48351 17608 1616107 
Branch_type:  BRANCH_INDIRECT_CALL:  Total Count: 32814 1949 10282 16646 0 12196 0 268891 
Branch_type:  BRANCH_RETURN:  Total Count: 100388 15622 81669 210698 47492 112958 22559 1640570 
Number of unique branch instructions: 10817
Upper 32 bits: 
aaaa
ffff
ffff0000
Unique upper 32 bits: 3
Unique upper 36 bits: 3
Unique upper 40 bits: 5
Unique upper 44 bits: 32
Unique upper 48 bits: 158
Variant_0 : 1452 0.354492
Variant_1 : 2644 0.645508
Variant_2 : 0 0
Variant_3 : 0 0
Offset_3 4469
Offset_4 258
Offset_5 484
Offset_6 542
Offset_7 640
Offset_8 583
Offset_9 523
Offset_10 427
Offset_11 355
Offset_12 327
Offset_13 240
Offset_14 247
Offset_15 194
Offset_16 233
Offset_17 169
Offset_18 149
Offset_19 257
Offset_20 143
Offset_21 235
Offset_22 415
Offset_23 241
Offset_24 351
Offset_25 117
Offset_47 94
decode_dispatch_called: 26312148 73.1669
Dispatch_width: 0 14178032 53.884 39.4253
Dispatch_width: 1 1024984 3.89548 2.8502
Dispatch_width: 2 848798 3.22588 2.36028
Dispatch_width: 3 497112 1.88929 1.38233
Dispatch_width: 4 6344343 24.1118 17.6419
Dispatch_width: 5 104560 0.397383 0.290753
Dispatch_width: 6 3314319 12.5962 9.21622
Empty_decode_cycles: 9649650 26.8331
ROB_full_cycles: 10083165 28.0385
Starvation_cycles_per_kilo_instr: 225.643
Starvation_cycles_per_kilo_instr_3: 161.154
Starvation_cycles_per_kilo_instr_0: 137.445
Branch_type_1  (3,1)  (4,9)  (5,39)  (6,74)  (7,125)  (8,151)  (9,137)  (10,111)  (11,78)  (12,55)  (13,11)  (14,2)  (15,3)  (16,4)  (18,1)  (19,5)  (20,2)  (21,1)  (22,3)  (23,2)  (24,10)  (25,12) 
Branch_type_2  (3,1)  (4,1)  (5,1)  (8,4)  (9,4)  (10,1)  (12,1)  (13,1)  (14,1)  (16,3)  (17,2)  (20,2)  (21,2)  (23,5)  (24,1)  (47,43) 
Branch_type_3  (3,4467)  (4,248)  (5,440)  (6,452)  (7,485)  (8,363)  (9,287)  (10,172)  (11,141)  (12,62)  (13,10) 
Branch_type_4  (6,3)  (7,8)  (8,25)  (9,56)  (10,68)  (11,70)  (12,117)  (13,102)  (14,112)  (15,92)  (16,102)  (17,79)  (18,65)  (19,125)  (20,73)  (21,124)  (22,219)  (23,136)  (24,206)  (25,101) 
Branch_type_5  (8,3)  (9,1)  (10,4)  (11,5)  (12,3)  (13,14)  (14,16)  (15,11)  (16,22)  (17,11)  (18,23)  (19,14)  (20,11)  (21,13)  (22,43)  (23,26)  (24,38) 
Branch_type_6  (5,4)  (6,13)  (7,22)  (8,37)  (9,38)  (10,71)  (11,61)  (12,89)  (13,102)  (14,116)  (15,88)  (16,102)  (17,77)  (18,60)  (19,113)  (20,55)  (21,95)  (22,150)  (23,72)  (24,96)  (25,4)  (47,51) 
Unique trigger count: 
Variant_0_evicts_0 : 0
Variant_0_evicts_1 : 0
Variant_0_evicts_2 : 0
Variant_0_evicts_3 : 0
Variant_1_evicts_0 : 0
Variant_1_evicts_1 : 0
Variant_1_evicts_2 : 0
Variant_1_evicts_3 : 0
Variant_2_evicts_0 : 0
Variant_2_evicts_1 : 0
Variant_2_evicts_2 : 0
Variant_2_evicts_3 : 0
Variant_3_evicts_0 : 0
Variant_3_evicts_1 : 0
Variant_3_evicts_2 : 0
Variant_3_evicts_3 : 0
BTB PER SET UNIQUE ADDR: 35 33 35 36 33 42 44 29 30 36 43 31 39 30 35 37 37 43 31 32 37 26 30 40 34 31 32 39 39 39 39 30 31 36 43 29 42 30 35 43 40 28 32 38 28 42 30 30 37 33 30 39 36 37 37 29 32 31 37 34 42 33 35 36 36 32 35 40 32 35 29 34 39 30 29 46 35 31 43 31 36 36 34 41 37 43 34 31 29 32 42 31 35 35 28 39 45 32 30 35 23 35 40 35 26 44 41 32 41 34 30 37 29 34 41 37 36 28 34 40 37 31 32 45 32 43 38 37 31 38 41 34 33 31 30 39 37 31 27 35 36 36 45 38 37 35 31 35 34 38 37 33 30 45 40 32 41 28 35 36 41 30 28 41 30 38 36 28 36 32 37 34 35 33 36 34 35 37 34 37 37 33 39 31 34 37 38 40 29 35 37 32 38 31 31 40 26 35 40 31 28 38 40 40 35 34 33 36 27 29 38 34 37 36 32 43 37 33 33 42 32 33 41 30 31 35 38 33 36 34 33 34 33 29 29 36 28 35 31 35 48 31 27 37 33 38 32 29 29 36 43 31 37 27 35 40 
BTB PER SET COUNT: 39 341 1601 39 467 47 50 29 36 822 677 1110 54 31 2808 45 2492 1027 330 34 43 1006 34 51 239 533 35 42 3031 51 43 152 1054 7245 4996 30 1513 36 1840 48 1015 342 33 45 35 1296 33 516 821 37 32 43 41 44 38 38 936 285 39 814 68 41 1359 67 37 34 6666 1384 32 856 29 38 945 33 29 49 2160 409 654 41 138 2368 275 441 719 164 328 34 1115 103 367 32 1995 2200 29 723 1409 32 1006 37 1500 38 42 37 28 47 1539 1501 699 689 32 40 33 180 329 39 43 37 2356 2633 39 32 1458 1563 2010 50 328 3170 35 47 712 38 35 33 1012 3541 40 2034 29 38 1224 1217 58 487 38 429 57 36 37 1381 1311 33 1009 50 40 50 2687 286 43 41 44 35 1497 306 33 660 824 32 41 33 47 503 37 156 202 434 2375 40 782 38 48 36 607 35 37 896 1433 46 206 67 906 35 3890 32 31 1082 28 218 694 31 56 43 1334 1727 44 522 2374 40 518 1500 40 1505 1036 4345 472 921 1488 35 34 53 675 783 1293 32 347 41 3264 1715 2096 36 1311 2997 1015 1850 30 43 3596 233 1214 39 52 811 27 40 942 723 34 20601 1500 922 49 47 525 32 38 65 
To predecode: 0
Predecoding something: 0
Predecode request dropped: 0
sizeofblock_0 0
sizeofblock_1 32578
sizeofblock_2 102628
sizeofblock_3 0
sizeofblock_4 0
sizeofblock_5 0
sizeofblock_6 0
sizeofblock_7 0
sizeofblock_8 0
Variant_0 Correct: 1616427 Incorrect: 0 Accuracy: 1
Variant_1 Correct: 5743815 Incorrect: 0 Accuracy: 1
Variant_2 Correct: 0 Incorrect: 0 Accuracy: -nan
Variant_3 Correct: 0 Incorrect: 0 Accuracy: -nan
