
*** ChampSim Multicore Out-of-Order Simulator ***

Warmup Instructions: 50000000
Simulation Instructions: 50000000
Number of CPUs: 1
LLC sets: 2048
LLC ways: 16
Off-chip DRAM Size: 4096 MB Channels: 1 Width: 64-bit Data Rate: 6400 MT/s
CPU 0 runs ./micro_traces/srv383.trace.gz
.gz
ITLB has LRU replacement policy
DTLB has LRU replacement policy
STLB has LRU replacement policy
FDIP Prefetcher at L1I
L1I has LRU replacement policy
L1D has LRU replacement policy
Initialize SRRIP state for L2C
Initialize DRRIP state for LLC
Heartbeat CPU 0 instructions: 10000002 cycles: 2796390 heartbeat IPC: 3.57604 cumulative IPC: 3.57604 (Simulation time: 0 hr 1 min 41 sec) 
Heartbeat CPU 0 instructions: 20000000 cycles: 5593187 heartbeat IPC: 3.57552 cumulative IPC: 3.57578 (Simulation time: 0 hr 3 min 14 sec) 
Heartbeat CPU 0 instructions: 30000002 cycles: 8390058 heartbeat IPC: 3.57542 cumulative IPC: 3.57566 (Simulation time: 0 hr 4 min 49 sec) 
Heartbeat CPU 0 instructions: 40000002 cycles: 11186262 heartbeat IPC: 3.57628 cumulative IPC: 3.57581 (Simulation time: 0 hr 6 min 24 sec) 
Heartbeat CPU 0 instructions: 50000003 cycles: 13982069 heartbeat IPC: 3.57679 cumulative IPC: 3.57601 (Simulation time: 0 hr 7 min 55 sec) 

Warmup complete CPU 0 instructions: 50000003 cycles: 13982069 (Simulation time: 0 hr 7 min 55 sec) 

Cycle: 20000000 FTQ IN: 58369088 FTQ occupancy: 20.1103 DECODE IN: 58368962 DECODE occupancy: 52.6109 ROB IN: 58368962 ROB occupancy: 316.664 ROB OUT: 58368644
Heartbeat CPU 0 instructions: 60000001 cycles: 21174079 heartbeat IPC: 1.39043 cumulative IPC: 1.39043 (Simulation time: 0 hr 9 min 46 sec) 
Heartbeat CPU 0 instructions: 70000002 cycles: 28489381 heartbeat IPC: 1.367 cumulative IPC: 1.37862 (Simulation time: 0 hr 11 min 29 sec) 
Cycle: 30000000 FTQ IN: 13751447 FTQ occupancy: 13.5954 DECODE IN: 13751573 DECODE occupancy: 35.5826 ROB IN: 13751573 ROB occupancy: 242.899 ROB OUT: 13751731
Heartbeat CPU 0 instructions: 80000003 cycles: 35649710 heartbeat IPC: 1.39658 cumulative IPC: 1.38455 (Simulation time: 0 hr 13 min 15 sec) 
Cycle: 40000000 FTQ IN: 13825372 FTQ occupancy: 13.6389 DECODE IN: 13825253 DECODE occupancy: 35.7059 ROB IN: 13825193 ROB occupancy: 242.92 ROB OUT: 13825001
Heartbeat CPU 0 instructions: 90000002 cycles: 42944112 heartbeat IPC: 1.37091 cumulative IPC: 1.38112 (Simulation time: 0 hr 15 min 3 sec) 
Cycle: 50000000 FTQ IN: 13887297 FTQ occupancy: 13.5553 DECODE IN: 13887295 DECODE occupancy: 35.7747 ROB IN: 13887295 ROB occupancy: 243.311 ROB OUT: 13887295
Heartbeat CPU 0 instructions: 100000000 cycles: 50120285 heartbeat IPC: 1.3935 cumulative IPC: 1.38358 (Simulation time: 0 hr 16 min 49 sec) 
Finished CPU 0 instructions: 50000001 cycles: 36138217 cumulative IPC: 1.38358 (Simulation time: 0 hr 16 min 49 sec) 

ChampSim completed all CPUs

Region of Interest Statistics

CPU 0 cumulative IPC: 1.38358 instructions: 50000001 cycles: 36138217
 Fetch stage stalled: 52.124  Sim cycles: 36138217 fetch stall cycle: 18836699
 Empty decode stage: 32.0874  Sim cycles: 36138217 fetch stall cycle: 11595808
ITLB TOTAL     ACCESS:    5878353  HIT:    5386164  MISS:     492189  HIT %:    91.6271  MISS %:    8.37291   MPKI: 9.84378
ITLB LOAD TRANSLATION INSTRUCTION	ACCESS:    5753855  HIT:    5261666  MISS:     492189  HIT %:    91.4459  MISS %:    8.55407  MPKI: 9.84378
ITLB TRANSLATION FROM L1D PREFETCHER INSTRUCTION	ACCESS:     124498  HIT:     124498  MISS:          0  HIT %:        100  MISS %:          0  MPKI: 0

ITLB AVERAGE MISS LATENCY: 9.05922 cycles
ITLB RQ	ACCESS:    8027967	FORWARD:          0	MERGED:    1708527	TO_CACHE:    6319440

DTLB TOTAL     ACCESS:    8966941  HIT:    8498261  MISS:     468680  HIT %:    94.7732  MISS %:    5.22675   MPKI: 9.3736
DTLB LOAD TRANSLATION DATA	ACCESS:    8966941  HIT:    8498261  MISS:     468680  HIT %:    94.7732  MISS %:    5.22675  MPKI: 9.3736

DTLB AVERAGE MISS LATENCY: 9.33153 cycles
DTLB RQ	ACCESS:   13332583	FORWARD:          0	MERGED:    4328940	TO_CACHE:    9003643

STLB TOTAL     ACCESS:    1210366  HIT:    1208401  MISS:       1965  HIT %:    99.8377  MISS %:   0.162348   MPKI: 0.0393
STLB LOAD TRANSLATION INSTRUCTION	ACCESS:     492189  HIT:     491962  MISS:        227  HIT %:    99.9539  MISS %:  0.0461205  MPKI: 0.00454
STLB LOAD TRANSLATION DATA	ACCESS:     468679  HIT:     466964  MISS:       1715  HIT %:    99.6341  MISS %:   0.365922  MPKI: 0.0343
STLB TRANSLATION FROM L1D PREFETCHER DATA	ACCESS:     249498  HIT:     249475  MISS:         23  HIT %:    99.9908  MISS %: 0.00921851  MPKI: 0.00046

STLB AVERAGE MISS LATENCY: 78.169 cycles
STLB RQ	ACCESS:    1330957	FORWARD:          0	MERGED:     120553	TO_CACHE:    1210404

STLB Hit, L1D data hit: 0
STLB Hit, L2C data hit: 0
STLB Hit, LLC data hit: 0
STLB Hit, LLC data miss: 0
STLB STLB hints to L2: 0
L1D TOTAL     ACCESS:   13089534  HIT:   11975628  MISS:    1113906  HIT %:    91.4901  MISS %:     8.5099   MPKI: 22.2781
L1D LOAD DATA	ACCESS:    6554318  HIT:    5820207  MISS:     734111  HIT %:    88.7996  MISS %:    11.2004  MPKI: 14.6822
L1D RFO DATA	ACCESS:    6205351  HIT:    5919880  MISS:     285471  HIT %:    95.3996  MISS %:     4.6004  MPKI: 5.70942
L1D PREFETCH DATA	ACCESS:     329865  HIT:     235541  MISS:      94324  HIT %:    71.4053  MISS %:    28.5947  MPKI: 1.88648

L1D PREFETCH  REQUESTED:     740589  ISSUED:     740589  USEFUL:      33437  USELESS:      68549
L1D USEFUL LOAD PREFETCHES:      33437 PREFETCH ISSUED TO LOWER LEVEL:     102026  ACCURACY: 32.773
 TIMELY PREFETCHES:      33437 LATE PREFETCHES: 7645 DROPPED PREFETCHES: 6
L1D AVERAGE MISS LATENCY: 219664 cycles
L1D RQ	ACCESS:   10694492	FORWARD:          0	MERGED:    3942091	TO_CACHE:    6589331
L1D WQ	ACCESS:    6940768	FORWARD:     163483	MERGED:     197516	TO_CACHE:    6743252
L1D PQ	ACCESS:     370501	FORWARD:          0	MERGED:          0	TO_CACHE:     370088

L1D UNIQUE REGIONS ACCESSED: 0
L1D REGIONS CONFLICTS: 0
L1D Cross Page Prefetch Requests: 6964
L1D Same Page Prefetch Requests: 746541
L1D ROI Sum of L1D PQ occupancy: 4696078
L1D PREFETCHES PUSHED FROM L2C: 0
L1I TOTAL     ACCESS:    7189459  HIT:    4433911  MISS:    2755548  HIT %:    61.6724  MISS %:    38.3276   MPKI: 55.111
L1I LOAD INSTRUCTION	ACCESS:    6513105  HIT:    3757557  MISS:    2755548  HIT %:    57.6923  MISS %:    42.3077  MPKI: 55.111
L1I PREFETCH INSTRUCTION	ACCESS:     676354  HIT:     676354  MISS:          0  HIT %:        100  MISS %:          0  MPKI: 0

L1I PREFETCH  REQUESTED:    1628522  ISSUED:    1628522  USEFUL:          0  USELESS:          0
L1I USEFUL LOAD PREFETCHES:          0 PREFETCH ISSUED TO LOWER LEVEL:          0  ACCURACY: -nan
 TIMELY PREFETCHES:          0 LATE PREFETCHES: 0 DROPPED PREFETCHES: 0
L1I AVERAGE MISS LATENCY: 17.1964 cycles
L1I RQ	ACCESS:    9510214	FORWARD:          0	MERGED:    2677314	TO_CACHE:    6832900
L1I PQ	ACCESS:    1628522	FORWARD:          0	MERGED:     433455	TO_CACHE:    1195067

L1BTB TOTAL     ACCESS:    5672745  HIT:    2052172  MISS:    3620573  HIT %:     36.176  MISS %:     63.824   MPKI: 72.4115
L1BTB BRANCH_DIRECT_JUMP	ACCESS:     548750  HIT:     145892  MISS:     402858	AVERAGE STALL: 49.3151
L1BTB BRANCH_INDIRECT	ACCESS:     183452  HIT:      66470  MISS:     116982	AVERAGE STALL: 107.151
L1BTB BRANCH_CONDITIONAL	ACCESS:    2713883  HIT:    1423787  MISS:    1290096	AVERAGE STALL: 83.4828
L1BTB BRANCH_DIRECT_CALL	ACCESS:     942473  HIT:     105021  MISS:     837452	AVERAGE STALL: 160.467
L1BTB BRANCH_INDIRECT_CALL	ACCESS:     170856  HIT:      20799  MISS:     150057	AVERAGE STALL: 134.48
L1BTB BRANCH_RETURN	ACCESS:    1113331  HIT:     290203  MISS:     823128	AVERAGE STALL: 47.2343
L1BTB BRANCH_OTHER ACCESS:          0  HIT:          0  MISS:          0	AVERAGE STALL: -nan
L1BTB TOTAL ROB OCCUPANCY AT BTB MISS: 1.9969

L2BTB TOTAL     ACCESS:    3595146  HIT:    3540538  MISS:      54608  HIT %:    98.4811  MISS %:    1.51894   MPKI: 1.09216
L2BTB BRANCH_DIRECT_JUMP	ACCESS:     398657  HIT:     395915  MISS:       2742	AVERAGE STALL: 49.3151
L2BTB BRANCH_INDIRECT	ACCESS:     106726  HIT:     104079  MISS:       2647	AVERAGE STALL: 107.151
L2BTB BRANCH_CONDITIONAL	ACCESS:    1290096  HIT:    1290021  MISS:         75	AVERAGE STALL: 83.4828
L2BTB BRANCH_DIRECT_CALL	ACCESS:     837452  HIT:     837414  MISS:         38	AVERAGE STALL: 160.467
L2BTB BRANCH_INDIRECT_CALL	ACCESS:     140482  HIT:     130387  MISS:      10095	AVERAGE STALL: 134.48
L2BTB BRANCH_RETURN	ACCESS:     821733  HIT:     782722  MISS:      39011	AVERAGE STALL: 47.2343
L2BTB BRANCH_OTHER ACCESS:          0  HIT:          0  MISS:          0	AVERAGE STALL: -nan
L2BTB TOTAL ROB OCCUPANCY AT BTB MISS: 132.397

L2C TOTAL     ACCESS:    4477898  HIT:    4000767  MISS:     477131  HIT %:    89.3448  MISS %:    10.6552   MPKI: 9.54262
L2C LOAD INSTRUCTION	ACCESS:    2755548  HIT:    2497139  MISS:     258409  HIT %:    90.6222  MISS %:    9.37777  MPKI: 5.16818
L2C LOAD TRANSLATION INSTRUCTION	ACCESS:        243  HIT:         68  MISS:        175  HIT %:    27.9835  MISS %:    72.0165  MPKI: 0.0035
L2C LOAD DATA	ACCESS:     726443  HIT:     645198  MISS:      81245  HIT %:    88.8161  MISS %:    11.1839  MPKI: 1.6249
L2C RFO DATA	ACCESS:     285400  HIT:     236529  MISS:      48871  HIT %:    82.8763  MISS %:    17.1237  MPKI: 0.97742
L2C PREFETCH DATA	ACCESS:     188377  HIT:     115081  MISS:      73296  HIT %:    61.0908  MISS %:    38.9092  MPKI: 1.46592
L2C WRITEBACK DATA	ACCESS:     520089  HIT:     506330  MISS:      13759  HIT %:    97.3545  MISS %:    2.64551  MPKI: 0.27518
L2C LOAD TRANSLATION DATA	ACCESS:       1755  HIT:        391  MISS:       1364  HIT %:    22.2792  MISS %:    77.7208  MPKI: 0.02728
L2C TRANSLATION FROM L1D PREFETCHER DATA	ACCESS:         43  HIT:         31  MISS:         12  HIT %:     72.093  MISS %:     27.907  MPKI: 0.00024

L2C PREFETCH  REQUESTED:      94796  ISSUED:      94796  USEFUL:       7841  USELESS:      65909
L2C USEFUL LOAD PREFETCHES:       7841 PREFETCH ISSUED TO LOWER LEVEL:      73592  ACCURACY: 10.6547
 TIMELY PREFETCHES:       7841 LATE PREFETCHES: 296 DROPPED PREFETCHES: 0
L2C AVERAGE MISS LATENCY: 38.1974 cycles
L2C RQ	ACCESS:    3769469	FORWARD:          0	MERGED:          0	TO_CACHE:    3769432
L2C WQ	ACCESS:     520089	FORWARD:         37	MERGED:          0	TO_CACHE:     520089
L2C PQ	ACCESS:     196822	FORWARD:          0	MERGED:       3842	TO_CACHE:     192980

L2C Dense regions hint from L2: 0
PSCL5 TOTAL     ACCESS:       3946  HIT:       1973  MISS:       1973  HIT %:         50  MISS %:         50   MPKI: 0.03946
PSCL5 LOAD TRANSLATION INSTRUCTION	ACCESS:       3860  HIT:       1930  MISS:       1930  HIT %:         50  MISS %:         50  MPKI: 0.0386
PSCL5 TRANSLATION FROM L1D PREFETCHER INSTRUCTION	ACCESS:         86  HIT:         43  MISS:         43  HIT %:         50  MISS %:         50  MPKI: 0.00086


PSCL4 TOTAL     ACCESS:       3850  HIT:       1922  MISS:       1928  HIT %:    49.9221  MISS %:    50.0779   MPKI: 0.03856
PSCL4 LOAD TRANSLATION INSTRUCTION	ACCESS:       2380  HIT:       1879  MISS:        501  HIT %:    78.9496  MISS %:    21.0504  MPKI: 0.01002
PSCL4 TRANSLATION FROM L1D PREFETCHER INSTRUCTION	ACCESS:         53  HIT:         43  MISS:         10  HIT %:    81.1321  MISS %:    18.8679  MPKI: 0.0002
PSCL4 LOAD TRANSLATION DATA	ACCESS:       1384  HIT:          0  MISS:       1384  HIT %:          0  MISS %:        100  MPKI: 0.02768
PSCL4 TRANSLATION FROM L1D PREFETCHER DATA	ACCESS:         33  HIT:          0  MISS:         33  HIT %:          0  MISS %:        100  MPKI: 0.00066


PSCL3 TOTAL     ACCESS:       3912  HIT:       1953  MISS:       1959  HIT %:    49.9233  MISS %:    50.0767   MPKI: 0.03918
PSCL3 LOAD TRANSLATION INSTRUCTION	ACCESS:       2411  HIT:       1910  MISS:        501  HIT %:    79.2202  MISS %:    20.7798  MPKI: 0.01002
PSCL3 TRANSLATION FROM L1D PREFETCHER INSTRUCTION	ACCESS:         53  HIT:         43  MISS:         10  HIT %:    81.1321  MISS %:    18.8679  MPKI: 0.0002
PSCL3 LOAD TRANSLATION DATA	ACCESS:       1415  HIT:          0  MISS:       1415  HIT %:          0  MISS %:        100  MPKI: 0.0283
PSCL3 TRANSLATION FROM L1D PREFETCHER DATA	ACCESS:         33  HIT:          0  MISS:         33  HIT %:          0  MISS %:        100  MPKI: 0.00066


PSCL2 TOTAL     ACCESS:       3890  HIT:       1917  MISS:       1973  HIT %:    49.2802  MISS %:    50.7198   MPKI: 0.03946
PSCL2 LOAD TRANSLATION INSTRUCTION	ACCESS:       2103  HIT:       1874  MISS:        229  HIT %:    89.1108  MISS %:    10.8892  MPKI: 0.00458
PSCL2 TRANSLATION FROM L1D PREFETCHER INSTRUCTION	ACCESS:         43  HIT:         43  MISS:          0  HIT %:        100  MISS %:          0  MPKI: 0
PSCL2 LOAD TRANSLATION DATA	ACCESS:       1701  HIT:          0  MISS:       1701  HIT %:          0  MISS %:        100  MPKI: 0.03402
PSCL2 TRANSLATION FROM L1D PREFETCHER DATA	ACCESS:         43  HIT:          0  MISS:         43  HIT %:          0  MISS %:        100  MPKI: 0.00086


LLC TOTAL     ACCESS:     535939  HIT:     508316  MISS:      27623  HIT %:    94.8459  MISS %:    5.15413   MPKI: 0.55246
LLC LOAD INSTRUCTION	ACCESS:     258409  HIT:     257563  MISS:        846  HIT %:    99.6726  MISS %:   0.327388  MPKI: 0.01692
LLC LOAD TRANSLATION INSTRUCTION	ACCESS:        175  HIT:        150  MISS:         25  HIT %:    85.7143  MISS %:    14.2857  MPKI: 0.0005
LLC LOAD DATA	ACCESS:      80969  HIT:      77527  MISS:       3442  HIT %:     95.749  MISS %:    4.25101  MPKI: 0.06884
LLC RFO DATA	ACCESS:      48839  HIT:      35580  MISS:      13259  HIT %:    72.8516  MISS %:    27.1484  MPKI: 0.26518
LLC PREFETCH DATA	ACCESS:      73592  HIT:      63996  MISS:       9596  HIT %:    86.9605  MISS %:    13.0395  MPKI: 0.19192
LLC WRITEBACK DATA	ACCESS:      72579  HIT:      72209  MISS:        370  HIT %:    99.4902  MISS %:   0.509789  MPKI: 0.0074
LLC LOAD TRANSLATION DATA	ACCESS:       1364  HIT:       1279  MISS:         85  HIT %:    93.7683  MISS %:    6.23167  MPKI: 0.0017
LLC TRANSLATION FROM L1D PREFETCHER DATA	ACCESS:         12  HIT:         12  MISS:          0  HIT %:        100  MISS %:          0  MPKI: 0

LLC AVERAGE MISS LATENCY: 155.224 cycles
LLC RQ	ACCESS:     389780	FORWARD:          0	MERGED:          0	TO_CACHE:     389768
LLC WQ	ACCESS:      72579	FORWARD:         12	MERGED:          0	TO_CACHE:      72579
LLC PQ	ACCESS:      73592	FORWARD:          0	MERGED:          0	TO_CACHE:      73592

LLC Dense regions hint to LLC: 0

RAW hits: 1939823
Loads Generated: 12634315
Loads sent to L1D: 10694492
Stores Generated: 6940765
Stores sent to L1D: 6940768
Major fault: 0 Minor fault: 2515
Allocated PAGES: 2515

stream: 
stream:times selected: 1184868
stream:pref_filled: 121512
stream:pref_useful: 24154
stream:pref_late: 6890
stream:misses: 7823
stream:misses_by_poll: 0

CS: 
CS:times selected: 176489
CS:pref_filled: 58842
CS:pref_useful: 35450
CS:pref_late: 6673
CS:misses: 15524
CS:misses_by_poll: 4

CPLX: 
CPLX:times selected: 1007230
CPLX:pref_filled: 19601
CPLX:pref_useful: 4721
CPLX:pref_late: 3244
CPLX:misses: 93764
CPLX:misses_by_poll: 0

NL_L1: 
NL:times selected: 21001
NL:pref_filled: 784
NL:pref_useful: 334
NL:pref_late: 250
NL:misses: 1744
NL:misses_by_poll: 0

total selections: 2389588
total_filled: 94324
total_useful: 33437
total_late: 18395
total_polluted: 4
total_misses_after_warmup: 769124
conflicts: 5521460

test: 116208

DRAM Statistics
 CHANNEL 0
 RQ ROW_BUFFER_HIT:      10097  ROW_BUFFER_MISS:      17156
 DBUS_CONGESTED:          4
 WQ ROW_BUFFER_HIT:       1292  ROW_BUFFER_MISS:      11782  FULL:          0

 AVG_CONGESTED_CYCLE: 7

CPU 0 Branch Prediction Accuracy: 99.8254% MPKI: 0.31926 Average ROB Occupancy at Mispredict: 191.924
Branch types
NOT_BRANCH: 40855165 81.7103%
BRANCH_DIRECT_JUMP: 548750 1.0975%
BRANCH_INDIRECT: 183452 0.366904%
BRANCH_CONDITIONAL: 6185931 12.3719%
BRANCH_DIRECT_CALL: 942473 1.88495%
BRANCH_INDIRECT_CALL: 170856 0.341712%
BRANCH_RETURN: 1113331 2.22666%
BRANCH_OTHER: 0 0%

DRAM PAGES: 1048576
Allocated PAGES: 2515
Average_ROB_Occupancy: 244.092
Average_Decode_Occupancy: 35.5971
Average_FTQ_Occupancy: 13.5548
Indirect max targets: 14 Average targets: 1.14915
Branch_type:  BRANCH_DIRECT_JUMP:  Count Percentage: 4.42255 6.15839 4.20873 3.01511 2.32289 12.5295 7.18705 60.1558 
Branch_type:  BRANCH_INDIRECT:  Count Percentage: 13.7433 3.46104 2.53886 0 0 33.0694 15.4852 31.7023 
Branch_type:  BRANCH_CONDITIONAL:  Count Percentage: 25.1876 3.41753 1.45266 5.34155 1.13911 9.50299 3.34501 50.6136 
Branch_type:  BRANCH_DIRECT_CALL:  Count Percentage: 0.388724 1.77073 0.74018 2.44447 1.92933 5.32811 2.48237 84.9161 
Branch_type:  BRANCH_INDIRECT_CALL:  Count Percentage: 9.56045 0 2.99694 0 0 4.05017 0.998104 82.3943 
Branch_type:  BRANCH_RETURN:  Count Percentage: 9.17856 2.01282 0.722867 5.59159 1.2603 11.6273 3.14812 66.4585 
Branch_type:  BRANCH_DIRECT_JUMP:  Total Count: 48441 67454 46099 33025 25443 137238 78721 658897 
Branch_type:  BRANCH_INDIRECT:  Total Count: 50283 12663 9289 0 0 120992 56656 115990 
Branch_type:  BRANCH_CONDITIONAL:  Total Count: 3112869 422364 179530 660149 140780 1174451 413401 6255203 
Branch_type:  BRANCH_DIRECT_CALL:  Total Count: 7343 33449 13982 46176 36445 100648 46892 1604065 
Branch_type:  BRANCH_INDIRECT_CALL:  Total Count: 32778 0 10275 0 0 13886 3422 282489 
Branch_type:  BRANCH_RETURN:  Total Count: 204924 44939 16139 124840 28138 259595 70286 1483776 
Number of unique branch instructions: 9887
Upper 32 bits: 
aaaa
ffff
ffff0000
Unique upper 32 bits: 3
Unique upper 36 bits: 3
Unique upper 40 bits: 5
Unique upper 44 bits: 32
Unique upper 48 bits: 153
Offset_3 4079
Offset_4 244
Offset_5 449
Offset_6 500
Offset_7 579
Offset_8 515
Offset_9 465
Offset_10 377
Offset_11 318
Offset_12 283
Offset_13 203
Offset_14 228
Offset_15 189
Offset_16 219
Offset_17 144
Offset_18 126
Offset_19 235
Offset_20 139
Offset_21 235
Offset_22 389
Offset_23 241
Offset_24 331
Offset_25 88
Offset_47 82
decode_dispatch_called: 25993909 71.9291
Dispatch_width: 0 13991669 53.8267 38.7171
Dispatch_width: 1 996631 3.83409 2.75783
Dispatch_width: 2 842624 3.24162 2.33167
Dispatch_width: 3 499773 1.92265 1.38295
Dispatch_width: 4 6011239 23.1256 16.634
Dispatch_width: 5 137991 0.530859 0.381842
Dispatch_width: 6 3513982 13.5185 9.72373
Empty_decode_cycles: 10144308 28.0709
ROB_full_cycles: 9531194 26.3743
Starvation_cycles_per_kilo_instr: 230.93
Starvation_cycles_per_kilo_instr_3: 169.438
Starvation_cycles_per_kilo_instr_0: 146.048
Branch_type_1  (3,1)  (4,7)  (5,36)  (6,69)  (7,115)  (8,127)  (9,124)  (10,98)  (11,72)  (12,51)  (13,5)  (14,2)  (15,3)  (16,4)  (18,1)  (19,4)  (20,2)  (21,1)  (22,3)  (23,2)  (24,10)  (25,12) 
Branch_type_2  (3,1)  (5,1)  (8,3)  (9,3)  (12,1)  (13,1)  (14,1)  (16,3)  (17,2)  (20,2)  (21,2)  (23,5)  (24,1)  (47,38) 
Branch_type_3  (3,4077)  (4,237)  (5,408)  (6,415)  (7,433)  (8,325)  (9,255)  (10,152)  (11,131)  (12,58)  (13,4) 
Branch_type_4  (6,4)  (7,8)  (8,26)  (9,51)  (10,60)  (11,59)  (12,95)  (13,88)  (14,101)  (15,89)  (16,98)  (17,64)  (18,57)  (19,114)  (20,72)  (21,124)  (22,207)  (23,136)  (24,193)  (25,72) 
Branch_type_5  (8,2)  (9,1)  (10,3)  (11,5)  (12,3)  (13,14)  (14,16)  (15,11)  (16,20)  (17,11)  (18,16)  (19,12)  (20,10)  (21,13)  (22,42)  (23,26)  (24,36) 
Branch_type_6  (5,4)  (6,12)  (7,23)  (8,32)  (9,31)  (10,64)  (11,51)  (12,75)  (13,91)  (14,108)  (15,86)  (16,94)  (17,67)  (18,52)  (19,105)  (20,53)  (21,95)  (22,137)  (23,72)  (24,91)  (25,4)  (47,44) 
Unique trigger count: 
BTB PER SET UNIQUE ADDR: 2 2 4 4 3 3 3 2 2 3 4 3 3 4 3 4 3 3 2 3 3 3 4 4 3 5 3 3 3 5 3 4 3 3 3 3 3 2 3 3 5 3 3 5 2 2 3 4 4 3 4 5 4 3 2 2 4 3 6 5 4 3 3 3 5 4 3 3 4 4 2 4 3 4 4 4 4 2 4 3 3 3 6 4 3 2 3 4 4 2 4 4 3 2 4 1 6 5 4 4 4 3 3 3 5 5 3 4 3 4 4 2 3 4 3 2 4 4 3 4 2 4 3 2 3 3 4 3 6 3 3 2 3 2 3 4 3 2 2 6 4 3 3 5 4 3 2 4 4 4 4 3 3 4 3 4 4 3 5 4 5 2 1 3 3 2 1 3 3 3 3 4 6 2 3 4 3 3 2 2 3 4 5 3 4 2 3 3 4 3 3 4 4 2 3 2 4 4 3 4 3 3 4 3 1 4 2 3 3 3 3 3 5 4 2 4 4 2 4 5 3 3 3 3 3 4 3 1 3 4 2 4 7 3 3 3 3 4 4 5 3 4 5 3 3 3 4 3 3 4 1 6 3 3 3 4 3 4 2 2 2 4 3 3 4 4 4 4 2 3 5 2 4 4 4 5 6 2 3 4 3 4 3 6 4 4 3 6 4 4 3 5 2 3 3 4 4 4 3 3 5 2 3 4 3 5 4 4 4 3 5 2 4 2 2 4 4 3 2 3 6 4 3 2 5 4 4 3 3 3 1 4 3 3 2 5 4 3 4 5 4 4 4 2 4 5 2 4 3 4 3 3 4 3 2 4 3 3 2 4 3 6 3 2 4 4 4 5 3 1 7 4 5 4 3 2 4 3 3 2 4 5 3 3 2 4 4 3 4 3 4 2 4 5 4 3 3 2 4 5 3 3 4 3 3 4 4 4 4 4 4 4 2 4 4 4 6 2 4 2 3 3 2 7 4 3 3 2 1 3 3 3 3 3 1 4 3 2 3 3 3 3 1 3 2 2 4 3 6 5 5 1 3 4 2 4 3 3 4 3 4 3 3 4 3 5 3 2 5 3 2 3 5 3 4 5 3 2 4 4 3 2 4 3 2 4 3 5 4 5 4 3 4 3 5 5 3 2 3 5 4 3 4 2 4 4 3 4 3 5 4 2 3 4 2 3 4 3 3 4 3 4 2 3 4 3 1 3 3 3 3 2 4 3 4 5 3 3 3 4 4 4 4 4 2 3 3 4 3 2 3 5 3 5 3 3 5 2 5 3 3 4 3 4 3 2 4 4 3 4 3 3 1 4 2 3 4 4 4 3 1 3 3 3 2 3 3 2 3 4 4 3 3 3 3 4 4 4 4 3 3 3 2 2 2 2 3 4 4 2 4 3 2 3 2 4 3 4 7 5 3 2 3 3 4 3 1 4 3 4 2 4 3 4 3 2 3 4 5 5 4 4 1 3 4 4 2 3 2 5 4 4 3 4 3 5 4 4 3 3 3 3 4 4 3 3 3 2 3 5 4 4 3 3 2 2 4 5 4 4 3 3 2 5 3 3 3 4 4 2 4 3 3 3 3 3 2 3 2 4 3 3 4 3 4 4 2 2 4 4 3 3 3 5 3 3 2 2 4 4 4 4 2 4 4 5 5 3 1 5 4 4 4 4 4 3 4 3 3 4 3 3 4 4 3 3 5 3 3 4 4 4 4 4 4 3 3 3 2 2 5 3 4 3 3 3 2 3 3 5 4 3 3 3 3 3 3 3 2 4 3 3 3 4 4 3 4 5 5 4 4 3 5 4 3 3 3 3 4 2 4 2 4 3 4 3 3 5 3 4 3 2 1 4 2 3 4 3 3 4 4 4 5 4 2 1 4 2 4 3 4 3 3 3 4 4 7 4 3 2 2 3 2 4 4 3 3 4 2 3 4 2 3 5 4 3 2 2 2 2 2 5 3 4 4 2 3 3 4 5 4 1 5 5 4 3 3 5 4 3 4 6 5 3 4 3 4 5 3 2 3 2 2 2 2 4 2 3 3 2 3 2 2 3 4 2 4 4 4 3 3 2 5 3 5 4 3 2 3 3 2 3 3 4 3 4 4 2 4 4 3 6 5 4 3 3 4 4 2 4 3 3 3 6 4 4 2 2 6 4 2 3 4 4 4 4 2 2 3 2 3 4 5 3 4 3 3 3 1 3 3 3 1 3 4 4 3 3 4 3 4 3 4 3 2 3 5 3 5 4 3 2 5 4 2 4 3 4 3 3 5 3 2 3 3 4 4 3 4 4 3 3 4 3 3 6 3 3 3 4 3 3 4 3 5 3 4 4 3 2 4 4 4 3 5 2 4 3 3 4 5 3 3 4 4 3 3 3 2 3 3 5 3 4 2 2 4 4 4 2 3 4 5 2 3 2 2 3 4 3 4 3 5 4 3 3 3 2 3 3 3 3 4 2 2 2 4 3 3 3 2 3 2 5 3 2 5 4 2 2 4 3 4 4 3 4 3 4 3 4 3 5 4 2 4 2 5 3 4 3 4 3 2 2 4 5 4 3 3 2 2 4 3 3 3 3 4 4 3 2 4 4 4 3 2 3 3 3 4 3 3 3 2 4 3 1 3 3 3 4 3 3 2 3 2 3 4 3 3 5 3 2 6 4 2 2 4 3 3 4 2 3 4 3 4 5 5 3 5 2 5 3 3 2 3 4 5 4 4 3 3 4 2 3 4 6 2 2 4 2 4 4 4 3 3 3 4 3 2 5 3 1 3 6 4 4 4 3 3 4 3 2 2 2 4 4 3 3 3 4 3 4 5 4 3 4 4 2 2 4 3 4 3 3 4 2 2 3 3 4 4 4 5 3 3 3 3 4 3 3 5 3 2 2 4 4 4 5 4 3 4 3 4 2 5 5 3 5 3 4 2 3 3 4 3 3 4 3 3 4 5 3 3 2 4 3 4 3 3 4 4 5 4 2 2 7 3 3 3 5 3 2 3 4 5 2 4 2 3 4 3 4 3 4 2 4 2 4 3 4 3 3 4 3 4 4 3 4 4 3 4 3 4 5 4 3 3 2 6 3 3 3 4 2 2 4 3 3 4 7 3 5 3 4 3 4 3 5 3 3 4 4 3 3 3 4 3 3 3 2 5 4 3 2 2 3 4 3 3 2 4 3 5 2 3 4 5 2 2 5 3 3 4 3 3 3 4 5 2 3 3 2 3 5 3 3 4 3 4 5 3 3 2 4 4 4 2 3 4 3 3 4 2 2 2 4 4 4 3 4 2 2 3 3 3 2 5 3 3 5 4 4 5 4 3 4 3 2 3 5 5 2 3 2 4 3 3 2 4 4 4 5 3 4 4 3 4 2 3 4 3 4 2 2 5 4 4 4 2 4 3 4 2 2 3 2 4 3 3 3 2 5 3 4 2 3 3 5 4 4 4 1 3 3 3 1 5 3 3 5 4 4 6 2 3 2 3 2 2 4 3 3 3 2 2 3 3 3 2 4 3 4 4 5 4 3 3 3 3 1 3 3 2 3 1 3 3 5 5 4 3 4 3 3 2 3 3 3 3 4 3 3 3 4 2 2 4 4 3 3 3 2 4 3 3 4 3 3 2 4 3 4 2 2 4 2 4 3 3 2 4 3 4 3 4 3 3 3 2 5 3 4 1 2 3 4 3 3 2 3 3 4 4 3 3 3 3 2 4 4 2 2 2 3 3 3 5 3 4 5 4 3 4 2 3 2 6 4 3 5 3 2 3 5 3 4 2 5 3 2 4 2 2 3 4 4 3 4 3 3 3 3 4 3 2 4 4 4 3 3 2 3 4 3 2 4 3 5 4 3 4 5 4 3 3 4 3 4 3 3 3 3 2 5 3 4 3 2 3 4 3 2 4 2 3 6 6 3 4 2 4 3 3 3 4 4 5 4 4 3 4 4 5 4 2 5 3 4 3 4 3 3 3 2 4 4 1 2 3 3 3 3 4 4 3 3 4 3 2 2 4 2 5 3 1 3 4 4 3 3 3 4 2 5 3 4 4 3 2 4 3 3 3 3 3 4 3 3 4 3 2 2 4 3 3 5 4 2 3 4 3 6 4 4 6 2 4 4 1 3 3 4 3 4 4 2 3 5 3 2 5 2 3 1 4 3 4 3 3 3 5 3 3 3 4 3 1 2 3 3 2 4 4 4 4 4 3 3 3 4 2 3 4 3 2 2 3 4 5 0 3 4 4 4 3 4 4 5 3 3 3 5 3 3 3 3 3 2 3 3 3 3 2 5 3 3 3 4 5 2 2 4 2 3 3 4 2 1 3 4 4 4 3 4 3 2 4 3 2 4 5 2 2 4 3 3 2 4 4 3 3 2 3 4 4 5 4 4 3 3 5 3 3 3 3 4 4 2 3 3 5 4 3 3 4 2 4 5 3 4 4 3 4 4 4 4 5 4 3 2 3 4 4 2 3 3 5 3 2 5 2 4 3 2 6 3 3 4 3 3 4 5 3 4 3 3 3 3 2 3 5 3 4 3 3 4 3 2 4 3 1 5 4 4 2 3 3 2 4 3 4 5 3 3 3 4 4 4 3 4 4 4 4 3 4 4 4 4 4 4 3 3 4 3 2 2 3 3 
BTB PER SET COUNT: 2 1470 1471 982 3 4 4 2 2 3 4 3 3 4 3 4 3 3 2 3 3 3 4 4 3 221 3 3 4 5 3 5 3 982 3 3 5 2 3 5 5 981 3 5 4 2 3 4 4 3 4 5 4 3 2 2 494 981 8 5 982 3 3 1959 5 4 4 4 4 4 2 4 3 4 4 5 4 3 988 3 3 3 9 5 4 2 3 4 494 2 4 13 3 2 4 1 6 5 4 4 6 3 3 3 5 5 3 7 3 4 4 2 3 4 7 2 4 5 3 1960 3 4 1505 2 3 3 5 3 324 3 3 2 4 2 3 4 3 2 2 7 4 3 4 5 5 3 2 4 5 14 4 493 3 4 3 984 4 3 6 4 5 2 1 3 3 3 1 3 3 3 3 5 7 2 3 4 3 4 2 2 3 4 5 4 172 2 3 3 5 3 4 4 8 2 3 492 4 4 1470 4 3 1471 5 5 1 4 2 3 3 3 7 6 6 4 2 4 4 2 4 5 3 3 3 3 3 4 3 1 610 4 70 5 8 14682 3 3 4 4 4 5 3 4 6 3 3 3 5 69 3 5 1 148 3 3 4 7 3 4 3 3 2 4 3 3 4 4 5 4 2 3 20 2 5 4 4 7 593 2 3 5 4 6 3 7 5 4 3 8 4 4 3 7 2 3 492 4 5 4 3 3 5 2 1472 4 3 7 4 4 6 3 983 4 4 2 2 11 4 3 2 3 6 5 3 2 5 5 18 3 3 3 1 4 3 3 2 5 4 3 4 5 4 4 4 2 4 5 2 4 3 4 3 3 4 4 2 363 3 3 2 20 3 264 4 2 4 2451 4 5 3 1 7 4 1473 4 3 2 4 3 3 2 5 5 3 3 2 5 5 3 4 3 4 2 4 6 4 3 1341 2 4 5 3 3 4 3 3 4 5 5 8 4 5 5 2 4 4 4 7 2 4 2 3 3 2 498 5 3 3 2 1 3 3 6 3 3 1 5 3 2 3 3 4 3 1 3 389 2 1472 3 6 5 5 203 3 4 2 5 3 4 984 3 6 3 982 4 6 5 3 2 399 3 2 31 5 4 1097 5 3 2 5 8 3 2 6 3 2 5 3 6 4 5 982 4 4 3 5 5 3 2 3 5 4 4 4 2 4 4 5 4 3 6 4 2 3 5 2 3 4 492 3 4 3 4 2 3 4 3 1 3 3 3 1470 2 4 6 28 6 3 3 3 4 4 4 4 4 2 3 3 4 3 2 3 5 981 5 3 3 5 2 47 3 3 7830 5 4 3 2 982 4 3 6 3 3 1 5 2 3 5 4 4 3 4 4 3 3 5 3 5 2 3 4 4 3 3 3 6 4 4 4 6 3 5 3 980 2 2 2 981 4 4 2 4 3 3 3 2 4 3 4 10 7 3 2 4 3 4 3 1 4 3 4 980 4 3 6 5 2 3 4 5 7 4 4 1 3 4 4 2 3 3 493 4 4 4 5 3 5 4 5 3 3 3 3 4 4 4 491 4 2 4 5 4 5 3 3 2 2 4 5 4 493 981 3 2 6 3 3 3 4 4 2 4 3 3 4 3 3 2 4 2 4 3 4 4 4 4 6 3 2 4 4 4 4 3 5 3 981 2 2 4 5 4 4 2 4 4 5 5 3 1 7 5 4 4 4 5 3 5 3 3 4 3 3 4 4 3 3 5 3 3 4 4 4 5 4 5 3 4 4 2 2 5 3 4 30 3 4 2 3428 3 5 4 3 4 3 3 3 3 3 2 6 4 3 3 4 4 3 4 5 5 4 6 3 5 4 3 3 3 3 4 2 4 2 4 4 4 3 3 6 3 4 4 3 2 5 2 3 4 3 3 4 4 5 6 5 2 1 4 2 4 494 4 3 3 3 4 4 10 5 3 3 3 3 980 4 4 4 5 5 2 3 4 2 3 8 4 3 2 3 2 2 2 5 3 4 4 2 3 3 4 5 4 1 5 5 4 4 3 6 5 3 4 6 5 3 5 4 4 5 3 2 1470 2 2 2932 2 4 361 7 3 2 3 2 2 981 4 2 5 4 5 3 3 2 5 3 5 345 95 2 3 3 491 3 3 5 3 4 286 2 5 5 3 11 7 4 3 3 4 982 2 5 3 3 3 11 4 4 2 2 11 4 2 3 5 4 4 4 2 2 1959 2 3 4 5 4 4 3 494 3 1 3 3 3 1 5 5 4 4 3 4 4 4 3 4 3 3 4 5 981 6 4 4 2 5 6 2 5 3 4 3 46 5 3 2 3 4 4 5 3 1471 4 3 3 4 4 3 8 3 3 4 6 3 3 4 3 5 3 5 494 3 3 6 4 4 5 6 2 4 3 4 4 5 492 3 5 4 3 492 3 2 3 3 5 3 4 2 2 4 4 1471 2 3 4 5 2 3 2 2 3 4 3 4 3 5 4 3 3 3 2 3 9 5 3 4 980 2 2 5 3 3 8 2 3 2 10 4 2 5 4 2 2 6 4 4 4 3 226 43 4 3 4 362 6 4 2 4 2 6 115 5 3 206 3 2 2 4 5 4 3 3 2 2 4 3 3 3 3 4 5 3 2 4 20555 4 3 491 6 3 981 4 3 3 3 2 4 3 1 3 3 3 4 3 3 2 3 2 3 4 3 3 5 492 4 6 4 4 2 4 3 6 982 2 4 4 3 5 5 983 3 5 2 5 3 3 2 1970 5 5 4 4 3 11 4 2 4 4 8 2 2 4 362 5 982 5 1470 3 3 4 3 2 6 373 1 5 6 5 4 6 3 3 4 3 2 2 2 4 4 1187 4 3 4 3 12 5 4 3 4 1471 2 2 4 3 495 3 3 4 2 2 3 3 4 4 4 5 3 981 3 3 4 3 3 5 3 2 2 4 4 6 5 4 6 4 3 4 2 6 7 3 6 3 4 2 3 3 4 4 8 4 3 3 4 6 3 3 2 4 3 6 5 3 5 4 5 4 45 2 8 6 3 3 5 3 2 3 4 5 2 4 1469 3 288 3 4 3 4 2 4 1469 4 3 4 3 3 5 981 6 4 1571 4 41 3 8 3 4 5 4 4 3 2 6 4 3 3 4 2 2 4 4 3 4 8 3 6 3 4 10 4 3 5 3 3 4 4 3 3 3 148 4 4 3 2 5 4 3 2 2 3 4 3 3 2 5 4 6 2 4 6 5 2 2 5 3 3 4 3 3 3 4 5 2 3 3 2 3 5 4 3 6 3 5 394 3 3 2 1961 5 253 2 3 5 3 3 6 3 2 2 4 5 4 3 4 2 2 3 3 3 2 5 3 3 5 4 4 5 4 3 4 4 2 3 5 5 3 3 2 4 3 3 2 4 4 4 5 981 4 4 3 983 2 3 4 3 4 2 2 5 8 4 5 2 5 3 4 2 2 3 2 4 3 3 4 2 5 3 4 2 3 4 5 4 4 4 1 3 3 3 1 5 3 981 6 4 4 6 2 3 2 3 2 4 4 4 3 3 2 2 3 3 3 2 5 3 4 4 6 4 4 3 3 4 1 3 3 2 3 1 4 2937 5 5 5 3 8 4 3 2 3 3 3 3 1471 3 3 29 4 2 2 5 4 3 3 3 2 4 3 3 7 3 4 2 4 4 6 2 55 4 2 5 3 3 2 4 3 4 3 4 3 4 3 980 5 3 4 1 2 3 4 3 3 2 3 4 4 4 4 3 3 4 2 4 4 2 2 2 3 3 4 8 3 4 5 4 3 7 2 4 2 6 4 3 7 4 2 3 5 3 4 980 5 3 2 4 2 2 3 5 4 3 4 3 3 3 3 4 3 2 4 4 4 3 3 2 3 4 3 2 5 3 5 4 3 4 6 5 3 3 981 252 4 3 3 3 3 2 5 3 5 3 2 3 4 3 2 5 2 3 6 153 269 4 980 6 3 3 3 104 5 6 4 4 4 4 5 6 4 2 5 3 4 7 4 3 3 4 2 365 4 1 2 4 3 3 4 4 4 3 3 4 3 2 2 7 2 7 3 1 3 4 4 3 492 3 4 2 6 1185 5 118 3 2 4 3 3 3 3 3 4 4 3 4 3 2 2 983 3 3 5 4 2 3 4 4 6 4 5 6 2 4 95 1 3 3 4 3 5 4 2 1470 5 3 2 494 4 3 581 4 3 4 3 3 79 402 3 3 3 4 1470 1 2 4 3 2 4 4 4 9 4 3 3 1471 4 2 3 4 3 2 2 3 4 6 0 3 4 7 4 3 4 5 983 3 3 3 6 3 3 100 3 3 2 3 6 3 3 2 5 7 3 3 4 1475 2 2 4 2 3 3 4 2 1 3 4 5 5 3 4 3 2 4 3 3 4 5 3 2 4 3 4 2 4 4 3 3 2 3 5 4 5 5 4 3 4 5 3 3 3 3 4 5 2 3 4 5 4 3 35 4 2 4 5 3 5 440 3 5 4 4 5 5 982 5 4 5 4 5 2 3 3 6 3 2 6 2 5 3 2 7 3 3 4 3 3 152 5 3 4 3 3 3 493 2 3 5 3 4 3 3 4 1341 2 4 3 1 6 4 4 2 4 3 2 18 1470 5 17 3 1959 3 4 4 4 3 4 4 4 4 3 5 4 114 4 4 4 4 3 5 3 2 2 3 742 
