
*** ChampSim Multicore Out-of-Order Simulator ***

Warmup Instructions: 50000000
Simulation Instructions: 50000000
Number of CPUs: 1
LLC sets: 2048
LLC ways: 16
Off-chip DRAM Size: 4096 MB Channels: 1 Width: 64-bit Data Rate: 6400 MT/s
CPU 0 runs ./micro_traces/srv347.trace.gz
.gz
ITLB has LRU replacement policy
DTLB has LRU replacement policy
STLB has LRU replacement policy
FDIP Prefetcher at L1I
L1I has LRU replacement policy
L1D has LRU replacement policy
Initialize SRRIP state for L2C
Initialize DRRIP state for LLC
Heartbeat CPU 0 instructions: 10000001 cycles: 2796525 heartbeat IPC: 3.57587 cumulative IPC: 3.57587 (Simulation time: 0 hr 1 min 47 sec) 
Heartbeat CPU 0 instructions: 20000003 cycles: 5593799 heartbeat IPC: 3.57491 cumulative IPC: 3.57539 (Simulation time: 0 hr 3 min 40 sec) 
Heartbeat CPU 0 instructions: 30000003 cycles: 8389979 heartbeat IPC: 3.57631 cumulative IPC: 3.57569 (Simulation time: 0 hr 5 min 34 sec) 
Heartbeat CPU 0 instructions: 40000002 cycles: 11185908 heartbeat IPC: 3.57663 cumulative IPC: 3.57593 (Simulation time: 0 hr 7 min 34 sec) 
Heartbeat CPU 0 instructions: 50000000 cycles: 13982268 heartbeat IPC: 3.57608 cumulative IPC: 3.57596 (Simulation time: 0 hr 9 min 18 sec) 

Warmup complete CPU 0 instructions: 50000004 cycles: 13982269 (Simulation time: 0 hr 9 min 18 sec) 

Cycle: 20000000 FTQ IN: 58340132 FTQ occupancy: 20.6741 DECODE IN: 58340132 DECODE occupancy: 53.5837 ROB IN: 58340132 ROB occupancy: 318.786 ROB OUT: 58339823
Heartbeat CPU 0 instructions: 60000000 cycles: 21180335 heartbeat IPC: 1.38926 cumulative IPC: 1.38926 (Simulation time: 0 hr 11 min 32 sec) 
Heartbeat CPU 0 instructions: 70000002 cycles: 28298252 heartbeat IPC: 1.40491 cumulative IPC: 1.39704 (Simulation time: 0 hr 13 min 45 sec) 
Cycle: 30000000 FTQ IN: 14068363 FTQ occupancy: 15.2051 DECODE IN: 14068363 DECODE occupancy: 38.8385 ROB IN: 14068363 ROB occupancy: 251.539 ROB OUT: 14068668
Heartbeat CPU 0 instructions: 80000001 cycles: 35517473 heartbeat IPC: 1.38519 cumulative IPC: 1.39307 (Simulation time: 0 hr 16 min 10 sec) 
Cycle: 40000000 FTQ IN: 13891038 FTQ occupancy: 15.2186 DECODE IN: 13891038 DECODE occupancy: 38.6058 ROB IN: 13891038 ROB occupancy: 250.215 ROB OUT: 13891039
Heartbeat CPU 0 instructions: 90000000 cycles: 42632082 heartbeat IPC: 1.40556 cumulative IPC: 1.39617 (Simulation time: 0 hr 18 min 39 sec) 
Heartbeat CPU 0 instructions: 100000000 cycles: 49827962 heartbeat IPC: 1.38968 cumulative IPC: 1.39487 (Simulation time: 0 hr 20 min 53 sec) 
Finished CPU 0 instructions: 50000000 cycles: 35845694 cumulative IPC: 1.39487 (Simulation time: 0 hr 20 min 53 sec) 

ChampSim completed all CPUs

Region of Interest Statistics

CPU 0 cumulative IPC: 1.39487 instructions: 50000000 cycles: 35845694
 Fetch stage stalled: 44.7689  Sim cycles: 35845694 fetch stall cycle: 16047723
 Empty decode stage: 24.4012  Sim cycles: 35845694 fetch stall cycle: 8746763
ITLB TOTAL     ACCESS:    5847948  HIT:    5354523  MISS:     493425  HIT %:    91.5624  MISS %:    8.43758   MPKI: 9.8685
ITLB LOAD TRANSLATION INSTRUCTION	ACCESS:    5715636  HIT:    5222211  MISS:     493425  HIT %:    91.3671  MISS %:     8.6329  MPKI: 9.8685
ITLB TRANSLATION FROM L1D PREFETCHER INSTRUCTION	ACCESS:     132312  HIT:     132312  MISS:          0  HIT %:        100  MISS %:          0  MPKI: 0

ITLB AVERAGE MISS LATENCY: 9.06302 cycles
ITLB RQ	ACCESS:    7958582	FORWARD:          0	MERGED:    1631275	TO_CACHE:    6327307

DTLB TOTAL     ACCESS:    8942092  HIT:    8472268  MISS:     469824  HIT %:    94.7459  MISS %:    5.25407   MPKI: 9.39648
DTLB LOAD TRANSLATION DATA	ACCESS:    8942092  HIT:    8472268  MISS:     469824  HIT %:    94.7459  MISS %:    5.25407  MPKI: 9.39648

DTLB AVERAGE MISS LATENCY: 9.33066 cycles
DTLB RQ	ACCESS:   13312809	FORWARD:          0	MERGED:    4333439	TO_CACHE:    8979370

STLB TOTAL     ACCESS:    1213169  HIT:    1211111  MISS:       2058  HIT %:    99.8304  MISS %:   0.169638   MPKI: 0.04116
STLB LOAD TRANSLATION INSTRUCTION	ACCESS:     493425  HIT:     493166  MISS:        259  HIT %:    99.9475  MISS %:  0.0524902  MPKI: 0.00518
STLB LOAD TRANSLATION DATA	ACCESS:     469823  HIT:     468053  MISS:       1770  HIT %:    99.6233  MISS %:   0.376738  MPKI: 0.0354
STLB TRANSLATION FROM L1D PREFETCHER DATA	ACCESS:     249921  HIT:     249892  MISS:         29  HIT %:    99.9884  MISS %:  0.0116037  MPKI: 0.00058

STLB AVERAGE MISS LATENCY: 76.8533 cycles
STLB RQ	ACCESS:    1339724	FORWARD:          0	MERGED:     126515	TO_CACHE:    1213209

STLB Hit, L1D data hit: 0
STLB Hit, L2C data hit: 0
STLB Hit, LLC data hit: 0
STLB Hit, LLC data miss: 0
STLB STLB hints to L2: 0
L1D TOTAL     ACCESS:   13056047  HIT:   11926490  MISS:    1129557  HIT %:    91.3484  MISS %:     8.6516   MPKI: 22.5911
L1D LOAD DATA	ACCESS:    6537580  HIT:    5791454  MISS:     746126  HIT %:    88.5871  MISS %:    11.4129  MPKI: 14.9225
L1D RFO DATA	ACCESS:    6190380  HIT:    5903378  MISS:     287002  HIT %:    95.3637  MISS %:    4.63626  MPKI: 5.74004
L1D PREFETCH DATA	ACCESS:     328087  HIT:     231658  MISS:      96429  HIT %:    70.6087  MISS %:    29.3913  MPKI: 1.92858

L1D PREFETCH  REQUESTED:     753322  ISSUED:     753322  USEFUL:      37575  USELESS:      69110
L1D USEFUL LOAD PREFETCHES:      37575 PREFETCH ISSUED TO LOWER LEVEL:     106700  ACCURACY: 35.2156
 TIMELY PREFETCHES:      37575 LATE PREFETCHES: 10232 DROPPED PREFETCHES: 8
L1D AVERAGE MISS LATENCY: 291563 cycles
L1D RQ	ACCESS:   10677254	FORWARD:          0	MERGED:    3941596	TO_CACHE:    6571912
L1D WQ	ACCESS:    6939464	FORWARD:     164118	MERGED:     198567	TO_CACHE:    6740897
L1D PQ	ACCESS:     376847	FORWARD:          0	MERGED:          0	TO_CACHE:     376475

L1D UNIQUE REGIONS ACCESSED: 0
L1D REGIONS CONFLICTS: 0
L1D Cross Page Prefetch Requests: 6916
L1D Same Page Prefetch Requests: 756056
L1D ROI Sum of L1D PQ occupancy: 4792680
L1D PREFETCHES PUSHED FROM L2C: 0
L1I TOTAL     ACCESS:    7127495  HIT:    4368093  MISS:    2759402  HIT %:    61.2851  MISS %:    38.7149   MPKI: 55.188
L1I LOAD INSTRUCTION	ACCESS:    6454155  HIT:    3694753  MISS:    2759402  HIT %:    57.2461  MISS %:    42.7539  MPKI: 55.188
L1I PREFETCH INSTRUCTION	ACCESS:     673340  HIT:     673340  MISS:          0  HIT %:        100  MISS %:          0  MPKI: 0

L1I PREFETCH  REQUESTED:    1627509  ISSUED:    1627509  USEFUL:          0  USELESS:          0
L1I USEFUL LOAD PREFETCHES:          0 PREFETCH ISSUED TO LOWER LEVEL:          0  ACCURACY: -nan
 TIMELY PREFETCHES:          0 LATE PREFETCHES: 0 DROPPED PREFETCHES: 0
L1I AVERAGE MISS LATENCY: 17.471 cycles
L1I RQ	ACCESS:    9569749	FORWARD:          0	MERGED:    2811108	TO_CACHE:    6758641
L1I PQ	ACCESS:    1627509	FORWARD:          0	MERGED:     427568	TO_CACHE:    1199941

L1BTB TOTAL     ACCESS:    5672138  HIT:    2048350  MISS:    3623788  HIT %:    36.1125  MISS %:    63.8875   MPKI: 72.4758
L1BTB BRANCH_DIRECT_JUMP	ACCESS:     546804  HIT:     144228  MISS:     402576	AVERAGE STALL: 62.551
L1BTB BRANCH_INDIRECT	ACCESS:     182472  HIT:      65861  MISS:     116611	AVERAGE STALL: 113.853
L1BTB BRANCH_CONDITIONAL	ACCESS:    2712008  HIT:    1421457  MISS:    1290551	AVERAGE STALL: 91.8356
L1BTB BRANCH_DIRECT_CALL	ACCESS:     943845  HIT:     105219  MISS:     838626	AVERAGE STALL: 74.9441
L1BTB BRANCH_INDIRECT_CALL	ACCESS:     171583  HIT:      21361  MISS:     150222	AVERAGE STALL: 141.833
L1BTB BRANCH_RETURN	ACCESS:    1115426  HIT:     290224  MISS:     825202	AVERAGE STALL: 50.7965
L1BTB BRANCH_OTHER ACCESS:          0  HIT:          0  MISS:          0	AVERAGE STALL: -nan
L1BTB TOTAL ROB OCCUPANCY AT BTB MISS: 2.38951

L2BTB TOTAL     ACCESS:    3598493  HIT:    3539910  MISS:      58583  HIT %:     98.372  MISS %:    1.62799   MPKI: 1.17166
L2BTB BRANCH_DIRECT_JUMP	ACCESS:     398432  HIT:     394519  MISS:       3913	AVERAGE STALL: 62.551
L2BTB BRANCH_INDIRECT	ACCESS:     106355  HIT:     103657  MISS:       2698	AVERAGE STALL: 113.853
L2BTB BRANCH_CONDITIONAL	ACCESS:    1290551  HIT:    1289296  MISS:       1255	AVERAGE STALL: 91.8356
L2BTB BRANCH_DIRECT_CALL	ACCESS:     838626  HIT:     837262  MISS:       1364	AVERAGE STALL: 74.9441
L2BTB BRANCH_INDIRECT_CALL	ACCESS:     140723  HIT:     130712  MISS:      10011	AVERAGE STALL: 141.833
L2BTB BRANCH_RETURN	ACCESS:     823806  HIT:     784464  MISS:      39342	AVERAGE STALL: 50.7965
L2BTB BRANCH_OTHER ACCESS:          0  HIT:          0  MISS:          0	AVERAGE STALL: -nan
L2BTB TOTAL ROB OCCUPANCY AT BTB MISS: 147.809

L2C TOTAL     ACCESS:    4499964  HIT:    4002948  MISS:     497016  HIT %:    88.9551  MISS %:    11.0449   MPKI: 9.94032
L2C LOAD INSTRUCTION	ACCESS:    2759402  HIT:    2481159  MISS:     278243  HIT %:    89.9165  MISS %:    10.0835  MPKI: 5.56486
L2C LOAD TRANSLATION INSTRUCTION	ACCESS:        292  HIT:         66  MISS:        226  HIT %:    22.6027  MISS %:    77.3973  MPKI: 0.00452
L2C LOAD DATA	ACCESS:     735868  HIT:     659430  MISS:      76438  HIT %:    89.6125  MISS %:    10.3875  MPKI: 1.52876
L2C RFO DATA	ACCESS:     286940  HIT:     233506  MISS:      53434  HIT %:     81.378  MISS %:     18.622  MPKI: 1.06868
L2C PREFETCH DATA	ACCESS:     191597  HIT:     119256  MISS:      72341  HIT %:    62.2431  MISS %:    37.7569  MPKI: 1.44682
L2C WRITEBACK DATA	ACCESS:     523972  HIT:     508988  MISS:      14984  HIT %:    97.1403  MISS %:    2.85969  MPKI: 0.29968
L2C LOAD TRANSLATION DATA	ACCESS:       1835  HIT:        506  MISS:       1329  HIT %:    27.5749  MISS %:    72.4251  MPKI: 0.02658
L2C TRANSLATION FROM L1D PREFETCHER DATA	ACCESS:         58  HIT:         37  MISS:         21  HIT %:    63.7931  MISS %:    36.2069  MPKI: 0.00042

L2C PREFETCH  REQUESTED:      92180  ISSUED:      92180  USEFUL:       7743  USELESS:      65040
L2C USEFUL LOAD PREFETCHES:       7743 PREFETCH ISSUED TO LOWER LEVEL:      72637  ACCURACY: 10.6599
 TIMELY PREFETCHES:       7743 LATE PREFETCHES: 296 DROPPED PREFETCHES: 0
L2C AVERAGE MISS LATENCY: 38.8668 cycles
L2C RQ	ACCESS:    3784444	FORWARD:          0	MERGED:          0	TO_CACHE:    3784396
L2C WQ	ACCESS:     523972	FORWARD:         48	MERGED:          0	TO_CACHE:     523972
L2C PQ	ACCESS:     198880	FORWARD:          0	MERGED:       3653	TO_CACHE:     195227

L2C Dense regions hint from L2: 0
PSCL5 TOTAL     ACCESS:       4144  HIT:       2072  MISS:       2072  HIT %:         50  MISS %:         50   MPKI: 0.04144
PSCL5 LOAD TRANSLATION INSTRUCTION	ACCESS:       4028  HIT:       2014  MISS:       2014  HIT %:         50  MISS %:         50  MPKI: 0.04028
PSCL5 TRANSLATION FROM L1D PREFETCHER INSTRUCTION	ACCESS:        116  HIT:         58  MISS:         58  HIT %:         50  MISS %:         50  MPKI: 0.00116


PSCL4 TOTAL     ACCESS:       3943  HIT:       1966  MISS:       1977  HIT %:    49.8605  MISS %:    50.1395   MPKI: 0.03954
PSCL4 LOAD TRANSLATION INSTRUCTION	ACCESS:       3108  HIT:       1909  MISS:       1199  HIT %:    61.4221  MISS %:    38.5779  MPKI: 0.02398
PSCL4 TRANSLATION FROM L1D PREFETCHER INSTRUCTION	ACCESS:         96  HIT:         57  MISS:         39  HIT %:     59.375  MISS %:     40.625  MPKI: 0.00078
PSCL4 LOAD TRANSLATION DATA	ACCESS:        721  HIT:          0  MISS:        721  HIT %:          0  MISS %:        100  MPKI: 0.01442
PSCL4 TRANSLATION FROM L1D PREFETCHER DATA	ACCESS:         18  HIT:          0  MISS:         18  HIT %:          0  MISS %:        100  MPKI: 0.00036


PSCL3 TOTAL     ACCESS:       3977  HIT:       1983  MISS:       1994  HIT %:    49.8617  MISS %:    50.1383   MPKI: 0.03988
PSCL3 LOAD TRANSLATION INSTRUCTION	ACCESS:       3125  HIT:       1926  MISS:       1199  HIT %:     61.632  MISS %:     38.368  MPKI: 0.02398
PSCL3 TRANSLATION FROM L1D PREFETCHER INSTRUCTION	ACCESS:         96  HIT:         57  MISS:         39  HIT %:     59.375  MISS %:     40.625  MPKI: 0.00078
PSCL3 LOAD TRANSLATION DATA	ACCESS:        738  HIT:          0  MISS:        738  HIT %:          0  MISS %:        100  MPKI: 0.01476
PSCL3 TRANSLATION FROM L1D PREFETCHER DATA	ACCESS:         18  HIT:          0  MISS:         18  HIT %:          0  MISS %:        100  MPKI: 0.00036


PSCL2 TOTAL     ACCESS:       4053  HIT:       1981  MISS:       2072  HIT %:    48.8774  MISS %:    51.1226   MPKI: 0.04144
PSCL2 LOAD TRANSLATION INSTRUCTION	ACCESS:       2183  HIT:       1923  MISS:        260  HIT %:    88.0898  MISS %:    11.9102  MPKI: 0.0052
PSCL2 TRANSLATION FROM L1D PREFETCHER INSTRUCTION	ACCESS:         58  HIT:         58  MISS:          0  HIT %:        100  MISS %:          0  MPKI: 0
PSCL2 LOAD TRANSLATION DATA	ACCESS:       1754  HIT:          0  MISS:       1754  HIT %:          0  MISS %:        100  MPKI: 0.03508
PSCL2 TRANSLATION FROM L1D PREFETCHER DATA	ACCESS:         58  HIT:          0  MISS:         58  HIT %:          0  MISS %:        100  MPKI: 0.00116


LLC TOTAL     ACCESS:     556793  HIT:     526501  MISS:      30292  HIT %:    94.5596  MISS %:    5.44044   MPKI: 0.60584
LLC LOAD INSTRUCTION	ACCESS:     278243  HIT:     277221  MISS:       1022  HIT %:    99.6327  MISS %:   0.367305  MPKI: 0.02044
LLC LOAD TRANSLATION INSTRUCTION	ACCESS:        226  HIT:        190  MISS:         36  HIT %:    84.0708  MISS %:    15.9292  MPKI: 0.00072
LLC LOAD DATA	ACCESS:      76171  HIT:      72730  MISS:       3441  HIT %:    95.4825  MISS %:    4.51747  MPKI: 0.06882
LLC RFO DATA	ACCESS:      53393  HIT:      38054  MISS:      15339  HIT %:    71.2715  MISS %:    28.7285  MPKI: 0.30678
LLC PREFETCH DATA	ACCESS:      72637  HIT:      62653  MISS:       9984  HIT %:    86.2549  MISS %:    13.7451  MPKI: 0.19968
LLC WRITEBACK DATA	ACCESS:      74773  HIT:      74383  MISS:        390  HIT %:    99.4784  MISS %:   0.521579  MPKI: 0.0078
LLC LOAD TRANSLATION DATA	ACCESS:       1329  HIT:       1250  MISS:         79  HIT %:    94.0557  MISS %:    5.94432  MPKI: 0.00158
LLC TRANSLATION FROM L1D PREFETCHER DATA	ACCESS:         21  HIT:         20  MISS:          1  HIT %:    95.2381  MISS %:     4.7619  MPKI: 2e-05

LLC AVERAGE MISS LATENCY: 158.818 cycles
LLC RQ	ACCESS:     409395	FORWARD:          0	MERGED:          0	TO_CACHE:     409383
LLC WQ	ACCESS:      74773	FORWARD:         12	MERGED:          0	TO_CACHE:      74773
LLC PQ	ACCESS:      72637	FORWARD:          0	MERGED:          0	TO_CACHE:      72637

LLC Dense regions hint to LLC: 0

RAW hits: 1954100
Loads Generated: 12631354
Loads sent to L1D: 10677254
Stores Generated: 6939455
Stores sent to L1D: 6939464
Major fault: 0 Minor fault: 2545
Allocated PAGES: 2545

stream: 
stream:times selected: 1192266
stream:pref_filled: 123979
stream:pref_useful: 25829
stream:pref_late: 7797
stream:misses: 9076
stream:misses_by_poll: 0

CS: 
CS:times selected: 180819
CS:pref_filled: 62154
CS:pref_useful: 38131
CS:pref_late: 8552
CS:misses: 19313
CS:misses_by_poll: 7

CPLX: 
CPLX:times selected: 1010288
CPLX:pref_filled: 20473
CPLX:pref_useful: 5376
CPLX:pref_late: 2774
CPLX:misses: 102489
CPLX:misses_by_poll: 3

NL_L1: 
NL:times selected: 20676
NL:pref_filled: 617
NL:pref_useful: 253
NL:pref_late: 368
NL:misses: 1940
NL:misses_by_poll: 0

total selections: 2404049
total_filled: 96429
total_useful: 37575
total_late: 20989
total_polluted: 10
total_misses_after_warmup: 780465
conflicts: 5512225

test: 116122

DRAM Statistics
 CHANNEL 0
 RQ ROW_BUFFER_HIT:      11286  ROW_BUFFER_MISS:      18591
 DBUS_CONGESTED:         14
 WQ ROW_BUFFER_HIT:       1569  ROW_BUFFER_MISS:      12713  FULL:          0

 AVG_CONGESTED_CYCLE: 5

CPU 0 Branch Prediction Accuracy: 99.8249% MPKI: 0.3202 Average ROB Occupancy at Mispredict: 194.949
Branch types
NOT_BRANCH: 40854166 81.7083%
BRANCH_DIRECT_JUMP: 546804 1.09361%
BRANCH_INDIRECT: 182472 0.364944%
BRANCH_CONDITIONAL: 6185648 12.3713%
BRANCH_DIRECT_CALL: 943845 1.88769%
BRANCH_INDIRECT_CALL: 171583 0.343166%
BRANCH_RETURN: 1115426 2.23085%
BRANCH_OTHER: 0 0%

DRAM PAGES: 1048576
Allocated PAGES: 2545
Average_ROB_Occupancy: 251.95
Average_Decode_Occupancy: 38.6769
Average_FTQ_Occupancy: 15.2344
Indirect max targets: 14 Average targets: 1.14527
Branch_type:  BRANCH_DIRECT_JUMP:  Count Percentage: 3.28619 6.37762 4.42911 3.43929 10.298 8.94484 1.699 61.526 
Branch_type:  BRANCH_INDIRECT:  Count Percentage: 13.7527 6.27804 2.49787 3.76808 9.67579 16.6075 3.22426 44.1958 
Branch_type:  BRANCH_CONDITIONAL:  Count Percentage: 21.5421 3.3447 1.72875 3.09363 6.18124 13.3239 0.993238 49.7925 
Branch_type:  BRANCH_DIRECT_CALL:  Count Percentage: 0.767939 1.27833 1.00376 2.45461 4.77144 4.22694 0.884209 84.6128 
Branch_type:  BRANCH_INDIRECT_CALL:  Count Percentage: 9.53297 0 2.98945 4.27833 0 5.50905 0.992606 76.6976 
Branch_type:  BRANCH_RETURN:  Count Percentage: 4.53485 2.04845 2.07604 3.1635 7.80551 14.6065 1.382 64.3832 
Branch_type:  BRANCH_DIRECT_JUMP:  Total Count: 35889 69651 48371 37561 112466 97688 18555 671935 
Branch_type:  BRANCH_INDIRECT:  Total Count: 50097 22869 9099 13726 35246 60496 11745 160992 
Branch_type:  BRANCH_CONDITIONAL:  Total Count: 2663442 413535 213741 382493 764242 1647351 122803 6156292 
Branch_type:  BRANCH_DIRECT_CALL:  Total Count: 14524 24177 18984 46424 90242 79944 16723 1600278 
Branch_type:  BRANCH_INDIRECT_CALL:  Total Count: 32788 0 10282 14715 0 18948 3414 263796 
Branch_type:  BRANCH_RETURN:  Total Count: 101401 45804 46421 70737 174534 326606 30902 1439632 
Number of unique branch instructions: 9923
Upper 32 bits: 
aaaa
ffff
ffff0000
Unique upper 32 bits: 3
Unique upper 36 bits: 3
Unique upper 40 bits: 5
Unique upper 44 bits: 32
Unique upper 48 bits: 154
Offset_3 4076
Offset_4 256
Offset_5 452
Offset_6 505
Offset_7 581
Offset_8 512
Offset_9 471
Offset_10 381
Offset_11 310
Offset_12 272
Offset_13 203
Offset_14 227
Offset_15 193
Offset_16 224
Offset_17 145
Offset_18 118
Offset_19 235
Offset_20 137
Offset_21 235
Offset_22 391
Offset_23 245
Offset_24 331
Offset_25 88
Offset_47 82
decode_dispatch_called: 26453079 73.7971
Dispatch_width: 0 14368142 54.3156 40.0833
Dispatch_width: 1 1026193 3.8793 2.86281
Dispatch_width: 2 823835 3.11433 2.29828
Dispatch_width: 3 485114 1.83387 1.35334
Dispatch_width: 4 6262113 23.6725 17.4696
Dispatch_width: 5 103749 0.3922 0.289432
Dispatch_width: 6 3383933 12.7922 9.44028
Empty_decode_cycles: 9392615 26.2029
ROB_full_cycles: 10175230 28.3862
Starvation_cycles_per_kilo_instr: 222.865
Starvation_cycles_per_kilo_instr_3: 159.207
Starvation_cycles_per_kilo_instr_0: 135.855
Branch_type_1  (3,1)  (4,11)  (5,37)  (6,70)  (7,115)  (8,130)  (9,123)  (10,97)  (11,70)  (12,43)  (13,5)  (14,2)  (15,3)  (16,4)  (18,1)  (19,4)  (20,2)  (21,1)  (22,3)  (23,2)  (24,10)  (25,12) 
Branch_type_2  (3,1)  (5,1)  (8,3)  (9,3)  (12,1)  (13,1)  (14,1)  (16,3)  (17,2)  (20,2)  (21,2)  (23,5)  (24,1)  (47,38) 
Branch_type_3  (3,4074)  (4,245)  (5,410)  (6,420)  (7,436)  (8,317)  (9,258)  (10,152)  (11,125)  (12,52)  (13,4) 
Branch_type_4  (6,3)  (7,8)  (8,26)  (9,53)  (10,64)  (11,58)  (12,97)  (13,88)  (14,100)  (15,91)  (16,100)  (17,65)  (18,53)  (19,115)  (20,72)  (21,124)  (22,208)  (23,138)  (24,192)  (25,72) 
Branch_type_5  (8,2)  (9,1)  (10,3)  (11,5)  (12,3)  (13,14)  (14,16)  (15,11)  (16,20)  (17,11)  (18,16)  (19,12)  (20,10)  (21,13)  (22,42)  (23,26)  (24,37) 
Branch_type_6  (5,4)  (6,12)  (7,22)  (8,34)  (9,33)  (10,65)  (11,52)  (12,76)  (13,91)  (14,108)  (15,88)  (16,97)  (17,67)  (18,48)  (19,104)  (20,51)  (21,95)  (22,138)  (23,74)  (24,91)  (25,4)  (47,44) 
aaaaab1fc620: 2ac9e77e 2aca717c 2aca8eff 2acaf6bc 2acaf9aa 2acaf9f1 2acb1abc 2acb1b7f 2acd4e22 2acdb712 2acf5f9e 2ad0ef44 2ad3f15c 2ad414e6 2ad60e42 2ad8609c 2ad99830 2ada35cc 2ada4676 2ada6612 2adf183e 2adf30e5 2adf5602 2adf785c 2ae11572 2aeb2dcf 2aee101b 2aee1ae1 2aee9456 2b156a8c 2b156b61 2b156bea 2b167f35 2b177656 2b17feec 2b1a3e5a 
aaaaab1fc740: 2aca1fb0 2aca45b3 2aca5aa1 2aca5c69 2aca66f9 2aca9426 2acaeecb 2acf3d2d 2acf3d64 2acf6089 2ad017ea 2ad5e7ef 2ad61064 2ad87373 2ad9bf84 2ad9c093 2ae9b606 2aea9ffa 2aee99f5 2aee9a2c 2aeece4b 
aaaaac68f310: 2ac9ec8c 2ac9fb44 2ac9fbd2 2aca59ab 2acac04c 2acaf6e0 2acaf6ec 2acaf6f9 2acaf700 2acaf708 2acf2d90 2ad3cfbd 2ad3cfc4 2ad3d000 2ad3f35f 2ad4955d 2ad49571 2ad4f3f2 2ad4f400 2ad5f240 2ad5f37c 2ad5f86a 2ad5f86f 2ad5f880 2ad5fc0d 2ad5fc14 2ad5fc21 2ad5fe1b 2ad873bb 2ad873e3 2ad8a6b2 2ad9086e 2ad93096 2ad9bbb2 2ada152c 2ada1554 2ada3332 2ada5522 2adf3130 2adf313c 2adf3a3f 2adf3bd9 2adf5788 2adf7a8d 2ae07f6b 2ae0857a 2ae0857e 2ae08630 2ae08634 2ae08637 2ae08642 2ae0866f 2ae086e4 2ae086ec 2ae08717 2ae0871b 2aee0170 2aee1d38 2aee75f4 2aee7662 2aee85ca 2aee85e4 2aee8eef 2aee9a0a 2af70b84 2af74e8f 2b17d843 
aaaaac690ef0: 2aca598b 2acb111b 2acb175f 2acb1772 2acbfaf4 2acbfb00 2acf374f 2acf6d43 2acfa5c8 2ad3baf1 2ad3d4ac 2ad3d4b8 2ad3f1cf 2ad486b2 2ad5a59b 2ad5fc64 2ad5fcf9 2ad6121c 2ad906e9 2ad907bf 2ad9bada 2ada16ce 2ada1ad5 2ada43df 2ada64c0 2ada72ee 2adeb71a 2adf3bcb 2adf7a38 2adf7c6a 2adf8872 2adf8880 2adf9959 2adf9abe 2ae07f78 2ae08503 2ae08754 2ae12e80 2aea3bea 2aecb509 2aee00b0 2aee2bdd 2aee5467 2aee5601 2aee8f20 2af703fd 2af7048b 2af74e74 2dfba627 
Unique trigger count: 
1 9475
2 484
3 86
4 31
5 7
6 8
7 6
8 1
9 3
10 1
11 2
12 1
13 3
16 2
18 2
19 2
21 1
36 1
49 1
67 1
BTB PER SET UNIQUE ADDR: 0 1 1 1 0 0 0 0 0 0 1 0 1 0 0 1 1 0 0 1 0 1 1 1 0 1 0 1 1 0 1 1 1 0 0 0 0 1 4 0 1 0 1 2 1 0 1 0 1 1 0 0 1 0 0 1 1 2 0 0 0 0 0 1 0 1 0 0 0 1 1 0 1 0 0 0 1 2 1 1 1 0 1 1 1 1 0 1 3 1 1 2 1 1 1 0 0 0 0 0 0 2 1 1 0 1 0 0 0 0 1 0 0 1 0 1 0 0 0 0 0 0 0 0 0 0 0 0 2 0 1 0 0 0 1 0 0 0 0 1 0 0 1 0 0 0 0 1 1 1 0 3 1 0 0 0 0 0 0 0 0 0 0 1 0 0 0 0 2 1 0 0 1 0 0 0 0 1 0 0 0 0 1 0 0 1 0 0 0 0 2 0 1 2 0 1 1 0 0 1 0 1 0 0 0 0 0 0 0 0 0 1 1 1 1 0 0 1 0 0 0 0 1 1 1 0 0 0 0 1 1 0 0 0 0 2 1 0 0 0 1 0 1 0 3 1 0 0 1 0 1 0 0 1 0 2 1 0 0 0 2 1 1 0 2 3 1 0 1 0 0 0 0 1 0 1 0 0 0 1 1 0 0 0 1 1 0 0 0 0 0 0 0 0 0 0 1 2 0 0 1 0 1 0 1 0 2 0 0 0 1 0 0 0 2 0 1 1 0 1 0 0 0 0 0 0 1 1 0 0 0 0 1 0 1 0 0 0 2 0 2 0 0 0 0 0 1 0 0 0 0 1 0 2 1 0 1 0 2 0 0 2 1 0 1 1 0 0 0 0 1 0 0 0 0 1 0 0 1 0 0 0 0 1 0 0 1 0 0 0 0 0 1 0 0 0 0 0 0 1 1 1 0 0 0 0 1 1 0 0 0 0 0 0 1 0 2 0 0 1 1 0 1 2 0 2 0 0 0 0 0 0 1 1 1 0 0 0 0 0 0 2 0 1 0 0 0 0 0 0 0 0 0 0 1 0 1 0 2 0 2 0 1 1 0 0 0 0 1 2 0 0 1 1 2 0 0 1 0 0 0 0 0 2 0 0 1 0 0 1 1 0 0 1 0 2 0 1 0 0 1 0 0 0 0 0 0 0 0 1 1 1 0 0 2 0 0 1 1 3 1 1 1 1 3 0 0 1 1 1 1 1 0 2 1 1 0 0 3 0 0 2 1 0 0 1 2 1 0 1 0 0 0 1 0 1 1 0 0 0 2 0 0 0 0 0 0 0 1 3 2 0 1 2 1 0 0 0 0 0 0 0 0 0 0 0 0 0 0 0 0 0 0 0 0 0 1 0 0 0 0 0 0 1 0 1 0 1 0 0 1 0 0 0 0 0 0 0 0 0 0 0 1 0 1 1 0 0 0 0 2 0 0 1 0 0 0 0 0 0 0 0 1 0 0 0 0 0 0 0 0 0 0 0 0 0 0 0 0 1 0 1 0 1 1 1 1 0 0 0 1 0 1 0 1 1 0 1 1 0 1 0 0 0 0 0 1 1 1 0 0 0 0 1 0 1 1 1 0 0 0 1 0 1 0 0 0 0 0 0 1 1 0 0 1 0 1 1 0 0 0 0 0 0 0 0 0 0 0 1 0 1 0 0 0 0 2 1 1 0 1 1 1 0 1 0 0 0 0 1 0 0 1 0 0 1 1 2 0 0 1 0 0 0 0 0 1 0 0 0 2 0 0 0 0 1 3 0 1 1 1 0 0 0 1 1 1 1 0 0 1 0 0 0 1 1 1 0 0 0 0 0 0 0 0 0 0 0 0 1 0 1 0 0 0 0 1 0 0 0 2 0 1 0 0 0 0 1 0 0 0 1 1 0 0 0 0 0 1 0 0 0 0 0 0 1 0 2 1 0 1 0 1 0 0 0 0 0 0 0 0 0 0 0 0 0 0 0 1 0 0 0 0 0 0 0 0 0 2 1 1 1 0 0 0 0 0 1 0 0 0 0 0 0 0 0 2 0 1 0 0 0 0 1 0 1 0 0 0 1 0 1 0 0 0 0 0 0 0 0 0 1 1 0 1 0 0 0 1 0 0 0 2 0 1 0 0 1 0 0 0 0 0 1 0 0 1 0 0 1 0 0 0 0 0 0 0 2 0 0 2 0 1 1 0 1 4 1 0 1 0 0 0 0 1 0 1 3 0 0 2 1 1 2 1 0 0 1 2 0 2 1 0 0 1 0 0 1 0 2 0 0 1 0 1 1 2 0 0 0 0 0 1 0 0 0 1 1 0 1 1 1 4 2 0 0 0 1 1 1 3 2 1 1 1 0 0 1 1 0 0 0 0 2 0 1 3 0 2 3 0 1 0 2 1 1 2 1 1 0 0 0 1 0 2 0 1 1 2 1 1 3 0 2 0 0 3 0 0 1 0 0 0 1 1 2 2 2 1 2 0 2 1 2 1 0 2 0 0 1 0 2 1 0 2 1 1 1 0 1 0 2 1 1 1 1 1 0 1 2 1 1 1 1 0 1 1 2 1 1 1 1 1 0 3 1 0 0 2 0 0 0 1 0 1 0 0 1 1 2 0 2 1 0 1 0 1 1 0 0 0 0 0 3 0 1 1 1 0 1 0 0 1 0 3 0 0 1 2 4 2 1 0 3 4 0 2 0 0 0 0 1 1 0 1 0 2 3 1 0 0 0 2 1 0 2 0 0 0 2 1 3 0 2 0 1 0 0 2 3 4 0 4 0 0 0 2 1 2 0 2 1 1 1 0 0 0 1 1 1 0 1 2 2 2 0 2 1 0 2 3 2 1 1 1 1 0 0 1 3 4 1 1 1 1 1 2 1 2 0 0 1 1 0 5 2 1 0 0 0 1 1 0 0 1 0 0 1 2 2 1 0 2 0 0 0 0 1 1 0 1 0 0 1 1 0 2 1 3 1 1 1 1 0 1 1 0 2 1 1 0 2 0 1 2 0 0 0 0 1 0 1 0 1 1 1 1 0 0 0 0 1 1 0 0 1 0 0 0 0 1 2 1 0 1 0 0 0 1 2 1 1 1 1 0 2 0 2 2 0 1 0 0 1 1 2 1 1 1 0 1 1 0 0 1 2 0 1 1 0 1 0 0 1 1 1 1 1 1 0 4 1 1 1 0 0 1 3 0 1 0 2 0 1 2 0 0 0 0 1 0 0 0 1 0 1 1 1 0 1 0 0 1 0 1 0 0 0 0 1 1 0 0 0 0 1 1 1 3 1 1 0 1 1 1 0 1 0 0 3 0 0 0 0 0 1 1 0 0 0 0 0 0 0 0 0 1 0 2 0 1 0 2 0 1 0 0 2 0 0 2 1 1 1 1 0 0 1 0 0 1 0 1 1 1 1 0 0 1 0 2 1 0 0 2 1 0 1 0 2 1 1 1 1 0 1 1 1 0 1 1 0 1 0 2 0 1 0 0 0 0 0 0 1 1 0 1 2 1 1 0 0 1 0 1 1 0 0 0 2 1 0 0 1 1 1 1 0 0 1 1 3 1 0 0 1 2 0 0 0 3 1 2 0 2 0 2 1 0 1 1 2 3 0 1 0 2 1 0 5 2 2 1 2 3 0 0 2 0 1 1 0 1 0 1 0 0 1 0 1 2 0 0 0 1 1 2 1 3 0 0 0 3 0 0 2 1 0 0 0 0 3 0 1 0 2 1 0 1 2 1 1 1 1 1 1 1 0 1 0 0 0 1 1 1 2 0 0 1 1 0 1 1 0 0 1 2 0 0 1 0 0 0 2 1 0 0 2 1 0 0 0 0 1 0 0 1 1 2 1 1 1 4 0 1 3 3 2 2 1 0 2 0 0 1 1 0 0 0 0 1 1 2 0 0 1 1 1 1 0 0 0 0 1 2 1 1 1 0 0 1 1 0 0 0 0 1 0 0 0 0 1 0 1 0 0 2 0 2 1 0 0 0 0 0 2 0 0 0 0 0 0 1 0 3 0 1 1 0 0 1 1 0 0 0 0 0 0 0 0 2 1 1 0 1 0 0 1 1 0 0 4 0 0 0 0 1 1 0 0 2 1 3 0 0 1 0 2 1 1 2 0 1 0 3 0 2 0 1 0 1 0 1 1 0 0 1 1 0 0 0 0 1 1 1 0 1 1 1 1 1 0 0 0 0 1 1 0 0 0 0 0 0 2 2 2 0 0 0 1 0 0 0 0 0 1 1 0 0 1 0 0 1 1 0 1 2 0 1 0 0 1 1 1 0 0 0 0 1 0 0 0 0 0 0 0 0 0 1 0 0 1 1 1 0 0 0 1 0 0 0 0 1 1 0 0 1 0 0 0 0 0 0 0 0 0 0 0 0 0 0 0 0 0 2 0 2 2 1 0 0 1 0 0 0 0 0 1 0 2 0 2 0 1 2 4 0 0 0 0 1 1 1 0 0 0 1 1 0 0 0 0 1 3 1 0 1 0 0 0 0 0 2 0 0 1 0 0 0 1 0 0 0 1 2 0 0 0 2 0 0 0 1 1 0 0 0 2 0 1 0 2 0 0 0 0 0 0 1 0 1 0 1 0 1 0 1 1 1 0 0 0 0 0 1 1 0 0 1 1 1 0 2 0 1 1 1 0 0 1 1 2 1 1 0 1 0 1 1 1 0 1 1 2 0 0 1 0 1 3 0 1 0 0 1 0 0 1 1 1 0 1 2 1 1 1 2 1 1 0 0 1 0 1 0 0 0 1 0 1 0 0 0 0 1 0 0 0 0 0 0 0 1 0 1 0 0 0 0 2 0 0 0 0 1 0 0 0 1 0 1 1 0 0 0 0 1 1 0 0 0 0 0 0 0 1 0 0 1 0 0 0 0 1 1 0 2 1 0 1 0 0 0 0 0 0 3 1 1 0 1 1 1 0 2 0 0 0 2 0 1 1 0 1 1 0 1 0 1 1 1 1 1 0 2 0 2 0 2 2 1 2 1 1 2 0 2 0 0 0 1 0 0 0 1 0 2 0 1 1 1 0 1 0 0 0 1 1 0 2 2 1 1 2 1 1 1 1 1 1 1 0 3 1 0 2 2 0 2 2 2 1 0 1 3 2 2 0 0 0 0 0 0 1 0 0 0 0 0 0 0 0 0 0 1 0 0 0 0 0 1 1 2 2 0 0 1 1 0 1 0 0 0 1 0 1 1 0 1 0 0 0 1 1 0 0 0 0 0 0 1 0 0 0 0 0 0 0 1 0 1 0 2 0 1 0 0 0 0 2 0 1 1 0 1 0 0 0 0 0 0 0 1 0 1 0 1 1 1 0 1 0 1 1 2 3 0 0 0 3 1 1 1 0 0 2 0 0 1 0 0 1 0 1 0 0 1 0 0 0 1 1 3 1 0 0 1 0 2 3 1 1 2 0 0 0 1 0 1 1 1 2 3 2 0 1 0 2 0 0 0 1 3 1 1 1 1 0 2 1 0 1 2 1 1 0 1 0 3 1 1 0 0 1 2 0 1 1 0 0 0 0 0 2 1 0 0 0 0 1 0 2 1 0 2 2 0 1 0 0 1 1 1 0 1 0 1 1 0 1 2 0 2 1 0 0 0 0 0 0 1 1 0 2 0 0 1 0 1 0 1 0 2 1 0 1 2 1 0 2 1 1 1 1 2 1 2 0 0 2 2 0 0 0 2 3 0 1 2 0 1 0 0 1 1 0 1 0 2 1 0 2 0 2 1 1 0 1 1 0 0 0 1 0 1 1 1 1 0 0 0 3 0 1 0 1 0 1 0 3 0 0 0 3 0 2 1 1 0 0 0 1 0 0 1 1 1 1 0 1 0 0 0 1 1 0 0 1 0 0 1 1 0 0 0 1 1 0 0 0 1 0 0 0 1 0 0 1 0 0 0 0 0 0 2 2 0 1 1 1 0 0 0 0 0 2 2 1 1 2 0 0 1 0 2 0 2 0 3 2 2 3 1 2 1 0 0 2 0 0 0 0 0 2 0 0 0 0 1 2 2 0 0 2 1 1 1 0 1 2 1 1 2 1 2 3 0 1 1 0 0 0 0 0 0 1 1 1 0 0 1 1 0 0 0 0 1 0 1 0 0 1 0 2 3 1 0 3 0 0 1 3 0 0 1 2 0 0 1 1 3 0 0 2 1 0 0 1 1 1 0 0 0 0 3 0 3 0 0 2 0 1 0 0 2 0 1 0 1 1 3 0 0 1 4 0 0 0 1 0 0 0 1 0 0 1 1 0 2 1 0 0 0 2 0 2 1 0 0 1 1 1 1 1 1 0 1 0 0 2 0 1 1 0 0 2 0 0 0 1 0 3 1 1 3 1 1 1 0 1 0 1 2 0 2 1 0 0 0 1 0 0 3 3 0 0 0 1 0 1 0 1 1 1 2 0 0 0 2 1 2 1 1 0 1 1 0 0 1 0 1 0 1 1 0 1 0 0 0 1 1 1 0 0 1 1 2 0 2 0 1 1 0 0 0 0 0 0 1 0 1 1 0 2 0 1 0 1 2 0 0 2 0 0 0 1 2 3 1 5 0 0 1 2 1 3 0 1 0 2 2 1 0 0 1 0 2 2 0 2 2 0 2 2 1 0 1 2 2 0 0 0 0 0 0 0 0 0 3 1 1 1 1 2 1 2 1 0 2 1 0 2 0 1 0 0 1 0 1 0 1 1 1 0 0 1 2 2 1 0 2 3 1 1 1 2 1 1 2 1 0 0 0 1 2 1 1 0 3 0 0 2 1 1 0 1 2 1 0 0 1 0 0 1 1 0 1 1 0 1 0 0 1 0 2 1 0 0 3 1 1 0 1 0 1 0 1 0 1 1 0 0 1 1 0 1 2 0 0 0 0 1 0 1 0 1 1 1 2 1 1 2 0 0 0 0 0 0 0 1 2 1 1 1 0 0 1 1 1 3 2 0 0 0 2 0 0 1 1 1 1 1 0 1 0 1 0 2 0 1 0 1 0 0 0 0 0 0 1 0 0 0 0 0 0 0 0 1 0 3 1 0 1 0 3 0 0 2 0 0 3 1 1 0 0 1 0 1 1 0 0 0 0 0 1 0 1 1 1 0 2 0 2 0 4 1 1 1 1 1 1 3 1 0 3 0 1 1 1 1 1 1 1 0 1 1 1 1 2 1 0 1 0 0 1 0 0 1 1 1 1 1 1 1 1 1 2 0 1 0 1 1 2 0 2 0 1 0 1 1 1 0 0 0 1 1 1 1 0 1 0 2 1 0 0 2 0 1 1 0 1 1 2 0 3 0 3 1 1 1 1 2 0 0 1 0 1 0 1 0 1 0 1 0 1 2 1 1 1 0 1 2 0 2 1 0 0 1 1 0 1 0 0 0 1 0 1 0 1 0 1 0 0 1 2 1 1 0 1 1 0 1 0 0 2 0 2 2 4 0 0 1 0 1 1 1 0 0 0 0 0 0 1 0 1 1 0 0 0 1 0 0 1 1 0 1 1 0 0 1 1 1 1 1 1 0 2 0 0 0 0 1 2 0 1 1 1 1 1 0 1 0 1 2 1 1 0 0 2 1 3 1 0 1 0 1 3 0 1 0 1 0 0 1 2 0 2 0 0 0 0 2 1 0 2 0 0 0 2 4 1 1 2 0 1 1 0 1 0 0 0 0 0 1 0 1 0 0 0 2 0 0 0 0 0 1 0 0 1 0 2 0 0 1 2 1 0 0 2 0 2 0 0 0 0 1 0 0 2 1 0 0 0 0 0 0 0 0 0 1 1 1 0 2 0 1 2 1 1 0 0 0 2 0 3 1 2 1 0 2 0 0 0 0 1 0 2 0 2 0 1 0 1 0 2 1 0 0 1 0 0 1 1 0 0 0 2 1 0 0 0 1 1 1 2 1 3 0 0 3 1 3 1 1 1 0 2 2 2 1 1 1 2 0 2 0 1 0 2 1 0 1 1 1 2 0 2 1 4 0 0 1 1 1 3 1 1 0 3 0 0 1 2 0 0 0 1 3 1 0 0 0 1 2 1 1 1 3 0 1 1 1 4 0 0 0 1 1 2 1 0 1 1 0 1 1 1 1 0 1 0 1 1 0 1 0 2 0 1 0 1 1 0 2 0 0 1 1 0 0 1 1 0 1 1 0 3 1 1 2 1 0 1 0 0 0 0 2 1 0 0 0 1 1 0 0 1 1 1 1 0 0 2 0 3 1 1 0 0 1 0 1 2 1 0 1 1 1 1 1 0 0 0 0 0 0 1 0 0 2 0 0 0 1 2 0 1 0 1 1 1 1 1 0 0 2 1 1 1 1 1 1 0 0 0 0 1 1 1 2 0 1 1 0 0 1 1 0 2 1 1 0 0 2 0 2 0 1 1 1 0 2 1 0 0 0 0 0 0 1 1 2 3 0 0 0 0 2 1 0 1 2 1 1 0 0 0 0 0 0 0 1 0 1 0 1 0 0 2 1 1 0 1 0 0 1 0 1 0 1 0 0 2 1 0 0 1 3 0 3 1 2 1 0 1 0 2 1 1 3 0 0 1 0 1 0 1 0 0 2 0 1 0 2 0 0 0 1 0 0 0 0 0 1 1 1 1 0 0 0 2 0 0 0 0 1 0 0 0 3 1 0 1 1 2 1 1 1 1 0 0 0 1 1 0 0 2 0 0 1 1 0 0 0 0 0 1 1 1 1 0 1 1 2 1 1 0 0 0 1 0 0 1 1 0 0 0 0 1 0 1 0 1 1 1 1 0 0 0 1 0 0 0 1 0 0 0 0 0 0 0 2 0 0 1 0 1 0 0 0 0 0 1 0 1 1 1 3 0 1 1 0 1 2 0 1 0 1 1 0 0 0 0 0 0 2 0 1 2 0 1 1 1 1 0 1 1 2 0 1 1 0 1 0 0 0 0 1 2 1 1 1 2 0 1 1 1 1 2 3 1 1 2 5 0 0 2 0 1 3 0 1 1 0 2 0 0 1 1 0 1 0 1 1 1 1 0 3 2 0 0 1 2 0 0 1 0 0 1 1 0 1 1 1 1 0 0 0 0 0 2 0 1 1 2 1 1 2 1 2 2 1 1 1 2 0 0 2 1 2 0 0 0 0 3 1 3 0 0 0 3 0 0 0 0 0 1 1 1 1 0 0 0 1 1 0 0 1 2 0 0 1 1 0 0 2 0 0 1 2 0 0 0 0 0 1 2 0 1 1 1 0 0 2 0 0 1 1 1 1 0 0 1 1 3 0 1 0 0 1 0 0 1 1 1 1 0 0 0 1 1 1 1 1 0 1 1 1 1 0 2 0 0 2 0 0 0 2 1 1 0 0 1 1 3 0 1 1 1 0 0 1 2 1 1 1 1 2 2 1 0 3 4 0 2 1 4 1 0 2 1 1 1 4 0 0 0 1 0 3 2 0 1 3 0 1 2 1 1 2 1 0 1 3 0 1 3 0 1 2 1 1 1 1 3 0 0 1 3 1 1 2 1 2 1 0 2 2 2 0 1 1 1 1 0 2 2 0 1 0 1 1 0 0 1 1 2 2 1 0 0 0 1 2 2 1 1 2 0 2 1 0 0 2 1 1 0 0 0 0 2 2 0 1 3 0 1 2 1 1 1 0 1 0 3 1 1 2 4 2 2 1 2 0 1 1 2 1 0 0 1 0 0 1 0 0 2 0 1 0 0 0 1 0 0 0 0 1 1 0 1 1 0 1 1 0 0 0 0 1 1 0 2 2 0 1 4 2 1 1 1 0 1 0 1 1 0 0 0 1 2 1 1 1 1 1 0 1 1 0 0 2 1 2 2 2 1 2 1 2 0 1 2 0 1 1 2 2 1 1 2 1 1 0 3 1 1 2 1 1 1 2 2 1 1 1 0 0 1 2 0 1 2 0 0 1 1 2 0 1 1 2 1 2 3 3 1 1 2 2 1 0 1 1 1 0 1 1 2 2 0 3 0 2 0 0 3 0 1 2 2 1 1 2 2 0 0 0 0 1 1 2 0 1 0 2 1 1 2 0 1 2 0 0 1 0 1 0 0 2 2 1 1 0 0 0 1 1 2 1 1 1 2 1 1 3 0 0 2 2 0 0 1 1 2 1 1 2 1 2 2 0 3 0 0 1 2 0 3 1 1 0 1 2 0 1 1 1 1 1 0 0 1 1 1 1 0 1 1 0 1 1 0 0 1 3 1 0 4 2 2 3 2 1 0 0 0 3 3 2 2 1 1 3 1 1 3 0 0 1 2 0 0 3 0 1 1 1 2 1 0 0 1 0 0 1 0 1 0 0 0 1 0 0 0 0 0 1 2 0 1 2 1 1 2 0 1 1 1 1 0 1 2 1 3 0 2 1 0 1 0 2 1 0 0 1 2 1 2 2 1 0 1 2 0 1 0 0 2 0 0 2 0 2 2 0 3 0 2 0 0 3 0 0 0 0 0 2 2 0 5 0 3 2 4 3 1 3 2 2 0 2 0 0 0 1 4 0 1 2 1 0 0 1 1 1 2 0 0 3 1 0 0 1 0 0 0 1 0 0 1 0 0 4 2 2 2 3 0 1 1 2 1 0 0 1 0 0 1 2 1 0 1 0 3 0 1 1 3 1 2 0 2 0 2 1 3 1 2 0 1 0 1 2 1 0 1 1 0 0 2 1 0 0 1 1 4 1 2 2 0 0 1 0 2 0 1 1 3 1 1 0 3 0 1 2 2 1 3 2 1 0 0 1 0 0 3 1 0 0 3 1 0 0 2 2 0 0 1 2 2 1 0 1 1 1 0 2 1 0 1 2 2 2 2 1 0 1 0 1 1 1 0 1 0 0 0 1 0 1 1 0 0 0 0 2 1 0 1 1 0 1 1 1 0 2 2 1 1 0 1 1 2 0 0 0 0 1 0 2 0 0 2 1 1 1 0 0 0 2 0 0 1 1 1 0 0 1 0 2 0 1 2 1 0 0 0 2 0 0 1 1 0 1 0 0 1 1 0 0 2 2 2 2 0 0 0 3 0 0 1 2 2 1 1 0 2 2 1 2 1 1 1 4 0 1 0 1 1 0 2 1 0 0 0 3 1 0 0 0 2 1 1 0 1 4 1 0 1 1 3 0 1 0 2 2 0 1 0 1 0 0 3 0 1 0 1 0 2 1 2 2 0 0 1 0 0 0 0 1 4 1 1 0 1 0 1 1 1 2 1 0 2 1 1 0 1 0 1 0 0 0 1 1 0 0 2 0 1 2 1 1 2 0 0 1 1 0 1 0 1 2 0 1 0 3 3 2 0 0 1 2 0 0 1 2 3 0 2 1 1 0 3 0 1 1 3 1 2 2 1 1 1 1 0 1 1 1 0 2 2 2 0 2 1 0 1 1 4 1 1 0 4 0 2 1 0 1 1 1 2 3 4 1 2 1 1 1 0 2 1 1 2 1 1 2 1 1 0 2 0 1 1 0 0 1 1 0 1 2 1 1 2 1 1 2 0 1 1 1 1 2 1 2 0 1 2 0 2 0 1 2 2 1 1 2 2 0 3 2 0 2 2 0 0 0 0 2 1 0 2 0 0 0 0 0 2 0 1 1 0 1 1 1 1 0 0 0 3 0 0 2 0 0 1 1 0 1 1 0 0 0 0 1 1 2 0 1 3 0 0 1 4 0 1 0 1 1 2 1 0 2 1 1 2 1 1 2 1 0 0 0 2 0 1 1 1 3 0 0 2 0 0 0 2 0 1 0 2 2 1 1 1 1 0 1 3 1 0 1 1 0 2 0 0 3 0 1 1 1 0 2 0 1 2 1 0 2 0 0 0 2 1 0 0 0 1 1 1 0 0 1 2 1 1 0 2 0 0 0 2 0 1 1 1 3 0 1 3 0 0 1 1 1 0 0 0 3 0 3 0 0 0 1 2 0 0 0 2 0 0 1 0 1 0 0 0 1 1 0 1 0 0 0 1 2 0 1 2 0 0 1 0 0 0 1 2 0 0 0 0 1 0 0 2 0 0 2 1 0 1 1 0 3 0 2 0 0 0 3 1 1 0 1 0 0 1 1 0 2 2 1 0 0 2 0 0 0 1 1 0 0 1 1 1 1 1 0 0 1 0 1 3 0 0 2 0 0 2 1 2 0 0 0 0 1 1 0 1 1 1 0 1 0 4 0 0 1 0 3 1 0 0 0 0 1 0 0 1 1 1 1 0 1 1 0 0 1 1 0 0 2 1 1 0 1 1 0 1 1 0 1 2 1 1 2 0 0 2 0 2 1 0 1 1 1 1 0 0 0 1 0 1 1 1 0 0 0 0 0 1 2 1 1 0 1 1 0 1 1 0 1 0 2 0 1 0 1 0 1 2 0 3 0 3 2 0 0 1 1 2 0 0 0 2 0 1 1 0 2 1 0 2 0 1 0 1 1 0 1 0 1 1 1 2 0 0 1 1 3 2 0 1 0 0 1 1 0 0 2 0 1 1 0 0 1 0 0 1 1 0 1 0 2 1 0 0 0 0 0 0 0 0 0 0 1 1 0 1 0 0 0 0 0 0 0 0 0 0 0 0 0 1 0 0 0 1 0 0 0 0 0 0 2 1 0 0 0 2 0 0 0 1 1 1 0 1 0 0 0 0 0 1 0 1 0 1 0 0 1 1 0 0 0 0 1 0 1 0 0 2 1 1 1 0 0 0 0 0 0 1 0 0 1 0 0 0 1 0 0 0 0 0 0 1 0 1 1 1 2 0 0 1 0 0 0 0 0 0 0 1 0 1 1 0 0 0 0 2 0 0 0 0 1 0 0 0 0 1 0 0 1 0 1 1 1 2 0 2 0 0 0 0 1 1 0 1 1 1 1 1 0 0 0 2 0 0 1 0 1 1 0 2 0 0 0 0 0 1 1 2 0 0 1 0 1 0 1 0 0 2 1 1 1 2 1 3 0 1 0 1 0 1 1 0 3 1 0 0 0 0 2 2 1 0 0 1 0 1 0 1 1 0 0 0 0 0 1 2 1 0 1 1 0 1 1 1 1 1 0 0 0 0 1 1 1 0 0 0 1 1 0 1 0 1 2 0 0 0 1 1 4 0 0 1 1 1 1 3 1 0 0 0 0 0 2 2 0 0 0 0 1 2 0 0 1 0 0 1 1 0 1 1 0 2 2 0 0 0 2 0 1 1 1 0 0 0 0 0 0 2 0 1 0 1 0 1 0 2 1 1 1 0 3 0 0 0 1 0 1 1 0 0 0 0 1 1 0 0 1 0 0 1 1 1 1 0 1 2 0 2 0 0 0 1 1 1 2 1 0 2 1 2 1 1 2 3 0 0 3 0 1 0 1 1 3 2 0 1 1 2 0 2 0 2 2 1 2 0 0 1 0 0 1 0 2 0 1 1 2 1 1 3 1 1 1 2 0 1 0 3 0 2 2 2 2 2 1 0 0 1 0 1 0 1 1 0 0 0 1 0 0 0 2 0 1 2 1 2 0 2 0 0 2 2 0 1 1 1 0 0 2 2 2 1 0 0 1 0 0 1 0 0 1 0 1 2 0 0 1 0 0 0 1 1 1 1 0 1 0 2 2 1 0 1 1 0 1 1 2 1 2 1 0 1 0 2 1 0 1 0 1 1 0 1 2 0 1 0 1 0 0 2 1 0 2 2 2 0 1 0 1 1 0 0 1 3 0 1 0 1 0 2 0 0 0 2 3 0 3 1 0 2 0 1 1 1 1 0 1 0 1 0 1 2 1 1 0 0 2 2 1 0 0 0 3 1 0 2 2 1 0 3 1 0 0 1 2 0 0 0 2 1 0 2 0 0 0 1 2 1 0 1 0 1 1 2 1 0 2 3 1 3 0 0 1 0 0 0 0 1 0 0 0 0 0 3 0 0 1 1 0 2 1 2 2 1 1 2 1 0 2 1 1 3 1 2 1 2 2 0 2 1 1 1 1 1 2 3 1 1 2 0 1 1 1 1 0 0 1 1 0 2 1 0 1 0 1 1 0 0 2 1 3 0 0 0 2 0 2 0 0 0 2 1 0 0 0 0 2 0 1 0 1 2 1 0 1 0 0 2 0 0 1 1 0 1 0 1 0 0 1 0 2 0 0 0 4 1 2 0 2 1 0 2 1 0 0 0 1 1 0 1 1 1 2 2 0 2 2 0 1 2 1 1 1 0 1 1 3 0 2 0 1 1 2 1 2 0 0 1 1 0 1 1 3 3 1 1 0 0 1 1 0 1 0 1 1 0 1 1 3 0 0 1 0 0 1 1 3 1 1 0 1 1 0 0 1 2 1 0 1 2 3 0 0 2 1 0 2 1 2 0 1 0 0 1 2 1 0 0 1 1 0 1 1 1 1 1 1 1 1 0 1 3 1 2 0 2 1 0 2 0 1 0 0 3 1 2 3 0 0 0 1 1 0 0 2 2 1 1 1 1 1 0 1 2 0 0 1 0 1 2 1 1 0 0 1 2 0 0 1 0 1 1 0 4 1 1 2 0 2 0 0 0 1 0 2 0 0 1 1 1 1 1 1 0 1 0 0 0 0 2 1 0 0 0 0 1 0 2 1 1 1 2 2 0 1 1 0 0 1 1 1 0 0 0 2 2 0 1 0 0 0 1 0 0 2 0 0 0 1 2 1 0 0 1 0 1 1 1 0 0 1 1 1 0 0 0 1 0 0 2 0 0 1 0 3 0 1 0 1 0 1 3 2 0 1 1 1 2 1 1 0 1 1 1 0 1 0 0 0 0 0 1 1 1 1 1 2 1 0 1 0 1 1 4 0 0 2 0 0 0 0 0 0 0 1 1 0 1 0 0 0 1 1 2 1 0 1 1 2 3 0 2 0 1 0 2 3 1 1 1 1 0 3 0 1 0 0 0 0 3 0 0 1 0 3 0 2 1 1 0 0 0 1 1 1 0 0 2 1 1 0 0 0 0 0 0 1 0 0 2 0 0 0 2 0 0 1 1 1 0 0 1 1 1 0 0 0 0 1 1 0 0 0 0 1 0 0 1 1 3 0 2 1 1 1 3 0 0 1 2 1 0 2 1 3 2 0 0 0 0 0 2 0 3 2 0 0 1 0 2 4 2 3 0 2 1 2 2 0 1 2 1 2 3 0 1 1 3 1 0 2 0 2 2 3 1 2 1 0 1 4 3 0 1 0 0 0 0 3 1 0 2 2 1 0 0 1 1 2 0 0 0 0 1 0 0 1 1 3 0 0 3 1 0 1 0 0 0 0 1 0 1 0 1 2 0 0 0 2 0 3 1 1 2 0 1 0 0 0 1 0 2 0 1 1 0 0 2 2 0 2 2 1 1 0 2 0 1 3 0 0 2 0 2 0 4 1 1 0 1 1 1 2 2 0 1 4 2 0 0 1 1 1 0 0 3 0 3 1 2 1 0 1 1 1 1 0 0 1 0 2 0 2 0 0 2 1 1 0 2 1 1 0 0 0 0 0 2 1 0 1 0 0 0 0 0 0 0 2 1 1 1 1 1 1 1 1 0 0 0 2 0 0 0 1 0 0 0 1 0 0 0 0 0 0 1 1 0 1 3 1 2 1 1 0 3 2 2 0 1 1 2 0 0 2 0 2 0 0 0 2 1 2 0 3 2 0 0 0 0 1 1 0 1 0 1 3 2 1 1 2 1 0 2 0 2 2 1 0 1 0 0 1 2 0 1 1 0 1 0 1 1 1 2 1 0 0 0 0 1 0 0 0 0 0 2 2 1 1 2 0 1 0 2 1 1 1 3 1 2 1 2 2 2 1 2 3 3 1 2 1 2 2 2 0 4 0 0 1 3 2 0 0 0 3 3 0 0 1 0 1 1 2 0 4 3 1 0 0 1 2 0 2 2 1 2 0 2 3 0 0 1 1 0 1 2 0 2 2 2 0 0 0 0 1 0 2 0 0 3 0 1 3 1 1 1 1 0 1 1 3 0 3 2 2 2 2 4 1 0 3 1 0 0 1 2 2 2 2 1 1 2 0 1 1 0 2 2 2 0 0 0 1 1 3 0 0 0 2 3 0 1 1 0 2 2 0 1 0 0 1 0 2 1 1 0 0 0 1 0 1 1 2 1 5 1 1 2 2 0 1 1 1 2 0 0 1 1 0 1 0 1 1 0 1 4 0 2 0 1 0 2 0 0 0 1 0 1 1 0 1 0 0 2 1 0 2 1 1 2 0 0 1 2 0 1 1 1 3 1 1 0 1 0 0 2 1 0 0 1 1 2 0 0 1 2 1 2 1 0 1 1 1 1 1 1 0 0 1 1 1 0 1 0 2 1 2 0 1 2 1 0 1 0 0 0 1 0 0 2 1 1 2 1 1 1 3 1 0 0 2 3 0 1 1 1 2 1 0 2 0 2 1 1 0 2 2 2 3 0 1 2 3 2 1 2 0 0 1 0 3 0 0 0 0 1 1 0 0 2 0 0 2 1 0 2 0 2 1 1 2 0 0 2 1 1 3 0 1 0 1 1 1 2 1 0 2 2 1 0 3 0 1 2 1 0 1 1 0 0 1 0 0 0 2 1 0 0 0 0 1 1 0 0 2 1 1 1 1 0 0 0 0 1 1 0 1 2 2 0 1 1 0 1 0 1 3 2 1 0 1 0 0 1 0 0 0 2 0 1 1 0 2 2 0 2 0 0 1 1 2 2 1 1 2 3 2 0 0 0 2 2 2 0 0 2 2 0 1 2 2 0 2 1 1 0 4 1 2 2 4 0 0 2 0 0 0 2 1 2 5 1 3 0 1 1 4 0 3 0 4 2 1 0 1 0 0 1 1 1 2 1 2 2 1 3 1 3 1 0 2 0 4 2 3 1 0 0 1 1 1 1 1 4 0 1 0 0 0 0 1 1 3 1 0 0 2 1 1 2 1 2 1 1 1 1 1 3 0 3 1 3 1 1 0 1 2 0 0 0 3 0 4 3 0 0 0 1 0 2 2 2 0 1 3 1 3 1 2 0 1 0 1 1 1 2 1 3 0 0 0 3 0 0 2 3 2 2 3 0 0 1 0 1 0 0 0 0 0 0 0 0 2 0 1 0 1 0 2 1 0 1 2 2 0 1 0 2 0 0 1 2 1 0 1 0 2 1 0 0 1 0 2 1 1 0 1 3 1 0 2 2 0 1 0 1 0 1 0 0 0 0 2 1 0 0 0 0 0 1 2 0 2 1 2 0 0 0 0 1 1 1 0 0 1 0 1 0 2 0 2 0 0 0 0 0 0 0 2 0 0 1 2 1 0 1 0 0 2 0 0 0 1 0 1 0 0 0 0 0 1 0 0 0 2 0 1 1 1 0 1 0 3 1 1 1 0 1 0 1 2 2 2 0 1 0 0 0 2 0 0 2 0 1 1 0 1 0 0 0 1 0 4 2 2 1 1 2 0 1 1 1 1 0 0 0 0 1 0 1 1 1 2 2 0 1 1 1 1 2 0 0 3 0 0 2 2 0 3 0 1 1 2 2 2 0 1 0 3 1 1 0 1 1 2 2 1 1 1 2 0 0 3 1 2 0 1 2 0 3 0 1 1 0 4 2 1 1 0 1 1 2 0 1 1 1 0 0 2 0 2 0 0 0 0 1 2 0 0 1 1 2 0 2 0 3 0 3 1 1 0 4 0 3 1 2 1 1 4 0 1 1 3 3 2 0 2 0 2 3 0 2 2 1 1 2 1 1 1 0 3 0 1 0 2 0 2 0 1 2 1 1 1 0 3 1 1 1 1 1 3 0 1 0 1 1 2 0 3 0 3 0 1 1 3 1 2 2 1 2 0 2 2 0 5 0 3 2 1 1 1 1 0 2 1 2 1 2 2 1 2 2 0 0 3 2 1 2 1 0 2 0 1 4 2 0 2 3 1 1 1 3 1 1 1 1 2 0 1 0 0 0 1 0 0 2 0 1 1 0 0 0 1 0 2 0 1 2 1 0 1 0 1 1 1 1 0 0 0 0 1 1 2 1 2 0 0 0 0 0 1 0 1 2 3 0 0 1 0 1 1 0 1 1 1 1 1 0 0 2 1 0 2 1 0 0 1 1 1 1 0 2 0 0 1 1 2 0 1 1 2 1 1 0 0 2 0 0 0 2 1 0 2 1 3 2 1 1 1 1 0 0 1 1 0 0 1 2 1 3 0 1 0 0 0 2 1 1 1 1 0 0 4 1 0 3 0 2 2 0 0 1 2 2 1 3 0 2 0 0 1 1 2 1 3 0 0 1 0 2 2 2 0 0 2 0 0 0 0 0 0 1 1 1 0 1 0 2 0 2 1 0 0 0 1 1 1 4 1 0 0 0 1 0 0 0 3 2 0 0 1 0 1 0 0 0 0 0 2 1 2 0 0 0 1 1 0 1 1 1 1 0 0 2 1 2 2 1 1 1 4 0 2 2 0 1 0 1 1 2 1 1 0 1 0 1 1 3 0 1 2 1 0 0 1 1 0 1 0 
BTB PER SET COUNT: 0 1 1 1 0 0 0 0 0 0 1 0 1 0 0 1 1 0 0 1 0 1 1 1 0 1 0 1 1469 0 1 1 1 0 0 0 0 1 4 0 1 0 1 2 1 0 1 0 1 1 0 0 1 0 0 1 2 2 0 0 0 0 0 1 0 2 0 0 0 1 1 0 1 0 0 0 481 2 1 1 1 0 1 1 1 1 0 1 3 1 1 510 1 1 2 0 0 0 0 0 0 2 1 1 0 1 0 0 0 0 1 0 0 1 0 1 0 0 0 0 0 0 0 0 0 0 0 0 2 0 1 0 0 0 1 0 0 0 0 1 0 0 1 0 0 0 0 1 1 1 0 57 1 0 0 0 0 0 0 0 0 0 0 1 0 0 0 0 1980 1 0 0 1 0 0 0 0 1 0 0 0 0 1 0 0 1 0 0 0 0 2 0 1 2 0 5 1 0 0 1 0 1 0 0 0 0 0 0 0 0 0 2 1 1 1 0 0 1 0 0 0 0 1 1 1 0 0 0 0 1 1 0 0 0 0 2 1 0 0 0 2 0 1 0 3 3 0 0 1 0 1 0 0 1 0 2 1 0 0 0 2 1 1 0 2 3 1 0 1 0 0 0 0 1 0 1 0 0 0 1 1 0 0 0 1 1 0 0 0 0 0 0 0 0 0 0 1 2 0 0 1 0 1 0 1 0 2 0 0 0 1 0 0 0 2 0 1 1 0 1 0 0 0 0 0 0 1 1 0 0 0 0 1 0 1 0 0 0 2 0 2 0 0 0 0 0 1 0 0 0 0 1 0 2 1 0 1 0 2 0 0 2 1 0 2 1 0 0 0 0 1 0 0 0 0 1 0 0 1 0 0 0 0 1 0 0 1 0 0 0 0 0 1 0 0 0 0 0 0 1 1 1 0 0 0 0 1469 1 0 0 0 0 0 0 1 0 2 0 0 88 1 0 1 2 0 2 0 0 0 0 0 0 1 1 1 0 0 0 0 0 0 2 0 1 0 0 0 0 0 0 0 0 0 0 1 0 1 0 2 0 2 0 1 1 0 0 0 0 1 2 0 0 1 480 2 0 0 1 0 0 0 0 0 481 0 0 1 0 0 1 1 0 0 1 0 2 0 1 0 0 1 0 0 0 0 0 0 0 0 1 1 1 0 0 2 0 0 1 1 482 1 1 1 1 3 0 0 1 1 1 1 1 0 2 1 1 0 0 5 0 0 2 1 0 0 1 2 1 0 1 0 0 0 1 0 1 4 0 0 0 2 0 0 0 0 0 0 0 1 3 2 0 1 2 1 0 0 0 0 0 0 0 0 0 0 0 0 0 0 0 0 0 0 0 0 0 1 0 0 0 0 0 0 1 0 1 0 1 0 0 1 0 0 0 0 0 0 0 0 0 0 0 1 0 1 1 0 0 0 0 481 0 0 8 0 0 0 0 0 0 0 0 1 0 0 0 0 0 0 0 0 0 0 0 0 0 0 0 0 1 0 1 0 1 1 1 1 0 0 0 1 0 1 0 1 1 0 1 1 0 1 0 0 0 0 0 1 1469 1 0 0 0 0 1 0 1 1 1 0 0 0 1 0 1 0 0 0 0 0 0 1 1 0 0 1 0 1469 1 0 0 0 0 0 0 0 0 0 0 0 1 0 1 0 0 0 0 2 1 2 0 1 1 1 0 1 0 0 0 0 2 0 0 1 0 0 1 1 2 0 0 1 0 0 0 0 0 1 0 0 0 2 0 0 0 0 1 3 0 1 1 1 0 0 0 1 1 1 1 0 0 1 0 0 0 2 1 1 0 0 0 0 0 0 0 0 0 0 0 0 1 0 1 0 0 0 0 3 0 0 0 2 0 1 0 0 0 0 1 0 0 0 1 1 0 0 0 0 0 1 0 0 0 0 0 0 1 0 2 1 0 1 0 3 0 0 0 0 0 0 0 0 0 0 0 0 0 0 0 1 0 0 0 0 0 0 0 0 0 3 1 1 1 0 0 0 0 0 1 0 0 0 0 0 0 0 0 2 0 1 0 0 0 0 2 0 1 0 0 0 1 0 1 0 0 0 0 0 0 0 0 0 1 1 0 1 0 0 0 1 0 0 0 4 0 1 0 0 3 0 0 0 0 0 1 0 0 1 0 0 1 0 0 0 0 0 0 0 5 0 0 2 0 1 1 0 1 4 1 0 4 0 0 0 0 1 0 1 3 0 0 2 2 1 3 1 0 0 1 2 0 2 1 0 0 1 0 0 1 0 5 0 0 1 0 1 1 2 0 0 0 0 0 2458 0 0 0 2 1 0 1 1 1 4 2 0 0 0 1 1 1 3 2 1 1 1 0 0 1 1 0 0 0 0 2 0 1 3 0 2 3 0 1 0 2 1 1 2 1 1 0 0 0 2 0 2 0 1 1 2 1 1 3 0 2 0 0 3 0 0 1 0 0 0 1 1 2 2 2 1 2 0 2 1 2 1 0 2 0 0 1 0 2 1 0 2 1 1 1 0 1 0 2 1 1 1 1 1 0 2 3 1 1 1 1 0 1 1 2 1 1 1 1 1 0 3 1 0 0 2 0 0 0 1 0 1 0 0 1 1 2 0 2 2 0 1 0 1 1 0 0 0 0 0 3 0 1 1 1 0 1 0 0 1 0 3 0 0 1 2 4 2 1 0 3 4 0 3 0 0 0 0 1 1 0 1 0 2 124 1 0 0 0 2 1 0 2 0 0 0 2 1 3 0 2 0 1 0 0 2 6 993 0 4 0 0 0 2 1 2 0 2 1 1 1 0 0 0 1 1 1 0 1 2 2 2 0 2 1 0 2 3 1990 1 1 1 1 0 0 1 3 4 1 1 1 2 1 2 1 2 0 0 1 1 0 3450 2 1 0 0 0 1 1 0 0 1 0 0 1 2 2 1 0 2 0 0 0 0 1 1 0 1 0 0 1 1 0 2 1 3 1 1 1 1 0 1 1 0 2 1 1 0 2 0 1 2 0 0 0 0 1 0 1 0 1 2 1 1 0 0 0 0 1 1 0 0 1 0 0 0 0 1 2 3 0 1 0 0 0 1 2 4 1 1 1 0 2 0 2 2 0 1 0 0 1 1 2 1 1 1 0 1 1 0 0 1 2 0 1 1 0 1 0 0 1 1 1 1 1 1 0 4 1 1 1 0 0 1 133 0 1 0 2 0 1 2 0 0 0 0 2 0 0 0 1 0 1 1 1 0 1 0 0 1 0 1 0 0 0 0 1 1 0 0 0 0 1 1 1 3 1 1 0 1 1 1 0 1 0 0 3 0 0 0 0 0 1 1 0 0 0 0 0 0 0 0 0 1 0 2 0 1 0 2 0 1 0 0 2 0 0 2 1 1 1 1 0 0 1 0 0 1 0 1 1 1 1 0 0 1 0 2 380 0 0 3 1 0 1 0 2 1 1 1 1 0 1 1 1 0 1 1 0 1 0 2 0 1 0 0 0 0 0 0 1 1 0 1 453 1 1 0 0 1 0 1 2 0 0 0 3 1 0 0 1 1 1 9 0 0 1 1 6 1 0 0 1 2 0 0 0 3 1 2 0 2 0 2 1 0 1 1 2 3 0 1 0 2 1 0 23 2 2 1 2 3 0 0 2 0 1 1 0 1 0 1 0 0 989 0 1 2 0 0 0 1 2 2 1 3 0 0 0 3 0 0 2 1 0 0 0 0 3 0 1 0 258 1 0 1 2 1 1 9 1 1 1 3 0 1 0 0 0 1 1 1 2 0 0 1 1 0 1 1 0 0 1 2 0 0 2 0 0 0 2 1 0 0 2 1 0 0 0 0 1 0 0 1 1 2 1 2 1 579 0 1 5 3 2 3 1 0 2 0 0 1 1 0 0 0 0 1 1 2 0 0 1 1 1 151 0 0 0 0 1469 69 1 1 1 0 0 1 762 0 0 0 0 1 0 0 0 0 639 0 1 0 0 2 0 2 1 0 0 0 0 0 2 0 0 0 0 0 0 1 0 3 0 1 548 0 0 1 2 0 0 0 0 0 0 0 0 3 1 1 0 1 0 0 1 1 0 0 6 0 0 0 0 1 1 0 0 2 1 411 0 0 1 0 2 229 1 100 0 1 0 3 0 231 0 1 0 1 0 2 1 0 0 1 1 0 0 0 0 2 1 1 0 1 393 1 3 1 0 0 0 0 1 1 0 0 0 0 0 0 2 235 2 0 0 0 1 0 0 0 0 0 1 1 0 0 1 0 0 1 2 0 1 2 0 1 0 0 1 1 1 0 0 0 0 1 0 0 0 0 0 0 0 0 0 1 0 0 1 1 1 0 0 0 1 0 0 0 0 3 1 0 0 124 0 0 0 0 0 0 0 0 0 0 0 0 0 0 0 0 0 2 0 3 2 1 0 0 1 0 0 0 0 0 1 0 3 0 2 0 1 2 6 0 0 0 0 1 2 1 0 0 0 1 1 0 0 0 0 4 3 1 0 1 0 0 0 0 0 2 0 0 1 0 0 0 1 0 0 0 1 2 0 0 0 2 0 0 0 1 1 0 0 0 2 0 1 0 2 0 0 0 0 0 0 1 0 1 0 1 0 1 0 1 1 202 0 0 0 0 0 7 1 0 0 1 1 1 0 3 0 1 1 1 0 0 1 1 2 2 1 0 1 0 1469 1 1 0 1 1 2 0 0 1 0 1 4 0 1 0 0 2937 0 0 1 1 1 0 1 2 1 1 1 2 1 2 0 0 1 0 1 0 0 0 1 0 1 0 0 0 0 1 0 0 0 0 0 0 0 1 0 1 0 0 0 0 2 0 0 0 0 1 0 0 0 1 0 1 1 0 0 0 0 1 1 0 0 0 0 0 0 0 1 0 0 1 0 0 0 0 1 1 0 2 1 0 1 0 0 0 0 0 0 3 2 1 0 1 2 1 0 2 0 0 0 2 0 1 1 0 1 1 0 1 0 1 1 1 1 1 0 2 0 2 0 2 2 1 2 1 1979 2 0 2 0 0 0 1 0 0 0 1 0 2 0 1 1 1 0 1 0 0 0 1 1 0 2 3 1 1 2 1 1 1 1 1 1 1 0 6 2 0 1470 2 0 2 2 2 1 0 1 3 2 2 0 0 0 0 0 0 1 0 0 0 0 0 0 0 0 0 0 1 0 0 0 0 0 1 1 2 2 0 0 1 1 0 1 0 0 0 1 0 1 1 0 1 0 0 0 1469 1 0 0 0 0 0 0 1 0 0 0 0 0 0 0 1 0 1 0 3 0 1 0 0 0 0 2 0 1 1 0 1 0 0 0 0 0 0 0 2 0 1 0 1 1 1 0 1 0 1 2 2 4 0 0 0 4 1 1 1 0 0 2 0 0 1 0 0 1 0 2 0 0 1 0 0 0 1 1 3 1 0 0 1 0 2 4 1 1 2 0 0 0 1 0 1 1 1 2 3 2 0 1 0 2 0 0 0 1 3 1 1 1 1 0 2 1 0 2 2 1 1 0 1 0 3 1 1 0 0 1 1470 0 1 1 0 0 0 0 0 2 1 0 0 0 0 1 0 2 989 0 146 2 0 1 0 0 1 1 1 0 2 0 1 3 0 1 3 0 2 1 0 0 0 0 0 0 1 1 0 3 0 0 1 0 1 0 1 0 2 1 0 1 481 2 0 2 1 1 1 1 2 1 2 0 0 3 30 0 0 0 2 3 0 1 2 0 1 0 0 1 1 0 1 0 2 1 0 2 0 4 2 1 0 1 1 0 0 0 2 0 1 1 1 1 0 0 0 3 0 1 0 1 0 1 0 1471 0 0 0 3 0 2 1 1 0 0 0 1 0 0 1 1 1 1 0 1 0 0 0 1 1 0 0 1 0 0 1 1 0 0 0 2 1 0 0 0 1 0 0 0 1 0 0 1 0 0 0 0 0 0 2 2 0 1 1 44 0 0 0 0 0 2 2 1 1 2 0 0 1 0 2 0 2 0 3 2 4 3 1 2 1 0 0 2 0 0 0 0 0 2 0 0 0 0 1 482 2 0 0 2 1 1 1 0 1 1470 1 1 2 1 2 3 0 1 2 0 0 0 0 0 0 1 1 1 0 0 1 1 0 0 0 0 1 0 1 0 0 1 0 2 2941 1 0 3 0 0 1 3 0 0 1 2 0 0 1 1 3 0 0 2 1 0 0 1 2 3 0 0 0 0 3 0 3 0 0 2 0 1 0 0 2 0 1 0 1 1 6 0 0 1 5 0 0 0 1 0 0 0 1 0 0 2 1 0 2 1 0 0 0 3 0 3 1 0 0 1 1 1 1 2 480 0 1 0 0 2 0 1 1 0 0 2 0 0 0 1 0 3 1 1 3 1 1 1 0 1 0 1 2 0 2 1 0 0 0 1 0 0 3 3 0 0 0 1 0 1 0 1 1 1 3 0 0 0 3 1 2 3 1 0 1 1 0 0 1 0 1 0 1 2 0 1 0 0 0 1 1 1 0 0 1 1 2 0 2 0 1 1 0 0 0 0 0 0 1 0 1 1472 0 2 0 1 0 1 2 0 0 4 0 0 0 1 2 3 1 7 0 0 2 990 1 3 0 1 0 2 2 1 0 0 1 0 2 2 0 2 2 0 2 2 1 0 1 2 2 0 0 0 0 0 0 0 0 0 3 1 1 2 1 2 1 2 1 0 2 1 0 2 0 1 0 0 1 0 2 0 1 1 1 0 0 1 2 2 1 0 2 3 1 1 1 2 1 1 2 1 0 0 0 2 2 244 1 0 3 0 0 3 1 1 0 1 2 1 0 0 1 0 0 1 2 0 1 1 0 1 0 0 1 0 990 1 0 0 3 1 1 0 1 0 1 0 1 0 1 1 0 0 1 1 0 1 2 0 0 0 0 1 0 1 0 1 1 1 2 1 1 2 0 0 0 0 0 0 0 1 2 1 1 1 0 0 1 1 1 3 2 0 0 0 2 0 0 4 1 1 1 1 0 1 0 1 0 2 0 1 0 1 0 0 0 0 0 0 1 0 0 0 0 0 0 0 0 1 0 3 1 0 1 0 3 0 0 2 0 0 3 1 1 0 0 1 0 1 1 0 0 0 0 0 1 0 2 1 1 0 2 0 2 0 4 1 1 1 1 1 1 3 1 0 3 0 1 1 1 1 1 1 1 0 1 1 1 1 2 1 0 1 0 0 1 0 0 1 1 1 1 1 1 1 1 1 482 0 1 0 1 1 2 0 2 0 1 0 1 1 1 0 0 0 2 1 1 1 0 1 0 2 1 0 0 2 0 1 1 0 1 1 2 0 991 0 6 1 1 1 1 2 0 0 1 0 2 0 1 0 1 0 1 0 1 2 1 1 1 0 1 3 0 2 1 0 0 2 1 0 1 0 0 0 1 0 1 0 1 0 1 0 0 1 2 1 1 0 1 1 0 1 0 0 2 0 2 2 4 0 0 1 0 1 1 1 0 0 0 0 0 0 1 0 1 1 0 0 0 1 0 0 2 1 0 1 2 0 0 1 1 1 1 1 1 0 2 0 0 0 0 1 2 0 1 1 1 1 1 0 1 0 1 2 1 1 0 0 2 1 3 1 0 1 0 1 3 0 1 0 1 0 0 1 2 0 2 0 0 0 0 2 1 0 2 0 0 0 2 4 1 1 2 0 1 1 0 1 0 0 0 0 0 1 0 1 0 0 0 2 0 0 0 0 0 1 0 0 1 0 2 0 0 1 2 989 0 0 3 0 2 0 0 0 0 1 0 0 2 1 0 0 0 0 0 0 0 0 0 1 1 1 0 2 0 1 2 1 1 0 0 0 2 0 3 1 2 1 0 2 0 0 0 0 1 0 2 0 2 0 1 0 1 0 511 1 0 0 1 0 0 1 1 0 0 0 2 1 0 0 0 1 1 1 2 1 3 0 0 3 1 3 1 1 2 0 3 2 2 1 1 1 2 0 3 0 1 0 2 1 0 1 960 1 15 0 2 1 4 0 0 1 1 1 4 3 1 0 20568 0 0 1 2 0 0 0 1 3 1 0 0 0 1 2 1 1 1 3 0 1 1 1 4 0 0 0 1 1 2 1 0 1 1 0 1 1 1 1 0 1 0 1 2 0 1 0 2 0 1 0 1 1 0 2 0 0 1 1 0 0 1 1 0 2 1 0 3 1 1 2 1 0 1 0 0 0 0 2 989 0 0 0 1 1 0 0 1 1 1 4 0 0 2 0 4 1 1 0 0 1 0 1 12 1 0 1 1 1 1 1 0 0 0 0 0 0 1 0 0 2 0 0 0 2 2 0 4 0 1 1 1 1 1 0 0 2 1 1 1 1 1 2 0 0 0 0 1 1 1 226 0 1 1 0 0 1 1 0 2 1 1 0 0 2 0 2 0 1 1 1 0 2 1 0 0 0 0 0 0 1 1 2 3 0 0 0 0 2 1 0 1 2 1 1 0 0 0 0 0 0 0 1 0 1 0 1 0 0 2 1 1469 0 1 0 0 2 0 1 0 1 0 0 2 1 0 0 1 3 0 1472 1 2 1 0 1 0 2 1 1 3 0 0 1 0 1 0 1 0 0 2 0 1 0 2 0 0 0 1 0 0 0 0 0 1 1 1 1 0 0 0 2 0 0 0 0 1 0 0 0 3 1 0 1 1 2 1 1 1 1 0 0 0 1 1 0 0 2 0 0 1 1 0 0 0 0 0 1 1 1 1 0 1 1 2 1 1 0 0 0 1 0 0 1 1 0 0 0 0 1 0 1 0 1 1 1 510 0 0 0 1 0 0 0 1 0 0 0 0 0 0 0 2 0 0 1 0 1 0 0 0 0 0 1 0 1 1 1 3 0 1 1 0 1 2 0 1 0 1 1 0 0 0 0 0 0 2 0 1 3 0 1 1 1 1 0 1 1 2 0 1 1 0 1 0 0 0 0 7 2 1 1 1 2 0 2 1 1 1 2 3 1 1 2 5 0 0 3 0 1 3 0 1 1 0 2 0 0 1 1 0 1 0 1 1 2 2 0 4 2 0 0 1 2 0 0 1 0 0 1 1 0 1 1 1 1 0 0 0 0 0 2 0 1 1 2 1 1 2 1 2 2 1 1 1 2 0 0 2 1 2 0 0 0 0 3 2 3 0 0 0 3 0 0 0 0 0 1 1 1 1 0 0 0 1 1 0 0 1 2 0 0 1 1 0 0 2 0 0 1 2 0 0 0 0 0 1 9 0 1 1 1 0 0 2 0 0 1 1 1 2 0 0 2 1 3 0 1 0 0 1 0 0 1 1 1 1 0 0 0 1 1 1 1 1 0 1 1 1 1 0 2 0 0 2 0 0 0 2 1 1 0 0 1 1 4 0 1 1 1 0 0 1 2 1 1 1 1 2 2 1 0 350 4 0 2 1 4 1 0 2 1 1 1 4 0 0 0 2 0 3 2 0 1 4 0 1 6 1 1 2 1 0 1 4 0 1 3 0 1 2 1 1 1 1 3 0 0 1 3 1 1 3 1 2 1 0 2 2 2 0 1 1 1 1 0 2 481 0 1 0 1 1 0 0 1 1 2 4 1 0 0 0 1 2 2 1 1 2 0 2 1 0 0 2 1 1 0 0 0 0 2 2 0 1 3 0 1 2 1 1 1 0 1 0 992 1 1 2 4 2 2 1 2 0 1 1 2 1 0 0 1 0 0 1 0 0 2 0 1 0 0 0 1 0 0 0 0 1 1 0 1 1 0 1 1 0 0 0 0 1 1 0 2 35 0 1 197 2 1 1 1 0 1 0 1 1 0 0 0 1 2 1 1 1 1 1 0 1 1 0 0 2 1 2 2 2 1 2 1 2 0 1 2 0 1 1 2 2 1 1 2 1 1 0 4 1 1 2 1 1 1 959 2 1 1 1 0 0 1 2 0 1 2 0 0 1 1 2 0 1 1 2 1 2 3 3 1 1 2 2 1 0 1 1 1 0 1 1 2 2 0 3 0 2 0 0 960 0 1 2 990 1 959 2 2 0 0 0 0 960 960 2 0 1 0 3 1 1 2 0 1 2 0 0 1 0 1 0 0 2 2 1 1 0 0 0 1 1 2 1 1 1 2 1 1 3 0 0 2 3 0 0 1 1 2 1 1 2 1 2 2 0 3 0 0 1 2 0 3 1 1 0 1 2 0 989 1 1 1 1 0 0 1 1 1 1 0 1 1 0 1 1 0 0 1 3 1 0 4 2 2 3 2 1 0 0 0 3 3 2 2 1 1 3 1 1 3 0 0 1 2 0 0 3 0 1 1 1 2 1 0 0 1 0 0 1 0 1 0 0 0 1 0 0 0 0 0 1 2 0 1 2 1 1 2 0 1 1 1 1 0 1 2 1 3 0 2 1 0 1 0 2 1 0 0 1 2 1 2 2 1 0 1 2 0 1 0 0 2 0 0 2 0 2 2 0 3 0 3 0 0 483 0 0 0 0 0 2 2 0 15 0 3 4 4 3 1 3 4 2 0 2 0 0 0 1 4 0 1 2 1 0 0 1 1 1 2 0 0 3 1 0 0 1 0 0 0 1 0 0 1 0 0 4 2 2 2 4 0 1 989 2 1 0 0 1 0 0 1 2 1 0 1 0 3 0 1 1 3 1 2 0 1020 0 2 1 3 1 2 0 1 0 1 2 1 0 1 1 0 0 2 1 0 0 1 1 4 1 2 2 0 0 2 0 2 0 1 1 3 1 1 0 3 0 1 2 7768 1 3 2 1 0 0 960 0 0 3 1 0 0 3 960 0 0 4 2 0 0 1 961 2 1 0 1 1 1 0 961 1 0 1 2 2 2 2 1 0 1 0 1 1 960 0 1 0 0 0 1 0 1 960 0 0 0 0 2 1 0 1 1 0 1 1 1 0 2 2 1 989 0 1 1 2 0 0 0 0 1 0 2 0 0 2 1 1 960 0 0 0 3 0 0 1 1 1 0 0 1 0 2 0 1 2 1 0 0 0 2 0 0 1 1 0 2 0 0 1 1 0 0 2 2 2 2 0 0 0 29 0 0 1 2 2 1 1 0 2 2 1 2 1 1 1 5 0 4 0 1 1 0 3 1 0 0 0 3 1 0 0 0 2 1 1 0 1 120 1 0 1 1 4 0 1 0 2 2 0 1 0 1 0 0 3 0 1 0 1 0 2 1 2 2 0 0 1 0 0 0 0 1 4 1 1 0 1 0 1 1 1 3 1 0 3 1 1 0 1 0 2 0 0 0 1 1 0 0 3 0 1 3 1 1 2 0 0 1 1 0 1 0 1 2 0 1 0 3 3 2 0 0 1 3 0 0 1 2 3 0 2 1 1 0 3 0 1 1 3 1 2 510 1 1 39 1 0 1 1 1 0 990 2 2 0 2 1 0 1 1 4 1 3 0 10 0 2 1 0 481 1 1 3 3 6 1 2 1 1 1 0 350 1 1 2 1 1 2 1 2 0 2 0 4 1 0 0 1 1 0 1 2 2 1 2 1 1 2 0 1 1 1 1 2 1 3 0 2 1920 0 2 0 1 3 2 2 1 2 3 0 3 2 0 2 2 0 0 0 0 2 1 0 2 0 0 0 0 0 3 0 1 2 0 1 2 2 1 0 0 0 3 0 0 352 0 0 1 3 0 1 1 0 0 0 0 1 1 3 0 1 3 0 0 1 4 0 1 0 1 1 2 1 0 2 2 1 2 1 1 2 1 0 0 0 2 0 1 1 1 3 0 0 2 0 0 0 481 0 1 0 2 3 1 1 1 1 0 1 3 1 0 1 2 0 2 0 0 3 0 1 1 1 0 3 0 1 2 1 0 2 0 0 0 2 1 0 0 0 1 1 1 0 0 1 2 1 1 0 2 0 0 0 2 0 1 1 1 3 0 1 3 0 0 2 1 1 0 0 0 3 0 3 0 0 0 1 2 0 0 0 481 0 0 1 0 1 0 0 0 480 1 0 1 0 0 0 1 2 0 2 2 0 0 1 0 0 0 1 2 0 0 0 0 1 0 0 3 0 0 961 1 0 1 1 0 3 0 2 0 0 0 3 1 1 0 1 0 0 1 1 0 2 2 1 0 0 2 0 0 0 1 1 0 0 1 1 1 1 1 0 0 1 0 1 3 0 0 2 0 0 2 1 2 0 0 0 0 1469 1 0 1 1 1 0 1 0 4 0 0 1 0 4 1 0 0 0 0 1 0 0 1 1 1 1 0 1 1 0 0 1 1 0 0 3 1 1 0 1 1 0 1 1 0 1 2 1 1 4 0 0 4 0 2 1 0 1 1 1 1 0 0 0 1 0 1 1 1 0 0 0 0 0 1 2 1 1 0 1 1 0 1 1 0 1 0 2 0 1 0 1 0 1 2 0 3 0 3 2 0 0 1 1 2 0 0 0 2 0 1 1 0 2 1 0 2 0 2 0 1 1 0 1 0 1 1 3 2 0 0 1 1 3 2 0 2 0 0 2 1469 0 0 1338 0 1 1 0 0 1 0 0 1 1337 0 1 0 2 1 0 0 0 0 0 0 0 0 0 0 1 2 0 1 0 0 0 0 0 0 0 0 0 0 0 0 0 1 0 0 0 1 0 0 0 0 0 0 2 17 0 0 0 2 0 0 0 2 2 105 0 4 0 0 0 0 0 1 0 1 0 1 0 0 1 1 0 0 0 0 1 0 1 0 0 16 1 1 1 0 0 0 0 0 0 1 0 0 1 0 0 0 1 0 0 0 0 0 0 1 0 1 1 1 2 0 0 1 0 0 0 0 0 0 0 1 0 1 1 0 0 0 0 2 0 0 0 0 1 0 0 0 0 1 0 0 1 0 1 1 1 2 0 2 0 0 0 0 1 1 0 1 1 1 1 1470 0 0 0 1470 0 0 1 0 1 1 0 2 0 0 0 0 0 1 1 2 0 0 1 0 2870 0 1 0 0 7 4 1 1 2 1 3 0 1 0 1 0 1 1 0 3 1 0 0 0 0 2 2 1 0 0 1 0 1 0 1 1 0 0 0 0 0 1 2 1 0 1 1 0 1 1 1 1 960 0 0 0 0 1 1 959 0 0 0 2 481 0 1 0 1 2 0 0 0 1 1 484 0 0 14690 958 1 1 4 1 0 0 0 0 0 2 2 0 0 0 0 1 2 0 0 1 0 0 1 1 0 1 1 0 2 2 0 0 0 2 0 1 1 1 0 0 0 0 0 0 2 0 1 0 1 0 1 0 2 1 1 1 0 3 0 0 0 1 0 1 1 0 0 0 0 2 1 0 0 1 0 0 990 1 1 1 0 1 2 0 2 0 0 0 1 1469 1 3 1 0 2 1 2 1 1 2 5 0 0 3 0 1 0 1 1 3 2 0 1 1 2 0 2 0 3 1470 1 2 0 0 1 0 0 1 0 2 0 1 1 2 1 1 3 1 1 2 990 0 1 0 3 0 2 2 2 2 2 1 0 0 1 0 1 0 1 1 0 0 0 1 0 0 0 2 0 1 2 1 2 0 2 0 0 2 2 0 1 2 1 0 0 2 2 3 1 0 0 1 0 0 1 0 0 1 0 1 2 0 0 1 0 0 0 1 1 1 1 0 1 0 2 2 1 0 1 2 0 1 1 2 1 2 1 0 1 0 2 1 0 1 0 1 1 0 1 2 0 1 0 1 0 0 2 1 0 2 1471 2 0 1 0 1 1 0 0 1 5 0 1 0 1 0 2 0 0 0 2 3 0 3 1 0 2 0 1 1 1 2 0 1 0 1 0 1 2 1 2 0 0 3 2 1 0 0 0 3 1 0 2 2 1 0 3 2 0 0 1 2 0 0 0 2 1 0 2 0 0 0 1 2 1 0 1 0 1 1 2 1 0 2 1475 1 4 0 0 1 0 0 0 0 1 0 0 0 0 0 3 0 0 1 1 0 2 1 2 2 1 1 2 1 0 3 1 1 4 2 2 1 3 2 0 2 1 1 1 1 1 2 992 1 1 2 0 1 1 1 1 0 0 1 1 0 2 1 0 1 0 1 1 0 0 2 1 3 0 0 0 2 0 2 0 0 0 2 1 0 0 0 0 3 0 1 0 1 2 1 0 1 0 0 2 0 0 1 1 0 2 0 1 0 0 1 0 2 0 0 0 4 1 2 0 2 1 0 2 1 0 0 0 1 1 0 1 2 1 2 2 0 2 2 0 1 2 1 1 1 0 1 1 4 0 2 0 1 1 3 1 2 0 0 1 1 0 1 1 4 3 1 1 0 0 1 1 0 1 0 1 1 0 1 1 3 0 0 1 0 0 1 1 3 1 1 0 1 1 0 0 1 2 1 0 1 3 3 0 0 2 1 0 2 1 2 0 1 0 0 1 2 1 0 0 1 1 0 1 1 1 1 1 1 1 1 0 1 3 1 2 0 2 1 0 2 0 1 0 0 3 1 2 3 0 0 0 1 1 0 0 2 2 1 2 1 1 1 0 1 2 0 0 1 0 1 2 1 1 0 0 1 2 0 0 1 0 1 2 0 5 1 1 2 0 2 0 0 0 1 0 2 0 0 3 1 1 1 1 1 0 1 0 0 0 0 3 1 0 0 0 0 1 0 2 2 1 3 2 2 0 1 1 0 0 1 1 1 0 0 0 2 2 0 1 0 0 0 1 0 0 2 0 0 0 1 2 1 0 0 1 0 1 2 1 0 0 1 1 1 0 0 0 1 0 0 2 0 0 1 0 4 0 1 0 1 0 1 3 2 0 1 2 1 2 1 1 0 1 1 1 0 2 0 0 0 0 0 1 1 1 1 1 3 1 0 2 0 1 1 4 0 0 2 0 0 0 0 0 0 0 1 1 0 3 0 0 0 142 1 2 1 0 1 1 2 3 0 3 0 1 0 3 4 1 1 1 1 0 3 0 1 0 0 0 0 4 0 0 1 0 3 0 2 1 1 0 0 0 1 3 1 0 0 2 1 1 0 0 0 0 0 0 1 0 0 2 0 0 0 2 0 0 1 1 1 0 0 1 11 1 0 0 0 0 1 1 0 0 0 0 1 0 0 1 1 3 0 2 2 1 1 4 0 0 1 2 1 0 2 1 6 2 0 0 0 0 0 2 0 3 3 0 0 1 0 2 4 2 3 0 2 1 2 3 0 1 2 1 2 3 0 1 1 3 1 0 2 0 3 2 4 1 2 1 0 3 4 3 0 1 0 0 0 0 5 1 0 2 2 1 0 0 1 1 2 0 0 0 0 1 0 0 1 1 3 0 0 3 1 0 1 0 0 0 0 1 0 1 0 1 2 0 0 0 2 0 3 1 1 3 0 1 0 0 0 1 0 2 0 1 1 0 0 2 2 0 2 2 1 1 0 2 0 1 3 0 0 2 0 2 0 4 2 1 0 2 1 1 2 3 0 1 4 2 0 0 1 1 1 0 0 3 0 3 1 2 1 0 1 2 2 1 0 0 1 0 30 0 2 0 0 2 1 2 0 2 1 1 0 0 0 0 0 2 1 0 1 0 0 0 0 0 0 0 2 1 1 1 1 1 1 1 1 0 0 0 2 0 0 0 1 0 0 0 1 0 0 0 0 0 0 1 1 0 1 3 2 2 1 1 0 3 2 3 0 2 1 2 0 0 89 0 2 0 0 0 2 1 2 0 3 3 0 0 0 0 1 1 0 1 0 1 4 2 1 1 2 1 0 2 0 1920 2 1 0 2 0 0 1 2 0 1 1 0 1 0 1 1 1 2 1 0 0 0 0 1 0 0 0 0 0 2 2 1 1 2 0 1 0 3 1 1 5 3 1 2 1 2 2 2 1 2 3 3 1 3 1 2 2 2 0 4 0 0 1 3 2 0 0 0 3 3 0 0 1 0 1 1 2 0 4 3 1 0 0 1 2 0 2 3 1 2 0 2 3 0 0 1 1 0 59 3 0 2 2 2 0 0 0 0 1 0 2 0 0 3 0 1 3 1 1 2 1 0 1 1 4 0 483 2 2 2 2 4 1 0 3 1 0 0 1 2 2 2 2 1 1 2 0 1 1 0 2 2 2 0 0 0 1 1 3 0 0 0 2 3 0 1 1 0 2 2 0 1 0 0 1 0 2 480 1 0 0 0 1 0 1 1 2 1 1918 1 1 2 2 0 1 1 1 2 0 0 1 1 0 1 0 1 1 0 348 962 0 2 0 1 0 2 0 0 0 1 0 1 1 0 1 0 0 2 2 0 2 1 1 2 0 0 1 2 0 1 1 1 3 1 1 0 1 0 0 1470 1 0 0 1 1 2 0 0 1 2 1 3 1 0 1 1 1 1 1 1 0 0 1 1 1 0 1 0 121 1 2 0 1 2 1 0 1 0 0 0 1 0 0 2 1 1 2 1 1 1 3 1 0 0 2 3 0 1 1 1 2 1 0 2 0 2 1 1 0 2 2 2 3 0 1 2 3 2 1 2 0 0 1 0 3 0 0 0 0 1 1 0 0 2 0 0 2 1 0 2 0 2 1 1 2 0 0 2 1 1 3 0 1 0 1 1 1 2 1 0 2 2 1 0 3 0 1 3 1 0 1 1 0 0 1 0 0 0 4 1 0 0 0 0 1 1 0 0 2 1 1 1 1 0 0 0 0 1 1 0 1 2 2 0 1 1 0 1 0 1 3 2 1 0 1 0 0 2 0 0 0 2 0 1 1 0 2 2 0 2 0 0 1 1 2 2 1 1 1470 3 2 0 0 0 2 2 2 0 0 2 2 0 1 2 2 0 2 1 1 0 4 1 2 3 4 0 0 2 0 0 0 2 1 2 1208 989 3 0 1 1 4 0 4 0 4 2 1 0 1 0 0 4 1 1 2 1 2 2 1 3 1 483 1 0 6 0 79 2 3 1 0 0 1 1 2 1 1 5 0 1 0 0 0 0 1 1 3 1 0 0 2 1 2 3 1 2 1 1 1 1 1 4 0 4 1 5 1 1 0 1 2 0 0 0 3 0 4 4 0 0 0 1 0 2 2 2 0 1 46 1 4 1 2 0 1 0 1 1 1 2 4 4 0 0 0 4 0 0 2 3 2 2 10 0 0 1 0 1 0 0 0 0 0 0 0 0 2 0 1 0 1 0 2 1 0 1 2 2 0 1 0 2 0 0 1 2 1 0 1 0 3 1 0 0 1 0 2 1 1 0 1 4 2 0 8 2 0 1 0 1 0 1 0 0 0 0 990 1 0 0 0 0 0 1 2 0 2 1 2 0 0 0 0 1 1 1 0 0 1 0 1 0 2 0 2 0 0 0 0 0 0 0 2 0 0 254 2 1 0 1 0 0 2 0 0 0 1 0 1 0 0 0 0 0 1 0 0 0 2 0 1 2 1 0 1 0 3 1 1 1 0 1 0 1 2 2 2 0 1 0 0 0 2 0 0 2 0 1 1 0 1 0 0 0 1 0 4 2 2 1 1 2 0 1 1 1 1 0 0 0 0 1 0 1 1 2 2 2 0 1 1 1 1 2 0 0 3 0 0 2 2 0 3 0 1 1 2 2 2 0 1 0 3 2 1 0 1 1 2 2 1 1 1 2 0 0 4 1 2 0 1 2 0 3 0 1 1 0 4 2 1 348 0 1469 1 2 0 1 1 1 0 0 2 0 2 0 0 0 0 1 2 0 0 1 1 2 0 482 0 3 0 3 2 1 0 4 0 483 1 2 1 1 4 0 1 1 3 4 2 0 2 0 2 3 0 483 2 1 1 2 1 1 1 0 4 0 348 0 2 0 2 0 1 2 1 1 1 0 6 1 1 1 1 1 3 0 1 0 1 1 2 0 3 0 3 0 1 1 3 1 2 2 1 2 0 2 3 0 1441 0 3 4 1 1 1 1 0 2 1 2 1 2 2 1 2 2 0 0 3 2 1 2 1 0 2 0 1 4 990 0 2 3 1 1 1 3 1 1 1 1 2 0 1 0 0 0 1 0 0 2 0 1 1 0 0 0 1 0 2 0 1 2 1 0 1 0 1 1 1 1 0 0 0 0 1 1 2 1 2 0 0 0 0 0 1 0 1 2 3 0 0 1 0 1 1 0 1 1 1 1 1 0 0 29 1 0 2 1 0 0 1 1 1 1 0 2 0 0 1 1 2 0 1 1 2 1 1 0 0 2 0 0 0 2 1 0 961 1 3 2 1 1 1 1 0 0 1 2 0 0 1 3 1 3 0 1 0 0 0 2 1 1 1 1 0 0 4 1 0 3 0 2 2 0 0 1 2 2 1 3 0 2 0 0 1 1 961 1 3 0 0 1 0 2 2 2 0 0 2 0 0 0 0 0 0 1 1 1 0 1 0 2 0 2 1 0 0 0 1 1 1 4 1 0 0 0 481 0 0 0 3 2 0 0 1 0 1 0 0 0 0 0 2 1 2 0 0 0 1 1 0 1 1 1 1 0 0 2 1 2 4 1 1 1 4 0 2 2 0 1 0 1 1 2 1 1 0 1 0 1 1 3 0 1 2 1 0 0 1 6 0 1 0 
