
*** ChampSim Multicore Out-of-Order Simulator ***

Warmup Instructions: 50000000
Simulation Instructions: 50000000
Number of CPUs: 1
LLC sets: 2048
LLC ways: 16
Off-chip DRAM Size: 4096 MB Channels: 1 Width: 64-bit Data Rate: 6400 MT/s
CPU 0 runs ./micro_traces/srv301.trace.gz
.gz
ITLB has LRU replacement policy
DTLB has LRU replacement policy
STLB has LRU replacement policy
FDIP Prefetcher at L1I
L1I has LRU replacement policy
L1D has LRU replacement policy
Initialize SRRIP state for L2C
Initialize DRRIP state for LLC
Heartbeat_Variant_0 : 1047 0.255615 per_variant_size: 0 1047 0 0 0 0 0 0 0 
Heartbeat_Variant_1 : 2239 0.546631 per_variant_size: 0 449 1790 0 0 0 0 0 0 
Heartbeat_Variant_2 : 0 0 per_variant_size: 0 0 0 0 0 0 0 0 0 
Heartbeat_Variant_3 : 0 0 per_variant_size: 0 0 0 0 0 0 0 0 0 
Heartbeat_Variant_0_evicts 0 : 21679 1 : 18549 2 : 0 3 : 0 
Heartbeat_Variant_1_evicts 0 : 18617 1 : 0 2 : 0 3 : 0 
Heartbeat_Variant_2_evicts 0 : 0 1 : 0 2 : 0 3 : 0 
Heartbeat_Variant_3_evicts 0 : 0 1 : 0 2 : 0 3 : 0 
Heartbeat CPU 0 instructions: 10000000 cycles: 2798079 heartbeat IPC: 3.57388 cumulative IPC: 3.57388 (Simulation time: 0 hr 2 min 9 sec) 
Heartbeat_Variant_0 : 1082 0.26416 per_variant_size: 0 1082 0 0 0 0 0 0 0 
Heartbeat_Variant_1 : 2339 0.571045 per_variant_size: 0 421 1918 0 0 0 0 0 0 
Heartbeat_Variant_2 : 0 0 per_variant_size: 0 0 0 0 0 0 0 0 0 
Heartbeat_Variant_3 : 0 0 per_variant_size: 0 0 0 0 0 0 0 0 0 
Heartbeat_Variant_0_evicts 0 : 22150 1 : 18871 2 : 0 3 : 0 
Heartbeat_Variant_1_evicts 0 : 18870 1 : 0 2 : 0 3 : 0 
Heartbeat_Variant_2_evicts 0 : 0 1 : 0 2 : 0 3 : 0 
Heartbeat_Variant_3_evicts 0 : 0 1 : 0 2 : 0 3 : 0 
Heartbeat CPU 0 instructions: 20000003 cycles: 5596734 heartbeat IPC: 3.57315 cumulative IPC: 3.57351 (Simulation time: 0 hr 4 min 16 sec) 
Heartbeat_Variant_0 : 1099 0.268311 per_variant_size: 0 1099 0 0 0 0 0 0 0 
Heartbeat_Variant_1 : 2322 0.566895 per_variant_size: 0 410 1912 0 0 0 0 0 0 
Heartbeat_Variant_2 : 0 0 per_variant_size: 0 0 0 0 0 0 0 0 0 
Heartbeat_Variant_3 : 0 0 per_variant_size: 0 0 0 0 0 0 0 0 0 
Heartbeat_Variant_0_evicts 0 : 22107 1 : 18800 2 : 0 3 : 0 
Heartbeat_Variant_1_evicts 0 : 18783 1 : 0 2 : 0 3 : 0 
Heartbeat_Variant_2_evicts 0 : 0 1 : 0 2 : 0 3 : 0 
Heartbeat_Variant_3_evicts 0 : 0 1 : 0 2 : 0 3 : 0 
Heartbeat CPU 0 instructions: 30000001 cycles: 8393993 heartbeat IPC: 3.57493 cumulative IPC: 3.57398 (Simulation time: 0 hr 6 min 35 sec) 
Heartbeat_Variant_0 : 1109 0.270752 per_variant_size: 0 1109 0 0 0 0 0 0 0 
Heartbeat_Variant_1 : 2356 0.575195 per_variant_size: 0 413 1943 0 0 0 0 0 0 
Heartbeat_Variant_2 : 0 0 per_variant_size: 0 0 0 0 0 0 0 0 0 
Heartbeat_Variant_3 : 0 0 per_variant_size: 0 0 0 0 0 0 0 0 0 
Heartbeat_Variant_0_evicts 0 : 21890 1 : 18690 2 : 0 3 : 0 
Heartbeat_Variant_1_evicts 0 : 18692 1 : 0 2 : 0 3 : 0 
Heartbeat_Variant_2_evicts 0 : 0 1 : 0 2 : 0 3 : 0 
Heartbeat_Variant_3_evicts 0 : 0 1 : 0 2 : 0 3 : 0 
Heartbeat CPU 0 instructions: 40000000 cycles: 11191390 heartbeat IPC: 3.57475 cumulative IPC: 3.57418 (Simulation time: 0 hr 8 min 43 sec) 
Heartbeat_Variant_0 : 1112 0.271484 per_variant_size: 0 1112 0 0 0 0 0 0 0 
Heartbeat_Variant_1 : 2393 0.584229 per_variant_size: 0 404 1989 0 0 0 0 0 0 
Heartbeat_Variant_2 : 0 0 per_variant_size: 0 0 0 0 0 0 0 0 0 
Heartbeat_Variant_3 : 0 0 per_variant_size: 0 0 0 0 0 0 0 0 0 
Heartbeat_Variant_0_evicts 0 : 22317 1 : 19185 2 : 0 3 : 0 
Heartbeat_Variant_1_evicts 0 : 19192 1 : 0 2 : 0 3 : 0 
Heartbeat_Variant_2_evicts 0 : 0 1 : 0 2 : 0 3 : 0 
Heartbeat_Variant_3_evicts 0 : 0 1 : 0 2 : 0 3 : 0 
Heartbeat CPU 0 instructions: 50000002 cycles: 13989857 heartbeat IPC: 3.57339 cumulative IPC: 3.57402 (Simulation time: 0 hr 10 min 59 sec) 

Warmup complete CPU 0 instructions: 50000002 cycles: 13989857 (Simulation time: 0 hr 10 min 59 sec) 

Cycle: 20000000 FTQ IN: 56892306 FTQ occupancy: 18.1554 DECODE IN: 56892282 DECODE occupancy: 46.5372 ROB IN: 56892282 ROB occupancy: 282.487 ROB OUT: 56892246
Heartbeat_Variant_0 : 1129 0.275635 per_variant_size: 0 1129 0 0 0 0 0 0 0 
Heartbeat_Variant_1 : 2376 0.580078 per_variant_size: 0 387 1989 0 0 0 0 0 0 
Heartbeat_Variant_2 : 0 0 per_variant_size: 0 0 0 0 0 0 0 0 0 
Heartbeat_Variant_3 : 0 0 per_variant_size: 0 0 0 0 0 0 0 0 0 
Heartbeat_Variant_0_evicts 0 : 22472 1 : 19125 2 : 0 3 : 0 
Heartbeat_Variant_1_evicts 0 : 19108 1 : 0 2 : 0 3 : 0 
Heartbeat_Variant_2_evicts 0 : 0 1 : 0 2 : 0 3 : 0 
Heartbeat_Variant_3_evicts 0 : 0 1 : 0 2 : 0 3 : 0 
Heartbeat CPU 0 instructions: 60000001 cycles: 22738915 heartbeat IPC: 1.14298 cumulative IPC: 1.14298 (Simulation time: 0 hr 12 min 51 sec) 
Cycle: 30000000 FTQ IN: 11346800 FTQ occupancy: 7.08648 DECODE IN: 11346695 DECODE occupancy: 15.5136 ROB IN: 11346635 ROB occupancy: 130.415 ROB OUT: 11346319
Heartbeat_Variant_0 : 1100 0.268555 per_variant_size: 0 1100 0 0 0 0 0 0 0 
Heartbeat_Variant_1 : 2413 0.589111 per_variant_size: 0 421 1992 0 0 0 0 0 0 
Heartbeat_Variant_2 : 0 0 per_variant_size: 0 0 0 0 0 0 0 0 0 
Heartbeat_Variant_3 : 0 0 per_variant_size: 0 0 0 0 0 0 0 0 0 
Heartbeat_Variant_0_evicts 0 : 21947 1 : 18301 2 : 0 3 : 0 
Heartbeat_Variant_1_evicts 0 : 18331 1 : 0 2 : 0 3 : 0 
Heartbeat_Variant_2_evicts 0 : 0 1 : 0 2 : 0 3 : 0 
Heartbeat_Variant_3_evicts 0 : 0 1 : 0 2 : 0 3 : 0 
Heartbeat CPU 0 instructions: 70000000 cycles: 31549324 heartbeat IPC: 1.13502 cumulative IPC: 1.13899 (Simulation time: 0 hr 14 min 58 sec) 
Cycle: 40000000 FTQ IN: 11500542 FTQ occupancy: 7.02874 DECODE IN: 11500671 DECODE occupancy: 15.494 ROB IN: 11500731 ROB occupancy: 131.538 ROB OUT: 11501055
Heartbeat_Variant_0 : 1130 0.275879 per_variant_size: 0 1130 0 0 0 0 0 0 0 
Heartbeat_Variant_1 : 2392 0.583984 per_variant_size: 0 401 1991 0 0 0 0 0 0 
Heartbeat_Variant_2 : 0 0 per_variant_size: 0 0 0 0 0 0 0 0 0 
Heartbeat_Variant_3 : 0 0 per_variant_size: 0 0 0 0 0 0 0 0 0 
Heartbeat_Variant_0_evicts 0 : 22018 1 : 18379 2 : 0 3 : 0 
Heartbeat_Variant_1_evicts 0 : 18352 1 : 0 2 : 0 3 : 0 
Heartbeat_Variant_2_evicts 0 : 0 1 : 0 2 : 0 3 : 0 
Heartbeat_Variant_3_evicts 0 : 0 1 : 0 2 : 0 3 : 0 
Heartbeat CPU 0 instructions: 80000000 cycles: 40229819 heartbeat IPC: 1.15201 cumulative IPC: 1.14329 (Simulation time: 0 hr 16 min 59 sec) 
Heartbeat_Variant_0 : 1057 0.258057 per_variant_size: 0 1057 0 0 0 0 0 0 0 
Heartbeat_Variant_1 : 2515 0.614014 per_variant_size: 0 457 2058 0 0 0 0 0 0 
Heartbeat_Variant_2 : 0 0 per_variant_size: 0 0 0 0 0 0 0 0 0 
Heartbeat_Variant_3 : 0 0 per_variant_size: 0 0 0 0 0 0 0 0 0 
Heartbeat_Variant_0_evicts 0 : 16794 1 : 13860 2 : 0 3 : 0 
Heartbeat_Variant_1_evicts 0 : 13942 1 : 0 2 : 0 3 : 0 
Heartbeat_Variant_2_evicts 0 : 0 1 : 0 2 : 0 3 : 0 
Heartbeat_Variant_3_evicts 0 : 0 1 : 0 2 : 0 3 : 0 
Heartbeat CPU 0 instructions: 90000000 cycles: 48410941 heartbeat IPC: 1.22233 cumulative IPC: 1.16208 (Simulation time: 0 hr 19 min 6 sec) 
Cycle: 50000000 FTQ IN: 12752767 FTQ occupancy: 10.7635 DECODE IN: 12752653 DECODE occupancy: 26.6616 ROB IN: 12752593 ROB occupancy: 191.88 ROB OUT: 12752269
Heartbeat_Variant_0 : 1146 0.279785 per_variant_size: 0 1146 0 0 0 0 0 0 0 
Heartbeat_Variant_1 : 2487 0.607178 per_variant_size: 0 437 2050 0 0 0 0 0 0 
Heartbeat_Variant_2 : 0 0 per_variant_size: 0 0 0 0 0 0 0 0 0 
Heartbeat_Variant_3 : 0 0 per_variant_size: 0 0 0 0 0 0 0 0 0 
Heartbeat_Variant_0_evicts 0 : 12414 1 : 10508 2 : 0 3 : 0 
Heartbeat_Variant_1_evicts 0 : 10434 1 : 0 2 : 0 3 : 0 
Heartbeat_Variant_2_evicts 0 : 0 1 : 0 2 : 0 3 : 0 
Heartbeat_Variant_3_evicts 0 : 0 1 : 0 2 : 0 3 : 0 
Heartbeat CPU 0 instructions: 100000001 cycles: 56310990 heartbeat IPC: 1.26582 cumulative IPC: 1.18144 (Simulation time: 0 hr 20 min 48 sec) 
Finished CPU 0 instructions: 50000003 cycles: 42321134 cumulative IPC: 1.18144 (Simulation time: 0 hr 20 min 48 sec) 

ChampSim completed all CPUs

Region of Interest Statistics

CPU 0 cumulative IPC: 1.18144 instructions: 50000003 cycles: 42321134
 Fetch stage stalled: 65.6375  Sim cycles: 42321134 fetch stall cycle: 27778551
 Empty decode stage: 53.0927  Sim cycles: 42321134 fetch stall cycle: 22469453
ITLB TOTAL     ACCESS:    5904179  HIT:    5469513  MISS:     434666  HIT %:     92.638  MISS %:    7.36201   MPKI: 8.69332
ITLB LOAD TRANSLATION INSTRUCTION	ACCESS:    5796619  HIT:    5361953  MISS:     434666  HIT %:    92.5014  MISS %:    7.49861  MPKI: 8.69332
ITLB TRANSLATION FROM L1D PREFETCHER INSTRUCTION	ACCESS:     107560  HIT:     107560  MISS:          0  HIT %:        100  MISS %:          0  MPKI: 0

ITLB AVERAGE MISS LATENCY: 9.07622 cycles
ITLB RQ	ACCESS:    7780147	FORWARD:          0	MERGED:    1440236	TO_CACHE:    6339911

DTLB TOTAL     ACCESS:    9301715  HIT:    8856236  MISS:     445479  HIT %:    95.2108  MISS %:    4.78921   MPKI: 8.90958
DTLB LOAD TRANSLATION DATA	ACCESS:    9301715  HIT:    8856236  MISS:     445479  HIT %:    95.2108  MISS %:    4.78921  MPKI: 8.90958

DTLB AVERAGE MISS LATENCY: 9.31937 cycles
DTLB RQ	ACCESS:   13563731	FORWARD:          0	MERGED:    4230032	TO_CACHE:    9333699

STLB TOTAL     ACCESS:    1086953  HIT:    1084810  MISS:       2143  HIT %:    99.8028  MISS %:   0.197157   MPKI: 0.04286
STLB LOAD TRANSLATION INSTRUCTION	ACCESS:     434666  HIT:     434191  MISS:        475  HIT %:    99.8907  MISS %:   0.109279  MPKI: 0.0095
STLB LOAD TRANSLATION DATA	ACCESS:     445404  HIT:     443765  MISS:       1639  HIT %:     99.632  MISS %:   0.367981  MPKI: 0.03278
STLB TRANSLATION FROM L1D PREFETCHER DATA	ACCESS:     206883  HIT:     206854  MISS:         29  HIT %:     99.986  MISS %:  0.0140176  MPKI: 0.00058

STLB AVERAGE MISS LATENCY: 71.0919 cycles
STLB RQ	ACCESS:    1186513	FORWARD:          0	MERGED:      99516	TO_CACHE:    1086997

STLB Hit, L1D data hit: 0
STLB Hit, L2C data hit: 0
STLB Hit, LLC data hit: 0
STLB Hit, LLC data miss: 0
STLB STLB hints to L2: 0
L1D TOTAL     ACCESS:   13343294  HIT:   12362860  MISS:     980434  HIT %:    92.6522  MISS %:    7.34777   MPKI: 19.6087
L1D LOAD DATA	ACCESS:    6782266  HIT:    6131618  MISS:     650648  HIT %:    90.4066  MISS %:    9.59337  MPKI: 13.013
L1D RFO DATA	ACCESS:    6288751  HIT:    6039372  MISS:     249379  HIT %:    96.0345  MISS %:    3.96548  MPKI: 4.98758
L1D PREFETCH DATA	ACCESS:     272277  HIT:     191870  MISS:      80407  HIT %:    70.4687  MISS %:    29.5313  MPKI: 1.60814

L1D PREFETCH  REQUESTED:     613027  ISSUED:     613027  USEFUL:      28671  USELESS:      59007
L1D USEFUL LOAD PREFETCHES:      28671 PREFETCH ISSUED TO LOWER LEVEL:      87720  ACCURACY: 32.6847
 TIMELY PREFETCHES:      28671 LATE PREFETCHES: 7286 DROPPED PREFETCHES: 8
L1D AVERAGE MISS LATENCY: 257385 cycles
L1D RQ	ACCESS:   10846957	FORWARD:          0	MERGED:    3848328	TO_CACHE:    6811073
L1D WQ	ACCESS:    6957598	FORWARD:     187847	MERGED:     204940	TO_CACHE:    6752658
L1D PQ	ACCESS:     306659	FORWARD:          0	MERGED:          0	TO_CACHE:     306368

L1D UNIQUE REGIONS ACCESSED: 0
L1D REGIONS CONFLICTS: 0
L1D Cross Page Prefetch Requests: 5557
L1D Same Page Prefetch Requests: 685676
L1D ROI Sum of L1D PQ occupancy: 3897423
L1D PREFETCHES PUSHED FROM L2C: 0
L1I TOTAL     ACCESS:    7326203  HIT:    4899633  MISS:    2426570  HIT %:    66.8782  MISS %:    33.1218   MPKI: 48.5314
L1I LOAD INSTRUCTION	ACCESS:    6695587  HIT:    4269017  MISS:    2426570  HIT %:    63.7587  MISS %:    36.2413  MPKI: 48.5314
L1I PREFETCH INSTRUCTION	ACCESS:     630616  HIT:     630616  MISS:          0  HIT %:        100  MISS %:          0  MPKI: 0

L1I PREFETCH  REQUESTED:    1205032  ISSUED:    1205032  USEFUL:          0  USELESS:          0
L1I USEFUL LOAD PREFETCHES:          0 PREFETCH ISSUED TO LOWER LEVEL:          0  ACCURACY: -nan
 TIMELY PREFETCHES:          0 LATE PREFETCHES: 0 DROPPED PREFETCHES: 0
L1I AVERAGE MISS LATENCY: 17.1861 cycles
L1I RQ	ACCESS:    9604627	FORWARD:          0	MERGED:    2717176	TO_CACHE:    6887451
L1I PQ	ACCESS:    1205032	FORWARD:          0	MERGED:     312336	TO_CACHE:     892696

L1BTB TOTAL     ACCESS:    5842642  HIT:    2391532  MISS:    3451110  HIT %:    40.9324  MISS %:    59.0676   MPKI: 69.0222
L1BTB BRANCH_DIRECT_JUMP	ACCESS:     550522 HIT:     175578 MISS:     374944 AVERAGE STALL: 36.6745 AVERAGE FETCH STALL: 19.0489 AVERAGE FETCH QUEUE STALL: 8.61434 AVERAGE DECODE STALL: 8.20769 AVERAGE EXECUTE STALL: 4.60374e+14
L1BTB BRANCH_INDIRECT	ACCESS:     180197 HIT:      63723 MISS:     116474 AVERAGE STALL: 93.6126 AVERAGE FETCH STALL: 15.1911 AVERAGE FETCH QUEUE STALL: 7.83158 AVERAGE DECODE STALL: 7.05548 AVERAGE EXECUTE STALL: 62.5913
L1BTB BRANCH_CONDITIONAL	ACCESS:    2723111 HIT:    1508761 MISS:    1214350 AVERAGE STALL: 37.2932 AVERAGE FETCH STALL: 22.3652 AVERAGE FETCH QUEUE STALL: 6.74616 AVERAGE DECODE STALL: 7.41016 AVERAGE EXECUTE STALL: 1.90889e+14
L1BTB BRANCH_DIRECT_CALL	ACCESS:    1021695 HIT:     213453 MISS:     808242 AVERAGE STALL: 38.6301 AVERAGE FETCH STALL: 21.9513 AVERAGE FETCH QUEUE STALL: 7.8174 AVERAGE DECODE STALL: 8.10003 AVERAGE EXECUTE STALL: 1.24531e+14
L1BTB BRANCH_INDIRECT_CALL	ACCESS:     172711 HIT:      33444 MISS:     139267 AVERAGE STALL: 117.527 AVERAGE FETCH STALL: 18.0725 AVERAGE FETCH QUEUE STALL: 7.55668 AVERAGE DECODE STALL: 7.04091 AVERAGE EXECUTE STALL: 84.318
L1BTB BRANCH_RETURN	ACCESS:    1194406 HIT:     396573 MISS:     797833 AVERAGE STALL: 37.2638 AVERAGE FETCH STALL: 18.6981 AVERAGE FETCH QUEUE STALL: 5.49541 AVERAGE DECODE STALL: 5.7756 AVERAGE EXECUTE STALL: 2.29557e+14
L1BTB BRANCH_OTHER ACCESS:          0 HIT:          0 MISS:          0 AVERAGE STALL: -nan AVERAGE FETCH STALL: -nan AVERAGE FETCH QUEUE STALL: -nan AVERAGE DECODE STALL: -nan AVERAGE EXECUTE STALL: -nan
L1BTB TOTAL ROB OCCUPANCY AT BTB MISS: 12.6342

L2BTB TOTAL     ACCESS:    3429314  HIT:    3031734  MISS:     397580  HIT %:    88.4064  MISS %:    11.5936   MPKI: 7.9516
L2BTB BRANCH_DIRECT_JUMP	ACCESS:     371495 HIT:     334830 MISS:      36665 AVERAGE STALL: 36.6745 AVERAGE FETCH STALL: 19.0489 AVERAGE FETCH QUEUE STALL: 8.61434 AVERAGE DECODE STALL: 8.20769 AVERAGE EXECUTE STALL: 4.60374e+14
L2BTB BRANCH_INDIRECT	ACCESS:     107470 HIT:      99220 MISS:       8250 AVERAGE STALL: 93.6126 AVERAGE FETCH STALL: 15.1911 AVERAGE FETCH QUEUE STALL: 7.83158 AVERAGE DECODE STALL: 7.05548 AVERAGE EXECUTE STALL: 62.5913
L2BTB BRANCH_CONDITIONAL	ACCESS:    1214350 HIT:    1117111 MISS:      97239 AVERAGE STALL: 37.2932 AVERAGE FETCH STALL: 22.3652 AVERAGE FETCH QUEUE STALL: 6.74616 AVERAGE DECODE STALL: 7.41016 AVERAGE EXECUTE STALL: 1.90889e+14
L2BTB BRANCH_DIRECT_CALL	ACCESS:     808242 HIT:     660027 MISS:     148215 AVERAGE STALL: 38.6301 AVERAGE FETCH STALL: 21.9513 AVERAGE FETCH QUEUE STALL: 7.8174 AVERAGE DECODE STALL: 8.10003 AVERAGE EXECUTE STALL: 1.24531e+14
L2BTB BRANCH_INDIRECT_CALL	ACCESS:     131168 HIT:     103123 MISS:      28045 AVERAGE STALL: 117.527 AVERAGE FETCH STALL: 18.0725 AVERAGE FETCH QUEUE STALL: 7.55668 AVERAGE DECODE STALL: 7.04091 AVERAGE EXECUTE STALL: 84.318
L2BTB BRANCH_RETURN	ACCESS:     796589 HIT:     717423 MISS:      79166 AVERAGE STALL: 37.2638 AVERAGE FETCH STALL: 18.6981 AVERAGE FETCH QUEUE STALL: 5.49541 AVERAGE DECODE STALL: 5.7756 AVERAGE EXECUTE STALL: 2.29557e+14
L2BTB BRANCH_OTHER ACCESS:          0 HIT:          0 MISS:          0 AVERAGE STALL: -nan AVERAGE FETCH STALL: -nan AVERAGE FETCH QUEUE STALL: -nan AVERAGE DECODE STALL: -nan AVERAGE EXECUTE STALL: -nan
L2BTB TOTAL ROB OCCUPANCY AT BTB MISS: 109.668

L2C TOTAL     ACCESS:    3944947  HIT:    3525542  MISS:     419405  HIT %:    89.3686  MISS %:    10.6314   MPKI: 8.3881
L2C LOAD INSTRUCTION	ACCESS:    2426569  HIT:    2205557  MISS:     221012  HIT %:     90.892  MISS %:      9.108  MPKI: 4.42024
L2C LOAD TRANSLATION INSTRUCTION	ACCESS:        511  HIT:        190  MISS:        321  HIT %:     37.182  MISS %:     62.818  MPKI: 0.00642
L2C LOAD DATA	ACCESS:     643350  HIT:     574028  MISS:      69322  HIT %:    89.2248  MISS %:    10.7752  MPKI: 1.38644
L2C RFO DATA	ACCESS:     249336  HIT:     202563  MISS:      46773  HIT %:     81.241  MISS %:     18.759  MPKI: 0.93546
L2C PREFETCH DATA	ACCESS:     162057  HIT:      96346  MISS:      65711  HIT %:    59.4519  MISS %:    40.5481  MPKI: 1.31422
L2C WRITEBACK DATA	ACCESS:     461340  HIT:     446315  MISS:      15025  HIT %:    96.7432  MISS %:    3.25682  MPKI: 0.3005
L2C LOAD TRANSLATION DATA	ACCESS:       1727  HIT:        504  MISS:       1223  HIT %:    29.1836  MISS %:    70.8164  MPKI: 0.02446
L2C TRANSLATION FROM L1D PREFETCHER DATA	ACCESS:         57  HIT:         39  MISS:         18  HIT %:    68.4211  MISS %:    31.5789  MPKI: 0.00036

L2C PREFETCH  REQUESTED:      80526  ISSUED:      80526  USEFUL:       6587  USELESS:      59497
L2C USEFUL LOAD PREFETCHES:       6587 PREFETCH ISSUED TO LOWER LEVEL:      66078  ACCURACY: 9.96852
 TIMELY PREFETCHES:       6587 LATE PREFETCHES: 367 DROPPED PREFETCHES: 0
L2C AVERAGE MISS LATENCY: 38.3005 cycles
L2C RQ	ACCESS:    3321578	FORWARD:          0	MERGED:          0	TO_CACHE:    3321550
L2C WQ	ACCESS:     461340	FORWARD:         28	MERGED:          0	TO_CACHE:     461340
L2C PQ	ACCESS:     168246	FORWARD:          0	MERGED:       2749	TO_CACHE:     165497

L2C Dense regions hint from L2: 0
PSCL5 TOTAL     ACCESS:       4314  HIT:       2157  MISS:       2157  HIT %:         50  MISS %:         50   MPKI: 0.04314
PSCL5 LOAD TRANSLATION INSTRUCTION	ACCESS:       4200  HIT:       2100  MISS:       2100  HIT %:         50  MISS %:         50  MPKI: 0.042
PSCL5 TRANSLATION FROM L1D PREFETCHER INSTRUCTION	ACCESS:        114  HIT:         57  MISS:         57  HIT %:         50  MISS %:         50  MPKI: 0.00114


PSCL4 TOTAL     ACCESS:       2964  HIT:       1478  MISS:       1486  HIT %:     49.865  MISS %:     50.135   MPKI: 0.02972
PSCL4 LOAD TRANSLATION INSTRUCTION	ACCESS:       1466  HIT:       1436  MISS:         30  HIT %:    97.9536  MISS %:    2.04638  MPKI: 0.0006
PSCL4 TRANSLATION FROM L1D PREFETCHER INSTRUCTION	ACCESS:         42  HIT:         42  MISS:          0  HIT %:        100  MISS %:          0  MPKI: 0
PSCL4 LOAD TRANSLATION DATA	ACCESS:       1414  HIT:          0  MISS:       1414  HIT %:          0  MISS %:        100  MPKI: 0.02828
PSCL4 TRANSLATION FROM L1D PREFETCHER DATA	ACCESS:         42  HIT:          0  MISS:         42  HIT %:          0  MISS %:        100  MPKI: 0.00084


PSCL3 TOTAL     ACCESS:       3981  HIT:       1981  MISS:       2000  HIT %:    49.7614  MISS %:    50.2386   MPKI: 0.04
PSCL3 LOAD TRANSLATION INSTRUCTION	ACCESS:       2563  HIT:       1933  MISS:        630  HIT %:    75.4194  MISS %:    24.5806  MPKI: 0.0126
PSCL3 TRANSLATION FROM L1D PREFETCHER INSTRUCTION	ACCESS:         65  HIT:         48  MISS:         17  HIT %:    73.8462  MISS %:    26.1538  MPKI: 0.00034
PSCL3 LOAD TRANSLATION DATA	ACCESS:       1322  HIT:          0  MISS:       1322  HIT %:          0  MISS %:        100  MPKI: 0.02644
PSCL3 TRANSLATION FROM L1D PREFETCHER DATA	ACCESS:         31  HIT:          0  MISS:         31  HIT %:          0  MISS %:        100  MPKI: 0.00062


PSCL2 TOTAL     ACCESS:       4199  HIT:       2042  MISS:       2157  HIT %:    48.6306  MISS %:    51.3694   MPKI: 0.04314
PSCL2 LOAD TRANSLATION INSTRUCTION	ACCESS:       2475  HIT:       1985  MISS:        490  HIT %:     80.202  MISS %:     19.798  MPKI: 0.0098
PSCL2 TRANSLATION FROM L1D PREFETCHER INSTRUCTION	ACCESS:         57  HIT:         57  MISS:          0  HIT %:        100  MISS %:          0  MPKI: 0
PSCL2 LOAD TRANSLATION DATA	ACCESS:       1610  HIT:          0  MISS:       1610  HIT %:          0  MISS %:        100  MPKI: 0.0322
PSCL2 TRANSLATION FROM L1D PREFETCHER DATA	ACCESS:         57  HIT:          0  MISS:         57  HIT %:          0  MISS %:        100  MPKI: 0.00114


LLC TOTAL     ACCESS:     470844  HIT:     445859  MISS:      24985  HIT %:    94.6936  MISS %:    5.30643   MPKI: 0.4997
LLC LOAD INSTRUCTION	ACCESS:     221012  HIT:     219903  MISS:       1109  HIT %:    99.4982  MISS %:   0.501783  MPKI: 0.02218
LLC LOAD TRANSLATION INSTRUCTION	ACCESS:        321  HIT:        281  MISS:         40  HIT %:    87.5389  MISS %:    12.4611  MPKI: 0.0008
LLC LOAD DATA	ACCESS:      68977  HIT:      65679  MISS:       3298  HIT %:    95.2187  MISS %:     4.7813  MPKI: 0.06596
LLC RFO DATA	ACCESS:      46748  HIT:      35757  MISS:      10991  HIT %:    76.4888  MISS %:    23.5112  MPKI: 0.21982
LLC PREFETCH DATA	ACCESS:      66078  HIT:      56950  MISS:       9128  HIT %:     86.186  MISS %:     13.814  MPKI: 0.18256
LLC WRITEBACK DATA	ACCESS:      66467  HIT:      66139  MISS:        328  HIT %:    99.5065  MISS %:   0.493478  MPKI: 0.00656
LLC LOAD TRANSLATION DATA	ACCESS:       1223  HIT:       1133  MISS:         90  HIT %:     92.641  MISS %:    7.35895  MPKI: 0.0018
LLC TRANSLATION FROM L1D PREFETCHER DATA	ACCESS:         18  HIT:         17  MISS:          1  HIT %:    94.4444  MISS %:    5.55556  MPKI: 2e-05

LLC AVERAGE MISS LATENCY: 156.431 cycles
LLC RQ	ACCESS:     338302	FORWARD:          0	MERGED:          0	TO_CACHE:     338299
LLC WQ	ACCESS:      66467	FORWARD:          3	MERGED:          0	TO_CACHE:      66467
LLC PQ	ACCESS:      66078	FORWARD:          0	MERGED:          0	TO_CACHE:      66078

LLC Dense regions hint to LLC: 0

RAW hits: 1893684
Loads Generated: 12740642
Loads sent to L1D: 10846957
Stores Generated: 6957586
Stores sent to L1D: 6957598
Major fault: 0 Minor fault: 2555
Allocated PAGES: 2555

stream: 
stream:times selected: 1117987
stream:pref_filled: 114609
stream:pref_useful: 22593
stream:pref_late: 6563
stream:misses: 6217
stream:misses_by_poll: 0

CS: 
CS:times selected: 161048
CS:pref_filled: 56072
CS:pref_useful: 33109
CS:pref_late: 6432
CS:misses: 14655
CS:misses_by_poll: 1

CPLX: 
CPLX:times selected: 955744
CPLX:pref_filled: 18448
CPLX:pref_useful: 4182
CPLX:pref_late: 2990
CPLX:misses: 82882
CPLX:misses_by_poll: 0

NL_L1: 
NL:times selected: 23130
NL:pref_filled: 529
NL:pref_useful: 222
NL:pref_late: 201
NL:misses: 942
NL:misses_by_poll: 0

total selections: 2257909
total_filled: 80407
total_useful: 28671
total_late: 17381
total_polluted: 1
total_misses_after_warmup: 679455
conflicts: 5704236

test: 118693

DRAM Statistics
 CHANNEL 0
 RQ ROW_BUFFER_HIT:       8703  ROW_BUFFER_MISS:      15950
 DBUS_CONGESTED:         18
 WQ ROW_BUFFER_HIT:       1259  ROW_BUFFER_MISS:      10477  FULL:          0

 AVG_CONGESTED_CYCLE: 6

CPU 0 Branch Prediction Accuracy: 99.8142% MPKI: 0.34676 Average ROB Occupancy at Mispredict: 150.942
Branch types
NOT_BRANCH: 40668621 81.3372%
BRANCH_DIRECT_JUMP: 550522 1.10104%
BRANCH_INDIRECT: 180197 0.360394%
BRANCH_CONDITIONAL: 6211450 12.4229%
BRANCH_DIRECT_CALL: 1021695 2.04339%
BRANCH_INDIRECT_CALL: 172711 0.345422%
BRANCH_RETURN: 1194406 2.38881%
BRANCH_OTHER: 0 0%

DRAM PAGES: 1048576
Allocated PAGES: 2555
Average_ROB_Occupancy: 151.433
Average_Decode_Occupancy: 19.0955
Average_FTQ_Occupancy: 8.25628
Indirect max targets: 14 Average targets: 1.17981
Branch_type:  BRANCH_DIRECT_JUMP:  Count Percentage: 3.51883 4.82301 3.34978 8.43137 8.25386 5.88989 4.57344 61.1598 
Branch_type:  BRANCH_INDIRECT:  Count Percentage: 11.0281 3.21185 2.31018 18.4055 12.4856 2.64284 2.97137 46.9446 
Branch_type:  BRANCH_CONDITIONAL:  Count Percentage: 20.0361 2.44915 2.24138 9.14932 3.02301 4.22902 1.15979 57.7122 
Branch_type:  BRANCH_DIRECT_CALL:  Count Percentage: 0.348109 1.64048 0.638573 3.69267 2.06227 2.53535 3.09631 85.9862 
Branch_type:  BRANCH_INDIRECT_CALL:  Count Percentage: 8.95544 0 2.80752 0.00465399 0 2.13705 3.14115 82.9542 
Branch_type:  BRANCH_RETURN:  Count Percentage: 3.57183 1.69715 0.92131 8.44241 4.76302 4.79477 2.32511 73.4844 
Branch_type:  BRANCH_DIRECT_JUMP:  Total Count: 38675 53009 36817 92668 90717 64735 50266 672199 
Branch_type:  BRANCH_INDIRECT:  Total Count: 40080 11673 8396 66892 45377 9605 10799 170613 
Branch_type:  BRANCH_CONDITIONAL:  Total Count: 2481525 303334 277601 1133168 374408 523776 143643 7147816 
Branch_type:  BRANCH_DIRECT_CALL:  Total Count: 6836 32215 12540 72515 40498 49788 60804 1688559 
Branch_type:  BRANCH_INDIRECT_CALL:  Total Count: 30788 0 9652 16 0 7347 10799 285189 
Branch_type:  BRANCH_RETURN:  Total Count: 82454 39178 21268 194889 109952 110685 53674 1696352 
Number of unique branch instructions: 10867
Upper 32 bits: 
aaaa
ffff
ffff0000
Unique upper 32 bits: 3
Unique upper 36 bits: 3
Unique upper 40 bits: 5
Unique upper 44 bits: 32
Unique upper 48 bits: 159
Variant_0 : 1146 0.279785
Variant_1 : 2487 0.607178
Variant_2 : 0 0
Variant_3 : 0 0
Offset_3 4515
Offset_4 261
Offset_5 485
Offset_6 540
Offset_7 646
Offset_8 581
Offset_9 534
Offset_10 424
Offset_11 361
Offset_12 324
Offset_13 237
Offset_14 249
Offset_15 194
Offset_16 229
Offset_17 173
Offset_18 153
Offset_19 265
Offset_20 140
Offset_21 235
Offset_22 415
Offset_23 241
Offset_24 352
Offset_25 118
Offset_47 96
Offset_64 2
decode_dispatch_called: 21300734 50.3312
Dispatch_width: 0 10705207 50.2575 25.2952
Dispatch_width: 1 710240 3.33435 1.67822
Dispatch_width: 2 667170 3.13215 1.57645
Dispatch_width: 3 471006 2.21122 1.11293
Dispatch_width: 4 2832949 13.2998 6.69393
Dispatch_width: 5 274593 1.28912 0.648832
Dispatch_width: 6 5639569 26.4759 13.3257
Empty_decode_cycles: 21020400 49.6688
ROB_full_cycles: 4353939 10.2879
Starvation_cycles_per_kilo_instr: 323.276
Starvation_cycles_per_kilo_instr_3: 292.201
Starvation_cycles_per_kilo_instr_0: 273.717
Branch_type_1  (3,1)  (4,7)  (5,39)  (6,74)  (7,128)  (8,148)  (9,139)  (10,113)  (11,81)  (12,55)  (13,11)  (14,2)  (15,3)  (16,4)  (18,1)  (19,5)  (20,2)  (21,1)  (22,3)  (23,2)  (24,10)  (25,13)  (64,1) 
Branch_type_2  (3,1)  (4,1)  (5,1)  (8,4)  (9,4)  (10,1)  (12,1)  (13,1)  (14,1)  (16,3)  (17,2)  (20,2)  (21,2)  (23,5)  (24,1)  (47,44) 
Branch_type_3  (3,4513)  (4,253)  (5,441)  (6,450)  (7,488)  (8,364)  (9,295)  (10,170)  (11,140)  (12,62)  (13,10) 
Branch_type_4  (6,3)  (7,8)  (8,25)  (9,55)  (10,67)  (11,71)  (12,114)  (13,101)  (14,111)  (15,92)  (16,101)  (17,82)  (18,67)  (19,129)  (20,71)  (21,124)  (22,220)  (23,136)  (24,208)  (25,101) 
Branch_type_5  (8,3)  (9,1)  (10,4)  (11,6)  (12,3)  (13,14)  (14,17)  (15,11)  (16,22)  (17,11)  (18,23)  (19,15)  (20,11)  (21,13)  (22,43)  (23,26)  (24,37) 
Branch_type_6  (5,4)  (6,13)  (7,22)  (8,37)  (9,40)  (10,69)  (11,63)  (12,89)  (13,100)  (14,118)  (15,88)  (16,99)  (17,78)  (18,62)  (19,116)  (20,54)  (21,95)  (22,149)  (23,72)  (24,96)  (25,4)  (47,52)  (64,1) 
Unique trigger count: 
Variant_0_evicts_0 : 0
Variant_0_evicts_1 : 0
Variant_0_evicts_2 : 0
Variant_0_evicts_3 : 0
Variant_1_evicts_0 : 0
Variant_1_evicts_1 : 0
Variant_1_evicts_2 : 0
Variant_1_evicts_3 : 0
Variant_2_evicts_0 : 0
Variant_2_evicts_1 : 0
Variant_2_evicts_2 : 0
Variant_2_evicts_3 : 0
Variant_3_evicts_0 : 0
Variant_3_evicts_1 : 0
Variant_3_evicts_2 : 0
Variant_3_evicts_3 : 0
BTB PER SET UNIQUE ADDR: 6 7 6 5 3 4 7 9 11 2 5 2 8 6 4 4 6 5 8 9 5 8 7 8 8 11 1 7 6 6 10 10 6 6 8 4 4 8 6 3 8 5 6 10 9 8 5 12 11 6 5 3 13 3 3 7 5 5 9 8 4 12 4 8 5 10 9 9 7 8 6 2 6 6 6 7 6 15 8 5 8 6 7 6 6 7 7 8 8 10 12 9 9 6 8 5 10 8 5 5 8 7 10 9 7 8 7 8 7 5 6 7 4 8 5 11 3 8 6 2 8 9 4 3 6 4 4 7 11 8 11 3 12 6 9 6 5 3 7 8 8 8 7 6 5 11 5 8 12 8 7 14 6 11 6 9 8 9 6 11 11 8 11 5 12 8 3 4 13 7 6 4 8 7 4 3 6 8 10 5 6 7 10 8 9 12 7 6 6 8 6 8 6 7 6 10 12 4 11 6 4 6 8 4 8 4 5 8 7 2 3 7 10 9 7 6 4 9 7 6 6 4 7 8 6 8 13 7 3 12 14 9 4 5 7 9 11 5 4 6 4 3 10 8 17 11 1 7 6 7 9 10 6 7 5 12 4 9 11 6 8 6 7 4 9 16 6 6 7 5 7 7 5 8 9 9 7 4 5 8 9 6 9 5 9 9 6 7 8 4 5 8 5 11 7 3 5 10 7 6 6 6 5 4 6 4 6 4 12 9 6 4 8 4 6 5 9 13 6 5 7 10 5 9 5 6 6 10 3 1 9 2 5 7 9 4 7 8 8 1 6 6 3 10 7 8 3 8 11 7 5 13 11 6 8 7 7 2 8 5 7 10 6 8 11 8 4 4 4 4 8 5 6 5 8 4 11 9 8 10 9 7 6 12 6 5 8 5 8 4 9 6 9 4 7 4 5 5 2 8 7 5 8 7 5 6 9 6 5 3 5 4 12 7 2 6 9 4 2 8 3 6 7 8 11 9 4 3 5 8 4 4 17 6 8 11 7 6 7 4 6 6 10 4 8 9 6 7 5 4 6 3 5 3 9 3 5 8 10 6 5 5 7 11 5 5 12 3 5 8 3 6 10 7 4 3 10 5 4 4 5 2 4 4 3 7 8 4 7 2 13 5 4 8 1 12 5 7 6 5 11 3 5 3 2 5 6 3 5 6 8 4 8 11 3 5 2 11 6 9 7 4 8 6 11 9 6 9 9 8 7 6 6 8 5 6 7 1 6 4 5 8 12 4 9 5 10 14 14 11 7 9 7 8 2 6 9 3 7 4 10 5 9 5 5 6 10 10 11 7 7 4 11 11 6 7 6 12 3 11 13 5 2 6 5 3 3 15 8 6 8 9 4 7 6 5 9 5 6 5 13 5 11 12 9 6 5 9 9 5 8 8 8 7 8 5 7 5 5 7 8 7 11 4 5 10 8 8 4 6 8 7 7 7 7 9 6 7 6 4 11 8 4 6 3 3 7 8 8 9 7 5 10 3 5 4 11 5 6 8 12 3 6 11 8 7 7 6 6 10 7 8 6 8 11 9 8 6 8 6 9 11 9 6 8 8 6 9 7 6 3 8 3 5 5 7 10 7 7 9 3 12 6 5 7 13 3 4 5 5 7 8 6 5 5 7 11 6 1 8 5 3 5 4 4 3 3 9 2 11 8 11 8 2 7 8 10 3 6 4 5 8 5 10 4 5 6 4 8 7 6 3 4 7 2 5 5 11 9 4 6 6 6 7 7 6 14 6 6 4 9 6 0 5 7 5 6 10 4 3 9 6 4 6 10 9 9 8 3 9 3 9 6 7 6 13 12 5 6 4 13 4 8 4 7 7 7 9 5 7 3 4 6 5 5 6 1 5 5 10 7 4 9 4 5 6 6 4 7 6 7 3 7 4 10 6 4 5 6 5 5 5 6 6 5 7 9 6 6 4 8 8 6 9 6 10 8 5 7 6 7 7 4 4 12 7 6 8 10 10 4 7 6 9 8 2 3 6 7 4 3 8 6 7 10 5 8 5 6 7 9 3 4 7 5 3 9 12 5 5 12 8 6 6 9 7 7 11 7 8 10 7 5 5 3 10 6 7 8 6 9 7 9 7 9 9 6 5 5 13 6 4 11 10 6 8 10 11 3 9 9 9 6 4 6 8 9 7 10 6 10 3 13 7 5 6 9 13 6 9 6 7 11 6 3 9 10 9 11 5 3 5 3 9 12 6 8 5 4 7 13 7 4 5 5 8 4 5 9 8 8 7 7 11 5 11 6 11 5 6 5 5 6 5 8 6 7 6 7 7 9 4 9 6 11 5 9 5 3 8 11 6 14 5 
BTB PER SET COUNT: 9 7 6 7 3 5 7 2046 5100 5 5 2 1337 6 4 8 7 5 52 2721 5 10 8 123 4645 2433 1 7 1385 7 4021 843 1332 6 9 7 2764 8 6 4 26 5 9 2471 2389 15 5 4373 3597 8 5 3 9964 3 3 1332 8 5 903 1263 4 2712 5 31 5 1178 306 26 8 715 710 2 6 7 7 7 448 6387 19 5 888 6 949 7 891 8 7 183 7523 1937 1605 523 2661 7 12 9 2508 18 7 5 26 17 27 2873 11 25 10 1776 1774 17 1771 7 6 1605 5 4316 3 8 6 2 8 32 4 6 892 4 4 8 7034 17 1815 3 8422 12 2733 6 6 3 7 1845 25 11 9 6 6 944 7 8 1096 2220 11 6470 6 9434 12 838 9 1775 7 1422 4500 60 4600 6 923 2765 3 4 6706 10 6 4 18 133 4 6 6 452 2411 5 7 7 5036 9 13 6489 14 6 2817 20 6 3936 6 11 6 42 967 4 37 6 6 6 9 6 13 4 5 2796 17 2 5 11 114 18 9 6 5 681 9 6 7 5 9 21 7 1770 5047 3035 5 4244 7705 740 4 6 21 2253 2004 5 4 6 5 3 5916 17 6892 3698 1 7 8 10 444 3734 6 13 5 2647 5 10 1625 8 2216 7 7 4 2084 6589 942 7 1783 5 1653 13 6 1776 904 723 9 4 9 2221 18 6 1127 5 2384 2659 6 476 25 4 6 14 450 2237 2656 13 10 3598 9 6 6 6 5 4 6 4 6 4 3993 1480 8 4 1901 4 6 8 898 3503 1776 6 8 1290 5 16 7 6 8 1358 3 1 2040 2 5 9 5016 4 1335 10 13 1 6 6 3 2186 892 800 4 8 288 11 5 1064 527 944 8 14 10 3 2134 29 59 469 7 1664 1040 1594 4 6 4 5 10 7 7 5 24 4 5899 12 10 1903 2220 2214 6 7438 7 5 44 5 10 5 1419 6 2222 6 7 6 1384 6 2 8 11 7 1334 10 771 6 2773 6 6 2701 10 4 1415 10 1379 8 181 4 3 1347 3 7 7 23 919 37 10 3 5 775 124 4 6171 9 1721 2067 11 6 16 4 6 7 1344 6 23 40 7 1830 5 4 6 3 9 5 1420 3 5 18 780 7 889 5 22 97 15 5 3764 3 5 8 3 18 1829 464 120 3 24623 5 5 4 5 2 5 446 5 76 1573 311 7 2 942 5 6 1178 1 4240 7 27 6 6 2618 15 11 4 2 5 10 3 5 6 20 5 11 36 4 5 2 10543 8 1184 14 1383 14 743 190 1775 9 897 2024 32 9 7 6 17 6 892 11 1 10 4 5 1774 54 10 35 5 58 2050 3564 7112 12 3785 8 13 2 6 976 4 8 6 5139 5 1787 7 5 6 914 23 2070 48 3304 6 2347 5579 1331 1336 6 4994 4 4540 9516 26 3 1771 1384 3 4 5846 22 6 12 2220 5 943 1878 9 11 5 8 5 1903 7 4480 1079 12 2658 7 2729 11 6 2660 15 19 8 8 9 2440 5 5 7 12 906 4057 4 1446 908 22 1778 12 1330 1334 1386 13 8 8 16 6 8 57 4 6915 716 4 6 3 3 10 10 492 14 9 5 7845 5 5 4 948 5 1332 2657 11766 3 7 5903 8 1333 2785 892 23 1778 895 11 7 13 6090 2795 457 6 1905 6 18 6544 23 890 16553 1184 45 4046 1398 8 3 1137 5 5 5 10 6405 8 10 71 3 2249 6 5 259 3849 3 1383 6 1385 154 11 8 5 889 7 1777 1045 1 1775 10 4 6 4 4 5 3 922 2 5932 1360 3629 945 2 10 483 26 3 6 4 6 568 5 7869 4 5 893 5 8 896 6 3 4 494 2 5 5 2328 6071 940 6 6 942 22 2881 6 8797 6 10 4 164 8 0 127 8 1557 10 2591 4 3 2219 12 4 6 1763 1639 986 29 396 899 3 1627 6 7 333 6217 2814 5 6 4 4332 5 1634 6 1797 2329 8 23 7 10 3 6 8 499 5 7 1 6 7 2998 8 4 490 586 6 10 942 4 1333 51 718 3 477 4 7583 7 4 6 6 5 389 5 6 1387 5 11 918 6 8 6 3101 1412 8 11 11 9270 31 6 1335 8 9 7 4 4 8416 1065 9 1788 3102 96 4 8 6 1417 10 2 5 8 9 4 3 13 6 7 2793 12 1343 7 6 7 67 4 6 15 5 3 35 3905 6 5 4685 1656 119 58 747 14 11 3286 10 13 1821 8 5 7 4 72 6 896 4425 1770 48 18 1788 12 1553 1424 6 7 5 944 7 447 3597 1891 8 893 4491 2672 3 3100 29 74 7 940 9 1336 27 205 19 9 3652 3 6635 11 6 8 1817 7744 18 3102 7 452 6872 6 5 1031 60 754 38 5 4 5 3 347 2260 6 949 6 5 8 2438 7 448 7 5 13 4 6 39 8 2686 11 2215 2735 5 2271 6 4909 12 7 6 6 11 5 17 6 1775 8 7 9 2670 4 7004 336 2926 6 958 6 7 12 1439 9 3183 7 
To predecode: 0
Predecoding something: 0
Predecode request dropped: 0
sizeofblock_0 0
sizeofblock_1 207583
sizeofblock_2 326709
sizeofblock_3 0
sizeofblock_4 0
sizeofblock_5 0
sizeofblock_6 0
sizeofblock_7 0
sizeofblock_8 0
Variant_0 Correct: 0 Incorrect: 0 Accuracy: -nan
Variant_1 Correct: 0 Incorrect: 0 Accuracy: -nan
Variant_2 Correct: 0 Incorrect: 0 Accuracy: -nan
Variant_3 Correct: 0 Incorrect: 0 Accuracy: -nan
