
*** ChampSim Multicore Out-of-Order Simulator ***

Warmup Instructions: 50000000
Simulation Instructions: 50000000
Number of CPUs: 1
LLC sets: 2048
LLC ways: 16
Off-chip DRAM Size: 4096 MB Channels: 1 Width: 64-bit Data Rate: 6400 MT/s
CPU 0 runs ./micro_traces/srv307.trace.gz
.gz
ITLB has LRU replacement policy
DTLB has LRU replacement policy
STLB has LRU replacement policy
FDIP Prefetcher at L1I
L1I has LRU replacement policy
L1D has LRU replacement policy
Initialize SRRIP state for L2C
Initialize DRRIP state for LLC
Heartbeat CPU 0 instructions: 10000002 cycles: 2797774 heartbeat IPC: 3.57427 cumulative IPC: 3.57427 (Simulation time: 0 hr 2 min 26 sec) 
Heartbeat CPU 0 instructions: 20000003 cycles: 5594518 heartbeat IPC: 3.57559 cumulative IPC: 3.57493 (Simulation time: 0 hr 4 min 6 sec) 
Heartbeat CPU 0 instructions: 30000003 cycles: 8392647 heartbeat IPC: 3.57382 cumulative IPC: 3.57456 (Simulation time: 0 hr 5 min 54 sec) 
Heartbeat CPU 0 instructions: 40000003 cycles: 11189943 heartbeat IPC: 3.57488 cumulative IPC: 3.57464 (Simulation time: 0 hr 7 min 40 sec) 
Heartbeat CPU 0 instructions: 50000002 cycles: 13986940 heartbeat IPC: 3.57526 cumulative IPC: 3.57476 (Simulation time: 0 hr 9 min 17 sec) 

Warmup complete CPU 0 instructions: 50000002 cycles: 13986940 (Simulation time: 0 hr 9 min 17 sec) 

Cycle: 20000000 FTQ IN: 54906177 FTQ occupancy: 15.4657 DECODE IN: 54906159 DECODE occupancy: 9.37068 ROB IN: 54906159 ROB occupancy: 258.988 ROB OUT: 54906144
Heartbeat CPU 0 instructions: 60000002 cycles: 26146988 heartbeat IPC: 0.822365 cumulative IPC: 0.822365 (Simulation time: 0 hr 10 min 51 sec) 
Cycle: 30000000 FTQ IN: 8313136 FTQ occupancy: 13.4451 DECODE IN: 8313136 DECODE occupancy: 4.43558 ROB IN: 8313136 ROB occupancy: 48.9575 ROB OUT: 8313101
Heartbeat CPU 0 instructions: 70000003 cycles: 38143223 heartbeat IPC: 0.833595 cumulative IPC: 0.827942 (Simulation time: 0 hr 12 min 21 sec) 
Cycle: 40000000 FTQ IN: 8332318 FTQ occupancy: 13.5004 DECODE IN: 8332318 DECODE occupancy: 4.45487 ROB IN: 8332318 ROB occupancy: 48.3408 ROB OUT: 8332368
Cycle: 50000000 FTQ IN: 8224833 FTQ occupancy: 13.493 DECODE IN: 8224833 DECODE occupancy: 4.45432 ROB IN: 8224833 ROB occupancy: 51.0574 ROB OUT: 8224814
Heartbeat CPU 0 instructions: 80000000 cycles: 50272476 heartbeat IPC: 0.824453 cumulative IPC: 0.826776 (Simulation time: 0 hr 14 min 10 sec) 
Cycle: 60000000 FTQ IN: 8161275 FTQ occupancy: 13.3683 DECODE IN: 8161275 DECODE occupancy: 4.37864 ROB IN: 8161275 ROB occupancy: 48.1592 ROB OUT: 8161269
Heartbeat CPU 0 instructions: 90000003 cycles: 62484419 heartbeat IPC: 0.818871 cumulative IPC: 0.824785 (Simulation time: 0 hr 15 min 58 sec) 
Cycle: 70000000 FTQ IN: 8317140 FTQ occupancy: 13.432 DECODE IN: 8317140 DECODE occupancy: 4.43294 ROB IN: 8317140 ROB occupancy: 48.7186 ROB OUT: 8317165
Heartbeat CPU 0 instructions: 100000000 cycles: 74466548 heartbeat IPC: 0.834576 cumulative IPC: 0.826725 (Simulation time: 0 hr 17 min 15 sec) 
Finished CPU 0 instructions: 50000001 cycles: 60479609 cumulative IPC: 0.826725 (Simulation time: 0 hr 17 min 15 sec) 

ChampSim completed all CPUs

Region of Interest Statistics

CPU 0 cumulative IPC: 0.826725 instructions: 50000001 cycles: 60479609
 Fetch stage stalled: 36.0888  Sim cycles: 60479609 fetch stall cycle: 21826368
 Empty decode stage: 67.9099  Sim cycles: 60479609 fetch stall cycle: 41071623
ITLB TOTAL     ACCESS:    7199907  HIT:    6707279  MISS:     492628  HIT %:    93.1579  MISS %:    6.84214   MPKI: 9.85256
ITLB LOAD TRANSLATION INSTRUCTION	ACCESS:    7199907  HIT:    6707279  MISS:     492628  HIT %:    93.1579  MISS %:    6.84214  MPKI: 9.85256

ITLB AVERAGE MISS LATENCY: 9.05154 cycles
ITLB RQ	ACCESS:    8277397	FORWARD:          0	MERGED:     875224	TO_CACHE:    7402173

DTLB TOTAL     ACCESS:   10409157  HIT:    9936091  MISS:     473066  HIT %:    95.4553  MISS %:    4.54471   MPKI: 9.46132
DTLB LOAD TRANSLATION DATA	ACCESS:   10409157  HIT:    9936091  MISS:     473066  HIT %:    95.4553  MISS %:    4.54471  MPKI: 9.46132

DTLB AVERAGE MISS LATENCY: 9.31253 cycles
DTLB RQ	ACCESS:   14485227	FORWARD:          0	MERGED:    4047775	TO_CACHE:   10437452

STLB TOTAL     ACCESS:    1226906  HIT:    1224814  MISS:       2092  HIT %:    99.8295  MISS %:    0.17051   MPKI: 0.04184
STLB LOAD TRANSLATION INSTRUCTION	ACCESS:     492628  HIT:     492360  MISS:        268  HIT %:    99.9456  MISS %:  0.0544021  MPKI: 0.00536
STLB LOAD TRANSLATION DATA	ACCESS:     473052  HIT:     471250  MISS:       1802  HIT %:    99.6191  MISS %:   0.380931  MPKI: 0.03604
STLB TRANSLATION FROM L1D PREFETCHER DATA	ACCESS:     261226  HIT:     261204  MISS:         22  HIT %:    99.9916  MISS %: 0.00842183  MPKI: 0.00044

STLB AVERAGE MISS LATENCY: 74.4297 cycles
STLB RQ	ACCESS:    1346304	FORWARD:          0	MERGED:     119353	TO_CACHE:    1226951

STLB Hit, L1D data hit: 0
STLB Hit, L2C data hit: 0
STLB Hit, LLC data hit: 0
STLB Hit, LLC data miss: 0
STLB STLB hints to L2: 0
L1D TOTAL     ACCESS:   14282871  HIT:   13170605  MISS:    1112266  HIT %:    92.2126  MISS %:    7.78741   MPKI: 22.2453
L1D LOAD DATA	ACCESS:    7630510  HIT:    6898960  MISS:     731550  HIT %:    90.4128  MISS %:    9.58717  MPKI: 14.631
L1D RFO DATA	ACCESS:    6312620  HIT:    6025956  MISS:     286664  HIT %:    95.4589  MISS %:    4.54113  MPKI: 5.73328
L1D PREFETCH DATA	ACCESS:     339741  HIT:     245689  MISS:      94052  HIT %:    72.3166  MISS %:    27.6834  MPKI: 1.88104

L1D PREFETCH  REQUESTED:     761376  ISSUED:     761376  USEFUL:      35728  USELESS:      67489
L1D USEFUL LOAD PREFETCHES:      35728 PREFETCH ISSUED TO LOWER LEVEL:     103313  ACCURACY: 34.5823
 TIMELY PREFETCHES:      35728 LATE PREFETCHES: 9197 DROPPED PREFETCHES: 10
L1D AVERAGE MISS LATENCY: 358616 cycles
L1D RQ	ACCESS:   11464069	FORWARD:          0	MERGED:    3647348	TO_CACHE:    7661325
L1D WQ	ACCESS:    6943592	FORWARD:     155552	MERGED:     119690	TO_CACHE:    6823902
L1D PQ	ACCESS:     380766	FORWARD:          0	MERGED:          0	TO_CACHE:     380610

L1D UNIQUE REGIONS ACCESSED: 0
L1D REGIONS CONFLICTS: 0
L1D Cross Page Prefetch Requests: 6772
L1D Same Page Prefetch Requests: 761416
L1D ROI Sum of L1D PQ occupancy: 4850423
L1D PREFETCHES PUSHED FROM L2C: 0
L1I TOTAL     ACCESS:    7874946  HIT:    5119413  MISS:    2755533  HIT %:    65.0089  MISS %:    34.9911   MPKI: 55.1107
L1I LOAD INSTRUCTION	ACCESS:    7874946  HIT:    5119413  MISS:    2755533  HIT %:    65.0089  MISS %:    34.9911  MPKI: 55.1107

L1I AVERAGE MISS LATENCY: 16.9115 cycles
L1I RQ	ACCESS:   15478559	FORWARD:          0	MERGED:    7201162	TO_CACHE:    8277397

L1BTB TOTAL     ACCESS:    5670027  HIT:    2051437  MISS:    3618590  HIT %:    36.1804  MISS %:    63.8196   MPKI: 72.3718
L1BTB BRANCH_DIRECT_JUMP	ACCESS:     548686 HIT:     145653 MISS:     403033 AVERAGE STALL: 26.0908 AVERAGE FETCH STALL: 17.0954 AVERAGE FETCH QUEUE STALL: 3.11224 AVERAGE DECODE STALL: 4.88316 AVERAGE EXECUTE STALL: 3.46398e+14
L1BTB BRANCH_INDIRECT	ACCESS:     183413 HIT:      66356 MISS:     117057 AVERAGE STALL: 55.3034 AVERAGE FETCH STALL: 13.7369 AVERAGE FETCH QUEUE STALL: 3.57549 AVERAGE DECODE STALL: 4.10451 AVERAGE EXECUTE STALL: 32.8865
L1BTB BRANCH_CONDITIONAL	ACCESS:    2713936 HIT:    1424678 MISS:    1289258 AVERAGE STALL: 26.2713 AVERAGE FETCH STALL: 17.8957 AVERAGE FETCH QUEUE STALL: 3.04417 AVERAGE DECODE STALL: 4.32871 AVERAGE EXECUTE STALL: 1.28339e+14
L1BTB BRANCH_DIRECT_CALL	ACCESS:     941311 HIT:     104653 MISS:     836658 AVERAGE STALL: 28.0929 AVERAGE FETCH STALL: 18.6353 AVERAGE FETCH QUEUE STALL: 3.68216 AVERAGE DECODE STALL: 4.77546 AVERAGE EXECUTE STALL: 1.58113e+14
L1BTB BRANCH_INDIRECT_CALL	ACCESS:     170684 HIT:      20673 MISS:     150011 AVERAGE STALL: 69.0718 AVERAGE FETCH STALL: 12.8288 AVERAGE FETCH QUEUE STALL: 3.62764 AVERAGE DECODE STALL: 4.65945 AVERAGE EXECUTE STALL: 46.9559
L1BTB BRANCH_RETURN	ACCESS:    1111997 HIT:     289424 MISS:     822573 AVERAGE STALL: 29.3097 AVERAGE FETCH STALL: 16.1835 AVERAGE FETCH QUEUE STALL: 3.35192 AVERAGE DECODE STALL: 4.52772 AVERAGE EXECUTE STALL: 1.81468e+14
L1BTB BRANCH_OTHER ACCESS:          0 HIT:          0 MISS:          0 AVERAGE STALL: -nan AVERAGE FETCH STALL: -nan AVERAGE FETCH QUEUE STALL: -nan AVERAGE DECODE STALL: -nan AVERAGE EXECUTE STALL: -nan
L1BTB TOTAL ROB OCCUPANCY AT BTB MISS: 4.67579

L2BTB TOTAL     ACCESS:    3593077  HIT:    3155392  MISS:     437685  HIT %:    87.8187  MISS %:    12.1813   MPKI: 8.7537
L2BTB BRANCH_DIRECT_JUMP	ACCESS:     398809 HIT:     349720 MISS:      49089 AVERAGE STALL: 26.0908 AVERAGE FETCH STALL: 17.0954 AVERAGE FETCH QUEUE STALL: 3.11224 AVERAGE DECODE STALL: 4.88316 AVERAGE EXECUTE STALL: 3.46398e+14
L2BTB BRANCH_INDIRECT	ACCESS:     106767 HIT:     101599 MISS:       5168 AVERAGE STALL: 55.3034 AVERAGE FETCH STALL: 13.7369 AVERAGE FETCH QUEUE STALL: 3.57549 AVERAGE DECODE STALL: 4.10451 AVERAGE EXECUTE STALL: 32.8865
L2BTB BRANCH_CONDITIONAL	ACCESS:    1289258 HIT:    1144575 MISS:     144683 AVERAGE STALL: 26.2713 AVERAGE FETCH STALL: 17.8957 AVERAGE FETCH QUEUE STALL: 3.04417 AVERAGE DECODE STALL: 4.32871 AVERAGE EXECUTE STALL: 1.28339e+14
L2BTB BRANCH_DIRECT_CALL	ACCESS:     836658 HIT:     719903 MISS:     116755 AVERAGE STALL: 28.0929 AVERAGE FETCH STALL: 18.6353 AVERAGE FETCH QUEUE STALL: 3.68216 AVERAGE DECODE STALL: 4.77546 AVERAGE EXECUTE STALL: 1.58113e+14
L2BTB BRANCH_INDIRECT_CALL	ACCESS:     140406 HIT:     118749 MISS:      21657 AVERAGE STALL: 69.0718 AVERAGE FETCH STALL: 12.8288 AVERAGE FETCH QUEUE STALL: 3.62764 AVERAGE DECODE STALL: 4.65945 AVERAGE EXECUTE STALL: 46.9559
L2BTB BRANCH_RETURN	ACCESS:     821179 HIT:     720846 MISS:     100333 AVERAGE STALL: 29.3097 AVERAGE FETCH STALL: 16.1835 AVERAGE FETCH QUEUE STALL: 3.35192 AVERAGE DECODE STALL: 4.52772 AVERAGE EXECUTE STALL: 1.81468e+14
L2BTB BRANCH_OTHER ACCESS:          0 HIT:          0 MISS:          0 AVERAGE STALL: -nan AVERAGE FETCH STALL: -nan AVERAGE FETCH QUEUE STALL: -nan AVERAGE DECODE STALL: -nan AVERAGE EXECUTE STALL: -nan
L2BTB TOTAL ROB OCCUPANCY AT BTB MISS: 38.6574

L2C TOTAL     ACCESS:    4469078  HIT:    4011397  MISS:     457681  HIT %:    89.7589  MISS %:    10.2411   MPKI: 9.15362
L2C LOAD INSTRUCTION	ACCESS:    2755533  HIT:    2507999  MISS:     247534  HIT %:    91.0168  MISS %:    8.98316  MPKI: 4.95068
L2C LOAD TRANSLATION INSTRUCTION	ACCESS:        306  HIT:         62  MISS:        244  HIT %:    20.2614  MISS %:    79.7386  MPKI: 0.00488
L2C LOAD DATA	ACCESS:     722339  HIT:     653091  MISS:      69248  HIT %:    90.4134  MISS %:    9.58663  MPKI: 1.38496
L2C RFO DATA	ACCESS:     286594  HIT:     233853  MISS:      52741  HIT %:    81.5973  MISS %:    18.4027  MPKI: 1.05482
L2C PREFETCH DATA	ACCESS:     182646  HIT:     112155  MISS:      70491  HIT %:    61.4057  MISS %:    38.5943  MPKI: 1.40982
L2C WRITEBACK DATA	ACCESS:     519742  HIT:     503659  MISS:      16083  HIT %:    96.9056  MISS %:    3.09442  MPKI: 0.32166
L2C LOAD TRANSLATION DATA	ACCESS:       1871  HIT:        546  MISS:       1325  HIT %:    29.1823  MISS %:    70.8177  MPKI: 0.0265
L2C TRANSLATION FROM L1D PREFETCHER DATA	ACCESS:         47  HIT:         32  MISS:         15  HIT %:    68.0851  MISS %:    31.9149  MPKI: 0.0003

L2C PREFETCH  REQUESTED:      86896  ISSUED:      86896  USEFUL:       7864  USELESS:      63293
L2C USEFUL LOAD PREFETCHES:       7864 PREFETCH ISSUED TO LOWER LEVEL:      71097  ACCURACY: 11.0609
 TIMELY PREFETCHES:       7864 LATE PREFETCHES: 606 DROPPED PREFETCHES: 0
L2C AVERAGE MISS LATENCY: 39.0727 cycles
L2C RQ	ACCESS:    3766712	FORWARD:          0	MERGED:          0	TO_CACHE:    3766693
L2C WQ	ACCESS:     519742	FORWARD:         19	MERGED:          0	TO_CACHE:     519742
L2C PQ	ACCESS:     190209	FORWARD:          0	MERGED:       4413	TO_CACHE:     185796

L2C Dense regions hint from L2: 0
PSCL5 TOTAL     ACCESS:       4208  HIT:       2104  MISS:       2104  HIT %:         50  MISS %:         50   MPKI: 0.04208
PSCL5 LOAD TRANSLATION INSTRUCTION	ACCESS:       4114  HIT:       2057  MISS:       2057  HIT %:         50  MISS %:         50  MPKI: 0.04114
PSCL5 TRANSLATION FROM L1D PREFETCHER INSTRUCTION	ACCESS:         94  HIT:         47  MISS:         47  HIT %:         50  MISS %:         50  MPKI: 0.00094


PSCL4 TOTAL     ACCESS:       3973  HIT:       1982  MISS:       1991  HIT %:    49.8867  MISS %:    50.1133   MPKI: 0.03982
PSCL4 LOAD TRANSLATION INSTRUCTION	ACCESS:       3573  HIT:       1943  MISS:       1630  HIT %:    54.3801  MISS %:    45.6199  MPKI: 0.0326
PSCL4 TRANSLATION FROM L1D PREFETCHER INSTRUCTION	ACCESS:         78  HIT:         39  MISS:         39  HIT %:         50  MISS %:         50  MPKI: 0.00078
PSCL4 LOAD TRANSLATION DATA	ACCESS:        322  HIT:          0  MISS:        322  HIT %:          0  MISS %:        100  MPKI: 0.00644


PSCL3 TOTAL     ACCESS:       4035  HIT:       2013  MISS:       2022  HIT %:    49.8885  MISS %:    50.1115   MPKI: 0.04044
PSCL3 LOAD TRANSLATION INSTRUCTION	ACCESS:       3604  HIT:       1974  MISS:       1630  HIT %:    54.7725  MISS %:    45.2275  MPKI: 0.0326
PSCL3 TRANSLATION FROM L1D PREFETCHER INSTRUCTION	ACCESS:         78  HIT:         39  MISS:         39  HIT %:         50  MISS %:         50  MPKI: 0.00078
PSCL3 LOAD TRANSLATION DATA	ACCESS:        353  HIT:          0  MISS:        353  HIT %:          0  MISS %:        100  MPKI: 0.00706


PSCL2 TOTAL     ACCESS:       4102  HIT:       1998  MISS:       2104  HIT %:    48.7079  MISS %:    51.2921   MPKI: 0.04208
PSCL2 LOAD TRANSLATION INSTRUCTION	ACCESS:       2228  HIT:       1951  MISS:        277  HIT %:    87.5673  MISS %:    12.4327  MPKI: 0.00554
PSCL2 TRANSLATION FROM L1D PREFETCHER INSTRUCTION	ACCESS:         47  HIT:         47  MISS:          0  HIT %:        100  MISS %:          0  MPKI: 0
PSCL2 LOAD TRANSLATION DATA	ACCESS:       1780  HIT:          0  MISS:       1780  HIT %:          0  MISS %:        100  MPKI: 0.0356
PSCL2 TRANSLATION FROM L1D PREFETCHER DATA	ACCESS:         47  HIT:          0  MISS:         47  HIT %:          0  MISS %:        100  MPKI: 0.00094


LLC TOTAL     ACCESS:     516931  HIT:     487538  MISS:      29393  HIT %:    94.3139  MISS %:    5.68606   MPKI: 0.58786
LLC LOAD INSTRUCTION	ACCESS:     247534  HIT:     246242  MISS:       1292  HIT %:    99.4781  MISS %:   0.521949  MPKI: 0.02584
LLC LOAD TRANSLATION INSTRUCTION	ACCESS:        244  HIT:        205  MISS:         39  HIT %:    84.0164  MISS %:    15.9836  MPKI: 0.00078
LLC LOAD DATA	ACCESS:      68662  HIT:      65067  MISS:       3595  HIT %:    94.7642  MISS %:    5.23579  MPKI: 0.0719
LLC RFO DATA	ACCESS:      52708  HIT:      38587  MISS:      14121  HIT %:     73.209  MISS %:     26.791  MPKI: 0.28242
LLC PREFETCH DATA	ACCESS:      71097  HIT:      61219  MISS:       9878  HIT %:    86.1063  MISS %:    13.8937  MPKI: 0.19756
LLC WRITEBACK DATA	ACCESS:      75346  HIT:      74976  MISS:        370  HIT %:    99.5089  MISS %:   0.491068  MPKI: 0.0074
LLC LOAD TRANSLATION DATA	ACCESS:       1325  HIT:       1227  MISS:         98  HIT %:    92.6038  MISS %:    7.39623  MPKI: 0.00196
LLC TRANSLATION FROM L1D PREFETCHER DATA	ACCESS:         15  HIT:         15  MISS:          0  HIT %:        100  MISS %:          0  MPKI: 0

LLC AVERAGE MISS LATENCY: 156.507 cycles
LLC RQ	ACCESS:     370501	FORWARD:          0	MERGED:          0	TO_CACHE:     370488
LLC WQ	ACCESS:      75346	FORWARD:         13	MERGED:          0	TO_CACHE:      75346
LLC PQ	ACCESS:      71097	FORWARD:          0	MERGED:          0	TO_CACHE:      71097

LLC Dense regions hint to LLC: 0

RAW hits: 1173340
Loads Generated: 12637411
Loads sent to L1D: 11464069
Stores Generated: 6943578
Stores sent to L1D: 6943592
Major fault: 0 Minor fault: 2597
Allocated PAGES: 2597

stream: 
stream:times selected: 1190019
stream:pref_filled: 118940
stream:pref_useful: 24907
stream:pref_late: 6562
stream:misses: 7296
stream:misses_by_poll: 0

CS: 
CS:times selected: 179781
CS:pref_filled: 57604
CS:pref_useful: 34402
CS:pref_late: 7987
CS:misses: 17826
CS:misses_by_poll: 1

CPLX: 
CPLX:times selected: 1009169
CPLX:pref_filled: 22439
CPLX:pref_useful: 5235
CPLX:pref_late: 3023
CPLX:misses: 92513
CPLX:misses_by_poll: 1

NL_L1: 
NL:times selected: 19627
NL:pref_filled: 566
NL:pref_useful: 305
NL:pref_late: 315
NL:misses: 1546
NL:misses_by_poll: 0

total selections: 2398596
total_filled: 94052
total_useful: 35728
total_late: 19377
total_polluted: 2
total_misses_after_warmup: 762368
conflicts: 6010196

test: 117537

DRAM Statistics
 CHANNEL 0
 RQ ROW_BUFFER_HIT:      10623  ROW_BUFFER_MISS:      18397
 DBUS_CONGESTED:          6
 WQ ROW_BUFFER_HIT:       1556  ROW_BUFFER_MISS:      12545  FULL:          0

 AVG_CONGESTED_CYCLE: 4

CPU 0 Branch Prediction Accuracy: 99.8062% MPKI: 0.3542 Average ROB Occupancy at Mispredict: 68.794
Branch types
NOT_BRANCH: 40859325 81.7186%
BRANCH_DIRECT_JUMP: 548686 1.09737%
BRANCH_INDIRECT: 183413 0.366826%
BRANCH_CONDITIONAL: 6184274 12.3685%
BRANCH_DIRECT_CALL: 941311 1.88262%
BRANCH_INDIRECT_CALL: 170684 0.341368%
BRANCH_RETURN: 1111997 2.22399%
BRANCH_OTHER: 0 0%

DRAM PAGES: 1048576
Allocated PAGES: 2597
Average_ROB_Occupancy: 50.1085
Average_Decode_Occupancy: 4.43288
Average_FTQ_Occupancy: 13.4405
Indirect max targets: 14 Average targets: 1.17949
Branch_type:  BRANCH_DIRECT_JUMP:  Count Percentage: 2.13512 6.66012 4.42913 9.17953 2.23363 11.106 1.30623 62.9502 
Branch_type:  BRANCH_INDIRECT:  Count Percentage: 11.7665 3.41891 2.57045 0 1.33488 25.0078 2.26981 53.6317 
Branch_type:  BRANCH_CONDITIONAL:  Count Percentage: 21.21 4.62392 3.603 5.2089 1.34856 8.30766 0.679902 55.0181 
Branch_type:  BRANCH_DIRECT_CALL:  Count Percentage: 0.260657 1.74958 1.29739 4.65774 1.91304 2.83298 0.860963 86.4276 
Branch_type:  BRANCH_INDIRECT_CALL:  Count Percentage: 9.56943 0 2.99878 8.7333 0 2.55105 1.29145 74.856 
Branch_type:  BRANCH_RETURN:  Count Percentage: 4.11211 4.94791 1.17109 5.98157 3.19113 9.15945 1.70725 69.7295 
Branch_type:  BRANCH_DIRECT_JUMP:  Total Count: 23407 73014 48556 100634 24487 121754 14320 690115 
Branch_type:  BRANCH_INDIRECT:  Total Count: 43130 12532 9422 0 4893 91666 8320 196587 
Branch_type:  BRANCH_CONDITIONAL:  Total Count: 2621866 571585 445385 643897 166702 1026951 84046 6801057 
Branch_type:  BRANCH_DIRECT_CALL:  Total Count: 4910 32957 24439 87738 36036 53365 16218 1628041 
Branch_type:  BRANCH_INDIRECT_CALL:  Total Count: 32744 0 10261 29883 0 8729 4419 256137 
Branch_type:  BRANCH_RETURN:  Total Count: 91566 110177 26077 133194 71058 203957 38016 1552693 
Number of unique branch instructions: 10693
Upper 32 bits: 
aaaa
ffff
ffff0000
Unique upper 32 bits: 3
Unique upper 36 bits: 3
Unique upper 40 bits: 5
Unique upper 44 bits: 32
Unique upper 48 bits: 157
Offset_3 4443
Offset_4 257
Offset_5 476
Offset_6 538
Offset_7 636
Offset_8 580
Offset_9 513
Offset_10 417
Offset_11 348
Offset_12 321
Offset_13 236
Offset_14 247
Offset_15 199
Offset_16 227
Offset_17 163
Offset_18 152
Offset_19 257
Offset_20 144
Offset_21 235
Offset_22 408
Offset_23 241
Offset_24 342
Offset_25 117
Offset_47 92
decode_dispatch_called: 29720939 49.1421
Dispatch_width: 0 17626788 59.3076 29.145
Dispatch_width: 1 2122213 7.14046 3.50897
Dispatch_width: 2 1264365 4.25412 2.09056
Dispatch_width: 3 1140254 3.83653 1.88535
Dispatch_width: 4 1148214 3.86332 1.89851
Dispatch_width: 5 1179505 3.9686 1.95025
Dispatch_width: 6 5239600 17.6293 8.66342
Empty_decode_cycles: 30758670 50.8579
ROB_full_cycles: 493330 0.815696
Starvation_cycles_per_kilo_instr: 547.467
Starvation_cycles_per_kilo_instr_3: 524.19
Starvation_cycles_per_kilo_instr_0: 478.921
Branch_type_1  (3,1)  (4,7)  (5,38)  (6,74)  (7,125)  (8,148)  (9,135)  (10,110)  (11,77)  (12,55)  (13,11)  (14,2)  (15,3)  (16,4)  (18,1)  (19,5)  (20,2)  (21,1)  (22,3)  (23,2)  (24,10)  (25,12) 
Branch_type_2  (3,1)  (4,1)  (5,1)  (8,4)  (9,4)  (10,1)  (12,1)  (13,1)  (14,1)  (16,3)  (17,2)  (20,2)  (21,2)  (23,5)  (24,1)  (47,41) 
Branch_type_3  (3,4441)  (4,249)  (5,433)  (6,447)  (7,480)  (8,362)  (9,281)  (10,167)  (11,135)  (12,62)  (13,10) 
Branch_type_4  (6,4)  (7,8)  (8,26)  (9,55)  (10,66)  (11,70)  (12,113)  (13,100)  (14,111)  (15,95)  (16,100)  (17,75)  (18,65)  (19,124)  (20,73)  (21,124)  (22,214)  (23,136)  (24,198)  (25,101) 
Branch_type_5  (8,3)  (9,1)  (10,4)  (11,5)  (12,3)  (13,14)  (14,16)  (15,11)  (16,22)  (17,11)  (18,23)  (19,14)  (20,11)  (21,13)  (22,43)  (23,26)  (24,37) 
Branch_type_6  (5,4)  (6,13)  (7,23)  (8,37)  (9,37)  (10,69)  (11,61)  (12,87)  (13,100)  (14,117)  (15,90)  (16,98)  (17,75)  (18,63)  (19,114)  (20,56)  (21,95)  (22,148)  (23,72)  (24,96)  (25,4)  (47,51) 
aaaaab1fc620: 2ac9e77e 2aca717c 2aca8eff 2acaf6bc 2acaf9aa 2acaf9f1 2acb1abc 2acb1b7f 2acd4e22 2acdb712 2acf5f9e 2ad0ef44 2ad3f15c 2ad414e6 2ad60e42 2ad8609c 2ad99830 2ada35cc 2ada4676 2ada6612 2adf183e 2adf30e5 2adf5602 2adf785c 2ae11572 2aeb2dcf 2aee101b 2aee1ae1 2b156a8c 2b156b61 2b156bea 2b167f35 2b177656 2b17feec 2b1a3e5a 
aaaaab1fc640: 2ac9ec07 2aca656e 2aca801d 2acaea11 2acaee73 2acb13ee 2acb1470 2acd462b 2ad0ef5d 2ad3f3fe 2ad86e9b 2ada1641 2ada4115 2ada6638 2adf30d4 2ae12e57 2aee1033 2b1693ab 2b16948c 2b169491 2b17d915 2b17fa85 2b17fccd 
aaaaab1fcb00: 2acf2d72 2acf3734 2acf604c 2acfa5b7 2ad397b5 2ad3b800 2ae8af7d 2ae8aff0 2ae9aaba 2aea9fc6 2aeaa358 2aee910b 2aee91cf 2aee928e 2aee92e4 2af6fe87 2af70dfe 2b16850c 2b16c4a2 2b1765f4 2b178094 2b17d925 2b17db06 2b17ec8f 
aaaaab1fcb10: 2acf2d95 2acf3758 2acf6052 2acfa5f4 2ad397c3 2ad3b81c 2ae8af88 2ae8affe 2ae9aacf 2aeaa017 2aeaa36d 2aee9114 2aee91d8 2aee934d 2aee9353 2af6fe8c 2af70e22 2b168526 2b16c542 2b176609 2b1780a3 2b17d95d 2b17db44 2b17ecac 
aaaaac68f310: 2ac9ec8c 2ac9fb44 2ac9fbd2 2aca59ab 2acac04c 2acaf6e0 2acaf6ec 2acaf6f9 2acaf700 2acaf708 2acf2d90 2ad3cfbd 2ad3cfc4 2ad3d000 2ad3f35f 2ad4955d 2ad49571 2ad4f3f2 2ad4f400 2ad5f240 2ad5f37c 2ad5f86a 2ad5f86f 2ad5f880 2ad5fc0d 2ad5fc14 2ad5fc21 2ad5fe1b 2ad873bb 2ad873e3 2ad8a6b2 2ad9086e 2ad93096 2ad9bbb2 2ada152c 2ada1554 2ada3332 2ada5522 2adf3130 2adf313c 2adf3a3f 2adf3bd9 2adf5788 2adf7a8d 2ae07f6b 2ae0857a 2ae0857e 2ae08630 2ae08634 2ae08637 2ae08642 2ae0866f 2ae086e4 2ae086ec 2ae08717 2ae0871b 2aee0170 2aee1d38 2aee75f4 2aee7662 2aee85ca 2aee85e4 2aee8eef 2af70b84 2af74e8f 2b17d843 
aaaaac690ef0: 2aca598b 2acb111b 2acb175f 2acb1772 2acbfaf4 2acbfb00 2acf374f 2acf6d43 2acfa5c8 2ad3baf1 2ad3d4ac 2ad3d4b8 2ad3f1cf 2ad486b2 2ad5a59b 2ad5fc64 2ad5fcf9 2ad6121c 2ad906e9 2ad907bf 2ad9bada 2ada16ce 2ada1ad5 2ada43df 2ada64c0 2ada72ee 2adeb71a 2adf3bcb 2adf7a38 2adf7c6a 2adf8872 2adf8880 2adf9959 2adf9abe 2ae07f78 2ae08503 2ae08754 2ae12e80 2aea3bea 2aecb509 2aee00b0 2aee2bdd 2aee5467 2aee5601 2aee8f20 2af703fd 2af7048b 2af74e74 
Unique trigger count: 
1 10188
2 562
3 90
4 31
5 13
6 13
7 7
8 2
9 3
10 2
11 1
12 1
13 1
14 3
16 2
19 2
23 1
24 2
35 1
48 1
66 1
BTB PER SET UNIQUE ADDR: 3 4 3 3 1 1 3 2 4 0 2 0 5 3 1 3 3 2 4 5 3 4 2 3 4 5 1 4 3 2 6 6 4 4 5 2 1 6 5 2 4 4 4 7 6 4 4 4 6 3 3 2 3 1 0 3 4 3 3 3 1 4 2 3 1 4 5 4 3 5 5 1 1 4 2 3 3 7 2 4 2 3 1 4 3 4 2 5 3 3 6 5 3 5 3 0 4 4 2 3 4 4 3 3 4 2 1 2 3 2 2 2 3 6 2 6 2 5 4 1 5 4 2 0 1 2 2 2 7 6 6 2 4 3 6 5 2 2 3 3 5 4 4 3 3 5 3 5 5 4 3 9 3 5 4 1 4 4 5 3 5 6 5 4 7 5 2 2 9 3 3 3 5 3 1 2 4 5 7 1 3 4 7 4 7 7 4 1 2 3 5 3 3 4 4 4 4 3 3 6 3 2 4 2 3 3 2 5 3 1 2 4 5 4 4 2 3 5 4 0 1 3 2 4 4 2 4 3 0 4 8 4 3 4 3 4 5 3 2 3 1 0 7 4 11 8 1 3 4 5 3 2 1 4 2 7 3 5 4 3 4 4 4 2 3 7 3 2 4 2 3 2 2 4 4 3 2 2 3 4 4 3 5 2 5 5 4 3 1 1 0 3 1 7 2 1 4 3 2 2 3 3 2 2 4 2 4 2 7 5 4 1 3 2 5 2 7 6 2 3 4 7 3 5 2 3 2 7 1 1 5 0 2 5 5 2 4 5 6 0 4 0 1 5 5 3 1 6 5 5 4 8 6 3 5 3 2 0 5 1 2 6 2 4 7 5 1 1 2 2 3 2 3 4 4 4 3 5 4 4 6 3 2 6 3 3 5 2 6 1 5 5 4 2 3 1 5 0 1 3 4 2 4 2 2 4 3 2 1 1 1 3 5 4 2 3 6 3 1 3 1 1 4 5 5 6 3 0 2 6 1 2 8 3 5 5 3 3 4 0 3 4 5 3 5 6 2 3 3 3 4 3 1 3 5 1 1 3 7 3 3 3 4 6 2 3 6 3 3 3 0 4 5 3 3 1 4 5 2 1 2 1 2 2 0 4 3 1 6 1 5 2 4 4 1 5 3 3 2 2 5 1 1 2 1 2 2 2 2 3 3 2 5 8 2 1 2 5 4 6 4 4 4 3 6 6 1 6 6 4 5 3 4 6 3 5 2 1 4 1 2 5 6 3 6 2 8 3 7 9 4 6 3 6 1 3 3 1 4 4 7 3 5 3 2 1 4 3 3 7 3 2 3 7 2 2 3 4 1 5 5 2 2 0 1 0 0 9 4 2 6 7 2 2 3 3 6 2 4 2 6 2 6 7 1 4 4 4 2 2 5 3 2 2 2 3 2 0 3 1 4 4 8 2 2 4 3 5 2 3 5 4 3 3 5 5 3 5 3 3 8 1 4 4 1 0 4 4 3 4 3 2 5 2 3 0 5 3 2 3 6 2 5 4 5 3 5 3 2 3 5 5 4 4 5 6 3 3 3 3 3 2 5 2 5 3 5 3 4 3 1 5 2 3 3 3 6 4 5 5 0 6 0 3 3 3 4 1 3 1 3 3 3 2 2 1 8 2 0 3 2 0 1 1 1 3 1 4 2 4 6 5 2 2 3 4 8 3 2 2 2 3 2 4 2 2 4 2 3 2 0 2 1 4 2 2 3 6 4 1 3 3 1 5 4 4 8 3 2 2 5 4 0 3 3 4 5 2 1 3 4 4 0 3 8 6 3 4 0 3 2 4 2 1 4 7 7 2 2 3 5 3 4 3 5 3 3 5 2 3 1 4 4 0 5 4 1 2 0 4 5 2 4 2 2 2 3 2 4 4 3 1 3 2 5 2 2 2 5 3 2 2 3 4 2 4 7 5 5 2 6 3 5 4 5 4 3 2 4 4 2 6 2 1 8 3 3 4 5 3 1 3 3 6 4 0 2 3 5 4 3 6 4 5 6 3 2 3 3 5 5 3 3 4 2 1 6 4 2 1 5 2 1 4 5 5 4 5 3 5 5 4 1 3 1 5 0 2 6 2 6 5 5 3 4 1 3 2 5 8 5 4 9 7 6 4 6 4 2 7 4 2 1 4 4 6 5 5 4 4 6 1 5 5 2 4 6 6 4 2 3 3 4 5 2 6 9 5 6 3 3 4 0 6 7 1 7 5 1 3 7 5 3 5 2 1 2 4 4 2 5 4 2 7 5 5 4 5 3 5 3 3 5 2 2 5 4 3 3 4 5 3 4 4 6 2 5 3 2 5 5 2 10 5 3 3 3 2 2 3 4 7 6 2 3 2 3 2 3 1 3 2 4 4 3 4 5 5 4 6 0 3 3 4 4 4 2 1 3 2 3 1 1 1 4 1 2 3 3 4 1 8 5 3 2 1 10 1 2 4 1 2 6 5 3 7 2 5 4 6 3 5 3 2 1 1 5 1 4 4 3 8 4 1 6 4 6 2 4 4 5 3 5 8 4 4 6 1 4 5 7 4 3 2 4 3 6 6 3 6 6 6 4 3 4 5 1 2 3 5 1 3 2 1 3 5 2 3 5 2 2 5 4 2 5 1 7 3 3 2 3 1 3 5 3 4 3 4 2 6 2 3 7 3 4 5 3 5 2 8 3 5 3 8 6 2 6 1 5 2 1 2 4 4 3 1 3 4 3 1 2 3 4 4 3 2 3 4 2 5 2 5 4 5 0 5 4 3 2 6 7 1 8 0 1 4 5 2 5 1 3 3 4 1 1 2 4 5 3 4 1 4 3 6 5 1 4 3 3 6 9 4 3 7 5 5 1 1 3 5 6 3 2 2 3 3 4 4 5 3 0 4 2 3 6 8 5 3 3 5 1 2 6 3 4 1 3 2 6 8 2 3 3 3 4 5 2 5 6 6 5 3 1 5 4 2 4 3 4 4 3 4 7 3 5 4 3 5 5 2 1 7 4 4 3 3 3 2 3 2 2 2 5 4 2 3 5 2 1 3 3 7 4 2 3 4 2 4 3 3 4 3 2 0 4 2 3 2 4 3 4 4 2 1 2 6 1 4 2 4 2 3 6 1 1 5 5 3 3 4 5 2 3 4 5 5 4 4 4 3 3 3 2 3 5 2 4 1 4 0 8 3 3 6 4 4 5 7 3 2 3 3 2 3 4 1 4 2 4 3 0 6 1 5 3 3 3 5 3 2 5 3 3 2 4 1 6 3 0 3 3 1 1 4 1 5 3 3 6 3 2 2 2 3 2 2 7 2 3 5 3 3 3 4 2 2 5 0 2 3 4 3 2 2 2 0 3 0 4 2 4 4 2 3 2 1 2 6 4 2 6 1 3 4 2 2 5 5 2 2 6 0 1 2 3 1 1 2 3 3 5 3 1 1 8 2 1 4 1 6 1 4 3 3 6 2 4 2 1 3 3 1 2 3 5 2 3 3 1 3 0 5 2 3 3 0 4 3 5 3 5 3 3 4 1 3 2 2 2 2 5 0 2 3 3 3 4 1 3 3 2 10 7 2 3 2 4 1 1 3 6 2 3 0 3 2 4 2 3 5 6 6 8 0 4 2 8 4 4 5 4 8 2 4 8 3 0 6 4 3 3 5 3 3 2 1 2 5 2 2 3 3 2 3 6 3 5 4 6 1 1 5 6 3 3 5 5 4 6 2 5 5 2 6 4 3 3 2 3 6 5 3 2 3 3 3 4 4 2 3 3 2 3 1 3 7 0 2 2 3 3 4 5 3 4 2 5 1 2 2 6 2 4 5 6 1 1 7 2 4 2 3 4 7 2 3 2 4 6 2 5 3 5 3 5 9 4 4 3 5 1 5 3 3 2 3 1 2 2 4 4 3 2 4 3 5 4 2 4 9 0 3 2 4 4 4 3 4 3 6 4 4 1 5 3 3 4 3 3 0 3 5 0 7 2 6 6 1 4 3 2 0 4 2 3 5 3 6 2 3 2 2 3 5 6 1 4 3 0 3 2 4 5 3 2 3 5 2 3 2 6 4 4 1 5 3 0 2 4 1 1 8 2 0 4 2 4 3 2 3 6 3 3 6 1 5 4 6 2 6 5 3 3 2 7 1 4 1 3 3 4 4 3 4 2 1 2 5 0 3 0 3 5 6 2 2 5 2 3 3 3 1 3 2 4 2 4 2 5 3 2 3 1 2 3 3 3 2 3 3 2 1 1 2 2 5 1 5 1 6 4 3 3 2 5 1 2 3 4 4 3 4 5 6 3 3 3 3 3 2 0 3 2 0 0 1 2 2 4 2 5 2 2 3 4 1 1 3 3 2 2 8 3 2 7 6 3 2 5 2 3 6 3 3 4 3 4 1 2 4 6 4 2 4 3 2 4 3 5 7 3 3 0 4 1 0 2 3 0 4 4 6 1 3 4 7 5 0 2 2 4 3 5 2 3 2 8 3 2 3 3 7 2 7 3 4 6 0 1 3 1 4 4 2 0 2 3 4 6 5 1 0 3 4 6 1 1 1 3 6 2 1 5 5 3 3 5 4 0 6 3 6 2 1 2 2 1 2 5 1 3 3 3 3 4 1 5 3 5 2 4 2 1 3 6 4 4 0 
BTB PER SET COUNT: 3 4 3 3 1 2 3 2 4 0 2 0 2479 3 1 4 4 2 4 1473 3 5 4 3 4 13 1 5 1468 2 2974 22 5 4 7 2 2932 757 751 2 5 4 10 2233 5331 4 4 4 1605 3 3 2 3 1 0 3 5 3 4 3 1 4 2 3 1 395 483 5 3 1017 750 1 1 4 2 3 498 764 2 4 2 3 1 4 4 10 2 9 3 3 2523 473 3 3860 3 0 4 8 2 3 4 4 4 3 4 3 1 2 4 2 2 2 3 1985 2 1872 3 8 4 1 6 4 2 0 1 2 3 2 2254 11 1987 2 4 6 1000 7 2 2 3 3 352 7 5 4 3 11 5 4350 8 4 3 6761 3 2480 12 1 4 4 5 4 6 1001 5 4 15 1949 2 2 8268 3 3 3 8 3 1 4 4 8 979 1 3 4 6852 5 12 14 4 1 2 6 45 3 3 4 4 10 5 3 3 9 3 3 4 2 4 3 2 1475 3 1 2 7 14 4 4 3 3 177 4 0 1 3 2 4 4 2 6 26 0 4 5831 4 3 4 3 4 8 3 2 3 1 0 2478 4 9258 2025 1 3 4 5 4 2 1 4 2 2063 4 7 4 4 7 5 4 2 1468 1444 3 2 4 2 3 2 3 4 4 4 2 2 3 4 7 3 1980 2 753 2481 4 3 1 1 0 3 1 22 4 1 7 3 3 2 3 3 2 2 5 2 4 2 1984 1004 5 1 3 2 1000 3 2483 1258 2 4 4 2233 3 8 3 3 2 145 1 1 1001 0 2 16 1526 4 996 5 25 0 4 0 1 999 997 3 1 7 8 11 4 104 10 4 54 4 2 0 7 1 4 13 2 5 2594 2290 1 3 2 2 4 2 3 4 4 4 4 9 4 4 28 3 2 398 4 5 12 2 10 1 22 9 4 2 3 1 3352 0 1 3 4 2 5 2 2 4 1470 2 1 971 1 3 9 5 972 3 155 3 1 91 1 1 4 9 5 8 7 0 2 6 144 4 2734 3 993 2472 3 3 5 0 5 5 1245 3 8 1014 2 3 3 4 4 3 1 4 1979 2 1 4 1507 3 3 3 4 1995 2 4 6 3 4 3 0 6 37 497 3 1 5 997 2 1 2 1 2 496 0 4 3 1 27 1 5 2 6 4 1 22 5 5 2 2 1980 7 1 2 1 3 2 3 2 3 3 2 7 36 5 1 2 2472 5 516 5 1469 4 3 18 1488 1 1981 4853 4 6 3 4 18 3 503 2 1 8 1 3 1490 180 6 16 2 64 4 1009 9302 5 1499 5 2963 1 3 7 1 4 4 6825 3 1988 4 2 1 4 3 3 2986 3 3 3 5352 2 2 3 4 2 24 9 46 3 0 2 0 0 3965 5 2 1981 2977 3 2 973 5 10 2 4 2 9 4 10 1499 1 4 5 5 5 2 2473 3 2 2 2 3 945 0 5 1 5 499 3470 2 3 4 3 11 2 3 1979 1469 3 8 993 6 3 6 3 3 2984 1 4 4 1 0 6 4 4 4 4 2 9 2 3 0 8 3 2 3 7884 3 22 5 1984 5 2949 996 3 3 758 6 5 8 1486 3045 3 3 4 3 4 4 5 993 1490 3 15 1468 4 3 1 1001 2 5 3 3 1985 4 13 34 0 2477 0 3 3 995 4 1 3 2 3 4 5 2 993 1 2475 2 0 3 2 0 1 1 1 5 1 5 3 4 1489 9 973 2 3 5 13 4 2 2 2 3 2 4 3 3 500 2 3 990 0 2 2 7 2 2 3 2966 4 1 3 4 1 19 4 4 5846 3 3 2 8 4 0 126 3 6 2893 3 1 3 4 6 0 3 3116 4855 5 5 0 3 2 65 2 1 5 2184 1990 3 2 3 11 3 5 4 1989 4 4 19 2 5 1 5 5 0 8 6 2 2 0 4 6 2 4 3 2 2 3 2 4 62 3 1 3 2 1986 2 4 3 1486 3 2 2 4 1471 2 9 1992 6 10 2 2478 3 1981 5 8 4 3 3 4 4 2 4809 2 1 6295 973 5 5 1489 4 1 4 3 2355 5 0 4 4 23 4 3 4849 5 8 77 3 2 4 3 7 7 3 3 5 2 1 667 4 2 1 1727 2 1 57 11 2348 5 1000 3 8 45 4 1 3 1 1486 0 2 996 2 52 11 1484 3 7 1 3 2 1980 115 7 502 5324 3831 1488 4 2112 7 2 30 4 2 1 974 6 2469 33 1486 5 4 779 1 429 7 3 4 1415 1984 4 3 3 499 4 4849 4 22 1099 8 1994 8 3 4 0 399 28 1 7307 21 1 3 1989 15 498 9 2 4 2 6 7 2 1699 6 2 3471 7 6 4 1980 3 28 4 4 7 2 2 18 5 5 3 5 1993 3 2440 394 1740 4 25 4 2 7 1725 3 5080 22 3 3 3 2 2 3 5 2970 1982 2 3 2 4 2 3 3 3 2 4 4 3 4 6 1984 4 1495 0 3 3 4 1469 396 2 4 7 3 3 1 4 1 8 1 2 3 3 10 1 3961 1491 3 2 4 11233 1 2 4 1 2 1980 112 4 5344 2 24 4 2480 3 28 4 2 1 1 27 1 4 4 4 2002 4 1 2067 4 2477 2 500 4 14 3 2473 1865 4 4 2477 2 4 6 4821 4 3 2 4 3 1493 1970 3 2477 1491 2147 4 3 4 6 1 3 3 1984 1 3 2 1 3 9 2 4 512 2 2 26 6 2 12 1 5549 3 3 2 3 1 4 38 3 4 4 4 2 22 2 3 1727 3 5 8 3 1982 2 5770 3 1485 3 2606 7304 2 5344 1 18 2 1 2 500 5 3 1 4 144 4 1 2 498 4 4 3 2 3 6 2 1485 2 9 4 16 0 1979 4 3 2 41 7324 1 75 0 1 4 6 2 23 1 3 990 7 1 1 2 4 17 3 4 1 4 4 7324 16 1 4 3 3 3001 10288 1959 5 7312 19 1978 1 1 3 1979 2474 3 2 2 3 3 4 4 14 3 0 5 2 4 3420 7921 3860 4 3 366 1 2 22 3 4 1 3 2 2975 6595 972 4 3 3 4 7 2 1977 1985 2475 8 3 1 17 4 2 6 4 4 4 3 4 1988 3 1979 4 497 1979 2478 2 1 3060 4 4 3 4 3 2 3 2 2 2 18 4 2 3 991 2 1 4 3 2973 4 3 3 4 2 5 4 3 5 3 3 0 4 2 3 2 4 3 8 4 2 1 2 1008 1 4 2 5 3 4 364 1 1 9 9 973 3 5 2481 2 3 49 8 13 4 4 4 3 3 3 3 4 1985 2 5 1 4 0 5731 3 3 2968 4 4 2473 6823 3 2 4 3 2 3 4 2 5 3 4 5 0 3850 1 6 5 3 4 7 4 2 1472 3 3 1363 11 1 499 4 0 4 3 1 1 1365 1 6 3 3 1984 4 2 2 2 4 2 2 2967 2 3 70 5 3 3 4 2 2 10 0 4 7 5 975 2 2 2 0 4 0 4 2 4 6 2 3 990 1 11 12 30 2 2479 1 3 5 2 2 10 11 134 2 21519 0 1 2 3 1 1 2 3 3 2081 371 1 1 1431 2 1 4 1 2479 1 4 4 3 1974 2 12 2 1 3 3 1 2 3 7 3 3 4 1 3 0 3859 2 3 6 0 7 452 1979 3 8 3 3 4 1 3 2 2 2 2 7 0 2 3 3 3 7 1 4 3 2 3725 2977 2 6 2 4 1 1 4 1722 2 3 0 3 3 4 2 3 8 2473 17 5840 0 4 2 2234 4 5 22 4 3466 2 5 8374 3 0 2968 1469 3 3 8 3 3 3 1 2 979 3 2 4 3 2 3 1755 5 1978 4 1012 2976 1 1232 6826 4 6 11 8 4 3342 4 1607 1979 2 1985 6 289 393 2 1468 1496 10 131 5 3 3 3 5 4 2 3 5 2 4 1 3 2624 0 2 2 4 3 5 517 3 4 2 3881 1 2 3 1487 2 1490 1492 2976 1 1 6301 2 996 2 3 4 1985 498 3 2 4 2971 2 502 3 4480 3 7 8773 4 4 14663 2971 1 2001 1468 6 2 3 1 4 2 4 4 3 2 5 3 15 4 2 151 3473 0 1469 2 1469 204 4 4 4 4 2343 4 770 1 2474 6 5 4 3 3 0 3 3058 0 5344 3 1231 2483 1 6 3 2 0 4 2 4 2044 3 4867 2 4 2 4 3 8 7326 1 4 521 0 3 2 5 1978 973 2 4 1963 2 3 2 2230 5 4 1 26 3 0 2 6 1466 1 3932 2 0 4 3 5 3 4 3 2441 4 444 2473 1 2473 4 1983 208 1981 75 3 3 2 3964 1 209 1 4 1470 4 5 3 4 2 1 2 476 0 3 0 3 8 3100 2 2 762 366 3 7 973 1 3 2 4 2 4 2 97 3 2 3 1 2 207 3 3 2 3 3 2 1 2 2 2 1494 1 8 1 3863 4 3 3 9 7 1 2 3 4 4 6 991 7 997 3 3 3 3 4 2 0 3 3 0 0 1 2 2 4 5 2474 2 2 3 4 1 1 3 3 2 2 3119 5 2 3225 2474 153 2 6 3 3 25 4 6 5 4 4 1 3 4 11 994 2 4 3 2 5 4 8 2560 4 5 0 4 2 0 2 4 0 5 1470 1014 1 3 5 2463 7 0 2 2 6 4 9 2 5 2 3919 4 4 4 3 2482 4 3467 3 5 5112 0 1 3 1 7 4 2 0 2 3 4 21 9 3 0 4 4 1490 2 1 1 3 2481 2 1 16 8 3 6 1980 5 0 2483 3 1982 6 1 2 2 1 2 8 1 3 3 4 4 5 1 18 4 241 2 4 2 1 3 1492 4 5 0 
