
*** ChampSim Multicore Out-of-Order Simulator ***

Warmup Instructions: 50000000
Simulation Instructions: 50000000
Number of CPUs: 1
LLC sets: 2048
LLC ways: 16
Off-chip DRAM Size: 4096 MB Channels: 1 Width: 64-bit Data Rate: 6400 MT/s
CPU 0 runs ./micro_traces/srv305.trace.gz
.gz
ITLB has LRU replacement policy
DTLB has LRU replacement policy
STLB has LRU replacement policy
FDIP Prefetcher at L1I
L1I has LRU replacement policy
L1D has LRU replacement policy
Initialize SRRIP state for L2C
Initialize DRRIP state for LLC
Heartbeat_Variant_0 : 1342 0.327637 per_variant_size: 0 1342 0 0 0 0 0 0 0 
Heartbeat_Variant_1 : 1096 0.267578 per_variant_size: 0 340 756 0 0 0 0 0 0 
Heartbeat_Variant_2 : 1001 0.244385 per_variant_size: 0 247 204 171 379 0 0 0 0 
Heartbeat_Variant_3 : 0 0 per_variant_size: 0 0 0 0 0 0 0 0 0 
Heartbeat_Variant_0_evicts 0 : 5583 1 : 3 2 : 3 3 : 0 
Heartbeat_Variant_1_evicts 0 : 3 1 : 0 2 : 196 3 : 0 
Heartbeat_Variant_2_evicts 0 : 3 1 : 199 2 : 0 3 : 0 
Heartbeat_Variant_3_evicts 0 : 0 1 : 0 2 : 0 3 : 0 
Heartbeat CPU 0 instructions: 10000000 cycles: 2797171 heartbeat IPC: 3.57504 cumulative IPC: 3.57504 (Simulation time: 0 hr 2 min 16 sec) 
Heartbeat_Variant_0 : 1376 0.335938 per_variant_size: 0 1376 0 0 0 0 0 0 0 
Heartbeat_Variant_1 : 1131 0.276123 per_variant_size: 0 332 799 0 0 0 0 0 0 
Heartbeat_Variant_2 : 1040 0.253906 per_variant_size: 0 266 196 167 411 0 0 0 0 
Heartbeat_Variant_3 : 0 0 per_variant_size: 0 0 0 0 0 0 0 0 0 
Heartbeat_Variant_0_evicts 0 : 5514 1 : 6 2 : 5 3 : 0 
Heartbeat_Variant_1_evicts 0 : 4 1 : 0 2 : 196 3 : 0 
Heartbeat_Variant_2_evicts 0 : 2 1 : 197 2 : 0 3 : 0 
Heartbeat_Variant_3_evicts 0 : 0 1 : 0 2 : 0 3 : 0 
Heartbeat CPU 0 instructions: 20000002 cycles: 5594743 heartbeat IPC: 3.57453 cumulative IPC: 3.57478 (Simulation time: 0 hr 4 min 35 sec) 
Heartbeat_Variant_0 : 1379 0.33667 per_variant_size: 0 1379 0 0 0 0 0 0 0 
Heartbeat_Variant_1 : 1131 0.276123 per_variant_size: 0 330 801 0 0 0 0 0 0 
Heartbeat_Variant_2 : 1043 0.254639 per_variant_size: 0 268 196 170 409 0 0 0 0 
Heartbeat_Variant_3 : 0 0 per_variant_size: 0 0 0 0 0 0 0 0 0 
Heartbeat_Variant_0_evicts 0 : 5505 1 : 2 2 : 0 3 : 0 
Heartbeat_Variant_1_evicts 0 : 0 1 : 0 2 : 194 3 : 0 
Heartbeat_Variant_2_evicts 0 : 1 1 : 194 2 : 0 3 : 0 
Heartbeat_Variant_3_evicts 0 : 0 1 : 0 2 : 0 3 : 0 
Heartbeat CPU 0 instructions: 30000000 cycles: 8389671 heartbeat IPC: 3.57791 cumulative IPC: 3.57583 (Simulation time: 0 hr 6 min 22 sec) 
Heartbeat_Variant_0 : 1380 0.336914 per_variant_size: 0 1380 0 0 0 0 0 0 0 
Heartbeat_Variant_1 : 1131 0.276123 per_variant_size: 0 329 802 0 0 0 0 0 0 
Heartbeat_Variant_2 : 1042 0.254395 per_variant_size: 0 266 198 172 406 0 0 0 0 
Heartbeat_Variant_3 : 0 0 per_variant_size: 0 0 0 0 0 0 0 0 0 
Heartbeat_Variant_0_evicts 0 : 5588 1 : 1 2 : 1 3 : 0 
Heartbeat_Variant_1_evicts 0 : 1 1 : 0 2 : 197 3 : 0 
Heartbeat_Variant_2_evicts 0 : 0 1 : 197 2 : 0 3 : 0 
Heartbeat_Variant_3_evicts 0 : 0 1 : 0 2 : 0 3 : 0 
Heartbeat CPU 0 instructions: 40000002 cycles: 11186064 heartbeat IPC: 3.57604 cumulative IPC: 3.57588 (Simulation time: 0 hr 8 min 16 sec) 
Heartbeat_Variant_0 : 1380 0.336914 per_variant_size: 0 1380 0 0 0 0 0 0 0 
Heartbeat_Variant_1 : 1133 0.276611 per_variant_size: 0 327 806 0 0 0 0 0 0 
Heartbeat_Variant_2 : 1043 0.254639 per_variant_size: 0 266 199 164 414 0 0 0 0 
Heartbeat_Variant_3 : 0 0 per_variant_size: 0 0 0 0 0 0 0 0 0 
Heartbeat_Variant_0_evicts 0 : 5532 1 : 0 2 : 0 3 : 0 
Heartbeat_Variant_1_evicts 0 : 0 1 : 0 2 : 195 3 : 0 
Heartbeat_Variant_2_evicts 0 : 0 1 : 195 2 : 0 3 : 0 
Heartbeat_Variant_3_evicts 0 : 0 1 : 0 2 : 0 3 : 0 
Heartbeat CPU 0 instructions: 50000002 cycles: 13983358 heartbeat IPC: 3.57488 cumulative IPC: 3.57568 (Simulation time: 0 hr 10 min 8 sec) 

Warmup complete CPU 0 instructions: 50000002 cycles: 13983358 (Simulation time: 0 hr 10 min 8 sec) 

Cycle: 20000000 FTQ IN: 58343560 FTQ occupancy: 19.9047 DECODE IN: 58343487 DECODE occupancy: 51.949 ROB IN: 58343427 ROB occupancy: 313.989 ROB OUT: 58343075
Heartbeat_Variant_0 : 1380 0.336914 per_variant_size: 0 1380 0 0 0 0 0 0 0 
Heartbeat_Variant_1 : 1133 0.276611 per_variant_size: 0 338 795 0 0 0 0 0 0 
Heartbeat_Variant_2 : 1045 0.255127 per_variant_size: 0 268 198 180 399 0 0 0 0 
Heartbeat_Variant_3 : 0 0 per_variant_size: 0 0 0 0 0 0 0 0 0 
Heartbeat_Variant_0_evicts 0 : 5546 1 : 0 2 : 0 3 : 0 
Heartbeat_Variant_1_evicts 0 : 0 1 : 0 2 : 193 3 : 0 
Heartbeat_Variant_2_evicts 0 : 0 1 : 194 2 : 0 3 : 0 
Heartbeat_Variant_3_evicts 0 : 0 1 : 0 2 : 0 3 : 0 
Heartbeat CPU 0 instructions: 60000002 cycles: 21274950 heartbeat IPC: 1.37144 cumulative IPC: 1.37144 (Simulation time: 0 hr 12 min 25 sec) 
Heartbeat_Variant_0 : 1463 0.357178 per_variant_size: 0 1463 0 0 0 0 0 0 0 
Heartbeat_Variant_1 : 1244 0.303711 per_variant_size: 0 336 908 0 0 0 0 0 0 
Heartbeat_Variant_2 : 1099 0.268311 per_variant_size: 0 278 183 185 453 0 0 0 0 
Heartbeat_Variant_3 : 0 0 per_variant_size: 0 0 0 0 0 0 0 0 0 
Heartbeat_Variant_0_evicts 0 : 5599 1 : 19 2 : 14 3 : 0 
Heartbeat_Variant_1_evicts 0 : 19 1 : 0 2 : 214 3 : 0 
Heartbeat_Variant_2_evicts 0 : 16 1 : 202 2 : 0 3 : 0 
Heartbeat_Variant_3_evicts 0 : 0 1 : 0 2 : 0 3 : 0 
Heartbeat CPU 0 instructions: 70000000 cycles: 28648139 heartbeat IPC: 1.35626 cumulative IPC: 1.36381 (Simulation time: 0 hr 14 min 39 sec) 
Cycle: 30000000 FTQ IN: 13533314 FTQ occupancy: 12.736 DECODE IN: 13533284 DECODE occupancy: 32.6333 ROB IN: 13533284 ROB occupancy: 230.294 ROB OUT: 13533288
Heartbeat_Variant_0 : 1471 0.359131 per_variant_size: 0 1471 0 0 0 0 0 0 0 
Heartbeat_Variant_1 : 1257 0.306885 per_variant_size: 0 332 925 0 0 0 0 0 0 
Heartbeat_Variant_2 : 1109 0.270752 per_variant_size: 0 278 187 184 460 0 0 0 0 
Heartbeat_Variant_3 : 0 0 per_variant_size: 0 0 0 0 0 0 0 0 0 
Heartbeat_Variant_0_evicts 0 : 5676 1 : 4 2 : 3 3 : 0 
Heartbeat_Variant_1_evicts 0 : 5 1 : 0 2 : 197 3 : 0 
Heartbeat_Variant_2_evicts 0 : 4 1 : 199 2 : 0 3 : 0 
Heartbeat_Variant_3_evicts 0 : 0 1 : 0 2 : 0 3 : 0 
Heartbeat CPU 0 instructions: 80000000 cycles: 35882327 heartbeat IPC: 1.38233 cumulative IPC: 1.36993 (Simulation time: 0 hr 17 min 1 sec) 
Cycle: 40000000 FTQ IN: 13738520 FTQ occupancy: 12.8457 DECODE IN: 13738562 DECODE occupancy: 32.8632 ROB IN: 13738562 ROB occupancy: 230.816 ROB OUT: 13738764
Heartbeat_Variant_0 : 1473 0.359619 per_variant_size: 0 1473 0 0 0 0 0 0 0 
Heartbeat_Variant_1 : 1258 0.307129 per_variant_size: 0 330 928 0 0 0 0 0 0 
Heartbeat_Variant_2 : 1110 0.270996 per_variant_size: 0 282 180 177 471 0 0 0 0 
Heartbeat_Variant_3 : 0 0 per_variant_size: 0 0 0 0 0 0 0 0 0 
Heartbeat_Variant_0_evicts 0 : 5556 1 : 1 2 : 3 3 : 0 
Heartbeat_Variant_1_evicts 0 : 1 1 : 0 2 : 197 3 : 0 
Heartbeat_Variant_2_evicts 0 : 2 1 : 197 2 : 0 3 : 0 
Heartbeat_Variant_3_evicts 0 : 0 1 : 0 2 : 0 3 : 0 
Heartbeat CPU 0 instructions: 90000002 cycles: 43153503 heartbeat IPC: 1.37529 cumulative IPC: 1.37127 (Simulation time: 0 hr 19 min 34 sec) 
Cycle: 50000000 FTQ IN: 13873966 FTQ occupancy: 12.8367 DECODE IN: 13873901 DECODE occupancy: 33.1115 ROB IN: 13873901 ROB occupancy: 232.942 ROB OUT: 13873695
Heartbeat_Variant_0 : 1484 0.362305 per_variant_size: 0 1484 0 0 0 0 0 0 0 
Heartbeat_Variant_1 : 1265 0.308838 per_variant_size: 0 332 933 0 0 0 0 0 0 
Heartbeat_Variant_2 : 1110 0.270996 per_variant_size: 0 282 179 178 471 0 0 0 0 
Heartbeat_Variant_3 : 0 0 per_variant_size: 0 0 0 0 0 0 0 0 0 
Heartbeat_Variant_0_evicts 0 : 5653 1 : 3 2 : 2 3 : 0 
Heartbeat_Variant_1_evicts 0 : 1 1 : 0 2 : 200 3 : 0 
Heartbeat_Variant_2_evicts 0 : 3 1 : 197 2 : 0 3 : 0 
Heartbeat_Variant_3_evicts 0 : 0 1 : 0 2 : 0 3 : 0 
Heartbeat CPU 0 instructions: 100000003 cycles: 50365508 heartbeat IPC: 1.38658 cumulative IPC: 1.3743 (Simulation time: 0 hr 21 min 48 sec) 
Finished CPU 0 instructions: 50000001 cycles: 36382150 cumulative IPC: 1.3743 (Simulation time: 0 hr 21 min 48 sec) 

ChampSim completed all CPUs

Region of Interest Statistics

CPU 0 cumulative IPC: 1.3743 instructions: 50000001 cycles: 36382150
 Fetch stage stalled: 54.3449  Sim cycles: 36382150 fetch stall cycle: 19771842
 Empty decode stage: 36.5339  Sim cycles: 36382150 fetch stall cycle: 13291801
ITLB TOTAL     ACCESS:    5873637  HIT:    5379900  MISS:     493737  HIT %:     91.594  MISS %:    8.40598   MPKI: 9.87474
ITLB LOAD TRANSLATION INSTRUCTION	ACCESS:    5753000  HIT:    5259263  MISS:     493737  HIT %:    91.4177  MISS %:    8.58225  MPKI: 9.87474
ITLB TRANSLATION FROM L1D PREFETCHER INSTRUCTION	ACCESS:     120637  HIT:     120637  MISS:          0  HIT %:        100  MISS %:          0  MPKI: 0

ITLB AVERAGE MISS LATENCY: 9.06387 cycles
ITLB RQ	ACCESS:    8007562	FORWARD:          0	MERGED:    1686089	TO_CACHE:    6321473

DTLB TOTAL     ACCESS:    8982204  HIT:    8513779  MISS:     468425  HIT %:     94.785  MISS %:    5.21503   MPKI: 9.3685
DTLB LOAD TRANSLATION DATA	ACCESS:    8982204  HIT:    8513779  MISS:     468425  HIT %:     94.785  MISS %:    5.21503  MPKI: 9.3685

DTLB AVERAGE MISS LATENCY: 9.35946 cycles
DTLB RQ	ACCESS:   13351440	FORWARD:          0	MERGED:    4332961	TO_CACHE:    9018479

STLB TOTAL     ACCESS:    1209965  HIT:    1207842  MISS:       2123  HIT %:    99.8245  MISS %:    0.17546   MPKI: 0.04246
STLB LOAD TRANSLATION INSTRUCTION	ACCESS:     493737  HIT:     493460  MISS:        277  HIT %:    99.9439  MISS %:  0.0561027  MPKI: 0.00554
STLB LOAD TRANSLATION DATA	ACCESS:     468423  HIT:     466610  MISS:       1813  HIT %:     99.613  MISS %:   0.387043  MPKI: 0.03626
STLB TRANSLATION FROM L1D PREFETCHER DATA	ACCESS:     247805  HIT:     247772  MISS:         33  HIT %:    99.9867  MISS %:  0.0133169  MPKI: 0.00066

STLB AVERAGE MISS LATENCY: 79.6868 cycles
STLB RQ	ACCESS:    1330139	FORWARD:          0	MERGED:     120134	TO_CACHE:    1210005

STLB Hit, L1D data hit: 0
STLB Hit, L2C data hit: 0
STLB Hit, LLC data hit: 0
STLB Hit, LLC data miss: 0
STLB STLB hints to L2: 0
L1D TOTAL     ACCESS:   13097870  HIT:   11980353  MISS:    1117517  HIT %:    91.4679  MISS %:    8.53205   MPKI: 22.3503
L1D LOAD DATA	ACCESS:    6565750  HIT:    5828002  MISS:     737748  HIT %:    88.7637  MISS %:    11.2363  MPKI: 14.755
L1D RFO DATA	ACCESS:    6205179  HIT:    5919197  MISS:     285982  HIT %:    95.3912  MISS %:    4.60876  MPKI: 5.71964
L1D PREFETCH DATA	ACCESS:     326941  HIT:     233154  MISS:      93787  HIT %:    71.3138  MISS %:    28.6862  MPKI: 1.87574

L1D PREFETCH  REQUESTED:     736311  ISSUED:     736311  USEFUL:      33635  USELESS:      68029
L1D USEFUL LOAD PREFETCHES:      33635 PREFETCH ISSUED TO LOWER LEVEL:     101719  ACCURACY: 33.0666
 TIMELY PREFETCHES:      33635 LATE PREFETCHES: 7899 DROPPED PREFETCHES: 12
L1D AVERAGE MISS LATENCY: 224411 cycles
L1D RQ	ACCESS:   10694851	FORWARD:          0	MERGED:    3930329	TO_CACHE:    6601217
L1D WQ	ACCESS:    6946538	FORWARD:     163662	MERGED:     196315	TO_CACHE:    6750223
L1D PQ	ACCESS:     368334	FORWARD:          0	MERGED:          0	TO_CACHE:     367977

L1D UNIQUE REGIONS ACCESSED: 0
L1D REGIONS CONFLICTS: 0
L1D Cross Page Prefetch Requests: 6826
L1D Same Page Prefetch Requests: 742135
L1D ROI Sum of L1D PQ occupancy: 4675084
L1D PREFETCHES PUSHED FROM L2C: 0
L1I TOTAL     ACCESS:    7178109  HIT:    4415665  MISS:    2762444  HIT %:    61.5157  MISS %:    38.4843   MPKI: 55.2489
L1I LOAD INSTRUCTION	ACCESS:    6511242  HIT:    3748798  MISS:    2762444  HIT %:    57.5742  MISS %:    42.4258  MPKI: 55.2489
L1I PREFETCH INSTRUCTION	ACCESS:     666867  HIT:     666867  MISS:          0  HIT %:        100  MISS %:          0  MPKI: 0

L1I PREFETCH  REQUESTED:    1597777  ISSUED:    1597777  USEFUL:          0  USELESS:          0
L1I USEFUL LOAD PREFETCHES:          0 PREFETCH ISSUED TO LOWER LEVEL:          0  ACCURACY: -nan
 TIMELY PREFETCHES:          0 LATE PREFETCHES: 0 DROPPED PREFETCHES: 0
L1I AVERAGE MISS LATENCY: 17.5308 cycles
L1I RQ	ACCESS:    9505847	FORWARD:          0	MERGED:    2668012	TO_CACHE:    6837835
L1I PQ	ACCESS:    1597777	FORWARD:          0	MERGED:     428050	TO_CACHE:    1169727

L1BTB TOTAL     ACCESS:    5671869  HIT:    2042992  MISS:    3628877  HIT %:    36.0197  MISS %:    63.9803   MPKI: 72.5775
L1BTB BRANCH_DIRECT_JUMP	ACCESS:     549278  HIT:     145257  MISS:     404021	AVERAGE STALL: 50.6026
L1BTB BRANCH_INDIRECT	ACCESS:     183225  HIT:      66171  MISS:     117054	AVERAGE STALL: 100.999
L1BTB BRANCH_CONDITIONAL	ACCESS:    2709090  HIT:    1415325  MISS:    1293765	AVERAGE STALL: 58.6283
L1BTB BRANCH_DIRECT_CALL	ACCESS:     943789  HIT:     105537  MISS:     838252	AVERAGE STALL: 55.7699
L1BTB BRANCH_INDIRECT_CALL	ACCESS:     171349  HIT:      21061  MISS:     150288	AVERAGE STALL: 135.045
L1BTB BRANCH_RETURN	ACCESS:    1115138  HIT:     289641  MISS:     825497	AVERAGE STALL: 48.6306
L1BTB BRANCH_OTHER ACCESS:          0  HIT:          0  MISS:          0	AVERAGE STALL: -nan
L1BTB TOTAL ROB OCCUPANCY AT BTB MISS: 3.02647

L2BTB TOTAL     ACCESS:    3603497  HIT:    3531410  MISS:      72087  HIT %:    97.9995  MISS %:    2.00047   MPKI: 1.44174
L2BTB BRANCH_DIRECT_JUMP	ACCESS:     399859  HIT:     396144  MISS:       3715	AVERAGE STALL: 50.6026
L2BTB BRANCH_INDIRECT	ACCESS:     106765  HIT:     104176  MISS:       2589	AVERAGE STALL: 100.999
L2BTB BRANCH_CONDITIONAL	ACCESS:    1293765  HIT:    1286137  MISS:       7628	AVERAGE STALL: 58.6283
L2BTB BRANCH_DIRECT_CALL	ACCESS:     838252  HIT:     836890  MISS:       1362	AVERAGE STALL: 55.7699
L2BTB BRANCH_INDIRECT_CALL	ACCESS:     140759  HIT:     130631  MISS:      10128	AVERAGE STALL: 135.045
L2BTB BRANCH_RETURN	ACCESS:     824097  HIT:     777432  MISS:      46665	AVERAGE STALL: 48.6306
L2BTB BRANCH_OTHER ACCESS:          0  HIT:          0  MISS:          0	AVERAGE STALL: -nan
L2BTB TOTAL ROB OCCUPANCY AT BTB MISS: 152.353

L2C TOTAL     ACCESS:    4493517  HIT:    3977663  MISS:     515854  HIT %:      88.52  MISS %:      11.48   MPKI: 10.3171
L2C LOAD INSTRUCTION	ACCESS:    2762445  HIT:    2473942  MISS:     288503  HIT %:    89.5562  MISS %:    10.4438  MPKI: 5.77006
L2C LOAD TRANSLATION INSTRUCTION	ACCESS:        325  HIT:         82  MISS:        243  HIT %:    25.2308  MISS %:    74.7692  MPKI: 0.00486
L2C LOAD DATA	ACCESS:     729822  HIT:     646410  MISS:      83412  HIT %:    88.5709  MISS %:    11.4291  MPKI: 1.66824
L2C RFO DATA	ACCESS:     285919  HIT:     235267  MISS:      50652  HIT %:    82.2845  MISS %:    17.7155  MPKI: 1.01304
L2C PREFETCH DATA	ACCESS:     191209  HIT:     112380  MISS:      78829  HIT %:    58.7734  MISS %:    41.2266  MPKI: 1.57658
L2C WRITEBACK DATA	ACCESS:     521828  HIT:     509091  MISS:      12737  HIT %:    97.5592  MISS %:    2.44084  MPKI: 0.25474
L2C LOAD TRANSLATION DATA	ACCESS:       1913  HIT:        453  MISS:       1460  HIT %:    23.6801  MISS %:    76.3199  MPKI: 0.0292
L2C TRANSLATION FROM L1D PREFETCHER DATA	ACCESS:         56  HIT:         38  MISS:         18  HIT %:    67.8571  MISS %:    32.1429  MPKI: 0.00036

L2C PREFETCH  REQUESTED:      97200  ISSUED:      97200  USEFUL:       8676  USELESS:      70613
L2C USEFUL LOAD PREFETCHES:       8676 PREFETCH ISSUED TO LOWER LEVEL:      79138  ACCURACY: 10.9631
 TIMELY PREFETCHES:       8676 LATE PREFETCHES: 309 DROPPED PREFETCHES: 0
L2C AVERAGE MISS LATENCY: 38.0483 cycles
L2C RQ	ACCESS:    3780538	FORWARD:          0	MERGED:          0	TO_CACHE:    3780482
L2C WQ	ACCESS:     521828	FORWARD:         57	MERGED:          0	TO_CACHE:     521828
L2C PQ	ACCESS:     198919	FORWARD:          0	MERGED:       3437	TO_CACHE:     195481

L2C Dense regions hint from L2: 0
PSCL5 TOTAL     ACCESS:       4276  HIT:       2138  MISS:       2138  HIT %:         50  MISS %:         50   MPKI: 0.04276
PSCL5 LOAD TRANSLATION INSTRUCTION	ACCESS:       4166  HIT:       2083  MISS:       2083  HIT %:         50  MISS %:         50  MPKI: 0.04166
PSCL5 TRANSLATION FROM L1D PREFETCHER INSTRUCTION	ACCESS:        110  HIT:         55  MISS:         55  HIT %:         50  MISS %:         50  MPKI: 0.0011


PSCL4 TOTAL     ACCESS:       4031  HIT:       2007  MISS:       2024  HIT %:    49.7891  MISS %:    50.2109   MPKI: 0.04048
PSCL4 LOAD TRANSLATION INSTRUCTION	ACCESS:       3263  HIT:       1953  MISS:       1310  HIT %:    59.8529  MISS %:    40.1471  MPKI: 0.0262
PSCL4 TRANSLATION FROM L1D PREFETCHER INSTRUCTION	ACCESS:         90  HIT:         54  MISS:         36  HIT %:         60  MISS %:         40  MPKI: 0.00072
PSCL4 LOAD TRANSLATION DATA	ACCESS:        660  HIT:          0  MISS:        660  HIT %:          0  MISS %:        100  MPKI: 0.0132
PSCL4 TRANSLATION FROM L1D PREFETCHER DATA	ACCESS:         18  HIT:          0  MISS:         18  HIT %:          0  MISS %:        100  MPKI: 0.00036


PSCL3 TOTAL     ACCESS:       4125  HIT:       2054  MISS:       2071  HIT %:    49.7939  MISS %:    50.2061   MPKI: 0.04142
PSCL3 LOAD TRANSLATION INSTRUCTION	ACCESS:       3310  HIT:       2000  MISS:       1310  HIT %:     60.423  MISS %:     39.577  MPKI: 0.0262
PSCL3 TRANSLATION FROM L1D PREFETCHER INSTRUCTION	ACCESS:         90  HIT:         54  MISS:         36  HIT %:         60  MISS %:         40  MPKI: 0.00072
PSCL3 LOAD TRANSLATION DATA	ACCESS:        707  HIT:          0  MISS:        707  HIT %:          0  MISS %:        100  MPKI: 0.01414
PSCL3 TRANSLATION FROM L1D PREFETCHER DATA	ACCESS:         18  HIT:          0  MISS:         18  HIT %:          0  MISS %:        100  MPKI: 0.00036


PSCL2 TOTAL     ACCESS:       4148  HIT:       2010  MISS:       2138  HIT %:    48.4571  MISS %:    51.5429   MPKI: 0.04276
PSCL2 LOAD TRANSLATION INSTRUCTION	ACCESS:       2240  HIT:       1956  MISS:        284  HIT %:    87.3214  MISS %:    12.6786  MPKI: 0.00568
PSCL2 TRANSLATION FROM L1D PREFETCHER INSTRUCTION	ACCESS:         54  HIT:         54  MISS:          0  HIT %:        100  MISS %:          0  MPKI: 0
PSCL2 LOAD TRANSLATION DATA	ACCESS:       1800  HIT:          0  MISS:       1800  HIT %:          0  MISS %:        100  MPKI: 0.036
PSCL2 TRANSLATION FROM L1D PREFETCHER DATA	ACCESS:         54  HIT:          0  MISS:         54  HIT %:          0  MISS %:        100  MPKI: 0.00108


LLC TOTAL     ACCESS:     576866  HIT:     547876  MISS:      28990  HIT %:    94.9746  MISS %:    5.02543   MPKI: 0.5798
LLC LOAD INSTRUCTION	ACCESS:     288504  HIT:     287360  MISS:       1144  HIT %:    99.6035  MISS %:   0.396528  MPKI: 0.02288
LLC LOAD TRANSLATION INSTRUCTION	ACCESS:        243  HIT:        205  MISS:         38  HIT %:    84.3621  MISS %:    15.6379  MPKI: 0.00076
LLC LOAD DATA	ACCESS:      83110  HIT:      79348  MISS:       3762  HIT %:    95.4735  MISS %:    4.52653  MPKI: 0.07524
LLC RFO DATA	ACCESS:      50636  HIT:      36968  MISS:      13668  HIT %:    73.0073  MISS %:    26.9927  MPKI: 0.27336
LLC PREFETCH DATA	ACCESS:      79138  HIT:      69223  MISS:       9915  HIT %:    87.4713  MISS %:    12.5287  MPKI: 0.1983
LLC WRITEBACK DATA	ACCESS:      73757  HIT:      73396  MISS:        361  HIT %:    99.5106  MISS %:   0.489445  MPKI: 0.00722
LLC LOAD TRANSLATION DATA	ACCESS:       1460  HIT:       1358  MISS:        102  HIT %:    93.0137  MISS %:     6.9863  MPKI: 0.00204
LLC TRANSLATION FROM L1D PREFETCHER DATA	ACCESS:         18  HIT:         18  MISS:          0  HIT %:        100  MISS %:          0  MPKI: 0

LLC AVERAGE MISS LATENCY: 154.756 cycles
LLC RQ	ACCESS:     423981	FORWARD:          0	MERGED:          0	TO_CACHE:     423972
LLC WQ	ACCESS:      73757	FORWARD:          9	MERGED:          0	TO_CACHE:      73757
LLC PQ	ACCESS:      79138	FORWARD:          0	MERGED:          0	TO_CACHE:      79138

LLC Dense regions hint to LLC: 0

RAW hits: 1941633
Loads Generated: 12636484
Loads sent to L1D: 10694851
Stores Generated: 6946527
Stores sent to L1D: 6946538
Major fault: 0 Minor fault: 2576
Allocated PAGES: 2576

stream: 
stream:times selected: 1176537
stream:pref_filled: 121826
stream:pref_useful: 24418
stream:pref_late: 6973
stream:misses: 7990
stream:misses_by_poll: 0

CS: 
CS:times selected: 176669
CS:pref_filled: 59267
CS:pref_useful: 35871
CS:pref_late: 6875
CS:misses: 15835
CS:misses_by_poll: 5

CPLX: 
CPLX:times selected: 998763
CPLX:pref_filled: 19562
CPLX:pref_useful: 4570
CPLX:pref_late: 3245
CPLX:misses: 94079
CPLX:misses_by_poll: 0

NL_L1: 
NL:times selected: 20322
NL:pref_filled: 648
NL:pref_useful: 254
NL:pref_late: 383
NL:misses: 1771
NL:misses_by_poll: 0

total selections: 2372291
total_filled: 93787
total_useful: 33635
total_late: 18895
total_polluted: 5
total_misses_after_warmup: 773215
conflicts: 5532455

test: 113914

DRAM Statistics
 CHANNEL 0
 RQ ROW_BUFFER_HIT:      10733  ROW_BUFFER_MISS:      17891
 DBUS_CONGESTED:         10
 WQ ROW_BUFFER_HIT:       1447  ROW_BUFFER_MISS:      11929  FULL:          0

 AVG_CONGESTED_CYCLE: 4

CPU 0 Branch Prediction Accuracy: 99.8033% MPKI: 0.35992 Average ROB Occupancy at Mispredict: 170.714
Branch types
NOT_BRANCH: 40851978 81.704%
BRANCH_DIRECT_JUMP: 549278 1.09856%
BRANCH_INDIRECT: 183225 0.36645%
BRANCH_CONDITIONAL: 6185171 12.3703%
BRANCH_DIRECT_CALL: 943789 1.88758%
BRANCH_INDIRECT_CALL: 171349 0.342698%
BRANCH_RETURN: 1115138 2.23028%
BRANCH_OTHER: 0 0%

DRAM PAGES: 1048576
Allocated PAGES: 2576
Average_ROB_Occupancy: 232.839
Average_Decode_Occupancy: 32.8773
Average_FTQ_Occupancy: 12.7815
Indirect max targets: 14 Average targets: 1.17516
Branch_type:  BRANCH_DIRECT_JUMP:  Count Percentage: 3.73144 6.08574 3.66643 9.38557 4.00258 3.08011 1.22853 68.8196 
Branch_type:  BRANCH_INDIRECT:  Count Percentage: 11.7584 3.45268 0.656286 8.00236 1.3402 1.19959 1.07703 72.5134 
Branch_type:  BRANCH_CONDITIONAL:  Count Percentage: 21.5227 2.99151 1.75236 6.12265 2.21052 3.10563 0.98067 61.314 
Branch_type:  BRANCH_DIRECT_CALL:  Count Percentage: 0.772641 1.10778 1.42395 5.34647 3.06714 1.67947 0.764711 85.8378 
Branch_type:  BRANCH_INDIRECT_CALL:  Count Percentage: 9.57468 0.559346 3.00201 4.84747 0.908755 2.99502 0 78.1127 
Branch_type:  BRANCH_RETURN:  Count Percentage: 4.47244 0.70009 1.01847 6.86658 2.89635 4.51248 1.11101 78.4226 
Branch_type:  BRANCH_DIRECT_JUMP:  Total Count: 40928 66751 40215 102945 43902 33784 13475 754843 
Branch_type:  BRANCH_INDIRECT:  Total Count: 42982 12621 2399 29252 4899 4385 3937 265067 
Branch_type:  BRANCH_CONDITIONAL:  Total Count: 2660169 369745 216588 756749 273216 383850 121209 7578294 
Branch_type:  BRANCH_DIRECT_CALL:  Total Count: 14614 20953 26933 101125 58013 31766 14464 1623566 
Branch_type:  BRANCH_INDIRECT_CALL:  Total Count: 32883 1921 10310 16648 3121 10286 0 268268 
Branch_type:  BRANCH_RETURN:  Total Count: 99991 15652 22770 153517 64754 100886 24839 1753304 
Number of unique branch instructions: 10587
Upper 32 bits: 
aaaa
ffff
ffff0000
Unique upper 32 bits: 3
Unique upper 36 bits: 3
Unique upper 40 bits: 5
Unique upper 44 bits: 32
Unique upper 48 bits: 157
Variant_0 : 1484 0.362305
Variant_1 : 1265 0.308838
Variant_2 : 1110 0.270996
Variant_3 : 0 0
Offset_3 4374
Offset_4 255
Offset_5 474
Offset_6 530
Offset_7 628
Offset_8 578
Offset_9 512
Offset_10 415
Offset_11 337
Offset_12 305
Offset_13 239
Offset_14 242
Offset_15 198
Offset_16 221
Offset_17 163
Offset_18 146
Offset_19 256
Offset_20 141
Offset_21 235
Offset_22 405
Offset_23 241
Offset_24 346
Offset_25 117
Offset_47 94
Offset_64 3
decode_dispatch_called: 25156213 69.1444
Dispatch_width: 0 13513261 53.7174 37.1426
Dispatch_width: 1 918457 3.65101 2.52447
Dispatch_width: 2 792069 3.1486 2.17708
Dispatch_width: 3 487833 1.93921 1.34086
Dispatch_width: 4 5235820 20.8132 14.3912
Dispatch_width: 5 162011 0.64402 0.445304
Dispatch_width: 6 4046762 16.0865 11.1229
Empty_decode_cycles: 11225937 30.8556
ROB_full_cycles: 8350113 22.9511
Starvation_cycles_per_kilo_instr: 239.853
Starvation_cycles_per_kilo_instr_3: 185.874
Starvation_cycles_per_kilo_instr_0: 163.891
Branch_type_1  (3,1)  (4,7)  (5,38)  (6,72)  (7,124)  (8,148)  (9,135)  (10,109)  (11,74)  (12,47)  (13,12)  (14,2)  (15,3)  (16,4)  (18,1)  (19,5)  (20,2)  (21,1)  (22,3)  (23,2)  (24,10)  (25,12) 
Branch_type_2  (3,1)  (4,1)  (5,1)  (8,4)  (9,4)  (10,1)  (12,1)  (13,1)  (14,1)  (16,3)  (17,2)  (20,2)  (21,2)  (23,5)  (24,1)  (47,43) 
Branch_type_3  (3,4372)  (4,247)  (5,431)  (6,442)  (7,474)  (8,361)  (9,281)  (10,166)  (11,127)  (12,54)  (13,10)  (64,3) 
Branch_type_4  (6,3)  (7,8)  (8,26)  (9,54)  (10,66)  (11,70)  (12,112)  (13,101)  (14,109)  (15,94)  (16,97)  (17,75)  (18,62)  (19,123)  (20,72)  (21,124)  (22,211)  (23,136)  (24,202)  (25,101) 
Branch_type_5  (8,3)  (9,1)  (10,4)  (11,5)  (12,3)  (13,14)  (14,16)  (15,11)  (16,22)  (17,11)  (18,23)  (19,14)  (20,11)  (21,13)  (22,43)  (23,26)  (24,37) 
Branch_type_6  (5,4)  (6,13)  (7,22)  (8,36)  (9,37)  (10,69)  (11,61)  (12,88)  (13,101)  (14,114)  (15,90)  (16,95)  (17,75)  (18,60)  (19,114)  (20,54)  (21,95)  (22,148)  (23,72)  (24,96)  (25,4)  (47,51) 
Unique trigger count: 
Variant_0_evicts_0 : 0
Variant_0_evicts_1 : 0
Variant_0_evicts_2 : 0
Variant_0_evicts_3 : 0
Variant_1_evicts_0 : 0
Variant_1_evicts_1 : 0
Variant_1_evicts_2 : 0
Variant_1_evicts_3 : 0
Variant_2_evicts_0 : 0
Variant_2_evicts_1 : 0
Variant_2_evicts_2 : 0
Variant_2_evicts_3 : 0
Variant_3_evicts_0 : 0
Variant_3_evicts_1 : 0
Variant_3_evicts_2 : 0
Variant_3_evicts_3 : 0
BTB PER SET UNIQUE ADDR: 15 13 9 12 13 12 10 19 10 13 13 10 10 11 13 15 10 11 12 13 17 11 12 12 14 15 15 15 11 11 15 14 16 15 13 18 13 13 16 14 13 12 14 10 13 16 13 11 11 13 14 13 14 16 14 15 13 12 12 14 15 14 14 10 14 13 11 17 15 16 11 9 12 17 17 12 9 11 11 15 13 16 15 17 15 14 14 14 15 16 20 16 13 20 18 14 16 12 14 13 14 19 10 12 18 18 10 11 12 12 13 15 7 15 18 11 12 10 17 15 17 13 10 17 14 22 17 15 15 13 14 17 11 9 14 14 11 18 13 13 9 14 12 12 15 12 12 7 15 20 12 14 13 16 20 10 12 10 14 14 19 13 10 10 10 11 19 11 14 17 17 21 17 10 13 10 14 14 8 10 15 12 10 13 13 11 13 10 15 20 15 15 16 15 14 12 17 10 15 12 12 20 16 13 15 9 14 14 11 18 14 19 12 12 13 18 16 16 16 16 14 17 15 14 15 11 17 16 16 15 14 19 15 13 10 11 12 16 18 10 19 16 15 22 17 13 14 15 16 11 12 13 15 16 10 10 15 14 20 13 23 16 16 13 18 11 15 13 16 13 16 16 20 9 17 19 13 10 10 10 9 17 12 13 13 16 11 15 13 11 19 16 11 13 11 12 16 14 17 10 11 12 14 14 16 11 17 13 15 14 13 20 14 14 10 19 13 13 11 12 18 11 15 16 16 13 10 8 15 15 12 11 16 13 16 15 12 15 16 14 12 15 14 13 14 10 18 16 13 16 20 11 10 18 17 13 9 12 12 14 13 15 15 15 18 20 20 17 9 10 12 16 16 18 13 16 11 13 14 9 14 13 10 14 12 15 15 11 13 15 11 11 21 16 16 9 14 17 16 17 15 19 11 10 14 13 12 20 16 13 16 13 19 15 15 12 13 11 12 13 11 16 22 13 10 9 11 13 13 13 23 15 13 16 14 17 14 16 15 10 16 11 16 17 10 12 12 15 16 14 21 10 14 16 13 15 13 12 12 14 13 13 13 15 15 13 14 16 14 15 18 15 14 15 13 15 17 14 19 20 15 11 14 17 14 13 15 19 13 15 21 15 12 11 16 13 9 13 15 11 13 12 13 14 14 18 14 18 12 16 12 12 
BTB PER SET COUNT: 20 17 11 973 14 13 12 19 11 17 2479 1480 10 973 15 580 12 11 12 1217 500 12 14 14 15 17 2014 623 11 11 2480 978 976 1008 128 22 14 18 17 14 13 1996 1456 10 1071 778 16 79 12 13 19 55 19 17 17 16 16 13 14 19 22 17 18 12 20 976 11 24 19 47 12 11 13 1493 17 14 39 15 12 20 24 1468 26 22 17 20 14 2183 17 362 1017 2483 13 35 21 16 1015 50 14 24 17 1459 10 17 106 21 10 17 13 13 15 722 7 16 25 11 12 10 23 19 17 13 10 19 19 2323 28 20 1220 453 16 17 524 9 17 2001 13 19 17 223 9 15 16 12 17 7794 14 7 26 21 59 14 973 88 180 11 1273 11 17 977 972 16 13 970 14 1485 2187 19 17 20 18 756 551 12 13 13 530 798 8 10 19 14 10 15 16 11 14 63 16 981 16 2480 499 23 15 14 20 972 16 13 12 2309 16 13 17 299 494 17 2013 24 17 22 14 12 18 18 19 18 835 18 20 17 19 15 15 18 21 995 16 17 22 202 21 18 10 12 15 20 2963 10 20 987 15 22 20 13 14 23 21 1933 15 391 15 417 11 12 20 19 24 15 2967 2863 3487 24 1040 17 85 14 18 14 983 20 2194 1353 18 23 19 12 11 11 32 542 16 13 13 18 13 976 14 17 2010 2442 13 15 11 12 19 21 989 11 11 12 19 36 28 13 20 14 25 19 3919 2974 1046 14 14 24 980 14 17 12 72 17 721 20651 1059 13 12 12 15 15 12 15 18 23 16 281 22 17 16 18 12 715 977 15 15 10 1492 19 1496 23 24 12 10 28 26 15 378 20 13 16 14 145 17 16 20 3447 1241 17 9 11 2994 268 24 21 19 17 11 14 17 9 529 17 12 20 1487 17 500 11 20 19 11 12 373 16 22 9 14 983 18 18 17 859 15 12 14 20 15 984 19 21 16 14 31 15 677 13 14 13 17 143 11 20 2488 14743 10 10 11 19 14 19 2973 1490 13 21 978 21 17 19 17 11 16 12 22 1674 12 15 1004 20 987 20 364 10 15 17 13 17 13 12 18 2001 475 18 14 18 2050 17 1158 19 14 18 1491 23 21 676 19 16 3444 16 22 2337 2009 11 16 17 14 13 19 20 13 23 33 17 13 19 980 18 2894 818 17 12 14 13 14 15 18 23 18 29 19 23 14 12 
To predecode: 0
Predecoding something: 0
Predecode request dropped: 0
sizeofblock_0 0
sizeofblock_1 19472
sizeofblock_2 23201
sizeofblock_3 56878
sizeofblock_4 50105
sizeofblock_5 0
sizeofblock_6 0
sizeofblock_7 0
sizeofblock_8 0
Variant_0 Correct: 1619051 Incorrect: 0 Accuracy: 1
Variant_1 Correct: 2097996 Incorrect: 0 Accuracy: 1
Variant_2 Correct: 3641442 Incorrect: 1634 Accuracy: 0.999551
Variant_3 Correct: 0 Incorrect: 0 Accuracy: -nan
