
*** ChampSim Multicore Out-of-Order Simulator ***

Warmup Instructions: 50000000
Simulation Instructions: 50000000
Number of CPUs: 1
LLC sets: 2048
LLC ways: 16
Off-chip DRAM Size: 4096 MB Channels: 1 Width: 64-bit Data Rate: 6400 MT/s
CPU 0 runs ./micro_traces/srv392.trace.gz
.gz
ITLB has LRU replacement policy
DTLB has LRU replacement policy
STLB has LRU replacement policy
FDIP Prefetcher at L1I
L1I has LRU replacement policy
L1D has LRU replacement policy
Initialize SRRIP state for L2C
Initialize DRRIP state for LLC
Heartbeat_Variant_0 : 1335 0.325928 per_variant_size: 0 1335 0 0 0 0 0 0 0 
Heartbeat_Variant_1 : 1088 0.265625 per_variant_size: 0 339 749 0 0 0 0 0 0 
Heartbeat_Variant_2 : 998 0.243652 per_variant_size: 0 249 198 163 388 0 0 0 0 
Heartbeat_Variant_3 : 0 0 per_variant_size: 0 0 0 0 0 0 0 0 0 
Heartbeat_Variant_0_evicts 0 : 5438 1 : 8 2 : 2 3 : 0 
Heartbeat_Variant_1_evicts 0 : 4 1 : 0 2 : 193 3 : 0 
Heartbeat_Variant_2_evicts 0 : 1 1 : 193 2 : 0 3 : 0 
Heartbeat_Variant_3_evicts 0 : 0 1 : 0 2 : 0 3 : 0 
Heartbeat CPU 0 instructions: 10000000 cycles: 2797221 heartbeat IPC: 3.57498 cumulative IPC: 3.57498 (Simulation time: 0 hr 2 min 16 sec) 
Heartbeat_Variant_0 : 1335 0.325928 per_variant_size: 0 1335 0 0 0 0 0 0 0 
Heartbeat_Variant_1 : 1091 0.266357 per_variant_size: 0 341 750 0 0 0 0 0 0 
Heartbeat_Variant_2 : 998 0.243652 per_variant_size: 0 246 201 162 389 0 0 0 0 
Heartbeat_Variant_3 : 0 0 per_variant_size: 0 0 0 0 0 0 0 0 0 
Heartbeat_Variant_0_evicts 0 : 5550 1 : 0 2 : 0 3 : 0 
Heartbeat_Variant_1_evicts 0 : 0 1 : 0 2 : 196 3 : 0 
Heartbeat_Variant_2_evicts 0 : 0 1 : 195 2 : 0 3 : 0 
Heartbeat_Variant_3_evicts 0 : 0 1 : 0 2 : 0 3 : 0 
Heartbeat CPU 0 instructions: 20000002 cycles: 5593979 heartbeat IPC: 3.57557 cumulative IPC: 3.57527 (Simulation time: 0 hr 4 min 24 sec) 
Heartbeat_Variant_0 : 1401 0.342041 per_variant_size: 0 1401 0 0 0 0 0 0 0 
Heartbeat_Variant_1 : 1146 0.279785 per_variant_size: 0 341 805 0 0 0 0 0 0 
Heartbeat_Variant_2 : 1045 0.255127 per_variant_size: 0 246 213 164 422 0 0 0 0 
Heartbeat_Variant_3 : 0 0 per_variant_size: 0 0 0 0 0 0 0 0 0 
Heartbeat_Variant_0_evicts 0 : 5689 1 : 4 2 : 6 3 : 0 
Heartbeat_Variant_1_evicts 0 : 5 1 : 0 2 : 202 3 : 0 
Heartbeat_Variant_2_evicts 0 : 6 1 : 203 2 : 0 3 : 0 
Heartbeat_Variant_3_evicts 0 : 0 1 : 0 2 : 0 3 : 0 
Heartbeat CPU 0 instructions: 30000003 cycles: 8388344 heartbeat IPC: 3.57863 cumulative IPC: 3.57639 (Simulation time: 0 hr 6 min 35 sec) 
Heartbeat_Variant_0 : 1401 0.342041 per_variant_size: 0 1401 0 0 0 0 0 0 0 
Heartbeat_Variant_1 : 1147 0.280029 per_variant_size: 0 335 812 0 0 0 0 0 0 
Heartbeat_Variant_2 : 1050 0.256348 per_variant_size: 0 249 212 175 414 0 0 0 0 
Heartbeat_Variant_3 : 0 0 per_variant_size: 0 0 0 0 0 0 0 0 0 
Heartbeat_Variant_0_evicts 0 : 5564 1 : 0 2 : 0 3 : 0 
Heartbeat_Variant_1_evicts 0 : 1 1 : 0 2 : 195 3 : 0 
Heartbeat_Variant_2_evicts 0 : 1 1 : 196 2 : 0 3 : 0 
Heartbeat_Variant_3_evicts 0 : 0 1 : 0 2 : 0 3 : 0 
Heartbeat CPU 0 instructions: 40000003 cycles: 11184518 heartbeat IPC: 3.57632 cumulative IPC: 3.57637 (Simulation time: 0 hr 8 min 45 sec) 
Heartbeat_Variant_0 : 1405 0.343018 per_variant_size: 0 1405 0 0 0 0 0 0 0 
Heartbeat_Variant_1 : 1156 0.282227 per_variant_size: 0 336 820 0 0 0 0 0 0 
Heartbeat_Variant_2 : 1058 0.258301 per_variant_size: 0 254 212 178 414 0 0 0 0 
Heartbeat_Variant_3 : 0 0 per_variant_size: 0 0 0 0 0 0 0 0 0 
Heartbeat_Variant_0_evicts 0 : 5549 1 : 2 2 : 0 3 : 0 
Heartbeat_Variant_1_evicts 0 : 0 1 : 0 2 : 197 3 : 0 
Heartbeat_Variant_2_evicts 0 : 1 1 : 198 2 : 0 3 : 0 
Heartbeat_Variant_3_evicts 0 : 0 1 : 0 2 : 0 3 : 0 
Heartbeat CPU 0 instructions: 50000002 cycles: 13981813 heartbeat IPC: 3.57488 cumulative IPC: 3.57607 (Simulation time: 0 hr 10 min 46 sec) 

Warmup complete CPU 0 instructions: 50000002 cycles: 13981813 (Simulation time: 0 hr 10 min 46 sec) 

Cycle: 20000000 FTQ IN: 58367268 FTQ occupancy: 19.9134 DECODE IN: 58367235 DECODE occupancy: 51.9741 ROB IN: 58367207 ROB occupancy: 314.36 ROB OUT: 58367074
Heartbeat_Variant_0 : 1406 0.343262 per_variant_size: 0 1406 0 0 0 0 0 0 0 
Heartbeat_Variant_1 : 1164 0.28418 per_variant_size: 0 340 824 0 0 0 0 0 0 
Heartbeat_Variant_2 : 1062 0.259277 per_variant_size: 0 255 212 173 422 0 0 0 0 
Heartbeat_Variant_3 : 0 0 per_variant_size: 0 0 0 0 0 0 0 0 0 
Heartbeat_Variant_0_evicts 0 : 5602 1 : 1 2 : 0 3 : 0 
Heartbeat_Variant_1_evicts 0 : 2 1 : 0 2 : 196 3 : 0 
Heartbeat_Variant_2_evicts 0 : 1 1 : 197 2 : 0 3 : 0 
Heartbeat_Variant_3_evicts 0 : 0 1 : 0 2 : 0 3 : 0 
Heartbeat CPU 0 instructions: 60000003 cycles: 21179998 heartbeat IPC: 1.38924 cumulative IPC: 1.38924 (Simulation time: 0 hr 12 min 50 sec) 
Heartbeat_Variant_0 : 1406 0.343262 per_variant_size: 0 1406 0 0 0 0 0 0 0 
Heartbeat_Variant_1 : 1167 0.284912 per_variant_size: 0 346 821 0 0 0 0 0 0 
Heartbeat_Variant_2 : 1061 0.259033 per_variant_size: 0 254 212 171 424 0 0 0 0 
Heartbeat_Variant_3 : 0 0 per_variant_size: 0 0 0 0 0 0 0 0 0 
Heartbeat_Variant_0_evicts 0 : 5578 1 : 0 2 : 0 3 : 0 
Heartbeat_Variant_1_evicts 0 : 0 1 : 0 2 : 196 3 : 0 
Heartbeat_Variant_2_evicts 0 : 0 1 : 195 2 : 0 3 : 0 
Heartbeat_Variant_3_evicts 0 : 0 1 : 0 2 : 0 3 : 0 
Heartbeat CPU 0 instructions: 70000003 cycles: 28420660 heartbeat IPC: 1.38109 cumulative IPC: 1.38515 (Simulation time: 0 hr 15 min 3 sec) 
Cycle: 30000000 FTQ IN: 13804755 FTQ occupancy: 12.8711 DECODE IN: 13804751 DECODE occupancy: 33.2908 ROB IN: 13804719 ROB occupancy: 235.015 ROB OUT: 13804500
Heartbeat_Variant_0 : 1406 0.343262 per_variant_size: 0 1406 0 0 0 0 0 0 0 
Heartbeat_Variant_1 : 1169 0.2854 per_variant_size: 0 343 826 0 0 0 0 0 0 
Heartbeat_Variant_2 : 1060 0.258789 per_variant_size: 0 253 212 184 411 0 0 0 0 
Heartbeat_Variant_3 : 0 0 per_variant_size: 0 0 0 0 0 0 0 0 0 
Heartbeat_Variant_0_evicts 0 : 5587 1 : 0 2 : 0 3 : 0 
Heartbeat_Variant_1_evicts 0 : 0 1 : 0 2 : 196 3 : 0 
Heartbeat_Variant_2_evicts 0 : 0 1 : 195 2 : 0 3 : 0 
Heartbeat_Variant_3_evicts 0 : 0 1 : 0 2 : 0 3 : 0 
Heartbeat CPU 0 instructions: 80000001 cycles: 35619005 heartbeat IPC: 1.38921 cumulative IPC: 1.3865 (Simulation time: 0 hr 17 min 32 sec) 
Cycle: 40000000 FTQ IN: 13929106 FTQ occupancy: 12.8195 DECODE IN: 13929143 DECODE occupancy: 33.5134 ROB IN: 13929203 ROB occupancy: 236.347 ROB OUT: 13929532
Heartbeat_Variant_0 : 1406 0.343262 per_variant_size: 0 1406 0 0 0 0 0 0 0 
Heartbeat_Variant_1 : 1169 0.2854 per_variant_size: 0 343 826 0 0 0 0 0 0 
Heartbeat_Variant_2 : 1060 0.258789 per_variant_size: 0 252 212 166 430 0 0 0 0 
Heartbeat_Variant_3 : 0 0 per_variant_size: 0 0 0 0 0 0 0 0 0 
Heartbeat_Variant_0_evicts 0 : 5454 1 : 0 2 : 0 3 : 0 
Heartbeat_Variant_1_evicts 0 : 0 1 : 0 2 : 193 3 : 0 
Heartbeat_Variant_2_evicts 0 : 0 1 : 193 2 : 0 3 : 0 
Heartbeat_Variant_3_evicts 0 : 0 1 : 0 2 : 0 3 : 0 
Heartbeat CPU 0 instructions: 90000000 cycles: 42873473 heartbeat IPC: 1.37846 cumulative IPC: 1.38448 (Simulation time: 0 hr 19 min 45 sec) 
Cycle: 50000000 FTQ IN: 13780506 FTQ occupancy: 12.9302 DECODE IN: 13780362 DECODE occupancy: 33.5337 ROB IN: 13780302 ROB occupancy: 235.375 ROB OUT: 13780165
Heartbeat_Variant_0 : 1406 0.343262 per_variant_size: 0 1406 0 0 0 0 0 0 0 
Heartbeat_Variant_1 : 1169 0.2854 per_variant_size: 0 345 824 0 0 0 0 0 0 
Heartbeat_Variant_2 : 1062 0.259277 per_variant_size: 0 253 212 173 424 0 0 0 0 
Heartbeat_Variant_3 : 0 0 per_variant_size: 0 0 0 0 0 0 0 0 0 
Heartbeat_Variant_0_evicts 0 : 5566 1 : 0 2 : 0 3 : 0 
Heartbeat_Variant_1_evicts 0 : 0 1 : 0 2 : 193 3 : 0 
Heartbeat_Variant_2_evicts 0 : 0 1 : 193 2 : 0 3 : 0 
Heartbeat_Variant_3_evicts 0 : 0 1 : 0 2 : 0 3 : 0 
Heartbeat CPU 0 instructions: 100000001 cycles: 50085529 heartbeat IPC: 1.38657 cumulative IPC: 1.3849 (Simulation time: 0 hr 22 min 8 sec) 
Finished CPU 0 instructions: 50000003 cycles: 36103729 cumulative IPC: 1.3849 (Simulation time: 0 hr 22 min 8 sec) 

ChampSim completed all CPUs

Region of Interest Statistics

CPU 0 cumulative IPC: 1.3849 instructions: 50000003 cycles: 36103729
 Fetch stage stalled: 53.9487  Sim cycles: 36103729 fetch stall cycle: 19477497
 Empty decode stage: 35.9122  Sim cycles: 36103729 fetch stall cycle: 12965641
ITLB TOTAL     ACCESS:    5874467  HIT:    5378345  MISS:     496122  HIT %:    91.5546  MISS %:     8.4454   MPKI: 9.92244
ITLB LOAD TRANSLATION INSTRUCTION	ACCESS:    5756327  HIT:    5260205  MISS:     496122  HIT %:    91.3813  MISS %:    8.61873  MPKI: 9.92244
ITLB TRANSLATION FROM L1D PREFETCHER INSTRUCTION	ACCESS:     118140  HIT:     118140  MISS:          0  HIT %:        100  MISS %:          0  MPKI: 0

ITLB AVERAGE MISS LATENCY: 9.04796 cycles
ITLB RQ	ACCESS:    8010065	FORWARD:          0	MERGED:    1689614	TO_CACHE:    6320451

DTLB TOTAL     ACCESS:    8960917  HIT:    8486681  MISS:     474236  HIT %:    94.7077  MISS %:    5.29227   MPKI: 9.48472
DTLB LOAD TRANSLATION DATA	ACCESS:    8960917  HIT:    8486681  MISS:     474236  HIT %:    94.7077  MISS %:    5.29227  MPKI: 9.48472

DTLB AVERAGE MISS LATENCY: 9.31861 cycles
DTLB RQ	ACCESS:   13335846	FORWARD:          0	MERGED:    4337368	TO_CACHE:    8998478

STLB TOTAL     ACCESS:    1215897  HIT:    1213864  MISS:       2033  HIT %:    99.8328  MISS %:   0.167202   MPKI: 0.04066
STLB LOAD TRANSLATION INSTRUCTION	ACCESS:     496122  HIT:     495878  MISS:        244  HIT %:    99.9508  MISS %:  0.0491815  MPKI: 0.00488
STLB LOAD TRANSLATION DATA	ACCESS:     474235  HIT:     472481  MISS:       1754  HIT %:    99.6301  MISS %:   0.369859  MPKI: 0.03508
STLB TRANSLATION FROM L1D PREFETCHER DATA	ACCESS:     245540  HIT:     245505  MISS:         35  HIT %:    99.9857  MISS %:  0.0142543  MPKI: 0.0007

STLB AVERAGE MISS LATENCY: 70.6798 cycles
STLB RQ	ACCESS:    1336119	FORWARD:          0	MERGED:     120185	TO_CACHE:    1215934

STLB Hit, L1D data hit: 0
STLB Hit, L2C data hit: 0
STLB Hit, LLC data hit: 0
STLB Hit, LLC data miss: 0
STLB STLB hints to L2: 0
L1D TOTAL     ACCESS:   13082825  HIT:   11961978  MISS:    1120847  HIT %:    91.4327  MISS %:    8.56732   MPKI: 22.4169
L1D LOAD DATA	ACCESS:    6548158  HIT:    5808481  MISS:     739677  HIT %:     88.704  MISS %:     11.296  MPKI: 14.7935
L1D RFO DATA	ACCESS:    6209093  HIT:    5923298  MISS:     285795  HIT %:    95.3972  MISS %:    4.60285  MPKI: 5.7159
L1D PREFETCH DATA	ACCESS:     325574  HIT:     230199  MISS:      95375  HIT %:    70.7056  MISS %:    29.2944  MPKI: 1.9075

L1D PREFETCH  REQUESTED:     731942  ISSUED:     731942  USEFUL:      33931  USELESS:      68629
L1D USEFUL LOAD PREFETCHES:      33931 PREFETCH ISSUED TO LOWER LEVEL:     102647  ACCURACY: 33.056
 TIMELY PREFETCHES:      33931 LATE PREFETCHES: 7196 DROPPED PREFETCHES: 5
L1D AVERAGE MISS LATENCY: 208932 cycles
L1D RQ	ACCESS:   10679178	FORWARD:          0	MERGED:    3932185	TO_CACHE:    6582192
L1D WQ	ACCESS:    6949781	FORWARD:     165221	MERGED:     196127	TO_CACHE:    6753654
L1D PQ	ACCESS:     366181	FORWARD:          0	MERGED:          0	TO_CACHE:     365761

L1D UNIQUE REGIONS ACCESSED: 0
L1D REGIONS CONFLICTS: 0
L1D Cross Page Prefetch Requests: 6881
L1D Same Page Prefetch Requests: 743086
L1D ROI Sum of L1D PQ occupancy: 4638658
L1D PREFETCHES PUSHED FROM L2C: 0
L1I TOTAL     ACCESS:    7192461  HIT:    4421470  MISS:    2770991  HIT %:    61.4737  MISS %:    38.5263   MPKI: 55.4198
L1I LOAD INSTRUCTION	ACCESS:    6519985  HIT:    3748994  MISS:    2770991  HIT %:       57.5  MISS %:       42.5  MPKI: 55.4198
L1I PREFETCH INSTRUCTION	ACCESS:     672476  HIT:     672476  MISS:          0  HIT %:        100  MISS %:          0  MPKI: 0

L1I PREFETCH  REQUESTED:    1598368  ISSUED:    1598368  USEFUL:          0  USELESS:          0
L1I USEFUL LOAD PREFETCHES:          0 PREFETCH ISSUED TO LOWER LEVEL:          0  ACCURACY: -nan
 TIMELY PREFETCHES:          0 LATE PREFETCHES: 0 DROPPED PREFETCHES: 0
L1I AVERAGE MISS LATENCY: 17.0509 cycles
L1I RQ	ACCESS:    9507663	FORWARD:          0	MERGED:    2663697	TO_CACHE:    6843966
L1I PQ	ACCESS:    1598368	FORWARD:          0	MERGED:     432269	TO_CACHE:    1166099

L1BTB TOTAL     ACCESS:    5671591  HIT:    2032468  MISS:    3639123  HIT %:    35.8359  MISS %:    64.1641   MPKI: 72.7825
L1BTB BRANCH_DIRECT_JUMP	ACCESS:     547869  HIT:     144016  MISS:     403853	AVERAGE STALL: 52.1116
L1BTB BRANCH_INDIRECT	ACCESS:     182376  HIT:      65594  MISS:     116782	AVERAGE STALL: 99.5204
L1BTB BRANCH_CONDITIONAL	ACCESS:    2696940  HIT:    1401541  MISS:    1295399	AVERAGE STALL: 56.1429
L1BTB BRANCH_DIRECT_CALL	ACCESS:     949410  HIT:     107171  MISS:     842239	AVERAGE STALL: 55.9155
L1BTB BRANCH_INDIRECT_CALL	ACCESS:     172792  HIT:      21990  MISS:     150802	AVERAGE STALL: 131.1
L1BTB BRANCH_RETURN	ACCESS:    1122204  HIT:     292156  MISS:     830048	AVERAGE STALL: 46.5598
L1BTB BRANCH_OTHER ACCESS:          0  HIT:          0  MISS:          0	AVERAGE STALL: -nan
L1BTB TOTAL ROB OCCUPANCY AT BTB MISS: 2.90711

L2BTB TOTAL     ACCESS:    3613865  HIT:    3541588  MISS:      72277  HIT %:         98  MISS %:    1.99999   MPKI: 1.44554
L2BTB BRANCH_DIRECT_JUMP	ACCESS:     399756  HIT:     395192  MISS:       4564	AVERAGE STALL: 52.1116
L2BTB BRANCH_INDIRECT	ACCESS:     106495  HIT:     103845  MISS:       2650	AVERAGE STALL: 99.5204
L2BTB BRANCH_CONDITIONAL	ACCESS:    1295399  HIT:    1288895  MISS:       6504	AVERAGE STALL: 56.1429
L2BTB BRANCH_DIRECT_CALL	ACCESS:     842239  HIT:     841137  MISS:       1102	AVERAGE STALL: 55.9155
L2BTB BRANCH_INDIRECT_CALL	ACCESS:     141348  HIT:     131408  MISS:       9940	AVERAGE STALL: 131.1
L2BTB BRANCH_RETURN	ACCESS:     828628  HIT:     781111  MISS:      47517	AVERAGE STALL: 46.5598
L2BTB BRANCH_OTHER ACCESS:          0  HIT:          0  MISS:          0	AVERAGE STALL: -nan
L2BTB TOTAL ROB OCCUPANCY AT BTB MISS: 146.372

L2C TOTAL     ACCESS:    4499501  HIT:    4040904  MISS:     458597  HIT %:    89.8078  MISS %:    10.1922   MPKI: 9.17194
L2C LOAD INSTRUCTION	ACCESS:    2770991  HIT:    2523532  MISS:     247459  HIT %:    91.0697  MISS %:    8.93034  MPKI: 4.94918
L2C LOAD TRANSLATION INSTRUCTION	ACCESS:        273  HIT:         78  MISS:        195  HIT %:    28.5714  MISS %:    71.4286  MPKI: 0.0039
L2C LOAD DATA	ACCESS:     732454  HIT:     657336  MISS:      75118  HIT %:    89.7443  MISS %:    10.2557  MPKI: 1.50236
L2C RFO DATA	ACCESS:     285684  HIT:     236637  MISS:      49047  HIT %:    82.8317  MISS %:    17.1683  MPKI: 0.98094
L2C PREFETCH DATA	ACCESS:     185558  HIT:     112884  MISS:      72674  HIT %:    60.8349  MISS %:    39.1651  MPKI: 1.45348
L2C WRITEBACK DATA	ACCESS:     522685  HIT:     509925  MISS:      12760  HIT %:    97.5588  MISS %:    2.44124  MPKI: 0.2552
L2C LOAD TRANSLATION DATA	ACCESS:       1805  HIT:        475  MISS:       1330  HIT %:    26.3158  MISS %:    73.6842  MPKI: 0.0266
L2C TRANSLATION FROM L1D PREFETCHER DATA	ACCESS:         51  HIT:         37  MISS:         14  HIT %:     72.549  MISS %:     27.451  MPKI: 0.00028

L2C PREFETCH  REQUESTED:      91935  ISSUED:      91935  USEFUL:       8498  USELESS:      64761
L2C USEFUL LOAD PREFETCHES:       8498 PREFETCH ISSUED TO LOWER LEVEL:      73192  ACCURACY: 11.6106
 TIMELY PREFETCHES:       8498 LATE PREFETCHES: 518 DROPPED PREFETCHES: 0
L2C AVERAGE MISS LATENCY: 38.4641 cycles
L2C RQ	ACCESS:    3791321	FORWARD:          0	MERGED:          0	TO_CACHE:    3791259
L2C WQ	ACCESS:     522685	FORWARD:         63	MERGED:          0	TO_CACHE:     522685
L2C PQ	ACCESS:     194582	FORWARD:          0	MERGED:       3855	TO_CACHE:     190726

L2C Dense regions hint from L2: 0
PSCL5 TOTAL     ACCESS:       4080  HIT:       2040  MISS:       2040  HIT %:         50  MISS %:         50   MPKI: 0.0408
PSCL5 LOAD TRANSLATION INSTRUCTION	ACCESS:       3980  HIT:       1990  MISS:       1990  HIT %:         50  MISS %:         50  MPKI: 0.0398
PSCL5 TRANSLATION FROM L1D PREFETCHER INSTRUCTION	ACCESS:        100  HIT:         50  MISS:         50  HIT %:         50  MISS %:         50  MPKI: 0.001


PSCL4 TOTAL     ACCESS:       3986  HIT:       1991  MISS:       1995  HIT %:    49.9498  MISS %:    50.0502   MPKI: 0.0399
PSCL4 LOAD TRANSLATION INSTRUCTION	ACCESS:       3340  HIT:       1941  MISS:       1399  HIT %:    58.1138  MISS %:    41.8862  MPKI: 0.02798
PSCL4 TRANSLATION FROM L1D PREFETCHER INSTRUCTION	ACCESS:         82  HIT:         50  MISS:         32  HIT %:    60.9756  MISS %:    39.0244  MPKI: 0.00064
PSCL4 LOAD TRANSLATION DATA	ACCESS:        546  HIT:          0  MISS:        546  HIT %:          0  MISS %:        100  MPKI: 0.01092
PSCL4 TRANSLATION FROM L1D PREFETCHER DATA	ACCESS:         18  HIT:          0  MISS:         18  HIT %:          0  MISS %:        100  MPKI: 0.00036


PSCL3 TOTAL     ACCESS:       4030  HIT:       2013  MISS:       2017  HIT %:    49.9504  MISS %:    50.0496   MPKI: 0.04034
PSCL3 LOAD TRANSLATION INSTRUCTION	ACCESS:       3362  HIT:       1963  MISS:       1399  HIT %:    58.3879  MISS %:    41.6121  MPKI: 0.02798
PSCL3 TRANSLATION FROM L1D PREFETCHER INSTRUCTION	ACCESS:         82  HIT:         50  MISS:         32  HIT %:    60.9756  MISS %:    39.0244  MPKI: 0.00064
PSCL3 LOAD TRANSLATION DATA	ACCESS:        568  HIT:          0  MISS:        568  HIT %:          0  MISS %:        100  MPKI: 0.01136
PSCL3 TRANSLATION FROM L1D PREFETCHER DATA	ACCESS:         18  HIT:          0  MISS:         18  HIT %:          0  MISS %:        100  MPKI: 0.00036


PSCL2 TOTAL     ACCESS:       3999  HIT:       1959  MISS:       2040  HIT %:    48.9872  MISS %:    51.0128   MPKI: 0.0408
PSCL2 LOAD TRANSLATION INSTRUCTION	ACCESS:       2153  HIT:       1910  MISS:        243  HIT %:    88.7134  MISS %:    11.2866  MPKI: 0.00486
PSCL2 TRANSLATION FROM L1D PREFETCHER INSTRUCTION	ACCESS:         49  HIT:         49  MISS:          0  HIT %:        100  MISS %:          0  MPKI: 0
PSCL2 LOAD TRANSLATION DATA	ACCESS:       1748  HIT:          0  MISS:       1748  HIT %:          0  MISS %:        100  MPKI: 0.03496
PSCL2 TRANSLATION FROM L1D PREFETCHER DATA	ACCESS:         49  HIT:          0  MISS:         49  HIT %:          0  MISS %:        100  MPKI: 0.00098


LLC TOTAL     ACCESS:     516879  HIT:     489755  MISS:      27124  HIT %:    94.7524  MISS %:    5.24765   MPKI: 0.54248
LLC LOAD INSTRUCTION	ACCESS:     247459  HIT:     246725  MISS:        734  HIT %:    99.7034  MISS %:   0.296615  MPKI: 0.01468
LLC LOAD TRANSLATION INSTRUCTION	ACCESS:        195  HIT:        169  MISS:         26  HIT %:    86.6667  MISS %:    13.3333  MPKI: 0.00052
LLC LOAD DATA	ACCESS:      74619  HIT:      71296  MISS:       3323  HIT %:    95.5467  MISS %:    4.45329  MPKI: 0.06646
LLC RFO DATA	ACCESS:      49022  HIT:      36129  MISS:      12893  HIT %:    73.6996  MISS %:    26.3004  MPKI: 0.25786
LLC PREFETCH DATA	ACCESS:      73192  HIT:      63369  MISS:       9823  HIT %:    86.5791  MISS %:    13.4209  MPKI: 0.19646
LLC WRITEBACK DATA	ACCESS:      71048  HIT:      70790  MISS:        258  HIT %:    99.6369  MISS %:   0.363135  MPKI: 0.00516
LLC LOAD TRANSLATION DATA	ACCESS:       1330  HIT:       1263  MISS:         67  HIT %:    94.9624  MISS %:    5.03759  MPKI: 0.00134
LLC TRANSLATION FROM L1D PREFETCHER DATA	ACCESS:         14  HIT:         14  MISS:          0  HIT %:        100  MISS %:          0  MPKI: 0

LLC AVERAGE MISS LATENCY: 155.765 cycles
LLC RQ	ACCESS:     372645	FORWARD:          0	MERGED:          0	TO_CACHE:     372639
LLC WQ	ACCESS:      71048	FORWARD:          6	MERGED:          0	TO_CACHE:      71048
LLC PQ	ACCESS:      73192	FORWARD:          0	MERGED:          0	TO_CACHE:      73192

LLC Dense regions hint to LLC: 0

RAW hits: 1949691
Loads Generated: 12628869
Loads sent to L1D: 10679178
Stores Generated: 6949757
Stores sent to L1D: 6949781
Major fault: 0 Minor fault: 2587
Allocated PAGES: 2587

stream: 
stream:times selected: 1175945
stream:pref_filled: 120891
stream:pref_useful: 23758
stream:pref_late: 6866
stream:misses: 8124
stream:misses_by_poll: 0

CS: 
CS:times selected: 176650
CS:pref_filled: 61266
CS:pref_useful: 37826
CS:pref_late: 6394
CS:misses: 15515
CS:misses_by_poll: 4

CPLX: 
CPLX:times selected: 998103
CPLX:pref_filled: 19560
CPLX:pref_useful: 4474
CPLX:pref_late: 3325
CPLX:misses: 94419
CPLX:misses_by_poll: 0

NL_L1: 
NL:times selected: 20635
NL:pref_filled: 629
NL:pref_useful: 259
NL:pref_late: 385
NL:misses: 1778
NL:misses_by_poll: 0

total selections: 2371333
total_filled: 95375
total_useful: 33931
total_late: 18234
total_polluted: 4
total_misses_after_warmup: 773711
conflicts: 5525332

test: 115812

DRAM Statistics
 CHANNEL 0
 RQ ROW_BUFFER_HIT:       9967  ROW_BUFFER_MISS:      16889
 DBUS_CONGESTED:          7
 WQ ROW_BUFFER_HIT:       1197  ROW_BUFFER_MISS:      11756  FULL:          0

 AVG_CONGESTED_CYCLE: 6

CPU 0 Branch Prediction Accuracy: 99.8269% MPKI: 0.31696 Average ROB Occupancy at Mispredict: 180.332
Branch types
NOT_BRANCH: 40846402 81.6928%
BRANCH_DIRECT_JUMP: 547869 1.09574%
BRANCH_INDIRECT: 182376 0.364752%
BRANCH_CONDITIONAL: 6178982 12.358%
BRANCH_DIRECT_CALL: 949410 1.89882%
BRANCH_INDIRECT_CALL: 172792 0.345584%
BRANCH_RETURN: 1122204 2.24441%
BRANCH_OTHER: 0 0%

DRAM PAGES: 1048576
Allocated PAGES: 2587
Average_ROB_Occupancy: 236.652
Average_Decode_Occupancy: 33.387
Average_FTQ_Occupancy: 12.8464
Indirect max targets: 14 Average targets: 1.14527
Branch_type:  BRANCH_DIRECT_JUMP:  Count Percentage: 3.38073 5.42582 4.18493 7.86647 1.69073 5.96347 1.1486 70.3393 
Branch_type:  BRANCH_INDIRECT:  Count Percentage: 11.7572 3.41318 2.49149 9.67814 3.35227 4.01822 2.01871 63.2708 
Branch_type:  BRANCH_CONDITIONAL:  Count Percentage: 21.3705 5.35117 2.31055 4.30727 2.1385 4.44314 0.647674 59.4311 
Branch_type:  BRANCH_DIRECT_CALL:  Count Percentage: 0.256492 1.30821 1.41073 3.45064 2.85587 2.34099 0.608595 87.7685 
Branch_type:  BRANCH_INDIRECT_CALL:  Count Percentage: 9.51905 0.554184 2.98472 4.81703 1.5067 2.97342 0.991043 76.6539 
Branch_type:  BRANCH_RETURN:  Count Percentage: 3.72484 3.62119 1.61679 5.90196 4.43224 4.8696 1.02589 74.8075 
Branch_type:  BRANCH_DIRECT_JUMP:  Total Count: 36998 59379 45799 86089 18503 65263 12570 769778 
Branch_type:  BRANCH_INDIRECT:  Total Count: 42848 12439 9080 35271 12217 14644 7357 230584 
Branch_type:  BRANCH_CONDITIONAL:  Total Count: 2638941 660789 285318 531883 264073 548661 79978 7338852 
Branch_type:  BRANCH_DIRECT_CALL:  Total Count: 4861 24793 26736 65396 54124 44366 11534 1663375 
Branch_type:  BRANCH_INDIRECT_CALL:  Total Count: 32859 1913 10303 16628 5201 10264 3421 264603 
Branch_type:  BRANCH_RETURN:  Total Count: 83480 81157 36235 132273 99334 109136 22992 1676562 
Number of unique branch instructions: 9858
Upper 32 bits: 
aaaa
ffff
ffff0000
Unique upper 32 bits: 3
Unique upper 36 bits: 3
Unique upper 40 bits: 5
Unique upper 44 bits: 32
Unique upper 48 bits: 154
Variant_0 : 1406 0.343262
Variant_1 : 1169 0.2854
Variant_2 : 1062 0.259277
Variant_3 : 0 0
Offset_3 4068
Offset_4 241
Offset_5 453
Offset_6 505
Offset_7 585
Offset_8 497
Offset_9 466
Offset_10 380
Offset_11 312
Offset_12 270
Offset_13 203
Offset_14 226
Offset_15 192
Offset_16 222
Offset_17 145
Offset_18 120
Offset_19 239
Offset_20 137
Offset_21 235
Offset_22 394
Offset_23 242
Offset_24 328
Offset_25 88
Offset_47 80
Offset_64 1
decode_dispatch_called: 25276137 70.0098
Dispatch_width: 0 13568581 53.6814 37.5822
Dispatch_width: 1 942269 3.7279 2.60989
Dispatch_width: 2 804588 3.18319 2.22855
Dispatch_width: 3 495789 1.96149 1.37323
Dispatch_width: 4 5333750 21.1019 14.7734
Dispatch_width: 5 160769 0.636051 0.445297
Dispatch_width: 6 3970391 15.7081 10.9972
Empty_decode_cycles: 10827592 29.9902
ROB_full_cycles: 8544939 23.6677
Starvation_cycles_per_kilo_instr: 235.884
Starvation_cycles_per_kilo_instr_3: 180.939
Starvation_cycles_per_kilo_instr_0: 158.512
Branch_type_1  (3,1)  (4,9)  (5,37)  (6,70)  (7,116)  (8,124)  (9,124)  (10,96)  (11,69)  (12,43)  (13,8)  (14,2)  (15,3)  (16,4)  (18,1)  (19,4)  (20,2)  (21,1)  (22,3)  (23,2)  (24,10)  (25,12) 
Branch_type_2  (3,1)  (5,1)  (8,3)  (9,3)  (12,1)  (13,1)  (14,1)  (16,3)  (17,2)  (20,2)  (21,2)  (23,5)  (24,1)  (47,36) 
Branch_type_3  (3,4066)  (4,232)  (5,411)  (6,420)  (7,438)  (8,308)  (9,253)  (10,156)  (11,126)  (12,50)  (13,7)  (64,1) 
Branch_type_4  (6,3)  (7,8)  (8,25)  (9,54)  (10,61)  (11,60)  (12,97)  (13,85)  (14,101)  (15,91)  (16,100)  (17,63)  (18,54)  (19,117)  (20,72)  (21,124)  (22,209)  (23,136)  (24,188)  (25,72) 
Branch_type_5  (8,2)  (9,1)  (10,3)  (11,5)  (12,3)  (13,14)  (14,16)  (15,11)  (16,20)  (17,13)  (18,16)  (19,12)  (20,10)  (21,13)  (22,42)  (23,26)  (24,37) 
Branch_type_6  (5,4)  (6,12)  (7,23)  (8,35)  (9,31)  (10,64)  (11,52)  (12,76)  (13,88)  (14,106)  (15,87)  (16,95)  (17,67)  (18,49)  (19,106)  (20,51)  (21,95)  (22,140)  (23,73)  (24,92)  (25,4)  (47,44) 
Unique trigger count: 
Variant_0_evicts_0 : 0
Variant_0_evicts_1 : 0
Variant_0_evicts_2 : 0
Variant_0_evicts_3 : 0
Variant_1_evicts_0 : 0
Variant_1_evicts_1 : 0
Variant_1_evicts_2 : 0
Variant_1_evicts_3 : 0
Variant_2_evicts_0 : 0
Variant_2_evicts_1 : 0
Variant_2_evicts_2 : 0
Variant_2_evicts_3 : 0
Variant_3_evicts_0 : 0
Variant_3_evicts_1 : 0
Variant_3_evicts_2 : 0
Variant_3_evicts_3 : 0
BTB PER SET UNIQUE ADDR: 13 13 12 13 10 12 12 8 11 12 14 11 12 9 9 12 13 12 12 13 17 11 10 13 13 10 10 9 10 13 12 9 12 13 9 13 10 13 15 15 13 14 11 11 10 12 10 15 13 9 11 12 15 15 13 13 16 14 10 12 11 13 12 13 13 11 15 11 16 14 11 16 17 15 16 13 13 12 14 11 11 17 12 11 12 15 13 19 15 10 16 13 12 15 11 13 14 13 18 11 15 19 8 14 14 10 11 14 9 11 11 11 10 13 10 8 10 10 14 10 16 9 14 15 17 21 17 7 12 11 16 13 12 11 12 17 14 15 10 15 14 10 14 17 16 11 12 15 14 13 9 16 12 12 12 11 9 9 8 11 15 10 9 14 13 12 14 14 13 15 15 12 13 15 8 10 13 14 13 11 16 16 13 11 11 14 10 15 11 12 11 13 13 13 18 8 15 13 15 9 8 11 15 13 15 10 12 14 13 9 12 17 12 13 10 14 16 12 17 12 17 9 13 5 18 12 15 11 10 12 13 10 15 14 15 16 12 11 12 13 14 15 14 16 12 15 16 12 15 9 11 12 9 12 10 13 11 12 11 12 19 13 14 9 12 10 17 16 11 11 14 8 15 13 12 17 10 11 13 11 11 12 13 11 13 14 9 10 13 12 11 10 16 14 13 13 18 10 14 13 11 12 17 11 12 12 14 12 11 18 12 10 13 11 13 17 9 14 14 9 13 8 13 11 12 10 9 8 11 12 12 11 18 7 13 10 13 15 11 12 11 14 12 10 11 17 14 10 11 15 13 8 8 15 11 11 8 15 17 15 13 15 12 14 14 19 11 13 11 6 13 10 9 15 9 9 11 8 15 11 10 14 10 10 11 17 12 9 17 16 11 12 17 13 13 11 10 15 10 14 11 13 18 13 16 18 12 13 12 9 12 10 16 12 13 15 11 14 13 12 14 15 14 9 11 15 12 15 10 13 13 11 13 15 8 14 14 14 11 12 12 11 12 11 12 14 12 9 16 11 17 12 24 14 11 12 12 11 14 11 11 10 13 10 13 13 12 14 12 14 14 13 15 14 11 13 14 13 15 14 20 9 15 13 8 15 15 17 15 12 22 13 17 11 15 13 10 12 10 11 11 14 8 15 11 13 11 14 14 15 17 11 
BTB PER SET COUNT: 22 17 12 14 13 86 1486 8 12 18 19 11 13 962 9 12 14 13 12 736 17 11 11 13 14 11 11 968 357 967 2482 965 14 1006 9 17 10 13 19 21 609 15 967 12 490 741 10 18 13 9 14 1008 15 497 15 13 52 14 10 12 11 458 14 15 13 11 15 968 498 14 12 412 19 17 21 17 1404 12 15 11 22 19 19 1924 16 1488 17 3483 2957 10 1010 13 13 22 12 27 14 15 181 17 22 498 8 2991 20 11 17 735 9 12 11 735 10 13 10 10 14 10 493 13 18 9 3911 16 19 3821 293 8 12 11 18 13 539 11 12 1999 14 18 12 18 14 11 19 496 17 1999 1486 16 17 14 10 19 978 12 13 12 9 10 8 14 246 12 11 15 17 12 1959 19 16 15 17 2014 1993 78 8 10 18 857 15 13 17 18 13 13 11 14 12 85 11 13 11 16 490 1484 21 8 16 19 18 9 8 11 15 13 17 155 491 15 14 9 13 17 12 16 11 14 17 12 65 13 102 9 14 957 18 12 19 13 10 164 1487 966 15 15 15 19 12 11 1483 14 18 32 14 18 12 15 16 12 17 1923 13 13 10 14 11 16 11 25 11 13 1967 2878 14 9 12 13 18 19 533 231 14 963 1011 1369 14 1012 434 12 13 11 12 500 14 11 14 17 10 12 19 21 14 12 17 1855 13 1008 18 13 200 1447 11 14 24 12 12 13 20622 12 17 21 3952 11 3659 15 14 21 9 1269 14 9 16 9 738 12 97 10 16 12 11 15 966 12 2478 7 14 1179 13 379 11 16 11 376 967 11 14 17 1486 10 11 15 13 9 422 17 13 12 8 492 1118 16 13 15 377 14 17 3505 11 13 1006 7 493 11 12 17 9 10 2477 8 16 11 10 14 10 12 2249 17 489 9 969 16 11 12 17 15 13 11 13 17 12 17 12 15 499 121 20 25 16 969 15 10 13 1443 22 13 3429 17 12 970 16 12 878 16 18 14728 11 17 15 16 10 13 16 12 13 496 8 443 16 16 967 12 14 1036 18 12 15 53 12 14 4449 16 17 12 268 14 11 12 998 14 972 1994 12 11 15 10 2952 14 14 2484 12 971 165 17 19 15 11 9727 3434 14 18 397 3480 9 19 15 8 642 15 20 15 13 28 15 17 16 731 14 2880 16 12 12 13 16 9 15 13 136 488 14 14 2912 21 11 
To predecode: 0
Predecoding something: 0
Predecode request dropped: 0
sizeofblock_0 0
sizeofblock_1 18082
sizeofblock_2 27594
sizeofblock_3 57039
sizeofblock_4 46015
sizeofblock_5 0
sizeofblock_6 0
sizeofblock_7 0
sizeofblock_8 0
Variant_0 Correct: 1618451 Incorrect: 0 Accuracy: 1
Variant_1 Correct: 2094469 Incorrect: 0 Accuracy: 1
Variant_2 Correct: 3638963 Incorrect: 0 Accuracy: 1
Variant_3 Correct: 0 Incorrect: 0 Accuracy: -nan
