Set 35: way: 00
Set 35: way: 11
Set 35: way: 22
Set 35: way: 33

*** ChampSim Multicore Out-of-Order Simulator ***

Warmup Instructions: 50000000
Simulation Instructions: 50000000
Number of CPUs: 1
LLC sets: 2048
LLC ways: 16
Off-chip DRAM Size: 4096 MB Channels: 1 Width: 64-bit Data Rate: 6400 MT/s
CPU 0 runs ./micro_traces/srv301.trace.gz
.gz
ITLB has LRU replacement policy
DTLB has LRU replacement policy
STLB has LRU replacement policy
L1I has LRU replacement policy
L1D has LRU replacement policy
Initialize SRRIP state for L2C
Initialize DRRIP state for LLC
Heartbeat CPU 0 instructions: 10000000 cycles: 2797900 heartbeat IPC: 3.57411 cumulative IPC: 3.57411 (Simulation time: 0 hr 1 min 42 sec) 
Heartbeat CPU 0 instructions: 20000003 cycles: 5596175 heartbeat IPC: 3.57363 cumulative IPC: 3.57387 (Simulation time: 0 hr 3 min 16 sec) 
Heartbeat CPU 0 instructions: 30000001 cycles: 8393323 heartbeat IPC: 3.57507 cumulative IPC: 3.57427 (Simulation time: 0 hr 4 min 53 sec) 
Heartbeat CPU 0 instructions: 40000000 cycles: 11190510 heartbeat IPC: 3.57502 cumulative IPC: 3.57446 (Simulation time: 0 hr 6 min 30 sec) 
Heartbeat CPU 0 instructions: 50000002 cycles: 13988702 heartbeat IPC: 3.57374 cumulative IPC: 3.57431 (Simulation time: 0 hr 8 min 9 sec) 

Warmup complete CPU 0 instructions: 50000002 cycles: 13988702 (Simulation time: 0 hr 8 min 9 sec) 

Cycle: 20000000 FTQ IN: 56930457 FTQ occupancy: 17.8222 DECODE IN: 56930407 DECODE occupancy: 45.8663 ROB IN: 56930407 ROB occupancy: 280.789 ROB OUT: 56930323
Heartbeat CPU 0 instructions: 60000001 cycles: 22667930 heartbeat IPC: 1.15218 cumulative IPC: 1.15218 (Simulation time: 0 hr 9 min 30 sec) 
Cycle: 30000000 FTQ IN: 11401663 FTQ occupancy: 5.92916 DECODE IN: 11401709 DECODE occupancy: 13.1471 ROB IN: 11401698 ROB occupancy: 124.849 ROB OUT: 11401530
Heartbeat CPU 0 instructions: 70000000 cycles: 31456579 heartbeat IPC: 1.13783 cumulative IPC: 1.14496 (Simulation time: 0 hr 10 min 50 sec) 
Cycle: 40000000 FTQ IN: 11533181 FTQ occupancy: 5.80362 DECODE IN: 11533044 DECODE occupancy: 12.9625 ROB IN: 11532995 ROB occupancy: 124.718 ROB OUT: 11532895
Heartbeat CPU 0 instructions: 80000000 cycles: 40115012 heartbeat IPC: 1.15494 cumulative IPC: 1.14827 (Simulation time: 0 hr 12 min 8 sec) 
Heartbeat CPU 0 instructions: 90000000 cycles: 48276224 heartbeat IPC: 1.22531 cumulative IPC: 1.16661 (Simulation time: 0 hr 13 min 33 sec) 
Cycle: 50000000 FTQ IN: 12837521 FTQ occupancy: 8.39013 DECODE IN: 12837643 DECODE occupancy: 23.2147 ROB IN: 12837681 ROB occupancy: 184.858 ROB OUT: 12837805
Heartbeat CPU 0 instructions: 100000001 cycles: 56096374 heartbeat IPC: 1.27875 cumulative IPC: 1.18743 (Simulation time: 0 hr 15 min 7 sec) 
Finished CPU 0 instructions: 50000003 cycles: 42107673 cumulative IPC: 1.18743 (Simulation time: 0 hr 15 min 7 sec) 

ChampSim completed all CPUs

Region of Interest Statistics

CPU 0 cumulative IPC: 1.18743 instructions: 50000003 cycles: 42107673
 Fetch stage stalled: 70.6676  Sim cycles: 42107673 fetch stall cycle: 29756467
 Empty decode stage: 62.3136  Sim cycles: 42107673 fetch stall cycle: 26238801
ITLB TOTAL     ACCESS:    9592702  HIT:    9153885  MISS:     438817  HIT %:    95.4255  MISS %:    4.57449   MPKI: 8.77634
ITLB LOAD TRANSLATION INSTRUCTION	ACCESS:    6089729  HIT:    5717663  MISS:     372066  HIT %:    93.8903  MISS %:    6.10973  MPKI: 7.44132
ITLB TRANSLATION FROM L1D PREFETCHER INSTRUCTION	ACCESS:    3502973  HIT:    3436222  MISS:      66751  HIT %:    98.0944  MISS %:    1.90555  MPKI: 1.33502

ITLB AVERAGE MISS LATENCY: 2.73289e+07 cycles
ITLB RQ	ACCESS:   11578901	FORWARD:          0	MERGED:    1309253	TO_CACHE:   10269648

DTLB TOTAL     ACCESS:    9422458  HIT:    8977123  MISS:     445335  HIT %:    95.2737  MISS %:    4.72631   MPKI: 8.9067
DTLB LOAD TRANSLATION DATA	ACCESS:    9422458  HIT:    8977123  MISS:     445335  HIT %:    95.2737  MISS %:    4.72631  MPKI: 8.9067

DTLB AVERAGE MISS LATENCY: 9.31755 cycles
DTLB RQ	ACCESS:   13661799	FORWARD:          0	MERGED:    4208707	TO_CACHE:    9453092

STLB TOTAL     ACCESS:    1093625  HIT:    1091483  MISS:       2142  HIT %:    99.8041  MISS %:   0.195862   MPKI: 0.04284
STLB LOAD TRANSLATION INSTRUCTION	ACCESS:      14069  HIT:      14029  MISS:         40  HIT %:    99.7157  MISS %:   0.284313  MPKI: 0.0008
STLB TRANSLATION FROM L1D PREFETCHER INSTRUCTION	ACCESS:     424748  HIT:     424314  MISS:        434  HIT %:    99.8978  MISS %:   0.102178  MPKI: 0.00868
STLB LOAD TRANSLATION DATA	ACCESS:     445329  HIT:     443680  MISS:       1649  HIT %:    99.6297  MISS %:   0.370288  MPKI: 0.03298
STLB TRANSLATION FROM L1D PREFETCHER DATA	ACCESS:     209479  HIT:     209460  MISS:         19  HIT %:    99.9909  MISS %: 0.00907012  MPKI: 0.00038

STLB AVERAGE MISS LATENCY: 70.7423 cycles
STLB RQ	ACCESS:    1192450	FORWARD:          0	MERGED:      98767	TO_CACHE:    1093683

STLB Hit, L1D data hit: 0
STLB Hit, L2C data hit: 0
STLB Hit, LLC data hit: 0
STLB Hit, LLC data miss: 0
STLB STLB hints to L2: 0
L1D TOTAL     ACCESS:   13439951  HIT:   12458811  MISS:     981140  HIT %:    92.6998  MISS %:    7.30018   MPKI: 19.6228
L1D LOAD DATA	ACCESS:    6874940  HIT:    6223101  MISS:     651839  HIT %:    90.5186  MISS %:    9.48138  MPKI: 13.0368
L1D RFO DATA	ACCESS:    6293005  HIT:    6044030  MISS:     248975  HIT %:    96.0436  MISS %:    3.95638  MPKI: 4.9795
L1D PREFETCH DATA	ACCESS:     272006  HIT:     191680  MISS:      80326  HIT %:     70.469  MISS %:     29.531  MPKI: 1.60652

L1D PREFETCH  REQUESTED:     616824  ISSUED:     616824  USEFUL:      29606  USELESS:      59527
L1D USEFUL LOAD PREFETCHES:      29606 PREFETCH ISSUED TO LOWER LEVEL:      89200  ACCURACY: 33.1906
 TIMELY PREFETCHES:      29606 LATE PREFETCHES: 8835 DROPPED PREFETCHES: 5
L1D AVERAGE MISS LATENCY: 311785 cycles
L1D RQ	ACCESS:   10886568	FORWARD:          0	MERGED:    3790961	TO_CACHE:    6907783
L1D WQ	ACCESS:    6957598	FORWARD:     188080	MERGED:     203582	TO_CACHE:    6754016
L1D PQ	ACCESS:     308540	FORWARD:          0	MERGED:          0	TO_CACHE:     308284

L1D UNIQUE REGIONS ACCESSED: 0
L1D REGIONS CONFLICTS: 0
L1D Cross Page Prefetch Requests: 5114
L1D Same Page Prefetch Requests: 686087
L1D ROI Sum of L1D PQ occupancy: 3927186
L1D PREFETCHES PUSHED FROM L2C: 0
L1I TOTAL     ACCESS:   10291903  HIT:    7863030  MISS:    2428873  HIT %:    76.4002  MISS %:    23.5998   MPKI: 48.5775
L1I LOAD INSTRUCTION	ACCESS:    6955938  HIT:    4760114  MISS:    2195824  HIT %:    68.4324  MISS %:    31.5676  MPKI: 43.9165
L1I PREFETCH INSTRUCTION	ACCESS:    3335965  HIT:    3102916  MISS:     233049  HIT %:     93.014  MISS %:    6.98595  MPKI: 4.66098

L1I PREFETCH  REQUESTED:    4705549  ISSUED:    4705549  USEFUL:     900274  USELESS:       1689
L1I USEFUL LOAD PREFETCHES:     900274 PREFETCH ISSUED TO LOWER LEVEL:     901965  ACCURACY: 99.8125
 TIMELY PREFETCHES:     900274 LATE PREFETCHES: 668916 DROPPED PREFETCHES: 8
L1I AVERAGE MISS LATENCY: 9.21365e+06 cycles
L1I RQ	ACCESS:    9561130	FORWARD:          0	MERGED:    2465912	TO_CACHE:    7095218
L1I PQ	ACCESS:    4705549	FORWARD:          0	MERGED:     221866	TO_CACHE:    4483683

BTB TOTAL     ACCESS:    7126693  HIT:    6651298  MISS:     410646  MISS TARGET:      64749  HIT %:    93.3294  MISS %:    5.76208   MPKI: 8.21292
BTB BRANCH_DIRECT_JUMP	ACCESS:     550522  HIT:     518094  MISS:      27535  MISS TARGET:       4893	AVERAGE STALL: 29.9657
BTB BRANCH_INDIRECT	ACCESS:     180198  HIT:     167052  MISS:       2196  MISS TARGET:      10950	AVERAGE STALL: 72.5755
BTB BRANCH_CONDITIONAL	ACCESS:    4007161  HIT:    3732704  MISS:     274407  MISS TARGET:         50	AVERAGE STALL: 33.8288
BTB BRANCH_DIRECT_CALL	ACCESS:    1021695  HIT:     955289  MISS:      66406  MISS TARGET:          0	AVERAGE STALL: 36.905
BTB BRANCH_INDIRECT_CALL	ACCESS:     172711  HIT:     146773  MISS:      10508  MISS TARGET:      15430	AVERAGE STALL: 112.987
BTB BRANCH_RETURN	ACCESS:    1194406  HIT:    1131386  MISS:      29594  MISS TARGET:      33426	AVERAGE STALL: 34.4219
BTB BRANCH_OTHER ACCESS:          0  HIT:          0  MISS:          0  MISS TARGET:          0	AVERAGE STALL: -nan
L2C TOTAL     ACCESS:    4756084  HIT:    4176906  MISS:     579178  HIT %:    87.8224  MISS %:    12.1776   MPKI: 11.5836
L2C LOAD INSTRUCTION	ACCESS:    1526907  HIT:    1368504  MISS:     158403  HIT %:    89.6259  MISS %:    10.3741  MPKI: 3.16806
L2C PREFETCH INSTRUCTION	ACCESS:     901965  HIT:     800926  MISS:     101039  HIT %:    88.7979  MISS %:    11.2021  MPKI: 2.02078
L2C LOAD TRANSLATION INSTRUCTION	ACCESS:         47  HIT:         25  MISS:         22  HIT %:    53.1915  MISS %:    46.8085  MPKI: 0.00044
L2C TRANSLATION FROM L1D PREFETCHER INSTRUCTION	ACCESS:        483  HIT:        191  MISS:        292  HIT %:    39.5445  MISS %:    60.4555  MPKI: 0.00584
L2C LOAD DATA	ACCESS:     642995  HIT:     543398  MISS:      99597  HIT %:    84.5105  MISS %:    15.4895  MPKI: 1.99194
L2C RFO DATA	ACCESS:     248904  HIT:     191905  MISS:      56999  HIT %:       77.1  MISS %:       22.9  MPKI: 1.13998
L2C PREFETCH DATA	ACCESS:     971660  HIT:     831270  MISS:     140390  HIT %:    85.5515  MISS %:    14.4485  MPKI: 2.8078
L2C WRITEBACK DATA	ACCESS:     461349  HIT:     440089  MISS:      21260  HIT %:    95.3918  MISS %:    4.60823  MPKI: 0.4252
L2C LOAD TRANSLATION DATA	ACCESS:       1736  HIT:        573  MISS:       1163  HIT %:    33.0069  MISS %:    66.9931  MPKI: 0.02326
L2C TRANSLATION FROM L1D PREFETCHER DATA	ACCESS:         38  HIT:         25  MISS:         13  HIT %:    65.7895  MISS %:    34.2105  MPKI: 0.00026

L2C PREFETCH  REQUESTED:     978905  ISSUED:     978905  USEFUL:      35526  USELESS:     217655
L2C USEFUL LOAD PREFETCHES:      35526 PREFETCH ISSUED TO LOWER LEVEL:     252281  ACCURACY: 14.0819
 TIMELY PREFETCHES:      35526 LATE PREFETCHES: 10852 DROPPED PREFETCHES: 0
L2C AVERAGE MISS LATENCY: 35.8396 cycles
L2C RQ	ACCESS:    2421151	FORWARD:          0	MERGED:          0	TO_CACHE:    2421110
L2C WQ	ACCESS:     461349	FORWARD:         42	MERGED:          0	TO_CACHE:     461349
L2C PQ	ACCESS:    1970070	FORWARD:          0	MERGED:      56211	TO_CACHE:    1913858

L2C Dense regions hint from L2: 0
PSCL5 TOTAL     ACCESS:       4332  HIT:       2166  MISS:       2166  HIT %:         50  MISS %:         50   MPKI: 0.04332
PSCL5 LOAD TRANSLATION INSTRUCTION	ACCESS:       3360  HIT:       1680  MISS:       1680  HIT %:         50  MISS %:         50  MPKI: 0.0336
PSCL5 TRANSLATION FROM L1D PREFETCHER INSTRUCTION	ACCESS:        972  HIT:        486  MISS:        486  HIT %:         50  MISS %:         50  MPKI: 0.00972


PSCL4 TOTAL     ACCESS:       2668  HIT:       1331  MISS:       1337  HIT %:    49.8876  MISS %:    50.1124   MPKI: 0.02674
PSCL4 LOAD TRANSLATION INSTRUCTION	ACCESS:       1774  HIT:       1027  MISS:        747  HIT %:    57.8918  MISS %:    42.1082  MPKI: 0.01494
PSCL4 TRANSLATION FROM L1D PREFETCHER INSTRUCTION	ACCESS:        556  HIT:        304  MISS:        252  HIT %:    54.6763  MISS %:    45.3237  MPKI: 0.00504
PSCL4 LOAD TRANSLATION DATA	ACCESS:        286  HIT:          0  MISS:        286  HIT %:          0  MISS %:        100  MPKI: 0.00572
PSCL4 TRANSLATION FROM L1D PREFETCHER DATA	ACCESS:         52  HIT:          0  MISS:         52  HIT %:          0  MISS %:        100  MPKI: 0.00104


PSCL3 TOTAL     ACCESS:       4147  HIT:       2064  MISS:       2083  HIT %:    49.7709  MISS %:    50.2291   MPKI: 0.04166
PSCL3 LOAD TRANSLATION INSTRUCTION	ACCESS:       2667  HIT:       1635  MISS:       1032  HIT %:    61.3048  MISS %:    38.6952  MPKI: 0.02064
PSCL3 TRANSLATION FROM L1D PREFETCHER INSTRUCTION	ACCESS:        628  HIT:        429  MISS:        199  HIT %:    68.3121  MISS %:    31.6879  MPKI: 0.00398
PSCL3 LOAD TRANSLATION DATA	ACCESS:        622  HIT:          0  MISS:        622  HIT %:          0  MISS %:        100  MPKI: 0.01244
PSCL3 TRANSLATION FROM L1D PREFETCHER DATA	ACCESS:        230  HIT:          0  MISS:        230  HIT %:          0  MISS %:        100  MPKI: 0.0046


PSCL2 TOTAL     ACCESS:       4214  HIT:       2049  MISS:       2165  HIT %:    48.6236  MISS %:    51.3764   MPKI: 0.0433
PSCL2 LOAD TRANSLATION INSTRUCTION	ACCESS:       1675  HIT:       1592  MISS:         83  HIT %:    95.0448  MISS %:    4.95522  MPKI: 0.00166
PSCL2 TRANSLATION FROM L1D PREFETCHER INSTRUCTION	ACCESS:        876  HIT:        457  MISS:        419  HIT %:    52.1689  MISS %:    47.8311  MPKI: 0.00838
PSCL2 LOAD TRANSLATION DATA	ACCESS:       1625  HIT:          0  MISS:       1625  HIT %:          0  MISS %:        100  MPKI: 0.0325
PSCL2 TRANSLATION FROM L1D PREFETCHER DATA	ACCESS:         38  HIT:          0  MISS:         38  HIT %:          0  MISS %:        100  MPKI: 0.00076


LLC TOTAL     ACCESS:     642815  HIT:     617407  MISS:      25408  HIT %:    96.0474  MISS %:    3.95261   MPKI: 0.50816
LLC LOAD INSTRUCTION	ACCESS:     148065  HIT:     147449  MISS:        616  HIT %:     99.584  MISS %:   0.416033  MPKI: 0.01232
LLC PREFETCH INSTRUCTION	ACCESS:      99520  HIT:      99177  MISS:        343  HIT %:    99.6553  MISS %:   0.344654  MPKI: 0.00686
LLC LOAD TRANSLATION INSTRUCTION	ACCESS:         22  HIT:         13  MISS:          9  HIT %:    59.0909  MISS %:    40.9091  MPKI: 0.00018
LLC TRANSLATION FROM L1D PREFETCHER INSTRUCTION	ACCESS:        292  HIT:        259  MISS:         33  HIT %:    88.6986  MISS %:    11.3014  MPKI: 0.00066
LLC LOAD DATA	ACCESS:      99091  HIT:      95726  MISS:       3365  HIT %:    96.6041  MISS %:    3.39587  MPKI: 0.0673
LLC RFO DATA	ACCESS:      56989  HIT:      45915  MISS:      11074  HIT %:    80.5682  MISS %:    19.4318  MPKI: 0.22148
LLC PREFETCH DATA	ACCESS:     152761  HIT:     143212  MISS:       9549  HIT %:    93.7491  MISS %:    6.25094  MPKI: 0.19098
LLC WRITEBACK DATA	ACCESS:      84899  HIT:      84575  MISS:        324  HIT %:    99.6184  MISS %:    0.38163  MPKI: 0.00648
LLC LOAD TRANSLATION DATA	ACCESS:       1163  HIT:       1070  MISS:         93  HIT %:    92.0034  MISS %:    7.99656  MPKI: 0.00186
LLC TRANSLATION FROM L1D PREFETCHER DATA	ACCESS:         13  HIT:         11  MISS:          2  HIT %:    84.6154  MISS %:    15.3846  MPKI: 4e-05

LLC AVERAGE MISS LATENCY: 158.217 cycles
LLC RQ	ACCESS:     305637	FORWARD:          0	MERGED:          0	TO_CACHE:     305635
LLC WQ	ACCESS:      84899	FORWARD:          2	MERGED:          0	TO_CACHE:      84899
LLC PQ	ACCESS:     252281	FORWARD:          0	MERGED:          0	TO_CACHE:     252281

LLC Dense regions hint to LLC: 0

RAW hits: 1854073
Loads Generated: 12740642
Loads sent to L1D: 10886568
Stores Generated: 6957586
Stores sent to L1D: 6957598
Major fault: 0 Minor fault: 2555
Allocated PAGES: 2555

stream: 
stream:times selected: 1118651
stream:pref_filled: 112707
stream:pref_useful: 21814
stream:pref_late: 7980
stream:misses: 5972
stream:misses_by_poll: 0

CS: 
CS:times selected: 163776
CS:pref_filled: 54234
CS:pref_useful: 31219
CS:pref_late: 8862
CS:misses: 17110
CS:misses_by_poll: 1

CPLX: 
CPLX:times selected: 953645
CPLX:pref_filled: 18179
CPLX:pref_useful: 3455
CPLX:pref_late: 3648
CPLX:misses: 84369
CPLX:misses_by_poll: 0

NL_L1: 
NL:times selected: 19033
NL:pref_filled: 571
NL:pref_useful: 215
NL:pref_late: 197
NL:misses: 790
NL:misses_by_poll: 0

total selections: 2255105
total_filled: 80326
total_useful: 29606
total_late: 21909
total_polluted: 1
total_misses_after_warmup: 684682
conflicts: 5744935

test: 118774

DRAM Statistics
 CHANNEL 0
 RQ ROW_BUFFER_HIT:       8778  ROW_BUFFER_MISS:      16305
 DBUS_CONGESTED:         15
 WQ ROW_BUFFER_HIT:       1345  ROW_BUFFER_MISS:      10629  FULL:          0

 AVG_CONGESTED_CYCLE: 6

CPU 0 Branch Prediction Accuracy: 99.8142% MPKI: 0.34676 Average ROB Occupancy at Mispredict: 158.081
Branch types
NOT_BRANCH: 40668624 81.3372%
BRANCH_DIRECT_JUMP: 550522 1.10104%
BRANCH_INDIRECT: 180198 0.360396%
BRANCH_CONDITIONAL: 6211450 12.4229%
BRANCH_DIRECT_CALL: 1021695 2.04339%
BRANCH_INDIRECT_CALL: 172711 0.345422%
BRANCH_RETURN: 1194406 2.38881%
BRANCH_OTHER: 0 0%

DRAM PAGES: 1048576
Allocated PAGES: 2555
Average_ROB_Occupancy: 144.897
Average_Decode_Occupancy: 16.319
Average_FTQ_Occupancy: 6.67986
Indirect max targets: 14 Average targets: 1.17981
Branch_type:  BRANCH_DIRECT_JUMP:  Count Percentage: 3.51883 4.82301 3.34978 8.43137 8.25386 5.88989 4.57344 61.1598 
Branch_type:  BRANCH_INDIRECT:  Count Percentage: 11.0281 3.21184 2.31017 18.4054 12.4856 2.64283 2.97136 46.9447 
Branch_type:  BRANCH_CONDITIONAL:  Count Percentage: 20.0361 2.44915 2.24138 9.14932 3.02301 4.22902 1.15979 57.7122 
Branch_type:  BRANCH_DIRECT_CALL:  Count Percentage: 0.348109 1.64048 0.638573 3.69267 2.06227 2.53535 3.09631 85.9862 
Branch_type:  BRANCH_INDIRECT_CALL:  Count Percentage: 8.95544 0 2.80752 0.00465399 0 2.13705 3.14115 82.9542 
Branch_type:  BRANCH_RETURN:  Count Percentage: 3.57183 1.69715 0.92131 8.44241 4.76302 4.79477 2.32511 73.4844 
Branch_type:  BRANCH_DIRECT_JUMP:  Total Count: 38675 53009 36817 92668 90717 64735 50266 672199 
Branch_type:  BRANCH_INDIRECT:  Total Count: 40080 11673 8396 66892 45377 9605 10799 170614 
Branch_type:  BRANCH_CONDITIONAL:  Total Count: 2481525 303334 277601 1133168 374408 523776 143643 7147816 
Branch_type:  BRANCH_DIRECT_CALL:  Total Count: 6836 32215 12540 72515 40498 49788 60804 1688559 
Branch_type:  BRANCH_INDIRECT_CALL:  Total Count: 30788 0 9652 16 0 7347 10799 285189 
Branch_type:  BRANCH_RETURN:  Total Count: 82454 39178 21268 194889 109952 110685 53674 1696352 
To Predecode: 23309015 Predecode_something: 35993289 Conditional: 15420945 Direct call: 9078587 Direct Branch: 3785380
Number of unique branch instructions: 10867
Upper 32 bits: 
aaaa
ffff
ffff0000
Unique upper 32 bits: 3
Unique upper 36 bits: 3
Unique upper 40 bits: 5
Unique upper 44 bits: 32
Unique upper 48 bits: 159
Offset_3 4515
Offset_4 261
Offset_5 485
Offset_6 540
Offset_7 646
Offset_8 581
Offset_9 534
Offset_10 424
Offset_11 361
Offset_12 324
Offset_13 237
Offset_14 249
Offset_15 194
Offset_16 229
Offset_17 173
Offset_18 153
Offset_19 265
Offset_20 140
Offset_21 235
Offset_22 415
Offset_23 241
Offset_24 352
Offset_25 118
Offset_47 96
Offset_64 2
decode_dispatch_called: 23022574 54.6755
Dispatch_width: 0 12224175 53.0965 29.0308
Dispatch_width: 1 750091 3.25807 1.78136
Dispatch_width: 2 873030 3.79206 2.07333
Dispatch_width: 3 595013 2.58448 1.41307
Dispatch_width: 4 2692114 11.6934 6.3934
Dispatch_width: 5 378773 1.64522 0.899534
Dispatch_width: 6 5509378 23.9303 13.084
Empty_decode_cycles: 19085099 45.3245
ROB_full_cycles: 3656235 8.68306
Starvation_cycles_per_kilo_instr: 329.421
Starvation_cycles_per_kilo_instr_3: 298.712
Starvation_cycles_per_kilo_instr_0: 276.53
Branch_type_1  (3,1)  (4,7)  (5,39)  (6,74)  (7,128)  (8,148)  (9,139)  (10,113)  (11,81)  (12,55)  (13,11)  (14,2)  (15,3)  (16,4)  (18,1)  (19,5)  (20,2)  (21,1)  (22,3)  (23,2)  (24,10)  (25,13)  (64,1) 
Branch_type_2  (3,1)  (4,1)  (5,1)  (8,4)  (9,4)  (10,1)  (12,1)  (13,1)  (14,1)  (16,3)  (17,2)  (20,2)  (21,2)  (23,5)  (24,1)  (47,44) 
Branch_type_3  (3,4513)  (4,253)  (5,441)  (6,450)  (7,488)  (8,364)  (9,295)  (10,170)  (11,140)  (12,62)  (13,10) 
Branch_type_4  (6,3)  (7,8)  (8,25)  (9,55)  (10,67)  (11,71)  (12,114)  (13,101)  (14,111)  (15,92)  (16,101)  (17,82)  (18,67)  (19,129)  (20,71)  (21,124)  (22,220)  (23,136)  (24,208)  (25,101) 
Branch_type_5  (8,3)  (9,1)  (10,4)  (11,6)  (12,3)  (13,14)  (14,17)  (15,11)  (16,22)  (17,11)  (18,23)  (19,15)  (20,11)  (21,13)  (22,43)  (23,26)  (24,37) 
Branch_type_6  (5,4)  (6,13)  (7,22)  (8,37)  (9,40)  (10,69)  (11,63)  (12,89)  (13,100)  (14,118)  (15,88)  (16,99)  (17,78)  (18,62)  (19,116)  (20,54)  (21,95)  (22,149)  (23,72)  (24,96)  (25,4)  (47,52)  (64,1) 
Unique trigger count: 
UBTB set used: 968
CBTB set used: 512
RIB set used: 470
UBTB PER SET UNIQUE ADDR: 5 4 5 2 3 2 4 4 4 2 1 6 4 4 3 4 0 0 2 1 4 3 3 3 4 1 0 3 2 3 2 4 2 2 3 2 4 5 1 3 2 1 3 0 6 2 4 4 3 3 3 2 4 0 4 4 4 1 4 1 2 4 5 0 4 5 1 3 2 4 4 1 5 3 4 1 4 1 2 6 3 6 5 2 4 0 3 2 3 2 3 3 4 3 6 4 5 4 7 0 6 7 1 3 2 4 6 1 3 2 5 5 5 6 4 2 1 2 2 6 0 5 0 4 3 3 2 1 8 3 5 2 5 2 1 3 5 2 3 5 7 1 3 3 1 6 2 1 5 1 5 3 3 5 3 2 6 4 6 5 3 4 5 4 4 2 3 3 2 3 0 3 5 1 3 1 3 5 0 3 4 3 1 2 5 3 2 3 3 3 2 4 6 1 3 3 3 2 2 1 3 5 0 1 3 2 2 4 1 0 3 2 5 1 1 5 1 3 2 2 1 0 2 2 1 0 4 4 3 5 2 2 4 4 4 4 4 3 1 8 3 3 4 3 2 1 4 3 1 6 2 4 0 2 2 2 4 2 1 2 6 2 2 3 3 2 2 5 2 1 0 3 2 4 4 1 4 6 3 6 5 4 2 2 4 1 5 4 6 1 4 0 4 5 6 1 2 2 1 3 4 3 4 2 2 0 2 0 0 0 3 2 3 4 2 3 5 2 3 1 3 3 5 2 2 2 3 3 1 3 4 4 5 1 5 4 4 2 1 2 6 5 2 3 1 2 4 3 2 4 2 3 2 1 3 5 4 1 1 1 3 1 1 2 5 3 3 2 4 1 5 4 3 1 0 2 1 0 3 4 3 2 3 1 1 3 1 5 2 2 1 5 2 3 1 7 1 2 1 2 2 6 4 3 3 6 2 4 2 4 2 4 5 3 3 0 3 2 3 3 0 3 0 1 2 3 2 3 3 1 3 1 3 4 1 4 4 3 5 5 2 4 1 3 4 6 2 5 0 2 4 2 2 3 1 2 5 6 5 5 6 5 3 8 5 1 0 5 2 3 1 1 5 3 4 3 2 3 3 1 5 2 2 3 6 2 3 4 0 1 3 1 2 5 1 3 4 3 4 5 8 3 3 4 2 5 1 2 1 5 2 5 5 3 4 4 2 4 6 2 3 6 3 2 0 2 1 4 3 4 6 4 4 3 3 4 6 4 2 2 7 1 7 2 1 3 2 4 7 5 2 3 1 3 1 6 4 0 2 1 7 2 2 2 3 1 3 6 3 5 1 0 1 3 4 2 4 4 8 2 4 3 4 2 4 3 2 3 4 5 4 5 3 1 5 1 4 4 3 5 3 4 6 2 6 3 5 4 2 2 8 6 2 5 3 6 2 1 2 7 6 1 5 3 1 3 2 3 3 2 4 2 7 3 3 3 5 2 3 3 5 4 1 0 3 3 2 3 0 1 3 2 3 1 3 4 4 2 2 2 3 7 6 2 2 3 0 4 2 3 2 1 1 2 2 2 4 5 5 1 3 5 2 4 4 2 0 4 0 1 2 3 1 2 1 1 2 3 2 1 4 4 2 4 2 1 3 3 4 1 3 6 3 4 1 5 2 3 3 3 0 1 0 1 1 3 3 3 2 2 2 1 3 1 2 4 4 5 1 3 4 5 0 1 6 6 3 4 6 3 5 5 4 2 2 3 3 5 0 2 2 5 4 2 4 2 0 4 5 4 5 4 3 2 2 1 3 4 1 2 2 2 2 3 2 2 4 3 3 1 2 4 3 1 2 1 3 0 3 3 6 2 1 3 2 4 0 0 3 1 2 5 0 6 1 0 5 0 2 6 2 3 3 3 2 1 2 3 1 1 6 1 2 1 0 1 7 1 4 2 1 2 3 2 4 4 1 5 2 5 2 7 4 4 2 2 7 1 2 8 4 4 3 6 1 2 2 3 4 6 4 3 4 2 2 5 5 3 2 1 2 3 5 2 2 3 5 3 2 4 2 4 4 5 5 2 5 1 3 4 4 2 8 5 3 4 2 5 2 2 4 1 3 6 5 5 2 1 3 3 5 2 2 4 6 4 3 3 1 3 2 6 2 1 5 5 3 1 5 6 4 1 1 4 3 2 6 1 2 6 3 1 3 3 1 5 4 5 1 7 4 4 5 3 5 5 1 4 1 0 0 4 5 3 3 3 4 2 4 6 0 2 2 2 3 3 2 3 2 5 1 2 7 2 1 5 3 2 1 1 1 4 4 0 2 1 4 4 3 3 2 4 1 3 6 3 0 4 5 3 8 3 7 1 
CBTB PER SET UNIQUE ADDR: 7 16 13 10 12 14 8 7 14 5 14 11 9 8 15 8 10 14 10 11 10 6 6 8 11 15 14 13 10 10 10 7 16 7 8 13 11 7 16 8 12 12 9 8 10 20 7 11 12 14 5 12 14 8 11 12 13 13 13 9 8 13 13 9 12 13 12 10 11 10 12 12 6 13 11 13 15 14 15 12 7 13 9 11 12 14 12 14 9 10 13 9 11 13 14 8 16 15 12 9 7 19 10 13 9 14 17 13 8 14 6 11 13 13 12 12 11 12 15 12 12 7 7 11 9 17 9 8 11 10 11 21 9 11 8 10 9 8 12 14 11 10 10 8 12 11 7 14 16 11 13 18 4 10 12 3 9 5 10 13 9 6 14 13 5 6 5 5 12 7 11 8 16 7 10 12 7 11 4 13 8 9 6 10 10 12 12 12 6 5 6 15 12 10 7 8 14 15 12 10 10 15 8 9 8 12 10 6 7 14 10 6 6 12 9 11 17 7 6 3 13 12 8 11 7 10 10 10 11 14 9 8 13 11 9 12 13 13 7 6 13 10 10 8 8 9 11 5 12 5 9 9 14 11 9 5 12 13 10 14 9 13 13 8 12 13 6 9 12 11 6 11 11 10 12 13 10 8 10 4 14 11 13 11 11 8 11 3 8 16 12 11 11 5 14 8 7 17 7 12 8 10 10 15 11 18 6 8 8 9 9 12 10 11 15 9 8 12 7 11 9 8 15 17 10 6 14 11 12 9 12 13 10 8 10 9 12 9 10 15 10 9 8 11 8 13 13 4 10 8 9 11 6 13 13 9 9 12 9 8 13 8 5 8 7 14 11 8 7 12 7 9 13 11 9 15 11 14 12 8 12 12 15 12 10 9 4 16 13 16 10 10 13 14 12 12 9 12 6 8 14 5 9 15 8 7 7 8 15 11 10 13 15 12 10 12 9 8 13 7 7 13 14 19 6 15 8 8 15 12 9 13 9 11 11 6 6 14 15 11 14 10 14 5 13 15 8 10 13 10 15 11 13 13 11 11 12 12 10 19 9 9 10 13 11 11 9 4 8 13 10 10 16 12 11 13 8 12 12 11 8 11 11 13 14 8 13 13 7 14 15 13 7 18 5 12 17 5 8 13 9 18 16 9 13 9 12 11 13 13 12 13 
RIB PER SET UNIQUE ADDR: 2 6 5 1 3 3 2 2 1 2 2 4 3 3 1 1 4 2 1 2 2 1 5 4 1 3 2 2 1 0 3 0 1 4 4 3 1 5 1 2 2 3 3 1 2 4 2 3 4 1 0 3 2 3 0 2 2 4 3 2 2 1 2 1 4 6 3 0 2 1 2 3 1 2 3 0 2 4 6 3 0 1 4 4 1 1 0 4 4 2 0 1 3 2 3 4 3 3 0 0 2 2 1 5 0 2 5 2 3 4 2 1 1 5 2 2 0 5 2 7 4 1 3 4 2 2 1 2 1 4 2 3 4 4 1 3 1 2 5 4 1 2 3 5 3 3 5 2 4 1 3 2 2 2 2 1 4 1 0 2 3 1 1 2 3 0 0 2 4 2 1 1 3 1 1 4 0 3 2 2 3 0 3 2 6 1 3 4 2 1 1 3 4 1 2 3 3 0 4 2 3 2 3 3 1 5 2 4 1 5 2 2 2 3 3 0 5 0 4 2 3 3 2 1 2 4 2 3 1 1 2 4 1 5 1 3 2 2 3 4 2 0 3 1 5 3 5 0 3 2 3 0 2 2 1 4 5 2 1 1 1 0 3 2 4 2 0 3 4 3 1 2 0 1 4 3 1 2 2 1 2 2 2 1 3 1 2 5 2 2 2 6 1 2 3 5 1 3 3 2 3 2 3 4 3 4 3 3 2 3 3 5 1 1 0 3 2 3 2 3 3 4 5 5 1 3 3 4 1 1 4 4 4 5 6 2 3 0 2 2 0 1 7 2 5 4 7 2 0 5 3 3 4 1 5 1 6 3 6 2 0 2 3 1 5 6 1 0 4 3 2 4 2 3 4 3 1 3 0 1 2 1 3 2 0 5 2 1 3 2 2 4 2 4 1 2 4 7 3 4 2 1 1 1 3 3 4 1 3 1 2 1 3 1 2 3 5 1 1 0 1 4 4 2 2 6 0 1 4 1 2 1 2 2 3 2 3 5 2 3 1 4 4 3 5 3 3 1 1 6 4 1 2 3 2 4 1 2 2 4 3 1 2 2 4 4 3 5 1 0 3 0 2 1 3 2 2 9 6 3 3 2 0 5 1 1 3 0 1 4 2 4 0 5 1 1 3 2 3 2 4 2 3 4 3 1 1 3 3 2 2 2 
UBTB PER SET COUNT: 5 4 5 2 3 2 4 4 4 2 1 2226 4 4 3 4 0 0 2 1 4 3 3 3 4 1 0 3 2 3 2 4 2 2 3 2 4 260 1 3 2 1 3 0 2654 2 4 4 3 3 3 2 4 0 4 4 4 1 4 1 2 4 1997 0 4 7 1 3 2 4 4 1 379 3 4 1 4 1 2 899 3 33 1074 2 4 0 3 2 3 2 3 3 4 3 13 4 1179 4 2666 0 2654 38 1 3 2 4 2656 1 3 2 888 30 5 8 4 2 1 2 2 24 0 1328 0 4 3 3 2 1 2656 3 6 2 1536 2 1 3 1331 2 3 6 16 1 3 3 1 7 2 1 6 1 26 3 3 1697 3 2 1772 4 1332 8 3 4 8 4 4 2 3 3 2 3 0 3 7 1 3 1 3 15 0 3 4 3 1 2 6 3 2 3 3 3 2 4 2446 1 3 3 3 2 2 1 3 1329 0 1 3 2 2 4 1 0 3 2 7 1 1 6 1 3 2 2 1 0 2 2 1 0 4 4 3 7 2 2 4 4 4 4 4 3 1 2190 3 3 4 3 2 1 4 3 1 1332 2 4 0 2 2 2 4 2 1 2 10 2 2 3 3 2 2 1330 2 1 0 3 2 4 4 1 4 948 3 596 547 4 2 2 4 1 6 4 951 1 4 0 4 5 2655 1 2 2 1 3 4 3 4 2 2 0 2 0 0 0 3 2 3 4 2 3 9 2 3 1 3 3 7 2 2 2 3 3 1 3 4 4 8 1 21 4 4 2 1 2 977 22 2 3 1 2 4 3 2 4 2 3 2 1 3 5 4 1 1 1 3 1 1 2 7 3 3 2 4 1 66 4 3 1 0 2 1 0 3 4 3 2 3 1 1 3 1 1304 2 2 1 6 2 3 1 4195 1 2 1 2 2 7393 4 3 3 5626 2 4 2 4 2 4 1218 3 3 0 3 2 3 3 0 3 0 1 2 3 2 3 3 1 3 1 3 4 1 4 4 3 1772 93 2 4 1 3 4 3828 2 943 0 2 4 2 2 3 1 2 5 2313 935 22 1984 8 3 3112 5 1 0 7 2 3 1 1 6 3 4 3 2 3 3 1 5 2 2 3 5129 2 3 4 0 1 3 1 2 36 1 3 4 3 4 14 2660 3 3 4 2 8 1 2 1 5 2 7 7 3 4 4 2 4 1334 2 3 8 3 2 0 2 1 4 3 4 947 4 4 3 3 4 14 4 2 2 2214 1 6081 2 1 3 2 4 2667 9 2 3 1 3 1 2656 4 0 2 1 1783 2 2 2 3 1 3 18 3 5 1 0 1 3 4 2 4 4 3099 2 4 3 4 2 4 3 2 3 4 1179 4 1178 3 1 13 1 4 4 3 722 3 4 2272 2 29 3 28 4 2 2 4698 2214 2 18 3 2541 2 1 2 3097 10 1 13 3 1 3 2 3 3 2 4 2 3097 3 3 3 8 2 3 3 2213 4 1 0 3 3 2 3 0 1 3 2 3 1 3 4 4 2 2 2 3 2662 2215 2 2 3 0 4 2 3 2 1 1 2 2 2 4 12 8 1 3 7 2 4 4 2 0 4 0 1 2 3 1 2 1 1 2 3 2 1 4 4 2 4 2 1 3 3 4 1 3 1772 3 4 1 9 2 3 3 3 0 1 0 1 1 3 3 3 2 2 2 1 3 1 2 4 4 1772 1 3 4 8 0 1 1775 3808 3 4 2655 3 944 888 4 2 2 3 3 14 0 2 2 11 4 2 4 2 0 4 7 4 8 4 3 2 2 1 3 4 1 2 2 2 2 3 2 2 4 3 3 1 2 4 3 1 2 1 3 0 3 3 2214 2 1 3 2 4 0 0 3 1 2 944 0 2213 1 0 1769 0 2 4164 2 3 3 3 2 1 2 3 1 1 2213 1 2 1 0 1 2656 1 4 2 1 2 3 2 4 4 1 7 2 7 2 2216 4 4 2 2 3114 1 2 5462 4 4 3 1774 1 2 2 3 4 12 4 3 4 2 2 1771 7 3 2 1 2 3 10 2 2 3 9 3 2 4 2 4 4 1329 1771 2 8 1 3 4 4 2 2179 5 3 4 2 22 2 2 4 1 3 7379 8 6 2 1 3 3 18 2 2 4 776 4 3 3 1 3 2 2005 2 1 22 1537 3 1 6 10 4 1 1 4 3 2 1099 1 2 3548 3 1 3 3 1 718 4 1348 1 2656 4 4 1772 3 3803 6 1 4 1 0 0 4 7 3 3 3 4 2 4 2654 0 2 2 2 3 3 2 3 2 1332 1 2 6458 2 1 324 3 2 1 1 1 4 4 0 2 1 4 4 3 3 2 4 1 3 14 3 0 4 1772 3 2592 3 2681 1 
CBTB PER SET COUNT: 8 1030 84 153 18 19 11 12 4239 5 7081 3547 12 11 126 29 1350 39 24 1385 2234 11 8 148 2386 6208 6212 44 468 14 611 7 9231 1332 2221 35 31 10 6091 10 19 1787 22 19 20 6582 12 1776 26 7789 8 7353 4703 13 2223 3359 24 19 2698 38 16 2234 71 10 547 3780 2221 18 2450 3103 53 34 23 1435 30 4653 7848 52 48 2230 4254 4701 14 1788 3101 35 38 8787 522 37 4247 13 23 193 25 47 1075 1794 24 944 8 2043 1344 6912 12 2666 6043 1379 10 3574 14 4190 39 3563 43 39 204 2220 53 2075 2226 1570 12 731 24 1797 21 44 42 22 3120 9731 1074 16 11 1790 11 28 2221 20 21 7401 25 12 4205 2128 12 5104 7894 5580 7361 13373 4 834 4696 3 1343 8 20 43 17 11 5234 6092 5 7 5 6 2669 17 7848 13 8603 10 46 2231 452 27 4 1195 853 723 8 16 5418 1036 42 28 11 5 6 8801 8274 19 7 25 2766 6912 2806 14 1340 5069 2217 26 1311 38 24 7 1863 8706 1779 6 10 2671 11 36 7868 7 12 3 1796 26 20 1563 9 24 46 19 29 3512 24 10 4568 1768 15 1982 34 4235 11 9 32 21 203 9 1778 20 1790 5 741 7 10 9 1367 4706 18 8 1350 5157 282 2228 19 2228 1784 23 1361 1350 7 2485 1583 2661 23 23 37 38 2654 1578 780 1421 2263 4 32 1777 80 2222 16 101 2679 3 6024 8731 983 25 45 10 3341 1334 18 58 1777 27 31 17 12 6964 71 9243 17 12 1336 18 2385 139 2222 2212 6004 1678 6515 54 716 4083 5071 26 2691 6092 13 7 571 372 208 26 2666 1353 24 20 1783 707 3764 868 2232 3632 1838 188 15 28 10 29 6647 4 1547 10 12 25 6 9171 4699 21 1784 2984 1989 1338 753 13 9 8 663 3021 2661 32 14 734 1792 17 965 54 3756 2226 1353 3349 4016 11 7012 28 4779 29 2220 12 4 57 30 4451 1349 24 7823 9720 3748 2234 4466 3332 12 14 3582 6 4201 2675 12 15 12 11 11422 19 2221 6186 59 4700 9660 2380 25 34 2027 35 13 4736 2275 11061 12 2672 23 11 5651 313 18 5196 67 122 42 10 9 33 2921 29 4265 17 3762 5 4675 2037 15 1356 1383 115 3473 6035 1805 1344 17 33 3555 3830 913 9676 2228 1778 572 1383 7405 744 11 4 1439 2266 1274 902 944 39 2215 25 11 2460 5747 30 13 26 1366 10551 615 26 49 1781 12 7213 4189 5974 10 6847 6 2269 2683 5 10 2225 621 4118 2260 17 1278 11 23 19 32 2226 2685 27 
RIB PER SET COUNT: 2 22 11 1 3 3 2 2 1 2 2 4 3 3 1 1 4 2 1 2 2 1 1770 4 1 3 2 2 1 0 3 0 1 4 4 3 1 2211 1 2 2 3 3 1 2 4 2 3 4 1 0 3 2 3 0 2 2 4 3 2 2 1 2 1 4 1780 3 0 2 1 2 3 1 2 3 0 2 4 6 3 0 1 4 4 1 1 0 4 4 2 0 1 3 2 3 4 3 3 0 0 2 2 1 9 0 2 2211 2 3 4 2 1 1 11 2 2 0 11 2 1791 4 1 3 4 2 2 1 2 1 4 2 3 4 4 1 3 1 2 18 4 1 2 3 11 3 3 8 2 4 1 3 2 2 2 2 1 4 1 0 2 3 1 1 2 3 0 0 2 4 2 1 1 3 1 1 4 0 3 2 2 3 0 3 2 1776 1 3 4 2 1 1 3 4 1 2 3 3 0 4 2 3 2 3 3 1 21 2 4 1 22 2 2 2 3 3 0 888 0 4 2 3 3 2 1 2 4 2 3 1 1 2 4 1 9 1 3 2 2 3 4 2 0 3 1 392 3 19 0 3 2 3 0 2 2 1 4 9 2 1 1 1 0 3 2 4 2 0 3 4 3 1 2 0 1 4 3 1 2 2 1 2 2 2 1 3 1 2 1330 2 2 2 1328 1 2 3 721 1 3 3 2 3 2 3 4 3 4 3 3 2 3 3 23 1 1 0 3 2 3 2 3 3 4 3804 1330 1 3 3 4 1 1 4 4 4 1330 6015 2 3 0 2 2 0 1 3980 2 1179 4 1338 2 0 18 3 3 4 1 10 1 3251 3 17 2 0 2 3 1 7 1398 1 0 4 3 2 4 2 3 4 3 1 3 0 1 2 1 3 2 0 14 2 1 3 2 2 4 2 4 1 2 4 3716 3 4 2 1 1 1 3 3 4 1 3 1 2 1 3 1 2 3 19 1 1 0 1 4 4 2 2 6016 0 1 4 1 2 1 2 2 3 2 3 6 2 3 1 4 4 3 888 3 3 1 1 20 4 1 2 3 2 4 1 2 2 4 3 1 2 2 4 4 3 1771 1 0 3 0 2 1 3 2 2 6152 2656 3 3 2 0 2316 1 1 3 0 1 4 2 4 0 14 1 1 3 2 3 2 4 2 3 4 3 1 1 3 3 2 2 2 
