
*** ChampSim Multicore Out-of-Order Simulator ***

Warmup Instructions: 50000000
Simulation Instructions: 50000000
Number of CPUs: 1
LLC sets: 2048
LLC ways: 16
Off-chip DRAM Size: 4096 MB Channels: 1 Width: 64-bit Data Rate: 6400 MT/s
CPU 0 runs ./micro_traces/srv307.trace.gz
.gz
ITLB has LRU replacement policy
DTLB has LRU replacement policy
STLB has LRU replacement policy
SN4L + DIS + BTB Prefetcher for L1I CPU 0
srv307.cond
L1I has LRU replacement policy
L1D has LRU replacement policy
Initialize SRRIP state for L2C
Initialize DRRIP state for LLC
Heartbeat CPU 0 instructions: 10000002 cycles: 2800599 heartbeat IPC: 3.57067 cumulative IPC: 3.57067 (Simulation time: 0 hr 1 min 46 sec) 
Heartbeat CPU 0 instructions: 20000003 cycles: 5598257 heartbeat IPC: 3.57442 cumulative IPC: 3.57254 (Simulation time: 0 hr 3 min 29 sec) 
Heartbeat CPU 0 instructions: 30000003 cycles: 8396981 heartbeat IPC: 3.57306 cumulative IPC: 3.57271 (Simulation time: 0 hr 5 min 12 sec) 
Heartbeat CPU 0 instructions: 40000003 cycles: 11194991 heartbeat IPC: 3.57397 cumulative IPC: 3.57303 (Simulation time: 0 hr 6 min 51 sec) 
Heartbeat CPU 0 instructions: 50000002 cycles: 13992549 heartbeat IPC: 3.57455 cumulative IPC: 3.57333 (Simulation time: 0 hr 8 min 29 sec) 

Warmup complete CPU 0 instructions: 50000002 cycles: 13992549 (Simulation time: 0 hr 8 min 29 sec) 

Cycle: 20000000 FTQ IN: 57023999 FTQ occupancy: 18.4498 DECODE IN: 57023999 DECODE occupancy: 47.3421 ROB IN: 57023988 ROB occupancy: 287.64 ROB OUT: 57023976
Heartbeat CPU 0 instructions: 60000002 cycles: 22491395 heartbeat IPC: 1.17663 cumulative IPC: 1.17663 (Simulation time: 0 hr 9 min 56 sec) 
Cycle: 30000000 FTQ IN: 11971231 FTQ occupancy: 7.73237 DECODE IN: 11971179 DECODE occupancy: 17.7485 ROB IN: 11971190 ROB occupancy: 148.016 ROB OUT: 11971066
Heartbeat CPU 0 instructions: 70000000 cycles: 30837535 heartbeat IPC: 1.19816 cumulative IPC: 1.1873 (Simulation time: 0 hr 11 min 23 sec) 
Heartbeat CPU 0 instructions: 80000000 cycles: 39297971 heartbeat IPC: 1.18197 cumulative IPC: 1.18552 (Simulation time: 0 hr 12 min 49 sec) 
Cycle: 40000000 FTQ IN: 11845173 FTQ occupancy: 7.81615 DECODE IN: 11845225 DECODE occupancy: 17.8136 ROB IN: 11845225 ROB occupancy: 147.197 ROB OUT: 11845143
Heartbeat CPU 0 instructions: 90000003 cycles: 47842913 heartbeat IPC: 1.17028 cumulative IPC: 1.18167 (Simulation time: 0 hr 14 min 19 sec) 
Cycle: 50000000 FTQ IN: 11734724 FTQ occupancy: 7.64001 DECODE IN: 11734662 DECODE occupancy: 17.4045 ROB IN: 11734662 ROB occupancy: 144.406 ROB OUT: 11734872
Heartbeat CPU 0 instructions: 100000000 cycles: 56222221 heartbeat IPC: 1.19342 cumulative IPC: 1.184 (Simulation time: 0 hr 15 min 47 sec) 
Finished CPU 0 instructions: 50000001 cycles: 42229673 cumulative IPC: 1.184 (Simulation time: 0 hr 15 min 47 sec) 

ChampSim completed all CPUs

Region of Interest Statistics

CPU 0 cumulative IPC: 1.184 instructions: 50000001 cycles: 42229673
 Fetch stage stalled: 67.7381  Sim cycles: 42229673 fetch stall cycle: 28605588
 Empty decode stage: 56.0401  Sim cycles: 42229673 fetch stall cycle: 23665550
ITLB TOTAL     ACCESS:    8100355  HIT:    7551744  MISS:     548611  HIT %:    93.2273  MISS %:    6.77268   MPKI: 10.9722
ITLB LOAD TRANSLATION INSTRUCTION	ACCESS:    5527687  HIT:    5053979  MISS:     473708  HIT %:    91.4303  MISS %:    8.56973  MPKI: 9.47416
ITLB TRANSLATION FROM L1D PREFETCHER INSTRUCTION	ACCESS:    2572668  HIT:    2497765  MISS:      74903  HIT %:    97.0885  MISS %:    2.91149  MPKI: 1.49806

ITLB AVERAGE MISS LATENCY: 360624 cycles
ITLB RQ	ACCESS:   11216133	FORWARD:          0	MERGED:    2622594	TO_CACHE:    8593539

DTLB TOTAL     ACCESS:    9218114  HIT:    8747475  MISS:     470639  HIT %:    94.8944  MISS %:    5.10559   MPKI: 9.41278
DTLB LOAD TRANSLATION DATA	ACCESS:    9218114  HIT:    8747475  MISS:     470639  HIT %:    94.8944  MISS %:    5.10559  MPKI: 9.41278

DTLB AVERAGE MISS LATENCY: 9.36138 cycles
DTLB RQ	ACCESS:   13526048	FORWARD:          0	MERGED:    4273181	TO_CACHE:    9252867

STLB TOTAL     ACCESS:    1270241  HIT:    1268126  MISS:       2115  HIT %:    99.8335  MISS %:   0.166504   MPKI: 0.0423
STLB LOAD TRANSLATION INSTRUCTION	ACCESS:     468031  HIT:     467775  MISS:        256  HIT %:    99.9453  MISS %:  0.0546972  MPKI: 0.00512
STLB TRANSLATION FROM L1D PREFETCHER INSTRUCTION	ACCESS:      80580  HIT:      80555  MISS:         25  HIT %:     99.969  MISS %:  0.0310251  MPKI: 0.0005
STLB LOAD TRANSLATION DATA	ACCESS:     470426  HIT:     468612  MISS:       1814  HIT %:    99.6144  MISS %:   0.385608  MPKI: 0.03628
STLB TRANSLATION FROM L1D PREFETCHER DATA	ACCESS:     251204  HIT:     251184  MISS:         20  HIT %:     99.992  MISS %: 0.00796166  MPKI: 0.0004

STLB AVERAGE MISS LATENCY: 81.1035 cycles
STLB RQ	ACCESS:    1404989	FORWARD:          0	MERGED:     120239	TO_CACHE:    1284750

STLB Hit, L1D data hit: 0
STLB Hit, L2C data hit: 0
STLB Hit, LLC data hit: 0
STLB Hit, LLC data miss: 0
STLB STLB hints to L2: 0
L1D TOTAL     ACCESS:   13275210  HIT:   12163333  MISS:    1111877  HIT %:    91.6244  MISS %:    8.37559   MPKI: 22.2375
L1D LOAD DATA	ACCESS:    6727093  HIT:    5993090  MISS:     734003  HIT %:    89.0889  MISS %:    10.9111  MPKI: 14.6801
L1D RFO DATA	ACCESS:    6218480  HIT:    5933239  MISS:     285241  HIT %:     95.413  MISS %:    4.58699  MPKI: 5.70482
L1D PREFETCH DATA	ACCESS:     329637  HIT:     237004  MISS:      92633  HIT %:    71.8985  MISS %:    28.1015  MPKI: 1.85266

L1D PREFETCH  REQUESTED:     742902  ISSUED:     742902  USEFUL:      33718  USELESS:      67358
L1D USEFUL LOAD PREFETCHES:      33718 PREFETCH ISSUED TO LOWER LEVEL:     101166  ACCURACY: 33.3294
 TIMELY PREFETCHES:      33718 LATE PREFETCHES: 8472 DROPPED PREFETCHES: 10
L1D AVERAGE MISS LATENCY: 262207 cycles
L1D RQ	ACCESS:   10824085	FORWARD:          0	MERGED:    3898935	TO_CACHE:    6763950
L1D WQ	ACCESS:    6943592	FORWARD:     161552	MERGED:     181494	TO_CACHE:    6762098
L1D PQ	ACCESS:     371627	FORWARD:          0	MERGED:          0	TO_CACHE:     371275

L1D UNIQUE REGIONS ACCESSED: 0
L1D REGIONS CONFLICTS: 0
L1D Cross Page Prefetch Requests: 7003
L1D Same Page Prefetch Requests: 750135
L1D ROI Sum of L1D PQ occupancy: 4731082
L1D PREFETCHES PUSHED FROM L2C: 0
L1I TOTAL     ACCESS:   10651968  HIT:    7081784  MISS:    3570184  HIT %:    66.4833  MISS %:    33.5167   MPKI: 71.4037
L1I LOAD INSTRUCTION	ACCESS:    6480345  HIT:    4154707  MISS:    2325638  HIT %:    64.1124  MISS %:    35.8876  MPKI: 46.5128
L1I PREFETCH INSTRUCTION	ACCESS:    4171623  HIT:    2927077  MISS:    1244546  HIT %:    70.1664  MISS %:    29.8336  MPKI: 24.8909

L1I PREFETCH  REQUESTED:    4808529  ISSUED:    4808529  USEFUL:     600207  USELESS:     735485
L1I USEFUL LOAD PREFETCHES:     600207 PREFETCH ISSUED TO LOWER LEVEL:    1335719  ACCURACY: 44.9351
 TIMELY PREFETCHES:     600207 LATE PREFETCHES: 91174 DROPPED PREFETCHES: 31460
L1I AVERAGE MISS LATENCY: 899936 cycles
L1I RQ	ACCESS:    9469444	FORWARD:          0	MERGED:    2814715	TO_CACHE:    6654729
L1I PQ	ACCESS:    4808529	FORWARD:          0	MERGED:     247125	TO_CACHE:    4561404

L1BTB TOTAL     ACCESS:    5670078  HIT:    2051409  MISS:    3618669  HIT %:    36.1796  MISS %:    63.8204   MPKI: 72.3734
L1BTB BRANCH_DIRECT_JUMP	ACCESS:     548687  HIT:     145642  MISS:     403045	AVERAGE STALL: 37.7433
L1BTB BRANCH_INDIRECT	ACCESS:     183413  HIT:      66308  MISS:     117105	AVERAGE STALL: 89.224
L1BTB BRANCH_CONDITIONAL	ACCESS:    2713988  HIT:    1424700  MISS:    1289288	AVERAGE STALL: 38.4345
L1BTB BRANCH_DIRECT_CALL	ACCESS:     941311  HIT:     104657  MISS:     836654	AVERAGE STALL: 42.0612
L1BTB BRANCH_INDIRECT_CALL	ACCESS:     170683  HIT:      20678  MISS:     150005	AVERAGE STALL: 116.618
L1BTB BRANCH_RETURN	ACCESS:    1111996  HIT:     289424  MISS:     822572	AVERAGE STALL: 37.8067
L1BTB BRANCH_OTHER ACCESS:          0  HIT:          0  MISS:          0	AVERAGE STALL: -nan
L1BTB TOTAL ROB OCCUPANCY AT BTB MISS: 14.4224

L2BTB TOTAL     ACCESS:    3593170  HIT:    3167073  MISS:     426097  HIT %:    88.1415  MISS %:    11.8585   MPKI: 8.52194
L2BTB BRANCH_DIRECT_JUMP	ACCESS:     398822  HIT:     352540  MISS:      46282	AVERAGE STALL: 37.7433
L2BTB BRANCH_INDIRECT	ACCESS:     106822  HIT:     101643  MISS:       5179	AVERAGE STALL: 89.224
L2BTB BRANCH_CONDITIONAL	ACCESS:    1289288  HIT:    1148614  MISS:     140674	AVERAGE STALL: 38.4345
L2BTB BRANCH_DIRECT_CALL	ACCESS:     836654  HIT:     724982  MISS:     111672	AVERAGE STALL: 42.0612
L2BTB BRANCH_INDIRECT_CALL	ACCESS:     140406  HIT:     118749  MISS:      21657	AVERAGE STALL: 116.618
L2BTB BRANCH_RETURN	ACCESS:     821178  HIT:     720545  MISS:     100633	AVERAGE STALL: 37.8067
L2BTB BRANCH_OTHER ACCESS:          0  HIT:          0  MISS:          0	AVERAGE STALL: -nan
L2BTB TOTAL ROB OCCUPANCY AT BTB MISS: 122.484

L2C TOTAL     ACCESS:    6072984  HIT:    5062939  MISS:    1010045  HIT %:    83.3682  MISS %:    16.6318   MPKI: 20.2009
L2C LOAD INSTRUCTION	ACCESS:    2234464  HIT:    1938888  MISS:     295576  HIT %:     86.772  MISS %:     13.228  MPKI: 5.91152
L2C PREFETCH INSTRUCTION	ACCESS:    1335720  HIT:    1115763  MISS:     219957  HIT %:    83.5327  MISS %:    16.4673  MPKI: 4.39914
L2C LOAD TRANSLATION INSTRUCTION	ACCESS:        288  HIT:         88  MISS:        200  HIT %:    30.5556  MISS %:    69.4444  MPKI: 0.004
L2C TRANSLATION FROM L1D PREFETCHER INSTRUCTION	ACCESS:      20775  HIT:      19761  MISS:       1014  HIT %:    95.1191  MISS %:    4.88087  MPKI: 0.02028
L2C LOAD DATA	ACCESS:     725515  HIT:     590878  MISS:     134637  HIT %:    81.4426  MISS %:    18.5574  MPKI: 2.69274
L2C RFO DATA	ACCESS:     285143  HIT:     198530  MISS:      86613  HIT %:    69.6247  MISS %:    30.3753  MPKI: 1.73226
L2C PREFETCH DATA	ACCESS:     949396  HIT:     716971  MISS:     232425  HIT %:    75.5186  MISS %:    24.4814  MPKI: 4.6485
L2C WRITEBACK DATA	ACCESS:     519754  HIT:     481628  MISS:      38126  HIT %:    92.6646  MISS %:    7.33539  MPKI: 0.76252
L2C LOAD TRANSLATION DATA	ACCESS:       1881  HIT:        401  MISS:       1480  HIT %:    21.3184  MISS %:    78.6816  MPKI: 0.0296
L2C TRANSLATION FROM L1D PREFETCHER DATA	ACCESS:         48  HIT:         31  MISS:         17  HIT %:    64.5833  MISS %:    35.4167  MPKI: 0.00034

L2C PREFETCH  REQUESTED:    1384237  ISSUED:    1384237  USEFUL:      36194  USELESS:     420790
L2C USEFUL LOAD PREFETCHES:      36194 PREFETCH ISSUED TO LOWER LEVEL:     455573  ACCURACY: 7.94472
 TIMELY PREFETCHES:      36194 LATE PREFETCHES: 3192 DROPPED PREFETCHES: 0
L2C AVERAGE MISS LATENCY: 33.8328 cycles
L2C RQ	ACCESS:    3268169	FORWARD:          0	MERGED:          0	TO_CACHE:    3268114
L2C WQ	ACCESS:     519754	FORWARD:         55	MERGED:          0	TO_CACHE:     519754
L2C PQ	ACCESS:    2821122	FORWARD:          0	MERGED:     511653	TO_CACHE:    2309469

L2C Dense regions hint from L2: 0
PSCL5 TOTAL     ACCESS:      33178  HIT:      16589  MISS:      16589  HIT %:         50  MISS %:         50   MPKI: 0.33178
PSCL5 LOAD TRANSLATION INSTRUCTION	ACCESS:       4104  HIT:       2052  MISS:       2052  HIT %:         50  MISS %:         50  MPKI: 0.04104
PSCL5 TRANSLATION FROM L1D PREFETCHER INSTRUCTION	ACCESS:      29074  HIT:      14537  MISS:      14537  HIT %:         50  MISS %:         50  MPKI: 0.29074


PSCL4 TOTAL     ACCESS:      31889  HIT:      15940  MISS:      15949  HIT %:    49.9859  MISS %:    50.0141   MPKI: 0.31898
PSCL4 LOAD TRANSLATION INSTRUCTION	ACCESS:       2861  HIT:       1980  MISS:        881  HIT %:    69.2066  MISS %:    30.7934  MPKI: 0.01762
PSCL4 TRANSLATION FROM L1D PREFETCHER INSTRUCTION	ACCESS:      21019  HIT:      13960  MISS:       7059  HIT %:    66.4161  MISS %:    33.5839  MPKI: 0.14118
PSCL4 LOAD TRANSLATION DATA	ACCESS:       1108  HIT:          0  MISS:       1108  HIT %:          0  MISS %:        100  MPKI: 0.02216
PSCL4 TRANSLATION FROM L1D PREFETCHER DATA	ACCESS:       6901  HIT:          0  MISS:       6901  HIT %:          0  MISS %:        100  MPKI: 0.13802


PSCL3 TOTAL     ACCESS:      31967  HIT:      15979  MISS:      15988  HIT %:    49.9859  MISS %:    50.0141   MPKI: 0.31976
PSCL3 LOAD TRANSLATION INSTRUCTION	ACCESS:       2900  HIT:       2019  MISS:        881  HIT %:    69.6207  MISS %:    30.3793  MPKI: 0.01762
PSCL3 TRANSLATION FROM L1D PREFETCHER INSTRUCTION	ACCESS:      21019  HIT:      13960  MISS:       7059  HIT %:    66.4161  MISS %:    33.5839  MPKI: 0.14118
PSCL3 LOAD TRANSLATION DATA	ACCESS:       1147  HIT:          0  MISS:       1147  HIT %:          0  MISS %:        100  MPKI: 0.02294
PSCL3 TRANSLATION FROM L1D PREFETCHER DATA	ACCESS:       6901  HIT:          0  MISS:       6901  HIT %:          0  MISS %:        100  MPKI: 0.13802


PSCL2 TOTAL     ACCESS:      20758  HIT:      10324  MISS:      10434  HIT %:     49.735  MISS %:     50.265   MPKI: 0.20868
PSCL2 LOAD TRANSLATION INSTRUCTION	ACCESS:       2217  HIT:       1947  MISS:        270  HIT %:    87.8214  MISS %:    12.1786  MPKI: 0.0054
PSCL2 TRANSLATION FROM L1D PREFETCHER INSTRUCTION	ACCESS:      16706  HIT:       8377  MISS:       8329  HIT %:    50.1437  MISS %:    49.8563  MPKI: 0.16658
PSCL2 LOAD TRANSLATION DATA	ACCESS:       1787  HIT:          0  MISS:       1787  HIT %:          0  MISS %:        100  MPKI: 0.03574
PSCL2 TRANSLATION FROM L1D PREFETCHER DATA	ACCESS:         48  HIT:          0  MISS:         48  HIT %:          0  MISS %:        100  MPKI: 0.00096


LLC TOTAL     ACCESS:    1099968  HIT:    1069178  MISS:      30790  HIT %:    97.2008  MISS %:    2.79917   MPKI: 0.6158
LLC LOAD INSTRUCTION	ACCESS:     293267  HIT:     292397  MISS:        870  HIT %:    99.7033  MISS %:   0.296658  MPKI: 0.0174
LLC PREFETCH INSTRUCTION	ACCESS:     207510  HIT:     206866  MISS:        644  HIT %:    99.6897  MISS %:   0.310346  MPKI: 0.01288
LLC LOAD TRANSLATION INSTRUCTION	ACCESS:        200  HIT:        159  MISS:         41  HIT %:       79.5  MISS %:       20.5  MPKI: 0.00082
LLC TRANSLATION FROM L1D PREFETCHER INSTRUCTION	ACCESS:       1014  HIT:       1008  MISS:          6  HIT %:    99.4083  MISS %:   0.591716  MPKI: 0.00012
LLC LOAD DATA	ACCESS:     133782  HIT:     129928  MISS:       3854  HIT %:    97.1192  MISS %:    2.88081  MPKI: 0.07708
LLC RFO DATA	ACCESS:      86557  HIT:      72431  MISS:      14126  HIT %:    83.6801  MISS %:    16.3199  MPKI: 0.28252
LLC PREFETCH DATA	ACCESS:     248064  HIT:     237163  MISS:      10901  HIT %:    95.6056  MISS %:    4.39443  MPKI: 0.21802
LLC WRITEBACK DATA	ACCESS:     128077  HIT:     127844  MISS:        233  HIT %:    99.8181  MISS %:   0.181922  MPKI: 0.00466
LLC LOAD TRANSLATION DATA	ACCESS:       1480  HIT:       1365  MISS:        115  HIT %:    92.2297  MISS %:    7.77027  MPKI: 0.0023
LLC TRANSLATION FROM L1D PREFETCHER DATA	ACCESS:         17  HIT:         17  MISS:          0  HIT %:        100  MISS %:          0  MPKI: 0

LLC AVERAGE MISS LATENCY: 161.721 cycles
LLC RQ	ACCESS:     516345	FORWARD:          0	MERGED:          0	TO_CACHE:     516317
LLC WQ	ACCESS:     128077	FORWARD:         28	MERGED:          0	TO_CACHE:     128077
LLC PQ	ACCESS:     455573	FORWARD:          0	MERGED:          0	TO_CACHE:     455573

LLC Dense regions hint to LLC: 0

RAW hits: 1813324
Loads Generated: 12637411
Loads sent to L1D: 10824085
Stores Generated: 6943578
Stores sent to L1D: 6943592
Major fault: 0 Minor fault: 2597
Allocated PAGES: 2597
CPU 0 L1I prefetcher final stats
USEFUL PREFETCHES 1282120
USELESS PREFETCHES 1617596
MISSES TRACKED 2237374
MISSES OMITTED 2449303
2237374 2266017 4657023BRANCHES PENDING
22854542/32582681
To predecode: 9564947 predecoding_something: 356700571

stream: 
stream:times selected: 1189300
stream:pref_filled: 118524
stream:pref_useful: 22335
stream:pref_late: 8069
stream:misses: 8196
stream:misses_by_poll: 0

CS: 
CS:times selected: 179178
CS:pref_filled: 53621
CS:pref_useful: 30626
CS:pref_late: 11691
CS:misses: 21276
CS:misses_by_poll: 1

CPLX: 
CPLX:times selected: 1008859
CPLX:pref_filled: 18944
CPLX:pref_useful: 4033
CPLX:pref_late: 3686
CPLX:misses: 94900
CPLX:misses_by_poll: 0

NL_L1: 
NL:times selected: 20392
NL:pref_filled: 607
NL:pref_useful: 252
NL:pref_late: 351
NL:misses: 1813
NL:misses_by_poll: 0

total selections: 2397729
total_filled: 92633
total_useful: 33718
total_late: 25362
total_polluted: 1
total_misses_after_warmup: 770864
conflicts: 5601759

test: 116237

DRAM Statistics
 CHANNEL 0
 RQ ROW_BUFFER_HIT:      10763  ROW_BUFFER_MISS:      19785
 DBUS_CONGESTED:         12
 WQ ROW_BUFFER_HIT:       1717  ROW_BUFFER_MISS:      13044  FULL:          0

 AVG_CONGESTED_CYCLE: 6

CPU 0 Branch Prediction Accuracy: 99.8062% MPKI: 0.3542 Average ROB Occupancy at Mispredict: 138.029
Branch types
NOT_BRANCH: 40859491 81.719%
BRANCH_DIRECT_JUMP: 548687 1.09737%
BRANCH_INDIRECT: 183413 0.366826%
BRANCH_CONDITIONAL: 6184298 12.3686%
BRANCH_DIRECT_CALL: 941311 1.88262%
BRANCH_INDIRECT_CALL: 170683 0.341366%
BRANCH_RETURN: 1111996 2.22399%
BRANCH_OTHER: 0 0%

DRAM PAGES: 1048576
Allocated PAGES: 2597
Average_ROB_Occupancy: 147.402
Average_Decode_Occupancy: 17.6543
Average_FTQ_Occupancy: 7.7373
Indirect max targets: 14 Average targets: 1.17949
Branch_type:  BRANCH_DIRECT_JUMP:  Count Percentage: 2.13511 6.66011 4.42913 9.17952 2.14341 11.106 1.30623 63.0405 
Branch_type:  BRANCH_INDIRECT:  Count Percentage: 11.7665 3.41891 2.57045 0 1.33488 25.0078 2.26981 53.6317 
Branch_type:  BRANCH_CONDITIONAL:  Count Percentage: 25.0653 2.68223 1.66544 5.34076 1.33255 8.30764 0.6799 54.9262 
Branch_type:  BRANCH_DIRECT_CALL:  Count Percentage: 0.260656 1.74958 1.29739 4.71044 1.86053 2.83297 0.860961 86.4275 
Branch_type:  BRANCH_INDIRECT_CALL:  Count Percentage: 9.56943 0 2.99878 8.7333 0 2.55105 1.29145 74.856 
Branch_type:  BRANCH_RETURN:  Count Percentage: 7.69761 1.36257 1.17108 6.181 3.19112 9.15943 1.70725 69.5299 
Branch_type:  BRANCH_DIRECT_JUMP:  Total Count: 23407 73014 48556 100634 23498 121754 14320 691105 
Branch_type:  BRANCH_INDIRECT:  Total Count: 43130 12532 9422 0 4893 91666 8320 196587 
Branch_type:  BRANCH_CONDITIONAL:  Total Count: 3098451 331564 205874 660199 164724 1026951 84046 6789717 
Branch_type:  BRANCH_DIRECT_CALL:  Total Count: 4910 32957 24439 88731 35047 53365 16218 1628042 
Branch_type:  BRANCH_INDIRECT_CALL:  Total Count: 32744 0 10261 29883 0 8729 4419 256137 
Branch_type:  BRANCH_RETURN:  Total Count: 171406 30341 26077 137635 71058 203957 38016 1548253 
Number of unique branch instructions: 10693
Upper 32 bits: 
aaaa
ffff
ffff0000
Unique upper 32 bits: 3
Unique upper 36 bits: 3
Unique upper 40 bits: 5
Unique upper 44 bits: 32
Unique upper 48 bits: 157
Offset_3 4443
Offset_4 257
Offset_5 476
Offset_6 538
Offset_7 636
Offset_8 580
Offset_9 513
Offset_10 417
Offset_11 348
Offset_12 321
Offset_13 236
Offset_14 247
Offset_15 199
Offset_16 227
Offset_17 163
Offset_18 152
Offset_19 257
Offset_20 144
Offset_21 235
Offset_22 408
Offset_23 241
Offset_24 342
Offset_25 117
Offset_47 92
decode_dispatch_called: 20829721 49.3248
Dispatch_width: 0 10569022 50.7401 25.0275
Dispatch_width: 1 594961 2.85631 1.40887
Dispatch_width: 2 665543 3.19516 1.57601
Dispatch_width: 3 437970 2.10262 1.03711
Dispatch_width: 4 2156997 10.3554 5.10778
Dispatch_width: 5 299448 1.4376 0.709094
Dispatch_width: 6 6105780 29.3128 14.4585
Empty_decode_cycles: 21399952 50.6752
ROB_full_cycles: 3297078 7.80749
Starvation_cycles_per_kilo_instr: 328.268
Starvation_cycles_per_kilo_instr_3: 303.704
Starvation_cycles_per_kilo_instr_0: 286.719
Branch_type_1  (3,1)  (4,7)  (5,38)  (6,74)  (7,125)  (8,148)  (9,135)  (10,110)  (11,77)  (12,55)  (13,11)  (14,2)  (15,3)  (16,4)  (18,1)  (19,5)  (20,2)  (21,1)  (22,3)  (23,2)  (24,10)  (25,12) 
Branch_type_2  (3,1)  (4,1)  (5,1)  (8,4)  (9,4)  (10,1)  (12,1)  (13,1)  (14,1)  (16,3)  (17,2)  (20,2)  (21,2)  (23,5)  (24,1)  (47,41) 
Branch_type_3  (3,4441)  (4,249)  (5,433)  (6,447)  (7,480)  (8,362)  (9,281)  (10,167)  (11,135)  (12,62)  (13,10) 
Branch_type_4  (6,4)  (7,8)  (8,26)  (9,55)  (10,66)  (11,70)  (12,113)  (13,100)  (14,111)  (15,95)  (16,100)  (17,75)  (18,65)  (19,124)  (20,73)  (21,124)  (22,214)  (23,136)  (24,198)  (25,101) 
Branch_type_5  (8,3)  (9,1)  (10,4)  (11,5)  (12,3)  (13,14)  (14,16)  (15,11)  (16,22)  (17,11)  (18,23)  (19,14)  (20,11)  (21,13)  (22,43)  (23,26)  (24,37) 
Branch_type_6  (5,4)  (6,13)  (7,23)  (8,37)  (9,37)  (10,69)  (11,61)  (12,87)  (13,100)  (14,117)  (15,90)  (16,98)  (17,75)  (18,63)  (19,114)  (20,56)  (21,95)  (22,148)  (23,72)  (24,96)  (25,4)  (47,51) 
Unique trigger count: 
BTB PER SET UNIQUE ADDR: 3 4 3 3 1 1 3 2 4 0 2 0 5 3 1 3 3 2 4 5 3 4 2 3 4 5 1 4 3 2 6 6 4 4 5 2 1 6 5 2 4 4 4 7 6 4 4 4 6 3 3 2 3 1 0 3 4 3 3 3 1 4 2 3 1 4 5 4 3 5 5 1 1 4 2 3 3 7 2 4 2 3 1 4 3 4 2 5 3 3 6 5 3 5 3 0 4 4 2 3 4 4 3 3 4 2 1 2 3 2 2 2 3 6 2 6 2 5 4 1 5 4 2 0 1 2 2 2 7 6 6 2 4 3 6 5 2 2 3 3 5 4 4 3 3 5 3 5 5 4 3 9 3 5 4 1 4 4 5 3 5 6 5 4 7 5 2 2 9 3 3 3 5 3 1 2 4 5 7 1 3 4 7 4 7 7 4 1 2 3 5 3 3 4 4 4 4 3 3 6 3 2 4 2 3 3 2 5 3 1 2 4 5 4 4 2 3 5 4 0 1 3 2 4 4 2 4 3 0 4 8 4 3 4 3 4 5 3 2 3 1 0 7 4 11 8 1 3 4 5 3 2 1 4 2 7 3 5 4 3 4 4 4 2 3 7 3 2 4 2 3 2 2 4 4 3 2 2 3 4 4 3 5 2 5 5 4 3 1 1 0 3 1 7 2 1 4 3 2 2 3 3 2 2 4 2 4 2 7 5 4 1 3 2 5 2 7 6 2 3 4 7 3 5 2 3 2 7 1 1 5 0 2 5 5 2 4 5 6 0 4 0 1 5 5 3 1 6 5 5 4 8 6 3 5 3 2 0 5 1 2 6 2 4 7 5 1 1 2 2 3 2 3 4 4 4 3 5 4 4 6 3 2 6 3 3 5 2 6 1 5 5 4 2 3 1 5 0 1 3 4 2 4 2 2 4 3 2 1 1 1 3 5 4 2 3 6 3 1 3 1 1 4 5 5 6 3 0 2 6 1 2 8 3 5 5 3 3 4 0 3 4 5 3 5 6 2 3 3 3 4 3 1 3 5 1 1 3 7 3 3 3 4 6 2 3 6 3 3 3 0 4 5 3 3 1 4 5 2 1 2 1 2 2 0 4 3 1 6 1 5 2 4 4 1 5 3 3 2 2 5 1 1 2 1 2 2 2 2 3 3 2 5 8 2 1 2 5 4 6 4 4 4 3 6 6 1 6 6 4 5 3 4 6 3 5 2 1 4 1 2 5 6 3 6 2 8 3 7 9 4 6 3 6 1 3 3 1 4 4 7 3 5 3 2 1 4 3 3 7 3 2 3 7 2 2 3 4 1 5 5 2 2 0 1 0 0 9 4 2 6 7 2 2 3 3 6 2 4 2 6 2 6 7 1 4 4 4 2 2 5 3 2 2 2 3 2 0 3 1 4 4 8 2 2 4 3 5 2 3 5 4 3 3 5 5 3 5 3 3 8 1 4 4 1 0 4 4 3 4 3 2 5 2 3 0 5 3 2 3 6 2 5 4 5 3 5 3 2 3 5 5 4 4 5 6 3 3 3 3 3 2 5 2 5 3 5 3 4 3 1 5 2 3 3 3 6 4 5 5 0 6 0 3 3 3 4 1 3 1 3 3 3 2 2 1 8 2 0 3 2 0 1 1 1 3 1 4 2 4 6 5 2 2 3 4 8 3 2 2 2 3 2 4 2 2 4 2 3 2 0 2 1 4 2 2 3 6 4 1 3 3 1 5 4 4 8 3 2 2 5 4 0 3 3 4 5 2 1 3 4 4 0 3 8 6 3 4 0 3 2 4 2 1 4 7 7 2 2 3 5 3 4 3 5 3 3 5 2 3 1 4 4 0 5 4 1 2 0 4 5 2 4 2 2 2 3 2 4 4 3 1 3 2 5 2 2 2 5 3 2 2 3 4 2 4 7 5 5 2 6 3 5 4 5 4 3 2 4 4 2 6 2 1 8 3 3 4 5 3 1 3 3 6 4 0 2 3 5 4 3 6 4 5 6 3 2 3 3 5 5 3 3 4 2 1 6 4 2 1 5 2 1 4 5 5 4 5 3 5 5 4 1 3 1 5 0 2 6 2 6 5 5 3 4 1 3 2 5 8 5 4 9 7 6 4 6 4 2 7 4 2 1 4 4 6 5 5 4 4 6 1 5 5 2 4 6 6 4 2 3 3 4 5 2 6 9 5 6 3 3 4 0 6 7 1 7 5 1 3 7 5 3 5 2 1 2 4 4 2 5 4 2 7 5 5 4 5 3 5 3 3 5 2 2 5 4 3 3 4 5 3 4 4 6 2 5 3 2 5 5 2 10 5 3 3 3 2 2 3 4 7 6 2 3 2 3 2 3 1 3 2 4 4 3 4 5 5 4 6 0 3 3 4 4 4 2 1 3 2 3 1 1 1 4 1 2 3 3 4 1 8 5 3 2 1 10 1 2 4 1 2 6 5 3 7 2 5 4 6 3 5 3 2 1 1 5 1 4 4 3 8 4 1 6 4 6 2 4 4 5 3 5 8 4 4 6 1 4 5 7 4 3 2 4 3 6 6 3 6 6 6 4 3 4 5 1 2 3 5 1 3 2 1 3 5 2 3 5 2 2 5 4 2 5 1 7 3 3 2 3 1 3 5 3 4 3 4 2 6 2 3 7 3 4 5 3 5 2 8 3 5 3 8 6 2 6 1 5 2 1 2 4 4 3 1 3 4 3 1 2 3 4 4 3 2 3 4 2 5 2 5 4 5 0 5 4 3 2 6 7 1 8 0 1 4 5 2 5 1 3 3 4 1 1 2 4 5 3 4 1 4 3 6 5 1 4 3 3 6 9 4 3 7 5 5 1 1 3 5 6 3 2 2 3 3 4 4 5 3 0 4 2 3 6 8 5 3 3 5 1 2 6 3 4 1 3 2 6 8 2 3 3 3 4 5 2 5 6 6 5 3 1 5 4 2 4 3 4 4 3 4 7 3 5 4 3 5 5 2 1 7 4 4 3 3 3 2 3 2 2 2 5 4 2 3 5 2 1 3 3 7 4 2 3 4 2 4 3 3 4 3 2 0 4 2 3 2 4 3 4 4 2 1 2 6 1 4 2 4 2 3 6 1 1 5 5 3 3 4 5 2 3 4 5 5 4 4 4 3 3 3 2 3 5 2 4 1 4 0 8 3 3 6 4 4 5 7 3 2 3 3 2 3 4 1 4 2 4 3 0 6 1 5 3 3 3 5 3 2 5 3 3 2 4 1 6 3 0 3 3 1 1 4 1 5 3 3 6 3 2 2 2 3 2 2 7 2 3 5 3 3 3 4 2 2 5 0 2 3 4 3 2 2 2 0 3 0 4 2 4 4 2 3 2 1 2 6 4 2 6 1 3 4 2 2 5 5 2 2 6 0 1 2 3 1 1 2 3 3 5 3 1 1 8 2 1 4 1 6 1 4 3 3 6 2 4 2 1 3 3 1 2 3 5 2 3 3 1 3 0 5 2 3 3 0 4 3 5 3 5 3 3 4 1 3 2 2 2 2 5 0 2 3 3 3 4 1 3 3 2 10 7 2 3 2 4 1 1 3 6 2 3 0 3 2 4 2 3 5 6 6 8 0 4 2 8 4 4 5 4 8 2 4 8 3 0 6 4 3 3 5 3 3 2 1 2 5 2 2 3 3 2 3 6 3 5 4 6 1 1 5 6 3 3 5 5 4 6 2 5 5 2 6 4 3 3 2 3 6 5 3 2 3 3 3 4 4 2 3 3 2 3 1 3 7 0 2 2 3 3 4 5 3 4 2 5 1 2 2 6 2 4 5 6 1 1 7 2 4 2 3 4 7 2 3 2 4 6 2 5 3 5 3 5 9 4 4 3 5 1 5 3 3 2 3 1 2 2 4 4 3 2 4 3 5 4 2 4 9 0 3 2 4 4 4 3 4 3 6 4 4 1 5 3 3 4 3 3 0 3 5 0 7 2 6 6 1 4 3 2 0 4 2 3 5 3 6 2 3 2 2 3 5 6 1 4 3 0 3 2 4 5 3 2 3 5 2 3 2 6 4 4 1 5 3 0 2 4 1 1 8 2 0 4 2 4 3 2 3 6 3 3 6 1 5 4 6 2 6 5 3 3 2 7 1 4 1 3 3 4 4 3 4 2 1 2 5 0 3 0 3 5 6 2 2 5 2 3 3 3 1 3 2 4 2 4 2 5 3 2 3 1 2 3 3 3 2 3 3 2 1 1 2 2 5 1 5 1 6 4 3 3 2 5 1 2 3 4 4 3 4 5 6 3 3 3 3 3 2 0 3 2 0 0 1 2 2 4 2 5 2 2 3 4 1 1 3 3 2 2 8 3 2 7 6 3 2 5 2 3 6 3 3 4 3 4 1 2 4 6 4 2 4 3 2 4 3 5 7 3 3 0 4 1 0 2 3 0 4 4 6 1 3 4 7 5 0 2 2 4 3 5 2 3 2 8 3 2 3 3 7 2 7 3 4 6 0 1 3 1 4 4 2 0 2 3 4 6 5 1 0 3 4 6 1 1 1 3 6 2 1 5 5 3 3 5 4 0 6 3 6 2 1 2 2 1 2 5 1 3 3 3 3 4 1 5 3 5 2 4 2 1 3 6 4 4 0 
BTB PER SET COUNT: 3 4 3 1480 1 2 821 2 4 0 2 0 3890 9 1 5 4 22 1439 5279 3 492 4 3 9 7078 1 5 1468 2 3729 2279 5 4 5409 229 2932 3214 4074 2 5 6243 1692 2233 5821 4 4 4 1605 3 1890 3443 3 1 0 3 5 3 4 854 3 4 972 491 1 395 502 5 3 1017 854 2922 1 9010 2 991 1468 764 2 16 2 3 1 4 4 10 2 9 3 3 3017 2413 3 3860 3 0 939 8 2 3 516 1711 3818 3 8 3 1 2941 763 2 2 2 100 2575 2733 2460 840 1330 4 1 6 4 2 0 1 2 11 2 2254 11 19032 2 4114 6 1000 7 1888 2 7 3 4030 7 5 5 6 11 5 6289 8 54 3 7006 3 10313 12 1 4 4 999 10045 4642 1744 5 1471 17 1949 83 2 14291 244 3 3 877 30 1 5467 4 8 987 4 480 34 7423 431 4016 2161 1443 1 1301 6 45 871 3 7 1540 3052 36 3 240 3213 4412 723 2319 2 4 3 2 1476 2025 1 958 7 14 4 4 1756 3 177 8673 0 1 832 2 4 4688 2 99 44 0 2102 13939 4 3 4 978 4 8 105 2 3 1 0 2478 4 9259 5956 759 3 4 5 6988 2 1 979 2 3811 4 7 4 4 931 670 1737 2 1598 2044 3 14000 536 2 3 2 3 4 1881 6531 2 2 3 481 79154 3 1980 15359 1735 10292 5 3 1 1 0 1777 1 90 4 3838 960 3001 3 2 3 3 2 2 5 2 14 2 1984 1004 2454 7995 3 2 1865 3 2483 1258 2 4 4 2955 3 1712 3 3 2 145 1 1 3586 0 2 16 1526 4 1053 347 2487 0 4 0 1 999 997 1470 1 7 4036 759 4 513 5027 13560 1034 3118 2 0 7 1 4 4113 1414 5 2594 2290 945 27 491 2 3434 2 3 4 4 2970 243 2962 998 4 28 452 2 80928 74 5 1450 2 10 1 3120 721 3140 462 3 1 8041 0 1 3 4 2 5 2 2 3606 2506 2 1 971 1 6291 15 5 972 1471 2421 1003 1 91 1 1 4 55 1524 8 15 0 2 6 2779 3385 8995 3 3852 5655 3 3 6002 0 5 501 3962 391 8 2384 3039 2342 1328 1923 974 3 1 4 1979 2 1 4 17377 3 3 3 4 1995 2 1541 2324 3 4 6027 0 9 37 497 3 1 79 997 2 1 2706 1 2 4857 0 3680 14 1 445 1 5 2 2213 10058 1 35 5 2453 2 2 3197 7 1 5 1 3 2 313 755 3 5 2 7 532 5 2076 1467 5405 5 516 5 1471 1691 13 1055 4270 1 1981 4911 4 6 6859 18 1179 1468 503 2 2 8 1 3 1490 180 735 1709 9 78 4 1009 13626 4693 2099 8985 2963 1 3 10 1 1471 1240 16416 3 1998 4 2 1 4 1894 3 3935 111 3 3 6407 2 2 1085 4 2 24 1621 46 3 0 2 0 0 6464 8781 2 2025 2977 3 2 973 719 10 2 1632 2 4086 715 3013 8563 1 4 5 1472 5 2 2473 3 2 2 976 3 3369 0 2479 122 5 499 3470 4339 7 4 3 11 2 1365 4273 5445 3 14 3234 6 3 2551 3 3 3494 1 4 4 1 0 6 10 12 4 4 2 975 15701 4 0 8 489 758 3 12381 952 57 5 1984 5 4871 998 3 3 6663 6 6883 8 1486 3045 411 3 4 3 5072 1757 5 993 6176 3 3865 1468 4 1471 16 3039 2 5 2397 3 5887 9 5126 34 0 4630 0 810 3 995 4 1 1670 2 3 4 5 2 993 1 2475 996 0 3 2 0 1 1 1 5 1 1694 1446 1986 5643 5289 973 2 3 498 13 66 2 2198 1497 3 4504 6661 3 3 500 2 3 1982 0 2 2 9 2 2 3 7841 2345 1 3 2142 2 35 547 4 9435 3 3 1012 8 700 0 126 3 324 2893 3 3 4631 4 6 0 1526 4582 4889 5 1990 0 3 2 1610 2 1 5 2218 3461 979 2 3 8242 2488 273 1263 2244 4 4 19 2 944 1 1456 8 0 88 6 3 2 0 4 6 4852 2627 3 1949 1466 3 2 4 3098 49068 1 1960 2 4919 2 4 3 1727 6017 2 2 4 20884 2 9 2027 1564 12 2 18582 3691 2535 9 3133 4 7 3 33 4 2 6074 2 1 6328 973 7 5 1557 1058 1 982 1475 3718 5 0 4 1476 23 6 4 6324 5 7067 1190 3 2 213 1470 7 7 3 3 73 2 1 3893 4 5 989 1727 2 1 2027 28079 2348 5 4048 3 3497 3114 4 1 3 1 5649 0 2 1492 2406 54 12 1484 30 9 1467 955 2 4911 3157 7 502 6149 3833 9206 3110 2265 143 2 30 4 683 1 974 6 6381 1400 1486 57 4 806 1 7585 265 4958 4 8365 2029 12 3 973 499 499 4853 4 4917 2569 3379 8699 1479 3464 4 0 1158 9659 1 7307 3832 1 16 6924 1009 498 9 2 4 2 6 7 6017 2373 10335 2 3917 469 6 4 4914 3 1480 4 4 7 3755 2 4944 5 5 3 1482 4059 3101 5700 1365 1740 4 656 4 2 7 2896 2420 6266 1519 3 467 3 2 2 3 5 5126 1982 2 969 725 4 2 3 3 3 2 963 2239 4 4 890 1984 7808 6610 0 3 3 4 1469 396 790 9 7 3 310 1 4 1 1784 1 2 3 3 10 1555 4456 3005 12608 2 4 14040 1 2 6 991 2131 3698 1083 1004 5344 2147 24 4 3142 3 28 4 2 1 1 4901 1 4083 4 4 12205 1490 1 3558 2926 7285 313 504 6 37 3 2477 2832 4 3917 2950 481 4 6 10699 4 3 1803 4 3 7015 2485 2854 4461 20429 4132 4 3 344 6 1 3 3 13869 1689 3 2 1 3 9 537 4 512 2 2026 26 6 4914 1974 44 5549 3 761 214 3 1 23 3707 3 16801 4 4 2 25 2 7 1727 4034 5 1505 3 9218 2 6021 3 2432 3 3143 14926 2 5344 3614 2217 3150 1270 2 500 1373 3 1239 1287 3127 4 1 2 498 2968 6520 3 971 2384 15 2019 1485 1821 2923 4 3971 0 3092 4 3 2 41 16518 1 334 0 1 1491 4159 2 23 1 979 997 19 1 1 2 3345 2514 3 1385 505 1201 4 14928 11519 1 3931 754 3 3056 10863 1959 3919 8615 4716 3115 1 1 222 1979 2474 2779 2 2 2122 3 12 4 6026 3 0 1705 22532 4 3420 18911 7033 4 3 601 1 2 194 3 4 1 3 713 5310 8255 972 4 3 3 994 29 2 4590 1985 4015 990 736 1 4126 3826 2 3719 4814 4 4 956 358 7751 2158 1979 2935 497 3823 2481 2 1728 30788 4 3070 3 4 3 2 3 2 2 2 18 1337 2 218 1488 2 1 4295 1052 4480 7016 4 387 4 2 5 6 1447 5 3 3 0 4 6529 5747 2 5519 7032 689 4 2 4813 433 7178 1 8701 2 5 3 4 1659 1 1 9 9 973 3 1733 2481 2 1442 1987 8 8228 4 4 8 3 3 7090 3 3200 4462 2 5 1 2238 0 13166 2000 3 2968 443 4 2590 9261 2345 2 4 1034 2 182 1187 2 2905 1436 1470 5 0 19342 1 65 5 3 2721 199 4 2 4505 2164 3 1363 11 1 499 4 0 4 241 1 1 1365 1 14899 3 3 6194 684 2 2 2 3554 758 2 2967 2 3 1308 5 3 2079 971 2 3991 933 0 4 1656 5 1427 2 2 2 0 4 0 2565 2 2986 834 2 3948 990 503 11 12 5803 2 15359 1 3 5 2 497 10 212 4452 2 21519 0 1 2 490 4540 1 2 18783 5 2081 371 1 1 1439 2 518 4 1 7078 1 4401 4 385 1974 13 5388 103 1 185 6 1 2 6 1473 3 3 4 1 3 0 5972 2 3 6 0 5369 1935 2525 3 6329 3 3 2015 1 48 2 1457 2 2 7 0 2 3 3 3 9161 1 1191 973 2 4527 2977 7140 6 1469 996 1 1 4 1722 2 1039 0 2868 3 4 5 1950 1849 2473 17 5840 0 334 2 2952 4 164 8375 1489 7161 2 721 8374 491 0 5929 6254 3 3 4444 1225 240 3 1 2 979 3 1470 4 976 2 240 3358 5 4488 528 9058 2970 1 1232 37576 4 6 5872 8 2018 6299 4 2581 1979 2543 2481 3232 289 393 2 1934 2992 10 4366 5 7790 1773 3 5 5 2 20 5 2 4696 1 3 2627 0 2 2 2940 2249 6 3156 360 1029 3879 8608 1 2 3 4974 2 3346 3346 3086 1 1 6435 2 1294 2 3 996 1985 498 3 3118 3101 2971 2 502 3 6237 1150 7 9736 240 4 14663 2971 2924 2001 1470 6 2 1211 1 4 2 269 16756 1483 2 1289 3 17 1442 8789 164 3972 0 1469 2 1469 3388 4 4 4 4634 3384 91 2929 1 2474 6 5 693 3 3 0 498 4523 0 5344 356 1231 2483 755 6 3 2 0 3256 2 4 8224 3 8748 2 4 2 4 3 3717 7326 1 60 10043 0 3 239 4139 3348 973 2 4 1963 2 5 2 6585 5 4 496 10513 954 0 2 501 1466 1 6573 2169 0 8442 512 5 3 4 1957 3433 4 444 7746 1 5324 6394 4916 208 1981 2183 3 10 2 10829 1802 6903 1 4 1470 3368 5 3 3187 1905 1 2 476 0 3709 0 3 3082 3145 2 2 4787 1150 1670 7 973 1 15713 2 4 8065 4 1058 97 3 6342 3 206 2 1718 3 3 2912 3 3 2 1 2 155 2 1494 1 8 2870 11074 501 3 1216 9 15 1 2186 3722 753 1928 502 1035 1480 7549 12 3 3 3 4 2 0 3 3 0 0 1 237 474 4 17 2474 2 2 3 4 1 1 1019 3 5 1443 3230 13 186 3721 5205 1165 5 6 3 3 597 4 6 994 4 2322 1 2404 4 2652 994 2 4 3 25625 7 4 978 3341 1792 5 0 4 2421 0 2339 1587 0 5 1470 1014 1 3 6 2463 7 0 3268 2 6 4 608 1441 1090 970 6785 1960 612 4 1760 2482 4 31404 2913 5 15495 0 1 41 1 7 12873 324 0 699 2842 4 1520 9 3 0 600 5558 1520 2 1 1 3 6657 2 1 7703 8 3850 17 3431 1923 0 2492 3 6355 6 16623 1457 2 1 8 491 1 3 3 1803 961 5 2459 18 8 715 2 25926 9 1 3 1802 60 5 0 
