
*** ChampSim Multicore Out-of-Order Simulator ***

Warmup Instructions: 50000000
Simulation Instructions: 50000000
Number of CPUs: 1
LLC sets: 2048
LLC ways: 16
Off-chip DRAM Size: 4096 MB Channels: 1 Width: 64-bit Data Rate: 6400 MT/s
CPU 0 runs ./micro_traces/srv383.trace.gz
.gz
ITLB has LRU replacement policy
DTLB has LRU replacement policy
STLB has LRU replacement policy
FDIP Prefetcher at L1I
L1I has LRU replacement policy
L1D has LRU replacement policy
Initialize SRRIP state for L2C
Initialize DRRIP state for LLC
Heartbeat CPU 0 instructions: 10000002 cycles: 2796340 heartbeat IPC: 3.5761 cumulative IPC: 3.5761 (Simulation time: 0 hr 1 min 39 sec) 
Heartbeat CPU 0 instructions: 20000000 cycles: 5593122 heartbeat IPC: 3.57554 cumulative IPC: 3.57582 (Simulation time: 0 hr 3 min 15 sec) 
Heartbeat CPU 0 instructions: 30000002 cycles: 8389922 heartbeat IPC: 3.57552 cumulative IPC: 3.57572 (Simulation time: 0 hr 4 min 49 sec) 
Heartbeat CPU 0 instructions: 40000002 cycles: 11186037 heartbeat IPC: 3.57639 cumulative IPC: 3.57589 (Simulation time: 0 hr 6 min 26 sec) 
Heartbeat CPU 0 instructions: 50000003 cycles: 13981712 heartbeat IPC: 3.57695 cumulative IPC: 3.5761 (Simulation time: 0 hr 8 min 2 sec) 

Warmup complete CPU 0 instructions: 50000003 cycles: 13981712 (Simulation time: 0 hr 8 min 2 sec) 

Cycle: 20000000 FTQ IN: 56332003 FTQ occupancy: 17.6152 DECODE IN: 56331980 DECODE occupancy: 44.9906 ROB IN: 56331980 ROB occupancy: 271.349 ROB OUT: 56331980
Heartbeat CPU 0 instructions: 60000003 cycles: 23504205 heartbeat IPC: 1.05015 cumulative IPC: 1.05015 (Simulation time: 0 hr 9 min 19 sec) 
Cycle: 30000000 FTQ IN: 10392200 FTQ occupancy: 5.36298 DECODE IN: 10392084 DECODE occupancy: 10.4897 ROB IN: 10392024 ROB occupancy: 93.7679 ROB OUT: 10391676
Heartbeat CPU 0 instructions: 70000002 cycles: 33108940 heartbeat IPC: 1.04115 cumulative IPC: 1.04563 (Simulation time: 0 hr 10 min 38 sec) 
Cycle: 40000000 FTQ IN: 10561065 FTQ occupancy: 5.19746 DECODE IN: 10561198 DECODE occupancy: 10.2238 ROB IN: 10561255 ROB occupancy: 93.2736 ROB OUT: 10561603
Heartbeat CPU 0 instructions: 80000003 cycles: 42567818 heartbeat IPC: 1.05721 cumulative IPC: 1.04946 (Simulation time: 0 hr 11 min 57 sec) 
Cycle: 50000000 FTQ IN: 10477844 FTQ occupancy: 5.45986 DECODE IN: 10477799 DECODE occupancy: 10.6879 ROB IN: 10477802 ROB occupancy: 94.6881 ROB OUT: 10477765
Heartbeat CPU 0 instructions: 90000002 cycles: 52148289 heartbeat IPC: 1.04379 cumulative IPC: 1.04804 (Simulation time: 0 hr 13 min 14 sec) 
Cycle: 60000000 FTQ IN: 10503059 FTQ occupancy: 5.1524 DECODE IN: 10503101 DECODE occupancy: 10.0514 ROB IN: 10503094 ROB occupancy: 92.2209 ROB OUT: 10503077
Heartbeat CPU 0 instructions: 100000000 cycles: 61632803 heartbeat IPC: 1.05435 cumulative IPC: 1.04929 (Simulation time: 0 hr 14 min 27 sec) 
Finished CPU 0 instructions: 50000001 cycles: 47651092 cumulative IPC: 1.04929 (Simulation time: 0 hr 14 min 27 sec) 

ChampSim completed all CPUs

Region of Interest Statistics

CPU 0 cumulative IPC: 1.04929 instructions: 50000001 cycles: 47651092
 Fetch stage stalled: 74.323  Sim cycles: 47651092 fetch stall cycle: 35415710
 Empty decode stage: 80.884  Sim cycles: 47651092 fetch stall cycle: 38542126
ITLB TOTAL     ACCESS:    6038421  HIT:    5545559  MISS:     492862  HIT %:    91.8379  MISS %:     8.1621   MPKI: 9.85724
ITLB LOAD TRANSLATION INSTRUCTION	ACCESS:    5954687  HIT:    5461825  MISS:     492862  HIT %:    91.7231  MISS %:    8.27688  MPKI: 9.85724
ITLB TRANSLATION FROM L1D PREFETCHER INSTRUCTION	ACCESS:      83734  HIT:      83734  MISS:          0  HIT %:        100  MISS %:          0  MPKI: 0

ITLB AVERAGE MISS LATENCY: 9.05227 cycles
ITLB RQ	ACCESS:    7676124	FORWARD:          0	MERGED:    1369296	TO_CACHE:    6306828

DTLB TOTAL     ACCESS:    9609908  HIT:    9139461  MISS:     470447  HIT %:    95.1046  MISS %:    4.89544   MPKI: 9.40894
DTLB LOAD TRANSLATION DATA	ACCESS:    9609908  HIT:    9139461  MISS:     470447  HIT %:    95.1046  MISS %:    4.89544  MPKI: 9.40894

DTLB AVERAGE MISS LATENCY: 9.31921 cycles
DTLB RQ	ACCESS:   13852429	FORWARD:          0	MERGED:    4209413	TO_CACHE:    9643016

STLB TOTAL     ACCESS:    1213147  HIT:    1211182  MISS:       1965  HIT %:     99.838  MISS %:   0.161975   MPKI: 0.0393
STLB LOAD TRANSLATION INSTRUCTION	ACCESS:     492862  HIT:     492635  MISS:        227  HIT %:    99.9539  MISS %:  0.0460575  MPKI: 0.00454
STLB LOAD TRANSLATION DATA	ACCESS:     470411  HIT:     468694  MISS:       1717  HIT %:     99.635  MISS %:      0.365  MPKI: 0.03434
STLB TRANSLATION FROM L1D PREFETCHER DATA	ACCESS:     249874  HIT:     249853  MISS:         21  HIT %:    99.9916  MISS %: 0.00840424  MPKI: 0.00042

STLB AVERAGE MISS LATENCY: 75.2992 cycles
STLB RQ	ACCESS:    1336483	FORWARD:          0	MERGED:     123297	TO_CACHE:    1213186

STLB Hit, L1D data hit: 0
STLB Hit, L2C data hit: 0
STLB Hit, LLC data hit: 0
STLB Hit, LLC data miss: 0
STLB STLB hints to L2: 0
L1D TOTAL     ACCESS:   13627824  HIT:   12513313  MISS:    1114511  HIT %:    91.8218  MISS %:     8.1782   MPKI: 22.2902
L1D LOAD DATA	ACCESS:    7039496  HIT:    6305905  MISS:     733591  HIT %:    89.5789  MISS %:    10.4211  MPKI: 14.6718
L1D RFO DATA	ACCESS:    6254789  HIT:    5969038  MISS:     285751  HIT %:    95.4315  MISS %:    4.56852  MPKI: 5.71502
L1D PREFETCH DATA	ACCESS:     333539  HIT:     238370  MISS:      95169  HIT %:    71.4669  MISS %:    28.5331  MPKI: 1.90338

L1D PREFETCH  REQUESTED:     746684  ISSUED:     746684  USEFUL:      33891  USELESS:      68711
L1D USEFUL LOAD PREFETCHES:      33891 PREFETCH ISSUED TO LOWER LEVEL:     102624  ACCURACY: 33.0244
 TIMELY PREFETCHES:      33891 LATE PREFETCHES: 7424 DROPPED PREFETCHES: 5
L1D AVERAGE MISS LATENCY: 250203 cycles
L1D RQ	ACCESS:   11057598	FORWARD:          0	MERGED:    3819619	TO_CACHE:    7072776
L1D WQ	ACCESS:    6940768	FORWARD:     165539	MERGED:     161115	TO_CACHE:    6779653
L1D PQ	ACCESS:     373510	FORWARD:          0	MERGED:          0	TO_CACHE:     373174

L1D UNIQUE REGIONS ACCESSED: 0
L1D REGIONS CONFLICTS: 0
L1D Cross Page Prefetch Requests: 7059
L1D Same Page Prefetch Requests: 749419
L1D ROI Sum of L1D PQ occupancy: 4744065
L1D PREFETCHES PUSHED FROM L2C: 0
L1I TOTAL     ACCESS:    7144084  HIT:    4387093  MISS:    2756991  HIT %:    61.4088  MISS %:    38.5912   MPKI: 55.1398
L1I LOAD INSTRUCTION	ACCESS:    6766952  HIT:    4009961  MISS:    2756991  HIT %:     59.258  MISS %:     40.742  MPKI: 55.1398
L1I PREFETCH INSTRUCTION	ACCESS:     377132  HIT:     377132  MISS:          0  HIT %:        100  MISS %:          0  MPKI: 0

L1I PREFETCH  REQUESTED:     916772  ISSUED:     916772  USEFUL:          0  USELESS:          0
L1I USEFUL LOAD PREFETCHES:          0 PREFETCH ISSUED TO LOWER LEVEL:          0  ACCURACY: -nan
 TIMELY PREFETCHES:          0 LATE PREFETCHES: 0 DROPPED PREFETCHES: 0
L1I AVERAGE MISS LATENCY: 17.1168 cycles
L1I RQ	ACCESS:    9419135	FORWARD:          0	MERGED:    2395080	TO_CACHE:    7024055
L1I PQ	ACCESS:     916772	FORWARD:          0	MERGED:     264703	TO_CACHE:     652069

L1BTB TOTAL     ACCESS:    5672681  HIT:    2052114  MISS:    3620567  HIT %:    36.1754  MISS %:    63.8246   MPKI: 72.4113
L1BTB BRANCH_DIRECT_JUMP	ACCESS:     548746 HIT:     145892 MISS:     402854 AVERAGE STALL: 30.9431 AVERAGE FETCH STALL: 18.9451 AVERAGE FETCH QUEUE STALL: 5.03955 AVERAGE DECODE STALL: 6.0904 AVERAGE EXECUTE STALL: 1.10878e+15
L1BTB BRANCH_INDIRECT	ACCESS:     183450 HIT:      66470 MISS:     116980 AVERAGE STALL: 59.3364 AVERAGE FETCH STALL: 12.0084 AVERAGE FETCH QUEUE STALL: 4.52925 AVERAGE DECODE STALL: 5.99239 AVERAGE EXECUTE STALL: 35.8436
L1BTB BRANCH_CONDITIONAL	ACCESS:    2713843 HIT:    1423750 MISS:    1290093 AVERAGE STALL: 33.6184 AVERAGE FETCH STALL: 21.639 AVERAGE FETCH QUEUE STALL: 4.95623 AVERAGE DECODE STALL: 6.25802 AVERAGE EXECUTE STALL: 6.3581e+14
L1BTB BRANCH_DIRECT_CALL	ACCESS:     942466 HIT:     105012 MISS:     837454 AVERAGE STALL: 32.7909 AVERAGE FETCH STALL: 21.5418 AVERAGE FETCH QUEUE STALL: 4.81222 AVERAGE DECODE STALL: 5.66294 AVERAGE EXECUTE STALL: 8.88871e+14
L1BTB BRANCH_INDIRECT_CALL	ACCESS:     170853 HIT:      20790 MISS:     150063 AVERAGE STALL: 75.2544 AVERAGE FETCH STALL: 13.5684 AVERAGE FETCH QUEUE STALL: 2.30217 AVERAGE DECODE STALL: 5.52745 AVERAGE EXECUTE STALL: 53.3597
L1BTB BRANCH_RETURN	ACCESS:    1113323 HIT:     290200 MISS:     823123 AVERAGE STALL: 34.1165 AVERAGE FETCH STALL: 16.8203 AVERAGE FETCH QUEUE STALL: 2.33654 AVERAGE DECODE STALL: 4.74955 AVERAGE EXECUTE STALL: 3.62896e+14
L1BTB BRANCH_OTHER ACCESS:          0 HIT:          0 MISS:          0 AVERAGE STALL: -nan AVERAGE FETCH STALL: -nan AVERAGE FETCH QUEUE STALL: -nan AVERAGE DECODE STALL: -nan AVERAGE EXECUTE STALL: -nan
L1BTB TOTAL ROB OCCUPANCY AT BTB MISS: 2.13049

L2BTB TOTAL     ACCESS:    3595123  HIT:    3468958  MISS:     126165  HIT %:    96.4907  MISS %:    3.50934   MPKI: 2.5233
L2BTB BRANCH_DIRECT_JUMP	ACCESS:     398655 HIT:     386216 MISS:      12439 AVERAGE STALL: 30.9431 AVERAGE FETCH STALL: 18.9451 AVERAGE FETCH QUEUE STALL: 5.03955 AVERAGE DECODE STALL: 6.0904 AVERAGE EXECUTE STALL: 1.10878e+15
L2BTB BRANCH_INDIRECT	ACCESS:     106713 HIT:     103575 MISS:       3138 AVERAGE STALL: 59.3364 AVERAGE FETCH STALL: 12.0084 AVERAGE FETCH QUEUE STALL: 4.52925 AVERAGE DECODE STALL: 5.99239 AVERAGE EXECUTE STALL: 35.8436
L2BTB BRANCH_CONDITIONAL	ACCESS:    1290093 HIT:    1260845 MISS:      29248 AVERAGE STALL: 33.6184 AVERAGE FETCH STALL: 21.639 AVERAGE FETCH QUEUE STALL: 4.95623 AVERAGE DECODE STALL: 6.25802 AVERAGE EXECUTE STALL: 6.3581e+14
L2BTB BRANCH_DIRECT_CALL	ACCESS:     837454 HIT:     816683 MISS:      20771 AVERAGE STALL: 32.7909 AVERAGE FETCH STALL: 21.5418 AVERAGE FETCH QUEUE STALL: 4.81222 AVERAGE DECODE STALL: 5.66294 AVERAGE EXECUTE STALL: 8.88871e+14
L2BTB BRANCH_INDIRECT_CALL	ACCESS:     140480 HIT:     129355 MISS:      11125 AVERAGE STALL: 75.2544 AVERAGE FETCH STALL: 13.5684 AVERAGE FETCH QUEUE STALL: 2.30217 AVERAGE DECODE STALL: 5.52745 AVERAGE EXECUTE STALL: 53.3597
L2BTB BRANCH_RETURN	ACCESS:     821728 HIT:     772284 MISS:      49444 AVERAGE STALL: 34.1165 AVERAGE FETCH STALL: 16.8203 AVERAGE FETCH QUEUE STALL: 2.33654 AVERAGE DECODE STALL: 4.74955 AVERAGE EXECUTE STALL: 3.62896e+14
L2BTB BRANCH_OTHER ACCESS:          0 HIT:          0 MISS:          0 AVERAGE STALL: -nan AVERAGE FETCH STALL: -nan AVERAGE FETCH QUEUE STALL: -nan AVERAGE DECODE STALL: -nan AVERAGE EXECUTE STALL: -nan
L2BTB TOTAL ROB OCCUPANCY AT BTB MISS: 61.1389

L2C TOTAL     ACCESS:    4478259  HIT:    3997177  MISS:     481082  HIT %:    89.2574  MISS %:    10.7426   MPKI: 9.62164
L2C LOAD INSTRUCTION	ACCESS:    2756991  HIT:    2492648  MISS:     264343  HIT %:    90.4119  MISS %:     9.5881  MPKI: 5.28686
L2C LOAD TRANSLATION INSTRUCTION	ACCESS:        243  HIT:         64  MISS:        179  HIT %:    26.3374  MISS %:    73.6626  MPKI: 0.00358
L2C LOAD DATA	ACCESS:     726134  HIT:     645968  MISS:      80166  HIT %:    88.9599  MISS %:    11.0401  MPKI: 1.60332
L2C RFO DATA	ACCESS:     285711  HIT:     238162  MISS:      47549  HIT %:    83.3577  MISS %:    16.6423  MPKI: 0.95098
L2C PREFETCH DATA	ACCESS:     187067  HIT:     113978  MISS:      73089  HIT %:     60.929  MISS %:     39.071  MPKI: 1.46178
L2C WRITEBACK DATA	ACCESS:     520316  HIT:     505910  MISS:      14406  HIT %:    97.2313  MISS %:     2.7687  MPKI: 0.28812
L2C LOAD TRANSLATION DATA	ACCESS:       1759  HIT:        420  MISS:       1339  HIT %:    23.8772  MISS %:    76.1228  MPKI: 0.02678
L2C TRANSLATION FROM L1D PREFETCHER DATA	ACCESS:         38  HIT:         27  MISS:         11  HIT %:    71.0526  MISS %:    28.9474  MPKI: 0.00022

L2C PREFETCH  REQUESTED:      92676  ISSUED:      92676  USEFUL:       8119  USELESS:      65557
L2C USEFUL LOAD PREFETCHES:       8119 PREFETCH ISSUED TO LOWER LEVEL:      73531  ACCURACY: 11.0416
 TIMELY PREFETCHES:       8119 LATE PREFETCHES: 442 DROPPED PREFETCHES: 0
L2C AVERAGE MISS LATENCY: 38.0043 cycles
L2C RQ	ACCESS:    3770918	FORWARD:          0	MERGED:          0	TO_CACHE:    3770876
L2C WQ	ACCESS:     520316	FORWARD:         42	MERGED:          0	TO_CACHE:     520316
L2C PQ	ACCESS:     195300	FORWARD:          0	MERGED:       4076	TO_CACHE:     191224

L2C Dense regions hint from L2: 0
PSCL5 TOTAL     ACCESS:       3944  HIT:       1972  MISS:       1972  HIT %:         50  MISS %:         50   MPKI: 0.03944
PSCL5 LOAD TRANSLATION INSTRUCTION	ACCESS:       3868  HIT:       1934  MISS:       1934  HIT %:         50  MISS %:         50  MPKI: 0.03868
PSCL5 TRANSLATION FROM L1D PREFETCHER INSTRUCTION	ACCESS:         76  HIT:         38  MISS:         38  HIT %:         50  MISS %:         50  MPKI: 0.00076


PSCL4 TOTAL     ACCESS:       3848  HIT:       1921  MISS:       1927  HIT %:     49.922  MISS %:     50.078   MPKI: 0.03854
PSCL4 LOAD TRANSLATION INSTRUCTION	ACCESS:       2384  HIT:       1883  MISS:        501  HIT %:    78.9849  MISS %:    21.0151  MPKI: 0.01002
PSCL4 TRANSLATION FROM L1D PREFETCHER INSTRUCTION	ACCESS:         48  HIT:         38  MISS:         10  HIT %:    79.1667  MISS %:    20.8333  MPKI: 0.0002
PSCL4 LOAD TRANSLATION DATA	ACCESS:       1388  HIT:          0  MISS:       1388  HIT %:          0  MISS %:        100  MPKI: 0.02776
PSCL4 TRANSLATION FROM L1D PREFETCHER DATA	ACCESS:         28  HIT:          0  MISS:         28  HIT %:          0  MISS %:        100  MPKI: 0.00056


PSCL3 TOTAL     ACCESS:       3910  HIT:       1952  MISS:       1958  HIT %:    49.9233  MISS %:    50.0767   MPKI: 0.03916
PSCL3 LOAD TRANSLATION INSTRUCTION	ACCESS:       2415  HIT:       1914  MISS:        501  HIT %:    79.2547  MISS %:    20.7453  MPKI: 0.01002
PSCL3 TRANSLATION FROM L1D PREFETCHER INSTRUCTION	ACCESS:         48  HIT:         38  MISS:         10  HIT %:    79.1667  MISS %:    20.8333  MPKI: 0.0002
PSCL3 LOAD TRANSLATION DATA	ACCESS:       1419  HIT:          0  MISS:       1419  HIT %:          0  MISS %:        100  MPKI: 0.02838
PSCL3 TRANSLATION FROM L1D PREFETCHER DATA	ACCESS:         28  HIT:          0  MISS:         28  HIT %:          0  MISS %:        100  MPKI: 0.00056


PSCL2 TOTAL     ACCESS:       3888  HIT:       1916  MISS:       1972  HIT %:    49.2798  MISS %:    50.7202   MPKI: 0.03944
PSCL2 LOAD TRANSLATION INSTRUCTION	ACCESS:       2107  HIT:       1878  MISS:        229  HIT %:    89.1315  MISS %:    10.8685  MPKI: 0.00458
PSCL2 TRANSLATION FROM L1D PREFETCHER INSTRUCTION	ACCESS:         38  HIT:         38  MISS:          0  HIT %:        100  MISS %:          0  MPKI: 0
PSCL2 LOAD TRANSLATION DATA	ACCESS:       1705  HIT:          0  MISS:       1705  HIT %:          0  MISS %:        100  MPKI: 0.0341
PSCL2 TRANSLATION FROM L1D PREFETCHER DATA	ACCESS:         38  HIT:          0  MISS:         38  HIT %:          0  MISS %:        100  MPKI: 0.00076


LLC TOTAL     ACCESS:     539411  HIT:     511690  MISS:      27721  HIT %:    94.8609  MISS %:    5.13912   MPKI: 0.55442
LLC LOAD INSTRUCTION	ACCESS:     264343  HIT:     263424  MISS:        919  HIT %:    99.6523  MISS %:   0.347654  MPKI: 0.01838
LLC LOAD TRANSLATION INSTRUCTION	ACCESS:        179  HIT:        153  MISS:         26  HIT %:    85.4749  MISS %:    14.5251  MPKI: 0.00052
LLC LOAD DATA	ACCESS:      79732  HIT:      76317  MISS:       3415  HIT %:    95.7169  MISS %:     4.2831  MPKI: 0.0683
LLC RFO DATA	ACCESS:      47537  HIT:      34282  MISS:      13255  HIT %:    72.1165  MISS %:    27.8835  MPKI: 0.2651
LLC PREFETCH DATA	ACCESS:      73531  HIT:      63867  MISS:       9664  HIT %:    86.8572  MISS %:    13.1428  MPKI: 0.19328
LLC WRITEBACK DATA	ACCESS:      72739  HIT:      72376  MISS:        363  HIT %:     99.501  MISS %:   0.499045  MPKI: 0.00726
LLC LOAD TRANSLATION DATA	ACCESS:       1339  HIT:       1260  MISS:         79  HIT %:    94.1001  MISS %:    5.89993  MPKI: 0.00158
LLC TRANSLATION FROM L1D PREFETCHER DATA	ACCESS:         11  HIT:         11  MISS:          0  HIT %:        100  MISS %:          0  MPKI: 0

LLC AVERAGE MISS LATENCY: 153 cycles
LLC RQ	ACCESS:     393145	FORWARD:          0	MERGED:          0	TO_CACHE:     393141
LLC WQ	ACCESS:      72739	FORWARD:          4	MERGED:          0	TO_CACHE:      72739
LLC PQ	ACCESS:      73531	FORWARD:          0	MERGED:          0	TO_CACHE:      73531

LLC Dense regions hint to LLC: 0

RAW hits: 1576716
Loads Generated: 12634315
Loads sent to L1D: 11057598
Stores Generated: 6940765
Stores sent to L1D: 6940768
Major fault: 0 Minor fault: 2515
Allocated PAGES: 2515

stream: 
stream:times selected: 1186387
stream:pref_filled: 120456
stream:pref_useful: 24246
stream:pref_late: 6929
stream:misses: 7854
stream:misses_by_poll: 0

CS: 
CS:times selected: 179034
CS:pref_filled: 59602
CS:pref_useful: 35979
CS:pref_late: 6634
CS:misses: 15484
CS:misses_by_poll: 2

CPLX: 
CPLX:times selected: 1006256
CPLX:pref_filled: 20180
CPLX:pref_useful: 4464
CPLX:pref_late: 3195
CPLX:misses: 93612
CPLX:misses_by_poll: 0

NL_L1: 
NL:times selected: 20737
NL:pref_filled: 693
NL:pref_useful: 343
NL:pref_late: 251
NL:misses: 1669
NL:misses_by_poll: 0

total selections: 2392414
total_filled: 95169
total_useful: 33891
total_late: 18309
total_polluted: 2
total_misses_after_warmup: 766871
conflicts: 5751895

test: 116447

DRAM Statistics
 CHANNEL 0
 RQ ROW_BUFFER_HIT:      10247  ROW_BUFFER_MISS:      17103
 DBUS_CONGESTED:          3
 WQ ROW_BUFFER_HIT:       1403  ROW_BUFFER_MISS:      11417  FULL:          0

 AVG_CONGESTED_CYCLE: 6

CPU 0 Branch Prediction Accuracy: 99.8254% MPKI: 0.31926 Average ROB Occupancy at Mispredict: 97.5089
Branch types
NOT_BRANCH: 40854863 81.7097%
BRANCH_DIRECT_JUMP: 548746 1.09749%
BRANCH_INDIRECT: 183450 0.3669%
BRANCH_CONDITIONAL: 6185856 12.3717%
BRANCH_DIRECT_CALL: 942466 1.88493%
BRANCH_INDIRECT_CALL: 170853 0.341706%
BRANCH_RETURN: 1113323 2.22665%
BRANCH_OTHER: 0 0%

DRAM PAGES: 1048576
Allocated PAGES: 2515
Average_ROB_Occupancy: 94.2932
Average_Decode_Occupancy: 10.3214
Average_FTQ_Occupancy: 5.27107
Indirect max targets: 14 Average targets: 1.14915
Branch_type:  BRANCH_DIRECT_JUMP:  Count Percentage: 4.42257 6.15842 4.20875 3.01512 2.3229 12.5292 7.18707 60.156 
Branch_type:  BRANCH_INDIRECT:  Count Percentage: 13.7434 3.46106 2.53887 0 0 33.069 15.4852 31.7024 
Branch_type:  BRANCH_CONDITIONAL:  Count Percentage: 25.1044 3.41755 1.45266 5.34159 1.13912 9.44339 3.34503 50.7563 
Branch_type:  BRANCH_DIRECT_CALL:  Count Percentage: 0.388726 1.77073 0.740183 2.44448 1.92933 5.32781 2.48238 84.9164 
Branch_type:  BRANCH_INDIRECT_CALL:  Count Percentage: 9.56053 0 2.99696 0 0 4.04991 0.998113 82.3945 
Branch_type:  BRANCH_RETURN:  Count Percentage: 9.1786 2.01283 0.72287 5.59161 1.26031 11.627 3.14813 66.4586 
Branch_type:  BRANCH_DIRECT_JUMP:  Total Count: 48441 67454 46099 33025 25443 137234 78721 658897 
Branch_type:  BRANCH_INDIRECT:  Total Count: 50283 12663 9289 0 0 120990 56656 115990 
Branch_type:  BRANCH_CONDITIONAL:  Total Count: 3102566 422364 179530 660149 140780 1167077 413401 6272805 
Branch_type:  BRANCH_DIRECT_CALL:  Total Count: 7343 33449 13982 46176 36445 100642 46892 1604064 
Branch_type:  BRANCH_INDIRECT_CALL:  Total Count: 32778 0 10275 0 0 13885 3422 282487 
Branch_type:  BRANCH_RETURN:  Total Count: 204924 44939 16139 124840 28138 259588 70286 1483775 
Number of unique branch instructions: 9887
Upper 32 bits: 
aaaa
ffff
ffff0000
Unique upper 32 bits: 3
Unique upper 36 bits: 3
Unique upper 40 bits: 5
Unique upper 44 bits: 32
Unique upper 48 bits: 153
Offset_3 4079
Offset_4 244
Offset_5 449
Offset_6 500
Offset_7 579
Offset_8 515
Offset_9 465
Offset_10 377
Offset_11 318
Offset_12 283
Offset_13 203
Offset_14 228
Offset_15 189
Offset_16 219
Offset_17 144
Offset_18 126
Offset_19 235
Offset_20 139
Offset_21 235
Offset_22 389
Offset_23 241
Offset_24 331
Offset_25 88
Offset_47 82
decode_dispatch_called: 20718766 43.4801
Dispatch_width: 0 10388515 50.1406 21.8012
Dispatch_width: 1 624600 3.01466 1.31078
Dispatch_width: 2 820900 3.96211 1.72273
Dispatch_width: 3 580633 2.80245 1.21851
Dispatch_width: 4 1698614 8.19843 3.56469
Dispatch_width: 5 436066 2.10469 0.915123
Dispatch_width: 6 6169438 29.7771 12.9471
Empty_decode_cycles: 26932326 56.5199
ROB_full_cycles: 1676511 3.51831
Starvation_cycles_per_kilo_instr: 398.051
Starvation_cycles_per_kilo_instr_3: 376.705
Starvation_cycles_per_kilo_instr_0: 356.443
Branch_type_1  (3,1)  (4,7)  (5,36)  (6,69)  (7,115)  (8,127)  (9,124)  (10,98)  (11,72)  (12,51)  (13,5)  (14,2)  (15,3)  (16,4)  (18,1)  (19,4)  (20,2)  (21,1)  (22,3)  (23,2)  (24,10)  (25,12) 
Branch_type_2  (3,1)  (5,1)  (8,3)  (9,3)  (12,1)  (13,1)  (14,1)  (16,3)  (17,2)  (20,2)  (21,2)  (23,5)  (24,1)  (47,38) 
Branch_type_3  (3,4077)  (4,237)  (5,408)  (6,415)  (7,433)  (8,325)  (9,255)  (10,152)  (11,131)  (12,58)  (13,4) 
Branch_type_4  (6,4)  (7,8)  (8,26)  (9,51)  (10,60)  (11,59)  (12,95)  (13,88)  (14,101)  (15,89)  (16,98)  (17,64)  (18,57)  (19,114)  (20,72)  (21,124)  (22,207)  (23,136)  (24,193)  (25,72) 
Branch_type_5  (8,2)  (9,1)  (10,3)  (11,5)  (12,3)  (13,14)  (14,16)  (15,11)  (16,20)  (17,11)  (18,16)  (19,12)  (20,10)  (21,13)  (22,42)  (23,26)  (24,36) 
Branch_type_6  (5,4)  (6,12)  (7,23)  (8,32)  (9,31)  (10,64)  (11,51)  (12,75)  (13,91)  (14,108)  (15,86)  (16,94)  (17,67)  (18,52)  (19,105)  (20,53)  (21,95)  (22,137)  (23,72)  (24,91)  (25,4)  (47,44) 
aaaaab1fc620: 2ac9e77e 2aca717c 2aca8eff 2acaf6bc 2acaf9aa 2acaf9f1 2acb1abc 2acb1b7f 2acd4e22 2acdb712 2acf5f9e 2ad0ef44 2ad3f15c 2ad414e6 2ad60e42 2ad8609c 2ad99830 2ada35cc 2ada4676 2ada6612 2adf183e 2adf30e5 2adf5602 2adf785c 2ae11572 2aeb2dcf 2aee101b 2aee1ae1 2aee9456 2b156a8c 2b156b61 2b156bea 2b167f35 2b177656 2b17feec 2b1a3e5a 
aaaaab1fc740: 2aca1fb0 2aca45b3 2aca5aa1 2aca5c69 2aca66f9 2aca9426 2acaeecb 2acf3d2d 2acf3d64 2acf6089 2ad017ea 2ad5e7ef 2ad61064 2ad87373 2ad9bf84 2ad9c093 2ae9b606 2aea9ffa 2aee99f5 2aee9a2c 2aeece4b 
aaaaac68f310: 2ac9ec8c 2ac9fb44 2ac9fbd2 2aca59ab 2acac04c 2acaf6e0 2acaf6ec 2acaf6f9 2acaf700 2acaf708 2acf2d90 2ad3cfbd 2ad3cfc4 2ad3d000 2ad3f35f 2ad4955d 2ad49571 2ad4f3f2 2ad4f400 2ad5f240 2ad5f37c 2ad5f86a 2ad5f86f 2ad5f880 2ad5fc0d 2ad5fc14 2ad5fc21 2ad5fe1b 2ad873bb 2ad873e3 2ad8a6b2 2ad9086e 2ad93096 2ad9bbb2 2ada152c 2ada1554 2ada3332 2ada5522 2adf3130 2adf313c 2adf3a3f 2adf3bd9 2adf5788 2adf7a8d 2ae07f6b 2ae0857a 2ae0857e 2ae08630 2ae08634 2ae08637 2ae08642 2ae0866f 2ae086e4 2ae086ec 2ae08717 2ae0871b 2aee0170 2aee1d38 2aee75f4 2aee7662 2aee85ca 2aee85e4 2aee8eef 2aee9a0a 2af70b84 2af74e8f 2b17d843 
aaaaac690ef0: 2aca598b 2acb111b 2acb175f 2acb1772 2acbfaf4 2acbfb00 2acf374f 2acf6d43 2acfa5c8 2ad3baf1 2ad3d4ac 2ad3d4b8 2ad3f1cf 2ad486b2 2ad5a59b 2ad5fc64 2ad5fcf9 2ad6121c 2ad906e9 2ad907bf 2ad9bada 2ada16ce 2ada1ad5 2ada43df 2ada64c0 2ada72ee 2adeb71a 2adf3bcb 2adf7a38 2adf7c6a 2adf8872 2adf8880 2adf9959 2adf9abe 2ae07f78 2ae08503 2ae08754 2ae12e80 2aea3bea 2aecb509 2aee00b0 2aee2bdd 2aee5467 2aee5601 2aee8f20 2af703fd 2af7048b 2af74e74 2dfba627 
Unique trigger count: 
1 9433
2 502
3 83
4 28
5 9
6 9
7 6
8 1
9 3
10 1
11 1
12 2
13 3
16 2
18 2
19 2
21 1
36 1
49 1
67 1
BTB PER SET UNIQUE ADDR: 9 16 9 7 5 13 12 17 16 6 12 6 19 13 8 12 15 11 12 14 9 16 10 15 12 12 7 11 10 13 18 13 14 9 16 17 16 17 11 11 14 12 7 16 17 9 10 14 21 10 13 7 18 7 11 15 14 12 15 12 13 21 10 15 12 21 10 16 17 12 7 8 10 7 9 20 14 20 13 12 11 12 11 11 12 13 11 12 16 16 19 17 17 11 11 13 20 12 12 11 15 11 17 13 12 13 11 15 14 11 15 8 9 17 12 19 7 14 14 9 13 14 11 7 11 8 9 9 20 15 14 8 13 8 14 12 13 8 14 11 18 10 11 9 13 15 9 16 21 9 13 22 14 17 12 13 11 17 14 16 16 12 21 13 16 11 11 10 19 15 12 9 15 14 9 10 12 12 12 11 9 9 12 12 16 18 12 11 9 18 9 13 12 15 10 14 15 8 16 13 10 12 13 10 18 10 6 15 10 5 8 9 13 10 10 15 6 20 14 16 13 5 12 13 12 11 18 11 6 17 18 18 8 6 11 11 14 12 9 7 9 9 11 12 18 20 10 9 9 11 15 17 13 12 19 17 10 9 19 12 8 10 14 9 15 24 8 7 14 10 11 12 14 17 19 13 9 11 7 17 11 10 15 17 20 13 11 12 20 8 13 10 12 17 13 12 9 15 8 11 12 9 8 11 9 9 11 14 16 13 14 7 13 7 11 7 16 19 13 5 13 14 15 13 9 9 11 13 8 4 12 7 9 14 17 10 12 12 15 8 12 14 7 17 13 10 10 13 15 12 8 14 21 12 13 15 16 10 11 11 12 19 13 10 12 13 11 7 7 11 12 10 16 10 14 8 15 14 13 14 14 13 12 16 14 14 12 8 17 10 15 11 17 10 12 15 11 12 12 14 10 7 9 13 10 9 15 11 13 9 13 11 18 12 8 9 13 14 7 10 12 15 10 15 20 17 6 11 12 16 8 8 21 12 17 18 13 9 15 6 17 14 11 10 15 19 10 16 10 11 17 8 7 9 19 11 12 12 11 11 8 13 17 17 13 10 15 11 17 13 6 13 13 14 9 6 17 11 10 10 12 13 9 13 10 18 13 9 9 6 17 8 11 14 9 15 9 12 14 7 20 9 14 9 11 9 8 9 12 12 21 8 
BTB PER SET COUNT: 9 16 10 7 5 13 13 509 16 1474 13 416 47 13 8 14 15 11 12 1483 9 20 12 505 13 13 8 11 1478 13 1802 377 15 11 19 27 2950 2377 12 12 16 13 8 18 3758 10 10 14 5264 10 13 7 3419 7 12 18 15 12 16 133 15 6056 11 16 12 3965 10 18 4880 54 7 8 1477 7 11 5877 504 35 13 14 11 990 989 13 502 14 11 12 16 17 3929 510 17 2945 13 15 41 14 16 13 15 11 19 14 993 14 11 15 14 768 375 8 1478 26 12 2825 11 14 503 1476 13 20 12 9 500 8 9 9 5109 18 504 9 13 8 17 12 504 9 14 11 29 13 12 9 13 20 1476 16 14807 10 13 6783 14 5394 2948 993 14 48 505 17 18 13 7745 992 508 1968 596 10 7809 506 12 988 14696 1135 9 1838 1479 501 992 990 11 9 12 12 16 21 13 39 9 33 9 13 180 993 10 1487 994 1475 266 13 12 13 991 10 1489 749 6 2460 10 5 9 9 15 11 11 622 6 6283 14 17 992 6 14 14 12 11 803 2003 6 1494 248 4400 8 6 500 11 15 990 9 7 10 535 11 12 1681 5097 10 987 9 11 993 19 13 12 46 20 11 9 65 12 8 86 14 1479 1483 9599 986 8 15 12 13 12 14 29 62 15 445 12 7 76 13 10 239 26 6071 990 11 12 119 11 213 11 2459 1485 14 19 13 82 8 12 12 498 10 12 11 9 16 17 16 13 15 394 13 7 989 7 18 6353 17 5 13 14 39 14 9 9 11 16 211 4 989 1476 9 16 1000 11 993 12 15 8 12 15 7 1537 992 10 10 17 17 12 8 15 7825 1968 14 996 17 11 12 54 12 44 14 10 15 14 13 7 8 11 12 11 16 18 15 8 15 16 13 14 14 13 13 126 15 14 13 8 2175 10 124 56 22 13 12 17 1479 12 13 15 10 7 10 15 12 988 2950 12 14 2325 13 11 560 12 986 10 161 15 7 1930 12 504 10 15 6960 19 8 11 12 17 121 987 2639 13 19 277 14 9 15 7 368 16 13 10 20 3368 13 996 10 501 25 9 10 10 44 14 13 13 500 11 986 372 29 20 1005 10 15 11 30 14 496 14 46 506 114 6 20575 12 10 13 13 13 9 502 11 382 273 381 9 6 19 8 14 15 9 18 9 12 1971 7 8060 384 1199 11 11 11 8 9 1500 12 803 8 
