
*** ChampSim Multicore Out-of-Order Simulator ***

Warmup Instructions: 50000000
Simulation Instructions: 50000000
Number of CPUs: 1
LLC sets: 2048
LLC ways: 16
Off-chip DRAM Size: 4096 MB Channels: 1 Width: 64-bit Data Rate: 6400 MT/s
CPU 0 runs ./micro_traces/srv385.trace.gz
.gz
ITLB has LRU replacement policy
DTLB has LRU replacement policy
STLB has LRU replacement policy
FDIP Prefetcher at L1I
L1I has LRU replacement policy
L1D has LRU replacement policy
Initialize SRRIP state for L2C
Initialize DRRIP state for LLC
Heartbeat_Variant_0 : 1325 0.323486 per_variant_size: 0 1325 0 0 0 0 0 0 0 
Heartbeat_Variant_1 : 2530 0.617676 per_variant_size: 0 546 1984 0 0 0 0 0 0 
Heartbeat_Variant_2 : 0 0 per_variant_size: 0 0 0 0 0 0 0 0 0 
Heartbeat_Variant_3 : 0 0 per_variant_size: 0 0 0 0 0 0 0 0 0 
Heartbeat_Variant_0_evicts 0 : 5817 1 : 457 2 : 0 3 : 0 
Heartbeat_Variant_1_evicts 0 : 393 1 : 0 2 : 0 3 : 0 
Heartbeat_Variant_2_evicts 0 : 0 1 : 0 2 : 0 3 : 0 
Heartbeat_Variant_3_evicts 0 : 0 1 : 0 2 : 0 3 : 0 
Heartbeat CPU 0 instructions: 10000001 cycles: 2797479 heartbeat IPC: 3.57465 cumulative IPC: 3.57465 (Simulation time: 0 hr 1 min 43 sec) 
Heartbeat_Variant_0 : 1327 0.323975 per_variant_size: 0 1327 0 0 0 0 0 0 0 
Heartbeat_Variant_1 : 2538 0.619629 per_variant_size: 0 550 1988 0 0 0 0 0 0 
Heartbeat_Variant_2 : 0 0 per_variant_size: 0 0 0 0 0 0 0 0 0 
Heartbeat_Variant_3 : 0 0 per_variant_size: 0 0 0 0 0 0 0 0 0 
Heartbeat_Variant_0_evicts 0 : 5565 1 : 12 2 : 0 3 : 0 
Heartbeat_Variant_1_evicts 0 : 12 1 : 0 2 : 0 3 : 0 
Heartbeat_Variant_2_evicts 0 : 0 1 : 0 2 : 0 3 : 0 
Heartbeat_Variant_3_evicts 0 : 0 1 : 0 2 : 0 3 : 0 
Heartbeat CPU 0 instructions: 20000003 cycles: 5594472 heartbeat IPC: 3.57527 cumulative IPC: 3.57496 (Simulation time: 0 hr 3 min 21 sec) 
Heartbeat_Variant_0 : 1359 0.331787 per_variant_size: 0 1359 0 0 0 0 0 0 0 
Heartbeat_Variant_1 : 2607 0.636475 per_variant_size: 0 517 2090 0 0 0 0 0 0 
Heartbeat_Variant_2 : 0 0 per_variant_size: 0 0 0 0 0 0 0 0 0 
Heartbeat_Variant_3 : 0 0 per_variant_size: 0 0 0 0 0 0 0 0 0 
Heartbeat_Variant_0_evicts 0 : 5768 1 : 343 2 : 0 3 : 0 
Heartbeat_Variant_1_evicts 0 : 340 1 : 0 2 : 0 3 : 0 
Heartbeat_Variant_2_evicts 0 : 0 1 : 0 2 : 0 3 : 0 
Heartbeat_Variant_3_evicts 0 : 0 1 : 0 2 : 0 3 : 0 
Heartbeat CPU 0 instructions: 30000000 cycles: 8391214 heartbeat IPC: 3.57559 cumulative IPC: 3.57517 (Simulation time: 0 hr 4 min 57 sec) 
Heartbeat_Variant_0 : 1359 0.331787 per_variant_size: 0 1359 0 0 0 0 0 0 0 
Heartbeat_Variant_1 : 2609 0.636963 per_variant_size: 0 500 2109 0 0 0 0 0 0 
Heartbeat_Variant_2 : 0 0 per_variant_size: 0 0 0 0 0 0 0 0 0 
Heartbeat_Variant_3 : 0 0 per_variant_size: 0 0 0 0 0 0 0 0 0 
Heartbeat_Variant_0_evicts 0 : 5657 1 : 28 2 : 0 3 : 0 
Heartbeat_Variant_1_evicts 0 : 28 1 : 0 2 : 0 3 : 0 
Heartbeat_Variant_2_evicts 0 : 0 1 : 0 2 : 0 3 : 0 
Heartbeat_Variant_3_evicts 0 : 0 1 : 0 2 : 0 3 : 0 
Heartbeat CPU 0 instructions: 40000000 cycles: 11188080 heartbeat IPC: 3.57543 cumulative IPC: 3.57523 (Simulation time: 0 hr 6 min 35 sec) 
Heartbeat_Variant_0 : 1365 0.333252 per_variant_size: 0 1365 0 0 0 0 0 0 0 
Heartbeat_Variant_1 : 2629 0.641846 per_variant_size: 0 501 2128 0 0 0 0 0 0 
Heartbeat_Variant_2 : 0 0 per_variant_size: 0 0 0 0 0 0 0 0 0 
Heartbeat_Variant_3 : 0 0 per_variant_size: 0 0 0 0 0 0 0 0 0 
Heartbeat_Variant_0_evicts 0 : 5571 1 : 135 2 : 0 3 : 0 
Heartbeat_Variant_1_evicts 0 : 132 1 : 0 2 : 0 3 : 0 
Heartbeat_Variant_2_evicts 0 : 0 1 : 0 2 : 0 3 : 0 
Heartbeat_Variant_3_evicts 0 : 0 1 : 0 2 : 0 3 : 0 
Heartbeat CPU 0 instructions: 50000002 cycles: 13984400 heartbeat IPC: 3.57613 cumulative IPC: 3.57541 (Simulation time: 0 hr 8 min 16 sec) 

Warmup complete CPU 0 instructions: 50000002 cycles: 13984400 (Simulation time: 0 hr 8 min 16 sec) 

Cycle: 20000000 FTQ IN: 58419478 FTQ occupancy: 20.5385 DECODE IN: 58419478 DECODE occupancy: 53.3863 ROB IN: 58419440 ROB occupancy: 318.758 ROB OUT: 58419389
Heartbeat_Variant_0 : 1366 0.333496 per_variant_size: 0 1366 0 0 0 0 0 0 0 
Heartbeat_Variant_1 : 2629 0.641846 per_variant_size: 0 513 2116 0 0 0 0 0 0 
Heartbeat_Variant_2 : 0 0 per_variant_size: 0 0 0 0 0 0 0 0 0 
Heartbeat_Variant_3 : 0 0 per_variant_size: 0 0 0 0 0 0 0 0 0 
Heartbeat_Variant_0_evicts 0 : 5603 1 : 13 2 : 0 3 : 0 
Heartbeat_Variant_1_evicts 0 : 12 1 : 0 2 : 0 3 : 0 
Heartbeat_Variant_2_evicts 0 : 0 1 : 0 2 : 0 3 : 0 
Heartbeat_Variant_3_evicts 0 : 0 1 : 0 2 : 0 3 : 0 
Heartbeat CPU 0 instructions: 60000003 cycles: 21134502 heartbeat IPC: 1.39858 cumulative IPC: 1.39858 (Simulation time: 0 hr 10 min 10 sec) 
Heartbeat_Variant_0 : 1370 0.334473 per_variant_size: 0 1370 0 0 0 0 0 0 0 
Heartbeat_Variant_1 : 2626 0.641113 per_variant_size: 0 509 2117 0 0 0 0 0 0 
Heartbeat_Variant_2 : 0 0 per_variant_size: 0 0 0 0 0 0 0 0 0 
Heartbeat_Variant_3 : 0 0 per_variant_size: 0 0 0 0 0 0 0 0 0 
Heartbeat_Variant_0_evicts 0 : 5549 1 : 13 2 : 0 3 : 0 
Heartbeat_Variant_1_evicts 0 : 10 1 : 0 2 : 0 3 : 0 
Heartbeat_Variant_2_evicts 0 : 0 1 : 0 2 : 0 3 : 0 
Heartbeat_Variant_3_evicts 0 : 0 1 : 0 2 : 0 3 : 0 
Heartbeat CPU 0 instructions: 70000003 cycles: 28370969 heartbeat IPC: 1.38189 cumulative IPC: 1.39019 (Simulation time: 0 hr 12 min 7 sec) 
Cycle: 30000000 FTQ IN: 13834473 FTQ occupancy: 14.8687 DECODE IN: 13834351 DECODE occupancy: 37.7305 ROB IN: 13834329 ROB occupancy: 247.649 ROB OUT: 13834028
Heartbeat_Variant_0 : 1378 0.336426 per_variant_size: 0 1378 0 0 0 0 0 0 0 
Heartbeat_Variant_1 : 2632 0.642578 per_variant_size: 0 493 2139 0 0 0 0 0 0 
Heartbeat_Variant_2 : 0 0 per_variant_size: 0 0 0 0 0 0 0 0 0 
Heartbeat_Variant_3 : 0 0 per_variant_size: 0 0 0 0 0 0 0 0 0 
Heartbeat_Variant_0_evicts 0 : 5662 1 : 126 2 : 0 3 : 0 
Heartbeat_Variant_1_evicts 0 : 122 1 : 0 2 : 0 3 : 0 
Heartbeat_Variant_2_evicts 0 : 0 1 : 0 2 : 0 3 : 0 
Heartbeat_Variant_3_evicts 0 : 0 1 : 0 2 : 0 3 : 0 
Heartbeat CPU 0 instructions: 80000001 cycles: 35526914 heartbeat IPC: 1.39744 cumulative IPC: 1.3926 (Simulation time: 0 hr 14 min 1 sec) 
Cycle: 40000000 FTQ IN: 14010867 FTQ occupancy: 14.9492 DECODE IN: 14010871 DECODE occupancy: 38.2662 ROB IN: 14010871 ROB occupancy: 250.94 ROB OUT: 14010871
Heartbeat_Variant_0 : 1377 0.336182 per_variant_size: 0 1377 0 0 0 0 0 0 0 
Heartbeat_Variant_1 : 2636 0.643555 per_variant_size: 0 498 2138 0 0 0 0 0 0 
Heartbeat_Variant_2 : 0 0 per_variant_size: 0 0 0 0 0 0 0 0 0 
Heartbeat_Variant_3 : 0 0 per_variant_size: 0 0 0 0 0 0 0 0 0 
Heartbeat_Variant_0_evicts 0 : 5606 1 : 16 2 : 0 3 : 0 
Heartbeat_Variant_1_evicts 0 : 17 1 : 0 2 : 0 3 : 0 
Heartbeat_Variant_2_evicts 0 : 0 1 : 0 2 : 0 3 : 0 
Heartbeat_Variant_3_evicts 0 : 0 1 : 0 2 : 0 3 : 0 
Heartbeat CPU 0 instructions: 90000000 cycles: 42750842 heartbeat IPC: 1.38429 cumulative IPC: 1.39051 (Simulation time: 0 hr 15 min 57 sec) 
Heartbeat_Variant_0 : 1387 0.338623 per_variant_size: 0 1387 0 0 0 0 0 0 0 
Heartbeat_Variant_1 : 2642 0.64502 per_variant_size: 0 492 2150 0 0 0 0 0 0 
Heartbeat_Variant_2 : 0 0 per_variant_size: 0 0 0 0 0 0 0 0 0 
Heartbeat_Variant_3 : 0 0 per_variant_size: 0 0 0 0 0 0 0 0 0 
Heartbeat_Variant_0_evicts 0 : 5718 1 : 134 2 : 0 3 : 0 
Heartbeat_Variant_1_evicts 0 : 129 1 : 0 2 : 0 3 : 0 
Heartbeat_Variant_2_evicts 0 : 0 1 : 0 2 : 0 3 : 0 
Heartbeat_Variant_3_evicts 0 : 0 1 : 0 2 : 0 3 : 0 
Heartbeat CPU 0 instructions: 100000003 cycles: 49899014 heartbeat IPC: 1.39896 cumulative IPC: 1.39219 (Simulation time: 0 hr 17 min 51 sec) 
Finished CPU 0 instructions: 50000001 cycles: 35914614 cumulative IPC: 1.39219 (Simulation time: 0 hr 17 min 51 sec) 

ChampSim completed all CPUs

Region of Interest Statistics

CPU 0 cumulative IPC: 1.39219 instructions: 50000001 cycles: 35914614
 Fetch stage stalled: 45.8802  Sim cycles: 35914614 fetch stall cycle: 16477708
 Empty decode stage: 25.5353  Sim cycles: 35914614 fetch stall cycle: 9170922
ITLB TOTAL     ACCESS:    5839086  HIT:    5345531  MISS:     493555  HIT %:    91.5474  MISS %:    8.45261   MPKI: 9.8711
ITLB LOAD TRANSLATION INSTRUCTION	ACCESS:    5699993  HIT:    5206438  MISS:     493555  HIT %:    91.3411  MISS %:    8.65887  MPKI: 9.8711
ITLB TRANSLATION FROM L1D PREFETCHER INSTRUCTION	ACCESS:     139093  HIT:     139093  MISS:          0  HIT %:        100  MISS %:          0  MPKI: 0

ITLB AVERAGE MISS LATENCY: 9.05253 cycles
ITLB RQ	ACCESS:    7943346	FORWARD:          0	MERGED:    1621001	TO_CACHE:    6322345

DTLB TOTAL     ACCESS:    8953409  HIT:    8477855  MISS:     475554  HIT %:    94.6886  MISS %:    5.31143   MPKI: 9.51108
DTLB LOAD TRANSLATION DATA	ACCESS:    8953409  HIT:    8477855  MISS:     475554  HIT %:    94.6886  MISS %:    5.31143  MPKI: 9.51108

DTLB AVERAGE MISS LATENCY: 9.30902 cycles
DTLB RQ	ACCESS:   13331528	FORWARD:          0	MERGED:    4341336	TO_CACHE:    8990192

STLB TOTAL     ACCESS:    1218152  HIT:    1216168  MISS:       1984  HIT %:    99.8371  MISS %:    0.16287   MPKI: 0.03968
STLB LOAD TRANSLATION INSTRUCTION	ACCESS:     493555  HIT:     493309  MISS:        246  HIT %:    99.9502  MISS %:  0.0498425  MPKI: 0.00492
STLB LOAD TRANSLATION DATA	ACCESS:     475554  HIT:     473841  MISS:       1713  HIT %:    99.6398  MISS %:   0.360211  MPKI: 0.03426
STLB TRANSLATION FROM L1D PREFETCHER DATA	ACCESS:     249043  HIT:     249018  MISS:         25  HIT %:      99.99  MISS %:  0.0100384  MPKI: 0.0005

STLB AVERAGE MISS LATENCY: 72.5943 cycles
STLB RQ	ACCESS:    1338740	FORWARD:          0	MERGED:     120545	TO_CACHE:    1218195

STLB Hit, L1D data hit: 0
STLB Hit, L2C data hit: 0
STLB Hit, LLC data hit: 0
STLB Hit, LLC data miss: 0
STLB STLB hints to L2: 0
L1D TOTAL     ACCESS:   13084788  HIT:   11970002  MISS:    1114786  HIT %:    91.4803  MISS %:    8.51971   MPKI: 22.2957
L1D LOAD DATA	ACCESS:    6552458  HIT:    5815824  MISS:     736634  HIT %:    88.7579  MISS %:    11.2421  MPKI: 14.7327
L1D RFO DATA	ACCESS:    6204168  HIT:    5919667  MISS:     284501  HIT %:    95.4144  MISS %:    4.58564  MPKI: 5.69002
L1D PREFETCH DATA	ACCESS:     328162  HIT:     234511  MISS:      93651  HIT %:     71.462  MISS %:     28.538  MPKI: 1.87302

L1D PREFETCH  REQUESTED:     739597  ISSUED:     739597  USEFUL:      33206  USELESS:      69098
L1D USEFUL LOAD PREFETCHES:      33206 PREFETCH ISSUED TO LOWER LEVEL:     102371  ACCURACY: 32.4369
 TIMELY PREFETCHES:      33206 LATE PREFETCHES: 8677 DROPPED PREFETCHES: 7
L1D AVERAGE MISS LATENCY: 252445 cycles
L1D RQ	ACCESS:   10686568	FORWARD:          0	MERGED:    3935490	TO_CACHE:    6585622
L1D WQ	ACCESS:    6943836	FORWARD:     165791	MERGED:     197930	TO_CACHE:    6745906
L1D PQ	ACCESS:     369966	FORWARD:          0	MERGED:          0	TO_CACHE:     369631

L1D UNIQUE REGIONS ACCESSED: 0
L1D REGIONS CONFLICTS: 0
L1D Cross Page Prefetch Requests: 6985
L1D Same Page Prefetch Requests: 747946
L1D ROI Sum of L1D PQ occupancy: 4691751
L1D PREFETCHES PUSHED FROM L2C: 0
L1I TOTAL     ACCESS:    7122708  HIT:    4360047  MISS:    2762661  HIT %:    61.2133  MISS %:    38.7867   MPKI: 55.2532
L1I LOAD INSTRUCTION	ACCESS:    6451480  HIT:    3688819  MISS:    2762661  HIT %:    57.1779  MISS %:    42.8221  MPKI: 55.2532
L1I PREFETCH INSTRUCTION	ACCESS:     671228  HIT:     671228  MISS:          0  HIT %:        100  MISS %:          0  MPKI: 0

L1I PREFETCH  REQUESTED:    1615134  ISSUED:    1615134  USEFUL:          0  USELESS:          0
L1I USEFUL LOAD PREFETCHES:          0 PREFETCH ISSUED TO LOWER LEVEL:          0  ACCURACY: -nan
 TIMELY PREFETCHES:          0 LATE PREFETCHES: 0 DROPPED PREFETCHES: 0
L1I AVERAGE MISS LATENCY: 17.2951 cycles
L1I RQ	ACCESS:    9568886	FORWARD:          0	MERGED:    2818503	TO_CACHE:    6750383
L1I PQ	ACCESS:    1615134	FORWARD:          0	MERGED:     422171	TO_CACHE:    1192963

L1BTB TOTAL     ACCESS:    5671913  HIT:    2043710  MISS:    3628203  HIT %:    36.0321  MISS %:    63.9679   MPKI: 72.5641
L1BTB BRANCH_DIRECT_JUMP	ACCESS:     548747 HIT:     144631 MISS:     404116 AVERAGE STALL: 56.521 AVERAGE FETCH STALL: 13.4658 AVERAGE FETCH QUEUE STALL: 20.4077 AVERAGE DECODE STALL: 21.7448 AVERAGE EXECUTE STALL: 2.21876e+15
L1BTB BRANCH_INDIRECT	ACCESS:     183366 HIT:      66349 MISS:     117017 AVERAGE STALL: 112.474 AVERAGE FETCH STALL: 11.3106 AVERAGE FETCH QUEUE STALL: 18.1578 AVERAGE DECODE STALL: 13.2141 AVERAGE EXECUTE STALL: 68.8302
L1BTB BRANCH_CONDITIONAL	ACCESS:    2710571 HIT:    1417653 MISS:    1292918 AVERAGE STALL: 59.4666 AVERAGE FETCH STALL: 23.5433 AVERAGE FETCH QUEUE STALL: 20.7289 AVERAGE DECODE STALL: 14.5721 AVERAGE EXECUTE STALL: 2.72558e+15
L1BTB BRANCH_DIRECT_CALL	ACCESS:     943401 HIT:     104639 MISS:     838762 AVERAGE STALL: 63.9897 AVERAGE FETCH STALL: 30.255 AVERAGE FETCH QUEUE STALL: 18.3583 AVERAGE DECODE STALL: 14.4755 AVERAGE EXECUTE STALL: 1.58887e+16
L1BTB BRANCH_INDIRECT_CALL	ACCESS:     171214 HIT:      20845 MISS:     150369 AVERAGE STALL: 141.663 AVERAGE FETCH STALL: 12.3999 AVERAGE FETCH QUEUE STALL: 17.6879 AVERAGE DECODE STALL: 12.3339 AVERAGE EXECUTE STALL: 98.7427
L1BTB BRANCH_RETURN	ACCESS:    1114614 HIT:     289593 MISS:     825021 AVERAGE STALL: 49.6246 AVERAGE FETCH STALL: 17.1011 AVERAGE FETCH QUEUE STALL: 4.82304 AVERAGE DECODE STALL: 6.10824 AVERAGE EXECUTE STALL: 4.40172e+14
L1BTB BRANCH_OTHER ACCESS:          0 HIT:          0 MISS:          0 AVERAGE STALL: -nan AVERAGE FETCH STALL: -nan AVERAGE FETCH QUEUE STALL: -nan AVERAGE DECODE STALL: -nan AVERAGE EXECUTE STALL: -nan
L1BTB TOTAL ROB OCCUPANCY AT BTB MISS: 2.73718

L2BTB TOTAL     ACCESS:    3602764  HIT:    3537098  MISS:      65666  HIT %:    98.1773  MISS %:    1.82266   MPKI: 1.31332
L2BTB BRANCH_DIRECT_JUMP	ACCESS:     399922 HIT:     395801 MISS:       4121 AVERAGE STALL: 56.521 AVERAGE FETCH STALL: 13.4658 AVERAGE FETCH QUEUE STALL: 20.4077 AVERAGE DECODE STALL: 21.7448 AVERAGE EXECUTE STALL: 2.21876e+15
L2BTB BRANCH_INDIRECT	ACCESS:     106731 HIT:     104052 MISS:       2679 AVERAGE STALL: 112.474 AVERAGE FETCH STALL: 11.3106 AVERAGE FETCH QUEUE STALL: 18.1578 AVERAGE DECODE STALL: 13.2141 AVERAGE EXECUTE STALL: 68.8302
L2BTB BRANCH_CONDITIONAL	ACCESS:    1292918 HIT:    1286107 MISS:       6811 AVERAGE STALL: 59.4666 AVERAGE FETCH STALL: 23.5433 AVERAGE FETCH QUEUE STALL: 20.7289 AVERAGE DECODE STALL: 14.5721 AVERAGE EXECUTE STALL: 2.72558e+15
L2BTB BRANCH_DIRECT_CALL	ACCESS:     838762 HIT:     837582 MISS:       1180 AVERAGE STALL: 63.9897 AVERAGE FETCH STALL: 30.255 AVERAGE FETCH QUEUE STALL: 18.3583 AVERAGE DECODE STALL: 14.4755 AVERAGE EXECUTE STALL: 1.58887e+16
L2BTB BRANCH_INDIRECT_CALL	ACCESS:     140807 HIT:     130456 MISS:      10351 AVERAGE STALL: 141.663 AVERAGE FETCH STALL: 12.3999 AVERAGE FETCH QUEUE STALL: 17.6879 AVERAGE DECODE STALL: 12.3339 AVERAGE EXECUTE STALL: 98.7427
L2BTB BRANCH_RETURN	ACCESS:     823624 HIT:     783100 MISS:      40524 AVERAGE STALL: 49.6246 AVERAGE FETCH STALL: 17.1011 AVERAGE FETCH QUEUE STALL: 4.82304 AVERAGE DECODE STALL: 6.10824 AVERAGE EXECUTE STALL: 4.40172e+14
L2BTB BRANCH_OTHER ACCESS:          0 HIT:          0 MISS:          0 AVERAGE STALL: -nan AVERAGE FETCH STALL: -nan AVERAGE FETCH QUEUE STALL: -nan AVERAGE DECODE STALL: -nan AVERAGE EXECUTE STALL: -nan
L2BTB TOTAL ROB OCCUPANCY AT BTB MISS: 151.236

L2C TOTAL     ACCESS:    4489624  HIT:    3991337  MISS:     498287  HIT %:    88.9014  MISS %:    11.0986   MPKI: 9.96574
L2C LOAD INSTRUCTION	ACCESS:    2762661  HIT:    2499157  MISS:     263504  HIT %:    90.4619  MISS %:    9.53805  MPKI: 5.27008
L2C LOAD TRANSLATION INSTRUCTION	ACCESS:        276  HIT:         90  MISS:        186  HIT %:    32.6087  MISS %:    67.3913  MPKI: 0.00372
L2C LOAD DATA	ACCESS:     727941  HIT:     643988  MISS:      83953  HIT %:    88.4671  MISS %:    11.5329  MPKI: 1.67906
L2C RFO DATA	ACCESS:     284430  HIT:     231451  MISS:      52979  HIT %:    81.3736  MISS %:    18.6264  MPKI: 1.05958
L2C PREFETCH DATA	ACCESS:     191702  HIT:     113305  MISS:      78397  HIT %:    59.1048  MISS %:    40.8952  MPKI: 1.56794
L2C WRITEBACK DATA	ACCESS:     520786  HIT:     502859  MISS:      17927  HIT %:    96.5577  MISS %:     3.4423  MPKI: 0.35854
L2C LOAD TRANSLATION DATA	ACCESS:       1783  HIT:        451  MISS:       1332  HIT %:    25.2944  MISS %:    74.7056  MPKI: 0.02664
L2C TRANSLATION FROM L1D PREFETCHER DATA	ACCESS:         45  HIT:         36  MISS:          9  HIT %:         80  MISS %:         20  MPKI: 0.00018

L2C PREFETCH  REQUESTED:      97550  ISSUED:      97550  USEFUL:       8183  USELESS:      70798
L2C USEFUL LOAD PREFETCHES:       8183 PREFETCH ISSUED TO LOWER LEVEL:      78942  ACCURACY: 10.3658
 TIMELY PREFETCHES:       8183 LATE PREFETCHES: 545 DROPPED PREFETCHES: 0
L2C AVERAGE MISS LATENCY: 37.6012 cycles
L2C RQ	ACCESS:    3777183	FORWARD:          0	MERGED:          0	TO_CACHE:    3777139
L2C WQ	ACCESS:     520786	FORWARD:         44	MERGED:          0	TO_CACHE:     520786
L2C PQ	ACCESS:     199921	FORWARD:          0	MERGED:       3637	TO_CACHE:     196284

L2C Dense regions hint from L2: 0
PSCL5 TOTAL     ACCESS:       3994  HIT:       1997  MISS:       1997  HIT %:         50  MISS %:         50   MPKI: 0.03994
PSCL5 LOAD TRANSLATION INSTRUCTION	ACCESS:       3904  HIT:       1952  MISS:       1952  HIT %:         50  MISS %:         50  MPKI: 0.03904
PSCL5 TRANSLATION FROM L1D PREFETCHER INSTRUCTION	ACCESS:         90  HIT:         45  MISS:         45  HIT %:         50  MISS %:         50  MPKI: 0.0009


PSCL4 TOTAL     ACCESS:       3779  HIT:       1885  MISS:       1894  HIT %:    49.8809  MISS %:    50.1191   MPKI: 0.03788
PSCL4 LOAD TRANSLATION INSTRUCTION	ACCESS:       2319  HIT:       1840  MISS:        479  HIT %:    79.3445  MISS %:    20.6555  MPKI: 0.00958
PSCL4 TRANSLATION FROM L1D PREFETCHER INSTRUCTION	ACCESS:         60  HIT:         45  MISS:         15  HIT %:         75  MISS %:         25  MPKI: 0.0003
PSCL4 LOAD TRANSLATION DATA	ACCESS:       1370  HIT:          0  MISS:       1370  HIT %:          0  MISS %:        100  MPKI: 0.0274
PSCL4 TRANSLATION FROM L1D PREFETCHER DATA	ACCESS:         30  HIT:          0  MISS:         30  HIT %:          0  MISS %:        100  MPKI: 0.0006


PSCL3 TOTAL     ACCESS:       3857  HIT:       1924  MISS:       1933  HIT %:    49.8833  MISS %:    50.1167   MPKI: 0.03866
PSCL3 LOAD TRANSLATION INSTRUCTION	ACCESS:       2358  HIT:       1879  MISS:        479  HIT %:    79.6862  MISS %:    20.3138  MPKI: 0.00958
PSCL3 TRANSLATION FROM L1D PREFETCHER INSTRUCTION	ACCESS:         60  HIT:         45  MISS:         15  HIT %:         75  MISS %:         25  MPKI: 0.0003
PSCL3 LOAD TRANSLATION DATA	ACCESS:       1409  HIT:          0  MISS:       1409  HIT %:          0  MISS %:        100  MPKI: 0.02818
PSCL3 TRANSLATION FROM L1D PREFETCHER DATA	ACCESS:         30  HIT:          0  MISS:         30  HIT %:          0  MISS %:        100  MPKI: 0.0006


PSCL2 TOTAL     ACCESS:       3905  HIT:       1908  MISS:       1997  HIT %:    48.8604  MISS %:    51.1396   MPKI: 0.03994
PSCL2 LOAD TRANSLATION INSTRUCTION	ACCESS:       2108  HIT:       1863  MISS:        245  HIT %:    88.3776  MISS %:    11.6224  MPKI: 0.0049
PSCL2 TRANSLATION FROM L1D PREFETCHER INSTRUCTION	ACCESS:         45  HIT:         45  MISS:          0  HIT %:        100  MISS %:          0  MPKI: 0
PSCL2 LOAD TRANSLATION DATA	ACCESS:       1707  HIT:          0  MISS:       1707  HIT %:          0  MISS %:        100  MPKI: 0.03414
PSCL2 TRANSLATION FROM L1D PREFETCHER DATA	ACCESS:         45  HIT:          0  MISS:         45  HIT %:          0  MISS %:        100  MPKI: 0.0009


LLC TOTAL     ACCESS:     557595  HIT:     530423  MISS:      27172  HIT %:    95.1269  MISS %:    4.87307   MPKI: 0.54344
LLC LOAD INSTRUCTION	ACCESS:     263505  HIT:     262731  MISS:        774  HIT %:    99.7063  MISS %:   0.293733  MPKI: 0.01548
LLC LOAD TRANSLATION INSTRUCTION	ACCESS:        186  HIT:        156  MISS:         30  HIT %:     83.871  MISS %:     16.129  MPKI: 0.0006
LLC LOAD DATA	ACCESS:      83512  HIT:      80290  MISS:       3222  HIT %:    96.1419  MISS %:    3.85813  MPKI: 0.06444
LLC RFO DATA	ACCESS:      52872  HIT:      39520  MISS:      13352  HIT %:    74.7466  MISS %:    25.2534  MPKI: 0.26704
LLC PREFETCH DATA	ACCESS:      78942  HIT:      69560  MISS:       9382  HIT %:    88.1153  MISS %:    11.8847  MPKI: 0.18764
LLC WRITEBACK DATA	ACCESS:      77237  HIT:      76897  MISS:        340  HIT %:    99.5598  MISS %:   0.440204  MPKI: 0.0068
LLC LOAD TRANSLATION DATA	ACCESS:       1332  HIT:       1260  MISS:         72  HIT %:    94.5946  MISS %:    5.40541  MPKI: 0.00144
LLC TRANSLATION FROM L1D PREFETCHER DATA	ACCESS:          9  HIT:          9  MISS:          0  HIT %:        100  MISS %:          0  MPKI: 0

LLC AVERAGE MISS LATENCY: 157.61 cycles
LLC RQ	ACCESS:     401420	FORWARD:          0	MERGED:          0	TO_CACHE:     401417
LLC WQ	ACCESS:      77237	FORWARD:          3	MERGED:          0	TO_CACHE:      77237
LLC PQ	ACCESS:      78942	FORWARD:          0	MERGED:          0	TO_CACHE:      78942

LLC Dense regions hint to LLC: 0

RAW hits: 1946236
Loads Generated: 12632804
Loads sent to L1D: 10686568
Stores Generated: 6943833
Stores sent to L1D: 6943836
Major fault: 0 Minor fault: 2545
Allocated PAGES: 2545

stream: 
stream:times selected: 1186860
stream:pref_filled: 122187
stream:pref_useful: 23653
stream:pref_late: 7264
stream:misses: 8115
stream:misses_by_poll: 0

CS: 
CS:times selected: 178547
CS:pref_filled: 59639
CS:pref_useful: 36381
CS:pref_late: 7567
CS:misses: 16177
CS:misses_by_poll: 3

CPLX: 
CPLX:times selected: 1007113
CPLX:pref_filled: 19350
CPLX:pref_useful: 4502
CPLX:pref_late: 3255
CPLX:misses: 94111
CPLX:misses_by_poll: 0

NL_L1: 
NL:times selected: 20650
NL:pref_filled: 728
NL:pref_useful: 324
NL:pref_late: 323
NL:misses: 1734
NL:misses_by_poll: 0

total selections: 2393170
total_filled: 93651
total_useful: 33206
total_late: 19656
total_polluted: 3
total_misses_after_warmup: 769797
conflicts: 5520879

test: 117402

DRAM Statistics
 CHANNEL 0
 RQ ROW_BUFFER_HIT:       9902  ROW_BUFFER_MISS:      16919
 DBUS_CONGESTED:          8
 WQ ROW_BUFFER_HIT:       1321  ROW_BUFFER_MISS:      11866  FULL:          0

 AVG_CONGESTED_CYCLE: 6

CPU 0 Branch Prediction Accuracy: 99.8223% MPKI: 0.32502 Average ROB Occupancy at Mispredict: 198.003
Branch types
NOT_BRANCH: 40852860 81.7057%
BRANCH_DIRECT_JUMP: 548747 1.09749%
BRANCH_INDIRECT: 183366 0.366732%
BRANCH_CONDITIONAL: 6185538 12.3711%
BRANCH_DIRECT_CALL: 943401 1.8868%
BRANCH_INDIRECT_CALL: 171214 0.342428%
BRANCH_RETURN: 1114614 2.22923%
BRANCH_OTHER: 0 0%

DRAM PAGES: 1048576
Allocated PAGES: 2545
Average_ROB_Occupancy: 250.105
Average_Decode_Occupancy: 37.8931
Average_FTQ_Occupancy: 14.8745
Indirect max targets: 14 Average targets: 1.14527
Branch_type:  BRANCH_DIRECT_JUMP:  Count Percentage: 2.51394 6.83068 4.03621 9.36068 2.2314 6.29142 0.267669 68.468 
Branch_type:  BRANCH_INDIRECT:  Count Percentage: 14.4773 0.804522 2.54797 0 1.33613 9.66983 2.27151 68.8927 
Branch_type:  BRANCH_CONDITIONAL:  Count Percentage: 21.2518 2.57839 1.75294 5.52861 1.49166 9.44615 3.57491 54.3755 
Branch_type:  BRANCH_DIRECT_CALL:  Count Percentage: 0.769915 1.30846 1.28201 4.55413 2.19689 2.54684 0.569339 86.7724 
Branch_type:  BRANCH_INDIRECT_CALL:  Count Percentage: 9.55435 0 2.99454 8.70743 0 2.3401 1.28496 75.1186 
Branch_type:  BRANCH_RETURN:  Count Percentage: 4.90624 0.785379 1.16408 6.19802 2.45626 9.40984 4.27703 70.8031 
Branch_type:  BRANCH_DIRECT_JUMP:  Total Count: 27556 74873 44242 102605 24459 68962 2934 750497 
Branch_type:  BRANCH_INDIRECT:  Total Count: 52995 2945 9327 0 4891 35397 8315 252186 
Branch_type:  BRANCH_CONDITIONAL:  Total Count: 2626635 318679 216656 683313 184363 1167505 441844 6720595 
Branch_type:  BRANCH_DIRECT_CALL:  Total Count: 14525 24685 24186 85917 41446 48048 10741 1637025 
Branch_type:  BRANCH_INDIRECT_CALL:  Total Count: 32761 0 10268 29857 0 8024 4406 257575 
Branch_type:  BRANCH_RETURN:  Total Count: 109422 17516 25962 138232 54781 209864 95389 1579094 
Number of unique branch instructions: 9824
Upper 32 bits: 
aaaa
ffff
ffff0000
Unique upper 32 bits: 3
Unique upper 36 bits: 3
Unique upper 40 bits: 5
Unique upper 44 bits: 32
Unique upper 48 bits: 154
Variant_0 : 1387 0.338623
Variant_1 : 2642 0.64502
Variant_2 : 0 0
Variant_3 : 0 0
Offset_3 4037
Offset_4 247
Offset_5 449
Offset_6 502
Offset_7 576
Offset_8 508
Offset_9 465
Offset_10 376
Offset_11 303
Offset_12 269
Offset_13 203
Offset_14 227
Offset_15 185
Offset_16 222
Offset_17 146
Offset_18 118
Offset_19 236
Offset_20 136
Offset_21 235
Offset_22 392
Offset_23 241
Offset_24 332
Offset_25 88
Offset_47 82
decode_dispatch_called: 26230905 73.0369
Dispatch_width: 0 14145890 53.9283 39.3876
Dispatch_width: 1 1011137 3.85475 2.81539
Dispatch_width: 2 842494 3.21184 2.34583
Dispatch_width: 3 489243 1.86514 1.36224
Dispatch_width: 4 6255702 23.8486 17.4183
Dispatch_width: 5 105486 0.402144 0.293713
Dispatch_width: 6 3380953 12.8892 9.41386
Empty_decode_cycles: 9683709 26.9631
ROB_full_cycles: 9951700 27.7093
Starvation_cycles_per_kilo_instr: 225.82
Starvation_cycles_per_kilo_instr_3: 162.208
Starvation_cycles_per_kilo_instr_0: 138.779
Branch_type_1  (3,1)  (4,9)  (5,37)  (6,70)  (7,114)  (8,127)  (9,122)  (10,97)  (11,67)  (12,43)  (13,5)  (14,2)  (15,3)  (16,4)  (18,1)  (19,4)  (20,2)  (21,1)  (22,3)  (23,2)  (24,10)  (25,12) 
Branch_type_2  (3,1)  (5,1)  (8,3)  (9,3)  (12,1)  (13,1)  (14,1)  (16,3)  (17,2)  (20,2)  (21,2)  (23,5)  (24,1)  (47,38) 
Branch_type_3  (3,4035)  (4,238)  (5,407)  (6,417)  (7,433)  (8,319)  (9,257)  (10,153)  (11,120)  (12,50)  (13,4) 
Branch_type_4  (6,3)  (7,8)  (8,25)  (9,51)  (10,60)  (11,59)  (12,96)  (13,88)  (14,100)  (15,87)  (16,99)  (17,65)  (18,53)  (19,115)  (20,71)  (21,124)  (22,208)  (23,136)  (24,193)  (25,72) 
Branch_type_5  (8,2)  (9,1)  (10,3)  (11,5)  (12,3)  (13,14)  (14,16)  (15,11)  (16,20)  (17,11)  (18,16)  (19,12)  (20,10)  (21,13)  (22,42)  (23,26)  (24,37) 
Branch_type_6  (5,4)  (6,12)  (7,21)  (8,32)  (9,31)  (10,63)  (11,52)  (12,76)  (13,91)  (14,108)  (15,84)  (16,96)  (17,68)  (18,48)  (19,105)  (20,51)  (21,95)  (22,139)  (23,72)  (24,91)  (25,4)  (47,44) 
Unique trigger count: 
Variant_0_evicts_0 : 0
Variant_0_evicts_1 : 0
Variant_0_evicts_2 : 0
Variant_0_evicts_3 : 0
Variant_1_evicts_0 : 0
Variant_1_evicts_1 : 0
Variant_1_evicts_2 : 0
Variant_1_evicts_3 : 0
Variant_2_evicts_0 : 0
Variant_2_evicts_1 : 0
Variant_2_evicts_2 : 0
Variant_2_evicts_3 : 0
Variant_3_evicts_0 : 0
Variant_3_evicts_1 : 0
Variant_3_evicts_2 : 0
Variant_3_evicts_3 : 0
BTB PER SET UNIQUE ADDR: 12 11 5 13 11 8 7 9 8 11 9 12 10 8 8 11 7 11 8 9 8 11 8 9 6 12 13 7 11 10 10 9 9 9 8 10 8 10 11 6 10 8 10 10 5 7 9 7 8 11 11 7 9 11 10 8 8 8 8 10 10 10 8 8 10 13 9 7 10 8 9 9 13 7 8 8 7 8 9 8 11 7 7 13 9 10 12 7 6 11 6 7 12 11 6 8 7 9 8 12 14 9 9 10 9 14 9 10 8 8 4 13 8 12 7 7 10 8 9 8 13 9 8 9 10 10 6 7 13 8 8 11 10 12 9 10 10 10 8 14 9 12 8 10 11 11 11 11 7 12 10 15 9 8 11 14 10 11 10 10 11 5 9 11 8 10 12 8 11 8 10 11 8 10 6 9 11 10 12 5 8 10 10 11 16 10 5 8 8 7 10 9 8 13 9 7 11 8 10 13 10 15 10 7 8 8 12 9 6 10 10 12 10 8 9 12 5 11 7 14 8 14 5 10 4 12 11 8 6 12 12 4 7 13 8 11 8 7 7 8 11 10 9 12 10 6 9 9 11 13 8 9 10 9 9 9 7 5 10 8 13 8 7 7 11 9 7 9 9 8 9 11 8 5 6 7 12 14 8 9 7 11 8 8 11 7 8 9 12 7 9 6 11 9 7 8 8 12 10 11 9 11 9 14 10 6 10 7 11 8 7 11 8 15 9 9 12 8 12 9 6 15 7 10 13 17 9 9 11 7 9 11 7 9 12 9 10 6 11 10 8 10 7 9 13 10 10 9 10 9 10 10 8 11 9 9 7 10 8 9 9 12 9 8 8 9 6 10 11 7 5 6 8 10 10 10 10 10 13 10 10 9 8 9 9 10 10 12 10 11 12 10 9 18 10 6 8 10 8 12 9 11 8 11 12 11 9 14 8 9 9 6 8 12 10 10 11 8 8 10 5 8 11 7 12 7 13 9 9 9 19 9 10 10 8 14 10 7 10 9 12 9 7 14 18 6 5 9 9 9 13 11 9 9 10 7 13 9 8 14 6 7 10 11 12 7 8 10 6 9 10 10 14 10 12 13 6 15 7 10 13 9 11 10 9 11 11 10 13 12 10 11 7 9 10 13 11 11 6 10 9 10 9 10 7 9 7 12 12 10 10 10 10 7 11 12 9 12 6 6 9 12 8 6 9 16 14 8 6 14 8 8 10 12 8 13 7 7 7 11 13 7 10 11 9 9 9 8 6 10 7 11 11 7 11 11 9 9 11 12 9 9 10 10 9 13 14 10 12 8 13 10 11 13 8 9 11 9 12 8 9 10 7 9 9 9 7 10 7 8 8 7 11 7 13 7 9 9 10 9 8 7 8 5 7 12 14 8 8 6 13 13 5 8 5 13 9 10 10 11 12 8 9 7 9 9 7 15 8 12 5 12 12 9 8 11 11 8 6 11 12 8 10 13 7 12 6 8 10 10 9 11 7 10 10 14 9 11 9 13 8 6 10 16 12 11 8 9 8 8 8 11 9 13 13 6 8 10 9 12 7 11 11 13 8 11 10 11 10 14 7 10 9 8 11 12 7 9 9 13 7 13 11 6 8 11 8 9 9 8 10 11 8 8 14 10 11 9 8 11 10 10 8 11 9 7 12 5 7 13 13 7 10 13 8 10 12 9 17 10 9 5 11 9 7 12 8 9 10 9 12 8 7 9 9 13 14 10 11 4 7 7 8 10 14 11 8 11 9 8 9 12 10 9 11 9 8 10 11 9 5 11 8 9 8 12 6 11 7 7 5 7 10 9 9 11 6 11 12 8 15 13 11 13 10 9 8 7 11 9 11 14 10 11 10 8 13 14 6 13 8 8 9 9 15 11 8 10 12 13 9 11 7 7 8 12 8 8 9 9 10 14 7 7 9 14 9 15 7 8 6 8 11 9 8 9 9 9 10 13 8 12 8 6 8 9 12 5 11 8 9 12 8 11 10 6 8 10 7 10 11 8 9 9 10 9 13 10 10 8 13 8 10 8 10 13 15 12 5 7 10 7 11 13 5 11 12 12 10 10 10 10 8 11 11 6 13 10 11 8 10 13 9 9 9 7 8 10 10 8 10 9 11 11 6 12 9 9 10 10 6 12 10 8 8 9 9 15 10 9 10 8 8 9 7 9 9 10 6 9 9 11 9 11 16 5 11 6 10 9 11 11 14 13 9 12 12 8 9 15 9 14 8 7 5 13 11 10 10 5 10 12 11 12 10 9 8 8 10 9 13 10 10 5 9 9 8 13 6 10 12 10 10 8 10 12 6 8 6 9 5 10 8 10 
BTB PER SET COUNT: 13 16 1967 14 13 9 979 11 1475 12 9 484 2333 10 9 12 1974 14 244 9 12 15 861 155 6 13 16 7 383 11 11 9 9 15 11 13 11 14 13 6 11 14 10 13 6 9 11 7 10 17 11 7 12 15 12 376 15 8 252 10 11 1474 8 11 14 401 10 8 11 11 13 500 19 8 9 11 8 10 15 9 13 7 7 18 10 32 16 7 7 35 6 828 507 498 7 8 988 9 9 18 17 13 9 14 2462 20 10 10 1793 2935 5 18 1914 15 8 9 13 8 990 531 70 9 10 13 10 185 8 7 18 986 10 11 14 18 110 14 776 11 11 16 13 19 9 12 15 17 17 11 13 21 12 295 982 8 14 18 499 14 11 2418 17 207 12 15 15 577 14 8 16 1473 10 15 8 17 7 12 12 13 29 5 245 138 993 12 23 13 5 11 9 988 11 10 10 14 10 144 11 8 10 14 14 19 991 11 10 8 13 9 6 1862 12 19 11 20 12 228 5 14 2937 23 9 16 5 15 4 22 12 154 697 17 14 4 10 16 10 18164 8 14 7 9 17 16 11 19 11 9 11 12 14 19 10 11 10 9 11 10 7 5 10 8 279 11 7 497 12 14 7 14 630 8 9 14 8 5 983 8 15 17 8 10 14 15 485 9 13 12 8 11 15 9 12 6 11 12 8 9 8 14 12 11 9 13 495 17 13 8 10 7 14 13 8 12 8 16 1471 12 13 9 17 18 6 2024 11 11 15 731 11 9 14 8 9 16 43 9 16 11 10 981 11 12 8 13 8 9 16 11 10 9 13 84 409 627 8 14 10 9 7 14 8 15 11 12 12 8 9 10 6 15 11 7 5 378 12 18 109 10 11 11 19 1477 269 9 182 9 9 12 11 19 11 1413 256 10 12 114 12 8 8 14 8 13 10 13 1477 14 12 13 11 507 12 14 11 6 9 672 10 11 12 95 8 14 5 9 12 8 28 8 435 12 10 11 33 9 15 16 10 14 17 8 12 12 16 9 10 14 60 6 5 11 13 14 103 12 10 12 519 8 18 9 8 21 6 7 13 13 17 10 12529 11 6 10 16 12 21 13 20 16 8 21 7 11 14 10 13 12 9 840 11 10 18 103 1256 11 7827 14 12 16 1478 105 8 12 13 13 10 154 9 9 11 14 12 12 15 12 16 990 14 19 31 12 9 7 11 14 8 6 10 231 69 1263 8 2145 8 11 14 13 8 18 9 996 8 14 17 7 48 13 9 11 12 8 7 494 7 12 986 1006 11 13 11 12 14 17 10 98 11 10 114 18 156 13 15 9 1332 16 12 23 16 11 15 767 14 8 9 13 10 1480 10 12 13 10 7 10 10 523 12 7 20 11 12 386 10 11 10 7 12 5 7 12 15 1202 10 6 14 15 5 9 5 14 9 18 12 17 15 9 9 992 10 10 7 288 1070 876 6 16 12 11 8 19 13 990 6 13 14 10 10 16 7 164 7 9 10 12 9 17 7 14 12 19 10 12 11 197 9 6 12 21 82 15 11 984 1483 9 9 14 227 15 21 6 8 10 10 15 13 11 17 35 1044 15 14 18 137 24 7 11 10 8 2462 17 7 11 11 25 977 13 1479 7 8 13 8 12 10 9 13 11 1039 8 28 11 14 19 8 440 270 806 9 40 9 7 14 6 983 16 16 7 37 17 8 1890 368 10 26 12 269 5 297 84 7 15 9 10 10 11 1391 10 7 16 10 16 16 162 20 4 7 8 8 356 22 14 9 11 14 9 64 390 23 13 13 12 8 11 11 10 2001 11 8 9 8 12 9 12 7 10 6 515 16 10 50 18 6 16 14 380 21 14 16 16 11 9 10 7 11 66 12 746 12 15 11 61 15 2500 7 2462 12 1120 11 10 1107 11 10 11 13 15 13 20 7 9 9 1964 8 8 12 12 12 831 7 8 1352 18 11 17 7 2152 6 221 11 14 205 9 9 10 12 19 11 14 8 6 10 11 13 7 13 12 12 19 11 16 10 8 9 11 8 11 11 8 104 12 500 1477 14 13 13 8 20 10 31 10 10 26 20 13 5 8 13 7 19 17 5 12 12 14 154 13 11 872 11 15 13 6 1124 82 16 8 14 185 639 13 10 9 9 12 11 30 11 9 14 14 6 2949 10 12 15 11 6 981 12 8 8 501 10 25 13 10 462 32 11 212 8 10 11 11 6 10 13 12 994 12 19 5 1477 8 13 12 12 1482 14 20 10 22 12 9 500 90 985 1489 12 984 15 1367 14 587 11 5 11 13 13 18 1469 11 12 1479 13 1061 19 1478 12 5 10 11 11 16 6 985 507 12 11 10 14 17 8 8 7 12 6 11 8 10 
To predecode: 0
Predecoding something: 0
Predecode request dropped: 0
sizeofblock_0 0
sizeofblock_1 50994
sizeofblock_2 86865
sizeofblock_3 0
sizeofblock_4 0
sizeofblock_5 0
sizeofblock_6 0
sizeofblock_7 0
sizeofblock_8 0
Variant_0 Correct: 1613814 Incorrect: 0 Accuracy: 1
Variant_1 Correct: 5735051 Incorrect: 0 Accuracy: 1
Variant_2 Correct: 0 Incorrect: 0 Accuracy: -nan
Variant_3 Correct: 0 Incorrect: 0 Accuracy: -nan
