
*** ChampSim Multicore Out-of-Order Simulator ***

Warmup Instructions: 50000000
Simulation Instructions: 50000000
Number of CPUs: 1
LLC sets: 2048
LLC ways: 16
Off-chip DRAM Size: 4096 MB Channels: 1 Width: 64-bit Data Rate: 6400 MT/s
CPU 0 runs ./micro_traces/srv392.trace.gz
.gz
ITLB has LRU replacement policy
DTLB has LRU replacement policy
STLB has LRU replacement policy
FDIP Prefetcher at L1I
L1I has LRU replacement policy
L1D has LRU replacement policy
Initialize SRRIP state for L2C
Initialize DRRIP state for LLC
Heartbeat_Variant_0 : 1328 0.324219 per_variant_size: 0 1328 0 0 0 0 0 0 0 
Heartbeat_Variant_1 : 1214 0.296387 per_variant_size: 0 603 611 0 0 0 0 0 0 
Heartbeat_Variant_2 : 1290 0.314941 per_variant_size: 0 529 344 210 207 0 0 0 0 
Heartbeat_Variant_3 : 0 0 per_variant_size: 0 0 0 0 0 0 0 0 0 
Heartbeat_Variant_0_evicts 0 : 5667 1 : 255 2 : 240 3 : 0 
Heartbeat_Variant_1_evicts 0 : 256 1 : 0 2 : 392 3 : 0 
Heartbeat_Variant_2_evicts 0 : 219 1 : 400 2 : 0 3 : 0 
Heartbeat_Variant_3_evicts 0 : 0 1 : 0 2 : 0 3 : 0 
Heartbeat CPU 0 instructions: 10000000 cycles: 2797050 heartbeat IPC: 3.5752 cumulative IPC: 3.5752 (Simulation time: 0 hr 1 min 45 sec) 
Heartbeat_Variant_0 : 1329 0.324463 per_variant_size: 0 1329 0 0 0 0 0 0 0 
Heartbeat_Variant_1 : 1220 0.297852 per_variant_size: 0 611 609 0 0 0 0 0 0 
Heartbeat_Variant_2 : 1290 0.314941 per_variant_size: 0 528 345 207 210 0 0 0 0 
Heartbeat_Variant_3 : 0 0 per_variant_size: 0 0 0 0 0 0 0 0 0 
Heartbeat_Variant_0_evicts 0 : 5552 1 : 2 2 : 2 3 : 0 
Heartbeat_Variant_1_evicts 0 : 3 1 : 0 2 : 203 3 : 0 
Heartbeat_Variant_2_evicts 0 : 1 1 : 201 2 : 0 3 : 0 
Heartbeat_Variant_3_evicts 0 : 0 1 : 0 2 : 0 3 : 0 
Heartbeat CPU 0 instructions: 20000002 cycles: 5593742 heartbeat IPC: 3.57565 cumulative IPC: 3.57542 (Simulation time: 0 hr 3 min 21 sec) 
Heartbeat_Variant_0 : 1360 0.332031 per_variant_size: 0 1360 0 0 0 0 0 0 0 
Heartbeat_Variant_1 : 1252 0.305664 per_variant_size: 0 597 655 0 0 0 0 0 0 
Heartbeat_Variant_2 : 1342 0.327637 per_variant_size: 0 550 336 229 227 0 0 0 0 
Heartbeat_Variant_3 : 0 0 per_variant_size: 0 0 0 0 0 0 0 0 0 
Heartbeat_Variant_0_evicts 0 : 5913 1 : 165 2 : 185 3 : 0 
Heartbeat_Variant_1_evicts 0 : 159 1 : 0 2 : 337 3 : 0 
Heartbeat_Variant_2_evicts 0 : 193 1 : 334 2 : 0 3 : 0 
Heartbeat_Variant_3_evicts 0 : 0 1 : 0 2 : 0 3 : 0 
Heartbeat CPU 0 instructions: 30000003 cycles: 8388098 heartbeat IPC: 3.57864 cumulative IPC: 3.5765 (Simulation time: 0 hr 4 min 54 sec) 
Heartbeat_Variant_0 : 1358 0.331543 per_variant_size: 0 1358 0 0 0 0 0 0 0 
Heartbeat_Variant_1 : 1257 0.306885 per_variant_size: 0 598 659 0 0 0 0 0 0 
Heartbeat_Variant_2 : 1342 0.327637 per_variant_size: 0 546 341 225 230 0 0 0 0 
Heartbeat_Variant_3 : 0 0 per_variant_size: 0 0 0 0 0 0 0 0 0 
Heartbeat_Variant_0_evicts 0 : 5585 1 : 14 2 : 10 3 : 0 
Heartbeat_Variant_1_evicts 0 : 14 1 : 0 2 : 207 3 : 0 
Heartbeat_Variant_2_evicts 0 : 12 1 : 205 2 : 0 3 : 0 
Heartbeat_Variant_3_evicts 0 : 0 1 : 0 2 : 0 3 : 0 
Heartbeat CPU 0 instructions: 40000003 cycles: 11184316 heartbeat IPC: 3.57626 cumulative IPC: 3.57644 (Simulation time: 0 hr 6 min 30 sec) 
Heartbeat_Variant_0 : 1374 0.335449 per_variant_size: 0 1374 0 0 0 0 0 0 0 
Heartbeat_Variant_1 : 1265 0.308838 per_variant_size: 0 597 668 0 0 0 0 0 0 
Heartbeat_Variant_2 : 1342 0.327637 per_variant_size: 0 525 358 231 228 0 0 0 0 
Heartbeat_Variant_3 : 0 0 per_variant_size: 0 0 0 0 0 0 0 0 0 
Heartbeat_Variant_0_evicts 0 : 5657 1 : 87 2 : 93 3 : 0 
Heartbeat_Variant_1_evicts 0 : 85 1 : 0 2 : 282 3 : 0 
Heartbeat_Variant_2_evicts 0 : 85 1 : 282 2 : 0 3 : 0 
Heartbeat_Variant_3_evicts 0 : 0 1 : 0 2 : 0 3 : 0 
Heartbeat CPU 0 instructions: 50000002 cycles: 13981520 heartbeat IPC: 3.575 cumulative IPC: 3.57615 (Simulation time: 0 hr 8 min 7 sec) 

Warmup complete CPU 0 instructions: 50000002 cycles: 13981520 (Simulation time: 0 hr 8 min 7 sec) 

Cycle: 20000000 FTQ IN: 58254907 FTQ occupancy: 19.2628 DECODE IN: 58254873 DECODE occupancy: 50.2514 ROB IN: 58254868 ROB occupancy: 307.854 ROB OUT: 58254771
Heartbeat_Variant_0 : 1373 0.335205 per_variant_size: 0 1373 0 0 0 0 0 0 0 
Heartbeat_Variant_1 : 1273 0.310791 per_variant_size: 0 601 672 0 0 0 0 0 0 
Heartbeat_Variant_2 : 1339 0.326904 per_variant_size: 0 516 357 236 230 0 0 0 0 
Heartbeat_Variant_3 : 0 0 per_variant_size: 0 0 0 0 0 0 0 0 0 
Heartbeat_Variant_0_evicts 0 : 5605 1 : 0 2 : 2 3 : 0 
Heartbeat_Variant_1_evicts 0 : 5 1 : 0 2 : 204 3 : 0 
Heartbeat_Variant_2_evicts 0 : 0 1 : 202 2 : 0 3 : 0 
Heartbeat_Variant_3_evicts 0 : 0 1 : 0 2 : 0 3 : 0 
Heartbeat CPU 0 instructions: 60000003 cycles: 21274864 heartbeat IPC: 1.37111 cumulative IPC: 1.37111 (Simulation time: 0 hr 9 min 46 sec) 
Heartbeat_Variant_0 : 1380 0.336914 per_variant_size: 0 1380 0 0 0 0 0 0 0 
Heartbeat_Variant_1 : 1274 0.311035 per_variant_size: 0 598 676 0 0 0 0 0 0 
Heartbeat_Variant_2 : 1336 0.326172 per_variant_size: 0 515 352 242 227 0 0 0 0 
Heartbeat_Variant_3 : 0 0 per_variant_size: 0 0 0 0 0 0 0 0 0 
Heartbeat_Variant_0_evicts 0 : 5608 1 : 24 2 : 26 3 : 0 
Heartbeat_Variant_1_evicts 0 : 19 1 : 0 2 : 210 3 : 0 
Heartbeat_Variant_2_evicts 0 : 27 1 : 206 2 : 0 3 : 0 
Heartbeat_Variant_3_evicts 0 : 0 1 : 0 2 : 0 3 : 0 
Heartbeat CPU 0 instructions: 70000003 cycles: 28621455 heartbeat IPC: 1.36118 cumulative IPC: 1.36613 (Simulation time: 0 hr 11 min 25 sec) 
Cycle: 30000000 FTQ IN: 13612831 FTQ occupancy: 10.7524 DECODE IN: 13612817 DECODE occupancy: 27.6585 ROB IN: 13612812 ROB occupancy: 211.99 ROB OUT: 13612557
Heartbeat_Variant_0 : 1383 0.337646 per_variant_size: 0 1383 0 0 0 0 0 0 0 
Heartbeat_Variant_1 : 1282 0.312988 per_variant_size: 0 609 673 0 0 0 0 0 0 
Heartbeat_Variant_2 : 1335 0.325928 per_variant_size: 0 510 352 253 220 0 0 0 0 
Heartbeat_Variant_3 : 0 0 per_variant_size: 0 0 0 0 0 0 0 0 0 
Heartbeat_Variant_0_evicts 0 : 5644 1 : 51 2 : 50 3 : 0 
Heartbeat_Variant_1_evicts 0 : 59 1 : 0 2 : 239 3 : 0 
Heartbeat_Variant_2_evicts 0 : 40 1 : 244 2 : 0 3 : 0 
Heartbeat_Variant_3_evicts 0 : 0 1 : 0 2 : 0 3 : 0 
Heartbeat CPU 0 instructions: 80000003 cycles: 35930780 heartbeat IPC: 1.36812 cumulative IPC: 1.36679 (Simulation time: 0 hr 13 min 8 sec) 
Cycle: 40000000 FTQ IN: 13721925 FTQ occupancy: 10.6405 DECODE IN: 13721917 DECODE occupancy: 27.6 ROB IN: 13721894 ROB occupancy: 212.92 ROB OUT: 13722190
Heartbeat_Variant_0 : 1381 0.337158 per_variant_size: 0 1381 0 0 0 0 0 0 0 
Heartbeat_Variant_1 : 1285 0.313721 per_variant_size: 0 617 668 0 0 0 0 0 0 
Heartbeat_Variant_2 : 1336 0.326172 per_variant_size: 0 506 360 243 227 0 0 0 0 
Heartbeat_Variant_3 : 0 0 per_variant_size: 0 0 0 0 0 0 0 0 0 
Heartbeat_Variant_0_evicts 0 : 5478 1 : 22 2 : 23 3 : 0 
Heartbeat_Variant_1_evicts 0 : 16 1 : 0 2 : 220 3 : 0 
Heartbeat_Variant_2_evicts 0 : 31 1 : 211 2 : 0 3 : 0 
Heartbeat_Variant_3_evicts 0 : 0 1 : 0 2 : 0 3 : 0 
Heartbeat CPU 0 instructions: 90000000 cycles: 43301469 heartbeat IPC: 1.35672 cumulative IPC: 1.36426 (Simulation time: 0 hr 14 min 48 sec) 
Cycle: 50000000 FTQ IN: 13551208 FTQ occupancy: 10.7259 DECODE IN: 13551220 DECODE occupancy: 27.4491 ROB IN: 13551236 ROB occupancy: 211.107 ROB OUT: 13551148
Heartbeat_Variant_0 : 1381 0.337158 per_variant_size: 0 1381 0 0 0 0 0 0 0 
Heartbeat_Variant_1 : 1290 0.314941 per_variant_size: 0 626 664 0 0 0 0 0 0 
Heartbeat_Variant_2 : 1340 0.327148 per_variant_size: 0 510 353 263 214 0 0 0 0 
Heartbeat_Variant_3 : 0 0 per_variant_size: 0 0 0 0 0 0 0 0 0 
Heartbeat_Variant_0_evicts 0 : 5628 1 : 49 2 : 58 3 : 0 
Heartbeat_Variant_1_evicts 0 : 49 1 : 0 2 : 251 3 : 0 
Heartbeat_Variant_2_evicts 0 : 58 1 : 247 2 : 0 3 : 0 
Heartbeat_Variant_3_evicts 0 : 0 1 : 0 2 : 0 3 : 0 
Heartbeat CPU 0 instructions: 100000001 cycles: 50627371 heartbeat IPC: 1.36502 cumulative IPC: 1.36441 (Simulation time: 0 hr 16 min 30 sec) 
Finished CPU 0 instructions: 50000003 cycles: 36645864 cumulative IPC: 1.36441 (Simulation time: 0 hr 16 min 30 sec) 

ChampSim completed all CPUs

Region of Interest Statistics

CPU 0 cumulative IPC: 1.36441 instructions: 50000003 cycles: 36645864
 Fetch stage stalled: 60.0388  Sim cycles: 36645864 fetch stall cycle: 22001733
 Empty decode stage: 48.6995  Sim cycles: 36645864 fetch stall cycle: 17846337
ITLB TOTAL     ACCESS:    5872637  HIT:    5376516  MISS:     496121  HIT %:     91.552  MISS %:    8.44801   MPKI: 9.92242
ITLB LOAD TRANSLATION INSTRUCTION	ACCESS:    5751624  HIT:    5255503  MISS:     496121  HIT %:    91.3742  MISS %:    8.62576  MPKI: 9.92242
ITLB TRANSLATION FROM L1D PREFETCHER INSTRUCTION	ACCESS:     121013  HIT:     121013  MISS:          0  HIT %:        100  MISS %:          0  MPKI: 0

ITLB AVERAGE MISS LATENCY: 9.05199 cycles
ITLB RQ	ACCESS:    8018955	FORWARD:          0	MERGED:    1719344	TO_CACHE:    6299611

DTLB TOTAL     ACCESS:    9007864  HIT:    8533340  MISS:     474524  HIT %:    94.7321  MISS %:    5.26789   MPKI: 9.49048
DTLB LOAD TRANSLATION DATA	ACCESS:    9007864  HIT:    8533340  MISS:     474524  HIT %:    94.7321  MISS %:    5.26789  MPKI: 9.49048

DTLB AVERAGE MISS LATENCY: 9.32007 cycles
DTLB RQ	ACCESS:   13369189	FORWARD:          0	MERGED:    4324037	TO_CACHE:    9045152

STLB TOTAL     ACCESS:    1214942  HIT:    1212910  MISS:       2032  HIT %:    99.8327  MISS %:   0.167251   MPKI: 0.04064
STLB LOAD TRANSLATION INSTRUCTION	ACCESS:     496121  HIT:     495877  MISS:        244  HIT %:    99.9508  MISS %:  0.0491816  MPKI: 0.00488
STLB LOAD TRANSLATION DATA	ACCESS:     474519  HIT:     472762  MISS:       1757  HIT %:    99.6297  MISS %:    0.37027  MPKI: 0.03514
STLB TRANSLATION FROM L1D PREFETCHER DATA	ACCESS:     244302  HIT:     244271  MISS:         31  HIT %:    99.9873  MISS %:  0.0126892  MPKI: 0.00062

STLB AVERAGE MISS LATENCY: 70.7544 cycles
STLB RQ	ACCESS:    1334215	FORWARD:          0	MERGED:     119233	TO_CACHE:    1214982

STLB Hit, L1D data hit: 0
STLB Hit, L2C data hit: 0
STLB Hit, LLC data hit: 0
STLB Hit, LLC data miss: 0
STLB STLB hints to L2: 0
L1D TOTAL     ACCESS:   13115565  HIT:   11995252  MISS:    1120313  HIT %:    91.4581  MISS %:    8.54186   MPKI: 22.4063
L1D LOAD DATA	ACCESS:    6577867  HIT:    5838136  MISS:     739731  HIT %:    88.7542  MISS %:    11.2458  MPKI: 14.7946
L1D RFO DATA	ACCESS:    6214444  HIT:    5928787  MISS:     285657  HIT %:    95.4033  MISS %:    4.59666  MPKI: 5.71314
L1D PREFETCH DATA	ACCESS:     323254  HIT:     228329  MISS:      94925  HIT %:    70.6345  MISS %:    29.3655  MPKI: 1.8985

L1D PREFETCH  REQUESTED:     727517  ISSUED:     727517  USEFUL:      34059  USELESS:      68296
L1D USEFUL LOAD PREFETCHES:      34059 PREFETCH ISSUED TO LOWER LEVEL:     102424  ACCURACY: 33.2529
 TIMELY PREFETCHES:      34059 LATE PREFETCHES: 7439 DROPPED PREFETCHES: 7
L1D AVERAGE MISS LATENCY: 216827 cycles
L1D RQ	ACCESS:   10700809	FORWARD:          0	MERGED:    3924306	TO_CACHE:    6612462
L1D WQ	ACCESS:    6949781	FORWARD:     164418	MERGED:     193054	TO_CACHE:    6756727
L1D PQ	ACCESS:     363947	FORWARD:          0	MERGED:          0	TO_CACHE:     363570

L1D UNIQUE REGIONS ACCESSED: 0
L1D REGIONS CONFLICTS: 0
L1D Cross Page Prefetch Requests: 6825
L1D Same Page Prefetch Requests: 741139
L1D ROI Sum of L1D PQ occupancy: 4615686
L1D PREFETCHES PUSHED FROM L2C: 0
L1I TOTAL     ACCESS:    7226393  HIT:    4455019  MISS:    2771374  HIT %:    61.6493  MISS %:    38.3507   MPKI: 55.4275
L1I LOAD INSTRUCTION	ACCESS:    6564694  HIT:    3793320  MISS:    2771374  HIT %:    57.7837  MISS %:    42.2163  MPKI: 55.4275
L1I PREFETCH INSTRUCTION	ACCESS:     661699  HIT:     661699  MISS:          0  HIT %:        100  MISS %:          0  MPKI: 0

L1I PREFETCH  REQUESTED:    1587854  ISSUED:    1587854  USEFUL:          0  USELESS:          0
L1I USEFUL LOAD PREFETCHES:          0 PREFETCH ISSUED TO LOWER LEVEL:          0  ACCURACY: -nan
 TIMELY PREFETCHES:          0 LATE PREFETCHES: 0 DROPPED PREFETCHES: 0
L1I AVERAGE MISS LATENCY: 17.1867 cycles
L1I RQ	ACCESS:    9475578	FORWARD:          0	MERGED:    2609413	TO_CACHE:    6866165
L1I PQ	ACCESS:    1587854	FORWARD:          0	MERGED:     435064	TO_CACHE:    1152790

L1BTB TOTAL     ACCESS:    5671591  HIT:    2032466  MISS:    3639125  HIT %:    35.8359  MISS %:    64.1641   MPKI: 72.7825
L1BTB BRANCH_DIRECT_JUMP	ACCESS:     547869  HIT:     144016  MISS:     403853	AVERAGE STALL: 42.0658
L1BTB BRANCH_INDIRECT	ACCESS:     182376  HIT:      65594  MISS:     116782	AVERAGE STALL: 92.7459
L1BTB BRANCH_CONDITIONAL	ACCESS:    2696940  HIT:    1401539  MISS:    1295401	AVERAGE STALL: 53.971
L1BTB BRANCH_DIRECT_CALL	ACCESS:     949410  HIT:     107171  MISS:     842239	AVERAGE STALL: 64.666
L1BTB BRANCH_INDIRECT_CALL	ACCESS:     172792  HIT:      21990  MISS:     150802	AVERAGE STALL: 119.438
L1BTB BRANCH_RETURN	ACCESS:    1122204  HIT:     292156  MISS:     830048	AVERAGE STALL: 43.9741
L1BTB BRANCH_OTHER ACCESS:          0  HIT:          0  MISS:          0	AVERAGE STALL: -nan
L1BTB TOTAL ROB OCCUPANCY AT BTB MISS: 2.16649

L2BTB TOTAL     ACCESS:    3613862  HIT:    3550592  MISS:      63270  HIT %:    98.2492  MISS %:    1.75076   MPKI: 1.2654
L2BTB BRANCH_DIRECT_JUMP	ACCESS:     399756  HIT:     396374  MISS:       3382	AVERAGE STALL: 42.0658
L2BTB BRANCH_INDIRECT	ACCESS:     106490  HIT:     103829  MISS:       2661	AVERAGE STALL: 92.7459
L2BTB BRANCH_CONDITIONAL	ACCESS:    1295401  HIT:    1292551  MISS:       2850	AVERAGE STALL: 53.971
L2BTB BRANCH_DIRECT_CALL	ACCESS:     842239  HIT:     841688  MISS:        551	AVERAGE STALL: 64.666
L2BTB BRANCH_INDIRECT_CALL	ACCESS:     141348  HIT:     131331  MISS:      10017	AVERAGE STALL: 119.438
L2BTB BRANCH_RETURN	ACCESS:     828628  HIT:     784819  MISS:      43809	AVERAGE STALL: 43.9741
L2BTB BRANCH_OTHER ACCESS:          0  HIT:          0  MISS:          0	AVERAGE STALL: -nan
L2BTB TOTAL ROB OCCUPANCY AT BTB MISS: 124.611

L2C TOTAL     ACCESS:    4498613  HIT:    4027646  MISS:     470967  HIT %:    89.5308  MISS %:    10.4692   MPKI: 9.41934
L2C LOAD INSTRUCTION	ACCESS:    2771375  HIT:    2508730  MISS:     262645  HIT %:    90.5229  MISS %:    9.47706  MPKI: 5.2529
L2C LOAD TRANSLATION INSTRUCTION	ACCESS:        273  HIT:         65  MISS:        208  HIT %:    23.8095  MISS %:    76.1905  MPKI: 0.00416
L2C LOAD DATA	ACCESS:     732264  HIT:     659431  MISS:      72833  HIT %:    90.0537  MISS %:    9.94628  MPKI: 1.45666
L2C RFO DATA	ACCESS:     285569  HIT:     236252  MISS:      49317  HIT %:    82.7303  MISS %:    17.2697  MPKI: 0.98634
L2C PREFETCH DATA	ACCESS:     184731  HIT:     114076  MISS:      70655  HIT %:    61.7525  MISS %:    38.2475  MPKI: 1.4131
L2C WRITEBACK DATA	ACCESS:     522543  HIT:     508563  MISS:      13980  HIT %:    97.3246  MISS %:    2.67538  MPKI: 0.2796
L2C LOAD TRANSLATION DATA	ACCESS:       1805  HIT:        492  MISS:       1313  HIT %:    27.2576  MISS %:    72.7424  MPKI: 0.02626
L2C TRANSLATION FROM L1D PREFETCHER DATA	ACCESS:         53  HIT:         37  MISS:         16  HIT %:    69.8113  MISS %:    30.1887  MPKI: 0.00032

L2C PREFETCH  REQUESTED:      91326  ISSUED:      91326  USEFUL:       8467  USELESS:      62880
L2C USEFUL LOAD PREFETCHES:       8467 PREFETCH ISSUED TO LOWER LEVEL:      71277  ACCURACY: 11.879
 TIMELY PREFETCHES:       8467 LATE PREFETCHES: 622 DROPPED PREFETCHES: 0
L2C AVERAGE MISS LATENCY: 38.1135 cycles
L2C RQ	ACCESS:    3791397	FORWARD:          0	MERGED:          0	TO_CACHE:    3791342
L2C WQ	ACCESS:     522543	FORWARD:         55	MERGED:          0	TO_CACHE:     522543
L2C PQ	ACCESS:     193750	FORWARD:          0	MERGED:       3838	TO_CACHE:     189912

L2C Dense regions hint from L2: 0
PSCL5 TOTAL     ACCESS:       4084  HIT:       2042  MISS:       2042  HIT %:         50  MISS %:         50   MPKI: 0.04084
PSCL5 LOAD TRANSLATION INSTRUCTION	ACCESS:       3980  HIT:       1990  MISS:       1990  HIT %:         50  MISS %:         50  MPKI: 0.0398
PSCL5 TRANSLATION FROM L1D PREFETCHER INSTRUCTION	ACCESS:        104  HIT:         52  MISS:         52  HIT %:         50  MISS %:         50  MPKI: 0.00104


PSCL4 TOTAL     ACCESS:       3990  HIT:       1993  MISS:       1997  HIT %:    49.9499  MISS %:    50.0501   MPKI: 0.03994
PSCL4 LOAD TRANSLATION INSTRUCTION	ACCESS:       3339  HIT:       1941  MISS:       1398  HIT %:    58.1312  MISS %:    41.8688  MPKI: 0.02796
PSCL4 TRANSLATION FROM L1D PREFETCHER INSTRUCTION	ACCESS:         86  HIT:         52  MISS:         34  HIT %:    60.4651  MISS %:    39.5349  MPKI: 0.00068
PSCL4 LOAD TRANSLATION DATA	ACCESS:        547  HIT:          0  MISS:        547  HIT %:          0  MISS %:        100  MPKI: 0.01094
PSCL4 TRANSLATION FROM L1D PREFETCHER DATA	ACCESS:         18  HIT:          0  MISS:         18  HIT %:          0  MISS %:        100  MPKI: 0.00036


PSCL3 TOTAL     ACCESS:       4034  HIT:       2015  MISS:       2019  HIT %:    49.9504  MISS %:    50.0496   MPKI: 0.04038
PSCL3 LOAD TRANSLATION INSTRUCTION	ACCESS:       3361  HIT:       1963  MISS:       1398  HIT %:    58.4052  MISS %:    41.5948  MPKI: 0.02796
PSCL3 TRANSLATION FROM L1D PREFETCHER INSTRUCTION	ACCESS:         86  HIT:         52  MISS:         34  HIT %:    60.4651  MISS %:    39.5349  MPKI: 0.00068
PSCL3 LOAD TRANSLATION DATA	ACCESS:        569  HIT:          0  MISS:        569  HIT %:          0  MISS %:        100  MPKI: 0.01138
PSCL3 TRANSLATION FROM L1D PREFETCHER DATA	ACCESS:         18  HIT:          0  MISS:         18  HIT %:          0  MISS %:        100  MPKI: 0.00036


PSCL2 TOTAL     ACCESS:       4003  HIT:       1961  MISS:       2042  HIT %:    48.9883  MISS %:    51.0117   MPKI: 0.04084
PSCL2 LOAD TRANSLATION INSTRUCTION	ACCESS:       2153  HIT:       1910  MISS:        243  HIT %:    88.7134  MISS %:    11.2866  MPKI: 0.00486
PSCL2 TRANSLATION FROM L1D PREFETCHER INSTRUCTION	ACCESS:         51  HIT:         51  MISS:          0  HIT %:        100  MISS %:          0  MPKI: 0
PSCL2 LOAD TRANSLATION DATA	ACCESS:       1748  HIT:          0  MISS:       1748  HIT %:          0  MISS %:        100  MPKI: 0.03496
PSCL2 TRANSLATION FROM L1D PREFETCHER DATA	ACCESS:         51  HIT:          0  MISS:         51  HIT %:          0  MISS %:        100  MPKI: 0.00102


LLC TOTAL     ACCESS:     529086  HIT:     502009  MISS:      27077  HIT %:    94.8823  MISS %:    5.11769   MPKI: 0.54154
LLC LOAD INSTRUCTION	ACCESS:     262645  HIT:     261853  MISS:        792  HIT %:    99.6985  MISS %:   0.301548  MPKI: 0.01584
LLC LOAD TRANSLATION INSTRUCTION	ACCESS:        208  HIT:        182  MISS:         26  HIT %:       87.5  MISS %:       12.5  MPKI: 0.00052
LLC LOAD DATA	ACCESS:      72236  HIT:      68961  MISS:       3275  HIT %:    95.4662  MISS %:    4.53375  MPKI: 0.0655
LLC RFO DATA	ACCESS:      49287  HIT:      36458  MISS:      12829  HIT %:    73.9708  MISS %:    26.0292  MPKI: 0.25658
LLC PREFETCH DATA	ACCESS:      71277  HIT:      61507  MISS:       9770  HIT %:    86.2929  MISS %:    13.7071  MPKI: 0.1954
LLC WRITEBACK DATA	ACCESS:      72104  HIT:      71793  MISS:        311  HIT %:    99.5687  MISS %:   0.431321  MPKI: 0.00622
LLC LOAD TRANSLATION DATA	ACCESS:       1313  HIT:       1239  MISS:         74  HIT %:    94.3641  MISS %:    5.63595  MPKI: 0.00148
LLC TRANSLATION FROM L1D PREFETCHER DATA	ACCESS:         16  HIT:         16  MISS:          0  HIT %:        100  MISS %:          0  MPKI: 0

LLC AVERAGE MISS LATENCY: 155.231 cycles
LLC RQ	ACCESS:     385710	FORWARD:          0	MERGED:          0	TO_CACHE:     385705
LLC WQ	ACCESS:      72104	FORWARD:          5	MERGED:          0	TO_CACHE:      72104
LLC PQ	ACCESS:      71277	FORWARD:          0	MERGED:          0	TO_CACHE:      71277

LLC Dense regions hint to LLC: 0

RAW hits: 1928060
Loads Generated: 12628869
Loads sent to L1D: 10700809
Stores Generated: 6949757
Stores sent to L1D: 6949781
Major fault: 0 Minor fault: 2587
Allocated PAGES: 2587

stream: 
stream:times selected: 1174474
stream:pref_filled: 121030
stream:pref_useful: 24122
stream:pref_late: 6881
stream:misses: 7893
stream:misses_by_poll: 0

CS: 
CS:times selected: 175832
CS:pref_filled: 60797
CS:pref_useful: 37536
CS:pref_late: 6497
CS:misses: 15782
CS:misses_by_poll: 2

CPLX: 
CPLX:times selected: 997468
CPLX:pref_filled: 19596
CPLX:pref_useful: 4641
CPLX:pref_late: 3275
CPLX:misses: 94148
CPLX:misses_by_poll: 0

NL_L1: 
NL:times selected: 20653
NL:pref_filled: 682
NL:pref_useful: 326
NL:pref_late: 323
NL:misses: 1735
NL:misses_by_poll: 0

total selections: 2368427
total_filled: 94925
total_useful: 34059
total_late: 18388
total_polluted: 2
total_misses_after_warmup: 774326
conflicts: 5540650

test: 115752

DRAM Statistics
 CHANNEL 0
 RQ ROW_BUFFER_HIT:       9823  ROW_BUFFER_MISS:      16938
 DBUS_CONGESTED:         12
 WQ ROW_BUFFER_HIT:       1322  ROW_BUFFER_MISS:      11695  FULL:          0

 AVG_CONGESTED_CYCLE: 4

CPU 0 Branch Prediction Accuracy: 99.8269% MPKI: 0.31696 Average ROB Occupancy at Mispredict: 169.057
Branch types
NOT_BRANCH: 40846402 81.6928%
BRANCH_DIRECT_JUMP: 547869 1.09574%
BRANCH_INDIRECT: 182376 0.364752%
BRANCH_CONDITIONAL: 6178982 12.358%
BRANCH_DIRECT_CALL: 949410 1.89882%
BRANCH_INDIRECT_CALL: 172792 0.345584%
BRANCH_RETURN: 1122204 2.24441%
BRANCH_OTHER: 0 0%

DRAM PAGES: 1048576
Allocated PAGES: 2587
Average_ROB_Occupancy: 213.379
Average_Decode_Occupancy: 27.5316
Average_FTQ_Occupancy: 10.6785
Indirect max targets: 14 Average targets: 1.14527
Branch_type:  BRANCH_DIRECT_JUMP:  Count Percentage: 3.38073 5.42582 4.18493 7.86647 1.69073 5.96347 1.1486 70.3393 
Branch_type:  BRANCH_INDIRECT:  Count Percentage: 11.7572 3.41318 2.49149 9.67814 3.35227 4.01822 2.01871 63.2708 
Branch_type:  BRANCH_CONDITIONAL:  Count Percentage: 21.3705 5.35117 2.31055 4.30727 2.1385 4.44314 0.647674 59.4311 
Branch_type:  BRANCH_DIRECT_CALL:  Count Percentage: 0.256492 1.30821 1.41073 3.45064 2.85587 2.34099 0.608595 87.7685 
Branch_type:  BRANCH_INDIRECT_CALL:  Count Percentage: 9.51905 0.554184 2.98472 4.81703 1.5067 2.97342 0.991043 76.6539 
Branch_type:  BRANCH_RETURN:  Count Percentage: 3.72484 3.62119 1.61679 5.90196 4.43224 4.8696 1.02589 74.8075 
Branch_type:  BRANCH_DIRECT_JUMP:  Total Count: 36998 59379 45799 86089 18503 65263 12570 769778 
Branch_type:  BRANCH_INDIRECT:  Total Count: 42848 12439 9080 35271 12217 14644 7357 230584 
Branch_type:  BRANCH_CONDITIONAL:  Total Count: 2638941 660789 285318 531883 264073 548661 79978 7338852 
Branch_type:  BRANCH_DIRECT_CALL:  Total Count: 4861 24793 26736 65396 54124 44366 11534 1663375 
Branch_type:  BRANCH_INDIRECT_CALL:  Total Count: 32859 1913 10303 16628 5201 10264 3421 264603 
Branch_type:  BRANCH_RETURN:  Total Count: 83480 81157 36235 132273 99334 109136 22992 1676562 
Number of unique branch instructions: 9858
Upper 32 bits: 
aaaa
ffff
ffff0000
Unique upper 32 bits: 3
Unique upper 36 bits: 3
Unique upper 40 bits: 5
Unique upper 44 bits: 32
Unique upper 48 bits: 154
Variant_0 : 1381 0.337158
Variant_1 : 1290 0.314941
Variant_2 : 1340 0.327148
Variant_3 : 0 0
Offset_3 4068
Offset_4 241
Offset_5 453
Offset_6 505
Offset_7 585
Offset_8 497
Offset_9 466
Offset_10 380
Offset_11 312
Offset_12 270
Offset_13 203
Offset_14 226
Offset_15 192
Offset_16 222
Offset_17 145
Offset_18 120
Offset_19 239
Offset_20 137
Offset_21 235
Offset_22 394
Offset_23 242
Offset_24 328
Offset_25 88
Offset_47 80
Offset_64 1
decode_dispatch_called: 23570185 64.3188
Dispatch_width: 0 12435895 52.7611 33.9353
Dispatch_width: 1 813820 3.45275 2.22077
Dispatch_width: 2 735938 3.12233 2.00824
Dispatch_width: 3 468847 1.98915 1.2794
Dispatch_width: 4 4084791 17.3303 11.1467
Dispatch_width: 5 216762 0.919645 0.591505
Dispatch_width: 6 4814132 20.4247 13.1369
Empty_decode_cycles: 13075679 35.6812
ROB_full_cycles: 6424339 17.5309
Starvation_cycles_per_kilo_instr: 254.074
Starvation_cycles_per_kilo_instr_3: 211.058
Starvation_cycles_per_kilo_instr_0: 190.872
Branch_type_1  (3,1)  (4,9)  (5,37)  (6,70)  (7,116)  (8,124)  (9,124)  (10,96)  (11,69)  (12,43)  (13,8)  (14,2)  (15,3)  (16,4)  (18,1)  (19,4)  (20,2)  (21,1)  (22,3)  (23,2)  (24,10)  (25,12) 
Branch_type_2  (3,1)  (5,1)  (8,3)  (9,3)  (12,1)  (13,1)  (14,1)  (16,3)  (17,2)  (20,2)  (21,2)  (23,5)  (24,1)  (47,36) 
Branch_type_3  (3,4066)  (4,232)  (5,411)  (6,420)  (7,438)  (8,308)  (9,253)  (10,156)  (11,126)  (12,50)  (13,7)  (64,1) 
Branch_type_4  (6,3)  (7,8)  (8,25)  (9,54)  (10,61)  (11,60)  (12,97)  (13,85)  (14,101)  (15,91)  (16,100)  (17,63)  (18,54)  (19,117)  (20,72)  (21,124)  (22,209)  (23,136)  (24,188)  (25,72) 
Branch_type_5  (8,2)  (9,1)  (10,3)  (11,5)  (12,3)  (13,14)  (14,16)  (15,11)  (16,20)  (17,13)  (18,16)  (19,12)  (20,10)  (21,13)  (22,42)  (23,26)  (24,37) 
Branch_type_6  (5,4)  (6,12)  (7,23)  (8,35)  (9,31)  (10,64)  (11,52)  (12,76)  (13,88)  (14,106)  (15,87)  (16,95)  (17,67)  (18,49)  (19,106)  (20,51)  (21,95)  (22,140)  (23,73)  (24,92)  (25,4)  (47,44) 
Unique trigger count: 
Variant_0_evicts_0 : 0
Variant_0_evicts_1 : 0
Variant_0_evicts_2 : 0
Variant_0_evicts_3 : 0
Variant_1_evicts_0 : 0
Variant_1_evicts_1 : 0
Variant_1_evicts_2 : 0
Variant_1_evicts_3 : 0
Variant_2_evicts_0 : 0
Variant_2_evicts_1 : 0
Variant_2_evicts_2 : 0
Variant_2_evicts_3 : 0
Variant_3_evicts_0 : 0
Variant_3_evicts_1 : 0
Variant_3_evicts_2 : 0
Variant_3_evicts_3 : 0
BTB PER SET UNIQUE ADDR: 7 10 9 11 12 9 7 9 9 13 7 12 13 10 8 8 8 8 10 11 12 8 10 12 4 13 11 9 12 6 12 15 12 8 9 11 8 12 5 9 9 10 8 11 8 10 8 9 6 14 11 8 8 8 14 8 8 8 7 9 8 15 12 8 7 10 11 9 11 9 8 11 11 5 6 5 7 12 8 16 12 5 12 12 16 14 13 8 11 17 6 6 9 10 8 13 6 12 10 10 16 14 14 8 8 7 9 10 7 7 11 13 12 6 8 6 12 12 8 8 8 8 7 6 9 12 5 8 15 10 9 7 11 10 7 12 7 12 8 14 10 10 8 10 12 12 13 8 5 10 14 15 10 6 9 12 13 12 10 14 8 11 9 12 8 8 7 8 12 6 12 11 13 9 10 11 11 12 12 12 5 9 11 13 15 13 5 9 7 9 9 9 10 13 9 12 8 12 11 11 14 13 7 7 7 10 6 10 7 7 10 17 12 9 13 9 9 11 8 15 9 11 7 9 11 10 14 8 8 17 6 6 10 13 8 12 9 10 11 6 11 7 12 7 7 12 13 11 10 9 11 9 13 12 14 10 9 8 7 8 10 5 4 10 12 8 8 10 9 7 9 8 5 4 7 7 10 12 9 7 8 10 9 10 11 10 11 9 15 12 7 10 15 11 6 15 11 9 9 15 11 8 11 10 8 10 7 7 10 9 10 15 6 6 9 6 11 7 8 12 10 17 6 8 14 10 12 7 9 7 12 7 10 8 11 12 11 11 9 15 11 7 7 10 8 8 12 9 14 10 8 9 14 8 10 15 11 12 5 10 7 16 9 14 7 9 6 10 13 12 12 9 9 8 10 13 13 12 10 13 10 8 8 7 8 9 11 10 14 13 11 7 16 11 8 10 12 6 7 7 7 7 13 11 14 13 5 9 12 9 13 6 8 10 6 7 11 14 13 16 8 8 10 11 10 11 9 10 7 6 12 9 11 11 8 13 13 5 8 7 12 7 12 10 19 6 6 10 11 9 10 12 12 10 9 10 17 13 6 14 10 10 12 16 11 9 12 9 9 9 13 12 10 7 9 13 9 13 7 10 16 11 13 9 7 12 10 8 14 10 8 8 7 7 8 9 12 15 9 5 11 16 11 15 5 7 7 11 12 10 9 14 9 8 10 7 6 13 9 7 10 10 11 9 10 10 12 8 4 19 12 12 11 11 6 10 11 9 12 12 13 7 12 9 12 16 11 5 7 11 13 11 9 11 9 12 9 15 11 12 10 19 11 7 10 10 12 7 7 12 12 14 12 11 10 13 11 17 7 11 9 9 9 11 8 7 10 16 13 7 8 11 9 10 14 9 8 11 14 15 12 7 10 5 9 15 11 8 12 9 10 12 9 10 3 14 9 15 8 10 17 10 7 8 10 13 9 15 9 15 10 8 9 7 7 11 11 13 10 15 6 10 12 12 12 10 10 13 18 12 8 12 8 12 13 11 9 11 12 12 9 6 10 16 8 10 7 13 9 8 12 8 7 14 16 4 11 12 12 10 5 11 9 12 13 11 9 14 12 12 12 13 11 7 8 11 9 10 5 11 7 12 10 9 7 10 12 11 9 6 9 11 6 9 12 8 13 10 5 14 11 7 12 7 7 7 10 11 11 10 14 10 9 6 8 12 11 7 16 10 10 7 10 14 11 11 11 9 10 5 8 9 10 13 9 8 9 9 8 7 7 8 6 10 10 8 10 12 8 10 8 14 7 4 7 11 6 10 13 12 5 14 14 7 10 6 6 10 9 5 8 6 10 13 13 12 10 8 13 8 16 8 10 11 9 11 9 11 8 10 9 16 7 9 10 15 10 8 7 16 9 12 9 8 14 7 6 12 10 12 17 11 9 8 10 7 7 7 14 8 10 12 7 9 9 13 8 10 7 9 13 10 10 9 10 12 8 8 13 11 9 15 7 10 15 8 9 9 14 9 9 13 13 12 12 6 12 11 9 12 10 7 13 12 11 11 14 9 10 15 11 6 8 9 11 14 15 8 13 9 10 9 7 10 7 8 8 11 9 8 7 11 7 11 11 8 10 13 8 10 9 11 7 8 8 10 9 9 11 8 15 13 17 9 9 16 6 11 8 10 6 11 9 9 9 10 9 11 8 15 11 13 9 11 13 12 9 14 18 8 7 11 10 13 13 12 14 11 12 12 12 12 9 9 13 9 14 12 11 13 9 9 11 8 6 13 13 11 12 13 11 9 12 9 8 10 9 8 13 12 17 16 9 9 14 14 9 13 10 11 8 11 12 4 8 9 4 11 6 9 5 18 10 6 
BTB PER SET COUNT: 964 11 1593 11 409 12 7 12 1480 15 15 773 5784 1482 9 8 238 9 259 14 16 8 739 64 12 16 14 9 17 6 13 1581 14 10 9 569 8 17 5 584 11 10 10 1322 11 11 13 15 485 21 11 8 14 11 16 9 8 8 8 13 12 18 375 8 9 300 12 14 23 10 9 968 16 5 6 5 7 22 9 28 15 5 1161 14 19 1502 14 9 18 45 7 828 487 11 8 14 6 1016 14 10 22 255 19 14 966 10 16 11 8 9 15 15 1340 8 15 6 15 17 10 8 10 9 8 7 9 14 8 1521 33 862 13 12 11 13 11 16 969 16 9 18 12 11 9 14 17 12 25 12 5 211 24 177 10 6 11 13 1380 13 11 109 9 380 12 16 12 12 8 12 16 15 17 11 17 11 14 1436 19 21 18 958 961 14 1597 15 20 16 5 11 7 1370 9 9 10 18 15 147 8 25 18 12 17 17 7 8 7 12 6 15 8 960 10 21 19 12 14 10 9 17 8 20 9 15 7 9 14 25 14 9 9 28 6 7 12 17 964 17 10 494 14 7 11 8 13 8 8 15 15 14 10 12 16 17 13 15 17 535 9 15 8 9 1005 6 4 17 16 8 8 16 11 7 10 12 5 4 7 7 10 18 9 8 12 16 276 10 11 19 12 14 17 14 8 10 19 11 6 18 1122 9 9 337 14 8 648 16 14 11 7 484 16 9 17 21 6 6 1481 483 13 11 11 16 10 4037 6 13 18 59 392 9 11 10 19 8 16 9 15 12 14 13 9 264 15 2004 8 14 11 8 19 10 15 15 16 66 19 10 13 21 12 33 147 12 7 23 13 23 7 772 6 12 21 19 24 373 12 14 767 19 13 15 14 375 281 9 9 7 15 10 4310 10 22 970 532 8 18 360 8 14 16 11 12 7 7 8 71 14 19 17 6 13 15 11 316 9 9 14 6 7 15 42 15 31 12 8 17 13 17 11 9 16 8 8 16 10 21 11 12 18 15 5 8 7 14 7 37 17 504 6 7 15 19 9 964 2861 14 14 122 11 25 19 6 21 21 11 13 16 14 10 177 9 10 11 19 16 12 11 12 50 14 16 7 15 28 15 18 11 220 22 123 8 16 13 13 8 8910 8 10 13 1476 16 19 6 14 24 11 20 5 8 7 11 15 10 11 1648 23 964 10 7 7 19 12 13 10 10 17 162 14 15 16 14 4 824 19 88 16 16 8 13 13 973 16 443 18 8 20 11 14 126 11 8 7 1008 16 12 999 24 11 16 10 18 18 15 10 56 12 7 10 15 166 7 7 17 306 24 15 12 2475 14 16 896 8 14 11 10 11 2278 8 10 493 18 20 7 1125 11 13 14 17 11 1906 1329 18 20 16 10 17 5 9 19 14 2436 13 14 10 17 1912 10 3 17 448 20 8 13 30 12 11 10 14 17 10 21 10 17 12 10 31 9 9 14 16 952 12 21 6 18 17 15 19 14 965 29 36 17 9 14 9 13 22 16 14 16 220 33 13 6 11 22 14906 13 13 1011 1485 11 13 8 7 15 17 7 15 13 14 11 5 14 1003 13 1929 11 9 19 20 13 12 18 15 9 94 11 12 12 10 11 8 19 10 9 7 12 14 13 11 6 374 12 7 12 14 8 19 18 8 456 14 7 17 1482 8 7 13 15 512 12 130 14647 10 9 9 12 264 8 22 10 16 8 738 19 12 12 385 9 13 5 1481 13 1482 74 1161 9 11 374 8 7 12 12 7 320 23 10 15 12 8 13 49 24 11 7 13 12 9 10 15 15 961 21 666 9 10 6 6 15 9 5 12 7 15 17 1370 16 81 8 14 1326 109 9 10 355 10 12 9 15 15 10 11 21 7 10 15 853 16 1941 10 2144 14 732 10 9 971 23 7 14 16 18 24 12 12 10 10 429 8 9 23 9 13 14 8 14 12 18 12 11 8 9 14 15 28 18 1481 15 11 10 15 13 963 23 10 12 20 12 12 10 19 13 10 18 17 12 21 6 18 15 29 16 16 8 156 14 488 274 14 11 11 19 16 6 9 60 11 25 16 8 1838 13 14 14 10 402 9 11 8 16 12 369 8 12 16 11 81 727 16 208 10 16 15 767 946 8 12 249 12 9 15 14 20 19 842 14 11 22 9 15 9 17 6 901 10 12 12 11 62 13 8 22 36 1068 1428 1817 16 14 11 22 175 8 11 18 967 13 17 12 180 13 46 14 14 20 9 9 22 13 23 21 16 2959 10 13 13 240 6 14 16 82 19 45 12 9 12 10 12 11 11 1482 28 17 27 139 10 11 16 15 12 19 10 16 13 442 17 7 8 13 4 14 8 9 5 320 15 6 
To predecode: 0
Predecoding something: 0
Predecode request dropped: 0
sizeofblock_0 0
sizeofblock_1 38299
sizeofblock_2 33512
sizeofblock_3 43841
sizeofblock_4 19952
sizeofblock_5 0
sizeofblock_6 0
sizeofblock_7 0
sizeofblock_8 0
Variant_0 Correct: 1616344 Incorrect: 0 Accuracy: 1
Variant_1 Correct: 2094231 Incorrect: 0 Accuracy: 1
Variant_2 Correct: 3654086 Incorrect: 0 Accuracy: 1
Variant_3 Correct: 0 Incorrect: 0 Accuracy: -nan
