
*** ChampSim Multicore Out-of-Order Simulator ***

Warmup Instructions: 50000000
Simulation Instructions: 50000000
Number of CPUs: 1
LLC sets: 2048
LLC ways: 16
Off-chip DRAM Size: 4096 MB Channels: 1 Width: 64-bit Data Rate: 6400 MT/s
CPU 0 runs ./micro_traces/srv388.trace.gz
.gz
ITLB has LRU replacement policy
DTLB has LRU replacement policy
STLB has LRU replacement policy
FDIP Prefetcher at L1I
L1I has LRU replacement policy
L1D has LRU replacement policy
Initialize SRRIP state for L2C
Initialize DRRIP state for LLC
Heartbeat_Variant_0 : 1342 0.327637 per_variant_size: 0 1342 0 0 0 0 0 0 0 
Heartbeat_Variant_1 : 2562 0.625488 per_variant_size: 0 514 2048 0 0 0 0 0 0 
Heartbeat_Variant_2 : 0 0 per_variant_size: 0 0 0 0 0 0 0 0 0 
Heartbeat_Variant_3 : 0 0 per_variant_size: 0 0 0 0 0 0 0 0 0 
Heartbeat_Variant_0_evicts 0 : 5850 1 : 527 2 : 0 3 : 0 
Heartbeat_Variant_1_evicts 0 : 487 1 : 0 2 : 0 3 : 0 
Heartbeat_Variant_2_evicts 0 : 0 1 : 0 2 : 0 3 : 0 
Heartbeat_Variant_3_evicts 0 : 0 1 : 0 2 : 0 3 : 0 
Heartbeat CPU 0 instructions: 10000003 cycles: 2797393 heartbeat IPC: 3.57476 cumulative IPC: 3.57476 (Simulation time: 0 hr 1 min 44 sec) 
Heartbeat_Variant_0 : 1360 0.332031 per_variant_size: 0 1360 0 0 0 0 0 0 0 
Heartbeat_Variant_1 : 2584 0.630859 per_variant_size: 0 498 2086 0 0 0 0 0 0 
Heartbeat_Variant_2 : 0 0 per_variant_size: 0 0 0 0 0 0 0 0 0 
Heartbeat_Variant_3 : 0 0 per_variant_size: 0 0 0 0 0 0 0 0 0 
Heartbeat_Variant_0_evicts 0 : 5700 1 : 179 2 : 0 3 : 0 
Heartbeat_Variant_1_evicts 0 : 176 1 : 0 2 : 0 3 : 0 
Heartbeat_Variant_2_evicts 0 : 0 1 : 0 2 : 0 3 : 0 
Heartbeat_Variant_3_evicts 0 : 0 1 : 0 2 : 0 3 : 0 
Heartbeat CPU 0 instructions: 20000000 cycles: 5593369 heartbeat IPC: 3.57657 cumulative IPC: 3.57566 (Simulation time: 0 hr 3 min 26 sec) 
Heartbeat_Variant_0 : 1359 0.331787 per_variant_size: 0 1359 0 0 0 0 0 0 0 
Heartbeat_Variant_1 : 2588 0.631836 per_variant_size: 0 494 2094 0 0 0 0 0 0 
Heartbeat_Variant_2 : 0 0 per_variant_size: 0 0 0 0 0 0 0 0 0 
Heartbeat_Variant_3 : 0 0 per_variant_size: 0 0 0 0 0 0 0 0 0 
Heartbeat_Variant_0_evicts 0 : 5689 1 : 23 2 : 0 3 : 0 
Heartbeat_Variant_1_evicts 0 : 25 1 : 0 2 : 0 3 : 0 
Heartbeat_Variant_2_evicts 0 : 0 1 : 0 2 : 0 3 : 0 
Heartbeat_Variant_3_evicts 0 : 0 1 : 0 2 : 0 3 : 0 
Heartbeat CPU 0 instructions: 30000001 cycles: 8389719 heartbeat IPC: 3.57609 cumulative IPC: 3.57581 (Simulation time: 0 hr 5 min 3 sec) 
Heartbeat_Variant_0 : 1381 0.337158 per_variant_size: 0 1381 0 0 0 0 0 0 0 
Heartbeat_Variant_1 : 2666 0.650879 per_variant_size: 0 409 2257 0 0 0 0 0 0 
Heartbeat_Variant_2 : 0 0 per_variant_size: 0 0 0 0 0 0 0 0 0 
Heartbeat_Variant_3 : 0 0 per_variant_size: 0 0 0 0 0 0 0 0 0 
Heartbeat_Variant_0_evicts 0 : 5979 1 : 760 2 : 0 3 : 0 
Heartbeat_Variant_1_evicts 0 : 757 1 : 0 2 : 0 3 : 0 
Heartbeat_Variant_2_evicts 0 : 0 1 : 0 2 : 0 3 : 0 
Heartbeat_Variant_3_evicts 0 : 0 1 : 0 2 : 0 3 : 0 
Heartbeat CPU 0 instructions: 40000003 cycles: 11186507 heartbeat IPC: 3.57553 cumulative IPC: 3.57574 (Simulation time: 0 hr 6 min 39 sec) 
Heartbeat_Variant_0 : 1385 0.338135 per_variant_size: 0 1385 0 0 0 0 0 0 0 
Heartbeat_Variant_1 : 2666 0.650879 per_variant_size: 0 402 2264 0 0 0 0 0 0 
Heartbeat_Variant_2 : 0 0 per_variant_size: 0 0 0 0 0 0 0 0 0 
Heartbeat_Variant_3 : 0 0 per_variant_size: 0 0 0 0 0 0 0 0 0 
Heartbeat_Variant_0_evicts 0 : 5726 1 : 270 2 : 0 3 : 0 
Heartbeat_Variant_1_evicts 0 : 267 1 : 0 2 : 0 3 : 0 
Heartbeat_Variant_2_evicts 0 : 0 1 : 0 2 : 0 3 : 0 
Heartbeat_Variant_3_evicts 0 : 0 1 : 0 2 : 0 3 : 0 
Heartbeat CPU 0 instructions: 50000002 cycles: 13982505 heartbeat IPC: 3.57654 cumulative IPC: 3.5759 (Simulation time: 0 hr 8 min 12 sec) 

Warmup complete CPU 0 instructions: 50000002 cycles: 13982505 (Simulation time: 0 hr 8 min 12 sec) 

Cycle: 20000000 FTQ IN: 58381133 FTQ occupancy: 20.4275 DECODE IN: 58381133 DECODE occupancy: 53.1088 ROB IN: 58381133 ROB occupancy: 317.616 ROB OUT: 58380937
Heartbeat_Variant_0 : 1377 0.336182 per_variant_size: 0 1377 0 0 0 0 0 0 0 
Heartbeat_Variant_1 : 2686 0.655762 per_variant_size: 0 395 2291 0 0 0 0 0 0 
Heartbeat_Variant_2 : 0 0 per_variant_size: 0 0 0 0 0 0 0 0 0 
Heartbeat_Variant_3 : 0 0 per_variant_size: 0 0 0 0 0 0 0 0 0 
Heartbeat_Variant_0_evicts 0 : 5850 1 : 465 2 : 0 3 : 0 
Heartbeat_Variant_1_evicts 0 : 473 1 : 0 2 : 0 3 : 0 
Heartbeat_Variant_2_evicts 0 : 0 1 : 0 2 : 0 3 : 0 
Heartbeat_Variant_3_evicts 0 : 0 1 : 0 2 : 0 3 : 0 
Heartbeat CPU 0 instructions: 60000003 cycles: 21253971 heartbeat IPC: 1.37524 cumulative IPC: 1.37524 (Simulation time: 0 hr 10 min 2 sec) 
Heartbeat_Variant_0 : 1374 0.335449 per_variant_size: 0 1374 0 0 0 0 0 0 0 
Heartbeat_Variant_1 : 2691 0.656982 per_variant_size: 0 413 2278 0 0 0 0 0 0 
Heartbeat_Variant_2 : 0 0 per_variant_size: 0 0 0 0 0 0 0 0 0 
Heartbeat_Variant_3 : 0 0 per_variant_size: 0 0 0 0 0 0 0 0 0 
Heartbeat_Variant_0_evicts 0 : 5579 1 : 118 2 : 0 3 : 0 
Heartbeat_Variant_1_evicts 0 : 121 1 : 0 2 : 0 3 : 0 
Heartbeat_Variant_2_evicts 0 : 0 1 : 0 2 : 0 3 : 0 
Heartbeat_Variant_3_evicts 0 : 0 1 : 0 2 : 0 3 : 0 
Heartbeat CPU 0 instructions: 70000000 cycles: 28418294 heartbeat IPC: 1.3958 cumulative IPC: 1.38545 (Simulation time: 0 hr 11 min 59 sec) 
Cycle: 30000000 FTQ IN: 13838427 FTQ occupancy: 14.939 DECODE IN: 13838427 DECODE occupancy: 38.102 ROB IN: 13838427 ROB occupancy: 250.134 ROB OUT: 13838518
Heartbeat_Variant_0 : 1379 0.33667 per_variant_size: 0 1379 0 0 0 0 0 0 0 
Heartbeat_Variant_1 : 2690 0.656738 per_variant_size: 0 402 2288 0 0 0 0 0 0 
Heartbeat_Variant_2 : 0 0 per_variant_size: 0 0 0 0 0 0 0 0 0 
Heartbeat_Variant_3 : 0 0 per_variant_size: 0 0 0 0 0 0 0 0 0 
Heartbeat_Variant_0_evicts 0 : 5663 1 : 213 2 : 0 3 : 0 
Heartbeat_Variant_1_evicts 0 : 209 1 : 0 2 : 0 3 : 0 
Heartbeat_Variant_2_evicts 0 : 0 1 : 0 2 : 0 3 : 0 
Heartbeat_Variant_3_evicts 0 : 0 1 : 0 2 : 0 3 : 0 
Heartbeat CPU 0 instructions: 80000003 cycles: 35583109 heartbeat IPC: 1.39571 cumulative IPC: 1.38885 (Simulation time: 0 hr 13 min 55 sec) 
Cycle: 40000000 FTQ IN: 13800852 FTQ occupancy: 14.7686 DECODE IN: 13800734 DECODE occupancy: 37.6795 ROB IN: 13800734 ROB occupancy: 248.574 ROB OUT: 13800552
Heartbeat_Variant_0 : 1382 0.337402 per_variant_size: 0 1382 0 0 0 0 0 0 0 
Heartbeat_Variant_1 : 2689 0.656494 per_variant_size: 0 418 2271 0 0 0 0 0 0 
Heartbeat_Variant_2 : 0 0 per_variant_size: 0 0 0 0 0 0 0 0 0 
Heartbeat_Variant_3 : 0 0 per_variant_size: 0 0 0 0 0 0 0 0 0 
Heartbeat_Variant_0_evicts 0 : 5669 1 : 267 2 : 0 3 : 0 
Heartbeat_Variant_1_evicts 0 : 264 1 : 0 2 : 0 3 : 0 
Heartbeat_Variant_2_evicts 0 : 0 1 : 0 2 : 0 3 : 0 
Heartbeat_Variant_3_evicts 0 : 0 1 : 0 2 : 0 3 : 0 
Heartbeat CPU 0 instructions: 90000003 cycles: 42842939 heartbeat IPC: 1.37744 cumulative IPC: 1.38598 (Simulation time: 0 hr 15 min 53 sec) 
Cycle: 50000000 FTQ IN: 13966158 FTQ occupancy: 14.9028 DECODE IN: 13966159 DECODE occupancy: 38.4034 ROB IN: 13966099 ROB occupancy: 252.284 ROB OUT: 13966034
Heartbeat_Variant_0 : 1381 0.337158 per_variant_size: 0 1381 0 0 0 0 0 0 0 
Heartbeat_Variant_1 : 2690 0.656738 per_variant_size: 0 412 2278 0 0 0 0 0 0 
Heartbeat_Variant_2 : 0 0 per_variant_size: 0 0 0 0 0 0 0 0 0 
Heartbeat_Variant_3 : 0 0 per_variant_size: 0 0 0 0 0 0 0 0 0 
Heartbeat_Variant_0_evicts 0 : 5553 1 : 56 2 : 0 3 : 0 
Heartbeat_Variant_1_evicts 0 : 57 1 : 0 2 : 0 3 : 0 
Heartbeat_Variant_2_evicts 0 : 0 1 : 0 2 : 0 3 : 0 
Heartbeat_Variant_3_evicts 0 : 0 1 : 0 2 : 0 3 : 0 
Heartbeat CPU 0 instructions: 100000000 cycles: 50008395 heartbeat IPC: 1.39558 cumulative IPC: 1.38789 (Simulation time: 0 hr 17 min 50 sec) 
Finished CPU 0 instructions: 50000002 cycles: 36025891 cumulative IPC: 1.38789 (Simulation time: 0 hr 17 min 50 sec) 

ChampSim completed all CPUs

Region of Interest Statistics

CPU 0 cumulative IPC: 1.38789 instructions: 50000002 cycles: 36025891
 Fetch stage stalled: 46.116  Sim cycles: 36025891 fetch stall cycle: 16613706
 Empty decode stage: 25.6681  Sim cycles: 36025891 fetch stall cycle: 9247150
ITLB TOTAL     ACCESS:    5838037  HIT:    5341387  MISS:     496650  HIT %:    91.4929  MISS %:    8.50714   MPKI: 9.933
ITLB LOAD TRANSLATION INSTRUCTION	ACCESS:    5701163  HIT:    5204513  MISS:     496650  HIT %:    91.2886  MISS %:    8.71138  MPKI: 9.933
ITLB TRANSLATION FROM L1D PREFETCHER INSTRUCTION	ACCESS:     136874  HIT:     136874  MISS:          0  HIT %:        100  MISS %:          0  MPKI: 0

ITLB AVERAGE MISS LATENCY: 9.04852 cycles
ITLB RQ	ACCESS:    7941462	FORWARD:          0	MERGED:    1616725	TO_CACHE:    6324737

DTLB TOTAL     ACCESS:    8960547  HIT:    8486448  MISS:     474099  HIT %:     94.709  MISS %:    5.29096   MPKI: 9.48198
DTLB LOAD TRANSLATION DATA	ACCESS:    8960547  HIT:    8486448  MISS:     474099  HIT %:     94.709  MISS %:    5.29096  MPKI: 9.48198

DTLB AVERAGE MISS LATENCY: 9.31271 cycles
DTLB RQ	ACCESS:   13331186	FORWARD:          0	MERGED:    4333840	TO_CACHE:    8997346

STLB TOTAL     ACCESS:    1217523  HIT:    1215474  MISS:       2049  HIT %:    99.8317  MISS %:   0.168293   MPKI: 0.04098
STLB LOAD TRANSLATION INSTRUCTION	ACCESS:     496649  HIT:     496437  MISS:        212  HIT %:    99.9573  MISS %:  0.0426861  MPKI: 0.00424
STLB LOAD TRANSLATION DATA	ACCESS:     474099  HIT:     472289  MISS:       1810  HIT %:    99.6182  MISS %:   0.381777  MPKI: 0.0362
STLB TRANSLATION FROM L1D PREFETCHER DATA	ACCESS:     246775  HIT:     246748  MISS:         27  HIT %:    99.9891  MISS %:  0.0109411  MPKI: 0.00054

STLB AVERAGE MISS LATENCY: 68.6076 cycles
STLB RQ	ACCESS:    1337416	FORWARD:          0	MERGED:     119864	TO_CACHE:    1217552

STLB Hit, L1D data hit: 0
STLB Hit, L2C data hit: 0
STLB Hit, LLC data hit: 0
STLB Hit, LLC data miss: 0
STLB STLB hints to L2: 0
L1D TOTAL     ACCESS:   13075125  HIT:   11953733  MISS:    1121392  HIT %:    91.4235  MISS %:    8.57653   MPKI: 22.4278
L1D LOAD DATA	ACCESS:    6542997  HIT:    5801124  MISS:     741873  HIT %:    88.6616  MISS %:    11.3384  MPKI: 14.8375
L1D RFO DATA	ACCESS:    6206653  HIT:    5922205  MISS:     284448  HIT %:     95.417  MISS %:    4.58295  MPKI: 5.68896
L1D PREFETCH DATA	ACCESS:     325475  HIT:     230404  MISS:      95071  HIT %:    70.7901  MISS %:    29.2099  MPKI: 1.90142

L1D PREFETCH  REQUESTED:     733725  ISSUED:     733725  USEFUL:      34281  USELESS:      68421
L1D USEFUL LOAD PREFETCHES:      34281 PREFETCH ISSUED TO LOWER LEVEL:     102859  ACCURACY: 33.3281
 TIMELY PREFETCHES:      34281 LATE PREFETCHES: 7636 DROPPED PREFETCHES: 5
L1D AVERAGE MISS LATENCY: 219415 cycles
L1D RQ	ACCESS:   10678045	FORWARD:          0	MERGED:    3930047	TO_CACHE:    6578466
L1D WQ	ACCESS:    6952044	FORWARD:     169923	MERGED:     199324	TO_CACHE:    6752720
L1D PQ	ACCESS:     367058	FORWARD:          0	MERGED:          0	TO_CACHE:     366667

L1D UNIQUE REGIONS ACCESSED: 0
L1D REGIONS CONFLICTS: 0
L1D Cross Page Prefetch Requests: 7003
L1D Same Page Prefetch Requests: 747899
L1D ROI Sum of L1D PQ occupancy: 4655589
L1D PREFETCHES PUSHED FROM L2C: 0
L1I TOTAL     ACCESS:    7119302  HIT:    4343424  MISS:    2775878  HIT %:    61.0091  MISS %:    38.9909   MPKI: 55.5176
L1I LOAD INSTRUCTION	ACCESS:    6457399  HIT:    3681521  MISS:    2775878  HIT %:    57.0124  MISS %:    42.9876  MPKI: 55.5176
L1I PREFETCH INSTRUCTION	ACCESS:     661903  HIT:     661903  MISS:          0  HIT %:        100  MISS %:          0  MPKI: 0

L1I PREFETCH  REQUESTED:    1606903  ISSUED:    1606903  USEFUL:          0  USELESS:          0
L1I USEFUL LOAD PREFETCHES:          0 PREFETCH ISSUED TO LOWER LEVEL:          0  ACCURACY: -nan
 TIMELY PREFETCHES:          0 LATE PREFETCHES: 0 DROPPED PREFETCHES: 0
L1I AVERAGE MISS LATENCY: 17.1967 cycles
L1I RQ	ACCESS:    9569444	FORWARD:          0	MERGED:    2810463	TO_CACHE:    6758981
L1I PQ	ACCESS:    1606903	FORWARD:          0	MERGED:     424422	TO_CACHE:    1182481

L1BTB TOTAL     ACCESS:    5671885  HIT:    2030302  MISS:    3641583  HIT %:    35.7959  MISS %:    64.2041   MPKI: 72.8317
L1BTB BRANCH_DIRECT_JUMP	ACCESS:     547661 HIT:     143377 MISS:     404284 AVERAGE STALL: 54.4257 AVERAGE FETCH STALL: 14.4004 AVERAGE FETCH QUEUE STALL: 18.8806 AVERAGE DECODE STALL: 20.2146 AVERAGE EXECUTE STALL: 2.3547e+15
L1BTB BRANCH_INDIRECT	ACCESS:     182452 HIT:      65572 MISS:     116880 AVERAGE STALL: 117.889 AVERAGE FETCH STALL: 10.8824 AVERAGE FETCH QUEUE STALL: 19.4526 AVERAGE DECODE STALL: 13.2797 AVERAGE EXECUTE STALL: 73.3108
L1BTB BRANCH_CONDITIONAL	ACCESS:    2701302 HIT:    1404856 MISS:    1296446 AVERAGE STALL: 64.5182 AVERAGE FETCH STALL: 21.0183 AVERAGE FETCH QUEUE STALL: 22.2629 AVERAGE DECODE STALL: 20.4468 AVERAGE EXECUTE STALL: 2.91464e+15
L1BTB BRANCH_DIRECT_CALL	ACCESS:     948360 HIT:     105211 MISS:     843149 AVERAGE STALL: 71.743 AVERAGE FETCH STALL: 26.1247 AVERAGE FETCH QUEUE STALL: 27.1489 AVERAGE DECODE STALL: 17.675 AVERAGE EXECUTE STALL: 8.2462e+15
L1BTB BRANCH_INDIRECT_CALL	ACCESS:     171879 HIT:      20949 MISS:     150930 AVERAGE STALL: 141.099 AVERAGE FETCH STALL: 12.2355 AVERAGE FETCH QUEUE STALL: 18.8207 AVERAGE DECODE STALL: 11.9087 AVERAGE EXECUTE STALL: 97.6409
L1BTB BRANCH_RETURN	ACCESS:    1120231 HIT:     290337 MISS:     829894 AVERAGE STALL: 49.2724 AVERAGE FETCH STALL: 16.1494 AVERAGE FETCH QUEUE STALL: 5.59501 AVERAGE DECODE STALL: 6.47659 AVERAGE EXECUTE STALL: 4.20506e+14
L1BTB BRANCH_OTHER ACCESS:          0 HIT:          0 MISS:          0 AVERAGE STALL: -nan AVERAGE FETCH STALL: -nan AVERAGE FETCH QUEUE STALL: -nan AVERAGE DECODE STALL: -nan AVERAGE EXECUTE STALL: -nan
L1BTB TOTAL ROB OCCUPANCY AT BTB MISS: 2.90475

L2BTB TOTAL     ACCESS:    3616285  HIT:    3548412  MISS:      67873  HIT %:    98.1231  MISS %:    1.87687   MPKI: 1.35746
L2BTB BRANCH_DIRECT_JUMP	ACCESS:     400187 HIT:     396435 MISS:       3752 AVERAGE STALL: 54.4257 AVERAGE FETCH STALL: 14.4004 AVERAGE FETCH QUEUE STALL: 18.8806 AVERAGE DECODE STALL: 20.2146 AVERAGE EXECUTE STALL: 2.3547e+15
L2BTB BRANCH_INDIRECT	ACCESS:     106567 HIT:     103812 MISS:       2755 AVERAGE STALL: 117.889 AVERAGE FETCH STALL: 10.8824 AVERAGE FETCH QUEUE STALL: 19.4526 AVERAGE DECODE STALL: 13.2797 AVERAGE EXECUTE STALL: 73.3108
L2BTB BRANCH_CONDITIONAL	ACCESS:    1296446 HIT:    1290032 MISS:       6414 AVERAGE STALL: 64.5182 AVERAGE FETCH STALL: 21.0183 AVERAGE FETCH QUEUE STALL: 22.2629 AVERAGE DECODE STALL: 20.4468 AVERAGE EXECUTE STALL: 2.91464e+15
L2BTB BRANCH_DIRECT_CALL	ACCESS:     843149 HIT:     840874 MISS:       2275 AVERAGE STALL: 71.743 AVERAGE FETCH STALL: 26.1247 AVERAGE FETCH QUEUE STALL: 27.1489 AVERAGE DECODE STALL: 17.675 AVERAGE EXECUTE STALL: 8.2462e+15
L2BTB BRANCH_INDIRECT_CALL	ACCESS:     141460 HIT:     131264 MISS:      10196 AVERAGE STALL: 141.099 AVERAGE FETCH STALL: 12.2355 AVERAGE FETCH QUEUE STALL: 18.8207 AVERAGE DECODE STALL: 11.9087 AVERAGE EXECUTE STALL: 97.6409
L2BTB BRANCH_RETURN	ACCESS:     828476 HIT:     785995 MISS:      42481 AVERAGE STALL: 49.2724 AVERAGE FETCH STALL: 16.1494 AVERAGE FETCH QUEUE STALL: 5.59501 AVERAGE DECODE STALL: 6.47659 AVERAGE EXECUTE STALL: 4.20506e+14
L2BTB BRANCH_OTHER ACCESS:          0 HIT:          0 MISS:          0 AVERAGE STALL: -nan AVERAGE FETCH STALL: -nan AVERAGE FETCH QUEUE STALL: -nan AVERAGE DECODE STALL: -nan AVERAGE EXECUTE STALL: -nan
L2BTB TOTAL ROB OCCUPANCY AT BTB MISS: 155.848

L2C TOTAL     ACCESS:    4509172  HIT:    4025313  MISS:     483859  HIT %:    89.2694  MISS %:    10.7306   MPKI: 9.67718
L2C LOAD INSTRUCTION	ACCESS:    2775880  HIT:    2519873  MISS:     256007  HIT %:    90.7774  MISS %:    9.22255  MPKI: 5.12014
L2C LOAD TRANSLATION INSTRUCTION	ACCESS:        248  HIT:         51  MISS:        197  HIT %:    20.5645  MISS %:    79.4355  MPKI: 0.00394
L2C LOAD DATA	ACCESS:     734224  HIT:     655908  MISS:      78316  HIT %:    89.3335  MISS %:    10.6665  MPKI: 1.56632
L2C RFO DATA	ACCESS:     284274  HIT:     226982  MISS:      57292  HIT %:    79.8462  MISS %:    20.1538  MPKI: 1.14584
L2C PREFETCH DATA	ACCESS:     188969  HIT:     113379  MISS:      75590  HIT %:    59.9987  MISS %:    40.0013  MPKI: 1.5118
L2C WRITEBACK DATA	ACCESS:     523651  HIT:     508539  MISS:      15112  HIT %:    97.1141  MISS %:    2.88589  MPKI: 0.30224
L2C LOAD TRANSLATION DATA	ACCESS:       1883  HIT:        552  MISS:       1331  HIT %:    29.3149  MISS %:    70.6851  MPKI: 0.02662
L2C TRANSLATION FROM L1D PREFETCHER DATA	ACCESS:         43  HIT:         29  MISS:         14  HIT %:    67.4419  MISS %:    32.5581  MPKI: 0.00028

L2C PREFETCH  REQUESTED:      93491  ISSUED:      93491  USEFUL:       7899  USELESS:      68156
L2C USEFUL LOAD PREFETCHES:       7899 PREFETCH ISSUED TO LOWER LEVEL:      76015  ACCURACY: 10.3914
 TIMELY PREFETCHES:       7899 LATE PREFETCHES: 425 DROPPED PREFETCHES: 0
L2C AVERAGE MISS LATENCY: 37.9348 cycles
L2C RQ	ACCESS:    3796589	FORWARD:          0	MERGED:          0	TO_CACHE:    3796554
L2C WQ	ACCESS:     523651	FORWARD:         36	MERGED:          0	TO_CACHE:     523651
L2C PQ	ACCESS:     196350	FORWARD:          0	MERGED:       3389	TO_CACHE:     192960

L2C Dense regions hint from L2: 0
PSCL5 TOTAL     ACCESS:       4112  HIT:       2056  MISS:       2056  HIT %:         50  MISS %:         50   MPKI: 0.04112
PSCL5 LOAD TRANSLATION INSTRUCTION	ACCESS:       4026  HIT:       2013  MISS:       2013  HIT %:         50  MISS %:         50  MPKI: 0.04026
PSCL5 TRANSLATION FROM L1D PREFETCHER INSTRUCTION	ACCESS:         86  HIT:         43  MISS:         43  HIT %:         50  MISS %:         50  MPKI: 0.00086


PSCL4 TOTAL     ACCESS:       3847  HIT:       1916  MISS:       1931  HIT %:     49.805  MISS %:     50.195   MPKI: 0.03862
PSCL4 LOAD TRANSLATION INSTRUCTION	ACCESS:       3223  HIT:       1881  MISS:       1342  HIT %:    58.3618  MISS %:    41.6382  MPKI: 0.02684
PSCL4 TRANSLATION FROM L1D PREFETCHER INSTRUCTION	ACCESS:         63  HIT:         35  MISS:         28  HIT %:    55.5556  MISS %:    44.4444  MPKI: 0.00056
PSCL4 LOAD TRANSLATION DATA	ACCESS:        554  HIT:          0  MISS:        554  HIT %:          0  MISS %:        100  MPKI: 0.01108
PSCL4 TRANSLATION FROM L1D PREFETCHER DATA	ACCESS:          7  HIT:          0  MISS:          7  HIT %:          0  MISS %:        100  MPKI: 0.00014


PSCL3 TOTAL     ACCESS:       3901  HIT:       1943  MISS:       1958  HIT %:    49.8077  MISS %:    50.1923   MPKI: 0.03916
PSCL3 LOAD TRANSLATION INSTRUCTION	ACCESS:       3250  HIT:       1908  MISS:       1342  HIT %:    58.7077  MISS %:    41.2923  MPKI: 0.02684
PSCL3 TRANSLATION FROM L1D PREFETCHER INSTRUCTION	ACCESS:         63  HIT:         35  MISS:         28  HIT %:    55.5556  MISS %:    44.4444  MPKI: 0.00056
PSCL3 LOAD TRANSLATION DATA	ACCESS:        581  HIT:          0  MISS:        581  HIT %:          0  MISS %:        100  MPKI: 0.01162
PSCL3 TRANSLATION FROM L1D PREFETCHER DATA	ACCESS:          7  HIT:          0  MISS:          7  HIT %:          0  MISS %:        100  MPKI: 0.00014


PSCL2 TOTAL     ACCESS:       4022  HIT:       1966  MISS:       2056  HIT %:    48.8812  MISS %:    51.1188   MPKI: 0.04112
PSCL2 LOAD TRANSLATION INSTRUCTION	ACCESS:       2134  HIT:       1923  MISS:        211  HIT %:    90.1125  MISS %:    9.88754  MPKI: 0.00422
PSCL2 TRANSLATION FROM L1D PREFETCHER INSTRUCTION	ACCESS:         43  HIT:         43  MISS:          0  HIT %:        100  MISS %:          0  MPKI: 0
PSCL2 LOAD TRANSLATION DATA	ACCESS:       1802  HIT:          0  MISS:       1802  HIT %:          0  MISS %:        100  MPKI: 0.03604
PSCL2 TRANSLATION FROM L1D PREFETCHER DATA	ACCESS:         43  HIT:          0  MISS:         43  HIT %:          0  MISS %:        100  MPKI: 0.00086


LLC TOTAL     ACCESS:     547878  HIT:     520475  MISS:      27403  HIT %:    94.9983  MISS %:    5.00166   MPKI: 0.54806
LLC LOAD INSTRUCTION	ACCESS:     256007  HIT:     255219  MISS:        788  HIT %:    99.6922  MISS %:   0.307804  MPKI: 0.01576
LLC LOAD TRANSLATION INSTRUCTION	ACCESS:        197  HIT:        169  MISS:         28  HIT %:    85.7868  MISS %:    14.2132  MPKI: 0.00056
LLC LOAD DATA	ACCESS:      77946  HIT:      74637  MISS:       3309  HIT %:    95.7548  MISS %:    4.24525  MPKI: 0.06618
LLC RFO DATA	ACCESS:      57217  HIT:      44122  MISS:      13095  HIT %:    77.1134  MISS %:    22.8866  MPKI: 0.2619
LLC PREFETCH DATA	ACCESS:      76015  HIT:      66226  MISS:       9789  HIT %:    87.1223  MISS %:    12.8777  MPKI: 0.19578
LLC WRITEBACK DATA	ACCESS:      79151  HIT:      78811  MISS:        340  HIT %:    99.5704  MISS %:   0.429559  MPKI: 0.0068
LLC LOAD TRANSLATION DATA	ACCESS:       1331  HIT:       1277  MISS:         54  HIT %:    95.9429  MISS %:     4.0571  MPKI: 0.00108
LLC TRANSLATION FROM L1D PREFETCHER DATA	ACCESS:         14  HIT:         14  MISS:          0  HIT %:        100  MISS %:          0  MPKI: 0

LLC AVERAGE MISS LATENCY: 155.066 cycles
LLC RQ	ACCESS:     392732	FORWARD:          0	MERGED:          0	TO_CACHE:     392712
LLC WQ	ACCESS:      79151	FORWARD:         20	MERGED:          0	TO_CACHE:      79151
LLC PQ	ACCESS:      76015	FORWARD:          0	MERGED:          0	TO_CACHE:      76015

LLC Dense regions hint to LLC: 0

RAW hits: 1952662
Loads Generated: 12630707
Loads sent to L1D: 10678045
Stores Generated: 6952044
Stores sent to L1D: 6952044
Major fault: 0 Minor fault: 2633
Allocated PAGES: 2633

stream: 
stream:times selected: 1184385
stream:pref_filled: 121510
stream:pref_useful: 24333
stream:pref_late: 7390
stream:misses: 8078
stream:misses_by_poll: 0

CS: 
CS:times selected: 176576
CS:pref_filled: 60389
CS:pref_useful: 36817
CS:pref_late: 6521
CS:misses: 15559
CS:misses_by_poll: 1

CPLX: 
CPLX:times selected: 1006580
CPLX:pref_filled: 19618
CPLX:pref_useful: 4748
CPLX:pref_late: 3111
CPLX:misses: 93655
CPLX:misses_by_poll: 0

NL_L1: 
NL:times selected: 21323
NL:pref_filled: 791
NL:pref_useful: 364
NL:pref_late: 258
NL:misses: 1778
NL:misses_by_poll: 0

total selections: 2388864
total_filled: 95071
total_useful: 34281
total_late: 18477
total_polluted: 1
total_misses_after_warmup: 777343
conflicts: 5518070

test: 117021

DRAM Statistics
 CHANNEL 0
 RQ ROW_BUFFER_HIT:      10097  ROW_BUFFER_MISS:      16956
 DBUS_CONGESTED:          8
 WQ ROW_BUFFER_HIT:       1195  ROW_BUFFER_MISS:      11601  FULL:          0

 AVG_CONGESTED_CYCLE: 5

CPU 0 Branch Prediction Accuracy: 99.8241% MPKI: 0.32188 Average ROB Occupancy at Mispredict: 194.013
Branch types
NOT_BRANCH: 40849206 81.6984%
BRANCH_DIRECT_JUMP: 547661 1.09532%
BRANCH_INDIRECT: 182452 0.364904%
BRANCH_CONDITIONAL: 6180219 12.3604%
BRANCH_DIRECT_CALL: 948360 1.89672%
BRANCH_INDIRECT_CALL: 171879 0.343758%
BRANCH_RETURN: 1120231 2.24046%
BRANCH_OTHER: 0 0%

DRAM PAGES: 1048576
Allocated PAGES: 2633
Average_ROB_Occupancy: 250.753
Average_Decode_Occupancy: 37.8625
Average_FTQ_Occupancy: 14.7948
Indirect max targets: 14 Average targets: 1.17778
Branch_type:  BRANCH_DIRECT_JUMP:  Count Percentage: 2.89966 7.27592 3.94087 14.4893 1.69595 5.97385 1.22926 62.4952 
Branch_type:  BRANCH_INDIRECT:  Count Percentage: 11.7637 3.41888 12.2102 23.3787 1.33895 14.5395 1.07209 32.2778 
Branch_type:  BRANCH_CONDITIONAL:  Count Percentage: 21.0438 3.40866 2.39187 9.18468 1.07188 4.4555 0.757607 57.686 
Branch_type:  BRANCH_DIRECT_CALL:  Count Percentage: 0.788009 1.29926 1.43335 5.40607 1.99518 2.56055 0.932477 85.5851 
Branch_type:  BRANCH_INDIRECT_CALL:  Count Percentage: 9.57296 0.56859 2.99961 4.8562 0 3.55799 0 78.4446 
Branch_type:  BRANCH_RETURN:  Count Percentage: 4.49776 0.699924 3.65908 9.44006 2.12782 5.06094 1.01073 73.5037 
Branch_type:  BRANCH_DIRECT_JUMP:  Total Count: 31781 79746 43193 158806 18588 65475 13473 684964 
Branch_type:  BRANCH_INDIRECT:  Total Count: 43024 12504 44657 85504 4897 53176 3921 118051 
Branch_type:  BRANCH_CONDITIONAL:  Total Count: 2600537 421233 295581 1135017 132460 550598 93623 7128675 
Branch_type:  BRANCH_DIRECT_CALL:  Total Count: 14880 24534 27066 102083 37675 48351 17608 1616107 
Branch_type:  BRANCH_INDIRECT_CALL:  Total Count: 32814 1949 10282 16646 0 12196 0 268891 
Branch_type:  BRANCH_RETURN:  Total Count: 100388 15622 81669 210698 47492 112958 22559 1640570 
Number of unique branch instructions: 10817
Upper 32 bits: 
aaaa
ffff
ffff0000
Unique upper 32 bits: 3
Unique upper 36 bits: 3
Unique upper 40 bits: 5
Unique upper 44 bits: 32
Unique upper 48 bits: 158
Variant_0 : 1381 0.337158
Variant_1 : 2690 0.656738
Variant_2 : 0 0
Variant_3 : 0 0
Offset_3 4469
Offset_4 258
Offset_5 484
Offset_6 542
Offset_7 640
Offset_8 583
Offset_9 523
Offset_10 427
Offset_11 355
Offset_12 327
Offset_13 240
Offset_14 247
Offset_15 194
Offset_16 233
Offset_17 169
Offset_18 149
Offset_19 257
Offset_20 143
Offset_21 235
Offset_22 415
Offset_23 241
Offset_24 351
Offset_25 117
Offset_47 94
decode_dispatch_called: 26369727 73.1966
Dispatch_width: 0 14222835 53.9362 39.4795
Dispatch_width: 1 1032185 3.91428 2.86512
Dispatch_width: 2 855222 3.2432 2.37391
Dispatch_width: 3 498591 1.89077 1.38398
Dispatch_width: 4 6346801 24.0685 17.6173
Dispatch_width: 5 110162 0.417759 0.305786
Dispatch_width: 6 3303931 12.5293 9.17099
Empty_decode_cycles: 9656164 26.8034
ROB_full_cycles: 10117721 28.0846
Starvation_cycles_per_kilo_instr: 226.042
Starvation_cycles_per_kilo_instr_3: 161.473
Starvation_cycles_per_kilo_instr_0: 137.613
Branch_type_1  (3,1)  (4,9)  (5,39)  (6,74)  (7,125)  (8,151)  (9,137)  (10,111)  (11,78)  (12,55)  (13,11)  (14,2)  (15,3)  (16,4)  (18,1)  (19,5)  (20,2)  (21,1)  (22,3)  (23,2)  (24,10)  (25,12) 
Branch_type_2  (3,1)  (4,1)  (5,1)  (8,4)  (9,4)  (10,1)  (12,1)  (13,1)  (14,1)  (16,3)  (17,2)  (20,2)  (21,2)  (23,5)  (24,1)  (47,43) 
Branch_type_3  (3,4467)  (4,248)  (5,440)  (6,452)  (7,485)  (8,363)  (9,287)  (10,172)  (11,141)  (12,62)  (13,10) 
Branch_type_4  (6,3)  (7,8)  (8,25)  (9,56)  (10,68)  (11,70)  (12,117)  (13,102)  (14,112)  (15,92)  (16,102)  (17,79)  (18,65)  (19,125)  (20,73)  (21,124)  (22,219)  (23,136)  (24,206)  (25,101) 
Branch_type_5  (8,3)  (9,1)  (10,4)  (11,5)  (12,3)  (13,14)  (14,16)  (15,11)  (16,22)  (17,11)  (18,23)  (19,14)  (20,11)  (21,13)  (22,43)  (23,26)  (24,38) 
Branch_type_6  (5,4)  (6,13)  (7,22)  (8,37)  (9,38)  (10,71)  (11,61)  (12,89)  (13,102)  (14,116)  (15,88)  (16,102)  (17,77)  (18,60)  (19,113)  (20,55)  (21,95)  (22,150)  (23,72)  (24,96)  (25,4)  (47,51) 
Unique trigger count: 
Variant_0_evicts_0 : 0
Variant_0_evicts_1 : 0
Variant_0_evicts_2 : 0
Variant_0_evicts_3 : 0
Variant_1_evicts_0 : 0
Variant_1_evicts_1 : 0
Variant_1_evicts_2 : 0
Variant_1_evicts_3 : 0
Variant_2_evicts_0 : 0
Variant_2_evicts_1 : 0
Variant_2_evicts_2 : 0
Variant_2_evicts_3 : 0
Variant_3_evicts_0 : 0
Variant_3_evicts_1 : 0
Variant_3_evicts_2 : 0
Variant_3_evicts_3 : 0
BTB PER SET UNIQUE ADDR: 12 13 9 12 16 16 10 15 9 17 10 14 16 14 12 10 14 11 14 10 15 16 15 13 10 15 12 11 9 12 11 16 18 7 11 12 12 19 10 13 12 12 13 16 10 12 12 12 13 9 13 11 13 17 12 7 11 12 9 10 10 17 14 10 17 15 16 9 16 10 14 11 15 11 9 12 8 12 13 16 12 10 11 15 15 17 13 14 10 22 12 10 14 10 7 14 11 12 19 19 19 10 11 7 16 13 14 13 7 9 11 19 9 13 9 10 13 9 12 9 15 11 12 12 17 13 9 15 21 11 12 19 10 13 15 11 11 15 11 15 13 12 16 11 11 11 15 7 9 15 13 15 12 13 12 15 17 11 16 11 14 13 13 16 10 11 17 9 14 13 12 11 11 17 14 11 13 11 14 13 11 14 11 12 15 17 11 14 14 14 12 13 13 15 11 11 13 12 9 11 8 14 16 11 13 9 14 15 9 13 11 12 11 11 10 14 14 18 10 16 11 15 10 13 12 11 18 15 12 15 12 9 11 14 15 10 13 9 12 6 14 10 13 16 13 13 10 15 13 11 15 14 12 12 14 16 12 11 12 16 15 9 10 13 15 12 12 12 17 12 10 14 11 10 8 11 15 12 15 13 11 13 11 14 13 15 14 18 17 12 9 8 14 10 10 11 14 11 14 14 12 12 11 16 15 15 13 11 14 9 9 18 9 21 15 12 15 11 15 15 14 9 13 12 15 11 13 12 14 9 16 17 12 15 14 13 5 13 5 19 8 15 9 15 16 11 12 14 13 13 15 13 12 18 13 11 10 12 9 13 15 20 6 15 10 17 6 13 16 13 11 13 13 14 12 15 15 17 12 12 17 7 8 11 10 12 12 14 11 11 12 13 16 19 11 14 13 10 14 14 11 16 11 22 19 14 16 16 12 15 16 8 11 17 11 13 14 11 15 18 12 15 12 12 18 13 15 10 12 13 17 12 10 9 12 16 14 11 13 14 11 11 7 18 22 13 10 13 12 18 14 13 14 11 17 15 15 10 8 9 16 9 12 17 15 11 12 13 14 12 15 12 14 12 13 21 16 19 10 15 17 17 13 14 9 17 15 15 19 15 14 15 13 10 14 9 17 15 11 12 13 17 18 14 12 9 11 14 12 16 19 19 12 13 17 12 10 20 12 10 15 11 14 9 12 17 21 10 9 16 15 11 16 9 17 14 13 16 15 11 13 12 13 16 17 14 9 12 11 16 14 13 14 12 13 12 14 14 15 16 10 15 14 17 13 15 14 18 15 18 16 13 16 17 10 17 14 17 10 13 16 14 9 13 17 16 12 10 17 10 16 11 12 13 15 11 9 12 15 10 15 13 9 7 14 15 16 13 11 13 18 16 13 10 6 15 9 14 13 18 15 16 11 10 12 15 12 19 11 14 14 17 12 13 9 13 13 17 8 16 15 12 12 16 9 14 9 12 17 12 9 14 11 8 15 13 9 14 11 10 15 8 11 17 12 16 11 15 10 11 14 13 14 17 15 12 17 14 17 14 12 12 11 12 12 16 12 10 16 12 10 16 13 8 13 14 10 15 10 12 8 13 16 15 10 18 14 12 12 11 15 15 10 14 15 8 20 16 13 12 9 11 11 11 8 16 11 12 14 13 14 10 15 9 12 10 12 13 15 9 10 14 14 15 12 13 15 12 15 13 11 12 12 12 8 9 16 15 8 13 12 7 9 11 16 16 10 16 14 12 13 15 11 13 13 10 12 12 15 15 9 15 17 10 8 11 12 15 13 8 9 7 15 12 14 14 11 9 11 12 18 14 16 19 13 11 14 10 13 10 9 19 14 14 12 13 17 15 6 14 12 20 12 14 22 12 13 11 10 15 12 20 10 10 13 14 13 11 15 12 19 16 11 15 11 12 12 15 15 10 15 10 11 9 12 13 17 12 10 15 13 10 9 12 17 9 11 12 18 10 11 16 17 13 13 9 15 15 12 12 15 9 15 11 16 14 18 13 14 17 14 10 10 12 13 15 13 14 10 12 13 14 12 13 6 13 9 16 10 12 12 12 12 19 13 15 18 14 11 13 14 13 13 13 12 9 9 16 15 11 15 14 13 11 13 12 12 15 15 16 9 12 10 10 11 12 14 19 11 11 14 17 12 16 12 14 14 14 8 11 12 14 11 15 16 11 14 10 13 14 13 17 13 14 11 13 17 15 14 16 11 13 13 13 13 20 18 8 10 16 14 14 12 10 8 10 14 14 17 9 17 18 11 12 13 14 11 14 8 12 11 13 9 11 12 13 6 12 6 12 13 17 10 12 
BTB PER SET COUNT: 995 15 1962 15 21 26 1477 20 1478 29 16 18 20758 19 19 16 22 15 800 16 21 18 505 230 16 21 23 14 10 21 15 22 28 7 18 905 22 32 16 491 14 13 14 880 11 23 18 22 19 10 18 91 22 37 259 384 14 15 491 12 11 638 29 11 30 472 31 274 34 24 1223 305 23 16 11 19 9 1183 24 21 685 12 426 22 19 22 24 20 12 42 17 10 26 19 9 18 1138 17 28 38 23 15 14 8 2282 17 23 24 1680 12 13 34 15 18 9 1023 14 10 2055 14 20 18 18 14 22 24 11 20 37 986 15 3321 340 14 25 18 994 24 20 24 17 16 20 13 14 14 17 7 15 152 27 291 1007 16 12 23 27 12 481 12 20 13 530 23 810 13 25 11 20 1607 14 19 11 29 20 330 17 19 25 231 525 232 990 23 27 44 15 23 25 244 18 16 16 19 18 16 20 991 15 12 11 20 1006 13 17 12 23 20 1003 885 17 17 24 12143 16 16 21 28 1140 25 19 23 15 17 18 21 22 260 146 27 14 9 13 18 17 11 20 10 301 6 822 10 26 129 22 204 10 19 21 18 15 23 13 12 27 331 49 236 15 27 23 13 13 214 21 14 16 14 945 16 17 21 502 10 9 14 24 12 25 17 31 17 394 102 18 29 18 23 28 17 9 8 22 13 11 14 249 15 19 1006 23 19 14 21 24 155 19 208 214 982 992 30 13 29 1977 496 24 14 30 18 20 1606 15 17 333 47 21 18 28 11 25 24 26 27 23 193 7 19 6 31 8 1183 10 21 33 13 20 20 19 15 24 27 22 28 15 13 15 21 23 19 20 27 9 25 10 2487 6 26 24 30 15 75 20 21 895 23 20 19 19 17 995 11 158 15 12 17 15 28 21 18 18 21 22 402 17 144 15 15 1327 1451 19 28 15 30 35 21 22 69 16 21 695 13 13 31 13 16 25 76 24 22 19 28 20 17 32 22 806 16 13 16 40 19 12 11 22 25 16 32 17 20 619 11 10 26 781 688 114 17 16 28 64 626 20 14 26 29 31 12 8 15 37 14 14 1020 20 20 23 16 23 19 23 17 20 14 16 25 20 31 12 17 28 23 20 15 13 21 34 17 29 22 205 20 1000 12 15 12 737 20 13 21 24 20 24 26 15 10 13 19 29 22 429 43 15 602 20 17 11 24 16 12 23 14 25 10 17 17 1018 616 14 3973 21 15 25 13 27 20 24 35 25 20 17 12 38 39 28 295 12 17 21 1132 16 20 209 18 18 17 17 17 29 21 12 26 16 26 17 27 178 24 27 29 23 21 22 24 13 21 27 227 10 27 19 24 11 1659 37 19 13 14 20 13 461 15 13 15 18 16 9 483 24 11 21 26 13 11 18 26 23 613 14 20 30 1177 225 14 6 23 10 17 918 211 20 27 21 434 14 20 14 106 1477 999 21 28 379 136 10 30 23 133 11 183 30 24 15 91 399 22 499 21 284 16 13 19 18 10 1453 329 16 52 943 12 21 12 13 30 18 21 18 771 1483 15 26 14 396 25 712 217 26 22 27 19 16 18 1002 15 24 27 15 11 20 16 15 21 15 9 2970 19 20 1726 10 17 920 28 630 22 17 24 22 18 16 14 187 354 990 18 255 98 447 20 15 415 12 358 15 626 13 32 14 14 792 1720 196 2571 21 58 17 14 53 16 393 11 11 23 25 21 551 14 358 18 23 14 13 15 598 13 8 12 21 871 8 13 20 9 9 12 478 24 10 1052 18 23 16 242 18 18 24 13 19 164 22 29 1471 27 35 11 8 13 17 20 17 9 12 615 24 19 597 19 116 9 14 1004 184 25 22 410 509 18 24 13 16 15 15 3256 20 16 133 19 397 27 6 20 15 1058 18 17 34 16 16 16 16 27 24 34 10 11 53 22 21 276 217 17 34 529 14 20 2235 15 17 19 20 10 212 458 421 10 17 14 23 15 18 19 567 12 496 14 72 12 18 21 21 41 501 27 26 17 23 9 17 20 12 17 30 14 20 22 24 682 18 14 23 27 39 491 11 4789 20 27 18 17 15 15 15 19 19 457 6 14 11 24 117 19 62 13 18 37 22 33 1383 404 21 19 18 14 18 18 18 10 12 23 27 17 63 17 636 17 23 1886 15 60 344 29 11 999 11 15 12 25 28 34 16 18 19 1019 19 158 16 21 19 20 12 24 165 23 15 23 19 13 312 13 19 112 27 302 21 23 21 16 35 19 171 22 13 466 13 325 18 246 25 13 12 24 22 35 15 516 1479 10 18 1492 20 11 31 22 14 17 16 873 15 27 8 20 307 24 11 18 25 21 9 95 6 13 22 192 12 24 
To predecode: 0
Predecoding something: 0
Predecode request dropped: 0
sizeofblock_0 0
sizeofblock_1 54732
sizeofblock_2 87327
sizeofblock_3 0
sizeofblock_4 0
sizeofblock_5 0
sizeofblock_6 0
sizeofblock_7 0
sizeofblock_8 0
Variant_0 Correct: 1612897 Incorrect: 0 Accuracy: 1
Variant_1 Correct: 5737620 Incorrect: 0 Accuracy: 1
Variant_2 Correct: 0 Incorrect: 0 Accuracy: -nan
Variant_3 Correct: 0 Incorrect: 0 Accuracy: -nan
