
*** ChampSim Multicore Out-of-Order Simulator ***

Warmup Instructions: 50000000
Simulation Instructions: 50000000
Number of CPUs: 1
LLC sets: 2048
LLC ways: 16
Off-chip DRAM Size: 4096 MB Channels: 1 Width: 64-bit Data Rate: 6400 MT/s
CPU 0 runs ./micro_traces/srv38.trace.gz
.gz
ITLB has LRU replacement policy
DTLB has LRU replacement policy
STLB has LRU replacement policy
FDIP Prefetcher at L1I
L1I has LRU replacement policy
L1D has LRU replacement policy
Initialize SRRIP state for L2C
Initialize DRRIP state for LLC
Heartbeat CPU 0 instructions: 10000000 cycles: 2796056 heartbeat IPC: 3.57647 cumulative IPC: 3.57647 (Simulation time: 0 hr 2 min 37 sec) 
Heartbeat CPU 0 instructions: 20000002 cycles: 5589715 heartbeat IPC: 3.57954 cumulative IPC: 3.578 (Simulation time: 0 hr 4 min 47 sec) 
Heartbeat CPU 0 instructions: 30000003 cycles: 8385061 heartbeat IPC: 3.57737 cumulative IPC: 3.57779 (Simulation time: 0 hr 7 min 2 sec) 
Heartbeat CPU 0 instructions: 40000000 cycles: 11179844 heartbeat IPC: 3.57809 cumulative IPC: 3.57787 (Simulation time: 0 hr 9 min 1 sec) 
Heartbeat CPU 0 instructions: 50000001 cycles: 13974491 heartbeat IPC: 3.57827 cumulative IPC: 3.57795 (Simulation time: 0 hr 11 min 6 sec) 

Warmup complete CPU 0 instructions: 50000001 cycles: 13974491 (Simulation time: 0 hr 11 min 6 sec) 

*** Reached end of trace for Core: 0 Repeating trace: ./micro_traces/srv38.trace.gz
Cycle: 20000000 FTQ IN: 58191293 FTQ occupancy: 17.8487 DECODE IN: 58191273 DECODE occupancy: 47.8994 ROB IN: 58191271 ROB occupancy: 309.343 ROB OUT: 58191271
Heartbeat CPU 0 instructions: 60000003 cycles: 21303871 heartbeat IPC: 1.36437 cumulative IPC: 1.36437 (Simulation time: 0 hr 12 min 55 sec) 
Heartbeat CPU 0 instructions: 70000002 cycles: 28621831 heartbeat IPC: 1.3665 cumulative IPC: 1.36544 (Simulation time: 0 hr 14 min 41 sec) 
Cycle: 30000000 FTQ IN: 13685038 FTQ occupancy: 5.80315 DECODE IN: 13684941 DECODE occupancy: 19.5664 ROB IN: 13684883 ROB occupancy: 218.477 ROB OUT: 13684535
Heartbeat CPU 0 instructions: 80000002 cycles: 35855607 heartbeat IPC: 1.3824 cumulative IPC: 1.37105 (Simulation time: 0 hr 16 min 31 sec) 
Cycle: 40000000 FTQ IN: 13856818 FTQ occupancy: 5.71393 DECODE IN: 13856922 DECODE occupancy: 19.3806 ROB IN: 13856941 ROB occupancy: 218.412 ROB OUT: 13856974
Heartbeat CPU 0 instructions: 90000003 cycles: 43144089 heartbeat IPC: 1.37203 cumulative IPC: 1.37129 (Simulation time: 0 hr 18 min 15 sec) 
Cycle: 50000000 FTQ IN: 13783692 FTQ occupancy: 5.86175 DECODE IN: 13783686 DECODE occupancy: 19.6878 ROB IN: 13783722 ROB occupancy: 219.648 ROB OUT: 13783941
Heartbeat CPU 0 instructions: 100000003 cycles: 50348106 heartbeat IPC: 1.38811 cumulative IPC: 1.37462 (Simulation time: 0 hr 19 min 48 sec) 
Finished CPU 0 instructions: 50000002 cycles: 36373615 cumulative IPC: 1.37462 (Simulation time: 0 hr 19 min 48 sec) 

ChampSim completed all CPUs

Region of Interest Statistics

CPU 0 cumulative IPC: 1.37462 instructions: 50000002 cycles: 36373615
 Fetch stage stalled: 63.4962  Sim cycles: 36373615 fetch stall cycle: 23095848
 Empty decode stage: 48.2242  Sim cycles: 36373615 fetch stall cycle: 17540881
ITLB TOTAL     ACCESS:    5577450  HIT:    5087240  MISS:     490210  HIT %:    91.2109  MISS %:    8.78914   MPKI: 9.8042
ITLB LOAD TRANSLATION INSTRUCTION	ACCESS:    5458117  HIT:    4967907  MISS:     490210  HIT %:    91.0187  MISS %:     8.9813  MPKI: 9.8042
ITLB TRANSLATION FROM L1D PREFETCHER INSTRUCTION	ACCESS:     119333  HIT:     119333  MISS:          0  HIT %:        100  MISS %:          0  MPKI: 0

ITLB AVERAGE MISS LATENCY: 9.07556 cycles
ITLB RQ	ACCESS:    7415553	FORWARD:          0	MERGED:    1353837	TO_CACHE:    6061716

DTLB TOTAL     ACCESS:    8956925  HIT:    8481748  MISS:     475177  HIT %:    94.6949  MISS %:    5.30514   MPKI: 9.50354
DTLB LOAD TRANSLATION DATA	ACCESS:    8956925  HIT:    8481748  MISS:     475177  HIT %:    94.6949  MISS %:    5.30514  MPKI: 9.50354

DTLB AVERAGE MISS LATENCY: 9.31656 cycles
DTLB RQ	ACCESS:   13307412	FORWARD:          0	MERGED:    4313040	TO_CACHE:    8994372

STLB TOTAL     ACCESS:    1220564  HIT:    1218055  MISS:       2509  HIT %:    99.7944  MISS %:   0.205561   MPKI: 0.05018
STLB LOAD TRANSLATION INSTRUCTION	ACCESS:     490210  HIT:     489863  MISS:        347  HIT %:    99.9292  MISS %:   0.070786  MPKI: 0.00694
STLB LOAD TRANSLATION DATA	ACCESS:     475048  HIT:     472935  MISS:       2113  HIT %:    99.5552  MISS %:   0.444797  MPKI: 0.04226
STLB TRANSLATION FROM L1D PREFETCHER DATA	ACCESS:     255306  HIT:     255257  MISS:         49  HIT %:    99.9808  MISS %:  0.0191927  MPKI: 0.00098

STLB AVERAGE MISS LATENCY: 64.3121 cycles
STLB RQ	ACCESS:    1368485	FORWARD:          0	MERGED:     147890	TO_CACHE:    1220595

STLB Hit, L1D data hit: 0
STLB Hit, L2C data hit: 0
STLB Hit, LLC data hit: 0
STLB Hit, LLC data miss: 0
STLB STLB hints to L2: 0
L1D TOTAL     ACCESS:   13064899  HIT:   11896594  MISS:    1168305  HIT %:    91.0577  MISS %:    8.94232   MPKI: 23.3661
L1D LOAD DATA	ACCESS:    6558061  HIT:    5789800  MISS:     768261  HIT %:    88.2852  MISS %:    11.7148  MPKI: 15.3652
L1D RFO DATA	ACCESS:    6169073  HIT:    5876915  MISS:     292158  HIT %:    95.2642  MISS %:    4.73585  MPKI: 5.84316
L1D PREFETCH DATA	ACCESS:     337765  HIT:     229879  MISS:     107886  HIT %:    68.0589  MISS %:    31.9411  MPKI: 2.15772

L1D PREFETCH  REQUESTED:     806605  ISSUED:     806605  USEFUL:      49957  USELESS:      70875
L1D USEFUL LOAD PREFETCHES:      49957 PREFETCH ISSUED TO LOWER LEVEL:     120889  ACCURACY: 41.3247
 TIMELY PREFETCHES:      49957 LATE PREFETCHES: 12979 DROPPED PREFETCHES: 2
L1D AVERAGE MISS LATENCY: 350295 cycles
L1D RQ	ACCESS:   10691273	FORWARD:          0	MERGED:    3936160	TO_CACHE:    6591279
L1D WQ	ACCESS:    6907638	FORWARD:     164243	MERGED:     191505	TO_CACHE:    6716133
L1D PQ	ACCESS:     403507	FORWARD:          0	MERGED:          0	TO_CACHE:     403098

L1D UNIQUE REGIONS ACCESSED: 0
L1D REGIONS CONFLICTS: 0
L1D Cross Page Prefetch Requests: 8188
L1D Same Page Prefetch Requests: 812319
L1D ROI Sum of L1D PQ occupancy: 5143291
L1D PREFETCHES PUSHED FROM L2C: 0
L1I TOTAL     ACCESS:    6847420  HIT:    4099767  MISS:    2747653  HIT %:    59.8732  MISS %:    40.1268   MPKI: 54.9531
L1I LOAD INSTRUCTION	ACCESS:    6335869  HIT:    3588216  MISS:    2747653  HIT %:    56.6334  MISS %:    43.3666  MPKI: 54.9531
L1I PREFETCH INSTRUCTION	ACCESS:     511551  HIT:     511551  MISS:          0  HIT %:        100  MISS %:          0  MPKI: 0

L1I PREFETCH  REQUESTED:    1126339  ISSUED:    1126339  USEFUL:          0  USELESS:          0
L1I USEFUL LOAD PREFETCHES:          0 PREFETCH ISSUED TO LOWER LEVEL:          0  ACCURACY: -nan
 TIMELY PREFETCHES:          0 LATE PREFETCHES: 0 DROPPED PREFETCHES: 0
L1I AVERAGE MISS LATENCY: 17.5516 cycles
L1I RQ	ACCESS:    9449827	FORWARD:          0	MERGED:    2840327	TO_CACHE:    6609500
L1I PQ	ACCESS:    1126339	FORWARD:          0	MERGED:     320286	TO_CACHE:     806053

L1BTB TOTAL     ACCESS:    5680875  HIT:    2074042  MISS:    3606833  HIT %:    36.5092  MISS %:    63.4908   MPKI: 72.1367
L1BTB BRANCH_DIRECT_JUMP	ACCESS:     543196  HIT:     143757  MISS:     399439	AVERAGE STALL: 24.4826
L1BTB BRANCH_INDIRECT	ACCESS:     181400  HIT:      65429  MISS:     115971	AVERAGE STALL: 93.0429
L1BTB BRANCH_CONDITIONAL	ACCESS:    2732094  HIT:    1447720  MISS:    1284374	AVERAGE STALL: 22.9054
L1BTB BRANCH_DIRECT_CALL	ACCESS:     941242  HIT:     104902  MISS:     836340	AVERAGE STALL: 25.624
L1BTB BRANCH_INDIRECT_CALL	ACCESS:     170851  HIT:      21534  MISS:     149317	AVERAGE STALL: 126.161
L1BTB BRANCH_RETURN	ACCESS:    1112092  HIT:     290700  MISS:     821392	AVERAGE STALL: 25.6405
L1BTB BRANCH_OTHER ACCESS:          0  HIT:          0  MISS:          0	AVERAGE STALL: -nan
L1BTB TOTAL ROB OCCUPANCY AT BTB MISS: 22.9573

L2BTB TOTAL     ACCESS:    3581872  HIT:    3155550  MISS:     426322  HIT %:    88.0978  MISS %:    11.9022   MPKI: 8.52644
L2BTB BRANCH_DIRECT_JUMP	ACCESS:     395334  HIT:     347430  MISS:      47904	AVERAGE STALL: 24.4826
L2BTB BRANCH_INDIRECT	ACCESS:     105744  HIT:     100688  MISS:       5056	AVERAGE STALL: 93.0429
L2BTB BRANCH_CONDITIONAL	ACCESS:    1284374  HIT:    1144239  MISS:     140135	AVERAGE STALL: 22.9054
L2BTB BRANCH_DIRECT_CALL	ACCESS:     836340  HIT:     722519  MISS:     113821	AVERAGE STALL: 25.624
L2BTB BRANCH_INDIRECT_CALL	ACCESS:     139905  HIT:     118855  MISS:      21050	AVERAGE STALL: 126.161
L2BTB BRANCH_RETURN	ACCESS:     820175  HIT:     721819  MISS:      98356	AVERAGE STALL: 25.6405
L2BTB BRANCH_OTHER ACCESS:          0  HIT:          0  MISS:          0	AVERAGE STALL: -nan
L2BTB TOTAL ROB OCCUPANCY AT BTB MISS: 194.227

L2C TOTAL     ACCESS:    4536542  HIT:    4027080  MISS:     509462  HIT %:    88.7698  MISS %:    11.2302   MPKI: 10.1892
L2C LOAD INSTRUCTION	ACCESS:    2747652  HIT:    2464673  MISS:     282979  HIT %:    89.7011  MISS %:    10.2989  MPKI: 5.65958
L2C LOAD TRANSLATION INSTRUCTION	ACCESS:        404  HIT:        116  MISS:        288  HIT %:    28.7129  MISS %:    71.2871  MPKI: 0.00576
L2C LOAD DATA	ACCESS:     755253  HIT:     672937  MISS:      82316  HIT %:    89.1009  MISS %:    10.8991  MPKI: 1.64632
L2C RFO DATA	ACCESS:     292119  HIT:     235236  MISS:      56883  HIT %:    80.5275  MISS %:    19.4725  MPKI: 1.13766
L2C PREFETCH DATA	ACCESS:     207046  HIT:     134024  MISS:      73022  HIT %:    64.7315  MISS %:    35.2685  MPKI: 1.46044
L2C WRITEBACK DATA	ACCESS:     531737  HIT:     519393  MISS:      12344  HIT %:    97.6786  MISS %:    2.32145  MPKI: 0.24688
L2C LOAD TRANSLATION DATA	ACCESS:       2264  HIT:        653  MISS:       1611  HIT %:    28.8428  MISS %:    71.1572  MPKI: 0.03222
L2C TRANSLATION FROM L1D PREFETCHER DATA	ACCESS:         67  HIT:         48  MISS:         19  HIT %:    71.6418  MISS %:    28.3582  MPKI: 0.00038

L2C PREFETCH  REQUESTED:      94780  ISSUED:      94780  USEFUL:       8736  USELESS:      64952
L2C USEFUL LOAD PREFETCHES:       8736 PREFETCH ISSUED TO LOWER LEVEL:      73731  ACCURACY: 11.8485
 TIMELY PREFETCHES:       8736 LATE PREFETCHES: 709 DROPPED PREFETCHES: 0
L2C AVERAGE MISS LATENCY: 40.791 cycles
L2C RQ	ACCESS:    3797803	FORWARD:          0	MERGED:          0	TO_CACHE:    3797759
L2C WQ	ACCESS:     531737	FORWARD:         44	MERGED:          0	TO_CACHE:     531737
L2C PQ	ACCESS:     215669	FORWARD:          0	MERGED:       3765	TO_CACHE:     211904

L2C Dense regions hint from L2: 0
PSCL5 TOTAL     ACCESS:       5024  HIT:       2512  MISS:       2512  HIT %:         50  MISS %:         50   MPKI: 0.05024
PSCL5 LOAD TRANSLATION INSTRUCTION	ACCESS:       4890  HIT:       2445  MISS:       2445  HIT %:         50  MISS %:         50  MPKI: 0.0489
PSCL5 TRANSLATION FROM L1D PREFETCHER INSTRUCTION	ACCESS:        134  HIT:         67  MISS:         67  HIT %:         50  MISS %:         50  MPKI: 0.00134


PSCL4 TOTAL     ACCESS:       3160  HIT:       1577  MISS:       1583  HIT %:    49.9051  MISS %:    50.0949   MPKI: 0.03166
PSCL4 LOAD TRANSLATION INSTRUCTION	ACCESS:       2673  HIT:       1534  MISS:       1139  HIT %:    57.3887  MISS %:    42.6113  MPKI: 0.02278
PSCL4 TRANSLATION FROM L1D PREFETCHER INSTRUCTION	ACCESS:         86  HIT:         43  MISS:         43  HIT %:         50  MISS %:         50  MPKI: 0.00086
PSCL4 LOAD TRANSLATION DATA	ACCESS:        401  HIT:          0  MISS:        401  HIT %:          0  MISS %:        100  MPKI: 0.00802


PSCL3 TOTAL     ACCESS:       4887  HIT:       2434  MISS:       2453  HIT %:    49.8056  MISS %:    50.1944   MPKI: 0.04906
PSCL3 LOAD TRANSLATION INSTRUCTION	ACCESS:       3942  HIT:       2382  MISS:       1560  HIT %:    60.4262  MISS %:    39.5738  MPKI: 0.0312
PSCL3 TRANSLATION FROM L1D PREFETCHER INSTRUCTION	ACCESS:         97  HIT:         52  MISS:         45  HIT %:    53.6082  MISS %:    46.3918  MPKI: 0.0009
PSCL3 LOAD TRANSLATION DATA	ACCESS:        841  HIT:          0  MISS:        841  HIT %:          0  MISS %:        100  MPKI: 0.01682
PSCL3 TRANSLATION FROM L1D PREFETCHER DATA	ACCESS:          7  HIT:          0  MISS:          7  HIT %:          0  MISS %:        100  MPKI: 0.00014


PSCL2 TOTAL     ACCESS:       4826  HIT:       2314  MISS:       2512  HIT %:    47.9486  MISS %:    52.0514   MPKI: 0.05024
PSCL2 LOAD TRANSLATION INSTRUCTION	ACCESS:       2598  HIT:       2247  MISS:        351  HIT %:    86.4896  MISS %:    13.5104  MPKI: 0.00702
PSCL2 TRANSLATION FROM L1D PREFETCHER INSTRUCTION	ACCESS:         67  HIT:         67  MISS:          0  HIT %:        100  MISS %:          0  MPKI: 0
PSCL2 LOAD TRANSLATION DATA	ACCESS:       2094  HIT:          0  MISS:       2094  HIT %:          0  MISS %:        100  MPKI: 0.04188
PSCL2 TRANSLATION FROM L1D PREFETCHER DATA	ACCESS:         67  HIT:          0  MISS:         67  HIT %:          0  MISS %:        100  MPKI: 0.00134


LLC TOTAL     ACCESS:     575338  HIT:     545157  MISS:      30181  HIT %:    94.7542  MISS %:    5.24579   MPKI: 0.60362
LLC LOAD INSTRUCTION	ACCESS:     282979  HIT:     281802  MISS:       1177  HIT %:    99.5841  MISS %:   0.415932  MPKI: 0.02354
LLC LOAD TRANSLATION INSTRUCTION	ACCESS:        288  HIT:        250  MISS:         38  HIT %:    86.8056  MISS %:    13.1944  MPKI: 0.00076
LLC LOAD DATA	ACCESS:      81622  HIT:      77971  MISS:       3651  HIT %:    95.5269  MISS %:    4.47306  MPKI: 0.07302
LLC RFO DATA	ACCESS:      56863  HIT:      42171  MISS:      14692  HIT %:    74.1625  MISS %:    25.8375  MPKI: 0.29384
LLC PREFETCH DATA	ACCESS:      73731  HIT:      63440  MISS:      10291  HIT %:    86.0425  MISS %:    13.9575  MPKI: 0.20582
LLC WRITEBACK DATA	ACCESS:      78225  HIT:      77978  MISS:        247  HIT %:    99.6842  MISS %:   0.315756  MPKI: 0.00494
LLC LOAD TRANSLATION DATA	ACCESS:       1611  HIT:       1528  MISS:         83  HIT %:    94.8479  MISS %:    5.15208  MPKI: 0.00166
LLC TRANSLATION FROM L1D PREFETCHER DATA	ACCESS:         19  HIT:         17  MISS:          2  HIT %:    89.4737  MISS %:    10.5263  MPKI: 4e-05

LLC AVERAGE MISS LATENCY: 194.326 cycles
LLC RQ	ACCESS:     423387	FORWARD:          0	MERGED:          0	TO_CACHE:     423382
LLC WQ	ACCESS:      78225	FORWARD:          5	MERGED:          0	TO_CACHE:      78225
LLC PQ	ACCESS:      73731	FORWARD:          0	MERGED:          0	TO_CACHE:      73731

LLC Dense regions hint to LLC: 0

RAW hits: 1913862
Loads Generated: 12605135
Loads sent to L1D: 10691273
Stores Generated: 6907628
Stores sent to L1D: 6907638
Major fault: 0 Minor fault: 2405
Allocated PAGES: 2405

stream: 
stream:times selected: 1244870
stream:pref_filled: 127752
stream:pref_useful: 28799
stream:pref_late: 9821
stream:misses: 10788
stream:misses_by_poll: 0

CS: 
CS:times selected: 194403
CS:pref_filled: 74149
CS:pref_useful: 50411
CS:pref_late: 9196
CS:misses: 24134
CS:misses_by_poll: 11

CPLX: 
CPLX:times selected: 1049166
CPLX:pref_filled: 24824
CPLX:pref_useful: 7833
CPLX:pref_late: 4040
CPLX:misses: 131621
CPLX:misses_by_poll: 4

NL_L1: 
NL:times selected: 22363
NL:pref_filled: 1167
NL:pref_useful: 555
NL:pref_late: 696
NL:misses: 3282
NL:misses_by_poll: 0

total selections: 2510802
total_filled: 107886
total_useful: 49957
total_late: 26325
total_polluted: 15
total_misses_after_warmup: 801484
conflicts: 5497123

test: 119588

DRAM Statistics
 CHANNEL 0
 RQ ROW_BUFFER_HIT:      10777  ROW_BUFFER_MISS:      19137
 DBUS_CONGESTED:         12
 WQ ROW_BUFFER_HIT:       2055  ROW_BUFFER_MISS:      13793  FULL:          0

 AVG_CONGESTED_CYCLE: 4

CPU 0 Branch Prediction Accuracy: 99.8185% MPKI: 0.33254 Average ROB Occupancy at Mispredict: 189.87
Branch types
NOT_BRANCH: 40839075 81.6781%
BRANCH_DIRECT_JUMP: 543196 1.08639%
BRANCH_INDIRECT: 181400 0.3628%
BRANCH_CONDITIONAL: 6212158 12.4243%
BRANCH_DIRECT_CALL: 941242 1.88248%
BRANCH_INDIRECT_CALL: 170851 0.341702%
BRANCH_RETURN: 1112092 2.22418%
BRANCH_OTHER: 0 0%

DRAM PAGES: 1048576
Allocated PAGES: 2405
Average_ROB_Occupancy: 220.103
Average_Decode_Occupancy: 19.5774
Average_FTQ_Occupancy: 5.81204
Indirect max targets: 14 Average targets: 1.17572
Branch_type:  BRANCH_DIRECT_JUMP:  Count Percentage: 3.2527 6.70573 3.72958 7.67135 2.79193 5.97145 0.881761 68.9955 
Branch_type:  BRANCH_INDIRECT:  Count Percentage: 11.7615 3.47504 2.53226 0 2.53722 9.69166 19.2082 50.7942 
Branch_type:  BRANCH_CONDITIONAL:  Count Percentage: 17.6465 2.12509 6.92137 7.78004 1.66063 4.7785 1.73049 57.3574 
Branch_type:  BRANCH_DIRECT_CALL:  Count Percentage: 0.264899 1.24886 1.43212 3.74089 3.46498 2.34726 0.613627 86.8874 
Branch_type:  BRANCH_INDIRECT_CALL:  Count Percentage: 9.51994 0.566925 2.9817 4.83249 1.29763 1.71015 1.27829 77.8129 
Branch_type:  BRANCH_RETURN:  Count Percentage: 3.44186 0.569291 1.48104 8.45382 3.60332 6.37661 2.8646 73.2095 
Branch_type:  BRANCH_DIRECT_JUMP:  Total Count: 35332 72840 40512 83329 30327 64864 9578 749454 
Branch_type:  BRANCH_INDIRECT:  Total Count: 42703 12617 9194 0 9212 35188 69740 184421 
Branch_type:  BRANCH_CONDITIONAL:  Total Count: 2192058 263980 859779 966444 206285 593590 214963 7124991 
Branch_type:  BRANCH_DIRECT_CALL:  Total Count: 4977 23464 26907 70285 65101 44101 11529 1632465 
Branch_type:  BRANCH_INDIRECT_CALL:  Total Count: 32493 1935 10177 16494 4429 5837 4363 265587 
Branch_type:  BRANCH_RETURN:  Total Count: 76444 12644 32894 187760 80030 141625 63623 1625989 
Number of unique branch instructions: 10849
Upper 32 bits: 
aaaa
ffff
ffff0000
Unique upper 32 bits: 3
Unique upper 36 bits: 3
Unique upper 40 bits: 5
Unique upper 44 bits: 32
Unique upper 48 bits: 160
Offset_3 4511
Offset_4 261
Offset_5 486
Offset_6 554
Offset_7 641
Offset_8 574
Offset_9 522
Offset_10 436
Offset_11 357
Offset_12 298
Offset_13 235
Offset_14 233
Offset_15 207
Offset_16 234
Offset_17 168
Offset_18 163
Offset_19 261
Offset_20 149
Offset_21 245
Offset_22 413
Offset_23 241
Offset_24 342
Offset_25 114
Offset_47 91
decode_dispatch_called: 23079069 63.45
Dispatch_width: 0 11559528 50.0866 31.78
Dispatch_width: 1 901039 3.90414 2.47718
Dispatch_width: 2 1030236 4.46394 2.83237
Dispatch_width: 3 693575 3.00521 1.90681
Dispatch_width: 4 4001058 17.3363 10.9999
Dispatch_width: 5 408264 1.76898 1.12242
Dispatch_width: 6 4485369 19.4348 12.3314
Empty_decode_cycles: 13294546 36.55
ROB_full_cycles: 6192556 17.0249
Starvation_cycles_per_kilo_instr: 256.957
Starvation_cycles_per_kilo_instr_3: 212.864
Starvation_cycles_per_kilo_instr_0: 186.615
Branch_type_1  (3,1)  (4,7)  (5,38)  (6,80)  (7,126)  (8,145)  (9,137)  (10,115)  (11,84)  (12,48)  (13,10)  (14,2)  (15,3)  (16,4)  (18,1)  (19,5)  (20,2)  (21,1)  (22,3)  (23,2)  (24,10)  (25,12) 
Branch_type_2  (3,1)  (4,1)  (5,1)  (8,4)  (9,4)  (10,1)  (12,1)  (13,1)  (14,1)  (16,3)  (17,2)  (20,2)  (21,2)  (23,5)  (24,1)  (47,40) 
Branch_type_3  (3,4509)  (4,253)  (5,443)  (6,457)  (7,482)  (8,361)  (9,288)  (10,182)  (11,140)  (12,53)  (13,10) 
Branch_type_4  (6,4)  (7,8)  (8,26)  (9,57)  (10,65)  (11,68)  (12,108)  (13,101)  (14,104)  (15,100)  (16,104)  (17,77)  (18,72)  (19,126)  (20,75)  (21,130)  (22,221)  (23,136)  (24,198)  (25,98)  (47,1) 
Branch_type_5  (8,3)  (9,1)  (10,4)  (11,5)  (12,3)  (13,14)  (14,16)  (15,11)  (16,22)  (17,12)  (18,23)  (19,14)  (20,12)  (21,13)  (22,43)  (23,26)  (24,37) 
Branch_type_6  (5,4)  (6,13)  (7,25)  (8,35)  (9,35)  (10,69)  (11,60)  (12,85)  (13,99)  (14,110)  (15,93)  (16,101)  (17,77)  (18,67)  (19,116)  (20,58)  (21,99)  (22,146)  (23,72)  (24,96)  (25,4)  (47,50) 
aaaaab1fc620: 2ac9e77e 2aca717c 2aca8eff 2acaf6bc 2acaf9aa 2acaf9f1 2acb1abc 2acb1b7f 2acd4e22 2acdb712 2acf5f9e 2ad0ef44 2ad3f15c 2ad414e6 2ad60e42 2ad8609c 2ad99830 2ada35cc 2ada4676 2ada6612 2adf183e 2adf30e5 2adf5602 2adf785c 2ae11572 2aeb2dcf 2aee101b 2aee1ae1 2b156a8c 2b156b61 2b156bea 2b167f35 2b177656 2b17feec 2b1a3e5a 
aaaaab1fc640: 2ac9ec07 2aca656e 2aca801d 2acaea11 2acaee73 2acb13ee 2acb1470 2acd462b 2ad0ef5d 2ad3f3fe 2ad86e9b 2ada1641 2ada4115 2ada6638 2adf30d4 2ae12e57 2aee1033 2b1693ab 2b16948c 2b169491 2b17d915 2b17fa85 2b17fccd 
aaaaab1fcb00: 2acf2d72 2acf3734 2acf604c 2acfa5b7 2ad397b5 2ad3b800 2ae8af7d 2ae8aff0 2ae9aaba 2aea9fc6 2aeaa358 2aee910b 2aee91cf 2aee928e 2aee92e4 2af6fe87 2af70dfe 2b16850c 2b16c4a2 2b1765f4 2b178094 2b17d925 2b17db06 
aaaaab1fcb10: 2acf2d95 2acf3758 2acf6052 2acfa5f4 2ad397c3 2ad3b81c 2ae8af88 2ae8affe 2ae9aacf 2aeaa017 2aeaa36d 2aee9114 2aee91d8 2aee934d 2aee9353 2af6fe8c 2af70e22 2b168526 2b16c542 2b176609 2b1780a3 2b17d95d 2b17db44 
aaaaac68f310: 2ac9ec8c 2ac9fb44 2ac9fbd2 2aca59ab 2acac04c 2acaf6e0 2acaf6ec 2acaf6f9 2acaf700 2acaf708 2acf2d90 2ad3cfbd 2ad3cfc4 2ad3d000 2ad3f35f 2ad4955d 2ad49571 2ad4f3f2 2ad4f400 2ad5f240 2ad5f37c 2ad5f86a 2ad5f86f 2ad5f880 2ad5fc0d 2ad5fc14 2ad5fc21 2ad5fe1b 2ad873bb 2ad873e3 2ad8a6b2 2ad9086e 2ad93096 2ad9bbb2 2ada152c 2ada1554 2ada3332 2ada5522 2adf3130 2adf313c 2adf3a3f 2adf3bd9 2adf5788 2adf7a8d 2ae07f6b 2ae0857a 2ae0857e 2ae08630 2ae08634 2ae08637 2ae08642 2ae0866f 2ae086e4 2ae086ec 2ae08717 2ae0871b 2aee0170 2aee1d38 2aee75f4 2aee7662 2aee85ca 2aee85e4 2aee8eef 2af70b84 2af74e8f 2b17d843 
aaaaac690ef0: 2aca598b 2acb111b 2acb175f 2acb1772 2acbfaf4 2acbfb00 2acf374f 2acf6d43 2acfa5c8 2ad3baf1 2ad3d4ac 2ad3d4b8 2ad3f1cf 2ad486b2 2ad5a59b 2ad5fc64 2ad5fcf9 2ad6121c 2ad906e9 2ad907bf 2ad9bada 2ada16ce 2ada1ad5 2ada43df 2ada64c0 2ada72ee 2adeb71a 2adf3bcb 2adf7a38 2adf7c6a 2adf8872 2adf8880 2adf9959 2adf9abe 2ae07f78 2ae08503 2ae08754 2ae12e80 2aea3bea 2aecb509 2aee00b0 2aee2bdd 2aee5467 2aee5601 2aee8f20 2af703fd 2af7048b 2af74e74 
Unique trigger count: 
1 10339
2 560
3 92
4 31
5 13
6 10
7 9
8 2
9 4
10 2
11 1
12 1
13 1
14 3
16 2
19 2
23 3
35 1
48 1
66 1
BTB PER SET UNIQUE ADDR: 3 4 3 3 1 1 3 2 4 0 3 0 5 3 1 3 4 2 4 5 3 4 2 3 4 5 1 4 3 2 6 6 4 4 4 2 1 6 5 2 4 4 4 7 6 3 4 4 6 3 3 2 3 1 0 3 4 3 3 3 1 4 2 3 1 4 5 4 3 5 5 1 1 4 2 4 3 6 2 4 2 3 1 4 3 4 2 6 3 3 6 5 3 5 3 0 4 4 2 3 4 4 3 3 4 2 1 2 3 2 2 2 3 6 2 6 2 4 4 1 5 4 2 0 1 3 2 2 7 5 6 2 4 1 6 4 2 2 3 3 5 4 4 3 1 5 3 5 5 4 3 9 3 5 4 1 5 5 4 3 4 6 5 4 6 6 2 2 9 3 2 4 6 4 1 2 5 4 5 1 2 6 8 4 7 6 3 3 3 3 6 3 3 4 4 4 3 3 3 4 3 3 4 2 3 3 2 4 2 1 2 4 5 4 4 2 3 5 4 0 1 2 2 4 3 2 4 3 0 3 8 4 3 4 4 4 5 3 2 2 1 0 6 3 11 7 1 3 4 4 3 2 2 4 2 6 3 4 4 3 4 4 4 2 3 7 3 2 4 2 3 2 2 3 4 2 2 1 3 3 4 3 5 2 5 5 3 3 1 1 0 4 1 6 2 2 4 3 2 2 3 3 2 2 4 2 3 2 6 5 4 1 3 2 5 2 6 6 2 3 4 6 4 5 2 3 3 7 1 1 6 0 2 5 5 2 3 4 6 0 4 0 1 5 5 2 1 6 4 5 4 7 5 3 5 3 2 0 5 1 2 6 3 4 6 5 1 1 2 2 3 2 3 4 4 4 3 4 3 4 6 3 2 6 3 3 5 2 6 1 5 6 4 2 3 1 5 0 1 4 4 2 4 2 3 4 3 2 1 1 1 3 5 4 3 3 5 3 1 3 1 1 4 4 4 4 3 0 2 5 0 1 8 3 5 5 3 3 4 0 3 5 5 3 5 6 2 3 3 2 4 3 1 3 5 1 2 4 7 2 3 3 4 6 3 3 5 3 3 3 0 4 5 4 5 1 4 5 1 2 2 1 2 2 0 4 3 0 5 2 3 1 3 4 1 6 3 3 2 1 5 1 1 2 1 2 2 2 2 3 3 2 3 7 1 1 2 6 5 6 4 3 5 2 5 5 1 6 6 4 5 3 4 6 4 4 2 1 4 2 2 5 7 2 6 2 8 3 7 9 3 6 3 6 1 3 3 1 4 4 7 2 5 3 2 1 4 3 2 7 4 3 3 7 2 2 3 4 1 6 5 2 2 0 1 0 0 9 4 3 6 7 1 2 3 3 6 2 4 2 7 2 6 6 2 3 4 4 2 2 5 4 2 3 2 1 2 0 3 1 4 4 7 2 3 4 3 4 2 3 5 5 3 3 5 5 3 5 3 2 7 1 4 4 1 0 4 3 3 5 4 2 4 3 4 0 4 3 2 4 5 2 5 5 5 3 6 3 2 3 5 4 5 4 5 7 3 3 3 3 4 2 4 2 5 3 6 4 4 5 1 4 2 3 3 3 6 4 4 4 0 6 1 3 3 3 4 2 3 1 3 5 4 3 2 1 8 2 0 3 2 0 1 1 1 3 1 3 2 3 7 6 2 2 3 5 7 4 2 2 2 4 2 4 2 2 3 2 5 2 1 3 1 4 3 2 3 6 4 2 3 3 2 5 4 4 9 3 2 2 5 5 0 3 3 4 5 2 2 3 4 4 0 3 8 6 3 5 0 2 3 4 2 1 4 7 8 2 3 3 6 3 4 3 5 4 3 5 2 3 2 5 4 0 5 4 1 2 0 4 5 2 4 2 2 3 4 3 4 4 3 2 3 2 5 2 2 2 5 3 3 2 3 4 2 4 6 5 6 2 6 3 6 4 5 4 3 2 4 4 2 6 2 2 8 3 3 4 5 4 1 4 4 6 4 1 2 4 5 4 3 6 4 5 5 3 2 3 2 5 5 3 3 4 2 1 6 4 2 1 5 2 1 4 6 5 4 5 3 5 5 4 1 3 1 6 0 3 6 2 6 5 6 3 4 2 3 2 5 8 5 4 9 7 6 4 6 4 2 8 4 2 1 4 5 7 6 5 5 4 6 1 5 5 2 3 6 6 4 2 2 3 4 5 2 6 9 5 6 3 2 5 0 5 7 1 7 5 1 3 7 5 3 5 3 1 2 3 3 3 5 6 3 7 5 4 4 5 3 5 3 2 5 2 2 5 5 3 4 4 5 4 4 4 6 2 5 2 2 5 5 2 9 5 2 4 3 2 2 3 4 8 6 2 3 2 3 2 3 1 3 2 4 4 2 4 5 5 5 7 0 3 3 4 4 4 2 3 3 2 3 1 1 1 4 1 2 3 3 4 1 9 5 3 2 1 10 1 2 5 1 2 5 5 3 8 2 6 4 6 3 5 3 2 1 1 5 2 4 4 3 8 4 1 6 4 6 2 3 4 5 3 5 8 4 4 6 1 6 5 7 4 3 3 4 3 6 6 3 6 6 6 4 3 4 4 2 2 3 5 1 3 2 1 4 5 2 3 5 3 2 6 4 4 5 1 8 3 3 4 3 1 3 5 3 4 3 4 3 6 2 4 7 3 4 5 3 6 2 8 5 5 3 8 6 2 6 1 6 2 1 2 4 4 3 1 3 4 3 1 3 3 4 5 4 2 3 4 2 5 2 5 5 5 0 5 3 3 2 6 7 1 8 0 1 5 4 2 5 1 3 3 4 1 1 2 4 5 3 4 1 4 3 6 5 1 5 3 3 6 9 4 3 7 5 6 2 1 3 5 6 3 2 2 3 3 4 4 5 3 0 4 2 3 6 8 6 3 3 5 1 3 6 3 4 1 3 2 6 9 3 3 3 3 4 5 2 5 6 6 6 3 1 5 4 2 4 3 4 4 3 4 7 3 5 4 3 5 5 2 1 7 4 4 3 3 3 2 4 2 2 2 5 5 2 3 5 2 1 3 3 8 5 2 3 5 2 4 3 4 4 3 2 0 4 2 3 2 4 4 4 4 2 1 3 6 1 4 2 4 2 3 6 1 1 5 5 3 3 4 6 2 4 4 5 5 4 5 4 4 3 3 2 3 6 2 4 1 4 2 9 3 4 6 4 4 5 7 3 2 3 3 2 3 4 1 4 2 4 3 0 5 1 5 3 3 3 5 4 2 5 3 3 2 5 2 6 2 0 3 3 1 2 4 1 5 3 3 6 3 2 2 3 3 2 2 7 2 4 5 3 3 3 4 2 2 6 0 2 3 4 3 2 2 2 0 2 0 4 2 4 4 2 3 2 1 2 6 4 2 6 1 3 3 2 2 5 5 3 2 6 0 1 2 3 1 1 2 3 3 5 3 1 1 7 2 1 4 1 6 1 4 3 3 6 2 3 2 1 3 3 1 2 3 4 2 3 3 1 4 0 5 3 3 3 0 4 3 5 4 5 4 4 4 0 4 1 2 1 3 5 0 2 3 4 4 4 2 3 3 2 11 7 3 3 2 4 1 1 3 6 2 3 0 3 2 4 2 3 5 6 6 9 0 4 2 8 4 4 5 4 8 2 4 8 3 0 6 4 3 2 6 3 3 2 2 2 5 2 2 2 3 1 3 5 3 5 3 5 1 1 4 5 3 3 5 4 3 6 2 5 5 2 6 4 3 3 1 3 6 4 4 2 3 3 3 5 4 2 3 3 1 3 1 3 6 1 2 2 3 3 4 5 3 4 3 5 1 2 3 6 2 4 5 6 0 1 7 2 4 2 3 4 7 2 3 2 4 6 2 4 3 5 3 6 8 4 4 3 5 1 5 3 3 2 3 2 2 2 4 5 3 2 4 3 5 5 2 4 8 0 3 2 4 5 4 3 4 3 5 4 4 1 5 3 3 4 2 3 0 3 5 0 7 2 5 6 1 5 3 2 0 4 2 3 5 3 6 2 3 2 2 3 5 6 1 4 3 0 3 2 4 5 3 2 4 5 2 3 2 6 4 4 1 5 3 0 2 3 1 1 8 2 0 4 3 4 3 4 3 6 3 3 6 1 5 4 6 2 6 5 3 3 2 7 1 5 0 3 3 4 4 3 4 2 0 2 4 0 3 0 3 5 6 2 3 6 2 4 2 3 1 3 2 4 2 4 2 5 3 2 3 3 2 3 4 3 2 3 3 2 2 0 2 2 5 1 5 1 5 4 3 3 2 5 1 3 3 4 4 3 4 6 6 3 3 3 3 4 3 1 3 2 1 0 1 3 2 4 3 5 2 2 3 4 1 1 4 4 2 2 8 2 2 7 6 3 2 5 2 3 6 3 3 4 3 4 1 2 4 6 4 2 5 3 2 3 3 5 7 3 3 0 4 1 0 2 3 0 4 4 6 2 3 4 7 5 0 2 2 4 3 5 2 4 2 8 3 2 3 3 7 3 7 3 4 6 0 1 3 1 4 4 2 0 2 3 4 5 5 1 0 3 4 6 1 1 1 4 6 2 2 5 5 3 3 5 4 0 6 3 6 2 1 2 2 1 2 5 1 3 3 3 3 4 1 5 3 5 2 4 2 1 3 7 4 4 0 
BTB PER SET COUNT: 3 5 3 3 1 2 3 2 4 0 5 0 2418 3 1 3 5 2 4 1463 3 5 3 3 4 7 1 5 1456 2 2901 9 5 5 4 2 2912 754 748 2 5 4 11 2191 5346 4 4 4 1552 4 3 2 3 1 0 3 4 3 3 3 1 4 2 4 1 310 404 4 3 1018 748 1 1 4 2 5 485 745 2 4 2 3 1 4 3 4 2 16 3 3 2482 493 3 3891 4 0 4 7 2 3 5 4 3 3 5 2 1 2 3 2 2 2 3 1949 2 2198 2 4 4 1 8 4 3 0 1 3 2 2 1962 20 1936 2 4 2 979 4 2 3 3 3 14 7 6 4 2 10 3 4376 8 4 4 6749 3 2418 7 1 8 7 4 3 4 999 7 6 20 1954 2 2 7240 3 2 5 39 4 1 2 8 4 980 1 2 12 6799 4 22 16 4 3 3 3 50 3 3 4 4 5 3 3 3 4 3 5 4 3 3 3 2 1459 2 1 2 5 6 4 5 2 5 10 4 0 1 2 3 4 3 2 5 26 0 3 5766 4 3 4 5 4 11 3 3 2 1 0 2419 3 9218 1966 1 3 5 4 3 2 2 4 2 1990 3 5 4 3 5 4 4 2 1456 1514 3 3 4 2 3 2 2 3 4 2 2 1 3 3 4 3 1935 2 749 2420 3 3 1 1 0 4 1 19 2 2 5 3 3 2 3 4 2 2 5 2 3 2 1937 1002 4 1 3 2 996 5 2428 1257 2 5 4 2196 4 16 2 4 3 98 1 1 977 0 2 6 1522 4 972 4 24 0 4 0 1 977 972 2 1 24 6 8 4 70 9 4 58 3 2 0 8 1 2 19 3 4 2682 17 1 1 2 2 3 2 3 5 5 4 4 4 3 4 37 3 2 256 3 6 13 2 16 1 23 63 4 2 4 1 3187 0 1 4 4 2 6 2 3 6 1456 2 1 971 1 3 12 4 974 3 150 4 1 87 1 1 4 4 5 4 6 0 2 7 0 1 2676 3 995 2417 3 3 5 0 4 6 1244 3 10 1009 2 3 3 2 4 3 1 4 1934 1 2 4 1470 2 3 3 4 1944 5 3 7 4 3 3 0 4 22 486 13 1 5 996 1 2 2 1 2 484 0 4 3 0 20 2 3 1 5 4 1 55 3 3 2 1 1935 13 1 4 1 2 2 2 2 3 3 2 3 36 2 1 2 2435 15 503 5 1456 40 2 16 1453 2 1953 4863 4 9 4 4 14 4 488 3 1 4 2 4 1454 193 2 11 2 133 3 984 9227 3 1469 3 2897 1 3 3 1 6 4 6791 2 1937 3 2 1 4 3 2 2953 4 3 3 5350 2 2 3 4 1 28 12 29 3 0 1 0 0 3868 4 6 1937 2903 3 3 974 5 17 2 5 3 19 2 12 1492 2 3 4 4 4 2 2417 5 2 3 2 1 978 0 4 1 5 486 3395 2 3 4 3 4 2 3 1934 1484 3 7 970 9 3 9 3 2 2913 1 4 4 1 0 7 3 3 9 4 2 4 3 4 0 5 3 2 4 7765 3 20 28 1935 3 2956 968 3 3 752 4 10 4 1453 2986 3 3 6 3 4 2 4 967 1453 3 25 1457 4 10 1 970 2 3 3 3 1937 4 5 30 0 2420 1 3 3 968 4 2 4 2 3 9 5 3 967 1 2434 2 0 3 2 0 1 1 1 4 1 3 2 3 1490 61 972 4 3 28 18 4 2 2 3 4 2 4 2 2 487 2 13 967 2 4 1 5 3 2 3 2900 4 3 3 3 2 10 4 4 5811 5 4 2 20 13 0 119 3 5 2921 3 6 3 5 7 0 3 2861 4862 4 12 0 2 3 43 6 1 4 4183 1839 2 3 3 17 3 4 3 1946 7 4 17 2 5 2 10 4 0 7 4 3 3 0 4 12 2 4 2 2 4 4 3 4 115 3 2 3 2 1935 2 4 3 1452 3 3 2 3 1458 3 8 1945 8 48 2 2419 3 1943 4 12 4 3 2 4 4 2 4820 2 2 6317 973 3 5 1453 5 1 5 4 2449 4 1 2 5 20 4 3 4858 4 8 60 3 2 4 2 19 12 3 3 4 2 1 675 4 2 1 1428 2 1 40 31 2434 6 996 3 9 43 4 2 3 1 1500 0 6 980 2 49 10 1478 3 10 3 3 2 1935 101 9 486 5328 3855 1454 4 2068 7 2 58 4 2 1 974 11 2426 47 1452 9 4 773 1 429 20 3 3 1384 1939 6 2 2 487 4 4860 5 24 938 12 1950 5 2 10 0 320 37 1 7277 21 1 3 1942 8 485 16 3 3 2 3 3 4 1655 21 5 3395 18 5 4 1936 3 70 4 2 19 2 2 6 22 3 4 5 1942 5 2428 310 1713 2 22 5 2 11 1427 4 5077 22 2 5 3 3 2 3 4 2911 1935 2 3 2 3 2 3 4 3 2 6 4 2 4 6 1936 31 1475 0 3 3 4 1458 312 2 8 4 5 3 1 2 1 5 1 2 4 3 6 1 3869 1454 3 2 2 11157 1 2 49 1 2 1935 131 3 5365 2 58 4 2423 4 24 3 2 1 1 27 2 4 4 3 1956 4 1 2017 4 2422 2 485 4 14 3 2417 1818 4 4 2421 1 16 7 4836 4 3 3 4 3 1455 1925 4 2419 1454 1516 4 3 4 4 2 2 3 1936 1 3 2 1 4 13 5 3 502 3 2 38 4 5 10 1 6087 4 3 4 3 1 3 618 4 5 4 4 3 10 2 5 1911 4 5 9 3 1952 2 5732 11 1451 4 2531 7277 2 5341 1 33 2 1 2 488 6 3 1 4 119 3 1 3 486 4 8 4 2 3 4 2 1452 2 8 31 13 0 1935 3 3 2 31 7285 1 703 0 1 14 4 4 22 1 3 968 5 1 1 2 5 14 3 4 1 4 3 7274 16 1 14 3 3 2937 10189 1959 6 7277 9 1942 3 1 3 1935 2418 4 2 2 3 4 4 4 8 3 0 4 2 4 3415 7854 3900 4 3 316 1 3 17 3 4 1 3 2 2902 6559 974 4 3 3 4 8 2 1934 1938 2419 13 3 1 9 4 2 6 3 4 4 3 4 1946 3 1934 4 485 1935 2418 5 1 2988 4 4 3 3 3 2 6 2 2 2 20 29 2 3 994 2 1 3 3 2920 25 2 3 15 2 5 3 4 5 3 2 0 4 2 3 2 4 5 7 4 2 1 3 1007 1 4 2 4 3 4 364 1 1 14 40 973 3 5 2438 4 4 34 8 9 4 14 4 4 3 3 2 3 1945 3 4 1 4 2 5788 3 4 2902 4 4 2418 6800 3 2 3 3 2 3 4 1 5 2 4 4 0 3634 1 6 4 3 4 9 7 2 1463 3 3 1279 7 2 517 2 0 3 3 1 3 1281 1 10 4 3 1940 4 3 2 3 3 2 2 2908 2 4 58 3 3 3 7 2 2 17 0 3 5 5 973 2 2 2 0 2 0 4 2 4 4 2 3 967 1 6 22 27 2 2418 1 3 4 2 2 13 10 150 2 21348 0 1 2 3 1 1 2 3 4 2020 373 1 1 1406 2 1 4 1 2427 1 4 3 3 1915 2 7 2 1 3 3 1 2 3 4 3 3 3 1 5 0 3891 4 3 3 0 6 454 1929 4 10 4 5 4 0 5 1 2 1 3 8 0 2 3 4 4 10 2 3 3 2 3691 2905 3 3 2 4 1 1 4 1722 2 3 0 3 2 4 2 3 15 2419 60 5849 0 5 2 2187 4 5 14 8 3393 2 4 8723 3 0 2900 1457 3 2 25 3 3 2 2 2 981 3 2 2 3 1 3 15 5 1934 3 970 2910 1 4 6790 3 3 14 4 3 3400 3 1291 1934 2 1946 4 290 310 1 1456 1458 4 101 7 3 3 3 6 4 2 5 3 1 3 1 3 2901 1 2 2 5 3 4 515 3 4 3 3888 1 2 5 1501 2 1454 1454 2908 0 1 6315 2 972 2 4 4 1945 486 3 2 4 2903 2 487 4 4498 3 27 8736 4 4 14542 2903 1 1941 1456 5 2 3 3 2 2 4 20 3 2 5 3 12 29 2 122 3387 0 1459 2 1457 133 4 3 4 3 1934 5 624 1 2419 4 4 4 2 3 0 4 2896 0 5342 2 11 2430 1 14 3 2 0 4 2 3 2154 3 4853 2 3 2 3 3 8 7275 1 5 418 0 3 2 8 1934 973 2 8 1941 2 3 3 2183 4 4 1 23 3 0 2 3 1454 1 3821 2 0 4 4 4 3 8 3 2365 3 413 2418 1 2417 4 1946 194 1937 71 3 3 2 4025 2 236 0 4 1458 5 4 3 4 2 0 2 490 0 3 0 3 29 3149 2 3 762 373 4 3 973 1 3 2 4 2 4 2 138 3 2 3 3 2 219 4 3 2 3 3 2 2 0 2 2 21 1 10 1 3892 4 3 3 9 8 1 3 3 4 4 3 969 44 979 3 3 3 3 4 3 1 3 2 1 0 1 3 2 4 12 2417 2 2 3 4 1 1 4 4 2 2 3152 2 2 3150 2419 291 2 10 4 4 55 3 3 4 3 4 1 3 5 36 969 2 20 3 2 4 3 15 2529 3 4 0 4 1 0 2 4 0 4 1458 977 4 3 4 2392 10 0 2 2 4 4 8 2 6 2 3821 3 2 4 3 2423 6 3392 3 5 5100 0 1 3 1 4 4 2 0 2 3 4 19 26 1 0 3 4 1463 1 1 1 4 2422 2 2 9 10 3 6 1936 4 0 2422 6 1936 6 1 2 2 1 2 9 1 3 5 3 4 4 1 9 6 201 2 4 2 1 3 1485 5 4 0 
