
*** ChampSim Multicore Out-of-Order Simulator ***

Warmup Instructions: 50000000
Simulation Instructions: 50000000
Number of CPUs: 1
LLC sets: 2048
LLC ways: 16
Off-chip DRAM Size: 4096 MB Channels: 1 Width: 64-bit Data Rate: 6400 MT/s
CPU 0 runs ./micro_traces/srv385.trace.gz
.gz
ITLB has LRU replacement policy
DTLB has LRU replacement policy
STLB has LRU replacement policy
FDIP Prefetcher at L1I
L1I has LRU replacement policy
L1D has LRU replacement policy
Initialize SRRIP state for L2C
Initialize DRRIP state for LLC
Heartbeat_Variant_0 : 1334 0.325684 per_variant_size: 0 1334 0 0 0 0 0 0 0 
Heartbeat_Variant_1 : 1084 0.264648 per_variant_size: 0 328 756 0 0 0 0 0 0 
Heartbeat_Variant_2 : 1008 0.246094 per_variant_size: 0 263 195 173 377 0 0 0 0 
Heartbeat_Variant_3 : 0 0 per_variant_size: 0 0 0 0 0 0 0 0 0 
Heartbeat_Variant_0_evicts 0 : 5579 1 : 3 2 : 7 3 : 0 
Heartbeat_Variant_1_evicts 0 : 7 1 : 0 2 : 198 3 : 0 
Heartbeat_Variant_2_evicts 0 : 4 1 : 195 2 : 0 3 : 0 
Heartbeat_Variant_3_evicts 0 : 0 1 : 0 2 : 0 3 : 0 
Heartbeat CPU 0 instructions: 10000001 cycles: 2797402 heartbeat IPC: 3.57475 cumulative IPC: 3.57475 (Simulation time: 0 hr 2 min 18 sec) 
Heartbeat_Variant_0 : 1336 0.326172 per_variant_size: 0 1336 0 0 0 0 0 0 0 
Heartbeat_Variant_1 : 1088 0.265625 per_variant_size: 0 327 761 0 0 0 0 0 0 
Heartbeat_Variant_2 : 1014 0.247559 per_variant_size: 0 267 193 183 371 0 0 0 0 
Heartbeat_Variant_3 : 0 0 per_variant_size: 0 0 0 0 0 0 0 0 0 
Heartbeat_Variant_0_evicts 0 : 5562 1 : 1 2 : 0 3 : 0 
Heartbeat_Variant_1_evicts 0 : 1 1 : 0 2 : 195 3 : 0 
Heartbeat_Variant_2_evicts 0 : 0 1 : 197 2 : 0 3 : 0 
Heartbeat_Variant_3_evicts 0 : 0 1 : 0 2 : 0 3 : 0 
Heartbeat CPU 0 instructions: 20000000 cycles: 5594329 heartbeat IPC: 3.57535 cumulative IPC: 3.57505 (Simulation time: 0 hr 4 min 33 sec) 
Heartbeat_Variant_0 : 1383 0.337646 per_variant_size: 0 1383 0 0 0 0 0 0 0 
Heartbeat_Variant_1 : 1140 0.27832 per_variant_size: 0 341 799 0 0 0 0 0 0 
Heartbeat_Variant_2 : 1033 0.252197 per_variant_size: 0 248 197 190 398 0 0 0 0 
Heartbeat_Variant_3 : 0 0 per_variant_size: 0 0 0 0 0 0 0 0 0 
Heartbeat_Variant_0_evicts 0 : 5601 1 : 4 2 : 2 3 : 0 
Heartbeat_Variant_1_evicts 0 : 4 1 : 0 2 : 197 3 : 0 
Heartbeat_Variant_2_evicts 0 : 5 1 : 197 2 : 0 3 : 0 
Heartbeat_Variant_3_evicts 0 : 0 1 : 0 2 : 0 3 : 0 
Heartbeat CPU 0 instructions: 30000000 cycles: 8391092 heartbeat IPC: 3.57556 cumulative IPC: 3.57522 (Simulation time: 0 hr 6 min 33 sec) 
Heartbeat_Variant_0 : 1383 0.337646 per_variant_size: 0 1383 0 0 0 0 0 0 0 
Heartbeat_Variant_1 : 1142 0.278809 per_variant_size: 0 342 800 0 0 0 0 0 0 
Heartbeat_Variant_2 : 1032 0.251953 per_variant_size: 0 247 197 177 411 0 0 0 0 
Heartbeat_Variant_3 : 0 0 per_variant_size: 0 0 0 0 0 0 0 0 0 
Heartbeat_Variant_0_evicts 0 : 5648 1 : 0 2 : 0 3 : 0 
Heartbeat_Variant_1_evicts 0 : 0 1 : 0 2 : 199 3 : 0 
Heartbeat_Variant_2_evicts 0 : 0 1 : 198 2 : 0 3 : 0 
Heartbeat_Variant_3_evicts 0 : 0 1 : 0 2 : 0 3 : 0 
Heartbeat CPU 0 instructions: 40000000 cycles: 11187937 heartbeat IPC: 3.57546 cumulative IPC: 3.57528 (Simulation time: 0 hr 8 min 34 sec) 
Heartbeat_Variant_0 : 1394 0.340332 per_variant_size: 0 1394 0 0 0 0 0 0 0 
Heartbeat_Variant_1 : 1155 0.281982 per_variant_size: 0 341 814 0 0 0 0 0 0 
Heartbeat_Variant_2 : 1039 0.253662 per_variant_size: 0 241 200 176 422 0 0 0 0 
Heartbeat_Variant_3 : 0 0 per_variant_size: 0 0 0 0 0 0 0 0 0 
Heartbeat_Variant_0_evicts 0 : 5489 1 : 0 2 : 1 3 : 0 
Heartbeat_Variant_1_evicts 0 : 0 1 : 0 2 : 194 3 : 0 
Heartbeat_Variant_2_evicts 0 : 0 1 : 193 2 : 0 3 : 0 
Heartbeat_Variant_3_evicts 0 : 0 1 : 0 2 : 0 3 : 0 
Heartbeat CPU 0 instructions: 50000002 cycles: 13984290 heartbeat IPC: 3.57609 cumulative IPC: 3.57544 (Simulation time: 0 hr 10 min 35 sec) 

Warmup complete CPU 0 instructions: 50000002 cycles: 13984290 (Simulation time: 0 hr 10 min 35 sec) 

Cycle: 20000000 FTQ IN: 58353031 FTQ occupancy: 19.8752 DECODE IN: 58353031 DECODE occupancy: 51.9174 ROB IN: 58353016 ROB occupancy: 313.533 ROB OUT: 58352664
Heartbeat_Variant_0 : 1394 0.340332 per_variant_size: 0 1394 0 0 0 0 0 0 0 
Heartbeat_Variant_1 : 1156 0.282227 per_variant_size: 0 346 810 0 0 0 0 0 0 
Heartbeat_Variant_2 : 1039 0.253662 per_variant_size: 0 242 200 186 411 0 0 0 0 
Heartbeat_Variant_3 : 0 0 per_variant_size: 0 0 0 0 0 0 0 0 0 
Heartbeat_Variant_0_evicts 0 : 5602 1 : 0 2 : 0 3 : 0 
Heartbeat_Variant_1_evicts 0 : 0 1 : 0 2 : 197 3 : 0 
Heartbeat_Variant_2_evicts 0 : 0 1 : 197 2 : 0 3 : 0 
Heartbeat_Variant_3_evicts 0 : 0 1 : 0 2 : 0 3 : 0 
Heartbeat CPU 0 instructions: 60000003 cycles: 21187107 heartbeat IPC: 1.38835 cumulative IPC: 1.38835 (Simulation time: 0 hr 12 min 52 sec) 
Heartbeat_Variant_0 : 1394 0.340332 per_variant_size: 0 1394 0 0 0 0 0 0 0 
Heartbeat_Variant_1 : 1155 0.281982 per_variant_size: 0 344 811 0 0 0 0 0 0 
Heartbeat_Variant_2 : 1041 0.25415 per_variant_size: 0 244 200 189 408 0 0 0 0 
Heartbeat_Variant_3 : 0 0 per_variant_size: 0 0 0 0 0 0 0 0 0 
Heartbeat_Variant_0_evicts 0 : 5546 1 : 0 2 : 1 3 : 0 
Heartbeat_Variant_1_evicts 0 : 0 1 : 0 2 : 194 3 : 0 
Heartbeat_Variant_2_evicts 0 : 1 1 : 196 2 : 0 3 : 0 
Heartbeat_Variant_3_evicts 0 : 0 1 : 0 2 : 0 3 : 0 
Heartbeat CPU 0 instructions: 70000003 cycles: 28482381 heartbeat IPC: 1.37075 cumulative IPC: 1.37949 (Simulation time: 0 hr 14 min 58 sec) 
Cycle: 30000000 FTQ IN: 13739645 FTQ occupancy: 12.7487 DECODE IN: 13739537 DECODE occupancy: 32.9982 ROB IN: 13739492 ROB occupancy: 232.34 ROB OUT: 13739492
Heartbeat_Variant_0 : 1397 0.341064 per_variant_size: 0 1397 0 0 0 0 0 0 0 
Heartbeat_Variant_1 : 1159 0.282959 per_variant_size: 0 344 815 0 0 0 0 0 0 
Heartbeat_Variant_2 : 1045 0.255127 per_variant_size: 0 248 198 180 419 0 0 0 0 
Heartbeat_Variant_3 : 0 0 per_variant_size: 0 0 0 0 0 0 0 0 0 
Heartbeat_Variant_0_evicts 0 : 5609 1 : 0 2 : 0 3 : 0 
Heartbeat_Variant_1_evicts 0 : 0 1 : 0 2 : 197 3 : 0 
Heartbeat_Variant_2_evicts 0 : 0 1 : 196 2 : 0 3 : 0 
Heartbeat_Variant_3_evicts 0 : 0 1 : 0 2 : 0 3 : 0 
Heartbeat CPU 0 instructions: 80000001 cycles: 35692025 heartbeat IPC: 1.38703 cumulative IPC: 1.382 (Simulation time: 0 hr 17 min 13 sec) 
Cycle: 40000000 FTQ IN: 13887729 FTQ occupancy: 12.734 DECODE IN: 13887804 DECODE occupancy: 33.3064 ROB IN: 13887864 ROB occupancy: 234.113 ROB OUT: 13888210
Heartbeat_Variant_0 : 1397 0.341064 per_variant_size: 0 1397 0 0 0 0 0 0 0 
Heartbeat_Variant_1 : 1159 0.282959 per_variant_size: 0 346 813 0 0 0 0 0 0 
Heartbeat_Variant_2 : 1045 0.255127 per_variant_size: 0 247 198 184 416 0 0 0 0 
Heartbeat_Variant_3 : 0 0 per_variant_size: 0 0 0 0 0 0 0 0 0 
Heartbeat_Variant_0_evicts 0 : 5592 1 : 0 2 : 0 3 : 0 
Heartbeat_Variant_1_evicts 0 : 0 1 : 0 2 : 195 3 : 0 
Heartbeat_Variant_2_evicts 0 : 0 1 : 195 2 : 0 3 : 0 
Heartbeat_Variant_3_evicts 0 : 0 1 : 0 2 : 0 3 : 0 
Heartbeat CPU 0 instructions: 90000000 cycles: 42981362 heartbeat IPC: 1.37187 cumulative IPC: 1.37945 (Simulation time: 0 hr 19 min 22 sec) 
Cycle: 50000000 FTQ IN: 13757791 FTQ occupancy: 12.8505 DECODE IN: 13757824 DECODE occupancy: 33.2313 ROB IN: 13757824 ROB occupancy: 232.745 ROB OUT: 13757824
Heartbeat_Variant_0 : 1407 0.343506 per_variant_size: 0 1407 0 0 0 0 0 0 0 
Heartbeat_Variant_1 : 1164 0.28418 per_variant_size: 0 346 818 0 0 0 0 0 0 
Heartbeat_Variant_2 : 1049 0.256104 per_variant_size: 0 246 203 175 425 0 0 0 0 
Heartbeat_Variant_3 : 0 0 per_variant_size: 0 0 0 0 0 0 0 0 0 
Heartbeat_Variant_0_evicts 0 : 5665 1 : 1 2 : 1 3 : 0 
Heartbeat_Variant_1_evicts 0 : 1 1 : 0 2 : 198 3 : 0 
Heartbeat_Variant_2_evicts 0 : 0 1 : 198 2 : 0 3 : 0 
Heartbeat_Variant_3_evicts 0 : 0 1 : 0 2 : 0 3 : 0 
Heartbeat CPU 0 instructions: 100000003 cycles: 50191229 heartbeat IPC: 1.38699 cumulative IPC: 1.38095 (Simulation time: 0 hr 21 min 28 sec) 
Finished CPU 0 instructions: 50000001 cycles: 36206939 cumulative IPC: 1.38095 (Simulation time: 0 hr 21 min 28 sec) 

ChampSim completed all CPUs

Region of Interest Statistics

CPU 0 cumulative IPC: 1.38095 instructions: 50000001 cycles: 36206939
 Fetch stage stalled: 54.6389  Sim cycles: 36206939 fetch stall cycle: 19783063
 Empty decode stage: 36.0123  Sim cycles: 36206939 fetch stall cycle: 13038965
ITLB TOTAL     ACCESS:    5858006  HIT:    5364472  MISS:     493534  HIT %:    91.5751  MISS %:    8.42495   MPKI: 9.87068
ITLB LOAD TRANSLATION INSTRUCTION	ACCESS:    5739111  HIT:    5245577  MISS:     493534  HIT %:    91.4005  MISS %:    8.59949  MPKI: 9.87068
ITLB TRANSLATION FROM L1D PREFETCHER INSTRUCTION	ACCESS:     118895  HIT:     118895  MISS:          0  HIT %:        100  MISS %:          0  MPKI: 0

ITLB AVERAGE MISS LATENCY: 9.0547 cycles
ITLB RQ	ACCESS:    7993550	FORWARD:          0	MERGED:    1690536	TO_CACHE:    6303014

DTLB TOTAL     ACCESS:    8966479  HIT:    8490653  MISS:     475826  HIT %:    94.6933  MISS %:    5.30672   MPKI: 9.51652
DTLB LOAD TRANSLATION DATA	ACCESS:    8966479  HIT:    8490653  MISS:     475826  HIT %:    94.6933  MISS %:    5.30672  MPKI: 9.51652

DTLB AVERAGE MISS LATENCY: 9.3106 cycles
DTLB RQ	ACCESS:   13344350	FORWARD:          0	MERGED:    4341655	TO_CACHE:    9002695

STLB TOTAL     ACCESS:    1218423  HIT:    1216439  MISS:       1984  HIT %:    99.8372  MISS %:   0.162833   MPKI: 0.03968
STLB LOAD TRANSLATION INSTRUCTION	ACCESS:     493534  HIT:     493288  MISS:        246  HIT %:    99.9502  MISS %:  0.0498446  MPKI: 0.00492
STLB LOAD TRANSLATION DATA	ACCESS:     475826  HIT:     474109  MISS:       1717  HIT %:    99.6392  MISS %:   0.360846  MPKI: 0.03434
STLB TRANSLATION FROM L1D PREFETCHER DATA	ACCESS:     249063  HIT:     249042  MISS:         21  HIT %:    99.9916  MISS %:  0.0084316  MPKI: 0.00042

STLB AVERAGE MISS LATENCY: 72.3624 cycles
STLB RQ	ACCESS:    1338866	FORWARD:          0	MERGED:     120398	TO_CACHE:    1218468

STLB Hit, L1D data hit: 0
STLB Hit, L2C data hit: 0
STLB Hit, LLC data hit: 0
STLB Hit, LLC data miss: 0
STLB STLB hints to L2: 0
L1D TOTAL     ACCESS:   13097509  HIT:   11982908  MISS:    1114601  HIT %:      91.49  MISS %:    8.51002   MPKI: 22.292
L1D LOAD DATA	ACCESS:    6562847  HIT:    5826474  MISS:     736373  HIT %:    88.7797  MISS %:    11.2203  MPKI: 14.7275
L1D RFO DATA	ACCESS:    6206526  HIT:    5921729  MISS:     284797  HIT %:    95.4113  MISS %:    4.58867  MPKI: 5.69594
L1D PREFETCH DATA	ACCESS:     328136  HIT:     234705  MISS:      93431  HIT %:    71.5267  MISS %:    28.4733  MPKI: 1.86862

L1D PREFETCH  REQUESTED:     739425  ISSUED:     739425  USEFUL:      33110  USELESS:      68903
L1D USEFUL LOAD PREFETCHES:      33110 PREFETCH ISSUED TO LOWER LEVEL:     102081  ACCURACY: 32.435
 TIMELY PREFETCHES:      33110 LATE PREFETCHES: 8613 DROPPED PREFETCHES: 6
L1D AVERAGE MISS LATENCY: 251504 cycles
L1D RQ	ACCESS:   10694380	FORWARD:          0	MERGED:    3933516	TO_CACHE:    6596596
L1D WQ	ACCESS:    6943836	FORWARD:     164683	MERGED:     196082	TO_CACHE:    6747754
L1D PQ	ACCESS:     369920	FORWARD:          0	MERGED:          0	TO_CACHE:     369505

L1D UNIQUE REGIONS ACCESSED: 0
L1D REGIONS CONFLICTS: 0
L1D Cross Page Prefetch Requests: 6938
L1D Same Page Prefetch Requests: 747892
L1D ROI Sum of L1D PQ occupancy: 4693913
L1D PREFETCHES PUSHED FROM L2C: 0
L1I TOTAL     ACCESS:    7176094  HIT:    4413295  MISS:    2762799  HIT %:       61.5  MISS %:       38.5   MPKI: 55.256
L1I LOAD INSTRUCTION	ACCESS:    6506028  HIT:    3743229  MISS:    2762799  HIT %:    57.5348  MISS %:    42.4652  MPKI: 55.256
L1I PREFETCH INSTRUCTION	ACCESS:     670066  HIT:     670066  MISS:          0  HIT %:        100  MISS %:          0  MPKI: 0

L1I PREFETCH  REQUESTED:    1591848  ISSUED:    1591848  USEFUL:          0  USELESS:          0
L1I USEFUL LOAD PREFETCHES:          0 PREFETCH ISSUED TO LOWER LEVEL:          0  ACCURACY: -nan
 TIMELY PREFETCHES:          0 LATE PREFETCHES: 0 DROPPED PREFETCHES: 0
L1I AVERAGE MISS LATENCY: 17.2639 cycles
L1I RQ	ACCESS:    9504191	FORWARD:          0	MERGED:    2675372	TO_CACHE:    6828819
L1I PQ	ACCESS:    1591848	FORWARD:          0	MERGED:     427117	TO_CACHE:    1164731

L1BTB TOTAL     ACCESS:    5671898  HIT:    2043710  MISS:    3628188  HIT %:    36.0322  MISS %:    63.9678   MPKI: 72.5638
L1BTB BRANCH_DIRECT_JUMP	ACCESS:     548746  HIT:     144630  MISS:     404116	AVERAGE STALL: 44.488
L1BTB BRANCH_INDIRECT	ACCESS:     183366  HIT:      66349  MISS:     117017	AVERAGE STALL: 105.131
L1BTB BRANCH_CONDITIONAL	ACCESS:    2710565  HIT:    1417656  MISS:    1292909	AVERAGE STALL: 60.5679
L1BTB BRANCH_DIRECT_CALL	ACCESS:     943397  HIT:     104639  MISS:     838758	AVERAGE STALL: 49.971
L1BTB BRANCH_INDIRECT_CALL	ACCESS:     171214  HIT:      20841  MISS:     150373	AVERAGE STALL: 130.516
L1BTB BRANCH_RETURN	ACCESS:    1114610  HIT:     289595  MISS:     825015	AVERAGE STALL: 50.1036
L1BTB BRANCH_OTHER ACCESS:          0  HIT:          0  MISS:          0	AVERAGE STALL: -nan
L1BTB TOTAL ROB OCCUPANCY AT BTB MISS: 2.99996

L2BTB TOTAL     ACCESS:    3602743  HIT:    3530153  MISS:      72590  HIT %:    97.9851  MISS %:    2.01485   MPKI: 1.4518
L2BTB BRANCH_DIRECT_JUMP	ACCESS:     399922  HIT:     396510  MISS:       3412	AVERAGE STALL: 44.488
L2BTB BRANCH_INDIRECT	ACCESS:     106729  HIT:     104071  MISS:       2658	AVERAGE STALL: 105.131
L2BTB BRANCH_CONDITIONAL	ACCESS:    1292909  HIT:    1282475  MISS:      10434	AVERAGE STALL: 60.5679
L2BTB BRANCH_DIRECT_CALL	ACCESS:     838758  HIT:     837854  MISS:        904	AVERAGE STALL: 49.971
L2BTB BRANCH_INDIRECT_CALL	ACCESS:     140807  HIT:     130723  MISS:      10084	AVERAGE STALL: 130.516
L2BTB BRANCH_RETURN	ACCESS:     823618  HIT:     778520  MISS:      45098	AVERAGE STALL: 50.1036
L2BTB BRANCH_OTHER ACCESS:          0  HIT:          0  MISS:          0	AVERAGE STALL: -nan
L2BTB TOTAL ROB OCCUPANCY AT BTB MISS: 149.944

L2C TOTAL     ACCESS:    4488439  HIT:    3989751  MISS:     498688  HIT %:    88.8895  MISS %:    11.1105   MPKI: 9.97376
L2C LOAD INSTRUCTION	ACCESS:    2762799  HIT:    2497182  MISS:     265617  HIT %:    90.3859  MISS %:    9.61405  MPKI: 5.31234
L2C LOAD TRANSLATION INSTRUCTION	ACCESS:        276  HIT:         87  MISS:        189  HIT %:    31.5217  MISS %:    68.4783  MPKI: 0.00378
L2C LOAD DATA	ACCESS:     727744  HIT:     645468  MISS:      82276  HIT %:    88.6944  MISS %:    11.3056  MPKI: 1.64552
L2C RFO DATA	ACCESS:     284730  HIT:     229889  MISS:      54841  HIT %:    80.7393  MISS %:    19.2607  MPKI: 1.09682
L2C PREFETCH DATA	ACCESS:     190360  HIT:     113690  MISS:      76670  HIT %:    59.7237  MISS %:    40.2763  MPKI: 1.5334
L2C WRITEBACK DATA	ACCESS:     520703  HIT:     502943  MISS:      17760  HIT %:    96.5892  MISS %:    3.41077  MPKI: 0.3552
L2C LOAD TRANSLATION DATA	ACCESS:       1785  HIT:        461  MISS:       1324  HIT %:    25.8263  MISS %:    74.1737  MPKI: 0.02648
L2C TRANSLATION FROM L1D PREFETCHER DATA	ACCESS:         42  HIT:         31  MISS:         11  HIT %:    73.8095  MISS %:    26.1905  MPKI: 0.00022

L2C PREFETCH  REQUESTED:      96190  ISSUED:      96190  USEFUL:       7854  USELESS:      69409
L2C USEFUL LOAD PREFETCHES:       7854 PREFETCH ISSUED TO LOWER LEVEL:      77237  ACCURACY: 10.1687
 TIMELY PREFETCHES:       7854 LATE PREFETCHES: 567 DROPPED PREFETCHES: 0
L2C AVERAGE MISS LATENCY: 37.6788 cycles
L2C RQ	ACCESS:    3777422	FORWARD:          0	MERGED:          0	TO_CACHE:    3777376
L2C WQ	ACCESS:     520703	FORWARD:         46	MERGED:          0	TO_CACHE:     520703
L2C PQ	ACCESS:     198271	FORWARD:          0	MERGED:       3632	TO_CACHE:     194639

L2C Dense regions hint from L2: 0
PSCL5 TOTAL     ACCESS:       3992  HIT:       1996  MISS:       1996  HIT %:         50  MISS %:         50   MPKI: 0.03992
PSCL5 LOAD TRANSLATION INSTRUCTION	ACCESS:       3908  HIT:       1954  MISS:       1954  HIT %:         50  MISS %:         50  MPKI: 0.03908
PSCL5 TRANSLATION FROM L1D PREFETCHER INSTRUCTION	ACCESS:         84  HIT:         42  MISS:         42  HIT %:         50  MISS %:         50  MPKI: 0.00084


PSCL4 TOTAL     ACCESS:       3777  HIT:       1884  MISS:       1893  HIT %:    49.8809  MISS %:    50.1191   MPKI: 0.03786
PSCL4 LOAD TRANSLATION INSTRUCTION	ACCESS:       2322  HIT:       1842  MISS:        480  HIT %:    79.3282  MISS %:    20.6718  MPKI: 0.0096
PSCL4 TRANSLATION FROM L1D PREFETCHER INSTRUCTION	ACCESS:         55  HIT:         42  MISS:         13  HIT %:    76.3636  MISS %:    23.6364  MPKI: 0.00026
PSCL4 LOAD TRANSLATION DATA	ACCESS:       1371  HIT:          0  MISS:       1371  HIT %:          0  MISS %:        100  MPKI: 0.02742
PSCL4 TRANSLATION FROM L1D PREFETCHER DATA	ACCESS:         29  HIT:          0  MISS:         29  HIT %:          0  MISS %:        100  MPKI: 0.00058


PSCL3 TOTAL     ACCESS:       3855  HIT:       1923  MISS:       1932  HIT %:    49.8833  MISS %:    50.1167   MPKI: 0.03864
PSCL3 LOAD TRANSLATION INSTRUCTION	ACCESS:       2361  HIT:       1881  MISS:        480  HIT %:    79.6696  MISS %:    20.3304  MPKI: 0.0096
PSCL3 TRANSLATION FROM L1D PREFETCHER INSTRUCTION	ACCESS:         55  HIT:         42  MISS:         13  HIT %:    76.3636  MISS %:    23.6364  MPKI: 0.00026
PSCL3 LOAD TRANSLATION DATA	ACCESS:       1410  HIT:          0  MISS:       1410  HIT %:          0  MISS %:        100  MPKI: 0.0282
PSCL3 TRANSLATION FROM L1D PREFETCHER DATA	ACCESS:         29  HIT:          0  MISS:         29  HIT %:          0  MISS %:        100  MPKI: 0.00058


PSCL2 TOTAL     ACCESS:       3903  HIT:       1907  MISS:       1996  HIT %:    48.8599  MISS %:    51.1401   MPKI: 0.03992
PSCL2 LOAD TRANSLATION INSTRUCTION	ACCESS:       2110  HIT:       1865  MISS:        245  HIT %:    88.3886  MISS %:    11.6114  MPKI: 0.0049
PSCL2 TRANSLATION FROM L1D PREFETCHER INSTRUCTION	ACCESS:         42  HIT:         42  MISS:          0  HIT %:        100  MISS %:          0  MPKI: 0
PSCL2 LOAD TRANSLATION DATA	ACCESS:       1709  HIT:          0  MISS:       1709  HIT %:          0  MISS %:        100  MPKI: 0.03418
PSCL2 TRANSLATION FROM L1D PREFETCHER DATA	ACCESS:         42  HIT:          0  MISS:         42  HIT %:          0  MISS %:        100  MPKI: 0.00084


LLC TOTAL     ACCESS:     560382  HIT:     533076  MISS:      27306  HIT %:    95.1273  MISS %:    4.87275   MPKI: 0.54612
LLC LOAD INSTRUCTION	ACCESS:     265617  HIT:     264781  MISS:        836  HIT %:    99.6853  MISS %:   0.314739  MPKI: 0.01672
LLC LOAD TRANSLATION INSTRUCTION	ACCESS:        189  HIT:        161  MISS:         28  HIT %:    85.1852  MISS %:    14.8148  MPKI: 0.00056
LLC LOAD DATA	ACCESS:      81763  HIT:      78492  MISS:       3271  HIT %:    95.9994  MISS %:    4.00059  MPKI: 0.06542
LLC RFO DATA	ACCESS:      54778  HIT:      41477  MISS:      13301  HIT %:    75.7184  MISS %:    24.2816  MPKI: 0.26602
LLC PREFETCH DATA	ACCESS:      77237  HIT:      67761  MISS:       9476  HIT %:    87.7313  MISS %:    12.2687  MPKI: 0.18952
LLC WRITEBACK DATA	ACCESS:      79463  HIT:      79140  MISS:        323  HIT %:    99.5935  MISS %:   0.406478  MPKI: 0.00646
LLC LOAD TRANSLATION DATA	ACCESS:       1324  HIT:       1253  MISS:         71  HIT %:    94.6375  MISS %:    5.36254  MPKI: 0.00142
LLC TRANSLATION FROM L1D PREFETCHER DATA	ACCESS:         11  HIT:         11  MISS:          0  HIT %:        100  MISS %:          0  MPKI: 0

LLC AVERAGE MISS LATENCY: 158.401 cycles
LLC RQ	ACCESS:     403691	FORWARD:          0	MERGED:          0	TO_CACHE:     403682
LLC WQ	ACCESS:      79463	FORWARD:          9	MERGED:          0	TO_CACHE:      79463
LLC PQ	ACCESS:      77237	FORWARD:          0	MERGED:          0	TO_CACHE:      77237

LLC Dense regions hint to LLC: 0

RAW hits: 1938424
Loads Generated: 12632804
Loads sent to L1D: 10694380
Stores Generated: 6943833
Stores sent to L1D: 6943836
Major fault: 0 Minor fault: 2545
Allocated PAGES: 2545

stream: 
stream:times selected: 1187048
stream:pref_filled: 121969
stream:pref_useful: 23599
stream:pref_late: 7188
stream:misses: 8046
stream:misses_by_poll: 0

CS: 
CS:times selected: 179464
CS:pref_filled: 59610
CS:pref_useful: 36380
CS:pref_late: 7517
CS:misses: 16174
CS:misses_by_poll: 3

CPLX: 
CPLX:times selected: 1006432
CPLX:pref_filled: 19234
CPLX:pref_useful: 4464
CPLX:pref_late: 3182
CPLX:misses: 94223
CPLX:misses_by_poll: 1

NL_L1: 
NL:times selected: 20721
NL:pref_filled: 719
NL:pref_useful: 330
NL:pref_late: 321
NL:misses: 1763
NL:misses_by_poll: 1

total selections: 2393665
total_filled: 93431
total_useful: 33110
total_late: 19550
total_polluted: 5
total_misses_after_warmup: 770121
conflicts: 5525310

test: 116958

DRAM Statistics
 CHANNEL 0
 RQ ROW_BUFFER_HIT:       9905  ROW_BUFFER_MISS:      17073
 DBUS_CONGESTED:         12
 WQ ROW_BUFFER_HIT:       1404  ROW_BUFFER_MISS:      11892  FULL:          0

 AVG_CONGESTED_CYCLE: 6

CPU 0 Branch Prediction Accuracy: 99.8223% MPKI: 0.32502 Average ROB Occupancy at Mispredict: 187.648
Branch types
NOT_BRANCH: 40852788 81.7056%
BRANCH_DIRECT_JUMP: 548746 1.09749%
BRANCH_INDIRECT: 183366 0.366732%
BRANCH_CONDITIONAL: 6185528 12.3711%
BRANCH_DIRECT_CALL: 943397 1.88679%
BRANCH_INDIRECT_CALL: 171214 0.342428%
BRANCH_RETURN: 1114610 2.22922%
BRANCH_OTHER: 0 0%

DRAM PAGES: 1048576
Allocated PAGES: 2545
Average_ROB_Occupancy: 234.095
Average_Decode_Occupancy: 33.1307
Average_FTQ_Occupancy: 12.7438
Indirect max targets: 14 Average targets: 1.14527
Branch_type:  BRANCH_DIRECT_JUMP:  Count Percentage: 2.51394 6.83069 4.03621 9.36069 1.69652 6.29142 0.26767 69.0029 
Branch_type:  BRANCH_INDIRECT:  Count Percentage: 14.4773 0.804522 2.54797 0 1.33613 9.66983 2.27151 68.8927 
Branch_type:  BRANCH_CONDITIONAL:  Count Percentage: 21.2518 2.5784 1.75294 5.52861 1.27799 9.44615 3.57491 54.5892 
Branch_type:  BRANCH_DIRECT_CALL:  Count Percentage: 0.769916 1.30846 1.28201 4.55414 2.1969 2.54685 0.56934 86.7724 
Branch_type:  BRANCH_INDIRECT_CALL:  Count Percentage: 9.55435 0 2.99454 8.70743 0 2.3401 1.28496 75.1186 
Branch_type:  BRANCH_RETURN:  Count Percentage: 4.90625 0.785381 1.16408 6.19803 2.06156 9.40986 4.27704 71.1978 
Branch_type:  BRANCH_DIRECT_JUMP:  Total Count: 27556 74873 44242 102605 18596 68962 2934 756359 
Branch_type:  BRANCH_INDIRECT:  Total Count: 52995 2945 9327 0 4891 35397 8315 252186 
Branch_type:  BRANCH_CONDITIONAL:  Total Count: 2626633 318679 216656 683313 157954 1167505 441844 6746996 
Branch_type:  BRANCH_DIRECT_CALL:  Total Count: 14525 24685 24186 85917 41446 48048 10741 1637021 
Branch_type:  BRANCH_INDIRECT_CALL:  Total Count: 32761 0 10268 29857 0 8024 4406 257575 
Branch_type:  BRANCH_RETURN:  Total Count: 109422 17516 25962 138232 45978 209864 95389 1587893 
Number of unique branch instructions: 9824
Upper 32 bits: 
aaaa
ffff
ffff0000
Unique upper 32 bits: 3
Unique upper 36 bits: 3
Unique upper 40 bits: 5
Unique upper 44 bits: 32
Unique upper 48 bits: 154
Variant_0 : 1407 0.343506
Variant_1 : 1164 0.28418
Variant_2 : 1049 0.256104
Variant_3 : 0 0
Offset_3 4037
Offset_4 247
Offset_5 449
Offset_6 502
Offset_7 576
Offset_8 508
Offset_9 465
Offset_10 376
Offset_11 303
Offset_12 269
Offset_13 203
Offset_14 227
Offset_15 185
Offset_16 222
Offset_17 146
Offset_18 118
Offset_19 236
Offset_20 136
Offset_21 235
Offset_22 392
Offset_23 241
Offset_24 332
Offset_25 88
Offset_47 82
decode_dispatch_called: 25156191 69.4789
Dispatch_width: 0 13548087 53.8559 37.4185
Dispatch_width: 1 919158 3.6538 2.53862
Dispatch_width: 2 776542 3.08688 2.14473
Dispatch_width: 3 485828 1.93125 1.34181
Dispatch_width: 4 5166821 20.539 14.2703
Dispatch_width: 5 155773 0.619223 0.43023
Dispatch_width: 6 4103982 16.314 11.3348
Empty_decode_cycles: 11050748 30.5211
ROB_full_cycles: 8246482 22.776
Starvation_cycles_per_kilo_instr: 238.565
Starvation_cycles_per_kilo_instr_3: 185.339
Starvation_cycles_per_kilo_instr_0: 163.524
Branch_type_1  (3,1)  (4,9)  (5,37)  (6,70)  (7,114)  (8,127)  (9,122)  (10,97)  (11,67)  (12,43)  (13,5)  (14,2)  (15,3)  (16,4)  (18,1)  (19,4)  (20,2)  (21,1)  (22,3)  (23,2)  (24,10)  (25,12) 
Branch_type_2  (3,1)  (5,1)  (8,3)  (9,3)  (12,1)  (13,1)  (14,1)  (16,3)  (17,2)  (20,2)  (21,2)  (23,5)  (24,1)  (47,38) 
Branch_type_3  (3,4035)  (4,238)  (5,407)  (6,417)  (7,433)  (8,319)  (9,257)  (10,153)  (11,120)  (12,50)  (13,4) 
Branch_type_4  (6,3)  (7,8)  (8,25)  (9,51)  (10,60)  (11,59)  (12,96)  (13,88)  (14,100)  (15,87)  (16,99)  (17,65)  (18,53)  (19,115)  (20,71)  (21,124)  (22,208)  (23,136)  (24,193)  (25,72) 
Branch_type_5  (8,2)  (9,1)  (10,3)  (11,5)  (12,3)  (13,14)  (14,16)  (15,11)  (16,20)  (17,11)  (18,16)  (19,12)  (20,10)  (21,13)  (22,42)  (23,26)  (24,37) 
Branch_type_6  (5,4)  (6,12)  (7,21)  (8,32)  (9,31)  (10,63)  (11,52)  (12,76)  (13,91)  (14,108)  (15,84)  (16,96)  (17,68)  (18,48)  (19,105)  (20,51)  (21,95)  (22,139)  (23,72)  (24,91)  (25,4)  (47,44) 
Unique trigger count: 
Variant_0_evicts_0 : 0
Variant_0_evicts_1 : 0
Variant_0_evicts_2 : 0
Variant_0_evicts_3 : 0
Variant_1_evicts_0 : 0
Variant_1_evicts_1 : 0
Variant_1_evicts_2 : 0
Variant_1_evicts_3 : 0
Variant_2_evicts_0 : 0
Variant_2_evicts_1 : 0
Variant_2_evicts_2 : 0
Variant_2_evicts_3 : 0
Variant_3_evicts_0 : 0
Variant_3_evicts_1 : 0
Variant_3_evicts_2 : 0
Variant_3_evicts_3 : 0
BTB PER SET UNIQUE ADDR: 17 13 10 10 9 14 10 13 12 11 16 16 14 11 9 13 17 15 13 12 10 13 10 12 8 12 13 11 12 10 15 15 9 13 10 13 13 13 17 13 12 19 9 9 14 10 10 12 17 10 19 13 11 16 16 18 11 11 8 14 10 19 15 15 12 14 13 9 10 13 10 12 14 17 12 10 12 12 11 10 14 15 16 9 7 14 12 15 14 10 12 13 12 9 13 14 13 9 15 11 18 16 12 9 12 11 15 12 14 8 10 13 12 9 12 13 11 11 12 12 15 10 8 15 16 17 15 11 12 16 10 14 16 14 17 14 15 15 12 16 10 10 13 17 12 15 12 12 14 18 10 13 10 14 11 16 9 9 9 15 15 12 13 14 9 11 13 15 23 15 15 14 15 14 13 13 15 13 8 13 17 15 12 14 14 10 10 8 11 13 16 11 13 15 9 9 13 15 16 9 10 14 11 15 13 9 11 7 13 15 13 11 16 15 10 8 14 11 11 12 12 10 14 10 18 15 18 13 12 11 11 12 18 14 9 17 11 13 15 13 15 13 12 15 11 10 13 8 12 10 12 16 11 12 11 11 10 12 12 11 15 10 16 12 14 16 13 15 16 12 11 15 12 14 14 9 16 13 9 11 8 15 17 11 17 15 11 21 13 12 12 13 11 14 9 12 10 13 11 14 11 13 12 13 10 11 16 16 13 14 10 15 12 11 7 18 13 13 12 12 16 13 14 11 12 16 10 12 13 11 12 17 13 13 12 10 8 15 14 10 9 12 10 14 13 9 13 11 14 15 7 13 14 11 7 16 7 13 9 10 12 7 10 11 14 15 17 13 7 15 10 10 10 16 10 11 10 9 10 13 10 9 15 15 13 17 9 11 8 11 6 14 16 16 9 12 13 16 11 17 10 13 14 17 18 15 10 12 13 12 9 12 17 15 15 12 10 10 12 7 11 11 15 11 11 9 12 13 16 11 12 12 14 8 15 15 12 17 8 9 13 18 11 11 9 10 8 13 16 11 12 13 17 14 9 13 7 11 12 12 14 9 13 12 12 10 10 15 15 7 14 12 16 16 12 10 10 10 11 11 16 16 17 13 11 15 11 13 10 13 21 12 16 13 14 13 13 14 11 8 15 16 8 15 14 14 14 14 11 15 15 11 
BTB PER SET COUNT: 986 29 10 13 10 15 12 14 13 11 18 19 996 994 9 14 19 1482 14 571 10 13 14 13 9 12 13 992 13 991 2454 1870 9 990 11 348 14 13 17 14 12 20 992 9 556 11 10 13 17 761 19 60 694 1161 452 20 11 12 1970 14 10 21 15 2457 12 506 14 996 10 13 12 14 17 1609 12 995 30 12 13 10 20 1490 22 994 8 23 12 3442 2948 10 12 1960 12 11 13 14 13 9 17 162 22 510 12 97 152 11 19 12 14 8 1481 754 12 984 14 13 11 11 502 13 20 10 9 998 16 17 240 14 347 16 13 15 58 14 503 1961 878 1130 12 1401 10 10 13 3931 13 7854 13 12 17 18 10 13 10 14 11 16 11 9 9 998 991 18 16 14 9 12 1022 15 26 499 20 35 1963 14 13 864 15 996 8 13 17 17 12 15 18 10 10 8 13 14 16 11 503 16 9 9 13 16 17 9 10 1971 13 750 498 243 503 7 1977 449 13 11 17 15 10 8 15 4420 11 12 12 10 14 989 18 184 20 23 987 12 12 12 22 14 10 49 12 14 3923 991 15 27 12 16 15 1476 13 8 12 1479 12 20 13 12 12 11 987 12 12 11 1482 10 5649 12 1481 16 79 18 1000 12 11 17 987 17 15 10 332 16 9 11 9 282 17 12 17 15 13 1882 78 15 1962 209 11 1864 9 15 1975 1551 12 276 12 14 39 636 10 12 17 16 15 14 13 2951 1478 498 11 2470 992 1230 14 12 219 19 386 20548 14 100 10 12 13 33 12 678 15 17 12 12 9 16 2457 10 9 756 993 14 15 9 13 15 1489 20 7 13 15 11 7 16 7 13 10 500 12 8 11 994 14 1483 23 991 26 2398 3428 10 33 16 12 11 2452 9 11 15 10 9 15 17 1482 18 9 11 8 13 6 14 17 16 9 1967 14 999 12 19 10 213 172 128 2384 152 12 995 23 13 9 15 21 15 398 12 10 11 1483 7 12 12 1975 14686 11 9 15 251 19 11 12 18 14 403 17 23 13 17 991 11 13 23 12 21 10 10 8 990 998 14 14 13 267 14 9 13 7 11 12 988 447 11 13 12 12 10 10 17 15 990 14 13 25 16 12 14 15 11 11 11 993 1367 1485 13 13 297 11 13 11 17 22 13 16 14 750 14 13 15 13 8 16 16 8 15 14 231 17 14 11 2875 15 12 
To predecode: 0
Predecoding something: 0
Predecode request dropped: 0
sizeofblock_0 0
sizeofblock_1 18299
sizeofblock_2 30896
sizeofblock_3 54318
sizeofblock_4 47184
sizeofblock_5 0
sizeofblock_6 0
sizeofblock_7 0
sizeofblock_8 0
Variant_0 Correct: 1615640 Incorrect: 0 Accuracy: 1
Variant_1 Correct: 2092002 Incorrect: 0 Accuracy: 1
Variant_2 Correct: 3629653 Incorrect: 1950 Accuracy: 0.999463
Variant_3 Correct: 0 Incorrect: 0 Accuracy: -nan
