
*** ChampSim Multicore Out-of-Order Simulator ***

Warmup Instructions: 50000000
Simulation Instructions: 50000000
Number of CPUs: 1
LLC sets: 2048
LLC ways: 16
Off-chip DRAM Size: 4096 MB Channels: 1 Width: 64-bit Data Rate: 6400 MT/s
CPU 0 runs ./micro_traces/srv416.trace.gz
.gz
ITLB has LRU replacement policy
DTLB has LRU replacement policy
STLB has LRU replacement policy
FDIP Prefetcher at L1I
L1I has LRU replacement policy
L1D has LRU replacement policy
Initialize SRRIP state for L2C
Initialize DRRIP state for LLC
Heartbeat_Variant_0 : 1341 0.327393 per_variant_size: 0 1341 0 0 0 0 0 0 0 
Heartbeat_Variant_1 : 2353 0.574463 per_variant_size: 0 194 2159 0 0 0 0 0 0 
Heartbeat_Variant_2 : 0 0 per_variant_size: 0 0 0 0 0 0 0 0 0 
Heartbeat_Variant_3 : 0 0 per_variant_size: 0 0 0 0 0 0 0 0 0 
Heartbeat_Variant_0_evicts 0 : 5505 1 : 1 2 : 0 3 : 0 
Heartbeat_Variant_1_evicts 0 : 2 1 : 0 2 : 0 3 : 0 
Heartbeat_Variant_2_evicts 0 : 0 1 : 0 2 : 0 3 : 0 
Heartbeat_Variant_3_evicts 0 : 0 1 : 0 2 : 0 3 : 0 
Heartbeat CPU 0 instructions: 10000000 cycles: 2796889 heartbeat IPC: 3.5754 cumulative IPC: 3.5754 (Simulation time: 0 hr 1 min 49 sec) 
Heartbeat_Variant_0 : 1379 0.33667 per_variant_size: 0 1379 0 0 0 0 0 0 0 
Heartbeat_Variant_1 : 2436 0.594727 per_variant_size: 0 170 2266 0 0 0 0 0 0 
Heartbeat_Variant_2 : 0 0 per_variant_size: 0 0 0 0 0 0 0 0 0 
Heartbeat_Variant_3 : 0 0 per_variant_size: 0 0 0 0 0 0 0 0 0 
Heartbeat_Variant_0_evicts 0 : 5508 1 : 5 2 : 0 3 : 0 
Heartbeat_Variant_1_evicts 0 : 1 1 : 0 2 : 0 3 : 0 
Heartbeat_Variant_2_evicts 0 : 0 1 : 0 2 : 0 3 : 0 
Heartbeat_Variant_3_evicts 0 : 0 1 : 0 2 : 0 3 : 0 
Heartbeat CPU 0 instructions: 20000001 cycles: 5592219 heartbeat IPC: 3.5774 cumulative IPC: 3.5764 (Simulation time: 0 hr 3 min 30 sec) 
Heartbeat_Variant_0 : 1392 0.339844 per_variant_size: 0 1392 0 0 0 0 0 0 0 
Heartbeat_Variant_1 : 2466 0.602051 per_variant_size: 0 164 2302 0 0 0 0 0 0 
Heartbeat_Variant_2 : 0 0 per_variant_size: 0 0 0 0 0 0 0 0 0 
Heartbeat_Variant_3 : 0 0 per_variant_size: 0 0 0 0 0 0 0 0 0 
Heartbeat_Variant_0_evicts 0 : 5634 1 : 6 2 : 0 3 : 0 
Heartbeat_Variant_1_evicts 0 : 1 1 : 0 2 : 0 3 : 0 
Heartbeat_Variant_2_evicts 0 : 0 1 : 0 2 : 0 3 : 0 
Heartbeat_Variant_3_evicts 0 : 0 1 : 0 2 : 0 3 : 0 
Heartbeat CPU 0 instructions: 30000002 cycles: 8389025 heartbeat IPC: 3.57551 cumulative IPC: 3.5761 (Simulation time: 0 hr 5 min 10 sec) 
Heartbeat_Variant_0 : 1392 0.339844 per_variant_size: 0 1392 0 0 0 0 0 0 0 
Heartbeat_Variant_1 : 2468 0.602539 per_variant_size: 0 165 2303 0 0 0 0 0 0 
Heartbeat_Variant_2 : 0 0 per_variant_size: 0 0 0 0 0 0 0 0 0 
Heartbeat_Variant_3 : 0 0 per_variant_size: 0 0 0 0 0 0 0 0 0 
Heartbeat_Variant_0_evicts 0 : 5598 1 : 1 2 : 0 3 : 0 
Heartbeat_Variant_1_evicts 0 : 1 1 : 0 2 : 0 3 : 0 
Heartbeat_Variant_2_evicts 0 : 0 1 : 0 2 : 0 3 : 0 
Heartbeat_Variant_3_evicts 0 : 0 1 : 0 2 : 0 3 : 0 
Heartbeat CPU 0 instructions: 40000000 cycles: 11184221 heartbeat IPC: 3.57757 cumulative IPC: 3.57647 (Simulation time: 0 hr 6 min 52 sec) 
Heartbeat_Variant_0 : 1393 0.340088 per_variant_size: 0 1393 0 0 0 0 0 0 0 
Heartbeat_Variant_1 : 2474 0.604004 per_variant_size: 0 158 2316 0 0 0 0 0 0 
Heartbeat_Variant_2 : 0 0 per_variant_size: 0 0 0 0 0 0 0 0 0 
Heartbeat_Variant_3 : 0 0 per_variant_size: 0 0 0 0 0 0 0 0 0 
Heartbeat_Variant_0_evicts 0 : 5515 1 : 0 2 : 0 3 : 0 
Heartbeat_Variant_1_evicts 0 : 0 1 : 0 2 : 0 3 : 0 
Heartbeat_Variant_2_evicts 0 : 0 1 : 0 2 : 0 3 : 0 
Heartbeat_Variant_3_evicts 0 : 0 1 : 0 2 : 0 3 : 0 
Heartbeat CPU 0 instructions: 50000000 cycles: 13980218 heartbeat IPC: 3.57654 cumulative IPC: 3.57648 (Simulation time: 0 hr 8 min 34 sec) 

Warmup complete CPU 0 instructions: 50000004 cycles: 13980219 (Simulation time: 0 hr 8 min 34 sec) 

Cycle: 20000000 FTQ IN: 58302172 FTQ occupancy: 20.5633 DECODE IN: 58302172 DECODE occupancy: 53.399 ROB IN: 58302172 ROB occupancy: 319.028 ROB OUT: 58302119
Heartbeat_Variant_0 : 1393 0.340088 per_variant_size: 0 1393 0 0 0 0 0 0 0 
Heartbeat_Variant_1 : 2484 0.606445 per_variant_size: 0 182 2302 0 0 0 0 0 0 
Heartbeat_Variant_2 : 0 0 per_variant_size: 0 0 0 0 0 0 0 0 0 
Heartbeat_Variant_3 : 0 0 per_variant_size: 0 0 0 0 0 0 0 0 0 
Heartbeat_Variant_0_evicts 0 : 5598 1 : 0 2 : 0 3 : 0 
Heartbeat_Variant_1_evicts 0 : 1 1 : 0 2 : 0 3 : 0 
Heartbeat_Variant_2_evicts 0 : 0 1 : 0 2 : 0 3 : 0 
Heartbeat_Variant_3_evicts 0 : 0 1 : 0 2 : 0 3 : 0 
Heartbeat CPU 0 instructions: 60000000 cycles: 21209561 heartbeat IPC: 1.38325 cumulative IPC: 1.38325 (Simulation time: 0 hr 10 min 33 sec) 
Heartbeat_Variant_0 : 1393 0.340088 per_variant_size: 0 1393 0 0 0 0 0 0 0 
Heartbeat_Variant_1 : 2484 0.606445 per_variant_size: 0 183 2301 0 0 0 0 0 0 
Heartbeat_Variant_2 : 0 0 per_variant_size: 0 0 0 0 0 0 0 0 0 
Heartbeat_Variant_3 : 0 0 per_variant_size: 0 0 0 0 0 0 0 0 0 
Heartbeat_Variant_0_evicts 0 : 5512 1 : 0 2 : 0 3 : 0 
Heartbeat_Variant_1_evicts 0 : 0 1 : 0 2 : 0 3 : 0 
Heartbeat_Variant_2_evicts 0 : 0 1 : 0 2 : 0 3 : 0 
Heartbeat_Variant_3_evicts 0 : 0 1 : 0 2 : 0 3 : 0 
Heartbeat CPU 0 instructions: 70000001 cycles: 28334618 heartbeat IPC: 1.4035 cumulative IPC: 1.3933 (Simulation time: 0 hr 12 min 32 sec) 
Cycle: 30000000 FTQ IN: 14045144 FTQ occupancy: 14.8198 DECODE IN: 14045105 DECODE occupancy: 38.2028 ROB IN: 14045105 ROB occupancy: 251.984 ROB OUT: 14045158
Heartbeat_Variant_0 : 1393 0.340088 per_variant_size: 0 1393 0 0 0 0 0 0 0 
Heartbeat_Variant_1 : 2486 0.606934 per_variant_size: 0 181 2305 0 0 0 0 0 0 
Heartbeat_Variant_2 : 0 0 per_variant_size: 0 0 0 0 0 0 0 0 0 
Heartbeat_Variant_3 : 0 0 per_variant_size: 0 0 0 0 0 0 0 0 0 
Heartbeat_Variant_0_evicts 0 : 5637 1 : 0 2 : 0 3 : 0 
Heartbeat_Variant_1_evicts 0 : 1 1 : 0 2 : 0 3 : 0 
Heartbeat_Variant_2_evicts 0 : 0 1 : 0 2 : 0 3 : 0 
Heartbeat_Variant_3_evicts 0 : 0 1 : 0 2 : 0 3 : 0 
Heartbeat CPU 0 instructions: 80000000 cycles: 35527360 heartbeat IPC: 1.39029 cumulative IPC: 1.3923 (Simulation time: 0 hr 14 min 32 sec) 
Cycle: 40000000 FTQ IN: 13944068 FTQ occupancy: 14.8987 DECODE IN: 13944014 DECODE occupancy: 38.1572 ROB IN: 13943954 ROB occupancy: 251.954 ROB OUT: 13943792
Heartbeat_Variant_0 : 1393 0.340088 per_variant_size: 0 1393 0 0 0 0 0 0 0 
Heartbeat_Variant_1 : 2486 0.606934 per_variant_size: 0 174 2312 0 0 0 0 0 0 
Heartbeat_Variant_2 : 0 0 per_variant_size: 0 0 0 0 0 0 0 0 0 
Heartbeat_Variant_3 : 0 0 per_variant_size: 0 0 0 0 0 0 0 0 0 
Heartbeat_Variant_0_evicts 0 : 5630 1 : 0 2 : 0 3 : 0 
Heartbeat_Variant_1_evicts 0 : 0 1 : 0 2 : 0 3 : 0 
Heartbeat_Variant_2_evicts 0 : 0 1 : 0 2 : 0 3 : 0 
Heartbeat_Variant_3_evicts 0 : 0 1 : 0 2 : 0 3 : 0 
Heartbeat CPU 0 instructions: 90000001 cycles: 42631530 heartbeat IPC: 1.40762 cumulative IPC: 1.3961 (Simulation time: 0 hr 16 min 31 sec) 
Heartbeat_Variant_0 : 1394 0.340332 per_variant_size: 0 1394 0 0 0 0 0 0 0 
Heartbeat_Variant_1 : 2505 0.611572 per_variant_size: 0 170 2335 0 0 0 0 0 0 
Heartbeat_Variant_2 : 0 0 per_variant_size: 0 0 0 0 0 0 0 0 0 
Heartbeat_Variant_3 : 0 0 per_variant_size: 0 0 0 0 0 0 0 0 0 
Heartbeat_Variant_0_evicts 0 : 5630 1 : 1 2 : 0 3 : 0 
Heartbeat_Variant_1_evicts 0 : 3 1 : 0 2 : 0 3 : 0 
Heartbeat_Variant_2_evicts 0 : 0 1 : 0 2 : 0 3 : 0 
Heartbeat_Variant_3_evicts 0 : 0 1 : 0 2 : 0 3 : 0 
Heartbeat CPU 0 instructions: 100000001 cycles: 49846270 heartbeat IPC: 1.38605 cumulative IPC: 1.39408 (Simulation time: 0 hr 18 min 31 sec) 
Finished CPU 0 instructions: 50000002 cycles: 35866063 cumulative IPC: 1.39408 (Simulation time: 0 hr 18 min 31 sec) 

ChampSim completed all CPUs

Region of Interest Statistics

CPU 0 cumulative IPC: 1.39408 instructions: 50000002 cycles: 35866063
 Fetch stage stalled: 45.7937  Sim cycles: 35866063 fetch stall cycle: 16424393
 Empty decode stage: 25.1596  Sim cycles: 35866063 fetch stall cycle: 9023755
ITLB TOTAL     ACCESS:    5831397  HIT:    5338984  MISS:     492413  HIT %:    91.5558  MISS %:    8.44417   MPKI: 9.84826
ITLB LOAD TRANSLATION INSTRUCTION	ACCESS:    5694631  HIT:    5202218  MISS:     492413  HIT %:     91.353  MISS %:    8.64697  MPKI: 9.84826
ITLB TRANSLATION FROM L1D PREFETCHER INSTRUCTION	ACCESS:     136766  HIT:     136766  MISS:          0  HIT %:        100  MISS %:          0  MPKI: 0

ITLB AVERAGE MISS LATENCY: 9.07108 cycles
ITLB RQ	ACCESS:    7935869	FORWARD:          0	MERGED:    1624073	TO_CACHE:    6311796

DTLB TOTAL     ACCESS:    8956287  HIT:    8485852  MISS:     470435  HIT %:    94.7474  MISS %:    5.25257   MPKI: 9.4087
DTLB LOAD TRANSLATION DATA	ACCESS:    8956287  HIT:    8485852  MISS:     470435  HIT %:    94.7474  MISS %:    5.25257  MPKI: 9.4087

DTLB AVERAGE MISS LATENCY: 9.3505 cycles
DTLB RQ	ACCESS:   13322466	FORWARD:          0	MERGED:    4329637	TO_CACHE:    8992829

STLB TOTAL     ACCESS:    1212222  HIT:    1210028  MISS:       2194  HIT %:     99.819  MISS %:    0.18099   MPKI: 0.04388
STLB LOAD TRANSLATION INSTRUCTION	ACCESS:     492413  HIT:     492120  MISS:        293  HIT %:    99.9405  MISS %:  0.0595029  MPKI: 0.00586
STLB LOAD TRANSLATION DATA	ACCESS:     470434  HIT:     468567  MISS:       1867  HIT %:    99.6031  MISS %:   0.396868  MPKI: 0.03734
STLB TRANSLATION FROM L1D PREFETCHER DATA	ACCESS:     249375  HIT:     249341  MISS:         34  HIT %:    99.9864  MISS %:  0.0136341  MPKI: 0.00068

STLB AVERAGE MISS LATENCY: 76.923 cycles
STLB RQ	ACCESS:    1333610	FORWARD:          0	MERGED:     121348	TO_CACHE:    1212262

STLB Hit, L1D data hit: 0
STLB Hit, L2C data hit: 0
STLB Hit, LLC data hit: 0
STLB Hit, LLC data miss: 0
STLB STLB hints to L2: 0
L1D TOTAL     ACCESS:   13067886  HIT:   11952874  MISS:    1115012  HIT %:    91.4675  MISS %:    8.53246   MPKI: 22.3002
L1D LOAD DATA	ACCESS:    6539562  HIT:    5806312  MISS:     733250  HIT %:    88.7875  MISS %:    11.2125  MPKI: 14.665
L1D RFO DATA	ACCESS:    6198821  HIT:    5912057  MISS:     286764  HIT %:    95.3739  MISS %:    4.62611  MPKI: 5.73528
L1D PREFETCH DATA	ACCESS:     329503  HIT:     234505  MISS:      94998  HIT %:    71.1693  MISS %:    28.8307  MPKI: 1.89996

L1D PREFETCH  REQUESTED:     741914  ISSUED:     741914  USEFUL:      34771  USELESS:      68407
L1D USEFUL LOAD PREFETCHES:      34771 PREFETCH ISSUED TO LOWER LEVEL:     103253  ACCURACY: 33.6755
 TIMELY PREFETCHES:      34771 LATE PREFETCHES: 8181 DROPPED PREFETCHES: 6
L1D AVERAGE MISS LATENCY: 237150 cycles
L1D RQ	ACCESS:   10695412	FORWARD:          0	MERGED:    3953842	TO_CACHE:    6575513
L1D WQ	ACCESS:    6943242	FORWARD:     166447	MERGED:     196289	TO_CACHE:    6746953
L1D PQ	ACCESS:     371152	FORWARD:          0	MERGED:          0	TO_CACHE:     370762

L1D UNIQUE REGIONS ACCESSED: 0
L1D REGIONS CONFLICTS: 0
L1D Cross Page Prefetch Requests: 6939
L1D Same Page Prefetch Requests: 752528
L1D ROI Sum of L1D PQ occupancy: 4710125
L1D PREFETCHES PUSHED FROM L2C: 0
L1I TOTAL     ACCESS:    7112406  HIT:    4358295  MISS:    2754111  HIT %:    61.2774  MISS %:    38.7226   MPKI: 55.0822
L1I LOAD INSTRUCTION	ACCESS:    6441669  HIT:    3687558  MISS:    2754111  HIT %:    57.2454  MISS %:    42.7546  MPKI: 55.0822
L1I PREFETCH INSTRUCTION	ACCESS:     670737  HIT:     670737  MISS:          0  HIT %:        100  MISS %:          0  MPKI: 0

L1I PREFETCH  REQUESTED:    1616473  ISSUED:    1616473  USEFUL:          0  USELESS:          0
L1I USEFUL LOAD PREFETCHES:          0 PREFETCH ISSUED TO LOWER LEVEL:          0  ACCURACY: -nan
 TIMELY PREFETCHES:          0 LATE PREFETCHES: 0 DROPPED PREFETCHES: 0
L1I AVERAGE MISS LATENCY: 17.3106 cycles
L1I RQ	ACCESS:    9571154	FORWARD:          0	MERGED:    2824746	TO_CACHE:    6746408
L1I PQ	ACCESS:    1616473	FORWARD:          0	MERGED:     427012	TO_CACHE:    1189461

L1BTB TOTAL     ACCESS:    5669091  HIT:    2049262  MISS:    3619829  HIT %:     36.148  MISS %:     63.852   MPKI: 72.3966
L1BTB BRANCH_DIRECT_JUMP	ACCESS:     548261 HIT:     145298 MISS:     402963 AVERAGE STALL: 63.6019 AVERAGE FETCH STALL: 12.836 AVERAGE FETCH QUEUE STALL: 25.5099 AVERAGE DECODE STALL: 24.3227 AVERAGE EXECUTE STALL: 2.4436e+15
L1BTB BRANCH_INDIRECT	ACCESS:     182870 HIT:      66074 MISS:     116796 AVERAGE STALL: 117.235 AVERAGE FETCH STALL: 11.0084 AVERAGE FETCH QUEUE STALL: 19.9734 AVERAGE DECODE STALL: 14.4701 AVERAGE EXECUTE STALL: 70.8221
L1BTB BRANCH_CONDITIONAL	ACCESS:    2708682 HIT:    1418796 MISS:    1289886 AVERAGE STALL: 72.1124 AVERAGE FETCH STALL: 24.063 AVERAGE FETCH QUEUE STALL: 18.5693 AVERAGE DECODE STALL: 28.7926 AVERAGE EXECUTE STALL: 4.1231e+15
L1BTB BRANCH_DIRECT_CALL	ACCESS:     942826 HIT:     106416 MISS:     836410 AVERAGE STALL: 61.4599 AVERAGE FETCH STALL: 22.922 AVERAGE FETCH QUEUE STALL: 21.1028 AVERAGE DECODE STALL: 17.0203 AVERAGE EXECUTE STALL: 1.38385e+16
L1BTB BRANCH_INDIRECT_CALL	ACCESS:     171813 HIT:      21723 MISS:     150090 AVERAGE STALL: 142.389 AVERAGE FETCH STALL: 12.3059 AVERAGE FETCH QUEUE STALL: 18.1093 AVERAGE DECODE STALL: 12.2466 AVERAGE EXECUTE STALL: 99.2402
L1BTB BRANCH_RETURN	ACCESS:    1114639 HIT:     290955 MISS:     823684 AVERAGE STALL: 51.066 AVERAGE FETCH STALL: 17.0911 AVERAGE FETCH QUEUE STALL: 4.90085 AVERAGE DECODE STALL: 7.28595 AVERAGE EXECUTE STALL: 4.36733e+14
L1BTB BRANCH_OTHER ACCESS:          0 HIT:          0 MISS:          0 AVERAGE STALL: -nan AVERAGE FETCH STALL: -nan AVERAGE FETCH QUEUE STALL: -nan AVERAGE DECODE STALL: -nan AVERAGE EXECUTE STALL: -nan
L1BTB TOTAL ROB OCCUPANCY AT BTB MISS: 2.63577

L2BTB TOTAL     ACCESS:    3594442  HIT:    3531639  MISS:      62803  HIT %:    98.2528  MISS %:    1.74723   MPKI: 1.25606
L2BTB BRANCH_DIRECT_JUMP	ACCESS:     398774 HIT:     395410 MISS:       3364 AVERAGE STALL: 63.6019 AVERAGE FETCH STALL: 12.836 AVERAGE FETCH QUEUE STALL: 25.5099 AVERAGE DECODE STALL: 24.3227 AVERAGE EXECUTE STALL: 2.4436e+15
L2BTB BRANCH_INDIRECT	ACCESS:     106557 HIT:     103887 MISS:       2670 AVERAGE STALL: 117.235 AVERAGE FETCH STALL: 11.0084 AVERAGE FETCH QUEUE STALL: 19.9734 AVERAGE DECODE STALL: 14.4701 AVERAGE EXECUTE STALL: 70.8221
L2BTB BRANCH_CONDITIONAL	ACCESS:    1289886 HIT:    1285382 MISS:       4504 AVERAGE STALL: 72.1124 AVERAGE FETCH STALL: 24.063 AVERAGE FETCH QUEUE STALL: 18.5693 AVERAGE DECODE STALL: 28.7926 AVERAGE EXECUTE STALL: 4.1231e+15
L2BTB BRANCH_DIRECT_CALL	ACCESS:     836410 HIT:     835072 MISS:       1338 AVERAGE STALL: 61.4599 AVERAGE FETCH STALL: 22.922 AVERAGE FETCH QUEUE STALL: 21.1028 AVERAGE DECODE STALL: 17.0203 AVERAGE EXECUTE STALL: 1.38385e+16
L2BTB BRANCH_INDIRECT_CALL	ACCESS:     140532 HIT:     130454 MISS:      10078 AVERAGE STALL: 142.389 AVERAGE FETCH STALL: 12.3059 AVERAGE FETCH QUEUE STALL: 18.1093 AVERAGE DECODE STALL: 12.2466 AVERAGE EXECUTE STALL: 99.2402
L2BTB BRANCH_RETURN	ACCESS:     822283 HIT:     781434 MISS:      40849 AVERAGE STALL: 51.066 AVERAGE FETCH STALL: 17.0911 AVERAGE FETCH QUEUE STALL: 4.90085 AVERAGE DECODE STALL: 7.28595 AVERAGE EXECUTE STALL: 4.36733e+14
L2BTB BRANCH_OTHER ACCESS:          0 HIT:          0 MISS:          0 AVERAGE STALL: -nan AVERAGE FETCH STALL: -nan AVERAGE FETCH QUEUE STALL: -nan AVERAGE DECODE STALL: -nan AVERAGE EXECUTE STALL: -nan
L2BTB TOTAL ROB OCCUPANCY AT BTB MISS: 151.92

L2C TOTAL     ACCESS:    4477334  HIT:    4000076  MISS:     477258  HIT %:    89.3406  MISS %:    10.6594   MPKI: 9.54516
L2C LOAD INSTRUCTION	ACCESS:    2754111  HIT:    2491339  MISS:     262772  HIT %:    90.4589  MISS %:    9.54108  MPKI: 5.25544
L2C LOAD TRANSLATION INSTRUCTION	ACCESS:        330  HIT:         70  MISS:        260  HIT %:    21.2121  MISS %:    78.7879  MPKI: 0.0052
L2C LOAD DATA	ACCESS:     725050  HIT:     651998  MISS:      73052  HIT %:    89.9246  MISS %:    10.0754  MPKI: 1.46104
L2C RFO DATA	ACCESS:     286671  HIT:     233849  MISS:      52822  HIT %:     81.574  MISS %:     18.426  MPKI: 1.05644
L2C PREFETCH DATA	ACCESS:     188204  HIT:     116488  MISS:      71716  HIT %:    61.8945  MISS %:    38.1055  MPKI: 1.43432
L2C WRITEBACK DATA	ACCESS:     520981  HIT:     505835  MISS:      15146  HIT %:    97.0928  MISS %:    2.90721  MPKI: 0.30292
L2C LOAD TRANSLATION DATA	ACCESS:       1930  HIT:        458  MISS:       1472  HIT %:    23.7306  MISS %:    76.2694  MPKI: 0.02944
L2C TRANSLATION FROM L1D PREFETCHER DATA	ACCESS:         57  HIT:         39  MISS:         18  HIT %:    68.4211  MISS %:    31.5789  MPKI: 0.00036

L2C PREFETCH  REQUESTED:      92612  ISSUED:      92612  USEFUL:       7868  USELESS:      64486
L2C USEFUL LOAD PREFETCHES:       7868 PREFETCH ISSUED TO LOWER LEVEL:      72099  ACCURACY: 10.9128
 TIMELY PREFETCHES:       7868 LATE PREFETCHES: 383 DROPPED PREFETCHES: 0
L2C AVERAGE MISS LATENCY: 39.092 cycles
L2C RQ	ACCESS:    3768187	FORWARD:          0	MERGED:          0	TO_CACHE:    3768149
L2C WQ	ACCESS:     520982	FORWARD:         38	MERGED:          0	TO_CACHE:     520982
L2C PQ	ACCESS:     195865	FORWARD:          0	MERGED:       3085	TO_CACHE:     192780

L2C Dense regions hint from L2: 0
PSCL5 TOTAL     ACCESS:       4408  HIT:       2204  MISS:       2204  HIT %:         50  MISS %:         50   MPKI: 0.04408
PSCL5 LOAD TRANSLATION INSTRUCTION	ACCESS:       4296  HIT:       2148  MISS:       2148  HIT %:         50  MISS %:         50  MPKI: 0.04296
PSCL5 TRANSLATION FROM L1D PREFETCHER INSTRUCTION	ACCESS:        112  HIT:         56  MISS:         56  HIT %:         50  MISS %:         50  MPKI: 0.00112


PSCL4 TOTAL     ACCESS:       4289  HIT:       2141  MISS:       2148  HIT %:    49.9184  MISS %:    50.0816   MPKI: 0.04296
PSCL4 LOAD TRANSLATION INSTRUCTION	ACCESS:       3836  HIT:       2091  MISS:       1745  HIT %:    54.5099  MISS %:    45.4901  MPKI: 0.0349
PSCL4 TRANSLATION FROM L1D PREFETCHER INSTRUCTION	ACCESS:        100  HIT:         50  MISS:         50  HIT %:         50  MISS %:         50  MPKI: 0.001
PSCL4 LOAD TRANSLATION DATA	ACCESS:        353  HIT:          0  MISS:        353  HIT %:          0  MISS %:        100  MPKI: 0.00706


PSCL3 TOTAL     ACCESS:       4299  HIT:       2146  MISS:       2153  HIT %:    49.9186  MISS %:    50.0814   MPKI: 0.04306
PSCL3 LOAD TRANSLATION INSTRUCTION	ACCESS:       3841  HIT:       2096  MISS:       1745  HIT %:    54.5691  MISS %:    45.4309  MPKI: 0.0349
PSCL3 TRANSLATION FROM L1D PREFETCHER INSTRUCTION	ACCESS:        100  HIT:         50  MISS:         50  HIT %:         50  MISS %:         50  MPKI: 0.001
PSCL3 LOAD TRANSLATION DATA	ACCESS:        358  HIT:          0  MISS:        358  HIT %:          0  MISS %:        100  MPKI: 0.00716


PSCL2 TOTAL     ACCESS:       4309  HIT:       2105  MISS:       2204  HIT %:    48.8512  MISS %:    51.1488   MPKI: 0.04408
PSCL2 LOAD TRANSLATION INSTRUCTION	ACCESS:       2343  HIT:       2050  MISS:        293  HIT %:    87.4947  MISS %:    12.5053  MPKI: 0.00586
PSCL2 TRANSLATION FROM L1D PREFETCHER INSTRUCTION	ACCESS:         55  HIT:         55  MISS:          0  HIT %:        100  MISS %:          0  MPKI: 0
PSCL2 LOAD TRANSLATION DATA	ACCESS:       1856  HIT:          0  MISS:       1856  HIT %:          0  MISS %:        100  MPKI: 0.03712
PSCL2 TRANSLATION FROM L1D PREFETCHER DATA	ACCESS:         55  HIT:          0  MISS:         55  HIT %:          0  MISS %:        100  MPKI: 0.0011


LLC TOTAL     ACCESS:     536937  HIT:     506754  MISS:      30183  HIT %:    94.3787  MISS %:    5.62133   MPKI: 0.60366
LLC LOAD INSTRUCTION	ACCESS:     262772  HIT:     261792  MISS:        980  HIT %:    99.6271  MISS %:   0.372947  MPKI: 0.0196
LLC LOAD TRANSLATION INSTRUCTION	ACCESS:        260  HIT:        219  MISS:         41  HIT %:    84.2308  MISS %:    15.7692  MPKI: 0.00082
LLC LOAD DATA	ACCESS:      72704  HIT:      69229  MISS:       3475  HIT %:    95.2203  MISS %:    4.77965  MPKI: 0.0695
LLC RFO DATA	ACCESS:      52785  HIT:      37312  MISS:      15473  HIT %:    70.6867  MISS %:    29.3133  MPKI: 0.30946
LLC PREFETCH DATA	ACCESS:      72099  HIT:      62362  MISS:       9737  HIT %:     86.495  MISS %:     13.505  MPKI: 0.19474
LLC WRITEBACK DATA	ACCESS:      74827  HIT:      74434  MISS:        393  HIT %:    99.4748  MISS %:   0.525211  MPKI: 0.00786
LLC LOAD TRANSLATION DATA	ACCESS:       1472  HIT:       1388  MISS:         84  HIT %:    94.2935  MISS %:    5.70652  MPKI: 0.00168
LLC TRANSLATION FROM L1D PREFETCHER DATA	ACCESS:         18  HIT:         18  MISS:          0  HIT %:        100  MISS %:          0  MPKI: 0

LLC AVERAGE MISS LATENCY: 157.522 cycles
LLC RQ	ACCESS:     390013	FORWARD:          0	MERGED:          0	TO_CACHE:     390011
LLC WQ	ACCESS:      74827	FORWARD:          2	MERGED:          0	TO_CACHE:      74827
LLC PQ	ACCESS:      72099	FORWARD:          0	MERGED:          0	TO_CACHE:      72099

LLC Dense regions hint to LLC: 0

RAW hits: 1942495
Loads Generated: 12637907
Loads sent to L1D: 10695412
Stores Generated: 6943219
Stores sent to L1D: 6943242
Major fault: 0 Minor fault: 2534
Allocated PAGES: 2534

stream: 
stream:times selected: 1185515
stream:pref_filled: 123360
stream:pref_useful: 24361
stream:pref_late: 6750
stream:misses: 7920
stream:misses_by_poll: 0

CS: 
CS:times selected: 178860
CS:pref_filled: 59616
CS:pref_useful: 36332
CS:pref_late: 7335
CS:misses: 16713
CS:misses_by_poll: 4

CPLX: 
CPLX:times selected: 1005531
CPLX:pref_filled: 19649
CPLX:pref_useful: 4621
CPLX:pref_late: 3127
CPLX:misses: 93058
CPLX:misses_by_poll: 0

NL_L1: 
NL:times selected: 20603
NL:pref_filled: 829
NL:pref_useful: 365
NL:pref_late: 270
NL:misses: 1888
NL:misses_by_poll: 0

total selections: 2390509
total_filled: 94998
total_useful: 34771
total_late: 18871
total_polluted: 4
total_misses_after_warmup: 769206
conflicts: 5513322

test: 117522

DRAM Statistics
 CHANNEL 0
 RQ ROW_BUFFER_HIT:      11470  ROW_BUFFER_MISS:      18316
 DBUS_CONGESTED:         13
 WQ ROW_BUFFER_HIT:       1501  ROW_BUFFER_MISS:      12736  FULL:          0

 AVG_CONGESTED_CYCLE: 6

CPU 0 Branch Prediction Accuracy: 99.8237% MPKI: 0.32234 Average ROB Occupancy at Mispredict: 198.802
Branch types
NOT_BRANCH: 40859280 81.7186%
BRANCH_DIRECT_JUMP: 548261 1.09652%
BRANCH_INDIRECT: 182870 0.36574%
BRANCH_CONDITIONAL: 6180328 12.3607%
BRANCH_DIRECT_CALL: 942826 1.88565%
BRANCH_INDIRECT_CALL: 171813 0.343626%
BRANCH_RETURN: 1114639 2.22928%
BRANCH_OTHER: 0 0%

DRAM PAGES: 1048576
Allocated PAGES: 2534
Average_ROB_Occupancy: 252.845
Average_Decode_Occupancy: 38.1439
Average_FTQ_Occupancy: 14.8853
Indirect max targets: 14 Average targets: 1.14626
Branch_type:  BRANCH_DIRECT_JUMP:  Count Percentage: 3.40022 6.12982 3.95465 15.1367 1.69431 5.38617 1.23445 63.0636 
Branch_type:  BRANCH_INDIRECT:  Count Percentage: 11.76 3.43969 12.2184 23.3731 1.33805 14.5418 1.07039 32.2586 
Branch_type:  BRANCH_CONDITIONAL:  Count Percentage: 21.8525 2.57708 2.37349 9.19548 1.06895 3.96091 0.849671 58.1219 
Branch_type:  BRANCH_DIRECT_CALL:  Count Percentage: 0.757869 1.29175 1.43331 5.40376 1.99213 2.66615 0.930872 85.5242 
Branch_type:  BRANCH_INDIRECT_CALL:  Count Percentage: 9.51574 0.567475 2.9815 4.82833 0 3.83576 0 78.2712 
Branch_type:  BRANCH_RETURN:  Count Percentage: 4.43764 0.696132 3.5222 9.44468 2.12278 4.90247 1.22802 73.6461 
Branch_type:  BRANCH_DIRECT_JUMP:  Total Count: 37251 67155 43325 165830 18562 59008 13524 690891 
Branch_type:  BRANCH_INDIRECT:  Total Count: 42969 12568 44644 85401 4889 53133 3911 117867 
Branch_type:  BRANCH_CONDITIONAL:  Total Count: 2699730 318380 293228 1136038 132062 489343 104971 7180558 
Branch_type:  BRANCH_DIRECT_CALL:  Total Count: 14316 24401 27075 102076 37631 50363 17584 1615535 
Branch_type:  BRANCH_INDIRECT_CALL:  Total Count: 32749 1953 10261 16617 0 13201 0 269375 
Branch_type:  BRANCH_RETURN:  Total Count: 99133 15551 78683 210986 47421 109517 27433 1645190 
Number of unique branch instructions: 9791
Upper 32 bits: 
aaaa
ffff
ffff0000
Unique upper 32 bits: 3
Unique upper 36 bits: 3
Unique upper 40 bits: 5
Unique upper 44 bits: 32
Unique upper 48 bits: 154
Variant_0 : 1394 0.340332
Variant_1 : 2505 0.611572
Variant_2 : 0 0
Variant_3 : 0 0
Offset_3 4035
Offset_4 246
Offset_5 451
Offset_6 502
Offset_7 578
Offset_8 498
Offset_9 459
Offset_10 377
Offset_11 305
Offset_12 269
Offset_13 199
Offset_14 225
Offset_15 186
Offset_16 220
Offset_17 141
Offset_18 118
Offset_19 234
Offset_20 137
Offset_21 235
Offset_22 392
Offset_23 241
Offset_24 326
Offset_25 88
Offset_47 80
Offset_64 2
decode_dispatch_called: 26376452 73.5415
Dispatch_width: 0 14138595 53.6031 39.4205
Dispatch_width: 1 1043804 3.95733 2.91028
Dispatch_width: 2 870375 3.29982 2.42674
Dispatch_width: 3 507191 1.92289 1.41413
Dispatch_width: 4 6551056 24.8368 18.2653
Dispatch_width: 5 102935 0.390253 0.286998
Dispatch_width: 6 3162496 11.9898 8.81752
Empty_decode_cycles: 9489611 26.4585
ROB_full_cycles: 10355520 28.8728
Starvation_cycles_per_kilo_instr: 223.48
Starvation_cycles_per_kilo_instr_3: 156.941
Starvation_cycles_per_kilo_instr_0: 132.727
Branch_type_1  (3,1)  (4,9)  (5,37)  (6,69)  (7,114)  (8,127)  (9,121)  (10,97)  (11,69)  (12,43)  (13,5)  (14,2)  (15,3)  (16,4)  (18,1)  (19,4)  (20,2)  (21,1)  (22,3)  (23,2)  (24,10)  (25,12) 
Branch_type_2  (3,1)  (5,1)  (8,3)  (9,3)  (12,1)  (13,1)  (14,1)  (16,3)  (17,2)  (20,2)  (21,2)  (23,5)  (24,1)  (47,36) 
Branch_type_3  (3,4033)  (4,237)  (5,409)  (6,418)  (7,435)  (8,308)  (9,252)  (10,153)  (11,123)  (12,50)  (13,4) 
Branch_type_4  (6,3)  (7,8)  (8,24)  (9,52)  (10,60)  (11,57)  (12,96)  (13,86)  (14,99)  (15,88)  (16,98)  (17,63)  (18,53)  (19,114)  (20,72)  (21,124)  (22,207)  (23,136)  (24,186)  (25,72)  (64,1) 
Branch_type_5  (8,2)  (9,1)  (10,3)  (11,5)  (12,3)  (13,14)  (14,16)  (15,11)  (16,20)  (17,11)  (18,16)  (19,12)  (20,10)  (21,13)  (22,42)  (23,26)  (24,37) 
Branch_type_6  (5,4)  (6,12)  (7,21)  (8,34)  (9,30)  (10,64)  (11,51)  (12,76)  (13,89)  (14,107)  (15,84)  (16,95)  (17,65)  (18,48)  (19,104)  (20,51)  (21,95)  (22,140)  (23,72)  (24,92)  (25,4)  (47,44)  (64,1) 
Unique trigger count: 
Variant_0_evicts_0 : 0
Variant_0_evicts_1 : 0
Variant_0_evicts_2 : 0
Variant_0_evicts_3 : 0
Variant_1_evicts_0 : 0
Variant_1_evicts_1 : 0
Variant_1_evicts_2 : 0
Variant_1_evicts_3 : 0
Variant_2_evicts_0 : 0
Variant_2_evicts_1 : 0
Variant_2_evicts_2 : 0
Variant_2_evicts_3 : 0
Variant_3_evicts_0 : 0
Variant_3_evicts_1 : 0
Variant_3_evicts_2 : 0
Variant_3_evicts_3 : 0
BTB PER SET UNIQUE ADDR: 26 22 28 28 27 21 25 26 22 26 20 27 25 25 25 25 28 29 29 24 27 24 23 27 28 22 24 26 30 25 25 25 22 26 23 21 28 26 27 21 28 22 27 24 21 29 24 26 27 19 23 25 30 26 27 29 27 30 31 24 23 25 24 24 23 23 22 27 27 27 25 26 26 26 23 29 24 22 25 24 24 24 24 26 26 27 21 25 25 24 29 21 21 25 22 26 31 24 25 29 20 26 25 26 24 26 26 26 28 22 20 25 25 20 26 27 27 23 28 29 29 24 28 29 25 25 25 29 24 28 26 25 27 24 23 25 28 26 25 24 25 24 25 26 24 27 23 27 25 26 26 26 25 27 25 22 27 25 30 24 24 24 22 27 25 24 26 27 25 24 27 27 22 27 24 23 25 23 25 29 29 26 25 23 26 26 21 25 22 26 24 24 24 25 22 28 22 25 24 23 25 25 26 27 23 24 23 23 23 21 25 26 26 25 24 23 28 22 24 26 23 26 23 21 27 25 21 27 27 25 24 24 22 22 25 24 23 27 23 26 25 21 25 23 26 22 28 21 26 26 24 27 27 20 26 28 
BTB PER SET COUNT: 31 512 2475 105 35 24 27 1493 26 1007 20 1396 30 25 27 26 2480 1368 29 24 56 1004 25 58 28 172 998 30 1536 25 26 128 1003 28 7905 22 30 28 2125 23 1007 25 33 30 25 1491 27 31 904 20 24 28 37 33 30 406 391 270 31 1981 24 28 26 1052 25 28 1000 1007 31 627 25 32 402 27 1002 29 30 221 27 36 1003 26 30 26 28 30 27 25 1149 30 572 23 1977 29 22 30 37 27 1005 38 1500 41 1370 28 28 32 29 1982 1004 22 21 27 29 21 722 30 34 24 2020 2244 31 24 1020 1011 34 34 267 2490 27 32 26 1005 27 25 1490 28 31 1010 29 24 774 1491 28 534 24 648 64 33 30 3452 1495 30 1004 31 28 31 3460 1998 46 593 24 26 22 282 1004 28 520 30 28 24 30 1003 22 32 24 24 2956 26 1370 1031 1501 30 1498 118 2488 2117 22 25 22 32 2955 2474 15659 27 996 319 26 162 60 2467 117 1002 1330 1894 26 515 2959 25 514 511 592 37 1194 2960 1279 26 2015 22 1490 27 386 762 2351 23 319 30 997 2524 1493 35 2040 2971 22 25 25 28 3972 993 1244 1009 25 21 27 1004 1007 107 28 20556 1499 1492 25 36 517 21 31 60 
To predecode: 0
Predecoding something: 0
Predecode request dropped: 0
sizeofblock_0 0
sizeofblock_1 33078
sizeofblock_2 98209
sizeofblock_3 0
sizeofblock_4 0
sizeofblock_5 0
sizeofblock_6 0
sizeofblock_7 0
sizeofblock_8 0
Variant_0 Correct: 1615018 Incorrect: 0 Accuracy: 1
Variant_1 Correct: 5736362 Incorrect: 0 Accuracy: 1
Variant_2 Correct: 0 Incorrect: 0 Accuracy: -nan
Variant_3 Correct: 0 Incorrect: 0 Accuracy: -nan
