
*** ChampSim Multicore Out-of-Order Simulator ***

Warmup Instructions: 50000000
Simulation Instructions: 50000000
Number of CPUs: 1
LLC sets: 2048
LLC ways: 16
Off-chip DRAM Size: 4096 MB Channels: 1 Width: 64-bit Data Rate: 6400 MT/s
CPU 0 runs ./micro_traces/srv416.trace.gz
.gz
ITLB has LRU replacement policy
DTLB has LRU replacement policy
STLB has LRU replacement policy
FDIP Prefetcher at L1I
L1I has LRU replacement policy
L1D has LRU replacement policy
Initialize SRRIP state for L2C
Initialize DRRIP state for LLC
Heartbeat CPU 0 instructions: 10000000 cycles: 2796930 heartbeat IPC: 3.57535 cumulative IPC: 3.57535 (Simulation time: 0 hr 2 min 37 sec) 
Heartbeat CPU 0 instructions: 20000001 cycles: 5592330 heartbeat IPC: 3.57731 cumulative IPC: 3.57633 (Simulation time: 0 hr 4 min 48 sec) 
Heartbeat CPU 0 instructions: 30000002 cycles: 8389163 heartbeat IPC: 3.57547 cumulative IPC: 3.57604 (Simulation time: 0 hr 6 min 49 sec) 
Heartbeat CPU 0 instructions: 40000000 cycles: 11184274 heartbeat IPC: 3.57767 cumulative IPC: 3.57645 (Simulation time: 0 hr 8 min 48 sec) 
Heartbeat CPU 0 instructions: 50000000 cycles: 13980210 heartbeat IPC: 3.57662 cumulative IPC: 3.57648 (Simulation time: 0 hr 10 min 50 sec) 

Warmup complete CPU 0 instructions: 50000004 cycles: 13980211 (Simulation time: 0 hr 10 min 50 sec) 

Cycle: 20000000 FTQ IN: 58227197 FTQ occupancy: 17.8182 DECODE IN: 58227172 DECODE occupancy: 47.8564 ROB IN: 58227172 ROB occupancy: 309.194 ROB OUT: 58226824
Heartbeat CPU 0 instructions: 60000000 cycles: 21281897 heartbeat IPC: 1.36955 cumulative IPC: 1.36955 (Simulation time: 0 hr 12 min 38 sec) 
Heartbeat CPU 0 instructions: 70000001 cycles: 28499495 heartbeat IPC: 1.3855 cumulative IPC: 1.37748 (Simulation time: 0 hr 14 min 31 sec) 
Cycle: 30000000 FTQ IN: 13849288 FTQ occupancy: 5.56838 DECODE IN: 13849271 DECODE occupancy: 19.0921 ROB IN: 13849271 ROB occupancy: 216.517 ROB OUT: 13849538
Heartbeat CPU 0 instructions: 80000000 cycles: 35777856 heartbeat IPC: 1.37394 cumulative IPC: 1.3763 (Simulation time: 0 hr 16 min 10 sec) 
Cycle: 40000000 FTQ IN: 13790474 FTQ occupancy: 5.73831 DECODE IN: 13790508 DECODE occupancy: 19.3466 ROB IN: 13790508 ROB occupancy: 216.574 ROB OUT: 13790465
Heartbeat CPU 0 instructions: 90000001 cycles: 42973670 heartbeat IPC: 1.3897 cumulative IPC: 1.37962 (Simulation time: 0 hr 17 min 55 sec) 
Cycle: 50000000 FTQ IN: 13774638 FTQ occupancy: 5.73458 DECODE IN: 13774610 DECODE occupancy: 19.4026 ROB IN: 13774590 ROB occupancy: 216.917 ROB OUT: 13774517
Heartbeat CPU 0 instructions: 100000001 cycles: 50259202 heartbeat IPC: 1.37258 cumulative IPC: 1.37821 (Simulation time: 0 hr 19 min 35 sec) 
Finished CPU 0 instructions: 50000002 cycles: 36279003 cumulative IPC: 1.37821 (Simulation time: 0 hr 19 min 35 sec) 

ChampSim completed all CPUs

Region of Interest Statistics

CPU 0 cumulative IPC: 1.37821 instructions: 50000002 cycles: 36279003
 Fetch stage stalled: 63.824  Sim cycles: 36279003 fetch stall cycle: 23154725
 Empty decode stage: 48.5868  Sim cycles: 36279003 fetch stall cycle: 17626789
ITLB TOTAL     ACCESS:    5579451  HIT:    5087109  MISS:     492342  HIT %:    91.1758  MISS %:     8.8242   MPKI: 9.84684
ITLB LOAD TRANSLATION INSTRUCTION	ACCESS:    5462834  HIT:    4970492  MISS:     492342  HIT %:    90.9874  MISS %:    9.01257  MPKI: 9.84684
ITLB TRANSLATION FROM L1D PREFETCHER INSTRUCTION	ACCESS:     116617  HIT:     116617  MISS:          0  HIT %:        100  MISS %:          0  MPKI: 0

ITLB AVERAGE MISS LATENCY: 9.0555 cycles
ITLB RQ	ACCESS:    7423728	FORWARD:          0	MERGED:    1357890	TO_CACHE:    6065838

DTLB TOTAL     ACCESS:    8998019  HIT:    8527457  MISS:     470562  HIT %:    94.7704  MISS %:    5.22962   MPKI: 9.41124
DTLB LOAD TRANSLATION DATA	ACCESS:    8998019  HIT:    8527457  MISS:     470562  HIT %:    94.7704  MISS %:    5.22962  MPKI: 9.41124

DTLB AVERAGE MISS LATENCY: 9.3437 cycles
DTLB RQ	ACCESS:   13352746	FORWARD:          0	MERGED:    4318369	TO_CACHE:    9034377

STLB TOTAL     ACCESS:    1211833  HIT:    1209639  MISS:       2194  HIT %:     99.819  MISS %:   0.181048   MPKI: 0.04388
STLB LOAD TRANSLATION INSTRUCTION	ACCESS:     492342  HIT:     492049  MISS:        293  HIT %:    99.9405  MISS %:  0.0595115  MPKI: 0.00586
STLB LOAD TRANSLATION DATA	ACCESS:     470476  HIT:     468603  MISS:       1873  HIT %:    99.6019  MISS %:   0.398107  MPKI: 0.03746
STLB TRANSLATION FROM L1D PREFETCHER DATA	ACCESS:     249015  HIT:     248987  MISS:         28  HIT %:    99.9888  MISS %:  0.0112443  MPKI: 0.00056

STLB AVERAGE MISS LATENCY: 72.9098 cycles
STLB RQ	ACCESS:    1333657	FORWARD:          0	MERGED:     121777	TO_CACHE:    1211880

STLB Hit, L1D data hit: 0
STLB Hit, L2C data hit: 0
STLB Hit, LLC data hit: 0
STLB Hit, LLC data miss: 0
STLB STLB hints to L2: 0
L1D TOTAL     ACCESS:   13103984  HIT:   11990118  MISS:    1113866  HIT %:    91.4998  MISS %:    8.50021   MPKI: 22.2773
L1D LOAD DATA	ACCESS:    6566675  HIT:    5833259  MISS:     733416  HIT %:    88.8312  MISS %:    11.1688  MPKI: 14.6683
L1D RFO DATA	ACCESS:    6207649  HIT:    5921705  MISS:     285944  HIT %:    95.3937  MISS %:    4.60632  MPKI: 5.71888
L1D PREFETCH DATA	ACCESS:     329660  HIT:     235154  MISS:      94506  HIT %:    71.3323  MISS %:    28.6677  MPKI: 1.89012

L1D PREFETCH  REQUESTED:     741890  ISSUED:     741890  USEFUL:      34590  USELESS:      68091
L1D USEFUL LOAD PREFETCHES:      34590 PREFETCH ISSUED TO LOWER LEVEL:     102741  ACCURACY: 33.6672
 TIMELY PREFETCHES:      34590 LATE PREFETCHES: 8172 DROPPED PREFETCHES: 5
L1D AVERAGE MISS LATENCY: 238925 cycles
L1D RQ	ACCESS:   10721570	FORWARD:          0	MERGED:    3955914	TO_CACHE:    6600508
L1D WQ	ACCESS:    6943242	FORWARD:     165532	MERGED:     191004	TO_CACHE:    6752238
L1D PQ	ACCESS:     371137	FORWARD:          0	MERGED:          0	TO_CACHE:     370753

L1D UNIQUE REGIONS ACCESSED: 0
L1D REGIONS CONFLICTS: 0
L1D Cross Page Prefetch Requests: 6934
L1D Same Page Prefetch Requests: 748672
L1D ROI Sum of L1D PQ occupancy: 4707367
L1D PREFETCHES PUSHED FROM L2C: 0
L1I TOTAL     ACCESS:    6859537  HIT:    4105011  MISS:    2754526  HIT %:    59.8438  MISS %:    40.1562   MPKI: 55.0905
L1I LOAD INSTRUCTION	ACCESS:    6347644  HIT:    3593118  MISS:    2754526  HIT %:    56.6055  MISS %:    43.3945  MPKI: 55.0905
L1I PREFETCH INSTRUCTION	ACCESS:     511893  HIT:     511893  MISS:          0  HIT %:        100  MISS %:          0  MPKI: 0

L1I PREFETCH  REQUESTED:    1120952  ISSUED:    1120952  USEFUL:          0  USELESS:          0
L1I USEFUL LOAD PREFETCHES:          0 PREFETCH ISSUED TO LOWER LEVEL:          0  ACCURACY: -nan
 TIMELY PREFETCHES:          0 LATE PREFETCHES: 0 DROPPED PREFETCHES: 0
L1I AVERAGE MISS LATENCY: 17.2522 cycles
L1I RQ	ACCESS:    9437737	FORWARD:          0	MERGED:    2818384	TO_CACHE:    6619353
L1I PQ	ACCESS:    1120952	FORWARD:          0	MERGED:     316577	TO_CACHE:     804375

L1BTB TOTAL     ACCESS:    5669068  HIT:    2049206  MISS:    3619862  HIT %:    36.1471  MISS %:    63.8529   MPKI: 72.3972
L1BTB BRANCH_DIRECT_JUMP	ACCESS:     548261  HIT:     145293  MISS:     402968	AVERAGE STALL: 24.5759
L1BTB BRANCH_INDIRECT	ACCESS:     182870  HIT:      66074  MISS:     116796	AVERAGE STALL: 93.1261
L1BTB BRANCH_CONDITIONAL	ACCESS:    2708659  HIT:    1418748  MISS:    1289911	AVERAGE STALL: 22.5545
L1BTB BRANCH_DIRECT_CALL	ACCESS:     942826  HIT:     106418  MISS:     836408	AVERAGE STALL: 25.3567
L1BTB BRANCH_INDIRECT_CALL	ACCESS:     171813  HIT:      21721  MISS:     150092	AVERAGE STALL: 126.943
L1BTB BRANCH_RETURN	ACCESS:    1114639  HIT:     290952  MISS:     823687	AVERAGE STALL: 25.4336
L1BTB BRANCH_OTHER ACCESS:          0  HIT:          0  MISS:          0	AVERAGE STALL: -nan
L1BTB TOTAL ROB OCCUPANCY AT BTB MISS: 23.0999

L2BTB TOTAL     ACCESS:    3594466  HIT:    3161744  MISS:     432722  HIT %:    87.9614  MISS %:    12.0386   MPKI: 8.65444
L2BTB BRANCH_DIRECT_JUMP	ACCESS:     398778  HIT:     350156  MISS:      48622	AVERAGE STALL: 24.5759
L2BTB BRANCH_INDIRECT	ACCESS:     106551  HIT:     101425  MISS:       5126	AVERAGE STALL: 93.1261
L2BTB BRANCH_CONDITIONAL	ACCESS:    1289911  HIT:    1147702  MISS:     142209	AVERAGE STALL: 22.5545
L2BTB BRANCH_DIRECT_CALL	ACCESS:     836408  HIT:     720663  MISS:     115745	AVERAGE STALL: 25.3567
L2BTB BRANCH_INDIRECT_CALL	ACCESS:     140532  HIT:     118994  MISS:      21538	AVERAGE STALL: 126.943
L2BTB BRANCH_RETURN	ACCESS:     822286  HIT:     722804  MISS:      99482	AVERAGE STALL: 25.4336
L2BTB BRANCH_OTHER ACCESS:          0  HIT:          0  MISS:          0	AVERAGE STALL: -nan
L2BTB TOTAL ROB OCCUPANCY AT BTB MISS: 193.238

L2C TOTAL     ACCESS:    4474809  HIT:    4004666  MISS:     470143  HIT %:    89.4936  MISS %:    10.5064   MPKI: 9.40286
L2C LOAD INSTRUCTION	ACCESS:    2754526  HIT:    2496955  MISS:     257571  HIT %:    90.6492  MISS %:    9.35083  MPKI: 5.15142
L2C LOAD TRANSLATION INSTRUCTION	ACCESS:        330  HIT:         68  MISS:        262  HIT %:    20.6061  MISS %:    79.3939  MPKI: 0.00524
L2C LOAD DATA	ACCESS:     725222  HIT:     653628  MISS:      71594  HIT %:     90.128  MISS %:    9.87201  MPKI: 1.43188
L2C RFO DATA	ACCESS:     285856  HIT:     233069  MISS:      52787  HIT %:    81.5337  MISS %:    18.4663  MPKI: 1.05574
L2C PREFETCH DATA	ACCESS:     186052  HIT:     114771  MISS:      71281  HIT %:    61.6876  MISS %:    38.3124  MPKI: 1.42562
L2C WRITEBACK DATA	ACCESS:     520837  HIT:     505709  MISS:      15128  HIT %:    97.0954  MISS %:    2.90456  MPKI: 0.30256
L2C LOAD TRANSLATION DATA	ACCESS:       1931  HIT:        430  MISS:       1501  HIT %:    22.2683  MISS %:    77.7317  MPKI: 0.03002
L2C TRANSLATION FROM L1D PREFETCHER DATA	ACCESS:         55  HIT:         36  MISS:         19  HIT %:    65.4545  MISS %:    34.5455  MPKI: 0.00038

L2C PREFETCH  REQUESTED:      91122  ISSUED:      91122  USEFUL:       8024  USELESS:      63945
L2C USEFUL LOAD PREFETCHES:       8024 PREFETCH ISSUED TO LOWER LEVEL:      71735  ACCURACY: 11.1856
 TIMELY PREFETCHES:       8024 LATE PREFETCHES: 454 DROPPED PREFETCHES: 0
L2C AVERAGE MISS LATENCY: 39.2583 cycles
L2C RQ	ACCESS:    3767967	FORWARD:          0	MERGED:          0	TO_CACHE:    3767920
L2C WQ	ACCESS:     520838	FORWARD:         47	MERGED:          0	TO_CACHE:     520838
L2C PQ	ACCESS:     193863	FORWARD:          0	MERGED:       3228	TO_CACHE:     190635

L2C Dense regions hint from L2: 0
PSCL5 TOTAL     ACCESS:       4406  HIT:       2203  MISS:       2203  HIT %:         50  MISS %:         50   MPKI: 0.04406
PSCL5 LOAD TRANSLATION INSTRUCTION	ACCESS:       4298  HIT:       2149  MISS:       2149  HIT %:         50  MISS %:         50  MPKI: 0.04298
PSCL5 TRANSLATION FROM L1D PREFETCHER INSTRUCTION	ACCESS:        108  HIT:         54  MISS:         54  HIT %:         50  MISS %:         50  MPKI: 0.00108


PSCL4 TOTAL     ACCESS:       4287  HIT:       2140  MISS:       2147  HIT %:    49.9184  MISS %:    50.0816   MPKI: 0.04294
PSCL4 LOAD TRANSLATION INSTRUCTION	ACCESS:       3838  HIT:       2092  MISS:       1746  HIT %:    54.5076  MISS %:    45.4924  MPKI: 0.03492
PSCL4 TRANSLATION FROM L1D PREFETCHER INSTRUCTION	ACCESS:         96  HIT:         48  MISS:         48  HIT %:         50  MISS %:         50  MPKI: 0.00096
PSCL4 LOAD TRANSLATION DATA	ACCESS:        353  HIT:          0  MISS:        353  HIT %:          0  MISS %:        100  MPKI: 0.00706


PSCL3 TOTAL     ACCESS:       4297  HIT:       2145  MISS:       2152  HIT %:    49.9185  MISS %:    50.0815   MPKI: 0.04304
PSCL3 LOAD TRANSLATION INSTRUCTION	ACCESS:       3843  HIT:       2097  MISS:       1746  HIT %:    54.5667  MISS %:    45.4333  MPKI: 0.03492
PSCL3 TRANSLATION FROM L1D PREFETCHER INSTRUCTION	ACCESS:         96  HIT:         48  MISS:         48  HIT %:         50  MISS %:         50  MPKI: 0.00096
PSCL3 LOAD TRANSLATION DATA	ACCESS:        358  HIT:          0  MISS:        358  HIT %:          0  MISS %:        100  MPKI: 0.00716


PSCL2 TOTAL     ACCESS:       4307  HIT:       2104  MISS:       2203  HIT %:    48.8507  MISS %:    51.1493   MPKI: 0.04406
PSCL2 LOAD TRANSLATION INSTRUCTION	ACCESS:       2344  HIT:       2051  MISS:        293  HIT %:       87.5  MISS %:       12.5  MPKI: 0.00586
PSCL2 TRANSLATION FROM L1D PREFETCHER INSTRUCTION	ACCESS:         53  HIT:         53  MISS:          0  HIT %:        100  MISS %:          0  MPKI: 0
PSCL2 LOAD TRANSLATION DATA	ACCESS:       1857  HIT:          0  MISS:       1857  HIT %:          0  MISS %:        100  MPKI: 0.03714
PSCL2 TRANSLATION FROM L1D PREFETCHER DATA	ACCESS:         53  HIT:          0  MISS:         53  HIT %:          0  MISS %:        100  MPKI: 0.00106


LLC TOTAL     ACCESS:     529606  HIT:     499276  MISS:      30330  HIT %:    94.2731  MISS %:     5.7269   MPKI: 0.6066
LLC LOAD INSTRUCTION	ACCESS:     257571  HIT:     256568  MISS:       1003  HIT %:    99.6106  MISS %:   0.389407  MPKI: 0.02006
LLC LOAD TRANSLATION INSTRUCTION	ACCESS:        262  HIT:        222  MISS:         40  HIT %:    84.7328  MISS %:    15.2672  MPKI: 0.0008
LLC LOAD DATA	ACCESS:      71156  HIT:      67629  MISS:       3527  HIT %:    95.0433  MISS %:    4.95671  MPKI: 0.07054
LLC RFO DATA	ACCESS:      52767  HIT:      37276  MISS:      15491  HIT %:    70.6426  MISS %:    29.3574  MPKI: 0.30982
LLC PREFETCH DATA	ACCESS:      71735  HIT:      61943  MISS:       9792  HIT %:    86.3498  MISS %:    13.6502  MPKI: 0.19584
LLC WRITEBACK DATA	ACCESS:      74595  HIT:      74196  MISS:        399  HIT %:    99.4651  MISS %:   0.534888  MPKI: 0.00798
LLC LOAD TRANSLATION DATA	ACCESS:       1501  HIT:       1423  MISS:         78  HIT %:    94.8035  MISS %:    5.19654  MPKI: 0.00156
LLC TRANSLATION FROM L1D PREFETCHER DATA	ACCESS:         19  HIT:         19  MISS:          0  HIT %:        100  MISS %:          0  MPKI: 0

LLC AVERAGE MISS LATENCY: 157.237 cycles
LLC RQ	ACCESS:     383280	FORWARD:          0	MERGED:          0	TO_CACHE:     383276
LLC WQ	ACCESS:      74595	FORWARD:          4	MERGED:          0	TO_CACHE:      74595
LLC PQ	ACCESS:      71735	FORWARD:          0	MERGED:          0	TO_CACHE:      71735

LLC Dense regions hint to LLC: 0

RAW hits: 1916337
Loads Generated: 12637907
Loads sent to L1D: 10721570
Stores Generated: 6943219
Stores sent to L1D: 6943242
Major fault: 0 Minor fault: 2534
Allocated PAGES: 2534

stream: 
stream:times selected: 1184003
stream:pref_filled: 121517
stream:pref_useful: 24097
stream:pref_late: 6645
stream:misses: 7867
stream:misses_by_poll: 0

CS: 
CS:times selected: 178666
CS:pref_filled: 60280
CS:pref_useful: 36318
CS:pref_late: 7331
CS:misses: 16700
CS:misses_by_poll: 1

CPLX: 
CPLX:times selected: 1004200
CPLX:pref_filled: 19547
CPLX:pref_useful: 4683
CPLX:pref_late: 3135
CPLX:misses: 92546
CPLX:misses_by_poll: 1

NL_L1: 
NL:times selected: 20527
NL:pref_filled: 803
NL:pref_useful: 357
NL:pref_late: 278
NL:misses: 1878
NL:misses_by_poll: 0

total selections: 2387396
total_filled: 94506
total_useful: 34590
total_late: 18780
total_polluted: 2
total_misses_after_warmup: 767254
conflicts: 5527804

test: 117144

DRAM Statistics
 CHANNEL 0
 RQ ROW_BUFFER_HIT:      11461  ROW_BUFFER_MISS:      18460
 DBUS_CONGESTED:         12
 WQ ROW_BUFFER_HIT:       1455  ROW_BUFFER_MISS:      12861  FULL:          0

 AVG_CONGESTED_CYCLE: 6

CPU 0 Branch Prediction Accuracy: 99.8237% MPKI: 0.32234 Average ROB Occupancy at Mispredict: 187.774
Branch types
NOT_BRANCH: 40859280 81.7186%
BRANCH_DIRECT_JUMP: 548261 1.09652%
BRANCH_INDIRECT: 182870 0.36574%
BRANCH_CONDITIONAL: 6180328 12.3607%
BRANCH_DIRECT_CALL: 942826 1.88565%
BRANCH_INDIRECT_CALL: 171813 0.343626%
BRANCH_RETURN: 1114639 2.22928%
BRANCH_OTHER: 0 0%

DRAM PAGES: 1048576
Allocated PAGES: 2534
Average_ROB_Occupancy: 218.022
Average_Decode_Occupancy: 19.3118
Average_FTQ_Occupancy: 5.69683
Indirect max targets: 14 Average targets: 1.14626
Branch_type:  BRANCH_DIRECT_JUMP:  Count Percentage: 3.40022 6.12982 3.95465 15.1367 1.69431 5.38617 1.23445 63.0636 
Branch_type:  BRANCH_INDIRECT:  Count Percentage: 11.76 3.43969 12.2184 23.3731 1.33805 14.5418 1.07039 32.2586 
Branch_type:  BRANCH_CONDITIONAL:  Count Percentage: 21.8525 2.57708 2.37349 9.19548 1.06895 3.96091 0.849671 58.1219 
Branch_type:  BRANCH_DIRECT_CALL:  Count Percentage: 0.757869 1.29175 1.43331 5.40376 1.99213 2.66615 0.930872 85.5242 
Branch_type:  BRANCH_INDIRECT_CALL:  Count Percentage: 9.51574 0.567475 2.9815 4.82833 0 3.83576 0 78.2712 
Branch_type:  BRANCH_RETURN:  Count Percentage: 4.43764 0.696132 3.5222 9.44468 2.12278 4.90247 1.22802 73.6461 
Branch_type:  BRANCH_DIRECT_JUMP:  Total Count: 37251 67155 43325 165830 18562 59008 13524 690891 
Branch_type:  BRANCH_INDIRECT:  Total Count: 42969 12568 44644 85401 4889 53133 3911 117867 
Branch_type:  BRANCH_CONDITIONAL:  Total Count: 2699730 318380 293228 1136038 132062 489343 104971 7180558 
Branch_type:  BRANCH_DIRECT_CALL:  Total Count: 14316 24401 27075 102076 37631 50363 17584 1615535 
Branch_type:  BRANCH_INDIRECT_CALL:  Total Count: 32749 1953 10261 16617 0 13201 0 269375 
Branch_type:  BRANCH_RETURN:  Total Count: 99133 15551 78683 210986 47421 109517 27433 1645190 
Number of unique branch instructions: 9791
Upper 32 bits: 
aaaa
ffff
ffff0000
Unique upper 32 bits: 3
Unique upper 36 bits: 3
Unique upper 40 bits: 5
Unique upper 44 bits: 32
Unique upper 48 bits: 154
Offset_3 4035
Offset_4 246
Offset_5 451
Offset_6 502
Offset_7 578
Offset_8 498
Offset_9 459
Offset_10 377
Offset_11 305
Offset_12 269
Offset_13 199
Offset_14 225
Offset_15 186
Offset_16 220
Offset_17 141
Offset_18 118
Offset_19 234
Offset_20 137
Offset_21 235
Offset_22 392
Offset_23 241
Offset_24 326
Offset_25 88
Offset_47 80
Offset_64 2
decode_dispatch_called: 22897582 63.1152
Dispatch_width: 0 11402651 49.7985 31.4304
Dispatch_width: 1 896809 3.91661 2.47198
Dispatch_width: 2 1034480 4.51786 2.85146
Dispatch_width: 3 684624 2.98994 1.88711
Dispatch_width: 4 3941857 17.2152 10.8654
Dispatch_width: 5 410033 1.79073 1.13022
Dispatch_width: 6 4527128 19.7712 12.4786
Empty_decode_cycles: 13381421 36.8848
ROB_full_cycles: 5995092 16.525
Starvation_cycles_per_kilo_instr: 257.568
Starvation_cycles_per_kilo_instr_3: 214.049
Starvation_cycles_per_kilo_instr_0: 187.89
Branch_type_1  (3,1)  (4,9)  (5,37)  (6,69)  (7,114)  (8,127)  (9,121)  (10,97)  (11,69)  (12,43)  (13,5)  (14,2)  (15,3)  (16,4)  (18,1)  (19,4)  (20,2)  (21,1)  (22,3)  (23,2)  (24,10)  (25,12) 
Branch_type_2  (3,1)  (5,1)  (8,3)  (9,3)  (12,1)  (13,1)  (14,1)  (16,3)  (17,2)  (20,2)  (21,2)  (23,5)  (24,1)  (47,36) 
Branch_type_3  (3,4033)  (4,237)  (5,409)  (6,418)  (7,435)  (8,308)  (9,252)  (10,153)  (11,123)  (12,50)  (13,4) 
Branch_type_4  (6,3)  (7,8)  (8,24)  (9,52)  (10,60)  (11,57)  (12,96)  (13,86)  (14,99)  (15,88)  (16,98)  (17,63)  (18,53)  (19,114)  (20,72)  (21,124)  (22,207)  (23,136)  (24,186)  (25,72)  (64,1) 
Branch_type_5  (8,2)  (9,1)  (10,3)  (11,5)  (12,3)  (13,14)  (14,16)  (15,11)  (16,20)  (17,11)  (18,16)  (19,12)  (20,10)  (21,13)  (22,42)  (23,26)  (24,37) 
Branch_type_6  (5,4)  (6,12)  (7,21)  (8,34)  (9,30)  (10,64)  (11,51)  (12,76)  (13,89)  (14,107)  (15,84)  (16,95)  (17,65)  (18,48)  (19,104)  (20,51)  (21,95)  (22,140)  (23,72)  (24,92)  (25,4)  (47,44)  (64,1) 
aaaaab1fc620: 2ac9e77e 2aca717c 2aca8eff 2acaf6bc 2acaf9aa 2acaf9f1 2acb1abc 2acb1b7f 2acd4e22 2acdb712 2acf5f9e 2ad0ef44 2ad3f15c 2ad414e6 2ad60e42 2ad8609c 2ad99830 2ada35cc 2ada4676 2ada6612 2adf183e 2adf30e5 2adf5602 2adf785c 2ae11572 2aeb2dcf 2aee101b 2aee1ae1 2b156a8c 2b156b61 2b156bea 2b167f35 2b177656 2b17feec 2b1a3e5a 
aaaaac68f310: 2ac9ec8c 2ac9fb44 2ac9fbd2 2aca59ab 2acac04c 2acaf6e0 2acaf6ec 2acaf6f9 2acaf700 2acaf708 2acf2d90 2ad3cfbd 2ad3cfc4 2ad3d000 2ad3f35f 2ad4955d 2ad49571 2ad4f3f2 2ad4f400 2ad5f240 2ad5f37c 2ad5f86a 2ad5f86f 2ad5f880 2ad5fc0d 2ad5fc14 2ad5fc21 2ad5fe1b 2ad873bb 2ad873e3 2ad8a6b2 2ad9086e 2ad93096 2ad9bbb2 2ada152c 2ada1554 2ada3332 2ada5522 2adf3130 2adf313c 2adf3a3f 2adf3bd9 2adf5788 2adf7a8d 2ae07f6b 2ae0857a 2ae0857e 2ae08630 2ae08634 2ae08637 2ae08642 2ae0866f 2ae086e4 2ae086ec 2ae08717 2ae0871b 2aee0170 2aee1d38 2aee75f4 2aee7662 2aee85ca 2aee85e4 2aee8eef 2af70b84 2af74e8f 2b17d843 
aaaaac690ef0: 2aca598b 2acb111b 2acb175f 2acb1772 2acbfaf4 2acbfb00 2acf374f 2acf6d43 2acfa5c8 2ad3baf1 2ad3d4ac 2ad3d4b8 2ad3f1cf 2ad486b2 2ad5a59b 2ad5fc64 2ad5fcf9 2ad6121c 2ad906e9 2ad907bf 2ad9bada 2ada16ce 2ada1ad5 2ada43df 2ada64c0 2ada72ee 2adeb71a 2adf3bcb 2adf7a38 2adf7c6a 2adf8872 2adf8880 2adf9959 2adf9abe 2ae07f78 2ae08503 2ae08754 2ae12e80 2aea3bea 2aecb509 2aee00b0 2aee2bdd 2aee5467 2aee5601 2aee8f20 2af703fd 2af7048b 2af74e74 
Unique trigger count: 
1 9340
2 489
3 85
4 30
5 9
6 6
7 7
8 1
9 3
10 1
11 2
12 1
13 3
16 2
17 2
19 3
35 1
48 1
66 1
BTB PER SET UNIQUE ADDR: 2 4 3 2 1 0 3 2 4 0 2 0 5 3 1 3 3 2 3 4 3 4 2 3 4 5 1 4 3 2 6 6 4 2 4 2 1 5 5 2 3 4 3 6 6 2 4 3 6 3 3 2 3 1 0 3 4 3 3 3 1 4 2 3 1 4 5 2 3 5 5 1 1 4 2 3 3 6 1 3 2 2 1 4 3 4 2 5 3 3 6 4 3 5 2 0 3 3 1 3 4 2 3 3 2 2 1 2 3 2 2 1 3 6 2 6 2 4 4 1 4 4 2 0 1 2 2 1 6 4 5 2 4 1 5 3 2 1 3 3 5 3 3 2 1 4 2 5 4 3 3 8 3 5 2 0 3 3 3 2 3 5 4 4 4 3 2 2 8 1 2 2 4 2 1 1 3 4 5 1 3 3 6 3 4 5 3 1 2 3 5 3 3 4 4 4 2 3 3 5 3 2 4 1 3 3 2 4 2 1 2 4 5 4 3 2 3 5 4 0 1 1 2 3 3 2 3 3 0 3 8 3 3 1 3 3 3 2 1 2 1 0 5 3 9 7 1 1 3 3 2 2 1 3 2 6 3 4 4 3 4 4 4 2 3 6 3 1 4 2 3 2 2 3 4 2 1 1 3 3 4 2 6 2 5 5 3 3 1 1 0 3 1 5 1 1 5 3 1 2 3 3 1 2 3 2 4 2 6 5 3 1 3 2 5 1 5 6 2 2 3 7 3 4 2 2 1 6 1 1 4 0 2 5 5 1 2 2 5 0 3 0 1 4 4 2 1 2 3 3 3 5 4 3 5 3 2 0 4 1 2 5 2 4 6 5 1 1 2 1 3 2 2 4 4 4 3 3 3 4 5 3 1 5 3 2 5 2 4 1 5 4 4 2 3 1 6 0 1 3 4 2 3 2 2 4 3 2 1 1 1 2 4 3 2 2 5 3 1 3 1 1 3 4 3 3 2 0 2 4 1 2 8 3 5 5 3 3 3 0 2 4 5 3 4 6 2 3 3 2 4 3 1 1 5 1 1 3 7 2 3 3 4 6 1 3 4 2 3 3 0 4 4 2 2 1 4 5 1 1 2 1 2 2 0 4 3 0 5 1 4 2 3 4 0 5 3 3 2 1 5 1 1 1 1 2 2 2 2 3 3 2 2 6 2 1 2 5 4 5 3 4 4 2 6 5 0 5 6 3 4 3 3 6 3 4 1 1 4 1 2 5 6 2 5 2 7 3 6 9 3 6 3 6 1 3 3 1 2 3 7 2 5 2 2 1 4 2 2 7 3 2 3 7 2 2 3 3 1 5 4 2 1 0 1 0 0 9 4 2 5 6 1 1 2 3 4 2 2 1 4 2 4 6 1 4 3 4 2 2 5 2 2 2 2 2 2 0 3 1 5 3 6 2 2 3 2 5 2 3 5 4 3 2 5 2 2 3 2 2 7 1 4 3 0 0 3 3 3 3 3 2 5 2 3 0 4 3 2 3 5 2 5 4 5 4 5 3 1 4 5 3 4 4 5 6 3 3 2 3 3 2 4 2 5 3 5 3 4 3 1 4 2 2 2 3 6 4 5 4 0 6 0 3 3 2 3 1 3 1 3 3 3 1 2 1 7 2 0 3 2 0 1 1 1 1 1 4 2 4 5 4 2 1 2 4 4 3 2 2 1 3 2 4 2 1 3 2 2 2 0 2 1 3 2 2 2 6 4 1 3 3 1 5 4 4 8 2 2 2 3 3 0 3 3 3 5 2 1 3 3 4 0 3 8 6 3 3 0 2 2 4 2 1 4 6 7 2 2 2 5 3 5 3 4 3 3 5 2 3 1 3 4 0 4 3 1 2 0 4 4 2 4 2 2 1 2 2 4 4 3 1 3 2 5 2 2 1 5 2 2 1 3 3 1 4 6 4 4 2 6 2 5 4 4 5 3 2 4 4 2 6 2 1 9 3 3 4 5 3 1 3 3 6 4 0 2 2 5 4 3 5 4 4 5 3 2 2 2 4 4 2 3 4 3 1 6 3 1 1 5 2 1 3 4 5 3 5 3 4 5 4 0 3 1 5 0 0 5 2 5 5 5 3 4 1 3 2 5 7 4 4 9 7 5 4 6 4 1 5 4 2 0 4 4 5 5 5 3 2 6 0 5 4 2 3 6 5 4 2 2 2 4 5 2 6 8 4 6 3 2 3 0 4 5 1 7 5 1 3 7 5 3 4 2 1 2 2 3 2 5 4 2 7 4 4 4 5 3 5 1 2 4 2 2 5 4 3 2 3 5 2 4 3 5 2 5 2 2 3 5 2 9 5 2 3 3 2 2 3 4 7 6 2 3 2 3 2 3 1 3 2 4 4 1 4 5 5 4 6 0 3 3 3 3 4 2 1 2 2 3 1 1 1 4 1 3 3 3 5 2 8 5 3 2 1 10 1 2 4 1 2 5 5 3 6 3 5 5 5 2 5 2 2 1 1 5 0 4 4 3 7 4 1 7 4 6 2 3 4 5 3 5 7 4 4 6 1 4 4 7 4 3 3 4 3 6 6 3 6 5 6 4 3 5 3 1 2 4 5 1 3 2 1 3 4 2 2 5 2 2 5 4 1 5 1 7 3 3 2 3 1 3 4 3 4 3 4 2 6 1 3 6 3 3 3 3 5 2 8 3 5 3 8 6 1 6 1 5 2 1 2 4 4 2 1 3 4 2 1 2 2 4 3 3 3 2 3 2 5 2 4 4 5 0 5 3 2 2 6 8 0 6 0 1 4 5 2 5 1 3 3 4 1 1 2 4 5 3 4 1 4 4 6 5 1 4 3 3 6 10 4 2 6 6 5 1 1 3 5 6 3 2 2 4 3 4 4 5 3 1 4 2 2 6 8 5 3 3 6 1 2 5 2 4 1 3 2 6 8 3 3 3 3 4 4 2 5 6 6 4 2 1 5 3 2 4 3 4 4 4 4 7 3 5 4 3 5 5 3 1 7 4 4 3 3 3 2 3 3 2 2 5 4 3 2 5 1 1 3 3 8 5 2 3 4 2 3 3 3 4 3 2 1 3 2 4 2 5 3 4 4 2 1 2 6 1 4 2 4 2 4 5 1 1 4 4 3 3 3 5 2 3 4 4 5 4 4 4 3 3 2 2 3 5 2 4 1 3 0 8 3 2 6 4 4 5 7 3 2 3 3 1 2 4 1 4 2 4 2 0 5 1 5 2 2 3 3 3 2 4 2 3 2 3 1 5 1 0 3 4 1 1 3 1 4 2 3 6 3 1 2 2 3 2 2 6 2 3 5 3 3 3 3 2 2 3 0 2 2 2 3 2 1 2 0 4 0 4 2 4 3 3 3 2 1 2 4 4 2 7 1 3 3 2 2 4 5 2 2 5 0 1 2 3 1 1 2 3 3 5 3 1 1 5 3 1 4 1 6 1 4 2 3 6 2 2 2 1 3 3 1 1 3 4 1 3 3 1 2 0 5 1 3 3 0 3 2 5 3 4 3 3 4 1 3 1 2 1 3 3 0 2 3 2 3 3 1 3 3 2 8 6 2 2 2 4 1 1 3 5 2 3 0 3 2 3 2 3 4 5 5 7 0 4 1 6 4 4 5 3 7 2 4 8 3 0 6 3 3 3 4 3 3 2 1 2 4 2 2 2 3 2 3 5 3 5 3 6 1 1 5 5 3 3 4 4 3 6 2 5 5 2 6 3 3 3 1 3 7 5 3 2 3 3 3 3 4 2 2 3 1 3 1 3 7 0 2 2 3 3 3 5 3 4 2 6 1 2 2 5 2 4 5 6 1 1 7 1 4 2 3 4 7 2 3 2 3 6 3 4 3 5 3 4 9 4 4 3 5 2 5 4 3 2 3 0 2 2 3 4 3 2 3 3 5 4 2 4 8 0 3 2 4 4 4 3 4 3 6 2 4 1 5 2 3 4 2 3 0 2 5 0 7 2 5 5 1 4 3 2 0 4 2 3 5 3 6 2 2 2 1 3 4 6 1 3 3 0 3 2 4 5 3 1 3 5 2 3 2 6 3 4 1 5 3 0 2 4 1 1 8 2 0 4 1 4 3 2 3 6 3 3 6 1 5 3 5 2 5 4 2 3 2 7 1 4 0 3 3 4 4 3 3 2 1 2 3 0 3 0 3 4 6 2 2 5 2 3 3 3 1 2 2 4 2 4 2 5 3 2 3 1 2 3 3 3 2 3 4 2 1 1 3 2 5 1 4 1 5 4 2 3 1 4 1 2 3 5 2 3 4 4 5 3 3 3 4 3 2 0 3 2 0 2 1 2 2 4 2 5 2 2 3 4 1 2 4 3 2 3 7 3 2 7 6 3 2 4 1 2 5 3 4 4 2 4 0 1 2 4 3 2 4 3 2 5 3 4 7 4 2 0 4 1 0 2 3 0 4 4 6 1 3 4 6 4 0 2 2 4 1 4 1 3 2 8 3 1 2 3 6 2 7 3 4 6 0 1 3 1 4 2 1 0 2 3 4 5 4 1 0 3 4 5 1 1 1 3 5 2 1 5 4 3 3 5 4 0 6 2 6 2 1 2 2 1 2 4 1 3 1 3 2 3 1 5 2 5 2 4 2 1 3 5 4 4 0 
BTB PER SET COUNT: 2 4 3 2 3 0 3 2 4 0 2 0 2441 3 2 3 3 2 4 1472 3 5 2 3 4 18 1 6 1468 2 2928 34 6 2 4 2 2934 750 752 2 3 4 4 2204 5386 2 4 3 1575 3 3 2 3 1 0 3 5 3 3 3 1 4 2 3 1 365 452 3 3 1019 749 1 1 4 3 3 491 763 1 3 2 2 1 4 3 6 2 14 3 3 2488 494 3 3908 3 0 3 3 1 3 4 2 3 3 2 2 1 3 3 4 2 1 3 1969 2 1875 2 4 4 1 4 5 2 0 2 2 2 1 1979 5 1956 3 4 1 977 3 2 2 3 3 33 7 3 2 1 10 2 4397 4 3 3 6788 3 2442 2 0 3 3 3 3 3 998 4 4 4 1959 2 2 8307 1 2 2 4 2 1 2 3 4 982 1 3 3 6838 3 4 8 3 1 2 3 29 3 4 4 4 6 2 3 3 6 4 3 4 1 8 4 2 1472 2 1 2 6 20 4 5 2 3 22 4 0 1 1 2 3 3 2 3 28 0 3 5817 3 3 1 3 3 4 2 1 2 1 0 2441 3 9280 1956 1 1 4 3 2 2 1 3 2 1959 3 4 4 3 5 4 4 2 1468 1483 3 1 4 3 3 2 2 3 4 3 1 1 3 4 5 2 1956 2 750 2443 3 4 1 1 0 4 1 17 1 1 6 3 1 2 3 3 1 2 4 2 4 2 1956 1000 3 1 4 2 999 3 2443 1258 2 2 3 2215 3 4 2 2 1 36 1 1 980 0 3 18 1517 1 978 2 24 0 3 0 1 979 979 2 1 2 3 5 3 122 4 3 36 5 2 0 4 1 2 9 2 4 2692 37 1 1 2 1 3 2 2 4 4 4 3 3 3 4 24 3 1 38 6 2 15 3 5 1 22 4 4 2 4 1 3443 0 1 4 4 2 3 2 2 4 1468 3 1 978 1 2 4 3 979 2 141 4 1 92 1 1 3 4 4 3 4 0 2 6 134 2 2703 3 982 2437 4 3 3 0 2 4 1246 3 4 1012 2 3 3 2 4 3 1 1 1950 1 1 3 1490 2 5 3 4 1962 1 3 4 2 3 3 0 5 33 489 2 1 4 999 1 1 2 2 2 489 0 4 3 0 26 1 4 2 3 4 0 22 5 3 2 1 1951 6 1 1 1 2 2 2 2 3 3 3 2 34 3 1 2 2441 4 499 3 1469 4 2 22 1468 0 1950 4895 4 4 3 3 23 3 494 1 1 7 1 2 1469 163 3 18 2 59 4 999 9273 3 1479 6 2925 1 3 6 1 2 4 6837 2 1955 2 2 1 4 2 2 2946 3 3 3 5386 2 2 3 3 2 25 4 32 1 0 3 0 0 3917 4 2 1954 2931 2 1 979 5 4 2 2 1 5 2 6 1497 1 4 3 4 3 2 2441 2 2 2 2 4 988 0 3 1 9 490 3418 2 2 3 2 15 2 3 1955 1469 3 4 981 2 2 3 2 2 2943 1 5 3 0 0 5 3 4 3 3 2 11 2 3 0 4 3 2 3 7836 3 24 4 1954 4 2949 978 2 4 754 3 5 6 1467 2997 3 3 2 3 3 3 4 977 1469 3 23 1468 4 3 1 982 2 3 2 3 1957 4 20 31 0 2446 0 3 3 977 3 1 3 1 3 3 8 1 977 1 2464 2 0 3 2 0 1 1 1 1 1 5 2 4 1468 4 979 1 2 4 4 4 2 2 1 3 2 4 2 2 493 2 2 975 0 2 1 5 2 2 2 2929 5 2 3 3 1 22 5 4 5871 2 2 2 3 3 0 109 4 4 2933 4 1 3 3 5 0 3 3038 4887 5 3 0 2 2 25 2 1 5 1477 1949 2 2 2 12 4 7 6 1957 3 4 21 2 6 1 3 4 0 5 6 3 2 0 4 4 2 4 2 3 1 2 2 4 130 3 1 3 2 1960 3 4 1 1468 2 2 1 3 1471 1 10 1960 4 4 2 2444 2 1953 8 4 8 3 2 4 5 2 4881 2 1 6376 980 4 5 1467 3 1 3 3 2477 4 0 4 2 24 4 3 4883 5 4 90 3 2 2 2 5 4 2 3 4 3 2 770 3 1 1 1504 2 1 57 5 2457 3 999 3 4 49 4 0 3 1 1463 0 0 981 2 48 11 1464 3 7 1 3 2 1951 124 4 493 5378 3907 1470 4 2069 7 1 25 4 2 0 981 4 2442 38 1470 3 2 784 0 339 4 2 3 1379 1955 4 2 2 492 4 4889 3 23 960 4 1961 4 2 3 0 365 24 1 7332 19 1 3 1967 21 492 5 2 4 2 2 3 2 1667 5 2 3420 5 4 4 1951 4 25 1 2 5 2 2 25 4 5 2 3 1972 2 2448 363 1725 3 24 4 2 3 1504 2 5135 24 2 3 4 3 2 3 5 2933 1958 2 3 2 3 2 3 3 3 2 5 5 1 4 11 1958 4 1474 0 3 3 3 1469 369 2 1 2 3 4 1 1 1 4 1 3 3 3 7 2 3906 1470 4 2 1 11247 1 2 4 1 2 1956 117 3 5376 4 24 6 2443 2 28 2 2 1 1 27 0 7 4 4 1971 4 1 2040 4 2447 2 493 4 14 3 2436 1835 4 4 2447 1 5 7 4890 4 3 3 6 3 1475 1946 3 2441 1464 2329 4 3 9 5 1 3 4 1957 1 3 2 1 5 4 3 2 504 3 2 31 4 1 14 1 5645 3 3 2 3 1 3 4 3 4 4 4 2 33 1 3 1692 3 3 3 3 1949 2 5819 3 1467 3 2562 7328 1 5372 1 20 2 1 2 494 5 2 1 4 104 2 1 2 488 4 3 3 3 2 3 2 1469 2 6 4 19 0 1952 4 2 2 49 7348 0 37 0 1 4 6 3 24 1 3 976 5 1 1 2 4 19 3 4 1 4 4 7322 16 1 4 3 3 2950 10263 1971 2 7330 29 1955 1 1 3 1951 2442 3 2 2 4 3 4 4 21 3 1 4 2 2 3433 7929 3914 3 3 342 1 2 27 2 4 1 3 2 2932 6598 980 4 3 3 6 6 3 1950 1963 2443 4 2 1 26 3 2 7 3 4 4 4 4 1969 3 1955 4 490 1951 2442 4 1 3013 4 4 3 3 3 5 3 3 2 4 20 4 3 2 996 1 1 3 3 2934 11 2 3 4 2 3 4 3 5 4 3 1 3 2 4 3 9 4 7 4 2 1 2 1008 2 4 2 4 2 4 360 1 1 4 4 980 4 4 2444 2 3 40 4 17 5 5 5 3 4 2 2 3 1958 2 5 1 3 0 5872 3 2 2927 4 4 2437 6857 3 2 4 3 1 3 5 1 4 5 6 5 0 3891 1 9 2 2 3 3 4 2 1469 2 3 1340 3 1 522 1 0 3 4 1 2 1341 1 4 2 3 1956 3 1 2 2 4 2 2 2923 3 3 86 5 3 3 4 2 2 4 0 4 2 2 982 2 1 2 0 5 0 4 2 4 4 3 3 975 1 14 5 25 2 2444 1 3 4 2 2 6 14 134 2 21514 0 1 2 3 1 1 2 3 3 2019 378 1 1 1361 3 1 4 1 2446 1 4 2 3 1938 2 3 2 1 3 3 1 1 3 4 1 3 4 1 2 0 3908 1 3 4 0 3 454 1961 3 4 3 3 4 1 4 1 2 1 3 3 0 2 3 3 3 6 1 3 3 2 3669 2931 2 2 2 4 1 1 3 1727 2 3 0 3 2 3 2 3 4 2437 16 5863 0 4 1 2198 4 4 26 3 3417 2 4 8431 3 0 2930 1468 3 3 4 3 3 2 1 2 981 2 2 2 3 2 3 1695 5 1955 4 994 2928 1 1197 6835 3 7 7 4 3 3436 2 1559 1954 2 1959 3 254 364 1 1468 1482 16 250 6 3 3 3 6 4 2 2 3 1 3 1 3 2607 0 2 2 4 3 3 513 3 4 2 3914 1 2 3 1465 2 1467 1468 2932 1 1 6360 1 980 2 4 4 1963 492 3 4 5 2929 3 492 3 4492 3 4 8799 4 4 14664 2931 2 1950 1469 5 2 3 0 3 2 3 5 3 2 3 3 11 4 2 164 3420 0 1468 2 1470 167 4 4 4 3 2316 2 731 1 2443 2 3 4 2 3 0 2 2992 0 5374 2 1197 2444 1 6 3 2 0 4 2 4 2457 3 4884 2 2 3 1 3 4 7329 1 3 521 0 4 2 6 1950 980 1 3 1959 2 4 2 2204 3 4 1 24 3 0 2 4 1466 1 3860 2 0 4 1 4 3 2 3 2391 4 395 2440 1 2442 3 1957 221 1950 84 2 4 2 4151 1 205 0 3 1471 4 4 3 3 2 2 2 496 0 3 0 3 5 3189 2 2 759 374 3 7 980 1 2 2 5 2 4 2 133 3 2 3 1 2 203 3 3 2 3 4 2 1 1 3 2 1403 1 4 1 3909 4 2 3 11 4 1 2 3 9 2 4 977 4 981 3 3 3 4 3 2 0 3 4 0 2 1 2 2 4 4 2442 2 2 3 4 1 2 4 3 2 3 3167 5 2 3180 2438 114 2 5 2 2 23 4 4 6 2 5 0 1 2 4 976 2 4 3 2 6 4 4 2550 4 3 0 4 2 0 2 3 0 5 1470 998 1 3 4 2426 4 0 3 2 8 1 4 1 3 2 3849 3 1 2 3 2452 8 3416 3 5 5132 0 1 3 1 4 2 1 0 2 3 4 19 5 2 0 3 4 1473 1 1 1 3 2443 2 1 24 4 3 5 1951 4 0 2447 2 1955 7 1 2 2 1 2 9 1 3 1 3 2 3 1 24 2 199 2 4 2 1 3 1493 4 4 0 
