
*** ChampSim Multicore Out-of-Order Simulator ***

Warmup Instructions: 50000000
Simulation Instructions: 50000000
Number of CPUs: 1
LLC sets: 2048
LLC ways: 16
Off-chip DRAM Size: 4096 MB Channels: 1 Width: 64-bit Data Rate: 6400 MT/s
CPU 0 runs ./micro_traces/srv414.trace.gz
.gz
ITLB has LRU replacement policy
DTLB has LRU replacement policy
STLB has LRU replacement policy
FDIP Prefetcher at L1I
L1I has LRU replacement policy
L1D has LRU replacement policy
Initialize SRRIP state for L2C
Initialize DRRIP state for LLC
Heartbeat CPU 0 instructions: 10000003 cycles: 2796973 heartbeat IPC: 3.57529 cumulative IPC: 3.57529 (Simulation time: 0 hr 2 min 2 sec) 
Heartbeat CPU 0 instructions: 20000000 cycles: 5592664 heartbeat IPC: 3.57693 cumulative IPC: 3.57611 (Simulation time: 0 hr 4 min 8 sec) 
Heartbeat CPU 0 instructions: 30000000 cycles: 8389122 heartbeat IPC: 3.57595 cumulative IPC: 3.57606 (Simulation time: 0 hr 6 min 20 sec) 
Heartbeat CPU 0 instructions: 40000000 cycles: 11186237 heartbeat IPC: 3.57511 cumulative IPC: 3.57582 (Simulation time: 0 hr 8 min 32 sec) 
Heartbeat CPU 0 instructions: 50000000 cycles: 13982894 heartbeat IPC: 3.5757 cumulative IPC: 3.5758 (Simulation time: 0 hr 10 min 38 sec) 

Warmup complete CPU 0 instructions: 50000004 cycles: 13982895 (Simulation time: 0 hr 10 min 38 sec) 

Cycle: 20000000 FTQ IN: 58260323 FTQ occupancy: 19.9139 DECODE IN: 58260286 DECODE occupancy: 51.5725 ROB IN: 58260272 ROB occupancy: 311.03 ROB OUT: 58260177
Heartbeat CPU 0 instructions: 60000001 cycles: 21260243 heartbeat IPC: 1.37413 cumulative IPC: 1.37413 (Simulation time: 0 hr 12 min 59 sec) 
Heartbeat CPU 0 instructions: 70000001 cycles: 28610631 heartbeat IPC: 1.36047 cumulative IPC: 1.36727 (Simulation time: 0 hr 15 min 23 sec) 
Cycle: 30000000 FTQ IN: 13665963 FTQ occupancy: 12.9487 DECODE IN: 13665967 DECODE occupancy: 32.2298 ROB IN: 13665981 ROB occupancy: 225.907 ROB OUT: 13665764
Heartbeat CPU 0 instructions: 80000000 cycles: 35881272 heartbeat IPC: 1.37539 cumulative IPC: 1.36996 (Simulation time: 0 hr 17 min 45 sec) 
Cycle: 40000000 FTQ IN: 13787510 FTQ occupancy: 12.9472 DECODE IN: 13787453 DECODE occupancy: 32.519 ROB IN: 13787393 ROB occupancy: 228.009 ROB OUT: 13787553
Heartbeat CPU 0 instructions: 90000003 cycles: 43247514 heartbeat IPC: 1.35754 cumulative IPC: 1.36684 (Simulation time: 0 hr 19 min 59 sec) 
Cycle: 50000000 FTQ IN: 13535273 FTQ occupancy: 12.9698 DECODE IN: 13535320 DECODE occupancy: 32.3773 ROB IN: 13535380 ROB occupancy: 226.857 ROB OUT: 13535376
Heartbeat CPU 0 instructions: 100000003 cycles: 50550212 heartbeat IPC: 1.36936 cumulative IPC: 1.36734 (Simulation time: 0 hr 22 min 59 sec) 
Finished CPU 0 instructions: 50000003 cycles: 36567318 cumulative IPC: 1.36734 (Simulation time: 0 hr 22 min 59 sec) 

ChampSim completed all CPUs

Region of Interest Statistics

CPU 0 cumulative IPC: 1.36734 instructions: 50000003 cycles: 36567318
 Fetch stage stalled: 52.8344  Sim cycles: 36567318 fetch stall cycle: 19320126
 Empty decode stage: 33.9332  Sim cycles: 36567318 fetch stall cycle: 12408470
ITLB TOTAL     ACCESS:    5742311  HIT:    5249163  MISS:     493148  HIT %:     91.412  MISS %:    8.58797   MPKI: 9.86296
ITLB LOAD TRANSLATION INSTRUCTION	ACCESS:    5607300  HIT:    5114152  MISS:     493148  HIT %:    91.2053  MISS %:    8.79475  MPKI: 9.86296
ITLB TRANSLATION FROM L1D PREFETCHER INSTRUCTION	ACCESS:     135011  HIT:     135011  MISS:          0  HIT %:        100  MISS %:          0  MPKI: 0

ITLB AVERAGE MISS LATENCY: 9.05786 cycles
ITLB RQ	ACCESS:    7808377	FORWARD:          0	MERGED:    1576990	TO_CACHE:    6231387

DTLB TOTAL     ACCESS:    8975218  HIT:    8504350  MISS:     470868  HIT %:    94.7537  MISS %:    5.24631   MPKI: 9.41736
DTLB LOAD TRANSLATION DATA	ACCESS:    8975218  HIT:    8504350  MISS:     470868  HIT %:    94.7537  MISS %:    5.24631  MPKI: 9.41736

DTLB AVERAGE MISS LATENCY: 9.31863 cycles
DTLB RQ	ACCESS:   13343730	FORWARD:          0	MERGED:    4331657	TO_CACHE:    9012073

STLB TOTAL     ACCESS:    1213406  HIT:    1211331  MISS:       2075  HIT %:     99.829  MISS %:   0.171006   MPKI: 0.0415
STLB LOAD TRANSLATION INSTRUCTION	ACCESS:     493148  HIT:     492882  MISS:        266  HIT %:    99.9461  MISS %:  0.0539392  MPKI: 0.00532
STLB LOAD TRANSLATION DATA	ACCESS:     470867  HIT:     469083  MISS:       1784  HIT %:    99.6211  MISS %:   0.378876  MPKI: 0.03568
STLB TRANSLATION FROM L1D PREFETCHER DATA	ACCESS:     249391  HIT:     249366  MISS:         25  HIT %:      99.99  MISS %:  0.0100244  MPKI: 0.0005

STLB AVERAGE MISS LATENCY: 72.2217 cycles
STLB RQ	ACCESS:    1334861	FORWARD:          0	MERGED:     121417	TO_CACHE:    1213444

STLB Hit, L1D data hit: 0
STLB Hit, L2C data hit: 0
STLB Hit, LLC data hit: 0
STLB Hit, LLC data miss: 0
STLB STLB hints to L2: 0
L1D TOTAL     ACCESS:   13095028  HIT:   11981898  MISS:    1113130  HIT %:    91.4996  MISS %:     8.5004   MPKI: 22.2626
L1D LOAD DATA	ACCESS:    6561248  HIT:    5828023  MISS:     733225  HIT %:    88.8249  MISS %:    11.1751  MPKI: 14.6645
L1D RFO DATA	ACCESS:    6203047  HIT:    5918557  MISS:     284490  HIT %:    95.4137  MISS %:    4.58629  MPKI: 5.6898
L1D PREFETCH DATA	ACCESS:     330733  HIT:     235318  MISS:      95415  HIT %:    71.1504  MISS %:    28.8496  MPKI: 1.9083

L1D PREFETCH  REQUESTED:     742034  ISSUED:     742034  USEFUL:      33484  USELESS:      68969
L1D USEFUL LOAD PREFETCHES:      33484 PREFETCH ISSUED TO LOWER LEVEL:     102491  ACCURACY: 32.6702
 TIMELY PREFETCHES:      33484 LATE PREFETCHES: 7043 DROPPED PREFETCHES: 8
L1D AVERAGE MISS LATENCY: 208654 cycles
L1D RQ	ACCESS:   10698586	FORWARD:          0	MERGED:    3935723	TO_CACHE:    6597473
L1D WQ	ACCESS:    6943953	FORWARD:     165734	MERGED:     197696	TO_CACHE:    6746257
L1D PQ	ACCESS:     371189	FORWARD:          0	MERGED:          0	TO_CACHE:     370845

L1D UNIQUE REGIONS ACCESSED: 0
L1D REGIONS CONFLICTS: 0
L1D Cross Page Prefetch Requests: 6927
L1D Same Page Prefetch Requests: 752577
L1D ROI Sum of L1D PQ occupancy: 4710351
L1D PREFETCHES PUSHED FROM L2C: 0
L1I TOTAL     ACCESS:    7019854  HIT:    4259992  MISS:    2759862  HIT %:    60.6849  MISS %:    39.3151   MPKI: 55.1972
L1I LOAD INSTRUCTION	ACCESS:    6383759  HIT:    3623897  MISS:    2759862  HIT %:    56.7674  MISS %:    43.2326  MPKI: 55.1972
L1I PREFETCH INSTRUCTION	ACCESS:     636095  HIT:     636095  MISS:          0  HIT %:        100  MISS %:          0  MPKI: 0

L1I PREFETCH  REQUESTED:    1537268  ISSUED:    1537268  USEFUL:          0  USELESS:          0
L1I USEFUL LOAD PREFETCHES:          0 PREFETCH ISSUED TO LOWER LEVEL:          0  ACCURACY: -nan
 TIMELY PREFETCHES:          0 LATE PREFETCHES: 0 DROPPED PREFETCHES: 0
L1I AVERAGE MISS LATENCY: 17.8956 cycles
L1I RQ	ACCESS:    9532183	FORWARD:          0	MERGED:    2845578	TO_CACHE:    6686605
L1I PQ	ACCESS:    1537268	FORWARD:          0	MERGED:     415496	TO_CACHE:    1121772

L1BTB TOTAL     ACCESS:    5673049  HIT:    2048332  MISS:    3624717  HIT %:    36.1064  MISS %:    63.8936   MPKI: 72.4943
L1BTB BRANCH_DIRECT_JUMP	ACCESS:     549120  HIT:     145126  MISS:     403994	AVERAGE STALL: 54.0159
L1BTB BRANCH_INDIRECT	ACCESS:     183529  HIT:      66302  MISS:     117227	AVERAGE STALL: 107.876
L1BTB BRANCH_CONDITIONAL	ACCESS:    2715302  HIT:    1423230  MISS:    1292072	AVERAGE STALL: 62.8529
L1BTB BRANCH_DIRECT_CALL	ACCESS:     941489  HIT:     104384  MISS:     837105	AVERAGE STALL: 73.2684
L1BTB BRANCH_INDIRECT_CALL	ACCESS:     171058  HIT:      20733  MISS:     150325	AVERAGE STALL: 139.754
L1BTB BRANCH_RETURN	ACCESS:    1112551  HIT:     288557  MISS:     823994	AVERAGE STALL: 50.4987
L1BTB BRANCH_OTHER ACCESS:          0  HIT:          0  MISS:          0	AVERAGE STALL: -nan
L1BTB TOTAL ROB OCCUPANCY AT BTB MISS: 5.45844

L2BTB TOTAL     ACCESS:    3599220  HIT:    3485895  MISS:     113325  HIT %:    96.8514  MISS %:     3.1486   MPKI: 2.2665
L2BTB BRANCH_DIRECT_JUMP	ACCESS:     399792  HIT:     389800  MISS:       9992	AVERAGE STALL: 54.0159
L2BTB BRANCH_INDIRECT	ACCESS:     106926  HIT:     103514  MISS:       3412	AVERAGE STALL: 107.876
L2BTB BRANCH_CONDITIONAL	ACCESS:    1292072  HIT:    1268767  MISS:      23305	AVERAGE STALL: 62.8529
L2BTB BRANCH_DIRECT_CALL	ACCESS:     837105  HIT:     819943  MISS:      17162	AVERAGE STALL: 73.2684
L2BTB BRANCH_INDIRECT_CALL	ACCESS:     140736  HIT:     128921  MISS:      11815	AVERAGE STALL: 139.754
L2BTB BRANCH_RETURN	ACCESS:     822589  HIT:     774950  MISS:      47639	AVERAGE STALL: 50.4987
L2BTB BRANCH_OTHER ACCESS:          0  HIT:          0  MISS:          0	AVERAGE STALL: -nan
L2BTB TOTAL ROB OCCUPANCY AT BTB MISS: 174.589

L2C TOTAL     ACCESS:    4484729  HIT:    3924469  MISS:     560260  HIT %:    87.5074  MISS %:    12.4926   MPKI: 11.2052
L2C LOAD INSTRUCTION	ACCESS:    2759862  HIT:    2443011  MISS:     316851  HIT %:    88.5193  MISS %:    11.4807  MPKI: 6.33702
L2C LOAD TRANSLATION INSTRUCTION	ACCESS:        297  HIT:         58  MISS:        239  HIT %:    19.5286  MISS %:    80.4714  MPKI: 0.00478
L2C LOAD DATA	ACCESS:     726160  HIT:     638729  MISS:      87431  HIT %:    87.9598  MISS %:    12.0402  MPKI: 1.74862
L2C RFO DATA	ACCESS:     284409  HIT:     226888  MISS:      57521  HIT %:    79.7753  MISS %:    20.2247  MPKI: 1.15042
L2C PREFETCH DATA	ACCESS:     192453  HIT:     116006  MISS:      76447  HIT %:    60.2776  MISS %:    39.7224  MPKI: 1.52894
L2C WRITEBACK DATA	ACCESS:     519636  HIT:     499123  MISS:      20513  HIT %:    96.0524  MISS %:    3.94757  MPKI: 0.41026
L2C LOAD TRANSLATION DATA	ACCESS:       1865  HIT:        623  MISS:       1242  HIT %:    33.4048  MISS %:    66.5952  MPKI: 0.02484
L2C TRANSLATION FROM L1D PREFETCHER DATA	ACCESS:         47  HIT:         31  MISS:         16  HIT %:    65.9574  MISS %:    34.0426  MPKI: 0.00032

L2C PREFETCH  REQUESTED:      99218  ISSUED:      99218  USEFUL:       9539  USELESS:      67647
L2C USEFUL LOAD PREFETCHES:       9539 PREFETCH ISSUED TO LOWER LEVEL:      77193  ACCURACY: 12.3573
 TIMELY PREFETCHES:       9539 LATE PREFETCHES: 746 DROPPED PREFETCHES: 0
L2C AVERAGE MISS LATENCY: 36.8152 cycles
L2C RQ	ACCESS:    3772709	FORWARD:          0	MERGED:          0	TO_CACHE:    3772640
L2C WQ	ACCESS:     519636	FORWARD:         69	MERGED:          0	TO_CACHE:     519636
L2C PQ	ACCESS:     201709	FORWARD:          0	MERGED:       3238	TO_CACHE:     198471

L2C Dense regions hint from L2: 0
PSCL5 TOTAL     ACCESS:       4170  HIT:       2085  MISS:       2085  HIT %:         50  MISS %:         50   MPKI: 0.0417
PSCL5 LOAD TRANSLATION INSTRUCTION	ACCESS:       4078  HIT:       2039  MISS:       2039  HIT %:         50  MISS %:         50  MPKI: 0.04078
PSCL5 TRANSLATION FROM L1D PREFETCHER INSTRUCTION	ACCESS:         92  HIT:         46  MISS:         46  HIT %:         50  MISS %:         50  MPKI: 0.00092


PSCL4 TOTAL     ACCESS:       3952  HIT:       1971  MISS:       1981  HIT %:    49.8735  MISS %:    50.1265   MPKI: 0.03962
PSCL4 LOAD TRANSLATION INSTRUCTION	ACCESS:       2529  HIT:       1926  MISS:        603  HIT %:    76.1566  MISS %:    23.8434  MPKI: 0.01206
PSCL4 TRANSLATION FROM L1D PREFETCHER INSTRUCTION	ACCESS:         59  HIT:         45  MISS:         14  HIT %:    76.2712  MISS %:    23.7288  MPKI: 0.00028
PSCL4 LOAD TRANSLATION DATA	ACCESS:       1333  HIT:          0  MISS:       1333  HIT %:          0  MISS %:        100  MPKI: 0.02666
PSCL4 TRANSLATION FROM L1D PREFETCHER DATA	ACCESS:         31  HIT:          0  MISS:         31  HIT %:          0  MISS %:        100  MPKI: 0.00062


PSCL3 TOTAL     ACCESS:       3956  HIT:       1973  MISS:       1983  HIT %:    49.8736  MISS %:    50.1264   MPKI: 0.03966
PSCL3 LOAD TRANSLATION INSTRUCTION	ACCESS:       2531  HIT:       1928  MISS:        603  HIT %:    76.1754  MISS %:    23.8246  MPKI: 0.01206
PSCL3 TRANSLATION FROM L1D PREFETCHER INSTRUCTION	ACCESS:         59  HIT:         45  MISS:         14  HIT %:    76.2712  MISS %:    23.7288  MPKI: 0.00028
PSCL3 LOAD TRANSLATION DATA	ACCESS:       1335  HIT:          0  MISS:       1335  HIT %:          0  MISS %:        100  MPKI: 0.0267
PSCL3 TRANSLATION FROM L1D PREFETCHER DATA	ACCESS:         31  HIT:          0  MISS:         31  HIT %:          0  MISS %:        100  MPKI: 0.00062


PSCL2 TOTAL     ACCESS:       4064  HIT:       1979  MISS:       2085  HIT %:    48.6959  MISS %:    51.3041   MPKI: 0.0417
PSCL2 LOAD TRANSLATION INSTRUCTION	ACCESS:       2200  HIT:       1934  MISS:        266  HIT %:    87.9091  MISS %:    12.0909  MPKI: 0.00532
PSCL2 TRANSLATION FROM L1D PREFETCHER INSTRUCTION	ACCESS:         45  HIT:         45  MISS:          0  HIT %:        100  MISS %:          0  MPKI: 0
PSCL2 LOAD TRANSLATION DATA	ACCESS:       1774  HIT:          0  MISS:       1774  HIT %:          0  MISS %:        100  MPKI: 0.03548
PSCL2 TRANSLATION FROM L1D PREFETCHER DATA	ACCESS:         45  HIT:          0  MISS:         45  HIT %:          0  MISS %:        100  MPKI: 0.0009


LLC TOTAL     ACCESS:     627033  HIT:     599048  MISS:      27985  HIT %:    95.5369  MISS %:    4.46308   MPKI: 0.5597
LLC LOAD INSTRUCTION	ACCESS:     316851  HIT:     315910  MISS:        941  HIT %:     99.703  MISS %:   0.296985  MPKI: 0.01882
LLC LOAD TRANSLATION INSTRUCTION	ACCESS:        239  HIT:        205  MISS:         34  HIT %:    85.7741  MISS %:    14.2259  MPKI: 0.00068
LLC LOAD DATA	ACCESS:      86774  HIT:      83259  MISS:       3515  HIT %:    95.9492  MISS %:    4.05075  MPKI: 0.0703
LLC RFO DATA	ACCESS:      57401  HIT:      44140  MISS:      13261  HIT %:    76.8976  MISS %:    23.1024  MPKI: 0.26522
LLC PREFETCH DATA	ACCESS:      77190  HIT:      67393  MISS:       9797  HIT %:    87.3079  MISS %:    12.6921  MPKI: 0.19594
LLC WRITEBACK DATA	ACCESS:      87320  HIT:      86975  MISS:        345  HIT %:    99.6049  MISS %:   0.395098  MPKI: 0.0069
LLC LOAD TRANSLATION DATA	ACCESS:       1242  HIT:       1150  MISS:         92  HIT %:    92.5926  MISS %:    7.40741  MPKI: 0.00184
LLC TRANSLATION FROM L1D PREFETCHER DATA	ACCESS:         16  HIT:         16  MISS:          0  HIT %:        100  MISS %:          0  MPKI: 0

LLC AVERAGE MISS LATENCY: 157.205 cycles
LLC RQ	ACCESS:     462554	FORWARD:          0	MERGED:          0	TO_CACHE:     462523
LLC WQ	ACCESS:      87320	FORWARD:         34	MERGED:          0	TO_CACHE:      87320
LLC PQ	ACCESS:      77193	FORWARD:          0	MERGED:          0	TO_CACHE:      77190

LLC Dense regions hint to LLC: 0

RAW hits: 1936618
Loads Generated: 12635204
Loads sent to L1D: 10698586
Stores Generated: 6943942
Stores sent to L1D: 6943953
Major fault: 0 Minor fault: 2570
Allocated PAGES: 2570

stream: 
stream:times selected: 1193964
stream:pref_filled: 123540
stream:pref_useful: 24205
stream:pref_late: 6745
stream:misses: 8177
stream:misses_by_poll: 0

CS: 
CS:times selected: 179069
CS:pref_filled: 61068
CS:pref_useful: 37651
CS:pref_late: 6345
CS:misses: 15161
CS:misses_by_poll: 11

CPLX: 
CPLX:times selected: 1013593
CPLX:pref_filled: 19542
CPLX:pref_useful: 4509
CPLX:pref_late: 3162
CPLX:misses: 92543
CPLX:misses_by_poll: 3

NL_L1: 
NL:times selected: 21618
NL:pref_filled: 686
NL:pref_useful: 302
NL:pref_late: 338
NL:misses: 1844
NL:misses_by_poll: 0

total selections: 2408244
total_filled: 95415
total_useful: 33484
total_late: 17688
total_polluted: 14
total_misses_after_warmup: 769451
conflicts: 5517374

test: 118797

DRAM Statistics
 CHANNEL 0
 RQ ROW_BUFFER_HIT:       9930  ROW_BUFFER_MISS:      17708
 DBUS_CONGESTED:         17
 WQ ROW_BUFFER_HIT:       1495  ROW_BUFFER_MISS:      12471  FULL:          0

 AVG_CONGESTED_CYCLE: 5

CPU 0 Branch Prediction Accuracy: 99.8127% MPKI: 0.34248 Average ROB Occupancy at Mispredict: 180.651
Branch types
NOT_BRANCH: 40854756 81.7095%
BRANCH_DIRECT_JUMP: 549120 1.09824%
BRANCH_INDIRECT: 183529 0.367058%
BRANCH_CONDITIONAL: 6186993 12.374%
BRANCH_DIRECT_CALL: 941489 1.88298%
BRANCH_INDIRECT_CALL: 171058 0.342116%
BRANCH_RETURN: 1112551 2.2251%
BRANCH_OTHER: 0 0%

DRAM PAGES: 1048576
Allocated PAGES: 2570
Average_ROB_Occupancy: 227.609
Average_Decode_Occupancy: 32.2823
Average_FTQ_Occupancy: 12.9143
Indirect max targets: 14 Average targets: 1.16054
Branch_type:  BRANCH_DIRECT_JUMP:  Count Percentage: 3.67714 5.37838 4.25626 8.92568 5.66069 3.12611 1.70654 67.2692 
Branch_type:  BRANCH_INDIRECT:  Count Percentage: 11.7384 3.47967 2.59012 3.7202 3.33814 2.80501 1.99481 70.3336 
Branch_type:  BRANCH_CONDITIONAL:  Count Percentage: 21.7072 2.46025 1.9316 4.05815 2.97081 6.20143 0.904932 59.7656 
Branch_type:  BRANCH_DIRECT_CALL:  Count Percentage: 0.390629 1.74031 0.752653 3.8897 3.52927 2.36212 0.609896 86.7254 
Branch_type:  BRANCH_INDIRECT_CALL:  Count Percentage: 9.56145 0 2.99768 4.27258 0.000292542 2.04282 1.00137 80.1238 
Branch_type:  BRANCH_RETURN:  Count Percentage: 3.9125 1.99007 1.04197 3.16921 4.59426 6.99059 1.23621 77.0652 
Branch_type:  BRANCH_DIRECT_JUMP:  Total Count: 40300 58945 46647 97822 62039 34261 18703 737244 
Branch_type:  BRANCH_INDIRECT:  Total Count: 43045 12760 9498 13642 12241 10286 7315 257914 
Branch_type:  BRANCH_CONDITIONAL:  Total Count: 2683836 304180 238819 501741 367305 766732 111884 7389299 
Branch_type:  BRANCH_DIRECT_CALL:  Total Count: 7347 32732 14156 73158 66379 44427 11471 1631143 
Branch_type:  BRANCH_INDIRECT_CALL:  Total Count: 32684 0 10247 14605 1 6983 3423 273888 
Branch_type:  BRANCH_RETURN:  Total Count: 86994 44249 23168 70467 102153 155435 27487 1713537 
Number of unique branch instructions: 10261
Upper 32 bits: 
aaaa
ffff
ffff0000
Unique upper 32 bits: 3
Unique upper 36 bits: 3
Unique upper 40 bits: 5
Unique upper 44 bits: 32
Unique upper 48 bits: 154
Offset_3 4234
Offset_4 256
Offset_5 477
Offset_6 526
Offset_7 610
Offset_8 531
Offset_9 493
Offset_10 400
Offset_11 331
Offset_12 293
Offset_13 217
Offset_14 236
Offset_15 192
Offset_16 232
Offset_17 152
Offset_18 127
Offset_19 243
Offset_20 142
Offset_21 249
Offset_22 406
Offset_23 242
Offset_24 350
Offset_25 96
Offset_47 85
Offset_64 1
decode_dispatch_called: 24422765 66.7885
Dispatch_width: 0 13101857 53.6461 35.8294
Dispatch_width: 1 819585 3.35582 2.2413
Dispatch_width: 2 750543 3.07313 2.0525
Dispatch_width: 3 433325 1.77427 1.18501
Dispatch_width: 4 4688065 19.1955 12.8204
Dispatch_width: 5 149569 0.612416 0.409024
Dispatch_width: 6 4479821 18.3428 12.2509
Empty_decode_cycles: 12144553 33.2115
ROB_full_cycles: 7660923 20.9502
Starvation_cycles_per_kilo_instr: 244.266
Starvation_cycles_per_kilo_instr_3: 195.889
Starvation_cycles_per_kilo_instr_0: 175.855
Branch_type_1  (3,1)  (4,9)  (5,38)  (6,73)  (7,121)  (8,134)  (9,130)  (10,102)  (11,77)  (12,51)  (13,9)  (14,2)  (15,3)  (16,4)  (18,1)  (19,4)  (20,2)  (21,1)  (22,3)  (23,2)  (24,10)  (25,13)  (64,1) 
Branch_type_2  (3,1)  (5,1)  (8,3)  (9,3)  (12,1)  (13,1)  (14,1)  (16,3)  (17,2)  (20,2)  (21,2)  (23,5)  (24,1)  (47,39) 
Branch_type_3  (3,4232)  (4,247)  (5,434)  (6,437)  (7,459)  (8,331)  (9,273)  (10,162)  (11,138)  (12,58)  (13,8)  (24,1) 
Branch_type_4  (6,3)  (7,8)  (8,25)  (9,53)  (10,64)  (11,60)  (12,100)  (13,92)  (14,105)  (15,91)  (16,104)  (17,67)  (18,59)  (19,120)  (20,74)  (21,135)  (22,217)  (23,137)  (24,204)  (25,79) 
Branch_type_5  (8,2)  (9,1)  (10,4)  (11,5)  (12,3)  (13,14)  (14,16)  (15,11)  (16,20)  (17,13)  (18,16)  (19,12)  (20,11)  (21,13)  (22,42)  (23,26)  (24,37) 
Branch_type_6  (5,4)  (6,13)  (7,22)  (8,36)  (9,33)  (10,68)  (11,51)  (12,80)  (13,93)  (14,112)  (15,87)  (16,101)  (17,70)  (18,51)  (19,107)  (20,53)  (21,98)  (22,144)  (23,72)  (24,97)  (25,4)  (47,46) 
aaaaab1fc620: 2ac9e77e 2aca25ac 2aca717c 2aca8eff 2acaf6bc 2acaf9aa 2acaf9f1 2acb1abc 2acb1b7f 2acd4e22 2acdb712 2acf2c20 2acf5f9e 2ad0ef44 2ad3f15c 2ad414e6 2ad60e42 2ad8609c 2ad99830 2ada35cc 2ada4676 2ada6612 2adf183e 2adf30e5 2adf5602 2adf785c 2ae11572 2aeb2dcf 2aee101b 2aee1ae1 2aee9456 2b156a8c 2b156b61 2b156bea 2b167f35 2b177656 2b17feec 2b1a3e5a 
aaaaab1fc740: 2aca1fb0 2aca45b3 2aca5aa1 2aca5c69 2aca66f9 2aca9426 2acaeecb 2acf3d2d 2acf3d64 2acf6089 2ad017ea 2ad5e7ef 2ad61064 2ad87373 2ad9bf84 2ad9c093 2ae9b606 2aea9ffa 2aee99f5 2aee9a2c 2aeece4b 
aaaaab1fcb00: 2acf2d72 2acf3277 2acf32fe 2acf3734 2acf604c 2acfa5b7 2ad397b5 2ad3b800 2ae8af7d 2ae8aff0 2ae9aaba 2aea9fc6 2aeaa358 2aee910b 2aee91cf 2aee99de 2af6fe87 2af70dfe 2b16850c 2b178094 
aaaaab1fcb10: 2acf2d95 2acf32a8 2acf331b 2acf3758 2acf6052 2acfa5f4 2ad397c3 2ad3b81c 2ae8af88 2ae8affe 2ae9aacf 2aeaa017 2aeaa36d 2aee9114 2aee91d8 2aee9a14 2af6fe8c 2af70e22 2b168526 2b1780a3 
aaaaac68f310: 2ac9ec8c 2ac9fb44 2ac9fbd2 2aca29c5 2aca59ab 2acac04c 2acaf6e0 2acaf6ec 2acaf6f9 2acaf700 2acaf708 2acf2d90 2acf3361 2acf338f 2acf3396 2ad3cfbd 2ad3cfc4 2ad3d000 2ad3f35f 2ad3f39d 2ad3f3da 2ad41585 2ad4955d 2ad49571 2ad4f3f2 2ad4f400 2ad5f240 2ad5f37c 2ad5f86a 2ad5f86f 2ad5f880 2ad5fc0d 2ad5fc14 2ad5fc21 2ad5fe1b 2ad873bb 2ad873e3 2ad8a6b2 2ad9086e 2ad93096 2ad9bbb2 2ada152c 2ada1554 2ada3332 2ada5522 2adf3130 2adf313c 2adf3a3f 2adf3bd9 2adf5788 2adf7a8d 2ae07f6b 2ae0857a 2ae0857e 2ae08630 2ae08634 2ae08637 2ae08642 2ae0866f 2ae086e4 2ae086ec 2ae08717 2ae0871b 2aee0170 2aee1d38 2aee75f4 2aee7662 2aee85ca 2aee85e4 2aee8eef 2aee9a0a 2af70b84 2af74e8f 2b17d843 
aaaaac690ef0: 2aca298e 2aca598b 2acb111b 2acb175f 2acb1772 2acbfaf4 2acbfb00 2acf374f 2acf6d43 2acfa5c8 2ad3baf1 2ad3d4ac 2ad3d4b8 2ad3f1cf 2ad486b2 2ad5a59b 2ad5fc64 2ad5fcf9 2ad6121c 2ad906e9 2ad907bf 2ad9bada 2ada16ce 2ada1ad5 2ada43df 2ada64c0 2ada72ee 2adeb71a 2adf3bcb 2adf7a38 2adf7c6a 2adf8872 2adf8880 2adf9959 2adf9abe 2ae07f78 2ae08503 2ae08754 2ae12e80 2aea3bea 2aecb509 2aee00b0 2aee2bdd 2aee5467 2aee5601 2aee8f20 2af703fd 2af7048b 2af74e74 2dfba627 
Unique trigger count: 
1 9768
2 542
3 99
4 32
5 12
6 6
7 8
8 1
9 3
10 2
11 2
12 1
13 2
14 1
16 2
19 2
20 2
21 1
38 1
50 1
74 1
BTB PER SET UNIQUE ADDR: 1 2 2 2 0 0 1 1 3 0 2 0 1 1 0 1 2 1 1 2 0 1 1 2 1 2 2 2 1 2 2 2 2 1 2 0 0 3 4 0 1 2 2 3 1 0 2 1 4 1 1 1 2 0 0 2 3 3 1 1 1 2 2 2 0 4 5 0 2 2 5 1 1 2 1 1 2 6 2 1 1 1 1 4 3 1 1 4 3 2 3 3 2 3 3 0 1 3 0 1 3 2 2 3 3 2 1 1 3 0 1 2 3 2 1 3 1 2 1 0 3 2 2 0 1 1 1 1 2 3 3 0 1 0 2 1 0 0 1 2 2 2 2 0 0 0 1 3 3 2 1 6 1 2 1 1 0 3 1 1 0 0 0 1 2 3 0 1 5 1 1 2 2 1 1 0 1 1 3 1 1 3 5 2 2 2 2 0 1 1 5 1 1 2 2 1 1 1 0 1 2 1 1 0 0 0 1 0 0 0 0 2 2 1 2 1 0 2 1 0 0 0 1 3 2 0 2 2 0 2 5 3 1 2 1 2 2 0 1 1 1 0 1 1 6 2 1 1 3 1 1 1 1 1 0 4 2 2 2 2 3 3 2 2 2 4 3 0 2 1 2 2 1 2 2 2 1 0 3 2 2 2 1 1 2 3 2 1 1 1 0 0 1 2 0 1 3 2 0 1 2 2 1 1 2 2 3 2 3 3 2 1 2 2 3 0 2 2 1 1 1 2 2 2 0 2 1 3 0 0 3 0 2 2 3 1 1 3 4 0 3 0 0 1 1 2 1 2 0 2 1 3 2 2 2 2 1 0 3 0 0 2 1 2 3 2 1 0 0 0 3 1 2 0 1 2 2 1 2 3 0 0 1 3 0 0 2 1 2 1 1 2 2 2 2 0 3 0 0 2 3 1 3 1 1 0 2 3 0 1 0 1 1 1 1 0 3 1 1 2 1 1 2 2 1 3 0 0 1 3 1 0 5 2 3 3 2 1 0 0 0 4 3 3 2 1 1 3 1 1 3 0 0 0 3 0 1 3 2 1 3 0 4 2 0 0 1 0 1 3 0 1 1 1 2 1 0 1 0 0 0 1 1 2 0 2 2 0 2 1 2 1 1 2 0 3 1 1 3 0 3 0 0 1 0 2 1 0 0 2 3 2 2 2 2 0 1 3 1 4 1 1 3 1 3 2 0 3 3 1 4 1 2 2 1 4 0 0 3 0 0 4 3 0 5 1 5 3 4 4 1 3 3 3 0 1 1 0 1 1 7 0 1 2 1 0 0 1 2 4 4 0 1 5 2 0 0 1 0 0 0 1 0 0 1 0 0 4 2 2 2 3 0 1 1 2 2 0 1 1 0 0 1 3 1 1 1 1 3 0 2 1 3 1 2 0 2 0 2 1 3 1 3 0 2 1 1 2 1 0 3 1 0 1 2 1 0 0 1 1 5 1 3 3 0 0 2 0 2 1 1 1 3 1 1 0 3 0 1 3 2 3 3 3 2 1 1 2 0 0 4 1 2 0 4 2 0 2 4 2 1 0 2 2 2 1 1 2 3 1 0 3 1 1 1 3 3 3 2 2 0 2 0 2 1 1 0 1 0 0 1 2 0 1 2 0 1 1 0 2 1 0 1 1 0 1 1 1 0 3 3 2 1 0 1 1 4 1 1 0 1 3 1 2 1 1 2 2 1 3 0 0 1 3 0 1 2 3 2 0 2 1 0 2 1 1 4 1 0 0 2 2 0 0 1 2 3 1 1 1 2 1 0 0 3 3 3 3 0 0 1 3 0 0 2 3 3 1 1 0 2 2 1 2 1 1 1 4 0 2 0 2 1 0 2 1 1 0 0 3 3 0 1 0 2 1 1 1 1 4 1 1 2 1 3 0 1 0 3 2 0 1 0 1 0 2 3 2 3 0 2 0 3 1 2 2 0 0 1 1 0 0 0 1 4 1 1 0 2 0 1 1 1 2 1 0 2 2 3 1 2 1 1 0 0 0 1 2 0 0 2 0 1 2 1 1 4 0 1 1 1 0 1 1 1 3 0 1 0 4 3 3 0 0 1 2 0 1 1 2 4 1 3 1 2 0 3 0 2 1 3 1 4 2 2 1 1 2 0 1 1 1 0 3 2 2 1 2 1 1 1 1 4 1 1 0 4 2 2 1 2 1 2 2 2 4 8 2 2 2 1 1 0 2 2 1 3 4 1 2 3 2 1 4 1 1 1 1 2 1 3 1 1 2 2 1 2 2 1 4 0 1 2 1 2 3 3 2 0 1 2 0 3 0 1 2 3 2 1 3 3 1 7 4 0 2 2 1 1 1 3 4 2 1 3 0 0 1 1 0 2 0 1 3 0 2 4 1 3 3 0 1 3 2 1 3 2 1 2 1 0 1 2 0 2 0 1 2 3 3 1 4 3 2 0 1 7 0 1 1 1 1 2 2 1 4 3 3 3 3 1 4 2 2 1 0 4 0 1 2 1 5 1 0 4 1 1 1 2 1 1 2 3 3 2 2 2 1 1 3 4 2 1 2 1 1 3 2 1 4 1 2 2 1 3 3 0 1 4 1 0 2 1 0 1 2 1 1 1 2 1 3 2 0 1 1 3 2 1 0 2 0 0 3 2 1 2 2 1 4 0 1 4 0 3 1 1 2 2 4 2 4 0 6 4 0 2 1 2 0 0 1 3 0 1 1 2 4 1 0 0 2 3 1 1 2 0 0 1 4 1 4 2 2 0 2 0 0 2 4 6 0 4 1 0 1 2 1 4 0 2 3 2 1 1 1 0 4 1 3 0 1 2 5 3 1 2 2 0 3 4 3 1 3 3 2 0 0 3 3 4 1 2 2 1 1 3 2 3 1 1 1 1 2 5 3 4 0 0 2 1 1 2 1 3 0 0 1 2 3 2 0 3 1 1 0 1 1 5 0 1 1 0 4 2 0 2 1 3 2 1 1 2 1 2 2 0 3 2 1 0 3 1 1 2 2 1 1 0 2 1 1 1 2 1 2 3 1 1 2 0 1 3 0 2 2 0 1 1 1 2 2 1 0 2 0 1 1 2 2 1 1 1 1 1 4 1 3 2 1 2 0 1 2 1 3 2 3 1 2 1 2 0 1 3 2 3 1 4 2 1 0 1 2 3 1 1 1 3 0 5 2 1 3 1 0 3 3 1 1 1 3 0 2 2 1 1 1 2 2 0 1 1 4 2 1 2 2 0 2 1 0 1 2 1 1 1 0 0 2 1 0 1 1 0 2 1 3 4 1 1 0 1 1 1 0 1 0 0 4 1 0 1 1 0 1 1 0 0 0 0 0 0 1 0 0 2 0 2 0 2 1 2 0 1 0 0 4 1 0 2 1 3 2 1 0 1 2 1 0 2 0 1 1 1 1 1 0 2 0 3 1 0 1 4 1 0 1 0 3 1 2 2 1 2 2 3 2 0 1 1 0 1 0 4 0 1 1 0 0 0 1 0 1 1 0 1 2 2 1 1 1 2 2 1 1 1 0 0 2 1 0 0 1 2 1 2 1 0 1 1 4 3 0 0 1 2 1 0 0 3 1 3 0 2 1 2 2 1 2 3 3 5 0 1 1 2 2 1 5 3 3 2 3 4 0 0 2 2 1 1 2 1 1 2 0 2 1 0 1 2 0 1 1 3 1 2 2 3 1 0 1 4 0 2 3 2 2 2 1 3 3 1 1 1 2 2 2 1 5 2 1 1 1 1 3 3 1 1 1 1 0 2 1 2 3 0 0 1 1 0 3 3 1 0 2 3 0 1 2 2 1 1 2 1 0 0 3 2 1 0 0 0 2 1 0 2 2 4 3 2 1 4 1 2 7 3 2 3 2 1 3 3 1 1 1 1 0 0 2 3 1 2 0 0 4 4 2 2 2 0 0 1 2 2 2 2 1 2 2 1 1 0 2 0 1 2 1 0 0 0 1 0 1 2 0 3 0 3 1 2 0 3 2 1 4 0 3 0 0 0 1 1 1 5 0 1 1 0 1 2 1 1 1 0 1 1 1 1 1 2 2 3 0 3 0 0 1 2 1 1 6 1 0 2 1 3 2 1 2 5 1 3 3 0 2 0 3 2 4 5 0 3 1 5 0 4 0 3 2 3 2 1 1 1 1 1 2 0 2 0 1 3 3 2 1 4 3 2 2 4 0 2 0 3 1 3 2 2 2 2 1 0 2 3 2 1 0 1 2 0 0 0 1 0 1 1 2 0 2 2 1 3 1 2 1 2 2 3 0 1 2 2 1 0 2 2 2 2 0 0 1 0 0 1 0 0 1 1 1 2 1 1 2 0 0 0 2 1 1 1 1 2 1 2 2 2 0 2 1 0 2 1 2 1 2 1 0 1 0 3 1 0 1 2 1 3 2 2 2 0 2 0 1 0 0 2 2 0 4 2 4 0 2 2 5 1 0 0 1 4 2 2 0 1 0 3 1 0 0 2 3 1 6 2 0 3 0 1 1 2 1 2 1 0 2 0 1 2 3 1 0 0 4 4 1 0 0 2 3 1 0 3 3 1 0 3 3 0 1 1 4 0 0 0 2 1 0 3 0 1 0 2 2 2 0 2 1 2 1 2 1 0 2 4 2 3 0 2 2 1 0 1 0 2 1 1 0 0 0 4 3 1 2 1 1 4 2 3 3 2 1 3 3 0 2 2 1 4 4 2 2 2 2 1 3 2 3 3 2 1 4 5 2 2 2 2 2 2 1 2 1 0 2 1 0 2 2 0 2 0 1 1 0 1 2 1 3 0 0 0 2 1 2 1 1 0 2 1 1 0 0 0 2 1 1 0 2 3 1 2 3 0 0 2 2 1 2 2 1 1 0 1 0 0 1 1 2 1 1 0 5 1 3 1 3 3 1 2 2 0 0 0 1 2 0 4 3 2 2 3 2 3 2 2 1 3 1 3 1 1 2 1 4 1 2 1 2 2 3 3 3 2 0 3 1 2 1 4 5 4 3 3 1 2 1 4 0 2 0 2 1 0 2 2 5 2 1 2 1 1 1 2 4 1 1 1 2 1 2 2 2 3 3 2 2 3 5 1 1 3 1 3 3 1 4 2 1 4 2 3 3 1 1 3 3 3 0 1 1 1 1 1 2 1 1 0 1 3 1 2 1 2 1 1 2 0 1 0 0 5 2 4 5 0 0 1 2 2 1 0 3 3 2 1 2 2 1 1 1 2 0 1 2 0 1 2 1 1 0 2 1 2 0 0 1 0 1 2 0 5 1 3 2 1 2 0 0 0 3 0 3 1 0 2 1 2 1 1 1 0 1 1 0 1 0 3 2 1 0 1 0 2 2 4 4 1 1 2 5 1 3 2 0 0 3 1 1 1 1 0 3 2 1 1 0 1 0 1 0 1 3 3 0 0 1 3 1 2 3 2 1 3 1 1 0 1 1 2 3 1 2 3 3 0 1 2 1 0 1 0 4 3 2 1 2 1 1 5 3 0 2 3 2 3 1 3 1 4 2 2 0 1 1 2 0 1 2 2 1 1 1 2 4 2 0 1 0 1 2 4 2 1 3 3 2 0 1 0 0 1 2 2 0 2 0 1 1 1 2 4 1 2 2 1 2 3 0 2 0 2 1 2 5 1 1 2 1 2 3 1 3 2 1 0 1 5 1 0 3 1 4 1 3 3 2 2 0 0 3 4 1 0 0 4 4 1 1 2 0 1 0 0 3 1 0 3 0 2 1 2 2 1 3 2 2 0 1 2 1 1 0 2 0 2 2 2 1 1 0 0 4 0 1 1 2 3 1 2 4 1 1 3 4 0 3 3 2 1 2 1 4 2 0 1 2 1 1 2 1 4 2 0 1 2 0 2 5 2 3 1 3 1 2 2 1 2 2 1 2 4 0 1 1 4 1 0 4 0 3 3 3 1 2 3 2 1 5 4 1 1 0 0 0 0 5 3 1 3 4 1 0 1 1 2 3 3 1 5 3 3 4 3 3 3 3 0 2 3 1 0 2 0 2 0 0 1 0 2 3 3 2 0 2 1 3 1 3 2 3 4 1 3 1 2 3 1 1 3 0 1 1 0 0 2 3 1 4 3 1 2 1 2 1 1 3 1 0 3 0 2 1 4 3 4 2 1 4 1 2 3 3 1 5 3 2 0 1 3 2 3 0 3 2 4 2 2 2 1 2 1 1 1 0 3 1 3 2 0 4 0 1 2 1 3 0 3 1 2 2 3 0 0 1 6 1 0 1 1 0 0 0 1 0 0 3 2 1 3 3 1 1 1 4 0 2 1 2 0 1 1 2 1 1 1 1 2 0 0 2 0 1 2 1 0 3 3 1 2 2 1 3 4 3 5 1 2 2 2 1 0 3 2 2 2 1 1 2 3 3 0 3 5 3 0 1 0 2 1 1 2 1 2 4 4 1 2 2 4 1 4 1 3 3 2 1 2 1 1 1 3 0 2 2 0 2 0 1 1 2 3 2 0 1 1 2 3 0 2 0 1 1 2 3 1 2 2 0 2 0 3 2 1 3 3 2 2 2 4 2 2 3 2 3 4 2 3 4 2 6 2 0 5 2 2 4 3 4 1 3 2 4 3 0 0 1 2 3 1 5 3 5 5 3 1 0 2 4 2 2 2 2 2 0 2 3 0 0 4 2 1 2 3 2 4 4 3 1 2 1 0 3 0 4 0 1 5 0 2 4 2 2 2 1 0 2 3 8 1 3 5 5 4 3 5 3 1 4 3 1 0 1 2 3 4 3 2 2 5 0 1 3 2 3 2 4 2 1 0 2 2 3 0 2 1 2 4 2 1 2 0 2 3 0 4 1 0 1 4 3 3 1 1 1 1 2 1 2 2 3 1 5 2 3 2 3 2 1 1 1 2 2 0 2 1 1 4 1 3 3 1 3 4 0 2 0 1 1 2 1 2 1 2 1 1 1 1 2 1 3 4 1 0 2 3 1 2 1 1 2 3 1 1 2 1 4 1 3 0 2 0 1 2 1 0 0 1 1 3 0 0 1 2 1 2 1 0 2 1 4 2 1 2 0 3 1 1 3 0 1 3 3 2 3 0 2 2 2 1 1 0 0 0 1 1 0 3 2 2 2 4 1 3 3 5 1 1 3 4 1 2 4 2 2 4 0 4 1 3 2 2 1 3 2 3 4 2 2 5 4 2 2 2 0 1 1 0 4 1 1 1 1 2 2 1 1 4 0 1 2 2 1 4 0 5 1 2 2 1 1 3 2 1 3 1 2 1 2 2 2 2 3 1 2 2 3 0 4 2 1 3 2 2 1 4 0 3 2 1 1 1 4 2 0 1 0 1 1 2 0 1 2 2 1 3 4 1 1 1 1 2 3 0 3 3 2 0 2 2 0 3 0 1 3 3 1 1 1 1 0 2 0 0 1 4 1 2 1 1 3 2 1 2 0 2 1 3 4 6 1 1 3 3 3 1 1 0 2 2 2 0 0 3 2 1 2 2 2 0 3 1 1 1 5 1 3 3 4 0 2 4 1 1 1 3 1 4 6 2 3 0 2 3 4 1 4 1 6 4 1 1 1 2 2 2 2 1 2 3 3 5 2 3 2 3 2 3 2 1 4 3 3 1 1 2 1 3 1 1 1 4 2 2 0 2 0 0 1 3 7 2 2 1 2 2 2 2 2 2 1 1 1 1 2 3 1 3 1 3 3 1 0 1 2 0 1 0 3 0 4 4 0 0 1 3 1 2 2 4 0 3 3 1 3 1 3 0 1 2 2 1 1 2 1 3 0 0 0 3 1 1 3 3 4 2 4 2 1 2 0 2 0 2 0 3 1 2 1 0 4 0 1 0 1 1 2 3 0 3 2 3 0 2 0 4 1 0 1 3 1 0 2 1 2 1 0 2 2 0 2 1 2 1 2 5 2 3 2 2 3 2 3 2 1 2 0 2 2 2 3 2 1 2 0 2 0 2 2 2 3 1 3 1 1 2 0 3 2 5 0 0 2 1 2 3 3 1 2 3 0 0 1 2 0 0 2 1 3 2 2 1 0 3 2 1 3 1 4 0 2 1 2 4 0 0 0 1 2 2 1 1 3 1 2 2 2 1 2 0 4 1 2 2 0 2 0 3 2 3 2 1 2 0 2 0 2 1 1 2 0 2 2 0 2 1 0 3 2 1 7 3 2 2 2 2 1 1 3 2 1 0 0 1 1 1 0 2 2 2 3 2 0 3 1 4 2 3 0 0 5 0 1 4 3 0 4 1 2 2 3 2 2 0 1 0 3 2 1 0 4 1 3 2 2 3 2 3 0 1 4 2 3 1 1 2 2 4 1 2 2 1 5 2 1 2 0 2 2 3 2 1 2 3 0 0 3 1 2 2 1 1 0 1 4 0 2 2 2 4 1 2 2 4 2 3 1 2 1 4 1 3 3 6 1 1 4 0 3 2 3 4 4 1 3 0 2 4 0 2 2 1 2 2 2 1 2 1 3 1 2 1 2 1 2 0 2 2 1 1 2 2 3 3 2 2 2 2 6 0 3 1 2 2 2 1 3 1 4 1 3 1 3 2 2 2 1 3 1 2 4 0 6 0 5 2 1 1 2 1 0 2 1 2 2 3 3 2 3 2 0 2 3 2 1 2 2 0 2 0 3 6 2 1 3 4 1 2 1 4 1 1 1 2 3 0 1 2 0 0 2 1 0 2 0 1 1 1 1 1 2 0 3 1 3 3 2 0 1 0 2 1 1 2 1 0 0 0 1 2 2 2 2 1 1 1 1 0 1 0 2 2 3 0 1 1 0 1 1 0 1 1 2 1 1 1 0 3 1 0 2 1 0 0 1 2 2 2 2 2 1 1 1 2 4 0 2 1 3 2 1 0 0 2 0 0 1 2 2 2 2 2 4 3 1 1 3 1 2 0 2 3 0 1 1 2 1 3 2 3 1 1 1 4 2 2 2 2 1 2 7 1 1 5 4 2 2 2 0 2 4 2 2 4 0 3 0 0 2 2 2 2 3 1 1 2 1 3 5 4 0 0 3 1 0 0 1 0 0 2 2 1 1 2 1 3 0 3 1 0 0 2 1 2 2 5 2 1 2 1 4 1 1 1 4 4 0 0 2 0 3 0 0 0 0 3 3 3 2 0 0 3 1 1 0 2 1 1 3 1 1 2 1 2 3 2 1 1 5 1 2 2 1 2 0 1 2 2 1 2 1 1 0 1 1 3 1 3 2 2 1 1 1 1 2 1 0 
BTB PER SET COUNT: 1 2 2 2 0 0 2 1 3 0 2 0 1 1 0 1 3 1 1 2 0 1 1 2 1 2 2 2 1463 2 3 2 3 1 2 0 0 3 7 0 1 2 2 4 1 0 2 1 5 1 1 1 2 0 0 2 4 3 1 1 1 4 2 2 0 388 8 0 2 2 680 1 1 2 1 1 503 694 2 1 1 2 4 4 3 2 1 4 3 2 5 465 2 4 3 0 1 3 0 1 3 2 3 3 3 2 1 1 4 0 3 2 3 2 1 3 1 2 1 0 3 3 2 0 1 1 1 1 2 3 504 0 1 0 2 1 0 0 1 2 2 4 2 0 0 0 1 4 3 2 1 1562 1 2 1 1 0 3 1 1 0 0 0 1 2 3 0 1 2380 1 1 2 2 1 1 0 1 1 966 1 1 3 6351 2 2 3 3 0 1 1 7 1 1 2 2 3 1 1 0 1 2 1 1 0 0 0 1 0 0 0 0 3 2 1 5 1 0 4 1 0 0 0 1 3 3 0 2 16 0 2 2307 4 1 2 1 2 2 0 1 1 2 0 1 1 1505 3 1 1 3 1 1 1 1 1 0 4 3 2 2 2 4 3 2 2 3 4 3 0 2 1 2 2 1 2 2 3 1 0 5 2 3 2 1 1 2 1002 2 1 1 1 0 0 1 2 0 1 5 2 0 1 2 3 1 1 2 2 3 2 4 4 2 1 2 2 3 0 2 2 1 1 1 2 2 2 0 2 1 5 0 0 1002 0 2 2 965 3 1001 3 4 0 8 0 0 1001 1001 2 1 2 0 4 1 3 2 3 2 2 2 0 3 0 0 2 1 2 4 4 1 0 0 0 3 1 2 0 1 2 2 1 2 4 0 0 1 6 0 0 2 1 2 1 1 2 2 2 2 0 3 0 0 2 3 1 3 1 1 0 1464 3 0 963 0 1 1 1 1 0 3 1 1 90 1 1 2 3 1 3 0 0 1 3 1 0 9 2 3 3 2 1 0 0 0 4 3 3 2 1 1 3 1 1 3 0 0 0 3 0 1 3 2 1 3 0 4 2 0 0 1 0 1 3 0 1 1 500 2 1 0 1 0 0 0 1 1 500 0 2 2 0 2 1 2 1 2 2 0 3 1 1 9 0 3 0 0 1 0 2 1 0 0 2 3 2 2 2 4 0 2 3 1 505 1 1 3 1 3 2 0 3 4 1 4 1 2 3 1 504 0 0 5 0 0 4 3 0 19 1 12 4 5 4 1 3 6 4 0 1 2 0 1 1 6316 0 1 3 1 0 0 1 2 4 4 0 1 10 2 0 0 1 0 0 0 1 0 0 1 0 0 5 2 2 2 5 0 1 963 2 2 0 1 1 0 0 1 4 1 2 1 1 5 0 2 1 3 1 2 0 931 0 3 1 4 1 3 0 2 1 1 2 1 0 502 1 0 3 2 1 0 0 1 1 10 1 3 3 0 0 3 0 2 1 1 1 3 1 1 0 4 0 1 3 7887 6 3 3 2 1 1 1002 0 0 6 1 2 0 4 1002 0 3 6 2 1 0 2 1002 2 1 1 1464 4 1 0 1003 1 2 1 3 3 3 3 3 0 2 0 2 1 1001 0 1 0 0 1 3 0 1 1002 0 1463 1 0 3 1 0 1 1 0 1 1 1 0 3 3 2 963 0 1 1 4 1 1 0 1 4 1 3 1 1 2 2 1 1003 0 0 1 5 0 1 2 3 3 0 3 1 0 2 1 1 4 1 0 0 2 3 0 0 1 2 4 3 1 1 2 2 0 0 3 3 3 3 0 0 1 48 0 0 3 3 3 1 2 0 2 2 1 2 1 1 2 7 0 6 0 2 1 0 3 1 2 0 0 3 4 0 1 0 2 1 1 2 1 50 1 1 2 1 3 0 1 0 3 2 0 1 0 1 0 2 3 2 3 0 3 0 4 1 2 2 0 0 1 1 0 0 0 1 5 1 1 0 3 0 1 1 1 3 1 0 3 3 3 1 2 1 1 0 0 0 1 2 0 0 4 0 1 2 1 2 5 0 1 1 1 0 1 3 1 3 0 1 0 4 3 3 0 0 1 2 0 1 1 2 4 1 3 1 2 0 3 0 2 1 3 1 4 464 2 1 49 2 0 1 1 1 0 965 2 2 1 2 2 1 1 1 4 1 1 0 11 3 2 1 2 501 2 2 3 6 1148 2 2 3 1 1 0 384 2 1 3 4 1 2 3 2 2 5 1 2 2 1 6 1 3 1 1 2 2 1 2 2 1 8 0 2 3 1 2 4 3 3 0 1 2004 0 2427 0 1 2 3 5 1 3 3 4 3142 4 0 2 3 1 1 1 3 4 2 1 3 0 0 1 1 0 2 0 1 3 0 2 5 3 3 3 0 1 3 2 1 388 2 1 2 1 0 1 2 0 2 0 1 2 3 4 1 4 3 2 0 2 7780 0 1 1 1 1 2 2 1 4 3 3 3 3 1 4 3 2 1 0 4 0 1 2 2 19 1 0 4 1 1 1 502 1 1 2 3 3 2 2 3 1 2 5 5 2 1 2 3 1 5 2 1 4 1 2 3 1 3 6 0 1 4 1 0 2 1 0 1 3 1 1 1 3 1 3 2 0 1 1 3 3 1 0 3 0 0 3 2 1 2 2 1 4 0 1 4 0 3 1 1 2 2 6 2 4 0 2506 4 0 2 1 2 0 0 1 503 0 1 1 3 161 1 0 0 501 3 1 1 2 0 0 1 4 1 4 2 2 0 2 0 0 2 8 992 0 5 3 0 1 2 1 4 0 2 1005 2 1 1 1 0 6 1 3 0 1 2 2504 5 1 2 2 0 4 4 1941 3 3 4 2 0 0 5 3 4 1 3 2 1 1 3 3 4 1 1 1 1 3 3391 3 4 0 0 2 1 1 2 1 3 0 0 1 2 1465 2 0 3 1 1 0 1 1 25 0 1 1 0 5 2 0 2 1 3 2 1 1 2 1 2 2 0 3 2 1 0 3 1 1 2 3 1 1 0 2 1 1 1 2 1 2 3 1 1 3 0 1 8 0 3 2 0 1 1 1 3 2 2 0 2 0 1 1 2 2 3 1 2 1 1 4 1 3 2 1 2 0 1 2 1 4 2 3 1 2 2 2 0 2 3 2 3 1 4 2 1 0 2 2 3 1 1 1 3 0 21 2 1 3 1 0 4 128 1 1 2 3 0 2 2 2 1 4 2 5 0 3 1 4 2 1 3 2 0 2 1463 0 1 1347 1 1 2 0 0 2 1 0 1 1347 0 3 1 3 4 2 1 0 1 1 1 0 1 0 0 5 2 0 1 2 0 1 1 0 0 0 0 0 0 1 0 0 2 0 2 0 2 1 2 0 1 0 0 4 26 0 2 1 3 2 1 0 2 4 109 0 6 0 1 1 1 1 1 0 2 0 3 388 0 1 5 1 0 1 0 3 1 2 2 1 22 4 3 2 0 1 1 0 1 0 5 0 1 1 0 0 0 1 0 1 1 0 2 438 2 1 1 1 2 3 1 2 1 0 0 2 1 0 0 1 2 1 7 1 0 1 1 8 3 0 0 1 2 1 0 0 3 1 3 0 2 1 2 2 1 2 3 3 2004 0 1 2 2 2 1 33 3 3 2 3 1467 0 0 2 1464 1 1 2 1 1 2 0 2 963 0 1 2 0 1 1 3 2 2 2 3 2999 0 1 4 0 4 5 2 2 2 1 3 3 1 1 1 273 2 2 1 9 2 1 2 1 1 4 5 1 1 1 2 0 2 1 2 3 0 0 1 1 0 4 4 1 0 2 4 0 1 2 3 1 1001 2 1 0 0 3 2 1001 0 0 0 2 501 0 2 2 4 3 4 1 635 1 2 5330 4 2 14634 1001 1 3 3 2 1 1 2 0 0 2 3 1 2 0 0 4 4 2 163 2 0 0 1 1464 192 2 4 1 3 2 1 790 0 2 0 1 2 1 0 0 0 592 0 1 3 0 3 0 3 1 2 0 4 2 1 4 0 3 0 0 0 1 1 1 8 0 1 528 0 1 2 2 1 1 0 1 963 1 1 1 2 3 3 0 4 0 0 1 2 1463 1 2963 1 0 2 1 3 2 1 2 1846 1 441 3 0 2 0 3 213 4 103 0 3 1 1801 0 224 0 4 1464 3 3 1 1 1 1 1 2 0 2 0 1 4 3 2 1 4 356 2 3 968 0 2 0 3 1 3 2 2 2 2 1 0 2 223 2 1 0 1 2 0 0 0 1 0 1 1 2 0 2 2 1 3 8 2 1 2 2 3 0 1 2 2 1 0 2 2 2 2 0 0 1 0 0 1 0 0 1 1 1 2 1 1 2 0 0 0 2 1 1 1 1 3 1 2 2 104 0 2 2 0 2 1 2 1 2 1 0 1 0 4 1 0 1 2 1 3 2 2 2 0 3 0 1 0 0 2 2 0 5 1465 4 0 2 2 1878 1 0 0 1 5 2 2 0 3 0 3 1 0 0 2 3 5 3003 2 0 3 0 1 1 2 1 2 1 0 2 0 1 3 3 3 0 0 5 4 1 0 0 2 3 1 0 3 3 1 0 3 3 0 1 1 4 0 0 0 2 1 0 3 0 1 0 2 2 2 0 2 1 218 1 2 1 0 3 1478 2 3 0 2 2 1 0 2 0 2 1 1 0 0 0 4 5 1 2 1 1 5 1464 3 4 2 1 3 4 0 2 2 1 4 5 2 2 2 2 2930 4 2 3 3 3 1 4 4834 2 2 2 2 2 2 1 2 1 0 2 1 0 2 2 0 2 0 1 1 0 1 2 1 3 0 0 0 2 1 2 1 1 0 2 1 1 0 0 0 4 1 2 0 3 3 1 2 3 0 0 2 2 1 2 5 1 4 0 1 0 0 2 2 3 1 2 0 8 1 4 1 3 3 1 2 2 0 0 0 1 2 0 5 6 2 4 3 3 3 2 2 1 3 1 4 1 1 2 1 7 1 2 1 2 3 3 3 4 2 0 5 1 2 1 4 902 6 3 4 1926 2 3 5 0 2 0 3 1 0 3 2 6 2 1 2 1 1 1 5 5 1 1 1 2 1 2 2 2 3 4 2 2 3 5 1 1 3 1 6 3 1 1466 2 1 4 2 3 3 1 1 3 4 3 0 1 1 1 1 1 2 1 1 0 1 4 1 2 2 2 1 1 3 0 1 0 0 9 2 5 6 0 0 1 2 3 1 0 3 4 3 1 2 2 1 2 1 2 0 1463 2 0 1 4 1 1 0 2 1 2 0 0 1 0 1 4 0 12 1 4 2 1 2 0 0 0 3 0 3 1 0 8 1 2 1 1 1 0 1 1 0 1 0 5 2 1 0 2 0 2 3 4 4 1 1 2 902 1 4 2 0 0 5 1 1 1 4 0 3 2 1 1 0 1 0 1 0 1 3 3 0 0 1 6 1 2 4 3 1 3 2 1 0 1 1 2 4 1 2 4 6 0 1 2 1 0 1 0 4 4 3 3 2 1 1 24 3 0 2 3 2 4 1 3 2 6 2 2 0 1 1 1465 0 1 2 3 1 1 1 2 4 3 0 1 0 1 2 5 2 963 3 121 2 0 1 0 0 1 2 2 0 7 0 1 4 129 2 5 1 2 2 1 2 3 0 3 0 2 1 2 23 1 1 2 1 2 3 1 3 2 1 0 1 512 1 0 3 1 4 1 3 3 2 2 0 0 4 32 1 0 0 6 4 1 1 2 0 1 0 0 4 1 0 3 0 2 1 2 2 1 4 3 3 0 1 2 8 1 0 2 0 2 2 2 1 1 0 0 4 0 1 1 2 3 1 2 1466 1 1 3 4 0 3 4 2 1 2 1 6 3 0 2 3 1 1 2 1 4 4 0 1 2 0 2 1982 2 3 1 4 1 2 4 1 2 3 1 2 4 0 1 1 4 1 0 4 0 3 3 3 1 2 3 3 2 24 4 51 1 0 0 0 0 2488 3 1 3 4 1 0 1 1 2 3 3 1 7 3 5 4 3 4 3 3 0 2 3 1 0 2 0 3 0 0 1 0 2 502 3 2 0 2 1 3 1 3 2 1465 4 1 3 1 2 3 1 1 3 0 1 1 0 0 2 3 1 4 3 1 2 1 2 1 1 3 1 0 3 0 2 1 6 4 2930 3 1 4 1 2 3 4 1 6 3 2 0 1 3 4 4 0 4 2 4 2 3 2 1 3 1 2 1 0 3 1 4 41 0 4 0 1 2 1 3 0 3 1 2 2 6 0 0 1 32 1 0 1 1 0 0 0 1 0 0 4 2 1 3 4 1 1 1 4 0 3 1 2 0 1 2 2 1 2 501 1 2 0 0 2 0 1 2 1 0 3 3 1 2 2 1 3 4 3 26 1 5 2 4 1 0 114 3 2 2 1 1 2 3 3 0 4 27 3 0 1 0 2 1 1 2 1 2 5 5 1 3 2 5 2 4 3 2003 4 2 1 3 1 1 1 3 0 2 5 0 2 0 1 1 2 3 2 0 1 1 2 3 0 2 0 1 1 2 3 1 3 2 0 2 0 3 1471 1 8 6 2 3 3 5 2 2 5 2 3 4 2 5 4 2 4853 2 0 12 964 3 6 3 4 1 3 2 5 3 0 0 1 2 3 1 7 3 8 79 3 1 0 2 4 2 2 2 2 2 0 2 3 0 0 4 2 1 49 3 2 5 4 3 1 2 1 0 4 0 4 0 1 7 0 2 4 2 2 4 1 0 2 3 56 1 502 9 1127 4 3 2002 4 2 4 3 2 0 1 2 4 4 253 3 2 678 0 1 4 2 3 2 4 2 1 0 2 2 3 0 2 1 2 4 2 1 2 0 2 3 0 966 1 0 1 4 3 502 1 1 1 1 2 1 2 2 3 1 2002 2 4 2 3 2 1 1 1 2 2 0 2 1 1 4 1 3 3 1 384 1004 0 2 0 1 2 2 1 2 1 2 1 1 1 1 2 1 4 5 3 0 2 4 1 2 2 1 2 3 1 1 2 1 4 1 3 0 2 0 1 1465 1 0 0 1 1 4 0 0 1 2 1 2 1 0 2 1 4 4 2 2 0 3 1 1 3 0 1 3 77 2 3 0 2 2 3 1 1 0 0 0 1 1 0 5 2 2 2 5 1 3 3 29 1 1 3 4 1 2 4 2 2 4 0 4 2 3 2 2 1 3 2 3 5 3 2 8 7 2 2 2 0 1 1 0 4 1 1 1 2 2 2 1 2 505 0 1 2 2 1 4 0 8 1 2 3 1 1 4 3 1 6 1 2 1 2 3 2 2 3 1 2 2 3 0 4 2 1 3 2 2 1 967 0 4 2 1 1 1 5 3 0 1 0 1 1 2 0 1 2 2 1 3 4 1 1 1 1 2 3 0 3 3 2 0 2 2 0 5 0 1 3 3 1 1 3 1 0 3 0 0 1 4 1 2 1 1 3 3 1 2 0 2 1 3 4 4727 2 1 1465 4 3 1 1 0 2 2 2 0 0 3 2 1 2 2 2 0 3 1 1 2 634 1 3 3 4 0 2 4 1 1 1 3 1 4 1282 964 5 0 2 4 4 1 4 1 2503 4 1 1 1 2 2 3 3 1 2 3 3 11 2 3 2 504 2 3 17 1 93 3 3 1 1 2 3 3 1 1 1 4 2 2 0 2 0 0 2 3 3006 2 2 1 2 2 2 3 2 2 1 1 1 1 2 3 1 3 1 3 3 1 0 1 2 0 1 0 3 0 4 4 0 0 1 3 963 2 2 8 0 3 48 1 3 1 3 0 1 4 2 1 1 2 1 4 0 0 0 3 1 1 3 3 4 2 9 2 1 2 0 2 0 3 0 3 1 2 1 0 4 0 1 0 1 1 3 3 0 3 2 3 0 2 0 466 1 0 1 4 1 0 2 1 3 1 0 2 3 0 2 1 2 1 2 2501 4 3 8 2 3 2 3 2 1 3 0 5 2 2 965 2 1 2 0 2 0 2 2 2 3 1 3 1001 1 10 0 4 2 1502 0 0 2 1 2 5 7 1 2 20498 0 0 1 2 0 0 2 1 3 279 2 1 0 3 2 1 3 1 4 0 2 1 2 4 0 0 0 1 2 3 1 1 3 1 2 2 2 1 2 0 4 1 2 3 0 3 0 3 2 3 2 1 2 0 3 0 2 1 1 2 0 2 2 0 2 1 0 3 2 1 2228 4 2 3 2 2 1 1 3 964 1 0 0 1 1 1 0 2 2 2 6 2 0 4 1 4 2 3 0 0 15 0 1 17 3 0 4 1 4 2 3 2 3 0 1 0 3 3 1 0 4 1 3 2 4 3 2 3 0 2 6 2 3 1 1 2 2 4 1 2 2 1 24 2 1 385 0 1464 2 3 139 1 2 3 0 0 3 1 2 2 1 1 0 1 5 0 2 2 3 4 1 501 2 4 2 3 1 2 1 4 1 502 3 2003 1 1 4 0 3 2 4 5 4 1 4 0 2 4 0 501 2 1 2 2 2 1 2 1 4 1 385 1463 2 1 2 0 2 2 1 1 2 2 3 3 3 2 2 2 3002 0 1466 1 2 2 2 1 3 1 4 1 3 1 3 2 3 2 1 3 1 2 5 0 4316 0 1305 2 1 1 2 2 0 2 1 2 2 3 4 2 3 2 0 2 3 2 1 2 2 0 2 0 3 2007 964 1 3 4 1 2 1 4 1 1 1 2 4 0 1 2 0 0 2 1 0 2 0 1 1 1 1 1 2 0 3 1 3 3 2 0 1 0 3 1 1 2 1 0 0 0 1 2 2 2 2 1 2 1 463 0 1 0 2 2 3 0 1 1 0 1 1 0 1 1 2 1 1 1 0 19 2 0 2 1 0 0 1 2 3 2 2 2 1 2 1 2 4 0 2 1 3 2 1 0 0 2 0 0 1 2 2 3 1002 2 4 4 1 1 5 1 2 0 2 5 0 1 1 2 1 4 10 3 1 1 1 9 2 2 2 2 1 2 3180 1 1 1127 4 2 2 3 0 2 4 2 3 4 0 3 0 0 2 2 1002 2 3 1 1 2 2 4 162 4 0 0 3 1 0 0 1 0 0 2 2 1 1 2 1 3 0 3 1 0 0 3 1 3 2 1427 2 1 2 1 504 1 1 1 6 5 0 0 2 0 4 0 0 0 0 3 4 3 2 0 0 3 1 1 0 2 1 1 3 1 1 2 1 2 3 2 1 1 29 1 2 6 1 2 0 1 2 6 1 2 1 1 0 1 1 4 1 7 2 2 1 1 1 7 2 1 0 
