
*** ChampSim Multicore Out-of-Order Simulator ***

Warmup Instructions: 50000000
Simulation Instructions: 50000000
Number of CPUs: 1
LLC sets: 2048
LLC ways: 16
Off-chip DRAM Size: 4096 MB Channels: 1 Width: 64-bit Data Rate: 6400 MT/s
CPU 0 runs ./micro_traces/srv428.trace.gz
.gz
ITLB has LRU replacement policy
DTLB has LRU replacement policy
STLB has LRU replacement policy
FDIP Prefetcher at L1I
L1I has LRU replacement policy
L1D has LRU replacement policy
Initialize SRRIP state for L2C
Initialize DRRIP state for LLC
Heartbeat CPU 0 instructions: 10000001 cycles: 2797672 heartbeat IPC: 3.5744 cumulative IPC: 3.5744 (Simulation time: 0 hr 1 min 42 sec) 
Heartbeat CPU 0 instructions: 20000002 cycles: 5594447 heartbeat IPC: 3.57555 cumulative IPC: 3.57497 (Simulation time: 0 hr 3 min 19 sec) 
Heartbeat CPU 0 instructions: 30000001 cycles: 8391892 heartbeat IPC: 3.57469 cumulative IPC: 3.57488 (Simulation time: 0 hr 4 min 56 sec) 
Heartbeat CPU 0 instructions: 40000002 cycles: 11188924 heartbeat IPC: 3.57522 cumulative IPC: 3.57496 (Simulation time: 0 hr 6 min 23 sec) 
Heartbeat CPU 0 instructions: 50000002 cycles: 13986371 heartbeat IPC: 3.57469 cumulative IPC: 3.57491 (Simulation time: 0 hr 7 min 53 sec) 

Warmup complete CPU 0 instructions: 50000002 cycles: 13986371 (Simulation time: 0 hr 7 min 53 sec) 

Cycle: 20000000 FTQ IN: 54936142 FTQ occupancy: 15.4496 DECODE IN: 54936132 DECODE occupancy: 9.33752 ROB IN: 54936132 ROB occupancy: 257.574 ROB OUT: 54936132
Heartbeat CPU 0 instructions: 60000002 cycles: 26294329 heartbeat IPC: 0.812482 cumulative IPC: 0.812482 (Simulation time: 0 hr 9 min 29 sec) 
Cycle: 30000000 FTQ IN: 8120410 FTQ occupancy: 13.4813 DECODE IN: 8120402 DECODE occupancy: 4.4006 ROB IN: 8120402 ROB occupancy: 49.6231 ROB OUT: 8120370
Heartbeat CPU 0 instructions: 70000003 cycles: 38411048 heartbeat IPC: 0.825306 cumulative IPC: 0.818844 (Simulation time: 0 hr 11 min 13 sec) 
Cycle: 40000000 FTQ IN: 8266859 FTQ occupancy: 13.4797 DECODE IN: 8266859 DECODE occupancy: 4.40268 ROB IN: 8266859 ROB occupancy: 47.3214 ROB OUT: 8266891
Cycle: 50000000 FTQ IN: 8134275 FTQ occupancy: 13.4474 DECODE IN: 8134275 DECODE occupancy: 4.38605 ROB IN: 8134263 ROB occupancy: 49.064 ROB OUT: 8134196
Heartbeat CPU 0 instructions: 80000002 cycles: 50651992 heartbeat IPC: 0.81693 cumulative IPC: 0.818205 (Simulation time: 0 hr 12 min 55 sec) 
Cycle: 60000000 FTQ IN: 8123151 FTQ occupancy: 13.4256 DECODE IN: 8123161 DECODE occupancy: 4.36203 ROB IN: 8123170 ROB occupancy: 48.0538 ROB OUT: 8123223
Heartbeat CPU 0 instructions: 90000000 cycles: 62917939 heartbeat IPC: 0.815265 cumulative IPC: 0.817468 (Simulation time: 0 hr 14 min 41 sec) 
Cycle: 70000000 FTQ IN: 8291875 FTQ occupancy: 13.4982 DECODE IN: 8291865 DECODE occupancy: 4.43171 ROB IN: 8291859 ROB occupancy: 48.4818 ROB OUT: 8291841
Heartbeat CPU 0 instructions: 100000001 cycles: 74975055 heartbeat IPC: 0.829386 cumulative IPC: 0.819824 (Simulation time: 0 hr 16 min 34 sec) 
Finished CPU 0 instructions: 50000003 cycles: 60988685 cumulative IPC: 0.819824 (Simulation time: 0 hr 16 min 34 sec) 

ChampSim completed all CPUs

Region of Interest Statistics

CPU 0 cumulative IPC: 0.819824 instructions: 50000003 cycles: 60988685
 Fetch stage stalled: 36.1232  Sim cycles: 60988685 fetch stall cycle: 22031046
 Empty decode stage: 68.2154  Sim cycles: 60988685 fetch stall cycle: 41603697
ITLB TOTAL     ACCESS:    7198232  HIT:    6705905  MISS:     492327  HIT %:    93.1604  MISS %:    6.83955   MPKI: 9.84654
ITLB LOAD TRANSLATION INSTRUCTION	ACCESS:    7198232  HIT:    6705905  MISS:     492327  HIT %:    93.1604  MISS %:    6.83955  MPKI: 9.84654

ITLB AVERAGE MISS LATENCY: 9.05407 cycles
ITLB RQ	ACCESS:    8279315	FORWARD:          0	MERGED:     878044	TO_CACHE:    7401271

DTLB TOTAL     ACCESS:   10417484  HIT:    9944617  MISS:     472867  HIT %:    95.4608  MISS %:    4.53917   MPKI: 9.45734
DTLB LOAD TRANSLATION DATA	ACCESS:   10417484  HIT:    9944617  MISS:     472867  HIT %:    95.4608  MISS %:    4.53917  MPKI: 9.45734

DTLB AVERAGE MISS LATENCY: 9.32999 cycles
DTLB RQ	ACCESS:   14486219	FORWARD:          0	MERGED:    4040698	TO_CACHE:   10445521

STLB TOTAL     ACCESS:    1226422  HIT:    1224393  MISS:       2029  HIT %:    99.8346  MISS %:   0.165441   MPKI: 0.04058
STLB LOAD TRANSLATION INSTRUCTION	ACCESS:     492327  HIT:     492075  MISS:        252  HIT %:    99.9488  MISS %:  0.0511855  MPKI: 0.00504
STLB LOAD TRANSLATION DATA	ACCESS:     472853  HIT:     471098  MISS:       1755  HIT %:    99.6288  MISS %:   0.371151  MPKI: 0.0351
STLB TRANSLATION FROM L1D PREFETCHER DATA	ACCESS:     261242  HIT:     261220  MISS:         22  HIT %:    99.9916  MISS %: 0.00842131  MPKI: 0.00044

STLB AVERAGE MISS LATENCY: 81.4436 cycles
STLB RQ	ACCESS:    1345274	FORWARD:          0	MERGED:     118816	TO_CACHE:    1226458

STLB Hit, L1D data hit: 0
STLB Hit, L2C data hit: 0
STLB Hit, LLC data hit: 0
STLB Hit, LLC data miss: 0
STLB STLB hints to L2: 0
L1D TOTAL     ACCESS:   14285971  HIT:   13176233  MISS:    1109738  HIT %:     92.232  MISS %:    7.76803   MPKI: 22.1948
L1D LOAD DATA	ACCESS:    7633080  HIT:    6904225  MISS:     728855  HIT %:    90.4514  MISS %:    9.54864  MPKI: 14.5771
L1D RFO DATA	ACCESS:    6313767  HIT:    6026906  MISS:     286861  HIT %:    95.4566  MISS %:    4.54342  MPKI: 5.73722
L1D PREFETCH DATA	ACCESS:     339124  HIT:     245102  MISS:      94022  HIT %:     72.275  MISS %:     27.725  MPKI: 1.88044

L1D PREFETCH  REQUESTED:     760225  ISSUED:     760225  USEFUL:      35820  USELESS:      67646
L1D USEFUL LOAD PREFETCHES:      35820 PREFETCH ISSUED TO LOWER LEVEL:     103566  ACCURACY: 34.5866
 TIMELY PREFETCHES:      35820 LATE PREFETCHES: 9437 DROPPED PREFETCHES: 4
L1D AVERAGE MISS LATENCY: 378991 cycles
L1D RQ	ACCESS:   11461652	FORWARD:          0	MERGED:    3641266	TO_CACHE:    7663274
L1D WQ	ACCESS:    6942496	FORWARD:     157177	MERGED:     119551	TO_CACHE:    6822945
L1D PQ	ACCESS:     380145	FORWARD:          0	MERGED:          0	TO_CACHE:     380080

L1D UNIQUE REGIONS ACCESSED: 0
L1D REGIONS CONFLICTS: 0
L1D Cross Page Prefetch Requests: 6960
L1D Same Page Prefetch Requests: 763486
L1D ROI Sum of L1D PQ occupancy: 4838465
L1D PREFETCHES PUSHED FROM L2C: 0
L1I TOTAL     ACCESS:    7875679  HIT:    5121760  MISS:    2753919  HIT %:    65.0326  MISS %:    34.9674   MPKI: 55.0784
L1I LOAD INSTRUCTION	ACCESS:    7875679  HIT:    5121760  MISS:    2753919  HIT %:    65.0326  MISS %:    34.9674  MPKI: 55.0784

L1I AVERAGE MISS LATENCY: 17.244 cycles
L1I RQ	ACCESS:   15469338	FORWARD:          0	MERGED:    7190023	TO_CACHE:    8279315

L1BTB TOTAL     ACCESS:    5671543  HIT:    2053749  MISS:    3617794  HIT %:    36.2115  MISS %:    63.7885   MPKI: 72.3559
L1BTB BRANCH_DIRECT_JUMP	ACCESS:     549085 HIT:     145898 MISS:     403187 AVERAGE STALL: 25.7658 AVERAGE FETCH STALL: 16.7505 AVERAGE FETCH QUEUE STALL: 3.36228 AVERAGE DECODE STALL: 4.65297 AVERAGE EXECUTE STALL: 3.45671e+14
L1BTB BRANCH_INDIRECT	ACCESS:     183449 HIT:      66493 MISS:     116956 AVERAGE STALL: 54.0142 AVERAGE FETCH STALL: 12.3107 AVERAGE FETCH QUEUE STALL: 3.78764 AVERAGE DECODE STALL: 4.14311 AVERAGE EXECUTE STALL: 32.7728
L1BTB BRANCH_CONDITIONAL	ACCESS:    2713110 HIT:    1424287 MISS:    1288823 AVERAGE STALL: 27.2138 AVERAGE FETCH STALL: 18.5158 AVERAGE FETCH QUEUE STALL: 3.35527 AVERAGE DECODE STALL: 4.34271 AVERAGE EXECUTE STALL: 1.28089e+14
L1BTB BRANCH_DIRECT_CALL	ACCESS:     941975 HIT:     105579 MISS:     836396 AVERAGE STALL: 28.7426 AVERAGE FETCH STALL: 19.3948 AVERAGE FETCH QUEUE STALL: 3.59473 AVERAGE DECODE STALL: 4.75312 AVERAGE EXECUTE STALL: 1.58105e+14
L1BTB BRANCH_INDIRECT_CALL	ACCESS:     170972 HIT:      21067 MISS:     149905 AVERAGE STALL: 69.7002 AVERAGE FETCH STALL: 13.4154 AVERAGE FETCH QUEUE STALL: 3.54568 AVERAGE DECODE STALL: 4.74831 AVERAGE EXECUTE STALL: 46.9908
L1BTB BRANCH_RETURN	ACCESS:    1112952 HIT:     290425 MISS:     822527 AVERAGE STALL: 29.2474 AVERAGE FETCH STALL: 16.3821 AVERAGE FETCH QUEUE STALL: 3.07377 AVERAGE DECODE STALL: 4.48259 AVERAGE EXECUTE STALL: 1.80973e+14
L1BTB BRANCH_OTHER ACCESS:          0 HIT:          0 MISS:          0 AVERAGE STALL: -nan AVERAGE FETCH STALL: -nan AVERAGE FETCH QUEUE STALL: -nan AVERAGE DECODE STALL: -nan AVERAGE EXECUTE STALL: -nan
L1BTB TOTAL ROB OCCUPANCY AT BTB MISS: 4.58417

L2BTB TOTAL     ACCESS:    3592274  HIT:    3153886  MISS:     438388  HIT %:    87.7964  MISS %:    12.2036   MPKI: 8.76776
L2BTB BRANCH_DIRECT_JUMP	ACCESS:     398963 HIT:     349771 MISS:      49192 AVERAGE STALL: 25.7658 AVERAGE FETCH STALL: 16.7505 AVERAGE FETCH QUEUE STALL: 3.36228 AVERAGE DECODE STALL: 4.65297 AVERAGE EXECUTE STALL: 3.45671e+14
L2BTB BRANCH_INDIRECT	ACCESS:     106666 HIT:     101399 MISS:       5267 AVERAGE STALL: 54.0142 AVERAGE FETCH STALL: 12.3107 AVERAGE FETCH QUEUE STALL: 3.78764 AVERAGE DECODE STALL: 4.14311 AVERAGE EXECUTE STALL: 32.7728
L2BTB BRANCH_CONDITIONAL	ACCESS:    1288823 HIT:    1143876 MISS:     144947 AVERAGE STALL: 27.2138 AVERAGE FETCH STALL: 18.5158 AVERAGE FETCH QUEUE STALL: 3.35527 AVERAGE DECODE STALL: 4.34271 AVERAGE EXECUTE STALL: 1.28089e+14
L2BTB BRANCH_DIRECT_CALL	ACCESS:     836396 HIT:     719635 MISS:     116761 AVERAGE STALL: 28.7426 AVERAGE FETCH STALL: 19.3948 AVERAGE FETCH QUEUE STALL: 3.59473 AVERAGE DECODE STALL: 4.75312 AVERAGE EXECUTE STALL: 1.58105e+14
L2BTB BRANCH_INDIRECT_CALL	ACCESS:     140310 HIT:     118683 MISS:      21627 AVERAGE STALL: 69.7002 AVERAGE FETCH STALL: 13.4154 AVERAGE FETCH QUEUE STALL: 3.54568 AVERAGE DECODE STALL: 4.74831 AVERAGE EXECUTE STALL: 46.9908
L2BTB BRANCH_RETURN	ACCESS:     821116 HIT:     720522 MISS:     100594 AVERAGE STALL: 29.2474 AVERAGE FETCH STALL: 16.3821 AVERAGE FETCH QUEUE STALL: 3.07377 AVERAGE DECODE STALL: 4.48259 AVERAGE EXECUTE STALL: 1.80973e+14
L2BTB BRANCH_OTHER ACCESS:          0 HIT:          0 MISS:          0 AVERAGE STALL: -nan AVERAGE FETCH STALL: -nan AVERAGE FETCH QUEUE STALL: -nan AVERAGE DECODE STALL: -nan AVERAGE EXECUTE STALL: -nan
L2BTB TOTAL ROB OCCUPANCY AT BTB MISS: 37.8308

L2C TOTAL     ACCESS:    4465708  HIT:    3982786  MISS:     482922  HIT %:     89.186  MISS %:     10.814   MPKI: 9.65844
L2C LOAD INSTRUCTION	ACCESS:    2753918  HIT:    2475755  MISS:     278163  HIT %:    89.8994  MISS %:    10.1006  MPKI: 5.56326
L2C LOAD TRANSLATION INSTRUCTION	ACCESS:        289  HIT:         75  MISS:        214  HIT %:    25.9516  MISS %:    74.0484  MPKI: 0.00428
L2C LOAD DATA	ACCESS:     719394  HIT:     647030  MISS:      72364  HIT %:     89.941  MISS %:     10.059  MPKI: 1.44728
L2C RFO DATA	ACCESS:     286748  HIT:     241386  MISS:      45362  HIT %:    84.1805  MISS %:    15.8195  MPKI: 0.90724
L2C PREFETCH DATA	ACCESS:     184690  HIT:     111631  MISS:      73059  HIT %:    60.4424  MISS %:    39.5576  MPKI: 1.46118
L2C WRITEBACK DATA	ACCESS:     518781  HIT:     506430  MISS:      12351  HIT %:    97.6192  MISS %:    2.38077  MPKI: 0.24702
L2C LOAD TRANSLATION DATA	ACCESS:       1850  HIT:        456  MISS:       1394  HIT %:    24.6486  MISS %:    75.3514  MPKI: 0.02788
L2C TRANSLATION FROM L1D PREFETCHER DATA	ACCESS:         38  HIT:         23  MISS:         15  HIT %:    60.5263  MISS %:    39.4737  MPKI: 0.0003

L2C PREFETCH  REQUESTED:      88771  ISSUED:      88771  USEFUL:       8152  USELESS:      65678
L2C USEFUL LOAD PREFETCHES:       8152 PREFETCH ISSUED TO LOWER LEVEL:      73752  ACCURACY: 11.0533
 TIMELY PREFETCHES:       8152 LATE PREFETCHES: 693 DROPPED PREFETCHES: 0
L2C AVERAGE MISS LATENCY: 38.7804 cycles
L2C RQ	ACCESS:    3762268	FORWARD:          0	MERGED:          0	TO_CACHE:    3762238
L2C WQ	ACCESS:     518781	FORWARD:         30	MERGED:          0	TO_CACHE:     518781
L2C PQ	ACCESS:     192337	FORWARD:          0	MERGED:       4391	TO_CACHE:     187946

L2C Dense regions hint from L2: 0
PSCL5 TOTAL     ACCESS:       4070  HIT:       2035  MISS:       2035  HIT %:         50  MISS %:         50   MPKI: 0.0407
PSCL5 LOAD TRANSLATION INSTRUCTION	ACCESS:       3996  HIT:       1998  MISS:       1998  HIT %:         50  MISS %:         50  MPKI: 0.03996
PSCL5 TRANSLATION FROM L1D PREFETCHER INSTRUCTION	ACCESS:         74  HIT:         37  MISS:         37  HIT %:         50  MISS %:         50  MPKI: 0.00074


PSCL4 TOTAL     ACCESS:       3977  HIT:       1984  MISS:       1993  HIT %:    49.8868  MISS %:    50.1132   MPKI: 0.03986
PSCL4 LOAD TRANSLATION INSTRUCTION	ACCESS:       2109  HIT:       1947  MISS:        162  HIT %:    92.3186  MISS %:    7.68137  MPKI: 0.00324
PSCL4 TRANSLATION FROM L1D PREFETCHER INSTRUCTION	ACCESS:         37  HIT:         37  MISS:          0  HIT %:        100  MISS %:          0  MPKI: 0
PSCL4 LOAD TRANSLATION DATA	ACCESS:       1794  HIT:          0  MISS:       1794  HIT %:          0  MISS %:        100  MPKI: 0.03588
PSCL4 TRANSLATION FROM L1D PREFETCHER DATA	ACCESS:         37  HIT:          0  MISS:         37  HIT %:          0  MISS %:        100  MPKI: 0.00074


PSCL3 TOTAL     ACCESS:       4007  HIT:       1999  MISS:       2008  HIT %:    49.8877  MISS %:    50.1123   MPKI: 0.04016
PSCL3 LOAD TRANSLATION INSTRUCTION	ACCESS:       2124  HIT:       1962  MISS:        162  HIT %:    92.3729  MISS %:    7.62712  MPKI: 0.00324
PSCL3 TRANSLATION FROM L1D PREFETCHER INSTRUCTION	ACCESS:         37  HIT:         37  MISS:          0  HIT %:        100  MISS %:          0  MPKI: 0
PSCL3 LOAD TRANSLATION DATA	ACCESS:       1809  HIT:          0  MISS:       1809  HIT %:          0  MISS %:        100  MPKI: 0.03618
PSCL3 TRANSLATION FROM L1D PREFETCHER DATA	ACCESS:         37  HIT:          0  MISS:         37  HIT %:          0  MISS %:        100  MPKI: 0.00074


PSCL2 TOTAL     ACCESS:       3942  HIT:       1907  MISS:       2035  HIT %:    48.3765  MISS %:    51.6235   MPKI: 0.0407
PSCL2 LOAD TRANSLATION INSTRUCTION	ACCESS:       2130  HIT:       1871  MISS:        259  HIT %:    87.8404  MISS %:    12.1596  MPKI: 0.00518
PSCL2 TRANSLATION FROM L1D PREFETCHER INSTRUCTION	ACCESS:         36  HIT:         36  MISS:          0  HIT %:        100  MISS %:          0  MPKI: 0
PSCL2 LOAD TRANSLATION DATA	ACCESS:       1740  HIT:          0  MISS:       1740  HIT %:          0  MISS %:        100  MPKI: 0.0348
PSCL2 TRANSLATION FROM L1D PREFETCHER DATA	ACCESS:         36  HIT:          0  MISS:         36  HIT %:          0  MISS %:        100  MPKI: 0.00072


LLC TOTAL     ACCESS:     538693  HIT:     509543  MISS:      29150  HIT %:    94.5888  MISS %:    5.41125   MPKI: 0.583
LLC LOAD INSTRUCTION	ACCESS:     278163  HIT:     276963  MISS:       1200  HIT %:    99.5686  MISS %:   0.431402  MPKI: 0.024
LLC LOAD TRANSLATION INSTRUCTION	ACCESS:        214  HIT:        171  MISS:         43  HIT %:    79.9065  MISS %:    20.0935  MPKI: 0.00086
LLC LOAD DATA	ACCESS:      71680  HIT:      68045  MISS:       3635  HIT %:    94.9289  MISS %:    5.07115  MPKI: 0.0727
LLC RFO DATA	ACCESS:      45340  HIT:      31194  MISS:      14146  HIT %:    68.8002  MISS %:    31.1998  MPKI: 0.28292
LLC PREFETCH DATA	ACCESS:      73752  HIT:      64089  MISS:       9663  HIT %:     86.898  MISS %:     13.102  MPKI: 0.19326
LLC WRITEBACK DATA	ACCESS:      68135  HIT:      67790  MISS:        345  HIT %:    99.4937  MISS %:   0.506348  MPKI: 0.0069
LLC LOAD TRANSLATION DATA	ACCESS:       1394  HIT:       1276  MISS:        118  HIT %:    91.5352  MISS %:    8.46485  MPKI: 0.00236
LLC TRANSLATION FROM L1D PREFETCHER DATA	ACCESS:         15  HIT:         15  MISS:          0  HIT %:        100  MISS %:          0  MPKI: 0

LLC AVERAGE MISS LATENCY: 156.714 cycles
LLC RQ	ACCESS:     396819	FORWARD:          0	MERGED:          0	TO_CACHE:     396806
LLC WQ	ACCESS:      68135	FORWARD:         13	MERGED:          0	TO_CACHE:      68135
LLC PQ	ACCESS:      73752	FORWARD:          0	MERGED:          0	TO_CACHE:      73752

LLC Dense regions hint to LLC: 0

RAW hits: 1173076
Loads Generated: 12634728
Loads sent to L1D: 11461652
Stores Generated: 6942484
Stores sent to L1D: 6942496
Major fault: 0 Minor fault: 2574
Allocated PAGES: 2574

stream: 
stream:times selected: 1202018
stream:pref_filled: 119745
stream:pref_useful: 24608
stream:pref_late: 6409
stream:misses: 7136
stream:misses_by_poll: 0

CS: 
CS:times selected: 181456
CS:pref_filled: 57995
CS:pref_useful: 34671
CS:pref_late: 7655
CS:misses: 17226
CS:misses_by_poll: 2

CPLX: 
CPLX:times selected: 1019460
CPLX:pref_filled: 21649
CPLX:pref_useful: 5108
CPLX:pref_late: 3034
CPLX:misses: 91366
CPLX:misses_by_poll: 3

NL_L1: 
NL:times selected: 20577
NL:pref_filled: 636
NL:pref_useful: 299
NL:pref_late: 362
NL:misses: 1458
NL:misses_by_poll: 0

total selections: 2423511
total_filled: 94022
total_useful: 35820
total_late: 19134
total_polluted: 5
total_misses_after_warmup: 759049
conflicts: 5999228

test: 121778

DRAM Statistics
 CHANNEL 0
 RQ ROW_BUFFER_HIT:      10517  ROW_BUFFER_MISS:      18284
 DBUS_CONGESTED:          9
 WQ ROW_BUFFER_HIT:       1663  ROW_BUFFER_MISS:      13036  FULL:          0

 AVG_CONGESTED_CYCLE: 6

CPU 0 Branch Prediction Accuracy: 99.8082% MPKI: 0.35064 Average ROB Occupancy at Mispredict: 68.8739
Branch types
NOT_BRANCH: 40857264 81.7145%
BRANCH_DIRECT_JUMP: 549085 1.09817%
BRANCH_INDIRECT: 183449 0.366898%
BRANCH_CONDITIONAL: 6184018 12.368%
BRANCH_DIRECT_CALL: 941975 1.88395%
BRANCH_INDIRECT_CALL: 170972 0.341944%
BRANCH_RETURN: 1112952 2.2259%
BRANCH_OTHER: 0 0%

DRAM PAGES: 1048576
Allocated PAGES: 2574
Average_ROB_Occupancy: 49.0663
Average_Decode_Occupancy: 4.39255
Average_FTQ_Occupancy: 13.4568
Indirect max targets: 14 Average targets: 1.17778
Branch_type:  BRANCH_DIRECT_JUMP:  Count Percentage: 3.34955 4.54468 3.83774 6.80615 3.54135 2.84861 4.13159 70.9403 
Branch_type:  BRANCH_INDIRECT:  Count Percentage: 11.7114 3.50663 2.63739 9.69583 3.33104 2.79447 1.72378 64.5994 
Branch_type:  BRANCH_CONDITIONAL:  Count Percentage: 21.198 2.89417 2.17243 4.66176 2.40831 2.24656 3.12414 61.2946 
Branch_type:  BRANCH_DIRECT_CALL:  Count Percentage: 0.856709 1.24599 0.776957 3.87216 3.42396 1.95092 4.32766 83.5457 
Branch_type:  BRANCH_INDIRECT_CALL:  Count Percentage: 9.5428 0 2.98883 5.3345 0.845531 1.71071 3.84551 75.7321 
Branch_type:  BRANCH_RETURN:  Count Percentage: 4.68554 1.38843 2.39009 4.38936 4.24668 3.16822 3.60695 76.1247 
Branch_type:  BRANCH_DIRECT_JUMP:  Total Count: 36796 49925 42159 74768 38903 31293 45387 779305 
Branch_type:  BRANCH_INDIRECT:  Total Count: 43020 12881 9688 35616 12236 10265 6332 237295 
Branch_type:  BRANCH_CONDITIONAL:  Total Count: 2621692 357940 268678 576548 297851 277846 386381 7580674 
Branch_type:  BRANCH_DIRECT_CALL:  Total Count: 16081 23388 14584 72683 64270 36620 81233 1568207 
Branch_type:  BRANCH_INDIRECT_CALL:  Total Count: 32538 0 10191 18189 2883 5833 13112 258223 
Branch_type:  BRANCH_RETURN:  Total Count: 103968 30808 53034 97396 94230 70300 80035 1689140 
Number of unique branch instructions: 10885
Upper 32 bits: 
aaaa
ffff
ffff0000
Unique upper 32 bits: 3
Unique upper 36 bits: 3
Unique upper 40 bits: 5
Unique upper 44 bits: 32
Unique upper 48 bits: 158
Offset_3 4506
Offset_4 263
Offset_5 488
Offset_6 553
Offset_7 650
Offset_8 592
Offset_9 523
Offset_10 428
Offset_11 356
Offset_12 326
Offset_13 242
Offset_14 247
Offset_15 205
Offset_16 233
Offset_17 170
Offset_18 154
Offset_19 272
Offset_20 147
Offset_21 235
Offset_22 412
Offset_23 241
Offset_24 348
Offset_25 117
Offset_47 92
Offset_64 4
decode_dispatch_called: 29673103 48.6535
Dispatch_width: 0 17572272 59.2195 28.8123
Dispatch_width: 1 2135897 7.19809 3.50212
Dispatch_width: 2 1253575 4.22462 2.05542
Dispatch_width: 3 1140186 3.84249 1.8695
Dispatch_width: 4 1153632 3.8878 1.89155
Dispatch_width: 5 1183668 3.98903 1.9408
Dispatch_width: 6 5233873 17.6384 8.58171
Empty_decode_cycles: 31315582 51.3465
ROB_full_cycles: 458976 0.752559
Starvation_cycles_per_kilo_instr: 552.958
Starvation_cycles_per_kilo_instr_3: 529.585
Starvation_cycles_per_kilo_instr_0: 484.289
Branch_type_1  (3,1)  (4,9)  (5,39)  (6,76)  (7,126)  (8,153)  (9,138)  (10,111)  (11,79)  (12,55)  (13,11)  (14,2)  (15,3)  (16,4)  (18,1)  (19,5)  (20,2)  (21,1)  (22,3)  (23,2)  (24,10)  (25,12) 
Branch_type_2  (3,1)  (4,1)  (5,1)  (8,4)  (9,4)  (10,1)  (12,1)  (13,1)  (14,1)  (16,3)  (17,2)  (20,2)  (21,2)  (23,5)  (24,1)  (47,41) 
Branch_type_3  (3,4504)  (4,253)  (5,444)  (6,460)  (7,491)  (8,366)  (9,285)  (10,173)  (11,140)  (12,62)  (13,10)  (64,3) 
Branch_type_4  (6,4)  (7,8)  (8,27)  (9,58)  (10,68)  (11,71)  (12,117)  (13,103)  (14,112)  (15,98)  (16,104)  (17,77)  (18,66)  (19,132)  (20,75)  (21,124)  (22,217)  (23,136)  (24,203)  (25,101) 
Branch_type_5  (8,3)  (9,1)  (10,4)  (11,5)  (12,3)  (13,14)  (14,16)  (15,11)  (16,22)  (17,13)  (18,23)  (19,14)  (20,11)  (21,13)  (22,43)  (23,26)  (24,38) 
Branch_type_6  (5,4)  (6,13)  (7,25)  (8,39)  (9,37)  (10,71)  (11,61)  (12,88)  (13,103)  (14,116)  (15,93)  (16,100)  (17,78)  (18,64)  (19,121)  (20,57)  (21,95)  (22,149)  (23,72)  (24,96)  (25,4)  (47,51)  (64,1) 
aaaaab1fc620: 2ac9e77e 2aca717c 2aca8eff 2acaf6bc 2acaf9aa 2acaf9f1 2acb1abc 2acb1b7f 2acd4e22 2acdb712 2acf5f9e 2ad0ef44 2ad3f15c 2ad414e6 2ad60e42 2ad8609c 2ad99830 2ada35cc 2ada4676 2ada6612 2adf183e 2adf30e5 2adf5602 2adf785c 2ae11572 2aeb2dcf 2aee101b 2aee1ae1 2b156a8c 2b156b61 2b156bea 2b167f35 2b177656 2b17feec 2b1a3e5a 
aaaaab1fc640: 2ac9ec07 2aca656e 2aca801d 2acaea11 2acaee73 2acb13ee 2acb1470 2acd462b 2ad0ef5d 2ad3f3fe 2ad86e9b 2ada1641 2ada4115 2ada6638 2adf30d4 2ae12e57 2aee1033 2b1693ab 2b16948c 2b169491 2b17d915 2b17fa85 2b17fccd 
aaaaab1fcb00: 2acf2d72 2acf3734 2acf604c 2acfa5b7 2ad397b5 2ad3b800 2ae8af7d 2ae8aff0 2ae9aaba 2aea9fc6 2aeaa358 2aee910b 2aee91cf 2aee928e 2aee92e4 2af6fe87 2af70dfe 2b16850c 2b16c4a2 2b1765f4 2b178094 2b17d925 2b17db06 2b17ec8f 
aaaaab1fcb10: 2acf2d95 2acf3758 2acf6052 2acfa5f4 2ad397c3 2ad3b81c 2ae8af88 2ae8affe 2ae9aacf 2aeaa017 2aeaa36d 2aee9114 2aee91d8 2aee934d 2aee9353 2af6fe8c 2af70e22 2b168526 2b16c542 2b176609 2b1780a3 2b17d95d 2b17db44 2b17ecac 
aaaaac68f310: 2ac9ec8c 2ac9fb44 2ac9fbd2 2aca59ab 2acac04c 2acaf6e0 2acaf6ec 2acaf6f9 2acaf700 2acaf708 2acf2d90 2ad3cfbd 2ad3cfc4 2ad3d000 2ad3f35f 2ad4955d 2ad49571 2ad4f3f2 2ad4f400 2ad5f240 2ad5f37c 2ad5f86a 2ad5f86f 2ad5f880 2ad5fc0d 2ad5fc14 2ad5fc21 2ad5fe1b 2ad873bb 2ad873e3 2ad8a6b2 2ad9086e 2ad93096 2ad9bbb2 2ada152c 2ada1554 2ada3332 2ada5522 2adf3130 2adf313c 2adf3a3f 2adf3bd9 2adf5788 2adf7a8d 2ae07f6b 2ae0857a 2ae0857e 2ae08630 2ae08634 2ae08637 2ae08642 2ae0866f 2ae086e4 2ae086ec 2ae08717 2ae0871b 2aee0170 2aee1d38 2aee75f4 2aee7662 2aee85ca 2aee85e4 2aee8eef 2af70b84 2af74e8f 2b17d843 
aaaaac690ef0: 2aca598b 2acb111b 2acb175f 2acb1772 2acbfaf4 2acbfb00 2acf374f 2acf6d43 2acfa5c8 2ad3baf1 2ad3d4ac 2ad3d4b8 2ad3f1cf 2ad486b2 2ad5a59b 2ad5fc64 2ad5fcf9 2ad6121c 2ad906e9 2ad907bf 2ad9bada 2ada16ce 2ada1ad5 2ada43df 2ada64c0 2ada72ee 2adeb71a 2adf3bcb 2adf7a38 2adf7c6a 2adf8872 2adf8880 2adf9959 2adf9abe 2ae07f78 2ae08503 2ae08754 2ae12e80 2aea3bea 2aecb509 2aee00b0 2aee2bdd 2aee5467 2aee5601 2aee8f20 2af703fd 2af7048b 2af74e74 
Unique trigger count: 
1 10359
2 574
3 100
4 32
5 13
6 12
7 8
8 1
9 3
10 3
11 1
12 1
13 1
14 2
15 1
16 2
19 2
23 1
24 2
35 1
48 1
66 1
BTB PER SET UNIQUE ADDR: 3 4 3 3 1 1 3 2 4 0 2 0 5 3 1 3 3 2 4 5 3 4 2 3 4 5 2 4 3 3 6 6 4 4 5 2 1 6 6 2 4 4 4 7 6 4 4 4 6 3 3 2 3 1 0 3 4 3 3 3 1 4 2 3 1 4 5 4 3 5 5 1 1 4 2 3 3 7 2 4 2 3 1 4 3 3 2 5 3 3 6 5 3 5 3 0 4 4 2 3 4 4 3 3 4 2 1 2 3 2 2 2 3 6 2 6 2 5 4 1 5 4 2 0 1 2 2 2 7 6 6 2 4 3 6 5 2 2 3 3 5 4 4 3 3 5 3 5 5 4 3 9 3 5 4 1 4 4 5 3 5 6 5 4 7 5 2 2 9 3 3 3 5 3 1 2 4 5 6 1 3 4 7 4 7 7 4 1 2 3 5 3 3 4 4 4 4 3 3 6 3 2 4 2 3 3 2 5 3 1 2 4 5 4 4 2 3 5 4 0 1 3 2 4 4 2 4 3 0 4 8 4 3 4 4 4 5 3 2 3 1 0 7 4 11 8 1 3 4 4 3 2 1 4 2 7 3 5 4 3 4 4 4 2 3 7 3 2 4 2 3 2 2 4 5 3 2 2 3 3 4 3 6 2 5 5 4 3 1 1 0 3 1 7 2 1 5 3 2 2 3 3 2 2 4 2 4 2 8 5 4 2 3 2 5 2 7 6 2 4 4 7 3 5 2 3 2 7 1 2 5 0 2 5 5 2 4 5 6 0 4 0 1 5 5 3 1 6 5 5 4 8 6 3 5 3 2 0 5 1 2 6 2 4 7 5 1 1 2 2 3 2 3 4 4 4 3 5 4 4 6 3 2 6 3 3 6 2 6 2 5 5 4 2 3 1 5 0 1 4 4 2 4 2 2 4 3 2 1 1 1 3 5 4 2 3 6 3 1 3 1 1 4 5 5 6 3 0 2 6 1 2 8 3 5 5 3 3 4 0 3 4 5 3 5 6 2 3 3 3 4 3 1 3 5 1 1 3 7 3 3 3 4 6 2 3 6 3 3 3 0 4 5 3 3 1 4 5 2 1 2 1 2 2 0 4 3 1 7 1 5 2 3 5 2 5 3 3 2 2 5 1 1 2 2 2 2 2 2 3 4 2 5 8 2 1 2 5 4 6 4 5 4 3 6 6 1 7 6 4 5 3 4 6 3 5 2 2 4 1 2 5 6 3 6 2 8 3 7 9 4 6 3 6 1 3 3 1 4 4 7 3 5 3 2 1 4 3 3 7 4 2 3 8 3 2 3 4 1 5 5 2 2 0 1 0 0 9 4 2 6 7 2 2 3 3 6 3 5 3 6 3 6 8 2 4 4 4 2 2 5 3 2 2 2 3 2 0 3 1 5 4 8 2 2 5 3 5 2 3 5 4 4 3 5 5 3 5 3 3 8 1 4 4 1 0 4 4 3 4 4 2 5 2 3 0 5 3 2 3 6 2 6 4 5 4 5 3 2 4 5 5 4 3 6 6 3 3 3 3 4 2 5 2 6 3 5 3 4 3 1 5 2 3 3 3 6 4 5 5 0 6 0 3 3 3 4 1 3 1 3 3 3 2 2 1 8 2 0 3 2 0 1 1 1 3 1 4 2 4 6 5 2 2 3 4 8 3 2 2 2 3 2 4 2 3 4 2 3 2 0 2 1 4 2 2 3 6 4 1 3 3 1 5 4 4 8 3 2 2 5 4 0 3 3 4 5 2 1 3 4 4 0 3 8 6 3 4 0 3 2 4 2 1 5 7 7 2 2 4 5 3 6 3 5 3 3 5 2 3 1 4 4 1 5 4 1 2 0 4 5 2 5 2 2 2 4 2 4 4 3 1 3 2 5 2 2 2 5 3 2 2 3 4 2 5 7 5 5 2 6 3 5 4 5 5 3 2 4 5 2 6 2 1 9 3 3 4 5 3 2 3 3 6 4 0 2 3 6 4 3 6 5 5 6 3 2 3 3 5 5 3 4 4 3 2 6 4 3 2 5 2 1 4 5 5 5 5 3 5 5 4 1 3 1 5 0 2 6 2 6 5 5 3 4 1 3 2 5 8 5 4 9 7 6 4 6 5 2 7 4 2 1 4 4 6 5 5 4 4 7 1 5 5 2 4 6 6 4 2 3 3 4 5 2 6 9 5 6 3 3 4 0 6 7 1 7 5 1 3 7 5 3 5 2 1 2 5 4 2 5 4 2 7 5 5 4 5 3 5 3 3 5 3 3 5 4 3 3 3 5 3 4 4 6 2 5 3 2 5 5 2 10 5 3 3 3 2 2 3 4 7 6 2 3 2 3 2 3 1 3 2 4 4 3 4 6 5 4 6 0 3 3 4 4 4 2 1 3 2 3 1 2 1 4 1 3 3 3 5 2 8 5 3 2 1 10 1 2 4 1 2 6 5 3 7 3 5 5 6 3 5 3 2 1 1 5 1 4 4 3 8 5 1 7 4 6 2 3 4 5 3 5 8 4 4 6 1 4 5 7 4 3 3 4 3 6 6 3 6 7 6 4 3 5 5 1 2 4 5 1 3 2 1 3 5 2 3 5 2 2 5 4 2 5 1 7 3 3 2 3 1 3 5 3 4 3 4 2 6 2 3 7 3 5 5 4 5 2 8 3 5 3 8 6 2 7 1 5 2 1 2 4 4 3 1 3 5 3 1 2 3 4 4 3 3 3 4 2 5 2 5 4 5 0 5 3 3 2 6 8 1 8 0 1 4 5 2 5 1 3 3 4 1 1 2 4 5 3 4 1 4 4 6 5 1 4 3 3 6 10 4 3 7 6 5 1 1 3 5 6 3 2 2 4 3 4 4 5 3 1 4 2 3 6 8 5 3 3 6 1 2 6 3 4 1 3 2 6 8 3 3 3 3 4 5 2 5 6 6 5 2 1 5 4 2 4 3 4 4 4 4 7 3 5 4 3 5 5 3 1 7 4 4 3 3 3 2 3 3 2 2 5 4 3 3 5 2 1 3 3 8 5 2 3 4 2 4 3 3 4 3 2 1 4 2 4 2 5 3 4 4 2 1 2 6 1 5 2 4 2 4 7 1 1 5 5 3 3 4 5 2 3 4 5 5 4 4 4 3 3 3 2 3 5 2 4 1 4 0 8 3 3 6 4 4 5 7 3 2 3 3 2 3 4 1 4 2 4 3 0 5 1 6 3 3 3 5 3 2 5 3 3 2 4 1 6 3 0 3 4 1 1 4 1 5 3 3 6 3 2 2 2 3 2 2 7 2 3 5 3 3 3 4 2 2 5 0 2 3 4 3 2 2 2 0 4 0 4 2 5 4 3 3 2 1 2 6 4 2 7 1 3 4 2 2 5 5 2 2 6 0 1 2 3 1 1 2 3 3 5 3 1 1 8 3 1 4 1 7 1 4 3 3 6 2 4 2 1 3 3 1 3 3 5 2 3 3 1 3 0 5 2 3 3 0 4 3 5 3 5 3 3 4 2 3 2 2 2 3 5 0 2 3 3 3 4 1 3 3 2 10 7 2 3 2 4 1 1 3 6 2 3 0 3 2 4 2 3 5 6 6 8 0 4 2 8 4 4 5 4 8 2 4 8 3 0 6 4 3 3 5 3 3 2 1 2 5 2 2 3 3 2 3 6 3 5 4 6 1 1 5 6 3 3 5 5 4 6 2 5 5 2 6 4 3 3 2 3 7 5 3 2 3 3 3 4 4 2 3 3 2 3 1 3 8 0 2 2 3 3 4 5 3 4 2 6 1 2 2 6 2 4 5 8 1 1 7 3 4 3 3 4 7 2 3 2 5 8 3 5 3 5 3 5 10 4 4 4 5 2 5 4 3 2 3 1 2 2 4 4 3 2 4 3 5 4 3 4 9 0 3 2 4 4 4 3 4 3 6 4 5 1 5 3 3 4 3 3 0 3 5 0 7 2 6 6 1 4 3 3 0 5 3 3 6 3 6 2 3 2 2 3 5 7 1 4 3 0 3 2 4 6 3 2 4 5 2 3 2 6 4 4 1 5 3 0 2 4 1 1 8 2 0 4 2 4 3 2 3 6 3 3 6 1 5 4 6 2 6 5 3 3 2 7 1 4 1 3 3 4 4 3 4 2 1 2 5 0 3 0 3 5 6 2 2 5 2 3 3 3 1 3 2 4 2 4 2 5 3 2 3 1 2 3 3 4 2 3 4 2 1 1 2 2 5 1 5 1 6 4 3 3 2 5 1 2 3 5 4 3 4 5 6 3 3 3 4 3 2 0 3 2 0 2 1 2 2 4 2 5 2 2 3 4 1 2 4 3 2 3 9 3 2 7 7 3 2 4 2 3 6 3 4 4 3 4 1 2 4 6 4 2 4 3 2 5 3 5 7 4 3 0 4 1 0 2 3 0 4 4 6 1 3 4 7 5 0 2 2 4 3 5 2 3 3 8 3 2 3 3 8 2 7 3 4 6 0 1 3 1 4 4 2 0 2 3 4 6 5 1 0 3 4 6 1 2 1 3 7 2 1 5 5 3 3 5 4 0 6 3 6 2 1 2 2 1 2 5 1 3 3 3 3 4 1 5 3 5 2 4 2 1 3 6 4 4 0 
BTB PER SET COUNT: 3 4 3 4 1 2 3 2 4 0 2 0 2552 3 1 3 3 3 4 1469 3 5 3 3 4 13 2 5 1458 3 3055 22 4 4 8 2 2912 768 775 2 5 5 8 2302 5169 4 4 4 1650 3 3 2 3 1 0 3 7 3 3 3 1 4 3 6 1 391 524 5 3 1037 766 1 1 5 3 3 514 780 3 4 2 4 3 4 3 7 2 10 3 3 2632 447 3 3700 3 0 4 7 2 3 6 4 7 3 4 2 1 2 3 5 2 2 3 2040 2 1893 2 8 4 1 6 6 2 0 2 2 2 2 3177 11 2047 2 4 5 1021 7 2 2 3 3 1469 6 5 3 4 13 5 4198 8 4 3 6658 3 2549 9 1 4 4 5 3 9 1021 7 4 17 1900 2 2 8132 3 3 3 7 3 1 4 4 9 965 1 3 4 6827 4 10 13 5 1 3 4 35 3 3 4 4 10 4 4 3 8 3 2 4 2 4 3 2 1469 3 1 2 8 15 4 4 3 3 804 5 0 1 3 3 4 4 2 9 45 0 4 5787 5 3 6 4 4 7 3 2 3 1 0 2558 4 9147 2244 1 3 4 4 3 2 1 4 2 2452 3 13 4 4 9 4 4 2 1458 1399 3 2 4 2 3 2 3 4 5 3 2 3 3 3 6 3 2044 2 768 2552 4 3 1 1 0 3 1 19 4 1 13 3 3 2 3 3 2 2 4 2 4 2 2047 1020 6 2 3 2 1020 4 2557 1279 2 5 4 2303 3 7 2 3 2 653 1 2 1031 0 3 16 1512 5 1024 6 25 0 4 0 1 1027 1025 3 1 7 7 8 5 117 11 3 44 4 2 0 7 1 3 26 3 6 2454 1670 1 2 2 2 4 2 3 4 6 4 4 9 6 4 28 3 2 1765 6 4 14 2 10 2 20 8 4 2 3 1 3128 0 2 4 4 2 5 2 2 5 1458 3 1 946 1 3 9 5 947 3 138 3 1 93 2 1 4 8 9 9 8 0 2 6 143 2 2816 4 1011 2532 3 3 5 0 5 5 1273 4 9 1026 2 3 3 4 4 3 1 4 2026 2 1 3 1543 3 3 3 4 2035 2 4 12 3 4 3 0 6 35 512 3 1 5 1024 2 1 2 1 2 511 0 4 3 1 29 1 5 2 5 8 2 24 7 3 2 2 2025 7 1 2 2 5 2 2 2 3 4 2 8 39 3 1 2 2549 5 517 6 1462 4 4 18 1536 1 2035 4724 4 6 3 4 18 3 523 3 2 10 1 3 1533 180 7 15 2 69 3 1031 9291 4 1537 4 3054 2 3 6 1 4 5 6745 3 2027 4 2 1 4 3 3 3089 4 5 3 5242 3 2 3 6 1 24 9 39 2 0 1 0 0 4063 5 4 2043 3068 3 2 948 3 9 3 6 3 10 3 12 1530 2 5 5 4 4 2 2553 3 2 2 2 3 902 0 4 1 16 515 3573 2 3 5 3 14 2 3 2046 1459 4 6 1027 6 3 6 3 3 3076 1 4 4 1 0 6 5 3 4 5 2 7 2 3 0 7 3 2 3 7953 2 24 4 2044 6 2935 1024 3 4 783 6 6 7 1535 3106 3 3 5 3 4 4 5 1021 1534 3 21 1458 5 3 3 1028 2 3 3 3 2030 4 16 42 0 2556 0 3 3 1022 4 1 3 2 3 3 4 2 1021 1 2496 2 0 4 2 0 1 1 1 5 1 5 2 4 1537 9 947 2 3 5 15 4 2 3 2 3 3 4 2 4 521 2 3 1012 0 2 1 6 2 2 3 3063 4 1 3 3 1 20 5 4 5755 3 3 3 8 5 0 128 3 6 2754 6 1 3 4 6 0 3 3208 4706 5 4 0 4 3 33 2 1 6 2856 2042 2 3 4 11 4 7 3 2045 5 6 21 2 5 1 5 4 1 5 4 3 2 0 4 7 2 7 2 2 2 4 2 4 51 3 1 3 2 2049 2 9 2 1535 3 2 2 5 1463 2 12 2045 6 11 3 2553 3 2028 4 8 12 3 3 4 10 2 4789 2 1 6145 948 6 5 1533 5 2 3 3 2214 4 0 3 4 24 4 5 4710 8 8 87 3 2 3 3 8 7 3 4 4 3 2 739 4 3 2 1951 3 1 62 9 2202 6 1019 3 9 44 4 1 3 2 1521 0 2 1031 2 45 30 1520 3 6 1 3 2 2025 148 8 515 5270 3716 1544 4 2155 8 2 32 4 2 1 949 6 2556 44 1540 4 4 796 1 380 8 2 4 1438 2047 4 2 3 519 4 4721 4 40 1251 10 2049 4 3 4 0 392 27 1 7200 20 1 3 2061 14 513 8 2 4 2 6 7 2 1737 5 2 3578 7 8 4 2026 3 29 4 5 6 3 3 16 5 7 4 4 2052 3 2407 387 1785 3 24 4 2 9 1953 5 5015 22 3 3 4 2 2 3 5 3059 2030 2 3 2 3 2 3 3 3 2 4 5 3 4 14 2042 5 1530 0 3 3 4 1460 390 2 1 3 4 4 1 4 1 4 1 4 3 3 11 2 4080 1532 3 2 2 11126 1 2 4 1 2 2048 109 4 5233 4 24 9 2554 3 26 3 2 2 1 27 1 6 4 3 2055 8 1 2116 4 2555 2 513 4 13 3 2533 1909 4 4 2554 2 5 5 4755 4 3 3 4 3 1535 2031 4 2544 1525 2021 4 3 14 6 1 3 4 2041 1 3 2 1 3 9 4 4 534 2 2 37 4 2 11 1 5343 5 3 3 3 1 3 17 4 5 3 4 2 20 2 3 1797 3 6 8 4 2023 2 5730 3 1536 4 2695 7184 2 5216 1 18 2 1 3 520 4 4 1 3 124 4 1 2 514 4 4 3 4 3 5 2 1540 2 9 4 16 0 2027 3 3 2 42 7221 1 42 0 1 5 8 3 23 1 3 1014 6 1 1 2 5 12 3 5 1 4 6 7254 18 1 4 3 3 3048 10253 1908 5 7201 20 2045 1 1 3 2025 2548 5 2 2 4 3 4 4 14 3 1 4 2 4 3339 7807 3696 4 4 396 1 2 21 3 4 1 3 3 3062 6508 948 3 4 3 7 8 2 2021 2049 2548 7 2 1 17 4 2 6 3 4 4 4 4 2039 3 2045 4 513 2025 2551 6 1 3152 4 5 3 3 3 5 3 3 2 2 19 4 4 3 1012 2 1 4 3 3064 11 4 3 4 3 4 3 3 4 3 2 1 4 3 5 2 9 4 8 4 2 1 2 1025 1 6 3 4 2 4 365 1 1 9 9 948 3 4 2553 3 3 47 7 10 6 4 5 3 3 3 2 3 2043 3 4 1 5 0 5566 4 3 3035 4 5 2529 6720 3 2 3 3 2 3 5 1 6 3 6 5 0 3707 2 16 4 3 4 9 4 2 1462 3 3 1331 12 1 476 4 0 3 6 1 4 1333 1 7 3 3 2029 4 3 2 2 3 2 2 3036 2 3 75 4 3 3 5 2 2 9 0 4 6 4 951 2 2 2 0 4 0 4 2 5 6 3 3 1013 1 10 11 33 2 2553 1 4 5 2 2 8 14 95 2 21415 0 1 2 3 1 1 2 3 3 2164 379 1 1 1451 3 1 4 1 2564 1 4 4 4 2023 2 11 2 1 3 3 1 4 3 8 4 3 4 1 3 0 3690 2 3 6 0 6 430 2040 3 8 4 3 4 2 4 2 2 2 3 8 0 2 3 3 3 12 1 3 3 2 3839 3063 2 5 2 4 1 1 3 1711 2 3 0 3 2 4 2 3 9 2531 20 5742 0 4 2 2282 4 5 25 4 3581 2 5 8237 3 0 3061 1459 3 3 8 3 3 2 1 2 952 4 2 4 3 2 3 1793 5 2045 4 1045 3058 1 1290 6740 4 7 12 11 4 3223 3 1676 2042 2 2049 5 255 387 2 1458 1547 15 233 7 3 3 3 4 4 2 3 5 3 4 1 3 2669 0 3 2 3 3 5 532 3 4 2 3767 2 2 5 1522 2 1534 1533 3060 1 1 6166 3 1024 3 3 4 2047 518 4 5 5 3045 3 515 3 4274 3 6 8637 5 4 14564 3060 3 2026 1459 11 2 3 1 3 2 4 4 3 2 5 3 30 4 3 166 3580 0 1460 2 1459 147 4 3 4 5 2426 4 731 1 2552 6 4 4 4 3 0 3 3109 0 5228 2 1289 2560 1 5 3 3 0 8 3 8 2080 3 4799 2 4 2 3 3 8 7268 1 4 530 0 3 2 5 2027 948 2 4 1972 2 3 2 2296 4 4 1 24 3 0 2 4 1456 1 4030 2 0 5 3 4 3 4 3 2499 4 471 2547 1 2550 4 2048 217 2026 103 3 3 2 3867 2 214 1 4 1464 5 4 3 4 2 1 2 453 0 3 0 3 9 2986 2 2 771 372 3 5 949 1 3 2 5 2 4 2 122 3 2 3 1 2 210 3 5 2 3 4 2 1 2 2 2 1530 1 8 1 3693 4 3 3 10 7 1 2 3 14 4 3 1016 9 1032 3 3 3 5 3 2 0 3 3 0 2 1 2 2 4 8 2552 2 2 3 4 1 2 5 3 2 3 3027 4 2 3315 2535 145 2 4 4 3 25 4 7 10 3 5 2 3 4 12 1015 2 4 3 2 6 3 8 2652 4 5 0 4 2 0 2 4 0 5 1460 1044 1 3 4 2531 7 0 4 2 6 3 7 3 5 3 4012 3 3 4 3 2567 5 3570 3 4 4995 0 1 3 1 6 4 2 0 2 3 4 24 8 3 0 4 4 1548 1 2 1 3 2556 2 1 17 9 3 6 2025 4 0 2556 3 2029 2 1 2 2 1 2 5 1 3 3 4 4 4 1 12 3 222 2 5 2 1 3 1483 4 5 0 
