
*** ChampSim Multicore Out-of-Order Simulator ***

Warmup Instructions: 50000000
Simulation Instructions: 50000000
Number of CPUs: 1
LLC sets: 2048
LLC ways: 16
Off-chip DRAM Size: 4096 MB Channels: 1 Width: 64-bit Data Rate: 6400 MT/s
CPU 0 runs ./micro_traces/srv414.trace.gz
.gz
ITLB has LRU replacement policy
DTLB has LRU replacement policy
STLB has LRU replacement policy
FDIP Prefetcher at L1I
L1I has LRU replacement policy
L1D has LRU replacement policy
Initialize SRRIP state for L2C
Initialize DRRIP state for LLC
Heartbeat_Variant_0 : 1403 0.342529 per_variant_size: 0 1403 0 0 0 0 0 0 0 
Heartbeat_Variant_1 : 2490 0.60791 per_variant_size: 0 160 2330 0 0 0 0 0 0 
Heartbeat_Variant_2 : 0 0 per_variant_size: 0 0 0 0 0 0 0 0 0 
Heartbeat_Variant_3 : 0 0 per_variant_size: 0 0 0 0 0 0 0 0 0 
Heartbeat_Variant_0_evicts 0 : 5598 1 : 12 2 : 0 3 : 0 
Heartbeat_Variant_1_evicts 0 : 10 1 : 0 2 : 0 3 : 0 
Heartbeat_Variant_2_evicts 0 : 0 1 : 0 2 : 0 3 : 0 
Heartbeat_Variant_3_evicts 0 : 0 1 : 0 2 : 0 3 : 0 
Heartbeat CPU 0 instructions: 10000003 cycles: 2796987 heartbeat IPC: 3.57528 cumulative IPC: 3.57528 (Simulation time: 0 hr 1 min 53 sec) 
Heartbeat_Variant_0 : 1403 0.342529 per_variant_size: 0 1403 0 0 0 0 0 0 0 
Heartbeat_Variant_1 : 2493 0.608643 per_variant_size: 0 140 2353 0 0 0 0 0 0 
Heartbeat_Variant_2 : 0 0 per_variant_size: 0 0 0 0 0 0 0 0 0 
Heartbeat_Variant_3 : 0 0 per_variant_size: 0 0 0 0 0 0 0 0 0 
Heartbeat_Variant_0_evicts 0 : 5520 1 : 0 2 : 0 3 : 0 
Heartbeat_Variant_1_evicts 0 : 0 1 : 0 2 : 0 3 : 0 
Heartbeat_Variant_2_evicts 0 : 0 1 : 0 2 : 0 3 : 0 
Heartbeat_Variant_3_evicts 0 : 0 1 : 0 2 : 0 3 : 0 
Heartbeat CPU 0 instructions: 20000000 cycles: 5592716 heartbeat IPC: 3.57688 cumulative IPC: 3.57608 (Simulation time: 0 hr 3 min 37 sec) 
Heartbeat_Variant_0 : 1406 0.343262 per_variant_size: 0 1406 0 0 0 0 0 0 0 
Heartbeat_Variant_1 : 2509 0.612549 per_variant_size: 0 150 2359 0 0 0 0 0 0 
Heartbeat_Variant_2 : 0 0 per_variant_size: 0 0 0 0 0 0 0 0 0 
Heartbeat_Variant_3 : 0 0 per_variant_size: 0 0 0 0 0 0 0 0 0 
Heartbeat_Variant_0_evicts 0 : 5633 1 : 6 2 : 0 3 : 0 
Heartbeat_Variant_1_evicts 0 : 7 1 : 0 2 : 0 3 : 0 
Heartbeat_Variant_2_evicts 0 : 0 1 : 0 2 : 0 3 : 0 
Heartbeat_Variant_3_evicts 0 : 0 1 : 0 2 : 0 3 : 0 
Heartbeat CPU 0 instructions: 30000000 cycles: 8389111 heartbeat IPC: 3.57603 cumulative IPC: 3.57606 (Simulation time: 0 hr 5 min 19 sec) 
Heartbeat_Variant_0 : 1406 0.343262 per_variant_size: 0 1406 0 0 0 0 0 0 0 
Heartbeat_Variant_1 : 2509 0.612549 per_variant_size: 0 146 2363 0 0 0 0 0 0 
Heartbeat_Variant_2 : 0 0 per_variant_size: 0 0 0 0 0 0 0 0 0 
Heartbeat_Variant_3 : 0 0 per_variant_size: 0 0 0 0 0 0 0 0 0 
Heartbeat_Variant_0_evicts 0 : 5574 1 : 0 2 : 0 3 : 0 
Heartbeat_Variant_1_evicts 0 : 0 1 : 0 2 : 0 3 : 0 
Heartbeat_Variant_2_evicts 0 : 0 1 : 0 2 : 0 3 : 0 
Heartbeat_Variant_3_evicts 0 : 0 1 : 0 2 : 0 3 : 0 
Heartbeat CPU 0 instructions: 40000000 cycles: 11186173 heartbeat IPC: 3.57518 cumulative IPC: 3.57584 (Simulation time: 0 hr 7 min 1 sec) 
Heartbeat_Variant_0 : 1406 0.343262 per_variant_size: 0 1406 0 0 0 0 0 0 0 
Heartbeat_Variant_1 : 2512 0.613281 per_variant_size: 0 150 2362 0 0 0 0 0 0 
Heartbeat_Variant_2 : 0 0 per_variant_size: 0 0 0 0 0 0 0 0 0 
Heartbeat_Variant_3 : 0 0 per_variant_size: 0 0 0 0 0 0 0 0 0 
Heartbeat_Variant_0_evicts 0 : 5730 1 : 1 2 : 0 3 : 0 
Heartbeat_Variant_1_evicts 0 : 2 1 : 0 2 : 0 3 : 0 
Heartbeat_Variant_2_evicts 0 : 0 1 : 0 2 : 0 3 : 0 
Heartbeat_Variant_3_evicts 0 : 0 1 : 0 2 : 0 3 : 0 
Heartbeat CPU 0 instructions: 50000000 cycles: 13982853 heartbeat IPC: 3.57567 cumulative IPC: 3.57581 (Simulation time: 0 hr 8 min 41 sec) 

Warmup complete CPU 0 instructions: 50000004 cycles: 13982854 (Simulation time: 0 hr 8 min 41 sec) 

Cycle: 20000000 FTQ IN: 58379121 FTQ occupancy: 20.5051 DECODE IN: 58379048 DECODE occupancy: 53.2552 ROB IN: 58378988 ROB occupancy: 318.054 ROB OUT: 58378636
Heartbeat_Variant_0 : 1416 0.345703 per_variant_size: 0 1416 0 0 0 0 0 0 0 
Heartbeat_Variant_1 : 2533 0.618408 per_variant_size: 0 165 2368 0 0 0 0 0 0 
Heartbeat_Variant_2 : 0 0 per_variant_size: 0 0 0 0 0 0 0 0 0 
Heartbeat_Variant_3 : 0 0 per_variant_size: 0 0 0 0 0 0 0 0 0 
Heartbeat_Variant_0_evicts 0 : 5704 1 : 13 2 : 0 3 : 0 
Heartbeat_Variant_1_evicts 0 : 11 1 : 0 2 : 0 3 : 0 
Heartbeat_Variant_2_evicts 0 : 0 1 : 0 2 : 0 3 : 0 
Heartbeat_Variant_3_evicts 0 : 0 1 : 0 2 : 0 3 : 0 
Heartbeat CPU 0 instructions: 60000001 cycles: 21157627 heartbeat IPC: 1.39377 cumulative IPC: 1.39377 (Simulation time: 0 hr 10 min 42 sec) 
Heartbeat_Variant_0 : 1417 0.345947 per_variant_size: 0 1417 0 0 0 0 0 0 0 
Heartbeat_Variant_1 : 2535 0.618896 per_variant_size: 0 171 2364 0 0 0 0 0 0 
Heartbeat_Variant_2 : 0 0 per_variant_size: 0 0 0 0 0 0 0 0 0 
Heartbeat_Variant_3 : 0 0 per_variant_size: 0 0 0 0 0 0 0 0 0 
Heartbeat_Variant_0_evicts 0 : 5588 1 : 2 2 : 0 3 : 0 
Heartbeat_Variant_1_evicts 0 : 2 1 : 0 2 : 0 3 : 0 
Heartbeat_Variant_2_evicts 0 : 0 1 : 0 2 : 0 3 : 0 
Heartbeat_Variant_3_evicts 0 : 0 1 : 0 2 : 0 3 : 0 
Heartbeat CPU 0 instructions: 70000001 cycles: 28398782 heartbeat IPC: 1.381 cumulative IPC: 1.38735 (Simulation time: 0 hr 12 min 43 sec) 
Cycle: 30000000 FTQ IN: 13878404 FTQ occupancy: 14.9719 DECODE IN: 13878459 DECODE occupancy: 37.9993 ROB IN: 13878513 ROB occupancy: 248.279 ROB OUT: 13878516
Heartbeat_Variant_0 : 1417 0.345947 per_variant_size: 0 1417 0 0 0 0 0 0 0 
Heartbeat_Variant_1 : 2537 0.619385 per_variant_size: 0 179 2358 0 0 0 0 0 0 
Heartbeat_Variant_2 : 0 0 per_variant_size: 0 0 0 0 0 0 0 0 0 
Heartbeat_Variant_3 : 0 0 per_variant_size: 0 0 0 0 0 0 0 0 0 
Heartbeat_Variant_0_evicts 0 : 5652 1 : 1 2 : 0 3 : 0 
Heartbeat_Variant_1_evicts 0 : 1 1 : 0 2 : 0 3 : 0 
Heartbeat_Variant_2_evicts 0 : 0 1 : 0 2 : 0 3 : 0 
Heartbeat_Variant_3_evicts 0 : 0 1 : 0 2 : 0 3 : 0 
Heartbeat CPU 0 instructions: 80000000 cycles: 35570343 heartbeat IPC: 1.3944 cumulative IPC: 1.38969 (Simulation time: 0 hr 14 min 43 sec) 
Cycle: 40000000 FTQ IN: 13983619 FTQ occupancy: 14.9924 DECODE IN: 13983522 DECODE occupancy: 38.1997 ROB IN: 13983468 ROB occupancy: 249.463 ROB OUT: 13983465
Heartbeat_Variant_0 : 1445 0.352783 per_variant_size: 0 1445 0 0 0 0 0 0 0 
Heartbeat_Variant_1 : 2576 0.628906 per_variant_size: 0 157 2419 0 0 0 0 0 0 
Heartbeat_Variant_2 : 0 0 per_variant_size: 0 0 0 0 0 0 0 0 0 
Heartbeat_Variant_3 : 0 0 per_variant_size: 0 0 0 0 0 0 0 0 0 
Heartbeat_Variant_0_evicts 0 : 5674 1 : 26 2 : 0 3 : 0 
Heartbeat_Variant_1_evicts 0 : 26 1 : 0 2 : 0 3 : 0 
Heartbeat_Variant_2_evicts 0 : 0 1 : 0 2 : 0 3 : 0 
Heartbeat_Variant_3_evicts 0 : 0 1 : 0 2 : 0 3 : 0 
Heartbeat CPU 0 instructions: 90000003 cycles: 42826096 heartbeat IPC: 1.37822 cumulative IPC: 1.38681 (Simulation time: 0 hr 16 min 43 sec) 
Cycle: 50000000 FTQ IN: 13729065 FTQ occupancy: 14.9777 DECODE IN: 13729063 DECODE occupancy: 37.9872 ROB IN: 13729063 ROB occupancy: 249.145 ROB OUT: 13729067
Heartbeat_Variant_0 : 1457 0.355713 per_variant_size: 0 1457 0 0 0 0 0 0 0 
Heartbeat_Variant_1 : 2601 0.63501 per_variant_size: 0 135 2466 0 0 0 0 0 0 
Heartbeat_Variant_2 : 0 0 per_variant_size: 0 0 0 0 0 0 0 0 0 
Heartbeat_Variant_3 : 0 0 per_variant_size: 0 0 0 0 0 0 0 0 0 
Heartbeat_Variant_0_evicts 0 : 5575 1 : 46 2 : 0 3 : 0 
Heartbeat_Variant_1_evicts 0 : 44 1 : 0 2 : 0 3 : 0 
Heartbeat_Variant_2_evicts 0 : 0 1 : 0 2 : 0 3 : 0 
Heartbeat_Variant_3_evicts 0 : 0 1 : 0 2 : 0 3 : 0 
Heartbeat CPU 0 instructions: 100000003 cycles: 50023854 heartbeat IPC: 1.38932 cumulative IPC: 1.38731 (Simulation time: 0 hr 18 min 42 sec) 
Finished CPU 0 instructions: 50000003 cycles: 36041001 cumulative IPC: 1.38731 (Simulation time: 0 hr 18 min 42 sec) 

ChampSim completed all CPUs

Region of Interest Statistics

CPU 0 cumulative IPC: 1.38731 instructions: 50000003 cycles: 36041001
 Fetch stage stalled: 46.1426  Sim cycles: 36041001 fetch stall cycle: 16630264
 Empty decode stage: 25.5049  Sim cycles: 36041001 fetch stall cycle: 9192221
ITLB TOTAL     ACCESS:    5839552  HIT:    5346361  MISS:     493191  HIT %:    91.5543  MISS %:     8.4457   MPKI: 9.86382
ITLB LOAD TRANSLATION INSTRUCTION	ACCESS:    5702524  HIT:    5209333  MISS:     493191  HIT %:    91.3514  MISS %:    8.64864  MPKI: 9.86382
ITLB TRANSLATION FROM L1D PREFETCHER INSTRUCTION	ACCESS:     137028  HIT:     137028  MISS:          0  HIT %:        100  MISS %:          0  MPKI: 0

ITLB AVERAGE MISS LATENCY: 9.05384 cycles
ITLB RQ	ACCESS:    7936822	FORWARD:          0	MERGED:    1616473	TO_CACHE:    6320349

DTLB TOTAL     ACCESS:    8951743  HIT:    8480888  MISS:     470855  HIT %:    94.7401  MISS %:    5.25993   MPKI: 9.4171
DTLB LOAD TRANSLATION DATA	ACCESS:    8951743  HIT:    8480888  MISS:     470855  HIT %:    94.7401  MISS %:    5.25993  MPKI: 9.4171

DTLB AVERAGE MISS LATENCY: 9.32075 cycles
DTLB RQ	ACCESS:   13326785	FORWARD:          0	MERGED:    4338617	TO_CACHE:    8988168

STLB TOTAL     ACCESS:    1213081  HIT:    1211004  MISS:       2077  HIT %:    99.8288  MISS %:   0.171217   MPKI: 0.04154
STLB LOAD TRANSLATION INSTRUCTION	ACCESS:     493191  HIT:     492925  MISS:        266  HIT %:    99.9461  MISS %:  0.0539345  MPKI: 0.00532
STLB LOAD TRANSLATION DATA	ACCESS:     470854  HIT:     469067  MISS:       1787  HIT %:    99.6205  MISS %:   0.379523  MPKI: 0.03574
STLB TRANSLATION FROM L1D PREFETCHER DATA	ACCESS:     249036  HIT:     249012  MISS:         24  HIT %:    99.9904  MISS %: 0.00963716  MPKI: 0.00048

STLB AVERAGE MISS LATENCY: 71.5782 cycles
STLB RQ	ACCESS:    1334663	FORWARD:          0	MERGED:     121541	TO_CACHE:    1213122

STLB Hit, L1D data hit: 0
STLB Hit, L2C data hit: 0
STLB Hit, LLC data hit: 0
STLB Hit, LLC data miss: 0
STLB STLB hints to L2: 0
L1D TOTAL     ACCESS:   13076405  HIT:   11963547  MISS:    1112858  HIT %:    91.4896  MISS %:    8.51043   MPKI: 22.2572
L1D LOAD DATA	ACCESS:    6545383  HIT:    5812096  MISS:     733287  HIT %:    88.7969  MISS %:    11.2031  MPKI: 14.6657
L1D RFO DATA	ACCESS:    6200805  HIT:    5916295  MISS:     284510  HIT %:    95.4117  MISS %:    4.58828  MPKI: 5.6902
L1D PREFETCH DATA	ACCESS:     330217  HIT:     235156  MISS:      95061  HIT %:    71.2126  MISS %:    28.7874  MPKI: 1.90122

L1D PREFETCH  REQUESTED:     741575  ISSUED:     741575  USEFUL:      33601  USELESS:      68677
L1D USEFUL LOAD PREFETCHES:      33601 PREFETCH ISSUED TO LOWER LEVEL:     102321  ACCURACY: 32.8388
 TIMELY PREFETCHES:      33601 LATE PREFETCHES: 7222 DROPPED PREFETCHES: 9
L1D AVERAGE MISS LATENCY: 211226 cycles
L1D RQ	ACCESS:   10687193	FORWARD:          0	MERGED:    3939335	TO_CACHE:    6582303
L1D WQ	ACCESS:    6943953	FORWARD:     165896	MERGED:     199471	TO_CACHE:    6744482
L1D PQ	ACCESS:     370958	FORWARD:          0	MERGED:          0	TO_CACHE:     370617

L1D UNIQUE REGIONS ACCESSED: 0
L1D REGIONS CONFLICTS: 0
L1D Cross Page Prefetch Requests: 6999
L1D Same Page Prefetch Requests: 752182
L1D ROI Sum of L1D PQ occupancy: 4707595
L1D PREFETCHES PUSHED FROM L2C: 0
L1I TOTAL     ACCESS:    7107746  HIT:    4347782  MISS:    2759964  HIT %:    61.1696  MISS %:    38.8304   MPKI: 55.1993
L1I LOAD INSTRUCTION	ACCESS:    6441030  HIT:    3681066  MISS:    2759964  HIT %:    57.1503  MISS %:    42.8497  MPKI: 55.1993
L1I PREFETCH INSTRUCTION	ACCESS:     666716  HIT:     666716  MISS:          0  HIT %:        100  MISS %:          0  MPKI: 0

L1I PREFETCH  REQUESTED:    1614096  ISSUED:    1614096  USEFUL:          0  USELESS:          0
L1I USEFUL LOAD PREFETCHES:          0 PREFETCH ISSUED TO LOWER LEVEL:          0  ACCURACY: -nan
 TIMELY PREFETCHES:          0 LATE PREFETCHES: 0 DROPPED PREFETCHES: 0
L1I AVERAGE MISS LATENCY: 17.8775 cycles
L1I RQ	ACCESS:    9565204	FORWARD:          0	MERGED:    2813667	TO_CACHE:    6751537
L1I PQ	ACCESS:    1614096	FORWARD:          0	MERGED:     428811	TO_CACHE:    1185285

L1BTB TOTAL     ACCESS:    5672234  HIT:    2047510  MISS:    3624724  HIT %:    36.0971  MISS %:    63.9029   MPKI: 72.4945
L1BTB BRANCH_DIRECT_JUMP	ACCESS:     549120 HIT:     145126 MISS:     403994 AVERAGE STALL: 59.9792 AVERAGE FETCH STALL: 13.785 AVERAGE FETCH QUEUE STALL: 23.1932 AVERAGE DECODE STALL: 22.058 AVERAGE EXECUTE STALL: 2.0485e+15
L1BTB BRANCH_INDIRECT	ACCESS:     183529 HIT:      66300 MISS:     117229 AVERAGE STALL: 111.205 AVERAGE FETCH STALL: 10.8385 AVERAGE FETCH QUEUE STALL: 17.0525 AVERAGE DECODE STALL: 13.6375 AVERAGE EXECUTE STALL: 68.7148
L1BTB BRANCH_CONDITIONAL	ACCESS:    2714487 HIT:    1422412 MISS:    1292075 AVERAGE STALL: 48.9425 AVERAGE FETCH STALL: 22.0119 AVERAGE FETCH QUEUE STALL: 13.9146 AVERAGE DECODE STALL: 12.3327 AVERAGE EXECUTE STALL: 2.9724e+15
L1BTB BRANCH_DIRECT_CALL	ACCESS:     941489 HIT:     104381 MISS:     837108 AVERAGE STALL: 60.3291 AVERAGE FETCH STALL: 23.7996 AVERAGE FETCH QUEUE STALL: 18.9383 AVERAGE DECODE STALL: 17.0929 AVERAGE EXECUTE STALL: 1.22407e+16
L1BTB BRANCH_INDIRECT_CALL	ACCESS:     171058 HIT:      20733 MISS:     150325 AVERAGE STALL: 144.563 AVERAGE FETCH STALL: 12.1829 AVERAGE FETCH QUEUE STALL: 19.7344 AVERAGE DECODE STALL: 13.18 AVERAGE EXECUTE STALL: 98.9717
L1BTB BRANCH_RETURN	ACCESS:    1112551 HIT:     288558 MISS:     823993 AVERAGE STALL: 51.2413 AVERAGE FETCH STALL: 16.3445 AVERAGE FETCH QUEUE STALL: 6.85106 AVERAGE DECODE STALL: 6.72548 AVERAGE EXECUTE STALL: 4.27562e+14
L1BTB BRANCH_OTHER ACCESS:          0 HIT:          0 MISS:          0 AVERAGE STALL: -nan AVERAGE FETCH STALL: -nan AVERAGE FETCH QUEUE STALL: -nan AVERAGE DECODE STALL: -nan AVERAGE EXECUTE STALL: -nan
L1BTB TOTAL ROB OCCUPANCY AT BTB MISS: 2.74396

L2BTB TOTAL     ACCESS:    3599229  HIT:    3531991  MISS:      67238  HIT %:    98.1319  MISS %:    1.86812   MPKI: 1.34476
L2BTB BRANCH_DIRECT_JUMP	ACCESS:     399792 HIT:     394965 MISS:       4827 AVERAGE STALL: 59.9792 AVERAGE FETCH STALL: 13.785 AVERAGE FETCH QUEUE STALL: 23.1932 AVERAGE DECODE STALL: 22.058 AVERAGE EXECUTE STALL: 2.0485e+15
L2BTB BRANCH_INDIRECT	ACCESS:     106930 HIT:     104245 MISS:       2685 AVERAGE STALL: 111.205 AVERAGE FETCH STALL: 10.8385 AVERAGE FETCH QUEUE STALL: 17.0525 AVERAGE DECODE STALL: 13.6375 AVERAGE EXECUTE STALL: 68.7148
L2BTB BRANCH_CONDITIONAL	ACCESS:    1292075 HIT:    1285773 MISS:       6302 AVERAGE STALL: 48.9425 AVERAGE FETCH STALL: 22.0119 AVERAGE FETCH QUEUE STALL: 13.9146 AVERAGE DECODE STALL: 12.3327 AVERAGE EXECUTE STALL: 2.9724e+15
L2BTB BRANCH_DIRECT_CALL	ACCESS:     837108 HIT:     835566 MISS:       1542 AVERAGE STALL: 60.3291 AVERAGE FETCH STALL: 23.7996 AVERAGE FETCH QUEUE STALL: 18.9383 AVERAGE DECODE STALL: 17.0929 AVERAGE EXECUTE STALL: 1.22407e+16
L2BTB BRANCH_INDIRECT_CALL	ACCESS:     140736 HIT:     130611 MISS:      10125 AVERAGE STALL: 144.563 AVERAGE FETCH STALL: 12.1829 AVERAGE FETCH QUEUE STALL: 19.7344 AVERAGE DECODE STALL: 13.18 AVERAGE EXECUTE STALL: 98.9717
L2BTB BRANCH_RETURN	ACCESS:     822588 HIT:     780831 MISS:      41757 AVERAGE STALL: 51.2413 AVERAGE FETCH STALL: 16.3445 AVERAGE FETCH QUEUE STALL: 6.85106 AVERAGE DECODE STALL: 6.72548 AVERAGE EXECUTE STALL: 4.27562e+14
L2BTB BRANCH_OTHER ACCESS:          0 HIT:          0 MISS:          0 AVERAGE STALL: -nan AVERAGE FETCH STALL: -nan AVERAGE FETCH QUEUE STALL: -nan AVERAGE DECODE STALL: -nan AVERAGE EXECUTE STALL: -nan
L2BTB TOTAL ROB OCCUPANCY AT BTB MISS: 147.924

L2C TOTAL     ACCESS:    4484334  HIT:    3924771  MISS:     559563  HIT %:    87.5218  MISS %:    12.4782   MPKI: 11.1913
L2C LOAD INSTRUCTION	ACCESS:    2759964  HIT:    2443666  MISS:     316298  HIT %:    88.5398  MISS %:    11.4602  MPKI: 6.32596
L2C LOAD TRANSLATION INSTRUCTION	ACCESS:        297  HIT:         60  MISS:        237  HIT %:     20.202  MISS %:     79.798  MPKI: 0.00474
L2C LOAD DATA	ACCESS:     726046  HIT:     637999  MISS:      88047  HIT %:    87.8731  MISS %:    12.1269  MPKI: 1.76094
L2C RFO DATA	ACCESS:     284426  HIT:     227469  MISS:      56957  HIT %:    79.9748  MISS %:    20.0252  MPKI: 1.13914
L2C PREFETCH DATA	ACCESS:     192100  HIT:     115594  MISS:      76506  HIT %:    60.1739  MISS %:    39.8261  MPKI: 1.53012
L2C WRITEBACK DATA	ACCESS:     519586  HIT:     499353  MISS:      20233  HIT %:    96.1059  MISS %:    3.89406  MPKI: 0.40466
L2C LOAD TRANSLATION DATA	ACCESS:       1866  HIT:        600  MISS:       1266  HIT %:    32.1543  MISS %:    67.8457  MPKI: 0.02532
L2C TRANSLATION FROM L1D PREFETCHER DATA	ACCESS:         49  HIT:         30  MISS:         19  HIT %:    61.2245  MISS %:    38.7755  MPKI: 0.00038

L2C PREFETCH  REQUESTED:      99349  ISSUED:      99349  USEFUL:       9374  USELESS:      67941
L2C USEFUL LOAD PREFETCHES:       9374 PREFETCH ISSUED TO LOWER LEVEL:      77318  ACCURACY: 12.124
 TIMELY PREFETCHES:       9374 LATE PREFETCHES: 812 DROPPED PREFETCHES: 0
L2C AVERAGE MISS LATENCY: 36.7364 cycles
L2C RQ	ACCESS:    3772712	FORWARD:          0	MERGED:          0	TO_CACHE:    3772648
L2C WQ	ACCESS:     519586	FORWARD:         64	MERGED:          0	TO_CACHE:     519586
L2C PQ	ACCESS:     201670	FORWARD:          0	MERGED:       3267	TO_CACHE:     198403

L2C Dense regions hint from L2: 0
PSCL5 TOTAL     ACCESS:       4176  HIT:       2088  MISS:       2088  HIT %:         50  MISS %:         50   MPKI: 0.04176
PSCL5 LOAD TRANSLATION INSTRUCTION	ACCESS:       4080  HIT:       2040  MISS:       2040  HIT %:         50  MISS %:         50  MPKI: 0.0408
PSCL5 TRANSLATION FROM L1D PREFETCHER INSTRUCTION	ACCESS:         96  HIT:         48  MISS:         48  HIT %:         50  MISS %:         50  MPKI: 0.00096


PSCL4 TOTAL     ACCESS:       3952  HIT:       1971  MISS:       1981  HIT %:    49.8735  MISS %:    50.1265   MPKI: 0.03962
PSCL4 LOAD TRANSLATION INSTRUCTION	ACCESS:       2526  HIT:       1924  MISS:        602  HIT %:    76.1679  MISS %:    23.8321  MPKI: 0.01204
PSCL4 TRANSLATION FROM L1D PREFETCHER INSTRUCTION	ACCESS:         62  HIT:         47  MISS:         15  HIT %:    75.8065  MISS %:    24.1935  MPKI: 0.0003
PSCL4 LOAD TRANSLATION DATA	ACCESS:       1332  HIT:          0  MISS:       1332  HIT %:          0  MISS %:        100  MPKI: 0.02664
PSCL4 TRANSLATION FROM L1D PREFETCHER DATA	ACCESS:         32  HIT:          0  MISS:         32  HIT %:          0  MISS %:        100  MPKI: 0.00064


PSCL3 TOTAL     ACCESS:       3956  HIT:       1973  MISS:       1983  HIT %:    49.8736  MISS %:    50.1264   MPKI: 0.03966
PSCL3 LOAD TRANSLATION INSTRUCTION	ACCESS:       2528  HIT:       1926  MISS:        602  HIT %:    76.1867  MISS %:    23.8133  MPKI: 0.01204
PSCL3 TRANSLATION FROM L1D PREFETCHER INSTRUCTION	ACCESS:         62  HIT:         47  MISS:         15  HIT %:    75.8065  MISS %:    24.1935  MPKI: 0.0003
PSCL3 LOAD TRANSLATION DATA	ACCESS:       1334  HIT:          0  MISS:       1334  HIT %:          0  MISS %:        100  MPKI: 0.02668
PSCL3 TRANSLATION FROM L1D PREFETCHER DATA	ACCESS:         32  HIT:          0  MISS:         32  HIT %:          0  MISS %:        100  MPKI: 0.00064


PSCL2 TOTAL     ACCESS:       4070  HIT:       1982  MISS:       2088  HIT %:    48.6978  MISS %:    51.3022   MPKI: 0.04176
PSCL2 LOAD TRANSLATION INSTRUCTION	ACCESS:       2201  HIT:       1935  MISS:        266  HIT %:    87.9146  MISS %:    12.0854  MPKI: 0.00532
PSCL2 TRANSLATION FROM L1D PREFETCHER INSTRUCTION	ACCESS:         47  HIT:         47  MISS:          0  HIT %:        100  MISS %:          0  MPKI: 0
PSCL2 LOAD TRANSLATION DATA	ACCESS:       1775  HIT:          0  MISS:       1775  HIT %:          0  MISS %:        100  MPKI: 0.0355
PSCL2 TRANSLATION FROM L1D PREFETCHER DATA	ACCESS:         47  HIT:          0  MISS:         47  HIT %:          0  MISS %:        100  MPKI: 0.00094


LLC TOTAL     ACCESS:     625997  HIT:     598279  MISS:      27718  HIT %:    95.5722  MISS %:    4.42782   MPKI: 0.55436
LLC LOAD INSTRUCTION	ACCESS:     316297  HIT:     315389  MISS:        908  HIT %:    99.7129  MISS %:   0.287072  MPKI: 0.01816
LLC LOAD TRANSLATION INSTRUCTION	ACCESS:        237  HIT:        203  MISS:         34  HIT %:     85.654  MISS %:     14.346  MPKI: 0.00068
LLC LOAD DATA	ACCESS:      87321  HIT:      83882  MISS:       3439  HIT %:    96.0617  MISS %:    3.93834  MPKI: 0.06878
LLC RFO DATA	ACCESS:      56844  HIT:      43532  MISS:      13312  HIT %:    76.5815  MISS %:    23.4185  MPKI: 0.26624
LLC PREFETCH DATA	ACCESS:      77315  HIT:      67660  MISS:       9655  HIT %:    87.5121  MISS %:    12.4879  MPKI: 0.1931
LLC WRITEBACK DATA	ACCESS:      86698  HIT:      86416  MISS:        282  HIT %:    99.6747  MISS %:   0.325267  MPKI: 0.00564
LLC LOAD TRANSLATION DATA	ACCESS:       1266  HIT:       1178  MISS:         88  HIT %:     93.049  MISS %:    6.95103  MPKI: 0.00176
LLC TRANSLATION FROM L1D PREFETCHER DATA	ACCESS:         19  HIT:         19  MISS:          0  HIT %:        100  MISS %:          0  MPKI: 0

LLC AVERAGE MISS LATENCY: 156.703 cycles
LLC RQ	ACCESS:     462012	FORWARD:          0	MERGED:          0	TO_CACHE:     461984
LLC WQ	ACCESS:      86698	FORWARD:         31	MERGED:          0	TO_CACHE:      86698
LLC PQ	ACCESS:      77318	FORWARD:          0	MERGED:          0	TO_CACHE:      77315

LLC Dense regions hint to LLC: 0

RAW hits: 1948011
Loads Generated: 12635204
Loads sent to L1D: 10687193
Stores Generated: 6943942
Stores sent to L1D: 6943953
Major fault: 0 Minor fault: 2570
Allocated PAGES: 2570

stream: 
stream:times selected: 1193317
stream:pref_filled: 123220
stream:pref_useful: 24153
stream:pref_late: 6828
stream:misses: 8290
stream:misses_by_poll: 0

CS: 
CS:times selected: 177833
CS:pref_filled: 60997
CS:pref_useful: 37643
CS:pref_late: 6376
CS:misses: 15280
CS:misses_by_poll: 7

CPLX: 
CPLX:times selected: 1014179
CPLX:pref_filled: 19371
CPLX:pref_useful: 4461
CPLX:pref_late: 3214
CPLX:misses: 92443
CPLX:misses_by_poll: 2

NL_L1: 
NL:times selected: 21471
NL:pref_filled: 660
NL:pref_useful: 289
NL:pref_late: 351
NL:misses: 1835
NL:misses_by_poll: 0

total selections: 2406800
total_filled: 95061
total_useful: 33601
total_late: 17933
total_polluted: 9
total_misses_after_warmup: 770208
conflicts: 5511980

test: 118822

DRAM Statistics
 CHANNEL 0
 RQ ROW_BUFFER_HIT:       9914  ROW_BUFFER_MISS:      17519
 DBUS_CONGESTED:          8
 WQ ROW_BUFFER_HIT:       1465  ROW_BUFFER_MISS:      12324  FULL:          0

 AVG_CONGESTED_CYCLE: 6

CPU 0 Branch Prediction Accuracy: 99.8127% MPKI: 0.34248 Average ROB Occupancy at Mispredict: 190.391
Branch types
NOT_BRANCH: 40854756 81.7095%
BRANCH_DIRECT_JUMP: 549120 1.09824%
BRANCH_INDIRECT: 183529 0.367058%
BRANCH_CONDITIONAL: 6186993 12.374%
BRANCH_DIRECT_CALL: 941489 1.88298%
BRANCH_INDIRECT_CALL: 171058 0.342116%
BRANCH_RETURN: 1112551 2.2251%
BRANCH_OTHER: 0 0%

DRAM PAGES: 1048576
Allocated PAGES: 2570
Average_ROB_Occupancy: 249.806
Average_Decode_Occupancy: 37.9334
Average_FTQ_Occupancy: 14.9249
Indirect max targets: 14 Average targets: 1.16054
Branch_type:  BRANCH_DIRECT_JUMP:  Count Percentage: 3.67714 5.37838 4.25626 8.92568 5.66069 3.12611 1.70654 67.2692 
Branch_type:  BRANCH_INDIRECT:  Count Percentage: 11.7384 3.47967 2.59012 3.7202 3.33814 2.80501 1.99481 70.3336 
Branch_type:  BRANCH_CONDITIONAL:  Count Percentage: 21.7072 2.46025 1.9316 4.05815 2.97081 6.20143 0.904932 59.7656 
Branch_type:  BRANCH_DIRECT_CALL:  Count Percentage: 0.390629 1.74031 0.752653 3.8897 3.52927 2.36212 0.609896 86.7254 
Branch_type:  BRANCH_INDIRECT_CALL:  Count Percentage: 9.56145 0 2.99768 4.27258 0.000292542 2.04282 1.00137 80.1238 
Branch_type:  BRANCH_RETURN:  Count Percentage: 3.9125 1.99007 1.04197 3.16921 4.59426 6.99059 1.23621 77.0652 
Branch_type:  BRANCH_DIRECT_JUMP:  Total Count: 40300 58945 46647 97822 62039 34261 18703 737244 
Branch_type:  BRANCH_INDIRECT:  Total Count: 43045 12760 9498 13642 12241 10286 7315 257914 
Branch_type:  BRANCH_CONDITIONAL:  Total Count: 2683836 304180 238819 501741 367305 766732 111884 7389299 
Branch_type:  BRANCH_DIRECT_CALL:  Total Count: 7347 32732 14156 73158 66379 44427 11471 1631143 
Branch_type:  BRANCH_INDIRECT_CALL:  Total Count: 32684 0 10247 14605 1 6983 3423 273888 
Branch_type:  BRANCH_RETURN:  Total Count: 86994 44249 23168 70467 102153 155435 27487 1713537 
Number of unique branch instructions: 10261
Upper 32 bits: 
aaaa
ffff
ffff0000
Unique upper 32 bits: 3
Unique upper 36 bits: 3
Unique upper 40 bits: 5
Unique upper 44 bits: 32
Unique upper 48 bits: 154
Variant_0 : 1457 0.355713
Variant_1 : 2601 0.63501
Variant_2 : 0 0
Variant_3 : 0 0
Offset_3 4234
Offset_4 256
Offset_5 477
Offset_6 526
Offset_7 610
Offset_8 531
Offset_9 493
Offset_10 400
Offset_11 331
Offset_12 293
Offset_13 217
Offset_14 236
Offset_15 192
Offset_16 232
Offset_17 152
Offset_18 127
Offset_19 243
Offset_20 142
Offset_21 249
Offset_22 406
Offset_23 242
Offset_24 350
Offset_25 96
Offset_47 85
Offset_64 1
decode_dispatch_called: 26323616 73.038
Dispatch_width: 0 14211844 53.989 39.4324
Dispatch_width: 1 1015618 3.8582 2.81795
Dispatch_width: 2 840335 3.19232 2.33161
Dispatch_width: 3 488176 1.85452 1.3545
Dispatch_width: 4 6329550 24.0451 17.5621
Dispatch_width: 5 107897 0.409887 0.299373
Dispatch_width: 6 3330196 12.651 9.24002
Empty_decode_cycles: 9717385 26.962
ROB_full_cycles: 10030465 27.8307
Starvation_cycles_per_kilo_instr: 226.803
Starvation_cycles_per_kilo_instr_3: 162.429
Starvation_cycles_per_kilo_instr_0: 138.988
Branch_type_1  (3,1)  (4,9)  (5,38)  (6,73)  (7,121)  (8,134)  (9,130)  (10,102)  (11,77)  (12,51)  (13,9)  (14,2)  (15,3)  (16,4)  (18,1)  (19,4)  (20,2)  (21,1)  (22,3)  (23,2)  (24,10)  (25,13)  (64,1) 
Branch_type_2  (3,1)  (5,1)  (8,3)  (9,3)  (12,1)  (13,1)  (14,1)  (16,3)  (17,2)  (20,2)  (21,2)  (23,5)  (24,1)  (47,39) 
Branch_type_3  (3,4232)  (4,247)  (5,434)  (6,437)  (7,459)  (8,331)  (9,273)  (10,162)  (11,138)  (12,58)  (13,8)  (24,1) 
Branch_type_4  (6,3)  (7,8)  (8,25)  (9,53)  (10,64)  (11,60)  (12,100)  (13,92)  (14,105)  (15,91)  (16,104)  (17,67)  (18,59)  (19,120)  (20,74)  (21,135)  (22,217)  (23,137)  (24,204)  (25,79) 
Branch_type_5  (8,2)  (9,1)  (10,4)  (11,5)  (12,3)  (13,14)  (14,16)  (15,11)  (16,20)  (17,13)  (18,16)  (19,12)  (20,11)  (21,13)  (22,42)  (23,26)  (24,37) 
Branch_type_6  (5,4)  (6,13)  (7,22)  (8,36)  (9,33)  (10,68)  (11,51)  (12,80)  (13,93)  (14,112)  (15,87)  (16,101)  (17,70)  (18,51)  (19,107)  (20,53)  (21,98)  (22,144)  (23,72)  (24,97)  (25,4)  (47,46) 
Unique trigger count: 
Variant_0_evicts_0 : 0
Variant_0_evicts_1 : 0
Variant_0_evicts_2 : 0
Variant_0_evicts_3 : 0
Variant_1_evicts_0 : 0
Variant_1_evicts_1 : 0
Variant_1_evicts_2 : 0
Variant_1_evicts_3 : 0
Variant_2_evicts_0 : 0
Variant_2_evicts_1 : 0
Variant_2_evicts_2 : 0
Variant_2_evicts_3 : 0
Variant_3_evicts_0 : 0
Variant_3_evicts_1 : 0
Variant_3_evicts_2 : 0
Variant_3_evicts_3 : 0
BTB PER SET UNIQUE ADDR: 26 23 27 29 26 29 28 29 28 35 32 32 29 25 23 28 25 26 27 27 26 23 29 26 34 29 28 28 30 29 36 24 28 28 26 25 33 29 31 30 30 25 31 31 29 27 25 27 29 26 26 27 25 31 31 29 24 26 29 28 32 26 26 27 27 25 26 27 33 27 28 30 25 25 25 26 27 27 38 32 31 25 30 32 24 32 25 26 22 24 27 20 28 25 28 30 29 27 26 32 29 31 31 24 29 32 27 22 25 24 27 28 26 28 31 24 26 28 29 31 27 24 26 35 28 25 27 26 26 30 28 26 26 28 29 27 31 29 27 31 27 26 32 26 32 26 30 30 27 27 31 26 28 31 32 30 32 30 25 32 30 27 25 32 25 27 27 27 31 30 29 29 24 27 28 28 30 27 30 29 33 29 26 30 27 32 27 27 24 27 33 24 29 23 24 32 28 33 30 26 25 32 29 26 32 28 25 31 29 26 26 28 29 28 23 35 27 30 27 32 24 29 26 25 29 29 30 26 32 25 28 29 30 26 27 24 25 31 27 28 29 28 25 29 20 30 32 28 27 29 29 26 29 24 28 32 
BTB PER SET COUNT: 74 486 1959 34 31 34 30 945 31 2217 1916 1509 32 1505 27 79 320 1994 36 29 414 28 29 30 982 34 30 1498 1597 1782 2467 1027 3243 889 31 349 35 34 33 36 35 27 36 35 37 30 30 29 724 30 308 214 32 38 35 33 24 1057 2427 1026 1538 906 986 29 1957 29 1034 27 1542 36 83 1036 27 28 3998 1115 31 994 3013 2123 1006 530 38 1012 1027 35 25 1495 24 14659 28 21 120 56 531 35 38 662 26 45 764 1032 2381 27 35 37 4418 24 29 2952 1482 36 28 33 1143 24 30 2033 2194 47 31 27 1870 42 1496 26 28 1029 2023 41 31 29 990 1030 2010 7916 32 39 43 154 493 70 39 29 663 26 1037 33 36 32 39 421 33 422 38 79 1165 1500 25 38 994 35 1299 137 27 32 1030 36 2608 41 32 1493 31 1504 33 60 36 1580 1382 206 40 38 1494 33 1498 1504 1916 114 26 527 1509 1027 35 1490 29 43 31 168 53 28 26 37 423 244 1071 1423 39 36 32 524 422 1502 31 32 25 1799 36 1100 1754 1764 33 444 1246 988 35 31 1001 27 2962 29 2289 35 46 3919 29 25 25 40 31 1031 37 33 728 258 3408 35 1035 20524 33 33 574 497 30 30 30 130 
To predecode: 0
Predecoding something: 0
Predecode request dropped: 0
sizeofblock_0 0
sizeofblock_1 43203
sizeofblock_2 97051
sizeofblock_3 0
sizeofblock_4 0
sizeofblock_5 0
sizeofblock_6 0
sizeofblock_7 0
sizeofblock_8 0
Variant_0 Correct: 1613458 Incorrect: 0 Accuracy: 1
Variant_1 Correct: 5717030 Incorrect: 0 Accuracy: 1
Variant_2 Correct: 0 Incorrect: 0 Accuracy: -nan
Variant_3 Correct: 0 Incorrect: 0 Accuracy: -nan
