
*** ChampSim Multicore Out-of-Order Simulator ***

Warmup Instructions: 50000000
Simulation Instructions: 50000000
Number of CPUs: 1
LLC sets: 2048
LLC ways: 16
Off-chip DRAM Size: 4096 MB Channels: 1 Width: 64-bit Data Rate: 6400 MT/s
CPU 0 runs ./micro_traces/srv421.trace.gz
.gz
ITLB has LRU replacement policy
DTLB has LRU replacement policy
STLB has LRU replacement policy
FDIP Prefetcher at L1I
L1I has LRU replacement policy
L1D has LRU replacement policy
Initialize SRRIP state for L2C
Initialize DRRIP state for LLC
Heartbeat_Variant_0 : 1329 0.324463 per_variant_size: 0 1329 0 0 0 0 0 0 0 
Heartbeat_Variant_1 : 2557 0.624268 per_variant_size: 0 589 1968 0 0 0 0 0 0 
Heartbeat_Variant_2 : 0 0 per_variant_size: 0 0 0 0 0 0 0 0 0 
Heartbeat_Variant_3 : 0 0 per_variant_size: 0 0 0 0 0 0 0 0 0 
Heartbeat_Variant_0_evicts 0 : 5853 1 : 585 2 : 0 3 : 0 
Heartbeat_Variant_1_evicts 0 : 534 1 : 0 2 : 0 3 : 0 
Heartbeat_Variant_2_evicts 0 : 0 1 : 0 2 : 0 3 : 0 
Heartbeat_Variant_3_evicts 0 : 0 1 : 0 2 : 0 3 : 0 
Heartbeat CPU 0 instructions: 10000000 cycles: 2796117 heartbeat IPC: 3.57639 cumulative IPC: 3.57639 (Simulation time: 0 hr 1 min 49 sec) 
Heartbeat_Variant_0 : 1327 0.323975 per_variant_size: 0 1327 0 0 0 0 0 0 0 
Heartbeat_Variant_1 : 2594 0.633301 per_variant_size: 0 558 2036 0 0 0 0 0 0 
Heartbeat_Variant_2 : 0 0 per_variant_size: 0 0 0 0 0 0 0 0 0 
Heartbeat_Variant_3 : 0 0 per_variant_size: 0 0 0 0 0 0 0 0 0 
Heartbeat_Variant_0_evicts 0 : 5570 1 : 50 2 : 0 3 : 0 
Heartbeat_Variant_1_evicts 0 : 59 1 : 0 2 : 0 3 : 0 
Heartbeat_Variant_2_evicts 0 : 0 1 : 0 2 : 0 3 : 0 
Heartbeat_Variant_3_evicts 0 : 0 1 : 0 2 : 0 3 : 0 
Heartbeat CPU 0 instructions: 20000001 cycles: 5592785 heartbeat IPC: 3.57568 cumulative IPC: 3.57604 (Simulation time: 0 hr 3 min 22 sec) 
Heartbeat_Variant_0 : 1367 0.33374 per_variant_size: 0 1367 0 0 0 0 0 0 0 
Heartbeat_Variant_1 : 2630 0.64209 per_variant_size: 0 513 2117 0 0 0 0 0 0 
Heartbeat_Variant_2 : 0 0 per_variant_size: 0 0 0 0 0 0 0 0 0 
Heartbeat_Variant_3 : 0 0 per_variant_size: 0 0 0 0 0 0 0 0 0 
Heartbeat_Variant_0_evicts 0 : 5770 1 : 443 2 : 0 3 : 0 
Heartbeat_Variant_1_evicts 0 : 428 1 : 0 2 : 0 3 : 0 
Heartbeat_Variant_2_evicts 0 : 0 1 : 0 2 : 0 3 : 0 
Heartbeat_Variant_3_evicts 0 : 0 1 : 0 2 : 0 3 : 0 
Heartbeat CPU 0 instructions: 30000002 cycles: 8387813 heartbeat IPC: 3.57778 cumulative IPC: 3.57662 (Simulation time: 0 hr 4 min 55 sec) 
Heartbeat_Variant_0 : 1372 0.334961 per_variant_size: 0 1372 0 0 0 0 0 0 0 
Heartbeat_Variant_1 : 2637 0.643799 per_variant_size: 0 509 2128 0 0 0 0 0 0 
Heartbeat_Variant_2 : 0 0 per_variant_size: 0 0 0 0 0 0 0 0 0 
Heartbeat_Variant_3 : 0 0 per_variant_size: 0 0 0 0 0 0 0 0 0 
Heartbeat_Variant_0_evicts 0 : 5700 1 : 144 2 : 0 3 : 0 
Heartbeat_Variant_1_evicts 0 : 142 1 : 0 2 : 0 3 : 0 
Heartbeat_Variant_2_evicts 0 : 0 1 : 0 2 : 0 3 : 0 
Heartbeat_Variant_3_evicts 0 : 0 1 : 0 2 : 0 3 : 0 
Heartbeat CPU 0 instructions: 40000000 cycles: 11183302 heartbeat IPC: 3.57719 cumulative IPC: 3.57676 (Simulation time: 0 hr 6 min 29 sec) 
Heartbeat_Variant_0 : 1384 0.337891 per_variant_size: 0 1384 0 0 0 0 0 0 0 
Heartbeat_Variant_1 : 2633 0.642822 per_variant_size: 0 482 2151 0 0 0 0 0 0 
Heartbeat_Variant_2 : 0 0 per_variant_size: 0 0 0 0 0 0 0 0 0 
Heartbeat_Variant_3 : 0 0 per_variant_size: 0 0 0 0 0 0 0 0 0 
Heartbeat_Variant_0_evicts 0 : 5534 1 : 144 2 : 0 3 : 0 
Heartbeat_Variant_1_evicts 0 : 133 1 : 0 2 : 0 3 : 0 
Heartbeat_Variant_2_evicts 0 : 0 1 : 0 2 : 0 3 : 0 
Heartbeat_Variant_3_evicts 0 : 0 1 : 0 2 : 0 3 : 0 
Heartbeat CPU 0 instructions: 50000001 cycles: 13979137 heartbeat IPC: 3.57675 cumulative IPC: 3.57676 (Simulation time: 0 hr 8 min 3 sec) 

Warmup complete CPU 0 instructions: 50000001 cycles: 13979137 (Simulation time: 0 hr 8 min 3 sec) 

Cycle: 20000000 FTQ IN: 58415495 FTQ occupancy: 20.9358 DECODE IN: 58415495 DECODE occupancy: 54.0846 ROB IN: 58415495 ROB occupancy: 319.979 ROB OUT: 58415472
Heartbeat_Variant_0 : 1389 0.339111 per_variant_size: 0 1389 0 0 0 0 0 0 0 
Heartbeat_Variant_1 : 2636 0.643555 per_variant_size: 0 489 2147 0 0 0 0 0 0 
Heartbeat_Variant_2 : 0 0 per_variant_size: 0 0 0 0 0 0 0 0 0 
Heartbeat_Variant_3 : 0 0 per_variant_size: 0 0 0 0 0 0 0 0 0 
Heartbeat_Variant_0_evicts 0 : 5573 1 : 123 2 : 0 3 : 0 
Heartbeat_Variant_1_evicts 0 : 119 1 : 0 2 : 0 3 : 0 
Heartbeat_Variant_2_evicts 0 : 0 1 : 0 2 : 0 3 : 0 
Heartbeat_Variant_3_evicts 0 : 0 1 : 0 2 : 0 3 : 0 
Heartbeat CPU 0 instructions: 60000000 cycles: 21121610 heartbeat IPC: 1.40008 cumulative IPC: 1.40008 (Simulation time: 0 hr 9 min 50 sec) 
*** Reached end of trace for Core: 0 Repeating trace: ./micro_traces/srv421.trace.gz
Heartbeat_Variant_0 : 1387 0.338623 per_variant_size: 0 1387 0 0 0 0 0 0 0 
Heartbeat_Variant_1 : 2645 0.645752 per_variant_size: 0 504 2141 0 0 0 0 0 0 
Heartbeat_Variant_2 : 0 0 per_variant_size: 0 0 0 0 0 0 0 0 0 
Heartbeat_Variant_3 : 0 0 per_variant_size: 0 0 0 0 0 0 0 0 0 
Heartbeat_Variant_0_evicts 0 : 5637 1 : 139 2 : 0 3 : 0 
Heartbeat_Variant_1_evicts 0 : 142 1 : 0 2 : 0 3 : 0 
Heartbeat_Variant_2_evicts 0 : 0 1 : 0 2 : 0 3 : 0 
Heartbeat_Variant_3_evicts 0 : 0 1 : 0 2 : 0 3 : 0 
Heartbeat CPU 0 instructions: 70000001 cycles: 28221438 heartbeat IPC: 1.40848 cumulative IPC: 1.40427 (Simulation time: 0 hr 11 min 38 sec) 
Cycle: 30000000 FTQ IN: 14111556 FTQ occupancy: 16.1761 DECODE IN: 14111403 DECODE occupancy: 40.3733 ROB IN: 14111343 ROB occupancy: 253.912 ROB OUT: 14111018
Heartbeat_Variant_0 : 1387 0.338623 per_variant_size: 0 1387 0 0 0 0 0 0 0 
Heartbeat_Variant_1 : 2645 0.645752 per_variant_size: 0 504 2141 0 0 0 0 0 0 
Heartbeat_Variant_2 : 0 0 per_variant_size: 0 0 0 0 0 0 0 0 0 
Heartbeat_Variant_3 : 0 0 per_variant_size: 0 0 0 0 0 0 0 0 0 
Heartbeat_Variant_0_evicts 0 : 5561 1 : 0 2 : 0 3 : 0 
Heartbeat_Variant_1_evicts 0 : 0 1 : 0 2 : 0 3 : 0 
Heartbeat_Variant_2_evicts 0 : 0 1 : 0 2 : 0 3 : 0 
Heartbeat_Variant_3_evicts 0 : 0 1 : 0 2 : 0 3 : 0 
Heartbeat CPU 0 instructions: 80000002 cycles: 35289391 heartbeat IPC: 1.41484 cumulative IPC: 1.40777 (Simulation time: 0 hr 13 min 29 sec) 
Cycle: 40000000 FTQ IN: 13999342 FTQ occupancy: 16.2896 DECODE IN: 13999345 DECODE occupancy: 40.4784 ROB IN: 13999345 ROB occupancy: 254.563 ROB OUT: 13999341
Heartbeat_Variant_0 : 1386 0.338379 per_variant_size: 0 1386 0 0 0 0 0 0 0 
Heartbeat_Variant_1 : 2654 0.647949 per_variant_size: 0 498 2156 0 0 0 0 0 0 
Heartbeat_Variant_2 : 0 0 per_variant_size: 0 0 0 0 0 0 0 0 0 
Heartbeat_Variant_3 : 0 0 per_variant_size: 0 0 0 0 0 0 0 0 0 
Heartbeat_Variant_0_evicts 0 : 5669 1 : 172 2 : 0 3 : 0 
Heartbeat_Variant_1_evicts 0 : 175 1 : 0 2 : 0 3 : 0 
Heartbeat_Variant_2_evicts 0 : 0 1 : 0 2 : 0 3 : 0 
Heartbeat_Variant_3_evicts 0 : 0 1 : 0 2 : 0 3 : 0 
Heartbeat CPU 0 instructions: 90000000 cycles: 42481215 heartbeat IPC: 1.39047 cumulative IPC: 1.40341 (Simulation time: 0 hr 15 min 20 sec) 
Heartbeat_Variant_0 : 1390 0.339355 per_variant_size: 0 1390 0 0 0 0 0 0 0 
Heartbeat_Variant_1 : 2655 0.648193 per_variant_size: 0 480 2175 0 0 0 0 0 0 
Heartbeat_Variant_2 : 0 0 per_variant_size: 0 0 0 0 0 0 0 0 0 
Heartbeat_Variant_3 : 0 0 per_variant_size: 0 0 0 0 0 0 0 0 0 
Heartbeat_Variant_0_evicts 0 : 5668 1 : 83 2 : 0 3 : 0 
Heartbeat_Variant_1_evicts 0 : 80 1 : 0 2 : 0 3 : 0 
Heartbeat_Variant_2_evicts 0 : 0 1 : 0 2 : 0 3 : 0 
Heartbeat_Variant_3_evicts 0 : 0 1 : 0 2 : 0 3 : 0 
Heartbeat CPU 0 instructions: 100000000 cycles: 49543140 heartbeat IPC: 1.41604 cumulative IPC: 1.40592 (Simulation time: 0 hr 17 min 7 sec) 
Finished CPU 0 instructions: 50000003 cycles: 35564004 cumulative IPC: 1.40592 (Simulation time: 0 hr 17 min 7 sec) 

ChampSim completed all CPUs

Region of Interest Statistics

CPU 0 cumulative IPC: 1.40592 instructions: 50000003 cycles: 35564004
 Fetch stage stalled: 37.4633  Sim cycles: 35564004 fetch stall cycle: 13323443
 Empty decode stage: 19.6064  Sim cycles: 35564004 fetch stall cycle: 6972808
ITLB TOTAL     ACCESS:    5851907  HIT:    5361004  MISS:     490903  HIT %:    91.6112  MISS %:    8.38877   MPKI: 9.81806
ITLB LOAD TRANSLATION INSTRUCTION	ACCESS:    5700210  HIT:    5209307  MISS:     490903  HIT %:     91.388  MISS %:    8.61202  MPKI: 9.81806
ITLB TRANSLATION FROM L1D PREFETCHER INSTRUCTION	ACCESS:     151697  HIT:     151697  MISS:          0  HIT %:        100  MISS %:          0  MPKI: 0

ITLB AVERAGE MISS LATENCY: 9.03131 cycles
ITLB RQ	ACCESS:    7890003	FORWARD:          0	MERGED:    1519880	TO_CACHE:    6370123

DTLB TOTAL     ACCESS:    8917441  HIT:    8441786  MISS:     475655  HIT %:     94.666  MISS %:    5.33399   MPKI: 9.5131
DTLB LOAD TRANSLATION DATA	ACCESS:    8917441  HIT:    8441786  MISS:     475655  HIT %:     94.666  MISS %:    5.33399  MPKI: 9.5131

DTLB AVERAGE MISS LATENCY: 9.2374 cycles
DTLB RQ	ACCESS:   13283241	FORWARD:          0	MERGED:    4329366	TO_CACHE:    8953875

STLB TOTAL     ACCESS:    1220909  HIT:    1219170  MISS:       1739  HIT %:    99.8576  MISS %:   0.142435   MPKI: 0.03478
STLB LOAD TRANSLATION INSTRUCTION	ACCESS:     490903  HIT:     490722  MISS:        181  HIT %:    99.9631  MISS %:  0.0368708  MPKI: 0.00362
STLB LOAD TRANSLATION DATA	ACCESS:     475655  HIT:     474107  MISS:       1548  HIT %:    99.6746  MISS %:   0.325446  MPKI: 0.03096
STLB TRANSLATION FROM L1D PREFETCHER DATA	ACCESS:     254351  HIT:     254341  MISS:         10  HIT %:    99.9961  MISS %: 0.00393157  MPKI: 0.0002

STLB AVERAGE MISS LATENCY: 57.5434 cycles
STLB RQ	ACCESS:    1366141	FORWARD:          0	MERGED:     145197	TO_CACHE:    1220944

STLB Hit, L1D data hit: 0
STLB Hit, L2C data hit: 0
STLB Hit, LLC data hit: 0
STLB Hit, LLC data miss: 0
STLB STLB hints to L2: 0
L1D TOTAL     ACCESS:   13046229  HIT:   11888295  MISS:    1157934  HIT %:    91.1244  MISS %:    8.87562   MPKI: 23.1587
L1D LOAD DATA	ACCESS:    6542379  HIT:    5776743  MISS:     765636  HIT %:    88.2973  MISS %:    11.7027  MPKI: 15.3127
L1D RFO DATA	ACCESS:    6166266  HIT:    5879149  MISS:     287117  HIT %:    95.3437  MISS %:    4.65625  MPKI: 5.74234
L1D PREFETCH DATA	ACCESS:     337584  HIT:     232403  MISS:     105181  HIT %:     68.843  MISS %:     31.157  MPKI: 2.10362

L1D PREFETCH  REQUESTED:     799539  ISSUED:     799539  USEFUL:      46354  USELESS:      70982
L1D USEFUL LOAD PREFETCHES:      46354 PREFETCH ISSUED TO LOWER LEVEL:     117393  ACCURACY: 39.4862
 TIMELY PREFETCHES:      46354 LATE PREFETCHES: 12148 DROPPED PREFETCHES: 2
L1D AVERAGE MISS LATENCY: 333914 cycles
L1D RQ	ACCESS:   10660587	FORWARD:          0	MERGED:    3920105	TO_CACHE:    6577855
L1D WQ	ACCESS:    6903529	FORWARD:     163000	MERGED:     198143	TO_CACHE:    6705386
L1D PQ	ACCESS:     399956	FORWARD:          0	MERGED:          0	TO_CACHE:     399583

L1D UNIQUE REGIONS ACCESSED: 0
L1D REGIONS CONFLICTS: 0
L1D Cross Page Prefetch Requests: 6291
L1D Same Page Prefetch Requests: 808001
L1D ROI Sum of L1D PQ occupancy: 5047466
L1D PREFETCHES PUSHED FROM L2C: 0
L1I TOTAL     ACCESS:    7086775  HIT:    4330206  MISS:    2756569  HIT %:    61.1026  MISS %:    38.8974   MPKI: 55.1314
L1I LOAD INSTRUCTION	ACCESS:    6424014  HIT:    3667445  MISS:    2756569  HIT %:    57.0896  MISS %:    42.9104  MPKI: 55.1314
L1I PREFETCH INSTRUCTION	ACCESS:     662761  HIT:     662761  MISS:          0  HIT %:        100  MISS %:          0  MPKI: 0

L1I PREFETCH  REQUESTED:    1613605  ISSUED:    1613605  USEFUL:          0  USELESS:          0
L1I USEFUL LOAD PREFETCHES:          0 PREFETCH ISSUED TO LOWER LEVEL:          0  ACCURACY: -nan
 TIMELY PREFETCHES:          0 LATE PREFETCHES: 0 DROPPED PREFETCHES: 0
L1I AVERAGE MISS LATENCY: 17.1706 cycles
L1I RQ	ACCESS:    9668447	FORWARD:          0	MERGED:    2968460	TO_CACHE:    6699987
L1I PQ	ACCESS:    1613605	FORWARD:          0	MERGED:     423589	TO_CACHE:    1190016

L1BTB TOTAL     ACCESS:    5682401  HIT:    2066138  MISS:    3616263  HIT %:    36.3603  MISS %:    63.6397   MPKI: 72.3253
L1BTB BRANCH_DIRECT_JUMP	ACCESS:     544754 HIT:     143041 MISS:     401713 AVERAGE STALL: 60.9187 AVERAGE FETCH STALL: 13.7533 AVERAGE FETCH QUEUE STALL: 23.8609 AVERAGE DECODE STALL: 22.4051 AVERAGE EXECUTE STALL: 2.30757e+15
L1BTB BRANCH_INDIRECT	ACCESS:     181794 HIT:      65597 MISS:     116197 AVERAGE STALL: 116.085 AVERAGE FETCH STALL: 12.0572 AVERAGE FETCH QUEUE STALL: 19.8051 AVERAGE DECODE STALL: 13.5258 AVERAGE EXECUTE STALL: 69.7349
L1BTB BRANCH_CONDITIONAL	ACCESS:    2735967 HIT:    1446708 MISS:    1289259 AVERAGE STALL: 67.0694 AVERAGE FETCH STALL: 24.6676 AVERAGE FETCH QUEUE STALL: 23.7712 AVERAGE DECODE STALL: 17.993 AVERAGE EXECUTE STALL: 2.80858e+15
L1BTB BRANCH_DIRECT_CALL	ACCESS:     939400 HIT:     102244 MISS:     837156 AVERAGE STALL: 81.3919 AVERAGE FETCH STALL: 26.607 AVERAGE FETCH QUEUE STALL: 31.3592 AVERAGE DECODE STALL: 22.583 AVERAGE EXECUTE STALL: 1.00692e+16
L1BTB BRANCH_INDIRECT_CALL	ACCESS:     170545 HIT:      20723 MISS:     149822 AVERAGE STALL: 148.082 AVERAGE FETCH STALL: 12.0897 AVERAGE FETCH QUEUE STALL: 21.3857 AVERAGE DECODE STALL: 13.2566 AVERAGE EXECUTE STALL: 100.86
L1BTB BRANCH_RETURN	ACCESS:    1109941 HIT:     287825 MISS:     822116 AVERAGE STALL: 53.1446 AVERAGE FETCH STALL: 17.181 AVERAGE FETCH QUEUE STALL: 7.25342 AVERAGE DECODE STALL: 6.33105 AVERAGE EXECUTE STALL: 4.30054e+14
L1BTB BRANCH_OTHER ACCESS:          0 HIT:          0 MISS:          0 AVERAGE STALL: -nan AVERAGE FETCH STALL: -nan AVERAGE FETCH QUEUE STALL: -nan AVERAGE DECODE STALL: -nan AVERAGE EXECUTE STALL: -nan
L1BTB TOTAL ROB OCCUPANCY AT BTB MISS: 2.84956

L2BTB TOTAL     ACCESS:    3591189  HIT:    3524390  MISS:      66799  HIT %:    98.1399  MISS %:    1.86008   MPKI: 1.33598
L2BTB BRANCH_DIRECT_JUMP	ACCESS:     397576 HIT:     393718 MISS:       3858 AVERAGE STALL: 60.9187 AVERAGE FETCH STALL: 13.7533 AVERAGE FETCH QUEUE STALL: 23.8609 AVERAGE DECODE STALL: 22.4051 AVERAGE EXECUTE STALL: 2.30757e+15
L2BTB BRANCH_INDIRECT	ACCESS:     105976 HIT:     103285 MISS:       2691 AVERAGE STALL: 116.085 AVERAGE FETCH STALL: 12.0572 AVERAGE FETCH QUEUE STALL: 19.8051 AVERAGE DECODE STALL: 13.5258 AVERAGE EXECUTE STALL: 69.7349
L2BTB BRANCH_CONDITIONAL	ACCESS:    1289259 HIT:    1282661 MISS:       6598 AVERAGE STALL: 67.0694 AVERAGE FETCH STALL: 24.6676 AVERAGE FETCH QUEUE STALL: 23.7712 AVERAGE DECODE STALL: 17.993 AVERAGE EXECUTE STALL: 2.80858e+15
L2BTB BRANCH_DIRECT_CALL	ACCESS:     837156 HIT:     835307 MISS:       1849 AVERAGE STALL: 81.3919 AVERAGE FETCH STALL: 26.607 AVERAGE FETCH QUEUE STALL: 31.3592 AVERAGE DECODE STALL: 22.583 AVERAGE EXECUTE STALL: 1.00692e+16
L2BTB BRANCH_INDIRECT_CALL	ACCESS:     140328 HIT:     130207 MISS:      10121 AVERAGE STALL: 148.082 AVERAGE FETCH STALL: 12.0897 AVERAGE FETCH QUEUE STALL: 21.3857 AVERAGE DECODE STALL: 13.2566 AVERAGE EXECUTE STALL: 100.86
L2BTB BRANCH_RETURN	ACCESS:     820894 HIT:     779212 MISS:      41682 AVERAGE STALL: 53.1446 AVERAGE FETCH STALL: 17.181 AVERAGE FETCH QUEUE STALL: 7.25342 AVERAGE DECODE STALL: 6.33105 AVERAGE EXECUTE STALL: 4.30054e+14
L2BTB BRANCH_OTHER ACCESS:          0 HIT:          0 MISS:          0 AVERAGE STALL: -nan AVERAGE FETCH STALL: -nan AVERAGE FETCH QUEUE STALL: -nan AVERAGE DECODE STALL: -nan AVERAGE EXECUTE STALL: -nan
L2BTB TOTAL ROB OCCUPANCY AT BTB MISS: 154.265

L2C TOTAL     ACCESS:    4527620  HIT:    4064519  MISS:     463101  HIT %:    89.7716  MISS %:    10.2284   MPKI: 9.26202
L2C LOAD INSTRUCTION	ACCESS:    2756570  HIT:    2505728  MISS:     250842  HIT %:    90.9002  MISS %:    9.09979  MPKI: 5.01684
L2C LOAD TRANSLATION INSTRUCTION	ACCESS:        203  HIT:         44  MISS:        159  HIT %:    21.6749  MISS %:    78.3251  MPKI: 0.00318
L2C LOAD DATA	ACCESS:     753463  HIT:     677078  MISS:      76385  HIT %:    89.8621  MISS %:    10.1379  MPKI: 1.5277
L2C RFO DATA	ACCESS:     287040  HIT:     236373  MISS:      50667  HIT %:    82.3485  MISS %:    17.6515  MPKI: 1.01334
L2C PREFETCH DATA	ACCESS:     203187  HIT:     132989  MISS:      70198  HIT %:    65.4515  MISS %:    34.5485  MPKI: 1.40396
L2C WRITEBACK DATA	ACCESS:     525535  HIT:     511943  MISS:      13592  HIT %:    97.4137  MISS %:    2.58632  MPKI: 0.27184
L2C LOAD TRANSLATION DATA	ACCESS:       1603  HIT:        352  MISS:       1251  HIT %:    21.9588  MISS %:    78.0412  MPKI: 0.02502
L2C TRANSLATION FROM L1D PREFETCHER DATA	ACCESS:         19  HIT:         12  MISS:          7  HIT %:    63.1579  MISS %:    36.8421  MPKI: 0.00014

L2C PREFETCH  REQUESTED:      93325  ISSUED:      93325  USEFUL:       8831  USELESS:      61991
L2C USEFUL LOAD PREFETCHES:       8831 PREFETCH ISSUED TO LOWER LEVEL:      70763  ACCURACY: 12.4797
 TIMELY PREFETCHES:       8831 LATE PREFETCHES: 565 DROPPED PREFETCHES: 0
L2C AVERAGE MISS LATENCY: 34.9041 cycles
L2C RQ	ACCESS:    3798940	FORWARD:          0	MERGED:          0	TO_CACHE:    3798903
L2C WQ	ACCESS:     525535	FORWARD:         37	MERGED:          0	TO_CACHE:     525535
L2C PQ	ACCESS:     210718	FORWARD:          0	MERGED:       3282	TO_CACHE:     207436

L2C Dense regions hint from L2: 0
PSCL5 TOTAL     ACCESS:       3484  HIT:       1742  MISS:       1742  HIT %:         50  MISS %:         50   MPKI: 0.03484
PSCL5 LOAD TRANSLATION INSTRUCTION	ACCESS:       3446  HIT:       1723  MISS:       1723  HIT %:         50  MISS %:         50  MPKI: 0.03446
PSCL5 TRANSLATION FROM L1D PREFETCHER INSTRUCTION	ACCESS:         38  HIT:         19  MISS:         19  HIT %:         50  MISS %:         50  MPKI: 0.00038


PSCL4 TOTAL     ACCESS:       3241  HIT:       1618  MISS:       1623  HIT %:    49.9229  MISS %:    50.0771   MPKI: 0.03246
PSCL4 LOAD TRANSLATION INSTRUCTION	ACCESS:       1720  HIT:       1600  MISS:        120  HIT %:    93.0233  MISS %:    6.97674  MPKI: 0.0024
PSCL4 TRANSLATION FROM L1D PREFETCHER INSTRUCTION	ACCESS:         18  HIT:         18  MISS:          0  HIT %:        100  MISS %:          0  MPKI: 0
PSCL4 LOAD TRANSLATION DATA	ACCESS:       1485  HIT:          0  MISS:       1485  HIT %:          0  MISS %:        100  MPKI: 0.0297
PSCL4 TRANSLATION FROM L1D PREFETCHER DATA	ACCESS:         18  HIT:          0  MISS:         18  HIT %:          0  MISS %:        100  MPKI: 0.00036


PSCL3 TOTAL     ACCESS:       3401  HIT:       1698  MISS:       1703  HIT %:    49.9265  MISS %:    50.0735   MPKI: 0.03406
PSCL3 LOAD TRANSLATION INSTRUCTION	ACCESS:       1800  HIT:       1680  MISS:        120  HIT %:    93.3333  MISS %:    6.66667  MPKI: 0.0024
PSCL3 TRANSLATION FROM L1D PREFETCHER INSTRUCTION	ACCESS:         18  HIT:         18  MISS:          0  HIT %:        100  MISS %:          0  MPKI: 0
PSCL3 LOAD TRANSLATION DATA	ACCESS:       1565  HIT:          0  MISS:       1565  HIT %:          0  MISS %:        100  MPKI: 0.0313
PSCL3 TRANSLATION FROM L1D PREFETCHER DATA	ACCESS:         18  HIT:          0  MISS:         18  HIT %:          0  MISS %:        100  MPKI: 0.00036


PSCL2 TOTAL     ACCESS:       3411  HIT:       1669  MISS:       1742  HIT %:    48.9299  MISS %:    51.0701   MPKI: 0.03484
PSCL2 LOAD TRANSLATION INSTRUCTION	ACCESS:       1831  HIT:       1650  MISS:        181  HIT %:    90.1147  MISS %:    9.88531  MPKI: 0.00362
PSCL2 TRANSLATION FROM L1D PREFETCHER INSTRUCTION	ACCESS:         19  HIT:         19  MISS:          0  HIT %:        100  MISS %:          0  MPKI: 0
PSCL2 LOAD TRANSLATION DATA	ACCESS:       1542  HIT:          0  MISS:       1542  HIT %:          0  MISS %:        100  MPKI: 0.03084
PSCL2 TRANSLATION FROM L1D PREFETCHER DATA	ACCESS:         19  HIT:          0  MISS:         19  HIT %:          0  MISS %:        100  MPKI: 0.00038


LLC TOTAL     ACCESS:     523214  HIT:     505698  MISS:      17516  HIT %:    96.6522  MISS %:    3.34777   MPKI: 0.35032
LLC LOAD INSTRUCTION	ACCESS:     250842  HIT:     250338  MISS:        504  HIT %:    99.7991  MISS %:   0.200923  MPKI: 0.01008
LLC LOAD TRANSLATION INSTRUCTION	ACCESS:        159  HIT:        143  MISS:         16  HIT %:    89.9371  MISS %:    10.0629  MPKI: 0.00032
LLC LOAD DATA	ACCESS:      75831  HIT:      73264  MISS:       2567  HIT %:    96.6148  MISS %:    3.38516  MPKI: 0.05134
LLC RFO DATA	ACCESS:      50642  HIT:      44301  MISS:       6341  HIT %:    87.4788  MISS %:    12.5212  MPKI: 0.12682
LLC PREFETCH DATA	ACCESS:      70760  HIT:      62874  MISS:       7886  HIT %:    88.8553  MISS %:    11.1447  MPKI: 0.15772
LLC WRITEBACK DATA	ACCESS:      73722  HIT:      73577  MISS:        145  HIT %:    99.8033  MISS %:   0.196685  MPKI: 0.0029
LLC LOAD TRANSLATION DATA	ACCESS:       1251  HIT:       1195  MISS:         56  HIT %:    95.5236  MISS %:    4.47642  MPKI: 0.00112
LLC TRANSLATION FROM L1D PREFETCHER DATA	ACCESS:          7  HIT:          6  MISS:          1  HIT %:    85.7143  MISS %:    14.2857  MPKI: 2e-05

LLC AVERAGE MISS LATENCY: 153.002 cycles
LLC RQ	ACCESS:     378749	FORWARD:          0	MERGED:          0	TO_CACHE:     378735
LLC WQ	ACCESS:      73722	FORWARD:         17	MERGED:          0	TO_CACHE:      73722
LLC PQ	ACCESS:      70763	FORWARD:          0	MERGED:          0	TO_CACHE:      70760

LLC Dense regions hint to LLC: 0

RAW hits: 1941685
Loads Generated: 12602272
Loads sent to L1D: 10660587
Stores Generated: 6903527
Stores sent to L1D: 6903529
Major fault: 0 Minor fault: 2192
Allocated PAGES: 2192

stream: 
stream:times selected: 1244423
stream:pref_filled: 127658
stream:pref_useful: 29199
stream:pref_late: 9364
stream:misses: 10341
stream:misses_by_poll: 0

CS: 
CS:times selected: 189247
CS:pref_filled: 71887
CS:pref_useful: 48525
CS:pref_late: 8191
CS:misses: 22068
CS:misses_by_poll: 3

CPLX: 
CPLX:times selected: 1054016
CPLX:pref_filled: 25597
CPLX:pref_useful: 7655
CPLX:pref_late: 4099
CPLX:misses: 129770
CPLX:misses_by_poll: 0

NL_L1: 
NL:times selected: 14293
NL:pref_filled: 1284
NL:pref_useful: 363
NL:pref_late: 422
NL:misses: 2343
NL:misses_by_poll: 0

total selections: 2501979
total_filled: 105181
total_useful: 46354
total_late: 24454
total_polluted: 3
total_misses_after_warmup: 801108
conflicts: 5494111

test: 119726

DRAM Statistics
 CHANNEL 0
 RQ ROW_BUFFER_HIT:       5473  ROW_BUFFER_MISS:      11894
 DBUS_CONGESTED:         13
 WQ ROW_BUFFER_HIT:        816  ROW_BUFFER_MISS:       7302  FULL:          0

 AVG_CONGESTED_CYCLE: 6

CPU 0 Branch Prediction Accuracy: 99.82% MPKI: 0.3298 Average ROB Occupancy at Mispredict: 204.45
Branch types
NOT_BRANCH: 40837734 81.6755%
BRANCH_DIRECT_JUMP: 544754 1.08951%
BRANCH_INDIRECT: 181794 0.363588%
BRANCH_CONDITIONAL: 6215781 12.4316%
BRANCH_DIRECT_CALL: 939400 1.8788%
BRANCH_INDIRECT_CALL: 170545 0.34109%
BRANCH_RETURN: 1109941 2.21988%
BRANCH_OTHER: 0 0%

DRAM PAGES: 1048576
Allocated PAGES: 2192
Average_ROB_Occupancy: 255.867
Average_Decode_Occupancy: 40.5329
Average_FTQ_Occupancy: 16.2563
Indirect max targets: 14 Average targets: 1.15017
Branch_type:  BRANCH_DIRECT_JUMP:  Count Percentage: 3.64976 6.10955 4.18588 3.12861 7.48606 6.0239 1.70771 67.7085 
Branch_type:  BRANCH_INDIRECT:  Count Percentage: 11.773 3.47151 2.54597 0 13.0084 2.80825 2.14004 64.2529 
Branch_type:  BRANCH_CONDITIONAL:  Count Percentage: 25.4979 3.38465 5.27996 2.47714 3.39148 4.60238 1.62575 53.7407 
Branch_type:  BRANCH_DIRECT_CALL:  Count Percentage: 0.878351 1.25048 0.729127 2.26921 4.10279 2.82296 0.887355 87.0597 
Branch_type:  BRANCH_INDIRECT_CALL:  Count Percentage: 9.55537 0 2.99627 0 0 2.2783 0.998169 84.1719 
Branch_type:  BRANCH_RETURN:  Count Percentage: 8.24863 1.55481 5.25186 1.71297 4.1901 5.25182 1.12618 72.6636 
Branch_type:  BRANCH_DIRECT_JUMP:  Total Count: 39716 66483 45550 34045 81462 65551 18583 736792 
Branch_type:  BRANCH_INDIRECT:  Total Count: 42778 12614 9251 0 47267 10204 7776 233468 
Branch_type:  BRANCH_CONDITIONAL:  Total Count: 3167458 420456 655899 307721 421304 571727 201958 6675896 
Branch_type:  BRANCH_DIRECT_CALL:  Total Count: 16487 23472 13686 42594 77011 52988 16656 1634145 
Branch_type:  BRANCH_INDIRECT_CALL:  Total Count: 32567 0 10212 0 0 7765 3402 286878 
Branch_type:  BRANCH_RETURN:  Total Count: 183009 34496 116521 38005 92964 116520 24986 1612159 
Number of unique branch instructions: 9869
Upper 32 bits: 
aaaa
ffff
ffff0000
Unique upper 32 bits: 3
Unique upper 36 bits: 3
Unique upper 40 bits: 5
Unique upper 44 bits: 32
Unique upper 48 bits: 153
Variant_0 : 1390 0.339355
Variant_1 : 2655 0.648193
Variant_2 : 0 0
Variant_3 : 0 0
Offset_3 4056
Offset_4 242
Offset_5 444
Offset_6 507
Offset_7 584
Offset_8 514
Offset_9 462
Offset_10 385
Offset_11 320
Offset_12 267
Offset_13 195
Offset_14 225
Offset_15 182
Offset_16 225
Offset_17 146
Offset_18 127
Offset_19 235
Offset_20 137
Offset_21 235
Offset_22 397
Offset_23 241
Offset_24 325
Offset_25 88
Offset_47 80
decode_dispatch_called: 26731352 75.1641
Dispatch_width: 0 14443659 54.0327 40.6131
Dispatch_width: 1 1060800 3.96837 2.98279
Dispatch_width: 2 851909 3.18693 2.39542
Dispatch_width: 3 495455 1.85346 1.39314
Dispatch_width: 4 6722075 25.1468 18.9013
Dispatch_width: 5 84013 0.314286 0.23623
Dispatch_width: 6 3073441 11.4975 8.642
Empty_decode_cycles: 8832652 24.8359
ROB_full_cycles: 10587023 29.7689
Starvation_cycles_per_kilo_instr: 219.035
Starvation_cycles_per_kilo_instr_3: 150.975
Starvation_cycles_per_kilo_instr_0: 126.893
Branch_type_1  (3,1)  (4,7)  (5,36)  (6,74)  (7,115)  (8,126)  (9,121)  (10,100)  (11,76)  (12,44)  (13,4)  (14,2)  (15,3)  (16,4)  (18,1)  (19,4)  (20,2)  (21,1)  (22,3)  (23,2)  (24,10)  (25,12) 
Branch_type_2  (3,1)  (5,1)  (8,3)  (9,3)  (12,1)  (13,1)  (14,1)  (16,3)  (17,2)  (20,2)  (21,2)  (23,5)  (24,1)  (47,36) 
Branch_type_3  (3,4054)  (4,235)  (5,403)  (6,417)  (7,438)  (8,326)  (9,256)  (10,158)  (11,130)  (12,49)  (13,4) 
Branch_type_4  (6,4)  (7,8)  (8,26)  (9,50)  (10,60)  (11,57)  (12,96)  (13,84)  (14,99)  (15,86)  (16,102)  (17,66)  (18,58)  (19,114)  (20,71)  (21,124)  (22,213)  (23,136)  (24,187)  (25,72) 
Branch_type_5  (8,2)  (9,1)  (10,3)  (11,5)  (12,3)  (13,14)  (14,16)  (15,11)  (16,20)  (17,11)  (18,16)  (19,12)  (20,10)  (21,13)  (22,42)  (23,26)  (24,36) 
Branch_type_6  (5,4)  (6,12)  (7,23)  (8,31)  (9,31)  (10,64)  (11,52)  (12,74)  (13,88)  (14,107)  (15,82)  (16,96)  (17,67)  (18,52)  (19,105)  (20,52)  (21,95)  (22,139)  (23,72)  (24,91)  (25,4)  (47,44) 
Unique trigger count: 
Variant_0_evicts_0 : 0
Variant_0_evicts_1 : 0
Variant_0_evicts_2 : 0
Variant_0_evicts_3 : 0
Variant_1_evicts_0 : 0
Variant_1_evicts_1 : 0
Variant_1_evicts_2 : 0
Variant_1_evicts_3 : 0
Variant_2_evicts_0 : 0
Variant_2_evicts_1 : 0
Variant_2_evicts_2 : 0
Variant_2_evicts_3 : 0
Variant_3_evicts_0 : 0
Variant_3_evicts_1 : 0
Variant_3_evicts_2 : 0
Variant_3_evicts_3 : 0
BTB PER SET UNIQUE ADDR: 11 15 12 10 13 13 7 9 10 13 11 13 14 8 12 8 6 11 13 13 8 9 9 9 7 15 10 14 13 11 9 12 9 8 8 11 5 11 5 9 12 11 12 13 11 8 13 9 13 8 14 7 11 9 9 5 11 9 8 12 13 15 10 10 13 12 10 9 10 9 12 13 12 12 12 7 9 15 12 11 8 8 13 15 11 11 13 11 8 13 9 7 10 8 8 12 13 11 13 13 11 15 10 12 13 6 11 12 11 11 13 6 9 11 7 8 10 13 10 10 12 7 8 9 10 10 8 12 14 11 10 10 9 12 7 15 7 11 8 16 10 13 9 9 9 9 11 6 8 12 11 9 9 12 8 14 19 7 14 11 14 10 14 10 14 14 11 7 10 7 10 12 12 7 9 9 11 10 15 13 9 11 13 12 11 14 7 9 14 9 8 9 8 9 10 8 8 8 8 12 16 11 9 10 9 12 11 11 11 11 11 12 10 14 9 12 10 15 13 14 9 8 6 6 9 14 12 12 11 14 8 8 10 12 9 10 17 7 12 8 8 12 15 13 12 8 8 14 11 11 10 15 13 11 8 13 12 5 8 9 12 9 4 8 10 9 8 11 11 10 10 11 7 8 9 9 11 14 8 14 8 10 8 9 14 4 9 14 13 11 12 6 9 13 6 12 9 12 12 11 10 10 11 8 14 7 9 11 16 10 11 12 8 15 11 11 9 13 12 12 6 12 11 11 10 14 8 9 10 9 10 12 9 11 9 12 8 11 9 14 11 12 9 11 16 9 11 10 13 10 8 10 13 10 14 8 12 15 7 8 8 13 10 13 11 14 6 11 13 14 11 8 10 11 11 8 12 11 10 13 11 10 7 7 8 11 11 13 13 12 15 7 12 10 9 8 9 12 13 10 12 10 8 9 13 7 14 13 8 13 13 7 14 14 6 9 8 15 11 10 13 13 12 12 10 9 12 11 9 11 12 10 6 10 16 13 9 7 12 15 10 8 13 10 11 8 8 14 11 11 15 19 8 10 9 8 8 10 7 11 12 9 10 14 13 8 8 9 11 8 11 10 12 10 14 15 11 17 9 12 11 8 9 9 11 15 11 12 13 10 7 12 11 11 8 9 9 11 10 10 12 16 8 16 8 10 7 14 11 13 12 13 11 7 11 12 10 13 10 9 8 9 10 9 8 13 15 12 7 14 14 11 11 6 14 14 8 12 13 7 15 12 12 7 10 16 6 14 9 11 13 15 10 12 11 14 9 9 21 11 14 14 7 11 10 14 8 14 14 13 11 11 15 11 9 9 15 14 13 12 12 11 10 11 9 9 13 11 15 11 11 9 13 8 11 8 9 8 13 8 10 12 11 8 13 12 13 13 13 9 11 14 11 10 5 15 9 12 12 11 13 13 8 6 11 11 11 13 9 13 10 12 13 9 10 10 14 9 6 15 10 8 10 10 9 10 11 6 17 7 11 13 11 8 10 11 9 12 10 8 13 7 15 11 11 14 8 12 10 9 11 7 10 13 16 7 15 10 13 11 10 13 9 12 10 10 7 12 12 12 10 10 8 7 11 8 11 7 10 15 7 11 13 10 6 14 11 6 11 8 13 11 7 11 11 12 14 12 10 14 14 11 8 11 9 12 11 8 10 8 13 9 10 13 10 16 10 9 14 10 7 11 10 13 13 16 10 12 13 9 9 12 9 11 8 13 11 15 13 9 10 9 10 11 9 11 9 12 11 13 10 9 9 10 16 8 10 9 14 12 5 9 14 6 13 8 11 11 7 9 12 9 13 9 15 11 8 10 11 17 13 9 15 12 11 9 13 10 12 10 11 10 13 17 11 16 12 13 10 17 10 15 6 16 13 15 10 13 13 14 12 10 9 9 12 11 14 13 12 10 13 12 9 11 12 11 9 16 8 13 13 9 9 10 14 12 12 12 13 14 9 11 9 10 15 9 9 9 16 10 10 15 13 10 11 7 11 7 10 11 13 8 10 16 11 10 10 8 10 10 13 9 9 7 10 11 17 15 10 11 9 8 13 14 7 13 12 12 13 14 9 10 9 14 16 12 14 9 8 10 11 10 10 12 9 10 8 8 7 8 11 9 11 11 8 20 10 12 11 15 10 12 8 12 10 10 13 16 10 10 13 10 5 13 6 11 8 10 10 13 11 13 10 12 10 10 10 9 11 14 9 13 12 17 9 6 14 10 11 13 11 16 11 11 12 12 17 7 10 9 14 11 12 13 12 8 9 10 16 12 14 14 9 8 10 9 7 8 8 13 12 13 10 9 10 8 5 8 7 10 10 16 14 9 
BTB PER SET COUNT: 37 21 1960 11 15 13 1461 186 1472 19 14 18 21 10 18 14 6 2443 29 18 9 11 12 10 24 21 12 19 380 11 10 13 10 9 8 502 5 16 5 12 14 12 14 17 14 10 13 12 121 9 16 510 15 17 12 368 16 11 493 16 22 20 885 16 18 16 12 860 16 10 307 133 15 13 14 10 13 20 12 17 982 10 801 393 17 14 16 27 317 19 9 638 499 11 10 17 341 16 21 3254 15 555 14 13 3022 6 13 15 1251 16 18 9 1134 16 10 11 10 22 1475 171 52 7 9 12 17 15 10 16 18 984 16 10 9 14 8 16 823 16 11 20 15 15 9 12 9 20 13 662 12 113 11 10 987 12 9 18 66 7 25 42 16 11 24 12 1005 23 17 7 13 1562 17 15 14 8 9 9 20 10 314 469 12 15 21 14 14 20 7 12 21 11 11 9 8 11 14 8 8 979 9 12 29 15 982 16 10 14 12 12 988 2799 13 23 14 17 9 19 17 24 2719 17 16 13 6 6 10 19 19 264 14 22 12 12 11 19 15 12843 785 8 150 12 226 20 25 16 19 13 9 20 324 12 16 21 13 16 8 16 82 7 8 10 116 9 4 9 11 9 10 12 402 10 14 26 7 8 16 9 14 17 8 214 9 17 10 13 18 4 9 25 15 12 19 6 11 13 8 16 14 14 15 805 15 12 11 12 20 129 13 493 32 12 129 16 9 27 1474 877 9 24 16 23 13 17 14 21 1472 19 11 15 11 10 13 14 57 11 14 17 9 984 13 26 15 287 12 11 28 9 16 10 17 13 8 1467 20 12 15 8 21 27 119 13 11 14 19 19 16 68 6 19 18 18 741 8 13 14 21 8 16 17 43 23 793 12 195 11 8 12 13 21 16 13 19 7 18 11 10 218 10 22 2389 2688 14 13 9 11 18 7 16 226 12 16 17 10 24 20 6 17 11 7564 15 12 15 24 14 17 14 11 16 11 13 12 22 10 6 12 20 22 22 7 14 26 1073 11 15 13 11 8 938 17 16 12 920 23 11 10 10 1468 8 13 7 17 12 311 19 18 15 12 3838 12 19 8 18 14 16 10 24 19 14 1022 12 12 16 12 10 11 265 150 14 14 20 14 10 14 652 16 10 12 758 17 10 15 17 23 9 37 14 15 10 19 20 18 514 199 180 7 13 19 10 20 13 9 10 13 17 10 11 22 1178 372 8 1376 22 18 12 7 23 17 9 36 23 688 16 12 16 9 15 295 7 21 14 407 16 20 795 600 12 17 14 10 31 26 19 90 8 12 12 23 128 18 23 22 595 11 23 14 10 12 16 19 15 17 17 17 16 3729 11 18 19 18 28 15 19 683 16 9 12 8 1613 16 18 8 11 20 153 11 22 16 16 891 14 13 17 23 22 12 5 17 10 18 17 11 15 21 13 979 12 13 21 19 9 20 13 21 24 11 17 310 20 778 6 19 10 11 11 10 2440 10 79 6 24 8 16 19 14 13 25 13 14 129 851 842 23 7 20 11 430 27 8 782 1471 12 16 8 984 14 989 9 25 11 18 22 11 18 981 16 10 16 8 18 18 18 10 14 8 9 17 14 139 7 17 17 975 16 15 13 9 18 15 7 14 8 22 498 7 14 54 141 423 14 14 16 16 190 9 11 1467 16 11 9 729 808 121 10774 11 15 10 1490 495 10 22 18 1090 12 393 23 84 24 498 13 15 12 10 15 12 14 10 17 14 899 18 9 13 9 15 161 2341 16 10 237 12 19 10 154 15 10 26 9 13 753 15 16 1464 9 82 8 16 10 16 16 12 9 198 879 15 9 289 13 11 13 13 162 430 13 408 692 436 12 21 14 13 60 15 4976 17 42 17 687 14 1406 11 2372 13 930 7 22 282 22 12 18 20 15 12 12 10 12 37 293 18 23 15 495 15 13 9 20 544 12 12 19 10 17 15 406 14 11 17 21 14 13 16 21 982 310 9 11 26 13 11 13 20 14 388 60 19 12 13 8 13 7 11 18 17 12 290 24 500 1468 12 11 12 13 17 24 1953 7 11 13 27 24 11 17 9 12 18 309 9 23 13 16 135 21 15 13 14 20 26 223 22 983 10 15 11 14 12 16 9 16 9 9 8 25 12 9 13 15 11 609 12 49 13 19 10 1013 9 16 12 776 26 20 13 18 18 982 7 3327 6 16 8 13 14 17 411 15 14 14 20 12 1472 11 58 180 78 886 13 26 11 10 23 10 11 17 218 1155 23 16 15 24 467 982 14 12 14 14 20 17 1473 9 9 1472 17 14 16 18 9 11 11 1353 7 10 9 13 312 722 14 12 10 10 5 369 8 10 15 620 23 11 
To predecode: 0
Predecoding something: 0
Predecode request dropped: 0
sizeofblock_0 0
sizeofblock_1 52694
sizeofblock_2 87446
sizeofblock_3 0
sizeofblock_4 0
sizeofblock_5 0
sizeofblock_6 0
sizeofblock_7 0
sizeofblock_8 0
Variant_0 Correct: 1603840 Incorrect: 0 Accuracy: 1
Variant_1 Correct: 5712955 Incorrect: 0 Accuracy: 1
Variant_2 Correct: 0 Incorrect: 0 Accuracy: -nan
Variant_3 Correct: 0 Incorrect: 0 Accuracy: -nan
