
*** ChampSim Multicore Out-of-Order Simulator ***

Warmup Instructions: 50000000
Simulation Instructions: 50000000
Number of CPUs: 1
LLC sets: 2048
LLC ways: 16
Off-chip DRAM Size: 4096 MB Channels: 1 Width: 64-bit Data Rate: 6400 MT/s
CPU 0 runs ./micro_traces/srv458.trace.gz
.gz
ITLB has LRU replacement policy
DTLB has LRU replacement policy
STLB has LRU replacement policy
FDIP Prefetcher at L1I
L1I has LRU replacement policy
L1D has LRU replacement policy
Initialize SRRIP state for L2C
Initialize DRRIP state for LLC
Heartbeat_Variant_0 : 1288 0.157227 per_variant_size: 0 1288 0 0 0 0 0 0 0 
Heartbeat_Variant_1 : 1354 0.165283 per_variant_size: 0 915 439 0 0 0 0 0 0 
Heartbeat_Variant_2 : 1479 0.180542 per_variant_size: 0 827 439 185 28 0 0 0 0 
Heartbeat_Variant_3 : 0 0 per_variant_size: 0 0 0 0 0 0 0 0 0 
Heartbeat_Variant_0_evicts 0 : 7308 1 : 662 2 : 1532 3 : 0 
Heartbeat_Variant_1_evicts 0 : 665 1 : 0 2 : 714 3 : 0 
Heartbeat_Variant_2_evicts 0 : 1425 1 : 589 2 : 0 3 : 0 
Heartbeat_Variant_3_evicts 0 : 0 1 : 0 2 : 0 3 : 0 
Heartbeat CPU 0 instructions: 10000003 cycles: 2797405 heartbeat IPC: 3.57474 cumulative IPC: 3.57474 (Simulation time: 0 hr 1 min 56 sec) 
Heartbeat_Variant_0 : 1362 0.16626 per_variant_size: 0 1362 0 0 0 0 0 0 0 
Heartbeat_Variant_1 : 1450 0.177002 per_variant_size: 0 957 493 0 0 0 0 0 0 
Heartbeat_Variant_2 : 1532 0.187012 per_variant_size: 0 798 479 218 37 0 0 0 0 
Heartbeat_Variant_3 : 0 0 per_variant_size: 0 0 0 0 0 0 0 0 0 
Heartbeat_Variant_0_evicts 0 : 7301 1 : 667 2 : 1562 3 : 0 
Heartbeat_Variant_1_evicts 0 : 735 1 : 0 2 : 596 3 : 0 
Heartbeat_Variant_2_evicts 0 : 1478 1 : 643 2 : 0 3 : 0 
Heartbeat_Variant_3_evicts 0 : 0 1 : 0 2 : 0 3 : 0 
Heartbeat CPU 0 instructions: 20000000 cycles: 5594204 heartbeat IPC: 3.57552 cumulative IPC: 3.57513 (Simulation time: 0 hr 3 min 33 sec) 
Heartbeat_Variant_0 : 1360 0.166016 per_variant_size: 0 1360 0 0 0 0 0 0 0 
Heartbeat_Variant_1 : 1453 0.177368 per_variant_size: 0 956 497 0 0 0 0 0 0 
Heartbeat_Variant_2 : 1532 0.187012 per_variant_size: 0 799 480 216 37 0 0 0 0 
Heartbeat_Variant_3 : 0 0 per_variant_size: 0 0 0 0 0 0 0 0 0 
Heartbeat_Variant_0_evicts 0 : 7202 1 : 644 2 : 1496 3 : 0 
Heartbeat_Variant_1_evicts 0 : 751 1 : 0 2 : 542 3 : 0 
Heartbeat_Variant_2_evicts 0 : 1391 1 : 647 2 : 0 3 : 0 
Heartbeat_Variant_3_evicts 0 : 0 1 : 0 2 : 0 3 : 0 
Heartbeat CPU 0 instructions: 30000003 cycles: 8391220 heartbeat IPC: 3.57524 cumulative IPC: 3.57517 (Simulation time: 0 hr 5 min 11 sec) 
Heartbeat_Variant_0 : 1364 0.166504 per_variant_size: 0 1364 0 0 0 0 0 0 0 
Heartbeat_Variant_1 : 1453 0.177368 per_variant_size: 0 952 501 0 0 0 0 0 0 
Heartbeat_Variant_2 : 1532 0.187012 per_variant_size: 0 792 478 224 38 0 0 0 0 
Heartbeat_Variant_3 : 0 0 per_variant_size: 0 0 0 0 0 0 0 0 0 
Heartbeat_Variant_0_evicts 0 : 7264 1 : 640 2 : 1531 3 : 0 
Heartbeat_Variant_1_evicts 0 : 760 1 : 0 2 : 531 3 : 0 
Heartbeat_Variant_2_evicts 0 : 1407 1 : 652 2 : 0 3 : 0 
Heartbeat_Variant_3_evicts 0 : 0 1 : 0 2 : 0 3 : 0 
Heartbeat CPU 0 instructions: 40000001 cycles: 11187301 heartbeat IPC: 3.57643 cumulative IPC: 3.57548 (Simulation time: 0 hr 6 min 50 sec) 
Heartbeat_Variant_0 : 1364 0.166504 per_variant_size: 0 1364 0 0 0 0 0 0 0 
Heartbeat_Variant_1 : 1461 0.178345 per_variant_size: 0 958 503 0 0 0 0 0 0 
Heartbeat_Variant_2 : 1538 0.187744 per_variant_size: 0 801 475 223 39 0 0 0 0 
Heartbeat_Variant_3 : 0 0 per_variant_size: 0 0 0 0 0 0 0 0 0 
Heartbeat_Variant_0_evicts 0 : 7349 1 : 618 2 : 1542 3 : 0 
Heartbeat_Variant_1_evicts 0 : 765 1 : 0 2 : 473 3 : 0 
Heartbeat_Variant_2_evicts 0 : 1396 1 : 620 2 : 0 3 : 0 
Heartbeat_Variant_3_evicts 0 : 0 1 : 0 2 : 0 3 : 0 
Heartbeat CPU 0 instructions: 50000000 cycles: 13981995 heartbeat IPC: 3.57821 cumulative IPC: 3.57603 (Simulation time: 0 hr 8 min 17 sec) 

Warmup complete CPU 0 instructions: 50000004 cycles: 13981996 (Simulation time: 0 hr 8 min 17 sec) 

Cycle: 20000000 FTQ IN: 57999714 FTQ occupancy: 19.2561 DECODE IN: 57999621 DECODE occupancy: 49.778 ROB IN: 57999561 ROB occupancy: 303.908 ROB OUT: 57999209
Heartbeat_Variant_0 : 1365 0.166626 per_variant_size: 0 1365 0 0 0 0 0 0 0 
Heartbeat_Variant_1 : 1462 0.178467 per_variant_size: 0 963 499 0 0 0 0 0 0 
Heartbeat_Variant_2 : 1537 0.187622 per_variant_size: 0 797 478 224 38 0 0 0 0 
Heartbeat_Variant_3 : 0 0 per_variant_size: 0 0 0 0 0 0 0 0 0 
Heartbeat_Variant_0_evicts 0 : 7371 1 : 627 2 : 1546 3 : 0 
Heartbeat_Variant_1_evicts 0 : 775 1 : 0 2 : 479 3 : 0 
Heartbeat_Variant_2_evicts 0 : 1397 1 : 626 2 : 0 3 : 0 
Heartbeat_Variant_3_evicts 0 : 0 1 : 0 2 : 0 3 : 0 
Heartbeat CPU 0 instructions: 60000001 cycles: 21494811 heartbeat IPC: 1.33106 cumulative IPC: 1.33106 (Simulation time: 0 hr 9 min 57 sec) 
Heartbeat_Variant_0 : 1363 0.166382 per_variant_size: 0 1363 0 0 0 0 0 0 0 
Heartbeat_Variant_1 : 1464 0.178711 per_variant_size: 0 963 501 0 0 0 0 0 0 
Heartbeat_Variant_2 : 1538 0.187744 per_variant_size: 0 795 479 227 37 0 0 0 0 
Heartbeat_Variant_3 : 0 0 per_variant_size: 0 0 0 0 0 0 0 0 0 
Heartbeat_Variant_0_evicts 0 : 7317 1 : 628 2 : 1540 3 : 0 
Heartbeat_Variant_1_evicts 0 : 776 1 : 0 2 : 475 3 : 0 
Heartbeat_Variant_2_evicts 0 : 1394 1 : 621 2 : 0 3 : 0 
Heartbeat_Variant_3_evicts 0 : 0 1 : 0 2 : 0 3 : 0 
Heartbeat CPU 0 instructions: 70000002 cycles: 28922512 heartbeat IPC: 1.34631 cumulative IPC: 1.33864 (Simulation time: 0 hr 11 min 37 sec) 
Cycle: 30000000 FTQ IN: 13459939 FTQ occupancy: 10.437 DECODE IN: 13460032 DECODE occupancy: 25.8158 ROB IN: 13460092 ROB occupancy: 199.623 ROB OUT: 13460114
Heartbeat_Variant_0 : 1362 0.16626 per_variant_size: 0 1362 0 0 0 0 0 0 0 
Heartbeat_Variant_1 : 1465 0.178833 per_variant_size: 0 964 501 0 0 0 0 0 0 
Heartbeat_Variant_2 : 1538 0.187744 per_variant_size: 0 797 478 225 38 0 0 0 0 
Heartbeat_Variant_3 : 0 0 per_variant_size: 0 0 0 0 0 0 0 0 0 
Heartbeat_Variant_0_evicts 0 : 7314 1 : 619 2 : 1534 3 : 0 
Heartbeat_Variant_1_evicts 0 : 768 1 : 0 2 : 471 3 : 0 
Heartbeat_Variant_2_evicts 0 : 1386 1 : 619 2 : 0 3 : 0 
Heartbeat_Variant_3_evicts 0 : 0 1 : 0 2 : 0 3 : 0 
Heartbeat CPU 0 instructions: 80000000 cycles: 36423392 heartbeat IPC: 1.33318 cumulative IPC: 1.33681 (Simulation time: 0 hr 13 min 17 sec) 
Cycle: 40000000 FTQ IN: 13391633 FTQ occupancy: 10.6279 DECODE IN: 13391633 DECODE occupancy: 26.0732 ROB IN: 13391633 ROB occupancy: 200.358 ROB OUT: 13391937
Heartbeat_Variant_0 : 1367 0.16687 per_variant_size: 0 1367 0 0 0 0 0 0 0 
Heartbeat_Variant_1 : 1467 0.179077 per_variant_size: 0 968 499 0 0 0 0 0 0 
Heartbeat_Variant_2 : 1533 0.187134 per_variant_size: 0 792 478 227 36 0 0 0 0 
Heartbeat_Variant_3 : 0 0 per_variant_size: 0 0 0 0 0 0 0 0 0 
Heartbeat_Variant_0_evicts 0 : 7425 1 : 644 2 : 1573 3 : 0 
Heartbeat_Variant_1_evicts 0 : 789 1 : 0 2 : 485 3 : 0 
Heartbeat_Variant_2_evicts 0 : 1423 1 : 630 2 : 0 3 : 0 
Heartbeat_Variant_3_evicts 0 : 0 1 : 0 2 : 0 3 : 0 
Heartbeat CPU 0 instructions: 90000003 cycles: 43804764 heartbeat IPC: 1.35476 cumulative IPC: 1.34126 (Simulation time: 0 hr 14 min 53 sec) 
Cycle: 50000000 FTQ IN: 13472913 FTQ occupancy: 10.3578 DECODE IN: 13472866 DECODE occupancy: 25.5495 ROB IN: 13472832 ROB occupancy: 198.332 ROB OUT: 13472559
Heartbeat_Variant_0 : 1400 0.170898 per_variant_size: 0 1400 0 0 0 0 0 0 0 
Heartbeat_Variant_1 : 1502 0.18335 per_variant_size: 0 974 528 0 0 0 0 0 0 
Heartbeat_Variant_2 : 1559 0.190308 per_variant_size: 0 795 487 236 41 0 0 0 0 
Heartbeat_Variant_3 : 0 0 per_variant_size: 0 0 0 0 0 0 0 0 0 
Heartbeat_Variant_0_evicts 0 : 7412 1 : 645 2 : 1598 3 : 0 
Heartbeat_Variant_1_evicts 0 : 779 1 : 0 2 : 504 3 : 0 
Heartbeat_Variant_2_evicts 0 : 1460 1 : 629 2 : 0 3 : 0 
Heartbeat_Variant_3_evicts 0 : 0 1 : 0 2 : 0 3 : 0 
Heartbeat CPU 0 instructions: 100000001 cycles: 51334848 heartbeat IPC: 1.32801 cumulative IPC: 1.33859 (Simulation time: 0 hr 16 min 33 sec) 
Finished CPU 0 instructions: 50000001 cycles: 37352853 cumulative IPC: 1.33859 (Simulation time: 0 hr 16 min 33 sec) 

ChampSim completed all CPUs

Region of Interest Statistics

CPU 0 cumulative IPC: 1.33859 instructions: 50000001 cycles: 37352853
 Fetch stage stalled: 60.5006  Sim cycles: 37352853 fetch stall cycle: 22598713
 Empty decode stage: 47.4408  Sim cycles: 37352853 fetch stall cycle: 17720496
ITLB TOTAL     ACCESS:    5808744  HIT:    5315275  MISS:     493469  HIT %:    91.5047  MISS %:    8.49528   MPKI: 9.86938
ITLB LOAD TRANSLATION INSTRUCTION	ACCESS:    5689618  HIT:    5196149  MISS:     493469  HIT %:    91.3269  MISS %:    8.67315  MPKI: 9.86938
ITLB TRANSLATION FROM L1D PREFETCHER INSTRUCTION	ACCESS:     119126  HIT:     119126  MISS:          0  HIT %:        100  MISS %:          0  MPKI: 0

ITLB AVERAGE MISS LATENCY: 9.06658 cycles
ITLB RQ	ACCESS:    7885725	FORWARD:          0	MERGED:    1630187	TO_CACHE:    6255538

DTLB TOTAL     ACCESS:    9038258  HIT:    8564945  MISS:     473313  HIT %:    94.7632  MISS %:    5.23677   MPKI: 9.46626
DTLB LOAD TRANSLATION DATA	ACCESS:    9038258  HIT:    8564945  MISS:     473313  HIT %:    94.7632  MISS %:    5.23677  MPKI: 9.46626

DTLB AVERAGE MISS LATENCY: 9.32607 cycles
DTLB RQ	ACCESS:   13398123	FORWARD:          0	MERGED:    4322229	TO_CACHE:    9075894

STLB TOTAL     ACCESS:    1217405  HIT:    1215283  MISS:       2122  HIT %:    99.8257  MISS %:   0.174305   MPKI: 0.04244
STLB LOAD TRANSLATION INSTRUCTION	ACCESS:     493469  HIT:     493148  MISS:        321  HIT %:     99.935  MISS %:  0.0650497  MPKI: 0.00642
STLB LOAD TRANSLATION DATA	ACCESS:     473086  HIT:     471315  MISS:       1771  HIT %:    99.6256  MISS %:   0.374351  MPKI: 0.03542
STLB TRANSLATION FROM L1D PREFETCHER DATA	ACCESS:     250850  HIT:     250820  MISS:         30  HIT %:     99.988  MISS %:  0.0119593  MPKI: 0.0006

STLB AVERAGE MISS LATENCY: 73.6645 cycles
STLB RQ	ACCESS:    1338672	FORWARD:          0	MERGED:     121224	TO_CACHE:    1217448

STLB Hit, L1D data hit: 0
STLB Hit, L2C data hit: 0
STLB Hit, LLC data hit: 0
STLB Hit, LLC data miss: 0
STLB STLB hints to L2: 0
L1D TOTAL     ACCESS:   13146312  HIT:   12028881  MISS:    1117431  HIT %:       91.5  MISS %:    8.49996   MPKI: 22.3486
L1D LOAD DATA	ACCESS:    6604056  HIT:    5870185  MISS:     733871  HIT %:    88.8876  MISS %:    11.1124  MPKI: 14.6774
L1D RFO DATA	ACCESS:    6211073  HIT:    5923781  MISS:     287292  HIT %:    95.3745  MISS %:    4.62548  MPKI: 5.74584
L1D PREFETCH DATA	ACCESS:     331183  HIT:     234915  MISS:      96268  HIT %:    70.9321  MISS %:    29.0679  MPKI: 1.92536

L1D PREFETCH  REQUESTED:     744121  ISSUED:     744121  USEFUL:      35266  USELESS:      68637
L1D USEFUL LOAD PREFETCHES:      35266 PREFETCH ISSUED TO LOWER LEVEL:     103998  ACCURACY: 33.9103
 TIMELY PREFETCHES:      35266 LATE PREFETCHES: 7653 DROPPED PREFETCHES: 10
L1D AVERAGE MISS LATENCY: 230693 cycles
L1D RQ	ACCESS:   10734014	FORWARD:          0	MERGED:    3933820	TO_CACHE:    6639069
L1D WQ	ACCESS:    6950203	FORWARD:     161466	MERGED:     191149	TO_CACHE:    6759054
L1D PQ	ACCESS:     372231	FORWARD:          0	MERGED:          0	TO_CACHE:     371890

L1D UNIQUE REGIONS ACCESSED: 0
L1D REGIONS CONFLICTS: 0
L1D Cross Page Prefetch Requests: 6836
L1D Same Page Prefetch Requests: 750597
L1D ROI Sum of L1D PQ occupancy: 4717672
L1D PREFETCHES PUSHED FROM L2C: 0
L1I TOTAL     ACCESS:    7122493  HIT:    4361295  MISS:    2761198  HIT %:    61.2327  MISS %:    38.7673   MPKI: 55.224
L1I LOAD INSTRUCTION	ACCESS:    6490996  HIT:    3729798  MISS:    2761198  HIT %:    57.4611  MISS %:    42.5389  MPKI: 55.224
L1I PREFETCH INSTRUCTION	ACCESS:     631497  HIT:     631497  MISS:          0  HIT %:        100  MISS %:          0  MPKI: 0

L1I PREFETCH  REQUESTED:    1486370  ISSUED:    1486370  USEFUL:          0  USELESS:          0
L1I USEFUL LOAD PREFETCHES:          0 PREFETCH ISSUED TO LOWER LEVEL:          0  ACCURACY: -nan
 TIMELY PREFETCHES:          0 LATE PREFETCHES: 0 DROPPED PREFETCHES: 0
L1I AVERAGE MISS LATENCY: 17.3808 cycles
L1I RQ	ACCESS:    9479595	FORWARD:          0	MERGED:    2677411	TO_CACHE:    6802184
L1I PQ	ACCESS:    1486370	FORWARD:          0	MERGED:     402829	TO_CACHE:    1083541

L1BTB TOTAL     ACCESS:    5670564  HIT:    2045417  MISS:    3625147  HIT %:    36.0708  MISS %:    63.9292   MPKI: 72.5029
L1BTB BRANCH_DIRECT_JUMP	ACCESS:     548699  HIT:     144830  MISS:     403869	AVERAGE STALL: 47.4427
L1BTB BRANCH_INDIRECT	ACCESS:     183288  HIT:      66281  MISS:     117007	AVERAGE STALL: 96.0689
L1BTB BRANCH_CONDITIONAL	ACCESS:    2712360  HIT:    1420448  MISS:    1291912	AVERAGE STALL: 48.8928
L1BTB BRANCH_DIRECT_CALL	ACCESS:     941979  HIT:     104408  MISS:     837571	AVERAGE STALL: 52.0861
L1BTB BRANCH_INDIRECT_CALL	ACCESS:     171131  HIT:      20797  MISS:     150334	AVERAGE STALL: 121.366
L1BTB BRANCH_RETURN	ACCESS:    1113107  HIT:     288653  MISS:     824454	AVERAGE STALL: 44.1857
L1BTB BRANCH_OTHER ACCESS:          0  HIT:          0  MISS:          0	AVERAGE STALL: -nan
L1BTB TOTAL ROB OCCUPANCY AT BTB MISS: 6.61387

L2BTB TOTAL     ACCESS:    3599718  HIT:    3451703  MISS:     148015  HIT %:    95.8882  MISS %:    4.11185   MPKI: 2.9603
L2BTB BRANCH_DIRECT_JUMP	ACCESS:     399681  HIT:     385371  MISS:      14310	AVERAGE STALL: 47.4427
L2BTB BRANCH_INDIRECT	ACCESS:     106745  HIT:     103591  MISS:       3154	AVERAGE STALL: 96.0689
L2BTB BRANCH_CONDITIONAL	ACCESS:    1291912  HIT:    1238361  MISS:      53551	AVERAGE STALL: 48.8928
L2BTB BRANCH_DIRECT_CALL	ACCESS:     837570  HIT:     818189  MISS:      19381	AVERAGE STALL: 52.0861
L2BTB BRANCH_INDIRECT_CALL	ACCESS:     140764  HIT:     128455  MISS:      12309	AVERAGE STALL: 121.366
L2BTB BRANCH_RETURN	ACCESS:     823046  HIT:     777736  MISS:      45310	AVERAGE STALL: 44.1857
L2BTB BRANCH_OTHER ACCESS:          0  HIT:          0  MISS:          0	AVERAGE STALL: -nan
L2BTB TOTAL ROB OCCUPANCY AT BTB MISS: 161.985

L2C TOTAL     ACCESS:    4494410  HIT:    3986162  MISS:     508248  HIT %:    88.6916  MISS %:    11.3084   MPKI: 10.165
L2C LOAD INSTRUCTION	ACCESS:    2761201  HIT:    2487876  MISS:     273325  HIT %:    90.1012  MISS %:    9.89877  MPKI: 5.4665
L2C LOAD TRANSLATION INSTRUCTION	ACCESS:        361  HIT:         87  MISS:        274  HIT %:    24.0997  MISS %:    75.9003  MPKI: 0.00548
L2C LOAD DATA	ACCESS:     726195  HIT:     644969  MISS:      81226  HIT %:    88.8149  MISS %:    11.1851  MPKI: 1.62452
L2C RFO DATA	ACCESS:     287177  HIT:     230442  MISS:      56735  HIT %:    80.2439  MISS %:    19.7561  MPKI: 1.1347
L2C PREFETCH DATA	ACCESS:     195872  HIT:     118655  MISS:      77217  HIT %:    60.5778  MISS %:    39.4222  MPKI: 1.54434
L2C WRITEBACK DATA	ACCESS:     521694  HIT:     503531  MISS:      18163  HIT %:    96.5185  MISS %:    3.48154  MPKI: 0.36326
L2C LOAD TRANSLATION DATA	ACCESS:       1854  HIT:        561  MISS:       1293  HIT %:    30.2589  MISS %:    69.7411  MPKI: 0.02586
L2C TRANSLATION FROM L1D PREFETCHER DATA	ACCESS:         56  HIT:         41  MISS:         15  HIT %:    73.2143  MISS %:    26.7857  MPKI: 0.0003

L2C PREFETCH  REQUESTED:     100149  ISSUED:     100149  USEFUL:       7981  USELESS:      70074
L2C USEFUL LOAD PREFETCHES:       7981 PREFETCH ISSUED TO LOWER LEVEL:      77769  ACCURACY: 10.2624
 TIMELY PREFETCHES:       7981 LATE PREFETCHES: 552 DROPPED PREFETCHES: 0
L2C AVERAGE MISS LATENCY: 38.4275 cycles
L2C RQ	ACCESS:    3776908	FORWARD:          0	MERGED:          0	TO_CACHE:    3776848
L2C WQ	ACCESS:     521694	FORWARD:         60	MERGED:          0	TO_CACHE:     521694
L2C PQ	ACCESS:     204147	FORWARD:          0	MERGED:       3764	TO_CACHE:     200383

L2C Dense regions hint from L2: 0
PSCL5 TOTAL     ACCESS:       4272  HIT:       2136  MISS:       2136  HIT %:         50  MISS %:         50   MPKI: 0.04272
PSCL5 LOAD TRANSLATION INSTRUCTION	ACCESS:       4160  HIT:       2080  MISS:       2080  HIT %:         50  MISS %:         50  MPKI: 0.0416
PSCL5 TRANSLATION FROM L1D PREFETCHER INSTRUCTION	ACCESS:        112  HIT:         56  MISS:         56  HIT %:         50  MISS %:         50  MPKI: 0.00112


PSCL4 TOTAL     ACCESS:       3998  HIT:       1993  MISS:       2005  HIT %:    49.8499  MISS %:    50.1501   MPKI: 0.0401
PSCL4 LOAD TRANSLATION INSTRUCTION	ACCESS:       2354  HIT:       1938  MISS:        416  HIT %:     82.328  MISS %:     17.672  MPKI: 0.00832
PSCL4 TRANSLATION FROM L1D PREFETCHER INSTRUCTION	ACCESS:         68  HIT:         55  MISS:         13  HIT %:    80.8824  MISS %:    19.1176  MPKI: 0.00026
PSCL4 LOAD TRANSLATION DATA	ACCESS:       1534  HIT:          0  MISS:       1534  HIT %:          0  MISS %:        100  MPKI: 0.03068
PSCL4 TRANSLATION FROM L1D PREFETCHER DATA	ACCESS:         42  HIT:          0  MISS:         42  HIT %:          0  MISS %:        100  MPKI: 0.00084


PSCL3 TOTAL     ACCESS:       4130  HIT:       2059  MISS:       2071  HIT %:    49.8547  MISS %:    50.1453   MPKI: 0.04142
PSCL3 LOAD TRANSLATION INSTRUCTION	ACCESS:       2420  HIT:       2004  MISS:        416  HIT %:    82.8099  MISS %:    17.1901  MPKI: 0.00832
PSCL3 TRANSLATION FROM L1D PREFETCHER INSTRUCTION	ACCESS:         68  HIT:         55  MISS:         13  HIT %:    80.8824  MISS %:    19.1176  MPKI: 0.00026
PSCL3 LOAD TRANSLATION DATA	ACCESS:       1600  HIT:          0  MISS:       1600  HIT %:          0  MISS %:        100  MPKI: 0.032
PSCL3 TRANSLATION FROM L1D PREFETCHER DATA	ACCESS:         42  HIT:          0  MISS:         42  HIT %:          0  MISS %:        100  MPKI: 0.00084


PSCL2 TOTAL     ACCESS:       4158  HIT:       2022  MISS:       2136  HIT %:    48.6291  MISS %:    51.3709   MPKI: 0.04272
PSCL2 LOAD TRANSLATION INSTRUCTION	ACCESS:       2289  HIT:       1966  MISS:        323  HIT %:     85.889  MISS %:     14.111  MPKI: 0.00646
PSCL2 TRANSLATION FROM L1D PREFETCHER INSTRUCTION	ACCESS:         56  HIT:         56  MISS:          0  HIT %:        100  MISS %:          0  MPKI: 0
PSCL2 LOAD TRANSLATION DATA	ACCESS:       1757  HIT:          0  MISS:       1757  HIT %:          0  MISS %:        100  MPKI: 0.03514
PSCL2 TRANSLATION FROM L1D PREFETCHER DATA	ACCESS:         56  HIT:          0  MISS:         56  HIT %:          0  MISS %:        100  MPKI: 0.00112


LLC TOTAL     ACCESS:     572218  HIT:     541909  MISS:      30309  HIT %:    94.7032  MISS %:    5.29676   MPKI: 0.60618
LLC LOAD INSTRUCTION	ACCESS:     273328  HIT:     272024  MISS:       1304  HIT %:    99.5229  MISS %:   0.477082  MPKI: 0.02608
LLC LOAD TRANSLATION INSTRUCTION	ACCESS:        274  HIT:        228  MISS:         46  HIT %:    83.2117  MISS %:    16.7883  MPKI: 0.00092
LLC LOAD DATA	ACCESS:      80761  HIT:      77362  MISS:       3399  HIT %:    95.7913  MISS %:    4.20871  MPKI: 0.06798
LLC RFO DATA	ACCESS:      56641  HIT:      41329  MISS:      15312  HIT %:    72.9666  MISS %:    27.0334  MPKI: 0.30624
LLC PREFETCH DATA	ACCESS:      77769  HIT:      68002  MISS:       9767  HIT %:     87.441  MISS %:     12.559  MPKI: 0.19534
LLC WRITEBACK DATA	ACCESS:      82137  HIT:      81733  MISS:        404  HIT %:    99.5081  MISS %:   0.491861  MPKI: 0.00808
LLC LOAD TRANSLATION DATA	ACCESS:       1293  HIT:       1216  MISS:         77  HIT %:    94.0449  MISS %:    5.95514  MPKI: 0.00154
LLC TRANSLATION FROM L1D PREFETCHER DATA	ACCESS:         15  HIT:         15  MISS:          0  HIT %:        100  MISS %:          0  MPKI: 0

LLC AVERAGE MISS LATENCY: 157.657 cycles
LLC RQ	ACCESS:     412319	FORWARD:          0	MERGED:          0	TO_CACHE:     412312
LLC WQ	ACCESS:      82137	FORWARD:          7	MERGED:          0	TO_CACHE:      82137
LLC PQ	ACCESS:      77769	FORWARD:          0	MERGED:          0	TO_CACHE:      77769

LLC Dense regions hint to LLC: 0

RAW hits: 1909096
Loads Generated: 12643108
Loads sent to L1D: 10734014
Stores Generated: 6950194
Stores sent to L1D: 6950203
Major fault: 0 Minor fault: 2546
Allocated PAGES: 2546

stream: 
stream:times selected: 1186266
stream:pref_filled: 122856
stream:pref_useful: 24172
stream:pref_late: 6804
stream:misses: 8022
stream:misses_by_poll: 0

CS: 
CS:times selected: 179686
CS:pref_filled: 60219
CS:pref_useful: 37038
CS:pref_late: 6878
CS:misses: 16353
CS:misses_by_poll: 1

CPLX: 
CPLX:times selected: 1005384
CPLX:pref_filled: 19952
CPLX:pref_useful: 4789
CPLX:pref_late: 3162
CPLX:misses: 94156
CPLX:misses_by_poll: 1

NL_L1: 
NL:times selected: 20665
NL:pref_filled: 665
NL:pref_useful: 319
NL:pref_late: 285
NL:misses: 1780
NL:misses_by_poll: 0

total selections: 2392001
total_filled: 96268
total_useful: 35266
total_late: 18541
total_polluted: 2
total_misses_after_warmup: 768885
conflicts: 5545681

test: 115529

DRAM Statistics
 CHANNEL 0
 RQ ROW_BUFFER_HIT:      11288  ROW_BUFFER_MISS:      18605
 DBUS_CONGESTED:         13
 WQ ROW_BUFFER_HIT:       1635  ROW_BUFFER_MISS:      12576  FULL:          0

 AVG_CONGESTED_CYCLE: 5

CPU 0 Branch Prediction Accuracy: 99.8222% MPKI: 0.32518 Average ROB Occupancy at Mispredict: 168.308
Branch types
NOT_BRANCH: 40857797 81.7156%
BRANCH_DIRECT_JUMP: 548699 1.0974%
BRANCH_INDIRECT: 183288 0.366576%
BRANCH_CONDITIONAL: 6183786 12.3676%
BRANCH_DIRECT_CALL: 941979 1.88396%
BRANCH_INDIRECT_CALL: 171131 0.342262%
BRANCH_RETURN: 1113107 2.22621%
BRANCH_OTHER: 0 0%

DRAM PAGES: 1048576
Allocated PAGES: 2546
Average_ROB_Occupancy: 200.707
Average_Decode_Occupancy: 25.8418
Average_FTQ_Occupancy: 10.5172
Indirect max targets: 14 Average targets: 1.15333
Branch_type:  BRANCH_DIRECT_JUMP:  Count Percentage: 3.40005 4.37769 5.99388 14.4965 1.69573 6.58065 0.939741 62.5158 
Branch_type:  BRANCH_INDIRECT:  Count Percentage: 11.7695 3.45675 12.1929 23.3642 1.33932 14.5217 1.07403 32.2816 
Branch_type:  BRANCH_CONDITIONAL:  Count Percentage: 21.2334 2.50698 3.00379 8.91857 1.34339 4.73089 0.583101 57.6799 
Branch_type:  BRANCH_DIRECT_CALL:  Count Percentage: 0.767897 1.27783 1.4273 4.94757 2.44448 2.72251 0.774409 85.638 
Branch_type:  BRANCH_INDIRECT_CALL:  Count Percentage: 9.57335 0.565196 3.00116 4.85357 0.000582977 3.56811 0 78.438 
Branch_type:  BRANCH_RETURN:  Count Percentage: 4.46581 0.698494 3.51495 9.43406 2.12679 5.28695 1.01253 73.4604 
Branch_type:  BRANCH_DIRECT_JUMP:  Total Count: 37230 47935 65632 158734 18568 72057 10290 684537 
Branch_type:  BRANCH_INDIRECT:  Total Count: 43033 12639 44581 85427 4897 53096 3927 118032 
Branch_type:  BRANCH_CONDITIONAL:  Total Count: 2623851 309792 371185 1102086 166006 584606 72055 7127622 
Branch_type:  BRANCH_DIRECT_CALL:  Total Count: 14503 24134 26957 93443 46168 51419 14626 1617415 
Branch_type:  BRANCH_INDIRECT_CALL:  Total Count: 32843 1939 10296 16651 2 12241 0 269095 
Branch_type:  BRANCH_RETURN:  Total Count: 99700 15594 78472 210617 47481 118032 22605 1640017 
Number of unique branch instructions: 9934
Upper 32 bits: 
aaaa
ffff
ffff0000
Unique upper 32 bits: 3
Unique upper 36 bits: 3
Unique upper 40 bits: 5
Unique upper 44 bits: 32
Unique upper 48 bits: 156
Variant_0 : 1400 0.170898
Variant_1 : 1502 0.18335
Variant_2 : 1559 0.190308
Variant_3 : 0 0
Offset_3 4093
Offset_4 256
Offset_5 454
Offset_6 502
Offset_7 580
Offset_8 509
Offset_9 474
Offset_10 383
Offset_11 310
Offset_12 273
Offset_13 202
Offset_14 226
Offset_15 188
Offset_16 218
Offset_17 149
Offset_18 118
Offset_19 234
Offset_20 136
Offset_21 261
Offset_22 390
Offset_23 241
Offset_24 340
Offset_25 88
Offset_47 84
Offset_64 2
decode_dispatch_called: 22920185 61.3613
Dispatch_width: 0 12178998 53.1366 32.6053
Dispatch_width: 1 698316 3.04673 1.86951
Dispatch_width: 2 693272 3.02472 1.85601
Dispatch_width: 3 435105 1.89835 1.16485
Dispatch_width: 4 3327593 14.5182 8.90854
Dispatch_width: 5 222151 0.969237 0.594736
Dispatch_width: 6 5364750 23.4062 14.3624
Empty_decode_cycles: 14432668 38.6387
ROB_full_cycles: 5362012 14.355
Starvation_cycles_per_kilo_instr: 266.261
Starvation_cycles_per_kilo_instr_3: 230.763
Starvation_cycles_per_kilo_instr_0: 212.497
Branch_type_1  (3,1)  (4,8)  (5,38)  (6,69)  (7,115)  (8,129)  (9,128)  (10,100)  (11,69)  (12,43)  (13,8)  (14,2)  (15,3)  (16,4)  (18,1)  (19,4)  (20,2)  (21,1)  (22,3)  (23,2)  (24,10)  (25,12) 
Branch_type_2  (3,1)  (5,1)  (8,3)  (9,3)  (12,1)  (13,1)  (14,1)  (16,3)  (17,2)  (20,2)  (21,2)  (23,5)  (24,1)  (47,38) 
Branch_type_3  (3,4091)  (4,248)  (5,411)  (6,418)  (7,435)  (8,319)  (9,261)  (10,154)  (11,123)  (12,50)  (13,7)  (64,1) 
Branch_type_4  (6,3)  (7,8)  (8,25)  (9,50)  (10,60)  (11,61)  (12,96)  (13,85)  (14,100)  (15,89)  (16,97)  (17,67)  (18,53)  (19,114)  (20,70)  (21,141)  (22,206)  (23,136)  (24,191)  (25,72)  (64,1) 
Branch_type_5  (8,2)  (9,1)  (10,4)  (11,5)  (12,3)  (13,14)  (14,16)  (15,11)  (16,20)  (17,11)  (18,16)  (19,13)  (20,11)  (21,13)  (22,42)  (23,26)  (24,40) 
Branch_type_6  (5,4)  (6,12)  (7,22)  (8,31)  (9,31)  (10,65)  (11,52)  (12,80)  (13,87)  (14,107)  (15,85)  (16,94)  (17,69)  (18,48)  (19,103)  (20,51)  (21,104)  (22,139)  (23,72)  (24,98)  (25,4)  (47,46) 
Unique trigger count: 
Variant_0_evicts_0 : 0
Variant_0_evicts_1 : 0
Variant_0_evicts_2 : 0
Variant_0_evicts_3 : 0
Variant_1_evicts_0 : 0
Variant_1_evicts_1 : 0
Variant_1_evicts_2 : 0
Variant_1_evicts_3 : 0
Variant_2_evicts_0 : 0
Variant_2_evicts_1 : 0
Variant_2_evicts_2 : 0
Variant_2_evicts_3 : 0
Variant_3_evicts_0 : 0
Variant_3_evicts_1 : 0
Variant_3_evicts_2 : 0
Variant_3_evicts_3 : 0
BTB PER SET UNIQUE ADDR: 2 4 4 2 1 1 3 2 4 0 3 0 5 3 2 3 3 2 3 4 3 4 2 3 4 5 1 4 3 2 6 5 4 2 5 2 1 4 6 3 4 4 3 7 6 2 4 3 6 4 4 2 3 2 2 4 4 3 3 3 1 4 2 3 1 5 6 2 3 5 5 1 1 4 2 3 3 6 1 3 2 2 1 4 3 4 2 5 3 3 6 4 3 5 2 0 3 4 1 4 3 3 3 3 2 2 1 2 3 2 2 1 3 6 2 6 2 4 4 1 4 5 2 0 1 2 3 1 6 4 5 2 4 1 5 3 2 1 3 3 4 3 3 2 1 4 2 5 4 3 3 8 3 5 3 0 3 3 3 2 4 5 3 4 4 3 2 2 8 1 2 2 4 2 1 1 3 3 5 1 3 3 6 3 4 5 3 1 2 3 5 2 3 4 4 4 2 3 2 5 3 2 4 1 3 3 2 4 2 1 2 4 5 4 3 2 3 5 4 0 1 1 2 3 3 2 3 3 0 3 7 3 3 2 3 3 3 2 1 2 1 0 5 3 9 7 1 1 3 3 2 2 1 3 2 6 3 4 4 3 4 4 4 2 3 6 3 1 4 2 3 2 2 3 3 2 1 1 2 3 4 2 4 2 5 5 3 3 1 1 0 3 1 5 1 1 4 3 2 2 3 3 1 2 3 2 4 2 5 5 3 1 3 2 5 1 5 6 2 1 3 7 3 4 2 2 2 6 2 0 4 0 2 4 5 1 2 2 5 0 3 0 1 4 4 2 1 2 3 4 3 5 4 3 5 3 2 0 4 1 2 5 2 4 6 5 1 1 2 1 3 2 2 4 4 4 3 3 3 3 5 3 2 5 3 2 5 2 4 1 5 4 4 2 3 1 5 0 1 3 4 2 3 2 2 4 3 2 1 1 1 2 4 3 2 2 5 3 1 3 1 1 3 4 3 3 2 0 2 4 1 2 8 3 5 5 3 3 3 1 1 4 5 3 4 6 2 3 3 2 4 3 1 2 5 1 1 3 7 2 3 3 4 6 1 3 4 2 2 3 0 4 5 2 2 1 4 5 1 1 2 2 2 2 0 4 3 0 5 1 4 2 3 5 0 5 3 3 2 1 5 1 1 1 1 2 2 2 2 3 3 2 2 6 2 1 2 5 4 5 3 4 4 2 6 5 0 4 6 3 4 3 3 6 3 4 1 1 4 1 2 5 6 2 4 2 7 3 5 9 3 6 3 6 1 3 3 1 3 3 7 2 5 2 2 1 4 2 2 7 3 2 3 7 2 2 3 3 1 5 4 2 1 0 1 0 0 9 3 2 5 6 1 1 2 3 4 2 3 1 4 2 4 6 1 4 3 4 1 2 5 2 2 2 2 2 2 0 3 1 4 3 6 2 2 3 2 5 2 3 5 4 3 2 4 2 2 3 2 2 7 1 4 4 0 0 3 3 3 4 3 2 5 2 3 0 4 3 2 3 5 2 5 4 5 3 5 3 1 3 5 3 4 3 5 5 3 3 3 2 3 2 5 3 5 3 5 3 4 3 1 4 2 2 2 4 6 4 5 5 0 6 0 3 3 2 3 1 3 1 3 3 3 1 2 1 7 2 0 3 2 0 1 1 1 1 1 4 2 4 5 4 2 1 2 4 4 3 2 2 1 3 2 4 2 1 3 2 2 2 0 2 1 3 2 2 2 6 4 1 3 3 1 5 4 4 8 2 2 2 4 3 0 3 3 4 4 2 1 3 4 4 0 3 8 6 3 3 0 2 2 4 1 1 4 7 7 2 2 2 5 3 4 3 4 3 3 3 1 2 1 3 4 0 4 3 1 2 0 4 4 2 4 2 2 1 2 2 4 4 3 1 3 2 5 2 2 1 5 2 2 1 3 3 1 4 6 4 5 2 6 2 5 4 5 4 3 2 4 4 2 6 2 1 8 3 3 3 5 3 1 3 3 6 4 0 2 3 5 4 3 4 4 3 4 3 2 2 2 4 4 2 3 4 2 1 7 3 1 1 5 2 1 3 4 5 3 5 3 4 5 4 0 3 1 5 0 1 5 2 6 4 5 3 4 1 3 2 5 7 4 4 9 7 5 4 6 4 1 5 4 2 0 4 4 5 5 5 3 2 6 0 5 4 2 3 6 5 4 2 2 2 4 5 2 6 9 4 6 3 2 3 0 4 5 1 7 5 1 3 7 5 3 4 2 1 2 3 3 2 5 5 2 7 4 4 4 5 3 5 1 2 4 2 2 5 4 3 3 2 5 3 4 4 5 2 5 2 2 4 5 2 9 5 2 3 3 2 2 3 4 8 6 2 3 2 3 2 2 1 3 2 4 4 1 4 4 5 4 6 0 3 3 3 4 4 2 1 3 2 3 2 1 1 4 1 2 3 3 4 1 8 5 3 2 1 9 1 2 4 1 2 5 6 3 7 2 4 4 6 2 5 2 1 1 1 5 0 4 4 3 8 4 1 6 5 7 2 3 4 5 4 5 7 4 4 6 1 4 4 7 4 3 2 4 3 6 6 3 5 6 6 4 3 4 3 1 2 4 5 1 3 2 1 3 4 2 2 5 2 2 5 4 1 5 1 6 3 3 3 3 1 3 5 3 4 3 4 2 6 2 3 6 3 3 3 3 5 2 8 3 5 3 8 6 1 6 1 5 2 1 2 4 3 3 1 3 4 2 1 2 2 4 3 3 2 3 4 2 5 2 5 5 6 0 5 3 2 2 6 7 0 7 0 1 4 4 2 5 1 3 3 4 1 1 2 4 5 3 4 1 4 4 6 5 1 4 3 3 6 9 4 2 6 5 5 1 1 3 5 6 3 2 2 3 3 4 5 5 3 0 4 2 2 6 8 5 4 3 5 1 2 5 2 4 1 3 2 6 8 2 3 3 3 4 4 2 5 5 6 4 2 1 5 3 3 4 3 4 3 3 4 7 3 6 4 3 5 5 3 1 7 4 4 3 3 3 2 3 2 2 2 5 4 2 2 5 1 1 3 3 7 4 2 3 4 2 3 3 3 4 3 2 0 3 2 3 2 4 3 3 4 2 1 2 6 1 4 2 4 2 2 5 1 2 4 4 3 3 3 5 3 3 4 4 5 4 4 5 3 3 2 2 3 5 2 4 1 3 0 7 3 2 6 4 4 5 7 3 2 3 3 1 2 5 1 4 2 4 2 1 5 1 4 1 2 3 3 3 2 4 2 3 2 3 1 5 1 0 3 3 1 1 3 1 4 2 3 7 3 1 2 2 3 2 2 6 2 3 5 3 3 3 3 2 2 3 0 2 2 2 3 3 1 2 1 4 1 4 3 2 4 2 3 2 1 2 4 4 2 6 1 3 4 2 2 4 5 3 2 6 0 1 2 3 1 1 2 3 3 7 3 1 1 6 2 1 4 1 6 1 4 2 3 6 2 2 2 1 3 3 1 0 4 4 2 3 3 1 2 0 6 2 4 3 0 3 2 4 5 4 3 3 4 1 3 1 2 1 2 2 0 2 3 2 3 3 1 3 3 3 9 6 2 2 2 4 2 1 3 5 2 3 0 3 2 3 3 3 4 5 5 7 0 5 1 6 4 5 5 3 7 2 4 9 3 0 6 3 3 3 4 3 3 2 2 1 4 2 2 2 4 2 4 5 3 5 3 6 2 2 5 4 3 4 4 4 3 5 3 5 6 2 6 3 3 3 1 3 6 5 3 2 3 3 3 3 4 2 2 3 1 3 1 3 7 1 2 2 3 3 3 6 3 4 2 5 2 3 2 5 2 4 5 6 1 1 7 2 4 2 3 4 6 2 3 2 3 6 2 4 3 5 3 4 8 3 3 3 5 1 5 3 3 2 3 0 2 2 3 4 4 2 3 3 5 4 2 4 8 1 3 2 4 4 3 3 4 3 6 2 4 1 5 2 3 5 2 3 0 2 6 0 8 2 5 4 1 4 3 2 0 4 2 3 5 3 6 2 2 2 1 3 4 6 1 3 3 0 3 2 4 5 3 2 3 5 2 3 2 6 3 3 1 4 3 0 3 5 1 1 8 2 1 4 1 4 3 2 3 6 3 3 6 1 6 3 5 2 5 4 2 3 2 7 1 4 0 3 3 4 4 3 3 3 1 2 3 0 3 0 3 5 6 2 2 6 2 3 3 3 1 2 2 5 2 4 2 5 3 2 3 1 1 3 2 3 2 3 4 2 1 2 2 2 5 2 5 1 5 4 2 4 1 4 1 2 3 4 2 3 4 4 5 3 3 3 3 3 2 0 3 2 0 0 1 2 2 4 2 5 2 2 3 4 2 1 3 3 2 2 6 3 2 7 5 3 2 4 1 2 5 3 3 4 2 4 0 1 2 4 3 2 4 3 2 4 2 4 7 2 2 0 5 1 0 2 3 0 4 4 6 1 3 3 6 5 0 2 2 3 2 4 1 3 1 8 3 1 2 3 6 2 7 3 5 6 0 1 3 1 4 3 1 0 2 2 4 5 4 1 0 3 4 5 1 2 1 3 5 2 2 5 3 3 3 5 4 0 6 2 6 2 1 2 3 1 3 4 2 3 3 3 2 3 1 4 2 5 2 4 2 1 3 5 4 3 0 
BTB PER SET COUNT: 2 4 4 2 1 1 3 2 5 0 3 0 7 3 2 3 4 2 3 1474 3 4 3 3 4 6 1 4 1473 2 9 9 5 2 7 2 2942 4 13 3 4 4 5 1210 4916 2 4 4 6 6 4 2 3 2 9 4 5 3 3 3 1 4 2 3 1 382 509 2 3 5 889 1 1 4 2 4 487 752 1 3 2 3 2 5 3 5 2 6 3 4 10 504 3 5 3 0 3 4 1 4 3 3 3 3 2 3 1 2 4 2 3 1 4 11 2 8 2 6 4 1 4 5 2 0 1 2 3 1 9 5 972 2 4 2 7 3 2 1 3 3 5 9 5 2 1 954 2 5 4 4 4 79 3 5 3 0 3 5 971 2 4 7 974 4 4 1975 2 2 3435 1 2 2 6 2 1 1 3 4 993 1 3 3 9 3 4 7 3 1 2 3 6 2 3 4 4 8 3 3 2 5 3 2 5 1 4 3 2 1477 2 1 2 5 5 4 3 2 5 5 4 0 1 1 2 3 3 2 5 31 0 3 1178 3 3 2 3 3 3 2 1 2 1 0 5 3 14 7 1 1 3 3 2 2 1 3 2 8 4 4 4 5 5 4 4 2 1474 9 4 1 4 2 4 2 2 3 4 2 1 1 2 3 6 970 4 2 5 1458 3 4 1 1 0 1974 1 5 1 1 9 3 3 2 3 3 1 2 4 2 4 2 1941 6 3 1 3 2 5 3 6 6 2 1 4 7 4 4 2 2 5 11 2 0 973 0 2 4 1976 1 972 2 5 0 3 0 1 973 973 4 1 2 3 5 3 7 5 3 5 4 2 0 4 1 2 5 2 5 11 10 1 1 3 1 4 2 2 4 6 4 3 5 3 4 24 3 2 9 5 2 11 2 4 1 6 4 4 2 4 1 1476 0 1 3 5 2 3 2 2 4 1473 2 1 986 1 2 4 4 987 2 204 3 1 92 1 1 3 5 3 4 4 0 2 6 125 2 2677 3 5 5 4 3 3 1 1 5 8 3 5 31 2 3 3 2 5 3 1 2 5 2 1 3 981 2 3 3 4 8 1 3 4 2 2 3 0 5 2975 486 2 1 5 5 1 1 3 2 2 486 0 7 3 0 5 1 4 2 4 6 0 10 3 4 2 1 5 10 1 1 1 2 2 2 2 3 3 2 2 7 4 1 2 5 4 979 3 1474 4 2 7 7 0 4 6 3 4 3 3 9 3 978 2 1 7 1 3 5 10 6 974 2 10 3 7 1562 5 27 5 8 1 3 4 1 3 3 11 1972 5 2 2 1 4 2 2 980 3 2 3 1942 2 2 3 3 1 6 4 39 1 0 2 0 0 2328 4 2 10 6 2 1 987 4 4 2 4 1 4 2 6 6 1 4 3 4 2 2 5 2 2 2 2 2 1006 0 4 1 9 488 6 3 3 3 2 5 2 4 489 1474 5 10 4 2 2 3 2 2 1960 1 4 4 0 0 5 3 3 4 4 2 7 2 6 0 5 4 2 4 7813 3 15 4 5 3 2950 972 3 3 1008 3 4 5 6 975 3 3 6 2 3 2 7 973 6 4 5 1473 4 3 1 976 2 2 2 4 6 9 15 32 0 6 0 3 3 971 4 1 3 1 3 3 5 1 971 1 1489 2 0 4 2 0 1 1 1 1 1 962 2 4 1975 4 987 1 2 4 4 3 2 2 1 3 2 4 2 1 487 2 2 971 0 3 1 4 2 2 2 6 4 2 3 4 1 5 4 4 14 2 4 2 4 22 0 107 4 7 7 3 1 3 4 28 0 1977 758 10 3 4 0 2 2 1345 1 1 4 8 1134 2 2 2 5 4 6 974 1943 3 6 4 1 5 1 3 4 0 5 5 3 2 0 4 7 2 4 2 2 1 2 2 4 79 3 1 3 2 9 973 2 2 5 2 2 1 5 1474 1 6 2961 4 7 4 9 2 9 5 6 7 3 3 8 7 2 6 3 1 2966 988 3 3 8 5 1 3 3 13 8 0 3 3 5 4 3 4 9 4 7 3 2 2 2 6 4 2 3 4 2 1 8 3 1 1 6 2 1 46 4 6 3 5 3 8 5 4 0 3 1 5 0 1 7 2 10 7 5 3 8 1 3 2 5 976 4 488 3032 1513 5 4 62 4 2 7 4 2 0 989 5 5 5 255 4 2 6 0 7 6 3 3 13 11 6 2 2 487 4 7 3 7 26 7 6 5 2 3 0 377 5 1 994 5 1 3 977 7 487 5 2 3 2 4 4 2 5 975 2 975 5 6 5 1940 3 7 1 2 4 2 2 5 5 3 5 2 1946 4 2461 377 1715 3 9 4 2 5 680 3 2415 9 2 972 3 3 2 3 4 26 6 5 3 1973 3 2 2 3 972 2 4 4 1 4 4 5 4 6 0 3 3 3 1474 378 2 2 3 3 4 2 1 1 4 1 2 3 3 4 1 24 5 3 2 2 1981 1 3 4 1 2 5 101 3 7 2 4 4 7 2 5 2 1 1 1 8 0 972 4 3 12 4 1 6 5 26 2 488 4 7 5 5 720 4 5 10 1 5 6 11 4 3 2 4 3 6 961 3 6 8 1555 7 3 4 6 1 2 4 5 1 3 2 1 3 6 3 2 1715 3 2 6 4 1 5 1 7 4 3 3 4 1 4 6 3 9 4 4 2 9 2 3 11 4 3 3 3 7 2 14 5 973 3 979 9 1 992 1 14 2 1 2 488 973 3 1 3 116 2 1 2 486 8 3 3 2 4 4 2 1458 2 5 6 9 0 7 3 2 2 14 996 0 11 0 1 4 4 3 7 1 3 1456 5 1 1 2 5 4901 3 4 1 4 5 6 5 1 4 3 3 9 13 1989 3 1478 6 5 1 1 3 5 30 3 2 2 4 3 4 6 5 3 0 4 2 2 6 385 7 4 3 5 1 2 5 2 4 1 3 2 8 1489 987 5 3 3 4 8 2 5 6 7 4 2 1 22 3 3 5 4 2944 3 3 4 9 3 9 4 971 7 2425 977 1 2110 4 4 3 3 3 2 3 2 2 2 6 4 2 2 5 1 1 3 3 1950 8 3 3 4 2 4 3 3 4 4 2 0 3 2 3 2 4 3 974 4 2 1 2 6 1 4 4 4 2 3 7 1 2 4 4 988 3 4 11 4 3 47 4 7 5 4 5 3 4 2 3 3 8 6 7 1 3 0 11 3 2 6 6 7 6 2696 3 2 4 3 1 2 6 1 6 4 972 4 1 5 1 5 1 2 3 5 3 2 1474 2 3 1362 3 1 507 1 0 3 3 1 2 1362 1 974 2 3 9 4 1 2 2 3 2 2 3435 2 4 13 3 3 3 3 2 2 3 0 4 970 3 988 3 1 2 2 6 1 4 4 2 5 2 3 971 1 13 14 25 2 2426 1 6 4 2 2 5 979 126 2 20604 0 1 2 3 1 1 2 4 3 272 383 1 1 10 2 1 4 1 12 1 4 3 4 40 4 2 2 1 3 3 1 0 5 4 2 3 3 1 2 0 3964 3 5 4 0 4 449 5 5 4 3 3 5 1 5 1 2 1 2 2 0 2 3 2 3 15 1 1003 3 5 25 6 2 3 2 6 3 1 6 993 2 3 0 3 2 3 4 3 4 5 10 9 0 1006 1 10 4 5 8 3 7 2 6 4886 3 0 974 1473 3 4 4 4 4 2 3 1 992 3 2 2 4 2 6 5 4 5 3 2949 2912 2 5 4 4 6 7 5 3 8 4 975 9 2 7 3 1193 377 1 1473 16 5 140 10 4 3 3 3 4 2 11 3 1 3 1 3 8 1 3 2 4 3 3 491 3 7 2 6 2 3 2 7 2 1460 9 7 1 1 8 2 974 2 4 4 8 487 3 2 971 6 2 490 5 942 3 1942 6606 3 3 14713 979 1 1943 1473 4 2 971 0 2 2 3 4 5 2 4 3 5 4 2 155 3160 1 2459 2 1474 189 4 3 4 3 6 2 741 1 6 2 4 6 2 1974 0 970 600 0 2499 2 7 6 1 7 3 2 0 4 2 6 5 3 6 2 2 3 1 3 4 8 1 3 475 0 3 2 6 5 1973 3 3 992 2 3 2 747 3 3 1 6 3 0 3 12 1471 1 2728 2 1 4 1 4 3 2 3 8 3 441 6 1 8 3 5 226 973 144 2 3 2 961 2 375 0 3 2943 4 7 3 5 3 1 2 504 0 3 0 3 9 11 2 2 1980 385 3 5 988 1 2 2 5 2 4 2 22 5 970 3 1 1 382 2 3 2 3 4 2 1 3 2 2 5 2 5 1 3963 4 2 4 8 4 1 2 3 4 2 3 973 4 5 3 4 3 3 3 3 0 3 2 0 0 1 2 2 4 8 5 2 2 3 4 2 1 3 3 3 2 31 4 2 1431 5 107 2 4 3 2 8 3 3 4 3 4 0 1 2 4 972 2 6 3 2 5 2 4 14 2 2 0 1975 2 0 2 4 0 5 2944 15 1 3 3 932 5 0 3 2 6 2 6 1 4 1 4218 3 1 2 3 505 3 979 3 5 5170 0 1 3 1 5 3 1 0 2 2 2944 5 4 1 0 3 4 5 1 2 1 3 5 2 2 5 3 3 6 5 4 0 25 2 7 3 1 2 5 1 4 4 3 3 3 4 2 3 1 4 2 348 2 5 2 1 3 1491 4 5 0 
To predecode: 0
Predecoding something: 0
Predecode request dropped: 0
sizeofblock_0 0
sizeofblock_1 114150
sizeofblock_2 84412
sizeofblock_3 60681
sizeofblock_4 4987
sizeofblock_5 0
sizeofblock_6 0
sizeofblock_7 0
sizeofblock_8 0
