
*** ChampSim Multicore Out-of-Order Simulator ***

Warmup Instructions: 50000000
Simulation Instructions: 50000000
Number of CPUs: 1
LLC sets: 2048
LLC ways: 16
Off-chip DRAM Size: 4096 MB Channels: 1 Width: 64-bit Data Rate: 6400 MT/s
CPU 0 runs ./micro_traces/srv428.trace.gz
.gz
ITLB has LRU replacement policy
DTLB has LRU replacement policy
STLB has LRU replacement policy
FDIP Prefetcher at L1I
L1I has LRU replacement policy
L1D has LRU replacement policy
Initialize SRRIP state for L2C
Initialize DRRIP state for LLC
Heartbeat_Variant_0 : 1133 0.276611 per_variant_size: 0 1133 0 0 0 0 0 0 0 
Heartbeat_Variant_1 : 2628 0.641602 per_variant_size: 0 1047 1581 0 0 0 0 0 0 
Heartbeat_Variant_2 : 0 0 per_variant_size: 0 0 0 0 0 0 0 0 0 
Heartbeat_Variant_3 : 0 0 per_variant_size: 0 0 0 0 0 0 0 0 0 
Heartbeat_Variant_0_evicts 0 : 12643 1 : 15812 2 : 0 3 : 0 
Heartbeat_Variant_1_evicts 0 : 15669 1 : 0 2 : 0 3 : 0 
Heartbeat_Variant_2_evicts 0 : 0 1 : 0 2 : 0 3 : 0 
Heartbeat_Variant_3_evicts 0 : 0 1 : 0 2 : 0 3 : 0 
Heartbeat CPU 0 instructions: 10000001 cycles: 2797291 heartbeat IPC: 3.57489 cumulative IPC: 3.57489 (Simulation time: 0 hr 1 min 44 sec) 
Heartbeat_Variant_0 : 1136 0.277344 per_variant_size: 0 1136 0 0 0 0 0 0 0 
Heartbeat_Variant_1 : 2655 0.648193 per_variant_size: 0 1030 1625 0 0 0 0 0 0 
Heartbeat_Variant_2 : 0 0 per_variant_size: 0 0 0 0 0 0 0 0 0 
Heartbeat_Variant_3 : 0 0 per_variant_size: 0 0 0 0 0 0 0 0 0 
Heartbeat_Variant_0_evicts 0 : 12261 1 : 15175 2 : 0 3 : 0 
Heartbeat_Variant_1_evicts 0 : 15176 1 : 0 2 : 0 3 : 0 
Heartbeat_Variant_2_evicts 0 : 0 1 : 0 2 : 0 3 : 0 
Heartbeat_Variant_3_evicts 0 : 0 1 : 0 2 : 0 3 : 0 
Heartbeat CPU 0 instructions: 20000000 cycles: 5593977 heartbeat IPC: 3.57566 cumulative IPC: 3.57527 (Simulation time: 0 hr 3 min 25 sec) 
Heartbeat_Variant_0 : 1144 0.279297 per_variant_size: 0 1144 0 0 0 0 0 0 0 
Heartbeat_Variant_1 : 2661 0.649658 per_variant_size: 0 990 1671 0 0 0 0 0 0 
Heartbeat_Variant_2 : 0 0 per_variant_size: 0 0 0 0 0 0 0 0 0 
Heartbeat_Variant_3 : 0 0 per_variant_size: 0 0 0 0 0 0 0 0 0 
Heartbeat_Variant_0_evicts 0 : 12375 1 : 15611 2 : 0 3 : 0 
Heartbeat_Variant_1_evicts 0 : 15606 1 : 0 2 : 0 3 : 0 
Heartbeat_Variant_2_evicts 0 : 0 1 : 0 2 : 0 3 : 0 
Heartbeat_Variant_3_evicts 0 : 0 1 : 0 2 : 0 3 : 0 
Heartbeat CPU 0 instructions: 30000002 cycles: 8391126 heartbeat IPC: 3.57507 cumulative IPC: 3.57521 (Simulation time: 0 hr 5 min 5 sec) 
Heartbeat_Variant_0 : 1126 0.274902 per_variant_size: 0 1126 0 0 0 0 0 0 0 
Heartbeat_Variant_1 : 2693 0.657471 per_variant_size: 0 992 1701 0 0 0 0 0 0 
Heartbeat_Variant_2 : 0 0 per_variant_size: 0 0 0 0 0 0 0 0 0 
Heartbeat_Variant_3 : 0 0 per_variant_size: 0 0 0 0 0 0 0 0 0 
Heartbeat_Variant_0_evicts 0 : 12450 1 : 15628 2 : 0 3 : 0 
Heartbeat_Variant_1_evicts 0 : 15646 1 : 0 2 : 0 3 : 0 
Heartbeat_Variant_2_evicts 0 : 0 1 : 0 2 : 0 3 : 0 
Heartbeat_Variant_3_evicts 0 : 0 1 : 0 2 : 0 3 : 0 
Heartbeat CPU 0 instructions: 40000001 cycles: 11187991 heartbeat IPC: 3.57543 cumulative IPC: 3.57526 (Simulation time: 0 hr 6 min 44 sec) 
Heartbeat_Variant_0 : 1131 0.276123 per_variant_size: 0 1131 0 0 0 0 0 0 0 
Heartbeat_Variant_1 : 2690 0.656738 per_variant_size: 0 990 1700 0 0 0 0 0 0 
Heartbeat_Variant_2 : 0 0 per_variant_size: 0 0 0 0 0 0 0 0 0 
Heartbeat_Variant_3 : 0 0 per_variant_size: 0 0 0 0 0 0 0 0 0 
Heartbeat_Variant_0_evicts 0 : 12296 1 : 15475 2 : 0 3 : 0 
Heartbeat_Variant_1_evicts 0 : 15471 1 : 0 2 : 0 3 : 0 
Heartbeat_Variant_2_evicts 0 : 0 1 : 0 2 : 0 3 : 0 
Heartbeat_Variant_3_evicts 0 : 0 1 : 0 2 : 0 3 : 0 
Heartbeat CPU 0 instructions: 50000002 cycles: 13985258 heartbeat IPC: 3.57492 cumulative IPC: 3.57519 (Simulation time: 0 hr 8 min 25 sec) 

Warmup complete CPU 0 instructions: 50000002 cycles: 13985258 (Simulation time: 0 hr 8 min 25 sec) 

Cycle: 20000000 FTQ IN: 57244210 FTQ occupancy: 18.6401 DECODE IN: 57244208 DECODE occupancy: 47.7215 ROB IN: 57244208 ROB occupancy: 289.057 ROB OUT: 57244172
Heartbeat_Variant_0 : 1143 0.279053 per_variant_size: 0 1143 0 0 0 0 0 0 0 
Heartbeat_Variant_1 : 2688 0.65625 per_variant_size: 0 995 1693 0 0 0 0 0 0 
Heartbeat_Variant_2 : 0 0 per_variant_size: 0 0 0 0 0 0 0 0 0 
Heartbeat_Variant_3 : 0 0 per_variant_size: 0 0 0 0 0 0 0 0 0 
Heartbeat_Variant_0_evicts 0 : 12487 1 : 16028 2 : 0 3 : 0 
Heartbeat_Variant_1_evicts 0 : 16018 1 : 0 2 : 0 3 : 0 
Heartbeat_Variant_2_evicts 0 : 0 1 : 0 2 : 0 3 : 0 
Heartbeat_Variant_3_evicts 0 : 0 1 : 0 2 : 0 3 : 0 
Heartbeat CPU 0 instructions: 60000002 cycles: 22246319 heartbeat IPC: 1.2105 cumulative IPC: 1.2105 (Simulation time: 0 hr 9 min 59 sec) 
Cycle: 30000000 FTQ IN: 12345557 FTQ occupancy: 8.3187 DECODE IN: 12345542 DECODE occupancy: 18.8699 ROB IN: 12345542 ROB occupancy: 152.273 ROB OUT: 12345451
Heartbeat_Variant_0 : 1128 0.275391 per_variant_size: 0 1128 0 0 0 0 0 0 0 
Heartbeat_Variant_1 : 2703 0.659912 per_variant_size: 0 1010 1693 0 0 0 0 0 0 
Heartbeat_Variant_2 : 0 0 per_variant_size: 0 0 0 0 0 0 0 0 0 
Heartbeat_Variant_3 : 0 0 per_variant_size: 0 0 0 0 0 0 0 0 0 
Heartbeat_Variant_0_evicts 0 : 12204 1 : 15822 2 : 0 3 : 0 
Heartbeat_Variant_1_evicts 0 : 15837 1 : 0 2 : 0 3 : 0 
Heartbeat_Variant_2_evicts 0 : 0 1 : 0 2 : 0 3 : 0 
Heartbeat_Variant_3_evicts 0 : 0 1 : 0 2 : 0 3 : 0 
Heartbeat CPU 0 instructions: 70000003 cycles: 30311797 heartbeat IPC: 1.23985 cumulative IPC: 1.225 (Simulation time: 0 hr 11 min 30 sec) 
Heartbeat_Variant_0 : 1140 0.27832 per_variant_size: 0 1140 0 0 0 0 0 0 0 
Heartbeat_Variant_1 : 2704 0.660156 per_variant_size: 0 968 1736 0 0 0 0 0 0 
Heartbeat_Variant_2 : 0 0 per_variant_size: 0 0 0 0 0 0 0 0 0 
Heartbeat_Variant_3 : 0 0 per_variant_size: 0 0 0 0 0 0 0 0 0 
Heartbeat_Variant_0_evicts 0 : 12613 1 : 15915 2 : 0 3 : 0 
Heartbeat_Variant_1_evicts 0 : 15904 1 : 0 2 : 0 3 : 0 
Heartbeat_Variant_2_evicts 0 : 0 1 : 0 2 : 0 3 : 0 
Heartbeat_Variant_3_evicts 0 : 0 1 : 0 2 : 0 3 : 0 
Heartbeat CPU 0 instructions: 80000002 cycles: 38515409 heartbeat IPC: 1.21898 cumulative IPC: 1.22298 (Simulation time: 0 hr 13 min 3 sec) 
Cycle: 40000000 FTQ IN: 12260766 FTQ occupancy: 8.54316 DECODE IN: 12260783 DECODE occupancy: 19.3693 ROB IN: 12260767 ROB occupancy: 154.433 ROB OUT: 12260851
Heartbeat_Variant_0 : 1146 0.279785 per_variant_size: 0 1146 0 0 0 0 0 0 0 
Heartbeat_Variant_1 : 2748 0.670898 per_variant_size: 0 922 1826 0 0 0 0 0 0 
Heartbeat_Variant_2 : 0 0 per_variant_size: 0 0 0 0 0 0 0 0 0 
Heartbeat_Variant_3 : 0 0 per_variant_size: 0 0 0 0 0 0 0 0 0 
Heartbeat_Variant_0_evicts 0 : 12445 1 : 16314 2 : 0 3 : 0 
Heartbeat_Variant_1_evicts 0 : 16318 1 : 0 2 : 0 3 : 0 
Heartbeat_Variant_2_evicts 0 : 0 1 : 0 2 : 0 3 : 0 
Heartbeat_Variant_3_evicts 0 : 0 1 : 0 2 : 0 3 : 0 
Heartbeat CPU 0 instructions: 90000000 cycles: 46831178 heartbeat IPC: 1.20253 cumulative IPC: 1.21781 (Simulation time: 0 hr 14 min 34 sec) 
Cycle: 50000000 FTQ IN: 12057806 FTQ occupancy: 8.17447 DECODE IN: 12057791 DECODE occupancy: 18.4485 ROB IN: 12057747 ROB occupancy: 148.012 ROB OUT: 12057476
Heartbeat_Variant_0 : 1160 0.283203 per_variant_size: 0 1160 0 0 0 0 0 0 0 
Heartbeat_Variant_1 : 2735 0.667725 per_variant_size: 0 931 1804 0 0 0 0 0 0 
Heartbeat_Variant_2 : 0 0 per_variant_size: 0 0 0 0 0 0 0 0 0 
Heartbeat_Variant_3 : 0 0 per_variant_size: 0 0 0 0 0 0 0 0 0 
Heartbeat_Variant_0_evicts 0 : 12402 1 : 16087 2 : 0 3 : 0 
Heartbeat_Variant_1_evicts 0 : 16073 1 : 0 2 : 0 3 : 0 
Heartbeat_Variant_2_evicts 0 : 0 1 : 0 2 : 0 3 : 0 
Heartbeat_Variant_3_evicts 0 : 0 1 : 0 2 : 0 3 : 0 
Heartbeat CPU 0 instructions: 100000001 cycles: 54932867 heartbeat IPC: 1.23431 cumulative IPC: 1.22107 (Simulation time: 0 hr 16 min 6 sec) 
Finished CPU 0 instructions: 50000003 cycles: 40947610 cumulative IPC: 1.22107 (Simulation time: 0 hr 16 min 6 sec) 

ChampSim completed all CPUs

Region of Interest Statistics

CPU 0 cumulative IPC: 1.22107 instructions: 50000003 cycles: 40947610
 Fetch stage stalled: 66.2424  Sim cycles: 40947610 fetch stall cycle: 27124678
 Empty decode stage: 53.5157  Sim cycles: 40947610 fetch stall cycle: 21913399
ITLB TOTAL     ACCESS:    5652068  HIT:    5160111  MISS:     491957  HIT %:     91.296  MISS %:    8.70402   MPKI: 9.83914
ITLB LOAD TRANSLATION INSTRUCTION	ACCESS:    5535340  HIT:    5043383  MISS:     491957  HIT %:    91.1124  MISS %:    8.88757  MPKI: 9.83914
ITLB TRANSLATION FROM L1D PREFETCHER INSTRUCTION	ACCESS:     116728  HIT:     116728  MISS:          0  HIT %:        100  MISS %:          0  MPKI: 0

ITLB AVERAGE MISS LATENCY: 9.05477 cycles
ITLB RQ	ACCESS:    7567901	FORWARD:          0	MERGED:    1422361	TO_CACHE:    6145540

DTLB TOTAL     ACCESS:    9180400  HIT:    8710546  MISS:     469854  HIT %:     94.882  MISS %:    5.11801   MPKI: 9.39708
DTLB LOAD TRANSLATION DATA	ACCESS:    9180400  HIT:    8710546  MISS:     469854  HIT %:     94.882  MISS %:    5.11801  MPKI: 9.39708

DTLB AVERAGE MISS LATENCY: 9.34285 cycles
DTLB RQ	ACCESS:   13499688	FORWARD:          0	MERGED:    4284814	TO_CACHE:    9214874

STLB TOTAL     ACCESS:    1212533  HIT:    1210505  MISS:       2028  HIT %:    99.8327  MISS %:   0.167253   MPKI: 0.04056
STLB LOAD TRANSLATION INSTRUCTION	ACCESS:     491957  HIT:     491705  MISS:        252  HIT %:    99.9488  MISS %:   0.051224  MPKI: 0.00504
STLB LOAD TRANSLATION DATA	ACCESS:     469478  HIT:     467724  MISS:       1754  HIT %:    99.6264  MISS %:   0.373606  MPKI: 0.03508
STLB TRANSLATION FROM L1D PREFETCHER DATA	ACCESS:     251098  HIT:     251076  MISS:         22  HIT %:    99.9912  MISS %: 0.00876152  MPKI: 0.00044

STLB AVERAGE MISS LATENCY: 80.5108 cycles
STLB RQ	ACCESS:    1333100	FORWARD:          0	MERGED:     120533	TO_CACHE:    1212567

STLB Hit, L1D data hit: 0
STLB Hit, L2C data hit: 0
STLB Hit, LLC data hit: 0
STLB Hit, LLC data miss: 0
STLB STLB hints to L2: 0
L1D TOTAL     ACCESS:   13264661  HIT:   12154451  MISS:    1110210  HIT %:    91.6303  MISS %:    8.36968   MPKI: 22.2042
L1D LOAD DATA	ACCESS:    6709394  HIT:    5978711  MISS:     730683  HIT %:    89.1096  MISS %:    10.8904  MPKI: 14.6137
L1D RFO DATA	ACCESS:    6224015  HIT:    5938621  MISS:     285394  HIT %:    95.4146  MISS %:    4.58537  MPKI: 5.70788
L1D PREFETCH DATA	ACCESS:     331252  HIT:     237119  MISS:      94133  HIT %:    71.5827  MISS %:    28.4173  MPKI: 1.88266

L1D PREFETCH  REQUESTED:     742882  ISSUED:     742882  USEFUL:      33822  USELESS:      68027
L1D USEFUL LOAD PREFETCHES:      33822 PREFETCH ISSUED TO LOWER LEVEL:     101937  ACCURACY: 33.1793
 TIMELY PREFETCHES:      33822 LATE PREFETCHES: 7724 DROPPED PREFETCHES: 4
L1D AVERAGE MISS LATENCY: 237484 cycles
L1D RQ	ACCESS:   10811980	FORWARD:          0	MERGED:    3903084	TO_CACHE:    6741521
L1D WQ	ACCESS:    6942496	FORWARD:     167679	MERGED:     184329	TO_CACHE:    6758167
L1D PQ	ACCESS:     371593	FORWARD:          0	MERGED:          0	TO_CACHE:     371289

L1D UNIQUE REGIONS ACCESSED: 0
L1D REGIONS CONFLICTS: 0
L1D Cross Page Prefetch Requests: 7072
L1D Same Page Prefetch Requests: 754439
L1D ROI Sum of L1D PQ occupancy: 4719584
L1D PREFETCHES PUSHED FROM L2C: 0
L1I TOTAL     ACCESS:    6970745  HIT:    4217522  MISS:    2753223  HIT %:    60.5032  MISS %:    39.4968   MPKI: 55.0645
L1I LOAD INSTRUCTION	ACCESS:    6431926  HIT:    3678703  MISS:    2753223  HIT %:    57.1944  MISS %:    42.8056  MPKI: 55.0645
L1I PREFETCH INSTRUCTION	ACCESS:     538819  HIT:     538819  MISS:          0  HIT %:        100  MISS %:          0  MPKI: 0

L1I PREFETCH  REQUESTED:    1242106  ISSUED:    1242106  USEFUL:          0  USELESS:          0
L1I USEFUL LOAD PREFETCHES:          0 PREFETCH ISSUED TO LOWER LEVEL:          0  ACCURACY: -nan
 TIMELY PREFETCHES:          0 LATE PREFETCHES: 0 DROPPED PREFETCHES: 0
L1I AVERAGE MISS LATENCY: 17.3129 cycles
L1I RQ	ACCESS:    9464006	FORWARD:          0	MERGED:    2787179	TO_CACHE:    6676827
L1I PQ	ACCESS:    1242106	FORWARD:          0	MERGED:     351032	TO_CACHE:     891074

L1BTB TOTAL     ACCESS:    5671792  HIT:    2053914  MISS:    3617878  HIT %:    36.2128  MISS %:    63.7872   MPKI: 72.3576
L1BTB BRANCH_DIRECT_JUMP	ACCESS:     549087 HIT:     145899 MISS:     403188 AVERAGE STALL: 40.5607 AVERAGE FETCH STALL: 18.9282 AVERAGE FETCH QUEUE STALL: 11.4276 AVERAGE DECODE STALL: 9.37212 AVERAGE EXECUTE STALL: 5.6521e+14
L1BTB BRANCH_INDIRECT	ACCESS:     183449 HIT:      66426 MISS:     117023 AVERAGE STALL: 93.3461 AVERAGE FETCH STALL: 13.3369 AVERAGE FETCH QUEUE STALL: 9.24836 AVERAGE DECODE STALL: 8.38823 AVERAGE EXECUTE STALL: 61.4238
L1BTB BRANCH_CONDITIONAL	ACCESS:    2713355 HIT:    1424511 MISS:    1288844 AVERAGE STALL: 40.3738 AVERAGE FETCH STALL: 22.2366 AVERAGE FETCH QUEUE STALL: 9.44272 AVERAGE DECODE STALL: 7.94982 AVERAGE EXECUTE STALL: 2.14584e+14
L1BTB BRANCH_DIRECT_CALL	ACCESS:     941977 HIT:     105584 MISS:     836393 AVERAGE STALL: 42.7006 AVERAGE FETCH STALL: 22.5041 AVERAGE FETCH QUEUE STALL: 10.5741 AVERAGE DECODE STALL: 8.86562 AVERAGE EXECUTE STALL: 1.66838e+14
L1BTB BRANCH_INDIRECT_CALL	ACCESS:     170971 HIT:      21070 MISS:     149901 AVERAGE STALL: 124.859 AVERAGE FETCH STALL: 16.4478 AVERAGE FETCH QUEUE STALL: 9.01144 AVERAGE DECODE STALL: 7.68685 AVERAGE EXECUTE STALL: 91.1888
L1BTB BRANCH_RETURN	ACCESS:    1112953 HIT:     290424 MISS:     822529 AVERAGE STALL: 41.0951 AVERAGE FETCH STALL: 18.196 AVERAGE FETCH QUEUE STALL: 7.12255 AVERAGE DECODE STALL: 6.7806 AVERAGE EXECUTE STALL: 2.39655e+14
L1BTB BRANCH_OTHER ACCESS:          0 HIT:          0 MISS:          0 AVERAGE STALL: -nan AVERAGE FETCH STALL: -nan AVERAGE FETCH QUEUE STALL: -nan AVERAGE DECODE STALL: -nan AVERAGE EXECUTE STALL: -nan
L1BTB TOTAL ROB OCCUPANCY AT BTB MISS: 11.7708

L2BTB TOTAL     ACCESS:    3592380  HIT:    3257908  MISS:     334472  HIT %:    90.6894  MISS %:     9.3106   MPKI: 6.68944
L2BTB BRANCH_DIRECT_JUMP	ACCESS:     398965 HIT:     370498 MISS:      28467 AVERAGE STALL: 40.5607 AVERAGE FETCH STALL: 18.9282 AVERAGE FETCH QUEUE STALL: 11.4276 AVERAGE DECODE STALL: 9.37212 AVERAGE EXECUTE STALL: 5.6521e+14
L2BTB BRANCH_INDIRECT	ACCESS:     106747 HIT:     100140 MISS:       6607 AVERAGE STALL: 93.3461 AVERAGE FETCH STALL: 13.3369 AVERAGE FETCH QUEUE STALL: 9.24836 AVERAGE DECODE STALL: 8.38823 AVERAGE EXECUTE STALL: 61.4238
L2BTB BRANCH_CONDITIONAL	ACCESS:    1288844 HIT:    1202300 MISS:      86544 AVERAGE STALL: 40.3738 AVERAGE FETCH STALL: 22.2366 AVERAGE FETCH QUEUE STALL: 9.44272 AVERAGE DECODE STALL: 7.94982 AVERAGE EXECUTE STALL: 2.14584e+14
L2BTB BRANCH_DIRECT_CALL	ACCESS:     836393 HIT:     725717 MISS:     110676 AVERAGE STALL: 42.7006 AVERAGE FETCH STALL: 22.5041 AVERAGE FETCH QUEUE STALL: 10.5741 AVERAGE DECODE STALL: 8.86562 AVERAGE EXECUTE STALL: 1.66838e+14
L2BTB BRANCH_INDIRECT_CALL	ACCESS:     140313 HIT:     113777 MISS:      26536 AVERAGE STALL: 124.859 AVERAGE FETCH STALL: 16.4478 AVERAGE FETCH QUEUE STALL: 9.01144 AVERAGE DECODE STALL: 7.68685 AVERAGE EXECUTE STALL: 91.1888
L2BTB BRANCH_RETURN	ACCESS:     821118 HIT:     745476 MISS:      75642 AVERAGE STALL: 41.0951 AVERAGE FETCH STALL: 18.196 AVERAGE FETCH QUEUE STALL: 7.12255 AVERAGE DECODE STALL: 6.7806 AVERAGE EXECUTE STALL: 2.39655e+14
L2BTB BRANCH_OTHER ACCESS:          0 HIT:          0 MISS:          0 AVERAGE STALL: -nan AVERAGE FETCH STALL: -nan AVERAGE FETCH QUEUE STALL: -nan AVERAGE DECODE STALL: -nan AVERAGE EXECUTE STALL: -nan
L2BTB TOTAL ROB OCCUPANCY AT BTB MISS: 127.321

L2C TOTAL     ACCESS:    4469023  HIT:    3986859  MISS:     482164  HIT %:     89.211  MISS %:     10.789   MPKI: 9.64328
L2C LOAD INSTRUCTION	ACCESS:    2753222  HIT:    2492241  MISS:     260981  HIT %:    90.5209  MISS %:    9.47911  MPKI: 5.21962
L2C LOAD TRANSLATION INSTRUCTION	ACCESS:        289  HIT:         66  MISS:        223  HIT %:    22.8374  MISS %:    77.1626  MPKI: 0.00446
L2C LOAD DATA	ACCESS:     722937  HIT:     647905  MISS:      75032  HIT %:    89.6212  MISS %:    10.3788  MPKI: 1.50064
L2C RFO DATA	ACCESS:     285275  HIT:     231458  MISS:      53817  HIT %:     81.135  MISS %:     18.865  MPKI: 1.07634
L2C PREFETCH DATA	ACCESS:     186375  HIT:     112268  MISS:      74107  HIT %:    60.2377  MISS %:    39.7623  MPKI: 1.48214
L2C WRITEBACK DATA	ACCESS:     519038  HIT:     502346  MISS:      16692  HIT %:    96.7841  MISS %:    3.21595  MPKI: 0.33384
L2C LOAD TRANSLATION DATA	ACCESS:       1847  HIT:        550  MISS:       1297  HIT %:     29.778  MISS %:     70.222  MPKI: 0.02594
L2C TRANSLATION FROM L1D PREFETCHER DATA	ACCESS:         40  HIT:         25  MISS:         15  HIT %:       62.5  MISS %:       37.5  MPKI: 0.0003

L2C PREFETCH  REQUESTED:      92022  ISSUED:      92022  USEFUL:       8520  USELESS:      66044
L2C USEFUL LOAD PREFETCHES:       8520 PREFETCH ISSUED TO LOWER LEVEL:      74426  ACCURACY: 11.4476
 TIMELY PREFETCHES:       8520 LATE PREFETCHES: 319 DROPPED PREFETCHES: 0
L2C AVERAGE MISS LATENCY: 38.5004 cycles
L2C RQ	ACCESS:    3763670	FORWARD:          0	MERGED:          0	TO_CACHE:    3763609
L2C WQ	ACCESS:     519038	FORWARD:         61	MERGED:          0	TO_CACHE:     519038
L2C PQ	ACCESS:     193959	FORWARD:          0	MERGED:       3777	TO_CACHE:     190182

L2C Dense regions hint from L2: 0
PSCL5 TOTAL     ACCESS:       4066  HIT:       2033  MISS:       2033  HIT %:         50  MISS %:         50   MPKI: 0.04066
PSCL5 LOAD TRANSLATION INSTRUCTION	ACCESS:       3990  HIT:       1995  MISS:       1995  HIT %:         50  MISS %:         50  MPKI: 0.0399
PSCL5 TRANSLATION FROM L1D PREFETCHER INSTRUCTION	ACCESS:         76  HIT:         38  MISS:         38  HIT %:         50  MISS %:         50  MPKI: 0.00076


PSCL4 TOTAL     ACCESS:       3969  HIT:       1980  MISS:       1989  HIT %:    49.8866  MISS %:    50.1134   MPKI: 0.03978
PSCL4 LOAD TRANSLATION INSTRUCTION	ACCESS:       2108  HIT:       1942  MISS:        166  HIT %:    92.1252  MISS %:    7.87476  MPKI: 0.00332
PSCL4 TRANSLATION FROM L1D PREFETCHER INSTRUCTION	ACCESS:         38  HIT:         38  MISS:          0  HIT %:        100  MISS %:          0  MPKI: 0
PSCL4 LOAD TRANSLATION DATA	ACCESS:       1785  HIT:          0  MISS:       1785  HIT %:          0  MISS %:        100  MPKI: 0.0357
PSCL4 TRANSLATION FROM L1D PREFETCHER DATA	ACCESS:         38  HIT:          0  MISS:         38  HIT %:          0  MISS %:        100  MPKI: 0.00076


PSCL3 TOTAL     ACCESS:       4011  HIT:       2001  MISS:       2010  HIT %:    49.8878  MISS %:    50.1122   MPKI: 0.0402
PSCL3 LOAD TRANSLATION INSTRUCTION	ACCESS:       2129  HIT:       1963  MISS:        166  HIT %:    92.2029  MISS %:    7.79709  MPKI: 0.00332
PSCL3 TRANSLATION FROM L1D PREFETCHER INSTRUCTION	ACCESS:         38  HIT:         38  MISS:          0  HIT %:        100  MISS %:          0  MPKI: 0
PSCL3 LOAD TRANSLATION DATA	ACCESS:       1806  HIT:          0  MISS:       1806  HIT %:          0  MISS %:        100  MPKI: 0.03612
PSCL3 TRANSLATION FROM L1D PREFETCHER DATA	ACCESS:         38  HIT:          0  MISS:         38  HIT %:          0  MISS %:        100  MPKI: 0.00076


PSCL2 TOTAL     ACCESS:       3936  HIT:       1904  MISS:       2032  HIT %:     48.374  MISS %:     51.626   MPKI: 0.04064
PSCL2 LOAD TRANSLATION INSTRUCTION	ACCESS:       2127  HIT:       1868  MISS:        259  HIT %:    87.8232  MISS %:    12.1768  MPKI: 0.00518
PSCL2 TRANSLATION FROM L1D PREFETCHER INSTRUCTION	ACCESS:         36  HIT:         36  MISS:          0  HIT %:        100  MISS %:          0  MPKI: 0
PSCL2 LOAD TRANSLATION DATA	ACCESS:       1737  HIT:          0  MISS:       1737  HIT %:          0  MISS %:        100  MPKI: 0.03474
PSCL2 TRANSLATION FROM L1D PREFETCHER DATA	ACCESS:         36  HIT:          0  MISS:         36  HIT %:          0  MISS %:        100  MPKI: 0.00072


LLC TOTAL     ACCESS:     542576  HIT:     513348  MISS:      29228  HIT %:    94.6131  MISS %:     5.3869   MPKI: 0.58456
LLC LOAD INSTRUCTION	ACCESS:     260981  HIT:     259656  MISS:       1325  HIT %:    99.4923  MISS %:     0.5077  MPKI: 0.0265
LLC LOAD TRANSLATION INSTRUCTION	ACCESS:        223  HIT:        178  MISS:         45  HIT %:    79.8206  MISS %:    20.1794  MPKI: 0.0009
LLC LOAD DATA	ACCESS:      74725  HIT:      71083  MISS:       3642  HIT %:    95.1261  MISS %:    4.87387  MPKI: 0.07284
LLC RFO DATA	ACCESS:      53797  HIT:      39714  MISS:      14083  HIT %:     73.822  MISS %:     26.178  MPKI: 0.28166
LLC PREFETCH DATA	ACCESS:      74426  HIT:      64798  MISS:       9628  HIT %:    87.0637  MISS %:    12.9363  MPKI: 0.19256
LLC WRITEBACK DATA	ACCESS:      77112  HIT:      76718  MISS:        394  HIT %:    99.4891  MISS %:   0.510945  MPKI: 0.00788
LLC LOAD TRANSLATION DATA	ACCESS:       1297  HIT:       1186  MISS:        111  HIT %:    91.4418  MISS %:    8.55821  MPKI: 0.00222
LLC TRANSLATION FROM L1D PREFETCHER DATA	ACCESS:         15  HIT:         15  MISS:          0  HIT %:        100  MISS %:          0  MPKI: 0

LLC AVERAGE MISS LATENCY: 155.963 cycles
LLC RQ	ACCESS:     391046	FORWARD:          0	MERGED:          0	TO_CACHE:     391038
LLC WQ	ACCESS:      77112	FORWARD:          8	MERGED:          0	TO_CACHE:      77112
LLC PQ	ACCESS:      74426	FORWARD:          0	MERGED:          0	TO_CACHE:      74426

LLC Dense regions hint to LLC: 0

RAW hits: 1822748
Loads Generated: 12634728
Loads sent to L1D: 10811980
Stores Generated: 6942484
Stores sent to L1D: 6942496
Major fault: 0 Minor fault: 2574
Allocated PAGES: 2574

stream: 
stream:times selected: 1202398
stream:pref_filled: 121337
stream:pref_useful: 23911
stream:pref_late: 6448
stream:misses: 8175
stream:misses_by_poll: 0

CS: 
CS:times selected: 180997
CS:pref_filled: 58909
CS:pref_useful: 35484
CS:pref_late: 6624
CS:misses: 15924
CS:misses_by_poll: 3

CPLX: 
CPLX:times selected: 1020239
CPLX:pref_filled: 18861
CPLX:pref_useful: 4353
CPLX:pref_late: 2919
CPLX:misses: 91615
CPLX:misses_by_poll: 0

NL_L1: 
NL:times selected: 21359
NL:pref_filled: 649
NL:pref_useful: 255
NL:pref_late: 360
NL:misses: 1736
NL:misses_by_poll: 0

total selections: 2424993
total_filled: 94133
total_useful: 33822
total_late: 17730
total_polluted: 3
total_misses_after_warmup: 762810
conflicts: 5579128

test: 120001

DRAM Statistics
 CHANNEL 0
 RQ ROW_BUFFER_HIT:      10707  ROW_BUFFER_MISS:      18117
 DBUS_CONGESTED:         19
 WQ ROW_BUFFER_HIT:       1490  ROW_BUFFER_MISS:      13002  FULL:          0

 AVG_CONGESTED_CYCLE: 5

CPU 0 Branch Prediction Accuracy: 99.8082% MPKI: 0.35064 Average ROB Occupancy at Mispredict: 145.216
Branch types
NOT_BRANCH: 40857302 81.7146%
BRANCH_DIRECT_JUMP: 549087 1.09817%
BRANCH_INDIRECT: 183449 0.366898%
BRANCH_CONDITIONAL: 6184030 12.3681%
BRANCH_DIRECT_CALL: 941977 1.88395%
BRANCH_INDIRECT_CALL: 170971 0.341942%
BRANCH_RETURN: 1112953 2.22591%
BRANCH_OTHER: 0 0%

DRAM PAGES: 1048576
Allocated PAGES: 2574
Average_ROB_Occupancy: 152.369
Average_Decode_Occupancy: 18.8791
Average_FTQ_Occupancy: 8.35287
Indirect max targets: 14 Average targets: 1.17778
Branch_type:  BRANCH_DIRECT_JUMP:  Count Percentage: 3.34954 4.54468 3.83774 6.80614 3.54134 2.8486 4.13158 70.9404 
Branch_type:  BRANCH_INDIRECT:  Count Percentage: 11.7114 3.50663 2.63739 9.69583 3.33104 2.79447 1.72378 64.5994 
Branch_type:  BRANCH_CONDITIONAL:  Count Percentage: 21.198 2.89417 2.17243 7.80854 2.40831 2.24656 3.12413 58.1479 
Branch_type:  BRANCH_DIRECT_CALL:  Count Percentage: 0.856707 1.24598 0.776955 3.87215 3.42395 1.95091 4.32765 83.5457 
Branch_type:  BRANCH_INDIRECT_CALL:  Count Percentage: 9.5428 0 2.98883 5.3345 0.845531 1.71071 3.84551 75.7321 
Branch_type:  BRANCH_RETURN:  Count Percentage: 4.68553 1.38843 2.39009 7.31258 4.24667 3.16821 3.60694 73.2016 
Branch_type:  BRANCH_DIRECT_JUMP:  Total Count: 36796 49925 42159 74768 38903 31293 45387 779307 
Branch_type:  BRANCH_INDIRECT:  Total Count: 43020 12881 9688 35616 12236 10265 6332 237295 
Branch_type:  BRANCH_CONDITIONAL:  Total Count: 2621692 357940 268678 965732 297851 277846 386381 7191514 
Branch_type:  BRANCH_DIRECT_CALL:  Total Count: 16081 23388 14584 72683 64270 36620 81233 1568212 
Branch_type:  BRANCH_INDIRECT_CALL:  Total Count: 32538 0 10191 18189 2883 5833 13112 258223 
Branch_type:  BRANCH_RETURN:  Total Count: 103968 30808 53034 162260 94230 70300 80035 1624281 
Number of unique branch instructions: 10885
Upper 32 bits: 
aaaa
ffff
ffff0000
Unique upper 32 bits: 3
Unique upper 36 bits: 3
Unique upper 40 bits: 5
Unique upper 44 bits: 32
Unique upper 48 bits: 158
Variant_0 : 1160 0.283203
Variant_1 : 2735 0.667725
Variant_2 : 0 0
Variant_3 : 0 0
Offset_3 4506
Offset_4 263
Offset_5 488
Offset_6 553
Offset_7 650
Offset_8 592
Offset_9 523
Offset_10 428
Offset_11 356
Offset_12 326
Offset_13 242
Offset_14 247
Offset_15 205
Offset_16 233
Offset_17 170
Offset_18 154
Offset_19 272
Offset_20 147
Offset_21 235
Offset_22 412
Offset_23 241
Offset_24 348
Offset_25 117
Offset_47 92
Offset_64 4
decode_dispatch_called: 20636232 50.3967
Dispatch_width: 0 10445074 50.6152 25.5084
Dispatch_width: 1 579395 2.80766 1.41497
Dispatch_width: 2 629943 3.05261 1.53841
Dispatch_width: 3 414117 2.00675 1.01133
Dispatch_width: 4 2110597 10.2276 5.15438
Dispatch_width: 5 266808 1.29291 0.651584
Dispatch_width: 6 6190298 29.9972 15.1176
Empty_decode_cycles: 20311378 49.6033
ROB_full_cycles: 3195309 7.80341
Starvation_cycles_per_kilo_instr: 315.62
Starvation_cycles_per_kilo_instr_3: 291.846
Starvation_cycles_per_kilo_instr_0: 275.611
Branch_type_1  (3,1)  (4,9)  (5,39)  (6,76)  (7,126)  (8,153)  (9,138)  (10,111)  (11,79)  (12,55)  (13,11)  (14,2)  (15,3)  (16,4)  (18,1)  (19,5)  (20,2)  (21,1)  (22,3)  (23,2)  (24,10)  (25,12) 
Branch_type_2  (3,1)  (4,1)  (5,1)  (8,4)  (9,4)  (10,1)  (12,1)  (13,1)  (14,1)  (16,3)  (17,2)  (20,2)  (21,2)  (23,5)  (24,1)  (47,41) 
Branch_type_3  (3,4504)  (4,253)  (5,444)  (6,460)  (7,491)  (8,366)  (9,285)  (10,173)  (11,140)  (12,62)  (13,10)  (64,3) 
Branch_type_4  (6,4)  (7,8)  (8,27)  (9,58)  (10,68)  (11,71)  (12,117)  (13,103)  (14,112)  (15,98)  (16,104)  (17,77)  (18,66)  (19,132)  (20,75)  (21,124)  (22,217)  (23,136)  (24,203)  (25,101) 
Branch_type_5  (8,3)  (9,1)  (10,4)  (11,5)  (12,3)  (13,14)  (14,16)  (15,11)  (16,22)  (17,13)  (18,23)  (19,14)  (20,11)  (21,13)  (22,43)  (23,26)  (24,38) 
Branch_type_6  (5,4)  (6,13)  (7,25)  (8,39)  (9,37)  (10,71)  (11,61)  (12,88)  (13,103)  (14,116)  (15,93)  (16,100)  (17,78)  (18,64)  (19,121)  (20,57)  (21,95)  (22,149)  (23,72)  (24,96)  (25,4)  (47,51)  (64,1) 
Unique trigger count: 
Variant_0_evicts_0 : 0
Variant_0_evicts_1 : 0
Variant_0_evicts_2 : 0
Variant_0_evicts_3 : 0
Variant_1_evicts_0 : 0
Variant_1_evicts_1 : 0
Variant_1_evicts_2 : 0
Variant_1_evicts_3 : 0
Variant_2_evicts_0 : 0
Variant_2_evicts_1 : 0
Variant_2_evicts_2 : 0
Variant_2_evicts_3 : 0
Variant_3_evicts_0 : 0
Variant_3_evicts_1 : 0
Variant_3_evicts_2 : 0
Variant_3_evicts_3 : 0
BTB PER SET UNIQUE ADDR: 3 7 4 5 5 5 7 6 2 6 5 5 3 5 10 8 3 5 3 2 5 6 6 7 4 8 4 4 5 7 6 5 4 9 5 8 8 4 5 9 5 7 5 3 7 6 5 5 6 7 9 4 5 3 2 9 5 4 7 6 5 8 3 7 6 1 4 4 3 7 8 4 5 7 7 9 3 6 5 7 10 6 7 10 8 4 6 3 6 7 6 6 6 7 3 1 5 4 4 7 4 4 4 6 4 5 5 4 5 7 6 3 4 10 2 6 5 6 4 10 6 7 5 4 9 6 4 6 7 2 2 5 4 6 10 5 6 2 6 7 2 4 9 7 3 10 6 5 5 6 3 2 4 11 3 5 7 3 7 5 2 7 4 4 9 3 1 6 9 10 7 5 5 4 5 6 4 6 5 7 5 4 5 8 5 5 4 5 5 6 4 3 7 6 1 5 6 6 5 5 5 7 3 5 1 7 3 5 5 6 2 3 7 7 6 4 8 4 4 5 4 9 5 8 5 10 6 4 8 10 3 5 6 8 3 6 6 7 5 6 6 5 5 5 6 4 4 4 3 6 3 7 4 4 5 7 5 4 7 1 8 6 6 5 4 4 5 6 8 5 7 7 7 6 8 5 6 2 6 9 10 3 5 9 4 5 11 5 9 4 5 3 11 7 8 5 5 3 6 4 11 4 5 9 4 3 6 7 6 4 6 4 7 5 5 5 6 7 7 3 9 7 4 4 10 5 3 5 3 8 4 10 3 6 7 5 7 8 7 7 2 6 6 4 5 3 4 7 3 4 5 4 4 2 8 4 4 6 5 5 9 6 2 6 5 11 5 6 4 3 8 8 11 6 5 5 7 6 5 2 5 5 4 6 9 5 2 5 4 5 5 2 3 5 4 5 5 3 5 3 8 6 7 4 5 11 11 4 8 3 5 3 1 6 7 2 6 4 5 6 7 1 5 6 7 5 7 7 6 8 8 3 2 4 6 1 4 3 2 3 8 6 3 2 5 0 3 3 6 5 8 3 6 4 5 2 7 2 11 5 5 5 6 13 2 8 5 7 3 8 5 7 3 5 4 8 4 2 3 7 6 3 6 5 4 4 5 5 8 7 7 7 5 6 6 4 7 4 2 9 3 3 5 5 6 7 6 5 2 4 6 3 5 3 4 6 10 7 6 4 7 5 9 4 5 10 2 5 6 3 8 7 5 3 3 5 8 8 5 6 4 8 11 11 6 4 7 10 3 3 4 8 5 5 5 7 7 0 4 4 4 2 5 8 6 3 4 5 12 3 4 4 3 7 4 6 8 2 5 5 1 8 3 6 4 4 3 1 5 7 8 5 5 6 3 7 12 8 3 4 10 3 4 2 5 10 6 0 4 5 5 3 4 6 1 3 9 5 8 7 4 4 5 2 9 5 3 5 5 3 5 8 4 5 6 6 3 7 7 11 4 6 4 2 2 6 7 5 4 8 6 5 5 8 5 6 5 5 2 6 4 5 5 9 6 5 4 10 6 6 7 6 7 4 7 4 5 6 5 8 8 7 4 7 7 7 5 5 10 3 6 3 4 7 5 10 4 8 6 9 5 5 5 3 8 4 3 8 6 8 3 3 3 7 5 5 7 8 4 3 6 6 3 8 7 9 9 7 4 6 4 5 7 4 5 3 5 6 2 8 4 10 5 6 5 4 7 3 4 5 6 5 9 4 9 8 9 2 4 7 7 7 5 7 10 7 6 12 7 6 7 5 1 7 10 5 4 8 3 6 6 3 5 4 11 4 6 9 7 8 6 5 6 6 9 6 7 3 6 6 7 6 7 3 5 4 6 3 6 5 6 3 1 6 9 5 9 4 8 5 8 6 6 3 5 6 5 6 11 5 6 5 2 8 6 4 7 5 2 5 2 8 6 4 5 4 5 7 3 5 3 8 6 4 6 4 9 8 5 4 2 5 5 7 5 6 8 7 5 5 3 4 6 4 4 3 4 6 1 5 6 5 7 4 5 5 7 11 3 0 10 4 5 3 4 7 4 8 9 2 7 2 7 7 4 2 5 5 6 8 9 5 5 7 9 10 6 5 9 6 7 1 8 7 4 6 5 5 5 5 4 8 8 4 6 7 4 4 1 6 5 5 4 4 5 5 3 4 8 4 8 6 4 2 10 6 10 4 6 3 5 4 8 7 7 3 6 5 3 3 4 3 4 6 3 3 3 11 5 7 4 5 8 6 9 4 3 5 8 4 4 6 7 12 8 4 4 3 3 3 7 5 7 5 3 5 6 10 5 5 7 9 8 6 5 5 7 7 3 4 6 3 6 9 9 4 7 8 4 6 7 3 5 5 5 7 8 4 3 4 6 5 4 6 7 5 5 7 2 6 6 6 5 5 4 6 8 8 5 2 3 7 4 5 4 8 8 6 8 8 2 5 2 9 8 4 6 7 5 3 8 2 4 5 7 5 4 3 3 9 8 9 6 5 6 3 4 5 4 3 5 10 6 10 4 5 3 6 3 2 6 7 4 3 8 4 6 7 3 5 5 5 4 7 2 6 6 8 4 3 6 5 8 2 5 4 5 5 3 6 8 11 8 3 5 6 2 6 6 5 4 5 1 4 6 4 6 9 7 4 4 2 7 6 3 3 6 7 4 8 7 4 5 4 4 9 4 7 3 7 8 2 10 4 4 3 9 3 7 8 9 6 4 1 7 5 6 5 7 4 6 4 3 2 7 4 6 2 8 5 5 5 7 7 2 6 7 3 8 4 8 3 6 5 5 6 10 5 5 3 4 4 4 4 8 5 4 6 3 3 6 5 4 5 7 7 8 4 1 4 3 8 3 4 4 3 3 5 2 7 2 4 5 5 5 2 7 7 4 10 5 5 10 3 5 7 5 9 7 4 8 5 5 9 5 4 4 7 9 10 7 5 6 10 6 5 8 4 5 8 3 6 5 6 7 6 9 7 9 12 10 6 3 6 10 4 3 4 5 4 4 6 5 5 5 4 5 4 8 9 5 5 3 6 6 5 6 7 4 6 5 6 6 5 9 13 4 6 9 7 5 4 5 7 4 2 7 2 4 6 3 9 7 9 6 3 5 5 6 7 3 5 3 12 9 8 6 5 3 4 2 5 3 3 4 3 7 5 3 2 2 5 8 7 2 7 7 6 5 4 8 4 9 2 2 6 10 7 4 5 3 6 9 8 10 8 4 3 3 6 8 5 6 7 7 9 7 4 4 8 7 2 6 6 8 6 8 7 5 4 6 7 7 4 5 5 10 5 7 4 3 5 3 6 6 5 5 5 12 6 8 4 7 8 9 6 4 5 5 8 6 5 9 1 5 2 7 6 6 10 8 9 5 8 7 4 5 5 5 5 5 7 5 9 4 10 5 6 6 2 6 4 9 9 7 5 7 5 6 3 6 6 10 4 3 7 4 8 8 11 9 2 4 9 8 4 12 6 7 2 4 5 5 4 6 9 4 4 1 7 5 3 5 6 5 6 5 11 3 2 5 5 4 4 3 5 4 7 6 4 3 8 6 7 3 4 5 9 6 6 9 4 6 5 3 6 5 8 6 3 6 5 5 6 5 7 8 5 4 7 7 5 5 5 6 3 3 7 4 5 5 5 5 8 5 5 10 4 8 7 3 7 10 5 4 7 5 5 9 4 4 11 8 8 5 6 4 3 3 4 5 6 6 5 8 6 8 4 7 4 4 6 10 3 7 7 9 4 5 8 8 6 6 6 5 4 6 5 7 3 5 6 4 6 6 5 5 5 2 2 6 4 3 3 6 4 1 5 5 6 6 4 6 1 1 4 7 7 12 2 4 8 3 4 6 3 2 4 4 6 3 5 4 2 4 8 9 3 4 6 2 1 7 3 4 4 4 5 4 6 2 4 3 8 8 5 8 5 4 4 2 3 7 5 4 6 2 7 9 7 4 3 7 3 2 6 5 7 5 5 7 3 3 3 5 7 2 2 4 5 8 8 3 7 5 6 6 5 8 4 4 5 7 9 0 6 5 6 5 10 5 8 3 5 10 7 6 6 2 7 3 7 4 5 5 6 5 4 5 7 5 5 3 4 2 2 5 2 7 2 6 5 6 2 5 5 4 9 3 5 4 3 7 6 8 7 7 4 5 3 5 7 5 2 5 5 6 4 5 8 5 5 2 3 6 5 5 5 5 6 4 5 5 7 6 2 5 5 5 5 2 3 6 4 6 5 2 5 5 4 3 7 4 6 4 4 5 7 7 9 3 6 3 4 6 9 5 6 3 3 4 3 4 5 3 10 1 6 2 7 3 3 3 5 3 6 3 1 3 6 3 4 4 4 3 6 6 1 4 6 5 6 9 2 6 10 2 5 11 4 1 1 7 8 1 7 8 6 6 5 6 5 10 8 8 8 4 0 4 3 5 8 6 7 9 9 5 4 2 7 4 7 5 5 7 7 5 8 6 9 6 4 4 8 6 7 5 6 3 8 3 7 5 14 6 3 5 9 3 6 5 5 2 3 9 8 3 7 4 6 3 4 9 6 5 4 2 3 7 4 2 5 7 9 4 5 4 8 7 7 3 9 8 4 4 9 6 4 8 2 3 12 4 2 5 5 4 13 5 5 4 6 3 5 3 5 7 6 
BTB PER SET COUNT: 3 1724 93 602 202 126 338 360 2 911 712 360 3 1533 1089 161 225 194 3 2 235 702 807 246 386 1070 147 203 423 399 441 184 134 1043 459 215 888 229 162 1221 11 1626 12 4 855 703 48 140 421 677 707 4 766 3 2 401 542 1201 659 109 1096 708 4 17 15 1 153 271 3 776 1267 121 242 939 11 1042 3 273 619 252 724 185 223 641 566 13 743 3 586 1675 468 579 672 380 5 1 156 4 172 506 132 186 114 9 69 6 140 194 613 506 56 3 253 1303 4 306 308 12 234 2139 442 250 1651 4 421 990 13 378 985 3 2 129 5 142 245 339 198 2 415 853 2 960 1008 389 3 347 11 16 82 409 174 450 7 761 5 1428 267 926 389 245 2 167 5 448 727 120 1 14 255 314 311 267 220 127 302 70 7 303 6 590 59 199 151 338 179 161 40 10 6 51 37 3 686 318 1 536 21 660 902 10 177 190 95 189 1 362 3 385 254 10 5 6 618 546 270 199 678 335 8 269 12 458 273 749 387 1235 120 28 352 998 146 181 6 5441 3 250 15 199 255 539 454 205 407 204 319 165 7941 9 3 247 3 710 7 225 429 62 1816 250 468 1 534 64 284 346 26 441 11 547 532 56 170 430 14 234 417 214 201 307 310 611 551 3 347 582 4 152 1165 270 400 9 8 3 1188 467 500 137 12 3 358 7 848 228 1462 357 10 4 413 99 99 11 187 5 147 189 6 323 45 533 315 3 502 325 186 214 965 207 333 228 4 380 9 884 219 509 151 149 788 279 259 442 4 287 297 5 694 204 245 622 3 189 115 5 119 2 635 4 401 482 434 139 1282 425 2 633 122 2668 511 999 5 260 884 611 1131 18 217 209 710 240 154 3 17 1059 13 823 1102 10 2 288 4 12 20 2 3 97 146 6 1716 4 285 152 947 376 333 4 313 883 2272 347 86 22 8 115 1 308 660 3 340 435 367 159 408 1 6 279 55 470 294 470 890 182 734 71 2 160 101 2 5 5 2 3 887 213 3 3 742 0 2410 28 326 127 910 779 248 234 139 2 458 3 808 325 1090 85 33 1075 2 722 200 13 4 569 102 1042 3 217 950 280 172 6 4 607 93 366 323 537 4 4 127 367 663 449 1005 474 145 279 170 922 518 182 79 327 3 143 7 282 125 503 137 101 2 4 1067 4 936 935 7 102 656 1060 485 243 319 154 1009 4 92 896 2 9 256 5 1267 480 5 9 4 39 936 534 6 87 134 457 833 1258 353 1395 879 1123 245 179 5 1724 1023 11 199 64 1071 0 6 128 648 2 308 446 143 3 1503 87 1707 260 177 310 3 1013 5 641 682 2 121 5 1 402 3 426 4 150 207 1 5 1618 199 368 412 952 236 1101 620 518 3 59 391 12 315 2 53 1122 1021 0 89 86 6 3 951 520 1 234 624 451 10224 521 196 82 130 2 376 284 220 10 158 6 696 1214 136 496 529 628 4 431 151 1598 6 199 499 4 2 396 262 244 5 466 456 6 257 1097 15 117 193 148 2 11 228 12 7 18 535 721 4 1306 250 998 605 450 299 4 655 62 126 1041 100 765 659 205 37 1186 343 487 236 1460 85 9 411 3 143 473 5 935 5 594 8 749 166 723 7 3 692 5 6 235 431 644 3 5 246 286 72 793 357 414 6 5 120 440 895 523 479 631 553 373 334 451 289 378 375 99 10 6 48 191 2 2059 166 1004 268 160 116 10 176 129 5 667 489 98 402 276 25 420 687 2 5 974 212 17 80 187 314 72 254 3275 457 267 60 293 2 137 744 349 5 732 28 185 284 3 6 158 758 297 653 513 255 863 364 386 8 263 495 495 143 174 380 119 138 7 469 279 66 7 24 3 13 204 450 3 1 256 246 201 1293 353 321 7 542 377 8 3 205 939 469 610 1489 318 451 185 137 996 8 112 740 6 3 88 9 806 352 4 342 9 156 722 126 943 3 251 11 227 377 30 495 363 161 4 4 279 180 390 555 14 244 295 481 5 491 196 126 7 6 3 1220 793 1 102 402 960 485 6 5 446 233 1214 3 0 1504 4 122 4 17 369 392 664 791 214 281 144 563 872 75 229 6 77 217 900 238 179 312 296 640 682 11 27 1029 426 1382 1 238 229 5 18 1461 281 216 210 11 389 1294 236 162 537 4 949 1 316 597 211 5 5 794 82 4 4 577 5 664 1059 7 5 2114 473 1083 7 2009 226 222 233 310 167 204 7 591 253 3 194 4 4 4 405 5 3 84 1088 197 143 290 7 521 9 836 224 3 906 242 4 7 550 246 976 280 7 236 1459 6 3 202 57 210 1632 3 11 304 2008 910 518 13 346 406 306 151 27 154 1113 3 99 342 381 375 158 413 282 605 727 4 138 328 3 455 426 131 449 349 83 1453 8 88 42 10 31 400 411 695 67 2 110 438 374 169 101 153 136 839 537 200 2 4 397 151 425 433 143 506 591 308 301 2 476 2 731 599 4 18 126 125 5 1044 2 125 310 562 396 11 79 3 366 739 872 443 113 345 536 4 142 92 3 174 785 294 1552 328 552 5 52 3 5 156 634 480 415 401 5 149 277 7 16 156 34 471 112 2 550 193 48 8 3 110 390 284 3 172 195 5 503 5 403 737 16568 412 285 171 47 3 360 129 8 5 175 1 187 190 380 15 571 1079 49 5 2 124 312 3 3 362 237 23 420 351 6 385 4 200 527 5 12 5 249 533 3 942 87 7 3 209 235 404 408 577 265 219 1 1244 515 906 424 464 174 217 7 8 2 497 288 457 2 281 389 821 7 611 1894 2 238 647 3 336 230 445 11 359 93 306 86 430 74 6 83 283 7 126 4 671 145 7 375 127 5 120 626 4 12 13 88 487 4 1 301 376 181 3 163 117 3 3 5 2 181 2 241 204 5 415 2 232 164 186 811 165 7 433 3 236 495 157 352 559 4 210 5 7 369 5 889 4 562 2018 473 143 445 95 990 253 228 576 209 347 596 5 136 10 573 641 403 476 656 706 600 513 298 4 181 594 10 5 4 273 123 5 355 5 362 177 7 100 1466 155 1612 139 128 5 699 348 5 9 470 132 422 6 23 133 276 706 821 96 388 1136 520 575 5 10 347 12 2 461 2 5 50 311 629 815 289 9 3 184 22 18 538 5 125 147 1317 755 185 340 95 3 523 2 459 3 7 164 185 328 251 4 194 3 15 489 18 2 108 618 20 9 156 669 222 207 2 2 162 869 612 9 453 4 261 757 69 643 1135 253 5 5 528 705 214 381 458 22 493 384 4 179 2574 1653 2 223 3093 645 714 526 30 249 80 166 581 141 76 138 36 623 55 339 9 3 128 3 595 304 9 14 408 550 7 250 6 37 12 885 119 19 12 6 979 133 347 780 1 6 2 352 360 558 1335 201 692 953 429 442 175 51 204 6 409 18 180 127 430 8 969 467 180 233 2 389 919 651 359 418 6 1193 448 239 3 332 473 1400 4 3 1197 6 447 697 1329 1115 3 4 1650 493 565 1071 311 957 2 159 9 661 43 153 444 4 179 1 604 152 3 148 19 7 290 130 769 197 2 579 174 180 18 73 17 86 577 232 699 436 724 470 409 5 140 2917 806 493 242 878 5 183 218 3 315 6 1095 34 1457 552 6 133 375 7 868 868 6 99 238 162 225 6 563 622 4 3 609 59 133 159 373 338 512 273 422 835 7 988 67 239 447 727 153 227 18 8 294 496 4 8 656 547 683 276 344 204 3 3 4 96 86 487 12 499 284 800 4 732 171 84 385 394 332 681 531 464 255 6 472 148 190 260 177 14 198 335 150 841 614 140 272 7 51 489 6 630 272 2 159 187 124 3 10 418 188 1 244 5 322 194 7 173 1 1 124 10 233 1713 2 5 1260 3 10 323 3 4 111 726 271 195 116 6 2 5 937 342 4 8 16 2 1 684 71 93 261 4 398 152 255 7 4 12 787 465 125 534 464 10 209 2 3 85 159 5 554 2 142 487 288 252 9 445 3 2 621 183 508 139 312 416 5 3 85 18 459 3 2 7 339 339 857 3 1145 139 365 309 325 1064 455 4 104 341 772 0 234 289 117 342 1548 346 357 3 497 1687 373 132 218 2 1086 3 659 6 322 265 252 503 6 44 462 8 332 675 4 3 2 8 2 533 2 365 339 332 3 152 6 6 246 6 184 131 340 320 659 692 428 294 43 324 3 161 804 5 49 82 11 205 739 189 677 469 438 2 322 180 1275 687 226 9 838 4 49 67 358 586 2 274 42 403 290 3 66 623 275 85 301 2 492 4654 339 103 774 27 906 393 6 307 1064 247 1023 399 304 209 4 246 312 7 24 4 6 5 3 5 1597 8 734 1 150 334 188 5 77 351 12 5 255 5 1 3 595 4 43 1320 669 3 346 419 1 215 939 15 162 814 2 438 926 2 829 357 54 2 1 293 762 2 190 372 299 98 188 430 334 530 247 658 586 4 0 53 165 235 846 148 362 1134 395 78 128 2 663 109 361 182 510 297 1220 474 801 560 641 752 1052 148 605 3141 699 16 205 146 613 109 976 338 1223 60 217 388 928 453 493 439 8 2 9 799 1313 18 1102 54 263 3 118 707 424 99 206 1331 254 214 102 3 10 165 482 4 242 216 808 587 605 186 936 345 1443 5 628 1819 8 140 2 7 1900 1346 2 232 405 148 1907 217 295 7 545 228 7 6 222 678 34 
To predecode: 0
Predecoding something: 0
Predecode request dropped: 0
sizeofblock_0 0
sizeofblock_1 210984
sizeofblock_2 226677
sizeofblock_3 0
sizeofblock_4 0
sizeofblock_5 0
sizeofblock_6 0
sizeofblock_7 0
sizeofblock_8 0
Variant_0 Correct: 1379057 Incorrect: 0 Accuracy: 1
Variant_1 Correct: 5398251 Incorrect: 0 Accuracy: 1
Variant_2 Correct: 0 Incorrect: 0 Accuracy: -nan
Variant_3 Correct: 0 Incorrect: 0 Accuracy: -nan
