
*** ChampSim Multicore Out-of-Order Simulator ***

Warmup Instructions: 50000000
Simulation Instructions: 50000000
Number of CPUs: 1
LLC sets: 2048
LLC ways: 16
Off-chip DRAM Size: 4096 MB Channels: 1 Width: 64-bit Data Rate: 6400 MT/s
CPU 0 runs ./micro_traces/srv439.trace.gz
.gz
ITLB has LRU replacement policy
DTLB has LRU replacement policy
STLB has LRU replacement policy
FDIP Prefetcher at L1I
L1I has LRU replacement policy
L1D has LRU replacement policy
Initialize SRRIP state for L2C
Initialize DRRIP state for LLC
Heartbeat_Variant_0 : 1296 0.210938 per_variant_size: 0 1296 0 0 0 0 0 0 0 
Heartbeat_Variant_1 : 1298 0.211263 per_variant_size: 0 815 483 0 0 0 0 0 0 
Heartbeat_Variant_2 : 1413 0.22998 per_variant_size: 0 710 384 179 140 0 0 0 0 
Heartbeat_Variant_3 : 0 0 per_variant_size: 0 0 0 0 0 0 0 0 0 
Heartbeat_Variant_0_evicts 0 : 5651 1 : 11 2 : 13 3 : 0 
Heartbeat_Variant_1_evicts 0 : 15 1 : 0 2 : 207 3 : 0 
Heartbeat_Variant_2_evicts 0 : 11 1 : 203 2 : 0 3 : 0 
Heartbeat_Variant_3_evicts 0 : 0 1 : 0 2 : 0 3 : 0 
Heartbeat CPU 0 instructions: 10000003 cycles: 2797875 heartbeat IPC: 3.57414 cumulative IPC: 3.57414 (Simulation time: 0 hr 2 min 11 sec) 
Heartbeat_Variant_0 : 1374 0.223633 per_variant_size: 0 1374 0 0 0 0 0 0 0 
Heartbeat_Variant_1 : 1370 0.222982 per_variant_size: 0 823 547 0 0 0 0 0 0 
Heartbeat_Variant_2 : 1491 0.242676 per_variant_size: 0 720 405 194 172 0 0 0 0 
Heartbeat_Variant_3 : 0 0 per_variant_size: 0 0 0 0 0 0 0 0 0 
Heartbeat_Variant_0_evicts 0 : 5637 1 : 7 2 : 7 3 : 0 
Heartbeat_Variant_1_evicts 0 : 5 1 : 0 2 : 201 3 : 0 
Heartbeat_Variant_2_evicts 0 : 12 1 : 202 2 : 0 3 : 0 
Heartbeat_Variant_3_evicts 0 : 0 1 : 0 2 : 0 3 : 0 
Heartbeat CPU 0 instructions: 20000002 cycles: 5594710 heartbeat IPC: 3.57547 cumulative IPC: 3.57481 (Simulation time: 0 hr 4 min 24 sec) 
Heartbeat_Variant_0 : 1465 0.238444 per_variant_size: 0 1465 0 0 0 0 0 0 0 
Heartbeat_Variant_1 : 1496 0.24349 per_variant_size: 0 850 646 0 0 0 0 0 0 
Heartbeat_Variant_2 : 1577 0.256673 per_variant_size: 0 743 422 212 200 0 0 0 0 
Heartbeat_Variant_3 : 0 0 per_variant_size: 0 0 0 0 0 0 0 0 0 
Heartbeat_Variant_0_evicts 0 : 5567 1 : 14 2 : 13 3 : 0 
Heartbeat_Variant_1_evicts 0 : 10 1 : 0 2 : 210 3 : 0 
Heartbeat_Variant_2_evicts 0 : 16 1 : 209 2 : 0 3 : 0 
Heartbeat_Variant_3_evicts 0 : 0 1 : 0 2 : 0 3 : 0 
Heartbeat CPU 0 instructions: 30000001 cycles: 8391884 heartbeat IPC: 3.57504 cumulative IPC: 3.57488 (Simulation time: 0 hr 6 min 35 sec) 
Heartbeat_Variant_0 : 1465 0.238444 per_variant_size: 0 1465 0 0 0 0 0 0 0 
Heartbeat_Variant_1 : 1499 0.243978 per_variant_size: 0 852 647 0 0 0 0 0 0 
Heartbeat_Variant_2 : 1577 0.256673 per_variant_size: 0 743 421 214 199 0 0 0 0 
Heartbeat_Variant_3 : 0 0 per_variant_size: 0 0 0 0 0 0 0 0 0 
Heartbeat_Variant_0_evicts 0 : 5548 1 : 0 2 : 0 3 : 0 
Heartbeat_Variant_1_evicts 0 : 0 1 : 0 2 : 195 3 : 0 
Heartbeat_Variant_2_evicts 0 : 0 1 : 195 2 : 0 3 : 0 
Heartbeat_Variant_3_evicts 0 : 0 1 : 0 2 : 0 3 : 0 
Heartbeat CPU 0 instructions: 40000000 cycles: 11188976 heartbeat IPC: 3.57514 cumulative IPC: 3.57495 (Simulation time: 0 hr 8 min 46 sec) 
Heartbeat_Variant_0 : 1480 0.240885 per_variant_size: 0 1480 0 0 0 0 0 0 0 
Heartbeat_Variant_1 : 1530 0.249023 per_variant_size: 0 862 668 0 0 0 0 0 0 
Heartbeat_Variant_2 : 1592 0.259115 per_variant_size: 0 751 423 214 204 0 0 0 0 
Heartbeat_Variant_3 : 0 0 per_variant_size: 0 0 0 0 0 0 0 0 0 
Heartbeat_Variant_0_evicts 0 : 5542 1 : 2 2 : 2 3 : 0 
Heartbeat_Variant_1_evicts 0 : 3 1 : 0 2 : 202 3 : 0 
Heartbeat_Variant_2_evicts 0 : 2 1 : 199 2 : 0 3 : 0 
Heartbeat_Variant_3_evicts 0 : 0 1 : 0 2 : 0 3 : 0 
Heartbeat CPU 0 instructions: 50000001 cycles: 13985848 heartbeat IPC: 3.57542 cumulative IPC: 3.57504 (Simulation time: 0 hr 10 min 50 sec) 

Warmup complete CPU 0 instructions: 50000001 cycles: 13985848 (Simulation time: 0 hr 10 min 50 sec) 

Cycle: 20000000 FTQ IN: 58260729 FTQ occupancy: 20.1025 DECODE IN: 58260619 DECODE occupancy: 52.2334 ROB IN: 58260579 ROB occupancy: 314.507 ROB OUT: 58260227
Heartbeat_Variant_0 : 1483 0.241374 per_variant_size: 0 1483 0 0 0 0 0 0 0 
Heartbeat_Variant_1 : 1533 0.249512 per_variant_size: 0 866 667 0 0 0 0 0 0 
Heartbeat_Variant_2 : 1593 0.259277 per_variant_size: 0 751 424 216 202 0 0 0 0 
Heartbeat_Variant_3 : 0 0 per_variant_size: 0 0 0 0 0 0 0 0 0 
Heartbeat_Variant_0_evicts 0 : 5691 1 : 3 2 : 3 3 : 0 
Heartbeat_Variant_1_evicts 0 : 2 1 : 0 2 : 199 3 : 0 
Heartbeat_Variant_2_evicts 0 : 2 1 : 198 2 : 0 3 : 0 
Heartbeat_Variant_3_evicts 0 : 0 1 : 0 2 : 0 3 : 0 
Heartbeat CPU 0 instructions: 60000002 cycles: 21254937 heartbeat IPC: 1.37569 cumulative IPC: 1.37569 (Simulation time: 0 hr 13 min 7 sec) 
Heartbeat_Variant_0 : 1483 0.241374 per_variant_size: 0 1483 0 0 0 0 0 0 0 
Heartbeat_Variant_1 : 1533 0.249512 per_variant_size: 0 868 665 0 0 0 0 0 0 
Heartbeat_Variant_2 : 1593 0.259277 per_variant_size: 0 750 424 211 208 0 0 0 0 
Heartbeat_Variant_3 : 0 0 per_variant_size: 0 0 0 0 0 0 0 0 0 
Heartbeat_Variant_0_evicts 0 : 5579 1 : 0 2 : 0 3 : 0 
Heartbeat_Variant_1_evicts 0 : 0 1 : 0 2 : 196 3 : 0 
Heartbeat_Variant_2_evicts 0 : 0 1 : 196 2 : 0 3 : 0 
Heartbeat_Variant_3_evicts 0 : 0 1 : 0 2 : 0 3 : 0 
Heartbeat CPU 0 instructions: 70000000 cycles: 28495227 heartbeat IPC: 1.38116 cumulative IPC: 1.37842 (Simulation time: 0 hr 15 min 23 sec) 
Cycle: 30000000 FTQ IN: 13701727 FTQ occupancy: 13.3613 DECODE IN: 13701734 DECODE occupancy: 34.3572 ROB IN: 13701714 ROB occupancy: 236.134 ROB OUT: 13701714
Heartbeat_Variant_0 : 1483 0.241374 per_variant_size: 0 1483 0 0 0 0 0 0 0 
Heartbeat_Variant_1 : 1533 0.249512 per_variant_size: 0 868 665 0 0 0 0 0 0 
Heartbeat_Variant_2 : 1594 0.25944 per_variant_size: 0 752 421 218 203 0 0 0 0 
Heartbeat_Variant_3 : 0 0 per_variant_size: 0 0 0 0 0 0 0 0 0 
Heartbeat_Variant_0_evicts 0 : 5531 1 : 0 2 : 0 3 : 0 
Heartbeat_Variant_1_evicts 0 : 1 1 : 0 2 : 195 3 : 0 
Heartbeat_Variant_2_evicts 0 : 0 1 : 196 2 : 0 3 : 0 
Heartbeat_Variant_3_evicts 0 : 0 1 : 0 2 : 0 3 : 0 
Heartbeat CPU 0 instructions: 80000000 cycles: 35820476 heartbeat IPC: 1.36514 cumulative IPC: 1.37396 (Simulation time: 0 hr 17 min 56 sec) 
Cycle: 40000000 FTQ IN: 13799638 FTQ occupancy: 13.3256 DECODE IN: 13799614 DECODE occupancy: 34.5882 ROB IN: 13799614 ROB occupancy: 238.22 ROB OUT: 13799714
Heartbeat_Variant_0 : 1487 0.242025 per_variant_size: 0 1487 0 0 0 0 0 0 0 
Heartbeat_Variant_1 : 1535 0.249837 per_variant_size: 0 870 665 0 0 0 0 0 0 
Heartbeat_Variant_2 : 1593 0.259277 per_variant_size: 0 750 421 221 201 0 0 0 0 
Heartbeat_Variant_3 : 0 0 per_variant_size: 0 0 0 0 0 0 0 0 0 
Heartbeat_Variant_0_evicts 0 : 5520 1 : 2 2 : 0 3 : 0 
Heartbeat_Variant_1_evicts 0 : 1 1 : 0 2 : 196 3 : 0 
Heartbeat_Variant_2_evicts 0 : 0 1 : 195 2 : 0 3 : 0 
Heartbeat_Variant_3_evicts 0 : 0 1 : 0 2 : 0 3 : 0 
Heartbeat CPU 0 instructions: 90000002 cycles: 43079164 heartbeat IPC: 1.37766 cumulative IPC: 1.37489 (Simulation time: 0 hr 20 min 16 sec) 
Cycle: 50000000 FTQ IN: 13658593 FTQ occupancy: 13.3302 DECODE IN: 13658677 DECODE occupancy: 34.2173 ROB IN: 13658677 ROB occupancy: 235.942 ROB OUT: 13658581
Heartbeat_Variant_0 : 1497 0.243652 per_variant_size: 0 1497 0 0 0 0 0 0 0 
Heartbeat_Variant_1 : 1550 0.252279 per_variant_size: 0 884 666 0 0 0 0 0 0 
Heartbeat_Variant_2 : 1602 0.260742 per_variant_size: 0 758 420 220 204 0 0 0 0 
Heartbeat_Variant_3 : 0 0 per_variant_size: 0 0 0 0 0 0 0 0 0 
Heartbeat_Variant_0_evicts 0 : 5518 1 : 4 2 : 2 3 : 0 
Heartbeat_Variant_1_evicts 0 : 5 1 : 0 2 : 197 3 : 0 
Heartbeat_Variant_2_evicts 0 : 1 1 : 198 2 : 0 3 : 0 
Heartbeat_Variant_3_evicts 0 : 0 1 : 0 2 : 0 3 : 0 
Heartbeat CPU 0 instructions: 100000003 cycles: 50423385 heartbeat IPC: 1.36161 cumulative IPC: 1.37221 (Simulation time: 0 hr 21 min 58 sec) 
Finished CPU 0 instructions: 50000002 cycles: 36437537 cumulative IPC: 1.37221 (Simulation time: 0 hr 21 min 58 sec) 

ChampSim completed all CPUs

Region of Interest Statistics

CPU 0 cumulative IPC: 1.37221 instructions: 50000002 cycles: 36437537
 Fetch stage stalled: 53.1672  Sim cycles: 36437537 fetch stall cycle: 19372809
 Empty decode stage: 34.0068  Sim cycles: 36437537 fetch stall cycle: 12391229
ITLB TOTAL     ACCESS:    5872345  HIT:    5376419  MISS:     495926  HIT %:    91.5549  MISS %:    8.44511   MPKI: 9.91852
ITLB LOAD TRANSLATION INSTRUCTION	ACCESS:    5751146  HIT:    5255220  MISS:     495926  HIT %:    91.3769  MISS %:    8.62308  MPKI: 9.91852
ITLB TRANSLATION FROM L1D PREFETCHER INSTRUCTION	ACCESS:     121199  HIT:     121199  MISS:          0  HIT %:        100  MISS %:          0  MPKI: 0

ITLB AVERAGE MISS LATENCY: 9.06624 cycles
ITLB RQ	ACCESS:    8028466	FORWARD:          0	MERGED:    1711479	TO_CACHE:    6316987

DTLB TOTAL     ACCESS:    8979098  HIT:    8507563  MISS:     471535  HIT %:    94.7485  MISS %:    5.25147   MPKI: 9.4307
DTLB LOAD TRANSLATION DATA	ACCESS:    8979098  HIT:    8507563  MISS:     471535  HIT %:    94.7485  MISS %:    5.25147  MPKI: 9.4307

DTLB AVERAGE MISS LATENCY: 9.35033 cycles
DTLB RQ	ACCESS:   13343438	FORWARD:          0	MERGED:    4328047	TO_CACHE:    9015391

STLB TOTAL     ACCESS:    1214809  HIT:    1212586  MISS:       2223  HIT %:     99.817  MISS %:   0.182992   MPKI: 0.04446
STLB LOAD TRANSLATION INSTRUCTION	ACCESS:     495926  HIT:     495626  MISS:        300  HIT %:    99.9395  MISS %:  0.0604929  MPKI: 0.006
STLB LOAD TRANSLATION DATA	ACCESS:     471535  HIT:     469637  MISS:       1898  HIT %:    99.5975  MISS %:   0.402515  MPKI: 0.03796
STLB TRANSLATION FROM L1D PREFETCHER DATA	ACCESS:     247348  HIT:     247323  MISS:         25  HIT %:    99.9899  MISS %:  0.0101072  MPKI: 0.0005

STLB AVERAGE MISS LATENCY: 75.5227 cycles
STLB RQ	ACCESS:    1335103	FORWARD:          0	MERGED:     120251	TO_CACHE:    1214852

STLB Hit, L1D data hit: 0
STLB Hit, L2C data hit: 0
STLB Hit, LLC data hit: 0
STLB Hit, LLC data miss: 0
STLB STLB hints to L2: 0
L1D TOTAL     ACCESS:   13085960  HIT:   11960648  MISS:    1125312  HIT %:    91.4006  MISS %:    8.59938   MPKI: 22.5062
L1D LOAD DATA	ACCESS:    6552661  HIT:    5810660  MISS:     742001  HIT %:    88.6763  MISS %:    11.3237  MPKI: 14.84
L1D RFO DATA	ACCESS:    6206913  HIT:    5919127  MISS:     287786  HIT %:    95.3635  MISS %:    4.63654  MPKI: 5.75572
L1D PREFETCH DATA	ACCESS:     326386  HIT:     230861  MISS:      95525  HIT %:    70.7325  MISS %:    29.2675  MPKI: 1.9105

L1D PREFETCH  REQUESTED:     735622  ISSUED:     735622  USEFUL:      35305  USELESS:      68388
L1D USEFUL LOAD PREFETCHES:      35305 PREFETCH ISSUED TO LOWER LEVEL:     103742  ACCURACY: 34.0315
 TIMELY PREFETCHES:      35305 LATE PREFETCHES: 8170 DROPPED PREFETCHES: 11
L1D AVERAGE MISS LATENCY: 233708 cycles
L1D RQ	ACCESS:   10695335	FORWARD:          0	MERGED:    3945342	TO_CACHE:    6587759
L1D WQ	ACCESS:    6955226	FORWARD:     162572	MERGED:     199547	TO_CACHE:    6755679
L1D PQ	ACCESS:     367980	FORWARD:          0	MERGED:          0	TO_CACHE:     367642

L1D UNIQUE REGIONS ACCESSED: 0
L1D REGIONS CONFLICTS: 0
L1D Cross Page Prefetch Requests: 6930
L1D Same Page Prefetch Requests: 746434
L1D ROI Sum of L1D PQ occupancy: 4673654
L1D PREFETCHES PUSHED FROM L2C: 0
L1I TOTAL     ACCESS:    7173241  HIT:    4400715  MISS:    2772526  HIT %:     61.349  MISS %:     38.651   MPKI: 55.4505
L1I LOAD INSTRUCTION	ACCESS:    6504608  HIT:    3732082  MISS:    2772526  HIT %:     57.376  MISS %:     42.624  MPKI: 55.4505
L1I PREFETCH INSTRUCTION	ACCESS:     668633  HIT:     668633  MISS:          0  HIT %:        100  MISS %:          0  MPKI: 0

L1I PREFETCH  REQUESTED:    1620775  ISSUED:    1620775  USEFUL:          0  USELESS:          0
L1I USEFUL LOAD PREFETCHES:          0 PREFETCH ISSUED TO LOWER LEVEL:          0  ACCURACY: -nan
 TIMELY PREFETCHES:          0 LATE PREFETCHES: 0 DROPPED PREFETCHES: 0
L1I AVERAGE MISS LATENCY: 17.7867 cycles
L1I RQ	ACCESS:    9508644	FORWARD:          0	MERGED:    2669376	TO_CACHE:    6839268
L1I PQ	ACCESS:    1620775	FORWARD:          0	MERGED:     431577	TO_CACHE:    1189198

L1BTB TOTAL     ACCESS:    5668976  HIT:    2030783  MISS:    3638193  HIT %:    35.8227  MISS %:    64.1773   MPKI: 72.7639
L1BTB BRANCH_DIRECT_JUMP	ACCESS:     546722  HIT:     143064  MISS:     403658	AVERAGE STALL: 49.293
L1BTB BRANCH_INDIRECT	ACCESS:     182359  HIT:      65547  MISS:     116812	AVERAGE STALL: 107.399
L1BTB BRANCH_CONDITIONAL	ACCESS:    2702636  HIT:    1407517  MISS:    1295119	AVERAGE STALL: 61.1372
L1BTB BRANCH_DIRECT_CALL	ACCESS:     946875  HIT:     104015  MISS:     842860	AVERAGE STALL: 65.8843
L1BTB BRANCH_INDIRECT_CALL	ACCESS:     171762  HIT:      20939  MISS:     150823	AVERAGE STALL: 134.625
L1BTB BRANCH_RETURN	ACCESS:    1118622  HIT:     289701  MISS:     828921	AVERAGE STALL: 47.9349
L1BTB BRANCH_OTHER ACCESS:          0  HIT:          0  MISS:          0	AVERAGE STALL: -nan
L1BTB TOTAL ROB OCCUPANCY AT BTB MISS: 2.42384

L2BTB TOTAL     ACCESS:    3612866  HIT:    3550101  MISS:      62765  HIT %:    98.2627  MISS %:    1.73726   MPKI: 1.2553
L2BTB BRANCH_DIRECT_JUMP	ACCESS:     399546  HIT:     395734  MISS:       3812	AVERAGE STALL: 49.293
L2BTB BRANCH_INDIRECT	ACCESS:     106490  HIT:     103774  MISS:       2716	AVERAGE STALL: 107.399
L2BTB BRANCH_CONDITIONAL	ACCESS:    1295119  HIT:    1290117  MISS:       5002	AVERAGE STALL: 61.1372
L2BTB BRANCH_DIRECT_CALL	ACCESS:     842860  HIT:     842418  MISS:        442	AVERAGE STALL: 65.8843
L2BTB BRANCH_INDIRECT_CALL	ACCESS:     141338  HIT:     131230  MISS:      10108	AVERAGE STALL: 134.625
L2BTB BRANCH_RETURN	ACCESS:     827513  HIT:     786828  MISS:      40685	AVERAGE STALL: 47.9349
L2BTB BRANCH_OTHER ACCESS:          0  HIT:          0  MISS:          0	AVERAGE STALL: -nan
L2BTB TOTAL ROB OCCUPANCY AT BTB MISS: 140.498

L2C TOTAL     ACCESS:    4515043  HIT:    3976481  MISS:     538562  HIT %:    88.0718  MISS %:    11.9282   MPKI: 10.7712
L2C LOAD INSTRUCTION	ACCESS:    2772526  HIT:    2459526  MISS:     313000  HIT %:    88.7107  MISS %:    11.2893  MPKI: 6.26
L2C LOAD TRANSLATION INSTRUCTION	ACCESS:        339  HIT:         78  MISS:        261  HIT %:    23.0088  MISS %:    76.9912  MPKI: 0.00522
L2C LOAD DATA	ACCESS:     733788  HIT:     653868  MISS:      79920  HIT %:    89.1086  MISS %:    10.8914  MPKI: 1.5984
L2C RFO DATA	ACCESS:     287702  HIT:     234833  MISS:      52869  HIT %:    81.6237  MISS %:    18.3763  MPKI: 1.05738
L2C PREFETCH DATA	ACCESS:     193378  HIT:     118118  MISS:      75260  HIT %:    61.0814  MISS %:    38.9186  MPKI: 1.5052
L2C WRITEBACK DATA	ACCESS:     525279  HIT:     509418  MISS:      15861  HIT %:    96.9805  MISS %:    3.01954  MPKI: 0.31722
L2C LOAD TRANSLATION DATA	ACCESS:       1978  HIT:        602  MISS:       1376  HIT %:    30.4348  MISS %:    69.5652  MPKI: 0.02752
L2C TRANSLATION FROM L1D PREFETCHER DATA	ACCESS:         53  HIT:         38  MISS:         15  HIT %:    71.6981  MISS %:    28.3019  MPKI: 0.0003

L2C PREFETCH  REQUESTED:      98241  ISSUED:      98241  USEFUL:       7989  USELESS:      68113
L2C USEFUL LOAD PREFETCHES:       7989 PREFETCH ISSUED TO LOWER LEVEL:      76043  ACCURACY: 10.5059
 TIMELY PREFETCHES:       7989 LATE PREFETCHES: 783 DROPPED PREFETCHES: 0
L2C AVERAGE MISS LATENCY: 38.0744 cycles
L2C RQ	ACCESS:    3796467	FORWARD:          0	MERGED:          0	TO_CACHE:    3796388
L2C WQ	ACCESS:     525279	FORWARD:         79	MERGED:          0	TO_CACHE:     525279
L2C PQ	ACCESS:     201983	FORWARD:          0	MERGED:       3603	TO_CACHE:     198380

L2C Dense regions hint from L2: 0
PSCL5 TOTAL     ACCESS:       4472  HIT:       2236  MISS:       2236  HIT %:         50  MISS %:         50   MPKI: 0.04472
PSCL5 LOAD TRANSLATION INSTRUCTION	ACCESS:       4366  HIT:       2183  MISS:       2183  HIT %:         50  MISS %:         50  MPKI: 0.04366
PSCL5 TRANSLATION FROM L1D PREFETCHER INSTRUCTION	ACCESS:        106  HIT:         53  MISS:         53  HIT %:         50  MISS %:         50  MPKI: 0.00106


PSCL4 TOTAL     ACCESS:       4035  HIT:       2014  MISS:       2021  HIT %:    49.9133  MISS %:    50.0867   MPKI: 0.04042
PSCL4 LOAD TRANSLATION INSTRUCTION	ACCESS:       1968  HIT:       1968  MISS:          0  HIT %:        100  MISS %:          0  MPKI: 0
PSCL4 TRANSLATION FROM L1D PREFETCHER INSTRUCTION	ACCESS:         46  HIT:         46  MISS:          0  HIT %:        100  MISS %:          0  MPKI: 0
PSCL4 LOAD TRANSLATION DATA	ACCESS:       1975  HIT:          0  MISS:       1975  HIT %:          0  MISS %:        100  MPKI: 0.0395
PSCL4 TRANSLATION FROM L1D PREFETCHER DATA	ACCESS:         46  HIT:          0  MISS:         46  HIT %:          0  MISS %:        100  MPKI: 0.00092


PSCL3 TOTAL     ACCESS:       4045  HIT:       2019  MISS:       2026  HIT %:    49.9135  MISS %:    50.0865   MPKI: 0.04052
PSCL3 LOAD TRANSLATION INSTRUCTION	ACCESS:       1973  HIT:       1973  MISS:          0  HIT %:        100  MISS %:          0  MPKI: 0
PSCL3 TRANSLATION FROM L1D PREFETCHER INSTRUCTION	ACCESS:         46  HIT:         46  MISS:          0  HIT %:        100  MISS %:          0  MPKI: 0
PSCL3 LOAD TRANSLATION DATA	ACCESS:       1980  HIT:          0  MISS:       1980  HIT %:          0  MISS %:        100  MPKI: 0.0396
PSCL3 TRANSLATION FROM L1D PREFETCHER DATA	ACCESS:         46  HIT:          0  MISS:         46  HIT %:          0  MISS %:        100  MPKI: 0.00092


PSCL2 TOTAL     ACCESS:       4352  HIT:       2116  MISS:       2236  HIT %:    48.6213  MISS %:    51.3787   MPKI: 0.04472
PSCL2 LOAD TRANSLATION INSTRUCTION	ACCESS:       2361  HIT:       2063  MISS:        298  HIT %:    87.3782  MISS %:    12.6218  MPKI: 0.00596
PSCL2 TRANSLATION FROM L1D PREFETCHER INSTRUCTION	ACCESS:         53  HIT:         53  MISS:          0  HIT %:        100  MISS %:          0  MPKI: 0
PSCL2 LOAD TRANSLATION DATA	ACCESS:       1885  HIT:          0  MISS:       1885  HIT %:          0  MISS %:        100  MPKI: 0.0377
PSCL2 TRANSLATION FROM L1D PREFETCHER DATA	ACCESS:         53  HIT:          0  MISS:         53  HIT %:          0  MISS %:        100  MPKI: 0.00106


LLC TOTAL     ACCESS:     598784  HIT:     568144  MISS:      30640  HIT %:     94.883  MISS %:    5.11704   MPKI: 0.6128
LLC LOAD INSTRUCTION	ACCESS:     313000  HIT:     311924  MISS:       1076  HIT %:    99.6562  MISS %:    0.34377  MPKI: 0.02152
LLC LOAD TRANSLATION INSTRUCTION	ACCESS:        261  HIT:        216  MISS:         45  HIT %:    82.7586  MISS %:    17.2414  MPKI: 0.0009
LLC LOAD DATA	ACCESS:      79165  HIT:      75461  MISS:       3704  HIT %:    95.3212  MISS %:    4.67884  MPKI: 0.07408
LLC RFO DATA	ACCESS:      52821  HIT:      37552  MISS:      15269  HIT %:    71.0929  MISS %:    28.9071  MPKI: 0.30538
LLC PREFETCH DATA	ACCESS:      76043  HIT:      65997  MISS:      10046  HIT %:    86.7891  MISS %:    13.2109  MPKI: 0.20092
LLC WRITEBACK DATA	ACCESS:      76103  HIT:      75693  MISS:        410  HIT %:    99.4613  MISS %:   0.538744  MPKI: 0.0082
LLC LOAD TRANSLATION DATA	ACCESS:       1376  HIT:       1286  MISS:         90  HIT %:    93.4593  MISS %:     6.5407  MPKI: 0.0018
LLC TRANSLATION FROM L1D PREFETCHER DATA	ACCESS:         15  HIT:         15  MISS:          0  HIT %:        100  MISS %:          0  MPKI: 0

LLC AVERAGE MISS LATENCY: 156.01 cycles
LLC RQ	ACCESS:     446658	FORWARD:          0	MERGED:          0	TO_CACHE:     446638
LLC WQ	ACCESS:      76103	FORWARD:         20	MERGED:          0	TO_CACHE:      76103
LLC PQ	ACCESS:      76043	FORWARD:          0	MERGED:          0	TO_CACHE:      76043

LLC Dense regions hint to LLC: 0

RAW hits: 1943525
Loads Generated: 12638860
Loads sent to L1D: 10695335
Stores Generated: 6955224
Stores sent to L1D: 6955226
Major fault: 0 Minor fault: 2610
Allocated PAGES: 2610

stream: 
stream:times selected: 1181532
stream:pref_filled: 121985
stream:pref_useful: 24347
stream:pref_late: 6982
stream:misses: 7906
stream:misses_by_poll: 0

CS: 
CS:times selected: 177164
CS:pref_filled: 59070
CS:pref_useful: 35819
CS:pref_late: 7116
CS:misses: 16893
CS:misses_by_poll: 10

CPLX: 
CPLX:times selected: 1003223
CPLX:pref_filled: 19552
CPLX:pref_useful: 4559
CPLX:pref_late: 3249
CPLX:misses: 94299
CPLX:misses_by_poll: 0

NL_L1: 
NL:times selected: 20834
NL:pref_filled: 730
NL:pref_useful: 321
NL:pref_late: 272
NL:misses: 1669
NL:misses_by_poll: 0

total selections: 2382753
total_filled: 95525
total_useful: 35305
total_late: 18918
total_polluted: 10
total_misses_after_warmup: 777098
conflicts: 5528824

test: 115635

DRAM Statistics
 CHANNEL 0
 RQ ROW_BUFFER_HIT:      11417  ROW_BUFFER_MISS:      18795
 DBUS_CONGESTED:          2
 WQ ROW_BUFFER_HIT:       1435  ROW_BUFFER_MISS:      12521  FULL:          0

 AVG_CONGESTED_CYCLE: 5

CPU 0 Branch Prediction Accuracy: 99.8224% MPKI: 0.3247 Average ROB Occupancy at Mispredict: 186.879
Branch types
NOT_BRANCH: 40856601 81.7132%
BRANCH_DIRECT_JUMP: 546722 1.09344%
BRANCH_INDIRECT: 182359 0.364718%
BRANCH_CONDITIONAL: 6176978 12.354%
BRANCH_DIRECT_CALL: 946875 1.89375%
BRANCH_INDIRECT_CALL: 171762 0.343524%
BRANCH_RETURN: 1118622 2.23724%
BRANCH_OTHER: 0 0%

DRAM PAGES: 1048576
Allocated PAGES: 2610
Average_ROB_Occupancy: 237.78
Average_Decode_Occupancy: 34.3271
Average_FTQ_Occupancy: 13.3364
Indirect max targets: 14 Average targets: 1.18153
Branch_type:  BRANCH_DIRECT_JUMP:  Count Percentage: 3.64059 5.51221 4.15484 8.95434 2.234 6.02354 1.29554 68.1849 
Branch_type:  BRANCH_INDIRECT:  Count Percentage: 6.13022 3.40258 8.15639 9.6754 3.35112 2.81441 3.08454 63.3853 
Branch_type:  BRANCH_CONDITIONAL:  Count Percentage: 24.8755 3.11724 1.43078 4.60604 1.84534 3.60133 1.07319 59.4506 
Branch_type:  BRANCH_DIRECT_CALL:  Count Percentage: 0.897876 1.27962 0.724862 3.95515 2.38908 2.81638 1.0938 86.8432 
Branch_type:  BRANCH_INDIRECT_CALL:  Count Percentage: 9.57775 0 3.0034 0.000874521 0 2.27142 3.28528 81.8613 
Branch_type:  BRANCH_RETURN:  Count Percentage: 8.31836 1.22712 1.02689 3.93619 3.53837 3.67503 1.45792 76.8201 
Branch_type:  BRANCH_DIRECT_JUMP:  Total Count: 39864 60358 45495 98049 24462 65957 14186 746617 
Branch_type:  BRANCH_INDIRECT:  Total Count: 22398 12432 29801 35351 12244 10283 11270 231591 
Branch_type:  BRANCH_CONDITIONAL:  Total Count: 3073339 385132 176771 569072 227990 444941 132592 7345069 
Branch_type:  BRANCH_DIRECT_CALL:  Total Count: 16970 24185 13700 74753 45154 53230 20673 1641350 
Branch_type:  BRANCH_INDIRECT_CALL:  Total Count: 32856 0 10303 3 0 7792 11270 280821 
Branch_type:  BRANCH_RETURN:  Total Count: 185827 27413 22940 87932 79045 82098 32569 1716114 
Number of unique branch instructions: 10659
Upper 32 bits: 
aaaa
ffff
ffff0000
Unique upper 32 bits: 3
Unique upper 36 bits: 3
Unique upper 40 bits: 5
Unique upper 44 bits: 32
Unique upper 48 bits: 157
Variant_0 : 1497 0.243652
Variant_1 : 1550 0.252279
Variant_2 : 1602 0.260742
Variant_3 : 0 0
Offset_3 4421
Offset_4 254
Offset_5 475
Offset_6 535
Offset_7 630
Offset_8 575
Offset_9 508
Offset_10 413
Offset_11 343
Offset_12 322
Offset_13 240
Offset_14 245
Offset_15 197
Offset_16 223
Offset_17 165
Offset_18 152
Offset_19 258
Offset_20 144
Offset_21 235
Offset_22 405
Offset_23 241
Offset_24 348
Offset_25 117
Offset_47 94
Offset_64 1
decode_dispatch_called: 25557291 70.14
Dispatch_width: 0 13770588 53.8813 37.7923
Dispatch_width: 1 949184 3.71395 2.60496
Dispatch_width: 2 814630 3.18747 2.23569
Dispatch_width: 3 482719 1.88877 1.32478
Dispatch_width: 4 5563140 21.7673 15.2676
Dispatch_width: 5 141339 0.553028 0.387894
Dispatch_width: 6 3835691 15.0082 10.5268
Empty_decode_cycles: 10880246 29.86
ROB_full_cycles: 8988468 24.6682
Starvation_cycles_per_kilo_instr: 236.134
Starvation_cycles_per_kilo_instr_3: 179.089
Starvation_cycles_per_kilo_instr_0: 156.624
Branch_type_1  (3,1)  (4,7)  (5,38)  (6,73)  (7,124)  (8,146)  (9,134)  (10,109)  (11,75)  (12,55)  (13,11)  (14,2)  (15,3)  (16,4)  (18,1)  (19,5)  (20,2)  (21,1)  (22,3)  (23,2)  (24,10)  (25,12) 
Branch_type_2  (3,1)  (4,1)  (5,1)  (8,4)  (9,4)  (10,1)  (12,1)  (13,1)  (14,1)  (16,3)  (17,2)  (20,2)  (21,2)  (23,5)  (24,1)  (47,43)  (64,1) 
Branch_type_3  (3,4419)  (4,246)  (5,432)  (6,445)  (7,475)  (8,360)  (9,277)  (10,164)  (11,132)  (12,62)  (13,10) 
Branch_type_4  (6,4)  (7,8)  (8,26)  (9,55)  (10,66)  (11,70)  (12,113)  (13,102)  (14,111)  (15,93)  (16,98)  (17,76)  (18,65)  (19,124)  (20,73)  (21,124)  (22,213)  (23,136)  (24,204)  (25,101) 
Branch_type_5  (8,3)  (9,1)  (10,4)  (11,5)  (12,3)  (13,14)  (14,16)  (15,11)  (16,22)  (17,11)  (18,23)  (19,14)  (20,11)  (21,13)  (22,43)  (23,26)  (24,37) 
Branch_type_6  (5,4)  (6,13)  (7,23)  (8,36)  (9,37)  (10,69)  (11,61)  (12,88)  (13,102)  (14,115)  (15,90)  (16,96)  (17,76)  (18,63)  (19,115)  (20,56)  (21,95)  (22,146)  (23,72)  (24,96)  (25,4)  (47,51) 
Unique trigger count: 
Variant_0_evicts_0 : 0
Variant_0_evicts_1 : 0
Variant_0_evicts_2 : 0
Variant_0_evicts_3 : 0
Variant_1_evicts_0 : 0
Variant_1_evicts_1 : 0
Variant_1_evicts_2 : 0
Variant_1_evicts_3 : 0
Variant_2_evicts_0 : 0
Variant_2_evicts_1 : 0
Variant_2_evicts_2 : 0
Variant_2_evicts_3 : 0
Variant_3_evicts_0 : 0
Variant_3_evicts_1 : 0
Variant_3_evicts_2 : 0
Variant_3_evicts_3 : 0
BTB PER SET UNIQUE ADDR: 8 4 7 7 9 7 6 6 7 7 6 9 4 6 7 7 4 5 8 7 2 3 3 5 9 7 3 9 5 9 7 6 6 9 11 3 4 4 3 4 5 7 8 5 3 4 5 4 7 8 4 2 6 6 7 4 8 5 4 6 7 4 8 8 8 7 4 3 9 8 6 6 4 6 8 7 6 6 7 7 8 8 10 10 7 7 6 9 4 7 4 8 3 7 6 5 7 11 6 4 4 4 6 7 6 5 4 3 6 10 7 3 9 7 8 7 5 5 3 8 7 3 3 4 9 6 7 7 6 5 6 7 7 2 5 6 5 5 6 6 4 7 7 7 8 8 8 4 5 7 7 8 9 5 5 3 5 6 4 7 7 3 4 4 5 6 5 9 6 5 6 3 8 8 4 6 5 9 6 6 6 3 5 10 4 3 4 4 9 6 8 8 5 6 5 7 7 7 6 5 8 6 5 4 7 10 6 7 6 4 6 6 7 8 5 4 7 8 4 4 4 6 3 4 7 5 6 7 6 7 3 9 7 10 6 9 9 4 5 6 6 9 7 5 6 9 6 9 8 8 6 8 4 4 2 6 4 4 7 5 10 6 8 3 5 5 4 10 4 7 4 6 6 8 7 7 8 4 6 7 11 4 3 7 8 8 5 5 6 5 6 5 7 6 6 8 4 3 6 5 6 5 4 5 8 4 6 8 9 5 5 6 5 6 6 7 7 7 7 4 7 8 5 3 9 6 7 7 2 6 5 8 4 3 6 6 5 5 7 6 4 7 7 11 6 7 8 4 4 7 7 7 3 5 3 7 3 8 6 6 5 7 5 7 4 4 4 4 5 7 7 5 7 6 5 7 4 5 4 5 9 7 6 5 7 7 3 4 4 6 6 5 7 7 5 3 10 12 4 4 6 7 6 6 6 5 8 7 7 6 5 4 3 5 8 8 9 10 8 5 6 5 6 9 4 9 6 9 7 5 6 6 10 4 4 6 9 5 6 5 5 4 4 8 6 3 3 5 5 6 8 6 5 5 5 7 5 4 6 6 7 9 8 9 5 4 6 9 4 6 9 6 5 5 6 8 4 7 5 4 6 6 6 6 4 7 8 7 7 6 9 5 4 5 3 8 6 5 5 6 6 8 6 6 8 6 2 9 6 5 2 4 4 3 1 2 7 2 5 4 3 5 5 5 3 4 2 9 4 4 7 3 4 6 3 6 4 5 3 5 5 4 5 6 3 4 4 5 5 3 2 8 1 5 5 7 3 1 6 6 3 4 3 6 4 3 3 3 3 2 5 2 2 4 2 4 6 3 5 5 2 5 4 4 5 2 3 5 4 6 6 4 5 4 3 6 5 5 4 3 4 3 1 2 3 5 4 4 3 2 2 4 2 3 2 6 4 4 4 5 5 3 4 3 6 5 1 5 4 7 3 3 4 3 5 4 3 4 6 4 7 4 1 2 5 3 4 4 3 3 5 3 5 4 3 5 5 3 4 3 3 2 4 5 2 3 6 3 6 3 6 5 3 3 4 2 3 4 3 6 4 3 2 3 5 4 2 8 7 5 6 4 4 2 4 4 4 3 2 6 5 3 4 2 4 5 4 5 7 6 5 2 2 5 3 3 4 4 3 5 5 5 3 4 7 5 5 2 3 6 3 5 4 4 4 3 7 4 2 5 5 8 5 7 3 1 6 3 3 2 4 6 5 3 3 5 2 3 1 2 5 5 4 7 2 4 5 9 3 7 5 2 4 6 4 3 5 4 2 6 3 5 3 5 9 6 3 5 5 4 8 4 3 5 4 2 8 3 3 3 5 4 6 2 5 3 6 4 4 4 6 1 2 3 5 5 4 5 3 4 4 5 4 2 3 3 4 2 3 4 5 6 1 7 3 3 6 5 3 3 3 5 3 3 5 4 5 4 3 4 5 6 3 3 5 5 4 5 2 5 3 5 3 5 7 2 5 3 6 5 3 4 5 3 1 4 3 5 2 3 5 3 4 3 4 4 9 4 2 0 7 3 3 3 4 2 3 4 4 2 3 2 4 5 5 2 5 4 5 8 4 5 2 4 6 5 3 4 6 3 3 6 3 5 3 3 5 2 3 2 5 6 4 4 6 3 4 2 2 4 6 3 2 5 2 3 4 3 6 4 5 4 5 6 8 3 4 4 3 3 4 4 5 3 3 2 9 3 4 6 4 4 4 6 2 7 3 6 5 3 4 2 3 5 3 2 4 2 6 4 4 3 3 6 3 3 3 5 2 4 4 2 4 3 4 4 5 6 5 3 3 4 6 4 4 2 2 4 5 3 2 3 5 6 5 3 6 5 4 4 4 5 3 3 4 6 5 8 2 4 6 4 3 4 7 3 4 6 2 3 3 3 4 4 3 6 5 3 2 2 3 6 4 3 2 2 7 2 5 2 4 6 3 5 3 4 5 5 3 6 5 3 3 4 2 4 3 3 3 4 3 5 3 4 4 3 3 5 2 5 4 7 3 8 3 5 2 5 1 3 3 4 4 2 8 4 5 5 5 4 3 3 2 6 2 4 3 7 2 2 4 3 3 2 3 3 6 2 3 5 5 7 5 2 3 2 2 3 6 4 4 5 1 2 3 1 4 6 4 3 5 3 5 3 3 3 2 5 5 3 6 4 5 3 2 5 3 6 5 6 2 3 6 5 3 5 5 3 5 6 4 3 3 3 4 3 4 5 3 2 3 3 1 4 11 3 4 2 5 3 3 5 3 4 4 3 5 3 4 4 5 1 2 5 4 5 2 5 4 1 5 3 3 3 5 3 4 5 3 1 1 4 6 2 3 3 4 3 5 6 3 4 4 3 7 2 4 4 3 4 3 4 5 7 2 3 5 4 3 6 6 4 3 2 2 3 4 5 6 3 6 4 8 5 6 3 3 3 5 2 2 4 5 2 4 6 3 4 4 4 5 2 2 6 4 3 4 4 5 4 5 7 6 2 3 3 4 3 4 3 3 4 4 4 4 2 3 4 9 6 3 2 3 6 6 2 4 4 4 7 4 3 5 3 2 7 4 3 5 3 3 2 3 9 4 2 4 4 5 4 3 1 3 4 4 4 3 5 5 5 4 3 2 7 5 7 3 5 3 4 2 3 2 3 5 3 6 6 5 5 3 3 2 4 1 8 3 4 4 6 3 4 6 2 2 3 6 5 2 7 4 3 5 4 6 5 4 2 1 2 3 4 3 5 7 5 5 4 4 6 4 3 4 2 3 6 5 4 4 4 4 5 2 2 5 5 3 3 2 4 4 3 2 3 3 4 5 4 5 5 4 2 4 8 4 6 2 3 4 5 5 2 4 3 4 3 5 3 6 7 6 2 3 5 3 3 5 2 5 4 3 4 4 6 4 8 3 5 3 3 4 2 6 6 5 5 4 3 8 1 4 5 4 4 4 4 7 7 6 6 4 3 5 5 3 3 5 4 4 5 3 5 5 4 5 4 
BTB PER SET COUNT: 8 4 1480 1476 9 8 8 6 7 7 6 11 5 6 735 7 4 6 8 7 2 3 3 5 833 431 5 375 8 10 3916 6 6 995 498 3 4 4 3 4 7 1267 8 5 3 965 489 4 7 8 4 2 491 6 7 4 8 5 4 1477 7 5 9 8 8 7 5 3 12 8 7 6 4 170 8 272 6 6 993 7 8 8 10 11 9 7 6 9 4 2948 4 8 3 7 7 5 9 11 6 4 5 4 6 7 7 5 4 3 6 2953 7 3 249 7 12 437 5 6 4 1818 9 3 3 7 9 6 8 7 6 5 7 8 7 2 6 8 6 5 6 10 791 7 7 7 9 9 12 4 8 13 8 509 9 5 5 989 5 8 4 12 7 3 4 4 5 7 5 9 6 1455 179 3 108 8 6 6 5 11 6 6 6 3 5 11 6 3 6 4 9 6 509 282 5 974 6 7 8 7 7 5 10 1478 6 4 8 12 6 7 40 4 10 8 8 8 5 4 63 838 5 4 4 7 3 4 8 7 6 491 6 7 3 10 7 10 973 16 9 4 5 6 6 9 7 5 6 10 7809 209 1479 8 1105 8 4 4 2 7 4 4 9 5 12 9 8 3 5 5 4 11 1475 8 4 6 6 9 7 7 29 7 8 7 11 4 97 7 44 8 5 5 6 5 6 5 8 7 7 10 5 3 7 5 6 5 4 7 9 4 8 8 9 17 5 6 5 6 6 7 9 7 8 4 7 9 91 3 1981 7 7 8 2 6 5 8 20611 3 8 10 7 5 8 11 4 7 7 11 7 7 11 4 4 7 7 7 3 9 3 10 3 9 9 114 7 7 1476 7 4 4 106 4 5 9 7 6 1961 491 5 8 4 6 4 5 10 353 6 5 7 8 3 4 5 6 6 555 7 7 5 3 11 270 4 4 8 7 6 6 6 5 8 7 7 6 6 4 3 6 8 8 9 552 8 5 6 5 6 980 4 9 6 10 493 6 7 974 10 4 4 529 14 5 2908 5 7 4 488 8 398 3 3 5 5 6 10 411 5 5 801 7 5 4 975 719 977 494 10 11 13 4 6 9 4 6 1662 6 9 7 6 10 4 7 5 4 6 6 23 427 5 7 977 2950 7 6 11 5 4 5 3 8 10 6 5 6 93 10 6 6 8 6 2 11 7 5 2 4 4 1940 1 2 7 487 5 4 3 5 6 5 3 4 2 9 4 6 1753 3 4 14 3 6 4 92 3 5 5 4 5 6 3 1475 4 5 6 3 2 977 969 5 5 7 3 1 6 6 3 4 3 6 4 3 3 3 3 5 6 2 2 4 2 4 7 3 5 5 2 5 9 4 5 2 3 5 4 1010 6 4 5 972 6 6 1476 5 4 3 4 3 969 2 3 5 4 4 3 2 2 4 2 3 2 6 11 4 14716 5 5 3 381 3 6 5 1 5 4 7 971 3 4 4 8 4 3 4 7 4 8 4 1 2 5 3 4 4 4 971 5 4 5 4 3 5 5 3 4 3 4 2 4 5 2 3 8 3 6 5 6 7 3 3 4 2 3 4 3 6 990 3 2 3 5 4 2 1479 7 5 6 4 6 3 4 4 4 3 2 7 5 3 4 2 4 5 4 5 7 6 7 2 2 5 3 487 4 4 3 6 6 5 4 4 7 5 6 3 3 9 3 5 4 4 5 3 7 4 2 5 5 8 7 7 3 1 6 3 3 2 990 6 5 3 971 5 2 3 1 3 5 5 4 7 2 4 6 2951 3 7 11 2 7 1980 4 3 1478 4 2 6 3 5 3 5 9 6 3 5 233 4 9 4 3 5 8 988 8 3 3 3 5 4 6 2 5 3 6 4 4 4 7 1 2 3 5 5 5 5 3 4 4 5 4 2 3 3 4 2 3 491 7 7 1 7 3 3 6 5 3 4 18 991 3 3 6 4 5 4 4 990 5 992 3 3 5 5 4 7 2 6 6 7 3 5 491 2 5 3 8 6 3 4 5 3 1 4 3 5 2 3 5 3 4 3 4 5 9 4 2 0 1479 3 3 3 6 2 367 6 4 2 3 2 4 5 6 2 5 5 6 1459 4 5 2 4 7 5 3 4 6 3 1455 992 3 5 3 3 5 2 3 2 7 6 4 7 6 3 4 2 2 4 6 3 2 14 2 3 4 3 6 5 6 4 5 6 2451 3 4 4 1939 3 6 4 5 3 4 2 9 3 4 6 4 4 4 8 3 8 3 10 5 3 1053 2 3 5 3 3 4 41 6 4 5 3 4 6 3 3 4 1476 2 46 4 3 5 3 4 4 5 6 5 3 3 4 6 5 4 3 2 4 6 3 2 3 5 6 5 3 6 505 4 4 114 5 3 5 4 6 5 10 3 4 6 488 35 5 7 5 4 6 2 3 3 3 5 6 3 6 6 247 2 2 3 6 5 3 2 2 7 2 5 2 4 425 4 7 3 4 12 5 3 12 7 3 3 4 2 4 3 70 3 4 3 5 4 4 4 3 3 5 2 5 6 8 4 2466 367 316 2 6 1 4 3 4 4 2 8 4 6 505 7 4 3 3 2 6 2 6 4 9 2 2 4 3 3 2 3 5 6 2 3 5 7 7 6 2 3 3 2 971 6 5 4 5 1 2 3 1 4 6 4 3 5 3 5 3 7 3 3 5 5 3 7 4 5 3 2 5 3 6 5 6 3 3 6 5 4 5 991 3 7 6 10 3 4 3 1991 3 4 5 3 2 3 3 1 5 11 3 4 2 6 55 1474 6 3 1475 4 4 5 3 4 4 5 1 2 5 4 5 2 6 4 1 1354 3 3 3 5 3 4 5 3 1 1 12 6 4 3 3 1475 3 6 6 3 7 4 24 9 2 4 4 3 4 3 41 5 8 2 3 5 4 3 7 6 4 4 2 2 3 4 5 6 3 6 4 8 992 6 3 3 3 5 2 2 5 5 2 4 6 3 4 4 4 986 2 2 6 4 3 4 4 5 4 98 7 6 2 3 3 7 3 5 3 3 4 4 972 4 3 3 1475 10 6 3 4 4 7 8 2 5 5 4 371 5 3 5 3 2 7 6 3 5 3 3 2 3 9 4 2 4 4 7 4 11 1 3 4 5 4 3 5 5 5 4 3 2 9 808 7 4 6 3 489 2 3 2 3 6 3 10 6 6 973 3 3 2 4 1 8 3 4 6 6 3 4 6 2 2 4 6 5 2 81 4 3 6 4 6 5 4 2 1 2 3 4 3 5 9 5 6 5 5 2463 4 3 4 2 3 6 5 4 5 6 4 8 3 2 5 6 3 3 2 4 4 3 2 3 3 4 6 6 5 5 4 2 4 8 4 2354 2 3 4 5 6 2 4 3 4 3 5 3 6 975 7 2 3 5 3 3 5 2 5 4 4 4 4 8 6 8 3 5 3 6 4 2 6 6 5 991 4 3 13 2 6 5 4 4 4 4 7 7 6 6 8 3 5 1476 3 3 6 4 990 5 3 6 6 4 5 4 
To predecode: 0
Predecoding something: 0
Predecode request dropped: 0
sizeofblock_0 0
sizeofblock_1 31128
sizeofblock_2 41201
sizeofblock_3 36772
sizeofblock_4 23737
sizeofblock_5 0
sizeofblock_6 0
sizeofblock_7 0
sizeofblock_8 0
Variant_0 Correct: 1618043 Incorrect: 0 Accuracy: 1
Variant_1 Correct: 2097731 Incorrect: 0 Accuracy: 1
Variant_2 Correct: 3653359 Incorrect: 1429 Accuracy: 0.999609
Variant_3 Correct: 0 Incorrect: 0 Accuracy: -nan
