
*** ChampSim Multicore Out-of-Order Simulator ***

Warmup Instructions: 50000000
Simulation Instructions: 50000000
Number of CPUs: 1
LLC sets: 2048
LLC ways: 16
Off-chip DRAM Size: 4096 MB Channels: 1 Width: 64-bit Data Rate: 6400 MT/s
CPU 0 runs ./micro_traces/srv458.trace.gz
.gz
ITLB has LRU replacement policy
DTLB has LRU replacement policy
STLB has LRU replacement policy
FDIP Prefetcher at L1I
L1I has LRU replacement policy
L1D has LRU replacement policy
Initialize SRRIP state for L2C
Initialize DRRIP state for LLC
Heartbeat_Variant_0 : 1296 0.316406 per_variant_size: 0 1296 0 0 0 0 0 0 0 
Heartbeat_Variant_1 : 974 0.237793 per_variant_size: 0 169 805 0 0 0 0 0 0 
Heartbeat_Variant_2 : 827 0.201904 per_variant_size: 0 143 109 101 474 0 0 0 0 
Heartbeat_Variant_3 : 0 0 per_variant_size: 0 0 0 0 0 0 0 0 0 
Heartbeat_Variant_0_evicts 0 : 5602 1 : 0 2 : 0 3 : 0 
Heartbeat_Variant_1_evicts 0 : 0 1 : 0 2 : 197 3 : 0 
Heartbeat_Variant_2_evicts 0 : 0 1 : 196 2 : 0 3 : 0 
Heartbeat_Variant_3_evicts 0 : 0 1 : 0 2 : 0 3 : 0 
Heartbeat CPU 0 instructions: 10000003 cycles: 2797405 heartbeat IPC: 3.57474 cumulative IPC: 3.57474 (Simulation time: 0 hr 2 min 17 sec) 
Heartbeat_Variant_0 : 1380 0.336914 per_variant_size: 0 1380 0 0 0 0 0 0 0 
Heartbeat_Variant_1 : 1051 0.256592 per_variant_size: 0 175 876 0 0 0 0 0 0 
Heartbeat_Variant_2 : 879 0.2146 per_variant_size: 0 129 114 113 523 0 0 0 0 
Heartbeat_Variant_3 : 0 0 per_variant_size: 0 0 0 0 0 0 0 0 0 
Heartbeat_Variant_0_evicts 0 : 5532 1 : 0 2 : 0 3 : 0 
Heartbeat_Variant_1_evicts 0 : 0 1 : 0 2 : 194 3 : 0 
Heartbeat_Variant_2_evicts 0 : 0 1 : 195 2 : 0 3 : 0 
Heartbeat_Variant_3_evicts 0 : 0 1 : 0 2 : 0 3 : 0 
Heartbeat CPU 0 instructions: 20000000 cycles: 5594204 heartbeat IPC: 3.57552 cumulative IPC: 3.57513 (Simulation time: 0 hr 4 min 9 sec) 
Heartbeat_Variant_0 : 1380 0.336914 per_variant_size: 0 1380 0 0 0 0 0 0 0 
Heartbeat_Variant_1 : 1054 0.257324 per_variant_size: 0 177 877 0 0 0 0 0 0 
Heartbeat_Variant_2 : 878 0.214355 per_variant_size: 0 128 114 105 531 0 0 0 0 
Heartbeat_Variant_3 : 0 0 per_variant_size: 0 0 0 0 0 0 0 0 0 
Heartbeat_Variant_0_evicts 0 : 5495 1 : 0 2 : 0 3 : 0 
Heartbeat_Variant_1_evicts 0 : 0 1 : 0 2 : 194 3 : 0 
Heartbeat_Variant_2_evicts 0 : 0 1 : 193 2 : 0 3 : 0 
Heartbeat_Variant_3_evicts 0 : 0 1 : 0 2 : 0 3 : 0 
Heartbeat CPU 0 instructions: 30000003 cycles: 8391220 heartbeat IPC: 3.57524 cumulative IPC: 3.57517 (Simulation time: 0 hr 6 min 13 sec) 
Heartbeat_Variant_0 : 1380 0.336914 per_variant_size: 0 1380 0 0 0 0 0 0 0 
Heartbeat_Variant_1 : 1056 0.257812 per_variant_size: 0 178 878 0 0 0 0 0 0 
Heartbeat_Variant_2 : 880 0.214844 per_variant_size: 0 129 113 102 536 0 0 0 0 
Heartbeat_Variant_3 : 0 0 per_variant_size: 0 0 0 0 0 0 0 0 0 
Heartbeat_Variant_0_evicts 0 : 5523 1 : 0 2 : 0 3 : 0 
Heartbeat_Variant_1_evicts 0 : 0 1 : 0 2 : 195 3 : 0 
Heartbeat_Variant_2_evicts 0 : 0 1 : 195 2 : 0 3 : 0 
Heartbeat_Variant_3_evicts 0 : 0 1 : 0 2 : 0 3 : 0 
Heartbeat CPU 0 instructions: 40000001 cycles: 11187301 heartbeat IPC: 3.57643 cumulative IPC: 3.57548 (Simulation time: 0 hr 8 min 10 sec) 
Heartbeat_Variant_0 : 1381 0.337158 per_variant_size: 0 1381 0 0 0 0 0 0 0 
Heartbeat_Variant_1 : 1060 0.258789 per_variant_size: 0 175 885 0 0 0 0 0 0 
Heartbeat_Variant_2 : 885 0.216064 per_variant_size: 0 132 112 121 520 0 0 0 0 
Heartbeat_Variant_3 : 0 0 per_variant_size: 0 0 0 0 0 0 0 0 0 
Heartbeat_Variant_0_evicts 0 : 5599 1 : 0 2 : 0 3 : 0 
Heartbeat_Variant_1_evicts 0 : 0 1 : 0 2 : 195 3 : 0 
Heartbeat_Variant_2_evicts 0 : 0 1 : 196 2 : 0 3 : 0 
Heartbeat_Variant_3_evicts 0 : 0 1 : 0 2 : 0 3 : 0 
Heartbeat CPU 0 instructions: 50000000 cycles: 13981995 heartbeat IPC: 3.57821 cumulative IPC: 3.57603 (Simulation time: 0 hr 10 min 15 sec) 

Warmup complete CPU 0 instructions: 50000004 cycles: 13981996 (Simulation time: 0 hr 10 min 15 sec) 

Cycle: 20000000 FTQ IN: 58219808 FTQ occupancy: 19.8585 DECODE IN: 58219786 DECODE occupancy: 51.7099 ROB IN: 58219754 ROB occupancy: 313.753 ROB OUT: 58219402
Heartbeat_Variant_0 : 1381 0.337158 per_variant_size: 0 1381 0 0 0 0 0 0 0 
Heartbeat_Variant_1 : 1060 0.258789 per_variant_size: 0 179 881 0 0 0 0 0 0 
Heartbeat_Variant_2 : 886 0.216309 per_variant_size: 0 132 112 120 522 0 0 0 0 
Heartbeat_Variant_3 : 0 0 per_variant_size: 0 0 0 0 0 0 0 0 0 
Heartbeat_Variant_0_evicts 0 : 5613 1 : 0 2 : 0 3 : 0 
Heartbeat_Variant_1_evicts 0 : 0 1 : 0 2 : 197 3 : 0 
Heartbeat_Variant_2_evicts 0 : 0 1 : 197 2 : 0 3 : 0 
Heartbeat_Variant_3_evicts 0 : 0 1 : 0 2 : 0 3 : 0 
Heartbeat CPU 0 instructions: 60000001 cycles: 21288325 heartbeat IPC: 1.36868 cumulative IPC: 1.36868 (Simulation time: 0 hr 12 min 20 sec) 
Heartbeat_Variant_0 : 1381 0.337158 per_variant_size: 0 1381 0 0 0 0 0 0 0 
Heartbeat_Variant_1 : 1061 0.259033 per_variant_size: 0 178 883 0 0 0 0 0 0 
Heartbeat_Variant_2 : 885 0.216064 per_variant_size: 0 131 112 110 532 0 0 0 0 
Heartbeat_Variant_3 : 0 0 per_variant_size: 0 0 0 0 0 0 0 0 0 
Heartbeat_Variant_0_evicts 0 : 5571 1 : 0 2 : 0 3 : 0 
Heartbeat_Variant_1_evicts 0 : 0 1 : 0 2 : 196 3 : 0 
Heartbeat_Variant_2_evicts 0 : 0 1 : 195 2 : 0 3 : 0 
Heartbeat_Variant_3_evicts 0 : 0 1 : 0 2 : 0 3 : 0 
Heartbeat CPU 0 instructions: 70000002 cycles: 28520925 heartbeat IPC: 1.38263 cumulative IPC: 1.37562 (Simulation time: 0 hr 14 min 39 sec) 
Cycle: 30000000 FTQ IN: 13837232 FTQ occupancy: 12.4005 DECODE IN: 13837179 DECODE occupancy: 32.1825 ROB IN: 13837151 ROB occupancy: 232.312 ROB OUT: 13837153
Heartbeat_Variant_0 : 1381 0.337158 per_variant_size: 0 1381 0 0 0 0 0 0 0 
Heartbeat_Variant_1 : 1061 0.259033 per_variant_size: 0 175 886 0 0 0 0 0 0 
Heartbeat_Variant_2 : 885 0.216064 per_variant_size: 0 130 113 121 521 0 0 0 0 
Heartbeat_Variant_3 : 0 0 per_variant_size: 0 0 0 0 0 0 0 0 0 
Heartbeat_Variant_0_evicts 0 : 5577 1 : 0 2 : 0 3 : 0 
Heartbeat_Variant_1_evicts 0 : 0 1 : 0 2 : 195 3 : 0 
Heartbeat_Variant_2_evicts 0 : 0 1 : 195 2 : 0 3 : 0 
Heartbeat_Variant_3_evicts 0 : 0 1 : 0 2 : 0 3 : 0 
Heartbeat CPU 0 instructions: 80000000 cycles: 35820220 heartbeat IPC: 1.36999 cumulative IPC: 1.37374 (Simulation time: 0 hr 16 min 56 sec) 
Cycle: 40000000 FTQ IN: 13775938 FTQ occupancy: 12.6306 DECODE IN: 13775900 DECODE occupancy: 32.5103 ROB IN: 13775900 ROB occupancy: 232.684 ROB OUT: 13775898
Heartbeat_Variant_0 : 1381 0.337158 per_variant_size: 0 1381 0 0 0 0 0 0 0 
Heartbeat_Variant_1 : 1062 0.259277 per_variant_size: 0 179 883 0 0 0 0 0 0 
Heartbeat_Variant_2 : 886 0.216309 per_variant_size: 0 132 112 112 530 0 0 0 0 
Heartbeat_Variant_3 : 0 0 per_variant_size: 0 0 0 0 0 0 0 0 0 
Heartbeat_Variant_0_evicts 0 : 5651 1 : 0 2 : 0 3 : 0 
Heartbeat_Variant_1_evicts 0 : 0 1 : 0 2 : 197 3 : 0 
Heartbeat_Variant_2_evicts 0 : 0 1 : 197 2 : 0 3 : 0 
Heartbeat_Variant_3_evicts 0 : 0 1 : 0 2 : 0 3 : 0 
Heartbeat CPU 0 instructions: 90000003 cycles: 42997961 heartbeat IPC: 1.3932 cumulative IPC: 1.37855 (Simulation time: 0 hr 19 min 14 sec) 
Cycle: 50000000 FTQ IN: 13750973 FTQ occupancy: 12.4491 DECODE IN: 13751030 DECODE occupancy: 32.1297 ROB IN: 13751030 ROB occupancy: 232.728 ROB OUT: 13751031
Heartbeat_Variant_0 : 1422 0.347168 per_variant_size: 0 1422 0 0 0 0 0 0 0 
Heartbeat_Variant_1 : 1096 0.267578 per_variant_size: 0 185 911 0 0 0 0 0 0 
Heartbeat_Variant_2 : 903 0.220459 per_variant_size: 0 128 109 112 554 0 0 0 0 
Heartbeat_Variant_3 : 0 0 per_variant_size: 0 0 0 0 0 0 0 0 0 
Heartbeat_Variant_0_evicts 0 : 5621 1 : 0 2 : 0 3 : 0 
Heartbeat_Variant_1_evicts 0 : 1 1 : 0 2 : 196 3 : 0 
Heartbeat_Variant_2_evicts 0 : 0 1 : 196 2 : 0 3 : 0 
Heartbeat_Variant_3_evicts 0 : 0 1 : 0 2 : 0 3 : 0 
Heartbeat CPU 0 instructions: 100000001 cycles: 50311567 heartbeat IPC: 1.36731 cumulative IPC: 1.37629 (Simulation time: 0 hr 21 min 29 sec) 
Finished CPU 0 instructions: 50000001 cycles: 36329572 cumulative IPC: 1.37629 (Simulation time: 0 hr 21 min 29 sec) 

ChampSim completed all CPUs

Region of Interest Statistics

CPU 0 cumulative IPC: 1.37629 instructions: 50000001 cycles: 36329572
 Fetch stage stalled: 54.8823  Sim cycles: 36329572 fetch stall cycle: 19938500
 Empty decode stage: 37.3737  Sim cycles: 36329572 fetch stall cycle: 13577718
ITLB TOTAL     ACCESS:    5842642  HIT:    5349174  MISS:     493468  HIT %:     91.554  MISS %:    8.44597   MPKI: 9.86936
ITLB LOAD TRANSLATION INSTRUCTION	ACCESS:    5725625  HIT:    5232157  MISS:     493468  HIT %:    91.3814  MISS %:    8.61859  MPKI: 9.86936
ITLB TRANSLATION FROM L1D PREFETCHER INSTRUCTION	ACCESS:     117017  HIT:     117017  MISS:          0  HIT %:        100  MISS %:          0  MPKI: 0

ITLB AVERAGE MISS LATENCY: 9.07146 cycles
ITLB RQ	ACCESS:    7982355	FORWARD:          0	MERGED:    1694620	TO_CACHE:    6287735

DTLB TOTAL     ACCESS:    8982451  HIT:    8509276  MISS:     473175  HIT %:    94.7322  MISS %:    5.26777   MPKI: 9.4635
DTLB LOAD TRANSLATION DATA	ACCESS:    8982451  HIT:    8509276  MISS:     473175  HIT %:    94.7322  MISS %:    5.26777  MPKI: 9.4635

DTLB AVERAGE MISS LATENCY: 9.32455 cycles
DTLB RQ	ACCESS:   13354474	FORWARD:          0	MERGED:    4335183	TO_CACHE:    9019291

STLB TOTAL     ACCESS:    1217036  HIT:    1214913  MISS:       2123  HIT %:    99.8256  MISS %:    0.17444   MPKI: 0.04246
STLB LOAD TRANSLATION INSTRUCTION	ACCESS:     493468  HIT:     493148  MISS:        320  HIT %:    99.9352  MISS %:  0.0648472  MPKI: 0.0064
STLB LOAD TRANSLATION DATA	ACCESS:     473174  HIT:     471402  MISS:       1772  HIT %:    99.6255  MISS %:   0.374492  MPKI: 0.03544
STLB TRANSLATION FROM L1D PREFETCHER DATA	ACCESS:     250394  HIT:     250363  MISS:         31  HIT %:    99.9876  MISS %:  0.0123805  MPKI: 0.00062

STLB AVERAGE MISS LATENCY: 73.7956 cycles
STLB RQ	ACCESS:    1338433	FORWARD:          0	MERGED:     121356	TO_CACHE:    1217077

STLB Hit, L1D data hit: 0
STLB Hit, L2C data hit: 0
STLB Hit, LLC data hit: 0
STLB Hit, LLC data miss: 0
STLB STLB hints to L2: 0
L1D TOTAL     ACCESS:   13098929  HIT:   11980736  MISS:    1118193  HIT %:    91.4635  MISS %:    8.53652   MPKI: 22.3639
L1D LOAD DATA	ACCESS:    6565293  HIT:    5830986  MISS:     734307  HIT %:    88.8153  MISS %:    11.1847  MPKI: 14.6861
L1D RFO DATA	ACCESS:    6202399  HIT:    5915011  MISS:     287388  HIT %:    95.3665  MISS %:     4.6335  MPKI: 5.74776
L1D PREFETCH DATA	ACCESS:     331237  HIT:     234739  MISS:      96498  HIT %:    70.8674  MISS %:    29.1326  MPKI: 1.92996

L1D PREFETCH  REQUESTED:     743937  ISSUED:     743937  USEFUL:      34852  USELESS:      69145
L1D USEFUL LOAD PREFETCHES:      34852 PREFETCH ISSUED TO LOWER LEVEL:     104099  ACCURACY: 33.4797
 TIMELY PREFETCHES:      34852 LATE PREFETCHES: 7514 DROPPED PREFETCHES: 10
L1D AVERAGE MISS LATENCY: 222369 cycles
L1D RQ	ACCESS:   10707250	FORWARD:          0	MERGED:    3942540	TO_CACHE:    6601119
L1D WQ	ACCESS:    6950203	FORWARD:     163948	MERGED:     196848	TO_CACHE:    6753355
L1D PQ	ACCESS:     372147	FORWARD:          0	MERGED:          0	TO_CACHE:     371790

L1D UNIQUE REGIONS ACCESSED: 0
L1D REGIONS CONFLICTS: 0
L1D Cross Page Prefetch Requests: 6820
L1D Same Page Prefetch Requests: 750529
L1D ROI Sum of L1D PQ occupancy: 4728473
L1D PREFETCHES PUSHED FROM L2C: 0
L1I TOTAL     ACCESS:    7155370  HIT:    4394123  MISS:    2761247  HIT %:    61.4101  MISS %:    38.5899   MPKI: 55.2249
L1I LOAD INSTRUCTION	ACCESS:    6490745  HIT:    3729498  MISS:    2761247  HIT %:    57.4587  MISS %:    42.5413  MPKI: 55.2249
L1I PREFETCH INSTRUCTION	ACCESS:     664625  HIT:     664625  MISS:          0  HIT %:        100  MISS %:          0  MPKI: 0

L1I PREFETCH  REQUESTED:    1594204  ISSUED:    1594204  USEFUL:          0  USELESS:          0
L1I USEFUL LOAD PREFETCHES:          0 PREFETCH ISSUED TO LOWER LEVEL:          0  ACCURACY: -nan
 TIMELY PREFETCHES:          0 LATE PREFETCHES: 0 DROPPED PREFETCHES: 0
L1I AVERAGE MISS LATENCY: 17.376 cycles
L1I RQ	ACCESS:    9497558	FORWARD:          0	MERGED:    2683239	TO_CACHE:    6814319
L1I PQ	ACCESS:    1594204	FORWARD:          0	MERGED:     426168	TO_CACHE:    1168036

L1BTB TOTAL     ACCESS:    5670552  HIT:    2045421  MISS:    3625131  HIT %:    36.0709  MISS %:    63.9291   MPKI: 72.5026
L1BTB BRANCH_DIRECT_JUMP	ACCESS:     548699  HIT:     144830  MISS:     403869	AVERAGE STALL: 48.7261
L1BTB BRANCH_INDIRECT	ACCESS:     183289  HIT:      66283  MISS:     117006	AVERAGE STALL: 92.6668
L1BTB BRANCH_CONDITIONAL	ACCESS:    2712343  HIT:    1420449  MISS:    1291894	AVERAGE STALL: 60.1343
L1BTB BRANCH_DIRECT_CALL	ACCESS:     941980  HIT:     104408  MISS:     837572	AVERAGE STALL: 53.6983
L1BTB BRANCH_INDIRECT_CALL	ACCESS:     171131  HIT:      20797  MISS:     150334	AVERAGE STALL: 135.078
L1BTB BRANCH_RETURN	ACCESS:    1113110  HIT:     288654  MISS:     824456	AVERAGE STALL: 49.0085
L1BTB BRANCH_OTHER ACCESS:          0  HIT:          0  MISS:          0	AVERAGE STALL: -nan
L1BTB TOTAL ROB OCCUPANCY AT BTB MISS: 3.17653

L2BTB TOTAL     ACCESS:    3599702  HIT:    3523735  MISS:      75967  HIT %:    97.8896  MISS %:    2.11037   MPKI: 1.51934
L2BTB BRANCH_DIRECT_JUMP	ACCESS:     399681  HIT:     395233  MISS:       4448	AVERAGE STALL: 48.7261
L2BTB BRANCH_INDIRECT	ACCESS:     106744  HIT:     104111  MISS:       2633	AVERAGE STALL: 92.6668
L2BTB BRANCH_CONDITIONAL	ACCESS:    1291894  HIT:    1281321  MISS:      10573	AVERAGE STALL: 60.1343
L2BTB BRANCH_DIRECT_CALL	ACCESS:     837571  HIT:     837085  MISS:        486	AVERAGE STALL: 53.6983
L2BTB BRANCH_INDIRECT_CALL	ACCESS:     140764  HIT:     129947  MISS:      10817	AVERAGE STALL: 135.078
L2BTB BRANCH_RETURN	ACCESS:     823048  HIT:     776038  MISS:      47010	AVERAGE STALL: 49.0085
L2BTB BRANCH_OTHER ACCESS:          0  HIT:          0  MISS:          0	AVERAGE STALL: -nan
L2BTB TOTAL ROB OCCUPANCY AT BTB MISS: 151.583

L2C TOTAL     ACCESS:    4494682  HIT:    3988967  MISS:     505715  HIT %:    88.7486  MISS %:    11.2514   MPKI: 10.1143
L2C LOAD INSTRUCTION	ACCESS:    2761247  HIT:    2488665  MISS:     272582  HIT %:    90.1283  MISS %:     9.8717  MPKI: 5.45164
L2C LOAD TRANSLATION INSTRUCTION	ACCESS:        360  HIT:         86  MISS:        274  HIT %:    23.8889  MISS %:    76.1111  MPKI: 0.00548
L2C LOAD DATA	ACCESS:     726776  HIT:     646124  MISS:      80652  HIT %:    88.9028  MISS %:    11.0972  MPKI: 1.61304
L2C RFO DATA	ACCESS:     287270  HIT:     230588  MISS:      56682  HIT %:    80.2687  MISS %:    19.7313  MPKI: 1.13364
L2C PREFETCH DATA	ACCESS:     195200  HIT:     118998  MISS:      76202  HIT %:    60.9621  MISS %:    39.0379  MPKI: 1.52404
L2C WRITEBACK DATA	ACCESS:     521917  HIT:     503893  MISS:      18024  HIT %:    96.5466  MISS %:    3.45342  MPKI: 0.36048
L2C LOAD TRANSLATION DATA	ACCESS:       1854  HIT:        570  MISS:       1284  HIT %:    30.7443  MISS %:    69.2557  MPKI: 0.02568
L2C TRANSLATION FROM L1D PREFETCHER DATA	ACCESS:         58  HIT:         43  MISS:         15  HIT %:    74.1379  MISS %:    25.8621  MPKI: 0.0003

L2C PREFETCH  REQUESTED:      99569  ISSUED:      99569  USEFUL:       8000  USELESS:      69075
L2C USEFUL LOAD PREFETCHES:       8000 PREFETCH ISSUED TO LOWER LEVEL:      76814  ACCURACY: 10.4148
 TIMELY PREFETCHES:       8000 LATE PREFETCHES: 611 DROPPED PREFETCHES: 0
L2C AVERAGE MISS LATENCY: 38.5629 cycles
L2C RQ	ACCESS:    3777614	FORWARD:          0	MERGED:          0	TO_CACHE:    3777566
L2C WQ	ACCESS:     521917	FORWARD:         48	MERGED:          0	TO_CACHE:     521917
L2C PQ	ACCESS:     203668	FORWARD:          0	MERGED:       3737	TO_CACHE:     199931

L2C Dense regions hint from L2: 0
PSCL5 TOTAL     ACCESS:       4274  HIT:       2137  MISS:       2137  HIT %:         50  MISS %:         50   MPKI: 0.04274
PSCL5 LOAD TRANSLATION INSTRUCTION	ACCESS:       4160  HIT:       2080  MISS:       2080  HIT %:         50  MISS %:         50  MPKI: 0.0416
PSCL5 TRANSLATION FROM L1D PREFETCHER INSTRUCTION	ACCESS:        114  HIT:         57  MISS:         57  HIT %:         50  MISS %:         50  MPKI: 0.00114


PSCL4 TOTAL     ACCESS:       4000  HIT:       1994  MISS:       2006  HIT %:      49.85  MISS %:      50.15   MPKI: 0.04012
PSCL4 LOAD TRANSLATION INSTRUCTION	ACCESS:       2353  HIT:       1939  MISS:        414  HIT %:    82.4054  MISS %:    17.5946  MPKI: 0.00828
PSCL4 TRANSLATION FROM L1D PREFETCHER INSTRUCTION	ACCESS:         68  HIT:         55  MISS:         13  HIT %:    80.8824  MISS %:    19.1176  MPKI: 0.00026
PSCL4 LOAD TRANSLATION DATA	ACCESS:       1537  HIT:          0  MISS:       1537  HIT %:          0  MISS %:        100  MPKI: 0.03074
PSCL4 TRANSLATION FROM L1D PREFETCHER DATA	ACCESS:         42  HIT:          0  MISS:         42  HIT %:          0  MISS %:        100  MPKI: 0.00084


PSCL3 TOTAL     ACCESS:       4130  HIT:       2059  MISS:       2071  HIT %:    49.8547  MISS %:    50.1453   MPKI: 0.04142
PSCL3 LOAD TRANSLATION INSTRUCTION	ACCESS:       2418  HIT:       2004  MISS:        414  HIT %:    82.8784  MISS %:    17.1216  MPKI: 0.00828
PSCL3 TRANSLATION FROM L1D PREFETCHER INSTRUCTION	ACCESS:         68  HIT:         55  MISS:         13  HIT %:    80.8824  MISS %:    19.1176  MPKI: 0.00026
PSCL3 LOAD TRANSLATION DATA	ACCESS:       1602  HIT:          0  MISS:       1602  HIT %:          0  MISS %:        100  MPKI: 0.03204
PSCL3 TRANSLATION FROM L1D PREFETCHER DATA	ACCESS:         42  HIT:          0  MISS:         42  HIT %:          0  MISS %:        100  MPKI: 0.00084


PSCL2 TOTAL     ACCESS:       4160  HIT:       2023  MISS:       2137  HIT %:    48.6298  MISS %:    51.3702   MPKI: 0.04274
PSCL2 LOAD TRANSLATION INSTRUCTION	ACCESS:       2289  HIT:       1967  MISS:        322  HIT %:    85.9327  MISS %:    14.0673  MPKI: 0.00644
PSCL2 TRANSLATION FROM L1D PREFETCHER INSTRUCTION	ACCESS:         56  HIT:         56  MISS:          0  HIT %:        100  MISS %:          0  MPKI: 0
PSCL2 LOAD TRANSLATION DATA	ACCESS:       1759  HIT:          0  MISS:       1759  HIT %:          0  MISS %:        100  MPKI: 0.03518
PSCL2 TRANSLATION FROM L1D PREFETCHER DATA	ACCESS:         56  HIT:          0  MISS:         56  HIT %:          0  MISS %:        100  MPKI: 0.00112


LLC TOTAL     ACCESS:     569703  HIT:     539325  MISS:      30378  HIT %:    94.6677  MISS %:    5.33225   MPKI: 0.60756
LLC LOAD INSTRUCTION	ACCESS:     272583  HIT:     271272  MISS:       1311  HIT %:     99.519  MISS %:   0.480954  MPKI: 0.02622
LLC LOAD TRANSLATION INSTRUCTION	ACCESS:        274  HIT:        228  MISS:         46  HIT %:    83.2117  MISS %:    16.7883  MPKI: 0.00092
LLC LOAD DATA	ACCESS:      80137  HIT:      76704  MISS:       3433  HIT %:    95.7161  MISS %:    4.28391  MPKI: 0.06866
LLC RFO DATA	ACCESS:      56577  HIT:      41245  MISS:      15332  HIT %:    72.9006  MISS %:    27.0994  MPKI: 0.30664
LLC PREFETCH DATA	ACCESS:      76813  HIT:      67034  MISS:       9779  HIT %:    87.2691  MISS %:    12.7309  MPKI: 0.19558
LLC WRITEBACK DATA	ACCESS:      82020  HIT:      81620  MISS:        400  HIT %:    99.5123  MISS %:   0.487686  MPKI: 0.008
LLC LOAD TRANSLATION DATA	ACCESS:       1284  HIT:       1207  MISS:         77  HIT %:    94.0031  MISS %:    5.99688  MPKI: 0.00154
LLC TRANSLATION FROM L1D PREFETCHER DATA	ACCESS:         15  HIT:         15  MISS:          0  HIT %:        100  MISS %:          0  MPKI: 0

LLC AVERAGE MISS LATENCY: 158.625 cycles
LLC RQ	ACCESS:     410879	FORWARD:          0	MERGED:          0	TO_CACHE:     410870
LLC WQ	ACCESS:      82020	FORWARD:          9	MERGED:          0	TO_CACHE:      82020
LLC PQ	ACCESS:      76814	FORWARD:          0	MERGED:          0	TO_CACHE:      76814

LLC Dense regions hint to LLC: 0

RAW hits: 1935860
Loads Generated: 12643108
Loads sent to L1D: 10707250
Stores Generated: 6950194
Stores sent to L1D: 6950203
Major fault: 0 Minor fault: 2546
Allocated PAGES: 2546

stream: 
stream:times selected: 1184903
stream:pref_filled: 123091
stream:pref_useful: 24103
stream:pref_late: 6789
stream:misses: 8072
stream:misses_by_poll: 0

CS: 
CS:times selected: 179566
CS:pref_filled: 60229
CS:pref_useful: 36938
CS:pref_late: 6807
CS:misses: 16399
CS:misses_by_poll: 3

CPLX: 
CPLX:times selected: 1004156
CPLX:pref_filled: 19921
CPLX:pref_useful: 4703
CPLX:pref_late: 3123
CPLX:misses: 94197
CPLX:misses_by_poll: 0

NL_L1: 
NL:times selected: 20721
NL:pref_filled: 689
NL:pref_useful: 317
NL:pref_late: 279
NL:misses: 1764
NL:misses_by_poll: 0

total selections: 2389346
total_filled: 96498
total_useful: 34852
total_late: 18402
total_polluted: 3
total_misses_after_warmup: 770134
conflicts: 5529907

test: 115618

DRAM Statistics
 CHANNEL 0
 RQ ROW_BUFFER_HIT:      11361  ROW_BUFFER_MISS:      18605
 DBUS_CONGESTED:         13
 WQ ROW_BUFFER_HIT:       1554  ROW_BUFFER_MISS:      12721  FULL:          0

 AVG_CONGESTED_CYCLE: 5

CPU 0 Branch Prediction Accuracy: 99.8222% MPKI: 0.32518 Average ROB Occupancy at Mispredict: 184.232
Branch types
NOT_BRANCH: 40857964 81.7159%
BRANCH_DIRECT_JUMP: 548699 1.0974%
BRANCH_INDIRECT: 183289 0.366578%
BRANCH_CONDITIONAL: 6183817 12.3676%
BRANCH_DIRECT_CALL: 941980 1.88396%
BRANCH_INDIRECT_CALL: 171131 0.342262%
BRANCH_RETURN: 1113110 2.22622%
BRANCH_OTHER: 0 0%

DRAM PAGES: 1048576
Allocated PAGES: 2546
Average_ROB_Occupancy: 233.699
Average_Decode_Occupancy: 32.251
Average_FTQ_Occupancy: 12.5024
Indirect max targets: 14 Average targets: 1.15333
Branch_type:  BRANCH_DIRECT_JUMP:  Count Percentage: 3.40005 4.37769 5.99388 14.4965 1.69573 6.58065 0.939741 62.5158 
Branch_type:  BRANCH_INDIRECT:  Count Percentage: 11.7695 3.45674 12.1928 23.3641 1.33932 1.2023 1.07403 45.6012 
Branch_type:  BRANCH_CONDITIONAL:  Count Percentage: 21.5476 2.50697 3.00379 8.35245 1.34339 4.55864 0.5831 58.104 
Branch_type:  BRANCH_DIRECT_CALL:  Count Percentage: 0.767896 1.27783 1.4273 4.94757 2.44448 2.7225 0.774409 85.638 
Branch_type:  BRANCH_INDIRECT_CALL:  Count Percentage: 9.57335 0.565196 3.00116 4.85357 0.000582977 3.56811 0 78.438 
Branch_type:  BRANCH_RETURN:  Count Percentage: 4.4658 0.698493 3.51495 9.43404 2.12679 5.28694 1.01253 73.4605 
Branch_type:  BRANCH_DIRECT_JUMP:  Total Count: 37230 47935 65632 158734 18568 72057 10290 684537 
Branch_type:  BRANCH_INDIRECT:  Total Count: 43033 12639 44581 85427 4897 4396 3927 166733 
Branch_type:  BRANCH_CONDITIONAL:  Total Count: 2662690 309792 371185 1032132 166006 563322 72055 7180052 
Branch_type:  BRANCH_DIRECT_CALL:  Total Count: 14503 24134 26957 93443 46168 51419 14626 1617416 
Branch_type:  BRANCH_INDIRECT_CALL:  Total Count: 32843 1939 10296 16651 2 12241 0 269095 
Branch_type:  BRANCH_RETURN:  Total Count: 99700 15594 78472 210617 47481 118032 22605 1640020 
Number of unique branch instructions: 9934
Upper 32 bits: 
aaaa
ffff
ffff0000
Unique upper 32 bits: 3
Unique upper 36 bits: 3
Unique upper 40 bits: 5
Unique upper 44 bits: 32
Unique upper 48 bits: 156
Variant_0 : 1422 0.347168
Variant_1 : 1096 0.267578
Variant_2 : 903 0.220459
Variant_3 : 0 0
Offset_3 4093
Offset_4 256
Offset_5 454
Offset_6 502
Offset_7 580
Offset_8 509
Offset_9 474
Offset_10 383
Offset_11 310
Offset_12 273
Offset_13 202
Offset_14 226
Offset_15 188
Offset_16 218
Offset_17 149
Offset_18 118
Offset_19 234
Offset_20 136
Offset_21 261
Offset_22 390
Offset_23 241
Offset_24 340
Offset_25 88
Offset_47 84
Offset_64 2
decode_dispatch_called: 24961426 68.7083
Dispatch_width: 0 13359889 53.5221 36.7741
Dispatch_width: 1 903371 3.61907 2.4866
Dispatch_width: 2 798842 3.20031 2.19888
Dispatch_width: 3 484833 1.94233 1.33454
Dispatch_width: 4 5136619 20.5782 14.1389
Dispatch_width: 5 169261 0.67809 0.465904
Dispatch_width: 6 4108611 16.4598 11.3093
Empty_decode_cycles: 11368146 31.2917
ROB_full_cycles: 8231718 22.6585
Starvation_cycles_per_kilo_instr: 239.892
Starvation_cycles_per_kilo_instr_3: 186.834
Starvation_cycles_per_kilo_instr_0: 164.963
Branch_type_1  (3,1)  (4,8)  (5,38)  (6,69)  (7,115)  (8,129)  (9,128)  (10,100)  (11,69)  (12,43)  (13,8)  (14,2)  (15,3)  (16,4)  (18,1)  (19,4)  (20,2)  (21,1)  (22,3)  (23,2)  (24,10)  (25,12) 
Branch_type_2  (3,1)  (5,1)  (8,3)  (9,3)  (12,1)  (13,1)  (14,1)  (16,3)  (17,2)  (20,2)  (21,2)  (23,5)  (24,1)  (47,38) 
Branch_type_3  (3,4091)  (4,248)  (5,411)  (6,418)  (7,435)  (8,319)  (9,261)  (10,154)  (11,123)  (12,50)  (13,7)  (64,1) 
Branch_type_4  (6,3)  (7,8)  (8,25)  (9,50)  (10,60)  (11,61)  (12,96)  (13,85)  (14,100)  (15,89)  (16,97)  (17,67)  (18,53)  (19,114)  (20,70)  (21,141)  (22,206)  (23,136)  (24,191)  (25,72)  (64,1) 
Branch_type_5  (8,2)  (9,1)  (10,4)  (11,5)  (12,3)  (13,14)  (14,16)  (15,11)  (16,20)  (17,11)  (18,16)  (19,13)  (20,11)  (21,13)  (22,42)  (23,26)  (24,40) 
Branch_type_6  (5,4)  (6,12)  (7,22)  (8,31)  (9,31)  (10,65)  (11,52)  (12,80)  (13,87)  (14,107)  (15,85)  (16,94)  (17,69)  (18,48)  (19,103)  (20,51)  (21,104)  (22,139)  (23,72)  (24,98)  (25,4)  (47,46) 
Unique trigger count: 
Variant_0_evicts_0 : 0
Variant_0_evicts_1 : 0
Variant_0_evicts_2 : 0
Variant_0_evicts_3 : 0
Variant_1_evicts_0 : 0
Variant_1_evicts_1 : 0
Variant_1_evicts_2 : 0
Variant_1_evicts_3 : 0
Variant_2_evicts_0 : 0
Variant_2_evicts_1 : 0
Variant_2_evicts_2 : 0
Variant_2_evicts_3 : 0
Variant_3_evicts_0 : 0
Variant_3_evicts_1 : 0
Variant_3_evicts_2 : 0
Variant_3_evicts_3 : 0
BTB PER SET UNIQUE ADDR: 27 32 23 30 26 23 24 26 22 29 36 24 24 25 24 20 30 24 27 23 25 22 23 25 24 27 29 30 24 27 30 27 24 28 23 19 30 29 26 20 33 30 29 27 28 27 18 32 21 23 26 34 26 25 26 21 23 27 26 23 23 23 26 23 21 27 21 27 22 32 24 27 19 18 23 25 20 26 33 25 34 26 24 26 19 27 20 25 26 32 25 23 24 26 22 25 23 26 25 27 21 28 25 33 23 20 26 30 33 23 22 26 25 24 30 31 22 23 18 24 24 29 31 27 25 32 25 22 24 26 30 22 28 32 28 26 25 22 29 22 27 20 26 26 27 22 29 24 28 32 21 27 32 32 22 27 21 26 30 24 27 24 27 23 23 24 23 22 26 22 25 18 26 23 26 21 28 21 29 22 24 27 19 29 29 22 20 31 26 21 31 24 29 24 27 34 27 20 26 19 27 23 27 22 21 25 23 26 24 18 19 28 24 24 22 33 18 32 20 29 22 25 21 22 29 27 22 23 22 22 20 27 20 26 23 24 24 25 23 18 24 24 26 29 19 24 26 22 24 21 24 23 20 24 23 22 
BTB PER SET COUNT: 33 533 38 38 997 23 28 1502 26 33 1074 273 27 1979 1590 20 5772 27 405 2933 65 990 192 35 34 1273 1003 179 24 996 38 1498 928 154 23 22 216 34 772 1398 519 1505 477 132 1998 33 18 2490 21 3448 538 35 32 1510 34 998 24 30 2967 20617 995 507 955 23 21 1016 948 27 25 2706 61 271 21 18 27 978 20 16893 1076 30 2258 1967 24 26 20 28 102 34 28 1028 30 29 24 28 28 1479 23 26 29 30 523 29 25 38 523 22 235 1501 2636 3083 22 34 28 27 2164 31 28 999 624 26 976 2489 3106 92 26 3974 30 27 1981 28 1503 22 1017 2993 3111 1000 27 27 42 23 1052 2960 32 996 28 22 31 24 31 3604 1959 404 1779 788 22 28 21 1938 514 25 1503 25 3754 27 108 24 1962 23 1012 22 996 19 2973 1044 35 23 1521 25 4363 25 7836 998 19 1752 2138 25 22 33 32 21 1996 316 755 29 1009 38 1001 22 29 19 1017 24 528 337 21 48 26 26 27 18 22 227 27 26 23 727 18 39 23 29 29 1378 2961 1011 34 34 991 65 22 24 403 552 991 6185 35 26 1883 995 25 19 28 2007 1480 1193 998 29 1001 23 24 24 25 35 20 27 23 27 
To predecode: 0
Predecoding something: 0
Predecode request dropped: 0
sizeofblock_0 0
sizeofblock_1 13935
sizeofblock_2 25028
sizeofblock_3 64238
sizeofblock_4 54886
sizeofblock_5 0
sizeofblock_6 0
sizeofblock_7 0
sizeofblock_8 0
Variant_0 Correct: 1618280 Incorrect: 0 Accuracy: 1
Variant_1 Correct: 2092208 Incorrect: 0 Accuracy: 1
Variant_2 Correct: 3628566 Incorrect: 1445 Accuracy: 0.999602
Variant_3 Correct: 0 Incorrect: 0 Accuracy: -nan
