
*** ChampSim Multicore Out-of-Order Simulator ***

Warmup Instructions: 50000000
Simulation Instructions: 50000000
Number of CPUs: 1
LLC sets: 2048
LLC ways: 16
Off-chip DRAM Size: 4096 MB Channels: 1 Width: 64-bit Data Rate: 6400 MT/s
CPU 0 runs ./micro_traces/srv472.trace.gz
.gz
ITLB has LRU replacement policy
DTLB has LRU replacement policy
STLB has LRU replacement policy
FDIP Prefetcher at L1I
L1I has LRU replacement policy
L1D has LRU replacement policy
Initialize SRRIP state for L2C
Initialize DRRIP state for LLC
Heartbeat CPU 0 instructions: 10000002 cycles: 2796464 heartbeat IPC: 3.57595 cumulative IPC: 3.57595 (Simulation time: 0 hr 1 min 38 sec) 
Heartbeat CPU 0 instructions: 20000001 cycles: 5592015 heartbeat IPC: 3.57711 cumulative IPC: 3.57653 (Simulation time: 0 hr 3 min 16 sec) 
Heartbeat CPU 0 instructions: 30000000 cycles: 8388151 heartbeat IPC: 3.57636 cumulative IPC: 3.57647 (Simulation time: 0 hr 4 min 50 sec) 
Heartbeat CPU 0 instructions: 40000001 cycles: 11185219 heartbeat IPC: 3.57517 cumulative IPC: 3.57615 (Simulation time: 0 hr 6 min 23 sec) 
Heartbeat CPU 0 instructions: 50000001 cycles: 13981872 heartbeat IPC: 3.5757 cumulative IPC: 3.57606 (Simulation time: 0 hr 7 min 57 sec) 

Warmup complete CPU 0 instructions: 50000001 cycles: 13981872 (Simulation time: 0 hr 7 min 57 sec) 

Cycle: 20000000 FTQ IN: 55321040 FTQ occupancy: 17.4021 DECODE IN: 55320954 DECODE occupancy: 44.5613 ROB IN: 55320894 ROB occupancy: 265.805 ROB OUT: 55320542
Heartbeat CPU 0 instructions: 60000000 cycles: 25245609 heartbeat IPC: 0.887805 cumulative IPC: 0.887805 (Simulation time: 0 hr 9 min 12 sec) 
Cycle: 30000000 FTQ IN: 8874951 FTQ occupancy: 4.42929 DECODE IN: 8875033 DECODE occupancy: 8.67468 ROB IN: 8875093 ROB occupancy: 73.8962 ROB OUT: 8875416
Heartbeat CPU 0 instructions: 70000000 cycles: 36689132 heartbeat IPC: 0.873857 cumulative IPC: 0.880776 (Simulation time: 0 hr 10 min 29 sec) 
Cycle: 40000000 FTQ IN: 8789271 FTQ occupancy: 4.61574 DECODE IN: 8789245 DECODE occupancy: 9.09629 ROB IN: 8789245 ROB occupancy: 76.1761 ROB OUT: 8789194
Heartbeat CPU 0 instructions: 80000002 cycles: 47808052 heartbeat IPC: 0.899368 cumulative IPC: 0.886887 (Simulation time: 0 hr 11 min 43 sec) 
Cycle: 50000000 FTQ IN: 8976173 FTQ occupancy: 4.50224 DECODE IN: 8976182 DECODE occupancy: 8.86043 ROB IN: 8976169 ROB occupancy: 76.2295 ROB OUT: 8976033
Heartbeat CPU 0 instructions: 90000000 cycles: 59116253 heartbeat IPC: 0.884314 cumulative IPC: 0.886242 (Simulation time: 0 hr 12 min 56 sec) 
Cycle: 60000000 FTQ IN: 8835487 FTQ occupancy: 4.65053 DECODE IN: 8835468 DECODE occupancy: 9.1676 ROB IN: 8835475 ROB occupancy: 76.8699 ROB OUT: 8835413
Cycle: 70000000 FTQ IN: 8791242 FTQ occupancy: 4.48693 DECODE IN: 8791275 DECODE occupancy: 8.77862 ROB IN: 8791281 ROB occupancy: 75.7865 ROB OUT: 8791513
Heartbeat CPU 0 instructions: 100000001 cycles: 70438814 heartbeat IPC: 0.883192 cumulative IPC: 0.885631 (Simulation time: 0 hr 14 min 13 sec) 
Finished CPU 0 instructions: 50000000 cycles: 56456942 cumulative IPC: 0.885631 (Simulation time: 0 hr 14 min 13 sec) 

ChampSim completed all CPUs

Region of Interest Statistics

CPU 0 cumulative IPC: 0.885631 instructions: 50000000 cycles: 56456942
 Fetch stage stalled: 78.286  Sim cycles: 56456942 fetch stall cycle: 44197860
 Empty decode stage: 67.6117  Sim cycles: 56456942 fetch stall cycle: 38171494
ITLB TOTAL     ACCESS:    5658384  HIT:    5168426  MISS:     489958  HIT %:     91.341  MISS %:    8.65897   MPKI: 9.79916
ITLB LOAD TRANSLATION INSTRUCTION	ACCESS:    5570124  HIT:    5080166  MISS:     489958  HIT %:    91.2038  MISS %:    8.79618  MPKI: 9.79916
ITLB TRANSLATION FROM L1D PREFETCHER INSTRUCTION	ACCESS:      88260  HIT:      88260  MISS:          0  HIT %:        100  MISS %:          0  MPKI: 0

ITLB AVERAGE MISS LATENCY: 9.04954 cycles
ITLB RQ	ACCESS:    7225135	FORWARD:          0	MERGED:    1131790	TO_CACHE:    6093345

DTLB TOTAL     ACCESS:    9745621  HIT:    9271396  MISS:     474225  HIT %:     95.134  MISS %:    4.86603   MPKI: 9.4845
DTLB LOAD TRANSLATION DATA	ACCESS:    9745621  HIT:    9271396  MISS:     474225  HIT %:     95.134  MISS %:    4.86603  MPKI: 9.4845

DTLB AVERAGE MISS LATENCY: 9.3106 cycles
DTLB RQ	ACCESS:   13915040	FORWARD:          0	MERGED:    4138127	TO_CACHE:    9776913

STLB TOTAL     ACCESS:    1219111  HIT:    1217035  MISS:       2076  HIT %:    99.8297  MISS %:   0.170288   MPKI: 0.04152
STLB LOAD TRANSLATION INSTRUCTION	ACCESS:     489958  HIT:     489729  MISS:        229  HIT %:    99.9533  MISS %:  0.0467387  MPKI: 0.00458
STLB LOAD TRANSLATION DATA	ACCESS:     473913  HIT:     472087  MISS:       1826  HIT %:    99.6147  MISS %:   0.385303  MPKI: 0.03652
STLB TRANSLATION FROM L1D PREFETCHER DATA	ACCESS:     255240  HIT:     255219  MISS:         21  HIT %:    99.9918  MISS %: 0.00822755  MPKI: 0.00042

STLB AVERAGE MISS LATENCY: 73.0766 cycles
STLB RQ	ACCESS:    1348877	FORWARD:          0	MERGED:     129737	TO_CACHE:    1219140

STLB Hit, L1D data hit: 0
STLB Hit, L2C data hit: 0
STLB Hit, LLC data hit: 0
STLB Hit, LLC data miss: 0
STLB STLB hints to L2: 0
L1D TOTAL     ACCESS:   13705766  HIT:   12581451  MISS:    1124315  HIT %:    91.7968  MISS %:    8.20323   MPKI: 22.4863
L1D LOAD DATA	ACCESS:    7106646  HIT:    6367247  MISS:     739399  HIT %:    89.5957  MISS %:    10.4043  MPKI: 14.788
L1D RFO DATA	ACCESS:    6262335  HIT:    5975930  MISS:     286405  HIT %:    95.4265  MISS %:    4.57345  MPKI: 5.7281
L1D PREFETCH DATA	ACCESS:     336785  HIT:     238274  MISS:      98511  HIT %:    70.7496  MISS %:    29.2504  MPKI: 1.97022

L1D PREFETCH  REQUESTED:     769585  ISSUED:     769585  USEFUL:      37850  USELESS:      69716
L1D USEFUL LOAD PREFETCHES:      37850 PREFETCH ISSUED TO LOWER LEVEL:     107624  ACCURACY: 35.1687
 TIMELY PREFETCHES:      37850 LATE PREFETCHES: 9043 DROPPED PREFETCHES: 3
L1D AVERAGE MISS LATENCY: 350784 cycles
L1D RQ	ACCESS:   11110988	FORWARD:          0	MERGED:    3813437	TO_CACHE:    7135912
L1D WQ	ACCESS:    6928377	FORWARD:     161836	MERGED:     149249	TO_CACHE:    6779128
L1D PQ	ACCESS:     384891	FORWARD:          0	MERGED:          0	TO_CACHE:     384694

L1D UNIQUE REGIONS ACCESSED: 0
L1D REGIONS CONFLICTS: 0
L1D Cross Page Prefetch Requests: 5918
L1D Same Page Prefetch Requests: 778764
L1D ROI Sum of L1D PQ occupancy: 4889824
L1D PREFETCHES PUSHED FROM L2C: 0
L1I TOTAL     ACCESS:    6966344  HIT:    4221416  MISS:    2744928  HIT %:    60.5973  MISS %:    39.4027   MPKI: 54.8986
L1I LOAD INSTRUCTION	ACCESS:    6589562  HIT:    3844634  MISS:    2744928  HIT %:    58.3443  MISS %:    41.6557  MPKI: 54.8986
L1I PREFETCH INSTRUCTION	ACCESS:     376782  HIT:     376782  MISS:          0  HIT %:        100  MISS %:          0  MPKI: 0

L1I PREFETCH  REQUESTED:     722899  ISSUED:     722899  USEFUL:          0  USELESS:          0
L1I USEFUL LOAD PREFETCHES:          0 PREFETCH ISSUED TO LOWER LEVEL:          0  ACCURACY: -nan
 TIMELY PREFETCHES:          0 LATE PREFETCHES: 0 DROPPED PREFETCHES: 0
L1I AVERAGE MISS LATENCY: 17.1428 cycles
L1I RQ	ACCESS:    9443166	FORWARD:          0	MERGED:    2720305	TO_CACHE:    6722861
L1I PQ	ACCESS:     722899	FORWARD:          0	MERGED:     220625	TO_CACHE:     502274

L1BTB TOTAL     ACCESS:    5673656  HIT:    2065587  MISS:    3608069  HIT %:    36.4066  MISS %:    63.5934   MPKI: 72.1614
L1BTB BRANCH_DIRECT_JUMP	ACCESS:     548526  HIT:     145510  MISS:     403016	AVERAGE STALL: 30.8648
L1BTB BRANCH_INDIRECT	ACCESS:     183452  HIT:      66522  MISS:     116930	AVERAGE STALL: 72.8395
L1BTB BRANCH_CONDITIONAL	ACCESS:    2727477  HIT:    1440788  MISS:    1286689	AVERAGE STALL: 31.4861
L1BTB BRANCH_DIRECT_CALL	ACCESS:     936935  HIT:     103940  MISS:     832995	AVERAGE STALL: 32.546
L1BTB BRANCH_INDIRECT_CALL	ACCESS:     170170  HIT:      20650  MISS:     149520	AVERAGE STALL: 95.1114
L1BTB BRANCH_RETURN	ACCESS:    1107096  HIT:     288177  MISS:     818919	AVERAGE STALL: 32.149
L1BTB BRANCH_OTHER ACCESS:          0  HIT:          0  MISS:          0	AVERAGE STALL: -nan
L1BTB TOTAL ROB OCCUPANCY AT BTB MISS: 18.3206

L2BTB TOTAL     ACCESS:    3582494  HIT:    2542722  MISS:    1039772  HIT %:    70.9763  MISS %:    29.0237   MPKI: 20.7954
L2BTB BRANCH_DIRECT_JUMP	ACCESS:     398759  HIT:     280904  MISS:     117855	AVERAGE STALL: 30.8648
L2BTB BRANCH_INDIRECT	ACCESS:     106652  HIT:      93485  MISS:      13167	AVERAGE STALL: 72.8395
L2BTB BRANCH_CONDITIONAL	ACCESS:    1286688  HIT:     911679  MISS:     375009	AVERAGE STALL: 31.4861
L2BTB BRANCH_DIRECT_CALL	ACCESS:     832995  HIT:     563561  MISS:     269434	AVERAGE STALL: 32.546
L2BTB BRANCH_INDIRECT_CALL	ACCESS:     139880  HIT:      90918  MISS:      48962	AVERAGE STALL: 95.1114
L2BTB BRANCH_RETURN	ACCESS:     817520  HIT:     602175  MISS:     215345	AVERAGE STALL: 32.149
L2BTB BRANCH_OTHER ACCESS:          0  HIT:          0  MISS:          0	AVERAGE STALL: -nan
L2BTB TOTAL ROB OCCUPANCY AT BTB MISS: 63.5736

L2C TOTAL     ACCESS:    4474959  HIT:    4003303  MISS:     471656  HIT %:    89.4601  MISS %:    10.5399   MPKI: 9.43312
L2C LOAD INSTRUCTION	ACCESS:    2744928  HIT:    2492482  MISS:     252446  HIT %:    90.8032  MISS %:    9.19682  MPKI: 5.04892
L2C LOAD TRANSLATION INSTRUCTION	ACCESS:        272  HIT:         72  MISS:        200  HIT %:    26.4706  MISS %:    73.5294  MPKI: 0.004
L2C LOAD DATA	ACCESS:     730343  HIT:     653560  MISS:      76783  HIT %:    89.4867  MISS %:    10.5133  MPKI: 1.53566
L2C RFO DATA	ACCESS:     286322  HIT:     234582  MISS:      51740  HIT %:    81.9294  MISS %:    18.0706  MPKI: 1.0348
L2C PREFETCH DATA	ACCESS:     191005  HIT:     116577  MISS:      74428  HIT %:    61.0335  MISS %:    38.9665  MPKI: 1.48856
L2C WRITEBACK DATA	ACCESS:     520155  HIT:     505458  MISS:      14697  HIT %:    97.1745  MISS %:     2.8255  MPKI: 0.29394
L2C LOAD TRANSLATION DATA	ACCESS:       1904  HIT:        548  MISS:       1356  HIT %:    28.7815  MISS %:    71.2185  MPKI: 0.02712
L2C TRANSLATION FROM L1D PREFETCHER DATA	ACCESS:         30  HIT:         24  MISS:          6  HIT %:         80  MISS %:         20  MPKI: 0.00012

L2C PREFETCH  REQUESTED:      90923  ISSUED:      90923  USEFUL:       8320  USELESS:      66319
L2C USEFUL LOAD PREFETCHES:       8320 PREFETCH ISSUED TO LOWER LEVEL:      74816  ACCURACY: 11.1206
 TIMELY PREFETCHES:       8320 LATE PREFETCHES: 388 DROPPED PREFETCHES: 0
L2C AVERAGE MISS LATENCY: 38.8302 cycles
L2C RQ	ACCESS:    3763826	FORWARD:          0	MERGED:          0	TO_CACHE:    3763800
L2C WQ	ACCESS:     520156	FORWARD:         26	MERGED:          0	TO_CACHE:     520156
L2C PQ	ACCESS:     198547	FORWARD:          0	MERGED:       3243	TO_CACHE:     195304

L2C Dense regions hint from L2: 0
PSCL5 TOTAL     ACCESS:       4158  HIT:       2079  MISS:       2079  HIT %:         50  MISS %:         50   MPKI: 0.04158
PSCL5 LOAD TRANSLATION INSTRUCTION	ACCESS:       4098  HIT:       2049  MISS:       2049  HIT %:         50  MISS %:         50  MPKI: 0.04098
PSCL5 TRANSLATION FROM L1D PREFETCHER INSTRUCTION	ACCESS:         60  HIT:         30  MISS:         30  HIT %:         50  MISS %:         50  MPKI: 0.0006


PSCL4 TOTAL     ACCESS:       3985  HIT:       1986  MISS:       1999  HIT %:    49.8369  MISS %:    50.1631   MPKI: 0.03998
PSCL4 LOAD TRANSLATION INSTRUCTION	ACCESS:       2150  HIT:       1960  MISS:        190  HIT %:    91.1628  MISS %:    8.83721  MPKI: 0.0038
PSCL4 TRANSLATION FROM L1D PREFETCHER INSTRUCTION	ACCESS:         26  HIT:         26  MISS:          0  HIT %:        100  MISS %:          0  MPKI: 0
PSCL4 LOAD TRANSLATION DATA	ACCESS:       1783  HIT:          0  MISS:       1783  HIT %:          0  MISS %:        100  MPKI: 0.03566
PSCL4 TRANSLATION FROM L1D PREFETCHER DATA	ACCESS:         26  HIT:          0  MISS:         26  HIT %:          0  MISS %:        100  MPKI: 0.00052


PSCL3 TOTAL     ACCESS:       4069  HIT:       2028  MISS:       2041  HIT %:    49.8403  MISS %:    50.1597   MPKI: 0.04082
PSCL3 LOAD TRANSLATION INSTRUCTION	ACCESS:       2192  HIT:       2002  MISS:        190  HIT %:    91.3321  MISS %:    8.66788  MPKI: 0.0038
PSCL3 TRANSLATION FROM L1D PREFETCHER INSTRUCTION	ACCESS:         26  HIT:         26  MISS:          0  HIT %:        100  MISS %:          0  MPKI: 0
PSCL3 LOAD TRANSLATION DATA	ACCESS:       1825  HIT:          0  MISS:       1825  HIT %:          0  MISS %:        100  MPKI: 0.0365
PSCL3 TRANSLATION FROM L1D PREFETCHER DATA	ACCESS:         26  HIT:          0  MISS:         26  HIT %:          0  MISS %:        100  MPKI: 0.00052


PSCL2 TOTAL     ACCESS:       4056  HIT:       1977  MISS:       2079  HIT %:    48.7426  MISS %:    51.2574   MPKI: 0.04158
PSCL2 LOAD TRANSLATION INSTRUCTION	ACCESS:       2192  HIT:       1947  MISS:        245  HIT %:     88.823  MISS %:     11.177  MPKI: 0.0049
PSCL2 TRANSLATION FROM L1D PREFETCHER INSTRUCTION	ACCESS:         30  HIT:         30  MISS:          0  HIT %:        100  MISS %:          0  MPKI: 0
PSCL2 LOAD TRANSLATION DATA	ACCESS:       1804  HIT:          0  MISS:       1804  HIT %:          0  MISS %:        100  MPKI: 0.03608
PSCL2 TRANSLATION FROM L1D PREFETCHER DATA	ACCESS:         30  HIT:          0  MISS:         30  HIT %:          0  MISS %:        100  MPKI: 0.0006


LLC TOTAL     ACCESS:     531688  HIT:     502438  MISS:      29250  HIT %:    94.4987  MISS %:    5.50135   MPKI: 0.585
LLC LOAD INSTRUCTION	ACCESS:     252446  HIT:     251311  MISS:       1135  HIT %:    99.5504  MISS %:   0.449601  MPKI: 0.0227
LLC LOAD TRANSLATION INSTRUCTION	ACCESS:        200  HIT:        154  MISS:         46  HIT %:         77  MISS %:         23  MPKI: 0.00092
LLC LOAD DATA	ACCESS:      76408  HIT:      72762  MISS:       3646  HIT %:    95.2282  MISS %:    4.77175  MPKI: 0.07292
LLC RFO DATA	ACCESS:      51726  HIT:      37677  MISS:      14049  HIT %:    72.8396  MISS %:    27.1604  MPKI: 0.28098
LLC PREFETCH DATA	ACCESS:      74816  HIT:      64910  MISS:       9906  HIT %:    86.7595  MISS %:    13.2405  MPKI: 0.19812
LLC WRITEBACK DATA	ACCESS:      74730  HIT:      74341  MISS:        389  HIT %:    99.4795  MISS %:   0.520541  MPKI: 0.00778
LLC LOAD TRANSLATION DATA	ACCESS:       1356  HIT:       1277  MISS:         79  HIT %:     94.174  MISS %:    5.82596  MPKI: 0.00158
LLC TRANSLATION FROM L1D PREFETCHER DATA	ACCESS:          6  HIT:          6  MISS:          0  HIT %:        100  MISS %:          0  MPKI: 0

LLC AVERAGE MISS LATENCY: 156.258 cycles
LLC RQ	ACCESS:     382143	FORWARD:          0	MERGED:          0	TO_CACHE:     382142
LLC WQ	ACCESS:      74730	FORWARD:          1	MERGED:          0	TO_CACHE:      74730
LLC PQ	ACCESS:      74816	FORWARD:          0	MERGED:          0	TO_CACHE:      74816

LLC Dense regions hint to LLC: 0

RAW hits: 1516164
Loads Generated: 12627151
Loads sent to L1D: 11110988
Stores Generated: 6928371
Stores sent to L1D: 6928377
Major fault: 0 Minor fault: 2616
Allocated PAGES: 2616

stream: 
stream:times selected: 1224735
stream:pref_filled: 123831
stream:pref_useful: 25492
stream:pref_late: 7647
stream:misses: 9215
stream:misses_by_poll: 0

CS: 
CS:times selected: 186447
CS:pref_filled: 66961
CS:pref_useful: 42342
CS:pref_late: 7243
CS:misses: 18654
CS:misses_by_poll: 11

CPLX: 
CPLX:times selected: 1037150
CPLX:pref_filled: 22118
CPLX:pref_useful: 6081
CPLX:pref_late: 3102
CPLX:misses: 104497
CPLX:misses_by_poll: 1

NL_L1: 
NL:times selected: 12977
NL:pref_filled: 1441
NL:pref_useful: 216
NL:pref_late: 250
NL:misses: 1521
NL:misses_by_poll: 0

total selections: 2461309
total_filled: 98511
total_useful: 37850
total_late: 19752
total_polluted: 12
total_misses_after_warmup: 768665
conflicts: 5759444

test: 121690

DRAM Statistics
 CHANNEL 0
 RQ ROW_BUFFER_HIT:      10488  ROW_BUFFER_MISS:      18373
 DBUS_CONGESTED:          9
 WQ ROW_BUFFER_HIT:       1529  ROW_BUFFER_MISS:      12927  FULL:          0

 AVG_CONGESTED_CYCLE: 5

CPU 0 Branch Prediction Accuracy: 99.813% MPKI: 0.34192 Average ROB Occupancy at Mispredict: 98.2304
Branch types
NOT_BRANCH: 40856718 81.7134%
BRANCH_DIRECT_JUMP: 548526 1.09705%
BRANCH_INDIRECT: 183452 0.366904%
BRANCH_CONDITIONAL: 6196598 12.3932%
BRANCH_DIRECT_CALL: 936935 1.87387%
BRANCH_INDIRECT_CALL: 170170 0.34034%
BRANCH_RETURN: 1107096 2.21419%
BRANCH_OTHER: 0 0%

DRAM PAGES: 1048576
Allocated PAGES: 2616
Average_ROB_Occupancy: 76.4651
Average_Decode_Occupancy: 8.8828
Average_FTQ_Occupancy: 4.52278
Indirect max targets: 14 Average targets: 1.17197
Branch_type:  BRANCH_DIRECT_JUMP:  Count Percentage: 3.35122 6.15945 4.3103 8.47947 2.23603 6.34167 1.35674 67.7651 
Branch_type:  BRANCH_INDIRECT:  Count Percentage: 11.7583 3.47054 16.0244 9.68511 3.33413 2.79722 0.932226 51.9981 
Branch_type:  BRANCH_CONDITIONAL:  Count Percentage: 21.2655 3.27237 2.7793 4.81463 1.64443 4.8918 3.7825 57.5495 
Branch_type:  BRANCH_DIRECT_CALL:  Count Percentage: 0.85533 1.27309 0.769728 4.37379 2.29129 2.63579 0.722521 87.0785 
Branch_type:  BRANCH_INDIRECT_CALL:  Count Percentage: 9.55695 0 2.99342 0.000881801 0.695153 1.71334 1.00437 84.0359 
Branch_type:  BRANCH_RETURN:  Count Percentage: 4.68834 1.39213 1.05061 4.37338 3.75834 5.36364 3.69071 75.6828 
Branch_type:  BRANCH_DIRECT_JUMP:  Total Count: 36710 67472 47216 92886 24494 69468 14862 742314 
Branch_type:  BRANCH_INDIRECT:  Total Count: 43099 12721 58736 35500 12221 10253 3417 190595 
Branch_type:  BRANCH_CONDITIONAL:  Total Count: 2633873 405305 344235 596324 203673 605882 468488 7127886 
Branch_type:  BRANCH_DIRECT_CALL:  Total Count: 16017 23840 14414 81904 42907 49358 13530 1630640 
Branch_type:  BRANCH_INDIRECT_CALL:  Total Count: 32514 0 10184 3 2365 5829 3417 285901 
Branch_type:  BRANCH_RETURN:  Total Count: 103784 30817 23257 96812 83197 118733 81700 1675364 
Number of unique branch instructions: 10499
Upper 32 bits: 
aaaa
ffff
ffff0000
Unique upper 32 bits: 3
Unique upper 36 bits: 3
Unique upper 40 bits: 5
Unique upper 44 bits: 32
Unique upper 48 bits: 158
Offset_3 4341
Offset_4 257
Offset_5 476
Offset_6 528
Offset_7 626
Offset_8 560
Offset_9 505
Offset_10 412
Offset_11 331
Offset_12 296
Offset_13 228
Offset_14 235
Offset_15 194
Offset_16 226
Offset_17 158
Offset_18 144
Offset_19 255
Offset_20 141
Offset_21 235
Offset_22 403
Offset_23 242
Offset_24 346
Offset_25 114
Offset_47 92
Offset_64 1
decode_dispatch_called: 20176687 35.7382
Dispatch_width: 0 9944595 49.2876 17.6145
Dispatch_width: 1 598738 2.96747 1.06052
Dispatch_width: 2 826429 4.09596 1.46382
Dispatch_width: 3 564434 2.79746 0.99976
Dispatch_width: 4 1489032 7.37996 2.63746
Dispatch_width: 5 422103 2.09203 0.747655
Dispatch_width: 6 6331356 31.3796 11.2145
Empty_decode_cycles: 36280255 64.2618
ROB_full_cycles: 1487207 2.63423
Starvation_cycles_per_kilo_instr: 486.384
Starvation_cycles_per_kilo_instr_3: 467.272
Starvation_cycles_per_kilo_instr_0: 447.376
Branch_type_1  (3,1)  (4,9)  (5,39)  (6,71)  (7,125)  (8,146)  (9,133)  (10,108)  (11,74)  (12,47)  (13,11)  (14,2)  (15,3)  (16,4)  (18,1)  (19,5)  (20,2)  (21,1)  (22,3)  (23,2)  (24,10)  (25,12) 
Branch_type_2  (3,1)  (4,1)  (5,1)  (8,4)  (9,4)  (10,1)  (12,1)  (13,1)  (14,1)  (16,3)  (17,2)  (20,2)  (21,2)  (23,5)  (24,1)  (47,42) 
Branch_type_3  (3,4339)  (4,247)  (5,432)  (6,441)  (7,470)  (8,344)  (9,276)  (10,166)  (11,128)  (12,54)  (13,10)  (64,1) 
Branch_type_4  (6,3)  (7,8)  (8,25)  (9,58)  (10,65)  (11,67)  (12,107)  (13,96)  (14,105)  (15,92)  (16,99)  (17,72)  (18,61)  (19,124)  (20,73)  (21,124)  (22,212)  (23,136)  (24,201)  (25,98) 
Branch_type_5  (8,3)  (9,1)  (10,4)  (11,5)  (12,3)  (13,14)  (14,16)  (15,11)  (16,22)  (17,11)  (18,23)  (19,14)  (20,11)  (21,13)  (22,43)  (23,26)  (24,38) 
Branch_type_6  (5,4)  (6,13)  (7,23)  (8,38)  (9,33)  (10,68)  (11,57)  (12,84)  (13,96)  (14,111)  (15,88)  (16,98)  (17,73)  (18,59)  (19,112)  (20,53)  (21,95)  (22,145)  (23,73)  (24,96)  (25,4)  (47,50) 
Unique trigger count: 
BTB PER SET UNIQUE ADDR: 23 25 20 26 27 27 17 24 15 26 20 30 26 20 24 19 21 21 23 26 23 22 25 26 18 25 25 26 25 23 22 24 27 15 17 25 22 27 17 21 21 21 24 29 20 14 27 17 24 23 30 21 23 27 23 11 21 18 18 25 24 31 23 24 24 28 25 17 29 25 23 20 28 18 19 15 14 24 19 31 26 15 22 28 26 23 27 22 18 41 20 15 25 20 14 26 19 22 28 29 35 30 24 20 23 19 22 24 14 18 20 32 26 19 21 13 26 26 23 24 25 17 20 15 23 20 11 24 33 18 19 31 22 30 19 30 15 28 21 33 21 29 20 23 23 24 28 21 15 22 23 26 20 23 17 31 28 27 29 26 26 24 28 26 21 25 24 17 26 21 22 27 24 23 24 21 23 22 20 26 19 22 22 30 34 29 17 24 27 21 24 17 17 30 24 16 17 23 23 25 28 27 19 20 19 21 23 24 22 22 20 27 20 19 24 23 21 27 17 38 15 29 17 24 21 26 31 26 18 31 21 12 22 30 21 27 28 20 21 18 23 24 30 29 22 22 21 23 25 22 28 28 27 18 27 27 19 18 17 22 25 19 8 21 23 14 20 18 21 22 21 24 21 16 17 18 24 26 23 22 16 26 18 18 26 20 18 33 33 27 24 21 26 28 18 29 25 27 27 25 21 20 20 36 25 29 26 22 32 26 22 28 22 38 28 14 30 22 22 29 21 29 19 22 27 25 23 19 23 17 21 30 19 21 21 26 20 22 19 39 23 25 16 27 27 27 19 22 23 22 24 24 28 25 24 28 24 27 19 18 18 29 22 32 26 26 13 24 26 24 23 17 23 27 19 30 22 27 22 25 24 23 18 15 20 23 28 30 26 25 30 13 27 30 17 17 20 19 29 25 21 28 24 22 28 27 27 27 23 24 29 19 18 30 22 23 21 32 37 32 19 24 24 26 31 20 26 20 26 22 29 22 19 24 30 29 27 21 22 26 25 20 17 30 36 20 15 27 28 24 28 38 26 18 28 32 26 29 20 29 21 23 19 26 34 20 23 24 26 26 25 28 26 22 25 35 26 35 18 25 33 27 20 27 17 27 35 33 28 22 19 26 20 18 19 21 29 25 22 27 20 29 18 35 22 20 20 31 30 28 23 33 24 22 21 26 21 33 18 18 17 23 26 17 24 32 35 16 18 34 27 25 24 25 27 30 20 26 26 23 28 18 27 24 28 30 15 26 16 23 24 33 24 23 21 22 23 24 29 26 22 34 23 24 24 30 24 30 23 28 29 24 32 35 24 28 27 29 23 24 26 27 15 24 26 26 24 24 36 29 22 22 24 17 26 19 17 21 26 22 24 22 23 15 25 26 30 22 21 25 33 24 22 16 10 32 18 27 21 26 31 27 18 22 20 32 19 30 18 26 21 30 33 24 24 23 25 29 23 28 22 26 27 34 27 26 20 25 35 17 17 23 19 19 30 25 24 23 25 24 24 15 27 30 21 26 18 24 18 20 24 21 18 26 33 21 25 26 28 30 21 30 21 28 25 21 21 26 26 28 23 25 23 15 15 22 17 26 19 26 15 28 28 33 13 28 22 20 18 16 21 21 16 23 18 20 33 25 20 31 27 24 23 20 19 21 24 23 21 22 24 20 26 20 24 25 27 32 37 20 20 21 24 26 34 30 23 22 23 19 23 22 25 22 18 22 33 22 19 21 24 16 15 24 24 28 16 25 23 26 24 28 19 18 25 18 29 21 25 29 13 26 20 20 24 23 19 25 21 14 17 14 28 27 23 32 21 18 27 23 37 25 33 28 32 21 25 23 24 22 21 34 31 30 20 28 36 33 13 28 25 33 18 26 28 22 20 24 25 27 27 30 27 23 18 27 25 24 27 22 27 23 22 25 24 28 21 37 19 27 25 20 18 20 30 30 30 30 26 28 25 23 19 26 28 17 25 18 32 17 22 30 27 22 24 13 23 24 20 25 29 16 21 30 25 26 29 22 26 22 27 18 22 22 21 28 30 22 18 19 23 22 23 26 15 30 22 27 21 33 19 25 23 25 25 30 36 22 25 26 25 25 19 25 21 20 14 32 19 16 31 32 28 20 23 31 21 20 25 29 19 31 24 21 22 23 25 29 23 27 23 23 18 25 21 27 27 23 28 25 25 25 22 33 29 23 29 24 20 26 24 28 29 22 28 21 34 32 30 34 19 30 24 24 22 31 35 18 30 25 27 26 25 22 24 21 21 22 31 23 31 30 20 23 29 27 18 32 20 27 27 27 26 17 18 22 15 20 9 14 21 30 22 16 
BTB PER SET COUNT: 2314 2413 2987 2173 2837 2128 1994 1710 1713 2168 1235 2687 14202 1766 2089 1061 2155 2257 1658 2289 1804 1692 2146 2219 1142 2041 2177 2083 2210 1820 1981 2567 2081 833 1164 1948 1938 2317 1088 2268 1645 1612 2559 2318 1895 700 2223 1433 2194 1810 2549 1444 2073 2168 1710 929 1653 1580 1342 2103 1788 3022 2067 1818 2310 2163 1660 1466 2321 1928 2518 2149 2554 1469 1254 869 810 2276 1532 2457 2476 1051 1923 2554 2159 1900 2351 2138 1668 3784 1494 1445 2299 1939 893 2097 1660 1518 2247 3558 3558 2646 2167 1753 3477 1247 1623 2259 1667 3133 1844 2858 2338 1553 1766 1172 2181 2451 2410 2038 2323 1518 1660 1149 1871 1657 746 2722 3626 1789 1376 3195 1385 2533 1711 2271 1389 2117 1701 2738 1621 2251 1708 1736 1861 1792 2785 1403 1103 1834 1823 2057 1468 1683 965 3076 2633 2331 2277 2536 2067 1961 2739 2236 1782 2182 1968 1440 2269 1664 1544 2470 2008 1862 2143 1827 1881 1721 1713 2541 1593 1954 1869 2187 2943 3177 1033 1997 2457 2256 1861 1330 1282 2475 2250 1295 1268 2081 1689 1730 2026 2030 1764 1597 1174 1973 1727 1964 1975 2353 1596 2185 1405 3716 2076 2280 1652 2369 1682 3443 1051 2173 1451 1731 1607 2151 2756 2257 1473 3384 1668 577 1720 2431 1437 5939 2330 1678 2184 1147 1944 2075 2887 2745 1810 2161 1402 1944 2122 1644 1983 2088 2123 1516 2091 2471 1557 1359 1370 1574 2106 1448 320 1955 2016 826 1753 1588 2277 1728 1483 1870 1159 906 1516 1346 2108 2410 1918 2061 952 2227 1440 1817 2032 1546 1374 3028 3003 2448 2024 1146 1954 2528 1095 2846 2407 2106 1881 2318 1610 1538 1872 2988 1989 2804 1959 1753 2952 2321 2510 2146 1322 3242 3262 1488 2668 1769 1736 2745 1629 3056 1073 1648 2718 2427 2335 1322 1618 1165 1743 2804 1285 1478 1844 1791 1377 1747 1057 3647 2038 3172 1227 2122 2483 1854 1467 1777 1865 2075 2250 1885 2439 1787 1808 2541 2079 2676 1484 1283 1277 2814 1501 2851 1813 3070 694 1640 1873 1671 2173 1339 2242 2377 1212 2817 1842 2404 1721 2620 2414 2116 1556 1009 1135 1689 3006 2529 2178 2182 2203 934 2215 2424 1338 1312 1501 1475 2908 2222 1619 2116 2195 1580 2287 2262 2220 2215 1447 2154 2052 1356 1408 2670 1555 1988 1855 4234 3383 2646 1482 2177 2402 1942 2455 1648 2668 1414 1714 2042 2698 2145 1511 1721 2768 2388 1910 1676 1798 1904 2898 1421 1415 2772 3004 1767 1390 2042 2411 1872 2464 3779 1769 1803 2605 3208 2082 2658 1364 2207 1311 1794 1472 2442 2727 1849 7378 1958 2549 2165 2069 2164 1871 1805 2096 2890 1914 3267 1228 1882 2662 2398 1642 2295 1460 1942 3385 2493 2686 1822 1811 2249 4411 1097 1009 1779 2659 2600 1695 2366 1498 2928 1357 3429 1509 1313 1253 2795 2724 1959 1957 3464 2645 2675 1623 2629 1456 2891 1276 1334 877 2014 2185 1228 1891 2965 3425 2134 1111 4117 3091 2141 2042 1844 2433 2506 2263 2459 2077 2009 2301 1687 2478 2010 2347 2864 953 2152 1183 2456 1798 2807 2090 2195 1560 1374 1900 1864 2401 2335 1287 2998 1685 1890 2303 2694 1831 2251 1824 2591 2774 2152 3146 2938 1980 2587 2521 2684 1745 1907 2457 2217 1018 3124 2135 2270 1885 2149 3021 2786 2050 1867 2262 971 1923 1311 1856 2462 1942 1515 1385 1906 1739 1037 2072 2311 2722 2172 1340 1670 2996 2571 2247 1096 686 2657 1017 2498 2426 2343 2939 1862 1119 1643 1594 2953 1595 2757 2022 1973 1728 3011 3043 1822 1930 1730 2308 2575 1643 2422 2319 2195 2718 2667 2889 2455 1472 2342 3790 1132 1068 2226 1191 1811 3327 1973 1589 1710 2490 1996 2165 801 2405 2776 4912 2581 1362 1973 2185 1877 1638 1761 1492 2158 2888 2061 1990 2575 2338 3029 1977 2548 1958 2390 2958 2144 1861 1986 2287 2485 1701 2478 2141 950 1533 1814 1810 2531 1574 1958 1515 2369 2470 2830 885 2281 1793 1440 1240 1101 1947 2254 1211 1843 1664 1464 3158 2249 1580 2674 2389 2524 1716 1886 1692 1650 1782 2363 1730 1938 2107 5122 1824 1858 1833 2055 2237 3039 3822 1708 1810 1469 1872 2377 2972 2738 2359 1805 1969 1658 2558 1542 2653 2148 1158 1947 2729 2175 1793 1162 2179 996 814 1710 2765 2940 1239 2038 1232 2173 1822 2518 1700 1473 2098 1339 2288 1909 1470 2671 1761 2278 2030 1743 1936 1823 1301 2227 1532 1104 1389 1426 2168 2370 1740 2989 1746 1310 1783 2126 3209 1873 2699 2484 2929 1530 1839 1990 1911 1657 1420 5105 2741 2359 1670 2947 2883 3111 1126 2835 1881 2762 1285 2473 2784 1957 1522 2073 2222 2782 2062 2972 2256 2109 1194 2857 1926 1849 2510 1902 2385 2072 2038 1902 2200 2210 1724 3388 1438 5249 2627 1952 1613 1749 2737 2559 2852 2392 2641 2258 2706 1901 1667 2058 2831 1136 1965 1006 2849 1496 1532 2796 2327 1702 1916 959 1705 1947 2732 1932 2203 887 1451 2930 2281 2291 2420 2055 1910 1972 2430 1165 3111 3072 1507 2483 2864 1719 1650 1547 2151 1692 1866 2287 751 2428 1552 2686 1790 2809 1755 1856 1846 2256 2420 2320 3797 2066 2120 2095 2073 2157 1438 2404 1339 1469 714 2641 1263 1246 2306 2734 3132 1448 1831 3146 1966 1744 2508 2294 1262 3199 2107 1601 2057 2084 1770 2470 2165 2223 2207 2477 1757 3636 1690 2201 2387 1823 2020 2254 2040 2135 1694 2742 2443 1500 2801 2082 1455 2103 1965 2905 2440 1806 2619 1621 3338 2255 2801 3278 1985 2333 2273 2141 1570 3400 4202 1434 2478 2153 2186 2595 1893 1935 2315 1981 1443 3089 2257 2312 2666 3071 1613 1872 2397 2174 1485 3077 1747 2369 2536 2394 2364 1367 1429 1923 976 1681 521 1258 1525 2955 2027 1014 
