
*** ChampSim Multicore Out-of-Order Simulator ***

Warmup Instructions: 50000000
Simulation Instructions: 50000000
Number of CPUs: 1
LLC sets: 2048
LLC ways: 16
Off-chip DRAM Size: 4096 MB Channels: 1 Width: 64-bit Data Rate: 6400 MT/s
CPU 0 runs ./micro_traces/srv423.trace.gz
.gz
ITLB has LRU replacement policy
DTLB has LRU replacement policy
STLB has LRU replacement policy
FDIP Prefetcher at L1I
L1I has LRU replacement policy
L1D has LRU replacement policy
Initialize SRRIP state for L2C
Initialize DRRIP state for LLC
Heartbeat_Variant_0 : 642 0.313477 per_variant_size: 0 642 0 0 0 0 0 0 0 
Heartbeat_Variant_1 : 1406 0.686523 per_variant_size: 0 133 1273 0 0 0 0 0 0 
Heartbeat_Variant_2 : 0 0 per_variant_size: 0 0 0 0 0 0 0 0 0 
Heartbeat_Variant_3 : 0 0 per_variant_size: 0 0 0 0 0 0 0 0 0 
Heartbeat_Variant_0_evicts 0 : 31124 1 : 59678 2 : 0 3 : 0 
Heartbeat_Variant_1_evicts 0 : 59725 1 : 0 2 : 0 3 : 0 
Heartbeat_Variant_2_evicts 0 : 0 1 : 0 2 : 0 3 : 0 
Heartbeat_Variant_3_evicts 0 : 0 1 : 0 2 : 0 3 : 0 
Heartbeat CPU 0 instructions: 10000002 cycles: 2797679 heartbeat IPC: 3.57439 cumulative IPC: 3.57439 (Simulation time: 0 hr 2 min 29 sec) 
Heartbeat_Variant_0 : 638 0.311523 per_variant_size: 0 638 0 0 0 0 0 0 0 
Heartbeat_Variant_1 : 1410 0.688477 per_variant_size: 0 153 1257 0 0 0 0 0 0 
Heartbeat_Variant_2 : 0 0 per_variant_size: 0 0 0 0 0 0 0 0 0 
Heartbeat_Variant_3 : 0 0 per_variant_size: 0 0 0 0 0 0 0 0 0 
Heartbeat_Variant_0_evicts 0 : 30709 1 : 58791 2 : 0 3 : 0 
Heartbeat_Variant_1_evicts 0 : 58795 1 : 0 2 : 0 3 : 0 
Heartbeat_Variant_2_evicts 0 : 0 1 : 0 2 : 0 3 : 0 
Heartbeat_Variant_3_evicts 0 : 0 1 : 0 2 : 0 3 : 0 
Heartbeat CPU 0 instructions: 20000001 cycles: 5594350 heartbeat IPC: 3.57568 cumulative IPC: 3.57504 (Simulation time: 0 hr 4 min 28 sec) 
Heartbeat_Variant_0 : 633 0.309082 per_variant_size: 0 633 0 0 0 0 0 0 0 
Heartbeat_Variant_1 : 1415 0.690918 per_variant_size: 0 132 1283 0 0 0 0 0 0 
Heartbeat_Variant_2 : 0 0 per_variant_size: 0 0 0 0 0 0 0 0 0 
Heartbeat_Variant_3 : 0 0 per_variant_size: 0 0 0 0 0 0 0 0 0 
Heartbeat_Variant_0_evicts 0 : 31092 1 : 59905 2 : 0 3 : 0 
Heartbeat_Variant_1_evicts 0 : 59910 1 : 0 2 : 0 3 : 0 
Heartbeat_Variant_2_evicts 0 : 0 1 : 0 2 : 0 3 : 0 
Heartbeat_Variant_3_evicts 0 : 0 1 : 0 2 : 0 3 : 0 
Heartbeat CPU 0 instructions: 30000000 cycles: 8391569 heartbeat IPC: 3.57498 cumulative IPC: 3.57502 (Simulation time: 0 hr 6 min 28 sec) 
Heartbeat_Variant_0 : 671 0.327637 per_variant_size: 0 671 0 0 0 0 0 0 0 
Heartbeat_Variant_1 : 1377 0.672363 per_variant_size: 0 141 1236 0 0 0 0 0 0 
Heartbeat_Variant_2 : 0 0 per_variant_size: 0 0 0 0 0 0 0 0 0 
Heartbeat_Variant_3 : 0 0 per_variant_size: 0 0 0 0 0 0 0 0 0 
Heartbeat_Variant_0_evicts 0 : 31183 1 : 59609 2 : 0 3 : 0 
Heartbeat_Variant_1_evicts 0 : 59571 1 : 0 2 : 0 3 : 0 
Heartbeat_Variant_2_evicts 0 : 0 1 : 0 2 : 0 3 : 0 
Heartbeat_Variant_3_evicts 0 : 0 1 : 0 2 : 0 3 : 0 
Heartbeat CPU 0 instructions: 40000001 cycles: 11189931 heartbeat IPC: 3.57352 cumulative IPC: 3.57464 (Simulation time: 0 hr 8 min 39 sec) 
Heartbeat_Variant_0 : 647 0.315918 per_variant_size: 0 647 0 0 0 0 0 0 0 
Heartbeat_Variant_1 : 1401 0.684082 per_variant_size: 0 130 1271 0 0 0 0 0 0 
Heartbeat_Variant_2 : 0 0 per_variant_size: 0 0 0 0 0 0 0 0 0 
Heartbeat_Variant_3 : 0 0 per_variant_size: 0 0 0 0 0 0 0 0 0 
Heartbeat_Variant_0_evicts 0 : 31269 1 : 60348 2 : 0 3 : 0 
Heartbeat_Variant_1_evicts 0 : 60372 1 : 0 2 : 0 3 : 0 
Heartbeat_Variant_2_evicts 0 : 0 1 : 0 2 : 0 3 : 0 
Heartbeat_Variant_3_evicts 0 : 0 1 : 0 2 : 0 3 : 0 
Heartbeat CPU 0 instructions: 50000002 cycles: 13985898 heartbeat IPC: 3.57658 cumulative IPC: 3.57503 (Simulation time: 0 hr 10 min 50 sec) 

Warmup complete CPU 0 instructions: 50000002 cycles: 13985898 (Simulation time: 0 hr 10 min 50 sec) 

Cycle: 20000000 FTQ IN: 54431199 FTQ occupancy: 17.1223 DECODE IN: 54431199 DECODE occupancy: 43.8726 ROB IN: 54431199 ROB occupancy: 260.034 ROB OUT: 54431147
Heartbeat_Variant_0 : 627 0.306152 per_variant_size: 0 627 0 0 0 0 0 0 0 
Heartbeat_Variant_1 : 1421 0.693848 per_variant_size: 0 137 1284 0 0 0 0 0 0 
Heartbeat_Variant_2 : 0 0 per_variant_size: 0 0 0 0 0 0 0 0 0 
Heartbeat_Variant_3 : 0 0 per_variant_size: 0 0 0 0 0 0 0 0 0 
Heartbeat_Variant_0_evicts 0 : 31011 1 : 59237 2 : 0 3 : 0 
Heartbeat_Variant_1_evicts 0 : 59257 1 : 0 2 : 0 3 : 0 
Heartbeat_Variant_2_evicts 0 : 0 1 : 0 2 : 0 3 : 0 
Heartbeat_Variant_3_evicts 0 : 0 1 : 0 2 : 0 3 : 0 
Heartbeat CPU 0 instructions: 60000002 cycles: 27673302 heartbeat IPC: 0.730599 cumulative IPC: 0.730599 (Simulation time: 0 hr 12 min 42 sec) 
Cycle: 30000000 FTQ IN: 7250447 FTQ occupancy: 3.59286 DECODE IN: 7250447 DECODE occupancy: 6.58971 ROB IN: 7250426 ROB occupancy: 56.746 ROB OUT: 7250478
Cycle: 40000000 FTQ IN: 7439501 FTQ occupancy: 3.5251 DECODE IN: 7439489 DECODE occupancy: 6.43512 ROB IN: 7439510 ROB occupancy: 56.2934 ROB OUT: 7439487
Heartbeat_Variant_0 : 683 0.333496 per_variant_size: 0 683 0 0 0 0 0 0 0 
Heartbeat_Variant_1 : 1365 0.666504 per_variant_size: 0 150 1215 0 0 0 0 0 0 
Heartbeat_Variant_2 : 0 0 per_variant_size: 0 0 0 0 0 0 0 0 0 
Heartbeat_Variant_3 : 0 0 per_variant_size: 0 0 0 0 0 0 0 0 0 
Heartbeat_Variant_0_evicts 0 : 31059 1 : 59366 2 : 0 3 : 0 
Heartbeat_Variant_1_evicts 0 : 59310 1 : 0 2 : 0 3 : 0 
Heartbeat_Variant_2_evicts 0 : 0 1 : 0 2 : 0 3 : 0 
Heartbeat_Variant_3_evicts 0 : 0 1 : 0 2 : 0 3 : 0 
Heartbeat CPU 0 instructions: 70000000 cycles: 41202489 heartbeat IPC: 0.739143 cumulative IPC: 0.734846 (Simulation time: 0 hr 14 min 22 sec) 
Cycle: 50000000 FTQ IN: 7387855 FTQ occupancy: 3.51038 DECODE IN: 7387835 DECODE occupancy: 6.4339 ROB IN: 7387825 ROB occupancy: 55.6446 ROB OUT: 7387800
Heartbeat_Variant_0 : 642 0.313477 per_variant_size: 0 642 0 0 0 0 0 0 0 
Heartbeat_Variant_1 : 1406 0.686523 per_variant_size: 0 153 1253 0 0 0 0 0 0 
Heartbeat_Variant_2 : 0 0 per_variant_size: 0 0 0 0 0 0 0 0 0 
Heartbeat_Variant_3 : 0 0 per_variant_size: 0 0 0 0 0 0 0 0 0 
Heartbeat_Variant_0_evicts 0 : 30790 1 : 59341 2 : 0 3 : 0 
Heartbeat_Variant_1_evicts 0 : 59382 1 : 0 2 : 0 3 : 0 
Heartbeat_Variant_2_evicts 0 : 0 1 : 0 2 : 0 3 : 0 
Heartbeat_Variant_3_evicts 0 : 0 1 : 0 2 : 0 3 : 0 
Heartbeat CPU 0 instructions: 80000003 cycles: 54862250 heartbeat IPC: 0.732077 cumulative IPC: 0.733921 (Simulation time: 0 hr 16 min 12 sec) 
Cycle: 60000000 FTQ IN: 7267892 FTQ occupancy: 3.64672 DECODE IN: 7267922 DECODE occupancy: 6.72061 ROB IN: 7267923 ROB occupancy: 56.9104 ROB OUT: 7267967
Heartbeat_Variant_0 : 640 0.3125 per_variant_size: 0 640 0 0 0 0 0 0 0 
Heartbeat_Variant_1 : 1408 0.6875 per_variant_size: 0 138 1270 0 0 0 0 0 0 
Heartbeat_Variant_2 : 0 0 per_variant_size: 0 0 0 0 0 0 0 0 0 
Heartbeat_Variant_3 : 0 0 per_variant_size: 0 0 0 0 0 0 0 0 0 
Heartbeat_Variant_0_evicts 0 : 31271 1 : 59737 2 : 0 3 : 0 
Heartbeat_Variant_1_evicts 0 : 59739 1 : 0 2 : 0 3 : 0 
Heartbeat_Variant_2_evicts 0 : 0 1 : 0 2 : 0 3 : 0 
Heartbeat_Variant_3_evicts 0 : 0 1 : 0 2 : 0 3 : 0 
Heartbeat CPU 0 instructions: 90000000 cycles: 68374183 heartbeat IPC: 0.740086 cumulative IPC: 0.735452 (Simulation time: 0 hr 17 min 57 sec) 
Cycle: 70000000 FTQ IN: 7410179 FTQ occupancy: 3.50066 DECODE IN: 7410162 DECODE occupancy: 6.3619 ROB IN: 7410171 ROB occupancy: 55.2603 ROB OUT: 7410175
Cycle: 80000000 FTQ IN: 7365531 FTQ occupancy: 3.49702 DECODE IN: 7365520 DECODE occupancy: 6.3932 ROB IN: 7365520 ROB occupancy: 54.5598 ROB OUT: 7365520
Heartbeat_Variant_0 : 629 0.307129 per_variant_size: 0 629 0 0 0 0 0 0 0 
Heartbeat_Variant_1 : 1419 0.692871 per_variant_size: 0 138 1281 0 0 0 0 0 0 
Heartbeat_Variant_2 : 0 0 per_variant_size: 0 0 0 0 0 0 0 0 0 
Heartbeat_Variant_3 : 0 0 per_variant_size: 0 0 0 0 0 0 0 0 0 
Heartbeat_Variant_0_evicts 0 : 31151 1 : 60179 2 : 0 3 : 0 
Heartbeat_Variant_1_evicts 0 : 60190 1 : 0 2 : 0 3 : 0 
Heartbeat_Variant_2_evicts 0 : 0 1 : 0 2 : 0 3 : 0 
Heartbeat_Variant_3_evicts 0 : 0 1 : 0 2 : 0 3 : 0 
Heartbeat CPU 0 instructions: 100000001 cycles: 82076648 heartbeat IPC: 0.729796 cumulative IPC: 0.734314 (Simulation time: 0 hr 19 min 32 sec) 
Finished CPU 0 instructions: 50000003 cycles: 68090760 cumulative IPC: 0.734314 (Simulation time: 0 hr 19 min 32 sec) 

ChampSim completed all CPUs

Region of Interest Statistics

CPU 0 cumulative IPC: 0.734314 instructions: 50000003 cycles: 68090760
 Fetch stage stalled: 82.2621  Sim cycles: 68090760 fetch stall cycle: 56012857
 Empty decode stage: 67.7463  Sim cycles: 68090760 fetch stall cycle: 46128965
ITLB TOTAL     ACCESS:    5662441  HIT:    5170155  MISS:     492286  HIT %:    91.3061  MISS %:    8.69388   MPKI: 9.84572
ITLB LOAD TRANSLATION INSTRUCTION	ACCESS:    5587347  HIT:    5095061  MISS:     492286  HIT %:    91.1893  MISS %:    8.81073  MPKI: 9.84572
ITLB TRANSLATION FROM L1D PREFETCHER INSTRUCTION	ACCESS:      75094  HIT:      75094  MISS:          0  HIT %:        100  MISS %:          0  MPKI: 0

ITLB AVERAGE MISS LATENCY: 9.05496 cycles
ITLB RQ	ACCESS:    7133166	FORWARD:          0	MERGED:    1038411	TO_CACHE:    6094755

DTLB TOTAL     ACCESS:   10087213  HIT:    9612541  MISS:     474672  HIT %:    95.2943  MISS %:    4.70568   MPKI: 9.49344
DTLB LOAD TRANSLATION DATA	ACCESS:   10087213  HIT:    9612541  MISS:     474672  HIT %:    95.2943  MISS %:    4.70568  MPKI: 9.49344

DTLB AVERAGE MISS LATENCY: 9.32102 cycles
DTLB RQ	ACCESS:   14151825	FORWARD:          0	MERGED:    4036925	TO_CACHE:   10114900

STLB TOTAL     ACCESS:    1217795  HIT:    1215432  MISS:       2363  HIT %:     99.806  MISS %:   0.194039   MPKI: 0.04726
STLB LOAD TRANSLATION INSTRUCTION	ACCESS:     492286  HIT:     491827  MISS:        459  HIT %:    99.9068  MISS %:  0.0932385  MPKI: 0.00918
STLB LOAD TRANSLATION DATA	ACCESS:     474346  HIT:     472467  MISS:       1879  HIT %:    99.6039  MISS %:   0.396124  MPKI: 0.03758
STLB TRANSLATION FROM L1D PREFETCHER DATA	ACCESS:     251163  HIT:     251138  MISS:         25  HIT %:      99.99  MISS %:  0.0099537  MPKI: 0.0005

STLB AVERAGE MISS LATENCY: 68.2497 cycles
STLB RQ	ACCESS:    1339567	FORWARD:          0	MERGED:     121732	TO_CACHE:    1217835

STLB Hit, L1D data hit: 0
STLB Hit, L2C data hit: 0
STLB Hit, LLC data hit: 0
STLB Hit, LLC data miss: 0
STLB STLB hints to L2: 0
L1D TOTAL     ACCESS:   13951980  HIT:   12844473  MISS:    1107507  HIT %:     92.062  MISS %:    7.93799   MPKI: 22.1501
L1D LOAD DATA	ACCESS:    7313144  HIT:    6587064  MISS:     726080  HIT %:    90.0716  MISS %:    9.92842  MPKI: 14.5216
L1D RFO DATA	ACCESS:    6304316  HIT:    6016324  MISS:     287992  HIT %:    95.4318  MISS %:    4.56817  MPKI: 5.75984
L1D PREFETCH DATA	ACCESS:     334520  HIT:     241085  MISS:      93435  HIT %:    72.0689  MISS %:    27.9311  MPKI: 1.8687

L1D PREFETCH  REQUESTED:     745363  ISSUED:     745363  USEFUL:      33855  USELESS:      66618
L1D USEFUL LOAD PREFETCHES:      33855 PREFETCH ISSUED TO LOWER LEVEL:     100538  ACCURACY: 33.6738
 TIMELY PREFETCHES:      33855 LATE PREFETCHES: 7026 DROPPED PREFETCHES: 0
L1D AVERAGE MISS LATENCY: 316398 cycles
L1D RQ	ACCESS:   11293758	FORWARD:          0	MERGED:    3792406	TO_CACHE:    7338238
L1D WQ	ACCESS:    6947176	FORWARD:     163259	MERGED:     133589	TO_CACHE:    6813587
L1D PQ	ACCESS:     372754	FORWARD:          0	MERGED:          0	TO_CACHE:     372609

L1D UNIQUE REGIONS ACCESSED: 0
L1D REGIONS CONFLICTS: 0
L1D Cross Page Prefetch Requests: 6180
L1D Same Page Prefetch Requests: 754034
L1D ROI Sum of L1D PQ occupancy: 4739016
L1D PREFETCHES PUSHED FROM L2C: 0
L1I TOTAL     ACCESS:    6993309  HIT:    4238088  MISS:    2755221  HIT %:     60.602  MISS %:     39.398   MPKI: 55.1044
L1I LOAD INSTRUCTION	ACCESS:    6678939  HIT:    3923718  MISS:    2755221  HIT %:    58.7476  MISS %:    41.2524  MPKI: 55.1044
L1I PREFETCH INSTRUCTION	ACCESS:     314370  HIT:     314370  MISS:          0  HIT %:        100  MISS %:          0  MPKI: 0

L1I PREFETCH  REQUESTED:     548531  ISSUED:     548531  USEFUL:          0  USELESS:          0
L1I USEFUL LOAD PREFETCHES:          0 PREFETCH ISSUED TO LOWER LEVEL:          0  ACCURACY: -nan
 TIMELY PREFETCHES:          0 LATE PREFETCHES: 0 DROPPED PREFETCHES: 0
L1I AVERAGE MISS LATENCY: 17.54 cycles
L1I RQ	ACCESS:    9444904	FORWARD:          0	MERGED:    2687497	TO_CACHE:    6757407
L1I PQ	ACCESS:     548531	FORWARD:          0	MERGED:     172772	TO_CACHE:     375759

L1BTB TOTAL     ACCESS:    5667865  HIT:    2048170  MISS:    3619695  HIT %:    36.1365  MISS %:    63.8635   MPKI: 72.3939
L1BTB BRANCH_DIRECT_JUMP	ACCESS:     549193 HIT:     145742 MISS:     403451 AVERAGE STALL: 28.55 AVERAGE FETCH STALL: 19.1176 AVERAGE FETCH QUEUE STALL: 3.42636 AVERAGE DECODE STALL: 5.15894 AVERAGE EXECUTE STALL: 1.0988e+14
L1BTB BRANCH_INDIRECT	ACCESS:     183380 HIT:      66330 MISS:     117050 AVERAGE STALL: 69.2038 AVERAGE FETCH STALL: 16.9309 AVERAGE FETCH QUEUE STALL: 4.72416 AVERAGE DECODE STALL: 5.14705 AVERAGE EXECUTE STALL: 41.4589
L1BTB BRANCH_CONDITIONAL	ACCESS:    2710864 HIT:    1420580 MISS:    1290284 AVERAGE STALL: 29.0453 AVERAGE FETCH STALL: 20.3282 AVERAGE FETCH QUEUE STALL: 2.85309 AVERAGE DECODE STALL: 5.1178 AVERAGE EXECUTE STALL: 3.61125e+13
L1BTB BRANCH_DIRECT_CALL	ACCESS:     941055 HIT:     105076 MISS:     835979 AVERAGE STALL: 29.9529 AVERAGE FETCH STALL: 21.1983 AVERAGE FETCH QUEUE STALL: 2.77199 AVERAGE DECODE STALL: 5.22836 AVERAGE EXECUTE STALL: 3.99772e+13
L1BTB BRANCH_INDIRECT_CALL	ACCESS:     171155 HIT:      21036 MISS:     150119 AVERAGE STALL: 88.8005 AVERAGE FETCH STALL: 18.7111 AVERAGE FETCH QUEUE STALL: 2.7662 AVERAGE DECODE STALL: 5.27716 AVERAGE EXECUTE STALL: 61.4863
L1BTB BRANCH_RETURN	ACCESS:    1112218 HIT:     289406 MISS:     822812 AVERAGE STALL: 29.2499 AVERAGE FETCH STALL: 18.6095 AVERAGE FETCH QUEUE STALL: 3.06772 AVERAGE DECODE STALL: 5.25831 AVERAGE EXECUTE STALL: 6.25877e+13
L1BTB BRANCH_OTHER ACCESS:          0 HIT:          0 MISS:          0 AVERAGE STALL: -nan AVERAGE FETCH STALL: -nan AVERAGE FETCH QUEUE STALL: -nan AVERAGE DECODE STALL: -nan AVERAGE EXECUTE STALL: -nan
L1BTB TOTAL ROB OCCUPANCY AT BTB MISS: 20.1841

L2BTB TOTAL     ACCESS:    3594194  HIT:    2059747  MISS:    1534447  HIT %:    57.3076  MISS %:    42.6924   MPKI: 30.6889
L2BTB BRANCH_DIRECT_JUMP	ACCESS:     399232 HIT:     235552 MISS:     163680 AVERAGE STALL: 28.55 AVERAGE FETCH STALL: 19.1176 AVERAGE FETCH QUEUE STALL: 3.42636 AVERAGE DECODE STALL: 5.15894 AVERAGE EXECUTE STALL: 1.0988e+14
L2BTB BRANCH_INDIRECT	ACCESS:     106794 HIT:      82542 MISS:      24252 AVERAGE STALL: 69.2038 AVERAGE FETCH STALL: 16.9309 AVERAGE FETCH QUEUE STALL: 4.72416 AVERAGE DECODE STALL: 5.14705 AVERAGE EXECUTE STALL: 41.4589
L2BTB BRANCH_CONDITIONAL	ACCESS:    1290284 HIT:     777106 MISS:     513178 AVERAGE STALL: 29.0453 AVERAGE FETCH STALL: 20.3282 AVERAGE FETCH QUEUE STALL: 2.85309 AVERAGE DECODE STALL: 5.1178 AVERAGE EXECUTE STALL: 3.61125e+13
L2BTB BRANCH_DIRECT_CALL	ACCESS:     835979 HIT:     374443 MISS:     461536 AVERAGE STALL: 29.9529 AVERAGE FETCH STALL: 21.1983 AVERAGE FETCH QUEUE STALL: 2.77199 AVERAGE DECODE STALL: 5.22836 AVERAGE EXECUTE STALL: 3.99772e+13
L2BTB BRANCH_INDIRECT_CALL	ACCESS:     140497 HIT:      62095 MISS:      78402 AVERAGE STALL: 88.8005 AVERAGE FETCH STALL: 18.7111 AVERAGE FETCH QUEUE STALL: 2.7662 AVERAGE DECODE STALL: 5.27716 AVERAGE EXECUTE STALL: 61.4863
L2BTB BRANCH_RETURN	ACCESS:     821408 HIT:     528009 MISS:     293399 AVERAGE STALL: 29.2499 AVERAGE FETCH STALL: 18.6095 AVERAGE FETCH QUEUE STALL: 3.06772 AVERAGE DECODE STALL: 5.25831 AVERAGE EXECUTE STALL: 6.25877e+13
L2BTB BRANCH_OTHER ACCESS:          0 HIT:          0 MISS:          0 AVERAGE STALL: -nan AVERAGE FETCH STALL: -nan AVERAGE FETCH QUEUE STALL: -nan AVERAGE DECODE STALL: -nan AVERAGE EXECUTE STALL: -nan
L2BTB TOTAL ROB OCCUPANCY AT BTB MISS: 47.6134

L2C TOTAL     ACCESS:    4469585  HIT:    3950897  MISS:     518688  HIT %:    88.3952  MISS %:    11.6048   MPKI: 10.3738
L2C LOAD INSTRUCTION	ACCESS:    2755221  HIT:    2463946  MISS:     291275  HIT %:    89.4283  MISS %:    10.5717  MPKI: 5.8255
L2C LOAD TRANSLATION INSTRUCTION	ACCESS:        504  HIT:        208  MISS:        296  HIT %:    41.2698  MISS %:    58.7302  MPKI: 0.00592
L2C LOAD DATA	ACCESS:     719039  HIT:     642942  MISS:      76097  HIT %:    89.4168  MISS %:    10.5832  MPKI: 1.52194
L2C RFO DATA	ACCESS:     287905  HIT:     227653  MISS:      60252  HIT %:    79.0723  MISS %:    20.9277  MPKI: 1.20504
L2C PREFETCH DATA	ACCESS:     184394  HIT:     111288  MISS:      73106  HIT %:    60.3534  MISS %:    39.6466  MPKI: 1.46212
L2C WRITEBACK DATA	ACCESS:     520526  HIT:     504304  MISS:      16222  HIT %:    96.8835  MISS %:    3.11646  MPKI: 0.32444
L2C LOAD TRANSLATION DATA	ACCESS:       1963  HIT:        532  MISS:       1431  HIT %:    27.1014  MISS %:    72.8986  MPKI: 0.02862
L2C TRANSLATION FROM L1D PREFETCHER DATA	ACCESS:         33  HIT:         24  MISS:          9  HIT %:    72.7273  MISS %:    27.2727  MPKI: 0.00018

L2C PREFETCH  REQUESTED:      91735  ISSUED:      91735  USEFUL:       7856  USELESS:      66034
L2C USEFUL LOAD PREFETCHES:       7856 PREFETCH ISSUED TO LOWER LEVEL:      73697  ACCURACY: 10.6599
 TIMELY PREFETCHES:       7856 LATE PREFETCHES: 591 DROPPED PREFETCHES: 0
L2C AVERAGE MISS LATENCY: 38.3498 cycles
L2C RQ	ACCESS:    3764690	FORWARD:          0	MERGED:          0	TO_CACHE:    3764666
L2C WQ	ACCESS:     520526	FORWARD:         24	MERGED:          0	TO_CACHE:     520526
L2C PQ	ACCESS:     192273	FORWARD:          0	MERGED:       3754	TO_CACHE:     188519

L2C Dense regions hint from L2: 0
PSCL5 TOTAL     ACCESS:       4728  HIT:       2364  MISS:       2364  HIT %:         50  MISS %:         50   MPKI: 0.04728
PSCL5 LOAD TRANSLATION INSTRUCTION	ACCESS:       4662  HIT:       2331  MISS:       2331  HIT %:         50  MISS %:         50  MPKI: 0.04662
PSCL5 TRANSLATION FROM L1D PREFETCHER INSTRUCTION	ACCESS:         66  HIT:         33  MISS:         33  HIT %:         50  MISS %:         50  MPKI: 0.00066


PSCL4 TOTAL     ACCESS:       4277  HIT:       2137  MISS:       2140  HIT %:    49.9649  MISS %:    50.0351   MPKI: 0.0428
PSCL4 LOAD TRANSLATION INSTRUCTION	ACCESS:       2317  HIT:       2104  MISS:        213  HIT %:    90.8071  MISS %:    9.19292  MPKI: 0.00426
PSCL4 TRANSLATION FROM L1D PREFETCHER INSTRUCTION	ACCESS:         33  HIT:         33  MISS:          0  HIT %:        100  MISS %:          0  MPKI: 0
PSCL4 LOAD TRANSLATION DATA	ACCESS:       1894  HIT:          0  MISS:       1894  HIT %:          0  MISS %:        100  MPKI: 0.03788
PSCL4 TRANSLATION FROM L1D PREFETCHER DATA	ACCESS:         33  HIT:          0  MISS:         33  HIT %:          0  MISS %:        100  MPKI: 0.00066


PSCL3 TOTAL     ACCESS:       4416  HIT:       2202  MISS:       2214  HIT %:    49.8641  MISS %:    50.1359   MPKI: 0.04428
PSCL3 LOAD TRANSLATION INSTRUCTION	ACCESS:       3850  HIT:       2175  MISS:       1675  HIT %:    56.4935  MISS %:    43.5065  MPKI: 0.0335
PSCL3 TRANSLATION FROM L1D PREFETCHER INSTRUCTION	ACCESS:         52  HIT:         27  MISS:         25  HIT %:    51.9231  MISS %:    48.0769  MPKI: 0.0005
PSCL3 LOAD TRANSLATION DATA	ACCESS:        512  HIT:          0  MISS:        512  HIT %:          0  MISS %:        100  MPKI: 0.01024
PSCL3 TRANSLATION FROM L1D PREFETCHER DATA	ACCESS:          2  HIT:          0  MISS:          2  HIT %:          0  MISS %:        100  MPKI: 4e-05


PSCL2 TOTAL     ACCESS:       4604  HIT:       2240  MISS:       2364  HIT %:    48.6533  MISS %:    51.3467   MPKI: 0.04728
PSCL2 LOAD TRANSLATION INSTRUCTION	ACCESS:       2666  HIT:       2207  MISS:        459  HIT %:    82.7832  MISS %:    17.2168  MPKI: 0.00918
PSCL2 TRANSLATION FROM L1D PREFETCHER INSTRUCTION	ACCESS:         33  HIT:         33  MISS:          0  HIT %:        100  MISS %:          0  MPKI: 0
PSCL2 LOAD TRANSLATION DATA	ACCESS:       1872  HIT:          0  MISS:       1872  HIT %:          0  MISS %:        100  MPKI: 0.03744
PSCL2 TRANSLATION FROM L1D PREFETCHER DATA	ACCESS:         33  HIT:          0  MISS:         33  HIT %:          0  MISS %:        100  MPKI: 0.00066


LLC TOTAL     ACCESS:     582499  HIT:     552208  MISS:      30291  HIT %:    94.7998  MISS %:    5.20018   MPKI: 0.60582
LLC LOAD INSTRUCTION	ACCESS:     291275  HIT:     290263  MISS:       1012  HIT %:    99.6526  MISS %:   0.347438  MPKI: 0.02024
LLC LOAD TRANSLATION INSTRUCTION	ACCESS:        296  HIT:        265  MISS:         31  HIT %:     89.527  MISS %:     10.473  MPKI: 0.00062
LLC LOAD DATA	ACCESS:      75573  HIT:      72138  MISS:       3435  HIT %:    95.4547  MISS %:    4.54527  MPKI: 0.0687
LLC RFO DATA	ACCESS:      60182  HIT:      44977  MISS:      15205  HIT %:     74.735  MISS %:     25.265  MPKI: 0.3041
LLC PREFETCH DATA	ACCESS:      73697  HIT:      63539  MISS:      10158  HIT %:    86.2165  MISS %:    13.7835  MPKI: 0.20316
LLC WRITEBACK DATA	ACCESS:      80036  HIT:      79670  MISS:        366  HIT %:    99.5427  MISS %:   0.457294  MPKI: 0.00732
LLC LOAD TRANSLATION DATA	ACCESS:       1431  HIT:       1347  MISS:         84  HIT %:      94.13  MISS %:    5.87002  MPKI: 0.00168
LLC TRANSLATION FROM L1D PREFETCHER DATA	ACCESS:          9  HIT:          9  MISS:          0  HIT %:        100  MISS %:          0  MPKI: 0

LLC AVERAGE MISS LATENCY: 157.688 cycles
LLC RQ	ACCESS:     428769	FORWARD:          0	MERGED:          0	TO_CACHE:     428766
LLC WQ	ACCESS:      80036	FORWARD:          3	MERGED:          0	TO_CACHE:      80036
LLC PQ	ACCESS:      73697	FORWARD:          0	MERGED:          0	TO_CACHE:      73697

LLC Dense regions hint to LLC: 0

RAW hits: 1349895
Loads Generated: 12643653
Loads sent to L1D: 11293758
Stores Generated: 6947170
Stores sent to L1D: 6947176
Major fault: 0 Minor fault: 2653
Allocated PAGES: 2653

stream: 
stream:times selected: 1194284
stream:pref_filled: 118419
stream:pref_useful: 23251
stream:pref_late: 6154
stream:misses: 6958
stream:misses_by_poll: 0

CS: 
CS:times selected: 181591
CS:pref_filled: 61278
CS:pref_useful: 38065
CS:pref_late: 6444
CS:misses: 15990
CS:misses_by_poll: 11

CPLX: 
CPLX:times selected: 1011646
CPLX:pref_filled: 19982
CPLX:pref_useful: 4777
CPLX:pref_late: 3115
CPLX:misses: 89847
CPLX:misses_by_poll: 0

NL_L1: 
NL:times selected: 20318
NL:pref_filled: 664
NL:pref_useful: 281
NL:pref_late: 203
NL:misses: 956
NL:misses_by_poll: 0

total selections: 2407839
total_filled: 93435
total_useful: 33855
total_late: 17087
total_polluted: 11
total_misses_after_warmup: 751174
conflicts: 5878210

test: 115690

DRAM Statistics
 CHANNEL 0
 RQ ROW_BUFFER_HIT:      11216  ROW_BUFFER_MISS:      18697
 DBUS_CONGESTED:         12
 WQ ROW_BUFFER_HIT:       1594  ROW_BUFFER_MISS:      13273  FULL:          0

 AVG_CONGESTED_CYCLE: 6

CPU 0 Branch Prediction Accuracy: 99.8157% MPKI: 0.3369 Average ROB Occupancy at Mispredict: 96.5615
Branch types
NOT_BRANCH: 40861042 81.7221%
BRANCH_DIRECT_JUMP: 549193 1.09839%
BRANCH_INDIRECT: 183380 0.36676%
BRANCH_CONDITIONAL: 6181448 12.3629%
BRANCH_DIRECT_CALL: 941055 1.88211%
BRANCH_INDIRECT_CALL: 171155 0.34231%
BRANCH_RETURN: 1112218 2.22444%
BRANCH_OTHER: 0 0%

DRAM PAGES: 1048576
Allocated PAGES: 2653
Average_ROB_Occupancy: 56.6675
Average_Decode_Occupancy: 6.50863
Average_FTQ_Occupancy: 3.55594
Indirect max targets: 14 Average targets: 1.15738
Branch_type:  BRANCH_DIRECT_JUMP:  Count Percentage: 3.34441 6.98326 3.78775 7.91685 2.2354 2.84806 1.35518 71.5291 
Branch_type:  BRANCH_INDIRECT:  Count Percentage: 11.7336 3.4599 2.61842 9.68722 3.33677 2.80121 0.933553 65.4294 
Branch_type:  BRANCH_CONDITIONAL:  Count Percentage: 21.883 2.46927 2.27678 4.72197 1.5427 2.99532 3.86709 60.2438 
Branch_type:  BRANCH_DIRECT_CALL:  Count Percentage: 0.861401 1.24925 0.762815 4.44557 1.96474 2.12838 0.863583 87.7243 
Branch_type:  BRANCH_INDIRECT_CALL:  Count Percentage: 9.56193 0 2.99422 0.0055671 0.00058601 2.19344 1.00413 84.2401 
Branch_type:  BRANCH_RETURN:  Count Percentage: 4.69911 1.39551 1.46747 4.45099 3.37439 4.65629 3.73932 76.2169 
Branch_type:  BRANCH_DIRECT_JUMP:  Total Count: 36722 76677 41590 86928 24545 31272 14880 785398 
Branch_type:  BRANCH_INDIRECT:  Total Count: 43073 12701 9612 35561 12249 10283 3427 240186 
Branch_type:  BRANCH_CONDITIONAL:  Total Count: 2704214 305142 281355 583522 190641 370150 477879 7444688 
Branch_type:  BRANCH_DIRECT_CALL:  Total Count: 16182 23468 14330 83513 36909 39983 16223 1647960 
Branch_type:  BRANCH_INDIRECT_CALL:  Total Count: 32634 0 10219 19 2 7486 3427 287504 
Branch_type:  BRANCH_RETURN:  Total Count: 104353 30990 32588 98843 74935 103402 83039 1692546 
Number of unique branch instructions: 10380
Upper 32 bits: 
aaaa
ffff
ffff0000
Unique upper 32 bits: 3
Unique upper 36 bits: 3
Unique upper 40 bits: 5
Unique upper 44 bits: 32
Unique upper 48 bits: 158
Variant_0 : 629 0.307129
Variant_1 : 1419 0.692871
Variant_2 : 0 0
Variant_3 : 0 0
Offset_3 4289
Offset_4 268
Offset_5 474
Offset_6 521
Offset_7 613
Offset_8 534
Offset_9 490
Offset_10 398
Offset_11 324
Offset_12 291
Offset_13 223
Offset_14 241
Offset_15 190
Offset_16 226
Offset_17 170
Offset_18 122
Offset_19 252
Offset_20 141
Offset_21 261
Offset_22 404
Offset_23 241
Offset_24 355
Offset_25 92
Offset_47 88
Offset_64 1
decode_dispatch_called: 20229955 29.7103
Dispatch_width: 0 9850381 48.6921 14.4665
Dispatch_width: 1 641931 3.17317 0.942758
Dispatch_width: 2 925378 4.5743 1.35904
Dispatch_width: 3 630804 3.11817 0.926416
Dispatch_width: 4 1502175 7.4255 2.20614
Dispatch_width: 5 469825 2.32242 0.689998
Dispatch_width: 6 6209461 30.6944 9.11939
Empty_decode_cycles: 47860805 70.2897
ROB_full_cycles: 1248168 1.83309
Starvation_cycles_per_kilo_instr: 606.331
Starvation_cycles_per_kilo_instr_3: 586.611
Starvation_cycles_per_kilo_instr_0: 564.63
Branch_type_1  (3,1)  (4,10)  (5,39)  (6,70)  (7,121)  (8,134)  (9,129)  (10,102)  (11,69)  (12,43)  (13,8)  (14,2)  (15,3)  (16,4)  (18,1)  (19,4)  (20,2)  (21,1)  (22,3)  (23,2)  (24,10)  (25,12)  (64,1) 
Branch_type_2  (3,1)  (4,1)  (5,1)  (8,3)  (9,3)  (12,1)  (13,1)  (14,1)  (16,3)  (17,2)  (20,2)  (21,2)  (23,5)  (24,1)  (47,41) 
Branch_type_3  (3,4287)  (4,257)  (5,430)  (6,436)  (7,461)  (8,336)  (9,267)  (10,160)  (11,126)  (12,50)  (13,7) 
Branch_type_4  (6,3)  (7,8)  (8,25)  (9,54)  (10,64)  (11,65)  (12,108)  (13,96)  (14,108)  (15,90)  (16,101)  (17,79)  (18,55)  (19,124)  (20,72)  (21,141)  (22,215)  (23,136)  (24,205)  (25,76) 
Branch_type_5  (8,2)  (9,1)  (10,4)  (11,6)  (12,3)  (13,14)  (14,16)  (15,11)  (16,20)  (17,11)  (18,16)  (19,13)  (20,12)  (21,13)  (22,42)  (23,26)  (24,41) 
Branch_type_6  (5,4)  (6,12)  (7,23)  (8,34)  (9,36)  (10,68)  (11,58)  (12,86)  (13,97)  (14,114)  (15,86)  (16,98)  (17,78)  (18,50)  (19,111)  (20,53)  (21,104)  (22,144)  (23,72)  (24,98)  (25,4)  (47,47) 
Unique trigger count: 
Variant_0_evicts_0 : 0
Variant_0_evicts_1 : 0
Variant_0_evicts_2 : 0
Variant_0_evicts_3 : 0
Variant_1_evicts_0 : 0
Variant_1_evicts_1 : 0
Variant_1_evicts_2 : 0
Variant_1_evicts_3 : 0
Variant_2_evicts_0 : 0
Variant_2_evicts_1 : 0
Variant_2_evicts_2 : 0
Variant_2_evicts_3 : 0
Variant_3_evicts_0 : 0
Variant_3_evicts_1 : 0
Variant_3_evicts_2 : 0
Variant_3_evicts_3 : 0
BTB PER SET UNIQUE ADDR: 46 48 48 51 53 40 52 43 42 44 57 45 42 47 44 38 38 42 48 47 50 53 36 39 48 35 56 51 48 39 47 46 43 37 46 45 46 38 43 49 45 43 42 54 42 51 46 36 41 38 56 51 50 47 50 53 43 49 46 38 49 44 43 57 49 53 51 47 50 36 45 61 50 47 55 47 42 41 48 51 48 34 48 33 38 56 53 57 58 56 51 39 60 42 50 56 39 52 56 59 61 55 45 46 44 47 47 43 47 38 47 45 49 59 38 54 57 36 48 57 59 47 48 62 48 51 60 48 53 50 59 41 51 44 46 46 50 54 44 61 46 38 45 49 48 53 46 50 39 38 56 42 52 51 53 42 44 34 52 53 50 42 44 43 48 55 53 46 42 38 43 39 46 43 56 55 58 47 48 56 37 53 45 41 42 48 49 50 46 45 47 41 37 41 51 50 57 46 45 49 54 40 56 43 39 39 54 46 44 48 49 46 48 49 34 60 46 36 42 35 40 45 49 41 47 42 48 48 55 48 33 44 65 58 47 42 42 41 49 45 42 59 57 49 39 62 40 46 47 34 50 39 56 39 51 30 52 52 49 44 52 46 56 51 44 42 47 48 53 55 40 42 52 43 59 48 46 44 44 48 51 37 46 58 43 41 27 51 43 52 64 44 36 47 40 49 47 49 52 42 54 46 56 49 49 47 48 43 39 46 46 44 32 50 43 49 43 46 43 49 36 48 42 48 51 67 59 67 41 61 48 40 53 44 59 40 43 61 54 54 52 43 46 47 50 46 50 59 43 49 52 48 45 60 58 48 46 61 47 45 46 32 42 42 55 52 36 45 45 49 59 49 52 50 53 43 50 47 41 40 49 54 60 45 46 46 52 51 37 55 52 54 57 49 51 40 40 47 63 50 35 48 48 42 49 54 49 46 41 44 45 40 51 39 56 49 52 45 53 62 48 58 56 55 59 37 46 52 56 48 48 57 48 39 46 52 48 52 52 57 52 45 51 43 39 51 42 46 51 51 55 38 51 52 47 63 60 39 43 43 37 42 59 45 69 32 55 47 56 61 51 52 36 48 49 43 38 40 48 53 47 52 49 68 47 42 53 49 54 39 42 41 41 42 44 48 39 42 37 29 47 48 53 36 44 52 63 37 53 56 46 43 
BTB PER SET COUNT: 5199 5134 5726 7176 6155 5266 7115 4991 3898 6207 8799 5269 4667 5821 5895 3780 4072 5670 6045 5214 5575 6430 3600 4215 6797 5795 7509 7308 6252 4590 6075 5254 5615 8615 5668 5691 5595 3251 5223 6580 6104 5317 5428 6597 4695 6775 6409 4103 4962 5132 7582 6128 5345 4928 5667 7155 4207 6700 6377 3712 6861 5438 4840 7349 5999 6863 6232 6385 7808 3477 5028 6940 5698 4901 6334 6407 5469 4628 6954 7190 6884 3782 5113 3853 4728 6910 7048 7481 7665 6887 5978 4469 7858 4964 5714 7441 4410 6241 7513 7671 7112 8171 6056 7014 5064 5127 7137 4986 5374 5982 6638 6279 6278 7639 4717 7152 7273 4326 6107 7616 6515 5426 7360 11564 6773 7517 7264 5744 7319 7314 8699 9306 7266 4767 5971 7115 5927 6495 4934 7841 6368 5764 5769 5965 6369 7420 6792 6743 5120 4000 7828 5110 5827 5371 6940 4396 6100 3542 6152 7690 5937 3902 5176 10459 4783 8606 8114 6442 3783 4344 4867 3620 6122 4565 8226 7704 7044 6359 6783 6564 5115 6849 5598 4780 5671 5153 6253 6450 6207 6670 7457 4958 5170 4924 7231 6572 7884 5152 5973 4859 7639 4444 8696 5102 4353 4568 7663 6024 4937 5944 6358 4614 7014 5298 4624 8147 5333 5894 4430 4089 5184 6009 6573 4992 6765 5091 6354 5979 8224 6316 4347 5456 8210 6740 5506 5679 4832 5203 6984 5320 4540 7849 6323 6904 5065 9568 4069 6097 7327 5431 6071 4093 7090 4118 6848 2998 7881 6451 5753 6001 7313 6052 6239 6557 5823 5400 6390 5920 7648 8044 5119 4347 7131 5659 7525 5998 5848 5056 5800 6562 5618 4027 5619 8969 5496 4574 2433 6848 5798 6015 7290 6166 3872 5630 4261 7132 6210 6346 6898 6121 7202 5153 6093 5720 5399 6381 12915 3802 5298 5414 5388 7288 4599 6646 4961 7024 4833 4957 5648 6163 4416 5739 5652 11736 4794 10368 8947 9975 4284 7582 6664 4578 6284 5928 8951 5353 5142 7559 8049 6034 7735 5359 6056 5409 6971 5911 7061 7217 5315 6492 6865 5924 5248 9418 8664 5639 5895 8490 7085 5881 4963 3809 5081 4563 8236 6284 5508 6076 5426 7157 9295 6450 5899 5871 7264 4576 7698 5264 4941 4380 6788 7143 7101 6034 5032 5374 6335 7530 4026 6646 6609 6592 5532 5381 6116 5222 5429 4926 7618 7110 3842 5415 5577 4389 6233 6682 6269 5978 4584 5595 5732 3972 6004 3519 7364 5428 5517 6415 7727 7670 6188 7512 7270 11192 7516 4005 4818 6556 8033 5629 10534 7921 6236 5708 6435 5936 6512 6655 7292 7362 5866 6433 5726 5607 5969 7015 5330 5632 6822 7105 6666 4957 7298 6599 5101 7627 8582 5332 4785 4345 4364 5711 6908 5674 12754 3124 7592 6752 7097 8112 6408 6540 3836 6208 6127 8297 5885 4419 5748 6682 7235 6637 6939 9803 4823 5524 6967 5264 7544 4708 5165 4124 4919 5062 5181 6106 4842 4786 4234 3401 5415 5393 5749 3938 5864 6627 7663 4799 6946 6251 6339 6525 
To predecode: 0
Predecoding something: 0
Predecode request dropped: 0
sizeofblock_0 0
sizeofblock_1 627712
sizeofblock_2 1595012
sizeofblock_3 0
sizeofblock_4 0
sizeofblock_5 0
sizeofblock_6 0
sizeofblock_7 0
sizeofblock_8 0
Variant_0 Correct: 743479 Incorrect: 0 Accuracy: 1
Variant_1 Correct: 3548746 Incorrect: 0 Accuracy: 1
Variant_2 Correct: 0 Incorrect: 0 Accuracy: -nan
Variant_3 Correct: 0 Incorrect: 0 Accuracy: -nan
