
*** ChampSim Multicore Out-of-Order Simulator ***

Warmup Instructions: 50000000
Simulation Instructions: 50000000
Number of CPUs: 1
LLC sets: 2048
LLC ways: 16
Off-chip DRAM Size: 4096 MB Channels: 1 Width: 64-bit Data Rate: 6400 MT/s
CPU 0 runs ./micro_traces/srv439.trace.gz
.gz
ITLB has LRU replacement policy
DTLB has LRU replacement policy
STLB has LRU replacement policy
FDIP Prefetcher at L1I
L1I has LRU replacement policy
L1D has LRU replacement policy
Initialize SRRIP state for L2C
Initialize DRRIP state for LLC
Heartbeat CPU 0 instructions: 10000003 cycles: 2797840 heartbeat IPC: 3.57419 cumulative IPC: 3.57419 (Simulation time: 0 hr 2 min 5 sec) 
Heartbeat CPU 0 instructions: 20000002 cycles: 5594731 heartbeat IPC: 3.5754 cumulative IPC: 3.57479 (Simulation time: 0 hr 4 min 6 sec) 
Heartbeat CPU 0 instructions: 30000001 cycles: 8392009 heartbeat IPC: 3.5749 cumulative IPC: 3.57483 (Simulation time: 0 hr 5 min 58 sec) 
Heartbeat CPU 0 instructions: 40000000 cycles: 11189202 heartbeat IPC: 3.57501 cumulative IPC: 3.57488 (Simulation time: 0 hr 7 min 47 sec) 
Heartbeat CPU 0 instructions: 50000001 cycles: 13986078 heartbeat IPC: 3.57542 cumulative IPC: 3.57498 (Simulation time: 0 hr 9 min 39 sec) 

Warmup complete CPU 0 instructions: 50000001 cycles: 13986078 (Simulation time: 0 hr 9 min 39 sec) 

Cycle: 20000000 FTQ IN: 58746160 FTQ occupancy: 21.1918 DECODE IN: 58746054 DECODE occupancy: 55.5552 ROB IN: 58745994 ROB occupancy: 331.916 ROB OUT: 58745642
Heartbeat CPU 0 instructions: 60000002 cycles: 20861489 heartbeat IPC: 1.45446 cumulative IPC: 1.45446 (Simulation time: 0 hr 12 min 3 sec) 
Heartbeat CPU 0 instructions: 70000000 cycles: 27714471 heartbeat IPC: 1.45922 cumulative IPC: 1.45683 (Simulation time: 0 hr 14 min 20 sec) 
Cycle: 30000000 FTQ IN: 14475282 FTQ occupancy: 17.2338 DECODE IN: 14475286 DECODE occupancy: 45.61 ROB IN: 14475286 ROB occupancy: 294.607 ROB OUT: 14475286
Heartbeat CPU 0 instructions: 80000000 cycles: 34634389 heartbeat IPC: 1.4451 cumulative IPC: 1.4529 (Simulation time: 0 hr 16 min 44 sec) 
Cycle: 40000000 FTQ IN: 14607354 FTQ occupancy: 17.3235 DECODE IN: 14607305 DECODE occupancy: 45.8551 ROB IN: 14607305 ROB occupancy: 295.904 ROB OUT: 14607305
Heartbeat CPU 0 instructions: 90000002 cycles: 41505005 heartbeat IPC: 1.45547 cumulative IPC: 1.45355 (Simulation time: 0 hr 19 min 22 sec) 
Heartbeat CPU 0 instructions: 100000003 cycles: 48426838 heartbeat IPC: 1.4447 cumulative IPC: 1.45177 (Simulation time: 0 hr 21 min 43 sec) 
Finished CPU 0 instructions: 50000002 cycles: 34440760 cumulative IPC: 1.45177 (Simulation time: 0 hr 21 min 43 sec) 

ChampSim completed all CPUs

Region of Interest Statistics

CPU 0 cumulative IPC: 1.45177 instructions: 50000002 cycles: 34440760
 Fetch stage stalled: 24.0978  Sim cycles: 34440760 fetch stall cycle: 8299476
 Empty decode stage: 8.29759  Sim cycles: 34440760 fetch stall cycle: 2857753
ITLB TOTAL     ACCESS:    5822945  HIT:    5327819  MISS:     495126  HIT %:     91.497  MISS %:    8.50302   MPKI: 9.90252
ITLB LOAD TRANSLATION INSTRUCTION	ACCESS:    5663880  HIT:    5168754  MISS:     495126  HIT %:    91.2582  MISS %:    8.74182  MPKI: 9.90252
ITLB TRANSLATION FROM L1D PREFETCHER INSTRUCTION	ACCESS:     159065  HIT:     159065  MISS:          0  HIT %:        100  MISS %:          0  MPKI: 0

ITLB AVERAGE MISS LATENCY: 9.07149 cycles
ITLB RQ	ACCESS:    7854319	FORWARD:          0	MERGED:    1450956	TO_CACHE:    6403363

DTLB TOTAL     ACCESS:    8917680  HIT:    8446366  MISS:     471314  HIT %:    94.7148  MISS %:    5.28516   MPKI: 9.42628
DTLB LOAD TRANSLATION DATA	ACCESS:    8917680  HIT:    8446366  MISS:     471314  HIT %:    94.7148  MISS %:    5.28516  MPKI: 9.42628

DTLB AVERAGE MISS LATENCY: 9.34835 cycles
DTLB RQ	ACCESS:   13298544	FORWARD:          0	MERGED:    4343304	TO_CACHE:    8955240

STLB TOTAL     ACCESS:    1213207  HIT:    1210982  MISS:       2225  HIT %:    99.8166  MISS %:   0.183398   MPKI: 0.0445
STLB LOAD TRANSLATION INSTRUCTION	ACCESS:     495126  HIT:     494826  MISS:        300  HIT %:    99.9394  MISS %:  0.0605906  MPKI: 0.006
STLB LOAD TRANSLATION DATA	ACCESS:     471313  HIT:     469410  MISS:       1903  HIT %:    99.5962  MISS %:   0.403766  MPKI: 0.03806
STLB TRANSLATION FROM L1D PREFETCHER DATA	ACCESS:     246768  HIT:     246746  MISS:         22  HIT %:    99.9911  MISS %: 0.00891526  MPKI: 0.00044

STLB AVERAGE MISS LATENCY: 73.9506 cycles
STLB RQ	ACCESS:    1333870	FORWARD:          0	MERGED:     120618	TO_CACHE:    1213252

STLB Hit, L1D data hit: 0
STLB Hit, L2C data hit: 0
STLB Hit, LLC data hit: 0
STLB Hit, LLC data miss: 0
STLB STLB hints to L2: 0
L1D TOTAL     ACCESS:   13037558  HIT:   11912244  MISS:    1125314  HIT %:    91.3687  MISS %:    8.63132   MPKI: 22.5063
L1D LOAD DATA	ACCESS:    6511834  HIT:    5768985  MISS:     742849  HIT %:    88.5923  MISS %:    11.4077  MPKI: 14.857
L1D RFO DATA	ACCESS:    6199461  HIT:    5912231  MISS:     287230  HIT %:    95.3669  MISS %:    4.63314  MPKI: 5.7446
L1D PREFETCH DATA	ACCESS:     326263  HIT:     231028  MISS:      95235  HIT %:    70.8104  MISS %:    29.1896  MPKI: 1.9047

L1D PREFETCH  REQUESTED:     735211  ISSUED:     735211  USEFUL:      34875  USELESS:      68449
L1D USEFUL LOAD PREFETCHES:      34875 PREFETCH ISSUED TO LOWER LEVEL:     103359  ACCURACY: 33.7416
 TIMELY PREFETCHES:      34875 LATE PREFETCHES: 8084 DROPPED PREFETCHES: 7
L1D AVERAGE MISS LATENCY: 223036 cycles
L1D RQ	ACCESS:   10663843	FORWARD:          0	MERGED:    3955930	TO_CACHE:    6545907
L1D WQ	ACCESS:    6955226	FORWARD:     162357	MERGED:     202589	TO_CACHE:    6752637
L1D PQ	ACCESS:     367781	FORWARD:          0	MERGED:          0	TO_CACHE:     367430

L1D UNIQUE REGIONS ACCESSED: 0
L1D REGIONS CONFLICTS: 0
L1D Cross Page Prefetch Requests: 6864
L1D Same Page Prefetch Requests: 745307
L1D ROI Sum of L1D PQ occupancy: 4672573
L1D PREFETCHES PUSHED FROM L2C: 0
L1I TOTAL     ACCESS:    7010850  HIT:    4239024  MISS:    2771826  HIT %:    60.4638  MISS %:    39.5362   MPKI: 55.4365
L1I LOAD INSTRUCTION	ACCESS:    6342279  HIT:    3570453  MISS:    2771826  HIT %:    56.2961  MISS %:    43.7039  MPKI: 55.4365
L1I PREFETCH INSTRUCTION	ACCESS:     668571  HIT:     668571  MISS:          0  HIT %:        100  MISS %:          0  MPKI: 0

L1I PREFETCH  REQUESTED:    1676397  ISSUED:    1676397  USEFUL:          0  USELESS:          0
L1I USEFUL LOAD PREFETCHES:          0 PREFETCH ISSUED TO LOWER LEVEL:          0  ACCURACY: -nan
 TIMELY PREFETCHES:          0 LATE PREFETCHES: 0 DROPPED PREFETCHES: 0
L1I AVERAGE MISS LATENCY: 18.062 cycles
L1I RQ	ACCESS:    9796541	FORWARD:          0	MERGED:    3182606	TO_CACHE:    6613935
L1I PQ	ACCESS:    1676397	FORWARD:          0	MERGED:     436013	TO_CACHE:    1240384

L1BTB TOTAL     ACCESS:    5370293  HIT:    5337789  MISS:      32504  HIT %:    99.3947  MISS %:   0.605256   MPKI: 0.65008
L1BTB BRANCH_DIRECT_JUMP	ACCESS:     546724  HIT:     546724  MISS:          0	AVERAGE STALL: -nan
L1BTB BRANCH_INDIRECT	ACCESS:     182359  HIT:     169326  MISS:      13033	AVERAGE STALL: 123.863
L1BTB BRANCH_CONDITIONAL	ACCESS:    2403947  HIT:    2403947  MISS:          0	AVERAGE STALL: -nan
L1BTB BRANCH_DIRECT_CALL	ACCESS:     946876  HIT:     946876  MISS:          0	AVERAGE STALL: -nan
L1BTB BRANCH_INDIRECT_CALL	ACCESS:     171762  HIT:     152291  MISS:      19471	AVERAGE STALL: 165.25
L1BTB BRANCH_RETURN	ACCESS:    1118625  HIT:    1118625  MISS:          0	AVERAGE STALL: -nan
L1BTB BRANCH_OTHER ACCESS:          0  HIT:          0  MISS:          0	AVERAGE STALL: -nan
L1BTB TOTAL ROB OCCUPANCY AT BTB MISS: 148.986

L2BTB BRANCH_DIRECT_JUMP	ACCESS:          0  HIT:          0  MISS:          0	AVERAGE STALL: -nan
L2BTB BRANCH_INDIRECT	ACCESS:          0  HIT:          0  MISS:          0	AVERAGE STALL: 123.863
L2BTB BRANCH_CONDITIONAL	ACCESS:          0  HIT:          0  MISS:          0	AVERAGE STALL: -nan
L2BTB BRANCH_DIRECT_CALL	ACCESS:          0  HIT:          0  MISS:          0	AVERAGE STALL: -nan
L2BTB BRANCH_INDIRECT_CALL	ACCESS:          0  HIT:          0  MISS:          0	AVERAGE STALL: 165.25
L2BTB BRANCH_RETURN	ACCESS:          0  HIT:          0  MISS:          0	AVERAGE STALL: -nan
L2BTB BRANCH_OTHER ACCESS:          0  HIT:          0  MISS:          0	AVERAGE STALL: -nan
L2BTB TOTAL ROB OCCUPANCY AT BTB MISS: inf

L2C TOTAL     ACCESS:    4514501  HIT:    3962763  MISS:     551738  HIT %:    87.7785  MISS %:    12.2215   MPKI: 11.0348
L2C LOAD INSTRUCTION	ACCESS:    2771827  HIT:    2453181  MISS:     318646  HIT %:    88.5041  MISS %:    11.4959  MPKI: 6.37292
L2C LOAD TRANSLATION INSTRUCTION	ACCESS:        339  HIT:         77  MISS:        262  HIT %:    22.7139  MISS %:    77.2861  MPKI: 0.00524
L2C LOAD DATA	ACCESS:     734720  HIT:     653101  MISS:      81619  HIT %:    88.8911  MISS %:    11.1089  MPKI: 1.63238
L2C RFO DATA	ACCESS:     287147  HIT:     231546  MISS:      55601  HIT %:    80.6367  MISS %:    19.3633  MPKI: 1.11202
L2C PREFETCH DATA	ACCESS:     193159  HIT:     115755  MISS:      77404  HIT %:    59.9273  MISS %:    40.0727  MPKI: 1.54808
L2C WRITEBACK DATA	ACCESS:     525280  HIT:     508431  MISS:      16849  HIT %:    96.7924  MISS %:    3.20762  MPKI: 0.33698
L2C LOAD TRANSLATION DATA	ACCESS:       1984  HIT:        642  MISS:       1342  HIT %:    32.3589  MISS %:    67.6411  MPKI: 0.02684
L2C TRANSLATION FROM L1D PREFETCHER DATA	ACCESS:         45  HIT:         30  MISS:         15  HIT %:    66.6667  MISS %:    33.3333  MPKI: 0.0003

L2C PREFETCH  REQUESTED:      98502  ISSUED:      98502  USEFUL:       8325  USELESS:      69889
L2C USEFUL LOAD PREFETCHES:       8325 PREFETCH ISSUED TO LOWER LEVEL:      78141  ACCURACY: 10.6538
 TIMELY PREFETCHES:       8325 LATE PREFETCHES: 737 DROPPED PREFETCHES: 0
L2C AVERAGE MISS LATENCY: 37.8569 cycles
L2C RQ	ACCESS:    3796155	FORWARD:          0	MERGED:          0	TO_CACHE:    3796067
L2C WQ	ACCESS:     525280	FORWARD:         88	MERGED:          0	TO_CACHE:     525280
L2C PQ	ACCESS:     201861	FORWARD:          0	MERGED:       3712	TO_CACHE:     198149

L2C Dense regions hint from L2: 0
PSCL5 TOTAL     ACCESS:       4468  HIT:       2234  MISS:       2234  HIT %:         50  MISS %:         50   MPKI: 0.04468
PSCL5 LOAD TRANSLATION INSTRUCTION	ACCESS:       4378  HIT:       2189  MISS:       2189  HIT %:         50  MISS %:         50  MPKI: 0.04378
PSCL5 TRANSLATION FROM L1D PREFETCHER INSTRUCTION	ACCESS:         90  HIT:         45  MISS:         45  HIT %:         50  MISS %:         50  MPKI: 0.0009


PSCL4 TOTAL     ACCESS:       4035  HIT:       2014  MISS:       2021  HIT %:    49.9133  MISS %:    50.0867   MPKI: 0.04042
PSCL4 LOAD TRANSLATION INSTRUCTION	ACCESS:       1975  HIT:       1975  MISS:          0  HIT %:        100  MISS %:          0  MPKI: 0
PSCL4 TRANSLATION FROM L1D PREFETCHER INSTRUCTION	ACCESS:         39  HIT:         39  MISS:          0  HIT %:        100  MISS %:          0  MPKI: 0
PSCL4 LOAD TRANSLATION DATA	ACCESS:       1982  HIT:          0  MISS:       1982  HIT %:          0  MISS %:        100  MPKI: 0.03964
PSCL4 TRANSLATION FROM L1D PREFETCHER DATA	ACCESS:         39  HIT:          0  MISS:         39  HIT %:          0  MISS %:        100  MPKI: 0.00078


PSCL3 TOTAL     ACCESS:       4045  HIT:       2019  MISS:       2026  HIT %:    49.9135  MISS %:    50.0865   MPKI: 0.04052
PSCL3 LOAD TRANSLATION INSTRUCTION	ACCESS:       1980  HIT:       1980  MISS:          0  HIT %:        100  MISS %:          0  MPKI: 0
PSCL3 TRANSLATION FROM L1D PREFETCHER INSTRUCTION	ACCESS:         39  HIT:         39  MISS:          0  HIT %:        100  MISS %:          0  MPKI: 0
PSCL3 LOAD TRANSLATION DATA	ACCESS:       1987  HIT:          0  MISS:       1987  HIT %:          0  MISS %:        100  MPKI: 0.03974
PSCL3 TRANSLATION FROM L1D PREFETCHER DATA	ACCESS:         39  HIT:          0  MISS:         39  HIT %:          0  MISS %:        100  MPKI: 0.00078


PSCL2 TOTAL     ACCESS:       4348  HIT:       2114  MISS:       2234  HIT %:    48.6201  MISS %:    51.3799   MPKI: 0.04468
PSCL2 LOAD TRANSLATION INSTRUCTION	ACCESS:       2367  HIT:       2069  MISS:        298  HIT %:    87.4102  MISS %:    12.5898  MPKI: 0.00596
PSCL2 TRANSLATION FROM L1D PREFETCHER INSTRUCTION	ACCESS:         45  HIT:         45  MISS:          0  HIT %:        100  MISS %:          0  MPKI: 0
PSCL2 LOAD TRANSLATION DATA	ACCESS:       1891  HIT:          0  MISS:       1891  HIT %:          0  MISS %:        100  MPKI: 0.03782
PSCL2 TRANSLATION FROM L1D PREFETCHER DATA	ACCESS:         45  HIT:          0  MISS:         45  HIT %:          0  MISS %:        100  MPKI: 0.0009


LLC TOTAL     ACCESS:     614276  HIT:     583654  MISS:      30622  HIT %:    95.0149  MISS %:    4.98506   MPKI: 0.61244
LLC LOAD INSTRUCTION	ACCESS:     318646  HIT:     317678  MISS:        968  HIT %:    99.6962  MISS %:   0.303785  MPKI: 0.01936
LLC LOAD TRANSLATION INSTRUCTION	ACCESS:        262  HIT:        216  MISS:         46  HIT %:    82.4427  MISS %:    17.5573  MPKI: 0.00092
LLC LOAD DATA	ACCESS:      80932  HIT:      77234  MISS:       3698  HIT %:    95.4307  MISS %:    4.56927  MPKI: 0.07396
LLC RFO DATA	ACCESS:      55541  HIT:      40299  MISS:      15242  HIT %:    72.5572  MISS %:    27.4428  MPKI: 0.30484
LLC PREFETCH DATA	ACCESS:      78138  HIT:      67940  MISS:      10198  HIT %:    86.9487  MISS %:    13.0513  MPKI: 0.20396
LLC WRITEBACK DATA	ACCESS:      79400  HIT:      79015  MISS:        385  HIT %:    99.5151  MISS %:   0.484887  MPKI: 0.0077
LLC LOAD TRANSLATION DATA	ACCESS:       1342  HIT:       1257  MISS:         85  HIT %:    93.6662  MISS %:    6.33383  MPKI: 0.0017
LLC TRANSLATION FROM L1D PREFETCHER DATA	ACCESS:         15  HIT:         15  MISS:          0  HIT %:        100  MISS %:          0  MPKI: 0

LLC AVERAGE MISS LATENCY: 156.606 cycles
LLC RQ	ACCESS:     456748	FORWARD:          0	MERGED:          0	TO_CACHE:     456738
LLC WQ	ACCESS:      79400	FORWARD:         13	MERGED:          0	TO_CACHE:      79400
LLC PQ	ACCESS:      78141	FORWARD:          0	MERGED:          0	TO_CACHE:      78138

LLC Dense regions hint to LLC: 0

RAW hits: 1975017
Loads Generated: 12638860
Loads sent to L1D: 10663843
Stores Generated: 6955224
Stores sent to L1D: 6955226
Major fault: 0 Minor fault: 2610
Allocated PAGES: 2610

stream: 
stream:times selected: 1181800
stream:pref_filled: 121295
stream:pref_useful: 24032
stream:pref_late: 6907
stream:misses: 7878
stream:misses_by_poll: 0

CS: 
CS:times selected: 176442
CS:pref_filled: 59078
CS:pref_useful: 35822
CS:pref_late: 7260
CS:misses: 17004
CS:misses_by_poll: 5

CPLX: 
CPLX:times selected: 1004236
CPLX:pref_filled: 19252
CPLX:pref_useful: 4493
CPLX:pref_late: 3163
CPLX:misses: 94782
CPLX:misses_by_poll: 1

NL_L1: 
NL:times selected: 20950
NL:pref_filled: 725
NL:pref_useful: 307
NL:pref_late: 276
NL:misses: 1641
NL:misses_by_poll: 0

total selections: 2383428
total_filled: 95235
total_useful: 34875
total_late: 18882
total_polluted: 6
total_misses_after_warmup: 776921
conflicts: 5510896

test: 116525

DRAM Statistics
 CHANNEL 0
 RQ ROW_BUFFER_HIT:      11570  ROW_BUFFER_MISS:      18653
 DBUS_CONGESTED:          6
 WQ ROW_BUFFER_HIT:       1425  ROW_BUFFER_MISS:      12601  FULL:          0

 AVG_CONGESTED_CYCLE: 2

CPU 0 Branch Prediction Accuracy: 99.8224% MPKI: 0.3247 Average ROB Occupancy at Mispredict: 202.002
Branch types
NOT_BRANCH: 40856654 81.7133%
BRANCH_DIRECT_JUMP: 546724 1.09345%
BRANCH_INDIRECT: 182359 0.364718%
BRANCH_CONDITIONAL: 6176988 12.354%
BRANCH_DIRECT_CALL: 946876 1.89375%
BRANCH_INDIRECT_CALL: 171762 0.343524%
BRANCH_RETURN: 1118625 2.23725%
BRANCH_OTHER: 0 0%

DRAM PAGES: 1048576
Allocated PAGES: 2610
Average_ROB_Occupancy: 295.869
Average_Decode_Occupancy: 45.5412
Average_FTQ_Occupancy: 17.1989
Indirect max targets: 14 Average targets: 1.18153
Branch_type:  BRANCH_DIRECT_JUMP:  Count Percentage: 3.64058 5.5122 4.15483 8.95433 2.23399 6.02353 1.29554 68.185 
Branch_type:  BRANCH_INDIRECT:  Count Percentage: 6.13022 3.40258 8.15639 9.6754 3.35112 2.81441 3.08454 63.3853 
Branch_type:  BRANCH_CONDITIONAL:  Count Percentage: 24.8754 3.11724 1.43077 4.60604 1.84534 3.60133 1.07319 59.4507 
Branch_type:  BRANCH_DIRECT_CALL:  Count Percentage: 0.897876 1.27962 0.724862 3.95515 2.38908 2.81638 1.0938 86.8432 
Branch_type:  BRANCH_INDIRECT_CALL:  Count Percentage: 9.57775 0 3.0034 0.000874521 0 2.27142 3.28528 81.8613 
Branch_type:  BRANCH_RETURN:  Count Percentage: 8.31835 1.22711 1.02688 3.93618 3.53837 3.67503 1.45792 76.8202 
Branch_type:  BRANCH_DIRECT_JUMP:  Total Count: 39864 60358 45495 98049 24462 65957 14186 746619 
Branch_type:  BRANCH_INDIRECT:  Total Count: 22398 12432 29801 35351 12244 10283 11270 231591 
Branch_type:  BRANCH_CONDITIONAL:  Total Count: 3073339 385132 176771 569072 227990 444941 132592 7345079 
Branch_type:  BRANCH_DIRECT_CALL:  Total Count: 16970 24185 13700 74753 45154 53230 20673 1641351 
Branch_type:  BRANCH_INDIRECT_CALL:  Total Count: 32856 0 10303 3 0 7792 11270 280821 
Branch_type:  BRANCH_RETURN:  Total Count: 185827 27413 22940 87932 79045 82098 32569 1716117 
Number of unique branch instructions: 10659
Upper 32 bits: 
aaaa
ffff
ffff0000
Unique upper 32 bits: 3
Unique upper 36 bits: 3
Unique upper 40 bits: 5
Unique upper 44 bits: 32
Unique upper 48 bits: 157
Offset_3 4421
Offset_4 254
Offset_5 475
Offset_6 535
Offset_7 630
Offset_8 575
Offset_9 508
Offset_10 413
Offset_11 343
Offset_12 322
Offset_13 240
Offset_14 245
Offset_15 197
Offset_16 223
Offset_17 165
Offset_18 152
Offset_19 258
Offset_20 144
Offset_21 235
Offset_22 405
Offset_23 241
Offset_24 348
Offset_25 117
Offset_47 94
Offset_64 1
decode_dispatch_called: 27785091 80.675
Dispatch_width: 0 14488276 52.1441 42.0672
Dispatch_width: 1 1278408 4.60106 3.7119
Dispatch_width: 2 1037930 3.73556 3.01367
Dispatch_width: 3 601467 2.16471 1.74638
Dispatch_width: 4 8680937 31.2431 25.2054
Dispatch_width: 5 70853 0.255004 0.205724
Dispatch_width: 6 1627220 5.85645 4.72469
Empty_decode_cycles: 6655669 19.325
ROB_full_cycles: 14026076 40.7252
Starvation_cycles_per_kilo_instr: 187.875
Starvation_cycles_per_kilo_instr_3: 100.357
Starvation_cycles_per_kilo_instr_0: 71.1787
Branch_type_1  (3,1)  (4,7)  (5,38)  (6,73)  (7,124)  (8,146)  (9,134)  (10,109)  (11,75)  (12,55)  (13,11)  (14,2)  (15,3)  (16,4)  (18,1)  (19,5)  (20,2)  (21,1)  (22,3)  (23,2)  (24,10)  (25,12) 
Branch_type_2  (3,1)  (4,1)  (5,1)  (8,4)  (9,4)  (10,1)  (12,1)  (13,1)  (14,1)  (16,3)  (17,2)  (20,2)  (21,2)  (23,5)  (24,1)  (47,43)  (64,1) 
Branch_type_3  (3,4419)  (4,246)  (5,432)  (6,445)  (7,475)  (8,360)  (9,277)  (10,164)  (11,132)  (12,62)  (13,10) 
Branch_type_4  (6,4)  (7,8)  (8,26)  (9,55)  (10,66)  (11,70)  (12,113)  (13,102)  (14,111)  (15,93)  (16,98)  (17,76)  (18,65)  (19,124)  (20,73)  (21,124)  (22,213)  (23,136)  (24,204)  (25,101) 
Branch_type_5  (8,3)  (9,1)  (10,4)  (11,5)  (12,3)  (13,14)  (14,16)  (15,11)  (16,22)  (17,11)  (18,23)  (19,14)  (20,11)  (21,13)  (22,43)  (23,26)  (24,37) 
Branch_type_6  (5,4)  (6,13)  (7,23)  (8,36)  (9,37)  (10,69)  (11,61)  (12,88)  (13,102)  (14,115)  (15,90)  (16,96)  (17,76)  (18,63)  (19,115)  (20,56)  (21,95)  (22,146)  (23,72)  (24,96)  (25,4)  (47,51) 
Unique trigger count: 
BTB PER SET UNIQUE ADDR: 0 0 0 0 0 0 0 0 0 0 0 0 0 0 0 0 0 0 0 0 0 0 0 0 0 0 0 0 0 0 0 0 0 0 0 0 0 0 0 0 0 0 0 0 0 0 0 0 0 0 0 0 0 0 0 0 0 0 0 0 0 0 0 0 0 0 0 0 0 0 0 0 0 0 0 0 0 0 0 0 0 0 0 0 0 0 0 0 0 0 0 0 0 0 0 0 0 0 0 0 0 0 0 0 0 0 0 0 0 0 0 0 0 0 0 0 0 0 0 0 0 0 0 0 0 0 0 0 0 0 0 0 0 0 0 0 0 0 0 0 0 0 0 0 0 0 0 0 0 0 0 0 0 0 0 0 0 0 0 0 0 0 0 0 0 0 0 0 0 0 0 0 0 0 0 0 0 0 0 0 0 0 0 0 0 0 0 0 0 0 0 0 0 0 0 0 0 0 0 0 0 0 0 0 0 0 0 0 0 0 0 0 0 0 0 0 0 0 0 0 0 0 0 0 0 0 0 0 0 0 0 0 0 0 0 0 0 0 0 0 0 0 0 0 0 0 0 0 0 0 0 0 0 0 0 0 0 0 0 0 0 0 0 0 0 0 0 0 0 0 0 0 0 0 0 0 0 0 0 0 0 0 0 0 0 0 0 0 0 0 0 0 0 0 0 0 0 0 0 0 0 0 0 0 0 0 0 0 0 0 0 0 0 0 0 0 0 0 0 0 0 0 0 0 0 0 0 0 0 0 0 0 0 0 0 0 0 0 0 0 0 0 0 0 0 0 0 0 0 0 0 0 0 0 0 0 0 0 0 0 0 0 0 0 0 0 0 0 0 0 0 0 0 0 0 0 0 0 0 0 0 0 0 0 0 0 0 0 0 0 0 0 0 0 0 0 0 0 0 0 0 0 0 0 0 0 0 0 0 0 0 0 0 0 0 0 0 0 0 0 0 0 0 0 0 0 0 0 0 0 0 0 0 0 0 0 0 0 0 0 0 0 0 0 0 0 0 0 0 0 0 0 0 0 0 0 0 0 0 0 0 0 0 0 0 0 0 0 0 0 0 0 0 0 0 0 0 0 0 0 0 0 0 0 0 0 0 0 0 0 0 0 0 0 0 0 0 0 0 0 0 0 0 0 0 0 0 0 0 0 0 0 0 0 0 0 0 0 0 0 0 0 0 0 0 0 0 0 0 0 0 0 0 0 0 0 0 0 0 0 0 0 0 0 0 0 0 0 0 0 0 0 0 0 0 0 0 0 0 0 0 0 0 0 0 0 0 0 0 0 0 0 0 0 0 0 0 0 0 0 0 0 0 0 0 0 0 0 0 0 0 0 0 0 0 0 0 0 0 0 0 0 0 0 0 0 0 0 0 0 0 0 0 0 0 0 0 0 0 0 0 0 0 0 0 0 0 0 0 0 0 0 0 0 0 0 0 0 0 0 0 0 0 0 0 0 0 0 0 0 0 0 0 0 0 0 0 0 0 0 0 0 0 0 0 0 0 0 0 0 0 0 0 0 0 0 0 0 0 0 0 0 0 0 0 0 0 0 0 0 0 0 0 0 0 0 0 0 0 0 0 0 0 0 0 0 0 0 0 0 0 0 0 0 0 0 0 0 0 0 0 0 0 0 0 0 0 0 0 0 0 0 0 0 0 0 0 0 0 0 0 0 0 0 0 0 0 0 0 0 0 0 0 0 0 0 0 0 0 0 0 0 0 0 0 0 0 0 0 0 0 0 0 0 0 0 0 0 0 0 0 0 0 0 0 0 0 0 0 0 0 0 0 0 0 0 0 0 0 0 0 0 0 0 0 0 0 0 0 0 0 0 0 0 0 0 0 0 0 0 0 0 0 0 0 0 0 0 0 0 0 0 0 0 0 0 0 0 0 0 0 0 0 0 0 0 0 0 0 0 0 0 0 0 0 0 0 0 0 0 0 0 0 0 0 0 0 0 0 0 0 0 0 0 0 0 0 0 0 0 0 0 0 0 0 0 0 0 0 0 0 0 0 0 0 0 0 0 0 0 0 0 0 0 0 0 0 0 0 0 0 0 0 0 0 0 0 0 0 0 0 0 0 0 0 0 0 0 0 0 0 0 0 0 0 0 0 0 0 0 0 0 0 0 0 0 0 0 0 0 0 0 0 0 0 0 0 0 0 0 0 0 0 0 0 0 0 0 0 0 0 0 0 0 0 0 0 0 0 0 0 0 0 0 0 0 0 0 0 0 0 0 0 0 0 0 0 0 0 0 0 0 0 0 0 0 0 0 0 0 0 0 0 0 0 0 0 0 0 0 0 0 0 0 0 0 0 0 0 0 0 0 0 0 0 0 0 0 0 0 0 0 0 0 0 0 0 0 0 0 0 0 0 0 0 0 0 0 0 0 0 0 0 0 0 0 0 0 0 0 0 0 0 0 0 0 0 0 0 0 0 0 0 0 0 0 0 0 0 0 0 0 0 0 0 0 0 0 0 0 0 0 0 0 0 0 0 0 0 0 0 0 0 0 0 0 0 0 0 0 0 0 0 0 0 0 0 0 0 0 0 0 0 0 0 0 0 0 0 0 0 0 0 0 0 0 0 0 0 0 0 0 0 0 0 0 0 0 0 0 0 0 0 0 0 0 0 0 0 0 0 0 0 0 0 0 0 0 0 0 0 0 0 0 0 0 0 0 0 0 0 0 0 0 0 0 0 0 0 0 0 0 0 0 0 0 0 0 0 0 0 0 0 0 0 0 0 0 0 0 0 0 0 0 0 0 0 0 0 0 0 0 0 0 0 0 0 0 0 0 0 0 0 0 0 0 0 0 0 0 0 0 0 0 0 0 0 0 0 0 0 0 0 0 0 0 0 0 0 0 0 0 0 0 0 0 0 0 0 0 0 0 0 0 0 0 0 0 0 0 0 0 0 0 0 0 0 0 0 0 0 0 0 0 0 0 0 0 0 0 0 0 0 0 0 0 0 0 0 0 0 0 0 0 0 0 0 0 0 0 0 0 0 0 0 0 0 0 0 0 0 0 0 0 0 0 0 0 0 0 0 0 0 0 0 0 0 0 0 0 0 0 0 0 0 0 0 0 0 0 0 0 0 0 0 0 0 0 0 0 0 0 0 0 0 0 0 0 0 0 0 0 0 0 0 0 0 0 0 0 0 0 0 0 0 0 0 0 0 0 0 0 0 0 0 0 0 0 0 0 0 0 0 0 0 0 0 0 0 0 0 0 0 0 0 0 0 0 0 0 0 0 0 0 0 0 0 0 0 0 0 0 0 0 0 0 0 0 0 0 0 0 0 0 0 0 0 0 0 0 0 0 0 0 0 0 0 0 0 0 0 0 0 0 0 0 0 0 0 0 0 0 0 0 0 0 0 0 0 0 0 0 0 0 0 0 0 0 0 0 0 0 0 0 0 0 0 0 0 0 0 0 0 0 0 0 0 0 0 0 0 0 0 0 0 0 0 0 0 0 0 0 0 0 0 0 0 0 0 0 0 0 0 0 0 0 0 0 0 0 0 0 0 0 0 0 0 0 0 0 0 0 0 0 0 0 0 0 0 0 0 0 0 0 0 0 0 0 0 0 0 0 0 0 0 0 0 0 0 0 0 0 0 0 0 0 0 0 0 0 0 0 0 0 0 0 0 0 0 0 0 0 0 0 0 0 0 0 0 0 0 0 0 0 0 0 0 0 0 0 0 0 0 0 0 0 0 0 0 0 0 0 0 0 0 0 0 0 0 0 0 0 0 0 0 0 0 0 0 0 0 0 0 0 0 0 0 0 0 0 0 0 0 0 0 0 0 0 0 0 0 0 0 0 0 0 0 0 0 0 0 0 0 0 0 0 0 0 0 0 0 0 0 0 0 0 0 0 0 0 0 0 0 0 0 0 0 0 0 0 0 0 0 0 0 0 0 0 0 0 0 0 0 0 0 0 0 0 0 0 0 0 0 0 0 0 0 0 0 0 0 0 0 0 0 0 0 0 0 0 0 0 0 0 0 0 0 0 0 0 0 0 0 0 0 0 0 0 0 0 0 0 0 0 0 0 0 0 0 0 0 0 0 0 0 0 0 0 0 0 0 0 0 0 0 0 0 0 0 0 0 0 0 0 0 0 0 0 0 0 0 0 0 0 0 0 0 0 0 0 0 0 0 0 0 0 0 0 0 0 0 0 0 0 0 0 0 0 0 0 0 0 0 0 0 0 0 0 0 0 0 0 0 0 0 0 0 0 0 0 0 0 0 0 0 0 0 0 0 0 0 0 0 0 0 0 0 0 0 0 0 0 0 0 0 0 0 0 0 0 0 0 0 0 0 0 0 0 0 0 0 0 0 0 0 0 0 0 0 0 0 0 0 0 0 0 0 0 0 0 0 0 0 0 0 0 0 0 0 0 0 0 0 0 0 0 0 0 0 0 0 0 0 0 0 0 0 0 0 0 0 0 0 0 0 0 0 0 0 0 0 0 0 0 0 0 0 0 0 0 0 0 0 0 0 0 0 0 0 0 0 0 0 0 0 0 0 0 0 0 0 0 0 0 0 0 0 0 0 0 0 0 0 0 0 0 0 0 0 0 0 0 0 0 0 0 0 0 0 0 0 0 0 0 0 0 0 0 
BTB PER SET COUNT: 0 0 0 0 0 0 0 0 0 0 0 0 0 0 0 0 0 0 0 0 0 0 0 0 0 0 0 0 0 0 0 0 0 0 0 0 0 0 0 0 0 0 0 0 0 0 0 0 0 0 0 0 0 0 0 0 0 0 0 0 0 0 0 0 0 0 0 0 0 0 0 0 0 0 0 0 0 0 0 0 0 0 0 0 0 0 0 0 0 0 0 0 0 0 0 0 0 0 0 0 0 0 0 0 0 0 0 0 0 0 0 0 0 0 0 0 0 0 0 0 0 0 0 0 0 0 0 0 0 0 0 0 0 0 0 0 0 0 0 0 0 0 0 0 0 0 0 0 0 0 0 0 0 0 0 0 0 0 0 0 0 0 0 0 0 0 0 0 0 0 0 0 0 0 0 0 0 0 0 0 0 0 0 0 0 0 0 0 0 0 0 0 0 0 0 0 0 0 0 0 0 0 0 0 0 0 0 0 0 0 0 0 0 0 0 0 0 0 0 0 0 0 0 0 0 0 0 0 0 0 0 0 0 0 0 0 0 0 0 0 0 0 0 0 0 0 0 0 0 0 0 0 0 0 0 0 0 0 0 0 0 0 0 0 0 0 0 0 0 0 0 0 0 0 0 0 0 0 0 0 0 0 0 0 0 0 0 0 0 0 0 0 0 0 0 0 0 0 0 0 0 0 0 0 0 0 0 0 0 0 0 0 0 0 0 0 0 0 0 0 0 0 0 0 0 0 0 0 0 0 0 0 0 0 0 0 0 0 0 0 0 0 0 0 0 0 0 0 0 0 0 0 0 0 0 0 0 0 0 0 0 0 0 0 0 0 0 0 0 0 0 0 0 0 0 0 0 0 0 0 0 0 0 0 0 0 0 0 0 0 0 0 0 0 0 0 0 0 0 0 0 0 0 0 0 0 0 0 0 0 0 0 0 0 0 0 0 0 0 0 0 0 0 0 0 0 0 0 0 0 0 0 0 0 0 0 0 0 0 0 0 0 0 0 0 0 0 0 0 0 0 0 0 0 0 0 0 0 0 0 0 0 0 0 0 0 0 0 0 0 0 0 0 0 0 0 0 0 0 0 0 0 0 0 0 0 0 0 0 0 0 0 0 0 0 0 0 0 0 0 0 0 0 0 0 0 0 0 0 0 0 0 0 0 0 0 0 0 0 0 0 0 0 0 0 0 0 0 0 0 0 0 0 0 0 0 0 0 0 0 0 0 0 0 0 0 0 0 0 0 0 0 0 0 0 0 0 0 0 0 0 0 0 0 0 0 0 0 0 0 0 0 0 0 0 0 0 0 0 0 0 0 0 0 0 0 0 0 0 0 0 0 0 0 0 0 0 0 0 0 0 0 0 0 0 0 0 0 0 0 0 0 0 0 0 0 0 0 0 0 0 0 0 0 0 0 0 0 0 0 0 0 0 0 0 0 0 0 0 0 0 0 0 0 0 0 0 0 0 0 0 0 0 0 0 0 0 0 0 0 0 0 0 0 0 0 0 0 0 0 0 0 0 0 0 0 0 0 0 0 0 0 0 0 0 0 0 0 0 0 0 0 0 0 0 0 0 0 0 0 0 0 0 0 0 0 0 0 0 0 0 0 0 0 0 0 0 0 0 0 0 0 0 0 0 0 0 0 0 0 0 0 0 0 0 0 0 0 0 0 0 0 0 0 0 0 0 0 0 0 0 0 0 0 0 0 0 0 0 0 0 0 0 0 0 0 0 0 0 0 0 0 0 0 0 0 0 0 0 0 0 0 0 0 0 0 0 0 0 0 0 0 0 0 0 0 0 0 0 0 0 0 0 0 0 0 0 0 0 0 0 0 0 0 0 0 0 0 0 0 0 0 0 0 0 0 0 0 0 0 0 0 0 0 0 0 0 0 0 0 0 0 0 0 0 0 0 0 0 0 0 0 0 0 0 0 0 0 0 0 0 0 0 0 0 0 0 0 0 0 0 0 0 0 0 0 0 0 0 0 0 0 0 0 0 0 0 0 0 0 0 0 0 0 0 0 0 0 0 0 0 0 0 0 0 0 0 0 0 0 0 0 0 0 0 0 0 0 0 0 0 0 0 0 0 0 0 0 0 0 0 0 0 0 0 0 0 0 0 0 0 0 0 0 0 0 0 0 0 0 0 0 0 0 0 0 0 0 0 0 0 0 0 0 0 0 0 0 0 0 0 0 0 0 0 0 0 0 0 0 0 0 0 0 0 0 0 0 0 0 0 0 0 0 0 0 0 0 0 0 0 0 0 0 0 0 0 0 0 0 0 0 0 0 0 0 0 0 0 0 0 0 0 0 0 0 0 0 0 0 0 0 0 0 0 0 0 0 0 0 0 0 0 0 0 0 0 0 0 0 0 0 0 0 0 0 0 0 0 0 0 0 0 0 0 0 0 0 0 0 0 0 0 0 0 0 0 0 0 0 0 0 0 0 0 0 0 0 0 0 0 0 0 0 0 0 0 0 0 0 0 0 0 0 0 0 0 0 0 0 0 0 0 0 0 0 0 0 0 0 0 0 0 0 0 0 0 0 0 0 0 0 0 0 0 0 0 0 0 0 0 0 0 0 0 0 0 0 0 0 0 0 0 0 0 0 0 0 0 0 0 0 0 0 0 0 0 0 0 0 0 0 0 0 0 0 0 0 0 0 0 0 0 0 0 0 0 0 0 0 0 0 0 0 0 0 0 0 0 0 0 0 0 0 0 0 0 0 0 0 0 0 0 0 0 0 0 0 0 0 0 0 0 0 0 0 0 0 0 0 0 0 0 0 0 0 0 0 0 0 0 0 0 0 0 0 0 0 0 0 0 0 0 0 0 0 0 0 0 0 0 0 0 0 0 0 0 0 0 0 0 0 0 0 0 0 0 0 0 0 0 0 0 0 0 0 0 0 0 0 0 0 0 0 0 0 0 0 0 0 0 0 0 0 0 0 0 0 0 0 0 0 0 0 0 0 0 0 0 0 0 0 0 0 0 0 0 0 0 0 0 0 0 0 0 0 0 0 0 0 0 0 0 0 0 0 0 0 0 0 0 0 0 0 0 0 0 0 0 0 0 0 0 0 0 0 0 0 0 0 0 0 0 0 0 0 0 0 0 0 0 0 0 0 0 0 0 0 0 0 0 0 0 0 0 0 0 0 0 0 0 0 0 0 0 0 0 0 0 0 0 0 0 0 0 0 0 0 0 0 0 0 0 0 0 0 0 0 0 0 0 0 0 0 0 0 0 0 0 0 0 0 0 0 0 0 0 0 0 0 0 0 0 0 0 0 0 0 0 0 0 0 0 0 0 0 0 0 0 0 0 0 0 0 0 0 0 0 0 0 0 0 0 0 0 0 0 0 0 0 0 0 0 0 0 0 0 0 0 0 0 0 0 0 0 0 0 0 0 0 0 0 0 0 0 0 0 0 0 0 0 0 0 0 0 0 0 0 0 0 0 0 0 0 0 0 0 0 0 0 0 0 0 0 0 0 0 0 0 0 0 0 0 0 0 0 0 0 0 0 0 0 0 0 0 0 0 0 0 0 0 0 0 0 0 0 0 0 0 0 0 0 0 0 0 0 0 0 0 0 0 0 0 0 0 0 0 0 0 0 0 0 0 0 0 0 0 0 0 0 0 0 0 0 0 0 0 0 0 0 0 0 0 0 0 0 0 0 0 0 0 0 0 0 0 0 0 0 0 0 0 0 0 0 0 0 0 0 0 0 0 0 0 0 0 0 0 0 0 0 0 0 0 0 0 0 0 0 0 0 0 0 0 0 0 0 0 0 0 0 0 0 0 0 0 0 0 0 0 0 0 0 0 0 0 0 0 0 0 0 0 0 0 0 0 0 0 0 0 0 0 0 0 0 0 0 0 0 0 0 0 0 0 0 0 0 0 0 0 0 0 0 0 0 0 0 0 0 0 0 0 0 0 0 0 0 0 0 0 0 0 0 0 0 0 0 0 0 0 0 0 0 0 0 0 0 0 0 0 0 0 0 0 0 0 0 0 0 0 0 0 0 0 0 0 0 0 0 0 0 0 0 0 0 0 0 0 0 0 0 0 0 0 0 0 0 0 0 0 0 0 0 0 0 0 0 0 0 0 0 0 0 0 0 0 0 0 0 0 0 0 0 0 0 0 0 0 0 0 0 0 0 0 0 0 0 0 0 0 0 0 0 0 0 0 0 0 0 0 0 0 0 0 0 0 0 0 0 0 0 0 0 0 0 0 0 0 0 0 0 0 0 0 0 0 0 0 0 0 0 0 0 0 0 0 0 0 0 0 0 0 0 0 0 0 0 0 0 0 0 0 0 0 0 0 0 0 0 0 0 0 0 0 0 0 0 0 0 0 0 0 0 0 0 0 0 0 0 0 0 0 0 0 0 0 0 0 0 0 0 0 0 0 0 0 0 0 0 0 0 0 0 0 0 0 0 0 0 0 0 0 0 0 0 0 0 0 0 0 0 0 0 0 0 0 0 0 0 0 0 0 0 0 0 0 0 0 0 0 0 0 0 0 0 0 0 0 0 0 0 0 0 0 0 0 0 0 0 0 0 0 0 0 0 0 0 0 0 0 0 0 0 0 0 0 0 0 0 0 0 0 0 0 0 0 0 0 0 
