
*** ChampSim Multicore Out-of-Order Simulator ***

Warmup Instructions: 50000000
Simulation Instructions: 50000000
Number of CPUs: 1
LLC sets: 2048
LLC ways: 16
Off-chip DRAM Size: 4096 MB Channels: 1 Width: 64-bit Data Rate: 6400 MT/s
CPU 0 runs ./micro_traces/srv423.trace.gz
.gz
ITLB has LRU replacement policy
DTLB has LRU replacement policy
STLB has LRU replacement policy
FDIP Prefetcher at L1I
L1I has LRU replacement policy
L1D has LRU replacement policy
Initialize SRRIP state for L2C
Initialize DRRIP state for LLC
Heartbeat_Variant_0 : 1389 0.226074 per_variant_size: 0 1389 0 0 0 0 0 0 0 
Heartbeat_Variant_1 : 1365 0.222168 per_variant_size: 0 801 564 0 0 0 0 0 0 
Heartbeat_Variant_2 : 1519 0.247233 per_variant_size: 0 742 411 201 165 0 0 0 0 
Heartbeat_Variant_3 : 0 0 per_variant_size: 0 0 0 0 0 0 0 0 0 
Heartbeat_Variant_0_evicts 0 : 5627 1 : 20 2 : 26 3 : 0 
Heartbeat_Variant_1_evicts 0 : 16 1 : 0 2 : 218 3 : 0 
Heartbeat_Variant_2_evicts 0 : 25 1 : 212 2 : 0 3 : 0 
Heartbeat_Variant_3_evicts 0 : 0 1 : 0 2 : 0 3 : 0 
Heartbeat CPU 0 instructions: 10000002 cycles: 2797653 heartbeat IPC: 3.57443 cumulative IPC: 3.57443 (Simulation time: 0 hr 2 min 12 sec) 
Heartbeat_Variant_0 : 1389 0.226074 per_variant_size: 0 1389 0 0 0 0 0 0 0 
Heartbeat_Variant_1 : 1373 0.22347 per_variant_size: 0 805 568 0 0 0 0 0 0 
Heartbeat_Variant_2 : 1523 0.247884 per_variant_size: 0 744 411 206 162 0 0 0 0 
Heartbeat_Variant_3 : 0 0 per_variant_size: 0 0 0 0 0 0 0 0 0 
Heartbeat_Variant_0_evicts 0 : 5607 1 : 0 2 : 0 3 : 0 
Heartbeat_Variant_1_evicts 0 : 0 1 : 0 2 : 198 3 : 0 
Heartbeat_Variant_2_evicts 0 : 1 1 : 198 2 : 0 3 : 0 
Heartbeat_Variant_3_evicts 0 : 0 1 : 0 2 : 0 3 : 0 
Heartbeat CPU 0 instructions: 20000001 cycles: 5594435 heartbeat IPC: 3.57554 cumulative IPC: 3.57498 (Simulation time: 0 hr 4 min 26 sec) 
Heartbeat_Variant_0 : 1437 0.233887 per_variant_size: 0 1437 0 0 0 0 0 0 0 
Heartbeat_Variant_1 : 1425 0.231934 per_variant_size: 0 826 599 0 0 0 0 0 0 
Heartbeat_Variant_2 : 1563 0.254395 per_variant_size: 0 742 430 212 179 0 0 0 0 
Heartbeat_Variant_3 : 0 0 per_variant_size: 0 0 0 0 0 0 0 0 0 
Heartbeat_Variant_0_evicts 0 : 5601 1 : 7 2 : 10 3 : 0 
Heartbeat_Variant_1_evicts 0 : 3 1 : 0 2 : 200 3 : 0 
Heartbeat_Variant_2_evicts 0 : 10 1 : 202 2 : 0 3 : 0 
Heartbeat_Variant_3_evicts 0 : 0 1 : 0 2 : 0 3 : 0 
Heartbeat CPU 0 instructions: 30000000 cycles: 8391779 heartbeat IPC: 3.57482 cumulative IPC: 3.57493 (Simulation time: 0 hr 6 min 32 sec) 
Heartbeat_Variant_0 : 1436 0.233724 per_variant_size: 0 1436 0 0 0 0 0 0 0 
Heartbeat_Variant_1 : 1426 0.232096 per_variant_size: 0 826 600 0 0 0 0 0 0 
Heartbeat_Variant_2 : 1565 0.25472 per_variant_size: 0 745 430 212 178 0 0 0 0 
Heartbeat_Variant_3 : 0 0 per_variant_size: 0 0 0 0 0 0 0 0 0 
Heartbeat_Variant_0_evicts 0 : 5702 1 : 0 2 : 0 3 : 0 
Heartbeat_Variant_1_evicts 0 : 0 1 : 0 2 : 199 3 : 0 
Heartbeat_Variant_2_evicts 0 : 1 1 : 199 2 : 0 3 : 0 
Heartbeat_Variant_3_evicts 0 : 0 1 : 0 2 : 0 3 : 0 
Heartbeat CPU 0 instructions: 40000001 cycles: 11190090 heartbeat IPC: 3.57358 cumulative IPC: 3.57459 (Simulation time: 0 hr 8 min 31 sec) 
Heartbeat_Variant_0 : 1437 0.233887 per_variant_size: 0 1437 0 0 0 0 0 0 0 
Heartbeat_Variant_1 : 1426 0.232096 per_variant_size: 0 826 600 0 0 0 0 0 0 
Heartbeat_Variant_2 : 1566 0.254883 per_variant_size: 0 745 430 211 180 0 0 0 0 
Heartbeat_Variant_3 : 0 0 per_variant_size: 0 0 0 0 0 0 0 0 0 
Heartbeat_Variant_0_evicts 0 : 5611 1 : 1 2 : 0 3 : 0 
Heartbeat_Variant_1_evicts 0 : 1 1 : 0 2 : 196 3 : 0 
Heartbeat_Variant_2_evicts 0 : 0 1 : 197 2 : 0 3 : 0 
Heartbeat_Variant_3_evicts 0 : 0 1 : 0 2 : 0 3 : 0 
Heartbeat CPU 0 instructions: 50000002 cycles: 13986154 heartbeat IPC: 3.57646 cumulative IPC: 3.57496 (Simulation time: 0 hr 10 min 39 sec) 

Warmup complete CPU 0 instructions: 50000002 cycles: 13986154 (Simulation time: 0 hr 10 min 39 sec) 

Cycle: 20000000 FTQ IN: 58351535 FTQ occupancy: 19.9107 DECODE IN: 58351535 DECODE occupancy: 52.0744 ROB IN: 58351535 ROB occupancy: 315.236 ROB OUT: 58351514
Heartbeat_Variant_0 : 1467 0.23877 per_variant_size: 0 1467 0 0 0 0 0 0 0 
Heartbeat_Variant_1 : 1447 0.235514 per_variant_size: 0 824 623 0 0 0 0 0 0 
Heartbeat_Variant_2 : 1590 0.258789 per_variant_size: 0 744 431 235 180 0 0 0 0 
Heartbeat_Variant_3 : 0 0 per_variant_size: 0 0 0 0 0 0 0 0 0 
Heartbeat_Variant_0_evicts 0 : 5662 1 : 3 2 : 3 3 : 0 
Heartbeat_Variant_1_evicts 0 : 4 1 : 0 2 : 198 3 : 0 
Heartbeat_Variant_2_evicts 0 : 2 1 : 199 2 : 0 3 : 0 
Heartbeat_Variant_3_evicts 0 : 0 1 : 0 2 : 0 3 : 0 
Heartbeat CPU 0 instructions: 60000002 cycles: 21300761 heartbeat IPC: 1.36713 cumulative IPC: 1.36713 (Simulation time: 0 hr 12 min 59 sec) 
Heartbeat_Variant_0 : 1468 0.238932 per_variant_size: 0 1468 0 0 0 0 0 0 0 
Heartbeat_Variant_1 : 1456 0.236979 per_variant_size: 0 835 621 0 0 0 0 0 0 
Heartbeat_Variant_2 : 1593 0.259277 per_variant_size: 0 743 435 234 181 0 0 0 0 
Heartbeat_Variant_3 : 0 0 per_variant_size: 0 0 0 0 0 0 0 0 0 
Heartbeat_Variant_0_evicts 0 : 5618 1 : 2 2 : 0 3 : 0 
Heartbeat_Variant_1_evicts 0 : 1 1 : 0 2 : 200 3 : 0 
Heartbeat_Variant_2_evicts 0 : 1 1 : 197 2 : 0 3 : 0 
Heartbeat_Variant_3_evicts 0 : 0 1 : 0 2 : 0 3 : 0 
Heartbeat CPU 0 instructions: 70000003 cycles: 28513273 heartbeat IPC: 1.38648 cumulative IPC: 1.37674 (Simulation time: 0 hr 15 min 22 sec) 
Cycle: 30000000 FTQ IN: 13720905 FTQ occupancy: 12.8746 DECODE IN: 13720905 DECODE occupancy: 33.6028 ROB IN: 13720905 ROB occupancy: 235.765 ROB OUT: 13720911
Heartbeat_Variant_0 : 1478 0.24056 per_variant_size: 0 1478 0 0 0 0 0 0 0 
Heartbeat_Variant_1 : 1465 0.238444 per_variant_size: 0 838 627 0 0 0 0 0 0 
Heartbeat_Variant_2 : 1596 0.259766 per_variant_size: 0 745 433 233 185 0 0 0 0 
Heartbeat_Variant_3 : 0 0 per_variant_size: 0 0 0 0 0 0 0 0 0 
Heartbeat_Variant_0_evicts 0 : 5636 1 : 3 2 : 1 3 : 0 
Heartbeat_Variant_1_evicts 0 : 1 1 : 0 2 : 198 3 : 0 
Heartbeat_Variant_2_evicts 0 : 1 1 : 197 2 : 0 3 : 0 
Heartbeat_Variant_3_evicts 0 : 0 1 : 0 2 : 0 3 : 0 
Heartbeat CPU 0 instructions: 80000003 cycles: 35787160 heartbeat IPC: 1.37478 cumulative IPC: 1.37608 (Simulation time: 0 hr 17 min 45 sec) 
Cycle: 40000000 FTQ IN: 13808914 FTQ occupancy: 13.0091 DECODE IN: 13808914 DECODE occupancy: 34.0304 ROB IN: 13808914 ROB occupancy: 237.457 ROB OUT: 13808873
Heartbeat_Variant_0 : 1478 0.24056 per_variant_size: 0 1478 0 0 0 0 0 0 0 
Heartbeat_Variant_1 : 1465 0.238444 per_variant_size: 0 838 627 0 0 0 0 0 0 
Heartbeat_Variant_2 : 1596 0.259766 per_variant_size: 0 744 432 233 187 0 0 0 0 
Heartbeat_Variant_3 : 0 0 per_variant_size: 0 0 0 0 0 0 0 0 0 
Heartbeat_Variant_0_evicts 0 : 5631 1 : 0 2 : 0 3 : 0 
Heartbeat_Variant_1_evicts 0 : 0 1 : 0 2 : 197 3 : 0 
Heartbeat_Variant_2_evicts 0 : 0 1 : 197 2 : 0 3 : 0 
Heartbeat_Variant_3_evicts 0 : 0 1 : 0 2 : 0 3 : 0 
Heartbeat CPU 0 instructions: 90000000 cycles: 42948550 heartbeat IPC: 1.39638 cumulative IPC: 1.3811 (Simulation time: 0 hr 20 min 5 sec) 
Cycle: 50000000 FTQ IN: 13848188 FTQ occupancy: 12.9653 DECODE IN: 13848069 DECODE occupancy: 33.9555 ROB IN: 13848009 ROB occupancy: 238.081 ROB OUT: 13847713
Heartbeat_Variant_0 : 1478 0.24056 per_variant_size: 0 1478 0 0 0 0 0 0 0 
Heartbeat_Variant_1 : 1465 0.238444 per_variant_size: 0 838 627 0 0 0 0 0 0 
Heartbeat_Variant_2 : 1596 0.259766 per_variant_size: 0 745 432 234 185 0 0 0 0 
Heartbeat_Variant_3 : 0 0 per_variant_size: 0 0 0 0 0 0 0 0 0 
Heartbeat_Variant_0_evicts 0 : 5613 1 : 0 2 : 0 3 : 0 
Heartbeat_Variant_1_evicts 0 : 0 1 : 0 2 : 197 3 : 0 
Heartbeat_Variant_2_evicts 0 : 0 1 : 197 2 : 0 3 : 0 
Heartbeat_Variant_3_evicts 0 : 0 1 : 0 2 : 0 3 : 0 
Heartbeat CPU 0 instructions: 100000001 cycles: 50198004 heartbeat IPC: 1.37941 cumulative IPC: 1.38076 (Simulation time: 0 hr 21 min 52 sec) 
Finished CPU 0 instructions: 50000003 cycles: 36211851 cumulative IPC: 1.38076 (Simulation time: 0 hr 21 min 52 sec) 

ChampSim completed all CPUs

Region of Interest Statistics

CPU 0 cumulative IPC: 1.38076 instructions: 50000003 cycles: 36211851
 Fetch stage stalled: 53.6945  Sim cycles: 36211851 fetch stall cycle: 19443759
 Empty decode stage: 34.9237  Sim cycles: 36211851 fetch stall cycle: 12646516
ITLB TOTAL     ACCESS:    5854447  HIT:    5362267  MISS:     492180  HIT %:    91.5931  MISS %:    8.40694   MPKI: 9.8436
ITLB LOAD TRANSLATION INSTRUCTION	ACCESS:    5730054  HIT:    5237874  MISS:     492180  HIT %:    91.4106  MISS %:    8.58945  MPKI: 9.8436
ITLB TRANSLATION FROM L1D PREFETCHER INSTRUCTION	ACCESS:     124393  HIT:     124393  MISS:          0  HIT %:        100  MISS %:          0  MPKI: 0

ITLB AVERAGE MISS LATENCY: 9.075 cycles
ITLB RQ	ACCESS:    7992441	FORWARD:          0	MERGED:    1695166	TO_CACHE:    6297275

DTLB TOTAL     ACCESS:    8974162  HIT:    8502347  MISS:     471815  HIT %:    94.7425  MISS %:    5.25748   MPKI: 9.4363
DTLB LOAD TRANSLATION DATA	ACCESS:    8974162  HIT:    8502347  MISS:     471815  HIT %:    94.7425  MISS %:    5.25748  MPKI: 9.4363

DTLB AVERAGE MISS LATENCY: 9.34427 cycles
DTLB RQ	ACCESS:   13343504	FORWARD:          0	MERGED:    4333058	TO_CACHE:    9010446

STLB TOTAL     ACCESS:    1214663  HIT:    1212301  MISS:       2362  HIT %:    99.8055  MISS %:   0.194457   MPKI: 0.04724
STLB LOAD TRANSLATION INSTRUCTION	ACCESS:     492180  HIT:     491721  MISS:        459  HIT %:    99.9067  MISS %:  0.0932586  MPKI: 0.00918
STLB LOAD TRANSLATION DATA	ACCESS:     471814  HIT:     469947  MISS:       1867  HIT %:    99.6043  MISS %:   0.395707  MPKI: 0.03734
STLB TRANSLATION FROM L1D PREFETCHER DATA	ACCESS:     250669  HIT:     250633  MISS:         36  HIT %:    99.9856  MISS %:  0.0143616  MPKI: 0.00072

STLB AVERAGE MISS LATENCY: 71.7049 cycles
STLB RQ	ACCESS:    1333862	FORWARD:          0	MERGED:     119168	TO_CACHE:    1214694

STLB Hit, L1D data hit: 0
STLB Hit, L2C data hit: 0
STLB Hit, LLC data hit: 0
STLB Hit, LLC data miss: 0
STLB STLB hints to L2: 0
L1D TOTAL     ACCESS:   13092856  HIT:   11983246  MISS:    1109610  HIT %:    91.5251  MISS %:    8.47493   MPKI: 22.1922
L1D LOAD DATA	ACCESS:    6557102  HIT:    5829109  MISS:     727993  HIT %:    88.8976  MISS %:    11.1024  MPKI: 14.5599
L1D RFO DATA	ACCESS:    6204277  HIT:    5917261  MISS:     287016  HIT %:    95.3739  MISS %:     4.6261  MPKI: 5.74032
L1D PREFETCH DATA	ACCESS:     331477  HIT:     236876  MISS:      94601  HIT %:    71.4608  MISS %:    28.5392  MPKI: 1.89202

L1D PREFETCH  REQUESTED:     740061  ISSUED:     740061  USEFUL:      34157  USELESS:      67867
L1D USEFUL LOAD PREFETCHES:      34157 PREFETCH ISSUED TO LOWER LEVEL:     102022  ACCURACY: 33.48
 TIMELY PREFETCHES:      34157 LATE PREFETCHES: 7399 DROPPED PREFETCHES: 5
L1D AVERAGE MISS LATENCY: 220329 cycles
L1D RQ	ACCESS:   10704927	FORWARD:          0	MERGED:    3948103	TO_CACHE:    6592520
L1D WQ	ACCESS:    6947176	FORWARD:     164631	MERGED:     196192	TO_CACHE:    6750984
L1D PQ	ACCESS:     370194	FORWARD:          0	MERGED:          0	TO_CACHE:     369867

L1D UNIQUE REGIONS ACCESSED: 0
L1D REGIONS CONFLICTS: 0
L1D Cross Page Prefetch Requests: 6202
L1D Same Page Prefetch Requests: 751529
L1D ROI Sum of L1D PQ occupancy: 4713431
L1D PREFETCHES PUSHED FROM L2C: 0
L1I TOTAL     ACCESS:    7155359  HIT:    4400841  MISS:    2754518  HIT %:    61.5041  MISS %:    38.4959   MPKI: 55.0904
L1I LOAD INSTRUCTION	ACCESS:    6495641  HIT:    3741123  MISS:    2754518  HIT %:    57.5944  MISS %:    42.4056  MPKI: 55.0904
L1I PREFETCH INSTRUCTION	ACCESS:     659718  HIT:     659718  MISS:          0  HIT %:        100  MISS %:          0  MPKI: 0

L1I PREFETCH  REQUESTED:    1618145  ISSUED:    1618145  USEFUL:          0  USELESS:          0
L1I USEFUL LOAD PREFETCHES:          0 PREFETCH ISSUED TO LOWER LEVEL:          0  ACCURACY: -nan
 TIMELY PREFETCHES:          0 LATE PREFETCHES: 0 DROPPED PREFETCHES: 0
L1I AVERAGE MISS LATENCY: 16.933 cycles
L1I RQ	ACCESS:    9503976	FORWARD:          0	MERGED:    2688293	TO_CACHE:    6815683
L1I PQ	ACCESS:    1618145	FORWARD:          0	MERGED:     441387	TO_CACHE:    1176758

L1BTB TOTAL     ACCESS:    5668024  HIT:    2048314  MISS:    3619710  HIT %:    36.1381  MISS %:    63.8619   MPKI: 72.3942
L1BTB BRANCH_DIRECT_JUMP	ACCESS:     549198  HIT:     145737  MISS:     403461	AVERAGE STALL: 48.251
L1BTB BRANCH_INDIRECT	ACCESS:     183381  HIT:      66329  MISS:     117052	AVERAGE STALL: 106.171
L1BTB BRANCH_CONDITIONAL	ACCESS:    2710998  HIT:    1420727  MISS:    1290271	AVERAGE STALL: 58.3968
L1BTB BRANCH_DIRECT_CALL	ACCESS:     941064  HIT:     105076  MISS:     835988	AVERAGE STALL: 66.0203
L1BTB BRANCH_INDIRECT_CALL	ACCESS:     171155  HIT:      21038  MISS:     150117	AVERAGE STALL: 134.833
L1BTB BRANCH_RETURN	ACCESS:    1112228  HIT:     289407  MISS:     822821	AVERAGE STALL: 49.582
L1BTB BRANCH_OTHER ACCESS:          0  HIT:          0  MISS:          0	AVERAGE STALL: -nan
L1BTB TOTAL ROB OCCUPANCY AT BTB MISS: 2.51001

L2BTB TOTAL     ACCESS:    3594215  HIT:    3531942  MISS:      62273  HIT %:    98.2674  MISS %:    1.73259   MPKI: 1.24546
L2BTB BRANCH_DIRECT_JUMP	ACCESS:     399236  HIT:     394802  MISS:       4434	AVERAGE STALL: 48.251
L2BTB BRANCH_INDIRECT	ACCESS:     106805  HIT:     104203  MISS:       2602	AVERAGE STALL: 106.171
L2BTB BRANCH_CONDITIONAL	ACCESS:    1290271  HIT:    1287440  MISS:       2831	AVERAGE STALL: 58.3968
L2BTB BRANCH_DIRECT_CALL	ACCESS:     835988  HIT:     835217  MISS:        771	AVERAGE STALL: 66.0203
L2BTB BRANCH_INDIRECT_CALL	ACCESS:     140498  HIT:     130226  MISS:      10272	AVERAGE STALL: 134.833
L2BTB BRANCH_RETURN	ACCESS:     821417  HIT:     780054  MISS:      41363	AVERAGE STALL: 49.582
L2BTB BRANCH_OTHER ACCESS:          0  HIT:          0  MISS:          0	AVERAGE STALL: -nan
L2BTB TOTAL ROB OCCUPANCY AT BTB MISS: 145.898

L2C TOTAL     ACCESS:    4471320  HIT:    4013105  MISS:     458215  HIT %:    89.7521  MISS %:    10.2479   MPKI: 9.1643
L2C LOAD INSTRUCTION	ACCESS:    2754518  HIT:    2521279  MISS:     233239  HIT %:    91.5325  MISS %:    8.46751  MPKI: 4.66478
L2C LOAD TRANSLATION INSTRUCTION	ACCESS:        504  HIT:        194  MISS:        310  HIT %:    38.4921  MISS %:    61.5079  MPKI: 0.0062
L2C LOAD DATA	ACCESS:     720561  HIT:     643210  MISS:      77351  HIT %:    89.2652  MISS %:    10.7348  MPKI: 1.54702
L2C RFO DATA	ACCESS:     286953  HIT:     230149  MISS:      56804  HIT %:    80.2044  MISS %:    19.7956  MPKI: 1.13608
L2C PREFETCH DATA	ACCESS:     185777  HIT:     113036  MISS:      72741  HIT %:     60.845  MISS %:     39.155  MPKI: 1.45482
L2C WRITEBACK DATA	ACCESS:     521005  HIT:     504580  MISS:      16425  HIT %:    96.8474  MISS %:    3.15256  MPKI: 0.3285
L2C LOAD TRANSLATION DATA	ACCESS:       1947  HIT:        619  MISS:       1328  HIT %:    31.7925  MISS %:    68.2075  MPKI: 0.02656
L2C TRANSLATION FROM L1D PREFETCHER DATA	ACCESS:         55  HIT:         38  MISS:         17  HIT %:    69.0909  MISS %:    30.9091  MPKI: 0.00034

L2C PREFETCH  REQUESTED:      91802  ISSUED:      91802  USEFUL:       8900  USELESS:      64682
L2C USEFUL LOAD PREFETCHES:       8900 PREFETCH ISSUED TO LOWER LEVEL:      73323  ACCURACY: 12.1381
 TIMELY PREFETCHES:       8900 LATE PREFETCHES: 582 DROPPED PREFETCHES: 0
L2C AVERAGE MISS LATENCY: 39.4418 cycles
L2C RQ	ACCESS:    3764612	FORWARD:          0	MERGED:          0	TO_CACHE:    3764539
L2C WQ	ACCESS:     521005	FORWARD:         73	MERGED:          0	TO_CACHE:     521005
L2C PQ	ACCESS:     193824	FORWARD:          0	MERGED:       3467	TO_CACHE:     190357

L2C Dense regions hint from L2: 0
PSCL5 TOTAL     ACCESS:       4740  HIT:       2370  MISS:       2370  HIT %:         50  MISS %:         50   MPKI: 0.0474
PSCL5 LOAD TRANSLATION INSTRUCTION	ACCESS:       4632  HIT:       2316  MISS:       2316  HIT %:         50  MISS %:         50  MPKI: 0.04632
PSCL5 TRANSLATION FROM L1D PREFETCHER INSTRUCTION	ACCESS:        108  HIT:         54  MISS:         54  HIT %:         50  MISS %:         50  MPKI: 0.00108


PSCL4 TOTAL     ACCESS:       4289  HIT:       2143  MISS:       2146  HIT %:     49.965  MISS %:     50.035   MPKI: 0.04292
PSCL4 LOAD TRANSLATION INSTRUCTION	ACCESS:       2303  HIT:       2089  MISS:        214  HIT %:    90.7078  MISS %:    9.29223  MPKI: 0.00428
PSCL4 TRANSLATION FROM L1D PREFETCHER INSTRUCTION	ACCESS:         54  HIT:         54  MISS:          0  HIT %:        100  MISS %:          0  MPKI: 0
PSCL4 LOAD TRANSLATION DATA	ACCESS:       1878  HIT:          0  MISS:       1878  HIT %:          0  MISS %:        100  MPKI: 0.03756
PSCL4 TRANSLATION FROM L1D PREFETCHER DATA	ACCESS:         54  HIT:          0  MISS:         54  HIT %:          0  MISS %:        100  MPKI: 0.00108


PSCL3 TOTAL     ACCESS:       4428  HIT:       2208  MISS:       2220  HIT %:    49.8645  MISS %:    50.1355   MPKI: 0.0444
PSCL3 LOAD TRANSLATION INSTRUCTION	ACCESS:       3821  HIT:       2160  MISS:       1661  HIT %:    56.5297  MISS %:    43.4703  MPKI: 0.03322
PSCL3 TRANSLATION FROM L1D PREFETCHER INSTRUCTION	ACCESS:         93  HIT:         48  MISS:         45  HIT %:    51.6129  MISS %:    48.3871  MPKI: 0.0009
PSCL3 LOAD TRANSLATION DATA	ACCESS:        511  HIT:          0  MISS:        511  HIT %:          0  MISS %:        100  MPKI: 0.01022
PSCL3 TRANSLATION FROM L1D PREFETCHER DATA	ACCESS:          3  HIT:          0  MISS:          3  HIT %:          0  MISS %:        100  MPKI: 6e-05


PSCL2 TOTAL     ACCESS:       4616  HIT:       2246  MISS:       2370  HIT %:    48.6568  MISS %:    51.3432   MPKI: 0.0474
PSCL2 LOAD TRANSLATION INSTRUCTION	ACCESS:       2652  HIT:       2193  MISS:        459  HIT %:    82.6923  MISS %:    17.3077  MPKI: 0.00918
PSCL2 TRANSLATION FROM L1D PREFETCHER INSTRUCTION	ACCESS:         53  HIT:         53  MISS:          0  HIT %:        100  MISS %:          0  MPKI: 0
PSCL2 LOAD TRANSLATION DATA	ACCESS:       1858  HIT:          0  MISS:       1858  HIT %:          0  MISS %:        100  MPKI: 0.03716
PSCL2 TRANSLATION FROM L1D PREFETCHER DATA	ACCESS:         53  HIT:          0  MISS:         53  HIT %:          0  MISS %:        100  MPKI: 0.00106


LLC TOTAL     ACCESS:     520566  HIT:     490676  MISS:      29890  HIT %:    94.2582  MISS %:    5.74183   MPKI: 0.5978
LLC LOAD INSTRUCTION	ACCESS:     233238  HIT:     232107  MISS:       1131  HIT %:    99.5151  MISS %:   0.484912  MPKI: 0.02262
LLC LOAD TRANSLATION INSTRUCTION	ACCESS:        310  HIT:        269  MISS:         41  HIT %:    86.7742  MISS %:    13.2258  MPKI: 0.00082
LLC LOAD DATA	ACCESS:      76804  HIT:      73470  MISS:       3334  HIT %:    95.6591  MISS %:    4.34092  MPKI: 0.06668
LLC RFO DATA	ACCESS:      56748  HIT:      41615  MISS:      15133  HIT %:     73.333  MISS %:     26.667  MPKI: 0.30266
LLC PREFETCH DATA	ACCESS:      73323  HIT:      63502  MISS:       9821  HIT %:    86.6058  MISS %:    13.3942  MPKI: 0.19642
LLC WRITEBACK DATA	ACCESS:      78798  HIT:      78459  MISS:        339  HIT %:    99.5698  MISS %:   0.430214  MPKI: 0.00678
LLC LOAD TRANSLATION DATA	ACCESS:       1328  HIT:       1237  MISS:         91  HIT %:    93.1476  MISS %:    6.85241  MPKI: 0.00182
LLC TRANSLATION FROM L1D PREFETCHER DATA	ACCESS:         17  HIT:         17  MISS:          0  HIT %:        100  MISS %:          0  MPKI: 0

LLC AVERAGE MISS LATENCY: 159.959 cycles
LLC RQ	ACCESS:     368467	FORWARD:          0	MERGED:          0	TO_CACHE:     368445
LLC WQ	ACCESS:      78799	FORWARD:         22	MERGED:          0	TO_CACHE:      78799
LLC PQ	ACCESS:      73323	FORWARD:          0	MERGED:          0	TO_CACHE:      73323

LLC Dense regions hint to LLC: 0

RAW hits: 1938727
Loads Generated: 12643654
Loads sent to L1D: 10704927
Stores Generated: 6947174
Stores sent to L1D: 6947176
Major fault: 0 Minor fault: 2653
Allocated PAGES: 2653

stream: 
stream:times selected: 1196067
stream:pref_filled: 120757
stream:pref_useful: 23671
stream:pref_late: 6511
stream:misses: 6861
stream:misses_by_poll: 0

CS: 
CS:times selected: 181467
CS:pref_filled: 60495
CS:pref_useful: 37819
CS:pref_late: 6431
CS:misses: 15856
CS:misses_by_poll: 4

CPLX: 
CPLX:times selected: 1013433
CPLX:pref_filled: 19705
CPLX:pref_useful: 4715
CPLX:pref_late: 3113
CPLX:misses: 90409
CPLX:misses_by_poll: 1

NL_L1: 
NL:times selected: 20801
NL:pref_filled: 684
NL:pref_useful: 264
NL:pref_late: 205
NL:misses: 1047
NL:misses_by_poll: 0

total selections: 2411768
total_filled: 94601
total_useful: 34157
total_late: 17484
total_polluted: 5
total_misses_after_warmup: 763412
conflicts: 5513154

test: 116717

DRAM Statistics
 CHANNEL 0
 RQ ROW_BUFFER_HIT:      11083  ROW_BUFFER_MISS:      18459
 DBUS_CONGESTED:         18
 WQ ROW_BUFFER_HIT:       1609  ROW_BUFFER_MISS:      13367  FULL:          0

 AVG_CONGESTED_CYCLE: 6

CPU 0 Branch Prediction Accuracy: 99.8157% MPKI: 0.3369 Average ROB Occupancy at Mispredict: 190.973
Branch types
NOT_BRANCH: 40861454 81.7229%
BRANCH_DIRECT_JUMP: 549198 1.0984%
BRANCH_INDIRECT: 183381 0.366762%
BRANCH_CONDITIONAL: 6181506 12.363%
BRANCH_DIRECT_CALL: 941064 1.88213%
BRANCH_INDIRECT_CALL: 171155 0.34231%
BRANCH_RETURN: 1112228 2.22446%
BRANCH_OTHER: 0 0%

DRAM PAGES: 1048576
Allocated PAGES: 2653
Average_ROB_Occupancy: 238.376
Average_Decode_Occupancy: 33.7889
Average_FTQ_Occupancy: 12.9051
Indirect max targets: 14 Average targets: 1.15738
Branch_type:  BRANCH_DIRECT_JUMP:  Count Percentage: 3.34439 6.98323 3.78774 7.91682 2.23539 2.84804 1.35517 71.5292 
Branch_type:  BRANCH_INDIRECT:  Count Percentage: 11.7335 3.45989 2.61841 9.68719 3.33676 2.8012 0.933551 65.4295 
Branch_type:  BRANCH_CONDITIONAL:  Count Percentage: 21.8829 2.46926 2.27677 7.87813 1.5427 2.99531 0.710985 60.2439 
Branch_type:  BRANCH_DIRECT_CALL:  Count Percentage: 0.861397 1.24924 0.762811 4.44555 1.96473 2.12837 0.863579 87.7243 
Branch_type:  BRANCH_INDIRECT_CALL:  Count Percentage: 9.56193 0 2.99422 0.0055671 0.00058601 2.19344 1.00413 84.2401 
Branch_type:  BRANCH_RETURN:  Count Percentage: 4.69909 1.3955 1.46746 4.45097 3.37438 4.65627 0.812174 79.1442 
Branch_type:  BRANCH_DIRECT_JUMP:  Total Count: 36722 76677 41590 86928 24545 31272 14880 785403 
Branch_type:  BRANCH_INDIRECT:  Total Count: 43073 12701 9612 35561 12249 10283 3427 240187 
Branch_type:  BRANCH_CONDITIONAL:  Total Count: 2704214 305142 281355 973552 190641 370150 87861 7444734 
Branch_type:  BRANCH_DIRECT_CALL:  Total Count: 16182 23468 14330 83513 36909 39983 16223 1647969 
Branch_type:  BRANCH_INDIRECT_CALL:  Total Count: 32634 0 10219 19 2 7486 3427 287504 
Branch_type:  BRANCH_RETURN:  Total Count: 104353 30990 32588 98843 74935 103402 18036 1757559 
Number of unique branch instructions: 10380
Upper 32 bits: 
aaaa
ffff
ffff0000
Unique upper 32 bits: 3
Unique upper 36 bits: 3
Unique upper 40 bits: 5
Unique upper 44 bits: 32
Unique upper 48 bits: 158
Variant_0 : 1478 0.24056
Variant_1 : 1465 0.238444
Variant_2 : 1596 0.259766
Variant_3 : 0 0
Offset_3 4289
Offset_4 268
Offset_5 474
Offset_6 521
Offset_7 613
Offset_8 534
Offset_9 490
Offset_10 398
Offset_11 324
Offset_12 291
Offset_13 223
Offset_14 241
Offset_15 190
Offset_16 226
Offset_17 170
Offset_18 122
Offset_19 252
Offset_20 141
Offset_21 261
Offset_22 404
Offset_23 241
Offset_24 355
Offset_25 92
Offset_47 88
Offset_64 1
decode_dispatch_called: 25458211 70.3035
Dispatch_width: 0 13655788 53.64 37.7108
Dispatch_width: 1 949605 3.73005 2.62236
Dispatch_width: 2 832337 3.26942 2.29852
Dispatch_width: 3 498561 1.95835 1.37679
Dispatch_width: 4 5540601 21.7635 15.3005
Dispatch_width: 5 160277 0.629569 0.442609
Dispatch_width: 6 3821042 15.0091 10.5519
Empty_decode_cycles: 10753640 29.6965
ROB_full_cycles: 8831741 24.3891
Starvation_cycles_per_kilo_instr: 235.591
Starvation_cycles_per_kilo_instr_3: 178.582
Starvation_cycles_per_kilo_instr_0: 155.777
Branch_type_1  (3,1)  (4,10)  (5,39)  (6,70)  (7,121)  (8,134)  (9,129)  (10,102)  (11,69)  (12,43)  (13,8)  (14,2)  (15,3)  (16,4)  (18,1)  (19,4)  (20,2)  (21,1)  (22,3)  (23,2)  (24,10)  (25,12)  (64,1) 
Branch_type_2  (3,1)  (4,1)  (5,1)  (8,3)  (9,3)  (12,1)  (13,1)  (14,1)  (16,3)  (17,2)  (20,2)  (21,2)  (23,5)  (24,1)  (47,41) 
Branch_type_3  (3,4287)  (4,257)  (5,430)  (6,436)  (7,461)  (8,336)  (9,267)  (10,160)  (11,126)  (12,50)  (13,7) 
Branch_type_4  (6,3)  (7,8)  (8,25)  (9,54)  (10,64)  (11,65)  (12,108)  (13,96)  (14,108)  (15,90)  (16,101)  (17,79)  (18,55)  (19,124)  (20,72)  (21,141)  (22,215)  (23,136)  (24,205)  (25,76) 
Branch_type_5  (8,2)  (9,1)  (10,4)  (11,6)  (12,3)  (13,14)  (14,16)  (15,11)  (16,20)  (17,11)  (18,16)  (19,13)  (20,12)  (21,13)  (22,42)  (23,26)  (24,41) 
Branch_type_6  (5,4)  (6,12)  (7,23)  (8,34)  (9,36)  (10,68)  (11,58)  (12,86)  (13,97)  (14,114)  (15,86)  (16,98)  (17,78)  (18,50)  (19,111)  (20,53)  (21,104)  (22,144)  (23,72)  (24,98)  (25,4)  (47,47) 
Unique trigger count: 
Variant_0_evicts_0 : 0
Variant_0_evicts_1 : 0
Variant_0_evicts_2 : 0
Variant_0_evicts_3 : 0
Variant_1_evicts_0 : 0
Variant_1_evicts_1 : 0
Variant_1_evicts_2 : 0
Variant_1_evicts_3 : 0
Variant_2_evicts_0 : 0
Variant_2_evicts_1 : 0
Variant_2_evicts_2 : 0
Variant_2_evicts_3 : 0
Variant_3_evicts_0 : 0
Variant_3_evicts_1 : 0
Variant_3_evicts_2 : 0
Variant_3_evicts_3 : 0
BTB PER SET UNIQUE ADDR: 5 6 6 7 9 7 4 7 7 9 6 5 3 10 11 10 3 6 7 5 6 6 5 7 5 8 4 5 3 9 7 7 7 7 7 4 4 4 3 4 7 7 8 6 2 5 5 7 7 4 6 5 7 6 5 5 5 4 3 3 5 4 5 6 8 5 6 6 10 3 6 4 7 5 7 7 10 9 6 7 9 6 5 6 6 4 3 7 5 3 4 7 3 7 4 4 5 3 3 5 4 6 8 5 5 9 7 4 3 7 6 4 4 7 7 4 6 6 7 7 5 6 8 7 8 8 5 7 8 5 6 7 8 3 9 5 7 2 5 6 4 6 5 8 6 7 11 6 6 5 6 6 8 6 6 9 3 2 4 8 4 5 6 6 3 5 6 5 5 5 8 3 5 3 4 5 6 8 3 7 4 4 6 8 3 8 5 7 9 7 5 4 5 8 4 4 5 6 4 4 9 9 6 7 8 5 4 6 5 8 7 10 9 6 4 4 5 7 6 6 4 6 6 6 6 4 3 7 6 7 5 7 6 8 3 6 7 8 5 10 11 13 8 6 7 5 5 6 9 6 5 5 5 3 6 6 5 3 7 7 10 6 7 3 5 4 7 8 4 6 8 6 5 4 6 4 8 3 7 7 8 5 2 6 6 4 6 6 3 6 6 6 4 5 7 8 7 3 4 9 10 3 5 10 7 6 5 7 8 5 4 7 7 4 6 5 7 6 6 4 7 4 5 5 8 4 5 6 4 7 7 7 5 6 3 4 7 6 4 6 8 5 6 6 6 8 7 4 6 5 5 8 3 6 5 8 4 6 6 8 5 4 3 7 4 5 6 6 5 7 5 5 7 5 4 8 4 7 5 4 9 4 6 4 5 6 4 5 6 6 5 6 8 5 3 5 10 10 5 7 6 7 6 7 6 4 3 3 7 7 5 4 4 5 8 7 9 9 7 7 6 4 5 10 3 9 6 9 6 6 8 6 10 5 5 2 10 2 7 5 6 3 5 8 3 5 3 5 9 4 7 7 3 7 8 4 4 3 5 4 8 9 7 8 4 6 6 8 5 5 7 5 7 5 6 8 3 4 5 6 6 5 8 5 7 5 6 8 8 3 7 7 6 8 5 9 5 5 7 6 7 4 6 7 6 6 4 4 5 2 3 5 4 3 3 4 6 3 5 3 4 5 5 5 4 5 3 3 4 2 7 3 6 3 4 4 1 4 5 4 4 3 4 6 3 4 4 7 5 4 4 6 3 6 5 5 7 1 5 2 2 5 3 6 4 4 4 3 4 2 3 2 1 4 3 3 6 1 4 2 1 4 2 3 2 3 3 3 5 2 4 2 4 3 3 6 4 5 5 5 5 5 2 2 2 3 3 3 4 2 3 4 4 5 1 4 4 4 5 4 4 1 5 5 4 4 3 5 3 4 3 2 4 3 4 4 5 4 6 6 6 5 2 3 4 4 4 3 2 2 2 2 3 3 3 3 5 3 4 2 1 3 2 7 4 2 5 2 6 4 5 5 3 5 3 4 2 5 4 4 3 6 3 3 3 4 2 7 6 3 3 3 6 4 3 4 3 4 4 6 5 2 4 3 5 5 3 2 3 4 5 2 1 4 3 4 5 4 2 2 5 5 2 4 4 4 6 4 3 7 5 3 6 3 4 3 7 5 3 3 4 6 3 5 5 1 8 2 2 3 5 5 3 3 5 6 3 1 2 2 6 4 4 6 3 7 4 5 2 6 3 2 2 4 4 4 5 3 1 3 2 4 3 3 2 6 3 3 4 4 6 4 4 6 3 3 7 1 4 2 6 4 3 3 6 3 7 3 3 4 4 2 1 2 4 4 4 2 3 4 3 2 6 2 4 2 3 2 4 4 3 5 4 4 4 3 6 6 3 2 2 5 5 4 4 4 6 3 2 3 6 2 3 4 3 3 5 5 4 4 2 5 4 6 5 3 5 4 4 4 4 1 3 4 2 3 2 4 3 3 3 5 4 3 1 3 4 2 2 1 6 2 1 3 3 5 1 3 4 5 5 1 4 5 5 1 5 4 5 7 5 4 2 4 3 3 4 3 5 1 4 4 4 6 2 1 5 5 2 2 4 7 4 4 3 5 4 1 2 2 3 3 4 4 4 2 2 2 5 8 4 6 4 4 7 3 5 5 2 5 3 3 4 6 4 2 8 3 3 4 4 2 3 7 3 5 2 3 5 3 4 1 3 5 3 2 4 3 5 3 3 4 3 5 6 2 3 5 2 4 5 5 5 3 3 4 4 3 4 6 4 5 4 5 4 4 3 3 4 4 4 5 4 4 6 3 4 6 3 3 2 5 3 3 3 5 5 5 3 3 4 5 3 6 2 3 4 5 3 4 2 4 3 2 1 5 5 4 2 3 5 6 5 3 2 4 5 4 6 5 3 6 3 5 6 4 2 5 2 4 6 3 4 3 3 4 3 2 2 6 3 6 4 8 4 4 4 3 4 3 5 4 4 7 3 5 3 5 2 2 4 7 3 1 4 3 5 5 4 5 3 6 4 4 3 6 3 5 4 3 7 3 5 3 3 4 4 3 4 3 5 6 3 3 4 4 2 4 4 4 3 4 2 2 2 3 4 7 3 4 5 1 5 4 3 4 4 6 5 5 8 4 5 3 1 6 2 3 3 4 2 2 6 4 5 2 5 3 5 5 4 3 1 1 4 5 4 3 3 4 2 2 1 1 9 2 5 3 6 3 5 2 3 4 6 4 3 4 3 6 6 1 4 7 4 4 3 3 3 3 7 3 4 3 3 5 4 2 4 4 3 3 9 3 4 3 5 4 2 5 4 4 5 3 7 3 3 3 4 7 3 2 5 4 2 3 4 4 4 5 3 2 6 3 4 3 3 5 4 3 6 4 7 2 5 4 4 2 4 6 7 3 2 8 3 4 4 5 2 5 2 5 4 6 2 3 2 3 4 4 5 7 7 3 4 3 4 2 2 3 6 6 5 3 3 2 3 4 6 3 2 4 4 5 5 3 4 3 3 6 4 3 3 3 8 8 5 4 7 3 3 3 4 6 4 2 4 4 3 4 2 6 3 8 5 5 5 7 4 4 5 3 1 9 3 5 2 6 3 4 3 2 3 2 5 3 5 7 4 1 2 8 3 5 3 5 5 7 4 4 4 2 6 3 1 3 4 4 5 7 3 4 4 4 6 3 1 5 1 4 4 3 5 8 6 4 3 3 5 5 4 2 5 4 3 3 6 6 6 2 5 3 2 3 6 5 4 6 4 4 3 2 3 2 4 4 4 5 4 5 3 1 5 5 4 5 5 3 3 5 4 3 4 3 6 5 2 3 7 8 3 5 3 5 5 3 4 5 4 5 4 4 2 7 5 7 3 4 3 2 4 3 5 7 4 5 3 3 6 4 3 5 4 4 3 2 4 4 4 9 4 1 3 7 2 2 6 2 3 4 4 3 4 3 4 5 
BTB PER SET COUNT: 5 1467 318 1464 9 8 5 8 8 9 8 5 3 13 392 10 3 8 7 5 8 6 5 7 512 8 5 5 3 456 3938 8 8 8 7 4 4 4 3 5 7 1912 8 6 2 943 511 10 7 5 7 5 304 6 5 5 8 1521 3 3 959 5 6 8 8 5 218 7 10 3 8 4 8 5 7 267 12 9 960 7 12 6 5 6 7 5 3 7 5 1014 4 9 3 7 5 4 6 3 3 5 6 8 9 5 5 979 7 4 3 8 6 5 4 7 8 4 7 6 7 1866 5 6 2291 8 9 8 5 9 439 5 6 9 9 3 9 5 8 2 5 1018 727 9 5 9 6 7 15 6 7 14 6 6 8 6 6 963 3 2 4 16 4 7 6 6 3 5 6 5 5 5 8 3 5 3 5 5 7 14 3 8 4 4 6 8 4 8 5 8 9 7 5 4 5 8 4 4 6 1017 4 4 11 1469 8 7 10 8 4 6 37 8 7 10 1021 6 4 5 5 869 6 6 4 6 6 456 6 957 3 513 6 7 259 7 6 8 4 14 7 8 6 10 12 13 11 512 7 6 7929 7 9 6 7 5 5 3 6 6 5 3 9 7 16 9 7 3 5 4 10 8 4 6 58 8 7 6 6 4 35 3 12 8 8 7 2 6 6 4 6 6 3 8 8 8 4 5 516 10 9 3 4 9 10 3 5 105 7 8 6 7 8 1469 1015 7 8 4 6 6 7 6 6 4 7 5 77 5 961 4 5 9 4 7 7 7 20451 6 3 4 7 6 4 6 9 5 8 6 7 8 7 5 56 8 5 8 4 11 5 8 5 1017 8 134 5 4 3 7 14603 5 7 6 5 10 5 14 1971 6 4 11 1466 7 5 5 14 4 6 4 5 8 4 5 8 6 5 6 9 5 3 5 47 552 7 7 6 12 9 11 6 4 3 3 7 8 5 4 4 5 8 7 11 56 8 7 6 4 5 1024 3 390 6 18 338 6 10 1019 10 5 5 2 14 2 3043 7 6 143 510 8 373 5 3 8 9 7 8 292 3 8 390 4 4 3 5 656 1467 521 10 8 10 6 6 8 5 5 2296 5 7 5 8 9 3 4 6 143 7 5 8 1464 123 5 10 2925 9 4 965 9 461 8 6 9 1375 5 7 6 138 4 6 7 6 6 4 4 6 2 3 8 4 2027 3 4 6 509 5 3 5 8 6 5 4 5 3 4 4 2 2032 3 6 8 27 5 1 94 5 4 5 3 4 6 4 1464 4 7 5 4 4 53 1015 7 5 5 8 1 7 2 1013 5 3 7 4 4 1015 3 4 3 3 2 1 4 3 3 6 1 4 2 2 4 2 3 2 3 4 3 5 2 4 2 4 3 5 1466 1464 5 5 5 10 6 2 2 5 3 3 3 4 2 3 4 6 5 1 5 7 4 6 4 5 1 7 8 4 6 3 5 3 4 3 2 4 4 4 5 5 4 7 6 7 5 2 3 7 4 4 3 2 1013 2 2 3 3 3 3 5 3 4 2 1 1462 2 9 4 2 7 2 6 4 5 6 3 6 3 1463 2 5 4 4 3 412 3 3 3 4 2 10 6 3 3 3 7 5 3 4 4 5 4 6 6 2 4 3 5 6 3 2 3 5 5 2 1 4 3 509 969 4 2 2 5 5 2 4 4 4 6 4 3 9 7 3 7 4 5 3 11 5 3 3 4 8 3 5 5 1 8 2 2 3 5 5 3 3 1016 6 3 1 246 4 7 4 4 24 4 8 4 2926 2 6 9 2 2 4 4 5 5 3 1 3 2 4 3 4 2 6 3 3 267 4 7 4 4 7 4 3 8 1 4 2 6 4 5 3 6 4 7 3 3 5 5 2 1 2 4 4 5 2 3 4 3 2 6 3 4 2 3 2 5 513 3 5 4 4 4 3 7 6 3 2 2 958 1016 4 4 4 959 3 2 4 6 2 3 7 3 3 5 5 4 4 2 5 4 6 511 3 5 4 5 4 5 1 3 6 2 3 2 5 3 3 3 6 59 3 1 3 4 3 2 1 1465 2 1 3 3 7 1 3 4 5 6 1 4 5 5 2 6 5 50 13 6 4 2 4 3 3 4 3 5 1 5 957 4 8 2 1 1467 5 2 2 9 7 4 4 4 6 4 1 2 2 3 3 5 6 4 3 2 2 5 9 4 7 4 4 1019 3 5 6 2025 5 3 3 4 6 4 2 513 4 5 4 4 2 4 14 4 5 3 3 5 3 4 1 3 5 3 2 4 999 5 3 3 4 3 7 7 2 3 1464 2 48 5 5 5 3 3 4 5 3 5 511 4 6 5 5 4 4 4 4 5 4 4 5 8 4 6 3 5 453 3 3 2 5 3 3 3 6 5 6 3 3 4 5 957 9 2 3 508 6 3 4 2 4 4 2 1 5 5 196 2 4 5 6 9 3 2 7 5 5 7 5 3 7 3 5 6 5 2 1151 2 5 6 3 4 956 3 4 3 2 2 6 3 8 215 10 6 4 10 3 100 4 6 6 6 2422 384 355 3 6 2 2 4 7 3 1 4 4 129 46 5 6 3 6 4 6 4 6 3 5 5 3 7 3 5 4 3 4 4 3 5 3 5 6 4 3 4 4 2 1015 5 5 3 4 2 2 2 4 4 7 3 4 5 1 5 4 3 985 4 6 5 5 513 4 5 3 1 6 3 3 5 4 2 2 6 6 5 2 958 3 9 7 4 3 1 1 1927 7 4 4 3 4 2 2 1 1 11 3 5 3 6 385 1464 2 3 4 8 4 3 5 3 6 406 1 4 7 4 4 4 5 3 3 1306 3 4 3 4 6 4 2 4 4 6 3 9 6 4 3 6 4 2 7 4 510 5 473 7 3 3 3 4 9 3 2 5 4 2 3 4 4 5 5 3 2 7 3 4 3 3 5 4 4 6 4 9 2 6 4 4 2 4 8 9 3 2 8 3 4 5 5 2 1017 5 5 4 15 2 3 2 3 4 4 5 9 7 4 4 3 6 2 2 3 6 6 5 1015 4 2 3 1464 9 3 2 6 4 5 5 3 1463 3 3 393 4 3 3 3 1640 9 5 4 50 3 3 4 4 7 4 2 6 8 3 4 10 7 3 9 6 6 5 9 4 4 5 3 1 14 3 5 2 7 3 511 3 2 3 2 7 3 6 11 5 1 2 10 3 7 3 5 5 9 8 4 4 2 8 3 1 3 4 4 7 91 3 6 4 5 10 3 1 241 1 5 4 3 5 8 6 6 6 3 7 2418 4 2 5 2865 3 3 7 6 6 3 6 5 3 3 7 6 4 514 4 4 3 3 3 2 4 4 5 6 4 5 3 1 6 5 4 1468 5 3 3 5 5 3 4 3 6 7 2 3 11 1019 3 5 3 5 6 4 904 8 4 5 4 4 2 7 6 7 3 4 3 2 257 3 6 7 4 958 4 3 6 5 3 5 4 5 3 2 5 4 7 964 10 1 3 1467 2 2 8 2 956 4 4 3 6 3 4 958 
To predecode: 0
Predecoding something: 0
Predecode request dropped: 0
sizeofblock_0 0
sizeofblock_1 35473
sizeofblock_2 41857
sizeofblock_3 36188
sizeofblock_4 17959
sizeofblock_5 0
sizeofblock_6 0
sizeofblock_7 0
sizeofblock_8 0
Variant_0 Correct: 1611496 Incorrect: 0 Accuracy: 1
Variant_1 Correct: 2087675 Incorrect: 0 Accuracy: 1
Variant_2 Correct: 3633854 Incorrect: 2567 Accuracy: 0.999294
Variant_3 Correct: 0 Incorrect: 0 Accuracy: -nan
