
*** ChampSim Multicore Out-of-Order Simulator ***

Warmup Instructions: 50000000
Simulation Instructions: 50000000
Number of CPUs: 1
LLC sets: 2048
LLC ways: 16
Off-chip DRAM Size: 4096 MB Channels: 1 Width: 64-bit Data Rate: 6400 MT/s
CPU 0 runs ./micro_traces/srv428.trace.gz
.gz
ITLB has LRU replacement policy
DTLB has LRU replacement policy
STLB has LRU replacement policy
FDIP Prefetcher at L1I
L1I has LRU replacement policy
L1D has LRU replacement policy
Initialize SRRIP state for L2C
Initialize DRRIP state for LLC
Heartbeat_Variant_0 : 1329 0.324463 per_variant_size: 0 1329 0 0 0 0 0 0 0 
Heartbeat_Variant_1 : 2545 0.621338 per_variant_size: 0 558 1987 0 0 0 0 0 0 
Heartbeat_Variant_2 : 0 0 per_variant_size: 0 0 0 0 0 0 0 0 0 
Heartbeat_Variant_3 : 0 0 per_variant_size: 0 0 0 0 0 0 0 0 0 
Heartbeat_Variant_0_evicts 0 : 5962 1 : 467 2 : 0 3 : 0 
Heartbeat_Variant_1_evicts 0 : 390 1 : 0 2 : 0 3 : 0 
Heartbeat_Variant_2_evicts 0 : 0 1 : 0 2 : 0 3 : 0 
Heartbeat_Variant_3_evicts 0 : 0 1 : 0 2 : 0 3 : 0 
Heartbeat CPU 0 instructions: 10000001 cycles: 2875201 heartbeat IPC: 3.47802 cumulative IPC: 3.47802 (Simulation time: 0 hr 1 min 46 sec) 
Heartbeat_Variant_0 : 1341 0.327393 per_variant_size: 0 1341 0 0 0 0 0 0 0 
Heartbeat_Variant_1 : 2597 0.634033 per_variant_size: 0 508 2089 0 0 0 0 0 0 
Heartbeat_Variant_2 : 0 0 per_variant_size: 0 0 0 0 0 0 0 0 0 
Heartbeat_Variant_3 : 0 0 per_variant_size: 0 0 0 0 0 0 0 0 0 
Heartbeat_Variant_0_evicts 0 : 5729 1 : 234 2 : 0 3 : 0 
Heartbeat_Variant_1_evicts 0 : 232 1 : 0 2 : 0 3 : 0 
Heartbeat_Variant_2_evicts 0 : 0 1 : 0 2 : 0 3 : 0 
Heartbeat_Variant_3_evicts 0 : 0 1 : 0 2 : 0 3 : 0 
Heartbeat CPU 0 instructions: 20000000 cycles: 5753461 heartbeat IPC: 3.47432 cumulative IPC: 3.47617 (Simulation time: 0 hr 3 min 30 sec) 
Heartbeat_Variant_0 : 1350 0.32959 per_variant_size: 0 1350 0 0 0 0 0 0 0 
Heartbeat_Variant_1 : 2615 0.638428 per_variant_size: 0 492 2123 0 0 0 0 0 0 
Heartbeat_Variant_2 : 0 0 per_variant_size: 0 0 0 0 0 0 0 0 0 
Heartbeat_Variant_3 : 0 0 per_variant_size: 0 0 0 0 0 0 0 0 0 
Heartbeat_Variant_0_evicts 0 : 5748 1 : 144 2 : 0 3 : 0 
Heartbeat_Variant_1_evicts 0 : 143 1 : 0 2 : 0 3 : 0 
Heartbeat_Variant_2_evicts 0 : 0 1 : 0 2 : 0 3 : 0 
Heartbeat_Variant_3_evicts 0 : 0 1 : 0 2 : 0 3 : 0 
Heartbeat CPU 0 instructions: 30000001 cycles: 8631196 heartbeat IPC: 3.47496 cumulative IPC: 3.47576 (Simulation time: 0 hr 5 min 13 sec) 
Heartbeat_Variant_0 : 1368 0.333984 per_variant_size: 0 1368 0 0 0 0 0 0 0 
Heartbeat_Variant_1 : 2635 0.643311 per_variant_size: 0 489 2146 0 0 0 0 0 0 
Heartbeat_Variant_2 : 0 0 per_variant_size: 0 0 0 0 0 0 0 0 0 
Heartbeat_Variant_3 : 0 0 per_variant_size: 0 0 0 0 0 0 0 0 0 
Heartbeat_Variant_0_evicts 0 : 5802 1 : 339 2 : 0 3 : 0 
Heartbeat_Variant_1_evicts 0 : 333 1 : 0 2 : 0 3 : 0 
Heartbeat_Variant_2_evicts 0 : 0 1 : 0 2 : 0 3 : 0 
Heartbeat_Variant_3_evicts 0 : 0 1 : 0 2 : 0 3 : 0 
Heartbeat CPU 0 instructions: 40000001 cycles: 11504548 heartbeat IPC: 3.48026 cumulative IPC: 3.47689 (Simulation time: 0 hr 7 min 0 sec) 
Heartbeat_Variant_0 : 1370 0.334473 per_variant_size: 0 1370 0 0 0 0 0 0 0 
Heartbeat_Variant_1 : 2643 0.645264 per_variant_size: 0 497 2146 0 0 0 0 0 0 
Heartbeat_Variant_2 : 0 0 per_variant_size: 0 0 0 0 0 0 0 0 0 
Heartbeat_Variant_3 : 0 0 per_variant_size: 0 0 0 0 0 0 0 0 0 
Heartbeat_Variant_0_evicts 0 : 5664 1 : 84 2 : 0 3 : 0 
Heartbeat_Variant_1_evicts 0 : 82 1 : 0 2 : 0 3 : 0 
Heartbeat_Variant_2_evicts 0 : 0 1 : 0 2 : 0 3 : 0 
Heartbeat_Variant_3_evicts 0 : 0 1 : 0 2 : 0 3 : 0 
Heartbeat CPU 0 instructions: 50000002 cycles: 14378649 heartbeat IPC: 3.47935 cumulative IPC: 3.47738 (Simulation time: 0 hr 8 min 47 sec) 

Warmup complete CPU 0 instructions: 50000002 cycles: 14378649 (Simulation time: 0 hr 8 min 47 sec) 

Cycle: 20000000 FTQ IN: 56297631 FTQ occupancy: 20.8651 DECODE IN: 56297521 DECODE occupancy: 54.2447 ROB IN: 56297461 ROB occupancy: 325.784 ROB OUT: 56297109
Heartbeat_Variant_0 : 1374 0.335449 per_variant_size: 0 1374 0 0 0 0 0 0 0 
Heartbeat_Variant_1 : 2665 0.650635 per_variant_size: 0 494 2171 0 0 0 0 0 0 
Heartbeat_Variant_2 : 0 0 per_variant_size: 0 0 0 0 0 0 0 0 0 
Heartbeat_Variant_3 : 0 0 per_variant_size: 0 0 0 0 0 0 0 0 0 
Heartbeat_Variant_0_evicts 0 : 5817 1 : 312 2 : 0 3 : 0 
Heartbeat_Variant_1_evicts 0 : 315 1 : 0 2 : 0 3 : 0 
Heartbeat_Variant_2_evicts 0 : 0 1 : 0 2 : 0 3 : 0 
Heartbeat_Variant_3_evicts 0 : 0 1 : 0 2 : 0 3 : 0 
Heartbeat CPU 0 instructions: 60000002 cycles: 23243476 heartbeat IPC: 1.12805 cumulative IPC: 1.12805 (Simulation time: 0 hr 11 min 3 sec) 
Cycle: 30000000 FTQ IN: 11397115 FTQ occupancy: 15.5498 DECODE IN: 11397225 DECODE occupancy: 40.476 ROB IN: 11397285 ROB occupancy: 271.87 ROB OUT: 11397472
Heartbeat_Variant_0 : 1376 0.335938 per_variant_size: 0 1376 0 0 0 0 0 0 0 
Heartbeat_Variant_1 : 2664 0.650391 per_variant_size: 0 483 2181 0 0 0 0 0 0 
Heartbeat_Variant_2 : 0 0 per_variant_size: 0 0 0 0 0 0 0 0 0 
Heartbeat_Variant_3 : 0 0 per_variant_size: 0 0 0 0 0 0 0 0 0 
Heartbeat_Variant_0_evicts 0 : 5599 1 : 37 2 : 0 3 : 0 
Heartbeat_Variant_1_evicts 0 : 35 1 : 0 2 : 0 3 : 0 
Heartbeat_Variant_2_evicts 0 : 0 1 : 0 2 : 0 3 : 0 
Heartbeat_Variant_3_evicts 0 : 0 1 : 0 2 : 0 3 : 0 
Heartbeat CPU 0 instructions: 70000002 cycles: 32000395 heartbeat IPC: 1.14195 cumulative IPC: 1.13496 (Simulation time: 0 hr 13 min 19 sec) 
Cycle: 40000000 FTQ IN: 11369363 FTQ occupancy: 15.5651 DECODE IN: 11369224 DECODE occupancy: 40.353 ROB IN: 11369164 ROB occupancy: 271.49 ROB OUT: 11368981
Heartbeat_Variant_0 : 1384 0.337891 per_variant_size: 0 1384 0 0 0 0 0 0 0 
Heartbeat_Variant_1 : 2667 0.651123 per_variant_size: 0 447 2220 0 0 0 0 0 0 
Heartbeat_Variant_2 : 0 0 per_variant_size: 0 0 0 0 0 0 0 0 0 
Heartbeat_Variant_3 : 0 0 per_variant_size: 0 0 0 0 0 0 0 0 0 
Heartbeat_Variant_0_evicts 0 : 5810 1 : 188 2 : 0 3 : 0 
Heartbeat_Variant_1_evicts 0 : 183 1 : 0 2 : 0 3 : 0 
Heartbeat_Variant_2_evicts 0 : 0 1 : 0 2 : 0 3 : 0 
Heartbeat_Variant_3_evicts 0 : 0 1 : 0 2 : 0 3 : 0 
Heartbeat CPU 0 instructions: 80000000 cycles: 40804650 heartbeat IPC: 1.13581 cumulative IPC: 1.13525 (Simulation time: 0 hr 15 min 40 sec) 
Heartbeat_Variant_0 : 1390 0.339355 per_variant_size: 0 1390 0 0 0 0 0 0 0 
Heartbeat_Variant_1 : 2681 0.654541 per_variant_size: 0 412 2269 0 0 0 0 0 0 
Heartbeat_Variant_2 : 0 0 per_variant_size: 0 0 0 0 0 0 0 0 0 
Heartbeat_Variant_3 : 0 0 per_variant_size: 0 0 0 0 0 0 0 0 0 
Heartbeat_Variant_0_evicts 0 : 5930 1 : 873 2 : 0 3 : 0 
Heartbeat_Variant_1_evicts 0 : 870 1 : 0 2 : 0 3 : 0 
Heartbeat_Variant_2_evicts 0 : 0 1 : 0 2 : 0 3 : 0 
Heartbeat_Variant_3_evicts 0 : 0 1 : 0 2 : 0 3 : 0 
Heartbeat CPU 0 instructions: 90000000 cycles: 49708464 heartbeat IPC: 1.12311 cumulative IPC: 1.13219 (Simulation time: 0 hr 17 min 53 sec) 
Cycle: 50000000 FTQ IN: 11264080 FTQ occupancy: 14.8225 DECODE IN: 11264091 DECODE occupancy: 38.5686 ROB IN: 11264091 ROB occupancy: 264.247 ROB OUT: 11264087
Heartbeat_Variant_0 : 1386 0.338379 per_variant_size: 0 1386 0 0 0 0 0 0 0 
Heartbeat_Variant_1 : 2686 0.655762 per_variant_size: 0 423 2263 0 0 0 0 0 0 
Heartbeat_Variant_2 : 0 0 per_variant_size: 0 0 0 0 0 0 0 0 0 
Heartbeat_Variant_3 : 0 0 per_variant_size: 0 0 0 0 0 0 0 0 0 
Heartbeat_Variant_0_evicts 0 : 5588 1 : 23 2 : 0 3 : 0 
Heartbeat_Variant_1_evicts 0 : 27 1 : 0 2 : 0 3 : 0 
Heartbeat_Variant_2_evicts 0 : 0 1 : 0 2 : 0 3 : 0 
Heartbeat_Variant_3_evicts 0 : 0 1 : 0 2 : 0 3 : 0 
Heartbeat CPU 0 instructions: 100000002 cycles: 58494617 heartbeat IPC: 1.13815 cumulative IPC: 1.13338 (Simulation time: 0 hr 20 min 36 sec) 
Finished CPU 0 instructions: 50000000 cycles: 44115968 cumulative IPC: 1.13338 (Simulation time: 0 hr 20 min 36 sec) 

ChampSim completed all CPUs

Region of Interest Statistics

CPU 0 cumulative IPC: 1.13338 instructions: 50000000 cycles: 44115968
 Fetch stage stalled: 43.5882  Sim cycles: 44115968 fetch stall cycle: 19229361
 Empty decode stage: 20.0889  Sim cycles: 44115968 fetch stall cycle: 8862419
ITLB TOTAL     ACCESS:    5917216  HIT:    5425544  MISS:     491672  HIT %:    91.6908  MISS %:    8.30918   MPKI: 9.83344
ITLB LOAD TRANSLATION INSTRUCTION	ACCESS:    5781402  HIT:    5289730  MISS:     491672  HIT %:    91.4956  MISS %:    8.50437  MPKI: 9.83344
ITLB TRANSLATION FROM L1D PREFETCHER INSTRUCTION	ACCESS:     135814  HIT:     135814  MISS:          0  HIT %:        100  MISS %:          0  MPKI: 0

ITLB AVERAGE MISS LATENCY: 9.0553 cycles
ITLB RQ	ACCESS:    7990776	FORWARD:          0	MERGED:    1605703	TO_CACHE:    6385073

DTLB TOTAL     ACCESS:    9010802  HIT:    8541107  MISS:     469695  HIT %:    94.7874  MISS %:    5.21258   MPKI: 9.3939
DTLB LOAD TRANSLATION DATA	ACCESS:    9010802  HIT:    8541107  MISS:     469695  HIT %:    94.7874  MISS %:    5.21258  MPKI: 9.3939

DTLB AVERAGE MISS LATENCY: 9.34078 cycles
DTLB RQ	ACCESS:   13393000	FORWARD:          0	MERGED:    4348112	TO_CACHE:    9044888

STLB TOTAL     ACCESS:    1200267  HIT:    1198243  MISS:       2024  HIT %:    99.8314  MISS %:   0.168629   MPKI: 0.04048
STLB LOAD TRANSLATION INSTRUCTION	ACCESS:     491672  HIT:     491420  MISS:        252  HIT %:    99.9487  MISS %:  0.0512537  MPKI: 0.00504
STLB LOAD TRANSLATION DATA	ACCESS:     469694  HIT:     467922  MISS:       1772  HIT %:    99.6227  MISS %:   0.377267  MPKI: 0.03544
STLB TRANSLATION FROM L1D PREFETCHER DATA	ACCESS:     238901  HIT:     238901  MISS:          0  HIT %:        100  MISS %:          0  MPKI: 0

STLB AVERAGE MISS LATENCY: 79.5287 cycles
STLB RQ	ACCESS:    1307731	FORWARD:          0	MERGED:     107464	TO_CACHE:    1200267

STLB Hit, L1D data hit: 0
STLB Hit, L2C data hit: 0
STLB Hit, LLC data hit: 0
STLB Hit, LLC data miss: 0
STLB STLB hints to L2: 0
L1D TOTAL     ACCESS:   10822980  HIT:    5034721  MISS:    5788259  HIT %:    46.5188  MISS %:    53.4812   MPKI: 115.765
L1D LOAD DATA	ACCESS:    6362351  HIT:    2929171  MISS:    3433180  HIT %:    46.0391  MISS %:    53.9609  MPKI: 68.6636
L1D RFO DATA	ACCESS:    4173952  HIT:    1983926  MISS:    2190026  HIT %:    47.5311  MISS %:    52.4689  MPKI: 43.8005
L1D PREFETCH DATA	ACCESS:     286677  HIT:     121624  MISS:     165053  HIT %:    42.4254  MISS %:    57.5746  MPKI: 3.30106

L1D PREFETCH  REQUESTED:     692872  ISSUED:     692872  USEFUL:      26483  USELESS:     153317
L1D USEFUL LOAD PREFETCHES:      26483 PREFETCH ISSUED TO LOWER LEVEL:     180541  ACCURACY: 14.6687
 TIMELY PREFETCHES:      26483 LATE PREFETCHES: 14752 DROPPED PREFETCHES: 0
L1D AVERAGE MISS LATENCY: 94649.5 cycles
L1D RQ	ACCESS:   10663797	FORWARD:          0	MERGED:    3862715	TO_CACHE:    6642321
L1D WQ	ACCESS:    6942496	FORWARD:     158905	MERGED:     191817	TO_CACHE:    6750679
L1D PQ	ACCESS:     346508	FORWARD:          0	MERGED:          0	TO_CACHE:     346364

L1D UNIQUE REGIONS ACCESSED: 0
L1D REGIONS CONFLICTS: 0
L1D Cross Page Prefetch Requests: 2494
L1D Same Page Prefetch Requests: 713897
L1D ROI Sum of L1D PQ occupancy: 4372660
L1D PREFETCHES PUSHED FROM L2C: 0
L1I TOTAL     ACCESS:    7198704  HIT:    4445744  MISS:    2752960  HIT %:    61.7576  MISS %:    38.2424   MPKI: 55.0592
L1I LOAD INSTRUCTION	ACCESS:    6515673  HIT:    3762713  MISS:    2752960  HIT %:    57.7486  MISS %:    42.2514  MPKI: 55.0592
L1I PREFETCH INSTRUCTION	ACCESS:     683031  HIT:     683031  MISS:          0  HIT %:        100  MISS %:          0  MPKI: 0

L1I PREFETCH  REQUESTED:    1597874  ISSUED:    1597874  USEFUL:          0  USELESS:          0
L1I USEFUL LOAD PREFETCHES:          0 PREFETCH ISSUED TO LOWER LEVEL:          0  ACCURACY: -nan
 TIMELY PREFETCHES:          0 LATE PREFETCHES: 0 DROPPED PREFETCHES: 0
L1I AVERAGE MISS LATENCY: 17.3746 cycles
L1I RQ	ACCESS:    9585225	FORWARD:          0	MERGED:    2779770	TO_CACHE:    6805455
L1I PQ	ACCESS:    1597874	FORWARD:          0	MERGED:     412553	TO_CACHE:    1185321

L1BTB TOTAL     ACCESS:    5671813  HIT:    2053921  MISS:    3617892  HIT %:    36.2128  MISS %:    63.7872   MPKI: 72.3578
L1BTB BRANCH_DIRECT_JUMP	ACCESS:     549090 HIT:     145897 MISS:     403193 AVERAGE STALL: 73.6589 AVERAGE FETCH STALL: 15.9782 AVERAGE FETCH QUEUE STALL: 28.4251 AVERAGE DECODE STALL: 28.3601 AVERAGE EXECUTE STALL: 1.95597e+15
L1BTB BRANCH_INDIRECT	ACCESS:     183449 HIT:      66425 MISS:     117024 AVERAGE STALL: 139.237 AVERAGE FETCH STALL: 11.6587 AVERAGE FETCH QUEUE STALL: 20.2323 AVERAGE DECODE STALL: 17.3234 AVERAGE EXECUTE STALL: 89.0618
L1BTB BRANCH_CONDITIONAL	ACCESS:    2713362 HIT:    1424522 MISS:    1288840 AVERAGE STALL: 78.6059 AVERAGE FETCH STALL: 23.9935 AVERAGE FETCH QUEUE STALL: 31.6645 AVERAGE DECODE STALL: 22.2221 AVERAGE EXECUTE STALL: 2.17738e+15
L1BTB BRANCH_DIRECT_CALL	ACCESS:     941982 HIT:     105578 MISS:     836404 AVERAGE STALL: 90.8868 AVERAGE FETCH STALL: 26.0613 AVERAGE FETCH QUEUE STALL: 29.1179 AVERAGE DECODE STALL: 34.9219 AVERAGE EXECUTE STALL: 4.78887e+15
L1BTB BRANCH_INDIRECT_CALL	ACCESS:     170972 HIT:      21072 MISS:     149900 AVERAGE STALL: 183.332 AVERAGE FETCH STALL: 12.3484 AVERAGE FETCH QUEUE STALL: 23.8186 AVERAGE DECODE STALL: 16.3198 AVERAGE EXECUTE STALL: 130.357
L1BTB BRANCH_RETURN	ACCESS:    1112958 HIT:     290427 MISS:     822531 AVERAGE STALL: 57.0835 AVERAGE FETCH STALL: 17.3634 AVERAGE FETCH QUEUE STALL: 7.21872 AVERAGE DECODE STALL: 7.13288 AVERAGE EXECUTE STALL: 4.16367e+14
L1BTB BRANCH_OTHER ACCESS:          0 HIT:          0 MISS:          0 AVERAGE STALL: -nan AVERAGE FETCH STALL: -nan AVERAGE FETCH QUEUE STALL: -nan AVERAGE DECODE STALL: -nan AVERAGE EXECUTE STALL: -nan
L1BTB TOTAL ROB OCCUPANCY AT BTB MISS: 3.55517

L2BTB TOTAL     ACCESS:    3592401  HIT:    3518442  MISS:      73959  HIT %:    97.9412  MISS %:    2.05876   MPKI: 1.47918
L2BTB BRANCH_DIRECT_JUMP	ACCESS:     398969 HIT:     393718 MISS:       5251 AVERAGE STALL: 73.6589 AVERAGE FETCH STALL: 15.9782 AVERAGE FETCH QUEUE STALL: 28.4251 AVERAGE DECODE STALL: 28.3601 AVERAGE EXECUTE STALL: 1.95597e+15
L2BTB BRANCH_INDIRECT	ACCESS:     106754 HIT:     103963 MISS:       2791 AVERAGE STALL: 139.237 AVERAGE FETCH STALL: 11.6587 AVERAGE FETCH QUEUE STALL: 20.2323 AVERAGE DECODE STALL: 17.3234 AVERAGE EXECUTE STALL: 89.0618
L2BTB BRANCH_CONDITIONAL	ACCESS:    1288840 HIT:    1280202 MISS:       8638 AVERAGE STALL: 78.6059 AVERAGE FETCH STALL: 23.9935 AVERAGE FETCH QUEUE STALL: 31.6645 AVERAGE DECODE STALL: 22.2221 AVERAGE EXECUTE STALL: 2.17738e+15
L2BTB BRANCH_DIRECT_CALL	ACCESS:     836404 HIT:     832476 MISS:       3928 AVERAGE STALL: 90.8868 AVERAGE FETCH STALL: 26.0613 AVERAGE FETCH QUEUE STALL: 29.1179 AVERAGE DECODE STALL: 34.9219 AVERAGE EXECUTE STALL: 4.78887e+15
L2BTB BRANCH_INDIRECT_CALL	ACCESS:     140315 HIT:     129928 MISS:      10387 AVERAGE STALL: 183.332 AVERAGE FETCH STALL: 12.3484 AVERAGE FETCH QUEUE STALL: 23.8186 AVERAGE DECODE STALL: 16.3198 AVERAGE EXECUTE STALL: 130.357
L2BTB BRANCH_RETURN	ACCESS:     821119 HIT:     778155 MISS:      42964 AVERAGE STALL: 57.0835 AVERAGE FETCH STALL: 17.3634 AVERAGE FETCH QUEUE STALL: 7.21872 AVERAGE DECODE STALL: 7.13288 AVERAGE EXECUTE STALL: 4.16367e+14
L2BTB BRANCH_OTHER ACCESS:          0 HIT:          0 MISS:          0 AVERAGE STALL: -nan AVERAGE FETCH STALL: -nan AVERAGE FETCH QUEUE STALL: -nan AVERAGE DECODE STALL: -nan AVERAGE EXECUTE STALL: -nan
L2BTB TOTAL ROB OCCUPANCY AT BTB MISS: 173.91

L2C TOTAL     ACCESS:   10732169  HIT:   10270894  MISS:     461275  HIT %:    95.7019  MISS %:    4.29806   MPKI: 9.2255
L2C LOAD INSTRUCTION	ACCESS:    2752960  HIT:    2487499  MISS:     265461  HIT %:    90.3573  MISS %:    9.64275  MPKI: 5.30922
L2C LOAD TRANSLATION INSTRUCTION	ACCESS:        289  HIT:         63  MISS:        226  HIT %:    21.7993  MISS %:    78.2007  MPKI: 0.00452
L2C LOAD DATA	ACCESS:    3359027  HIT:    3289116  MISS:      69911  HIT %:    97.9187  MISS %:    2.08129  MPKI: 1.39822
L2C RFO DATA	ACCESS:    2083667  HIT:    2032976  MISS:      50691  HIT %:    97.5672  MISS %:    2.43278  MPKI: 1.01382
L2C PREFETCH DATA	ACCESS:     271064  HIT:     203810  MISS:      67254  HIT %:    75.1889  MISS %:    24.8111  MPKI: 1.34508
L2C WRITEBACK DATA	ACCESS:    2263285  HIT:    2256902  MISS:       6383  HIT %:     99.718  MISS %:   0.282024  MPKI: 0.12766
L2C LOAD TRANSLATION DATA	ACCESS:       1877  HIT:        528  MISS:       1349  HIT %:      28.13  MISS %:      71.87  MPKI: 0.02698

L2C PREFETCH  REQUESTED:      98924  ISSUED:      98924  USEFUL:      13387  USELESS:      54405
L2C USEFUL LOAD PREFETCHES:      13387 PREFETCH ISSUED TO LOWER LEVEL:      67698  ACCURACY: 19.7746
 TIMELY PREFETCHES:      13387 LATE PREFETCHES: 444 DROPPED PREFETCHES: 0
L2C AVERAGE MISS LATENCY: 39.0494 cycles
L2C RQ	ACCESS:    8362839	FORWARD:          0	MERGED:          0	TO_CACHE:    8197819
L2C WQ	ACCESS:    2325263	FORWARD:     166256	MERGED:      61976	TO_CACHE:    2263287
L2C PQ	ACCESS:     279465	FORWARD:          0	MERGED:       3442	TO_CACHE:     274787

L2C Dense regions hint from L2: 0
PSCL5 TOTAL     ACCESS:       4048  HIT:       2024  MISS:       2024  HIT %:         50  MISS %:         50   MPKI: 0.04048
PSCL5 LOAD TRANSLATION INSTRUCTION	ACCESS:       4048  HIT:       2024  MISS:       2024  HIT %:         50  MISS %:         50  MPKI: 0.04048


PSCL4 TOTAL     ACCESS:       3953  HIT:       1972  MISS:       1981  HIT %:    49.8862  MISS %:    50.1138   MPKI: 0.03962
PSCL4 LOAD TRANSLATION INSTRUCTION	ACCESS:       2138  HIT:       1972  MISS:        166  HIT %:    92.2357  MISS %:    7.76427  MPKI: 0.00332
PSCL4 LOAD TRANSLATION DATA	ACCESS:       1815  HIT:          0  MISS:       1815  HIT %:          0  MISS %:        100  MPKI: 0.0363


PSCL3 TOTAL     ACCESS:       3995  HIT:       1993  MISS:       2002  HIT %:    49.8874  MISS %:    50.1126   MPKI: 0.04004
PSCL3 LOAD TRANSLATION INSTRUCTION	ACCESS:       2159  HIT:       1993  MISS:        166  HIT %:    92.3113  MISS %:    7.68874  MPKI: 0.00332
PSCL3 LOAD TRANSLATION DATA	ACCESS:       1836  HIT:          0  MISS:       1836  HIT %:          0  MISS %:        100  MPKI: 0.03672


PSCL2 TOTAL     ACCESS:       3920  HIT:       1896  MISS:       2024  HIT %:    48.3673  MISS %:    51.6327   MPKI: 0.04048
PSCL2 LOAD TRANSLATION INSTRUCTION	ACCESS:       2155  HIT:       1896  MISS:        259  HIT %:    87.9814  MISS %:    12.0186  MPKI: 0.00518
PSCL2 LOAD TRANSLATION DATA	ACCESS:       1765  HIT:          0  MISS:       1765  HIT %:          0  MISS %:        100  MPKI: 0.0353


LLC TOTAL     ACCESS:     530355  HIT:     502430  MISS:      27925  HIT %:    94.7347  MISS %:    5.26534   MPKI: 0.5585
LLC LOAD INSTRUCTION	ACCESS:     265461  HIT:     264418  MISS:       1043  HIT %:    99.6071  MISS %:   0.392901  MPKI: 0.02086
LLC LOAD TRANSLATION INSTRUCTION	ACCESS:        226  HIT:        189  MISS:         37  HIT %:    83.6283  MISS %:    16.3717  MPKI: 0.00074
LLC LOAD DATA	ACCESS:      69482  HIT:      65370  MISS:       4112  HIT %:    94.0819  MISS %:    5.91808  MPKI: 0.08224
LLC RFO DATA	ACCESS:      50663  HIT:      36558  MISS:      14105  HIT %:    72.1592  MISS %:    27.8408  MPKI: 0.2821
LLC PREFETCH DATA	ACCESS:      67698  HIT:      59411  MISS:       8287  HIT %:    87.7589  MISS %:    12.2411  MPKI: 0.16574
LLC WRITEBACK DATA	ACCESS:      75476  HIT:      75240  MISS:        236  HIT %:    99.6873  MISS %:   0.312682  MPKI: 0.00472
LLC LOAD TRANSLATION DATA	ACCESS:       1349  HIT:       1244  MISS:        105  HIT %:    92.2165  MISS %:    7.78354  MPKI: 0.0021

LLC AVERAGE MISS LATENCY: 155.139 cycles
LLC RQ	ACCESS:     387194	FORWARD:          0	MERGED:          0	TO_CACHE:     387181
LLC WQ	ACCESS:      75476	FORWARD:         13	MERGED:          0	TO_CACHE:      75476
LLC PQ	ACCESS:      67698	FORWARD:          0	MERGED:          0	TO_CACHE:      67698

LLC Dense regions hint to LLC: 0

RAW hits: 1970932
Loads Generated: 12634729
Loads sent to L1D: 10663797
Stores Generated: 6942488
Stores sent to L1D: 6942496
Major fault: 0 Minor fault: 2574
Allocated PAGES: 2574

stream: 
stream:times selected: 1201740
stream:pref_filled: 308940
stream:pref_useful: 24997
stream:pref_late: 30761
stream:misses: 76545
stream:misses_by_poll: 0

CS: 
CS:times selected: 177313
CS:pref_filled: 5016
CS:pref_useful: 2047
CS:pref_late: 4646
CS:misses: 5880
CS:misses_by_poll: 0

CPLX: 
CPLX:times selected: 1199863
CPLX:pref_filled: 33345
CPLX:pref_useful: 3007
CPLX:pref_late: 5786
CPLX:misses: 579149
CPLX:misses_by_poll: 1

NL_L1: 
NL:times selected: 6147
NL:pref_filled: 1269
NL:pref_useful: 99
NL:pref_late: 209
NL:misses: 3925
NL:misses_by_poll: 0

total selections: 2585063
total_filled: 165053
total_useful: 26483
total_late: 44389
total_polluted: 1
total_misses_after_warmup: 3713150
conflicts: 5590744

test: 120139

DRAM Statistics
 CHANNEL 0
 RQ ROW_BUFFER_HIT:       9837  ROW_BUFFER_MISS:      17845
 DBUS_CONGESTED:         16
 WQ ROW_BUFFER_HIT:       1546  ROW_BUFFER_MISS:      12816  FULL:          0

 AVG_CONGESTED_CYCLE: 3

CPU 0 Branch Prediction Accuracy: 99.8082% MPKI: 0.35064 Average ROB Occupancy at Mispredict: 193.295
Branch types
NOT_BRANCH: 40857519 81.715%
BRANCH_DIRECT_JUMP: 549090 1.09818%
BRANCH_INDIRECT: 183449 0.366898%
BRANCH_CONDITIONAL: 6184050 12.3681%
BRANCH_DIRECT_CALL: 941982 1.88396%
BRANCH_INDIRECT_CALL: 170972 0.341944%
BRANCH_RETURN: 1112958 2.22592%
BRANCH_OTHER: 0 0%

DRAM PAGES: 1048576
Allocated PAGES: 2574
Average_ROB_Occupancy: 270.644
Average_Decode_Occupancy: 39.8995
Average_FTQ_Occupancy: 15.3498
Indirect max targets: 14 Average targets: 1.17778
Branch_type:  BRANCH_DIRECT_JUMP:  Count Percentage: 3.34953 4.54466 3.83773 6.80612 3.54133 2.8486 4.13157 70.9405 
Branch_type:  BRANCH_INDIRECT:  Count Percentage: 11.7114 3.50663 2.63739 9.69583 3.33104 2.79447 1.72378 64.5994 
Branch_type:  BRANCH_CONDITIONAL:  Count Percentage: 21.198 6.04105 2.17242 4.66174 2.40831 2.24655 3.12413 58.1478 
Branch_type:  BRANCH_DIRECT_CALL:  Count Percentage: 0.856705 1.24598 0.776953 3.87214 3.42394 1.95091 4.32764 83.5457 
Branch_type:  BRANCH_INDIRECT_CALL:  Count Percentage: 9.54278 0 2.98883 5.33449 0.845529 1.71071 3.8455 75.7322 
Branch_type:  BRANCH_RETURN:  Count Percentage: 4.68552 4.31174 2.39008 4.38934 4.24666 3.16821 3.60693 73.2015 
Branch_type:  BRANCH_DIRECT_JUMP:  Total Count: 36796 49925 42159 74768 38903 31293 45387 779310 
Branch_type:  BRANCH_INDIRECT:  Total Count: 43020 12881 9688 35616 12236 10265 6332 237295 
Branch_type:  BRANCH_CONDITIONAL:  Total Count: 2621692 747136 268678 576548 297851 277846 386381 7191522 
Branch_type:  BRANCH_DIRECT_CALL:  Total Count: 16081 23388 14584 72683 64270 36620 81233 1568217 
Branch_type:  BRANCH_INDIRECT_CALL:  Total Count: 32538 0 10191 18189 2883 5833 13112 258224 
Branch_type:  BRANCH_RETURN:  Total Count: 103968 95674 53034 97396 94230 70300 80035 1624284 
Number of unique branch instructions: 10885
Upper 32 bits: 
aaaa
ffff
ffff0000
Unique upper 32 bits: 3
Unique upper 36 bits: 3
Unique upper 40 bits: 5
Unique upper 44 bits: 32
Unique upper 48 bits: 158
Variant_0 : 1386 0.338379
Variant_1 : 2686 0.655762
Variant_2 : 0 0
Variant_3 : 0 0
Offset_3 4506
Offset_4 263
Offset_5 488
Offset_6 553
Offset_7 650
Offset_8 592
Offset_9 523
Offset_10 428
Offset_11 356
Offset_12 326
Offset_13 242
Offset_14 247
Offset_15 205
Offset_16 233
Offset_17 170
Offset_18 154
Offset_19 272
Offset_20 147
Offset_21 235
Offset_22 412
Offset_23 241
Offset_24 348
Offset_25 117
Offset_47 92
Offset_64 4
decode_dispatch_called: 33005390 74.8151
Dispatch_width: 0 20221959 61.2687 45.8382
Dispatch_width: 1 1246745 3.7774 2.82606
Dispatch_width: 2 1028453 3.11602 2.33125
Dispatch_width: 3 570477 1.72844 1.29313
Dispatch_width: 4 7268852 22.0232 16.4767
Dispatch_width: 5 103914 0.314839 0.235547
Dispatch_width: 6 2564990 7.77143 5.8142
Empty_decode_cycles: 11110578 25.1849
ROB_full_cycles: 17284661 39.1801
Starvation_cycles_per_kilo_instr: 242.663
Starvation_cycles_per_kilo_instr_3: 168.936
Starvation_cycles_per_kilo_instr_0: 140.479
Branch_type_1  (3,1)  (4,9)  (5,39)  (6,76)  (7,126)  (8,153)  (9,138)  (10,111)  (11,79)  (12,55)  (13,11)  (14,2)  (15,3)  (16,4)  (18,1)  (19,5)  (20,2)  (21,1)  (22,3)  (23,2)  (24,10)  (25,12) 
Branch_type_2  (3,1)  (4,1)  (5,1)  (8,4)  (9,4)  (10,1)  (12,1)  (13,1)  (14,1)  (16,3)  (17,2)  (20,2)  (21,2)  (23,5)  (24,1)  (47,41) 
Branch_type_3  (3,4504)  (4,253)  (5,444)  (6,460)  (7,491)  (8,366)  (9,285)  (10,173)  (11,140)  (12,62)  (13,10)  (64,3) 
Branch_type_4  (6,4)  (7,8)  (8,27)  (9,58)  (10,68)  (11,71)  (12,117)  (13,103)  (14,112)  (15,98)  (16,104)  (17,77)  (18,66)  (19,132)  (20,75)  (21,124)  (22,217)  (23,136)  (24,203)  (25,101) 
Branch_type_5  (8,3)  (9,1)  (10,4)  (11,5)  (12,3)  (13,14)  (14,16)  (15,11)  (16,22)  (17,13)  (18,23)  (19,14)  (20,11)  (21,13)  (22,43)  (23,26)  (24,38) 
Branch_type_6  (5,4)  (6,13)  (7,25)  (8,39)  (9,37)  (10,71)  (11,61)  (12,88)  (13,103)  (14,116)  (15,93)  (16,100)  (17,78)  (18,64)  (19,121)  (20,57)  (21,95)  (22,149)  (23,72)  (24,96)  (25,4)  (47,51)  (64,1) 
Unique trigger count: 
Variant_0_evicts_0 : 0
Variant_0_evicts_1 : 0
Variant_0_evicts_2 : 0
Variant_0_evicts_3 : 0
Variant_1_evicts_0 : 0
Variant_1_evicts_1 : 0
Variant_1_evicts_2 : 0
Variant_1_evicts_3 : 0
Variant_2_evicts_0 : 0
Variant_2_evicts_1 : 0
Variant_2_evicts_2 : 0
Variant_2_evicts_3 : 0
Variant_3_evicts_0 : 0
Variant_3_evicts_1 : 0
Variant_3_evicts_2 : 0
Variant_3_evicts_3 : 0
BTB PER SET UNIQUE ADDR: 13 14 12 14 13 7 10 14 10 14 12 14 13 9 7 14 11 7 11 19 12 12 14 15 10 15 10 12 9 12 13 14 15 6 12 13 12 12 8 11 10 11 11 17 11 12 16 9 12 17 13 9 12 14 10 5 10 14 12 14 13 14 9 15 10 14 16 11 15 12 12 14 13 15 14 9 8 18 12 20 16 12 12 16 15 14 17 14 8 17 12 7 10 11 11 17 10 12 14 13 20 15 11 10 10 9 9 17 8 13 6 14 14 13 15 6 13 15 11 10 15 11 13 11 12 14 6 17 16 8 8 12 11 16 9 12 10 15 10 19 11 12 14 14 11 16 17 11 8 12 10 12 11 14 8 14 13 16 12 14 8 14 16 14 10 14 10 10 14 11 11 18 11 16 13 9 13 6 10 9 11 11 15 14 12 17 10 9 15 11 16 12 9 8 13 9 8 12 8 12 13 12 13 11 10 11 14 12 13 14 8 15 10 12 12 13 15 14 10 23 10 17 6 13 13 14 20 15 8 17 14 9 11 13 12 13 16 10 9 13 17 17 15 14 11 8 9 10 14 13 11 12 12 8 13 13 10 12 11 16 13 10 8 12 19 9 14 9 11 10 10 15 12 8 9 9 9 15 13 16 13 13 11 11 14 13 10 18 14 12 11 11 10 12 10 14 11 11 16 11 7 13 10 16 17 15 17 12 19 12 7 18 12 13 15 10 13 12 14 17 13 12 12 9 13 15 12 9 13 9 12 19 8 12 11 16 9 14 13 19 9 17 10 13 13 14 9 12 16 11 16 11 10 10 16 15 9 16 10 8 12 16 8 16 11 17 10 10 17 9 12 9 15 13 10 17 13 20 13 15 14 12 10 11 12 11 16 13 12 9 14 9 15 19 9 12 9 10 15 14 8 9 12 14 17 14 16 14 13 13 10 13 9 16 12 13 12 16 13 19 15 12 15 10 13 11 13 11 13 15 17 14 15 9 17 15 17 13 10 15 18 13 11 15 21 10 13 21 12 13 18 15 18 9 11 13 15 16 10 13 11 12 14 15 16 12 14 13 11 15 13 10 13 14 14 18 9 17 9 10 15 12 14 16 12 15 12 13 16 12 10 15 11 12 11 10 10 16 11 18 11 19 11 20 14 8 10 7 14 12 14 15 12 10 13 18 11 13 12 11 12 8 10 12 12 16 22 11 9 17 21 13 16 9 15 15 11 13 16 17 14 12 15 11 21 14 12 13 14 15 11 16 17 11 14 13 10 16 18 13 11 18 9 24 19 15 10 14 16 16 14 12 18 16 10 12 16 19 9 11 15 9 12 11 13 12 11 12 18 18 16 11 12 11 10 12 9 15 11 12 11 13 10 12 10 13 16 11 9 15 17 19 12 11 6 18 10 14 11 11 14 17 9 7 12 14 14 16 11 10 11 18 14 9 10 10 12 12 10 14 12 13 15 13 14 12 10 9 11 12 13 12 12 11 13 13 21 12 12 12 11 10 12 16 11 12 12 13 13 8 14 15 13 15 16 10 14 14 16 18 6 10 15 16 14 13 7 14 17 16 11 15 11 10 9 12 14 18 11 17 8 16 14 14 9 12 12 12 13 11 10 15 9 12 10 9 18 11 9 11 12 11 15 13 9 10 11 11 14 12 18 12 14 13 10 16 11 16 17 12 12 9 10 16 13 20 12 15 13 10 13 14 13 16 12 12 17 18 11 11 12 9 10 12 14 15 13 13 12 16 14 13 14 8 12 9 13 11 13 16 5 14 14 12 13 11 11 16 11 8 8 7 13 12 14 14 10 11 14 12 16 13 15 19 13 10 14 12 12 10 14 18 12 13 14 14 15 15 7 13 13 16 8 13 13 14 12 12 15 18 11 13 10 13 11 14 11 16 16 12 12 14 12 12 15 11 14 19 10 12 12 10 9 14 15 19 16 14 17 13 11 14 13 15 16 8 14 12 14 11 10 18 14 9 15 9 12 9 11 10 18 10 12 13 13 12 15 12 16 11 13 11 12 14 11 14 19 11 8 8 15 15 13 14 7 12 13 16 14 18 12 13 9 17 14 14 14 11 15 14 13 13 13 16 11 13 7 14 10 11 11 17 18 9 13 15 11 12 13 20 9 18 13 12 10 12 16 15 17 12 12 10 7 17 9 10 12 13 12 11 9 13 10 10 12 17 13 11 8 18 16 12 14 14 15 12 17 14 16 17 15 12 12 16 12 16 17 16 15 13 17 12 12 15 10 11 11 16 16 14 15 19 15 12 18 13 10 12 15 13 14 11 8 8 8 12 8 14 10 14 8 19 16 8 
BTB PER SET COUNT: 19 20 2063 22 16 10 10 20 1470 20 15 225 3067 20 9 22 2211 11 20 37 48 24 202 22 23 18 11 13 397 21 26 22 23 7 19 19 19 18 8 12 12 12 16 297 1470 22 29 11 797 283 13 193 14 18 14 316 17 23 374 18 18 17 304 19 10 241 23 2437 28 18 214 17 23 25 30 10 10 703 18 35 22 25 26 32 17 21 29 25 13 35 14 7 530 483 14 22 13 964 19 16 35 97 12 116 3250 10 18 23 1417 2454 8 21 736 17 19 9 19 26 1394 10 24 23 17 17 12 29 7 25 24 1029 16 14 12 17 13 17 821 21 17 31 15 40 18 19 31 19 22 15 16 27 11 240 907 15 8 18 963 22 17 21 9 89 45 16 13 28 20 14 16 1124 21 27 15 23 24 9 22 6 745 932 16 133 1107 23 93 48 12 13 27 12 29 20 10 9 22 13 9 1051 8 20 20 193 915 19 10 13 19 17 21 411 12 30 16 15 17 781 19 28 1541 37 15 24 57 24 18 27 25 33 762 22 23 11 18 18 15 18 195 20 12 20 263 25 21 31 17 1028 12 12 15 16 13 24 18 10 14 15 17 23 13 23 20 11 10 526 31 10 20 10 16 12 17 25 595 10 447 10 11 18 23 160 27 14 14 13 20 17 11 326 25 12 13 12 13 25 14 17 15 19 28 33 11 21 14 23 30 30 51 18 181 117 10 23 15 27 1926 11 20 16 17 27 21 2462 17 11 17 91 15 13 16 15 20 37 54 26 14 26 14 21 15 25 13 1568 11 16 17 23 11 25 22 14 258 223 14 13 19 20 11 25 14 10 18 23 9 26 13 430 10 16 30 10 19 393 19 18 817 22 15 28 106 1269 28 19 453 12 15 18 446 17 20 11 18 11 22 353 10 17 10 14 360 774 8 15 1228 19 23 19 23 532 19 18 1024 18 11 33 21 26 14 65 165 26 23 13 21 12 17 16 28 13 23 20 34 17 16 15 135 39 30 1037 10 27 776 14 58 22 2434 11 890 27 15 17 329 491 22 13 14 22 23 20 10 17 41 21 23 782 23 110 4618 18 11 19 16 17 18 19 21 32 14 44 13 11 24 317 20 23 14 21 15 22 23 24 459 30 590 219 15 14 1443 692 15 32 23 34 15 28 22 11 14 7 15 18 327 21 587 13 16 32 18 19 16 12 14 14 13 375 13 963 46 797 13 2127 37 18 312 11 22 21 44 1048 26 21 15 15 41 19 37 82 13 18 25 1325 14 22 964 36 25 14 12 32 39 19 18 94 14 33 29 24 13 28 23 25 260 17 33 21 1467 17 19 672 10 15 28 12 18 460 28 14 16 17 22 23 341 22 16 14 13 17 11 18 39 13 13 29 17 12 14 17 24 241 16 19 24 232 18 13 7 22 265 17 17 690 32 26 12 1018 18 15 21 23 12 12 19 238 41 151 13 12 17 880 12 23 16 29 23 16 311 23 206 10 12 20 21 22 13 17 53 529 35 74 71 16 25 14 17 19 17807 16 19 728 1971 11 22 17 17 17 25 15 19 20 21 27 8 17 27 749 1630 22 10 25 173 22 14 24 12 13 2413 21 22 3520 14 31 15 23 19 18 18 329 19 15 16 18 15 470 1227 17 14 129 453 17 12 16 15 959 19 530 12 11 18 15 596 15 26 9976 27 14 12 1903 15 23 29 27 574 13 13 94 19 42 683 22 21 15 27 19 1903 1885 1472 15 24 1240 15 15 14 9 11 366 21 19 20 230 16 309 40 125 19 11 20 12 20 898 18 23 1529 24 22 18 18 13 12 19 19 8 512 10 27 14 14 213 13 12 28 19 22 16 29 124 15 14 31 20 18 63 20 7571 23 15 18 23 19 2934 13 17 24 761 10 19 17 21 15 14 25 43 18 19 20 24 118 1848 14 870 461 21 17 522 18 17 1161 14 31 28 16 24 20 960 10 28 296 33 39 26 26 20 21 24 965 24 587 14 21 13 20 14 685 34 22 14 22 10 13 10 2602 15 31 15 162 16 14 450 23 17 23 16 24 1433 253 19 20 19 34 13 11 12 16 20 23 439 8 18 20 21 124 29 19 875 16 19 28 21 451 570 28 23 20 410 15 23 12 18 7 20 16 32 17 22 375 11 17 29 21 17 19 30 13 1096 19 14 10 16 18 20 18 14 18 15 9 953 12 11 18 22 14 267 16 17 821 10 20 19 1217 14 33 172 71 1923 23 18 19 16 29 25 17 110 1042 13 18 22 14 608 28 578 19 15 27 22 14 1100 17 17 14 1487 18 333 25 673 25 17 25 15 14 31 22 15 353 15 10 10 9 19 10 22 11 17 11 256 29 11 
To predecode: 0
Predecoding something: 0
Predecode request dropped: 0
sizeofblock_0 0
sizeofblock_1 53548
sizeofblock_2 93032
sizeofblock_3 0
sizeofblock_4 0
sizeofblock_5 0
sizeofblock_6 0
sizeofblock_7 0
sizeofblock_8 0
Variant_0 Correct: 1605291 Incorrect: 0 Accuracy: 1
Variant_1 Correct: 5698626 Incorrect: 0 Accuracy: 1
Variant_2 Correct: 0 Incorrect: 0 Accuracy: -nan
Variant_3 Correct: 0 Incorrect: 0 Accuracy: -nan
