
*** ChampSim Multicore Out-of-Order Simulator ***

Warmup Instructions: 50000000
Simulation Instructions: 50000000
Number of CPUs: 1
LLC sets: 2048
LLC ways: 16
Off-chip DRAM Size: 4096 MB Channels: 1 Width: 64-bit Data Rate: 6400 MT/s
CPU 0 runs ./micro_traces/srv421.trace.gz
.gz
ITLB has LRU replacement policy
DTLB has LRU replacement policy
STLB has LRU replacement policy
FDIP Prefetcher at L1I
L1I has LRU replacement policy
L1D has LRU replacement policy
Initialize SRRIP state for L2C
Initialize DRRIP state for LLC
Heartbeat_Variant_0 : 1329 0.324463 per_variant_size: 0 1329 0 0 0 0 0 0 0 
Heartbeat_Variant_1 : 2557 0.624268 per_variant_size: 0 589 1968 0 0 0 0 0 0 
Heartbeat_Variant_2 : 0 0 per_variant_size: 0 0 0 0 0 0 0 0 0 
Heartbeat_Variant_3 : 0 0 per_variant_size: 0 0 0 0 0 0 0 0 0 
Heartbeat_Variant_0_evicts 0 : 5853 1 : 585 2 : 0 3 : 0 
Heartbeat_Variant_1_evicts 0 : 534 1 : 0 2 : 0 3 : 0 
Heartbeat_Variant_2_evicts 0 : 0 1 : 0 2 : 0 3 : 0 
Heartbeat_Variant_3_evicts 0 : 0 1 : 0 2 : 0 3 : 0 
Heartbeat CPU 0 instructions: 10000000 cycles: 2843455 heartbeat IPC: 3.51685 cumulative IPC: 3.51685 (Simulation time: 0 hr 2 min 5 sec) 
Heartbeat_Variant_0 : 1327 0.323975 per_variant_size: 0 1327 0 0 0 0 0 0 0 
Heartbeat_Variant_1 : 2594 0.633301 per_variant_size: 0 558 2036 0 0 0 0 0 0 
Heartbeat_Variant_2 : 0 0 per_variant_size: 0 0 0 0 0 0 0 0 0 
Heartbeat_Variant_3 : 0 0 per_variant_size: 0 0 0 0 0 0 0 0 0 
Heartbeat_Variant_0_evicts 0 : 5570 1 : 50 2 : 0 3 : 0 
Heartbeat_Variant_1_evicts 0 : 59 1 : 0 2 : 0 3 : 0 
Heartbeat_Variant_2_evicts 0 : 0 1 : 0 2 : 0 3 : 0 
Heartbeat_Variant_3_evicts 0 : 0 1 : 0 2 : 0 3 : 0 
Heartbeat CPU 0 instructions: 20000001 cycles: 5685139 heartbeat IPC: 3.51904 cumulative IPC: 3.51794 (Simulation time: 0 hr 3 min 47 sec) 
Heartbeat_Variant_0 : 1367 0.33374 per_variant_size: 0 1367 0 0 0 0 0 0 0 
Heartbeat_Variant_1 : 2630 0.64209 per_variant_size: 0 513 2117 0 0 0 0 0 0 
Heartbeat_Variant_2 : 0 0 per_variant_size: 0 0 0 0 0 0 0 0 0 
Heartbeat_Variant_3 : 0 0 per_variant_size: 0 0 0 0 0 0 0 0 0 
Heartbeat_Variant_0_evicts 0 : 5770 1 : 443 2 : 0 3 : 0 
Heartbeat_Variant_1_evicts 0 : 428 1 : 0 2 : 0 3 : 0 
Heartbeat_Variant_2_evicts 0 : 0 1 : 0 2 : 0 3 : 0 
Heartbeat_Variant_3_evicts 0 : 0 1 : 0 2 : 0 3 : 0 
Heartbeat CPU 0 instructions: 30000000 cycles: 8526100 heartbeat IPC: 3.51994 cumulative IPC: 3.51861 (Simulation time: 0 hr 5 min 32 sec) 
Heartbeat_Variant_0 : 1372 0.334961 per_variant_size: 0 1372 0 0 0 0 0 0 0 
Heartbeat_Variant_1 : 2637 0.643799 per_variant_size: 0 509 2128 0 0 0 0 0 0 
Heartbeat_Variant_2 : 0 0 per_variant_size: 0 0 0 0 0 0 0 0 0 
Heartbeat_Variant_3 : 0 0 per_variant_size: 0 0 0 0 0 0 0 0 0 
Heartbeat_Variant_0_evicts 0 : 5700 1 : 144 2 : 0 3 : 0 
Heartbeat_Variant_1_evicts 0 : 142 1 : 0 2 : 0 3 : 0 
Heartbeat_Variant_2_evicts 0 : 0 1 : 0 2 : 0 3 : 0 
Heartbeat_Variant_3_evicts 0 : 0 1 : 0 2 : 0 3 : 0 
Heartbeat CPU 0 instructions: 40000000 cycles: 11365255 heartbeat IPC: 3.52217 cumulative IPC: 3.5195 (Simulation time: 0 hr 7 min 17 sec) 
Heartbeat_Variant_0 : 1384 0.337891 per_variant_size: 0 1384 0 0 0 0 0 0 0 
Heartbeat_Variant_1 : 2633 0.642822 per_variant_size: 0 482 2151 0 0 0 0 0 0 
Heartbeat_Variant_2 : 0 0 per_variant_size: 0 0 0 0 0 0 0 0 0 
Heartbeat_Variant_3 : 0 0 per_variant_size: 0 0 0 0 0 0 0 0 0 
Heartbeat_Variant_0_evicts 0 : 5534 1 : 144 2 : 0 3 : 0 
Heartbeat_Variant_1_evicts 0 : 133 1 : 0 2 : 0 3 : 0 
Heartbeat_Variant_2_evicts 0 : 0 1 : 0 2 : 0 3 : 0 
Heartbeat_Variant_3_evicts 0 : 0 1 : 0 2 : 0 3 : 0 
Heartbeat CPU 0 instructions: 50000002 cycles: 14207668 heartbeat IPC: 3.51814 cumulative IPC: 3.51923 (Simulation time: 0 hr 9 min 1 sec) 

Warmup complete CPU 0 instructions: 50000002 cycles: 14207668 (Simulation time: 0 hr 9 min 1 sec) 

Cycle: 20000000 FTQ IN: 57000205 FTQ occupancy: 20.8608 DECODE IN: 57000057 DECODE occupancy: 54.3058 ROB IN: 56999997 ROB occupancy: 324.061 ROB OUT: 56999715
Heartbeat_Variant_0 : 1389 0.339111 per_variant_size: 0 1389 0 0 0 0 0 0 0 
Heartbeat_Variant_1 : 2636 0.643555 per_variant_size: 0 489 2147 0 0 0 0 0 0 
Heartbeat_Variant_2 : 0 0 per_variant_size: 0 0 0 0 0 0 0 0 0 
Heartbeat_Variant_3 : 0 0 per_variant_size: 0 0 0 0 0 0 0 0 0 
Heartbeat_Variant_0_evicts 0 : 5573 1 : 123 2 : 0 3 : 0 
Heartbeat_Variant_1_evicts 0 : 119 1 : 0 2 : 0 3 : 0 
Heartbeat_Variant_2_evicts 0 : 0 1 : 0 2 : 0 3 : 0 
Heartbeat_Variant_3_evicts 0 : 0 1 : 0 2 : 0 3 : 0 
Heartbeat CPU 0 instructions: 60000000 cycles: 22500451 heartbeat IPC: 1.20587 cumulative IPC: 1.20587 (Simulation time: 0 hr 11 min 14 sec) 
*** Reached end of trace for Core: 0 Repeating trace: ./micro_traces/srv421.trace.gz
Cycle: 30000000 FTQ IN: 12020488 FTQ occupancy: 15.4418 DECODE IN: 12020528 DECODE occupancy: 40.0316 ROB IN: 12020528 ROB occupancy: 264.331 ROB OUT: 12020458
Heartbeat_Variant_0 : 1387 0.338623 per_variant_size: 0 1387 0 0 0 0 0 0 0 
Heartbeat_Variant_1 : 2645 0.645752 per_variant_size: 0 504 2141 0 0 0 0 0 0 
Heartbeat_Variant_2 : 0 0 per_variant_size: 0 0 0 0 0 0 0 0 0 
Heartbeat_Variant_3 : 0 0 per_variant_size: 0 0 0 0 0 0 0 0 0 
Heartbeat_Variant_0_evicts 0 : 5637 1 : 139 2 : 0 3 : 0 
Heartbeat_Variant_1_evicts 0 : 142 1 : 0 2 : 0 3 : 0 
Heartbeat_Variant_2_evicts 0 : 0 1 : 0 2 : 0 3 : 0 
Heartbeat_Variant_3_evicts 0 : 0 1 : 0 2 : 0 3 : 0 
Heartbeat CPU 0 instructions: 70000001 cycles: 30811042 heartbeat IPC: 1.20328 cumulative IPC: 1.20457 (Simulation time: 0 hr 13 min 26 sec) 
Heartbeat_Variant_0 : 1387 0.338623 per_variant_size: 0 1387 0 0 0 0 0 0 0 
Heartbeat_Variant_1 : 2645 0.645752 per_variant_size: 0 504 2141 0 0 0 0 0 0 
Heartbeat_Variant_2 : 0 0 per_variant_size: 0 0 0 0 0 0 0 0 0 
Heartbeat_Variant_3 : 0 0 per_variant_size: 0 0 0 0 0 0 0 0 0 
Heartbeat_Variant_0_evicts 0 : 5561 1 : 0 2 : 0 3 : 0 
Heartbeat_Variant_1_evicts 0 : 0 1 : 0 2 : 0 3 : 0 
Heartbeat_Variant_2_evicts 0 : 0 1 : 0 2 : 0 3 : 0 
Heartbeat_Variant_3_evicts 0 : 0 1 : 0 2 : 0 3 : 0 
Heartbeat CPU 0 instructions: 80000002 cycles: 39073896 heartbeat IPC: 1.21024 cumulative IPC: 1.20646 (Simulation time: 0 hr 15 min 38 sec) 
Cycle: 40000000 FTQ IN: 12005996 FTQ occupancy: 15.7567 DECODE IN: 12006018 DECODE occupancy: 40.6604 ROB IN: 12006018 ROB occupancy: 266.822 ROB OUT: 12006018
Heartbeat_Variant_0 : 1385 0.338135 per_variant_size: 0 1385 0 0 0 0 0 0 0 
Heartbeat_Variant_1 : 2658 0.648926 per_variant_size: 0 500 2158 0 0 0 0 0 0 
Heartbeat_Variant_2 : 0 0 per_variant_size: 0 0 0 0 0 0 0 0 0 
Heartbeat_Variant_3 : 0 0 per_variant_size: 0 0 0 0 0 0 0 0 0 
Heartbeat_Variant_0_evicts 0 : 5667 1 : 170 2 : 0 3 : 0 
Heartbeat_Variant_1_evicts 0 : 173 1 : 0 2 : 0 3 : 0 
Heartbeat_Variant_2_evicts 0 : 0 1 : 0 2 : 0 3 : 0 
Heartbeat_Variant_3_evicts 0 : 0 1 : 0 2 : 0 3 : 0 
Heartbeat CPU 0 instructions: 90000003 cycles: 47445057 heartbeat IPC: 1.19458 cumulative IPC: 1.20346 (Simulation time: 0 hr 17 min 50 sec) 
Cycle: 50000000 FTQ IN: 12063595 FTQ occupancy: 15.6581 DECODE IN: 12063681 DECODE occupancy: 40.5618 ROB IN: 12063741 ROB occupancy: 266.154 ROB OUT: 12064084
Heartbeat_Variant_0 : 1387 0.338623 per_variant_size: 0 1387 0 0 0 0 0 0 0 
Heartbeat_Variant_1 : 2658 0.648926 per_variant_size: 0 485 2173 0 0 0 0 0 0 
Heartbeat_Variant_2 : 0 0 per_variant_size: 0 0 0 0 0 0 0 0 0 
Heartbeat_Variant_3 : 0 0 per_variant_size: 0 0 0 0 0 0 0 0 0 
Heartbeat_Variant_0_evicts 0 : 5657 1 : 68 2 : 0 3 : 0 
Heartbeat_Variant_1_evicts 0 : 66 1 : 0 2 : 0 3 : 0 
Heartbeat_Variant_2_evicts 0 : 0 1 : 0 2 : 0 3 : 0 
Heartbeat_Variant_3_evicts 0 : 0 1 : 0 2 : 0 3 : 0 
Heartbeat CPU 0 instructions: 100000001 cycles: 55691842 heartbeat IPC: 1.21259 cumulative IPC: 1.20528 (Simulation time: 0 hr 20 min 1 sec) 
Finished CPU 0 instructions: 50000003 cycles: 41484175 cumulative IPC: 1.20528 (Simulation time: 0 hr 20 min 1 sec) 

ChampSim completed all CPUs

Region of Interest Statistics

CPU 0 cumulative IPC: 1.20528 instructions: 50000003 cycles: 41484175
 Fetch stage stalled: 43.093  Sim cycles: 41484175 fetch stall cycle: 17876779
 Empty decode stage: 19.9927  Sim cycles: 41484175 fetch stall cycle: 8293787
ITLB TOTAL     ACCESS:    5905645  HIT:    5414303  MISS:     491342  HIT %:    91.6801  MISS %:    8.31987   MPKI: 9.82684
ITLB LOAD TRANSLATION INSTRUCTION	ACCESS:    5767396  HIT:    5276054  MISS:     491342  HIT %:    91.4807  MISS %:     8.5193  MPKI: 9.82684
ITLB TRANSLATION FROM L1D PREFETCHER INSTRUCTION	ACCESS:     138249  HIT:     138249  MISS:          0  HIT %:        100  MISS %:          0  MPKI: 0

ITLB AVERAGE MISS LATENCY: 9.03082 cycles
ITLB RQ	ACCESS:    7978513	FORWARD:          0	MERGED:    1605551	TO_CACHE:    6372962

DTLB TOTAL     ACCESS:    8962946  HIT:    8486819  MISS:     476127  HIT %:    94.6878  MISS %:    5.31217   MPKI: 9.52254
DTLB LOAD TRANSLATION DATA	ACCESS:    8962946  HIT:    8486819  MISS:     476127  HIT %:    94.6878  MISS %:    5.31217  MPKI: 9.52254

DTLB AVERAGE MISS LATENCY: 9.22763 cycles
DTLB RQ	ACCESS:   13329451	FORWARD:          0	MERGED:    4331972	TO_CACHE:    8997479

STLB TOTAL     ACCESS:    1211592  HIT:    1209853  MISS:       1739  HIT %:    99.8565  MISS %:    0.14353   MPKI: 0.03478
STLB LOAD TRANSLATION INSTRUCTION	ACCESS:     491342  HIT:     491161  MISS:        181  HIT %:    99.9632  MISS %:  0.0368379  MPKI: 0.00362
STLB LOAD TRANSLATION DATA	ACCESS:     476127  HIT:     474569  MISS:       1558  HIT %:    99.6728  MISS %:   0.327224  MPKI: 0.03116
STLB TRANSLATION FROM L1D PREFETCHER DATA	ACCESS:     244123  HIT:     244123  MISS:          0  HIT %:        100  MISS %:          0  MPKI: 0

STLB AVERAGE MISS LATENCY: 55.1668 cycles
STLB RQ	ACCESS:    1342395	FORWARD:          0	MERGED:     130803	TO_CACHE:    1211592

STLB Hit, L1D data hit: 0
STLB Hit, L2C data hit: 0
STLB Hit, LLC data hit: 0
STLB Hit, LLC data miss: 0
STLB STLB hints to L2: 0
L1D TOTAL     ACCESS:   11707783  HIT:    7172741  MISS:    4535042  HIT %:    61.2647  MISS %:    38.7353   MPKI: 90.7008
L1D LOAD DATA	ACCESS:    6418890  HIT:    3673556  MISS:    2745334  HIT %:    57.2304  MISS %:    42.7696  MPKI: 54.9067
L1D RFO DATA	ACCESS:    4999677  HIT:    3413553  MISS:    1586124  HIT %:    68.2755  MISS %:    31.7245  MPKI: 31.7225
L1D PREFETCH DATA	ACCESS:     289216  HIT:      85632  MISS:     203584  HIT %:    29.6083  MISS %:    70.3917  MPKI: 4.07168

L1D PREFETCH  REQUESTED:     750101  ISSUED:     750101  USEFUL:      29949  USELESS:     192681
L1D USEFUL LOAD PREFETCHES:      29949 PREFETCH ISSUED TO LOWER LEVEL:     223505  ACCURACY: 13.3997
 TIMELY PREFETCHES:      29949 LATE PREFETCHES: 18975 DROPPED PREFETCHES: 0
L1D AVERAGE MISS LATENCY: 154548 cycles
L1D RQ	ACCESS:   10634702	FORWARD:          0	MERGED:    3856328	TO_CACHE:    6621314
L1D WQ	ACCESS:    6903529	FORWARD:     157309	MERGED:     195392	TO_CACHE:    6708137
L1D PQ	ACCESS:     375175	FORWARD:          0	MERGED:          0	TO_CACHE:     374926

L1D UNIQUE REGIONS ACCESSED: 0
L1D REGIONS CONFLICTS: 0
L1D Cross Page Prefetch Requests: 2859
L1D Same Page Prefetch Requests: 767607
L1D ROI Sum of L1D PQ occupancy: 4707306
L1D PREFETCHES PUSHED FROM L2C: 0
L1I TOTAL     ACCESS:    7172385  HIT:    4415755  MISS:    2756630  HIT %:    61.5661  MISS %:    38.4339   MPKI: 55.1326
L1I LOAD INSTRUCTION	ACCESS:    6498414  HIT:    3741784  MISS:    2756630  HIT %:      57.58  MISS %:      42.42  MPKI: 55.1326
L1I PREFETCH INSTRUCTION	ACCESS:     673971  HIT:     673971  MISS:          0  HIT %:        100  MISS %:          0  MPKI: 0

L1I PREFETCH  REQUESTED:    1611833  ISSUED:    1611833  USEFUL:          0  USELESS:          0
L1I USEFUL LOAD PREFETCHES:          0 PREFETCH ISSUED TO LOWER LEVEL:          0  ACCURACY: -nan
 TIMELY PREFETCHES:          0 LATE PREFETCHES: 0 DROPPED PREFETCHES: 0
L1I AVERAGE MISS LATENCY: 17.2559 cycles
L1I RQ	ACCESS:    9597042	FORWARD:          0	MERGED:    2806836	TO_CACHE:    6790206
L1I PQ	ACCESS:    1611833	FORWARD:          0	MERGED:     423526	TO_CACHE:    1188307

L1BTB TOTAL     ACCESS:    5682398  HIT:    2066131  MISS:    3616267  HIT %:    36.3602  MISS %:    63.6398   MPKI: 72.3253
L1BTB BRANCH_DIRECT_JUMP	ACCESS:     544754 HIT:     143040 MISS:     401714 AVERAGE STALL: 64.5867 AVERAGE FETCH STALL: 13.6747 AVERAGE FETCH QUEUE STALL: 26.2813 AVERAGE DECODE STALL: 23.7309 AVERAGE EXECUTE STALL: 2.30153e+15
L1BTB BRANCH_INDIRECT	ACCESS:     181794 HIT:      65597 MISS:     116197 AVERAGE STALL: 129.431 AVERAGE FETCH STALL: 12.1765 AVERAGE FETCH QUEUE STALL: 19.5223 AVERAGE DECODE STALL: 15.8345 AVERAGE EXECUTE STALL: 80.9354
L1BTB BRANCH_CONDITIONAL	ACCESS:    2735963 HIT:    1446701 MISS:    1289262 AVERAGE STALL: 68.8042 AVERAGE FETCH STALL: 27.4416 AVERAGE FETCH QUEUE STALL: 22.1989 AVERAGE DECODE STALL: 18.5795 AVERAGE EXECUTE STALL: 2.70559e+15
L1BTB BRANCH_DIRECT_CALL	ACCESS:     939401 HIT:     102245 MISS:     837156 AVERAGE STALL: 84.8798 AVERAGE FETCH STALL: 26.6888 AVERAGE FETCH QUEUE STALL: 31.6712 AVERAGE DECODE STALL: 25.685 AVERAGE EXECUTE STALL: 1.01244e+16
L1BTB BRANCH_INDIRECT_CALL	ACCESS:     170545 HIT:      20723 MISS:     149822 AVERAGE STALL: 168.035 AVERAGE FETCH STALL: 12.1125 AVERAGE FETCH QUEUE STALL: 19.8606 AVERAGE DECODE STALL: 14.0059 AVERAGE EXECUTE STALL: 121.566
L1BTB BRANCH_RETURN	ACCESS:    1109941 HIT:     287825 MISS:     822116 AVERAGE STALL: 53.9095 AVERAGE FETCH STALL: 17.1669 AVERAGE FETCH QUEUE STALL: 6.59164 AVERAGE DECODE STALL: 6.43544 AVERAGE EXECUTE STALL: 4.30375e+14
L1BTB BRANCH_OTHER ACCESS:          0 HIT:          0 MISS:          0 AVERAGE STALL: -nan AVERAGE FETCH STALL: -nan AVERAGE FETCH QUEUE STALL: -nan AVERAGE DECODE STALL: -nan AVERAGE EXECUTE STALL: -nan
L1BTB TOTAL ROB OCCUPANCY AT BTB MISS: 2.95091

L2BTB TOTAL     ACCESS:    3591188  HIT:    3524178  MISS:      67010  HIT %:     98.134  MISS %:    1.86596   MPKI: 1.3402
L2BTB BRANCH_DIRECT_JUMP	ACCESS:     397577 HIT:     393697 MISS:       3880 AVERAGE STALL: 64.5867 AVERAGE FETCH STALL: 13.6747 AVERAGE FETCH QUEUE STALL: 26.2813 AVERAGE DECODE STALL: 23.7309 AVERAGE EXECUTE STALL: 2.30153e+15
L2BTB BRANCH_INDIRECT	ACCESS:     105971 HIT:     103290 MISS:       2681 AVERAGE STALL: 129.431 AVERAGE FETCH STALL: 12.1765 AVERAGE FETCH QUEUE STALL: 19.5223 AVERAGE DECODE STALL: 15.8345 AVERAGE EXECUTE STALL: 80.9354
L2BTB BRANCH_CONDITIONAL	ACCESS:    1289262 HIT:    1282405 MISS:       6857 AVERAGE STALL: 68.8042 AVERAGE FETCH STALL: 27.4416 AVERAGE FETCH QUEUE STALL: 22.1989 AVERAGE DECODE STALL: 18.5795 AVERAGE EXECUTE STALL: 2.70559e+15
L2BTB BRANCH_DIRECT_CALL	ACCESS:     837156 HIT:     835316 MISS:       1840 AVERAGE STALL: 84.8798 AVERAGE FETCH STALL: 26.6888 AVERAGE FETCH QUEUE STALL: 31.6712 AVERAGE DECODE STALL: 25.685 AVERAGE EXECUTE STALL: 1.01244e+16
L2BTB BRANCH_INDIRECT_CALL	ACCESS:     140328 HIT:     130226 MISS:      10102 AVERAGE STALL: 168.035 AVERAGE FETCH STALL: 12.1125 AVERAGE FETCH QUEUE STALL: 19.8606 AVERAGE DECODE STALL: 14.0059 AVERAGE EXECUTE STALL: 121.566
L2BTB BRANCH_RETURN	ACCESS:     820894 HIT:     779244 MISS:      41650 AVERAGE STALL: 53.9095 AVERAGE FETCH STALL: 17.1669 AVERAGE FETCH QUEUE STALL: 6.59164 AVERAGE DECODE STALL: 6.43544 AVERAGE EXECUTE STALL: 4.30375e+14
L2BTB BRANCH_OTHER ACCESS:          0 HIT:          0 MISS:          0 AVERAGE STALL: -nan AVERAGE FETCH STALL: -nan AVERAGE FETCH QUEUE STALL: -nan AVERAGE DECODE STALL: -nan AVERAGE EXECUTE STALL: -nan
L2BTB TOTAL ROB OCCUPANCY AT BTB MISS: 159.249

L2C TOTAL     ACCESS:    8991500  HIT:    8530595  MISS:     460905  HIT %:     94.874  MISS %:    5.12601   MPKI: 9.2181
L2C LOAD INSTRUCTION	ACCESS:    2756630  HIT:    2495279  MISS:     261351  HIT %:    90.5192  MISS %:    9.48082  MPKI: 5.22702
L2C LOAD TRANSLATION INSTRUCTION	ACCESS:        203  HIT:         48  MISS:        155  HIT %:    23.6453  MISS %:    76.3547  MPKI: 0.0031
L2C LOAD DATA	ACCESS:    2687624  HIT:    2614777  MISS:      72847  HIT %:    97.2895  MISS %:    2.71046  MPKI: 1.45694
L2C RFO DATA	ACCESS:    1522342  HIT:    1471667  MISS:      50675  HIT %:    96.6712  MISS %:    3.32875  MPKI: 1.0135
L2C PREFETCH DATA	ACCESS:     310966  HIT:     246949  MISS:      64017  HIT %:    79.4135  MISS %:    20.5865  MPKI: 1.28034
L2C WRITEBACK DATA	ACCESS:    1712116  HIT:    1701503  MISS:      10613  HIT %:    99.3801  MISS %:   0.619876  MPKI: 0.21226
L2C LOAD TRANSLATION DATA	ACCESS:       1619  HIT:        372  MISS:       1247  HIT %:    22.9771  MISS %:    77.0229  MPKI: 0.02494

L2C PREFETCH  REQUESTED:      95469  ISSUED:      95469  USEFUL:      13569  USELESS:      51041
L2C USEFUL LOAD PREFETCHES:      13569 PREFETCH ISSUED TO LOWER LEVEL:      64558  ACCURACY: 21.0183
 TIMELY PREFETCHES:      13569 LATE PREFETCHES: 541 DROPPED PREFETCHES: 0
L2C AVERAGE MISS LATENCY: 34.6847 cycles
L2C RQ	ACCESS:    7069992	FORWARD:          0	MERGED:          0	TO_CACHE:    6968423
L2C WQ	ACCESS:    1748091	FORWARD:     102671	MERGED:      35975	TO_CACHE:    1712116
L2C PQ	ACCESS:     318974	FORWARD:          0	MERGED:       2529	TO_CACHE:     315343

L2C Dense regions hint from L2: 0
PSCL5 TOTAL     ACCESS:       3478  HIT:       1739  MISS:       1739  HIT %:         50  MISS %:         50   MPKI: 0.03478
PSCL5 LOAD TRANSLATION INSTRUCTION	ACCESS:       3478  HIT:       1739  MISS:       1739  HIT %:         50  MISS %:         50  MPKI: 0.03478


PSCL4 TOTAL     ACCESS:       3235  HIT:       1615  MISS:       1620  HIT %:    49.9227  MISS %:    50.0773   MPKI: 0.0324
PSCL4 LOAD TRANSLATION INSTRUCTION	ACCESS:       1735  HIT:       1615  MISS:        120  HIT %:    93.0836  MISS %:    6.91643  MPKI: 0.0024
PSCL4 LOAD TRANSLATION DATA	ACCESS:       1500  HIT:          0  MISS:       1500  HIT %:          0  MISS %:        100  MPKI: 0.03


PSCL3 TOTAL     ACCESS:       3395  HIT:       1695  MISS:       1700  HIT %:    49.9264  MISS %:    50.0736   MPKI: 0.034
PSCL3 LOAD TRANSLATION INSTRUCTION	ACCESS:       1815  HIT:       1695  MISS:        120  HIT %:    93.3884  MISS %:    6.61157  MPKI: 0.0024
PSCL3 LOAD TRANSLATION DATA	ACCESS:       1580  HIT:          0  MISS:       1580  HIT %:          0  MISS %:        100  MPKI: 0.0316


PSCL2 TOTAL     ACCESS:       3405  HIT:       1666  MISS:       1739  HIT %:     48.928  MISS %:     51.072   MPKI: 0.03478
PSCL2 LOAD TRANSLATION INSTRUCTION	ACCESS:       1847  HIT:       1666  MISS:        181  HIT %:    90.2003  MISS %:    9.79968  MPKI: 0.00362
PSCL2 LOAD TRANSLATION DATA	ACCESS:       1558  HIT:          0  MISS:       1558  HIT %:          0  MISS %:        100  MPKI: 0.03116


LLC TOTAL     ACCESS:     524699  HIT:     508321  MISS:      16378  HIT %:    96.8786  MISS %:    3.12141   MPKI: 0.32756
LLC LOAD INSTRUCTION	ACCESS:     261353  HIT:     260935  MISS:        418  HIT %:    99.8401  MISS %:   0.159937  MPKI: 0.00836
LLC LOAD TRANSLATION INSTRUCTION	ACCESS:        155  HIT:        140  MISS:         15  HIT %:    90.3226  MISS %:    9.67742  MPKI: 0.0003
LLC LOAD DATA	ACCESS:      72307  HIT:      69287  MISS:       3020  HIT %:    95.8234  MISS %:    4.17664  MPKI: 0.0604
LLC RFO DATA	ACCESS:      50658  HIT:      44506  MISS:       6152  HIT %:    87.8558  MISS %:    12.1442  MPKI: 0.12304
LLC PREFETCH DATA	ACCESS:      64556  HIT:      57927  MISS:       6629  HIT %:    89.7314  MISS %:    10.2686  MPKI: 0.13258
LLC WRITEBACK DATA	ACCESS:      74423  HIT:      74315  MISS:        108  HIT %:    99.8549  MISS %:   0.145116  MPKI: 0.00216
LLC LOAD TRANSLATION DATA	ACCESS:       1247  HIT:       1211  MISS:         36  HIT %:    97.1131  MISS %:    2.88693  MPKI: 0.00072

LLC AVERAGE MISS LATENCY: 151.436 cycles
LLC RQ	ACCESS:     385737	FORWARD:          0	MERGED:          0	TO_CACHE:     385721
LLC WQ	ACCESS:      74423	FORWARD:         18	MERGED:          0	TO_CACHE:      74423
LLC PQ	ACCESS:      64558	FORWARD:          0	MERGED:          0	TO_CACHE:      64556

LLC Dense regions hint to LLC: 0

RAW hits: 1967569
Loads Generated: 12602271
Loads sent to L1D: 10634702
Stores Generated: 6903527
Stores sent to L1D: 6903529
Major fault: 0 Minor fault: 2192
Allocated PAGES: 2192

stream: 
stream:times selected: 1243839
stream:pref_filled: 377079
stream:pref_useful: 26021
stream:pref_late: 31351
stream:misses: 111189
stream:misses_by_poll: 0

CS: 
CS:times selected: 189092
CS:pref_filled: 13375
CS:pref_useful: 1598
CS:pref_late: 8270
CS:misses: 5734
CS:misses_by_poll: 1

CPLX: 
CPLX:times selected: 1242016
CPLX:pref_filled: 51093
CPLX:pref_useful: 3025
CPLX:pref_late: 7770
CPLX:misses: 729154
CPLX:misses_by_poll: 2

NL_L1: 
NL:times selected: 6058
NL:pref_filled: 2048
NL:pref_useful: 114
NL:pref_late: 305
NL:misses: 4987
NL:misses_by_poll: 0

total selections: 2681005
total_filled: 203584
total_useful: 29949
total_late: 51253
total_polluted: 3
total_misses_after_warmup: 2947755
conflicts: 5541511

test: 119757

DRAM Statistics
 CHANNEL 0
 RQ ROW_BUFFER_HIT:       4910  ROW_BUFFER_MISS:      11355
 DBUS_CONGESTED:         18
 WQ ROW_BUFFER_HIT:        841  ROW_BUFFER_MISS:       7042  FULL:          0

 AVG_CONGESTED_CYCLE: 4

CPU 0 Branch Prediction Accuracy: 99.82% MPKI: 0.3298 Average ROB Occupancy at Mispredict: 209.818
Branch types
NOT_BRANCH: 40837746 81.6755%
BRANCH_DIRECT_JUMP: 544754 1.08951%
BRANCH_INDIRECT: 181794 0.363588%
BRANCH_CONDITIONAL: 6215782 12.4316%
BRANCH_DIRECT_CALL: 939401 1.8788%
BRANCH_INDIRECT_CALL: 170545 0.34109%
BRANCH_RETURN: 1109941 2.21988%
BRANCH_OTHER: 0 0%

DRAM PAGES: 1048576
Allocated PAGES: 2192
Average_ROB_Occupancy: 266.708
Average_Decode_Occupancy: 40.4099
Average_FTQ_Occupancy: 15.608
Indirect max targets: 14 Average targets: 1.15017
Branch_type:  BRANCH_DIRECT_JUMP:  Count Percentage: 3.64976 6.10955 4.18588 3.12861 7.48606 6.0239 1.70771 67.7085 
Branch_type:  BRANCH_INDIRECT:  Count Percentage: 11.773 3.47151 2.54597 0 13.0084 2.80825 2.14004 64.2529 
Branch_type:  BRANCH_CONDITIONAL:  Count Percentage: 25.4979 3.38465 5.27996 2.47714 3.39148 4.60238 1.62575 53.7407 
Branch_type:  BRANCH_DIRECT_CALL:  Count Percentage: 0.878351 1.25048 0.729127 2.26921 4.10279 2.82296 0.887355 87.0597 
Branch_type:  BRANCH_INDIRECT_CALL:  Count Percentage: 9.55537 0 2.99627 0 0 2.2783 0.998169 84.1719 
Branch_type:  BRANCH_RETURN:  Count Percentage: 8.24863 1.55481 5.25186 1.71297 4.1901 5.25182 1.12618 72.6636 
Branch_type:  BRANCH_DIRECT_JUMP:  Total Count: 39716 66483 45550 34045 81462 65551 18583 736792 
Branch_type:  BRANCH_INDIRECT:  Total Count: 42778 12614 9251 0 47267 10204 7776 233468 
Branch_type:  BRANCH_CONDITIONAL:  Total Count: 3167458 420456 655899 307721 421304 571727 201958 6675897 
Branch_type:  BRANCH_DIRECT_CALL:  Total Count: 16487 23472 13686 42594 77011 52988 16656 1634146 
Branch_type:  BRANCH_INDIRECT_CALL:  Total Count: 32567 0 10212 0 0 7765 3402 286878 
Branch_type:  BRANCH_RETURN:  Total Count: 183009 34496 116521 38005 92964 116520 24986 1612159 
Number of unique branch instructions: 9869
Upper 32 bits: 
aaaa
ffff
ffff0000
Unique upper 32 bits: 3
Unique upper 36 bits: 3
Unique upper 40 bits: 5
Unique upper 44 bits: 32
Unique upper 48 bits: 153
Variant_0 : 1387 0.338623
Variant_1 : 2658 0.648926
Variant_2 : 0 0
Variant_3 : 0 0
Offset_3 4056
Offset_4 242
Offset_5 444
Offset_6 507
Offset_7 584
Offset_8 514
Offset_9 462
Offset_10 385
Offset_11 320
Offset_12 267
Offset_13 195
Offset_14 225
Offset_15 182
Offset_16 225
Offset_17 146
Offset_18 127
Offset_19 235
Offset_20 137
Offset_21 235
Offset_22 397
Offset_23 241
Offset_24 325
Offset_25 88
Offset_47 80
decode_dispatch_called: 31300071 75.4506
Dispatch_width: 0 18614225 59.4702 44.8707
Dispatch_width: 1 1218898 3.89423 2.93822
Dispatch_width: 2 996658 3.1842 2.4025
Dispatch_width: 3 558435 1.78413 1.34614
Dispatch_width: 4 7132429 22.7873 17.1931
Dispatch_width: 5 93792 0.299654 0.226091
Dispatch_width: 6 2685634 8.58028 6.47388
Empty_decode_cycles: 10184104 24.5494
ROB_full_cycles: 15271624 36.8131
Starvation_cycles_per_kilo_instr: 235.269
Starvation_cycles_per_kilo_instr_3: 163.007
Starvation_cycles_per_kilo_instr_0: 135.267
Branch_type_1  (3,1)  (4,7)  (5,36)  (6,74)  (7,115)  (8,126)  (9,121)  (10,100)  (11,76)  (12,44)  (13,4)  (14,2)  (15,3)  (16,4)  (18,1)  (19,4)  (20,2)  (21,1)  (22,3)  (23,2)  (24,10)  (25,12) 
Branch_type_2  (3,1)  (5,1)  (8,3)  (9,3)  (12,1)  (13,1)  (14,1)  (16,3)  (17,2)  (20,2)  (21,2)  (23,5)  (24,1)  (47,36) 
Branch_type_3  (3,4054)  (4,235)  (5,403)  (6,417)  (7,438)  (8,326)  (9,256)  (10,158)  (11,130)  (12,49)  (13,4) 
Branch_type_4  (6,4)  (7,8)  (8,26)  (9,50)  (10,60)  (11,57)  (12,96)  (13,84)  (14,99)  (15,86)  (16,102)  (17,66)  (18,58)  (19,114)  (20,71)  (21,124)  (22,213)  (23,136)  (24,187)  (25,72) 
Branch_type_5  (8,2)  (9,1)  (10,3)  (11,5)  (12,3)  (13,14)  (14,16)  (15,11)  (16,20)  (17,11)  (18,16)  (19,12)  (20,10)  (21,13)  (22,42)  (23,26)  (24,36) 
Branch_type_6  (5,4)  (6,12)  (7,23)  (8,31)  (9,31)  (10,64)  (11,52)  (12,74)  (13,88)  (14,107)  (15,82)  (16,96)  (17,67)  (18,52)  (19,105)  (20,52)  (21,95)  (22,139)  (23,72)  (24,91)  (25,4)  (47,44) 
Unique trigger count: 
Variant_0_evicts_0 : 0
Variant_0_evicts_1 : 0
Variant_0_evicts_2 : 0
Variant_0_evicts_3 : 0
Variant_1_evicts_0 : 0
Variant_1_evicts_1 : 0
Variant_1_evicts_2 : 0
Variant_1_evicts_3 : 0
Variant_2_evicts_0 : 0
Variant_2_evicts_1 : 0
Variant_2_evicts_2 : 0
Variant_2_evicts_3 : 0
Variant_3_evicts_0 : 0
Variant_3_evicts_1 : 0
Variant_3_evicts_2 : 0
Variant_3_evicts_3 : 0
BTB PER SET UNIQUE ADDR: 12 15 11 10 13 14 7 8 10 13 11 13 14 8 11 8 6 11 13 13 8 9 12 9 7 15 11 14 12 11 10 11 9 9 8 11 5 11 5 9 11 11 12 14 10 8 14 9 13 8 13 7 12 9 9 6 12 9 7 10 13 15 10 9 15 11 10 9 10 9 12 13 12 11 12 9 11 14 12 11 8 7 13 15 11 11 13 11 8 13 8 7 9 9 9 12 13 12 15 13 14 12 10 12 11 7 10 12 10 9 13 6 10 11 7 9 9 13 10 10 13 7 9 8 10 10 7 14 13 11 11 10 8 13 7 14 7 12 10 16 10 12 9 9 10 9 11 6 8 12 11 9 8 12 7 13 19 6 14 10 10 10 12 9 14 13 12 7 10 7 10 11 12 8 9 9 12 11 14 13 9 11 12 12 11 14 8 9 13 9 7 9 8 10 10 9 8 8 8 12 13 10 9 9 8 12 11 12 11 11 11 12 9 15 8 12 11 15 11 16 9 8 6 7 9 14 12 13 11 14 8 8 11 13 9 10 16 7 12 8 9 11 13 13 12 7 8 14 11 9 10 15 12 11 9 14 12 4 8 8 13 8 5 8 11 9 8 11 11 9 10 13 7 7 9 9 11 14 8 13 8 10 8 8 12 5 9 15 13 11 12 6 11 12 7 12 8 12 11 11 10 10 10 9 14 7 9 11 17 12 11 11 8 14 11 10 10 13 11 13 7 11 11 12 9 12 9 8 13 9 9 11 9 11 9 12 7 10 9 14 12 12 7 11 15 9 11 10 13 9 7 10 13 10 15 8 12 15 8 7 8 13 10 14 11 15 4 11 13 13 10 8 10 10 11 8 12 10 11 12 11 9 7 7 8 10 11 14 13 11 15 7 13 9 10 8 9 10 13 12 11 10 9 11 13 7 14 13 8 12 13 7 14 13 6 9 8 15 11 10 13 12 12 12 9 9 12 11 9 11 12 10 7 10 15 13 9 7 11 15 9 8 13 10 11 8 7 14 11 11 16 18 9 10 10 9 8 11 7 11 10 9 10 13 13 7 8 9 11 6 11 10 12 11 13 15 11 17 9 12 11 8 9 10 11 14 12 14 14 10 8 10 10 11 8 9 10 11 8 11 12 15 8 16 8 10 8 13 12 12 11 12 11 7 10 14 9 12 11 9 10 10 8 10 8 14 15 11 7 15 15 11 12 6 16 15 8 13 13 8 16 12 11 7 10 16 6 14 11 11 12 15 10 12 11 14 10 8 20 11 16 14 7 10 10 14 8 14 14 12 11 10 15 11 9 10 13 13 13 11 11 11 10 10 9 8 13 11 15 12 11 10 14 9 11 8 9 8 13 8 12 11 11 7 14 10 12 14 12 9 12 13 11 12 5 15 9 11 12 11 13 12 7 6 11 12 10 10 9 14 10 13 13 9 10 11 14 9 6 14 10 8 10 11 9 10 12 6 17 8 10 12 13 6 9 11 10 11 10 9 13 7 12 11 12 13 8 10 10 9 11 7 10 13 16 7 16 10 13 11 10 12 9 11 11 12 8 12 14 11 10 11 9 7 10 8 10 7 10 14 7 11 13 11 6 12 12 6 11 8 14 11 7 12 11 14 14 11 10 14 13 11 8 10 9 12 10 8 10 8 13 9 9 12 10 16 10 10 15 10 7 11 11 13 12 17 10 12 12 7 9 12 10 8 9 12 12 13 12 11 11 8 10 12 11 15 9 12 11 13 10 8 9 10 16 8 11 9 14 12 4 7 13 6 13 8 11 11 7 8 12 10 13 10 13 9 8 10 10 15 13 8 15 12 11 10 13 9 12 10 11 10 13 17 11 17 12 15 9 17 10 15 6 16 12 14 10 13 12 15 11 10 8 8 12 9 13 12 11 11 12 12 8 9 12 9 9 16 8 13 13 9 9 10 15 12 11 12 14 14 9 11 9 10 14 8 9 8 15 10 10 15 13 10 11 7 10 7 9 11 13 9 10 16 11 11 10 9 10 10 13 9 9 7 10 11 17 16 10 11 8 8 13 14 6 14 13 11 13 13 11 10 9 13 16 11 15 9 8 10 11 10 10 11 9 10 8 9 7 7 11 9 11 12 8 19 9 12 11 14 9 13 7 12 10 10 14 16 10 10 13 10 5 13 6 11 7 10 11 16 11 13 10 12 9 10 10 9 11 13 9 13 13 15 9 7 13 11 11 13 11 18 12 11 12 12 17 7 11 9 14 10 12 14 11 8 11 9 15 12 16 13 9 8 10 8 7 8 8 12 13 14 11 9 11 8 6 7 7 11 9 15 14 9 
BTB PER SET COUNT: 40 21 1958 11 15 15 1461 185 1473 19 14 17 21 11 16 13 6 2444 29 18 9 10 15 10 24 21 13 19 379 11 12 13 10 10 8 502 5 16 5 12 13 12 14 18 13 10 14 12 121 8 15 510 18 17 12 369 18 11 492 13 20 20 885 11 21 14 12 860 16 10 307 133 15 12 13 13 17 19 14 17 982 9 801 393 17 14 16 25 317 19 8 638 498 108 12 17 338 17 22 3255 20 726 14 13 3283 8 11 16 1250 13 15 9 1087 16 8 12 9 18 1475 171 53 7 13 10 17 15 9 17 20 984 17 10 8 15 8 15 823 17 13 19 15 14 9 12 10 19 13 662 12 112 12 10 983 12 10 17 67 6 20 41 12 11 21 10 1006 20 19 7 13 1562 17 15 16 9 9 9 18 11 313 476 12 17 20 14 14 20 8 12 21 11 10 9 8 12 14 27 8 979 9 13 26 14 982 15 9 14 12 13 987 2799 13 23 11 18 8 16 21 22 2925 19 16 13 6 8 10 19 19 267 14 22 12 12 12 21 11 12843 785 8 151 12 226 19 21 16 19 9 9 20 324 11 16 20 12 15 11 17 82 6 8 8 116 8 5 9 12 9 10 12 402 9 14 29 7 7 16 9 14 17 9 213 9 17 10 10 15 5 9 27 15 12 19 6 14 12 8 17 11 14 13 805 15 12 10 14 22 129 14 493 29 61 71 15 9 22 1471 877 14 23 15 25 14 14 14 18 1471 17 12 14 15 10 11 13 61 11 14 15 7 982 14 27 16 22 10 11 28 9 13 10 17 14 7 1467 20 12 17 8 21 27 120 12 11 14 19 20 13 67 4 18 18 16 739 8 13 13 21 8 17 16 18 20 793 11 195 11 8 11 13 23 16 11 21 7 19 10 11 218 10 21 2392 2715 13 13 98 17 18 7 16 226 12 15 18 10 23 17 6 16 11 7564 15 11 15 23 14 17 14 12 16 11 9 12 24 10 8 12 19 22 21 7 12 25 1072 11 15 13 11 8 937 17 16 12 921 21 12 11 12 1381 11 14 7 18 10 311 18 17 15 11 3839 12 17 6 18 14 16 11 22 16 14 1131 12 12 18 12 10 13 265 16 16 17 23 14 11 12 651 17 10 13 760 17 9 18 17 22 9 37 13 15 11 18 20 15 512 16 180 7 13 23 9 19 14 9 12 15 14 12 11 21 913 371 8 1378 24 14 14 7 26 19 9 38 23 532 20 12 15 9 14 295 7 21 16 409 16 19 795 600 14 17 15 8 31 25 20 94 8 11 12 23 128 18 23 18 595 11 23 14 10 13 14 18 15 17 16 17 17 3910 11 13 19 17 25 16 19 684 20 10 13 8 1613 18 18 8 21 18 162 10 20 14 15 892 13 11 20 19 23 14 5 17 10 18 19 11 15 20 11 979 12 15 20 15 9 20 13 22 24 11 17 311 21 778 6 17 10 10 11 11 2440 13 80 6 83 9 11 15 16 9 24 13 18 128 986 843 21 7 15 11 431 26 8 777 1471 11 17 8 984 14 988 9 25 12 18 19 11 17 981 13 12 17 9 17 19 19 10 15 9 9 17 14 135 7 16 15 975 16 15 15 9 13 16 7 13 9 22 498 8 16 47 126 423 13 14 16 14 190 9 10 1467 15 11 9 730 808 121 10772 10 14 12 1490 496 14 24 18 1090 12 394 23 21 25 498 13 14 7 11 15 13 11 11 15 17 895 17 13 15 8 14 162 2343 21 10 237 12 17 10 153 16 10 27 9 14 755 15 16 1463 7 81 8 16 10 16 16 11 9 198 880 15 10 287 10 11 13 12 162 430 12 408 691 462 14 23 11 13 60 15 4972 17 40 18 688 14 1406 10 2771 14 930 6 24 280 18 13 16 18 18 11 17 9 11 37 291 17 20 14 496 15 13 8 15 544 9 12 19 10 16 15 413 14 11 18 23 12 13 17 18 982 310 9 11 25 8 10 12 17 13 388 53 19 12 13 8 11 8 10 22 17 13 212 22 500 1469 12 13 11 13 17 24 1953 7 11 13 27 27 11 17 8 13 21 315 8 23 15 15 135 18 17 13 14 21 27 13 23 983 10 14 11 14 11 15 9 16 9 11 8 22 12 9 12 14 10 610 11 39 12 17 9 1014 8 15 11 775 27 20 13 18 18 982 7 3325 6 16 7 14 16 19 410 15 15 14 19 12 1472 11 57 177 78 886 14 29 11 10 22 11 11 17 218 1168 23 16 15 20 467 982 15 11 14 11 15 19 1471 9 11 1472 16 14 94 16 9 11 10 1351 9 10 9 12 310 709 13 12 11 10 6 367 8 11 14 620 23 11 
To predecode: 0
Predecoding something: 0
Predecode request dropped: 0
sizeofblock_0 0
sizeofblock_1 53028
sizeofblock_2 87349
sizeofblock_3 0
sizeofblock_4 0
sizeofblock_5 0
sizeofblock_6 0
sizeofblock_7 0
sizeofblock_8 0
Variant_0 Correct: 1603864 Incorrect: 0 Accuracy: 1
Variant_1 Correct: 5712712 Incorrect: 0 Accuracy: 1
Variant_2 Correct: 0 Incorrect: 0 Accuracy: -nan
Variant_3 Correct: 0 Incorrect: 0 Accuracy: -nan
