
*** ChampSim Multicore Out-of-Order Simulator ***

Warmup Instructions: 50000000
Simulation Instructions: 50000000
Number of CPUs: 1
LLC sets: 2048
LLC ways: 16
Off-chip DRAM Size: 4096 MB Channels: 1 Width: 64-bit Data Rate: 6400 MT/s
CPU 0 runs ./micro_traces/srv416.trace.gz
.gz
ITLB has LRU replacement policy
DTLB has LRU replacement policy
STLB has LRU replacement policy
FDIP Prefetcher at L1I
L1I has LRU replacement policy
L1D has LRU replacement policy
Initialize SRRIP state for L2C
Initialize DRRIP state for LLC
Heartbeat_Variant_0 : 1327 0.323975 per_variant_size: 0 1327 0 0 0 0 0 0 0 
Heartbeat_Variant_1 : 2528 0.617188 per_variant_size: 0 578 1950 0 0 0 0 0 0 
Heartbeat_Variant_2 : 0 0 per_variant_size: 0 0 0 0 0 0 0 0 0 
Heartbeat_Variant_3 : 0 0 per_variant_size: 0 0 0 0 0 0 0 0 0 
Heartbeat_Variant_0_evicts 0 : 5759 1 : 496 2 : 0 3 : 0 
Heartbeat_Variant_1_evicts 0 : 458 1 : 0 2 : 0 3 : 0 
Heartbeat_Variant_2_evicts 0 : 0 1 : 0 2 : 0 3 : 0 
Heartbeat_Variant_3_evicts 0 : 0 1 : 0 2 : 0 3 : 0 
Heartbeat CPU 0 instructions: 10000000 cycles: 2796772 heartbeat IPC: 3.57555 cumulative IPC: 3.57555 (Simulation time: 0 hr 1 min 40 sec) 
Heartbeat_Variant_0 : 1349 0.329346 per_variant_size: 0 1349 0 0 0 0 0 0 0 
Heartbeat_Variant_1 : 2577 0.62915 per_variant_size: 0 532 2045 0 0 0 0 0 0 
Heartbeat_Variant_2 : 0 0 per_variant_size: 0 0 0 0 0 0 0 0 0 
Heartbeat_Variant_3 : 0 0 per_variant_size: 0 0 0 0 0 0 0 0 0 
Heartbeat_Variant_0_evicts 0 : 5585 1 : 168 2 : 0 3 : 0 
Heartbeat_Variant_1_evicts 0 : 161 1 : 0 2 : 0 3 : 0 
Heartbeat_Variant_2_evicts 0 : 0 1 : 0 2 : 0 3 : 0 
Heartbeat_Variant_3_evicts 0 : 0 1 : 0 2 : 0 3 : 0 
Heartbeat CPU 0 instructions: 20000001 cycles: 5591990 heartbeat IPC: 3.57754 cumulative IPC: 3.57654 (Simulation time: 0 hr 3 min 15 sec) 
Heartbeat_Variant_0 : 1358 0.331543 per_variant_size: 0 1358 0 0 0 0 0 0 0 
Heartbeat_Variant_1 : 2609 0.636963 per_variant_size: 0 541 2068 0 0 0 0 0 0 
Heartbeat_Variant_2 : 0 0 per_variant_size: 0 0 0 0 0 0 0 0 0 
Heartbeat_Variant_3 : 0 0 per_variant_size: 0 0 0 0 0 0 0 0 0 
Heartbeat_Variant_0_evicts 0 : 5737 1 : 227 2 : 0 3 : 0 
Heartbeat_Variant_1_evicts 0 : 226 1 : 0 2 : 0 3 : 0 
Heartbeat_Variant_2_evicts 0 : 0 1 : 0 2 : 0 3 : 0 
Heartbeat_Variant_3_evicts 0 : 0 1 : 0 2 : 0 3 : 0 
Heartbeat CPU 0 instructions: 30000002 cycles: 8388617 heartbeat IPC: 3.57574 cumulative IPC: 3.57628 (Simulation time: 0 hr 4 min 54 sec) 
Heartbeat_Variant_0 : 1366 0.333496 per_variant_size: 0 1366 0 0 0 0 0 0 0 
Heartbeat_Variant_1 : 2615 0.638428 per_variant_size: 0 529 2086 0 0 0 0 0 0 
Heartbeat_Variant_2 : 0 0 per_variant_size: 0 0 0 0 0 0 0 0 0 
Heartbeat_Variant_3 : 0 0 per_variant_size: 0 0 0 0 0 0 0 0 0 
Heartbeat_Variant_0_evicts 0 : 5687 1 : 166 2 : 0 3 : 0 
Heartbeat_Variant_1_evicts 0 : 161 1 : 0 2 : 0 3 : 0 
Heartbeat_Variant_2_evicts 0 : 0 1 : 0 2 : 0 3 : 0 
Heartbeat_Variant_3_evicts 0 : 0 1 : 0 2 : 0 3 : 0 
Heartbeat CPU 0 instructions: 40000000 cycles: 11183604 heartbeat IPC: 3.57783 cumulative IPC: 3.57666 (Simulation time: 0 hr 6 min 33 sec) 
Heartbeat_Variant_0 : 1361 0.332275 per_variant_size: 0 1361 0 0 0 0 0 0 0 
Heartbeat_Variant_1 : 2625 0.640869 per_variant_size: 0 530 2095 0 0 0 0 0 0 
Heartbeat_Variant_2 : 0 0 per_variant_size: 0 0 0 0 0 0 0 0 0 
Heartbeat_Variant_3 : 0 0 per_variant_size: 0 0 0 0 0 0 0 0 0 
Heartbeat_Variant_0_evicts 0 : 5532 1 : 24 2 : 0 3 : 0 
Heartbeat_Variant_1_evicts 0 : 29 1 : 0 2 : 0 3 : 0 
Heartbeat_Variant_2_evicts 0 : 0 1 : 0 2 : 0 3 : 0 
Heartbeat_Variant_3_evicts 0 : 0 1 : 0 2 : 0 3 : 0 
Heartbeat CPU 0 instructions: 50000000 cycles: 13979433 heartbeat IPC: 3.57676 cumulative IPC: 3.57668 (Simulation time: 0 hr 8 min 10 sec) 

Warmup complete CPU 0 instructions: 50000004 cycles: 13979434 (Simulation time: 0 hr 8 min 10 sec) 

Cycle: 20000000 FTQ IN: 58315573 FTQ occupancy: 20.5245 DECODE IN: 58315543 DECODE occupancy: 53.3146 ROB IN: 58315488 ROB occupancy: 318.171 ROB OUT: 58315136
Heartbeat_Variant_0 : 1367 0.33374 per_variant_size: 0 1367 0 0 0 0 0 0 0 
Heartbeat_Variant_1 : 2634 0.643066 per_variant_size: 0 541 2093 0 0 0 0 0 0 
Heartbeat_Variant_2 : 0 0 per_variant_size: 0 0 0 0 0 0 0 0 0 
Heartbeat_Variant_3 : 0 0 per_variant_size: 0 0 0 0 0 0 0 0 0 
Heartbeat_Variant_0_evicts 0 : 5700 1 : 163 2 : 0 3 : 0 
Heartbeat_Variant_1_evicts 0 : 162 1 : 0 2 : 0 3 : 0 
Heartbeat_Variant_2_evicts 0 : 0 1 : 0 2 : 0 3 : 0 
Heartbeat_Variant_3_evicts 0 : 0 1 : 0 2 : 0 3 : 0 
Heartbeat CPU 0 instructions: 60000000 cycles: 21201736 heartbeat IPC: 1.3846 cumulative IPC: 1.3846 (Simulation time: 0 hr 10 min 6 sec) 
Heartbeat_Variant_0 : 1367 0.33374 per_variant_size: 0 1367 0 0 0 0 0 0 0 
Heartbeat_Variant_1 : 2634 0.643066 per_variant_size: 0 542 2092 0 0 0 0 0 0 
Heartbeat_Variant_2 : 0 0 per_variant_size: 0 0 0 0 0 0 0 0 0 
Heartbeat_Variant_3 : 0 0 per_variant_size: 0 0 0 0 0 0 0 0 0 
Heartbeat_Variant_0_evicts 0 : 5512 1 : 4 2 : 0 3 : 0 
Heartbeat_Variant_1_evicts 0 : 4 1 : 0 2 : 0 3 : 0 
Heartbeat_Variant_2_evicts 0 : 0 1 : 0 2 : 0 3 : 0 
Heartbeat_Variant_3_evicts 0 : 0 1 : 0 2 : 0 3 : 0 
Heartbeat CPU 0 instructions: 70000001 cycles: 28310819 heartbeat IPC: 1.40665 cumulative IPC: 1.39554 (Simulation time: 0 hr 11 min 59 sec) 
Cycle: 30000000 FTQ IN: 14073307 FTQ occupancy: 14.7884 DECODE IN: 14073229 DECODE occupancy: 38.1084 ROB IN: 14073224 ROB occupancy: 249.658 ROB OUT: 14073224
Heartbeat_Variant_0 : 1375 0.335693 per_variant_size: 0 1375 0 0 0 0 0 0 0 
Heartbeat_Variant_1 : 2630 0.64209 per_variant_size: 0 527 2103 0 0 0 0 0 0 
Heartbeat_Variant_2 : 0 0 per_variant_size: 0 0 0 0 0 0 0 0 0 
Heartbeat_Variant_3 : 0 0 per_variant_size: 0 0 0 0 0 0 0 0 0 
Heartbeat_Variant_0_evicts 0 : 5713 1 : 119 2 : 0 3 : 0 
Heartbeat_Variant_1_evicts 0 : 111 1 : 0 2 : 0 3 : 0 
Heartbeat_Variant_2_evicts 0 : 0 1 : 0 2 : 0 3 : 0 
Heartbeat_Variant_3_evicts 0 : 0 1 : 0 2 : 0 3 : 0 
Heartbeat CPU 0 instructions: 80000000 cycles: 35490586 heartbeat IPC: 1.3928 cumulative IPC: 1.39463 (Simulation time: 0 hr 13 min 56 sec) 
Cycle: 40000000 FTQ IN: 13961809 FTQ occupancy: 14.8632 DECODE IN: 13961872 DECODE occupancy: 37.9667 ROB IN: 13961872 ROB occupancy: 248.656 ROB OUT: 13961876
Heartbeat_Variant_0 : 1375 0.335693 per_variant_size: 0 1375 0 0 0 0 0 0 0 
Heartbeat_Variant_1 : 2631 0.642334 per_variant_size: 0 518 2113 0 0 0 0 0 0 
Heartbeat_Variant_2 : 0 0 per_variant_size: 0 0 0 0 0 0 0 0 0 
Heartbeat_Variant_3 : 0 0 per_variant_size: 0 0 0 0 0 0 0 0 0 
Heartbeat_Variant_0_evicts 0 : 5635 1 : 8 2 : 0 3 : 0 
Heartbeat_Variant_1_evicts 0 : 8 1 : 0 2 : 0 3 : 0 
Heartbeat_Variant_2_evicts 0 : 0 1 : 0 2 : 0 3 : 0 
Heartbeat_Variant_3_evicts 0 : 0 1 : 0 2 : 0 3 : 0 
Heartbeat CPU 0 instructions: 90000001 cycles: 42585137 heartbeat IPC: 1.40953 cumulative IPC: 1.39832 (Simulation time: 0 hr 15 min 54 sec) 
Heartbeat_Variant_0 : 1376 0.335938 per_variant_size: 0 1376 0 0 0 0 0 0 0 
Heartbeat_Variant_1 : 2637 0.643799 per_variant_size: 0 498 2139 0 0 0 0 0 0 
Heartbeat_Variant_2 : 0 0 per_variant_size: 0 0 0 0 0 0 0 0 0 
Heartbeat_Variant_3 : 0 0 per_variant_size: 0 0 0 0 0 0 0 0 0 
Heartbeat_Variant_0_evicts 0 : 5657 1 : 108 2 : 0 3 : 0 
Heartbeat_Variant_1_evicts 0 : 109 1 : 0 2 : 0 3 : 0 
Heartbeat_Variant_2_evicts 0 : 0 1 : 0 2 : 0 3 : 0 
Heartbeat_Variant_3_evicts 0 : 0 1 : 0 2 : 0 3 : 0 
Heartbeat CPU 0 instructions: 100000001 cycles: 49781577 heartbeat IPC: 1.38958 cumulative IPC: 1.39656 (Simulation time: 0 hr 17 min 53 sec) 
Finished CPU 0 instructions: 50000002 cycles: 35802155 cumulative IPC: 1.39656 (Simulation time: 0 hr 17 min 53 sec) 

ChampSim completed all CPUs

Region of Interest Statistics

CPU 0 cumulative IPC: 1.39656 instructions: 50000002 cycles: 35802155
 Fetch stage stalled: 45.8506  Sim cycles: 35802155 fetch stall cycle: 16415497
 Empty decode stage: 25.3675  Sim cycles: 35802155 fetch stall cycle: 9082113
ITLB TOTAL     ACCESS:    5828742  HIT:    5336323  MISS:     492419  HIT %:    91.5519  MISS %:    8.44812   MPKI: 9.84838
ITLB LOAD TRANSLATION INSTRUCTION	ACCESS:    5693524  HIT:    5201105  MISS:     492419  HIT %:    91.3512  MISS %:    8.64876  MPKI: 9.84838
ITLB TRANSLATION FROM L1D PREFETCHER INSTRUCTION	ACCESS:     135218  HIT:     135218  MISS:          0  HIT %:        100  MISS %:          0  MPKI: 0

ITLB AVERAGE MISS LATENCY: 9.06143 cycles
ITLB RQ	ACCESS:    7936281	FORWARD:          0	MERGED:    1624130	TO_CACHE:    6312151

DTLB TOTAL     ACCESS:    8957872  HIT:    8487428  MISS:     470444  HIT %:    94.7483  MISS %:    5.25174   MPKI: 9.40888
DTLB LOAD TRANSLATION DATA	ACCESS:    8957872  HIT:    8487428  MISS:     470444  HIT %:    94.7483  MISS %:    5.25174  MPKI: 9.40888

DTLB AVERAGE MISS LATENCY: 9.34301 cycles
DTLB RQ	ACCESS:   13325868	FORWARD:          0	MERGED:    4331427	TO_CACHE:    8994441

STLB TOTAL     ACCESS:    1212476  HIT:    1210282  MISS:       2194  HIT %:     99.819  MISS %:   0.180952   MPKI: 0.04388
STLB LOAD TRANSLATION INSTRUCTION	ACCESS:     492419  HIT:     492126  MISS:        293  HIT %:    99.9405  MISS %:  0.0595022  MPKI: 0.00586
STLB LOAD TRANSLATION DATA	ACCESS:     470441  HIT:     468568  MISS:       1873  HIT %:    99.6019  MISS %:   0.398137  MPKI: 0.03746
STLB TRANSLATION FROM L1D PREFETCHER DATA	ACCESS:     249616  HIT:     249588  MISS:         28  HIT %:    99.9888  MISS %:  0.0112172  MPKI: 0.00056

STLB AVERAGE MISS LATENCY: 72.8469 cycles
STLB RQ	ACCESS:    1333925	FORWARD:          0	MERGED:     121403	TO_CACHE:    1212522

STLB Hit, L1D data hit: 0
STLB Hit, L2C data hit: 0
STLB Hit, LLC data hit: 0
STLB Hit, LLC data miss: 0
STLB STLB hints to L2: 0
L1D TOTAL     ACCESS:   13071792  HIT:   11956275  MISS:    1115517  HIT %:    91.4662  MISS %:    8.53377   MPKI: 22.3103
L1D LOAD DATA	ACCESS:    6543728  HIT:    5810017  MISS:     733711  HIT %:    88.7876  MISS %:    11.2124  MPKI: 14.6742
L1D RFO DATA	ACCESS:    6198418  HIT:    5911793  MISS:     286625  HIT %:    95.3758  MISS %:    4.62416  MPKI: 5.7325
L1D PREFETCH DATA	ACCESS:     329646  HIT:     234465  MISS:      95181  HIT %:    71.1263  MISS %:    28.8737  MPKI: 1.90362

L1D PREFETCH  REQUESTED:     742515  ISSUED:     742515  USEFUL:      34702  USELESS:      68758
L1D USEFUL LOAD PREFETCHES:      34702 PREFETCH ISSUED TO LOWER LEVEL:     103537  ACCURACY: 33.5165
 TIMELY PREFETCHES:      34702 LATE PREFETCHES: 8284 DROPPED PREFETCHES: 6
L1D AVERAGE MISS LATENCY: 241652 cycles
L1D RQ	ACCESS:   10695656	FORWARD:          0	MERGED:    3952328	TO_CACHE:    6578828
L1D WQ	ACCESS:    6943242	FORWARD:     164891	MERGED:     196202	TO_CACHE:    6747040
L1D PQ	ACCESS:     371453	FORWARD:          0	MERGED:          0	TO_CACHE:     371062

L1D UNIQUE REGIONS ACCESSED: 0
L1D REGIONS CONFLICTS: 0
L1D Cross Page Prefetch Requests: 6951
L1D Same Page Prefetch Requests: 750427
L1D ROI Sum of L1D PQ occupancy: 4712788
L1D PREFETCHES PUSHED FROM L2C: 0
L1I TOTAL     ACCESS:    7172478  HIT:    4676690  MISS:    2495788  HIT %:    65.2033  MISS %:    34.7967   MPKI: 49.9158
L1I LOAD INSTRUCTION	ACCESS:    6461175  HIT:    3965387  MISS:    2495788  HIT %:    61.3725  MISS %:    38.6275  MPKI: 49.9158
L1I PREFETCH INSTRUCTION	ACCESS:     711303  HIT:     711303  MISS:          0  HIT %:        100  MISS %:          0  MPKI: 0

L1I PREFETCH  REQUESTED:    1615128  ISSUED:    1615128  USEFUL:          0  USELESS:          0
L1I USEFUL LOAD PREFETCHES:          0 PREFETCH ISSUED TO LOWER LEVEL:          0  ACCURACY: -nan
 TIMELY PREFETCHES:          0 LATE PREFETCHES: 0 DROPPED PREFETCHES: 0
L1I AVERAGE MISS LATENCY: 17.8486 cycles
L1I RQ	ACCESS:    9570345	FORWARD:          0	MERGED:    2822944	TO_CACHE:    6747401
L1I PQ	ACCESS:    1615128	FORWARD:          0	MERGED:     426248	TO_CACHE:    1188880

L1BTB TOTAL     ACCESS:    5669087  HIT:    2049257  MISS:    3619830  HIT %:    36.1479  MISS %:    63.8521   MPKI: 72.3966
L1BTB BRANCH_DIRECT_JUMP	ACCESS:     548261 HIT:     145297 MISS:     402964 AVERAGE STALL: 52.0661 AVERAGE FETCH STALL: 14.0931 AVERAGE FETCH QUEUE STALL: 16.965 AVERAGE DECODE STALL: 20.074 AVERAGE EXECUTE STALL: 2.34632e+15
L1BTB BRANCH_INDIRECT	ACCESS:     182870 HIT:      66075 MISS:     116795 AVERAGE STALL: 116.494 AVERAGE FETCH STALL: 10.9451 AVERAGE FETCH QUEUE STALL: 20.7477 AVERAGE DECODE STALL: 14.5106 AVERAGE EXECUTE STALL: 69.3284
L1BTB BRANCH_CONDITIONAL	ACCESS:    2708678 HIT:    1418788 MISS:    1289890 AVERAGE STALL: 63.6133 AVERAGE FETCH STALL: 18.8303 AVERAGE FETCH QUEUE STALL: 25.0114 AVERAGE DECODE STALL: 19.0269 AVERAGE EXECUTE STALL: 3.13934e+15
L1BTB BRANCH_DIRECT_CALL	ACCESS:     942826 HIT:     106418 MISS:     836408 AVERAGE STALL: 74.8093 AVERAGE FETCH STALL: 31.0392 AVERAGE FETCH QUEUE STALL: 24.4387 AVERAGE DECODE STALL: 18.6454 AVERAGE EXECUTE STALL: 1.33769e+16
L1BTB BRANCH_INDIRECT_CALL	ACCESS:     171813 HIT:      21723 MISS:     150090 AVERAGE STALL: 141.495 AVERAGE FETCH STALL: 12.167 AVERAGE FETCH QUEUE STALL: 17.6085 AVERAGE DECODE STALL: 12.2467 AVERAGE EXECUTE STALL: 98.9846
L1BTB BRANCH_RETURN	ACCESS:    1114639 HIT:     290956 MISS:     823683 AVERAGE STALL: 49.7547 AVERAGE FETCH STALL: 16.1818 AVERAGE FETCH QUEUE STALL: 5.86024 AVERAGE DECODE STALL: 6.67597 AVERAGE EXECUTE STALL: 4.25285e+14
L1BTB BRANCH_OTHER ACCESS:          0 HIT:          0 MISS:          0 AVERAGE STALL: -nan AVERAGE FETCH STALL: -nan AVERAGE FETCH QUEUE STALL: -nan AVERAGE DECODE STALL: -nan AVERAGE EXECUTE STALL: -nan
L1BTB TOTAL ROB OCCUPANCY AT BTB MISS: 2.81126

L2BTB TOTAL     ACCESS:    3594443  HIT:    3528558  MISS:      65885  HIT %:     98.167  MISS %:    1.83297   MPKI: 1.3177
L2BTB BRANCH_DIRECT_JUMP	ACCESS:     398774 HIT:     395098 MISS:       3676 AVERAGE STALL: 52.0661 AVERAGE FETCH STALL: 14.0931 AVERAGE FETCH QUEUE STALL: 16.965 AVERAGE DECODE STALL: 20.074 AVERAGE EXECUTE STALL: 2.34632e+15
L2BTB BRANCH_INDIRECT	ACCESS:     106557 HIT:     103872 MISS:       2685 AVERAGE STALL: 116.494 AVERAGE FETCH STALL: 10.9451 AVERAGE FETCH QUEUE STALL: 20.7477 AVERAGE DECODE STALL: 14.5106 AVERAGE EXECUTE STALL: 69.3284
L2BTB BRANCH_CONDITIONAL	ACCESS:    1289890 HIT:    1283933 MISS:       5957 AVERAGE STALL: 63.6133 AVERAGE FETCH STALL: 18.8303 AVERAGE FETCH QUEUE STALL: 25.0114 AVERAGE DECODE STALL: 19.0269 AVERAGE EXECUTE STALL: 3.13934e+15
L2BTB BRANCH_DIRECT_CALL	ACCESS:     836408 HIT:     835023 MISS:       1385 AVERAGE STALL: 74.8093 AVERAGE FETCH STALL: 31.0392 AVERAGE FETCH QUEUE STALL: 24.4387 AVERAGE DECODE STALL: 18.6454 AVERAGE EXECUTE STALL: 1.33769e+16
L2BTB BRANCH_INDIRECT_CALL	ACCESS:     140532 HIT:     130339 MISS:      10193 AVERAGE STALL: 141.495 AVERAGE FETCH STALL: 12.167 AVERAGE FETCH QUEUE STALL: 17.6085 AVERAGE DECODE STALL: 12.2467 AVERAGE EXECUTE STALL: 98.9846
L2BTB BRANCH_RETURN	ACCESS:     822282 HIT:     780293 MISS:      41989 AVERAGE STALL: 49.7547 AVERAGE FETCH STALL: 16.1818 AVERAGE FETCH QUEUE STALL: 5.86024 AVERAGE DECODE STALL: 6.67597 AVERAGE EXECUTE STALL: 4.25285e+14
L2BTB BRANCH_OTHER ACCESS:          0 HIT:          0 MISS:          0 AVERAGE STALL: -nan AVERAGE FETCH STALL: -nan AVERAGE FETCH QUEUE STALL: -nan AVERAGE DECODE STALL: -nan AVERAGE EXECUTE STALL: -nan
L2BTB TOTAL ROB OCCUPANCY AT BTB MISS: 154.455

L2C TOTAL     ACCESS:    4217218  HIT:    3721896  MISS:     495322  HIT %:    88.2548  MISS %:    11.7452   MPKI: 9.90644
L2C LOAD INSTRUCTION	ACCESS:    2495788  HIT:    2212795  MISS:     282993  HIT %:    88.6612  MISS %:    11.3388  MPKI: 5.65986
L2C LOAD TRANSLATION INSTRUCTION	ACCESS:        330  HIT:         72  MISS:        258  HIT %:    21.8182  MISS %:    78.1818  MPKI: 0.00516
L2C LOAD DATA	ACCESS:     725407  HIT:     656340  MISS:      69067  HIT %:    90.4789  MISS %:    9.52114  MPKI: 1.38134
L2C RFO DATA	ACCESS:     286530  HIT:     231023  MISS:      55507  HIT %:    80.6279  MISS %:    19.3721  MPKI: 1.11014
L2C PREFETCH DATA	ACCESS:     186035  HIT:     115658  MISS:      70377  HIT %:      62.17  MISS %:      37.83  MPKI: 1.40754
L2C WRITEBACK DATA	ACCESS:     521141  HIT:     505501  MISS:      15640  HIT %:    96.9989  MISS %:    3.00111  MPKI: 0.3128
L2C LOAD TRANSLATION DATA	ACCESS:       1931  HIT:        469  MISS:       1462  HIT %:    24.2879  MISS %:    75.7121  MPKI: 0.02924
L2C TRANSLATION FROM L1D PREFETCHER DATA	ACCESS:         56  HIT:         38  MISS:         18  HIT %:    67.8571  MISS %:    32.1429  MPKI: 0.00036

L2C PREFETCH  REQUESTED:      89963  ISSUED:      89963  USEFUL:       7739  USELESS:      63292
L2C USEFUL LOAD PREFETCHES:       7739 PREFETCH ISSUED TO LOWER LEVEL:      70762  ACCURACY: 10.9367
 TIMELY PREFETCHES:       7739 LATE PREFETCHES: 385 DROPPED PREFETCHES: 0
L2C AVERAGE MISS LATENCY: 38.85 cycles
L2C RQ	ACCESS:    3510086	FORWARD:          0	MERGED:          0	TO_CACHE:    3510043
L2C WQ	ACCESS:     521141	FORWARD:         43	MERGED:          0	TO_CACHE:     521141
L2C PQ	ACCESS:     193500	FORWARD:          0	MERGED:       3163	TO_CACHE:     190337

L2C Dense regions hint from L2: 0
PSCL5 TOTAL     ACCESS:       4408  HIT:       2204  MISS:       2204  HIT %:         50  MISS %:         50   MPKI: 0.04408
PSCL5 LOAD TRANSLATION INSTRUCTION	ACCESS:       4298  HIT:       2149  MISS:       2149  HIT %:         50  MISS %:         50  MPKI: 0.04298
PSCL5 TRANSLATION FROM L1D PREFETCHER INSTRUCTION	ACCESS:        110  HIT:         55  MISS:         55  HIT %:         50  MISS %:         50  MPKI: 0.0011


PSCL4 TOTAL     ACCESS:       4289  HIT:       2141  MISS:       2148  HIT %:    49.9184  MISS %:    50.0816   MPKI: 0.04296
PSCL4 LOAD TRANSLATION INSTRUCTION	ACCESS:       3840  HIT:       2093  MISS:       1747  HIT %:    54.5052  MISS %:    45.4948  MPKI: 0.03494
PSCL4 TRANSLATION FROM L1D PREFETCHER INSTRUCTION	ACCESS:         96  HIT:         48  MISS:         48  HIT %:         50  MISS %:         50  MPKI: 0.00096
PSCL4 LOAD TRANSLATION DATA	ACCESS:        353  HIT:          0  MISS:        353  HIT %:          0  MISS %:        100  MPKI: 0.00706


PSCL3 TOTAL     ACCESS:       4299  HIT:       2146  MISS:       2153  HIT %:    49.9186  MISS %:    50.0814   MPKI: 0.04306
PSCL3 LOAD TRANSLATION INSTRUCTION	ACCESS:       3845  HIT:       2098  MISS:       1747  HIT %:    54.5644  MISS %:    45.4356  MPKI: 0.03494
PSCL3 TRANSLATION FROM L1D PREFETCHER INSTRUCTION	ACCESS:         96  HIT:         48  MISS:         48  HIT %:         50  MISS %:         50  MPKI: 0.00096
PSCL3 LOAD TRANSLATION DATA	ACCESS:        358  HIT:          0  MISS:        358  HIT %:          0  MISS %:        100  MPKI: 0.00716


PSCL2 TOTAL     ACCESS:       4309  HIT:       2105  MISS:       2204  HIT %:    48.8512  MISS %:    51.1488   MPKI: 0.04408
PSCL2 LOAD TRANSLATION INSTRUCTION	ACCESS:       2344  HIT:       2051  MISS:        293  HIT %:       87.5  MISS %:       12.5  MPKI: 0.00586
PSCL2 TRANSLATION FROM L1D PREFETCHER INSTRUCTION	ACCESS:         54  HIT:         54  MISS:          0  HIT %:        100  MISS %:          0  MPKI: 0
PSCL2 LOAD TRANSLATION DATA	ACCESS:       1857  HIT:          0  MISS:       1857  HIT %:          0  MISS %:        100  MPKI: 0.03714
PSCL2 TRANSLATION FROM L1D PREFETCHER DATA	ACCESS:         54  HIT:          0  MISS:         54  HIT %:          0  MISS %:        100  MPKI: 0.00108


LLC TOTAL     ACCESS:     555178  HIT:     524841  MISS:      30337  HIT %:    94.5356  MISS %:    5.46437   MPKI: 0.60674
LLC LOAD INSTRUCTION	ACCESS:     282993  HIT:     282010  MISS:        983  HIT %:    99.6526  MISS %:   0.347358  MPKI: 0.01966
LLC LOAD TRANSLATION INSTRUCTION	ACCESS:        258  HIT:        215  MISS:         43  HIT %:    83.3333  MISS %:    16.6667  MPKI: 0.00086
LLC LOAD DATA	ACCESS:      68699  HIT:      65198  MISS:       3501  HIT %:    94.9039  MISS %:    5.09614  MPKI: 0.07002
LLC RFO DATA	ACCESS:      55487  HIT:      39968  MISS:      15519  HIT %:    72.0313  MISS %:    27.9687  MPKI: 0.31038
LLC PREFETCH DATA	ACCESS:      70762  HIT:      60966  MISS:       9796  HIT %:    86.1564  MISS %:    13.8436  MPKI: 0.19592
LLC WRITEBACK DATA	ACCESS:      75499  HIT:      75081  MISS:        418  HIT %:    99.4464  MISS %:    0.55365  MPKI: 0.00836
LLC LOAD TRANSLATION DATA	ACCESS:       1462  HIT:       1385  MISS:         77  HIT %:    94.7332  MISS %:    5.26676  MPKI: 0.00154
LLC TRANSLATION FROM L1D PREFETCHER DATA	ACCESS:         18  HIT:         18  MISS:          0  HIT %:        100  MISS %:          0  MPKI: 0

LLC AVERAGE MISS LATENCY: 158.61 cycles
LLC RQ	ACCESS:     408921	FORWARD:          0	MERGED:          0	TO_CACHE:     408918
LLC WQ	ACCESS:      75499	FORWARD:          3	MERGED:          0	TO_CACHE:      75499
LLC PQ	ACCESS:      70762	FORWARD:          0	MERGED:          0	TO_CACHE:      70762

LLC Dense regions hint to LLC: 0

RAW hits: 1942251
Loads Generated: 12637907
Loads sent to L1D: 10695656
Stores Generated: 6943219
Stores sent to L1D: 6943242
Major fault: 0 Minor fault: 2534
Allocated PAGES: 2534

stream: 
stream:times selected: 1186272
stream:pref_filled: 123309
stream:pref_useful: 24258
stream:pref_late: 6693
stream:misses: 7940
stream:misses_by_poll: 0

CS: 
CS:times selected: 178825
CS:pref_filled: 59820
CS:pref_useful: 36460
CS:pref_late: 7222
CS:misses: 16671
CS:misses_by_poll: 5

CPLX: 
CPLX:times selected: 1006304
CPLX:pref_filled: 19518
CPLX:pref_useful: 4598
CPLX:pref_late: 3074
CPLX:misses: 92884
CPLX:misses_by_poll: 4

NL_L1: 
NL:times selected: 20476
NL:pref_filled: 834
NL:pref_useful: 367
NL:pref_late: 273
NL:misses: 1874
NL:misses_by_poll: 0

total selections: 2391877
total_filled: 95181
total_useful: 34702
total_late: 18623
total_polluted: 9
total_misses_after_warmup: 768816
conflicts: 5514369

test: 117938

DRAM Statistics
 CHANNEL 0
 RQ ROW_BUFFER_HIT:      11244  ROW_BUFFER_MISS:      18668
 DBUS_CONGESTED:         13
 WQ ROW_BUFFER_HIT:       1477  ROW_BUFFER_MISS:      12976  FULL:          0

 AVG_CONGESTED_CYCLE: 6

CPU 0 Branch Prediction Accuracy: 99.8237% MPKI: 0.32234 Average ROB Occupancy at Mispredict: 199.367
Branch types
NOT_BRANCH: 40859280 81.7186%
BRANCH_DIRECT_JUMP: 548261 1.09652%
BRANCH_INDIRECT: 182870 0.36574%
BRANCH_CONDITIONAL: 6180328 12.3607%
BRANCH_DIRECT_CALL: 942826 1.88565%
BRANCH_INDIRECT_CALL: 171813 0.343626%
BRANCH_RETURN: 1114639 2.22928%
BRANCH_OTHER: 0 0%

DRAM PAGES: 1048576
Allocated PAGES: 2534
Average_ROB_Occupancy: 249.943
Average_Decode_Occupancy: 37.9839
Average_FTQ_Occupancy: 14.844
Indirect max targets: 14 Average targets: 1.14626
Branch_type:  BRANCH_DIRECT_JUMP:  Count Percentage: 3.40022 6.12982 3.95465 15.1367 1.69431 5.38617 1.23445 63.0636 
Branch_type:  BRANCH_INDIRECT:  Count Percentage: 11.76 3.43969 12.2184 23.3731 1.33805 14.5418 1.07039 32.2586 
Branch_type:  BRANCH_CONDITIONAL:  Count Percentage: 21.8525 2.57708 2.37349 9.19548 1.06895 3.96091 0.849671 58.1219 
Branch_type:  BRANCH_DIRECT_CALL:  Count Percentage: 0.757869 1.29175 1.43331 5.40376 1.99213 2.66615 0.930872 85.5242 
Branch_type:  BRANCH_INDIRECT_CALL:  Count Percentage: 9.51574 0.567475 2.9815 4.82833 0 3.83576 0 78.2712 
Branch_type:  BRANCH_RETURN:  Count Percentage: 4.43764 0.696132 3.5222 9.44468 2.12278 4.90247 1.22802 73.6461 
Branch_type:  BRANCH_DIRECT_JUMP:  Total Count: 37251 67155 43325 165830 18562 59008 13524 690891 
Branch_type:  BRANCH_INDIRECT:  Total Count: 42969 12568 44644 85401 4889 53133 3911 117867 
Branch_type:  BRANCH_CONDITIONAL:  Total Count: 2699730 318380 293228 1136038 132062 489343 104971 7180558 
Branch_type:  BRANCH_DIRECT_CALL:  Total Count: 14316 24401 27075 102076 37631 50363 17584 1615535 
Branch_type:  BRANCH_INDIRECT_CALL:  Total Count: 32749 1953 10261 16617 0 13201 0 269375 
Branch_type:  BRANCH_RETURN:  Total Count: 99133 15551 78683 210986 47421 109517 27433 1645190 
Number of unique branch instructions: 9791
Upper 32 bits: 
aaaa
ffff
ffff0000
Unique upper 32 bits: 3
Unique upper 36 bits: 3
Unique upper 40 bits: 5
Unique upper 44 bits: 32
Unique upper 48 bits: 154
Variant_0 : 1376 0.335938
Variant_1 : 2637 0.643799
Variant_2 : 0 0
Variant_3 : 0 0
Offset_3 4035
Offset_4 246
Offset_5 451
Offset_6 502
Offset_7 578
Offset_8 498
Offset_9 459
Offset_10 377
Offset_11 305
Offset_12 269
Offset_13 199
Offset_14 225
Offset_15 186
Offset_16 220
Offset_17 141
Offset_18 118
Offset_19 234
Offset_20 137
Offset_21 235
Offset_22 392
Offset_23 241
Offset_24 326
Offset_25 88
Offset_47 80
Offset_64 2
decode_dispatch_called: 26174690 73.1093
Dispatch_width: 0 14105001 53.8879 39.3971
Dispatch_width: 1 1008292 3.85216 2.81629
Dispatch_width: 2 837944 3.20135 2.34048
Dispatch_width: 3 488263 1.8654 1.36378
Dispatch_width: 4 6226005 23.7864 17.39
Dispatch_width: 5 108097 0.412983 0.301929
Dispatch_width: 6 3401088 12.9938 9.49967
Empty_decode_cycles: 9627465 26.8907
ROB_full_cycles: 9907620 27.6733
Starvation_cycles_per_kilo_instr: 224.934
Starvation_cycles_per_kilo_instr_3: 161.593
Starvation_cycles_per_kilo_instr_0: 138.248
Branch_type_1  (3,1)  (4,9)  (5,37)  (6,69)  (7,114)  (8,127)  (9,121)  (10,97)  (11,69)  (12,43)  (13,5)  (14,2)  (15,3)  (16,4)  (18,1)  (19,4)  (20,2)  (21,1)  (22,3)  (23,2)  (24,10)  (25,12) 
Branch_type_2  (3,1)  (5,1)  (8,3)  (9,3)  (12,1)  (13,1)  (14,1)  (16,3)  (17,2)  (20,2)  (21,2)  (23,5)  (24,1)  (47,36) 
Branch_type_3  (3,4033)  (4,237)  (5,409)  (6,418)  (7,435)  (8,308)  (9,252)  (10,153)  (11,123)  (12,50)  (13,4) 
Branch_type_4  (6,3)  (7,8)  (8,24)  (9,52)  (10,60)  (11,57)  (12,96)  (13,86)  (14,99)  (15,88)  (16,98)  (17,63)  (18,53)  (19,114)  (20,72)  (21,124)  (22,207)  (23,136)  (24,186)  (25,72)  (64,1) 
Branch_type_5  (8,2)  (9,1)  (10,3)  (11,5)  (12,3)  (13,14)  (14,16)  (15,11)  (16,20)  (17,11)  (18,16)  (19,12)  (20,10)  (21,13)  (22,42)  (23,26)  (24,37) 
Branch_type_6  (5,4)  (6,12)  (7,21)  (8,34)  (9,30)  (10,64)  (11,51)  (12,76)  (13,89)  (14,107)  (15,84)  (16,95)  (17,65)  (18,48)  (19,104)  (20,51)  (21,95)  (22,140)  (23,72)  (24,92)  (25,4)  (47,44)  (64,1) 
Unique trigger count: 
Variant_0_evicts_0 : 0
Variant_0_evicts_1 : 0
Variant_0_evicts_2 : 0
Variant_0_evicts_3 : 0
Variant_1_evicts_0 : 0
Variant_1_evicts_1 : 0
Variant_1_evicts_2 : 0
Variant_1_evicts_3 : 0
Variant_2_evicts_0 : 0
Variant_2_evicts_1 : 0
Variant_2_evicts_2 : 0
Variant_2_evicts_3 : 0
Variant_3_evicts_0 : 0
Variant_3_evicts_1 : 0
Variant_3_evicts_2 : 0
Variant_3_evicts_3 : 0
BTB PER SET UNIQUE ADDR: 7 13 10 11 10 10 9 7 9 10 12 13 10 7 10 8 9 8 13 8 8 12 10 14 9 12 9 12 12 9 9 12 11 8 5 12 11 14 6 10 10 7 7 11 10 10 8 7 5 8 12 10 11 11 7 4 9 8 9 12 9 12 10 11 5 11 10 9 11 7 12 10 15 9 9 6 7 10 7 13 11 6 8 9 11 9 12 11 7 7 8 7 14 9 8 10 7 11 20 13 16 7 8 10 9 8 9 8 7 11 12 8 10 7 5 6 9 8 8 9 9 8 10 8 12 8 6 12 15 12 6 15 8 15 11 7 9 12 9 11 6 9 9 9 8 8 13 9 7 9 9 9 9 9 11 12 11 12 12 10 9 12 13 11 9 10 11 11 13 9 9 8 10 10 10 7 11 9 11 8 7 9 10 9 9 15 5 9 10 9 8 8 10 10 14 8 7 15 8 7 10 8 9 10 7 10 11 10 11 10 8 12 6 9 6 8 13 12 10 12 8 12 8 9 9 10 12 13 7 11 7 9 8 9 6 9 18 12 8 7 11 11 12 10 10 9 7 7 13 13 10 16 15 7 10 12 9 4 8 9 8 7 6 15 10 8 9 11 9 8 9 9 9 7 8 7 10 12 7 13 9 13 7 9 8 8 9 9 13 12 14 7 11 7 7 11 10 10 11 13 7 14 7 10 8 12 11 10 8 7 11 12 9 12 11 3 13 12 10 13 7 10 10 9 12 10 8 8 9 7 9 14 6 9 10 10 5 7 8 13 8 11 7 9 9 10 9 9 9 13 11 9 10 11 11 12 10 8 9 10 9 11 10 13 7 10 5 7 12 11 10 9 10 7 9 13 11 11 11 8 13 8 7 11 10 12 11 11 10 9 10 9 8 12 6 8 7 6 12 6 9 11 11 12 13 7 15 10 8 11 16 5 8 12 9 8 9 6 15 14 11 10 13 8 15 9 13 9 8 8 9 8 11 10 11 10 10 9 8 7 11 8 7 10 12 8 10 8 13 10 5 15 11 9 14 14 12 11 8 13 11 9 10 13 10 6 10 12 5 11 9 13 12 10 13 15 7 12 10 6 11 12 12 12 9 10 8 13 14 10 8 11 7 8 10 8 13 13 11 9 8 11 8 11 9 8 8 9 10 10 10 13 13 8 14 12 8 12 6 7 8 5 10 7 9 9 13 7 10 10 15 9 12 8 10 12 9 11 7 14 10 9 10 12 12 16 8 10 9 4 11 9 11 10 7 11 12 7 18 7 8 11 10 10 7 14 9 9 9 10 11 7 8 10 10 13 9 14 7 9 13 10 6 13 14 9 10 10 9 7 11 11 10 8 10 10 9 10 8 10 12 7 10 6 6 10 9 7 10 11 11 17 8 7 4 11 8 11 10 11 17 7 6 10 11 13 11 13 8 13 10 10 9 15 7 12 8 11 12 8 11 10 11 6 8 9 10 10 16 7 8 10 9 6 15 12 8 11 10 9 12 6 12 13 8 12 8 9 8 10 10 11 9 8 10 9 12 12 12 10 9 11 11 12 12 10 10 6 9 9 11 10 9 6 9 9 9 12 7 12 8 10 8 12 7 16 9 7 7 9 11 14 8 9 10 8 17 15 9 11 8 7 10 8 9 10 10 11 7 8 12 8 12 10 10 12 10 9 9 9 9 10 10 13 14 10 9 10 6 9 12 10 9 10 8 10 13 11 6 8 11 6 9 13 11 9 8 12 10 12 11 8 8 8 7 8 10 9 7 10 6 11 8 7 9 9 9 11 8 6 7 6 10 10 12 11 9 11 12 10 13 10 12 17 10 9 12 10 13 8 8 18 13 9 9 13 13 12 6 10 10 14 6 12 11 10 4 9 8 15 10 14 12 8 9 9 13 9 9 10 10 13 11 13 11 17 12 10 7 9 13 8 7 9 10 12 10 11 8 10 12 7 9 8 9 5 11 8 9 5 7 14 14 6 11 6 8 14 8 9 13 9 11 11 9 12 9 9 10 11 16 7 12 10 7 9 13 12 7 8 9 9 14 13 4 12 10 9 10 9 10 11 9 9 15 8 10 8 6 13 13 7 10 7 8 8 5 9 9 9 11 10 10 9 10 12 9 14 8 11 6 15 8 8 7 8 11 12 9 11 8 11 7 10 8 10 8 11 12 10 10 8 13 9 12 9 12 12 8 11 10 13 11 9 11 9 14 11 14 13 11 13 12 8 7 16 16 7 13 9 13 11 7 11 7 9 10 10 11 8 13 14 8 10 9 14 6 12 8 11 13 7 9 8 6 6 4 9 7 10 9 12 7 8 
BTB PER SET COUNT: 983 15 1657 13 12 10 1471 7 841 15 23 1392 3384 9 10 9 135 9 21 12 12 221 498 119 18 14 11 14 246 9 404 20 13 9 5 19 11 16 6 1966 11 9 7 20 13 112 11 7 5 11 16 595 21 14 7 364 19 8 13 15 11 2168 17 11 6 12 10 648 13 11 1479 103 19 9 12 12 7 48 7 19 15 6 11 9 15 10 17 13 1474 32 10 802 383 404 10 12 1474 22 24 201 33 7 11 497 1466 9 14 8 13 139 15 10 137 7 5 991 9 14 1473 10 12 8 16 11 14 70 6 956 26 991 9 1185 9 18 17 9 986 14 14 13 7 10 14 9 8 8 967 9 12 14 11 278 998 11 14 19 14 15 13 10 11 18 16 11 1476 1620 13 13 15 1838 11 8 10 13 12 8 15 14 990 8 66 244 991 10 9 639 5 12 15 480 9 8 13 10 21 11 10 1001 8 7 15 11 988 14 7 12 16 13 160 1478 8 17 6 14358 9 9 19 22 1511 12 8 16 572 9 14 16 18 264 668 11 10 9 11 14 7 14 264 24 9 11 1214 15 22 340 13 15 7 8 15 18 13 20 19 11 13 26 86 6 8 10 8 8 8 34 11 12 10 17 2345 9 10 10 497 8 239 8 11 15 7 14 16 16 12 139 12 10 10 9 13 15 17 7 12 854 7 12 15 11 14 97 8 18 7 11 9 166 15 13 11 22 81 16 12 14 1525 978 13 14 15 19 8 2949 15 16 217 12 11 14 12 7 11 23 12 12 17 13 8 9 13 24 9 48 7 12 13 11 13 14 10 84 17 387 13 16 12 13 10 8 106 16 10 11 17 20 7 1474 5 8 15 20 13 371 10 7 984 16 13 15 160 9 147 11 9 11 15 23 1000 14 10 10 14 9 10 1306 6 747 7 7 691 1662 14 16 14 17 19 7 22 499 8 14 249 5 8 12 10 12 14 17414 17 19 15 16 20 8 24 11 24 15 20 8 9 10 19 13 17 19 98 25 9 7 19 10 8 15 657 8 793 10 19 13 5 2919 14 9 24 298 18 12 9 14 11 9 17 25 11 139 329 12 5 17 10 18 13 12 15 22 7 15 11 9 12 15 12 13 12 14 9 21 21 16 10 17 10 10 14 9 1639 15 11 11 13 13 8 15 10 8 10 11 17 10 525 29 424 640 18 17 25 13 10 7 9 5 16 238 9 10 16 1480 13 2948 27 12 17 10 11 14 15 39 9 16 14 9 35 17 24 694 9 13 12 4 16 10 851 18 10 18 14 17 26 10 10 12 12 12 8 23 16 11 16 10 535 8 9 11 12 16 49 17 7 11 16 15 10 1561 14 11 13 10 14 13 14 332 12 8 17 12 2178 854 9 12 16 7 14 6 6 10 11 9 14 14 13 25 10 8 4 13 8 13 14 24 23 9 6 12 12 19 11 14 1095 991 25 13 9 17 7 20 12 990 16 9 13 15 12 983 2091 11 184 14 31 9 9 11 11 10 1292 13 12 20 12 162 19 6 13 21 9 17 9 1522 1478 13 12 13 996 8 62 10 22 15 19 15 10 16 991 31 36 11 11 7 10 12 14 11 10 7 2248 10 10 138 7 19 11 20 9 19 12 23 10 11 9 9 143 16 989 13 497 110 29 28 14 17 10 538 17 15 10 17 18 18 985 8 382 8 15 117 15 15 501 15 226 14 9 12 989 18 189 10 20 12 6 9 12 13 10 14 8 12 15 15 6 10 11 6 15 37 16 11 8 13 19 375 14 9 8 11 8 11 12 883 7 11 1470 14 259 7 11 192 12 11 9 7 16 846 11 13 1101 14 10 16 15 1105 179 13 15 25 126 12 14 12 17 15 9 2203 17 18 12 719 230 14 8 19 14 963 6 23 13 14 4 9 9 23 13 20 16 9 528 9 14 12 12 119 12 56 17 24 853 26 18 13 7 14 1056 9 10 11 12 14 11 13 8 12 985 11 11 8 988 7 20 13 11 5 11 33 18 10 12 7 11 20 8 9 20 12 74 13 10 28 10 12 14 347 24 1222 14 5967 7 12 15 13 8 11 13 11 33 352 4 15 11 14 128 11 26 14 12 10 26 12 55 9 7 18 17 7 10 7 8 11 7 11 9 9 20 11 12 17 12 42 9 18 9 12 6 517 9 10 7 983 19 12 9 11 9 991 984 370 9 10 11 18 79 17 14 13 19 10 23 9 1479 18 8 11 14 14 16 11 484 11 21 16 505 15 864 1411 261 989 7 301 1275 7 13 10 15 1167 8 32 1473 10 13 1482 12 8 18 19 10 16 9 17 6 15 12 839 512 9 10 10 7 6 5 11 8 11 11 355 7 8 
To predecode: 0
Predecoding something: 0
Predecode request dropped: 0
sizeofblock_0 0
sizeofblock_1 56361
sizeofblock_2 80286
sizeofblock_3 0
sizeofblock_4 0
sizeofblock_5 0
sizeofblock_6 0
sizeofblock_7 0
sizeofblock_8 0
Variant_0 Correct: 1612814 Incorrect: 0 Accuracy: 1
Variant_1 Correct: 5730793 Incorrect: 0 Accuracy: 1
Variant_2 Correct: 0 Incorrect: 0 Accuracy: -nan
Variant_3 Correct: 0 Incorrect: 0 Accuracy: -nan
