
*** ChampSim Multicore Out-of-Order Simulator ***

Warmup Instructions: 50000000
Simulation Instructions: 50000000
Number of CPUs: 1
LLC sets: 2048
LLC ways: 16
Off-chip DRAM Size: 4096 MB Channels: 1 Width: 64-bit Data Rate: 6400 MT/s
CPU 0 runs ./micro_traces/srv421.trace.gz
.gz
ITLB has LRU replacement policy
DTLB has LRU replacement policy
STLB has LRU replacement policy
FDIP Prefetcher at L1I
L1I has LRU replacement policy
L1D has LRU replacement policy
Initialize SRRIP state for L2C
Initialize DRRIP state for LLC
Heartbeat_Variant_0 : 993 0.323242 per_variant_size: 0 993 0 0 0 0 0 0 0 
Heartbeat_Variant_1 : 2069 0.673503 per_variant_size: 0 380 1689 0 0 0 0 0 0 
Heartbeat_Variant_2 : 0 0 per_variant_size: 0 0 0 0 0 0 0 0 0 
Heartbeat_Variant_3 : 0 0 per_variant_size: 0 0 0 0 0 0 0 0 0 
Heartbeat_Variant_0_evicts 0 : 17883 1 : 25489 2 : 0 3 : 0 
Heartbeat_Variant_1_evicts 0 : 25430 1 : 0 2 : 0 3 : 0 
Heartbeat_Variant_2_evicts 0 : 0 1 : 0 2 : 0 3 : 0 
Heartbeat_Variant_3_evicts 0 : 0 1 : 0 2 : 0 3 : 0 
Heartbeat CPU 0 instructions: 10000000 cycles: 2796044 heartbeat IPC: 3.57648 cumulative IPC: 3.57648 (Simulation time: 0 hr 1 min 43 sec) 
Heartbeat_Variant_0 : 1008 0.328125 per_variant_size: 0 1008 0 0 0 0 0 0 0 
Heartbeat_Variant_1 : 2055 0.668945 per_variant_size: 0 336 1719 0 0 0 0 0 0 
Heartbeat_Variant_2 : 0 0 per_variant_size: 0 0 0 0 0 0 0 0 0 
Heartbeat_Variant_3 : 0 0 per_variant_size: 0 0 0 0 0 0 0 0 0 
Heartbeat_Variant_0_evicts 0 : 17491 1 : 24813 2 : 0 3 : 0 
Heartbeat_Variant_1_evicts 0 : 24799 1 : 0 2 : 0 3 : 0 
Heartbeat_Variant_2_evicts 0 : 0 1 : 0 2 : 0 3 : 0 
Heartbeat_Variant_3_evicts 0 : 0 1 : 0 2 : 0 3 : 0 
Heartbeat CPU 0 instructions: 20000001 cycles: 5592678 heartbeat IPC: 3.57573 cumulative IPC: 3.5761 (Simulation time: 0 hr 3 min 24 sec) 
Heartbeat_Variant_0 : 990 0.322266 per_variant_size: 0 990 0 0 0 0 0 0 0 
Heartbeat_Variant_1 : 2075 0.675456 per_variant_size: 0 357 1718 0 0 0 0 0 0 
Heartbeat_Variant_2 : 0 0 per_variant_size: 0 0 0 0 0 0 0 0 0 
Heartbeat_Variant_3 : 0 0 per_variant_size: 0 0 0 0 0 0 0 0 0 
Heartbeat_Variant_0_evicts 0 : 17657 1 : 25224 2 : 0 3 : 0 
Heartbeat_Variant_1_evicts 0 : 25243 1 : 0 2 : 0 3 : 0 
Heartbeat_Variant_2_evicts 0 : 0 1 : 0 2 : 0 3 : 0 
Heartbeat_Variant_3_evicts 0 : 0 1 : 0 2 : 0 3 : 0 
Heartbeat CPU 0 instructions: 30000000 cycles: 8387655 heartbeat IPC: 3.57785 cumulative IPC: 3.57668 (Simulation time: 0 hr 5 min 4 sec) 
Heartbeat_Variant_0 : 994 0.323568 per_variant_size: 0 994 0 0 0 0 0 0 0 
Heartbeat_Variant_1 : 2071 0.674154 per_variant_size: 0 385 1686 0 0 0 0 0 0 
Heartbeat_Variant_2 : 0 0 per_variant_size: 0 0 0 0 0 0 0 0 0 
Heartbeat_Variant_3 : 0 0 per_variant_size: 0 0 0 0 0 0 0 0 0 
Heartbeat_Variant_0_evicts 0 : 17946 1 : 26307 2 : 0 3 : 0 
Heartbeat_Variant_1_evicts 0 : 26303 1 : 0 2 : 0 3 : 0 
Heartbeat_Variant_2_evicts 0 : 0 1 : 0 2 : 0 3 : 0 
Heartbeat_Variant_3_evicts 0 : 0 1 : 0 2 : 0 3 : 0 
Heartbeat CPU 0 instructions: 40000000 cycles: 11183196 heartbeat IPC: 3.57713 cumulative IPC: 3.5768 (Simulation time: 0 hr 6 min 47 sec) 
Heartbeat_Variant_0 : 975 0.317383 per_variant_size: 0 975 0 0 0 0 0 0 0 
Heartbeat_Variant_1 : 2090 0.680339 per_variant_size: 0 373 1717 0 0 0 0 0 0 
Heartbeat_Variant_2 : 0 0 per_variant_size: 0 0 0 0 0 0 0 0 0 
Heartbeat_Variant_3 : 0 0 per_variant_size: 0 0 0 0 0 0 0 0 0 
Heartbeat_Variant_0_evicts 0 : 17156 1 : 25066 2 : 0 3 : 0 
Heartbeat_Variant_1_evicts 0 : 25085 1 : 0 2 : 0 3 : 0 
Heartbeat_Variant_2_evicts 0 : 0 1 : 0 2 : 0 3 : 0 
Heartbeat_Variant_3_evicts 0 : 0 1 : 0 2 : 0 3 : 0 
Heartbeat CPU 0 instructions: 50000001 cycles: 13979065 heartbeat IPC: 3.57671 cumulative IPC: 3.57678 (Simulation time: 0 hr 8 min 33 sec) 

Warmup complete CPU 0 instructions: 50000001 cycles: 13979065 (Simulation time: 0 hr 8 min 33 sec) 

Cycle: 20000000 FTQ IN: 56580167 FTQ occupancy: 18.1053 DECODE IN: 56580047 DECODE occupancy: 46.2622 ROB IN: 56579987 ROB occupancy: 279.229 ROB OUT: 56579904
Heartbeat_Variant_0 : 982 0.319661 per_variant_size: 0 982 0 0 0 0 0 0 0 
Heartbeat_Variant_1 : 2084 0.678385 per_variant_size: 0 350 1734 0 0 0 0 0 0 
Heartbeat_Variant_2 : 0 0 per_variant_size: 0 0 0 0 0 0 0 0 0 
Heartbeat_Variant_3 : 0 0 per_variant_size: 0 0 0 0 0 0 0 0 0 
Heartbeat_Variant_0_evicts 0 : 17876 1 : 25821 2 : 0 3 : 0 
Heartbeat_Variant_1_evicts 0 : 25814 1 : 0 2 : 0 3 : 0 
Heartbeat_Variant_2_evicts 0 : 0 1 : 0 2 : 0 3 : 0 
Heartbeat_Variant_3_evicts 0 : 0 1 : 0 2 : 0 3 : 0 
Heartbeat CPU 0 instructions: 60000000 cycles: 23198560 heartbeat IPC: 1.08466 cumulative IPC: 1.08466 (Simulation time: 0 hr 10 min 2 sec) 
*** Reached end of trace for Core: 0 Repeating trace: ./micro_traces/srv421.trace.gz
Cycle: 30000000 FTQ IN: 10859091 FTQ occupancy: 6.74983 DECODE IN: 10859184 DECODE occupancy: 14.2181 ROB IN: 10859244 ROB occupancy: 116.164 ROB OUT: 10859211
Heartbeat_Variant_0 : 985 0.320638 per_variant_size: 0 985 0 0 0 0 0 0 0 
Heartbeat_Variant_1 : 2081 0.677409 per_variant_size: 0 376 1705 0 0 0 0 0 0 
Heartbeat_Variant_2 : 0 0 per_variant_size: 0 0 0 0 0 0 0 0 0 
Heartbeat_Variant_3 : 0 0 per_variant_size: 0 0 0 0 0 0 0 0 0 
Heartbeat_Variant_0_evicts 0 : 17765 1 : 25996 2 : 0 3 : 0 
Heartbeat_Variant_1_evicts 0 : 25993 1 : 0 2 : 0 3 : 0 
Heartbeat_Variant_2_evicts 0 : 0 1 : 0 2 : 0 3 : 0 
Heartbeat_Variant_3_evicts 0 : 0 1 : 0 2 : 0 3 : 0 
Heartbeat CPU 0 instructions: 70000001 cycles: 32363561 heartbeat IPC: 1.09111 cumulative IPC: 1.08787 (Simulation time: 0 hr 11 min 34 sec) 
Cycle: 40000000 FTQ IN: 10969074 FTQ occupancy: 6.79294 DECODE IN: 10969048 DECODE occupancy: 14.3908 ROB IN: 10968988 ROB occupancy: 117.588 ROB OUT: 10969056
Heartbeat_Variant_0 : 981 0.319336 per_variant_size: 0 981 0 0 0 0 0 0 0 
Heartbeat_Variant_1 : 2085 0.678711 per_variant_size: 0 370 1715 0 0 0 0 0 0 
Heartbeat_Variant_2 : 0 0 per_variant_size: 0 0 0 0 0 0 0 0 0 
Heartbeat_Variant_3 : 0 0 per_variant_size: 0 0 0 0 0 0 0 0 0 
Heartbeat_Variant_0_evicts 0 : 17455 1 : 25248 2 : 0 3 : 0 
Heartbeat_Variant_1_evicts 0 : 25252 1 : 0 2 : 0 3 : 0 
Heartbeat_Variant_2_evicts 0 : 0 1 : 0 2 : 0 3 : 0 
Heartbeat_Variant_3_evicts 0 : 0 1 : 0 2 : 0 3 : 0 
Heartbeat CPU 0 instructions: 80000002 cycles: 41449774 heartbeat IPC: 1.10057 cumulative IPC: 1.09207 (Simulation time: 0 hr 13 min 5 sec) 
Cycle: 50000000 FTQ IN: 10790096 FTQ occupancy: 6.93502 DECODE IN: 10790149 DECODE occupancy: 14.6219 ROB IN: 10790209 ROB occupancy: 118.091 ROB OUT: 10790253
Heartbeat_Variant_0 : 961 0.312826 per_variant_size: 0 961 0 0 0 0 0 0 0 
Heartbeat_Variant_1 : 2105 0.685221 per_variant_size: 0 360 1745 0 0 0 0 0 0 
Heartbeat_Variant_2 : 0 0 per_variant_size: 0 0 0 0 0 0 0 0 0 
Heartbeat_Variant_3 : 0 0 per_variant_size: 0 0 0 0 0 0 0 0 0 
Heartbeat_Variant_0_evicts 0 : 17389 1 : 24841 2 : 0 3 : 0 
Heartbeat_Variant_1_evicts 0 : 24861 1 : 0 2 : 0 3 : 0 
Heartbeat_Variant_2_evicts 0 : 0 1 : 0 2 : 0 3 : 0 
Heartbeat_Variant_3_evicts 0 : 0 1 : 0 2 : 0 3 : 0 
Heartbeat CPU 0 instructions: 90000003 cycles: 50703361 heartbeat IPC: 1.08066 cumulative IPC: 1.0892 (Simulation time: 0 hr 14 min 38 sec) 
Heartbeat_Variant_0 : 985 0.320638 per_variant_size: 0 985 0 0 0 0 0 0 0 
Heartbeat_Variant_1 : 2081 0.677409 per_variant_size: 0 341 1740 0 0 0 0 0 0 
Heartbeat_Variant_2 : 0 0 per_variant_size: 0 0 0 0 0 0 0 0 0 
Heartbeat_Variant_3 : 0 0 per_variant_size: 0 0 0 0 0 0 0 0 0 
Heartbeat_Variant_0_evicts 0 : 18258 1 : 26456 2 : 0 3 : 0 
Heartbeat_Variant_1_evicts 0 : 26432 1 : 0 2 : 0 3 : 0 
Heartbeat_Variant_2_evicts 0 : 0 1 : 0 2 : 0 3 : 0 
Heartbeat_Variant_3_evicts 0 : 0 1 : 0 2 : 0 3 : 0 
Heartbeat CPU 0 instructions: 100000000 cycles: 59910926 heartbeat IPC: 1.08606 cumulative IPC: 1.08857 (Simulation time: 0 hr 16 min 23 sec) 
Finished CPU 0 instructions: 50000003 cycles: 45931862 cumulative IPC: 1.08857 (Simulation time: 0 hr 16 min 23 sec) 

ChampSim completed all CPUs

Region of Interest Statistics

CPU 0 cumulative IPC: 1.08857 instructions: 50000003 cycles: 45931862
 Fetch stage stalled: 71.0591  Sim cycles: 45931862 fetch stall cycle: 32638774
 Empty decode stage: 57.7526  Sim cycles: 45931862 fetch stall cycle: 26526850
ITLB TOTAL     ACCESS:    5526505  HIT:    5035293  MISS:     491212  HIT %:    91.1117  MISS %:    8.88829   MPKI: 9.82424
ITLB LOAD TRANSLATION INSTRUCTION	ACCESS:    5415419  HIT:    4924207  MISS:     491212  HIT %:    90.9294  MISS %:    9.07062  MPKI: 9.82424
ITLB TRANSLATION FROM L1D PREFETCHER INSTRUCTION	ACCESS:     111086  HIT:     111086  MISS:          0  HIT %:        100  MISS %:          0  MPKI: 0

ITLB AVERAGE MISS LATENCY: 9.02761 cycles
ITLB RQ	ACCESS:    7288799	FORWARD:          0	MERGED:    1241006	TO_CACHE:    6047793

DTLB TOTAL     ACCESS:    9341593  HIT:    8865095  MISS:     476498  HIT %:    94.8992  MISS %:    5.10082   MPKI: 9.52996
DTLB LOAD TRANSLATION DATA	ACCESS:    9341593  HIT:    8865095  MISS:     476498  HIT %:    94.8992  MISS %:    5.10082  MPKI: 9.52996

DTLB AVERAGE MISS LATENCY: 9.21785 cycles
DTLB RQ	ACCESS:   13611063	FORWARD:          0	MERGED:    4235132	TO_CACHE:    9375931

STLB TOTAL     ACCESS:    1222390  HIT:    1220651  MISS:       1739  HIT %:    99.8577  MISS %:   0.142262   MPKI: 0.03478
STLB LOAD TRANSLATION INSTRUCTION	ACCESS:     491212  HIT:     491031  MISS:        181  HIT %:    99.9632  MISS %:  0.0368476  MPKI: 0.00362
STLB LOAD TRANSLATION DATA	ACCESS:     476356  HIT:     474811  MISS:       1545  HIT %:    99.6757  MISS %:   0.324337  MPKI: 0.0309
STLB TRANSLATION FROM L1D PREFETCHER DATA	ACCESS:     254822  HIT:     254809  MISS:         13  HIT %:    99.9949  MISS %:  0.0051016  MPKI: 0.00026

STLB AVERAGE MISS LATENCY: 53.7441 cycles
STLB RQ	ACCESS:    1367933	FORWARD:          0	MERGED:     145515	TO_CACHE:    1222418

STLB Hit, L1D data hit: 0
STLB Hit, L2C data hit: 0
STLB Hit, LLC data hit: 0
STLB Hit, LLC data miss: 0
STLB STLB hints to L2: 0
L1D TOTAL     ACCESS:   13392210  HIT:   12234764  MISS:    1157446  HIT %:    91.3573  MISS %:    8.64268   MPKI: 23.1489
L1D LOAD DATA	ACCESS:    6846357  HIT:    6080582  MISS:     765775  HIT %:    88.8149  MISS %:    11.1851  MPKI: 15.3155
L1D RFO DATA	ACCESS:    6208321  HIT:    5920778  MISS:     287543  HIT %:    95.3684  MISS %:    4.63157  MPKI: 5.75086
L1D PREFETCH DATA	ACCESS:     337532  HIT:     233404  MISS:     104128  HIT %:    69.1502  MISS %:    30.8498  MPKI: 2.08256

L1D PREFETCH  REQUESTED:     800755  ISSUED:     800755  USEFUL:      46322  USELESS:      70633
L1D USEFUL LOAD PREFETCHES:      46322 PREFETCH ISSUED TO LOWER LEVEL:     117011  ACCURACY: 39.5877
 TIMELY PREFETCHES:      46322 LATE PREFETCHES: 12816 DROPPED PREFETCHES: 0
L1D AVERAGE MISS LATENCY: 411494 cycles
L1D RQ	ACCESS:   10898042	FORWARD:          0	MERGED:    3856656	TO_CACHE:    6877266
L1D WQ	ACCESS:    6903529	FORWARD:     164429	MERGED:     169732	TO_CACHE:    6733797
L1D PQ	ACCESS:     400532	FORWARD:          0	MERGED:          0	TO_CACHE:     400223

L1D UNIQUE REGIONS ACCESSED: 0
L1D REGIONS CONFLICTS: 0
L1D Cross Page Prefetch Requests: 5813
L1D Same Page Prefetch Requests: 809592
L1D ROI Sum of L1D PQ occupancy: 5053634
L1D PREFETCHES PUSHED FROM L2C: 0
L1I TOTAL     ACCESS:    6857810  HIT:    4100976  MISS:    2756834  HIT %:    59.8001  MISS %:    40.1999   MPKI: 55.1367
L1I LOAD INSTRUCTION	ACCESS:    6405325  HIT:    3648491  MISS:    2756834  HIT %:    56.9603  MISS %:    43.0397  MPKI: 55.1367
L1I PREFETCH INSTRUCTION	ACCESS:     452485  HIT:     452485  MISS:          0  HIT %:        100  MISS %:          0  MPKI: 0

L1I PREFETCH  REQUESTED:     991179  ISSUED:     991179  USEFUL:          0  USELESS:          0
L1I USEFUL LOAD PREFETCHES:          0 PREFETCH ISSUED TO LOWER LEVEL:          0  ACCURACY: -nan
 TIMELY PREFETCHES:          0 LATE PREFETCHES: 0 DROPPED PREFETCHES: 0
L1I AVERAGE MISS LATENCY: 17.1885 cycles
L1I RQ	ACCESS:    9473156	FORWARD:          0	MERGED:    2884814	TO_CACHE:    6588342
L1I PQ	ACCESS:     991179	FORWARD:          0	MERGED:     290722	TO_CACHE:     700457

L1BTB TOTAL     ACCESS:    5682300  HIT:    2066054  MISS:    3616246  HIT %:    36.3595  MISS %:    63.6405   MPKI: 72.3249
L1BTB BRANCH_DIRECT_JUMP	ACCESS:     544752 HIT:     143041 MISS:     401711 AVERAGE STALL: 34.7228 AVERAGE FETCH STALL: 19.2625 AVERAGE FETCH QUEUE STALL: 7.58467 AVERAGE DECODE STALL: 7.02454 AVERAGE EXECUTE STALL: 2.89956e+14
L1BTB BRANCH_INDIRECT	ACCESS:     181794 HIT:      65608 MISS:     116186 AVERAGE STALL: 89.8724 AVERAGE FETCH STALL: 14.704 AVERAGE FETCH QUEUE STALL: 12.0758 AVERAGE DECODE STALL: 7.31306 AVERAGE EXECUTE STALL: 54.8431
L1BTB BRANCH_CONDITIONAL	ACCESS:    2735908 HIT:    1446622 MISS:    1289286 AVERAGE STALL: 35.3572 AVERAGE FETCH STALL: 21.1809 AVERAGE FETCH QUEUE STALL: 6.73404 AVERAGE DECODE STALL: 6.70493 AVERAGE EXECUTE STALL: 1.0064e+14
L1BTB BRANCH_DIRECT_CALL	ACCESS:     939383 HIT:     102243 MISS:     837140 AVERAGE STALL: 37.0975 AVERAGE FETCH STALL: 22.1512 AVERAGE FETCH QUEUE STALL: 7.26648 AVERAGE DECODE STALL: 6.9268 AVERAGE EXECUTE STALL: 9.33761e+13
L1BTB BRANCH_INDIRECT_CALL	ACCESS:     170542 HIT:      20722 MISS:     149820 AVERAGE STALL: 114.903 AVERAGE FETCH STALL: 17.6964 AVERAGE FETCH QUEUE STALL: 6.47836 AVERAGE DECODE STALL: 6.72246 AVERAGE EXECUTE STALL: 83.4547
L1BTB BRANCH_RETURN	ACCESS:    1109921 HIT:     287818 MISS:     822103 AVERAGE STALL: 36.6751 AVERAGE FETCH STALL: 18.5192 AVERAGE FETCH QUEUE STALL: 6.355 AVERAGE DECODE STALL: 6.42204 AVERAGE EXECUTE STALL: 1.48519e+14
L1BTB BRANCH_OTHER ACCESS:          0 HIT:          0 MISS:          0 AVERAGE STALL: -nan AVERAGE FETCH STALL: -nan AVERAGE FETCH QUEUE STALL: -nan AVERAGE DECODE STALL: -nan AVERAGE EXECUTE STALL: -nan
L1BTB TOTAL ROB OCCUPANCY AT BTB MISS: 15.996

L2BTB TOTAL     ACCESS:    3591150  HIT:    2977577  MISS:     613573  HIT %:    82.9143  MISS %:    17.0857   MPKI: 12.2715
L2BTB BRANCH_DIRECT_JUMP	ACCESS:     397575 HIT:     338076 MISS:      59499 AVERAGE STALL: 34.7228 AVERAGE FETCH STALL: 19.2625 AVERAGE FETCH QUEUE STALL: 7.58467 AVERAGE DECODE STALL: 7.02454 AVERAGE EXECUTE STALL: 2.89956e+14
L2BTB BRANCH_INDIRECT	ACCESS:     105942 HIT:      95497 MISS:      10445 AVERAGE STALL: 89.8724 AVERAGE FETCH STALL: 14.704 AVERAGE FETCH QUEUE STALL: 12.0758 AVERAGE DECODE STALL: 7.31306 AVERAGE EXECUTE STALL: 54.8431
L2BTB BRANCH_CONDITIONAL	ACCESS:    1289286 HIT:    1104977 MISS:     184309 AVERAGE STALL: 35.3572 AVERAGE FETCH STALL: 21.1809 AVERAGE FETCH QUEUE STALL: 6.73404 AVERAGE DECODE STALL: 6.70493 AVERAGE EXECUTE STALL: 1.0064e+14
L2BTB BRANCH_DIRECT_CALL	ACCESS:     837140 HIT:     639539 MISS:     197601 AVERAGE STALL: 37.0975 AVERAGE FETCH STALL: 22.1512 AVERAGE FETCH QUEUE STALL: 7.26648 AVERAGE DECODE STALL: 6.9268 AVERAGE EXECUTE STALL: 9.33761e+13
L2BTB BRANCH_INDIRECT_CALL	ACCESS:     140326 HIT:     101622 MISS:      38704 AVERAGE STALL: 114.903 AVERAGE FETCH STALL: 17.6964 AVERAGE FETCH QUEUE STALL: 6.47836 AVERAGE DECODE STALL: 6.72246 AVERAGE EXECUTE STALL: 83.4547
L2BTB BRANCH_RETURN	ACCESS:     820881 HIT:     697866 MISS:     123015 AVERAGE STALL: 36.6751 AVERAGE FETCH STALL: 18.5192 AVERAGE FETCH QUEUE STALL: 6.355 AVERAGE DECODE STALL: 6.42204 AVERAGE EXECUTE STALL: 1.48519e+14
L2BTB BRANCH_OTHER ACCESS:          0 HIT:          0 MISS:          0 AVERAGE STALL: -nan AVERAGE FETCH STALL: -nan AVERAGE FETCH QUEUE STALL: -nan AVERAGE DECODE STALL: -nan AVERAGE EXECUTE STALL: -nan
L2BTB TOTAL ROB OCCUPANCY AT BTB MISS: 94.2765

L2C TOTAL     ACCESS:    4533988  HIT:    4048101  MISS:     485887  HIT %:    89.2835  MISS %:    10.7165   MPKI: 9.71774
L2C LOAD INSTRUCTION	ACCESS:    2756834  HIT:    2503965  MISS:     252869  HIT %:    90.8276  MISS %:    9.17244  MPKI: 5.05738
L2C LOAD TRANSLATION INSTRUCTION	ACCESS:        203  HIT:         45  MISS:        158  HIT %:    22.1675  MISS %:    77.8325  MPKI: 0.00316
L2C LOAD DATA	ACCESS:     752913  HIT:     669225  MISS:      83688  HIT %:    88.8848  MISS %:    11.1152  MPKI: 1.67376
L2C RFO DATA	ACCESS:     287464  HIT:     232957  MISS:      54507  HIT %:    81.0387  MISS %:    18.9613  MPKI: 1.09014
L2C PREFETCH DATA	ACCESS:     209599  HIT:     132785  MISS:      76814  HIT %:    63.3519  MISS %:    36.6481  MPKI: 1.53628
L2C WRITEBACK DATA	ACCESS:     525355  HIT:     508692  MISS:      16663  HIT %:    96.8282  MISS %:    3.17176  MPKI: 0.33326
L2C LOAD TRANSLATION DATA	ACCESS:       1599  HIT:        421  MISS:       1178  HIT %:     26.329  MISS %:     73.671  MPKI: 0.02356
L2C TRANSLATION FROM L1D PREFETCHER DATA	ACCESS:         21  HIT:         11  MISS:         10  HIT %:     52.381  MISS %:     47.619  MPKI: 0.0002

L2C PREFETCH  REQUESTED:     100427  ISSUED:     100427  USEFUL:       9043  USELESS:      68206
L2C USEFUL LOAD PREFETCHES:       9043 PREFETCH ISSUED TO LOWER LEVEL:      77172  ACCURACY: 11.718
 TIMELY PREFETCHES:       9043 LATE PREFETCHES: 358 DROPPED PREFETCHES: 0
L2C AVERAGE MISS LATENCY: 34.4526 cycles
L2C RQ	ACCESS:    3799091	FORWARD:          0	MERGED:          0	TO_CACHE:    3799034
L2C WQ	ACCESS:     525355	FORWARD:         57	MERGED:          0	TO_CACHE:     525355
L2C PQ	ACCESS:     217438	FORWARD:          0	MERGED:       3832	TO_CACHE:     213606

L2C Dense regions hint from L2: 0
PSCL5 TOTAL     ACCESS:       3480  HIT:       1740  MISS:       1740  HIT %:         50  MISS %:         50   MPKI: 0.0348
PSCL5 LOAD TRANSLATION INSTRUCTION	ACCESS:       3438  HIT:       1719  MISS:       1719  HIT %:         50  MISS %:         50  MPKI: 0.03438
PSCL5 TRANSLATION FROM L1D PREFETCHER INSTRUCTION	ACCESS:         42  HIT:         21  MISS:         21  HIT %:         50  MISS %:         50  MPKI: 0.00042


PSCL4 TOTAL     ACCESS:       3237  HIT:       1616  MISS:       1621  HIT %:    49.9228  MISS %:    50.0772   MPKI: 0.03242
PSCL4 LOAD TRANSLATION INSTRUCTION	ACCESS:       1715  HIT:       1595  MISS:        120  HIT %:    93.0029  MISS %:    6.99708  MPKI: 0.0024
PSCL4 TRANSLATION FROM L1D PREFETCHER INSTRUCTION	ACCESS:         21  HIT:         21  MISS:          0  HIT %:        100  MISS %:          0  MPKI: 0
PSCL4 LOAD TRANSLATION DATA	ACCESS:       1480  HIT:          0  MISS:       1480  HIT %:          0  MISS %:        100  MPKI: 0.0296
PSCL4 TRANSLATION FROM L1D PREFETCHER DATA	ACCESS:         21  HIT:          0  MISS:         21  HIT %:          0  MISS %:        100  MPKI: 0.00042


PSCL3 TOTAL     ACCESS:       3397  HIT:       1696  MISS:       1701  HIT %:    49.9264  MISS %:    50.0736   MPKI: 0.03402
PSCL3 LOAD TRANSLATION INSTRUCTION	ACCESS:       1795  HIT:       1675  MISS:        120  HIT %:    93.3148  MISS %:    6.68524  MPKI: 0.0024
PSCL3 TRANSLATION FROM L1D PREFETCHER INSTRUCTION	ACCESS:         21  HIT:         21  MISS:          0  HIT %:        100  MISS %:          0  MPKI: 0
PSCL3 LOAD TRANSLATION DATA	ACCESS:       1560  HIT:          0  MISS:       1560  HIT %:          0  MISS %:        100  MPKI: 0.0312
PSCL3 TRANSLATION FROM L1D PREFETCHER DATA	ACCESS:         21  HIT:          0  MISS:         21  HIT %:          0  MISS %:        100  MPKI: 0.00042


PSCL2 TOTAL     ACCESS:       3407  HIT:       1667  MISS:       1740  HIT %:    48.9287  MISS %:    51.0713   MPKI: 0.0348
PSCL2 LOAD TRANSLATION INSTRUCTION	ACCESS:       1827  HIT:       1646  MISS:        181  HIT %:     90.093  MISS %:    9.90695  MPKI: 0.00362
PSCL2 TRANSLATION FROM L1D PREFETCHER INSTRUCTION	ACCESS:         21  HIT:         21  MISS:          0  HIT %:        100  MISS %:          0  MPKI: 0
PSCL2 LOAD TRANSLATION DATA	ACCESS:       1538  HIT:          0  MISS:       1538  HIT %:          0  MISS %:        100  MPKI: 0.03076
PSCL2 TRANSLATION FROM L1D PREFETCHER DATA	ACCESS:         21  HIT:          0  MISS:         21  HIT %:          0  MISS %:        100  MPKI: 0.00042


LLC TOTAL     ACCESS:     549729  HIT:     532110  MISS:      17619  HIT %:     96.795  MISS %:    3.20503   MPKI: 0.35238
LLC LOAD INSTRUCTION	ACCESS:     252869  HIT:     252402  MISS:        467  HIT %:    99.8153  MISS %:   0.184681  MPKI: 0.00934
LLC LOAD TRANSLATION INSTRUCTION	ACCESS:        158  HIT:        139  MISS:         19  HIT %:    87.9747  MISS %:    12.0253  MPKI: 0.00038
LLC LOAD DATA	ACCESS:      83353  HIT:      80819  MISS:       2534  HIT %:    96.9599  MISS %:    3.04008  MPKI: 0.05068
LLC RFO DATA	ACCESS:      54475  HIT:      48070  MISS:       6405  HIT %:    88.2423  MISS %:    11.7577  MPKI: 0.1281
LLC PREFETCH DATA	ACCESS:      77172  HIT:      69166  MISS:       8006  HIT %:    89.6258  MISS %:    10.3742  MPKI: 0.16012
LLC WRITEBACK DATA	ACCESS:      80514  HIT:      80373  MISS:        141  HIT %:    99.8249  MISS %:   0.175125  MPKI: 0.00282
LLC LOAD TRANSLATION DATA	ACCESS:       1178  HIT:       1131  MISS:         47  HIT %:    96.0102  MISS %:    3.98981  MPKI: 0.00094
LLC TRANSLATION FROM L1D PREFETCHER DATA	ACCESS:         10  HIT:         10  MISS:          0  HIT %:        100  MISS %:          0  MPKI: 0

LLC AVERAGE MISS LATENCY: 151.248 cycles
LLC RQ	ACCESS:     392052	FORWARD:          0	MERGED:          0	TO_CACHE:     392043
LLC WQ	ACCESS:      80514	FORWARD:          9	MERGED:          0	TO_CACHE:      80514
LLC PQ	ACCESS:      77172	FORWARD:          0	MERGED:          0	TO_CACHE:      77172

LLC Dense regions hint to LLC: 0

RAW hits: 1704230
Loads Generated: 12602272
Loads sent to L1D: 10898042
Stores Generated: 6903527
Stores sent to L1D: 6903529
Major fault: 0 Minor fault: 2192
Allocated PAGES: 2192

stream: 
stream:times selected: 1246304
stream:pref_filled: 126399
stream:pref_useful: 28996
stream:pref_late: 9196
stream:misses: 10583
stream:misses_by_poll: 0

CS: 
CS:times selected: 191129
CS:pref_filled: 71827
CS:pref_useful: 48119
CS:pref_late: 9077
CS:misses: 22894
CS:misses_by_poll: 1

CPLX: 
CPLX:times selected: 1054042
CPLX:pref_filled: 25384
CPLX:pref_useful: 7592
CPLX:pref_late: 3924
CPLX:misses: 129499
CPLX:misses_by_poll: 1

NL_L1: 
NL:times selected: 12725
NL:pref_filled: 1149
NL:pref_useful: 344
NL:pref_late: 399
NL:misses: 2044
NL:misses_by_poll: 0

total selections: 2504200
total_filled: 104128
total_useful: 46322
total_late: 24938
total_polluted: 2
total_misses_after_warmup: 796684
conflicts: 5637996

test: 119755

DRAM Statistics
 CHANNEL 0
 RQ ROW_BUFFER_HIT:       5729  ROW_BUFFER_MISS:      11748
 DBUS_CONGESTED:         10
 WQ ROW_BUFFER_HIT:        825  ROW_BUFFER_MISS:       7290  FULL:          0

 AVG_CONGESTED_CYCLE: 3

CPU 0 Branch Prediction Accuracy: 99.82% MPKI: 0.3298 Average ROB Occupancy at Mispredict: 142.591
Branch types
NOT_BRANCH: 40837421 81.6748%
BRANCH_DIRECT_JUMP: 544752 1.0895%
BRANCH_INDIRECT: 181794 0.363588%
BRANCH_CONDITIONAL: 6215731 12.4315%
BRANCH_DIRECT_CALL: 939383 1.87877%
BRANCH_INDIRECT_CALL: 170542 0.341084%
BRANCH_RETURN: 1109921 2.21984%
BRANCH_OTHER: 0 0%

DRAM PAGES: 1048576
Allocated PAGES: 2192
Average_ROB_Occupancy: 118.028
Average_Decode_Occupancy: 14.3497
Average_FTQ_Occupancy: 6.79411
Indirect max targets: 14 Average targets: 1.15017
Branch_type:  BRANCH_DIRECT_JUMP:  Count Percentage: 3.64976 6.10956 4.18589 3.12862 7.48608 6.02391 1.70771 67.7085 
Branch_type:  BRANCH_INDIRECT:  Count Percentage: 11.773 3.47151 2.54597 0 13.0084 2.80825 2.14004 64.2529 
Branch_type:  BRANCH_CONDITIONAL:  Count Percentage: 25.4589 3.32984 5.27998 2.51629 3.39149 4.6024 1.62576 53.7954 
Branch_type:  BRANCH_DIRECT_CALL:  Count Percentage: 0.878359 1.25049 0.729134 2.26923 4.10283 2.82298 0.887363 87.0596 
Branch_type:  BRANCH_INDIRECT_CALL:  Count Percentage: 9.55546 0 2.99629 0 0 2.27832 0.998178 84.1717 
Branch_type:  BRANCH_RETURN:  Count Percentage: 8.02947 1.44489 5.25191 2.23889 4.19013 5.25187 1.12619 72.4666 
Branch_type:  BRANCH_DIRECT_JUMP:  Total Count: 39716 66483 45550 34045 81462 65551 18583 736790 
Branch_type:  BRANCH_INDIRECT:  Total Count: 42778 12614 9251 0 47267 10204 7776 233468 
Branch_type:  BRANCH_CONDITIONAL:  Total Count: 3162594 413645 655899 312583 421304 571727 201958 6682659 
Branch_type:  BRANCH_DIRECT_CALL:  Total Count: 16487 23472 13686 42594 77011 52988 16656 1634128 
Branch_type:  BRANCH_INDIRECT_CALL:  Total Count: 32567 0 10212 0 0 7765 3402 286875 
Branch_type:  BRANCH_RETURN:  Total Count: 178145 32057 116521 49673 92964 116520 24986 1607774 
Number of unique branch instructions: 9869
Upper 32 bits: 
aaaa
ffff
ffff0000
Unique upper 32 bits: 3
Unique upper 36 bits: 3
Unique upper 40 bits: 5
Unique upper 44 bits: 32
Unique upper 48 bits: 153
Variant_0 : 985 0.320638
Variant_1 : 2081 0.677409
Variant_2 : 0 0
Variant_3 : 0 0
Offset_3 4056
Offset_4 242
Offset_5 444
Offset_6 507
Offset_7 584
Offset_8 514
Offset_9 462
Offset_10 385
Offset_11 320
Offset_12 267
Offset_13 195
Offset_14 225
Offset_15 182
Offset_16 225
Offset_17 146
Offset_18 127
Offset_19 235
Offset_20 137
Offset_21 235
Offset_22 397
Offset_23 241
Offset_24 325
Offset_25 88
Offset_47 80
decode_dispatch_called: 19427293 42.2959
Dispatch_width: 0 9333175 48.0416 20.3196
Dispatch_width: 1 546515 2.81313 1.18984
Dispatch_width: 2 664647 3.4212 1.44703
Dispatch_width: 3 448794 2.31012 0.977086
Dispatch_width: 4 1758264 9.05048 3.82798
Dispatch_width: 5 310924 1.60045 0.676924
Dispatch_width: 6 6364974 32.7631 13.8574
Empty_decode_cycles: 26504569 57.7041
ROB_full_cycles: 2306757 5.02213
Starvation_cycles_per_kilo_instr: 372.601
Starvation_cycles_per_kilo_instr_3: 351.909
Starvation_cycles_per_kilo_instr_0: 335.31
Branch_type_1  (3,1)  (4,7)  (5,36)  (6,74)  (7,115)  (8,126)  (9,121)  (10,100)  (11,76)  (12,44)  (13,4)  (14,2)  (15,3)  (16,4)  (18,1)  (19,4)  (20,2)  (21,1)  (22,3)  (23,2)  (24,10)  (25,12) 
Branch_type_2  (3,1)  (5,1)  (8,3)  (9,3)  (12,1)  (13,1)  (14,1)  (16,3)  (17,2)  (20,2)  (21,2)  (23,5)  (24,1)  (47,36) 
Branch_type_3  (3,4054)  (4,235)  (5,403)  (6,417)  (7,438)  (8,326)  (9,256)  (10,158)  (11,130)  (12,49)  (13,4) 
Branch_type_4  (6,4)  (7,8)  (8,26)  (9,50)  (10,60)  (11,57)  (12,96)  (13,84)  (14,99)  (15,86)  (16,102)  (17,66)  (18,58)  (19,114)  (20,71)  (21,124)  (22,213)  (23,136)  (24,187)  (25,72) 
Branch_type_5  (8,2)  (9,1)  (10,3)  (11,5)  (12,3)  (13,14)  (14,16)  (15,11)  (16,20)  (17,11)  (18,16)  (19,12)  (20,10)  (21,13)  (22,42)  (23,26)  (24,36) 
Branch_type_6  (5,4)  (6,12)  (7,23)  (8,31)  (9,31)  (10,64)  (11,52)  (12,74)  (13,88)  (14,107)  (15,82)  (16,96)  (17,67)  (18,52)  (19,105)  (20,52)  (21,95)  (22,139)  (23,72)  (24,91)  (25,4)  (47,44) 
Unique trigger count: 
Variant_0_evicts_0 : 0
Variant_0_evicts_1 : 0
Variant_0_evicts_2 : 0
Variant_0_evicts_3 : 0
Variant_1_evicts_0 : 0
Variant_1_evicts_1 : 0
Variant_1_evicts_2 : 0
Variant_1_evicts_3 : 0
Variant_2_evicts_0 : 0
Variant_2_evicts_1 : 0
Variant_2_evicts_2 : 0
Variant_2_evicts_3 : 0
Variant_3_evicts_0 : 0
Variant_3_evicts_1 : 0
Variant_3_evicts_2 : 0
Variant_3_evicts_3 : 0
BTB PER SET UNIQUE ADDR: 15 17 8 20 17 19 17 17 10 19 11 19 24 16 16 11 15 13 19 17 18 14 14 16 16 19 15 20 19 16 13 18 19 6 14 13 14 17 11 17 17 16 18 20 17 13 16 12 22 16 23 12 17 18 17 8 10 14 13 21 15 23 22 16 18 19 15 13 23 21 12 16 23 15 11 11 10 20 11 21 21 7 20 20 18 15 14 18 16 29 12 11 16 14 9 22 14 13 22 19 29 23 19 17 18 13 16 18 12 16 15 25 21 14 13 12 18 20 14 21 21 14 16 9 14 12 9 16 26 11 15 21 18 18 12 23 11 19 11 22 14 24 19 13 18 15 18 13 10 16 16 19 14 13 16 24 21 20 19 16 15 17 16 17 15 14 18 13 19 11 14 19 16 17 16 15 15 14 18 22 14 15 11 18 22 25 10 18 15 14 20 14 11 16 14 13 15 21 15 17 25 16 12 16 10 18 20 16 14 17 15 18 18 19 15 17 13 19 13 24 13 15 11 14 17 14 18 21 11 19 14 10 15 19 20 22 19 16 16 9 15 17 19 16 12 15 15 19 18 15 23 13 14 10 20 16 13 13 16 13 16 13 7 16 17 12 12 15 14 15 12 20 11 12 10 13 16 16 15 18 9 17 11 17 19 11 14 24 21 22 14 11 15 20 10 18 17 15 15 17 15 15 11 23 16 25 16 18 20 17 16 19 14 25 14 13 21 12 17 25 17 17 10 16 15 21 12 11 17 12 13 22 16 16 18 19 17 15 12 29 15 18 12 18 24 17 13 13 15 17 14 14 13 18 14 22 16 18 10 13 17 19 11 24 15 22 9 20 13 18 19 15 18 20 12 24 19 21 14 17 17 16 11 12 11 16 18 22 18 14 23 10 22 22 11 11 15 13 18 18 18 18 18 19 14 18 19 16 21 20 14 11 14 20 13 16 15 19 21 19 17 16 17 18 19 18 20 13 18 15 19 15 13 16 22 19 20 10 19 18 19 16 16 22 25 12 13 16 22 22 21 27 20 14 19 28 20 20 13 24 11 18 11 21 24 11 15 19 22 17 17 15 18 15 19 24 15 21 10 17 23 21 13 16 13 17 20 26 21 16 14 20 14 11 10 14 20 23 16 19 15 23 15 23 15 13 17 29 21 22 18 26 15 17 13 21 14 24 14 12 10 16 17 11 19 19 24 11 11 22 22 21 21 13 17 20 17 17 20 18 18 14 18 19 21 26 7 19 12 17 16 21 18 14 15 15 18 16 16 18 16 25 18 11 19 17 9 26 19 22 17 23 22 24 16 22 19 21 14 13 15 20 12 16 17 19 14 17 25 17 12 17 16 12 21 15 11 18 19 13 17 16 15 10 20 16 24 13 15 18 21 20 14 12 7 25 13 22 14 19 22 17 12 11 13 23 13 21 15 20 9 22 21 17 16 17 18 21 10 19 20 13 20 22 20 19 15 20 29 12 11 18 13 13 21 13 14 20 17 16 14 8 21 24 14 21 14 16 10 16 19 14 15 16 26 14 18 16 18 23 20 16 16 16 18 15 17 18 23 21 13 22 16 11 10 17 13 21 15 21 12 16 22 20 10 16 12 15 14 12 14 19 14 15 14 17 19 14 14 23 16 17 16 16 16 14 18 14 14 14 21 17 16 16 13 15 19 19 28 13 14 15 16 15 18 20 15 18 17 11 19 17 18 13 15 17 22 17 12 9 16 11 13 18 17 21 14 18 12 22 17 23 12 16 15 10 22 15 17 20 13 19 19 10 18 18 12 19 12 9 12 10 20 20 16 26 17 11 20 17 25 14 26 21 24 15 18 11 17 13 16 24 23 23 15 24 25 25 12 23 18 16 11 15 21 14 13 15 18 19 17 18 20 18 10 24 15 18 21 12 19 16 14 14 15 21 14 20 19 18 16 15 12 15 20 21 22 19 22 19 17 15 13 15 22 12 17 15 22 13 15 15 21 16 20 6 18 14 15 17 21 9 17 19 16 18 20 16 19 18 18 14 16 13 18 20 22 18 12 14 15 17 12 18 11 20 16 20 13 24 19 17 16 19 15 15 29 18 17 15 19 15 10 18 16 12 7 18 16 15 21 25 22 13 13 23 17 13 20 16 13 19 19 17 13 18 18 22 14 14 17 20 15 20 16 16 19 20 21 14 24 17 20 21 23 16 21 22 11 16 15 19 23 16 19 15 20 19 24 28 16 23 21 17 16 22 29 15 19 18 22 23 24 16 17 12 16 13 17 15 20 23 14 20 14 20 10 24 18 17 18 16 19 13 15 13 11 14 7 11 17 26 14 12 
BTB PER SET COUNT: 1643 1106 2225 1229 2071 1271 2231 844 1817 1265 499 1259 1621 1303 950 502 1124 3221 1363 851 1563 1222 752 1194 876 1684 700 1337 1690 1516 483 1077 1238 163 964 1068 792 833 640 1594 708 960 1028 1871 2137 666 1051 874 1862 758 1653 1079 902 1322 1276 397 442 983 818 1190 820 2592 1503 1066 1398 1864 707 1817 1928 1733 1360 1400 1897 1148 393 603 578 1671 747 1564 1954 249 1580 1364 1045 691 445 1475 2146 2590 508 610 1243 949 284 1392 715 663 1496 2731 2735 1818 1148 911 2720 378 1278 1313 2156 954 940 1960 2227 1001 990 966 1269 1295 1586 1781 1783 1008 1369 363 533 525 418 1812 2239 1328 932 2356 1243 1016 1264 1535 860 1059 540 1558 931 1712 1521 804 1084 912 1284 790 470 1277 1108 1031 1546 853 580 2470 2105 1383 1197 1652 661 1243 1335 1032 725 1715 761 525 1471 1981 503 889 1152 1019 1473 752 537 671 1524 2080 1088 709 602 1214 1558 2180 270 1048 1193 1263 1341 757 360 1397 769 563 898 2146 752 777 1567 1004 1758 907 660 1560 1145 1054 1084 2038 1242 1168 593 3751 1134 1547 986 1627 874 1646 648 1067 735 867 1050 1201 928 1480 565 1670 816 374 781 1176 1333 10669 1028 1146 1317 512 1136 1255 2198 1648 1009 840 883 1430 1072 1238 1275 534 507 455 1585 1350 726 955 799 708 952 547 210 1576 1033 515 731 1036 958 1043 638 1047 230 579 546 868 1183 658 1042 1447 160 1567 958 1318 1200 927 473 1461 1457 1334 991 459 518 1484 471 1021 1639 868 963 1405 482 961 324 1875 1004 1867 983 1736 1793 1153 1452 933 711 1934 2298 1210 1394 958 1526 1953 1096 2585 421 997 416 1960 764 440 1280 421 760 1872 1302 562 982 1684 830 1517 739 2546 684 1754 887 1534 1775 1178 741 851 557 1245 774 1079 696 1551 603 1031 885 1416 542 772 859 1402 732 2071 661 1881 297 1258 703 1400 1985 813 1319 2038 255 1608 736 1534 735 1760 1522 1031 294 439 657 597 1522 1590 674 688 1948 418 1423 1732 428 506 971 951 1460 2091 1362 968 1619 953 984 1360 919 1312 830 2024 517 243 615 1441 704 891 998 5145 2037 1284 766 730 1292 1295 945 1200 1732 1023 1056 566 1983 669 460 1486 2064 1527 1297 654 1026 1064 1509 1277 1040 1809 2470 1133 1596 1196 1810 1419 1698 2805 1436 976 1682 2394 1299 926 590 1982 779 1090 533 1352 1525 920 9813 1028 1637 1275 1318 961 831 695 1049 1851 971 2077 841 853 2062 1862 917 1134 1268 1220 1288 1892 2394 1161 1278 1520 4933 711 306 1168 2401 1583 1077 1075 694 1582 954 1906 1333 612 887 2172 1968 1064 1332 3072 1665 1423 588 1880 500 1728 564 345 533 1087 994 522 1287 1816 1805 1099 924 3537 2270 1516 1474 735 1168 1796 772 2162 1346 1398 951 635 927 1180 1008 1658 44 1283 752 1500 756 1476 1284 801 893 456 1120 820 998 1386 680 1810 721 805 1813 939 530 2012 1541 1809 1923 1686 1388 1728 991 1386 1398 1398 837 816 711 1665 439 2863 878 1369 505 845 2227 795 697 1312 999 623 1225 963 264 1523 1368 665 709 1176 1315 735 1305 1234 2037 1958 437 1056 1814 1896 815 432 250 1868 362 1588 1792 1166 1900 894 558 816 717 1699 755 1914 877 1711 275 1662 1695 1050 799 1179 1738 1063 640 1068 1596 790 1397 1661 2413 1602 888 1578 2737 768 575 1088 508 993 2200 613 985 1633 985 950 1353 290 1476 1645 8074 1075 1007 1509 1122 1402 1056 872 1411 1187 2266 1700 1472 797 1253 2186 1303 1228 1384 1125 2077 971 1217 1109 1587 2272 586 1912 1217 709 307 947 932 2426 1180 1369 680 1043 2363 1580 689 1150 586 1039 606 912 952 1330 1289 866 1089 885 2119 856 809 1818 1564 1405 690 1157 705 845 1006 1073 1232 1578 1809 1153 1153 1067 741 2665 1569 1447 2615 538 1331 299 921 683 1978 1495 1578 776 1608 839 1709 882 1672 992 621 922 1461 1653 682 297 1147 531 348 1255 1462 1753 610 1549 316 1651 848 1701 595 1058 1186 645 1488 1405 568 1805 2276 1348 1769 702 1093 1306 819 1245 589 409 683 974 1548 1472 1278 2265 928 442 1154 1199 2162 870 2214 1980 1629 859 1648 730 1268 1026 803 3438 1780 1808 1032 2213 1402 2746 730 2883 1205 1688 763 886 2060 676 708 824 962 2003 1127 1320 1237 1351 324 2289 1034 1083 1443 644 1514 1195 821 676 834 1093 1117 1514 993 4565 1600 1071 505 847 1426 1819 1698 1470 1733 1139 1539 720 776 676 1996 379 1126 666 1410 720 1354 1161 1392 1142 1164 6 1119 911 2245 1291 1582 169 1113 1071 1109 1520 763 1085 1125 1614 1891 994 2583 416 705 1287 1930 837 885 896 1423 961 773 1897 709 1597 914 1994 859 1656 1277 1696 1149 1412 925 1376 3472 1667 977 1057 1318 1499 291 1593 784 997 93 1298 850 669 1583 1529 990 791 784 2618 1295 861 1573 1313 559 2313 1461 1060 829 1469 1026 1640 749 879 837 1688 1531 2067 966 847 1172 1437 1363 686 1494 1178 1316 1148 1980 741 1732 1865 420 1069 990 1939 1028 695 1093 1145 1461 1450 1831 2498 1254 2216 1789 1331 1019 1706 2803 908 1446 1793 1064 2972 1848 1505 1233 805 985 2345 1041 1243 1479 2006 1147 1486 757 1267 316 1887 1437 926 1857 1669 1099 825 659 714 828 1091 309 440 973 2788 610 781 
To predecode: 0
Predecoding something: 0
Predecode request dropped: 0
sizeofblock_0 0
sizeofblock_1 295634
sizeofblock_2 550285
sizeofblock_3 0
sizeofblock_4 0
sizeofblock_5 0
sizeofblock_6 0
sizeofblock_7 0
sizeofblock_8 0
Variant_0 Correct: 1224112 Incorrect: 0 Accuracy: 1
Variant_1 Correct: 4978496 Incorrect: 0 Accuracy: 1
Variant_2 Correct: 0 Incorrect: 0 Accuracy: -nan
Variant_3 Correct: 0 Incorrect: 0 Accuracy: -nan
