
*** ChampSim Multicore Out-of-Order Simulator ***

Warmup Instructions: 50000000
Simulation Instructions: 50000000
Number of CPUs: 1
LLC sets: 2048
LLC ways: 16
Off-chip DRAM Size: 4096 MB Channels: 1 Width: 64-bit Data Rate: 6400 MT/s
CPU 0 runs ./micro_traces/srv414.trace.gz
.gz
ITLB has LRU replacement policy
DTLB has LRU replacement policy
STLB has LRU replacement policy
FDIP Prefetcher at L1I
L1I has LRU replacement policy
L1D has LRU replacement policy
Initialize SRRIP state for L2C
Initialize DRRIP state for LLC
Heartbeat CPU 0 instructions: 10000003 cycles: 2796973 heartbeat IPC: 3.57529 cumulative IPC: 3.57529 (Simulation time: 0 hr 1 min 38 sec) 
Heartbeat CPU 0 instructions: 20000000 cycles: 5592664 heartbeat IPC: 3.57693 cumulative IPC: 3.57611 (Simulation time: 0 hr 3 min 13 sec) 
Heartbeat CPU 0 instructions: 30000000 cycles: 8389122 heartbeat IPC: 3.57595 cumulative IPC: 3.57606 (Simulation time: 0 hr 4 min 49 sec) 
Heartbeat CPU 0 instructions: 40000000 cycles: 11186237 heartbeat IPC: 3.57511 cumulative IPC: 3.57582 (Simulation time: 0 hr 6 min 22 sec) 
Heartbeat CPU 0 instructions: 50000000 cycles: 13982894 heartbeat IPC: 3.5757 cumulative IPC: 3.5758 (Simulation time: 0 hr 7 min 54 sec) 

Warmup complete CPU 0 instructions: 50000004 cycles: 13982895 (Simulation time: 0 hr 7 min 54 sec) 

Cycle: 20000000 FTQ IN: 56920397 FTQ occupancy: 18.2889 DECODE IN: 56920390 DECODE occupancy: 46.7181 ROB IN: 56920390 ROB occupancy: 281.184 ROB OUT: 56920390
Heartbeat CPU 0 instructions: 60000001 cycles: 22654585 heartbeat IPC: 1.15318 cumulative IPC: 1.15318 (Simulation time: 0 hr 9 min 18 sec) 
Cycle: 30000000 FTQ IN: 11462684 FTQ occupancy: 7.51774 DECODE IN: 11462691 DECODE occupancy: 16.098 ROB IN: 11462691 ROB occupancy: 128.48 ROB OUT: 11462604
Heartbeat CPU 0 instructions: 70000001 cycles: 31409582 heartbeat IPC: 1.1422 cumulative IPC: 1.14766 (Simulation time: 0 hr 10 min 41 sec) 
Cycle: 40000000 FTQ IN: 11548723 FTQ occupancy: 7.43385 DECODE IN: 11548708 DECODE occupancy: 15.9811 ROB IN: 11548653 ROB occupancy: 127.138 ROB OUT: 11548566
Heartbeat CPU 0 instructions: 80000000 cycles: 40063852 heartbeat IPC: 1.1555 cumulative IPC: 1.15026 (Simulation time: 0 hr 12 min 1 sec) 
Heartbeat CPU 0 instructions: 90000003 cycles: 48820377 heartbeat IPC: 1.14201 cumulative IPC: 1.14819 (Simulation time: 0 hr 13 min 27 sec) 
Cycle: 50000000 FTQ IN: 11446480 FTQ occupancy: 7.53452 DECODE IN: 11446495 DECODE occupancy: 16.1319 ROB IN: 11446550 ROB occupancy: 128.908 ROB OUT: 11446651
Heartbeat CPU 0 instructions: 100000003 cycles: 57447824 heartbeat IPC: 1.15909 cumulative IPC: 1.15035 (Simulation time: 0 hr 14 min 50 sec) 
Finished CPU 0 instructions: 50000003 cycles: 43464930 cumulative IPC: 1.15035 (Simulation time: 0 hr 14 min 50 sec) 

ChampSim completed all CPUs

Region of Interest Statistics

CPU 0 cumulative IPC: 1.15035 instructions: 50000003 cycles: 43464930
 Fetch stage stalled: 69.1671  Sim cycles: 43464930 fetch stall cycle: 30063417
 Empty decode stage: 56.6561  Sim cycles: 43464930 fetch stall cycle: 24625544
ITLB TOTAL     ACCESS:    5600242  HIT:    5106917  MISS:     493325  HIT %:     91.191  MISS %:    8.80899   MPKI: 9.8665
ITLB LOAD TRANSLATION INSTRUCTION	ACCESS:    5490169  HIT:    4996844  MISS:     493325  HIT %:    91.0144  MISS %:    8.98561  MPKI: 9.8665
ITLB TRANSLATION FROM L1D PREFETCHER INSTRUCTION	ACCESS:     110073  HIT:     110073  MISS:          0  HIT %:        100  MISS %:          0  MPKI: 0

ITLB AVERAGE MISS LATENCY: 9.04649 cycles
ITLB RQ	ACCESS:    7475111	FORWARD:          0	MERGED:    1384188	TO_CACHE:    6090923

DTLB TOTAL     ACCESS:    9268159  HIT:    8796388  MISS:     471771  HIT %:    94.9098  MISS %:    5.09023   MPKI: 9.43542
DTLB LOAD TRANSLATION DATA	ACCESS:    9268159  HIT:    8796388  MISS:     471771  HIT %:    94.9098  MISS %:    5.09023  MPKI: 9.43542

DTLB AVERAGE MISS LATENCY: 9.30689 cycles
DTLB RQ	ACCESS:   13558748	FORWARD:          0	MERGED:    4256736	TO_CACHE:    9302012

STLB TOTAL     ACCESS:    1217309  HIT:    1215232  MISS:       2077  HIT %:    99.8294  MISS %:   0.170622   MPKI: 0.04154
STLB LOAD TRANSLATION INSTRUCTION	ACCESS:     493325  HIT:     493059  MISS:        266  HIT %:    99.9461  MISS %:  0.0539198  MPKI: 0.00532
STLB LOAD TRANSLATION DATA	ACCESS:     471640  HIT:     469852  MISS:       1788  HIT %:    99.6209  MISS %:   0.379103  MPKI: 0.03576
STLB TRANSLATION FROM L1D PREFETCHER DATA	ACCESS:     252344  HIT:     252321  MISS:         23  HIT %:    99.9909  MISS %: 0.00911454  MPKI: 0.00046

STLB AVERAGE MISS LATENCY: 70.1618 cycles
STLB RQ	ACCESS:    1336740	FORWARD:          0	MERGED:     119390	TO_CACHE:    1217350

STLB Hit, L1D data hit: 0
STLB Hit, L2C data hit: 0
STLB Hit, LLC data hit: 0
STLB Hit, LLC data miss: 0
STLB STLB hints to L2: 0
L1D TOTAL     ACCESS:   13325857  HIT:   12213378  MISS:    1112479  HIT %:    91.6517  MISS %:    8.34827   MPKI: 22.2496
L1D LOAD DATA	ACCESS:    6758213  HIT:    6026589  MISS:     731624  HIT %:    89.1743  MISS %:    10.8257  MPKI: 14.6325
L1D RFO DATA	ACCESS:    6236277  HIT:    5950445  MISS:     285832  HIT %:    95.4166  MISS %:    4.58338  MPKI: 5.71664
L1D PREFETCH DATA	ACCESS:     331367  HIT:     236344  MISS:      95023  HIT %:    71.3239  MISS %:    28.6761  MPKI: 1.90046

L1D PREFETCH  REQUESTED:     743579  ISSUED:     743579  USEFUL:      33662  USELESS:      68346
L1D USEFUL LOAD PREFETCHES:      33662 PREFETCH ISSUED TO LOWER LEVEL:     102057  ACCURACY: 32.9835
 TIMELY PREFETCHES:      33662 LATE PREFETCHES: 6990 DROPPED PREFETCHES: 8
L1D AVERAGE MISS LATENCY: 228943 cycles
L1D RQ	ACCESS:   10846974	FORWARD:          0	MERGED:    3889814	TO_CACHE:    6793389
L1D WQ	ACCESS:    6943953	FORWARD:     164062	MERGED:     178594	TO_CACHE:    6765359
L1D PQ	ACCESS:     371935	FORWARD:          0	MERGED:          0	TO_CACHE:     371644

L1D UNIQUE REGIONS ACCESSED: 0
L1D REGIONS CONFLICTS: 0
L1D Cross Page Prefetch Requests: 6917
L1D Same Page Prefetch Requests: 753333
L1D ROI Sum of L1D PQ occupancy: 4708132
L1D PREFETCHES PUSHED FROM L2C: 0
L1I TOTAL     ACCESS:    6904142  HIT:    4144079  MISS:    2760063  HIT %:    60.0231  MISS %:    39.9769   MPKI: 55.2013
L1I LOAD INSTRUCTION	ACCESS:    6395899  HIT:    3635836  MISS:    2760063  HIT %:    56.8464  MISS %:    43.1536  MPKI: 55.2013
L1I PREFETCH INSTRUCTION	ACCESS:     508243  HIT:     508243  MISS:          0  HIT %:        100  MISS %:          0  MPKI: 0

L1I PREFETCH  REQUESTED:    1169408  ISSUED:    1169408  USEFUL:          0  USELESS:          0
L1I USEFUL LOAD PREFETCHES:          0 PREFETCH ISSUED TO LOWER LEVEL:          0  ACCURACY: -nan
 TIMELY PREFETCHES:          0 LATE PREFETCHES: 0 DROPPED PREFETCHES: 0
L1I AVERAGE MISS LATENCY: 17.8739 cycles
L1I RQ	ACCESS:    9460856	FORWARD:          0	MERGED:    2823863	TO_CACHE:    6636993
L1I PQ	ACCESS:    1169408	FORWARD:          0	MERGED:     331290	TO_CACHE:     838118

L1BTB TOTAL     ACCESS:    5672125  HIT:    2047384  MISS:    3624741  HIT %:    36.0955  MISS %:    63.9045   MPKI: 72.4948
L1BTB BRANCH_DIRECT_JUMP	ACCESS:     549120  HIT:     145131  MISS:     403989	AVERAGE STALL: 39.3797
L1BTB BRANCH_INDIRECT	ACCESS:     183529  HIT:      66302  MISS:     117227	AVERAGE STALL: 104.875
L1BTB BRANCH_CONDITIONAL	ACCESS:    2714378  HIT:    1422295  MISS:    1292083	AVERAGE STALL: 40.1535
L1BTB BRANCH_DIRECT_CALL	ACCESS:     941489  HIT:     104385  MISS:     837104	AVERAGE STALL: 41.0186
L1BTB BRANCH_INDIRECT_CALL	ACCESS:     171058  HIT:      20730  MISS:     150328	AVERAGE STALL: 114.118
L1BTB BRANCH_RETURN	ACCESS:    1112551  HIT:     288541  MISS:     824010	AVERAGE STALL: 39.4154
L1BTB BRANCH_OTHER ACCESS:          0  HIT:          0  MISS:          0	AVERAGE STALL: -nan
L1BTB TOTAL ROB OCCUPANCY AT BTB MISS: 11.7472

L2BTB1 TOTAL     ACCESS:    3599229  HIT:    3187383  MISS:     411846  HIT %:    88.5574  MISS %:    11.4426   MPKI: 8.23692
L2BTB1 BRANCH_DIRECT_JUMP	ACCESS:     399792  HIT:     362783  MISS:      37009	AVERAGE STALL: 39.3797
L2BTB1 BRANCH_INDIRECT	ACCESS:     106906  HIT:      84583  MISS:      22323	AVERAGE STALL: 104.875
L2BTB1 BRANCH_CONDITIONAL	ACCESS:    1292083  HIT:    1181195  MISS:     110888	AVERAGE STALL: 40.1535
L2BTB1 BRANCH_DIRECT_CALL	ACCESS:     837104  HIT:     720947  MISS:     116157	AVERAGE STALL: 41.0186
L2BTB1 BRANCH_INDIRECT_CALL	ACCESS:     140739  HIT:     115962  MISS:      24777	AVERAGE STALL: 114.118
L2BTB1 BRANCH_RETURN	ACCESS:     822605  HIT:     721913  MISS:     100692	AVERAGE STALL: 39.4154
L2BTB1 BRANCH_OTHER ACCESS:          0  HIT:          0  MISS:          0	AVERAGE STALL: -nan
L2BTB1 TOTAL ROB OCCUPANCY AT BTB MISS: 103.389

L2C TOTAL     ACCESS:    4484021  HIT:    3924367  MISS:     559654  HIT %:    87.5189  MISS %:    12.4811   MPKI: 11.1931
L2C LOAD INSTRUCTION	ACCESS:    2760063  HIT:    2444066  MISS:     315997  HIT %:    88.5511  MISS %:    11.4489  MPKI: 6.31994
L2C LOAD TRANSLATION INSTRUCTION	ACCESS:        295  HIT:         57  MISS:        238  HIT %:     19.322  MISS %:     80.678  MPKI: 0.00476
L2C LOAD DATA	ACCESS:     724620  HIT:     637817  MISS:      86803  HIT %:    88.0209  MISS %:    11.9791  MPKI: 1.73606
L2C RFO DATA	ACCESS:     285740  HIT:     227932  MISS:      57808  HIT %:     79.769  MISS %:     20.231  MPKI: 1.15616
L2C PREFETCH DATA	ACCESS:     191818  HIT:     115089  MISS:      76729  HIT %:    59.9991  MISS %:    40.0009  MPKI: 1.53458
L2C WRITEBACK DATA	ACCESS:     519569  HIT:     498746  MISS:      20823  HIT %:    95.9923  MISS %:    4.00774  MPKI: 0.41646
L2C LOAD TRANSLATION DATA	ACCESS:       1868  HIT:        630  MISS:       1238  HIT %:    33.7259  MISS %:    66.2741  MPKI: 0.02476
L2C TRANSLATION FROM L1D PREFETCHER DATA	ACCESS:         48  HIT:         30  MISS:         18  HIT %:       62.5  MISS %:       37.5  MPKI: 0.00036

L2C PREFETCH  REQUESTED:      99085  ISSUED:      99085  USEFUL:       9560  USELESS:      67811
L2C USEFUL LOAD PREFETCHES:       9560 PREFETCH ISSUED TO LOWER LEVEL:      77378  ACCURACY: 12.3549
 TIMELY PREFETCHES:       9560 LATE PREFETCHES: 649 DROPPED PREFETCHES: 0
L2C AVERAGE MISS LATENCY: 36.7601 cycles
L2C RQ	ACCESS:    3772695	FORWARD:          0	MERGED:          0	TO_CACHE:    3772634
L2C WQ	ACCESS:     519570	FORWARD:         61	MERGED:          0	TO_CACHE:     519570
L2C PQ	ACCESS:     201142	FORWARD:          0	MERGED:       3500	TO_CACHE:     197642

L2C Dense regions hint from L2: 0
PSCL5 TOTAL     ACCESS:       4174  HIT:       2087  MISS:       2087  HIT %:         50  MISS %:         50   MPKI: 0.04174
PSCL5 LOAD TRANSLATION INSTRUCTION	ACCESS:       4080  HIT:       2040  MISS:       2040  HIT %:         50  MISS %:         50  MPKI: 0.0408
PSCL5 TRANSLATION FROM L1D PREFETCHER INSTRUCTION	ACCESS:         94  HIT:         47  MISS:         47  HIT %:         50  MISS %:         50  MPKI: 0.00094


PSCL4 TOTAL     ACCESS:       3944  HIT:       1967  MISS:       1977  HIT %:    49.8732  MISS %:    50.1268   MPKI: 0.03954
PSCL4 LOAD TRANSLATION INSTRUCTION	ACCESS:       2102  HIT:       1921  MISS:        181  HIT %:    91.3892  MISS %:    8.61085  MPKI: 0.00362
PSCL4 TRANSLATION FROM L1D PREFETCHER INSTRUCTION	ACCESS:         47  HIT:         46  MISS:          1  HIT %:    97.8723  MISS %:    2.12766  MPKI: 2e-05
PSCL4 LOAD TRANSLATION DATA	ACCESS:       1750  HIT:          0  MISS:       1750  HIT %:          0  MISS %:        100  MPKI: 0.035
PSCL4 TRANSLATION FROM L1D PREFETCHER DATA	ACCESS:         45  HIT:          0  MISS:         45  HIT %:          0  MISS %:        100  MPKI: 0.0009


PSCL3 TOTAL     ACCESS:       3948  HIT:       1969  MISS:       1979  HIT %:    49.8734  MISS %:    50.1266   MPKI: 0.03958
PSCL3 LOAD TRANSLATION INSTRUCTION	ACCESS:       2104  HIT:       1923  MISS:        181  HIT %:    91.3973  MISS %:    8.60266  MPKI: 0.00362
PSCL3 TRANSLATION FROM L1D PREFETCHER INSTRUCTION	ACCESS:         47  HIT:         46  MISS:          1  HIT %:    97.8723  MISS %:    2.12766  MPKI: 2e-05
PSCL3 LOAD TRANSLATION DATA	ACCESS:       1752  HIT:          0  MISS:       1752  HIT %:          0  MISS %:        100  MPKI: 0.03504
PSCL3 TRANSLATION FROM L1D PREFETCHER DATA	ACCESS:         45  HIT:          0  MISS:         45  HIT %:          0  MISS %:        100  MPKI: 0.0009


PSCL2 TOTAL     ACCESS:       4068  HIT:       1981  MISS:       2087  HIT %:    48.6971  MISS %:    51.3029   MPKI: 0.04174
PSCL2 LOAD TRANSLATION INSTRUCTION	ACCESS:       2201  HIT:       1935  MISS:        266  HIT %:    87.9146  MISS %:    12.0854  MPKI: 0.00532
PSCL2 TRANSLATION FROM L1D PREFETCHER INSTRUCTION	ACCESS:         46  HIT:         46  MISS:          0  HIT %:        100  MISS %:          0  MPKI: 0
PSCL2 LOAD TRANSLATION DATA	ACCESS:       1775  HIT:          0  MISS:       1775  HIT %:          0  MISS %:        100  MPKI: 0.0355
PSCL2 TRANSLATION FROM L1D PREFETCHER DATA	ACCESS:         46  HIT:          0  MISS:         46  HIT %:          0  MISS %:        100  MPKI: 0.00092


LLC TOTAL     ACCESS:     626206  HIT:     598160  MISS:      28046  HIT %:    95.5213  MISS %:    4.47872   MPKI: 0.56092
LLC LOAD INSTRUCTION	ACCESS:     315997  HIT:     315042  MISS:        955  HIT %:    99.6978  MISS %:   0.302218  MPKI: 0.0191
LLC LOAD TRANSLATION INSTRUCTION	ACCESS:        238  HIT:        204  MISS:         34  HIT %:    85.7143  MISS %:    14.2857  MPKI: 0.00068
LLC LOAD DATA	ACCESS:      86241  HIT:      82741  MISS:       3500  HIT %:    95.9416  MISS %:    4.05839  MPKI: 0.07
LLC RFO DATA	ACCESS:      57695  HIT:      44423  MISS:      13272  HIT %:    76.9963  MISS %:    23.0037  MPKI: 0.26544
LLC PREFETCH DATA	ACCESS:      77375  HIT:      67498  MISS:       9877  HIT %:    87.2349  MISS %:    12.7651  MPKI: 0.19754
LLC WRITEBACK DATA	ACCESS:      87404  HIT:      87086  MISS:        318  HIT %:    99.6362  MISS %:   0.363828  MPKI: 0.00636
LLC LOAD TRANSLATION DATA	ACCESS:       1238  HIT:       1148  MISS:         90  HIT %:    92.7302  MISS %:    7.26979  MPKI: 0.0018
LLC TRANSLATION FROM L1D PREFETCHER DATA	ACCESS:         18  HIT:         18  MISS:          0  HIT %:        100  MISS %:          0  MPKI: 0

LLC AVERAGE MISS LATENCY: 155.735 cycles
LLC RQ	ACCESS:     461453	FORWARD:          0	MERGED:          0	TO_CACHE:     461427
LLC WQ	ACCESS:      87404	FORWARD:         29	MERGED:          0	TO_CACHE:      87404
LLC PQ	ACCESS:      77378	FORWARD:          0	MERGED:          0	TO_CACHE:      77375

LLC Dense regions hint to LLC: 0

RAW hits: 1788230
Loads Generated: 12635204
Loads sent to L1D: 10846974
Stores Generated: 6943942
Stores sent to L1D: 6943953
Major fault: 0 Minor fault: 2570
Allocated PAGES: 2570

stream: 
stream:times selected: 1196371
stream:pref_filled: 122618
stream:pref_useful: 24105
stream:pref_late: 6762
stream:misses: 8169
stream:misses_by_poll: 0

CS: 
CS:times selected: 181393
CS:pref_filled: 61545
CS:pref_useful: 37896
CS:pref_late: 6363
CS:misses: 15090
CS:misses_by_poll: 12

CPLX: 
CPLX:times selected: 1013714
CPLX:pref_filled: 19477
CPLX:pref_useful: 4503
CPLX:pref_late: 3106
CPLX:misses: 92427
CPLX:misses_by_poll: 8

NL_L1: 
NL:times selected: 21379
NL:pref_filled: 670
NL:pref_useful: 303
NL:pref_late: 340
NL:misses: 1831
NL:misses_by_poll: 0

total selections: 2412857
total_filled: 95023
total_useful: 33662
total_late: 17635
total_polluted: 20
total_misses_after_warmup: 766801
conflicts: 5610616

test: 118291

DRAM Statistics
 CHANNEL 0
 RQ ROW_BUFFER_HIT:       9930  ROW_BUFFER_MISS:      17794
 DBUS_CONGESTED:         12
 WQ ROW_BUFFER_HIT:       1394  ROW_BUFFER_MISS:      12564  FULL:          0

 AVG_CONGESTED_CYCLE: 5

CPU 0 Branch Prediction Accuracy: 99.8127% MPKI: 0.34248 Average ROB Occupancy at Mispredict: 144.016
Branch types
NOT_BRANCH: 40854756 81.7095%
BRANCH_DIRECT_JUMP: 549120 1.09824%
BRANCH_INDIRECT: 183529 0.367058%
BRANCH_CONDITIONAL: 6186993 12.374%
BRANCH_DIRECT_CALL: 941489 1.88298%
BRANCH_INDIRECT_CALL: 171058 0.342116%
BRANCH_RETURN: 1112551 2.2251%
BRANCH_OTHER: 0 0%

DRAM PAGES: 1048576
Allocated PAGES: 2570
Average_ROB_Occupancy: 128.905
Average_Decode_Occupancy: 16.0106
Average_FTQ_Occupancy: 7.46205
Indirect max targets: 14 Average targets: 1.16054
Branch_type:  BRANCH_DIRECT_JUMP:  Count Percentage: 3.67714 5.37838 4.25626 8.92568 5.66069 3.12611 1.70654 67.2692 
Branch_type:  BRANCH_INDIRECT:  Count Percentage: 11.7384 3.47967 2.59012 3.7202 3.33814 2.80501 1.99481 70.3336 
Branch_type:  BRANCH_CONDITIONAL:  Count Percentage: 21.7072 2.46025 1.9316 4.05815 2.97081 6.20143 0.904932 59.7656 
Branch_type:  BRANCH_DIRECT_CALL:  Count Percentage: 0.390629 1.74031 0.752653 3.8897 3.52927 2.36212 0.609896 86.7254 
Branch_type:  BRANCH_INDIRECT_CALL:  Count Percentage: 9.56145 0 2.99768 4.27258 0.000292542 2.04282 1.00137 80.1238 
Branch_type:  BRANCH_RETURN:  Count Percentage: 3.9125 1.99007 1.04197 3.16921 4.59426 6.99059 1.23621 77.0652 
Branch_type:  BRANCH_DIRECT_JUMP:  Total Count: 40300 58945 46647 97822 62039 34261 18703 737244 
Branch_type:  BRANCH_INDIRECT:  Total Count: 43045 12760 9498 13642 12241 10286 7315 257914 
Branch_type:  BRANCH_CONDITIONAL:  Total Count: 2683836 304180 238819 501741 367305 766732 111884 7389299 
Branch_type:  BRANCH_DIRECT_CALL:  Total Count: 7347 32732 14156 73158 66379 44427 11471 1631143 
Branch_type:  BRANCH_INDIRECT_CALL:  Total Count: 32684 0 10247 14605 1 6983 3423 273888 
Branch_type:  BRANCH_RETURN:  Total Count: 86994 44249 23168 70467 102153 155435 27487 1713537 
Number of unique branch instructions: 10261
Upper 32 bits: 
aaaa
ffff
ffff0000
Unique upper 32 bits: 3
Unique upper 36 bits: 3
Unique upper 40 bits: 5
Unique upper 44 bits: 32
Unique upper 48 bits: 154
Offset_3 4234
Offset_4 256
Offset_5 477
Offset_6 526
Offset_7 610
Offset_8 531
Offset_9 493
Offset_10 400
Offset_11 331
Offset_12 293
Offset_13 217
Offset_14 236
Offset_15 192
Offset_16 232
Offset_17 152
Offset_18 127
Offset_19 243
Offset_20 142
Offset_21 249
Offset_22 406
Offset_23 242
Offset_24 350
Offset_25 96
Offset_47 85
Offset_64 1
decode_dispatch_called: 20089089 46.2191
Dispatch_width: 0 9976822 49.6629 22.9537
Dispatch_width: 1 531246 2.64445 1.22224
Dispatch_width: 2 678496 3.37744 1.56102
Dispatch_width: 3 419699 2.08919 0.965604
Dispatch_width: 4 1881104 9.36381 4.32787
Dispatch_width: 5 282406 1.40577 0.649733
Dispatch_width: 6 6319316 31.4565 14.5389
Empty_decode_cycles: 23375841 53.7809
ROB_full_cycles: 2653934 6.10592
Starvation_cycles_per_kilo_instr: 344.917
Starvation_cycles_per_kilo_instr_3: 323.282
Starvation_cycles_per_kilo_instr_0: 306.987
Branch_type_1  (3,1)  (4,9)  (5,38)  (6,73)  (7,121)  (8,134)  (9,130)  (10,102)  (11,77)  (12,51)  (13,9)  (14,2)  (15,3)  (16,4)  (18,1)  (19,4)  (20,2)  (21,1)  (22,3)  (23,2)  (24,10)  (25,13)  (64,1) 
Branch_type_2  (3,1)  (5,1)  (8,3)  (9,3)  (12,1)  (13,1)  (14,1)  (16,3)  (17,2)  (20,2)  (21,2)  (23,5)  (24,1)  (47,39) 
Branch_type_3  (3,4232)  (4,247)  (5,434)  (6,437)  (7,459)  (8,331)  (9,273)  (10,162)  (11,138)  (12,58)  (13,8)  (24,1) 
Branch_type_4  (6,3)  (7,8)  (8,25)  (9,53)  (10,64)  (11,60)  (12,100)  (13,92)  (14,105)  (15,91)  (16,104)  (17,67)  (18,59)  (19,120)  (20,74)  (21,135)  (22,217)  (23,137)  (24,204)  (25,79) 
Branch_type_5  (8,2)  (9,1)  (10,4)  (11,5)  (12,3)  (13,14)  (14,16)  (15,11)  (16,20)  (17,13)  (18,16)  (19,12)  (20,11)  (21,13)  (22,42)  (23,26)  (24,37) 
Branch_type_6  (5,4)  (6,13)  (7,22)  (8,36)  (9,33)  (10,68)  (11,51)  (12,80)  (13,93)  (14,112)  (15,87)  (16,101)  (17,70)  (18,51)  (19,107)  (20,53)  (21,98)  (22,144)  (23,72)  (24,97)  (25,4)  (47,46) 
Unique trigger count: 
L2BTB1 768 4
L2BTB2 768 4
L2BTB3 768 4
L2BTB4 112 4
