
*** ChampSim Multicore Out-of-Order Simulator ***

Warmup Instructions: 50000000
Simulation Instructions: 50000000
Number of CPUs: 1
LLC sets: 2048
LLC ways: 16
Off-chip DRAM Size: 4096 MB Channels: 1 Width: 64-bit Data Rate: 6400 MT/s
CPU 0 runs ./micro_traces/srv428.trace.gz
.gz
ITLB has LRU replacement policy
DTLB has LRU replacement policy
STLB has LRU replacement policy
CPU 0 L1I next line prefetcher
L1I has LRU replacement policy
L1D has LRU replacement policy
Initialize SRRIP state for L2C
Initialize DRRIP state for LLC
Heartbeat CPU 0 instructions: 10000001 cycles: 2798021 heartbeat IPC: 3.57396 cumulative IPC: 3.57396 (Simulation time: 0 hr 2 min 59 sec) 
Heartbeat CPU 0 instructions: 20000002 cycles: 5595238 heartbeat IPC: 3.57498 cumulative IPC: 3.57447 (Simulation time: 0 hr 5 min 42 sec) 
Heartbeat CPU 0 instructions: 30000002 cycles: 8393173 heartbeat IPC: 3.57406 cumulative IPC: 3.57433 (Simulation time: 0 hr 8 min 5 sec) 
Heartbeat CPU 0 instructions: 40000001 cycles: 11190844 heartbeat IPC: 3.5744 cumulative IPC: 3.57435 (Simulation time: 0 hr 10 min 23 sec) 
Heartbeat CPU 0 instructions: 50000002 cycles: 13988669 heartbeat IPC: 3.57421 cumulative IPC: 3.57432 (Simulation time: 0 hr 12 min 25 sec) 

Warmup complete CPU 0 instructions: 50000002 cycles: 13988669 (Simulation time: 0 hr 12 min 25 sec) 

Cycle: 20000000 FTQ IN: 58255072 FTQ occupancy: 19.8128 DECODE IN: 58255045 DECODE occupancy: 52.8555 ROB IN: 58255025 ROB occupancy: 320.007 ROB OUT: 58254903
Heartbeat CPU 0 instructions: 60000002 cycles: 21245790 heartbeat IPC: 1.37796 cumulative IPC: 1.37796 (Simulation time: 0 hr 14 min 28 sec) 
Heartbeat CPU 0 instructions: 70000003 cycles: 28404531 heartbeat IPC: 1.39689 cumulative IPC: 1.38736 (Simulation time: 0 hr 16 min 24 sec) 
Cycle: 30000000 FTQ IN: 14001969 FTQ occupancy: 12.3513 DECODE IN: 14001996 DECODE occupancy: 36.3951 ROB IN: 14002016 ROB occupancy: 255.717 ROB OUT: 14002134
Heartbeat CPU 0 instructions: 80000002 cycles: 35624976 heartbeat IPC: 1.38496 cumulative IPC: 1.38656 (Simulation time: 0 hr 18 min 22 sec) 
Cycle: 40000000 FTQ IN: 13662903 FTQ occupancy: 12.1826 DECODE IN: 13662875 DECODE occupancy: 35.5545 ROB IN: 13662871 ROB occupancy: 251.796 ROB OUT: 13662643
Heartbeat CPU 0 instructions: 90000000 cycles: 42919460 heartbeat IPC: 1.3709 cumulative IPC: 1.38261 (Simulation time: 0 hr 20 min 18 sec) 
Cycle: 50000000 FTQ IN: 13990164 FTQ occupancy: 12.2258 DECODE IN: 13990186 DECODE occupancy: 36.1909 ROB IN: 13990180 ROB occupancy: 255.959 ROB OUT: 13990082
Heartbeat CPU 0 instructions: 100000001 cycles: 50061653 heartbeat IPC: 1.40013 cumulative IPC: 1.38608 (Simulation time: 0 hr 22 min 12 sec) 
Finished CPU 0 instructions: 50000003 cycles: 36072985 cumulative IPC: 1.38608 (Simulation time: 0 hr 22 min 12 sec) 

ChampSim completed all CPUs

Region of Interest Statistics

CPU 0 cumulative IPC: 1.38608 instructions: 50000003 cycles: 36072985
 Fetch stage stalled: 51.835  Sim cycles: 36072985 fetch stall cycle: 18698441
 Empty decode stage: 29.5069  Sim cycles: 36072985 fetch stall cycle: 10644005
ITLB TOTAL     ACCESS:    7797484  HIT:    7186653  MISS:     610831  HIT %:    92.1663  MISS %:    7.83369   MPKI: 12.2166
ITLB LOAD TRANSLATION INSTRUCTION	ACCESS:    6062356  HIT:    5935289  MISS:     127067  HIT %:     97.904  MISS %:      2.096  MPKI: 2.54134
ITLB TRANSLATION FROM L1D PREFETCHER INSTRUCTION	ACCESS:    1735128  HIT:    1251364  MISS:     483764  HIT %:    72.1194  MISS %:    27.8806  MPKI: 9.67528

ITLB AVERAGE MISS LATENCY: 115190 cycles
ITLB RQ	ACCESS:   11678100	FORWARD:          0	MERGED:    3740074	TO_CACHE:    7938026

DTLB TOTAL     ACCESS:    8950632  HIT:    8481390  MISS:     469242  HIT %:    94.7574  MISS %:    5.24256   MPKI: 9.38484
DTLB LOAD TRANSLATION DATA	ACCESS:    8950632  HIT:    8481390  MISS:     469242  HIT %:    94.7574  MISS %:    5.24256  MPKI: 9.38484

DTLB AVERAGE MISS LATENCY: 9.37296 cycles
DTLB RQ	ACCESS:   13322338	FORWARD:          0	MERGED:    4335399	TO_CACHE:    8986939

STLB TOTAL     ACCESS:    1331224  HIT:    1329212  MISS:       2012  HIT %:    99.8489  MISS %:   0.151139   MPKI: 0.04024
STLB LOAD TRANSLATION INSTRUCTION	ACCESS:     124813  HIT:     124646  MISS:        167  HIT %:    99.8662  MISS %:     0.1338  MPKI: 0.00334
STLB TRANSLATION FROM L1D PREFETCHER INSTRUCTION	ACCESS:     486018  HIT:     485948  MISS:         70  HIT %:    99.9856  MISS %:  0.0144028  MPKI: 0.0014
STLB LOAD TRANSLATION DATA	ACCESS:     469242  HIT:     467483  MISS:       1759  HIT %:    99.6251  MISS %:    0.37486  MPKI: 0.03518
STLB TRANSLATION FROM L1D PREFETCHER DATA	ACCESS:     251151  HIT:     251135  MISS:         16  HIT %:    99.9936  MISS %: 0.00637067  MPKI: 0.00032

STLB AVERAGE MISS LATENCY: 89.6039 cycles
STLB RQ	ACCESS:    1457783	FORWARD:          0	MERGED:     122927	TO_CACHE:    1334856

STLB Hit, L1D data hit: 0
STLB Hit, L2C data hit: 0
STLB Hit, LLC data hit: 0
STLB Hit, LLC data miss: 0
STLB STLB hints to L2: 0
L1D TOTAL     ACCESS:   13055178  HIT:   11941714  MISS:    1113464  HIT %:    91.4711  MISS %:    8.52891   MPKI: 22.2693
L1D LOAD DATA	ACCESS:    6538113  HIT:    5805330  MISS:     732783  HIT %:    88.7921  MISS %:    11.2079  MPKI: 14.6557
L1D RFO DATA	ACCESS:    6185271  HIT:    5900005  MISS:     285266  HIT %:     95.388  MISS %:    4.61202  MPKI: 5.70532
L1D PREFETCH DATA	ACCESS:     331794  HIT:     236379  MISS:      95415  HIT %:    71.2427  MISS %:    28.7573  MPKI: 1.9083

L1D PREFETCH  REQUESTED:     748678  ISSUED:     748678  USEFUL:      33831  USELESS:      70434
L1D USEFUL LOAD PREFETCHES:      33831 PREFETCH ISSUED TO LOWER LEVEL:     104320  ACCURACY: 32.43
 TIMELY PREFETCHES:      33831 LATE PREFETCHES: 8857 DROPPED PREFETCHES: 3
L1D AVERAGE MISS LATENCY: 250320 cycles
L1D RQ	ACCESS:   10682418	FORWARD:          0	MERGED:    3942329	TO_CACHE:    6579689
L1D WQ	ACCESS:    6942496	FORWARD:     160858	MERGED:     199847	TO_CACHE:    6742649
L1D PQ	ACCESS:     374568	FORWARD:          0	MERGED:          0	TO_CACHE:     374110

L1D UNIQUE REGIONS ACCESSED: 0
L1D REGIONS CONFLICTS: 0
L1D Cross Page Prefetch Requests: 6470
L1D Same Page Prefetch Requests: 757942
L1D ROI Sum of L1D PQ occupancy: 4796321
L1D PREFETCHES PUSHED FROM L2C: 0
L1I TOTAL     ACCESS:   11240563  HIT:    7598438  MISS:    3642125  HIT %:    67.5984  MISS %:    32.4016   MPKI: 72.8425
L1I LOAD INSTRUCTION	ACCESS:    6751423  HIT:    6150234  MISS:     601189  HIT %:    91.0954  MISS %:    8.90463  MPKI: 12.0238
L1I PREFETCH INSTRUCTION	ACCESS:    4489140  HIT:    1448204  MISS:    3040936  HIT %:    32.2602  MISS %:    67.7398  MPKI: 60.8187

L1I PREFETCH  REQUESTED:    5152990  ISSUED:    5152865  USEFUL:    2355390  USELESS:     798884
L1I USEFUL LOAD PREFETCHES:    2355390 PREFETCH ISSUED TO LOWER LEVEL:    3154286  ACCURACY: 74.6727
 TIMELY PREFETCHES:    2355390 LATE PREFETCHES: 113355 DROPPED PREFETCHES: 9839
L1I AVERAGE MISS LATENCY: 987314 cycles
L1I RQ	ACCESS:    9500863	FORWARD:          0	MERGED:    2682448	TO_CACHE:    6818415
L1I PQ	ACCESS:    5152865	FORWARD:          0	MERGED:     293180	TO_CACHE:    4859685

L1BTB TOTAL     ACCESS:    5671818  HIT:    2053936  MISS:    3617882  HIT %:     36.213  MISS %:     63.787   MPKI: 72.3576
L1BTB BRANCH_DIRECT_JUMP	ACCESS:     549090  HIT:     145897  MISS:     403193	AVERAGE STALL: 47.3362
L1BTB BRANCH_INDIRECT	ACCESS:     183449  HIT:      66428  MISS:     117021	AVERAGE STALL: 98.8881
L1BTB BRANCH_CONDITIONAL	ACCESS:    2713367  HIT:    1424530  MISS:    1288837	AVERAGE STALL: 80.0088
L1BTB BRANCH_DIRECT_CALL	ACCESS:     941982  HIT:     105579  MISS:     836403	AVERAGE STALL: 105.777
L1BTB BRANCH_INDIRECT_CALL	ACCESS:     170972  HIT:      21074  MISS:     149898	AVERAGE STALL: 132.199
L1BTB BRANCH_RETURN	ACCESS:    1112958  HIT:     290428  MISS:     822530	AVERAGE STALL: 41.3026
L1BTB BRANCH_OTHER ACCESS:          0  HIT:          0  MISS:          0	AVERAGE STALL: -nan
L1BTB TOTAL ROB OCCUPANCY AT BTB MISS: 2.18201

L2BTB TOTAL     ACCESS:    3592382  HIT:    3536639  MISS:      55743  HIT %:    98.4483  MISS %:     1.5517   MPKI: 1.11486
L2BTB BRANCH_DIRECT_JUMP	ACCESS:     398969  HIT:     396063  MISS:       2906	AVERAGE STALL: 47.3362
L2BTB BRANCH_INDIRECT	ACCESS:     106740  HIT:     104041  MISS:       2699	AVERAGE STALL: 98.8881
L2BTB BRANCH_CONDITIONAL	ACCESS:    1288837  HIT:    1288388  MISS:        449	AVERAGE STALL: 80.0088
L2BTB BRANCH_DIRECT_CALL	ACCESS:     836403  HIT:     836097  MISS:        306	AVERAGE STALL: 105.777
L2BTB BRANCH_INDIRECT_CALL	ACCESS:     140314  HIT:     130189  MISS:      10125	AVERAGE STALL: 132.199
L2BTB BRANCH_RETURN	ACCESS:     821119  HIT:     781861  MISS:      39258	AVERAGE STALL: 41.3026
L2BTB BRANCH_OTHER ACCESS:          0  HIT:          0  MISS:          0	AVERAGE STALL: -nan
L2BTB TOTAL ROB OCCUPANCY AT BTB MISS: 141.619

L2C TOTAL     ACCESS:    6591144  HIT:    5606383  MISS:     984761  HIT %:    85.0593  MISS %:    14.9407   MPKI: 19.6952
L2C LOAD INSTRUCTION	ACCESS:     487834  HIT:     390597  MISS:      97237  HIT %:    80.0676  MISS %:    19.9324  MPKI: 1.94474
L2C PREFETCH INSTRUCTION	ACCESS:    3154290  HIT:    2796624  MISS:     357666  HIT %:     88.661  MISS %:     11.339  MPKI: 7.15332
L2C LOAD TRANSLATION INSTRUCTION	ACCESS:        190  HIT:         51  MISS:        139  HIT %:    26.8421  MISS %:    73.1579  MPKI: 0.00278
L2C TRANSLATION FROM L1D PREFETCHER INSTRUCTION	ACCESS:       5560  HIT:       5474  MISS:         86  HIT %:    98.4532  MISS %:    1.54676  MPKI: 0.00172
L2C LOAD DATA	ACCESS:     723897  HIT:     580025  MISS:     143872  HIT %:    80.1253  MISS %:    19.8747  MPKI: 2.87744
L2C RFO DATA	ACCESS:     285173  HIT:     193726  MISS:      91447  HIT %:    67.9328  MISS %:    32.0672  MPKI: 1.82894
L2C PREFETCH DATA	ACCESS:    1412761  HIT:    1159252  MISS:     253509  HIT %:    82.0558  MISS %:    17.9442  MPKI: 5.07018
L2C WRITEBACK DATA	ACCESS:     519546  HIT:     480184  MISS:      39362  HIT %:    92.4238  MISS %:    7.57623  MPKI: 0.78724
L2C LOAD TRANSLATION DATA	ACCESS:       1863  HIT:        430  MISS:       1433  HIT %:    23.0811  MISS %:    76.9189  MPKI: 0.02866
L2C TRANSLATION FROM L1D PREFETCHER DATA	ACCESS:         30  HIT:         20  MISS:         10  HIT %:    66.6667  MISS %:    33.3333  MPKI: 0.0002

L2C PREFETCH  REQUESTED:    3257426  ISSUED:    3257426  USEFUL:      32579  USELESS:     580903
L2C USEFUL LOAD PREFETCHES:      32579 PREFETCH ISSUED TO LOWER LEVEL:     612684  ACCURACY: 5.31742
 TIMELY PREFETCHES:      32579 LATE PREFETCHES: 1509 DROPPED PREFETCHES: 0
L2C AVERAGE MISS LATENCY: 33.9792 cycles
L2C RQ	ACCESS:    1504621	FORWARD:          0	MERGED:          0	TO_CACHE:    1504547
L2C WQ	ACCESS:     519546	FORWARD:         75	MERGED:          0	TO_CACHE:     519546
L2C PQ	ACCESS:    6516032	FORWARD:          0	MERGED:    1926951	TO_CACHE:    4589080

L2C Dense regions hint from L2: 0
PSCL5 TOTAL     ACCESS:      11230  HIT:       5615  MISS:       5615  HIT %:         50  MISS %:         50   MPKI: 0.1123
PSCL5 LOAD TRANSLATION INSTRUCTION	ACCESS:       3830  HIT:       1915  MISS:       1915  HIT %:         50  MISS %:         50  MPKI: 0.0383
PSCL5 TRANSLATION FROM L1D PREFETCHER INSTRUCTION	ACCESS:       7400  HIT:       3700  MISS:       3700  HIT %:         50  MISS %:         50  MPKI: 0.074


PSCL4 TOTAL     ACCESS:      10815  HIT:       5401  MISS:       5414  HIT %:    49.9399  MISS %:    50.0601   MPKI: 0.10828
PSCL4 LOAD TRANSLATION INSTRUCTION	ACCESS:       2772  HIT:       1816  MISS:        956  HIT %:    65.5123  MISS %:    34.4877  MPKI: 0.01912
PSCL4 TRANSLATION FROM L1D PREFETCHER INSTRUCTION	ACCESS:       5855  HIT:       3585  MISS:       2270  HIT %:    61.2297  MISS %:    38.7703  MPKI: 0.0454
PSCL4 LOAD TRANSLATION DATA	ACCESS:        873  HIT:          0  MISS:        873  HIT %:          0  MISS %:        100  MPKI: 0.01746
PSCL4 TRANSLATION FROM L1D PREFETCHER DATA	ACCESS:       1315  HIT:          0  MISS:       1315  HIT %:          0  MISS %:        100  MPKI: 0.0263


PSCL3 TOTAL     ACCESS:      10869  HIT:       5428  MISS:       5441  HIT %:    49.9402  MISS %:    50.0598   MPKI: 0.10882
PSCL3 LOAD TRANSLATION INSTRUCTION	ACCESS:       2799  HIT:       1843  MISS:        956  HIT %:    65.8449  MISS %:    34.1551  MPKI: 0.01912
PSCL3 TRANSLATION FROM L1D PREFETCHER INSTRUCTION	ACCESS:       5855  HIT:       3585  MISS:       2270  HIT %:    61.2297  MISS %:    38.7703  MPKI: 0.0454
PSCL3 LOAD TRANSLATION DATA	ACCESS:        900  HIT:          0  MISS:        900  HIT %:          0  MISS %:        100  MPKI: 0.018
PSCL3 TRANSLATION FROM L1D PREFETCHER DATA	ACCESS:       1315  HIT:          0  MISS:       1315  HIT %:          0  MISS %:        100  MPKI: 0.0263


PSCL2 TOTAL     ACCESS:       7518  HIT:       3693  MISS:       3825  HIT %:    49.1221  MISS %:    50.8779   MPKI: 0.0765
PSCL2 LOAD TRANSLATION INSTRUCTION	ACCESS:       1983  HIT:       1795  MISS:        188  HIT %:    90.5194  MISS %:    9.48058  MPKI: 0.00376
PSCL2 TRANSLATION FROM L1D PREFETCHER INSTRUCTION	ACCESS:       3766  HIT:       1898  MISS:       1868  HIT %:    50.3983  MISS %:    49.6017  MPKI: 0.03736
PSCL2 LOAD TRANSLATION DATA	ACCESS:       1739  HIT:          0  MISS:       1739  HIT %:          0  MISS %:        100  MPKI: 0.03478
PSCL2 TRANSLATION FROM L1D PREFETCHER DATA	ACCESS:         30  HIT:          0  MISS:         30  HIT %:          0  MISS %:        100  MPKI: 0.0006


LLC TOTAL     ACCESS:    1084740  HIT:    1054155  MISS:      30585  HIT %:    97.1804  MISS %:    2.81957   MPKI: 0.6117
LLC LOAD INSTRUCTION	ACCESS:      96527  HIT:      95851  MISS:        676  HIT %:    99.2997  MISS %:   0.700322  MPKI: 0.01352
LLC PREFETCH INSTRUCTION	ACCESS:     354337  HIT:     353814  MISS:        523  HIT %:    99.8524  MISS %:     0.1476  MPKI: 0.01046
LLC LOAD TRANSLATION INSTRUCTION	ACCESS:        139  HIT:         88  MISS:         51  HIT %:    63.3094  MISS %:    36.6906  MPKI: 0.00102
LLC TRANSLATION FROM L1D PREFETCHER INSTRUCTION	ACCESS:         86  HIT:         78  MISS:          8  HIT %:    90.6977  MISS %:    9.30233  MPKI: 0.00016
LLC LOAD DATA	ACCESS:     143144  HIT:     139200  MISS:       3944  HIT %:    97.2447  MISS %:    2.75527  MPKI: 0.07888
LLC RFO DATA	ACCESS:      91340  HIT:      77064  MISS:      14276  HIT %:    84.3705  MISS %:    15.6295  MPKI: 0.28552
LLC PREFETCH DATA	ACCESS:     258344  HIT:     247659  MISS:      10685  HIT %:     95.864  MISS %:    4.13596  MPKI: 0.2137
LLC WRITEBACK DATA	ACCESS:     139380  HIT:     139087  MISS:        293  HIT %:    99.7898  MISS %:   0.210217  MPKI: 0.00586
LLC LOAD TRANSLATION DATA	ACCESS:       1433  HIT:       1304  MISS:        129  HIT %:    90.9979  MISS %:    9.00209  MPKI: 0.00258
LLC TRANSLATION FROM L1D PREFETCHER DATA	ACCESS:         10  HIT:         10  MISS:          0  HIT %:        100  MISS %:          0  MPKI: 0

LLC AVERAGE MISS LATENCY: 165.183 cycles
LLC RQ	ACCESS:     332715	FORWARD:          0	MERGED:          0	TO_CACHE:     332679
LLC WQ	ACCESS:     139380	FORWARD:         39	MERGED:          0	TO_CACHE:     139380
LLC PQ	ACCESS:     612684	FORWARD:          0	MERGED:          0	TO_CACHE:     612681

LLC Dense regions hint to LLC: 0

RAW hits: 1952310
Loads Generated: 12634728
Loads sent to L1D: 10682418
Stores Generated: 6942484
Stores sent to L1D: 6942496
Major fault: 0 Minor fault: 2574
Allocated PAGES: 2574
I-Shadow cache 408 bytes
Touched + WorthPF tables 12288 bytes 
MMA filter 174 bytes 
FNL filter 272 bytes 
TOTAL PREFETCHER STORAGE SIZE: 31318 bytes
CPU 0 L1I next line prefetcher final stats

stream: 
stream:times selected: 1202573
stream:pref_filled: 117901
stream:pref_useful: 22071
stream:pref_late: 7387
stream:misses: 8230
stream:misses_by_poll: 0

CS: 
CS:times selected: 180194
CS:pref_filled: 53286
CS:pref_useful: 28694
CS:pref_late: 13643
CS:misses: 22905
CS:misses_by_poll: 5

CPLX: 
CPLX:times selected: 1021160
CPLX:pref_filled: 19416
CPLX:pref_useful: 3914
CPLX:pref_late: 3198
CPLX:misses: 94596
CPLX:misses_by_poll: 0

NL_L1: 
NL:times selected: 18870
NL:pref_filled: 577
NL:pref_useful: 210
NL:pref_late: 383
NL:misses: 1553
NL:misses_by_poll: 0

total selections: 2422797
total_filled: 95415
total_useful: 33831
total_late: 26188
total_polluted: 5
total_misses_after_warmup: 774359
conflicts: 5503088

test: 120680

DRAM Statistics
 CHANNEL 0
 RQ ROW_BUFFER_HIT:      10424  ROW_BUFFER_MISS:      19866
 DBUS_CONGESTED:          7
 WQ ROW_BUFFER_HIT:       1635  ROW_BUFFER_MISS:      13921  FULL:          0

 AVG_CONGESTED_CYCLE: 5

CPU 0 Branch Prediction Accuracy: 99.8082% MPKI: 0.35064 Average ROB Occupancy at Mispredict: 190.717
Branch types
NOT_BRANCH: 40857546 81.7151%
BRANCH_DIRECT_JUMP: 549090 1.09818%
BRANCH_INDIRECT: 183449 0.366898%
BRANCH_CONDITIONAL: 6184053 12.3681%
BRANCH_DIRECT_CALL: 941982 1.88396%
BRANCH_INDIRECT_CALL: 170972 0.341944%
BRANCH_RETURN: 1112958 2.22592%
BRANCH_OTHER: 0 0%

DRAM PAGES: 1048576
Allocated PAGES: 2574
Average_ROB_Occupancy: 255.466
Average_Decode_Occupancy: 36.0403
Average_FTQ_Occupancy: 12.2735
Indirect max targets: 14 Average targets: 1.17778
Branch_type:  BRANCH_DIRECT_JUMP:  Count Percentage: 3.34953 4.54466 3.83773 6.80612 3.54133 2.8486 4.13157 70.9405 
Branch_type:  BRANCH_INDIRECT:  Count Percentage: 11.7114 3.50663 2.63739 9.69583 3.33104 2.79447 1.72378 64.5994 
Branch_type:  BRANCH_CONDITIONAL:  Count Percentage: 21.198 6.04107 2.17242 4.66174 2.40831 2.24655 3.12412 58.1478 
Branch_type:  BRANCH_DIRECT_CALL:  Count Percentage: 0.856705 1.24598 0.776953 3.87214 3.42394 1.95091 4.32764 83.5457 
Branch_type:  BRANCH_INDIRECT_CALL:  Count Percentage: 9.54278 0 2.98883 5.33449 0.845529 1.71071 3.8455 75.7322 
Branch_type:  BRANCH_RETURN:  Count Percentage: 4.68552 4.31174 2.39008 4.38934 4.24666 3.16821 3.60693 73.2015 
Branch_type:  BRANCH_DIRECT_JUMP:  Total Count: 36796 49925 42159 74768 38903 31293 45387 779310 
Branch_type:  BRANCH_INDIRECT:  Total Count: 43020 12881 9688 35616 12236 10265 6332 237295 
Branch_type:  BRANCH_CONDITIONAL:  Total Count: 2621692 747139 268678 576548 297851 277846 386381 7191522 
Branch_type:  BRANCH_DIRECT_CALL:  Total Count: 16081 23388 14584 72683 64270 36620 81233 1568217 
Branch_type:  BRANCH_INDIRECT_CALL:  Total Count: 32538 0 10191 18189 2883 5833 13112 258224 
Branch_type:  BRANCH_RETURN:  Total Count: 103968 95674 53034 97396 94230 70300 80035 1624284 
Number of unique branch instructions: 10885
Upper 32 bits: 
aaaa
ffff
ffff0000
Unique upper 32 bits: 3
Unique upper 36 bits: 3
Unique upper 40 bits: 5
Unique upper 44 bits: 32
Unique upper 48 bits: 158
Offset_3 4506
Offset_4 263
Offset_5 488
Offset_6 553
Offset_7 650
Offset_8 592
Offset_9 523
Offset_10 428
Offset_11 356
Offset_12 326
Offset_13 242
Offset_14 247
Offset_15 205
Offset_16 233
Offset_17 170
Offset_18 154
Offset_19 272
Offset_20 147
Offset_21 235
Offset_22 412
Offset_23 241
Offset_24 348
Offset_25 117
Offset_47 92
Offset_64 4
decode_dispatch_called: 27463808 76.134
Dispatch_width: 0 14980889 54.5477 41.5294
Dispatch_width: 1 1105294 4.02455 3.06405
Dispatch_width: 2 985128 3.587 2.73093
Dispatch_width: 3 620830 2.26054 1.72104
Dispatch_width: 4 6694689 24.3764 18.5587
Dispatch_width: 5 178661 0.650533 0.495276
Dispatch_width: 6 2898317 10.5532 8.03459
Empty_decode_cycles: 8609177 23.866
ROB_full_cycles: 10634553 29.4807
Starvation_cycles_per_kilo_instr: 225.401
Starvation_cycles_per_kilo_instr_3: 156.668
Starvation_cycles_per_kilo_instr_0: 129.555
Branch_type_1  (3,1)  (4,9)  (5,39)  (6,76)  (7,126)  (8,153)  (9,138)  (10,111)  (11,79)  (12,55)  (13,11)  (14,2)  (15,3)  (16,4)  (18,1)  (19,5)  (20,2)  (21,1)  (22,3)  (23,2)  (24,10)  (25,12) 
Branch_type_2  (3,1)  (4,1)  (5,1)  (8,4)  (9,4)  (10,1)  (12,1)  (13,1)  (14,1)  (16,3)  (17,2)  (20,2)  (21,2)  (23,5)  (24,1)  (47,41) 
Branch_type_3  (3,4504)  (4,253)  (5,444)  (6,460)  (7,491)  (8,366)  (9,285)  (10,173)  (11,140)  (12,62)  (13,10)  (64,3) 
Branch_type_4  (6,4)  (7,8)  (8,27)  (9,58)  (10,68)  (11,71)  (12,117)  (13,103)  (14,112)  (15,98)  (16,104)  (17,77)  (18,66)  (19,132)  (20,75)  (21,124)  (22,217)  (23,136)  (24,203)  (25,101) 
Branch_type_5  (8,3)  (9,1)  (10,4)  (11,5)  (12,3)  (13,14)  (14,16)  (15,11)  (16,22)  (17,13)  (18,23)  (19,14)  (20,11)  (21,13)  (22,43)  (23,26)  (24,38) 
Branch_type_6  (5,4)  (6,13)  (7,25)  (8,39)  (9,37)  (10,71)  (11,61)  (12,88)  (13,103)  (14,116)  (15,93)  (16,100)  (17,78)  (18,64)  (19,121)  (20,57)  (21,95)  (22,149)  (23,72)  (24,96)  (25,4)  (47,51)  (64,1) 
Unique trigger count: 
BTB PER SET UNIQUE ADDR: 2 3 5 5 3 3 2 4 2 5 4 3 3 4 4 5 2 5 4 4 3 6 2 6 5 3 3 4 3 5 5 3 2 3 3 4 3 3 4 5 4 4 4 3 5 3 3 5 5 3 4 3 5 3 2 3 3 3 6 6 3 3 4 4 4 2 3 5 3 4 3 5 4 4 4 4 4 2 5 5 5 4 4 5 5 3 3 4 3 3 3 5 4 3 3 2 4 5 4 4 2 4 3 4 4 5 5 3 4 3 5 3 3 3 4 2 4 4 2 4 5 5 3 3 4 4 3 5 4 6 4 3 6 3 4 4 5 2 3 5 4 5 3 4 4 4 3 4 4 4 4 2 4 3 5 4 4 4 4 5 3 2 2 3 3 3 3 5 4 5 3 5 5 3 3 8 3 4 3 1 3 3 4 4 6 3 4 5 4 3 4 4 5 5 3 4 4 4 4 3 4 4 4 4 2 4 3 5 3 5 4 3 4 5 4 5 5 4 4 3 5 4 4 3 3 3 3 3 4 3 2 4 5 3 4 5 4 5 4 6 7 6 6 3 3 4 3 2 3 3 4 4 3 3 3 5 4 5 3 3 4 4 3 4 4 4 4 4 3 4 3 4 4 4 6 4 6 3 3 5 6 3 5 4 5 3 5 4 7 4 3 6 4 5 4 5 3 3 3 3 7 4 5 3 4 5 5 4 4 4 5 3 4 2 3 3 4 3 2 2 5 6 4 4 4 6 3 4 4 4 1 5 4 4 2 6 4 2 5 5 3 5 5 3 4 5 2 5 4 4 4 3 5 3 6 4 5 4 3 3 5 4 3 4 4 3 4 4 3 3 3 5 3 4 2 5 5 2 5 4 3 5 4 4 4 4 4 3 4 4 3 4 4 4 4 5 5 4 3 4 5 4 3 3 3 5 4 6 5 3 4 2 2 5 4 3 4 2 3 2 2 4 3 4 5 2 3 4 2 3 3 3 3 4 3 2 5 3 3 4 4 3 2 3 3 2 4 3 4 4 4 2 4 4 4 3 5 4 5 4 3 3 4 5 2 4 5 3 3 4 5 4 4 4 4 4 3 4 5 3 4 3 3 5 3 6 3 5 5 7 6 3 5 4 3 5 4 3 3 5 4 4 3 4 4 3 3 2 4 5 3 4 4 4 2 4 4 4 4 4 4 4 4 4 3 7 2 5 3 3 3 4 4 3 4 5 3 5 4 4 5 4 3 5 3 2 4 3 4 3 4 4 4 4 3 2 4 2 5 3 4 3 3 4 3 2 3 4 4 3 4 4 2 4 2 3 4 4 3 3 2 3 4 3 3 4 4 3 3 5 4 2 3 3 3 4 6 3 3 2 4 4 4 2 4 2 4 4 2 3 3 4 4 3 3 4 5 5 4 6 4 4 4 3 4 4 3 6 5 4 3 4 3 4 3 3 4 5 5 6 6 5 1 2 6 6 3 2 3 5 4 3 2 3 6 4 4 4 4 4 2 4 3 5 3 5 3 4 4 4 3 4 3 4 3 2 4 5 5 4 4 3 3 6 4 4 2 5 4 3 5 5 3 4 3 4 3 4 3 5 2 4 4 3 5 4 5 2 5 4 3 4 4 4 3 3 5 4 3 4 4 4 4 3 4 5 4 3 2 4 5 4 7 5 4 5 5 3 3 6 3 5 4 4 4 3 5 3 6 5 4 4 4 4 4 3 4 3 2 3 5 4 5 6 3 3 3 4 3 5 5 5 2 4 3 5 5 6 2 4 5 4 4 5 6 5 5 4 4 3 3 3 4 4 4 3 5 4 3 2 6 4 3 3 4 5 3 5 3 5 3 3 4 5 4 2 4 4 3 4 4 3 5 4 3 2 4 2 5 3 4 5 4 4 4 4 6 5 4 5 4 4 3 4 5 3 3 4 2 3 3 2 3 5 3 3 5 3 2 3 3 4 4 4 4 2 2 5 4 5 4 3 4 4 6 2 4 4 3 4 4 5 4 3 3 4 4 5 4 1 6 3 2 2 4 4 3 3 3 4 4 4 2 4 4 3 3 4 5 4 3 5 3 4 5 5 3 3 4 3 3 4 4 4 6 7 3 4 4 5 3 6 4 5 5 4 6 2 2 4 4 4 3 4 5 3 4 3 6 4 4 4 4 4 3 3 4 4 3 3 5 4 5 4 4 3 6 4 3 4 4 5 3 4 4 5 4 2 5 4 4 5 3 3 3 4 5 3 4 4 4 5 6 5 4 4 3 6 4 4 3 2 5 3 3 3 4 4 5 3 3 3 5 5 3 4 4 3 3 4 5 4 3 4 6 3 6 6 3 3 6 5 4 4 4 4 4 6 6 4 4 4 5 5 4 4 4 5 3 4 3 4 4 4 4 2 5 3 4 4 5 4 4 4 3 4 4 4 5 5 6 4 4 3 3 4 4 2 2 3 4 3 5 2 3 2 5 4 3 4 3 3 3 7 4 5 4 5 3 3 5 4 4 4 5 3 3 4 3 5 5 5 4 3 4 4 5 3 5 4 3 3 3 3 4 5 5 4 3 2 3 5 3 4 2 4 4 2 3 3 5 3 4 4 6 4 2 4 4 3 3 4 3 5 3 1 5 5 3 3 3 2 4 6 3 4 3 5 3 5 4 3 5 4 4 2 5 4 4 6 3 3 3 4 5 4 4 3 4 4 5 4 4 1 3 5 4 4 5 4 4 2 2 3 4 4 4 3 4 4 3 4 3 4 3 4 4 3 2 5 5 3 3 4 4 3 5 5 4 3 3 4 3 2 3 5 3 5 4 4 2 5 5 3 3 4 5 4 3 6 4 5 4 4 4 3 4 4 2 4 3 5 5 4 5 4 3 4 6 3 4 3 2 3 4 3 4 5 4 4 5 4 5 6 7 4 4 4 4 4 4 2 6 4 4 5 5 4 4 5 4 4 3 4 3 5 4 5 5 4 5 4 5 3 4 4 4 5 4 5 3 3 3 4 5 2 4 3 5 5 3 4 6 5 3 4 4 5 4 3 4 3 5 4 6 6 3 4 6 3 5 4 4 4 5 4 3 2 4 3 4 4 6 4 3 4 3 3 4 5 3 4 2 3 3 5 2 4 5 3 4 3 4 3 4 4 4 4 4 4 4 4 3 3 1 5 5 4 5 2 4 5 3 2 3 4 5 4 3 2 3 4 5 5 4 3 4 2 3 4 4 3 3 6 3 5 5 4 4 3 4 3 3 4 5 5 4 4 3 4 3 4 4 3 5 5 5 3 4 3 3 3 3 4 4 5 4 4 6 4 5 5 7 6 4 4 6 3 5 5 5 2 3 5 4 3 6 3 4 4 5 4 4 5 5 3 5 4 4 3 3 4 4 4 7 4 4 3 3 3 4 4 3 3 5 4 3 3 4 4 3 4 3 4 2 5 4 5 4 4 3 3 3 4 3 3 3 3 4 4 4 4 4 4 5 3 5 4 3 4 3 3 4 4 4 4 4 3 3 3 3 5 4 5 3 2 3 3 5 2 4 3 3 3 3 3 4 4 4 8 4 4 3 4 3 3 4 2 4 4 3 3 3 4 5 3 4 3 3 3 4 2 5 3 3 3 3 3 3 4 5 6 4 4 4 2 2 4 4 4 5 3 5 3 4 4 5 4 3 3 4 7 4 4 3 6 3 4 2 4 4 4 4 5 2 4 3 3 4 6 3 3 4 2 3 5 4 2 5 6 4 3 3 4 3 3 4 5 3 4 4 2 4 6 3 6 3 7 3 2 6 3 4 4 3 5 3 4 3 4 5 3 4 2 1 3 6 4 2 4 4 5 6 4 3 4 4 4 4 4 3 6 5 4 3 4 5 5 6 3 4 2 4 5 2 5 3 2 4 5 2 3 4 2 5 4 5 3 4 2 4 5 4 5 4 4 4 5 5 5 6 5 5 4 3 4 3 3 5 4 4 4 4 5 4 3 3 4 3 3 3 4 6 4 4 3 5 3 2 3 4 2 4 3 2 3 5 4 3 4 3 4 5 6 2 5 5 4 3 5 2 6 3 4 5 4 4 3 5 4 3 4 5 4 1 4 5 3 4 4 3 3 4 3 3 3 5 4 1 4 4 5 7 5 6 4 3 4 3 4 4 4 3 3 5 3 5 3 4 3 4 4 3 4 3 4 4 3 3 5 5 4 4 4 3 5 4 6 5 5 3 4 4 3 4 3 3 4 4 3 2 3 4 4 4 4 4 5 3 6 4 5 3 4 3 4 3 4 3 4 3 4 3 4 4 4 3 5 5 3 3 4 3 4 3 4 3 2 4 4 3 4 5 4 3 4 4 3 2 4 5 5 3 4 3 4 2 4 3 3 3 4 3 3 4 5 5 5 4 4 5 4 5 3 4 3 5 2 4 2 3 6 4 4 6 4 5 4 2 6 4 4 6 4 5 4 4 4 3 4 4 4 4 3 4 7 4 3 1 4 4 3 5 4 5 5 3 7 3 3 4 4 3 4 4 4 4 4 2 4 3 4 5 4 3 5 3 2 4 6 2 5 5 4 4 2 5 2 4 3 4 4 5 4 4 3 4 4 4 5 5 5 4 4 3 3 4 4 4 4 5 5 3 3 2 3 5 4 
BTB PER SET COUNT: 2 1698 1460 951 4 3 2 4 2 6 4 3 3 4 4 5 2 6 4 4 4 6 2 8 436 3 3 5 4 5 9 3 2 948 484 4 4 3 4 5 4 949 4 4 8 198 3 5 5 4 4 4 7 3 2 3 3 1023 7 7 949 4 5 4 4 2 5 8 3 4 4 5 5 4 321 4 4 2 1267 6 5 4 9 6 6 3 3 4 514 1022 3 10 4 3 5 3 4 5 4 4 3 5 5 4 4 6 5 5 4 3 6 4 3 3 6 2 4 4 2 1975 6 5 1553 3 7 4 5 5 4 7 4 3 7 3 4 4 5 2 3 5 726 7 3 4 4 4 3 4 5 12 4 448 4 3 6 950 4 1024 4 6 3 2 2 3 4 5 3 5 5 6 3 5 7 3 3 8 3 5 3 1 3 3 6 7 168 3 4 6 5 3 4 4 7 5 3 4 4 4 1465 3 9 1222 7 5 2 5 3 5 3 7 7 8 4 5 4 6 5 4 4 3 5 4 4 3 3 4 3 3 618 5 78 9 7 14562 4 5 5 5 4 7 9 8 9 3 6 4 3 90 3 3 4 388 3 6 3 8 6 8 4 3 4 4 3 4 5 4 4 5 4 4 3 5 4 4 9 5 6 3 7 6 7 3 6 4 7 4 5 4 400 4 4 7 4 6 521 5 4 3 3 3 8 4 1229 3 11 6 5 4 6 6 5 4 4 2 3 3 4 3 2 2 5 7 4 4 4 11 26 4 4 4 1 5 4 4 2 7 4 3 6 8 5 6 5 4 4 10 2 6 4 4 4 3 5 3 7 387 6 4 6 9 6 279 3 4 5 2406 4 7 4 4 3 6 2403 4 2 6 5 2 6 5 5 7 4 4 5 4 8 3 4 7 3 4 4 4 4 6 1334 5 3 5 5 10 3 3 8 8 6 7 7 3 6 2 2 7 4 4 5 2 5 3 2 5 4 521 7 2 3 4 3 3 3 7 4 4 32 3 5 7 3 5 7 3 2 4 373 2 1462 3 4 5 4 210 4 5 4 5 5 9 1024 4 3 5 1023 5 10 4 6 3 3 5 5 41 5 4 949 4 3 4 6 3 5 3 3 5 3 12 4 5 6 8 951 4 10 4 3 951 5 4 3 6 4 4 3 4 4 3 4 2 4 5 3 6 4 2044 2 4 4 520 4 4 5 5 4 5 3 7 2 8 3 3 1458 4 6 9 29 7 6 5 4 4 9 5 3 5 3 3 4 3 4 3 9 4 1024 4 3 2 4 2 6 4 1023 7940 3 4 3 2 1014 6 6 5 4 4 2 4 2 3 4 4 3 3 5 4 4 3 6 5 7 3 3 5 4 3 3 3 5 4 6 3 3 2 4 4 5 2 5 2 1015 4 2 3 3 4 5 3 3 4 6 8 5 7 4 6 8 4 5 5 3 7 5 4 3 4 3 4 3 3 5 5 444 7 7 6 1 3 6 6 6 2 4 514 4 3 2 3 6 4 4 4 4 4 2 164 5 7 4 515 3 4 4 4 3 4 3 4 3 1456 12 5 5 5 949 4 3 6 4 4 2 1380 4 3 5 6 3 4 3 4 3 5 3 7 2 5 4 3 5 6 7 2 8 4 4 5 4 4 3 1024 5 4 3 4 4 4 7 3 4 6 5 3 2 447 6 4 12 5 4 7 6 3 3 125 3 6 4 4 4 3 5 4 6 5 5 4 4 4 5 3 5 3 3 3 5 5 5 49 3 6 4 3427 3 7 5 6 4 4 4 6 6 7 2 4 5 4 4 5 6 5 6 6 125 3 5 3 4 6 4 3 10 4 3 2 7 4 3 3 4 7 3 6 5 5 3 3 4 6 4 3 4 6 3 5 4 3 5 4 3 2 6 2 5 513 4 7 4 4 4 4 11 5 5 6 6 4 1022 4 5 3 4 4 4 3 3 2 3 8 4 3 5 3 2 4 4 4 4 4 4 3 2 5 6 5 4 3 4 4 9 2 6 8 6 4 4 5 23 3 3 4 1024 6 4 1 1144 3 2 2 4 4 386 6 3 4 4 9 2 1015 4 3 6 4 42 109 3 5 3 4 5 455 3 3 4 4 513 4 4 6 6 8 1458 5 4 10 6 7 4 7 5 5 7 947 3 9 4 317 3 4 5 3 4 4 6 4 4 5 4 4 5 4 4 5 2042 3 5 4 5 6 4 3 516 4 4 4 4 5 3 7 8 5 5 2 13 6 4 5 3 3 5 6 5 948 4 4 5 5 7 5 4 5 4 7 4 62 3 2 7 3 4 3 4 4 1143 3 3 3 12 5 3 5 4 3 3 10 5 5 3 5 7 3 8 6 3 3 11 5 4 6 4 4 4 8 7 4 4 514 7 6 4 4 415 433 3 4 3 4 4 5 4 2 6 3 1459 5 7 4 4 4 3 4 4 5 8 5 7 4 5 4 4 4 6 2 2 5 4 3 6 2 3 2 5 4 3 6 3 3 3 7 4 5 5 5 92 3 6 7 6 4 5 218 32 4 3 5 309 5 5 3 4 4 7 21 5 4 3 4 12 4 6 6 5 5 4 2 3 6 3 4 2 4 4 2 5 3 5 20415 4 4 523 4 3 1023 4 3 4 5 3 5 3 1 6 5 3 3 4 2 5 10 7 7 3 6 3 5 514 4 7 6 5 2 5 5 6 7 3 6 3 4 7 4 950 3 6 5 8 4 4 1 1911 8 4 5 131 7 5 5 2 7 4 4 4 3 4 415 3 4 3 1459 3 4 4 3 2 6 387 3 3 4 4 3 5 6 4 3 4 6 4 2 3 5 4 12 4 5 2 10 6 3 8 5 1461 4 3 6 5 33 4 4 4 3 4 4 2 4 3 5 6 5 790 5 4 4 6 3 4 3 2 6 4 3 8 5 4 6 5 112 5 7 8 5 4 4 5 5 4 2 7 6 4 6 5 5 4 5 9 4 3 8 5 6 7 6 5 7 5 4 7 46 5 4 8 10 4 5 3 5 3 4 6 2 4 1466 6 6 4 5 8 7 4 4 84 6 4 3 5 3 5 573 524 8 4 4 54 3 8 4 4 5 5 4 4 2 4 3 4 5 10 6 3 4 3 3 4 5 3 4 2 3 10 5 2 6 5 3 4 3 4 3 4 5 4 4 4 159 8 5 3 3 1 5 6 4 5 2 4 5 3 2 6 4 5 9 3 2 4 5 5 5 11 3 4 215 3 4 4 3 3 8 3 5 12 5 4 1882 5 3 3 1896 5 254 5 4 3 5 4 10 5 1013 5 5 5 4 4 3 3 50 5 4 4 7 4 5 6 6 7 7 9 7 5 4 8 3 9 5 6 2 3 5 4 3 6 3 4 4 6 4 952 6 7 5 904 5 4 3 10 5 5 4 9 11 4 7 3 4 6 4 3 3 6 4 3 3 5 6 3 4 3 4 2 8 7 6 4 4 4 4 4 4 3 3 3 3 949 4 4 4 4 5 7 3 5 6 5 4 3 3 4 6 5 4 5 4 3 3 5 5 10 7 3 2 4 3 7 3 4 3 4 3 3 3 3155 85 5 10 4 6 5 4 3 5 5 2 5 1460 3 4 3 4 7 4 4 3 3 3 4 2 5 4 3 4 3 4 5 5 7 6 4 234 4 2 2 4 4 5 7 3 5 3 5 5 7 5 1014 4 4 8 454 4 3 11 3 5 2 4 4 4 4 7 2 5 3 3 4 9 81 3 4 2 3 5 7 4 5 7 4 431 3 5 4 3 4 7 3 8 5 2 5 11 4 6 736 9 3 2 8 4 7 4 3 6 3 9 4 5 6 6 5 2 1 4 6 4 2 4 5 5 9 4 5 4 6 4 5 4 4 6 6 4 3 1024 150 5 6 3 4 2 5 5 2 5 3 2 5 5 3 3 4 2 5 5 6 255 4 2 5 5 5 5 4 4 4 7 5 6 8 7 5 4 3 4 3 3 12 4 6 5 5 8 389 3 3 4 3 3 3 5 8 6 5 3 5 3 3 3 8 2 4 4 2 3 5 4 3 515 4 4 5 7 2 5 147 4 3 5 2 9 3 4 5 4 4 6 6 4 3 5 951 4 1 4 6 3 4 7 4 3 4 4 3 3 5 94 1 867 4 6 7 6 7 5 1464 4 3 4 514 7 3 3 7 4 5 3 4 4 411 4 4 4 4 1459 5 3 4 5 6 4 4 4 3 5 4 7 1463 5 4 4 4 3 4 4 3 4 8 5 3 3 6 519 4 6 4 950 5 6 6 5 3 4 6 4 4 6 3 4 3 4 3 4 7 4 3 5 1460 3 5 4 3 4 3 4 5 2 5 4 4 4 5 4 3 4 5 3 2 4 6 7 3 4 3 4 2 4 3 4 4 4 3 5 5 5 6 5 8 6 7 4 5 3 5 7 7 2 4 2 3 6 4 32 7 4 5 4 2 7 472 4 6 4 5 4 4 4 5 5 6 4 8 3 3055 8 4 97 1 4 216 4 6 4 5 9 4 9 3 3 7 5 3 4 4 5 4 5 3 6 3 5 5 4 3 5 1332 2 4 89 3 5 5 4 4 2 6 2 13 1458 5 7 6 1146 5 4 4 4 5 6 5 6 1025 4 3 3 147 4 4 5 5 5 3 3 2 5 5 4 
