
*** ChampSim Multicore Out-of-Order Simulator ***

Warmup Instructions: 50000000
Simulation Instructions: 50000000
Number of CPUs: 1
LLC sets: 2048
LLC ways: 16
Off-chip DRAM Size: 4096 MB Channels: 1 Width: 64-bit Data Rate: 6400 MT/s
CPU 0 runs ./micro_traces/srv458.trace.gz
.gz
ITLB has LRU replacement policy
DTLB has LRU replacement policy
STLB has LRU replacement policy
FDIP Prefetcher at L1I
L1I has LRU replacement policy
L1D has LRU replacement policy
Initialize SRRIP state for L2C
Initialize DRRIP state for LLC
Heartbeat_Variant_0 : 1090 0.354818 per_variant_size: 0 1090 0 0 0 0 0 0 0 
Heartbeat_Variant_1 : 945 0.307617 per_variant_size: 0 405 540 0 0 0 0 0 0 
Heartbeat_Variant_2 : 1030 0.335286 per_variant_size: 0 352 310 186 182 0 0 0 0 
Heartbeat_Variant_3 : 0 0 per_variant_size: 0 0 0 0 0 0 0 0 0 
Heartbeat_Variant_0_evicts 0 : 15195 1 : 9181 2 : 9322 3 : 0 
Heartbeat_Variant_1_evicts 0 : 9190 1 : 0 2 : 8207 3 : 0 
Heartbeat_Variant_2_evicts 0 : 9191 1 : 8281 2 : 0 3 : 0 
Heartbeat_Variant_3_evicts 0 : 0 1 : 0 2 : 0 3 : 0 
Heartbeat CPU 0 instructions: 10000003 cycles: 2797329 heartbeat IPC: 3.57484 cumulative IPC: 3.57484 (Simulation time: 0 hr 2 min 4 sec) 
Heartbeat_Variant_0 : 1084 0.352865 per_variant_size: 0 1084 0 0 0 0 0 0 0 
Heartbeat_Variant_1 : 942 0.306641 per_variant_size: 0 391 551 0 0 0 0 0 0 
Heartbeat_Variant_2 : 1042 0.339193 per_variant_size: 0 351 280 207 204 0 0 0 0 
Heartbeat_Variant_3 : 0 0 per_variant_size: 0 0 0 0 0 0 0 0 0 
Heartbeat_Variant_0_evicts 0 : 15227 1 : 9271 2 : 9261 3 : 0 
Heartbeat_Variant_1_evicts 0 : 9307 1 : 0 2 : 8403 3 : 0 
Heartbeat_Variant_2_evicts 0 : 9231 1 : 8442 2 : 0 3 : 0 
Heartbeat_Variant_3_evicts 0 : 0 1 : 0 2 : 0 3 : 0 
Heartbeat CPU 0 instructions: 20000000 cycles: 5594040 heartbeat IPC: 3.57563 cumulative IPC: 3.57523 (Simulation time: 0 hr 3 min 54 sec) 
Heartbeat_Variant_0 : 1066 0.347005 per_variant_size: 0 1066 0 0 0 0 0 0 0 
Heartbeat_Variant_1 : 950 0.309245 per_variant_size: 0 401 549 0 0 0 0 0 0 
Heartbeat_Variant_2 : 1052 0.342448 per_variant_size: 0 377 285 187 203 0 0 0 0 
Heartbeat_Variant_3 : 0 0 per_variant_size: 0 0 0 0 0 0 0 0 0 
Heartbeat_Variant_0_evicts 0 : 14863 1 : 8657 2 : 8784 3 : 0 
Heartbeat_Variant_1_evicts 0 : 8704 1 : 0 2 : 7903 3 : 0 
Heartbeat_Variant_2_evicts 0 : 8755 1 : 7942 2 : 0 3 : 0 
Heartbeat_Variant_3_evicts 0 : 0 1 : 0 2 : 0 3 : 0 
Heartbeat CPU 0 instructions: 30000003 cycles: 8391121 heartbeat IPC: 3.57516 cumulative IPC: 3.57521 (Simulation time: 0 hr 5 min 56 sec) 
Heartbeat_Variant_0 : 1057 0.344076 per_variant_size: 0 1057 0 0 0 0 0 0 0 
Heartbeat_Variant_1 : 990 0.322266 per_variant_size: 0 428 562 0 0 0 0 0 0 
Heartbeat_Variant_2 : 1022 0.332682 per_variant_size: 0 333 298 190 201 0 0 0 0 
Heartbeat_Variant_3 : 0 0 per_variant_size: 0 0 0 0 0 0 0 0 0 
Heartbeat_Variant_0_evicts 0 : 15657 1 : 9054 2 : 9314 3 : 0 
Heartbeat_Variant_1_evicts 0 : 9079 1 : 0 2 : 8061 3 : 0 
Heartbeat_Variant_2_evicts 0 : 9298 1 : 8047 2 : 0 3 : 0 
Heartbeat_Variant_3_evicts 0 : 0 1 : 0 2 : 0 3 : 0 
Heartbeat CPU 0 instructions: 40000001 cycles: 11187231 heartbeat IPC: 3.5764 cumulative IPC: 3.57551 (Simulation time: 0 hr 7 min 57 sec) 
Heartbeat_Variant_0 : 1058 0.344401 per_variant_size: 0 1058 0 0 0 0 0 0 0 
Heartbeat_Variant_1 : 994 0.323568 per_variant_size: 0 446 548 0 0 0 0 0 0 
Heartbeat_Variant_2 : 1017 0.331055 per_variant_size: 0 332 281 209 195 0 0 0 0 
Heartbeat_Variant_3 : 0 0 per_variant_size: 0 0 0 0 0 0 0 0 0 
Heartbeat_Variant_0_evicts 0 : 15359 1 : 9040 2 : 9277 3 : 0 
Heartbeat_Variant_1_evicts 0 : 9088 1 : 0 2 : 8430 3 : 0 
Heartbeat_Variant_2_evicts 0 : 9228 1 : 8474 2 : 0 3 : 0 
Heartbeat_Variant_3_evicts 0 : 0 1 : 0 2 : 0 3 : 0 
Heartbeat CPU 0 instructions: 50000000 cycles: 13981966 heartbeat IPC: 3.57816 cumulative IPC: 3.57604 (Simulation time: 0 hr 9 min 42 sec) 

Warmup complete CPU 0 instructions: 50000004 cycles: 13981967 (Simulation time: 0 hr 9 min 42 sec) 

Cycle: 20000000 FTQ IN: 56500671 FTQ occupancy: 17.8676 DECODE IN: 56500671 DECODE occupancy: 45.6956 ROB IN: 56500671 ROB occupancy: 275.547 ROB OUT: 56500606
Heartbeat_Variant_0 : 1075 0.349935 per_variant_size: 0 1075 0 0 0 0 0 0 0 
Heartbeat_Variant_1 : 957 0.311523 per_variant_size: 0 403 554 0 0 0 0 0 0 
Heartbeat_Variant_2 : 1037 0.337565 per_variant_size: 0 369 276 198 194 0 0 0 0 
Heartbeat_Variant_3 : 0 0 per_variant_size: 0 0 0 0 0 0 0 0 0 
Heartbeat_Variant_0_evicts 0 : 15528 1 : 9284 2 : 9211 3 : 0 
Heartbeat_Variant_1_evicts 0 : 9321 1 : 0 2 : 8301 3 : 0 
Heartbeat_Variant_2_evicts 0 : 9157 1 : 8375 2 : 0 3 : 0 
Heartbeat_Variant_3_evicts 0 : 0 1 : 0 2 : 0 3 : 0 
Heartbeat CPU 0 instructions: 60000001 cycles: 23279469 heartbeat IPC: 1.07556 cumulative IPC: 1.07556 (Simulation time: 0 hr 11 min 28 sec) 
Cycle: 30000000 FTQ IN: 10868538 FTQ occupancy: 6.40201 DECODE IN: 10868523 DECODE occupancy: 13.7275 ROB IN: 10868523 ROB occupancy: 116.657 ROB OUT: 10868559
Heartbeat_Variant_0 : 1065 0.34668 per_variant_size: 0 1065 0 0 0 0 0 0 0 
Heartbeat_Variant_1 : 959 0.312174 per_variant_size: 0 415 544 0 0 0 0 0 0 
Heartbeat_Variant_2 : 1045 0.340169 per_variant_size: 0 380 260 206 199 0 0 0 0 
Heartbeat_Variant_3 : 0 0 per_variant_size: 0 0 0 0 0 0 0 0 0 
Heartbeat_Variant_0_evicts 0 : 15383 1 : 8936 2 : 9009 3 : 0 
Heartbeat_Variant_1_evicts 0 : 8929 1 : 0 2 : 7892 3 : 0 
Heartbeat_Variant_2_evicts 0 : 9026 1 : 7883 2 : 0 3 : 0 
Heartbeat_Variant_3_evicts 0 : 0 1 : 0 2 : 0 3 : 0 
Heartbeat CPU 0 instructions: 70000002 cycles: 32407751 heartbeat IPC: 1.0955 cumulative IPC: 1.08544 (Simulation time: 0 hr 13 min 19 sec) 
Cycle: 40000000 FTQ IN: 10961771 FTQ occupancy: 6.1943 DECODE IN: 10961786 DECODE occupancy: 13.1118 ROB IN: 10961757 ROB occupancy: 111.8 ROB OUT: 10961657
Heartbeat_Variant_0 : 1056 0.34375 per_variant_size: 0 1056 0 0 0 0 0 0 0 
Heartbeat_Variant_1 : 948 0.308594 per_variant_size: 0 392 556 0 0 0 0 0 0 
Heartbeat_Variant_2 : 1065 0.34668 per_variant_size: 0 375 293 203 194 0 0 0 0 
Heartbeat_Variant_3 : 0 0 per_variant_size: 0 0 0 0 0 0 0 0 0 
Heartbeat_Variant_0_evicts 0 : 15393 1 : 9127 2 : 9271 3 : 0 
Heartbeat_Variant_1_evicts 0 : 9134 1 : 0 2 : 8363 3 : 0 
Heartbeat_Variant_2_evicts 0 : 9273 1 : 8381 2 : 0 3 : 0 
Heartbeat_Variant_3_evicts 0 : 0 1 : 0 2 : 0 3 : 0 
Heartbeat CPU 0 instructions: 80000000 cycles: 41682828 heartbeat IPC: 1.07816 cumulative IPC: 1.083 (Simulation time: 0 hr 15 min 2 sec) 
Cycle: 50000000 FTQ IN: 10724385 FTQ occupancy: 6.20983 DECODE IN: 10724364 DECODE occupancy: 12.9383 ROB IN: 10724340 ROB occupancy: 108.447 ROB OUT: 10724326
Heartbeat_Variant_0 : 1052 0.342448 per_variant_size: 0 1052 0 0 0 0 0 0 0 
Heartbeat_Variant_1 : 976 0.317708 per_variant_size: 0 423 553 0 0 0 0 0 0 
Heartbeat_Variant_2 : 1041 0.338867 per_variant_size: 0 337 292 205 207 0 0 0 0 
Heartbeat_Variant_3 : 0 0 per_variant_size: 0 0 0 0 0 0 0 0 0 
Heartbeat_Variant_0_evicts 0 : 15788 1 : 9308 2 : 9229 3 : 0 
Heartbeat_Variant_1_evicts 0 : 9347 1 : 0 2 : 8310 3 : 0 
Heartbeat_Variant_2_evicts 0 : 9194 1 : 8321 2 : 0 3 : 0 
Heartbeat_Variant_3_evicts 0 : 0 1 : 0 2 : 0 3 : 0 
Heartbeat CPU 0 instructions: 90000003 cycles: 50848702 heartbeat IPC: 1.091 cumulative IPC: 1.08499 (Simulation time: 0 hr 16 min 45 sec) 
Cycle: 60000000 FTQ IN: 10735036 FTQ occupancy: 6.1771 DECODE IN: 10735057 DECODE occupancy: 12.9412 ROB IN: 10735057 ROB occupancy: 111.204 ROB OUT: 10734850
Heartbeat_Variant_0 : 1069 0.347982 per_variant_size: 0 1069 0 0 0 0 0 0 0 
Heartbeat_Variant_1 : 972 0.316406 per_variant_size: 0 414 558 0 0 0 0 0 0 
Heartbeat_Variant_2 : 1028 0.334635 per_variant_size: 0 361 247 204 216 0 0 0 0 
Heartbeat_Variant_3 : 0 0 per_variant_size: 0 0 0 0 0 0 0 0 0 
Heartbeat_Variant_0_evicts 0 : 15848 1 : 9428 2 : 9398 3 : 0 
Heartbeat_Variant_1_evicts 0 : 9438 1 : 0 2 : 8462 3 : 0 
Heartbeat_Variant_2_evicts 0 : 9371 1 : 8476 2 : 0 3 : 0 
Heartbeat_Variant_3_evicts 0 : 0 1 : 0 2 : 0 3 : 0 
Heartbeat CPU 0 instructions: 100000001 cycles: 60202591 heartbeat IPC: 1.06907 cumulative IPC: 1.08177 (Simulation time: 0 hr 18 min 29 sec) 
Finished CPU 0 instructions: 50000001 cycles: 46220625 cumulative IPC: 1.08177 (Simulation time: 0 hr 18 min 29 sec) 

ChampSim completed all CPUs

Region of Interest Statistics

CPU 0 cumulative IPC: 1.08177 instructions: 50000001 cycles: 46220625
 Fetch stage stalled: 72.5192  Sim cycles: 46220625 fetch stall cycle: 33518808
 Empty decode stage: 64.5452  Sim cycles: 46220625 fetch stall cycle: 29833218
ITLB TOTAL     ACCESS:    5734956  HIT:    5241330  MISS:     493626  HIT %:    91.3927  MISS %:    8.60732   MPKI: 9.87252
ITLB LOAD TRANSLATION INSTRUCTION	ACCESS:    5633775  HIT:    5140149  MISS:     493626  HIT %:    91.2381  MISS %:     8.7619  MPKI: 9.87252
ITLB TRANSLATION FROM L1D PREFETCHER INSTRUCTION	ACCESS:     101181  HIT:     101181  MISS:          0  HIT %:        100  MISS %:          0  MPKI: 0

ITLB AVERAGE MISS LATENCY: 9.04532 cycles
ITLB RQ	ACCESS:    7534477	FORWARD:          0	MERGED:    1362446	TO_CACHE:    6172031

DTLB TOTAL     ACCESS:    9409453  HIT:    8934711  MISS:     474742  HIT %:    94.9546  MISS %:    5.04537   MPKI: 9.49484
DTLB LOAD TRANSLATION DATA	ACCESS:    9409453  HIT:    8934711  MISS:     474742  HIT %:    94.9546  MISS %:    5.04537  MPKI: 9.49484

DTLB AVERAGE MISS LATENCY: 9.31322 cycles
DTLB RQ	ACCESS:   13679418	FORWARD:          0	MERGED:    4236393	TO_CACHE:    9443025

STLB TOTAL     ACCESS:    1219752  HIT:    1217628  MISS:       2124  HIT %:    99.8259  MISS %:   0.174134   MPKI: 0.04248
STLB LOAD TRANSLATION INSTRUCTION	ACCESS:     493626  HIT:     493306  MISS:        320  HIT %:    99.9352  MISS %:  0.0648264  MPKI: 0.0064
STLB LOAD TRANSLATION DATA	ACCESS:     474473  HIT:     472702  MISS:       1771  HIT %:    99.6267  MISS %:   0.373256  MPKI: 0.03542
STLB TRANSLATION FROM L1D PREFETCHER DATA	ACCESS:     251653  HIT:     251620  MISS:         33  HIT %:    99.9869  MISS %:  0.0131133  MPKI: 0.00066

STLB AVERAGE MISS LATENCY: 69.2542 cycles
STLB RQ	ACCESS:    1339577	FORWARD:          0	MERGED:     119783	TO_CACHE:    1219794

STLB Hit, L1D data hit: 0
STLB Hit, L2C data hit: 0
STLB Hit, LLC data hit: 0
STLB Hit, LLC data miss: 0
STLB STLB hints to L2: 0
L1D TOTAL     ACCESS:   13438422  HIT:   12322020  MISS:    1116402  HIT %:    91.6925  MISS %:    8.30754   MPKI: 22.328
L1D LOAD DATA	ACCESS:    6864439  HIT:    6130834  MISS:     733605  HIT %:     89.313  MISS %:     10.687  MPKI: 14.6721
L1D RFO DATA	ACCESS:    6244229  HIT:    5956091  MISS:     288138  HIT %:    95.3855  MISS %:    4.61447  MPKI: 5.76276
L1D PREFETCH DATA	ACCESS:     329754  HIT:     235095  MISS:      94659  HIT %:    71.2941  MISS %:    28.7059  MPKI: 1.89318

L1D PREFETCH  REQUESTED:     742716  ISSUED:     742716  USEFUL:      34858  USELESS:      67863
L1D USEFUL LOAD PREFETCHES:      34858 PREFETCH ISSUED TO LOWER LEVEL:     102802  ACCURACY: 33.9079
 TIMELY PREFETCHES:      34858 LATE PREFETCHES: 8083 DROPPED PREFETCHES: 12
L1D AVERAGE MISS LATENCY: 276146 cycles
L1D RQ	ACCESS:   10938186	FORWARD:          0	MERGED:    3876456	TO_CACHE:    6897637
L1D WQ	ACCESS:    6950203	FORWARD:     164391	MERGED:     168422	TO_CACHE:    6781781
L1D PQ	ACCESS:     371507	FORWARD:          0	MERGED:          0	TO_CACHE:     371209

L1D UNIQUE REGIONS ACCESSED: 0
L1D REGIONS CONFLICTS: 0
L1D Cross Page Prefetch Requests: 6880
L1D Same Page Prefetch Requests: 749876
L1D ROI Sum of L1D PQ occupancy: 4712863
L1D PREFETCHES PUSHED FROM L2C: 0
L1I TOTAL     ACCESS:    7028441  HIT:    4266711  MISS:    2761730  HIT %:    60.7064  MISS %:    39.2936   MPKI: 55.2346
L1I LOAD INSTRUCTION	ACCESS:    6545213  HIT:    3783483  MISS:    2761730  HIT %:    57.8053  MISS %:    42.1947  MPKI: 55.2346
L1I PREFETCH INSTRUCTION	ACCESS:     483228  HIT:     483228  MISS:          0  HIT %:        100  MISS %:          0  MPKI: 0

L1I PREFETCH  REQUESTED:    1062533  ISSUED:    1062533  USEFUL:          0  USELESS:          0
L1I USEFUL LOAD PREFETCHES:          0 PREFETCH ISSUED TO LOWER LEVEL:          0  ACCURACY: -nan
 TIMELY PREFETCHES:          0 LATE PREFETCHES: 0 DROPPED PREFETCHES: 0
L1I AVERAGE MISS LATENCY: 17.1418 cycles
L1I RQ	ACCESS:    9437700	FORWARD:          0	MERGED:    2658733	TO_CACHE:    6778967
L1I PQ	ACCESS:    1062533	FORWARD:          0	MERGED:     307023	TO_CACHE:     755510

L1BTB TOTAL     ACCESS:    5670577  HIT:    2045434  MISS:    3625143  HIT %:     36.071  MISS %:     63.929   MPKI: 72.5029
L1BTB BRANCH_DIRECT_JUMP	ACCESS:     548697  HIT:     144823  MISS:     403874	AVERAGE STALL: 33.6396
L1BTB BRANCH_INDIRECT	ACCESS:     183287  HIT:      66286  MISS:     117001	AVERAGE STALL: 79.4467
L1BTB BRANCH_CONDITIONAL	ACCESS:    2712380  HIT:    1420474  MISS:    1291906	AVERAGE STALL: 34.9159
L1BTB BRANCH_DIRECT_CALL	ACCESS:     941975  HIT:     104404  MISS:     837571	AVERAGE STALL: 36.387
L1BTB BRANCH_INDIRECT_CALL	ACCESS:     171131  HIT:      20796  MISS:     150335	AVERAGE STALL: 107.215
L1BTB BRANCH_RETURN	ACCESS:    1113107  HIT:     288651  MISS:     824456	AVERAGE STALL: 36.4378
L1BTB BRANCH_OTHER ACCESS:          0  HIT:          0  MISS:          0	AVERAGE STALL: -nan
L1BTB TOTAL ROB OCCUPANCY AT BTB MISS: 12.8202

L2BTB TOTAL     ACCESS:    3599706  HIT:    3082255  MISS:     517451  HIT %:    85.6252  MISS %:    14.3748   MPKI: 10.349
L2BTB BRANCH_DIRECT_JUMP	ACCESS:     399687  HIT:     344339  MISS:      55348	AVERAGE STALL: 33.6396
L2BTB BRANCH_INDIRECT	ACCESS:     106730  HIT:      98036  MISS:       8694	AVERAGE STALL: 79.4467
L2BTB BRANCH_CONDITIONAL	ACCESS:    1291906  HIT:    1134812  MISS:     157094	AVERAGE STALL: 34.9159
L2BTB BRANCH_DIRECT_CALL	ACCESS:     837570  HIT:     682441  MISS:     155129	AVERAGE STALL: 36.387
L2BTB BRANCH_INDIRECT_CALL	ACCESS:     140765  HIT:     107800  MISS:      32965	AVERAGE STALL: 107.215
L2BTB BRANCH_RETURN	ACCESS:     823048  HIT:     714827  MISS:     108221	AVERAGE STALL: 36.4378
L2BTB BRANCH_OTHER ACCESS:          0  HIT:          0  MISS:          0	AVERAGE STALL: -nan
L2BTB TOTAL ROB OCCUPANCY AT BTB MISS: 89.8156

L2C TOTAL     ACCESS:    4493102  HIT:    3983685  MISS:     509417  HIT %:    88.6622  MISS %:    11.3378   MPKI: 10.1883
L2C LOAD INSTRUCTION	ACCESS:    2761730  HIT:    2507016  MISS:     254714  HIT %:     90.777  MISS %:    9.22299  MPKI: 5.09428
L2C LOAD TRANSLATION INSTRUCTION	ACCESS:        360  HIT:         97  MISS:        263  HIT %:    26.9444  MISS %:    73.0556  MPKI: 0.00526
L2C LOAD DATA	ACCESS:     725499  HIT:     641624  MISS:      83875  HIT %:     88.439  MISS %:     11.561  MPKI: 1.6775
L2C RFO DATA	ACCESS:     288056  HIT:     221198  MISS:      66858  HIT %:    76.7899  MISS %:    23.2101  MPKI: 1.33716
L2C PREFETCH DATA	ACCESS:     193902  HIT:     114332  MISS:      79570  HIT %:    58.9638  MISS %:    41.0362  MPKI: 1.5914
L2C WRITEBACK DATA	ACCESS:     521642  HIT:     498797  MISS:      22845  HIT %:    95.6206  MISS %:    4.37944  MPKI: 0.4569
L2C LOAD TRANSLATION DATA	ACCESS:       1853  HIT:        578  MISS:       1275  HIT %:    31.1927  MISS %:    68.8073  MPKI: 0.0255
L2C TRANSLATION FROM L1D PREFETCHER DATA	ACCESS:         60  HIT:         43  MISS:         17  HIT %:    71.6667  MISS %:    28.3333  MPKI: 0.00034

L2C PREFETCH  REQUESTED:      99275  ISSUED:      99275  USEFUL:       8391  USELESS:      71905
L2C USEFUL LOAD PREFETCHES:       8391 PREFETCH ISSUED TO LOWER LEVEL:      79996  ACCURACY: 10.4893
 TIMELY PREFETCHES:       8391 LATE PREFETCHES: 426 DROPPED PREFETCHES: 0
L2C AVERAGE MISS LATENCY: 37.9893 cycles
L2C RQ	ACCESS:    3777604	FORWARD:          0	MERGED:          0	TO_CACHE:    3777559
L2C WQ	ACCESS:     521642	FORWARD:         45	MERGED:          0	TO_CACHE:     521642
L2C PQ	ACCESS:     202077	FORWARD:          0	MERGED:       3780	TO_CACHE:     198297

L2C Dense regions hint from L2: 0
PSCL5 TOTAL     ACCESS:       4276  HIT:       2138  MISS:       2138  HIT %:         50  MISS %:         50   MPKI: 0.04276
PSCL5 LOAD TRANSLATION INSTRUCTION	ACCESS:       4158  HIT:       2079  MISS:       2079  HIT %:         50  MISS %:         50  MPKI: 0.04158
PSCL5 TRANSLATION FROM L1D PREFETCHER INSTRUCTION	ACCESS:        118  HIT:         59  MISS:         59  HIT %:         50  MISS %:         50  MPKI: 0.00118


PSCL4 TOTAL     ACCESS:       4002  HIT:       1995  MISS:       2007  HIT %:    49.8501  MISS %:    50.1499   MPKI: 0.04014
PSCL4 LOAD TRANSLATION INSTRUCTION	ACCESS:       2352  HIT:       1937  MISS:        415  HIT %:    82.3554  MISS %:    17.6446  MPKI: 0.0083
PSCL4 TRANSLATION FROM L1D PREFETCHER INSTRUCTION	ACCESS:         70  HIT:         58  MISS:         12  HIT %:    82.8571  MISS %:    17.1429  MPKI: 0.00024
PSCL4 LOAD TRANSLATION DATA	ACCESS:       1534  HIT:          0  MISS:       1534  HIT %:          0  MISS %:        100  MPKI: 0.03068
PSCL4 TRANSLATION FROM L1D PREFETCHER DATA	ACCESS:         46  HIT:          0  MISS:         46  HIT %:          0  MISS %:        100  MPKI: 0.00092


PSCL3 TOTAL     ACCESS:       4134  HIT:       2061  MISS:       2073  HIT %:    49.8549  MISS %:    50.1451   MPKI: 0.04146
PSCL3 LOAD TRANSLATION INSTRUCTION	ACCESS:       2418  HIT:       2003  MISS:        415  HIT %:    82.8371  MISS %:    17.1629  MPKI: 0.0083
PSCL3 TRANSLATION FROM L1D PREFETCHER INSTRUCTION	ACCESS:         70  HIT:         58  MISS:         12  HIT %:    82.8571  MISS %:    17.1429  MPKI: 0.00024
PSCL3 LOAD TRANSLATION DATA	ACCESS:       1600  HIT:          0  MISS:       1600  HIT %:          0  MISS %:        100  MPKI: 0.032
PSCL3 TRANSLATION FROM L1D PREFETCHER DATA	ACCESS:         46  HIT:          0  MISS:         46  HIT %:          0  MISS %:        100  MPKI: 0.00092


PSCL2 TOTAL     ACCESS:       4162  HIT:       2024  MISS:       2138  HIT %:    48.6305  MISS %:    51.3695   MPKI: 0.04276
PSCL2 LOAD TRANSLATION INSTRUCTION	ACCESS:       2288  HIT:       1966  MISS:        322  HIT %:    85.9266  MISS %:    14.0734  MPKI: 0.00644
PSCL2 TRANSLATION FROM L1D PREFETCHER INSTRUCTION	ACCESS:         58  HIT:         58  MISS:          0  HIT %:        100  MISS %:          0  MPKI: 0
PSCL2 LOAD TRANSLATION DATA	ACCESS:       1758  HIT:          0  MISS:       1758  HIT %:          0  MISS %:        100  MPKI: 0.03516
PSCL2 TRANSLATION FROM L1D PREFETCHER DATA	ACCESS:         58  HIT:          0  MISS:         58  HIT %:          0  MISS %:        100  MPKI: 0.00116


LLC TOTAL     ACCESS:     579413  HIT:     549276  MISS:      30137  HIT %:    94.7987  MISS %:     5.2013   MPKI: 0.60274
LLC LOAD INSTRUCTION	ACCESS:     254714  HIT:     253531  MISS:       1183  HIT %:    99.5356  MISS %:   0.464442  MPKI: 0.02366
LLC LOAD TRANSLATION INSTRUCTION	ACCESS:        263  HIT:        243  MISS:         20  HIT %:    92.3954  MISS %:    7.60456  MPKI: 0.0004
LLC LOAD DATA	ACCESS:      83488  HIT:      80067  MISS:       3421  HIT %:    95.9024  MISS %:    4.09759  MPKI: 0.06842
LLC RFO DATA	ACCESS:      66808  HIT:      51500  MISS:      15308  HIT %:    77.0866  MISS %:    22.9134  MPKI: 0.30616
LLC PREFETCH DATA	ACCESS:      79994  HIT:      70273  MISS:       9721  HIT %:    87.8478  MISS %:    12.1522  MPKI: 0.19442
LLC WRITEBACK DATA	ACCESS:      92854  HIT:      92449  MISS:        405  HIT %:    99.5638  MISS %:   0.436169  MPKI: 0.0081
LLC LOAD TRANSLATION DATA	ACCESS:       1275  HIT:       1197  MISS:         78  HIT %:    93.8824  MISS %:    6.11765  MPKI: 0.00156
LLC TRANSLATION FROM L1D PREFETCHER DATA	ACCESS:         17  HIT:         16  MISS:          1  HIT %:    94.1176  MISS %:    5.88235  MPKI: 2e-05

LLC AVERAGE MISS LATENCY: 156.306 cycles
LLC RQ	ACCESS:     406576	FORWARD:          0	MERGED:          0	TO_CACHE:     406565
LLC WQ	ACCESS:      92854	FORWARD:         13	MERGED:          0	TO_CACHE:      92854
LLC PQ	ACCESS:      79996	FORWARD:          0	MERGED:          0	TO_CACHE:      79994

LLC Dense regions hint to LLC: 0

RAW hits: 1704924
Loads Generated: 12643108
Loads sent to L1D: 10938186
Stores Generated: 6950194
Stores sent to L1D: 6950203
Major fault: 0 Minor fault: 2546
Allocated PAGES: 2546

stream: 
stream:times selected: 1185043
stream:pref_filled: 121983
stream:pref_useful: 24101
stream:pref_late: 6900
stream:misses: 8066
stream:misses_by_poll: 0

CS: 
CS:times selected: 178921
CS:pref_filled: 59969
CS:pref_useful: 36635
CS:pref_late: 7007
CS:misses: 16508
CS:misses_by_poll: 1

CPLX: 
CPLX:times selected: 1004976
CPLX:pref_filled: 19916
CPLX:pref_useful: 4787
CPLX:pref_late: 3230
CPLX:misses: 94148
CPLX:misses_by_poll: 0

NL_L1: 
NL:times selected: 20949
NL:pref_filled: 692
NL:pref_useful: 279
NL:pref_late: 325
NL:misses: 1816
NL:misses_by_poll: 0

total selections: 2389889
total_filled: 94659
total_useful: 34858
total_late: 18861
total_polluted: 1
total_misses_after_warmup: 766804
conflicts: 5670979

test: 115052

DRAM Statistics
 CHANNEL 0
 RQ ROW_BUFFER_HIT:      11358  ROW_BUFFER_MISS:      18369
 DBUS_CONGESTED:         13
 WQ ROW_BUFFER_HIT:       1376  ROW_BUFFER_MISS:      12744  FULL:          0

 AVG_CONGESTED_CYCLE: 5

CPU 0 Branch Prediction Accuracy: 99.8221% MPKI: 0.32518 Average ROB Occupancy at Mispredict: 126.327
Branch types
NOT_BRANCH: 40857664 81.7153%
BRANCH_DIRECT_JUMP: 548697 1.09739%
BRANCH_INDIRECT: 183287 0.366574%
BRANCH_CONDITIONAL: 6183763 12.3675%
BRANCH_DIRECT_CALL: 941975 1.88395%
BRANCH_INDIRECT_CALL: 171131 0.342262%
BRANCH_RETURN: 1113107 2.22621%
BRANCH_OTHER: 0 0%

DRAM PAGES: 1048576
Allocated PAGES: 2546
Average_ROB_Occupancy: 112.178
Average_Decode_Occupancy: 13.0629
Average_FTQ_Occupancy: 6.20511
Indirect max targets: 14 Average targets: 1.15333
Branch_type:  BRANCH_DIRECT_JUMP:  Count Percentage: 3.40006 4.3777 5.99389 14.4965 1.69574 6.58066 0.939742 62.5157 
Branch_type:  BRANCH_INDIRECT:  Count Percentage: 11.7695 3.45676 12.1929 23.3643 1.33933 14.5217 1.07403 32.2815 
Branch_type:  BRANCH_CONDITIONAL:  Count Percentage: 21.2334 2.50698 3.0038 8.91859 1.3434 4.7309 0.583102 57.6798 
Branch_type:  BRANCH_DIRECT_CALL:  Count Percentage: 0.767899 1.27784 1.42731 4.94758 2.44448 2.72251 0.774411 85.638 
Branch_type:  BRANCH_INDIRECT_CALL:  Count Percentage: 9.57335 0.565196 3.00116 4.85357 0.000582977 3.56811 0 78.438 
Branch_type:  BRANCH_RETURN:  Count Percentage: 4.46581 0.698494 3.51495 9.43406 2.12679 5.28695 1.01253 73.4604 
Branch_type:  BRANCH_DIRECT_JUMP:  Total Count: 37230 47935 65632 158734 18568 72057 10290 684535 
Branch_type:  BRANCH_INDIRECT:  Total Count: 43033 12639 44581 85427 4897 53096 3927 118031 
Branch_type:  BRANCH_CONDITIONAL:  Total Count: 2623851 309792 371185 1102086 166006 584606 72055 7127599 
Branch_type:  BRANCH_DIRECT_CALL:  Total Count: 14503 24134 26957 93443 46168 51419 14626 1617411 
Branch_type:  BRANCH_INDIRECT_CALL:  Total Count: 32843 1939 10296 16651 2 12241 0 269095 
Branch_type:  BRANCH_RETURN:  Total Count: 99700 15594 78472 210617 47481 118032 22605 1640017 
Number of unique branch instructions: 9934
Upper 32 bits: 
aaaa
ffff
ffff0000
Unique upper 32 bits: 3
Unique upper 36 bits: 3
Unique upper 40 bits: 5
Unique upper 44 bits: 32
Unique upper 48 bits: 156
Variant_0 : 1069 0.347982
Variant_1 : 972 0.316406
Variant_2 : 1028 0.334635
Variant_3 : 0 0
Offset_3 4093
Offset_4 256
Offset_5 454
Offset_6 502
Offset_7 580
Offset_8 509
Offset_9 474
Offset_10 383
Offset_11 310
Offset_12 273
Offset_13 202
Offset_14 226
Offset_15 188
Offset_16 218
Offset_17 149
Offset_18 118
Offset_19 234
Offset_20 136
Offset_21 261
Offset_22 390
Offset_23 241
Offset_24 340
Offset_25 88
Offset_47 84
Offset_64 2
decode_dispatch_called: 20373720 44.0793
Dispatch_width: 0 10272293 50.4193 22.2245
Dispatch_width: 1 559053 2.74399 1.20953
Dispatch_width: 2 704919 3.45994 1.52512
Dispatch_width: 3 481349 2.3626 1.04142
Dispatch_width: 4 1592085 7.81441 3.44453
Dispatch_width: 5 365639 1.79466 0.791073
Dispatch_width: 6 6398382 31.4051 13.8431
Empty_decode_cycles: 25846905 55.9207
ROB_full_cycles: 2044780 4.42396
Starvation_cycles_per_kilo_instr: 377.775
Starvation_cycles_per_kilo_instr_3: 358.197
Starvation_cycles_per_kilo_instr_0: 340.744
Branch_type_1  (3,1)  (4,8)  (5,38)  (6,69)  (7,115)  (8,129)  (9,128)  (10,100)  (11,69)  (12,43)  (13,8)  (14,2)  (15,3)  (16,4)  (18,1)  (19,4)  (20,2)  (21,1)  (22,3)  (23,2)  (24,10)  (25,12) 
Branch_type_2  (3,1)  (5,1)  (8,3)  (9,3)  (12,1)  (13,1)  (14,1)  (16,3)  (17,2)  (20,2)  (21,2)  (23,5)  (24,1)  (47,38) 
Branch_type_3  (3,4091)  (4,248)  (5,411)  (6,418)  (7,435)  (8,319)  (9,261)  (10,154)  (11,123)  (12,50)  (13,7)  (64,1) 
Branch_type_4  (6,3)  (7,8)  (8,25)  (9,50)  (10,60)  (11,61)  (12,96)  (13,85)  (14,100)  (15,89)  (16,97)  (17,67)  (18,53)  (19,114)  (20,70)  (21,141)  (22,206)  (23,136)  (24,191)  (25,72)  (64,1) 
Branch_type_5  (8,2)  (9,1)  (10,4)  (11,5)  (12,3)  (13,14)  (14,16)  (15,11)  (16,20)  (17,11)  (18,16)  (19,13)  (20,11)  (21,13)  (22,42)  (23,26)  (24,40) 
Branch_type_6  (5,4)  (6,12)  (7,22)  (8,31)  (9,31)  (10,65)  (11,52)  (12,80)  (13,87)  (14,107)  (15,85)  (16,94)  (17,69)  (18,48)  (19,103)  (20,51)  (21,104)  (22,139)  (23,72)  (24,98)  (25,4)  (47,46) 
Unique trigger count: 
Variant_0_evicts_0 : 0
Variant_0_evicts_1 : 0
Variant_0_evicts_2 : 0
Variant_0_evicts_3 : 0
Variant_1_evicts_0 : 0
Variant_1_evicts_1 : 0
Variant_1_evicts_2 : 0
Variant_1_evicts_3 : 0
Variant_2_evicts_0 : 0
Variant_2_evicts_1 : 0
Variant_2_evicts_2 : 0
Variant_2_evicts_3 : 0
Variant_3_evicts_0 : 0
Variant_3_evicts_1 : 0
Variant_3_evicts_2 : 0
Variant_3_evicts_3 : 0
BTB PER SET UNIQUE ADDR: 45 50 42 55 43 38 37 39 41 48 42 57 41 44 45 37 43 44 41 50 44 33 36 38 49 50 44 55 43 39 46 45 59 39 49 48 54 43 34 39 42 40 43 58 45 44 45 41 61 51 42 46 43 57 37 36 45 38 36 47 44 56 48 48 51 46 42 44 53 45 48 42 54 39 39 36 40 50 39 66 44 41 44 46 43 40 56 49 46 67 46 43 48 43 29 51 47 38 50 47 64 50 41 49 48 41 45 36 34 41 37 53 51 35 40 41 49 48 50 44 46 36 44 31 43 40 31 50 61 42 38 44 43 50 43 52 28 54 39 58 42 60 38 43 42 45 49 45 50 42 48 50 39 47 33 55 44 45 38 51 40 38 54 57 48 42 47 49 47 44 46 49 40 50 48 40 44 40 43 54 38 48 44 51 49 54 34 50 53 42 50 40 42 53 46 49 47 42 50 49 46 52 42 44 45 43 48 42 53 49 48 58 40 51 48 47 41 53 51 55 40 49 45 48 46 45 53 42 40 53 50 37 52 59 38 46 54 46 35 48 40 47 57 51 45 37 36 43 34 38 39 42 42 45 49 42 20 16 19 22 24 19 8 22 20 15 20 19 19 21 20 22 17 13 16 14 23 27 20 22 16 23 16 17 24 18 18 33 32 26 25 16 23 28 17 29 24 26 23 23 21 21 18 36 22 29 25 19 31 22 22 26 20 34 25 13 27 21 20 29 19 27 19 23 28 28 23 17 20 16 22 29 17 20 20 23 18 18 18 38 24 24 15 25 27 26 18 23 20 22 24 21 25 21 23 25 24 26 19 16 18 29 20 28 21 25 11 23 25 24 23 17 23 25 18 30 23 29 20 24 22 22 18 19 20 21 27 27 23 23 28 14 24 29 17 16 20 18 29 23 19 26 23 23 28 25 26 26 21 23 25 18 19 27 21 22 20 29 37 34 18 27 24 24 25 17 26 18 22 22 29 23 19 22 29 26 24 19 20 26 26 19 17 28 33 20 16 23 29 24 26 37 25 17 27 32 25 27 18 29 17 23 19 26 33 20 22 23 26 26 23 27 26 22 24 33 26 34 17 25 34 28 20 25 14 27 34 29 27 22 19 25 19 16 17 20 22 26 21 26 20 29 18 33 19 18 19 29 26 25 24 30 23 22 21 26 21 30 17 17 17 21 23 15 23 32 34 14 14 32 28 24 24 24 27 31 20 24 27 21 26 20 25 24 26 30 15 26 16 23 24 31 26 23 19 24 22 23 32 25 20 33 23 21 22 29 23 28 23 29 29 25 28 34 22 28 28 28 24 23 23 25 13 24 27 25 21 25 33 25 20 21 24 16 24 16 14 21 23 20 23 21 23 13 22 24 31 20 21 25 30 24 21 17 10 29 16 28 20 25 28 24 18 19 20 31 21 28 19 22 16 26 31 23 24 21 24 28 24 27 22 26 26 29 26 25 20 25 33 18 17 24 19 18 27 23 23 23 27 23 23 13 28 31 22 25 18 20 18 20 23 19 19 26 33 20 26 26 28 30 21 29 19 24 25 21 20 20 27 28 23 24 21 16 16 20 19 27 20 25 14 26 28 33 13 28 22 17 16 13 21 24 17 21 17 19 31 24 19 27 26 23 20 20 20 21 23 21 19 20 27 20 22 18 21 23 26 30 33 20 19 19 19 25 29 29 20 24 22 18 23 17 22 23 18 22 32 22 19 17 23 13 13 24 22 26 16 26 
BTB PER SET COUNT: 1997 2148 3397 2489 2388 1706 1842 1611 1904 2129 1464 3086 15755 3193 2030 1477 2257 2069 2045 2231 2091 1264 1969 2019 1881 2588 2280 2835 2166 2063 2133 2779 2842 1685 2186 2694 2561 1974 1513 2541 1560 1587 1645 4301 2143 1736 2377 2560 3227 2696 2199 2577 2099 2743 1593 1682 2155 1751 1721 2017 2069 3297 2250 2437 2193 2362 1501 2610 2384 2138 2584 2103 2453 1953 1518 1797 1835 2596 1635 2626 2140 3264 2421 2404 1577 2753 2488 2323 2739 3345 2124 1994 2629 2255 1411 1985 2394 1419 2194 3689 3666 2435 1625 2422 3733 1420 2090 1283 1680 1905 2429 3022 2854 1436 2029 2067 2193 2643 3623 2396 2405 1640 2209 1527 2373 2506 1208 2459 3421 1854 2076 2928 2173 2221 1977 2866 1656 2201 1605 2730 1841 2704 1706 1529 1931 2189 2780 2068 2653 2459 1803 2245 2013 2353 887 2481 2018 2263 1227 2953 1744 1775 2522 2814 2466 2404 1636 2992 2179 1719 2736 2341 1470 3027 2419 1696 1744 1625 2111 2832 1604 2230 2646 3250 2318 3715 1048 2207 2539 1757 2225 1694 1965 2779 2180 1995 2215 1563 2344 2139 2142 2185 2033 2584 1717 2114 3269 2063 2619 2363 2778 3031 1746 3660 2202 3162 1627 3101 3484 2683 1790 2083 2209 2882 2063 2135 2297 2169 1801 2796 1902 1624 2448 3360 1694 3505 2266 2427 2021 2195 2277 2590 3341 2934 2229 1846 1697 2007 1350 1629 1523 1555 1505 2652 2217 2274 594 740 599 726 1005 523 139 992 641 346 810 640 1511 736 614 750 476 301 648 340 877 996 629 1005 240 1003 954 863 748 634 227 1470 1115 871 683 406 564 1503 468 1152 1450 1053 647 1158 513 620 291 1579 539 1130 1008 683 1444 1459 953 1061 637 1278 2383 771 1014 818 671 1301 491 2692 383 611 1188 1597 1112 515 578 398 841 1149 505 479 530 1046 376 1382 399 1585 812 1812 444 1055 1154 686 439 895 536 880 920 490 924 530 587 732 701 1144 473 546 677 1113 492 1064 557 1796 233 846 946 705 798 648 1046 1154 793 964 763 1005 633 1107 952 692 694 384 543 664 2595 1211 674 1239 1213 335 816 1649 499 643 521 762 1533 1225 618 743 840 617 1080 961 1044 764 770 978 1054 307 516 1355 736 890 727 2155 1654 1017 623 905 813 886 746 515 1366 644 743 944 1226 754 609 690 1510 1127 895 834 503 736 1598 674 497 1063 1958 789 880 1106 1017 976 1686 2175 995 505 1232 2000 973 943 672 1243 522 666 576 1390 1373 728 6438 690 926 1070 931 1029 743 852 713 1423 825 1741 630 1097 1634 1233 585 809 914 987 1539 1168 1839 699 877 794 4805 520 414 810 1079 2102 834 647 642 1134 593 1291 739 384 564 1550 955 753 910 2257 1815 1400 656 1330 577 1212 567 744 384 772 770 747 926 1438 2005 1111 688 2180 1533 1056 807 713 1159 1274 920 1486 914 897 1121 670 835 1059 888 1340 262 723 532 1114 885 1341 1246 982 551 502 858 666 1349 1008 473 1355 689 808 1241 1091 795 1157 1067 1144 1401 863 935 1218 2513 944 1250 1412 934 894 986 1122 388 2703 836 1203 997 840 1629 920 950 595 708 368 1013 483 1038 1229 812 482 395 908 825 370 1048 711 1177 2891 450 793 1236 1561 1256 368 246 1002 329 945 996 1122 1138 686 402 750 564 1025 601 1264 1915 620 308 1434 1233 675 802 860 873 1373 531 1428 810 1037 1074 892 1424 930 981 1167 1560 409 347 966 378 546 2264 949 743 698 1080 1577 733 248 1479 1161 6120 877 559 1339 1482 771 766 637 743 836 1556 796 805 845 1018 1212 877 935 748 582 1502 720 598 661 1269 1064 568 730 699 400 3062 709 854 1994 759 702 1332 1050 1232 1126 254 1032 745 602 366 402 778 1016 813 569 809 616 1409 852 654 1269 914 1062 672 1042 2037 668 697 873 861 1051 1090 6623 750 580 606 840 1116 1083 1388 468 982 433 805 812 1145 935 1630 491 885 625 1730 539 1263 2625 1581 734 1275 1158 559 500 931 405 295 802 1885 1358 374 1195 
To predecode: 0
Predecoding something: 0
Predecode request dropped: 0
sizeofblock_0 0
sizeofblock_1 374513
sizeofblock_2 242898
sizeofblock_3 86673
sizeofblock_4 48754
sizeofblock_5 0
sizeofblock_6 0
sizeofblock_7 0
sizeofblock_8 0
Variant_0 Correct: 1332614 Incorrect: 0 Accuracy: 1
Variant_1 Correct: 1802471 Incorrect: 0 Accuracy: 1
Variant_2 Correct: 3303462 Incorrect: 0 Accuracy: 1
Variant_3 Correct: 0 Incorrect: 0 Accuracy: -nan
