
*** ChampSim Multicore Out-of-Order Simulator ***

Warmup Instructions: 50000000
Simulation Instructions: 50000000
Number of CPUs: 1
LLC sets: 2048
LLC ways: 16
Off-chip DRAM Size: 4096 MB Channels: 1 Width: 64-bit Data Rate: 6400 MT/s
CPU 0 runs ./micro_traces/srv472.trace.gz
.gz
ITLB has LRU replacement policy
DTLB has LRU replacement policy
STLB has LRU replacement policy
CPU 0 L1I next line prefetcher
L1I has LRU replacement policy
L1D has LRU replacement policy
Initialize SRRIP state for L2C
Initialize DRRIP state for LLC
Heartbeat CPU 0 instructions: 10000002 cycles: 2796738 heartbeat IPC: 3.57559 cumulative IPC: 3.57559 (Simulation time: 0 hr 2 min 58 sec) 
Heartbeat CPU 0 instructions: 20000001 cycles: 5592705 heartbeat IPC: 3.57658 cumulative IPC: 3.57609 (Simulation time: 0 hr 5 min 50 sec) 
Heartbeat CPU 0 instructions: 30000000 cycles: 8389371 heartbeat IPC: 3.57569 cumulative IPC: 3.57595 (Simulation time: 0 hr 8 min 8 sec) 
Heartbeat CPU 0 instructions: 40000001 cycles: 11186878 heartbeat IPC: 3.57461 cumulative IPC: 3.57562 (Simulation time: 0 hr 10 min 22 sec) 
Heartbeat CPU 0 instructions: 50000001 cycles: 13983874 heartbeat IPC: 3.57526 cumulative IPC: 3.57555 (Simulation time: 0 hr 12 min 29 sec) 

Warmup complete CPU 0 instructions: 50000001 cycles: 13983874 (Simulation time: 0 hr 12 min 29 sec) 

Cycle: 20000000 FTQ IN: 58376422 FTQ occupancy: 19.735 DECODE IN: 58376314 DECODE occupancy: 52.7731 ROB IN: 58376254 ROB occupancy: 320.448 ROB OUT: 58375906
Heartbeat CPU 0 instructions: 60000000 cycles: 21159286 heartbeat IPC: 1.39365 cumulative IPC: 1.39365 (Simulation time: 0 hr 14 min 36 sec) 
Heartbeat CPU 0 instructions: 70000000 cycles: 28392908 heartbeat IPC: 1.38243 cumulative IPC: 1.38802 (Simulation time: 0 hr 16 min 33 sec) 
Cycle: 30000000 FTQ IN: 13868244 FTQ occupancy: 12.5333 DECODE IN: 13868229 DECODE occupancy: 36.5962 ROB IN: 13868229 ROB occupancy: 254.478 ROB OUT: 13868225
Heartbeat CPU 0 instructions: 80000002 cycles: 35567045 heartbeat IPC: 1.3939 cumulative IPC: 1.38997 (Simulation time: 0 hr 18 min 29 sec) 
Cycle: 40000000 FTQ IN: 13947969 FTQ occupancy: 12.3035 DECODE IN: 13948078 DECODE occupancy: 36.271 ROB IN: 13948078 ROB occupancy: 254.415 ROB OUT: 13948082
Heartbeat CPU 0 instructions: 90000002 cycles: 42789436 heartbeat IPC: 1.38458 cumulative IPC: 1.38862 (Simulation time: 0 hr 20 min 25 sec) 
Cycle: 50000000 FTQ IN: 13683359 FTQ occupancy: 12.3735 DECODE IN: 13683307 DECODE occupancy: 36.049 ROB IN: 13683307 ROB occupancy: 252.239 ROB OUT: 13683303
Heartbeat CPU 0 instructions: 100000001 cycles: 50091845 heartbeat IPC: 1.36941 cumulative IPC: 1.38474 (Simulation time: 0 hr 22 min 16 sec) 
Finished CPU 0 instructions: 50000000 cycles: 36107971 cumulative IPC: 1.38474 (Simulation time: 0 hr 22 min 16 sec) 

ChampSim completed all CPUs

Region of Interest Statistics

CPU 0 cumulative IPC: 1.38474 instructions: 50000000 cycles: 36107971
 Fetch stage stalled: 51.7274  Sim cycles: 36107971 fetch stall cycle: 18677725
 Empty decode stage: 29.039  Sim cycles: 36107971 fetch stall cycle: 10485407
ITLB TOTAL     ACCESS:    7766950  HIT:    7168478  MISS:     598472  HIT %:    92.2946  MISS %:    7.70537   MPKI: 11.9694
ITLB LOAD TRANSLATION INSTRUCTION	ACCESS:    6050836  HIT:    5921315  MISS:     129521  HIT %:    97.8595  MISS %:    2.14055  MPKI: 2.59042
ITLB TRANSLATION FROM L1D PREFETCHER INSTRUCTION	ACCESS:    1716114  HIT:    1247163  MISS:     468951  HIT %:    72.6737  MISS %:    27.3263  MPKI: 9.37902

ITLB AVERAGE MISS LATENCY: 141938 cycles
ITLB RQ	ACCESS:   11589177	FORWARD:          0	MERGED:    3683771	TO_CACHE:    7905406

DTLB TOTAL     ACCESS:    8936045  HIT:    8464114  MISS:     471931  HIT %:    94.7188  MISS %:    5.28121   MPKI: 9.43862
DTLB LOAD TRANSLATION DATA	ACCESS:    8936045  HIT:    8464114  MISS:     471931  HIT %:    94.7188  MISS %:    5.28121  MPKI: 9.43862

DTLB AVERAGE MISS LATENCY: 9.36164 cycles
DTLB RQ	ACCESS:   13308996	FORWARD:          0	MERGED:    4336108	TO_CACHE:    8972888

STLB TOTAL     ACCESS:    1325089  HIT:    1323023  MISS:       2066  HIT %:    99.8441  MISS %:   0.155914   MPKI: 0.04132
STLB LOAD TRANSLATION INSTRUCTION	ACCESS:     126851  HIT:     126690  MISS:        161  HIT %:    99.8731  MISS %:   0.126921  MPKI: 0.00322
STLB TRANSLATION FROM L1D PREFETCHER INSTRUCTION	ACCESS:     471621  HIT:     471562  MISS:         59  HIT %:    99.9875  MISS %:    0.01251  MPKI: 0.00118
STLB LOAD TRANSLATION DATA	ACCESS:     471931  HIT:     470095  MISS:       1836  HIT %:     99.611  MISS %:    0.38904  MPKI: 0.03672
STLB TRANSLATION FROM L1D PREFETCHER DATA	ACCESS:     254686  HIT:     254676  MISS:         10  HIT %:    99.9961  MISS %:  0.0039264  MPKI: 0.0002

STLB AVERAGE MISS LATENCY: 83.6331 cycles
STLB RQ	ACCESS:    1459598	FORWARD:          0	MERGED:     130840	TO_CACHE:    1328758

STLB Hit, L1D data hit: 0
STLB Hit, L2C data hit: 0
STLB Hit, LLC data hit: 0
STLB Hit, LLC data miss: 0
STLB STLB hints to L2: 0
L1D TOTAL     ACCESS:   13047172  HIT:   11920455  MISS:    1126717  HIT %:    91.3643  MISS %:    8.63572   MPKI: 22.5343
L1D LOAD DATA	ACCESS:    6538373  HIT:    5795561  MISS:     742812  HIT %:    88.6392  MISS %:    11.3608  MPKI: 14.8562
L1D RFO DATA	ACCESS:    6173949  HIT:    5889122  MISS:     284827  HIT %:    95.3866  MISS %:    4.61337  MPKI: 5.69654
L1D PREFETCH DATA	ACCESS:     334850  HIT:     235772  MISS:      99078  HIT %:    70.4112  MISS %:    29.5888  MPKI: 1.98156

L1D PREFETCH  REQUESTED:     771509  ISSUED:     771509  USEFUL:      38651  USELESS:      71335
L1D USEFUL LOAD PREFETCHES:      38651 PREFETCH ISSUED TO LOWER LEVEL:     110088  ACCURACY: 35.1092
 TIMELY PREFETCHES:      38651 LATE PREFETCHES: 10899 DROPPED PREFETCHES: 3
L1D AVERAGE MISS LATENCY: 317747 cycles
L1D RQ	ACCESS:   10677729	FORWARD:          0	MERGED:    3939006	TO_CACHE:    6579002
L1D WQ	ACCESS:    6928377	FORWARD:     160102	MERGED:     198383	TO_CACHE:    6729994
L1D PQ	ACCESS:     385945	FORWARD:          0	MERGED:          0	TO_CACHE:     385564

L1D UNIQUE REGIONS ACCESSED: 0
L1D REGIONS CONFLICTS: 0
L1D Cross Page Prefetch Requests: 6109
L1D Same Page Prefetch Requests: 778997
L1D ROI Sum of L1D PQ occupancy: 4926692
L1D PREFETCHES PUSHED FROM L2C: 0
L1I TOTAL     ACCESS:   11156964  HIT:    7553339  MISS:    3603625  HIT %:    67.7007  MISS %:    32.2993   MPKI: 72.0725
L1I LOAD INSTRUCTION	ACCESS:    6737006  HIT:    6135370  MISS:     601636  HIT %:    91.0697  MISS %:    8.93032  MPKI: 12.0327
L1I PREFETCH INSTRUCTION	ACCESS:    4419958  HIT:    1417969  MISS:    3001989  HIT %:    32.0811  MISS %:    67.9189  MPKI: 60.0398

L1I PREFETCH  REQUESTED:    5067678  ISSUED:    5067675  USEFUL:    2336898  USELESS:     771046
L1I USEFUL LOAD PREFETCHES:    2336898 PREFETCH ISSUED TO LOWER LEVEL:    3107975  ACCURACY: 75.1904
 TIMELY PREFETCHES:    2336898 LATE PREFETCHES: 105985 DROPPED PREFETCHES: 9384
L1I AVERAGE MISS LATENCY: 934289 cycles
L1I RQ	ACCESS:    9503664	FORWARD:          0	MERGED:    2697601	TO_CACHE:    6806063
L1I PQ	ACCESS:    5067675	FORWARD:          0	MERGED:     284561	TO_CACHE:    4783114

L1BTB TOTAL     ACCESS:    5673750  HIT:    2065680  MISS:    3608070  HIT %:    36.4077  MISS %:    63.5923   MPKI: 72.1614
L1BTB BRANCH_DIRECT_JUMP	ACCESS:     548532  HIT:     145507  MISS:     403025	AVERAGE STALL: 49.8656
L1BTB BRANCH_INDIRECT	ACCESS:     183452  HIT:      66516  MISS:     116936	AVERAGE STALL: 98.9436
L1BTB BRANCH_CONDITIONAL	ACCESS:    2727561  HIT:    1440886  MISS:    1286675	AVERAGE STALL: 79.0038
L1BTB BRANCH_DIRECT_CALL	ACCESS:     936938  HIT:     103941  MISS:     832997	AVERAGE STALL: 100.42
L1BTB BRANCH_INDIRECT_CALL	ACCESS:     170170  HIT:      20650  MISS:     149520	AVERAGE STALL: 132.834
L1BTB BRANCH_RETURN	ACCESS:    1107097  HIT:     288180  MISS:     818917	AVERAGE STALL: 39.9977
L1BTB BRANCH_OTHER ACCESS:          0  HIT:          0  MISS:          0	AVERAGE STALL: -nan
L1BTB TOTAL ROB OCCUPANCY AT BTB MISS: 2.18681

L2BTB TOTAL     ACCESS:    3582504  HIT:    3527136  MISS:      55368  HIT %:    98.4545  MISS %:    1.54551   MPKI: 1.10736
L2BTB BRANCH_DIRECT_JUMP	ACCESS:     398761  HIT:     395878  MISS:       2883	AVERAGE STALL: 49.8656
L2BTB BRANCH_INDIRECT	ACCESS:     106674  HIT:     103966  MISS:       2708	AVERAGE STALL: 98.9436
L2BTB BRANCH_CONDITIONAL	ACCESS:    1286674  HIT:    1286323  MISS:        351	AVERAGE STALL: 79.0038
L2BTB BRANCH_DIRECT_CALL	ACCESS:     832997  HIT:     832779  MISS:        218	AVERAGE STALL: 100.42
L2BTB BRANCH_INDIRECT_CALL	ACCESS:     139880  HIT:     129686  MISS:      10194	AVERAGE STALL: 132.834
L2BTB BRANCH_RETURN	ACCESS:     817518  HIT:     778504  MISS:      39014	AVERAGE STALL: 39.9977
L2BTB BRANCH_OTHER ACCESS:          0  HIT:          0  MISS:          0	AVERAGE STALL: -nan
L2BTB TOTAL ROB OCCUPANCY AT BTB MISS: 142.504

L2C TOTAL     ACCESS:    6548280  HIT:    5573600  MISS:     974680  HIT %:    85.1155  MISS %:    14.8845   MPKI: 19.4936
L2C LOAD INSTRUCTION	ACCESS:     495651  HIT:     394364  MISS:     101287  HIT %:    79.5649  MISS %:    20.4351  MPKI: 2.02574
L2C PREFETCH INSTRUCTION	ACCESS:    3107975  HIT:    2765887  MISS:     342088  HIT %:    88.9932  MISS %:    11.0068  MPKI: 6.84176
L2C LOAD TRANSLATION INSTRUCTION	ACCESS:        189  HIT:         54  MISS:        135  HIT %:    28.5714  MISS %:    71.4286  MPKI: 0.0027
L2C TRANSLATION FROM L1D PREFETCHER INSTRUCTION	ACCESS:       4758  HIT:       4623  MISS:        135  HIT %:    97.1627  MISS %:    2.83733  MPKI: 0.0027
L2C LOAD DATA	ACCESS:     731878  HIT:     580145  MISS:     151733  HIT %:     79.268  MISS %:     20.732  MPKI: 3.03466
L2C RFO DATA	ACCESS:     284689  HIT:     197237  MISS:      87452  HIT %:    69.2816  MISS %:    30.7184  MPKI: 1.74904
L2C PREFETCH DATA	ACCESS:    1400484  HIT:    1148349  MISS:     252135  HIT %:    81.9966  MISS %:    18.0034  MPKI: 5.0427
L2C WRITEBACK DATA	ACCESS:     520722  HIT:     482484  MISS:      38238  HIT %:    92.6567  MISS %:    7.34327  MPKI: 0.76476
L2C LOAD TRANSLATION DATA	ACCESS:       1915  HIT:        443  MISS:       1472  HIT %:    23.1332  MISS %:    76.8668  MPKI: 0.02944
L2C TRANSLATION FROM L1D PREFETCHER DATA	ACCESS:         19  HIT:         14  MISS:          5  HIT %:    73.6842  MISS %:    26.3158  MPKI: 0.0001

L2C PREFETCH  REQUESTED:    3214661  ISSUED:    3214661  USEFUL:      31917  USELESS:     565164
L2C USEFUL LOAD PREFETCHES:      31917 PREFETCH ISSUED TO LOWER LEVEL:     596296  ACCURACY: 5.35254
 TIMELY PREFETCHES:      31917 LATE PREFETCHES: 2073 DROPPED PREFETCHES: 0
L2C AVERAGE MISS LATENCY: 33.9152 cycles
L2C RQ	ACCESS:    1519162	FORWARD:          0	MERGED:          0	TO_CACHE:    1519099
L2C WQ	ACCESS:     520723	FORWARD:         65	MERGED:          0	TO_CACHE:     520723
L2C PQ	ACCESS:    6432724	FORWARD:          0	MERGED:    1904309	TO_CACHE:    4528413

L2C Dense regions hint from L2: 0
PSCL5 TOTAL     ACCESS:      11400  HIT:       5700  MISS:       5700  HIT %:         50  MISS %:         50   MPKI: 0.114
PSCL5 LOAD TRANSLATION INSTRUCTION	ACCESS:       3982  HIT:       1991  MISS:       1991  HIT %:         50  MISS %:         50  MPKI: 0.03982
PSCL5 TRANSLATION FROM L1D PREFETCHER INSTRUCTION	ACCESS:       7418  HIT:       3709  MISS:       3709  HIT %:         50  MISS %:         50  MPKI: 0.07418


PSCL4 TOTAL     ACCESS:      11213  HIT:       5600  MISS:       5613  HIT %:     49.942  MISS %:     50.058   MPKI: 0.11226
PSCL4 LOAD TRANSLATION INSTRUCTION	ACCESS:       2060  HIT:       1912  MISS:        148  HIT %:    92.8155  MISS %:    7.18447  MPKI: 0.00296
PSCL4 TRANSLATION FROM L1D PREFETCHER INSTRUCTION	ACCESS:       3701  HIT:       3688  MISS:         13  HIT %:    99.6487  MISS %:   0.351256  MPKI: 0.00026
PSCL4 LOAD TRANSLATION DATA	ACCESS:       1777  HIT:          0  MISS:       1777  HIT %:          0  MISS %:        100  MPKI: 0.03554
PSCL4 TRANSLATION FROM L1D PREFETCHER DATA	ACCESS:       3675  HIT:          0  MISS:       3675  HIT %:          0  MISS %:        100  MPKI: 0.0735


PSCL3 TOTAL     ACCESS:      11297  HIT:       5642  MISS:       5655  HIT %:    49.9425  MISS %:    50.0575   MPKI: 0.1131
PSCL3 LOAD TRANSLATION INSTRUCTION	ACCESS:       2102  HIT:       1954  MISS:        148  HIT %:    92.9591  MISS %:    7.04091  MPKI: 0.00296
PSCL3 TRANSLATION FROM L1D PREFETCHER INSTRUCTION	ACCESS:       3701  HIT:       3688  MISS:         13  HIT %:    99.6487  MISS %:   0.351256  MPKI: 0.00026
PSCL3 LOAD TRANSLATION DATA	ACCESS:       1819  HIT:          0  MISS:       1819  HIT %:          0  MISS %:        100  MPKI: 0.03638
PSCL3 TRANSLATION FROM L1D PREFETCHER DATA	ACCESS:       3675  HIT:          0  MISS:       3675  HIT %:          0  MISS %:        100  MPKI: 0.0735


PSCL2 TOTAL     ACCESS:       9202  HIT:       4550  MISS:       4652  HIT %:    49.4458  MISS %:    50.5542   MPKI: 0.09304
PSCL2 LOAD TRANSLATION INSTRUCTION	ACCESS:       2086  HIT:       1899  MISS:        187  HIT %:    91.0355  MISS %:    8.96453  MPKI: 0.00374
PSCL2 TRANSLATION FROM L1D PREFETCHER INSTRUCTION	ACCESS:       5283  HIT:       2651  MISS:       2632  HIT %:    50.1798  MISS %:    49.8202  MPKI: 0.05264
PSCL2 LOAD TRANSLATION DATA	ACCESS:       1814  HIT:          0  MISS:       1814  HIT %:          0  MISS %:        100  MPKI: 0.03628
PSCL2 TRANSLATION FROM L1D PREFETCHER DATA	ACCESS:         19  HIT:          0  MISS:         19  HIT %:          0  MISS %:        100  MPKI: 0.00038


LLC TOTAL     ACCESS:    1068579  HIT:    1038101  MISS:      30478  HIT %:    97.1478  MISS %:     2.8522   MPKI: 0.60956
LLC LOAD INSTRUCTION	ACCESS:     100483  HIT:      99868  MISS:        615  HIT %:     99.388  MISS %:   0.612044  MPKI: 0.0123
LLC PREFETCH INSTRUCTION	ACCESS:     339248  HIT:     338652  MISS:        596  HIT %:    99.8243  MISS %:   0.175683  MPKI: 0.01192
LLC LOAD TRANSLATION INSTRUCTION	ACCESS:        135  HIT:         97  MISS:         38  HIT %:    71.8519  MISS %:    28.1481  MPKI: 0.00076
LLC TRANSLATION FROM L1D PREFETCHER INSTRUCTION	ACCESS:        135  HIT:        127  MISS:          8  HIT %:    94.0741  MISS %:    5.92593  MPKI: 0.00016
LLC LOAD DATA	ACCESS:     150558  HIT:     146633  MISS:       3925  HIT %:     97.393  MISS %:    2.60697  MPKI: 0.0785
LLC RFO DATA	ACCESS:      87343  HIT:      73107  MISS:      14236  HIT %:     83.701  MISS %:     16.299  MPKI: 0.28472
LLC PREFETCH DATA	ACCESS:     257047  HIT:     246439  MISS:      10608  HIT %:    95.8731  MISS %:    4.12687  MPKI: 0.21216
LLC WRITEBACK DATA	ACCESS:     132153  HIT:     131809  MISS:        344  HIT %:    99.7397  MISS %:   0.260304  MPKI: 0.00688
LLC LOAD TRANSLATION DATA	ACCESS:       1472  HIT:       1364  MISS:        108  HIT %:     92.663  MISS %:    7.33696  MPKI: 0.00216
LLC TRANSLATION FROM L1D PREFETCHER DATA	ACCESS:          5  HIT:          5  MISS:          0  HIT %:        100  MISS %:          0  MPKI: 0

LLC AVERAGE MISS LATENCY: 161.7 cycles
LLC RQ	ACCESS:     340146	FORWARD:          0	MERGED:          0	TO_CACHE:     340131
LLC WQ	ACCESS:     132153	FORWARD:         16	MERGED:          0	TO_CACHE:     132153
LLC PQ	ACCESS:     596296	FORWARD:          0	MERGED:          0	TO_CACHE:     596295

LLC Dense regions hint to LLC: 0

RAW hits: 1949422
Loads Generated: 12627151
Loads sent to L1D: 10677729
Stores Generated: 6928372
Stores sent to L1D: 6928377
Major fault: 0 Minor fault: 2616
Allocated PAGES: 2616
I-Shadow cache 408 bytes
Touched + WorthPF tables 12288 bytes 
MMA filter 174 bytes 
FNL filter 272 bytes 
TOTAL PREFETCHER STORAGE SIZE: 31318 bytes
CPU 0 L1I next line prefetcher final stats

stream: 
stream:times selected: 1226585
stream:pref_filled: 121499
stream:pref_useful: 23584
stream:pref_late: 9319
stream:misses: 9442
stream:misses_by_poll: 0

CS: 
CS:times selected: 187941
CS:pref_filled: 60662
CS:pref_useful: 35707
CS:pref_late: 13903
CS:misses: 24928
CS:misses_by_poll: 8

CPLX: 
CPLX:times selected: 1037460
CPLX:pref_filled: 21182
CPLX:pref_useful: 5291
CPLX:pref_late: 3904
CPLX:misses: 108037
CPLX:misses_by_poll: 1

NL_L1: 
NL:times selected: 13166
NL:pref_filled: 1391
NL:pref_useful: 141
NL:pref_late: 311
NL:misses: 1626
NL:misses_by_poll: 0

total selections: 2465152
total_filled: 99078
total_useful: 38651
total_late: 29208
total_polluted: 9
total_misses_after_warmup: 783440
conflicts: 5492325

test: 122675

DRAM Statistics
 CHANNEL 0
 RQ ROW_BUFFER_HIT:      10393  ROW_BUFFER_MISS:      19738
 DBUS_CONGESTED:          8
 WQ ROW_BUFFER_HIT:       1609  ROW_BUFFER_MISS:      13925  FULL:          0

 AVG_CONGESTED_CYCLE: 4

CPU 0 Branch Prediction Accuracy: 99.813% MPKI: 0.34194 Average ROB Occupancy at Mispredict: 192.78
Branch types
NOT_BRANCH: 40857102 81.7142%
BRANCH_DIRECT_JUMP: 548532 1.09706%
BRANCH_INDIRECT: 183452 0.366904%
BRANCH_CONDITIONAL: 6196668 12.3933%
BRANCH_DIRECT_CALL: 936938 1.87388%
BRANCH_INDIRECT_CALL: 170170 0.34034%
BRANCH_RETURN: 1107097 2.21419%
BRANCH_OTHER: 0 0%

DRAM PAGES: 1048576
Allocated PAGES: 2616
Average_ROB_Occupancy: 255.14
Average_Decode_Occupancy: 36.2262
Average_FTQ_Occupancy: 12.3598
Indirect max targets: 14 Average targets: 1.17197
Branch_type:  BRANCH_DIRECT_JUMP:  Count Percentage: 3.3512 6.65895 3.81093 7.89582 2.23602 6.34163 1.35673 68.3487 
Branch_type:  BRANCH_INDIRECT:  Count Percentage: 11.7583 3.47054 16.0244 9.68511 3.33413 2.79722 0.932226 51.9981 
Branch_type:  BRANCH_CONDITIONAL:  Count Percentage: 21.3842 3.04929 2.77929 4.65976 1.64442 4.89177 3.78248 57.8088 
Branch_type:  BRANCH_DIRECT_CALL:  Count Percentage: 0.855329 1.27309 0.769727 4.37378 2.29129 2.63578 0.72252 87.0785 
Branch_type:  BRANCH_INDIRECT_CALL:  Count Percentage: 9.55695 0 2.99342 0.000881801 0.695153 1.71334 1.00437 84.0359 
Branch_type:  BRANCH_RETURN:  Count Percentage: 4.68833 1.39213 1.05061 4.37338 3.75834 5.36364 3.69071 75.6829 
Branch_type:  BRANCH_DIRECT_JUMP:  Total Count: 36710 72944 41746 86493 24494 69468 14862 748711 
Branch_type:  BRANCH_INDIRECT:  Total Count: 43099 12721 58736 35500 12221 10253 3417 190595 
Branch_type:  BRANCH_CONDITIONAL:  Total Count: 2648593 377677 344235 577145 203673 605882 468488 7160043 
Branch_type:  BRANCH_DIRECT_CALL:  Total Count: 16017 23840 14414 81904 42907 49358 13530 1630643 
Branch_type:  BRANCH_INDIRECT_CALL:  Total Count: 32514 0 10184 3 2365 5829 3417 285901 
Branch_type:  BRANCH_RETURN:  Total Count: 103784 30817 23257 96812 83197 118733 81700 1675365 
Number of unique branch instructions: 10499
Upper 32 bits: 
aaaa
ffff
ffff0000
Unique upper 32 bits: 3
Unique upper 36 bits: 3
Unique upper 40 bits: 5
Unique upper 44 bits: 32
Unique upper 48 bits: 158
Offset_3 4341
Offset_4 257
Offset_5 476
Offset_6 528
Offset_7 626
Offset_8 560
Offset_9 505
Offset_10 412
Offset_11 331
Offset_12 296
Offset_13 228
Offset_14 235
Offset_15 194
Offset_16 226
Offset_17 158
Offset_18 144
Offset_19 255
Offset_20 141
Offset_21 235
Offset_22 403
Offset_23 242
Offset_24 346
Offset_25 114
Offset_47 92
Offset_64 1
decode_dispatch_called: 27487654 76.1263
Dispatch_width: 0 15040595 54.7176 41.6545
Dispatch_width: 1 1085938 3.95064 3.00747
Dispatch_width: 2 976425 3.55223 2.70418
Dispatch_width: 3 611152 2.22337 1.69257
Dispatch_width: 4 6668338 24.2594 18.4678
Dispatch_width: 5 176832 0.643314 0.489731
Dispatch_width: 6 2928374 10.6534 8.11005
Empty_decode_cycles: 8620317 23.8737
ROB_full_cycles: 10681649 29.5825
Starvation_cycles_per_kilo_instr: 224.979
Starvation_cycles_per_kilo_instr_3: 156.528
Starvation_cycles_per_kilo_instr_0: 129.793
Branch_type_1  (3,1)  (4,9)  (5,39)  (6,71)  (7,125)  (8,146)  (9,133)  (10,108)  (11,74)  (12,47)  (13,11)  (14,2)  (15,3)  (16,4)  (18,1)  (19,5)  (20,2)  (21,1)  (22,3)  (23,2)  (24,10)  (25,12) 
Branch_type_2  (3,1)  (4,1)  (5,1)  (8,4)  (9,4)  (10,1)  (12,1)  (13,1)  (14,1)  (16,3)  (17,2)  (20,2)  (21,2)  (23,5)  (24,1)  (47,42) 
Branch_type_3  (3,4339)  (4,247)  (5,432)  (6,441)  (7,470)  (8,344)  (9,276)  (10,166)  (11,128)  (12,54)  (13,10)  (64,1) 
Branch_type_4  (6,3)  (7,8)  (8,25)  (9,58)  (10,65)  (11,67)  (12,107)  (13,96)  (14,105)  (15,92)  (16,99)  (17,72)  (18,61)  (19,124)  (20,73)  (21,124)  (22,212)  (23,136)  (24,201)  (25,98) 
Branch_type_5  (8,3)  (9,1)  (10,4)  (11,5)  (12,3)  (13,14)  (14,16)  (15,11)  (16,22)  (17,11)  (18,23)  (19,14)  (20,11)  (21,13)  (22,43)  (23,26)  (24,38) 
Branch_type_6  (5,4)  (6,13)  (7,23)  (8,38)  (9,33)  (10,68)  (11,57)  (12,84)  (13,96)  (14,111)  (15,88)  (16,98)  (17,73)  (18,59)  (19,112)  (20,53)  (21,95)  (22,145)  (23,73)  (24,96)  (25,4)  (47,50) 
Unique trigger count: 
BTB PER SET UNIQUE ADDR: 3 3 4 7 2 2 3 3 2 7 3 6 4 5 3 4 4 4 4 3 2 3 5 5 4 3 3 3 2 4 3 3 3 3 3 3 3 3 5 4 3 4 4 5 4 2 4 4 4 2 5 4 3 3 2 3 4 3 4 4 5 4 3 6 5 2 4 4 3 5 4 5 5 4 3 4 5 3 6 3 5 3 5 3 5 2 2 3 5 3 3 6 3 5 3 1 4 4 4 4 3 4 5 3 4 6 3 4 3 3 5 3 4 3 3 2 4 3 3 4 5 5 4 3 4 3 4 4 6 5 4 4 3 3 6 6 3 2 3 6 4 3 4 3 4 3 2 3 4 4 5 3 3 3 5 4 4 4 5 6 6 3 1 3 3 1 1 4 5 4 3 4 5 3 3 5 4 4 3 3 4 3 4 3 4 2 3 4 4 4 4 4 5 3 2 3 4 3 5 4 3 4 4 4 1 4 2 3 4 4 3 4 5 3 3 4 7 3 4 4 3 3 3 3 4 3 3 1 5 3 2 4 4 3 3 3 3 5 4 3 4 4 5 4 3 4 3 3 4 3 2 4 4 5 3 5 4 5 3 4 3 5 3 3 3 4 3 5 2 4 5 3 5 3 5 4 4 2 3 4 3 4 3 5 7 4 4 5 5 5 3 5 3 3 4 5 3 3 4 3 7 2 3 4 4 5 4 4 3 4 4 3 5 2 3 5 4 4 3 3 5 6 3 3 6 5 3 4 4 7 3 4 4 4 3 4 5 4 5 4 4 4 4 3 4 4 3 4 3 6 4 5 5 3 6 5 3 4 2 3 2 5 2 4 3 5 4 4 3 1 4 6 7 3 4 5 4 3 4 4 3 4 3 3 4 4 2 3 4 3 3 2 4 4 4 4 5 3 4 5 4 4 4 2 2 5 4 4 4 6 5 2 2 4 6 4 6 4 3 3 2 5 2 8 3 3 3 2 3 3 3 3 4 4 4 3 3 3 3 3 4 3 2 3 3 3 4 2 4 4 4 2 3 5 3 4 4 4 7 4 4 4 3 3 3 6 3 2 5 2 3 4 4 3 4 4 4 3 4 3 3 2 3 4 3 4 4 4 4 5 5 4 4 4 5 4 4 3 3 5 3 3 4 4 4 4 2 4 5 5 4 3 4 4 3 4 4 3 3 5 4 4 3 3 5 4 1 4 4 5 3 4 4 4 3 4 4 3 3 3 4 5 4 6 2 4 4 3 3 2 5 6 3 5 3 4 5 3 4 2 5 3 3 5 3 2 4 4 2 5 3 5 2 3 1 4 4 3 3 3 2 4 3 5 3 3 4 4 3 4 3 4 5 3 4 5 5 3 6 3 3 3 2 3 3 2 4 4 4 4 4 3 3 3 2 4 3 3 6 4 3 2 5 3 4 3 2 6 3 4 3 6 3 3 5 4 4 4 4 4 4 3 3 3 3 3 2 4 3 4 3 4 3 3 2 4 4 4 4 3 3 3 3 5 3 4 4 4 4 5 4 5 3 3 5 2 4 4 5 4 4 3 2 4 3 4 3 4 3 2 3 4 3 3 4 3 3 5 3 4 2 3 4 4 5 3 4 2 3 3 3 4 3 5 5 5 3 2 3 5 4 4 4 4 7 4 4 4 3 4 4 4 5 4 3 4 4 3 3 4 4 2 5 5 4 4 5 2 5 4 4 5 3 4 3 3 3 4 3 2 4 3 3 5 3 4 4 3 5 4 3 4 3 4 3 5 5 4 2 4 4 4 4 4 5 3 4 4 5 4 4 4 5 4 3 3 4 3 4 2 4 4 5 3 4 3 3 4 3 5 4 3 3 5 2 4 4 3 3 4 5 3 4 4 4 2 4 3 5 3 5 4 3 5 4 3 4 4 3 2 2 3 3 4 4 3 3 4 2 4 3 2 2 4 4 3 3 2 2 2 2 7 5 4 8 3 3 2 5 4 4 2 6 4 4 3 3 3 3 5 3 5 4 3 3 4 5 5 2 1 4 5 2 3 3 7 3 3 3 3 3 3 2 3 4 2 4 4 3 3 3 4 4 5 4 4 3 4 5 4 3 4 4 4 3 5 4 3 5 4 3 5 3 5 4 3 4 3 2 3 4 3 3 4 4 3 4 4 8 5 3 3 4 3 3 3 2 2 3 3 5 5 6 4 5 2 4 3 3 4 3 7 2 3 3 5 4 4 3 3 6 3 4 4 3 4 5 4 6 5 4 4 4 4 2 4 4 3 3 3 6 3 2 2 2 5 7 4 5 4 4 3 5 4 4 4 3 3 4 3 6 3 3 3 5 3 3 5 4 2 3 4 5 4 5 5 4 2 3 4 5 4 3 5 5 3 3 5 3 3 3 4 3 4 3 2 5 3 4 2 5 5 6 2 2 2 3 4 4 4 6 5 3 3 5 5 5 3 3 3 4 3 3 2 3 2 4 3 3 3 3 3 2 4 4 3 4 4 3 2 4 4 5 4 3 3 3 4 3 5 3 5 3 3 4 5 6 3 5 3 4 4 3 2 4 6 4 5 4 2 2 4 4 4 3 4 3 3 3 3 4 3 4 2 3 4 4 4 4 3 4 4 3 4 3 1 3 4 4 3 3 3 3 4 3 3 3 4 3 4 3 3 4 3 2 2 4 4 3 4 3 2 5 4 4 4 4 2 4 2 5 3 4 2 3 4 5 5 4 3 3 3 2 4 4 4 3 3 5 3 3 4 4 5 3 3 4 3 3 4 6 1 3 4 3 3 3 6 3 2 3 3 2 5 4 4 4 4 3 3 3 3 4 3 3 4 4 3 3 4 3 4 3 4 5 2 3 5 2 3 5 4 4 5 3 2 4 6 3 4 5 4 2 3 4 4 5 4 4 3 5 3 4 4 4 3 3 5 4 4 4 3 4 5 5 4 4 3 4 3 4 2 3 2 4 5 4 4 4 5 4 4 3 3 4 4 4 4 3 5 4 3 3 5 6 3 5 2 2 5 3 4 5 5 3 4 2 4 5 3 4 3 3 3 5 4 4 5 4 6 4 4 4 4 4 4 4 3 4 3 3 6 5 4 2 3 3 3 5 6 3 4 3 5 3 4 3 5 5 3 4 4 3 3 3 5 3 3 5 3 3 4 4 2 2 4 4 3 4 2 5 5 4 2 2 5 6 4 3 4 3 4 4 4 7 3 3 6 3 4 3 3 3 5 4 5 4 3 5 4 2 3 2 4 3 6 3 3 4 4 3 3 2 2 4 6 4 3 2 3 5 4 4 4 3 3 4 3 6 5 5 5 5 3 3 6 3 5 4 5 4 1 4 2 5 3 4 3 5 6 4 3 3 5 5 2 5 3 4 4 3 5 4 4 5 3 4 4 4 5 4 5 2 4 3 5 5 3 3 3 4 4 4 4 3 4 4 4 4 4 3 2 3 4 4 2 5 4 4 5 4 4 4 3 3 2 5 3 3 4 4 3 4 3 3 4 3 3 2 3 4 3 4 4 2 3 4 3 6 1 3 3 4 3 3 4 2 4 5 4 4 3 4 5 4 3 5 3 4 4 2 4 3 5 2 4 4 4 3 4 4 4 4 4 4 4 3 2 2 5 2 4 3 6 4 2 3 3 4 3 4 4 4 4 4 4 3 3 4 5 3 5 2 2 4 5 3 4 2 4 4 4 3 4 4 5 3 5 4 4 2 2 2 3 3 5 4 3 2 4 5 5 4 3 3 3 6 4 2 4 3 2 3 4 3 3 2 5 3 3 4 2 3 3 4 4 2 4 4 3 5 2 3 4 2 3 5 4 6 6 2 3 5 2 3 5 4 4 4 4 3 4 5 3 3 5 3 4 6 3 3 3 2 5 3 4 3 3 3 4 3 3 4 2 3 4 5 4 4 2 5 3 3 3 5 4 3 5 3 3 4 5 5 4 3 4 3 5 3 4 4 2 4 2 4 4 2 2 4 3 6 4 4 3 3 4 4 3 2 5 3 3 3 3 2 3 4 5 5 4 4 5 3 6 2 5 4 4 2 5 3 5 3 4 4 3 4 4 3 3 2 3 4 3 3 3 6 2 3 4 3 6 4 3 4 2 4 4 2 4 4 5 4 3 4 2 3 4 3 2 4 2 3 1 6 3 5 3 3 3 4 3 4 5 4 4 2 2 3 2 4 4 4 3 3 4 3 5 4 5 2 4 6 4 2 3 4 5 5 0 4 4 4 3 4 4 4 5 5 4 5 5 3 3 3 5 3 4 3 3 2 4 3 4 6 4 3 4 4 3 3 3 3 3 3 3 3 1 4 3 4 4 3 4 3 3 5 4 2 4 4 3 2 3 2 3 3 4 3 3 3 4 3 3 4 6 4 4 2 3 5 3 4 3 4 2 5 1 3 2 4 4 3 3 4 3 4 4 4 5 4 4 4 4 3 4 6 3 3 3 5 5 4 3 6 3 5 2 1 3 4 4 3 3 5 5 3 4 3 3 5 4 5 4 5 4 4 3 2 4 3 4 4 4 2 4 3 2 4 4 2 4 5 5 4 3 4 2 3 3 4 5 4 5 4 3 5 6 3 3 3 4 5 3 4 4 4 5 4 4 4 2 2 3 2 3 3 5 
BTB PER SET COUNT: 3 1460 1458 955 3 2 3 3 2 8 46 10 4 1020 3 4 4 4 4 3 2 3 5 6 4 4 3 3 2 442 4 3 3 950 3 3 4 3 5 5 3 952 4 6 5 2 4 4 4 2 5 4 3 3 2 3 513 1019 4 4 952 5 3 8 5 2 4 4 3 6 5 7 6 4 3 4 5 3 910 3 7 3 6 3 5 2 2 3 49 3 113 14 3 5 4 1 4 4 4 4 4 5 6 3 4 7 5 4 3 3 5 3 5 3 7 2 4 3 3 1967 8 5 1508 3 4 3 5 4 435 7 4 4 5 3 6 6 3 2 3 7 5 3 4 3 5 3 2 3 5 12 6 442 3 3 7 951 4 4 5 6 7 3 1 3 4 1 1 5 7 4 3 6 6 3 3 6 4 7 3 4 5 3 4 5 168 2 3 4 4 4 4 4 7 3 2 3 4 3 1460 5 6 1462 7 4 1 4 2 3 4 4 5 6 5 4 4 4 34 3 4 4 3 3 3 5 6 4 3 1 576 3 145 7 4 14552 3 3 3 8 4 3 4 4 6 4 3 4 3 95 6 4 2 389 4 7 3 7 5 6 4 4 3 5 3 3 3 4 5 5 2 7 5 3 5 3 6 4 6 2 5 5 3 5 3 5 8 4 5 7 5 5 3 6 4 3 513 6 4 3 7 3 8 2 1458 4 7 5 4 5 3 7 5 4 5 2 4 5 5 4 3 3 5 6 3 3 6 6 21 5 7 7 6 4 4 4 3 4 6 4 5 7 5 4 7 4 4 4 4 4 3 7 4 5 5 3 50 390 4 8 4 12 2 273 2 4 3 2406 4 4 3 1 4 8 1465 3 6 5 4 3 4 5 5 5 3 3 6 5 2 3 4 3 3 2 4 4 4 4 1337 3 4 5 5 5 4 2 4 8 4 4 9 6 5 2 3 4 7 4 6 4 3 3 4 5 2 522 3 3 3 2 4 4 3 11 6 5 33 5 3 3 3 3 5 3 2 4 386 10 1461 2 4 6 5 246 3 6 3 4 4 4 1023 4 5 4 1020 3 8 7 3 2 947 2 3 40 4 4 1041 4 4 3 4 3 3 2 3 4 3 4 4 4 4 8 951 4 5 4 5 5 4 3 3 5 3 3 4 4 4 4 2 4 5 5 4 3 4 2036 3 4 4 512 4 6 4 4 3 3 254 4 1 5 4 5 1457 4 5 9 3 4 5 3 4 3 5 5 5 8 2 6 4 3 4 2 5 6 1020 5 3 4 6 3 4 2 5 7923 3 5 3 2 1020 5 2 8 3 5 4 4 1 4 6 3 3 3 4 5 4 5 6 4 6 4 3 6 3 5 5 3 5 5 5 3 9 3 8 3 1018 3 4 2 1020 4 4 4 4 3 5 3 2 4 3 3 10 4 3 2 5 4 5 3 2 6 3 4 1020 6 4 3 8 4 5 5 4 4 5 5 3 4 3 3 2 4 5 511 3 5 3 4 3 4 4 4 4 3 3 3 4 6 3 511 6 4 4 5 4 5 3 3 5 2 5 4 5 512 950 3 2 4 3 5 3 4 3 3 3 4 3 4 5 3 3 5 3 5 2 3 4 4 6 3 4 2 3 3 3 5 3 5 5 514 3 2 3 8 5 5 6 4 12 4 4 5 3 4 4 5 5 4 3 6 5 5 3 4 4 2 8 5 5 4 5 3 7 4 4 8 3 4 3 3 4 5 3 2 4 109 3 7 4 7 5 3421 6 5 3 4 4 4 4 6 7 4 2 4 4 4 4 4 10 3 5 4 8 4 4 4 5 7 3 3 4 3 4 2 5 5 6 3 4 3 4 5 5 6 4 3 3 5 3 4 4 6 3 5 6 3 5 4 4 2 5 4 5 519 6 8 3 5 4 3 4 6 3 2 2 3 1019 4 4 3 3 4 2 7 3 2 2 7 4 4 3 2 2 2 2 7 5 4 9 3 3 2 6 5 4 2 7 5 4 3 3 3 4 6 3 5 4 3 3 4 5 5 2 1 1458 5 2 279 3 8 388 4 3 3 3 3 2 1019 4 2 4 5 4 3 3 4 4 5 4 442 4 4 5 4 512 5 4 5 3 5 360 3 5 7 4 14 3 5 4 3 4 949 2 3 5 3 3 4 4 3 4 4 10 5 5 4 4 3 4 3 2 2 2036 3 6 5 6 4 5 2 514 3 4 5 3 7 2 5 4 6 6 5 5 3 6 3 4 4 3 7 5 951 6 5 6 4 4 4 3 4 6 4 3 3 6 3 2 2 2 5 8 4 1459 4 4 3 9 4 4 4 5 3 5 3 6 3 3 3 6 3 3 443 5 2 6 4 6 5 5 8 5 2 3 5 5 512 47 5 5 3 512 512 3 3 3 4 3 4 3 2 5 3 1458 2 9 5 6 2 2 2 3 4 8 4 6 6 3 3 6 5 11 3 3 3 4 4 3 948 50 2 5 3 4 9 4 3 2 6 4 3 10 4 4 2 4 9 7 5 3 227 58 4 3 5 388 7 3 3 4 5 7 128 5 3 239 4 14 2 4 6 4 6 5 2 2 5 4 4 3 4 3 3 4 3 4 20388 5 2 512 4 4 1021 5 3 4 5 3 4 3 1 3 5 4 3 3 3 3 5 6 6 3 4 3 4 511 4 5 5 3 2 5 5 4 1020 3 2 5 6 5 4 951 2 5 2 5 3 4 2 1913 5 5 6 4 4 18 5 2 4 4 4 3 3 6 389 3 1020 4 1459 3 3 4 3 3 4 379 1 3 4 3 3 4 8 3 2 4 3 2 5 5 4 1105 13 3 4 3 11 4 3 3 6 1458 3 3 5 3 512 3 4 5 2 3 5 2 3 5 4 4 5 905 2 5 7 3 4 5 4 2 4 4 4 9 4 4 3 5 3 4 5 4 4 3 5 4 4 4 3 4 7 7 10 4 3 4 3 5 2 3 2 96 470 4 4 4 6 4 4 3 50 4 4 6 4 4 5 5 3 3 6 6 3 6 1457 2 1390 3 5 9 6 4 4 1456 7 5 4 5 3 3 1019 9 4 6 7 40 6 4 5 4 4 4 6 4 3 4 3 3 7 7 5 2 3 4 3 5 6 3 4 3 11 3 4 3 5 5 3 4 4 3 4 4 102 4 3 7 3 9 4 4 2 2 5 5 3 5 2 5 5 7 2 2 5 6 7 3 4 4 4 5 4 79 3 3 7 3 5 4 3 3 6 4 5 8 3 10 1895 2 3 3 1897 3 264 3 3 4 4 6 4 3 2 4 8 5 3 2 3 5 4 5 4 3 3 4 3 6 5 8 7 6 3 4 7 4 5 4 5 4 1 4 2 5 3 4 3 5 8 4 3 949 5 5 2 883 3 5 4 6 6 4 4 7 7 4 5 4 5 5 7 2 4 3 5 6 3 3 6 4 4 5 4 3 9 4 5 4 4 5 2 3 5 4 3 5 4 950 5 4 6 4 4 3 2 5 3 4 4 4 3 4 4 4 6 4 4 2 3 4 3 5 6 2 3 5 4 9 1 3 3 4 3 9 5 2911 4 5 4 4 3 7 5 4 4 5 3 4 1458 2 4 52 6 2 4 5 4 3 4 4 4 4 4 4 5 3 2 2 7 2 5 3 179 4 2 3 3 4 3 5 4 4 4 4 5 4 3 1020 6 4 5 4 2 4 6 3 4 2 4 4 4 3 4 4 5 3 5 512 4 2 2 2 3 3 6 5 3 2 4 5 8 4 3 3 3 9 4 2 6 3 3 3 4 4 3 948 8 3 3 4 2 3 3 4 5 2 4 6 3 5 2 4 4 2 3 5 4 7 8 2 3 5 2 3 6 6 4 5 4 4 5 7 3 4 1020 175 4 6 3 3 3 2 5 3 5 3 3 4 5 3 3 5 2 3 5 6 4 4 1018 5 3 3 3 5 4 3 6 3 5 4 8 7 4 3 4 3 5 9 4 5 2 6 2 285 4 2 3 4 3 6 5 4 3 3 4 5 3 3 5 7 3 3 4 2 3 5 6 7 512 5 5 3 7 2 5 120 4 2 5 3 5 4 4 6 3 4 6 3 3 2 4 951 3 3 3 6 2 3 5 3 6 6 3 4 2 4 6 4 4 37 6 5 3 4 2 1458 4 3 2 512 5 3 571 6 4 5 3 3 78 461 3 5 5 4 1458 3 2 4 2 5 4 4 3 3 4 3 6 1459 6 2 4 6 4 3 4 4 5 17 0 4 4 4 3 4 5 4 952 5 4 9 5 3 3 56 5 3 4 3 6 2 4 3 4 9 18 4 4 1459 3 4 3 5 3 5 4 5 1 4 3 6 5 3 4 3 3 5 5 2 4 5 3 2 3 2 3 3 4 3 3 4 4 3 3 4 7 5 4 2 3 5 3 4 3 4 3 5 1 3 2 5 4 3 39 5 3 4 4 7 6 457 5 4 4 3 5 8 1019 3 4 6 5 5 3 2778 3 8 2 1 3 4 5 3 3 5 5 4 4 3 3 127 5 6 4 6 5 6 514 2 5 3 4 4 4 2 4 1336 2 5 4 2 4 7 5 4 3 4 2 3 1457 7 13 4 1459 5 3 5 8 4 4 3 4 5 3 4 5 130 5 4 4 4 2 2 3 3 3 3 741 
