
*** ChampSim Multicore Out-of-Order Simulator ***

Warmup Instructions: 50000000
Simulation Instructions: 50000000
Number of CPUs: 1
LLC sets: 2048
LLC ways: 16
Off-chip DRAM Size: 4096 MB Channels: 1 Width: 64-bit Data Rate: 6400 MT/s
CPU 0 runs ./micro_traces/srv428.trace.gz
.gz
ITLB has LRU replacement policy
DTLB has LRU replacement policy
STLB has LRU replacement policy
FDIP Prefetcher at L1I
L1I has LRU replacement policy
L1D has LRU replacement policy
Initialize SRRIP state for L2C
Initialize DRRIP state for LLC
Heartbeat CPU 0 instructions: 10000001 cycles: 2797161 heartbeat IPC: 3.57505 cumulative IPC: 3.57505 (Simulation time: 0 hr 2 min 11 sec) 
Heartbeat CPU 0 instructions: 20000000 cycles: 5593868 heartbeat IPC: 3.57563 cumulative IPC: 3.57534 (Simulation time: 0 hr 4 min 5 sec) 
Heartbeat CPU 0 instructions: 30000002 cycles: 8390986 heartbeat IPC: 3.57511 cumulative IPC: 3.57527 (Simulation time: 0 hr 6 min 2 sec) 
Heartbeat CPU 0 instructions: 40000001 cycles: 11187875 heartbeat IPC: 3.5754 cumulative IPC: 3.5753 (Simulation time: 0 hr 7 min 51 sec) 
Heartbeat CPU 0 instructions: 50000002 cycles: 13985110 heartbeat IPC: 3.57496 cumulative IPC: 3.57523 (Simulation time: 0 hr 9 min 40 sec) 

Warmup complete CPU 0 instructions: 50000002 cycles: 13985110 (Simulation time: 0 hr 9 min 40 sec) 

Cycle: 20000000 FTQ IN: 58159657 FTQ occupancy: 19.9429 DECODE IN: 58159534 DECODE occupancy: 51.6321 ROB IN: 58159474 ROB occupancy: 312.449 ROB OUT: 58159122
Heartbeat CPU 0 instructions: 60000002 cycles: 21328490 heartbeat IPC: 1.36177 cumulative IPC: 1.36177 (Simulation time: 0 hr 11 min 35 sec) 
Heartbeat CPU 0 instructions: 70000003 cycles: 28552525 heartbeat IPC: 1.38427 cumulative IPC: 1.37293 (Simulation time: 0 hr 13 min 41 sec) 
Cycle: 30000000 FTQ IN: 13869447 FTQ occupancy: 12.7908 DECODE IN: 13869482 DECODE occupancy: 32.4288 ROB IN: 13869516 ROB occupancy: 231.675 ROB OUT: 13869520
Heartbeat CPU 0 instructions: 80000002 cycles: 35853851 heartbeat IPC: 1.36961 cumulative IPC: 1.37182 (Simulation time: 0 hr 15 min 40 sec) 
Cycle: 40000000 FTQ IN: 13512873 FTQ occupancy: 12.7485 DECODE IN: 13512879 DECODE occupancy: 31.9225 ROB IN: 13512905 ROB occupancy: 227.424 ROB OUT: 13512990
Heartbeat CPU 0 instructions: 90000000 cycles: 43225700 heartbeat IPC: 1.35651 cumulative IPC: 1.36796 (Simulation time: 0 hr 17 min 47 sec) 
Cycle: 50000000 FTQ IN: 13852334 FTQ occupancy: 12.7287 DECODE IN: 13852416 DECODE occupancy: 32.3293 ROB IN: 13852416 ROB occupancy: 231.571 ROB OUT: 13852677
Heartbeat CPU 0 instructions: 100000001 cycles: 50437063 heartbeat IPC: 1.3867 cumulative IPC: 1.37167 (Simulation time: 0 hr 19 min 52 sec) 
Finished CPU 0 instructions: 50000003 cycles: 36451954 cumulative IPC: 1.37167 (Simulation time: 0 hr 19 min 52 sec) 

ChampSim completed all CPUs

Region of Interest Statistics

CPU 0 cumulative IPC: 1.37167 instructions: 50000003 cycles: 36451954
 Fetch stage stalled: 52.7634  Sim cycles: 36451954 fetch stall cycle: 19233293
 Empty decode stage: 34.3325  Sim cycles: 36451954 fetch stall cycle: 12514848
ITLB TOTAL     ACCESS:    5740582  HIT:    5248882  MISS:     491700  HIT %:    91.4347  MISS %:    8.56533   MPKI: 9.834
ITLB LOAD TRANSLATION INSTRUCTION	ACCESS:    5603226  HIT:    5111526  MISS:     491700  HIT %:    91.2247  MISS %:     8.7753  MPKI: 9.834
ITLB TRANSLATION FROM L1D PREFETCHER INSTRUCTION	ACCESS:     137356  HIT:     137356  MISS:          0  HIT %:        100  MISS %:          0  MPKI: 0

ITLB AVERAGE MISS LATENCY: 9.06405 cycles
ITLB RQ	ACCESS:    7808082	FORWARD:          0	MERGED:    1578652	TO_CACHE:    6229430

DTLB TOTAL     ACCESS:    8976422  HIT:    8507338  MISS:     469084  HIT %:    94.7743  MISS %:    5.22573   MPKI: 9.38168
DTLB LOAD TRANSLATION DATA	ACCESS:    8976422  HIT:    8507338  MISS:     469084  HIT %:    94.7743  MISS %:    5.22573  MPKI: 9.38168

DTLB AVERAGE MISS LATENCY: 9.35225 cycles
DTLB RQ	ACCESS:   13337847	FORWARD:          0	MERGED:    4325249	TO_CACHE:    9012598

STLB TOTAL     ACCESS:    1211394  HIT:    1209369  MISS:       2025  HIT %:    99.8328  MISS %:   0.167163   MPKI: 0.0405
STLB LOAD TRANSLATION INSTRUCTION	ACCESS:     491701  HIT:     491450  MISS:        251  HIT %:     99.949  MISS %:  0.0510473  MPKI: 0.00502
STLB LOAD TRANSLATION DATA	ACCESS:     469084  HIT:     467333  MISS:       1751  HIT %:    99.6267  MISS %:   0.373281  MPKI: 0.03502
STLB TRANSLATION FROM L1D PREFETCHER DATA	ACCESS:     250609  HIT:     250586  MISS:         23  HIT %:    99.9908  MISS %: 0.00917764  MPKI: 0.00046

STLB AVERAGE MISS LATENCY: 83.0815 cycles
STLB RQ	ACCESS:    1332838	FORWARD:          0	MERGED:     121408	TO_CACHE:    1211430

STLB Hit, L1D data hit: 0
STLB Hit, L2C data hit: 0
STLB Hit, LLC data hit: 0
STLB Hit, LLC data miss: 0
STLB STLB hints to L2: 0
L1D TOTAL     ACCESS:   13090762  HIT:   11979550  MISS:    1111212  HIT %:    91.5115  MISS %:    8.48852   MPKI: 22.2242
L1D LOAD DATA	ACCESS:    6557447  HIT:    5826359  MISS:     731088  HIT %:     88.851  MISS %:     11.149  MPKI: 14.6218
L1D RFO DATA	ACCESS:    6201812  HIT:    5916590  MISS:     285222  HIT %:     95.401  MISS %:    4.59901  MPKI: 5.70444
L1D PREFETCH DATA	ACCESS:     331503  HIT:     236601  MISS:      94902  HIT %:    71.3722  MISS %:    28.6278  MPKI: 1.89804

L1D PREFETCH  REQUESTED:     744425  ISSUED:     744425  USEFUL:      33790  USELESS:      68869
L1D USEFUL LOAD PREFETCHES:      33790 PREFETCH ISSUED TO LOWER LEVEL:     102728  ACCURACY: 32.8927
 TIMELY PREFETCHES:      33790 LATE PREFETCHES: 7758 DROPPED PREFETCHES: 6
L1D AVERAGE MISS LATENCY: 221950 cycles
L1D RQ	ACCESS:   10699274	FORWARD:          0	MERGED:    3942426	TO_CACHE:    6592578
L1D WQ	ACCESS:    6942496	FORWARD:     164589	MERGED:     197227	TO_CACHE:    6745269
L1D PQ	ACCESS:     372372	FORWARD:          0	MERGED:          0	TO_CACHE:     372053

L1D UNIQUE REGIONS ACCESSED: 0
L1D REGIONS CONFLICTS: 0
L1D Cross Page Prefetch Requests: 7077
L1D Same Page Prefetch Requests: 754756
L1D ROI Sum of L1D PQ occupancy: 4736031
L1D PREFETCHES PUSHED FROM L2C: 0
L1I TOTAL     ACCESS:    7034052  HIT:    4281363  MISS:    2752689  HIT %:    60.8662  MISS %:    39.1338   MPKI: 55.0538
L1I LOAD INSTRUCTION	ACCESS:    6395354  HIT:    3642665  MISS:    2752689  HIT %:     56.958  MISS %:     43.042  MPKI: 55.0538
L1I PREFETCH INSTRUCTION	ACCESS:     638698  HIT:     638698  MISS:          0  HIT %:        100  MISS %:          0  MPKI: 0

L1I PREFETCH  REQUESTED:    1535603  ISSUED:    1535603  USEFUL:          0  USELESS:          0
L1I USEFUL LOAD PREFETCHES:          0 PREFETCH ISSUED TO LOWER LEVEL:          0  ACCURACY: -nan
 TIMELY PREFETCHES:          0 LATE PREFETCHES: 0 DROPPED PREFETCHES: 0
L1I AVERAGE MISS LATENCY: 17.323 cycles
L1I RQ	ACCESS:    9524108	FORWARD:          0	MERGED:    2836812	TO_CACHE:    6687296
L1I PQ	ACCESS:    1535603	FORWARD:          0	MERGED:     414817	TO_CACHE:    1120786

L1BTB TOTAL     ACCESS:    5671909  HIT:    2054023  MISS:    3617886  HIT %:     36.214  MISS %:     63.786   MPKI: 72.3577
L1BTB BRANCH_DIRECT_JUMP	ACCESS:     549090  HIT:     145897  MISS:     403193	AVERAGE STALL: 53.6717
L1BTB BRANCH_INDIRECT	ACCESS:     183449  HIT:      66427  MISS:     117022	AVERAGE STALL: 109.085
L1BTB BRANCH_CONDITIONAL	ACCESS:    2713458  HIT:    1424620  MISS:    1288838	AVERAGE STALL: 62.0103
L1BTB BRANCH_DIRECT_CALL	ACCESS:     941982  HIT:     105579  MISS:     836403	AVERAGE STALL: 70.6907
L1BTB BRANCH_INDIRECT_CALL	ACCESS:     170972  HIT:      21072  MISS:     149900	AVERAGE STALL: 137.202
L1BTB BRANCH_RETURN	ACCESS:    1112958  HIT:     290428  MISS:     822530	AVERAGE STALL: 49.9544
L1BTB BRANCH_OTHER ACCESS:          0  HIT:          0  MISS:          0	AVERAGE STALL: -nan
L1BTB TOTAL ROB OCCUPANCY AT BTB MISS: 5.50701

L2BTB TOTAL     ACCESS:    3592398  HIT:    3478648  MISS:     113750  HIT %:    96.8336  MISS %:    3.16641   MPKI: 2.275
L2BTB BRANCH_DIRECT_JUMP	ACCESS:     398969  HIT:     388826  MISS:      10143	AVERAGE STALL: 53.6717
L2BTB BRANCH_INDIRECT	ACCESS:     106755  HIT:     103317  MISS:       3438	AVERAGE STALL: 109.085
L2BTB BRANCH_CONDITIONAL	ACCESS:    1288838  HIT:    1265446  MISS:      23392	AVERAGE STALL: 62.0103
L2BTB BRANCH_DIRECT_CALL	ACCESS:     836403  HIT:     819146  MISS:      17257	AVERAGE STALL: 70.6907
L2BTB BRANCH_INDIRECT_CALL	ACCESS:     140314  HIT:     128491  MISS:      11823	AVERAGE STALL: 137.202
L2BTB BRANCH_RETURN	ACCESS:     821119  HIT:     773422  MISS:      47697	AVERAGE STALL: 49.9544
L2BTB BRANCH_OTHER ACCESS:          0  HIT:          0  MISS:          0	AVERAGE STALL: -nan
L2BTB TOTAL ROB OCCUPANCY AT BTB MISS: 175.154

L2C TOTAL     ACCESS:    4470659  HIT:    3975779  MISS:     494880  HIT %:    88.9305  MISS %:    11.0695   MPKI: 9.8976
L2C LOAD INSTRUCTION	ACCESS:    2752689  HIT:    2491305  MISS:     261384  HIT %:    90.5044  MISS %:    9.49559  MPKI: 5.22768
L2C LOAD TRANSLATION INSTRUCTION	ACCESS:        288  HIT:         74  MISS:        214  HIT %:    25.6944  MISS %:    74.3056  MPKI: 0.00428
L2C LOAD DATA	ACCESS:     723299  HIT:     645992  MISS:      77307  HIT %:    89.3119  MISS %:    10.6881  MPKI: 1.54614
L2C RFO DATA	ACCESS:     285108  HIT:     226588  MISS:      58520  HIT %:    79.4744  MISS %:    20.5256  MPKI: 1.1704
L2C PREFETCH DATA	ACCESS:     188264  HIT:     110448  MISS:      77816  HIT %:    58.6666  MISS %:    41.3334  MPKI: 1.55632
L2C WRITEBACK DATA	ACCESS:     519124  HIT:     500833  MISS:      18291  HIT %:    96.4766  MISS %:    3.52344  MPKI: 0.36582
L2C LOAD TRANSLATION DATA	ACCESS:       1843  HIT:        511  MISS:       1332  HIT %:    27.7265  MISS %:    72.2735  MPKI: 0.02664
L2C TRANSLATION FROM L1D PREFETCHER DATA	ACCESS:         44  HIT:         28  MISS:         16  HIT %:    63.6364  MISS %:    36.3636  MPKI: 0.00032

L2C PREFETCH  REQUESTED:      93332  ISSUED:      93332  USEFUL:       8788  USELESS:      69478
L2C USEFUL LOAD PREFETCHES:       8788 PREFETCH ISSUED TO LOWER LEVEL:      78200  ACCURACY: 11.2379
 TIMELY PREFETCHES:       8788 LATE PREFETCHES: 384 DROPPED PREFETCHES: 0
L2C AVERAGE MISS LATENCY: 38.4396 cycles
L2C RQ	ACCESS:    3763349	FORWARD:          0	MERGED:          0	TO_CACHE:    3763272
L2C WQ	ACCESS:     519124	FORWARD:         78	MERGED:          0	TO_CACHE:     519124
L2C PQ	ACCESS:     196060	FORWARD:          0	MERGED:       3903	TO_CACHE:     192156

L2C Dense regions hint from L2: 0
PSCL5 TOTAL     ACCESS:       4064  HIT:       2032  MISS:       2032  HIT %:         50  MISS %:         50   MPKI: 0.04064
PSCL5 LOAD TRANSLATION INSTRUCTION	ACCESS:       3980  HIT:       1990  MISS:       1990  HIT %:         50  MISS %:         50  MPKI: 0.0398
PSCL5 TRANSLATION FROM L1D PREFETCHER INSTRUCTION	ACCESS:         84  HIT:         42  MISS:         42  HIT %:         50  MISS %:         50  MPKI: 0.00084


PSCL4 TOTAL     ACCESS:       3967  HIT:       1979  MISS:       1988  HIT %:    49.8866  MISS %:    50.1134   MPKI: 0.03976
PSCL4 LOAD TRANSLATION INSTRUCTION	ACCESS:       2102  HIT:       1937  MISS:        165  HIT %:    92.1503  MISS %:    7.84967  MPKI: 0.0033
PSCL4 TRANSLATION FROM L1D PREFETCHER INSTRUCTION	ACCESS:         42  HIT:         42  MISS:          0  HIT %:        100  MISS %:          0  MPKI: 0
PSCL4 LOAD TRANSLATION DATA	ACCESS:       1781  HIT:          0  MISS:       1781  HIT %:          0  MISS %:        100  MPKI: 0.03562
PSCL4 TRANSLATION FROM L1D PREFETCHER DATA	ACCESS:         42  HIT:          0  MISS:         42  HIT %:          0  MISS %:        100  MPKI: 0.00084


PSCL3 TOTAL     ACCESS:       4009  HIT:       2000  MISS:       2009  HIT %:    49.8878  MISS %:    50.1122   MPKI: 0.04018
PSCL3 LOAD TRANSLATION INSTRUCTION	ACCESS:       2123  HIT:       1958  MISS:        165  HIT %:     92.228  MISS %:    7.77202  MPKI: 0.0033
PSCL3 TRANSLATION FROM L1D PREFETCHER INSTRUCTION	ACCESS:         42  HIT:         42  MISS:          0  HIT %:        100  MISS %:          0  MPKI: 0
PSCL3 LOAD TRANSLATION DATA	ACCESS:       1802  HIT:          0  MISS:       1802  HIT %:          0  MISS %:        100  MPKI: 0.03604
PSCL3 TRANSLATION FROM L1D PREFETCHER DATA	ACCESS:         42  HIT:          0  MISS:         42  HIT %:          0  MISS %:        100  MPKI: 0.00084


PSCL2 TOTAL     ACCESS:       3934  HIT:       1903  MISS:       2031  HIT %:    48.3732  MISS %:    51.6268   MPKI: 0.04062
PSCL2 LOAD TRANSLATION INSTRUCTION	ACCESS:       2121  HIT:       1863  MISS:        258  HIT %:    87.8359  MISS %:    12.1641  MPKI: 0.00516
PSCL2 TRANSLATION FROM L1D PREFETCHER INSTRUCTION	ACCESS:         40  HIT:         40  MISS:          0  HIT %:        100  MISS %:          0  MPKI: 0
PSCL2 LOAD TRANSLATION DATA	ACCESS:       1733  HIT:          0  MISS:       1733  HIT %:          0  MISS %:        100  MPKI: 0.03466
PSCL2 TRANSLATION FROM L1D PREFETCHER DATA	ACCESS:         40  HIT:          0  MISS:         40  HIT %:          0  MISS %:        100  MPKI: 0.0008


LLC TOTAL     ACCESS:     560521  HIT:     531191  MISS:      29330  HIT %:    94.7674  MISS %:    5.23263   MPKI: 0.5866
LLC LOAD INSTRUCTION	ACCESS:     261384  HIT:     260180  MISS:       1204  HIT %:    99.5394  MISS %:   0.460625  MPKI: 0.02408
LLC LOAD TRANSLATION INSTRUCTION	ACCESS:        214  HIT:        173  MISS:         41  HIT %:    80.8411  MISS %:    19.1589  MPKI: 0.00082
LLC LOAD DATA	ACCESS:      76942  HIT:      73296  MISS:       3646  HIT %:    95.2614  MISS %:    4.73863  MPKI: 0.07292
LLC RFO DATA	ACCESS:      58477  HIT:      44333  MISS:      14144  HIT %:    75.8127  MISS %:    24.1873  MPKI: 0.28288
LLC PREFETCH DATA	ACCESS:      78199  HIT:      68353  MISS:       9846  HIT %:     87.409  MISS %:     12.591  MPKI: 0.19692
LLC WRITEBACK DATA	ACCESS:      83957  HIT:      83623  MISS:        334  HIT %:    99.6022  MISS %:   0.397823  MPKI: 0.00668
LLC LOAD TRANSLATION DATA	ACCESS:       1332  HIT:       1217  MISS:        115  HIT %:    91.3664  MISS %:    8.63363  MPKI: 0.0023
LLC TRANSLATION FROM L1D PREFETCHER DATA	ACCESS:         16  HIT:         16  MISS:          0  HIT %:        100  MISS %:          0  MPKI: 0

LLC AVERAGE MISS LATENCY: 159.452 cycles
LLC RQ	ACCESS:     398389	FORWARD:          0	MERGED:          0	TO_CACHE:     398365
LLC WQ	ACCESS:      83957	FORWARD:         25	MERGED:          0	TO_CACHE:      83957
LLC PQ	ACCESS:      78200	FORWARD:          0	MERGED:          0	TO_CACHE:      78199

LLC Dense regions hint to LLC: 0

RAW hits: 1935454
Loads Generated: 12634728
Loads sent to L1D: 10699274
Stores Generated: 6942484
Stores sent to L1D: 6942496
Major fault: 0 Minor fault: 2574
Allocated PAGES: 2574

stream: 
stream:times selected: 1202261
stream:pref_filled: 121203
stream:pref_useful: 23666
stream:pref_late: 6451
stream:misses: 8198
stream:misses_by_poll: 0

CS: 
CS:times selected: 181137
CS:pref_filled: 58860
CS:pref_useful: 35325
CS:pref_late: 6669
CS:misses: 15908
CS:misses_by_poll: 7

CPLX: 
CPLX:times selected: 1019913
CPLX:pref_filled: 19336
CPLX:pref_useful: 4552
CPLX:pref_late: 2908
CPLX:misses: 92326
CPLX:misses_by_poll: 0

NL_L1: 
NL:times selected: 21354
NL:pref_filled: 709
NL:pref_useful: 273
NL:pref_late: 369
NL:misses: 1753
NL:misses_by_poll: 0

total selections: 2424665
total_filled: 94902
total_useful: 33790
total_late: 17815
total_polluted: 7
total_misses_after_warmup: 766219
conflicts: 5509668

test: 120439

DRAM Statistics
 CHANNEL 0
 RQ ROW_BUFFER_HIT:      10527  ROW_BUFFER_MISS:      18462
 DBUS_CONGESTED:          6
 WQ ROW_BUFFER_HIT:       1654  ROW_BUFFER_MISS:      13031  FULL:          0

 AVG_CONGESTED_CYCLE: 4

CPU 0 Branch Prediction Accuracy: 99.8082% MPKI: 0.35064 Average ROB Occupancy at Mispredict: 179.742
Branch types
NOT_BRANCH: 40857535 81.7151%
BRANCH_DIRECT_JUMP: 549090 1.09818%
BRANCH_INDIRECT: 183449 0.366898%
BRANCH_CONDITIONAL: 6184052 12.3681%
BRANCH_DIRECT_CALL: 941982 1.88396%
BRANCH_INDIRECT_CALL: 170972 0.341944%
BRANCH_RETURN: 1112958 2.22592%
BRANCH_OTHER: 0 0%

DRAM PAGES: 1048576
Allocated PAGES: 2574
Average_ROB_Occupancy: 231.047
Average_Decode_Occupancy: 32.1633
Average_FTQ_Occupancy: 12.7553
Indirect max targets: 14 Average targets: 1.17778
Branch_type:  BRANCH_DIRECT_JUMP:  Count Percentage: 3.34953 4.54466 3.83773 6.80612 3.54133 2.8486 4.13157 70.9405 
Branch_type:  BRANCH_INDIRECT:  Count Percentage: 11.7114 3.50663 2.63739 9.69583 3.33104 2.79447 1.72378 64.5994 
Branch_type:  BRANCH_CONDITIONAL:  Count Percentage: 21.198 6.04106 2.17242 4.66174 2.40831 2.24655 3.12412 58.1478 
Branch_type:  BRANCH_DIRECT_CALL:  Count Percentage: 0.856705 1.24598 0.776953 3.87214 3.42394 1.95091 4.32764 83.5457 
Branch_type:  BRANCH_INDIRECT_CALL:  Count Percentage: 9.54278 0 2.98883 5.33449 0.845529 1.71071 3.8455 75.7322 
Branch_type:  BRANCH_RETURN:  Count Percentage: 4.68552 4.31174 2.39008 4.38934 4.24666 3.16821 3.60693 73.2015 
Branch_type:  BRANCH_DIRECT_JUMP:  Total Count: 36796 49925 42159 74768 38903 31293 45387 779310 
Branch_type:  BRANCH_INDIRECT:  Total Count: 43020 12881 9688 35616 12236 10265 6332 237295 
Branch_type:  BRANCH_CONDITIONAL:  Total Count: 2621692 747138 268678 576548 297851 277846 386381 7191522 
Branch_type:  BRANCH_DIRECT_CALL:  Total Count: 16081 23388 14584 72683 64270 36620 81233 1568217 
Branch_type:  BRANCH_INDIRECT_CALL:  Total Count: 32538 0 10191 18189 2883 5833 13112 258224 
Branch_type:  BRANCH_RETURN:  Total Count: 103968 95674 53034 97396 94230 70300 80035 1624284 
Number of unique branch instructions: 10885
Upper 32 bits: 
aaaa
ffff
ffff0000
Unique upper 32 bits: 3
Unique upper 36 bits: 3
Unique upper 40 bits: 5
Unique upper 44 bits: 32
Unique upper 48 bits: 158
Offset_3 4506
Offset_4 263
Offset_5 488
Offset_6 553
Offset_7 650
Offset_8 592
Offset_9 523
Offset_10 428
Offset_11 356
Offset_12 326
Offset_13 242
Offset_14 247
Offset_15 205
Offset_16 233
Offset_17 170
Offset_18 154
Offset_19 272
Offset_20 147
Offset_21 235
Offset_22 412
Offset_23 241
Offset_24 348
Offset_25 117
Offset_47 92
Offset_64 4
decode_dispatch_called: 24434718 67.0327
Dispatch_width: 0 12951620 53.005 35.5307
Dispatch_width: 1 863526 3.53401 2.36894
Dispatch_width: 2 787031 3.22095 2.15909
Dispatch_width: 3 455871 1.86567 1.25061
Dispatch_width: 4 4954689 20.2773 13.5924
Dispatch_width: 5 155840 0.637781 0.427522
Dispatch_width: 6 4266141 17.4593 11.7035
Empty_decode_cycles: 12017236 32.9673
ROB_full_cycles: 8028130 22.0239
Starvation_cycles_per_kilo_instr: 241.577
Starvation_cycles_per_kilo_instr_3: 190.472
Starvation_cycles_per_kilo_instr_0: 169.407
Branch_type_1  (3,1)  (4,9)  (5,39)  (6,76)  (7,126)  (8,153)  (9,138)  (10,111)  (11,79)  (12,55)  (13,11)  (14,2)  (15,3)  (16,4)  (18,1)  (19,5)  (20,2)  (21,1)  (22,3)  (23,2)  (24,10)  (25,12) 
Branch_type_2  (3,1)  (4,1)  (5,1)  (8,4)  (9,4)  (10,1)  (12,1)  (13,1)  (14,1)  (16,3)  (17,2)  (20,2)  (21,2)  (23,5)  (24,1)  (47,41) 
Branch_type_3  (3,4504)  (4,253)  (5,444)  (6,460)  (7,491)  (8,366)  (9,285)  (10,173)  (11,140)  (12,62)  (13,10)  (64,3) 
Branch_type_4  (6,4)  (7,8)  (8,27)  (9,58)  (10,68)  (11,71)  (12,117)  (13,103)  (14,112)  (15,98)  (16,104)  (17,77)  (18,66)  (19,132)  (20,75)  (21,124)  (22,217)  (23,136)  (24,203)  (25,101) 
Branch_type_5  (8,3)  (9,1)  (10,4)  (11,5)  (12,3)  (13,14)  (14,16)  (15,11)  (16,22)  (17,13)  (18,23)  (19,14)  (20,11)  (21,13)  (22,43)  (23,26)  (24,38) 
Branch_type_6  (5,4)  (6,13)  (7,25)  (8,39)  (9,37)  (10,71)  (11,61)  (12,88)  (13,103)  (14,116)  (15,93)  (16,100)  (17,78)  (18,64)  (19,121)  (20,57)  (21,95)  (22,149)  (23,72)  (24,96)  (25,4)  (47,51)  (64,1) 
aaaaab1fc620: 2ac9e77e 2aca717c 2aca8eff 2acaf6bc 2acaf9aa 2acaf9f1 2acb1abc 2acb1b7f 2acd4e22 2acdb712 2acf5f9e 2ad0ef44 2ad3f15c 2ad414e6 2ad60e42 2ad8609c 2ad99830 2ada35cc 2ada4676 2ada6612 2adf183e 2adf30e5 2adf5602 2adf785c 2ae11572 2aeb2dcf 2aee101b 2aee1ae1 2b156a8c 2b156b61 2b156bea 2b167f35 2b177656 2b17feec 2b1a3e5a 
aaaaab1fc640: 2ac9ec07 2aca656e 2aca801d 2acaea11 2acaee73 2acb13ee 2acb1470 2acd462b 2ad0ef5d 2ad3f3fe 2ad86e9b 2ada1641 2ada4115 2ada6638 2adf30d4 2ae12e57 2aee1033 2b1693ab 2b16948c 2b169491 2b17d915 2b17fa85 2b17fccd 
aaaaab1fcb00: 2acf2d72 2acf3734 2acf604c 2acfa5b7 2ad397b5 2ad3b800 2ae8af7d 2ae8aff0 2ae9aaba 2aea9fc6 2aeaa358 2aee910b 2aee91cf 2aee928e 2aee92e4 2af6fe87 2af70dfe 2b16850c 2b16c4a2 2b1765f4 2b178094 2b17d925 2b17db06 2b17ec8f 
aaaaab1fcb10: 2acf2d95 2acf3758 2acf6052 2acfa5f4 2ad397c3 2ad3b81c 2ae8af88 2ae8affe 2ae9aacf 2aeaa017 2aeaa36d 2aee9114 2aee91d8 2aee934d 2aee9353 2af6fe8c 2af70e22 2b168526 2b16c542 2b176609 2b1780a3 2b17d95d 2b17db44 2b17ecac 
aaaaac68f310: 2ac9ec8c 2ac9fb44 2ac9fbd2 2aca59ab 2acac04c 2acaf6e0 2acaf6ec 2acaf6f9 2acaf700 2acaf708 2acf2d90 2ad3cfbd 2ad3cfc4 2ad3d000 2ad3f35f 2ad4955d 2ad49571 2ad4f3f2 2ad4f400 2ad5f240 2ad5f37c 2ad5f86a 2ad5f86f 2ad5f880 2ad5fc0d 2ad5fc14 2ad5fc21 2ad5fe1b 2ad873bb 2ad873e3 2ad8a6b2 2ad9086e 2ad93096 2ad9bbb2 2ada152c 2ada1554 2ada3332 2ada5522 2adf3130 2adf313c 2adf3a3f 2adf3bd9 2adf5788 2adf7a8d 2ae07f6b 2ae0857a 2ae0857e 2ae08630 2ae08634 2ae08637 2ae08642 2ae0866f 2ae086e4 2ae086ec 2ae08717 2ae0871b 2aee0170 2aee1d38 2aee75f4 2aee7662 2aee85ca 2aee85e4 2aee8eef 2af70b84 2af74e8f 2b17d843 
aaaaac690ef0: 2aca598b 2acb111b 2acb175f 2acb1772 2acbfaf4 2acbfb00 2acf374f 2acf6d43 2acfa5c8 2ad3baf1 2ad3d4ac 2ad3d4b8 2ad3f1cf 2ad486b2 2ad5a59b 2ad5fc64 2ad5fcf9 2ad6121c 2ad906e9 2ad907bf 2ad9bada 2ada16ce 2ada1ad5 2ada43df 2ada64c0 2ada72ee 2adeb71a 2adf3bcb 2adf7a38 2adf7c6a 2adf8872 2adf8880 2adf9959 2adf9abe 2ae07f78 2ae08503 2ae08754 2ae12e80 2aea3bea 2aecb509 2aee00b0 2aee2bdd 2aee5467 2aee5601 2aee8f20 2af703fd 2af7048b 2af74e74 
Unique trigger count: 
1 10359
2 574
3 100
4 32
5 13
6 12
7 8
8 1
9 3
10 3
11 1
12 1
13 1
14 2
15 1
16 2
19 2
23 1
24 2
35 1
48 1
66 1
BTB PER SET UNIQUE ADDR: 1 2 2 2 0 0 1 1 3 0 2 0 1 1 0 1 2 1 1 2 0 1 1 2 1 2 2 2 1 2 2 2 2 1 3 0 0 3 4 0 1 2 3 3 1 1 2 1 4 1 1 1 2 0 0 2 3 3 1 1 1 2 2 2 0 4 4 0 2 2 5 1 1 2 1 1 2 6 2 1 1 2 1 4 3 1 1 4 3 2 3 4 2 3 3 0 1 3 0 1 3 2 2 3 3 2 1 1 3 0 1 2 3 2 1 3 1 2 1 0 3 2 2 0 1 1 1 1 3 3 3 0 1 1 2 1 0 0 1 2 2 3 3 1 2 1 2 3 3 2 1 6 1 2 2 1 0 3 2 1 0 0 0 1 4 3 0 1 5 2 2 2 2 1 1 0 1 1 3 1 1 3 6 2 3 2 3 0 1 1 4 1 1 2 1 1 1 1 0 1 2 1 1 0 0 0 1 1 1 0 0 2 2 1 2 1 0 2 1 0 0 1 1 3 2 0 2 2 0 3 5 3 1 2 1 3 3 1 1 2 1 0 2 2 6 3 1 1 3 1 1 1 1 1 0 5 2 2 2 2 3 3 2 2 2 4 3 0 2 1 2 2 1 2 3 2 2 0 3 2 2 2 1 1 2 3 2 1 1 1 0 0 1 3 0 1 3 2 0 1 2 2 1 1 2 2 3 2 3 3 2 1 2 2 3 0 2 2 1 2 1 2 2 3 0 3 1 4 0 0 3 0 2 2 3 1 2 3 4 0 3 0 0 1 2 3 1 2 1 3 1 3 3 2 2 2 1 0 3 0 0 2 1 2 4 2 1 0 0 0 3 1 2 0 1 2 2 2 2 3 0 0 1 3 0 0 3 1 2 2 1 2 2 2 2 0 3 0 0 2 3 1 3 1 1 0 1 2 0 1 0 0 1 2 1 0 4 1 1 2 1 1 3 2 2 4 0 0 1 3 0 0 4 2 3 3 2 1 1 0 0 4 3 2 2 1 1 2 1 1 3 0 0 1 3 0 1 2 2 2 3 0 3 2 0 0 2 0 1 3 0 1 1 1 2 1 0 1 1 0 0 1 1 2 0 2 2 0 4 1 3 1 1 3 0 2 1 1 2 0 3 0 0 1 0 2 1 0 0 2 3 2 4 4 2 0 1 3 1 5 1 1 3 1 3 3 1 4 3 2 5 1 2 2 1 4 0 0 3 0 0 4 3 1 5 1 6 3 4 4 2 3 2 3 0 1 1 0 2 2 6 0 1 2 1 0 0 1 3 4 4 0 1 5 2 0 0 2 0 0 1 1 1 0 1 0 0 4 1 1 3 2 0 2 1 2 3 0 2 2 1 0 1 3 0 1 1 1 2 0 2 2 2 1 2 1 2 0 2 1 3 1 5 0 2 3 2 2 1 0 3 1 0 2 2 4 0 1 1 2 5 1 3 3 0 0 2 1 2 1 1 1 3 1 1 0 4 0 1 3 3 2 4 3 2 1 1 1 0 0 4 2 1 0 5 2 0 1 3 2 2 0 2 2 3 1 1 2 2 1 0 3 1 1 1 3 3 3 2 3 0 2 0 2 1 1 0 1 0 0 1 2 0 1 2 0 1 1 0 2 1 0 1 1 0 1 1 1 0 3 3 2 1 0 1 1 6 1 1 0 1 2 1 2 1 1 3 1 2 2 0 0 1 2 0 1 2 3 1 0 1 1 0 2 0 1 3 1 0 0 2 2 0 0 1 2 3 1 1 1 2 1 0 0 3 3 3 4 0 0 1 3 0 0 3 3 3 1 1 1 2 2 2 2 1 1 1 4 0 2 0 2 1 1 2 1 1 0 0 3 3 0 1 0 2 1 2 1 1 4 1 1 2 1 3 0 1 0 3 2 0 1 0 2 0 2 3 2 3 0 2 1 3 1 3 2 0 0 1 1 0 0 0 1 4 1 1 0 2 0 1 1 1 2 1 0 2 2 3 1 2 1 2 0 0 0 1 2 0 0 2 0 2 2 1 2 4 0 2 1 1 0 0 1 1 3 1 1 0 4 3 3 0 0 1 2 0 1 1 2 4 1 3 1 2 0 3 0 2 1 3 1 4 2 2 1 1 1 0 1 1 1 0 3 2 2 1 2 1 1 1 0 4 1 1 1 4 2 2 1 2 1 2 2 2 4 8 2 2 2 1 1 0 2 3 1 3 4 1 2 3 2 1 3 1 1 1 3 2 1 3 1 1 2 2 1 2 2 1 4 0 1 2 1 2 3 3 2 0 1 2 0 3 0 1 2 3 3 1 3 3 1 7 4 0 2 2 1 1 1 3 4 2 1 3 0 0 1 1 0 2 0 1 3 0 2 5 1 3 3 0 1 3 2 1 3 2 1 2 1 0 1 2 0 2 0 1 2 3 3 1 4 3 2 0 1 7 0 1 1 1 1 2 2 1 5 3 3 3 4 2 4 2 2 1 0 4 1 1 2 1 6 1 0 4 1 1 1 2 1 1 2 3 4 2 2 2 1 1 4 4 2 1 2 1 1 3 2 1 4 2 2 2 1 3 4 0 1 4 1 0 2 1 0 1 3 1 2 1 2 1 3 2 0 1 1 3 2 1 0 2 0 0 3 2 1 2 2 1 4 0 1 5 0 4 3 2 2 2 4 2 4 0 6 4 0 3 1 2 0 0 1 3 0 1 1 2 5 1 0 0 3 3 2 1 2 0 0 1 4 1 4 2 2 0 2 0 1 2 4 6 1 5 0 0 1 2 1 4 0 2 3 2 1 1 1 0 4 1 3 0 1 2 5 3 1 2 2 0 2 4 3 2 4 3 2 0 0 3 3 4 1 2 2 1 1 3 2 3 1 1 1 1 2 5 3 4 0 0 2 1 1 3 2 3 0 0 1 2 3 2 0 3 1 1 1 1 1 5 0 1 1 0 4 3 0 2 1 3 2 1 1 2 1 2 2 0 3 2 1 0 3 1 1 2 2 1 1 0 2 1 1 1 2 1 3 3 2 1 2 0 1 3 0 2 2 0 2 1 1 2 2 1 0 3 0 1 1 2 2 1 1 1 1 1 4 1 3 2 1 2 0 1 1 1 4 2 2 1 2 1 2 0 1 4 2 3 1 4 2 1 1 1 2 3 1 1 1 4 0 5 2 2 3 1 0 3 3 1 1 1 3 0 2 2 1 1 1 2 2 0 1 1 5 2 1 2 2 0 2 2 0 1 2 1 1 1 0 0 2 1 0 1 1 0 2 1 3 4 1 1 0 1 1 1 0 1 0 0 3 1 0 1 1 0 1 1 0 0 0 1 0 0 1 0 0 2 0 2 0 3 1 2 0 1 0 0 5 1 0 2 1 3 2 1 0 2 2 1 0 3 0 1 1 1 1 1 0 2 0 3 1 0 1 4 1 0 1 0 3 1 2 2 1 2 2 3 2 0 1 1 0 1 0 4 0 1 1 0 0 0 1 0 1 1 0 1 3 2 1 2 1 2 2 2 1 1 0 1 2 2 0 0 1 2 1 3 1 0 1 1 4 3 0 0 1 2 1 0 0 3 1 3 0 2 1 3 2 1 3 4 3 5 0 1 1 3 2 1 5 4 3 2 3 4 0 0 2 2 1 1 1 1 1 2 0 2 1 0 1 3 0 1 1 3 1 2 3 3 1 0 1 4 0 2 3 2 2 2 1 3 3 1 1 1 2 2 2 1 5 2 1 1 1 1 3 3 1 1 1 1 0 2 1 2 3 0 0 1 1 0 3 3 1 0 2 3 0 1 2 2 1 1 2 1 0 0 3 2 1 0 0 0 2 1 0 2 2 4 3 2 1 4 1 2 7 3 2 3 2 1 3 3 1 1 1 1 0 0 2 3 1 2 0 0 3 3 2 2 2 0 0 1 2 2 2 2 1 2 2 2 1 0 2 0 1 2 1 0 0 1 1 0 1 2 0 3 0 3 1 2 0 3 2 1 4 0 3 0 1 0 1 1 1 5 0 2 1 0 1 2 1 1 1 0 1 1 1 1 1 2 2 3 0 3 0 0 1 2 1 1 6 1 0 2 2 3 2 1 2 5 1 3 3 0 2 1 3 2 5 4 0 2 1 5 0 4 0 3 2 2 2 1 1 1 0 1 2 0 2 0 1 3 3 2 1 4 2 2 2 3 0 2 0 3 1 3 2 2 2 2 1 0 2 3 2 1 0 1 2 0 0 0 1 0 1 1 3 0 2 2 2 3 2 2 1 2 2 3 1 1 2 2 1 0 2 2 2 2 0 0 1 0 0 1 0 0 1 1 1 2 1 1 2 0 0 0 2 1 1 1 1 2 1 2 2 2 0 2 1 1 2 1 2 1 2 1 0 1 0 3 1 0 1 2 1 3 2 2 2 0 2 0 1 0 0 2 2 0 4 2 4 0 2 2 6 1 0 0 1 4 3 3 1 1 1 3 1 0 1 2 4 1 6 2 0 3 0 1 1 1 1 2 1 0 2 0 1 2 3 1 0 0 3 4 1 0 0 2 3 1 0 3 3 1 0 3 3 0 1 2 4 0 0 0 2 1 0 4 0 1 0 2 2 3 0 2 1 2 1 2 1 0 2 4 2 3 0 2 2 1 1 1 1 2 1 1 0 0 0 4 2 1 2 1 1 3 3 3 3 1 1 3 3 0 2 2 1 4 4 2 3 2 2 1 3 2 2 3 2 1 4 5 3 2 3 2 2 2 1 1 1 0 1 1 0 2 2 0 2 0 1 1 0 1 4 1 3 0 0 0 2 1 2 1 1 0 3 1 1 0 0 0 2 1 1 0 1 3 1 1 2 0 0 3 1 2 2 1 2 1 0 1 0 0 1 0 2 1 0 0 4 1 3 1 3 3 1 2 2 0 0 0 1 1 1 4 3 3 2 3 2 4 4 2 2 2 1 3 1 1 2 1 4 1 2 2 2 2 3 2 3 2 0 4 1 3 2 5 6 5 3 3 2 2 1 4 1 1 1 3 2 0 2 3 4 3 0 2 1 1 2 4 5 1 1 1 2 1 2 2 2 3 3 3 2 3 5 1 1 3 2 3 3 1 4 2 1 2 2 3 3 2 1 3 3 3 0 1 2 1 1 2 2 2 1 0 1 3 1 2 2 3 1 2 2 1 1 0 0 5 2 5 5 0 2 1 3 2 1 0 3 2 2 1 3 2 1 1 1 2 0 1 3 0 2 2 1 1 0 1 2 2 1 0 2 0 1 2 1 5 1 3 2 2 2 0 0 0 3 0 4 2 0 2 1 2 1 1 1 1 1 2 0 1 0 5 2 2 1 1 0 2 2 5 4 1 2 3 5 1 2 2 0 1 3 1 2 2 0 0 3 2 1 2 2 2 0 1 0 1 4 3 0 0 4 4 2 3 5 3 1 3 1 1 0 2 1 2 4 1 2 3 3 0 1 2 2 0 1 1 4 3 2 1 3 2 1 6 3 1 3 3 3 3 1 4 0 4 3 2 0 1 1 2 0 1 2 1 1 1 1 1 4 2 0 1 0 1 3 4 2 1 3 2 2 0 1 0 0 1 3 3 2 3 0 1 3 1 2 4 1 2 2 1 2 3 0 3 0 2 1 3 5 1 1 2 2 1 3 1 2 2 1 0 1 5 1 0 3 1 4 2 3 4 3 2 0 0 3 4 2 1 0 4 4 1 1 2 0 1 0 0 2 1 1 3 0 2 1 2 2 2 3 2 2 0 2 2 1 1 1 2 0 1 2 2 1 1 0 1 4 0 1 1 2 3 1 3 4 1 2 3 3 0 3 3 2 0 2 2 4 2 1 2 2 1 1 2 1 3 2 1 1 2 0 3 5 2 3 1 3 1 2 2 1 2 2 1 3 4 1 1 1 4 2 0 3 0 2 2 3 1 2 3 2 1 5 4 1 1 0 0 0 0 5 3 1 3 5 2 0 2 1 3 3 3 1 5 3 5 5 2 3 3 3 0 2 3 1 0 1 0 2 0 0 1 0 2 3 3 2 0 2 1 3 1 3 2 3 4 1 3 1 3 4 2 1 3 0 1 1 1 0 2 3 1 3 3 1 2 1 2 0 1 3 1 0 3 0 2 1 3 3 4 2 2 4 1 3 3 3 1 4 3 2 0 1 2 2 3 0 3 2 4 1 2 2 1 2 1 2 2 0 3 1 3 2 0 4 0 1 2 2 4 0 3 1 2 1 3 1 0 1 7 1 0 1 1 0 0 0 1 2 0 3 2 1 3 3 1 2 2 3 2 2 1 2 1 1 1 2 1 2 1 1 1 0 0 2 0 2 2 1 1 3 3 1 2 2 1 3 4 3 5 2 2 2 3 2 0 3 2 2 2 1 0 2 2 3 0 3 5 3 0 0 0 3 1 1 2 1 2 4 4 1 1 3 3 1 4 1 4 2 2 1 2 1 1 2 3 0 3 3 0 2 0 1 2 2 4 2 0 1 2 1 3 0 2 0 1 1 2 2 1 2 2 1 2 1 3 2 2 3 4 3 2 2 4 2 2 3 2 3 3 2 3 4 2 6 2 0 5 2 2 4 3 3 1 2 2 4 3 0 0 1 3 3 1 5 3 5 6 3 1 1 3 5 3 3 2 2 2 0 2 4 1 1 4 2 1 3 4 2 4 4 3 1 2 1 1 3 0 3 0 1 5 0 2 4 2 2 2 1 0 2 3 7 2 3 5 5 4 3 5 4 2 6 3 1 1 1 2 4 4 3 3 3 6 1 1 4 1 3 2 4 2 1 1 2 2 3 0 2 1 3 4 1 2 3 0 4 4 0 4 1 0 1 4 3 2 2 1 0 1 2 2 1 2 3 1 5 3 4 2 3 2 1 3 2 3 2 1 2 1 1 3 2 3 3 1 4 5 0 2 0 1 2 2 1 3 1 3 1 1 1 1 2 1 3 4 1 0 2 3 1 2 1 1 2 3 1 3 2 1 4 1 3 0 2 0 2 3 1 0 0 1 1 3 0 0 1 2 1 2 1 0 2 1 4 2 1 2 0 3 1 1 3 0 1 4 3 2 2 0 2 2 2 1 1 1 0 0 1 1 0 3 2 2 2 4 1 3 3 5 1 1 3 4 1 2 4 2 2 4 0 3 1 3 2 2 1 3 2 3 4 2 2 5 4 2 2 2 1 1 1 0 4 1 1 1 1 2 2 1 1 4 0 1 2 2 2 4 0 4 1 2 2 1 1 3 2 1 3 1 2 1 2 2 2 2 3 1 2 2 3 0 4 1 1 3 2 2 2 4 0 3 2 1 1 1 4 2 0 1 0 2 1 2 0 1 2 2 1 3 4 1 1 1 1 2 3 0 3 3 2 0 2 2 0 3 0 1 3 3 1 1 1 1 0 2 0 0 1 4 1 2 1 1 3 2 1 2 0 2 1 3 4 6 1 1 3 3 3 1 1 0 2 2 2 0 0 3 2 1 2 2 2 0 3 1 1 1 5 1 3 3 4 0 1 3 1 1 1 3 1 4 5 1 3 0 2 3 4 1 4 1 6 4 1 1 1 1 2 2 2 1 2 3 3 5 2 3 2 3 2 3 2 1 4 3 3 1 1 2 1 3 1 1 1 4 2 2 0 2 0 0 1 3 7 2 2 1 2 2 2 2 2 2 1 1 1 1 2 3 1 3 1 3 3 1 0 1 2 0 2 0 3 0 4 6 0 0 1 3 1 2 2 4 0 3 3 1 3 1 3 0 1 2 2 1 1 2 1 3 0 0 0 3 1 1 3 3 4 2 4 2 1 2 0 2 1 2 0 3 1 2 1 0 4 0 1 1 2 1 3 3 0 3 3 2 0 3 0 5 3 0 1 3 1 0 3 1 3 2 0 2 2 1 2 1 2 1 2 6 2 3 2 2 3 2 3 2 1 4 0 2 3 3 3 2 1 2 0 2 0 2 2 2 3 1 3 1 1 2 1 3 2 5 0 0 2 1 2 3 3 1 2 3 0 0 1 2 0 0 2 1 3 2 2 1 0 4 2 1 3 1 4 0 2 1 2 4 0 1 0 1 2 2 1 2 3 1 2 2 2 1 3 0 4 2 2 2 0 3 0 3 2 3 2 1 2 0 2 1 2 1 1 3 0 2 2 1 2 1 0 3 2 1 6 4 2 3 1 2 0 1 3 3 1 0 0 1 1 1 0 2 2 2 3 3 0 3 1 5 2 3 0 0 5 0 1 4 3 0 4 2 2 2 4 2 2 0 1 0 4 2 1 0 3 1 2 3 2 3 1 3 0 1 4 2 3 1 2 3 2 4 1 2 2 1 5 3 1 1 0 2 2 3 2 1 2 2 0 1 3 1 2 2 2 1 0 1 5 0 2 1 2 3 1 2 2 4 0 3 1 1 0 4 1 3 3 7 1 1 4 1 3 3 3 4 5 1 3 0 3 4 0 3 2 1 2 3 3 1 2 1 3 1 2 1 2 1 2 0 2 2 2 1 2 0 4 3 2 1 1 2 7 0 3 1 2 2 2 1 3 1 4 2 4 1 3 3 2 2 2 3 0 2 4 0 6 0 6 3 1 1 2 1 0 2 1 2 2 3 3 2 2 2 1 2 4 2 1 2 2 0 2 0 3 5 2 2 3 4 1 2 1 4 2 1 1 2 3 0 1 2 0 0 2 1 0 2 0 1 1 1 1 1 2 0 3 1 3 3 3 0 1 1 3 1 1 2 1 0 1 0 1 2 2 2 3 1 1 1 3 0 1 0 2 2 3 0 1 1 0 1 1 0 1 1 2 1 1 1 0 3 1 0 2 1 0 0 1 3 2 2 2 2 1 1 1 2 4 0 2 1 4 2 1 0 0 3 0 0 1 2 3 2 2 3 5 3 1 1 2 1 2 0 2 2 0 1 1 2 1 3 1 3 1 1 1 4 1 2 2 2 1 2 8 1 1 5 5 1 2 2 1 2 4 2 2 3 1 3 1 1 4 3 3 2 3 1 1 2 1 3 5 4 1 0 3 1 0 0 1 0 0 2 2 1 1 2 1 4 0 2 1 0 0 2 1 2 2 5 2 2 2 1 4 1 1 1 4 3 0 0 2 0 3 2 1 0 0 3 3 4 2 0 0 3 1 2 0 2 1 1 4 1 1 2 2 2 3 2 1 0 5 1 2 2 1 2 0 0 2 1 1 2 3 1 1 1 1 3 2 3 1 2 1 1 1 2 2 1 0 
BTB PER SET COUNT: 1 2 2 3 0 0 1 1 3 0 2 0 1 1 0 1 2 1 1 2 0 1 1 2 1 2 2 2 1456 2 2 2 2 1 3 0 0 4 8 0 1 3 7 6 1 1 2 1 4 1 1 1 2 0 0 2 6 3 1 1 1 2 3 5 0 391 4 0 2 2 766 1 1 3 2 1 513 779 3 1 1 3 3 4 3 2 1 5 3 2 9 444 2 3 3 0 1 6 0 1 4 2 5 3 3 2 1 1 3 0 1 2 3 2 1 4 1 2 1 0 3 4 2 0 2 1 1 1 3 3 513 0 1 2 2 1 0 0 1 2 2 5 4 1 3 4 4 3 3 2 1 1571 1 2 7 1 0 3 2 1 0 0 0 1 10 5 0 1 2393 2 2 2 2 1 1 0 1 1 949 1 1 3 6313 2 3 2 4 0 1 1 4 1 1 2 1 6 1 1 0 1 2 1 1 0 0 0 1 1 1 0 0 4 2 1 2 2 0 3 2 0 0 1 1 3 2 0 2 44 0 3 2275 4 1 2 1 3 3 1 1 2 1 0 2 2 1523 4 1 1 3 1 1 1 1 1 0 7 2 3 2 2 3 3 2 2 2 4 3 0 2 1 2 2 1 2 3 2 2 0 3 2 2 2 1 1 2 1022 2 1 1 1 0 0 1 3 0 1 4 2 0 1 2 2 1 1 2 2 3 2 4 3 2 1 2 2 4 0 2 2 1 3 1 2 2 3 0 3 1 4 0 0 1025 0 3 3 948 1 1022 3 4 0 3 0 0 1020 1021 3 1 2 1 6 2 4 3 2 2 2 1 0 4 0 0 2 1 2 5 2 1 0 0 0 4 1 2 0 1 2 2 2 4 3 0 0 1 6 0 0 3 1 2 2 1 2 2 2 2 0 3 0 0 2 3 1 4 1 1 0 1456 3 0 946 0 0 1 2 1 0 7 1 1 92 2 1 3 2 4 5 0 0 1 3 0 0 4 3 3 5 2 1 2 0 0 5 3 3 2 1 1 2 1 2 3 0 0 1 3 0 1 2 2 2 3 0 3 2 0 0 2 0 1 3 0 1 1 510 2 1 0 1 1 0 0 1 1 511 0 2 2 0 4 1 3 1 3 3 0 2 1 1 2 0 3 0 0 1 0 5 1 0 0 2 3 2 4 4 3 0 1 3 1 515 1 1 3 1 3 4 1 4 3 2 6 1 2 2 1 520 0 0 9 0 0 4 3 1 13 1 12 3 4 4 2 5 3 3 0 1 3 0 2 3 6239 0 1 2 1 0 0 1 3 4 4 0 1 8 2 0 0 3 0 0 1 1 1 0 1 0 0 4 2 1 3 2 0 2 946 2 3 0 3 2 1 0 1 3 0 1 1 1 4 0 2 2 2 1 2 1 902 0 3 1 6 1 7 0 3 3 2 2 1 0 513 1 0 5 2 4 0 1 1 2 9 1 3 3 0 0 4 1 2 1 2 1 3 1 1 0 5 0 1 3 7941 2 4 3 2 1 1 1020 0 0 10 2 1 0 7 1021 0 1 5 2 2 0 2 1021 3 1 1 1457 2 1 0 1022 1 1 1 3 3 3 2 4 0 2 0 2 1 1020 0 1 0 0 1 2 0 1 1021 0 1456 1 0 3 1 0 1 1 0 1 1 1 0 3 4 2 946 0 1 1 13 1 1 0 1 2 1 2 1 1 4 1 2 1012 0 0 1 4 0 1 2 5 1 0 1 1 0 2 0 1 3 1 0 0 2 3 0 0 1 2 6 5 1 1 2 1 0 0 3 5 5 4 0 0 2 32 0 0 4 3 3 1 2 1 2 2 2 2 1 1 3 6 0 4 0 2 1 1 2 1 3 0 0 3 4 0 1 0 2 1 2 1 1 51 1 1 2 1 3 0 8 0 3 2 0 1 0 2 0 2 3 2 3 0 2 1 5 1 3 2 0 0 1 2 0 0 0 1 5 1 1 0 2 0 1 1 1 2 1 0 3 3 3 1 4 2 2 0 0 0 1 2 0 0 3 0 2 2 1 2 6 0 2 1 1 0 0 1 1 4 1 1 0 8 3 3 0 0 2 2 0 1 1 2 6 1 3 1 2 0 3 0 2 1 3 1 5 441 3 1 47 3 0 2 1 1 0 948 4 2 1 2 1 1 3 0 4 1 1 1 11 5 2 1 2 517 2 2 4 4 1245 4 2 3 1 1 0 385 3 1 3 4 1 2 4 2 1 4 1 4 1 4 4 1 7 1 1 2 2 1 2 3 1 7 0 1 2 1 2 3 4 6 0 2 2042 0 2406 0 4 3 4 4 1 4 4 4 3053 4 0 2 3 1 1 1 4 4 2 1 3 0 0 1 1 0 2 0 1 4 0 2 5 1 4 3 0 1 3 2 1 389 2 1 2 3 0 1 4 0 2 0 1 2 3 6 1 4 3 2 0 2 7694 0 1 1 1 1 2 5 1 9 4 3 3 5 2 4 2 2 2 0 5 1 1 2 1 23 1 0 5 1 1 1 512 1 1 2 3 4 2 2 2 2 1 4 4 2 1 2 1 1 3 2 1 5 2 3 2 1 3 5 0 1 4 1 0 2 1 0 1 4 3 3 1 2 1 3 2 0 1 1 3 4 1 0 2 0 0 3 3 1 2 2 1 4 0 1 9 0 5 6 2 2 2 7 2 5 0 2559 5 0 3 1 2 0 0 2 519 0 1 1 2 124 1 0 0 514 3 2 1 3 0 0 1 4 1 4 2 2 0 4 0 1 2 6 970 1 6 0 0 1 2 2 4 0 2 1014 2 1 1 1 0 5 1 3 0 1 2 2558 3 1 2 2 0 2 4 1907 4 4 3 2 0 0 3 3 4 2 2 2 1 1 3 2 3 1 1 1 1 2 3324 3 5 0 0 2 1 1 3 2 3 0 0 1 2 1458 2 0 4 1 3 1 1 1 16 0 1 1 0 4 3 0 2 1 3 2 1 1 2 1 2 2 0 3 2 2 0 3 1 1 2 2 1 3 0 2 1 1 1 2 2 3 3 2 1 3 0 1 6 0 2 2 0 2 1 1 2 2 1 0 3 0 1 1 2 3 4 1 1 1 1 4 1 3 3 1 2 0 1 1 1 4 2 2 1 2 1 3 0 1 4 2 4 1 5 2 1 1 1 2 3 1 1 1 5 0 17 3 2 3 1 0 3 124 1 1 1 3 0 2 2 1 3 2 4 4 0 4 2 6 3 1 3 3 0 2 1457 0 1 1331 1 1 1 0 0 2 1 0 4 1330 0 2 1 3 4 1 1 0 1 1 1 0 1 0 0 3 2 0 1 1 0 1 1 0 0 0 1 0 0 1 0 0 2 0 2 0 3 1 2 0 1 0 0 6 30 0 2 1 4 3 1 0 2 3 94 0 5 0 1 1 1 1 1 0 2 0 3 377 0 1 12 1 0 1 0 3 1 2 3 2 25 2 3 2 0 1 1 0 1 0 6 0 1 1 0 0 0 1 0 1 1 0 1 430 2 1 2 2 2 2 2 2 1 0 1 2 2 0 0 1 2 1 11 1 0 1 1 8 3 0 0 1 2 1 0 0 3 1 3 0 2 1 3 2 1 3 4 4 2023 0 1 1 3 2 1 25 4 3 2 4 1465 0 0 2 1457 1 1 1 1 1 2 0 2 946 0 1 4 0 1 1 3 1 2 3 3 3054 0 1 4 0 6 5 2 2 3 2 3 3 1 1 1 254 2 2 1 9 2 1 6 1 1 3 3 1 1 1 3 0 2 1 2 3 0 0 1 1 0 4 4 1 0 2 3 0 1 5 2 1 1020 2 1 0 0 3 2 1021 0 0 0 3 517 0 5 2 4 3 2 1 589 1 2 5228 4 2 14563 1021 1 3 3 9 1 1 1 0 0 2 3 1 2 0 0 3 3 2 164 2 0 0 1 1457 145 2 2 1 3 2 2 723 0 2 0 1 2 1 0 0 1 615 0 1 2 0 3 0 4 1 2 0 3 2 3 4 0 3 0 2 0 1 1 1 11 0 2 528 0 1 2 2 1 1 0 1 946 1 1 1 2 2 3 0 4 0 0 1 2 1456 1 3010 1 0 2 3 3 2 3 2 1832 2 471 3 0 2 1 3 217 7 98 0 2 1 1838 0 214 0 4 1463 2 2 1 1 1 0 1 2 0 2 0 1 5 4 2 1 5 372 2 4 949 0 2 0 4 1 3 2 3 2 2 1 0 2 212 2 1 0 1 2 0 0 0 1 0 1 1 3 0 2 2 2 3 10 2 1 2 2 3 1 1 3 2 1 0 2 2 3 2 0 0 1 0 0 1 0 0 1 1 1 2 1 1 2 0 0 0 2 1 1 1 1 3 1 2 2 144 0 2 2 1 3 2 4 1 2 1 0 1 0 4 1 0 1 2 1 3 2 2 2 0 2 0 1 0 0 2 3 0 5 1458 4 0 2 2 1943 1 0 0 1 6 3 3 2 3 1 3 1 0 1 2 4 4 3061 2 0 4 0 1 1 1 1 2 1 0 2 0 1 2 3 3 0 0 3 5 1 0 0 2 4 1 0 3 4 1 0 3 3 0 1 2 5 0 0 0 2 1 0 4 0 1 0 2 2 3 0 2 1 215 1 2 1 0 2 1470 2 4 0 2 2 1 1 1 2 2 1 1 0 0 0 4 2 1 2 1 2 3 1465 3 4 2 1 3 3 0 3 2 1 6 4 2 3 3 2 2912 3 4 2 4 2 1 5 4728 3 2 3 2 2 2 1 1 1 0 1 1 0 2 2 0 2 0 1 1 0 1 5 1 3 0 0 0 2 1 2 1 1 0 3 1 1 0 0 0 5 1 1 0 1 3 1 1 2 0 0 3 1 2 2 2 2 2 0 1 0 0 1 0 5 1 0 0 4 1 3 1 3 3 1 2 2 0 0 0 1 1 1 4 4 3 2 3 3 6 4 2 2 2 1 4 1 1 2 1 9 1 2 2 2 2 3 2 3 2 0 4 1 3 2 9 1021 7 3 3 1894 2 1 4 1 1 1 3 2 0 4 3 5 3 0 2 1 1 2 4 6 1 1 2 3 1 2 2 2 3 4 3 3 3 5 1 1 3 2 4 3 1 1467 2 1 2 4 4 3 2 1 3 4 3 0 1 2 2 1 2 2 7 1 0 1 3 1 2 4 3 1 2 2 1 1 0 0 7 2 7 8 0 2 1 3 2 1 0 3 2 2 1 5 2 2 6 1 2 0 1456 5 0 2 2 1 1 0 2 2 2 1 0 3 0 1 4 1 8 1 6 2 2 2 0 0 0 3 0 4 4 0 6 1 3 1 1 1 1 1 2 0 1 0 5 2 4 1 1 0 2 4 8 6 1 2 3 1020 1 2 2 0 1 5 1 2 4 0 0 3 2 4 2 3 2 0 1 0 1 4 4 0 0 4 6 2 3 6 5 1 3 2 1 0 2 1 3 4 2 4 5 8 0 2 2 2 0 1 1 4 5 2 2 5 2 1 28 3 1 4 6 4 5 1 4 0 5 3 2 0 1 1 1459 0 2 2 1 1 1 1 1 5 2 0 1 0 1 3 4 3 946 3 111 2 0 1 0 0 1 4 4 2 8 0 1 3 143 2 7 1 2 2 1 2 3 0 5 0 2 1 5 20 1 1 2 2 1 3 1 3 3 2 0 1 520 1 0 3 1 4 2 4 6 3 3 0 0 5 33 2 1 0 5 4 1 1 2 0 1 0 0 2 1 1 3 0 2 1 2 2 2 6 6 2 0 2 2 7 1 1 2 0 1 2 2 1 1 0 2 4 0 1 1 2 4 1 5 1459 1 3 4 3 0 3 3 2 0 2 2 6 2 1 3 2 1 1 3 1 3 6 1 1 2 0 3 2027 2 4 1 4 2 2 3 1 2 2 1 3 4 2 1 1 4 2 0 3 0 5 2 5 1 2 3 3 1 24 4 38 1 0 0 0 0 2494 3 3 3 11 3 0 2 1 3 3 3 1 8 3 8 6 2 4 4 3 0 2 3 1 0 1 0 2 0 0 1 0 2 514 3 2 0 2 1 3 1 3 2 1458 4 1 3 1 3 4 2 1 3 0 1 1 1 0 2 4 1 3 3 1 2 1 2 0 1 3 1 0 4 0 2 1 3 5 2919 4 3 4 1 3 5 7 1 4 3 2 0 1 2 4 3 0 3 2 4 1 3 2 3 4 1 2 2 0 3 1 4 37 0 4 0 1 2 2 4 0 3 2 2 1 4 1 0 1 24 1 0 1 1 0 0 0 1 4 0 4 2 1 3 3 1 2 2 4 2 3 1 3 1 1 2 2 1 3 517 1 1 0 0 2 0 2 2 1 1 3 3 1 2 2 1 3 5 3 17 2 3 3 3 2 0 128 2 4 2 1 0 2 2 5 0 3 18 3 0 0 0 4 1 1 2 1 2 4 5 1 1 3 3 2 4 1 2043 4 3 1 2 1 1 3 3 0 3 3 0 2 0 1 2 2 4 2 0 1 2 1 3 0 2 0 1 1 8 2 1 2 2 1 2 1 5 1461 2 7 6 3 2 3 4 2 2 3 2 3 3 3 3 4 2 4789 2 0 13 947 5 5 4 5 1 2 2 4 3 0 0 1 3 3 1 10 5 7 87 3 1 1 3 8 3 3 2 2 2 0 2 4 1 1 4 3 1 61 6 2 4 4 3 1 2 1 1 3 0 3 0 1 7 0 2 5 2 2 4 1 0 2 3 101 2 514 21 1271 4 3 2041 4 2 15 3 1 1 1 2 8 4 252 3 3 771 1 1 5 1 3 2 4 2 1 1 2 2 3 0 3 1 3 4 1 2 3 0 4 4 0 951 1 0 1 4 3 512 2 1 0 1 2 3 1 2 4 1 2041 3 4 2 3 2 1 4 4 3 2 1 2 1 1 4 2 3 3 1 387 1026 0 2 0 1 4 2 1 3 1 3 1 1 1 1 2 1 3 5 1 0 2 3 1 2 3 1 2 3 1 3 2 1 4 1 3 0 2 0 2 1459 1 0 0 1 1 4 0 0 1 2 1 3 1 0 2 1 4 2 1 2 0 3 1 1 3 0 1 5 91 3 2 0 2 3 2 1 1 1 0 0 1 1 0 5 2 2 2 4 1 3 3 28 1 1 3 4 1 3 4 2 2 4 0 4 1 3 2 2 1 3 2 3 4 3 2 7 4 2 2 2 1 1 2 0 4 1 1 1 1 2 2 1 1 521 0 1 2 2 2 4 0 4 1 2 3 1 1 3 3 1 4 1 2 1 2 2 2 3 3 1 2 2 3 0 5 1 1 4 2 2 2 949 0 6 2 1 1 1 4 3 0 1 0 3 1 2 0 1 2 2 1 3 5 1 1 1 1 2 3 0 3 3 2 0 2 2 0 3 0 1 4 3 1 1 1 1 0 4 0 0 1 5 1 2 2 1 3 4 1 2 0 2 1 3 4 4822 1 1 1461 4 3 1 1 0 2 3 3 0 0 3 2 1 2 2 2 0 3 1 2 1 524 1 4 4 4 0 1 3 1 1 1 3 2 4 1278 946 3 0 2 4 5 1 4 1 2548 4 1 1 1 1 2 4 2 1 2 3 3 11 2 3 2 513 2 3 4 1 92 3 4 1 1 2 2 3 1 1 1 5 2 2 0 2 0 0 1 3 3059 2 4 1 2 3 2 2 2 2 1 1 1 1 3 4 1 3 1 4 3 1 0 1 2 0 2 0 3 0 4 12 0 0 1 3 946 2 2 8 0 3 46 1 3 2 3 0 1 2 2 1 1 4 2 3 0 0 0 3 1 1 3 3 5 2 16 2 1 2 0 2 1 3 0 3 1 2 1 0 4 0 1 1 2 1 6 4 0 3 3 2 0 11 0 454 4 0 1 5 1 0 3 1 3 2 0 2 3 2 2 1 2 1 2 2530 2 3 5 2 3 2 4 2 1 7 0 4 6 3 951 2 1 2 0 2 0 2 2 2 5 1 3 1012 1 10 2 3 2 1520 0 0 2 1 2 3 6 1 2 20386 0 0 1 2 0 0 2 1 3 277 2 1 0 33 2 1 3 1 5 0 2 1 2 4 0 8 0 1 2 2 1 3 3 1 4 2 3 1 3 0 4 2 2 5 0 5 0 3 2 3 2 1 2 0 2 1 2 1 1 4 0 2 2 1 2 1 0 3 2 1 2295 4 2 5 1 2 0 1 3 948 1 0 0 1 1 1 0 2 2 2 6 4 0 3 1 10 2 4 0 0 18 0 1 18 3 0 4 2 2 2 4 2 2 0 1 0 4 4 1 0 3 1 2 4 4 3 1 4 0 1 4 2 4 1 4 3 2 4 1 3 2 1 25 4 1 385 0 1457 2 4 232 1 2 2 0 1 3 1 2 2 3 2 0 1 7 0 3 1 2 3 1 512 2 4 0 6 2 1 0 4 1 514 3 2045 1 1 5 1 3 3 3 4 8 1 4 0 3 4 0 513 2 1 2 3 4 1 2 1 3 2 387 1456 2 1 2 0 3 2 2 1 2 0 5 3 2 1 1 2 3059 0 1460 1 2 2 2 1 3 2 4 2 4 1 3 6 3 2 3 3 0 2 4 0 4197 0 1289 5 1 1 2 1 0 2 1 5 2 3 4 2 2 2 2 2 4 2 1 2 2 0 2 0 3 2025 947 2 3 4 1 2 1 4 2 1 1 2 3 0 1 2 0 0 2 1 0 3 0 1 1 1 1 1 2 0 3 1 3 3 4 0 1 2 3 1 1 2 2 0 1 0 1 3 2 2 3 1 1 1 449 0 1 0 2 2 3 0 1 1 0 1 1 0 1 1 2 1 1 1 0 27 1 0 2 1 0 0 1 4 2 2 2 2 1 2 1 2 4 0 2 1 4 2 1 0 0 4 0 0 1 2 3 2 1013 5 6 3 1 1 2 1 2 0 2 3 0 1 1 2 1 3 7 3 1 1 1 4 1 2 3 2 1 2 3026 1 1 1274 5 1 2 2 2 2 4 2 3 9 1 4 2 2 4 3 1014 2 3 1 1 2 1 3 213 4 3 0 3 2 0 0 1 0 0 2 2 1 1 2 1 4 0 4 1 0 0 2 1 2 2 1363 2 3 3 1 520 1 2 1 4 6 0 0 2 0 5 2 1 0 0 3 3 4 2 0 0 4 1 2 0 2 1 1 5 1 1 2 2 2 6 2 1 0 28 1 2 2 1 2 0 0 2 1 1 2 3 2 2 1 1 3 2 6 1 3 1 1 1 10 2 1 0 
