
*** ChampSim Multicore Out-of-Order Simulator ***

Warmup Instructions: 50000000
Simulation Instructions: 50000000
Number of CPUs: 1
LLC sets: 2048
LLC ways: 16
Off-chip DRAM Size: 4096 MB Channels: 1 Width: 64-bit Data Rate: 6400 MT/s
CPU 0 runs ./micro_traces/srv445.trace.gz
.gz
ITLB has LRU replacement policy
DTLB has LRU replacement policy
STLB has LRU replacement policy
CPU 0 L1I next line prefetcher
L1I has LRU replacement policy
L1D has LRU replacement policy
Initialize SRRIP state for L2C
Initialize DRRIP state for LLC
Heartbeat CPU 0 instructions: 10000001 cycles: 2797427 heartbeat IPC: 3.57471 cumulative IPC: 3.57471 (Simulation time: 0 hr 1 min 41 sec) 
Heartbeat CPU 0 instructions: 20000001 cycles: 5593899 heartbeat IPC: 3.57593 cumulative IPC: 3.57532 (Simulation time: 0 hr 3 min 19 sec) 
Heartbeat CPU 0 instructions: 30000001 cycles: 8389711 heartbeat IPC: 3.57678 cumulative IPC: 3.57581 (Simulation time: 0 hr 4 min 56 sec) 
Heartbeat CPU 0 instructions: 40000002 cycles: 11186817 heartbeat IPC: 3.57512 cumulative IPC: 3.57564 (Simulation time: 0 hr 6 min 36 sec) 
Heartbeat CPU 0 instructions: 50000003 cycles: 13984896 heartbeat IPC: 3.57388 cumulative IPC: 3.57529 (Simulation time: 0 hr 8 min 14 sec) 

Warmup complete CPU 0 instructions: 50000003 cycles: 13984896 (Simulation time: 0 hr 8 min 14 sec) 

Cycle: 20000000 FTQ IN: 56690727 FTQ occupancy: 17.1963 DECODE IN: 56690713 DECODE occupancy: 45.0421 ROB IN: 56690704 ROB occupancy: 281.379 ROB OUT: 56690680
Heartbeat CPU 0 instructions: 60000001 cycles: 22961669 heartbeat IPC: 1.11399 cumulative IPC: 1.11399 (Simulation time: 0 hr 9 min 31 sec) 
Cycle: 30000000 FTQ IN: 11007739 FTQ occupancy: 3.84821 DECODE IN: 11007753 DECODE occupancy: 10.3904 ROB IN: 11007762 ROB occupancy: 124.312 ROB OUT: 11007775
Heartbeat CPU 0 instructions: 70000001 cycles: 32076988 heartbeat IPC: 1.09705 cumulative IPC: 1.10546 (Simulation time: 0 hr 10 min 49 sec) 
Cycle: 40000000 FTQ IN: 11051089 FTQ occupancy: 3.65235 DECODE IN: 11051037 DECODE occupancy: 9.85666 ROB IN: 11051037 ROB occupancy: 122.326 ROB OUT: 11050956
Heartbeat CPU 0 instructions: 80000001 cycles: 41139534 heartbeat IPC: 1.10344 cumulative IPC: 1.10478 (Simulation time: 0 hr 12 min 6 sec) 
Cycle: 50000000 FTQ IN: 10806761 FTQ occupancy: 3.84731 DECODE IN: 10806808 DECODE occupancy: 9.93243 ROB IN: 10806808 ROB occupancy: 117.207 ROB OUT: 10806797
Heartbeat CPU 0 instructions: 90000000 cycles: 50409276 heartbeat IPC: 1.07878 cumulative IPC: 1.09817 (Simulation time: 0 hr 13 min 24 sec) 
Heartbeat CPU 0 instructions: 100000000 cycles: 59453275 heartbeat IPC: 1.10571 cumulative IPC: 1.09967 (Simulation time: 0 hr 14 min 37 sec) 
Finished CPU 0 instructions: 50000001 cycles: 45468380 cumulative IPC: 1.09967 (Simulation time: 0 hr 14 min 37 sec) 

ChampSim completed all CPUs

Region of Interest Statistics

CPU 0 cumulative IPC: 1.09967 instructions: 50000001 cycles: 45468380
 Fetch stage stalled: 73.5605  Sim cycles: 45468380 fetch stall cycle: 33446750
 Empty decode stage: 58.3184  Sim cycles: 45468380 fetch stall cycle: 26516442
ITLB TOTAL     ACCESS:    7625546  HIT:    7025241  MISS:     600305  HIT %:    92.1277  MISS %:    7.87229   MPKI: 12.0061
ITLB LOAD TRANSLATION INSTRUCTION	ACCESS:    5866404  HIT:    5734716  MISS:     131688  HIT %:    97.7552  MISS %:    2.24478  MPKI: 2.63376
ITLB TRANSLATION FROM L1D PREFETCHER INSTRUCTION	ACCESS:    1759142  HIT:    1290525  MISS:     468617  HIT %:     73.361  MISS %:     26.639  MPKI: 9.37234

ITLB AVERAGE MISS LATENCY: 107468 cycles
ITLB RQ	ACCESS:   11531104	FORWARD:          0	MERGED:    3766669	TO_CACHE:    7764435

DTLB TOTAL     ACCESS:    9386155  HIT:    8914336  MISS:     471819  HIT %:    94.9732  MISS %:    5.02675   MPKI: 9.43638
DTLB LOAD TRANSLATION DATA	ACCESS:    9386155  HIT:    8914336  MISS:     471819  HIT %:    94.9732  MISS %:    5.02675  MPKI: 9.43638

DTLB AVERAGE MISS LATENCY: 9.31927 cycles
DTLB RQ	ACCESS:   13667456	FORWARD:          0	MERGED:    4248713	TO_CACHE:    9418743

STLB TOTAL     ACCESS:    1319391  HIT:    1317426  MISS:       1965  HIT %:    99.8511  MISS %:   0.148932   MPKI: 0.0393
STLB LOAD TRANSLATION INSTRUCTION	ACCESS:     129920  HIT:     129781  MISS:        139  HIT %:     99.893  MISS %:   0.106989  MPKI: 0.00278
STLB TRANSLATION FROM L1D PREFETCHER INSTRUCTION	ACCESS:     470385  HIT:     470307  MISS:         78  HIT %:    99.9834  MISS %:  0.0165822  MPKI: 0.00156
STLB LOAD TRANSLATION DATA	ACCESS:     471819  HIT:     470089  MISS:       1730  HIT %:    99.6333  MISS %:   0.366666  MPKI: 0.0346
STLB TRANSLATION FROM L1D PREFETCHER DATA	ACCESS:     247267  HIT:     247249  MISS:         18  HIT %:    99.9927  MISS %: 0.00727958  MPKI: 0.00036

STLB AVERAGE MISS LATENCY: 74.8204 cycles
STLB RQ	ACCESS:    1444835	FORWARD:          0	MERGED:     122039	TO_CACHE:    1322796

STLB Hit, L1D data hit: 0
STLB Hit, L2C data hit: 0
STLB Hit, LLC data hit: 0
STLB Hit, LLC data miss: 0
STLB STLB hints to L2: 0
L1D TOTAL     ACCESS:   13419436  HIT:   12301207  MISS:    1118229  HIT %:    91.6671  MISS %:    8.33291   MPKI: 22.3646
L1D LOAD DATA	ACCESS:    6851932  HIT:    6113461  MISS:     738471  HIT %:    89.2224  MISS %:    10.7776  MPKI: 14.7694
L1D RFO DATA	ACCESS:    6239365  HIT:    5953163  MISS:     286202  HIT %:     95.413  MISS %:    4.58704  MPKI: 5.72404
L1D PREFETCH DATA	ACCESS:     328139  HIT:     234583  MISS:      93556  HIT %:    71.4889  MISS %:    28.5111  MPKI: 1.87112

L1D PREFETCH  REQUESTED:     738917  ISSUED:     738917  USEFUL:      33720  USELESS:      67693
L1D USEFUL LOAD PREFETCHES:      33720 PREFETCH ISSUED TO LOWER LEVEL:     101504  ACCURACY: 33.2204
 TIMELY PREFETCHES:      33720 LATE PREFETCHES: 7870 DROPPED PREFETCHES: 8
L1D AVERAGE MISS LATENCY: 258792 cycles
L1D RQ	ACCESS:   10922495	FORWARD:          0	MERGED:    3866336	TO_CACHE:    6889696
L1D WQ	ACCESS:    6950180	FORWARD:     166698	MERGED:     172420	TO_CACHE:    6777760
L1D PQ	ACCESS:     369576	FORWARD:          0	MERGED:          0	TO_CACHE:     369341

L1D UNIQUE REGIONS ACCESSED: 0
L1D REGIONS CONFLICTS: 0
L1D Cross Page Prefetch Requests: 6537
L1D Same Page Prefetch Requests: 746945
L1D ROI Sum of L1D PQ occupancy: 4698631
L1D PREFETCHES PUSHED FROM L2C: 0
L1I TOTAL     ACCESS:   11234216  HIT:    7628358  MISS:    3605858  HIT %:    67.9029  MISS %:    32.0971   MPKI: 72.1172
L1I LOAD INSTRUCTION	ACCESS:    6680625  HIT:    6169171  MISS:     511454  HIT %:    92.3442  MISS %:    7.65578  MPKI: 10.2291
L1I PREFETCH INSTRUCTION	ACCESS:    4553591  HIT:    1459187  MISS:    3094404  HIT %:    32.0448  MISS %:    67.9552  MPKI: 61.8881

L1I PREFETCH  REQUESTED:    5120801  ISSUED:    5120750  USEFUL:    2393563  USELESS:     749172
L1I USEFUL LOAD PREFETCHES:    2393563 PREFETCH ISSUED TO LOWER LEVEL:    3142670  ACCURACY: 76.1634
 TIMELY PREFETCHES:    2393563 LATE PREFETCHES: 48267 DROPPED PREFETCHES: 9713
L1I AVERAGE MISS LATENCY: 483915 cycles
L1I RQ	ACCESS:    9428178	FORWARD:          0	MERGED:    2724096	TO_CACHE:    6704082
L1I PQ	ACCESS:    5120750	FORWARD:          0	MERGED:     293728	TO_CACHE:    4827022

L1BTB TOTAL     ACCESS:    5671258  HIT:    2034514  MISS:    3636744  HIT %:    35.8741  MISS %:    64.1259   MPKI: 72.7349
L1BTB BRANCH_DIRECT_JUMP	ACCESS:     548966  HIT:     143861  MISS:     405105	AVERAGE STALL: 19.7095
L1BTB BRANCH_INDIRECT	ACCESS:     182923  HIT:      65972  MISS:     116951	AVERAGE STALL: 79.2219
L1BTB BRANCH_CONDITIONAL	ACCESS:    2707076  HIT:    1410699  MISS:    1296377	AVERAGE STALL: 19.8213
L1BTB BRANCH_DIRECT_CALL	ACCESS:     944412  HIT:     104227  MISS:     840185	AVERAGE STALL: 20.359
L1BTB BRANCH_INDIRECT_CALL	ACCESS:     171739  HIT:      21004  MISS:     150735	AVERAGE STALL: 102.188
L1BTB BRANCH_RETURN	ACCESS:    1116142  HIT:     288751  MISS:     827391	AVERAGE STALL: 21.6681
L1BTB BRANCH_OTHER ACCESS:          0  HIT:          0  MISS:          0	AVERAGE STALL: -nan
L1BTB TOTAL ROB OCCUPANCY AT BTB MISS: 29.2105

L2BTB TOTAL     ACCESS:    3611326  HIT:    2584414  MISS:    1026912  HIT %:    71.5641  MISS %:    28.4359   MPKI: 20.5382
L2BTB BRANCH_DIRECT_JUMP	ACCESS:     400949  HIT:     285232  MISS:     115717	AVERAGE STALL: 19.7095
L2BTB BRANCH_INDIRECT	ACCESS:     106641  HIT:      93446  MISS:      13195	AVERAGE STALL: 79.2219
L2BTB BRANCH_CONDITIONAL	ACCESS:    1296377  HIT:     925990  MISS:     370387	AVERAGE STALL: 19.8213
L2BTB BRANCH_DIRECT_CALL	ACCESS:     840185  HIT:     575124  MISS:     265061	AVERAGE STALL: 20.359
L2BTB BRANCH_INDIRECT_CALL	ACCESS:     141193  HIT:      92975  MISS:      48218	AVERAGE STALL: 102.188
L2BTB BRANCH_RETURN	ACCESS:     825981  HIT:     611647  MISS:     214334	AVERAGE STALL: 21.6681
L2BTB BRANCH_OTHER ACCESS:          0  HIT:          0  MISS:          0	AVERAGE STALL: -nan
L2BTB TOTAL ROB OCCUPANCY AT BTB MISS: 103.447

L2C TOTAL     ACCESS:    6580008  HIT:    5542285  MISS:    1037723  HIT %:    84.2292  MISS %:    15.7708   MPKI: 20.7545
L2C LOAD INSTRUCTION	ACCESS:     463187  HIT:     371809  MISS:      91378  HIT %:    80.2719  MISS %:    19.7281  MPKI: 1.82756
L2C PREFETCH INSTRUCTION	ACCESS:    3142670  HIT:    2732621  MISS:     410049  HIT %:    86.9522  MISS %:    13.0478  MPKI: 8.20098
L2C LOAD TRANSLATION INSTRUCTION	ACCESS:        159  HIT:         45  MISS:        114  HIT %:    28.3019  MISS %:    71.6981  MPKI: 0.00228
L2C TRANSLATION FROM L1D PREFETCHER INSTRUCTION	ACCESS:       4177  HIT:       3949  MISS:        228  HIT %:    94.5415  MISS %:    5.45846  MPKI: 0.00456
L2C LOAD DATA	ACCESS:     730569  HIT:     592888  MISS:     137681  HIT %:    81.1543  MISS %:    18.8457  MPKI: 2.75362
L2C RFO DATA	ACCESS:     286097  HIT:     196360  MISS:      89737  HIT %:    68.6341  MISS %:    31.3659  MPKI: 1.79474
L2C PREFETCH DATA	ACCESS:    1428935  HIT:    1163787  MISS:     265148  HIT %:    81.4444  MISS %:    18.5556  MPKI: 5.30296
L2C WRITEBACK DATA	ACCESS:     522379  HIT:     480304  MISS:      42075  HIT %:    91.9455  MISS %:     8.0545  MPKI: 0.8415
L2C LOAD TRANSLATION DATA	ACCESS:       1799  HIT:        497  MISS:       1302  HIT %:    27.6265  MISS %:    72.3735  MPKI: 0.02604
L2C TRANSLATION FROM L1D PREFETCHER DATA	ACCESS:         36  HIT:         25  MISS:         11  HIT %:    69.4444  MISS %:    30.5556  MPKI: 0.00022

L2C PREFETCH  REQUESTED:    3254017  ISSUED:    3254017  USEFUL:      32521  USELESS:     644652
L2C USEFUL LOAD PREFETCHES:      32521 PREFETCH ISSUED TO LOWER LEVEL:     676264  ACCURACY: 4.80892
 TIMELY PREFETCHES:      32521 LATE PREFETCHES: 1067 DROPPED PREFETCHES: 0
L2C AVERAGE MISS LATENCY: 33.1309 cycles
L2C RQ	ACCESS:    1486083	FORWARD:          0	MERGED:          0	TO_CACHE:    1486024
L2C WQ	ACCESS:     522379	FORWARD:         59	MERGED:          0	TO_CACHE:     522379
L2C PQ	ACCESS:    6498191	FORWARD:          0	MERGED:    1908166	TO_CACHE:    4590025

L2C Dense regions hint from L2: 0
PSCL5 TOTAL     ACCESS:      10688  HIT:       5344  MISS:       5344  HIT %:         50  MISS %:         50   MPKI: 0.10688
PSCL5 LOAD TRANSLATION INSTRUCTION	ACCESS:       3720  HIT:       1860  MISS:       1860  HIT %:         50  MISS %:         50  MPKI: 0.0372
PSCL5 TRANSLATION FROM L1D PREFETCHER INSTRUCTION	ACCESS:       6968  HIT:       3484  MISS:       3484  HIT %:         50  MISS %:         50  MPKI: 0.06968


PSCL4 TOTAL     ACCESS:       9773  HIT:       4883  MISS:       4890  HIT %:    49.9642  MISS %:    50.0358   MPKI: 0.0978
PSCL4 LOAD TRANSLATION INSTRUCTION	ACCESS:       1852  HIT:       1743  MISS:        109  HIT %:    94.1145  MISS %:    5.88553  MPKI: 0.00218
PSCL4 TRANSLATION FROM L1D PREFETCHER INSTRUCTION	ACCESS:       3272  HIT:       3140  MISS:        132  HIT %:    95.9658  MISS %:    4.03423  MPKI: 0.00264
PSCL4 LOAD TRANSLATION DATA	ACCESS:       1641  HIT:          0  MISS:       1641  HIT %:          0  MISS %:        100  MPKI: 0.03282
PSCL4 TRANSLATION FROM L1D PREFETCHER DATA	ACCESS:       3008  HIT:          0  MISS:       3008  HIT %:          0  MISS %:        100  MPKI: 0.06016


PSCL3 TOTAL     ACCESS:       9779  HIT:       4886  MISS:       4893  HIT %:    49.9642  MISS %:    50.0358   MPKI: 0.09786
PSCL3 LOAD TRANSLATION INSTRUCTION	ACCESS:       1855  HIT:       1746  MISS:        109  HIT %:     94.124  MISS %:    5.87601  MPKI: 0.00218
PSCL3 TRANSLATION FROM L1D PREFETCHER INSTRUCTION	ACCESS:       3272  HIT:       3140  MISS:        132  HIT %:    95.9658  MISS %:    4.03423  MPKI: 0.00264
PSCL3 LOAD TRANSLATION DATA	ACCESS:       1644  HIT:          0  MISS:       1644  HIT %:          0  MISS %:        100  MPKI: 0.03288
PSCL3 TRANSLATION FROM L1D PREFETCHER DATA	ACCESS:       3008  HIT:          0  MISS:       3008  HIT %:          0  MISS %:        100  MPKI: 0.06016


PSCL2 TOTAL     ACCESS:       9159  HIT:       4530  MISS:       4629  HIT %:    49.4595  MISS %:    50.5405   MPKI: 0.09258
PSCL2 LOAD TRANSLATION INSTRUCTION	ACCESS:       1924  HIT:       1773  MISS:        151  HIT %:    92.1518  MISS %:    7.84823  MPKI: 0.00302
PSCL2 TRANSLATION FROM L1D PREFETCHER INSTRUCTION	ACCESS:       5477  HIT:       2757  MISS:       2720  HIT %:    50.3378  MISS %:    49.6622  MPKI: 0.0544
PSCL2 LOAD TRANSLATION DATA	ACCESS:       1721  HIT:          0  MISS:       1721  HIT %:          0  MISS %:        100  MPKI: 0.03442
PSCL2 TRANSLATION FROM L1D PREFETCHER DATA	ACCESS:         37  HIT:          0  MISS:         37  HIT %:          0  MISS %:        100  MPKI: 0.00074


LLC TOTAL     ACCESS:    1127613  HIT:    1099054  MISS:      28559  HIT %:    97.4673  MISS %:     2.5327   MPKI: 0.57118
LLC LOAD INSTRUCTION	ACCESS:      90953  HIT:      90568  MISS:        385  HIT %:    99.5767  MISS %:   0.423296  MPKI: 0.0077
LLC PREFETCH INSTRUCTION	ACCESS:     408240  HIT:     407722  MISS:        518  HIT %:    99.8731  MISS %:   0.126886  MPKI: 0.01036
LLC LOAD TRANSLATION INSTRUCTION	ACCESS:        114  HIT:         93  MISS:         21  HIT %:    81.5789  MISS %:    18.4211  MPKI: 0.00042
LLC TRANSLATION FROM L1D PREFETCHER INSTRUCTION	ACCESS:        228  HIT:        207  MISS:         21  HIT %:    90.7895  MISS %:    9.21053  MPKI: 0.00042
LLC LOAD DATA	ACCESS:     137065  HIT:     133467  MISS:       3598  HIT %:     97.375  MISS %:    2.62503  MPKI: 0.07196
LLC RFO DATA	ACCESS:      89689  HIT:      76560  MISS:      13129  HIT %:    85.3616  MISS %:    14.6384  MPKI: 0.26258
LLC PREFETCH DATA	ACCESS:     268024  HIT:     257526  MISS:      10498  HIT %:    96.0832  MISS %:    3.91681  MPKI: 0.20996
LLC WRITEBACK DATA	ACCESS:     131987  HIT:     131690  MISS:        297  HIT %:     99.775  MISS %:   0.225022  MPKI: 0.00594
LLC LOAD TRANSLATION DATA	ACCESS:       1302  HIT:       1211  MISS:         91  HIT %:    93.0108  MISS %:    6.98925  MPKI: 0.00182
LLC TRANSLATION FROM L1D PREFETCHER DATA	ACCESS:         11  HIT:         10  MISS:          1  HIT %:    90.9091  MISS %:    9.09091  MPKI: 2e-05

LLC AVERAGE MISS LATENCY: 156.67 cycles
LLC RQ	ACCESS:     319384	FORWARD:          0	MERGED:          0	TO_CACHE:     319362
LLC WQ	ACCESS:     131987	FORWARD:         22	MERGED:          0	TO_CACHE:     131987
LLC PQ	ACCESS:     676264	FORWARD:          0	MERGED:          0	TO_CACHE:     676264

LLC Dense regions hint to LLC: 0

RAW hits: 1711209
Loads Generated: 12633702
Loads sent to L1D: 10922495
Stores Generated: 6950187
Stores sent to L1D: 6950180
Major fault: 0 Minor fault: 2491
Allocated PAGES: 2491
I-Shadow cache 408 bytes
Touched + WorthPF tables 12288 bytes 
MMA filter 174 bytes 
FNL filter 272 bytes 
TOTAL PREFETCHER STORAGE SIZE: 31318 bytes
CPU 0 L1I next line prefetcher final stats

stream: 
stream:times selected: 1176213
stream:pref_filled: 116897
stream:pref_useful: 22614
stream:pref_late: 7721
stream:misses: 8204
stream:misses_by_poll: 0

CS: 
CS:times selected: 173611
CS:pref_filled: 53759
CS:pref_useful: 30439
CS:pref_late: 12562
CS:misses: 21657
CS:misses_by_poll: 2

CPLX: 
CPLX:times selected: 1001494
CPLX:pref_filled: 19573
CPLX:pref_useful: 4267
CPLX:pref_late: 3266
CPLX:misses: 95233
CPLX:misses_by_poll: 0

NL_L1: 
NL:times selected: 19052
NL:pref_filled: 556
NL:pref_useful: 215
NL:pref_late: 393
NL:misses: 1666
NL:misses_by_poll: 0

total selections: 2370370
total_filled: 93556
total_useful: 33720
total_late: 25461
total_polluted: 2
total_misses_after_warmup: 776240
conflicts: 5675672

test: 115580

DRAM Statistics
 CHANNEL 0
 RQ ROW_BUFFER_HIT:      10110  ROW_BUFFER_MISS:      18151
 DBUS_CONGESTED:          9
 WQ ROW_BUFFER_HIT:       1415  ROW_BUFFER_MISS:      12225  FULL:          0

 AVG_CONGESTED_CYCLE: 5

CPU 0 Branch Prediction Accuracy: 99.8189% MPKI: 0.33126 Average ROB Occupancy at Mispredict: 126.493
Branch types
NOT_BRANCH: 40852989 81.706%
BRANCH_DIRECT_JUMP: 548966 1.09793%
BRANCH_INDIRECT: 182923 0.365846%
BRANCH_CONDITIONAL: 6182693 12.3654%
BRANCH_DIRECT_CALL: 944412 1.88882%
BRANCH_INDIRECT_CALL: 171739 0.343478%
BRANCH_RETURN: 1116142 2.23228%
BRANCH_OTHER: 0 0%

DRAM PAGES: 1048576
Allocated PAGES: 2491
Average_ROB_Occupancy: 122.637
Average_Decode_Occupancy: 10.031
Average_FTQ_Occupancy: 3.75769
Indirect max targets: 14 Average targets: 1.14052
Branch_type:  BRANCH_DIRECT_JUMP:  Count Percentage: 2.8807 6.67641 2.91154 8.0053 1.69086 5.95931 1.61759 70.2583 
Branch_type:  BRANCH_INDIRECT:  Count Percentage: 11.7693 3.4318 2.50831 17.6373 3.34907 4.01587 2.01547 55.2729 
Branch_type:  BRANCH_CONDITIONAL:  Count Percentage: 20.897 3.2797 1.77323 5.96177 1.43742 4.69426 0.910013 61.0466 
Branch_type:  BRANCH_DIRECT_CALL:  Count Percentage: 0.256879 1.79493 1.11621 3.76127 2.22977 3.03899 0.774706 87.0273 
Branch_type:  BRANCH_INDIRECT_CALL:  Count Percentage: 9.5416 0.558367 2.99161 4.83134 0 4.07117 0.993911 77.012 
Branch_type:  BRANCH_RETURN:  Count Percentage: 3.42122 1.43758 1.62573 8.88919 2.86556 5.36284 1.44621 74.9517 
Branch_type:  BRANCH_DIRECT_JUMP:  Total Count: 31571 73170 31909 87734 18531 65311 17728 769995 
Branch_type:  BRANCH_INDIRECT:  Total Count: 42961 12527 9156 64381 12225 14659 7357 201761 
Branch_type:  BRANCH_CONDITIONAL:  Total Count: 2581983 405232 219096 736622 177604 580011 112439 7542769 
Branch_type:  BRANCH_DIRECT_CALL:  Total Count: 4860 33959 21118 71161 42186 57496 14657 1646506 
Branch_type:  BRANCH_INDIRECT_CALL:  Total Count: 32861 1923 10303 16639 0 14021 3423 265227 
Branch_type:  BRANCH_RETURN:  Total Count: 76538 32161 36370 198865 64107 119975 32354 1676785 
Number of unique branch instructions: 9964
Upper 32 bits: 
aaaa
ffff
ffff0000
Unique upper 32 bits: 3
Unique upper 36 bits: 3
Unique upper 40 bits: 5
Unique upper 44 bits: 32
Unique upper 48 bits: 154
Offset_3 4102
Offset_4 248
Offset_5 453
Offset_6 511
Offset_7 581
Offset_8 506
Offset_9 474
Offset_10 383
Offset_11 314
Offset_12 286
Offset_13 202
Offset_14 227
Offset_15 184
Offset_16 220
Offset_17 147
Offset_18 118
Offset_19 236
Offset_20 142
Offset_21 239
Offset_22 396
Offset_23 241
Offset_24 351
Offset_25 91
Offset_47 85
decode_dispatch_called: 20797522 45.7406
Dispatch_width: 0 10089824 48.5145 22.1909
Dispatch_width: 1 699131 3.36161 1.53762
Dispatch_width: 2 989185 4.75626 2.17554
Dispatch_width: 3 691744 3.32609 1.52137
Dispatch_width: 4 2101484 10.1045 4.62186
Dispatch_width: 5 515603 2.47916 1.13398
Dispatch_width: 6 5710551 27.4578 12.5594
Empty_decode_cycles: 24670858 54.2594
ROB_full_cycles: 2449890 5.38812
Starvation_cycles_per_kilo_instr: 373.079
Starvation_cycles_per_kilo_instr_3: 346.909
Starvation_cycles_per_kilo_instr_0: 323.108
Branch_type_1  (3,1)  (4,9)  (5,37)  (6,70)  (7,115)  (8,127)  (9,123)  (10,98)  (11,69)  (12,45)  (13,5)  (14,2)  (15,3)  (16,4)  (18,1)  (19,4)  (20,2)  (21,1)  (22,3)  (23,2)  (24,10)  (25,12) 
Branch_type_2  (3,1)  (5,1)  (8,3)  (9,3)  (12,1)  (13,1)  (14,1)  (16,3)  (17,2)  (20,2)  (21,2)  (23,5)  (24,1)  (47,39) 
Branch_type_3  (3,4100)  (4,239)  (5,411)  (6,424)  (7,436)  (8,315)  (9,263)  (10,155)  (11,124)  (12,55)  (13,4) 
Branch_type_4  (6,4)  (7,8)  (8,24)  (9,54)  (10,62)  (11,61)  (12,102)  (13,88)  (14,100)  (15,86)  (16,97)  (17,66)  (18,53)  (19,116)  (20,73)  (21,127)  (22,210)  (23,136)  (24,206)  (25,75) 
Branch_type_5  (8,2)  (9,1)  (10,3)  (11,5)  (12,3)  (13,14)  (14,16)  (15,11)  (16,22)  (17,11)  (18,16)  (19,12)  (20,11)  (21,13)  (22,42)  (23,26)  (24,43) 
Branch_type_6  (5,4)  (6,13)  (7,22)  (8,35)  (9,30)  (10,65)  (11,55)  (12,80)  (13,90)  (14,108)  (15,84)  (16,94)  (17,68)  (18,48)  (19,104)  (20,54)  (21,96)  (22,141)  (23,72)  (24,91)  (25,4)  (47,46) 
Unique trigger count: 
BTB PER SET UNIQUE ADDR: 22 26 21 26 25 25 17 23 13 27 20 27 25 20 22 17 21 21 21 25 23 22 23 27 17 24 25 26 24 24 22 23 27 16 17 23 23 27 15 19 21 22 24 30 20 13 26 16 25 21 27 19 22 27 21 11 20 18 17 26 22 32 23 23 23 27 24 15 28 24 22 21 28 18 18 14 15 25 19 30 25 15 21 29 26 22 26 22 16 40 19 16 25 19 13 27 19 20 27 29 35 30 24 19 23 18 22 25 13 18 20 32 23 19 21 14 27 26 23 23 25 17 21 16 24 21 12 24 32 17 19 32 22 29 21 28 15 27 21 32 19 29 20 23 23 24 28 20 15 23 22 26 15 23 14 30 25 28 27 25 25 23 29 27 19 25 25 18 28 20 21 27 24 27 25 22 22 22 20 26 18 22 19 29 34 29 16 25 27 20 23 18 17 30 26 16 17 24 22 24 28 26 20 19 16 21 24 23 21 23 19 28 21 21 23 23 21 26 17 37 14 28 16 22 19 26 30 26 17 30 21 12 23 29 20 28 29 20 21 18 24 23 30 28 22 21 21 21 27 24 31 28 25 18 27 26 19 17 18 21 27 18 9 22 22 15 20 18 20 20 20 27 18 14 16 17 24 27 22 23 14 24 17 18 28 18 18 33 33 26 23 16 25 26 17 30 24 27 26 22 21 20 20 36 23 29 26 21 31 25 22 30 21 34 27 14 30 22 21 29 21 28 16 23 27 29 25 17 21 17 21 29 20 20 21 23 19 20 18 36 23 24 16 29 25 25 18 24 24 23 25 23 27 22 21 27 24 27 18 17 18 30 20 32 23 27 13 22 29 21 23 16 21 25 19 30 23 28 20 25 25 21 18 18 20 21 28 29 27 25 32 14 27 29 16 16 21 18 30 22 22 24 22 21 29 28 25 28 22 23 25 18 18 27 21 21 21 31 36 30 20 26 24 24 28 17 26 18 26 21 29 23 21 23 29 28 24 19 20 25 25 20 18 30 32 19 15 26 29 25 27 37 26 18 27 32 25 28 19 27 16 23 18 27 34 21 23 24 27 25 24 26 27 24 23 33 26 33 17 24 33 31 20 28 18 26 37 31 28 22 20 26 18 20 19 21 27 26 21 26 20 29 19 34 20 18 18 29 30 26 24 32 24 23 22 26 21 33 17 17 14 22 25 17 24 34 37 14 17 34 27 23 25 24 27 31 21 25 26 24 28 19 26 23 26 30 15 25 18 23 24 29 21 24 20 22 23 26 29 25 22 34 21 23 24 30 21 27 23 28 28 25 30 36 24 28 28 30 22 23 25 25 16 25 24 25 21 22 34 28 20 21 21 15 26 17 16 24 25 21 25 21 22 12 24 26 32 23 23 24 32 26 21 16 10 30 16 27 21 25 29 25 17 20 21 33 20 30 19 24 21 28 29 23 24 19 24 29 21 27 22 26 27 32 26 27 21 26 35 19 16 23 19 19 30 24 22 24 25 22 23 13 26 31 21 27 17 21 18 20 24 20 20 26 33 22 26 26 28 29 22 29 21 27 26 21 22 24 27 28 21 24 22 16 16 21 17 27 20 26 16 27 26 32 12 28 22 18 17 16 22 22 17 22 18 20 31 25 19 28 25 24 22 22 19 21 26 23 22 22 26 20 23 19 24 25 25 30 36 20 21 20 22 24 31 28 22 22 23 20 23 21 25 24 18 23 32 20 19 18 25 15 16 25 25 28 15 23 23 26 24 29 19 17 24 18 28 22 24 30 14 25 22 22 25 21 19 26 21 14 17 15 27 25 22 31 20 18 26 24 34 24 34 29 34 20 25 21 23 20 21 35 32 30 19 26 36 31 12 27 26 30 17 27 27 24 20 27 25 27 21 29 25 22 19 26 24 23 25 23 28 23 22 24 24 27 19 37 21 26 24 21 18 24 30 30 30 28 26 27 25 24 19 25 30 17 26 16 30 20 19 28 28 21 23 12 20 21 19 23 28 16 22 29 25 25 30 22 25 22 26 18 21 21 22 28 29 23 20 18 22 21 22 25 14 27 20 28 21 33 19 24 22 25 25 25 35 20 23 25 24 27 19 25 20 19 14 29 16 17 29 31 28 20 20 30 21 21 26 28 18 30 23 21 21 26 22 28 24 26 23 23 18 25 22 25 26 21 27 24 24 24 22 33 30 23 29 24 20 27 23 27 28 22 28 19 33 31 29 34 18 31 26 24 22 31 37 20 28 24 28 26 24 23 22 20 20 23 32 25 31 29 21 21 28 27 18 31 21 26 27 27 27 18 20 23 13 19 9 14 19 30 23 15 
BTB PER SET COUNT: 2301 2296 2617 2157 2822 2120 1783 1660 1502 2060 1249 2580 11383 1678 1888 1049 2153 2246 1567 2246 1762 1679 2159 2221 1027 1969 2063 1841 2155 1966 1843 2467 2025 857 1207 1883 1927 2300 1058 2286 1599 1642 2337 2197 1876 631 2109 1562 2099 1789 2390 1365 1949 2182 1683 849 1519 1499 1449 2035 1711 3188 1956 1925 2416 2258 1656 1645 2274 1881 2689 1988 2572 1448 1225 802 850 2110 1517 2753 2369 1101 2065 2411 2214 1766 2233 2163 1849 3784 1465 1445 2187 1865 815 2086 1535 1550 2259 3722 3512 2626 2133 1714 3346 1416 1701 2271 1533 3052 1838 2866 2315 1624 1651 1142 2053 2376 2515 1986 2305 1427 1613 1006 1748 1556 734 2517 3410 1716 1446 3266 1403 2433 1730 2221 1459 2159 1623 2778 1650 2244 1712 1828 1818 1732 2783 1347 1065 1673 1692 2051 1625 1622 906 2936 2602 2238 2214 2474 2055 1829 2489 2217 1608 2167 1921 1369 2224 1705 1548 2475 2027 1795 1993 1974 1799 1478 1665 2379 1512 1985 1717 2131 2867 3191 1052 2100 2361 2228 1917 1272 1136 2535 2030 1265 1223 1868 1557 1615 2088 1958 1798 1538 1121 2014 1717 1878 1895 2417 1491 2240 1296 3656 1875 2515 1563 2356 1709 3476 1122 2059 1355 1784 1607 2179 2683 2140 1374 3280 1550 530 1732 2267 1419 6175 2244 1661 2263 1156 1978 1966 2968 2660 1781 1964 1378 1865 1947 1574 1852 2018 2044 1469 2125 2421 1490 1410 1329 1645 2032 1490 344 1816 1954 798 1710 1449 2252 1811 1647 1642 1141 928 1608 1205 1992 2390 1898 1928 950 2099 1306 1836 2016 1573 1295 2934 3039 2358 1904 1137 1793 2491 1151 2786 2369 1974 1681 2168 1602 1464 1844 2883 1950 2788 1874 1832 2922 2274 2506 2236 1358 3109 3006 1434 2580 1722 1675 2831 1507 3008 1157 1549 2655 2345 2328 1273 1654 1049 1727 2740 1304 1487 1790 1827 1317 1743 1102 3445 1883 2880 1186 2166 2335 1877 1338 1663 1776 2123 2233 1855 2428 1750 1535 2523 2117 2522 1567 1307 1297 2777 1423 2747 1842 2985 698 1676 1810 1489 2117 1226 2284 2249 1213 2636 1852 2481 1722 2364 2295 2193 1638 943 1143 1746 3146 2357 2159 2200 2187 975 2232 2291 1252 1131 1421 1529 2827 2110 1560 2062 2104 1553 2274 2350 2059 2196 1352 2077 1992 1357 1436 2648 1631 1793 1810 4270 3206 2593 1446 2103 2368 1891 2475 1709 2486 1409 1752 1836 2714 2006 1400 1615 2725 2337 1810 1515 1772 1943 2790 1432 1353 2750 2873 1775 1468 2059 2241 1952 2350 3820 1852 1586 2560 3010 1968 2686 1303 2221 1295 1965 1415 2476 2741 1784 6589 1899 2441 2167 2014 2075 1870 1752 1938 2930 1921 3293 1227 1850 2668 2290 1564 2306 1504 1879 3287 2573 2735 1803 1859 2218 4024 1075 1053 1700 2687 2602 1524 2202 1388 2835 1328 3127 1517 1263 1212 2916 2659 1890 1798 3184 2702 2542 1662 2619 1399 2804 1232 1269 913 1904 2114 1254 1842 2963 3353 2192 1133 4086 3014 2143 2064 1858 2403 2380 2201 2424 2043 1924 2296 1626 2374 1918 2168 2790 873 2287 1160 2232 1810 2659 2192 2123 1434 1402 1877 1893 2380 2255 1292 2940 1639 2003 2272 2620 1746 2233 1812 2552 2563 2230 3018 2857 2050 2531 2516 2620 1637 1923 2410 2128 1003 3191 2174 2214 1825 2053 3024 2765 1857 1754 2122 934 1751 1274 2099 2266 1867 1546 1356 1787 1754 961 1982 2204 2647 2116 1277 1700 2930 2633 2188 1135 707 2608 1017 2524 2116 2321 2890 1752 1012 1411 1598 2846 1520 2803 2146 1950 1628 2930 3016 1841 1830 1798 2232 2416 1576 2310 2200 2223 2555 2636 2906 2271 1434 2397 3629 1128 1051 2165 1233 1714 3169 1999 1613 1647 2221 1877 2162 696 2258 2665 7617 2422 1327 1954 2270 1746 1689 1782 1524 2307 2968 2140 1997 2622 2311 2935 1801 2531 2027 2328 2745 1926 1650 1980 2177 2379 1621 2475 2133 904 1427 1789 1752 2502 1656 1801 1394 2274 2491 2851 810 2236 1805 1394 1170 1058 2033 2191 1170 1873 1713 1605 3114 2038 1429 2605 2309 2220 1563 1859 1692 1675 1691 2321 1714 1938 2092 5901 1734 1828 1758 2015 2275 3052 3552 1712 1816 1402 1820 2283 2847 2587 2227 1723 2030 1561 2490 1513 2719 1909 1279 1841 2626 2178 1645 1134 2098 974 738 1821 2965 2953 1153 2020 1174 2149 1763 2449 1622 1357 2148 1281 2318 1813 1461 2666 1740 2248 1864 1610 1961 1879 1407 2265 1479 992 1319 1472 2143 2272 1687 2783 1672 1391 1715 2272 3340 1851 2582 2503 2885 1588 1965 1826 1832 1455 1384 5161 2776 2436 1733 3023 2723 3070 1158 2832 1866 2668 1236 2410 2719 1893 1527 2082 2258 2659 2061 3008 2024 2025 1135 2850 1800 1908 2382 1847 2345 2056 1914 1977 2204 2227 1741 3403 1460 5430 2579 2017 1587 1706 2786 2499 2823 2412 2507 2128 2455 1924 1704 1991 2775 1085 1980 1078 2903 1505 1642 2767 2304 1484 1919 944 1580 1937 2460 1902 2187 818 1451 2915 2255 2369 2381 1901 1960 1909 2273 1176 2897 2995 1448 2496 2779 1631 1545 1606 2135 1630 1835 2245 747 2234 1617 2724 1674 2773 1718 1851 1936 2299 2484 2405 3639 2024 1988 2070 2053 2163 1380 2419 1300 1453 739 2598 1315 1199 2191 2724 3082 1356 1718 3219 1888 1516 2458 2419 1318 3107 2023 1530 1892 2104 1731 2398 2150 2184 2056 2327 1930 3469 1724 2065 2415 1702 2006 2195 2060 2211 1577 2591 2451 1442 2703 2127 1411 2163 2013 2756 2471 1694 2604 1616 3323 2218 2642 3196 1877 2357 2458 2072 1467 3304 4241 1421 2440 1997 2213 2789 1905 1825 2338 1897 1416 3074 2222 2326 2548 2966 1679 1774 2177 2128 1488 2974 1700 2457 2564 2437 2215 1383 1334 2015 964 1666 499 1272 1476 2937 2100 1032 
