
*** ChampSim Multicore Out-of-Order Simulator ***

Warmup Instructions: 50000000
Simulation Instructions: 50000000
Number of CPUs: 1
LLC sets: 2048
LLC ways: 16
Off-chip DRAM Size: 4096 MB Channels: 1 Width: 64-bit Data Rate: 6400 MT/s
CPU 0 runs ./micro_traces/srv478.trace.gz
.gz
ITLB has LRU replacement policy
DTLB has LRU replacement policy
STLB has LRU replacement policy
FDIP Prefetcher at L1I
L1I has LRU replacement policy
L1D has LRU replacement policy
Initialize SRRIP state for L2C
Initialize DRRIP state for LLC
Heartbeat_Variant_0 : 1313 0.320557 per_variant_size: 0 1313 0 0 0 0 0 0 0 
Heartbeat_Variant_1 : 2513 0.613525 per_variant_size: 0 595 1918 0 0 0 0 0 0 
Heartbeat_Variant_2 : 0 0 per_variant_size: 0 0 0 0 0 0 0 0 0 
Heartbeat_Variant_3 : 0 0 per_variant_size: 0 0 0 0 0 0 0 0 0 
Heartbeat_Variant_0_evicts 0 : 5742 1 : 423 2 : 0 3 : 0 
Heartbeat_Variant_1_evicts 0 : 364 1 : 0 2 : 0 3 : 0 
Heartbeat_Variant_2_evicts 0 : 0 1 : 0 2 : 0 3 : 0 
Heartbeat_Variant_3_evicts 0 : 0 1 : 0 2 : 0 3 : 0 
Heartbeat CPU 0 instructions: 10000002 cycles: 2795240 heartbeat IPC: 3.57751 cumulative IPC: 3.57751 (Simulation time: 0 hr 1 min 41 sec) 
Heartbeat_Variant_0 : 1362 0.33252 per_variant_size: 0 1362 0 0 0 0 0 0 0 
Heartbeat_Variant_1 : 2604 0.635742 per_variant_size: 0 475 2129 0 0 0 0 0 0 
Heartbeat_Variant_2 : 0 0 per_variant_size: 0 0 0 0 0 0 0 0 0 
Heartbeat_Variant_3 : 0 0 per_variant_size: 0 0 0 0 0 0 0 0 0 
Heartbeat_Variant_0_evicts 0 : 5816 1 : 373 2 : 0 3 : 0 
Heartbeat_Variant_1_evicts 0 : 364 1 : 0 2 : 0 3 : 0 
Heartbeat_Variant_2_evicts 0 : 0 1 : 0 2 : 0 3 : 0 
Heartbeat_Variant_3_evicts 0 : 0 1 : 0 2 : 0 3 : 0 
Heartbeat CPU 0 instructions: 20000000 cycles: 5591011 heartbeat IPC: 3.57683 cumulative IPC: 3.57717 (Simulation time: 0 hr 3 min 24 sec) 
Heartbeat_Variant_0 : 1361 0.332275 per_variant_size: 0 1361 0 0 0 0 0 0 0 
Heartbeat_Variant_1 : 2606 0.63623 per_variant_size: 0 469 2137 0 0 0 0 0 0 
Heartbeat_Variant_2 : 0 0 per_variant_size: 0 0 0 0 0 0 0 0 0 
Heartbeat_Variant_3 : 0 0 per_variant_size: 0 0 0 0 0 0 0 0 0 
Heartbeat_Variant_0_evicts 0 : 5571 1 : 3 2 : 0 3 : 0 
Heartbeat_Variant_1_evicts 0 : 4 1 : 0 2 : 0 3 : 0 
Heartbeat_Variant_2_evicts 0 : 0 1 : 0 2 : 0 3 : 0 
Heartbeat_Variant_3_evicts 0 : 0 1 : 0 2 : 0 3 : 0 
Heartbeat CPU 0 instructions: 30000003 cycles: 8385088 heartbeat IPC: 3.579 cumulative IPC: 3.57778 (Simulation time: 0 hr 5 min 1 sec) 
Heartbeat_Variant_0 : 1373 0.335205 per_variant_size: 0 1373 0 0 0 0 0 0 0 
Heartbeat_Variant_1 : 2620 0.639648 per_variant_size: 0 450 2170 0 0 0 0 0 0 
Heartbeat_Variant_2 : 0 0 per_variant_size: 0 0 0 0 0 0 0 0 0 
Heartbeat_Variant_3 : 0 0 per_variant_size: 0 0 0 0 0 0 0 0 0 
Heartbeat_Variant_0_evicts 0 : 5756 1 : 285 2 : 0 3 : 0 
Heartbeat_Variant_1_evicts 0 : 281 1 : 0 2 : 0 3 : 0 
Heartbeat_Variant_2_evicts 0 : 0 1 : 0 2 : 0 3 : 0 
Heartbeat_Variant_3_evicts 0 : 0 1 : 0 2 : 0 3 : 0 
Heartbeat CPU 0 instructions: 40000001 cycles: 11179981 heartbeat IPC: 3.57795 cumulative IPC: 3.57782 (Simulation time: 0 hr 6 min 42 sec) 
Heartbeat_Variant_0 : 1375 0.335693 per_variant_size: 0 1375 0 0 0 0 0 0 0 
Heartbeat_Variant_1 : 2618 0.63916 per_variant_size: 0 449 2169 0 0 0 0 0 0 
Heartbeat_Variant_2 : 0 0 per_variant_size: 0 0 0 0 0 0 0 0 0 
Heartbeat_Variant_3 : 0 0 per_variant_size: 0 0 0 0 0 0 0 0 0 
Heartbeat_Variant_0_evicts 0 : 5597 1 : 9 2 : 0 3 : 0 
Heartbeat_Variant_1_evicts 0 : 7 1 : 0 2 : 0 3 : 0 
Heartbeat_Variant_2_evicts 0 : 0 1 : 0 2 : 0 3 : 0 
Heartbeat_Variant_3_evicts 0 : 0 1 : 0 2 : 0 3 : 0 
Heartbeat CPU 0 instructions: 50000002 cycles: 13975820 heartbeat IPC: 3.57674 cumulative IPC: 3.57761 (Simulation time: 0 hr 8 min 22 sec) 

Warmup complete CPU 0 instructions: 50000002 cycles: 13975820 (Simulation time: 0 hr 8 min 22 sec) 

Cycle: 20000000 FTQ IN: 58214578 FTQ occupancy: 20.523 DECODE IN: 58214522 DECODE occupancy: 53.1841 ROB IN: 58214522 ROB occupancy: 317.514 ROB OUT: 58214522
Heartbeat_Variant_0 : 1376 0.335938 per_variant_size: 0 1376 0 0 0 0 0 0 0 
Heartbeat_Variant_1 : 2635 0.643311 per_variant_size: 0 458 2177 0 0 0 0 0 0 
Heartbeat_Variant_2 : 0 0 per_variant_size: 0 0 0 0 0 0 0 0 0 
Heartbeat_Variant_3 : 0 0 per_variant_size: 0 0 0 0 0 0 0 0 0 
Heartbeat_Variant_0_evicts 0 : 5552 1 : 175 2 : 0 3 : 0 
Heartbeat_Variant_1_evicts 0 : 178 1 : 0 2 : 0 3 : 0 
Heartbeat_Variant_2_evicts 0 : 0 1 : 0 2 : 0 3 : 0 
Heartbeat_Variant_3_evicts 0 : 0 1 : 0 2 : 0 3 : 0 
Heartbeat CPU 0 instructions: 60000000 cycles: 21294530 heartbeat IPC: 1.36636 cumulative IPC: 1.36636 (Simulation time: 0 hr 10 min 16 sec) 
Heartbeat_Variant_0 : 1374 0.335449 per_variant_size: 0 1374 0 0 0 0 0 0 0 
Heartbeat_Variant_1 : 2643 0.645264 per_variant_size: 0 479 2164 0 0 0 0 0 0 
Heartbeat_Variant_2 : 0 0 per_variant_size: 0 0 0 0 0 0 0 0 0 
Heartbeat_Variant_3 : 0 0 per_variant_size: 0 0 0 0 0 0 0 0 0 
Heartbeat_Variant_0_evicts 0 : 5539 1 : 121 2 : 0 3 : 0 
Heartbeat_Variant_1_evicts 0 : 124 1 : 0 2 : 0 3 : 0 
Heartbeat_Variant_2_evicts 0 : 0 1 : 0 2 : 0 3 : 0 
Heartbeat_Variant_3_evicts 0 : 0 1 : 0 2 : 0 3 : 0 
Heartbeat CPU 0 instructions: 70000001 cycles: 28455602 heartbeat IPC: 1.39644 cumulative IPC: 1.38124 (Simulation time: 0 hr 12 min 10 sec) 
Cycle: 30000000 FTQ IN: 13938041 FTQ occupancy: 14.657 DECODE IN: 13938097 DECODE occupancy: 37.3141 ROB IN: 13938097 ROB occupancy: 247.247 ROB OUT: 13938090
Heartbeat_Variant_0 : 1379 0.33667 per_variant_size: 0 1379 0 0 0 0 0 0 0 
Heartbeat_Variant_1 : 2640 0.644531 per_variant_size: 0 469 2171 0 0 0 0 0 0 
Heartbeat_Variant_2 : 0 0 per_variant_size: 0 0 0 0 0 0 0 0 0 
Heartbeat_Variant_3 : 0 0 per_variant_size: 0 0 0 0 0 0 0 0 0 
Heartbeat_Variant_0_evicts 0 : 5511 1 : 55 2 : 0 3 : 0 
Heartbeat_Variant_1_evicts 0 : 51 1 : 0 2 : 0 3 : 0 
Heartbeat_Variant_2_evicts 0 : 0 1 : 0 2 : 0 3 : 0 
Heartbeat_Variant_3_evicts 0 : 0 1 : 0 2 : 0 3 : 0 
Heartbeat CPU 0 instructions: 80000001 cycles: 35685346 heartbeat IPC: 1.38317 cumulative IPC: 1.38188 (Simulation time: 0 hr 14 min 7 sec) 
Cycle: 40000000 FTQ IN: 13871457 FTQ occupancy: 14.8183 DECODE IN: 13871347 DECODE occupancy: 37.462 ROB IN: 13871287 ROB occupancy: 247.347 ROB OUT: 13870946
Heartbeat_Variant_0 : 1381 0.337158 per_variant_size: 0 1381 0 0 0 0 0 0 0 
Heartbeat_Variant_1 : 2644 0.645508 per_variant_size: 0 487 2157 0 0 0 0 0 0 
Heartbeat_Variant_2 : 0 0 per_variant_size: 0 0 0 0 0 0 0 0 0 
Heartbeat_Variant_3 : 0 0 per_variant_size: 0 0 0 0 0 0 0 0 0 
Heartbeat_Variant_0_evicts 0 : 5702 1 : 93 2 : 0 3 : 0 
Heartbeat_Variant_1_evicts 0 : 91 1 : 0 2 : 0 3 : 0 
Heartbeat_Variant_2_evicts 0 : 0 1 : 0 2 : 0 3 : 0 
Heartbeat_Variant_3_evicts 0 : 0 1 : 0 2 : 0 3 : 0 
Heartbeat CPU 0 instructions: 90000002 cycles: 42817057 heartbeat IPC: 1.40219 cumulative IPC: 1.3869 (Simulation time: 0 hr 16 min 5 sec) 
Cycle: 50000000 FTQ IN: 13907473 FTQ occupancy: 14.9085 DECODE IN: 13907503 DECODE occupancy: 37.575 ROB IN: 13907544 ROB occupancy: 247.409 ROB OUT: 13907540
Heartbeat_Variant_0 : 1383 0.337646 per_variant_size: 0 1383 0 0 0 0 0 0 0 
Heartbeat_Variant_1 : 2644 0.645508 per_variant_size: 0 486 2158 0 0 0 0 0 0 
Heartbeat_Variant_2 : 0 0 per_variant_size: 0 0 0 0 0 0 0 0 0 
Heartbeat_Variant_3 : 0 0 per_variant_size: 0 0 0 0 0 0 0 0 0 
Heartbeat_Variant_0_evicts 0 : 5589 1 : 51 2 : 0 3 : 0 
Heartbeat_Variant_1_evicts 0 : 49 1 : 0 2 : 0 3 : 0 
Heartbeat_Variant_2_evicts 0 : 0 1 : 0 2 : 0 3 : 0 
Heartbeat_Variant_3_evicts 0 : 0 1 : 0 2 : 0 3 : 0 
Heartbeat CPU 0 instructions: 100000001 cycles: 50051850 heartbeat IPC: 1.38221 cumulative IPC: 1.38596 (Simulation time: 0 hr 17 min 59 sec) 
Finished CPU 0 instructions: 50000003 cycles: 36076031 cumulative IPC: 1.38596 (Simulation time: 0 hr 17 min 59 sec) 

ChampSim completed all CPUs

Region of Interest Statistics

CPU 0 cumulative IPC: 1.38596 instructions: 50000003 cycles: 36076031
 Fetch stage stalled: 46.2552  Sim cycles: 36076031 fetch stall cycle: 16687054
 Empty decode stage: 26.5543  Sim cycles: 36076031 fetch stall cycle: 9579734
ITLB TOTAL     ACCESS:    5835405  HIT:    5342645  MISS:     492760  HIT %:    91.5557  MISS %:    8.44432   MPKI: 9.8552
ITLB LOAD TRANSLATION INSTRUCTION	ACCESS:    5696839  HIT:    5204079  MISS:     492760  HIT %:    91.3503  MISS %:    8.64971  MPKI: 9.8552
ITLB TRANSLATION FROM L1D PREFETCHER INSTRUCTION	ACCESS:     138566  HIT:     138566  MISS:          0  HIT %:        100  MISS %:          0  MPKI: 0

ITLB AVERAGE MISS LATENCY: 9.05386 cycles
ITLB RQ	ACCESS:    7926760	FORWARD:          0	MERGED:    1610023	TO_CACHE:    6316737

DTLB TOTAL     ACCESS:    8927090  HIT:    8454028  MISS:     473062  HIT %:    94.7008  MISS %:    5.29917   MPKI: 9.46124
DTLB LOAD TRANSLATION DATA	ACCESS:    8927090  HIT:    8454028  MISS:     473062  HIT %:    94.7008  MISS %:    5.29917  MPKI: 9.46124

DTLB AVERAGE MISS LATENCY: 9.32681 cycles
DTLB RQ	ACCESS:   13290890	FORWARD:          0	MERGED:    4326105	TO_CACHE:    8964785

STLB TOTAL     ACCESS:    1220918  HIT:    1218879  MISS:       2039  HIT %:     99.833  MISS %:   0.167005   MPKI: 0.04078
STLB LOAD TRANSLATION INSTRUCTION	ACCESS:     492760  HIT:     492504  MISS:        256  HIT %:     99.948  MISS %:  0.0519523  MPKI: 0.00512
STLB LOAD TRANSLATION DATA	ACCESS:     473061  HIT:     471295  MISS:       1766  HIT %:    99.6267  MISS %:   0.373313  MPKI: 0.03532
STLB TRANSLATION FROM L1D PREFETCHER DATA	ACCESS:     255097  HIT:     255080  MISS:         17  HIT %:    99.9933  MISS %: 0.00666413  MPKI: 0.00034

STLB AVERAGE MISS LATENCY: 73.1908 cycles
STLB RQ	ACCESS:    1367791	FORWARD:          0	MERGED:     146831	TO_CACHE:    1220960

STLB Hit, L1D data hit: 0
STLB Hit, L2C data hit: 0
STLB Hit, LLC data hit: 0
STLB Hit, LLC data miss: 0
STLB STLB hints to L2: 0
L1D TOTAL     ACCESS:   13036438  HIT:   11867492  MISS:    1168946  HIT %:    91.0332  MISS %:    8.96676   MPKI: 23.3789
L1D LOAD DATA	ACCESS:    6537065  HIT:    5765918  MISS:     771147  HIT %:    88.2035  MISS %:    11.7965  MPKI: 15.4229
L1D RFO DATA	ACCESS:    6163719  HIT:    5873078  MISS:     290641  HIT %:    95.2846  MISS %:    4.71535  MPKI: 5.81282
L1D PREFETCH DATA	ACCESS:     335654  HIT:     228496  MISS:     107158  HIT %:    68.0749  MISS %:    31.9251  MPKI: 2.14316

L1D PREFETCH  REQUESTED:     804330  ISSUED:     804330  USEFUL:      50506  USELESS:      70469
L1D USEFUL LOAD PREFETCHES:      50506 PREFETCH ISSUED TO LOWER LEVEL:     120994  ACCURACY: 41.7426
 TIMELY PREFETCHES:      50506 LATE PREFETCHES: 13787 DROPPED PREFETCHES: 3
L1D AVERAGE MISS LATENCY: 373550 cycles
L1D RQ	ACCESS:   10669310	FORWARD:          0	MERGED:    3932101	TO_CACHE:    6573068
L1D WQ	ACCESS:    6913476	FORWARD:     164533	MERGED:     195654	TO_CACHE:    6717822
L1D PQ	ACCESS:     402361	FORWARD:          0	MERGED:          0	TO_CACHE:     401969

L1D UNIQUE REGIONS ACCESSED: 0
L1D REGIONS CONFLICTS: 0
L1D Cross Page Prefetch Requests: 6310
L1D Same Page Prefetch Requests: 814698
L1D ROI Sum of L1D PQ occupancy: 5123042
L1D PREFETCHES PUSHED FROM L2C: 0
L1I TOTAL     ACCESS:    7108643  HIT:    4352610  MISS:    2756033  HIT %:    61.2298  MISS %:    38.7702   MPKI: 55.1207
L1I LOAD INSTRUCTION	ACCESS:    6440693  HIT:    3684660  MISS:    2756033  HIT %:    57.2091  MISS %:    42.7909  MPKI: 55.1207
L1I PREFETCH INSTRUCTION	ACCESS:     667950  HIT:     667950  MISS:          0  HIT %:        100  MISS %:          0  MPKI: 0

L1I PREFETCH  REQUESTED:    1611462  ISSUED:    1611462  USEFUL:          0  USELESS:          0
L1I USEFUL LOAD PREFETCHES:          0 PREFETCH ISSUED TO LOWER LEVEL:          0  ACCURACY: -nan
 TIMELY PREFETCHES:          0 LATE PREFETCHES: 0 DROPPED PREFETCHES: 0
L1I AVERAGE MISS LATENCY: 17.4112 cycles
L1I RQ	ACCESS:    9580745	FORWARD:          0	MERGED:    2836127	TO_CACHE:    6744618
L1I PQ	ACCESS:    1611462	FORWARD:          0	MERGED:     429320	TO_CACHE:    1182142

L1BTB TOTAL     ACCESS:    5680761  HIT:    2064986  MISS:    3615775  HIT %:    36.3505  MISS %:    63.6495   MPKI: 72.3155
L1BTB BRANCH_DIRECT_JUMP	ACCESS:     545184 HIT:     143038 MISS:     402146 AVERAGE STALL: 52.729 AVERAGE FETCH STALL: 13.9833 AVERAGE FETCH QUEUE STALL: 16.8526 AVERAGE DECODE STALL: 20.9719 AVERAGE EXECUTE STALL: 2.20339e+15
L1BTB BRANCH_INDIRECT	ACCESS:     181439 HIT:      65199 MISS:     116240 AVERAGE STALL: 114.011 AVERAGE FETCH STALL: 11.3645 AVERAGE FETCH QUEUE STALL: 22.0668 AVERAGE DECODE STALL: 13.5379 AVERAGE EXECUTE STALL: 66.0793
L1BTB BRANCH_CONDITIONAL	ACCESS:    2732122 HIT:    1444089 MISS:    1288033 AVERAGE STALL: 65.7399 AVERAGE FETCH STALL: 20.9157 AVERAGE FETCH QUEUE STALL: 26.413 AVERAGE DECODE STALL: 17.7139 AVERAGE EXECUTE STALL: 2.55036e+15
L1BTB BRANCH_DIRECT_CALL	ACCESS:     940120 HIT:     104133 MISS:     835987 AVERAGE STALL: 58.2661 AVERAGE FETCH STALL: 21.3649 AVERAGE FETCH QUEUE STALL: 23.2051 AVERAGE DECODE STALL: 12.8942 AVERAGE EXECUTE STALL: 9.29775e+15
L1BTB BRANCH_INDIRECT_CALL	ACCESS:     170892 HIT:      21040 MISS:     149852 AVERAGE STALL: 141.17 AVERAGE FETCH STALL: 12.6691 AVERAGE FETCH QUEUE STALL: 17.7247 AVERAGE DECODE STALL: 11.8511 AVERAGE EXECUTE STALL: 98.4344
L1BTB BRANCH_RETURN	ACCESS:    1111004 HIT:     287487 MISS:     823517 AVERAGE STALL: 51.7114 AVERAGE FETCH STALL: 17.292 AVERAGE FETCH QUEUE STALL: 7.51447 AVERAGE DECODE STALL: 6.58627 AVERAGE EXECUTE STALL: 4.2504e+14
L1BTB BRANCH_OTHER ACCESS:          0 HIT:          0 MISS:          0 AVERAGE STALL: -nan AVERAGE FETCH STALL: -nan AVERAGE FETCH QUEUE STALL: -nan AVERAGE DECODE STALL: -nan AVERAGE EXECUTE STALL: -nan
L1BTB TOTAL ROB OCCUPANCY AT BTB MISS: 2.90848

L2BTB TOTAL     ACCESS:    3590624  HIT:    3522369  MISS:      68255  HIT %:    98.0991  MISS %:    1.90092   MPKI: 1.3651
L2BTB BRANCH_DIRECT_JUMP	ACCESS:     398053 HIT:     393769 MISS:       4284 AVERAGE STALL: 52.729 AVERAGE FETCH STALL: 13.9833 AVERAGE FETCH QUEUE STALL: 16.8526 AVERAGE DECODE STALL: 20.9719 AVERAGE EXECUTE STALL: 2.20339e+15
L2BTB BRANCH_INDIRECT	ACCESS:     106003 HIT:     103366 MISS:       2637 AVERAGE STALL: 114.011 AVERAGE FETCH STALL: 11.3645 AVERAGE FETCH QUEUE STALL: 22.0668 AVERAGE DECODE STALL: 13.5379 AVERAGE EXECUTE STALL: 66.0793
L2BTB BRANCH_CONDITIONAL	ACCESS:    1288033 HIT:    1280755 MISS:       7278 AVERAGE STALL: 65.7399 AVERAGE FETCH STALL: 20.9157 AVERAGE FETCH QUEUE STALL: 26.413 AVERAGE DECODE STALL: 17.7139 AVERAGE EXECUTE STALL: 2.55036e+15
L2BTB BRANCH_DIRECT_CALL	ACCESS:     835987 HIT:     833994 MISS:       1993 AVERAGE STALL: 58.2661 AVERAGE FETCH STALL: 21.3649 AVERAGE FETCH QUEUE STALL: 23.2051 AVERAGE DECODE STALL: 12.8942 AVERAGE EXECUTE STALL: 9.29775e+15
L2BTB BRANCH_INDIRECT_CALL	ACCESS:     140423 HIT:     130380 MISS:      10043 AVERAGE STALL: 141.17 AVERAGE FETCH STALL: 12.6691 AVERAGE FETCH QUEUE STALL: 17.7247 AVERAGE DECODE STALL: 11.8511 AVERAGE EXECUTE STALL: 98.4344
L2BTB BRANCH_RETURN	ACCESS:     822125 HIT:     780105 MISS:      42020 AVERAGE STALL: 51.7114 AVERAGE FETCH STALL: 17.292 AVERAGE FETCH QUEUE STALL: 7.51447 AVERAGE DECODE STALL: 6.58627 AVERAGE EXECUTE STALL: 4.2504e+14
L2BTB BRANCH_OTHER ACCESS:          0 HIT:          0 MISS:          0 AVERAGE STALL: -nan AVERAGE FETCH STALL: -nan AVERAGE FETCH QUEUE STALL: -nan AVERAGE DECODE STALL: -nan AVERAGE EXECUTE STALL: -nan
L2BTB TOTAL ROB OCCUPANCY AT BTB MISS: 154.075

L2C TOTAL     ACCESS:    4546364  HIT:    4025191  MISS:     521173  HIT %:    88.5365  MISS %:    11.4635   MPKI: 10.4235
L2C LOAD INSTRUCTION	ACCESS:    2756033  HIT:    2483130  MISS:     272903  HIT %:     90.098  MISS %:    9.90202  MPKI: 5.45806
L2C LOAD TRANSLATION INSTRUCTION	ACCESS:        292  HIT:         70  MISS:        222  HIT %:    23.9726  MISS %:    76.0274  MPKI: 0.00444
L2C LOAD DATA	ACCESS:     757325  HIT:     669196  MISS:      88129  HIT %:    88.3631  MISS %:    11.6369  MPKI: 1.76258
L2C RFO DATA	ACCESS:     290582  HIT:     232632  MISS:      57950  HIT %:    80.0573  MISS %:    19.9427  MPKI: 1.159
L2C PREFETCH DATA	ACCESS:     210134  HIT:     126433  MISS:      83701  HIT %:    60.1678  MISS %:    39.8322  MPKI: 1.67402
L2C WRITEBACK DATA	ACCESS:     530130  HIT:     513201  MISS:      16929  HIT %:    96.8066  MISS %:    3.19337  MPKI: 0.33858
L2C LOAD TRANSLATION DATA	ACCESS:       1835  HIT:        506  MISS:       1329  HIT %:    27.5749  MISS %:    72.4251  MPKI: 0.02658
L2C TRANSLATION FROM L1D PREFETCHER DATA	ACCESS:         33  HIT:         23  MISS:         10  HIT %:     69.697  MISS %:     30.303  MPKI: 0.0002

L2C PREFETCH  REQUESTED:      97908  ISSUED:      97908  USEFUL:       9593  USELESS:      74886
L2C USEFUL LOAD PREFETCHES:       9593 PREFETCH ISSUED TO LOWER LEVEL:      84351  ACCURACY: 11.3727
 TIMELY PREFETCHES:       9593 LATE PREFETCHES: 650 DROPPED PREFETCHES: 0
L2C AVERAGE MISS LATENCY: 38.4959 cycles
L2C RQ	ACCESS:    3806145	FORWARD:          0	MERGED:          0	TO_CACHE:    3806100
L2C WQ	ACCESS:     530130	FORWARD:         47	MERGED:          0	TO_CACHE:     530130
L2C PQ	ACCESS:     218902	FORWARD:          0	MERGED:       3596	TO_CACHE:     215304

L2C Dense regions hint from L2: 0
PSCL5 TOTAL     ACCESS:       4084  HIT:       2042  MISS:       2042  HIT %:         50  MISS %:         50   MPKI: 0.04084
PSCL5 LOAD TRANSLATION INSTRUCTION	ACCESS:       4020  HIT:       2010  MISS:       2010  HIT %:         50  MISS %:         50  MPKI: 0.0402
PSCL5 TRANSLATION FROM L1D PREFETCHER INSTRUCTION	ACCESS:         64  HIT:         32  MISS:         32  HIT %:         50  MISS %:         50  MPKI: 0.00064


PSCL4 TOTAL     ACCESS:       2717  HIT:       1356  MISS:       1361  HIT %:     49.908  MISS %:     50.092   MPKI: 0.02722
PSCL4 LOAD TRANSLATION INSTRUCTION	ACCESS:       1513  HIT:       1338  MISS:        175  HIT %:    88.4336  MISS %:    11.5664  MPKI: 0.0035
PSCL4 TRANSLATION FROM L1D PREFETCHER INSTRUCTION	ACCESS:         18  HIT:         18  MISS:          0  HIT %:        100  MISS %:          0  MPKI: 0
PSCL4 LOAD TRANSLATION DATA	ACCESS:       1168  HIT:          0  MISS:       1168  HIT %:          0  MISS %:        100  MPKI: 0.02336
PSCL4 TRANSLATION FROM L1D PREFETCHER DATA	ACCESS:         18  HIT:          0  MISS:         18  HIT %:          0  MISS %:        100  MPKI: 0.00036


PSCL3 TOTAL     ACCESS:       3991  HIT:       1990  MISS:       2001  HIT %:    49.8622  MISS %:    50.1378   MPKI: 0.04002
PSCL3 LOAD TRANSLATION INSTRUCTION	ACCESS:       2041  HIT:       1960  MISS:         81  HIT %:    96.0314  MISS %:    3.96864  MPKI: 0.00162
PSCL3 TRANSLATION FROM L1D PREFETCHER INSTRUCTION	ACCESS:         30  HIT:         30  MISS:          0  HIT %:        100  MISS %:          0  MPKI: 0
PSCL3 LOAD TRANSLATION DATA	ACCESS:       1890  HIT:          0  MISS:       1890  HIT %:          0  MISS %:        100  MPKI: 0.0378
PSCL3 TRANSLATION FROM L1D PREFETCHER DATA	ACCESS:         30  HIT:          0  MISS:         30  HIT %:          0  MISS %:        100  MPKI: 0.0006


PSCL2 TOTAL     ACCESS:       3982  HIT:       1940  MISS:       2042  HIT %:    48.7192  MISS %:    51.2808   MPKI: 0.04084
PSCL2 LOAD TRANSLATION INSTRUCTION	ACCESS:       2165  HIT:       1909  MISS:        256  HIT %:    88.1755  MISS %:    11.8245  MPKI: 0.00512
PSCL2 TRANSLATION FROM L1D PREFETCHER INSTRUCTION	ACCESS:         31  HIT:         31  MISS:          0  HIT %:        100  MISS %:          0  MPKI: 0
PSCL2 LOAD TRANSLATION DATA	ACCESS:       1755  HIT:          0  MISS:       1755  HIT %:          0  MISS %:        100  MPKI: 0.0351
PSCL2 TRANSLATION FROM L1D PREFETCHER DATA	ACCESS:         31  HIT:          0  MISS:         31  HIT %:          0  MISS %:        100  MPKI: 0.00062


LLC TOTAL     ACCESS:     589205  HIT:     559103  MISS:      30102  HIT %:    94.8911  MISS %:    5.10892   MPKI: 0.60204
LLC LOAD INSTRUCTION	ACCESS:     272903  HIT:     271957  MISS:        946  HIT %:    99.6534  MISS %:   0.346643  MPKI: 0.01892
LLC LOAD TRANSLATION INSTRUCTION	ACCESS:        222  HIT:        196  MISS:         26  HIT %:    88.2883  MISS %:    11.7117  MPKI: 0.00052
LLC LOAD DATA	ACCESS:      87495  HIT:      83986  MISS:       3509  HIT %:    95.9895  MISS %:    4.01051  MPKI: 0.07018
LLC RFO DATA	ACCESS:      57929  HIT:      42834  MISS:      15095  HIT %:    73.9422  MISS %:    26.0578  MPKI: 0.3019
LLC PREFETCH DATA	ACCESS:      84350  HIT:      74395  MISS:       9955  HIT %:     88.198  MISS %:     11.802  MPKI: 0.1991
LLC WRITEBACK DATA	ACCESS:      84967  HIT:      84477  MISS:        490  HIT %:    99.4233  MISS %:   0.576694  MPKI: 0.0098
LLC LOAD TRANSLATION DATA	ACCESS:       1329  HIT:       1248  MISS:         81  HIT %:    93.9052  MISS %:    6.09481  MPKI: 0.00162
LLC TRANSLATION FROM L1D PREFETCHER DATA	ACCESS:         10  HIT:         10  MISS:          0  HIT %:        100  MISS %:          0  MPKI: 0

LLC AVERAGE MISS LATENCY: 162.589 cycles
LLC RQ	ACCESS:     419893	FORWARD:          0	MERGED:          0	TO_CACHE:     419888
LLC WQ	ACCESS:      84967	FORWARD:          6	MERGED:          0	TO_CACHE:      84967
LLC PQ	ACCESS:      84351	FORWARD:          0	MERGED:          0	TO_CACHE:      84350

LLC Dense regions hint to LLC: 0

RAW hits: 1942527
Loads Generated: 12611837
Loads sent to L1D: 10669310
Stores Generated: 6913451
Stores sent to L1D: 6913476
Major fault: 0 Minor fault: 2585
Allocated PAGES: 2585

stream: 
stream:times selected: 1254802
stream:pref_filled: 126325
stream:pref_useful: 29151
stream:pref_late: 9478
stream:misses: 10639
stream:misses_by_poll: 0

CS: 
CS:times selected: 196221
CS:pref_filled: 73972
CS:pref_useful: 50439
CS:pref_late: 9887
CS:misses: 25103
CS:misses_by_poll: 6

CPLX: 
CPLX:times selected: 1057418
CPLX:pref_filled: 25594
CPLX:pref_useful: 7769
CPLX:pref_late: 4205
CPLX:misses: 131633
CPLX:misses_by_poll: 1

NL_L1: 
NL:times selected: 14254
NL:pref_filled: 1240
NL:pref_useful: 341
NL:pref_late: 532
NL:misses: 2280
NL:misses_by_poll: 0

total selections: 2522695
total_filled: 107158
total_useful: 50506
total_late: 26638
total_polluted: 7
total_misses_after_warmup: 807154
conflicts: 5477566

test: 121033

DRAM Statistics
 CHANNEL 0
 RQ ROW_BUFFER_HIT:      10921  ROW_BUFFER_MISS:      18684
 DBUS_CONGESTED:         16
 WQ ROW_BUFFER_HIT:       1519  ROW_BUFFER_MISS:      13135  FULL:          0

 AVG_CONGESTED_CYCLE: 5

CPU 0 Branch Prediction Accuracy: 99.8163% MPKI: 0.33652 Average ROB Occupancy at Mispredict: 198.532
Branch types
NOT_BRANCH: 40839839 81.6797%
BRANCH_DIRECT_JUMP: 545184 1.09037%
BRANCH_INDIRECT: 181439 0.362878%
BRANCH_CONDITIONAL: 6211491 12.423%
BRANCH_DIRECT_CALL: 940120 1.88024%
BRANCH_INDIRECT_CALL: 170892 0.341784%
BRANCH_RETURN: 1111004 2.22201%
BRANCH_OTHER: 0 0%

DRAM PAGES: 1048576
Allocated PAGES: 2585
Average_ROB_Occupancy: 248.164
Average_Decode_Occupancy: 37.3885
Average_FTQ_Occupancy: 14.7798
Indirect max targets: 14 Average targets: 1.14576
Branch_type:  BRANCH_DIRECT_JUMP:  Count Percentage: 4.75694 6.46673 3.6247 2.7871 2.31777 12.1768 7.22519 60.6448 
Branch_type:  BRANCH_INDIRECT:  Count Percentage: 13.7132 6.26784 2.56712 0 0 33.1067 15.4983 28.8468 
Branch_type:  BRANCH_CONDITIONAL:  Count Percentage: 25.6414 4.66825 0.80188 5.22351 1.12366 9.46769 3.24346 49.8301 
Branch_type:  BRANCH_DIRECT_CALL:  Count Percentage: 0.389267 1.70195 0.432026 2.04125 1.93491 5.36646 2.48 85.6541 
Branch_type:  BRANCH_INDIRECT_CALL:  Count Percentage: 9.53455 0 2.98815 0 0 4.12983 0.997321 82.3501 
Branch_type:  BRANCH_RETURN:  Count Percentage: 9.18298 2.80993 0.531004 5.59458 1.26234 11.819 3.04498 65.7552 
Branch_type:  BRANCH_DIRECT_JUMP:  Total Count: 51874 70519 39527 30393 25275 132787 78790 661325 
Branch_type:  BRANCH_INDIRECT:  Total Count: 49925 22819 9346 0 0 120530 56424 105021 
Branch_type:  BRANCH_CONDITIONAL:  Total Count: 3185672 579980 99625 648965 139603 1176259 402965 6190855 
Branch_type:  BRANCH_DIRECT_CALL:  Total Count: 7292 31882 8093 38238 36246 100528 46457 1604529 
Branch_type:  BRANCH_INDIRECT_CALL:  Total Count: 32495 0 10184 0 0 14075 3399 280660 
Branch_type:  BRANCH_RETURN:  Total Count: 203390 62236 11761 123912 27959 261775 67442 1456384 
Number of unique branch instructions: 10010
Upper 32 bits: 
aaaa
ffff
ffff0000
Unique upper 32 bits: 3
Unique upper 36 bits: 3
Unique upper 40 bits: 5
Unique upper 44 bits: 32
Unique upper 48 bits: 157
Variant_0 : 1383 0.337646
Variant_1 : 2644 0.645508
Variant_2 : 0 0
Variant_3 : 0 0
Offset_3 4119
Offset_4 248
Offset_5 459
Offset_6 508
Offset_7 583
Offset_8 507
Offset_9 476
Offset_10 384
Offset_11 311
Offset_12 273
Offset_13 211
Offset_14 229
Offset_15 192
Offset_16 224
Offset_17 151
Offset_18 126
Offset_19 241
Offset_20 141
Offset_21 241
Offset_22 395
Offset_23 241
Offset_24 326
Offset_25 88
Offset_47 80
Offset_64 2
decode_dispatch_called: 26197783 72.6183
Dispatch_width: 0 14128662 53.9308 39.1636
Dispatch_width: 1 1013766 3.86966 2.81008
Dispatch_width: 2 840191 3.20711 2.32895
Dispatch_width: 3 497290 1.89821 1.37845
Dispatch_width: 4 6189421 23.6257 17.1566
Dispatch_width: 5 114417 0.436743 0.317155
Dispatch_width: 6 3414036 13.0318 9.46345
Empty_decode_cycles: 9878248 27.3817
ROB_full_cycles: 9940294 27.5537
Starvation_cycles_per_kilo_instr: 227.217
Starvation_cycles_per_kilo_instr_3: 164.179
Starvation_cycles_per_kilo_instr_0: 140.666
Branch_type_1  (3,1)  (4,9)  (5,37)  (6,69)  (7,114)  (8,129)  (9,126)  (10,99)  (11,68)  (12,43)  (13,5)  (14,2)  (15,3)  (16,4)  (18,1)  (19,4)  (20,2)  (21,1)  (22,3)  (23,2)  (24,10)  (25,12) 
Branch_type_2  (3,1)  (5,1)  (8,3)  (9,3)  (12,1)  (13,1)  (14,1)  (16,3)  (17,2)  (20,2)  (21,2)  (23,5)  (24,1)  (47,36) 
Branch_type_3  (3,4117)  (4,239)  (5,417)  (6,424)  (7,439)  (8,314)  (9,261)  (10,157)  (11,126)  (12,50)  (13,4)  (64,2) 
Branch_type_4  (6,3)  (7,8)  (8,25)  (9,53)  (10,61)  (11,59)  (12,98)  (13,93)  (14,101)  (15,90)  (16,100)  (17,67)  (18,57)  (19,118)  (20,74)  (21,127)  (22,210)  (23,136)  (24,187)  (25,72) 
Branch_type_5  (8,2)  (9,1)  (10,3)  (11,5)  (12,3)  (13,14)  (14,16)  (15,11)  (16,20)  (17,12)  (18,16)  (19,12)  (20,10)  (21,13)  (22,42)  (23,26)  (24,37) 
Branch_type_6  (5,4)  (6,12)  (7,22)  (8,34)  (9,32)  (10,64)  (11,53)  (12,78)  (13,94)  (14,109)  (15,88)  (16,97)  (17,70)  (18,52)  (19,107)  (20,53)  (21,98)  (22,140)  (23,72)  (24,91)  (25,4)  (47,44) 
Unique trigger count: 
Variant_0_evicts_0 : 0
Variant_0_evicts_1 : 0
Variant_0_evicts_2 : 0
Variant_0_evicts_3 : 0
Variant_1_evicts_0 : 0
Variant_1_evicts_1 : 0
Variant_1_evicts_2 : 0
Variant_1_evicts_3 : 0
Variant_2_evicts_0 : 0
Variant_2_evicts_1 : 0
Variant_2_evicts_2 : 0
Variant_2_evicts_3 : 0
Variant_3_evicts_0 : 0
Variant_3_evicts_1 : 0
Variant_3_evicts_2 : 0
Variant_3_evicts_3 : 0
BTB PER SET UNIQUE ADDR: 11 8 6 9 14 11 9 12 9 9 9 10 16 9 8 9 8 7 9 13 9 10 12 13 9 12 7 7 11 12 12 10 11 5 7 6 10 11 5 7 8 10 9 13 9 9 8 10 8 9 9 9 7 9 13 8 8 9 9 8 12 10 12 13 10 14 11 13 15 8 10 8 9 8 9 8 6 15 9 10 10 7 9 10 10 9 10 9 6 14 8 8 7 11 10 8 9 10 9 15 16 11 12 8 11 9 7 12 8 8 9 11 10 11 8 5 9 6 9 11 16 12 9 12 9 10 4 14 8 13 6 13 11 13 7 11 7 9 12 14 9 8 7 11 13 12 10 10 6 9 10 10 8 11 10 13 14 10 12 11 8 11 8 9 9 10 8 9 11 7 8 10 8 12 10 8 10 7 7 8 8 7 9 11 10 14 4 10 11 8 9 14 8 10 9 9 12 11 9 11 9 7 7 8 7 10 13 12 10 14 9 12 8 12 9 10 10 13 10 19 7 14 8 10 5 8 8 9 8 12 9 7 12 10 12 11 12 9 10 8 8 9 8 13 14 5 8 9 14 8 8 12 12 10 10 14 6 7 7 7 14 6 5 12 8 10 9 9 10 11 7 9 8 6 6 8 7 14 11 11 8 9 11 6 16 8 7 17 11 10 8 8 15 15 10 9 10 10 14 12 10 10 10 17 10 10 9 11 12 6 9 15 14 10 12 6 11 12 13 13 10 11 8 9 12 9 8 6 8 9 12 17 8 13 9 12 8 9 10 12 8 12 8 9 12 7 11 7 12 7 13 9 11 8 13 9 9 11 9 3 8 12 8 13 10 12 6 12 11 9 7 8 8 9 9 14 11 13 10 12 8 7 10 10 11 9 10 12 9 8 9 6 9 14 7 8 8 10 12 9 7 11 13 11 13 7 13 15 8 11 10 10 9 12 12 10 11 12 14 13 10 11 9 16 14 8 13 11 11 12 9 10 11 11 5 11 12 9 9 10 12 11 10 11 14 7 13 10 15 10 9 13 12 8 14 12 10 11 8 10 7 8 10 12 12 7 7 10 7 10 13 14 10 10 10 12 7 13 8 11 10 10 11 10 8 10 13 12 14 13 6 10 7 9 9 8 15 11 9 13 9 14 10 13 11 7 7 9 13 10 9 12 13 14 9 12 12 11 10 7 6 11 10 10 11 13 17 8 8 10 9 13 8 10 10 13 11 11 10 10 8 11 12 12 17 10 13 10 7 10 14 12 12 10 9 11 9 10 12 14 8 12 9 11 9 10 11 19 13 10 13 10 13 12 9 10 12 12 9 10 10 12 9 11 11 7 9 10 10 11 9 10 10 10 14 8 10 9 9 11 10 8 11 8 10 13 15 7 10 11 17 13 8 11 6 9 9 9 11 15 14 12 9 9 10 7 11 10 9 10 10 11 10 13 11 13 12 10 8 11 10 11 12 16 11 13 8 11 10 7 8 7 9 13 7 11 12 14 12 9 13 8 11 14 11 14 10 9 7 8 11 12 6 12 11 10 14 10 8 9 7 12 10 13 12 12 10 10 14 8 8 14 11 9 9 12 10 16 10 10 7 14 11 11 7 13 9 11 6 9 13 11 11 8 7 7 15 9 11 11 11 11 10 10 8 7 8 6 10 14 11 10 9 10 8 8 12 9 11 11 10 10 13 8 12 10 12 8 10 9 11 7 11 8 8 9 12 11 8 9 9 8 7 11 11 9 9 12 9 12 9 12 12 9 12 8 9 7 9 8 5 7 11 8 10 7 10 10 10 6 9 5 13 10 11 14 9 10 11 9 14 16 13 8 11 8 11 11 8 10 9 16 8 9 8 7 10 10 5 13 10 11 11 10 8 8 4 8 10 13 9 12 10 13 8 11 9 12 9 9 10 8 10 9 9 11 10 12 10 7 8 8 11 11 12 16 11 11 13 11 12 6 10 9 13 8 15 9 11 13 11 14 11 11 12 8 8 13 11 14 10 7 13 9 7 8 12 12 10 16 9 11 11 10 10 15 11 8 10 7 11 9 10 11 3 13 7 11 12 14 9 9 8 9 15 12 11 8 10 14 11 12 10 9 8 9 7 13 11 8 13 14 9 6 14 9 9 10 16 12 9 11 11 9 11 8 10 16 13 8 8 8 7 11 14 13 8 10 12 8 12 11 9 12 13 7 10 4 5 7 10 10 8 11 7 8 20 12 13 12 9 9 14 7 10 14 11 9 8 7 10 13 10 12 7 10 8 12 11 8 18 18 11 8 9 10 10 13 11 13 9 11 7 7 6 8 6 8 7 7 11 8 12 9 
BTB PER SET COUNT: 13 9 1974 9 23 13 13 13 1465 10 10 504 23 10 8 17 1933 9 10 17 11 14 12 16 13 16 7 7 19 17 22 1377 12 6 7 6 10 16 5 7 8 10 9 301 1464 10 8 11 9 9 10 97 7 9 17 362 9 10 479 12 14 17 445 14 15 264 14 383 18 10 1465 8 14 8 11 9 8 480 10 11 878 7 10 11 13 29 11 18 8 19 10 10 500 414 10 8 32 972 11 17 20 20 18 8 1187 10 7 15 1972 14 13 11 734 15 11 5 10 7 702 618 32 40 10 13 9 14 4 26 10 997 6 4374 18 24 9 17 608 12 16 18 11 9 7 13 16 19 14 14 6 22 16 316 8 21 14 16 121 12 119 18 10 11 10 13 14 21 9 10 18 1814 8 13 8 23 14 9 11 7 960 606 14 7 1803 15 13 16 4 13 15 803 13 16 9 14 9 133 16 995 10 134 9 238 9 9 7 10 20 15 10 23 13 21 14 20 15 12 11 527 2645 25 7 21 9 12 5 20 10 9 788 12 12 9 15 12 13 19617 463 16 22 8 8 11 10 24 18 1740 12 11 19 9 12 17 12 12 15 26 7 11 7 12 20 7 5 513 8 14 12 10 16 12 12 11 8 6 6 10 7 17 20 12 14 14 499 7 21 10 7 28 11 13 10 8 23 789 12 9 635 15 22 22 10 12 12 20 14 15 14 20 20 8 9 21 17 11 1526 990 12 13 23 26 12 16 11 10 907 1462 8 8 9 12 14 27 42 19 12 16 8 10 14 12 9 1465 10 10 15 7 11 11 13 11 17 159 21 10 16 10 9 20 391 3 14 15 8 15 10 122 7 14 16 10 8 319 13 10 11 18 14 14 11 849 259 7 11 16 12 9 2057 15 11 9 11 6 9 87 7 470 8 11 42 10 7 11 1472 12 19 7 28 511 17 17 12 10 12 532 15 12 13 500 18 21 10 13 9 18 16 10 241 13 19 14 10 11 11 18 496 16 18 158 10 10 201 17 73 14 893 8 190 11 19 15 13 16 15 10 19 16 17 12 14 11 29 15 12 703 12 7 8666 10 8 10 17 20 14 11 17 15 7 22 10 14 14 14 14 10 9 454 19 18 20 19 6 11 188 203 13 8 720 22 13 15 11 18 10 138 12 9 7 10 14 11 502 14 132 43 9 19 19 11 11 10 8 12 12 481 20 978 21 11 13 1231 10 14 12 11 14 19 420 998 10 14 8 13 38 18 21 18 15 11 8 978 15 12 961 22 9 17 15 11 16 20 12 17 9 17 15 17 59 23 15 72 19 11 15 13 1464 12 13 980 10 14 14 19 11 4190 17 10 137 14 11 13 13 12 14 13 17 10 610 1135 447 12 13 10 14 10 12 15 21 1461 13 12 22 24 8 12 6 9 114 12 13 24 18 13 14 15 12 7 17 10 11 12 14 17 15 15 11 74 15 994 8 13 11 11 14 26 987 14 500 14 12 7 8 9 12 18 7 14 13 19 17 11 61 10 12 23 333 21 15 1578 1943 9 15 12 6 13 871 16 16 10 11 12 7 15 14 638 1065 14 12 17 16 11 8 15 11 19 2430 13 24 2842 12 11 866 18 17 13 7 19 11 14 6 10 21 504 1055 16 9 9 526 20 12 15 12 988 13 2121 8 9 11 6 995 1198 24 5903 9 16 12 1932 16 15 14 18 1489 12 472 44 19 15 487 8 16 9 112 7 131 1954 1462 12 12 1464 10 11 15 9 7 227 15 12 9 17 10 15 50 15 17 9 17 11 12 8 9 12 1480 8 883 10 11 7 12 14 241 6 447 5 15 14 527 20 10 17 14 366 167 19 79 12 11 13 15 12 12 49 9 7828 9 9 13 8 15 2487 5 17 16 949 15 14 8 9 4 8 11 788 11 21 10 19 14 1936 9 86 9 10 12 971 11 12 9 11 21 19 13 8 12 35 12 18 976 23 174 19 19 11 1000 6 623 9 176 10 26 10 13 15 86 18 13 14 17 8 8 16 23 15 10 7 143 77 498 11 13 14 16 23 10 267 1784 14 10 31 12 8 14 7 17 15 10 296 3 30 8 17 134 15 9 15 22 14 19 12 948 972 11 34 14 402 13 9 10 19 7 17 11 20 16 18 444 6 17 2952 10 15 110 12 10 939 14 11 13 986 12 20 19 8 440 8 7 1469 19 19 8 13 16 8 16 16 564 13 20 9 1085 4 5 8 65 12 8 13 7 11 35 18 17 79 667 9 23 12 14 647 1250 690 11 7 11 1001 13 1249 8 16 10 1478 15 263 37 518 15 9 10 12 17 20 12 16 20 17 8 7 6 9 6 10 8 7 15 9 17 14 
To predecode: 0
Predecoding something: 0
Predecode request dropped: 0
sizeofblock_0 0
sizeofblock_1 56621
sizeofblock_2 86241
sizeofblock_3 0
sizeofblock_4 0
sizeofblock_5 0
sizeofblock_6 0
sizeofblock_7 0
sizeofblock_8 0
Variant_0 Correct: 1601061 Incorrect: 0 Accuracy: 1
Variant_1 Correct: 5682683 Incorrect: 0 Accuracy: 1
Variant_2 Correct: 0 Incorrect: 0 Accuracy: -nan
Variant_3 Correct: 0 Incorrect: 0 Accuracy: -nan
