
*** ChampSim Multicore Out-of-Order Simulator ***

Warmup Instructions: 50000000
Simulation Instructions: 50000000
Number of CPUs: 1
LLC sets: 2048
LLC ways: 16
Off-chip DRAM Size: 4096 MB Channels: 1 Width: 64-bit Data Rate: 6400 MT/s
CPU 0 runs ./micro_traces/srv423.trace.gz
.gz
ITLB has LRU replacement policy
DTLB has LRU replacement policy
STLB has LRU replacement policy
FDIP Prefetcher at L1I
L1I has LRU replacement policy
L1D has LRU replacement policy
Initialize SRRIP state for L2C
Initialize DRRIP state for LLC
Heartbeat CPU 0 instructions: 10000002 cycles: 2797540 heartbeat IPC: 3.57457 cumulative IPC: 3.57457 (Simulation time: 0 hr 2 min 35 sec) 
Heartbeat CPU 0 instructions: 20000001 cycles: 5594180 heartbeat IPC: 3.57572 cumulative IPC: 3.57514 (Simulation time: 0 hr 4 min 46 sec) 
Heartbeat CPU 0 instructions: 30000000 cycles: 8391467 heartbeat IPC: 3.57489 cumulative IPC: 3.57506 (Simulation time: 0 hr 6 min 52 sec) 
Heartbeat CPU 0 instructions: 40000001 cycles: 11189726 heartbeat IPC: 3.57365 cumulative IPC: 3.57471 (Simulation time: 0 hr 9 min 2 sec) 
Heartbeat CPU 0 instructions: 50000002 cycles: 13985646 heartbeat IPC: 3.57664 cumulative IPC: 3.57509 (Simulation time: 0 hr 11 min 1 sec) 

Warmup complete CPU 0 instructions: 50000002 cycles: 13985646 (Simulation time: 0 hr 11 min 1 sec) 

Cycle: 20000000 FTQ IN: 58312233 FTQ occupancy: 17.7454 DECODE IN: 58312233 DECODE occupancy: 47.7122 ROB IN: 58312196 ROB occupancy: 308.8 ROB OUT: 58311844
Heartbeat CPU 0 instructions: 60000002 cycles: 21300691 heartbeat IPC: 1.36705 cumulative IPC: 1.36705 (Simulation time: 0 hr 13 min 1 sec) 
Heartbeat CPU 0 instructions: 70000003 cycles: 28542591 heartbeat IPC: 1.38085 cumulative IPC: 1.37391 (Simulation time: 0 hr 14 min 44 sec) 
Cycle: 30000000 FTQ IN: 13705124 FTQ occupancy: 5.60971 DECODE IN: 13705124 DECODE occupancy: 19.0749 ROB IN: 13705160 ROB occupancy: 215.718 ROB OUT: 13705507
Heartbeat CPU 0 instructions: 80000003 cycles: 35841848 heartbeat IPC: 1.37 cumulative IPC: 1.37261 (Simulation time: 0 hr 16 min 28 sec) 
Cycle: 40000000 FTQ IN: 13761184 FTQ occupancy: 5.69673 DECODE IN: 13761173 DECODE occupancy: 19.3356 ROB IN: 13761174 ROB occupancy: 217.404 ROB OUT: 13760994
Heartbeat CPU 0 instructions: 90000000 cycles: 43033546 heartbeat IPC: 1.39049 cumulative IPC: 1.37704 (Simulation time: 0 hr 18 min 20 sec) 
Cycle: 50000000 FTQ IN: 13789144 FTQ occupancy: 5.67729 DECODE IN: 13789131 DECODE occupancy: 19.299 ROB IN: 13789131 ROB occupancy: 217.746 ROB OUT: 13789307
Heartbeat CPU 0 instructions: 100000001 cycles: 50312163 heartbeat IPC: 1.37389 cumulative IPC: 1.37641 (Simulation time: 0 hr 19 min 57 sec) 
Finished CPU 0 instructions: 50000003 cycles: 36326518 cumulative IPC: 1.37641 (Simulation time: 0 hr 19 min 57 sec) 

ChampSim completed all CPUs

Region of Interest Statistics

CPU 0 cumulative IPC: 1.37641 instructions: 50000003 cycles: 36326518
 Fetch stage stalled: 63.994  Sim cycles: 36326518 fetch stall cycle: 23246793
 Empty decode stage: 48.674  Sim cycles: 36326518 fetch stall cycle: 17681559
ITLB TOTAL     ACCESS:    5575521  HIT:    5083417  MISS:     492104  HIT %:    91.1738  MISS %:    8.82615   MPKI: 9.84208
ITLB LOAD TRANSLATION INSTRUCTION	ACCESS:    5459667  HIT:    4967563  MISS:     492104  HIT %:    90.9866  MISS %:    9.01344  MPKI: 9.84208
ITLB TRANSLATION FROM L1D PREFETCHER INSTRUCTION	ACCESS:     115854  HIT:     115854  MISS:          0  HIT %:        100  MISS %:          0  MPKI: 0

ITLB AVERAGE MISS LATENCY: 9.06887 cycles
ITLB RQ	ACCESS:    7417326	FORWARD:          0	MERGED:    1355570	TO_CACHE:    6061756

DTLB TOTAL     ACCESS:    9000768  HIT:    8529022  MISS:     471746  HIT %:    94.7588  MISS %:    5.24117   MPKI: 9.43492
DTLB LOAD TRANSLATION DATA	ACCESS:    9000768  HIT:    8529022  MISS:     471746  HIT %:    94.7588  MISS %:    5.24117  MPKI: 9.43492

DTLB AVERAGE MISS LATENCY: 9.34361 cycles
DTLB RQ	ACCESS:   13359976	FORWARD:          0	MERGED:    4323030	TO_CACHE:    9036946

STLB TOTAL     ACCESS:    1212911  HIT:    1210549  MISS:       2362  HIT %:    99.8053  MISS %:   0.194738   MPKI: 0.04724
STLB LOAD TRANSLATION INSTRUCTION	ACCESS:     492104  HIT:     491645  MISS:        459  HIT %:    99.9067  MISS %:   0.093273  MPKI: 0.00918
STLB LOAD TRANSLATION DATA	ACCESS:     471636  HIT:     469767  MISS:       1869  HIT %:    99.6037  MISS %:    0.39628  MPKI: 0.03738
STLB TRANSLATION FROM L1D PREFETCHER DATA	ACCESS:     249171  HIT:     249137  MISS:         34  HIT %:    99.9864  MISS %:  0.0136452  MPKI: 0.00068

STLB AVERAGE MISS LATENCY: 71.5385 cycles
STLB RQ	ACCESS:    1332800	FORWARD:          0	MERGED:     119857	TO_CACHE:    1212943

STLB Hit, L1D data hit: 0
STLB Hit, L2C data hit: 0
STLB Hit, LLC data hit: 0
STLB Hit, LLC data miss: 0
STLB STLB hints to L2: 0
L1D TOTAL     ACCESS:   13115395  HIT:   12006828  MISS:    1108567  HIT %:    91.5476  MISS %:    8.45241   MPKI: 22.1713
L1D LOAD DATA	ACCESS:    6572585  HIT:    5843068  MISS:     729517  HIT %:    88.9006  MISS %:    11.0994  MPKI: 14.5903
L1D RFO DATA	ACCESS:    6212736  HIT:    5927263  MISS:     285473  HIT %:     95.405  MISS %:    4.59496  MPKI: 5.70946
L1D PREFETCH DATA	ACCESS:     330074  HIT:     236497  MISS:      93577  HIT %:    71.6497  MISS %:    28.3503  MPKI: 1.87154

L1D PREFETCH  REQUESTED:     738260  ISSUED:     738260  USEFUL:      34106  USELESS:      67341
L1D USEFUL LOAD PREFETCHES:      34106 PREFETCH ISSUED TO LOWER LEVEL:     101448  ACCURACY: 33.6192
 TIMELY PREFETCHES:      34106 LATE PREFETCHES: 7846 DROPPED PREFETCHES: 4
L1D AVERAGE MISS LATENCY: 232451 cycles
L1D RQ	ACCESS:   10721819	FORWARD:          0	MERGED:    3952931	TO_CACHE:    6605231
L1D WQ	ACCESS:    6947176	FORWARD:     164017	MERGED:     192431	TO_CACHE:    6754745
L1D PQ	ACCESS:     369310	FORWARD:          0	MERGED:          0	TO_CACHE:     368950

L1D UNIQUE REGIONS ACCESSED: 0
L1D REGIONS CONFLICTS: 0
L1D Cross Page Prefetch Requests: 6260
L1D Same Page Prefetch Requests: 750725
L1D ROI Sum of L1D PQ occupancy: 4696881
L1D PREFETCHES PUSHED FROM L2C: 0
L1I TOTAL     ACCESS:    6869019  HIT:    4114228  MISS:    2754791  HIT %:    59.8954  MISS %:    40.1046   MPKI: 55.0958
L1I LOAD INSTRUCTION	ACCESS:    6358254  HIT:    3603463  MISS:    2754791  HIT %:    56.6738  MISS %:    43.3262  MPKI: 55.0958
L1I PREFETCH INSTRUCTION	ACCESS:     510765  HIT:     510765  MISS:          0  HIT %:        100  MISS %:          0  MPKI: 0

L1I PREFETCH  REQUESTED:    1116177  ISSUED:    1116177  USEFUL:          0  USELESS:          0
L1I USEFUL LOAD PREFETCHES:          0 PREFETCH ISSUED TO LOWER LEVEL:          0  ACCURACY: -nan
 TIMELY PREFETCHES:          0 LATE PREFETCHES: 0 DROPPED PREFETCHES: 0
L1I AVERAGE MISS LATENCY: 16.8755 cycles
L1I RQ	ACCESS:    9433510	FORWARD:          0	MERGED:    2817039	TO_CACHE:    6616471
L1I PQ	ACCESS:    1116177	FORWARD:          0	MERGED:     315322	TO_CACHE:     800855

L1BTB TOTAL     ACCESS:    5667965  HIT:    2048267  MISS:    3619698  HIT %:    36.1376  MISS %:    63.8624   MPKI: 72.394
L1BTB BRANCH_DIRECT_JUMP	ACCESS:     549193  HIT:     145732  MISS:     403461	AVERAGE STALL: 25.1859
L1BTB BRANCH_INDIRECT	ACCESS:     183380  HIT:      66328  MISS:     117052	AVERAGE STALL: 89.002
L1BTB BRANCH_CONDITIONAL	ACCESS:    2710964  HIT:    1420690  MISS:    1290274	AVERAGE STALL: 22.5312
L1BTB BRANCH_DIRECT_CALL	ACCESS:     941055  HIT:     105076  MISS:     835979	AVERAGE STALL: 25.3993
L1BTB BRANCH_INDIRECT_CALL	ACCESS:     171155  HIT:      21038  MISS:     150117	AVERAGE STALL: 124.99
L1BTB BRANCH_RETURN	ACCESS:    1112218  HIT:     289403  MISS:     822815	AVERAGE STALL: 25.35
L1BTB BRANCH_OTHER ACCESS:          0  HIT:          0  MISS:          0	AVERAGE STALL: -nan
L1BTB TOTAL ROB OCCUPANCY AT BTB MISS: 23.3054

L2BTB TOTAL     ACCESS:    3594208  HIT:    3159446  MISS:     434762  HIT %:    87.9038  MISS %:    12.0962   MPKI: 8.69524
L2BTB BRANCH_DIRECT_JUMP	ACCESS:     399236  HIT:     350321  MISS:      48915	AVERAGE STALL: 25.1859
L2BTB BRANCH_INDIRECT	ACCESS:     106811  HIT:     101730  MISS:       5081	AVERAGE STALL: 89.002
L2BTB BRANCH_CONDITIONAL	ACCESS:    1290274  HIT:    1147261  MISS:     143013	AVERAGE STALL: 22.5312
L2BTB BRANCH_DIRECT_CALL	ACCESS:     835979  HIT:     719475  MISS:     116504	AVERAGE STALL: 25.3993
L2BTB BRANCH_INDIRECT_CALL	ACCESS:     140497  HIT:     118825  MISS:      21672	AVERAGE STALL: 124.99
L2BTB BRANCH_RETURN	ACCESS:     821411  HIT:     721834  MISS:      99577	AVERAGE STALL: 25.35
L2BTB BRANCH_OTHER ACCESS:          0  HIT:          0  MISS:          0	AVERAGE STALL: -nan
L2BTB TOTAL ROB OCCUPANCY AT BTB MISS: 194.034

L2C TOTAL     ACCESS:    4471351  HIT:    4026978  MISS:     444373  HIT %:    90.0618  MISS %:    9.93823   MPKI: 8.88746
L2C LOAD INSTRUCTION	ACCESS:    2754791  HIT:    2532039  MISS:     222752  HIT %:     91.914  MISS %:    8.08599  MPKI: 4.45504
L2C LOAD TRANSLATION INSTRUCTION	ACCESS:        504  HIT:        152  MISS:        352  HIT %:    30.1587  MISS %:    69.8413  MPKI: 0.00704
L2C LOAD DATA	ACCESS:     721647  HIT:     643778  MISS:      77869  HIT %:    89.2095  MISS %:    10.7905  MPKI: 1.55738
L2C RFO DATA	ACCESS:     285413  HIT:     230913  MISS:      54500  HIT %:    80.9049  MISS %:    19.0951  MPKI: 1.09
L2C PREFETCH DATA	ACCESS:     186213  HIT:     113931  MISS:      72282  HIT %:    61.1832  MISS %:    38.8168  MPKI: 1.44564
L2C WRITEBACK DATA	ACCESS:     520783  HIT:     505607  MISS:      15176  HIT %:    97.0859  MISS %:    2.91407  MPKI: 0.30352
L2C LOAD TRANSLATION DATA	ACCESS:       1949  HIT:        521  MISS:       1428  HIT %:    26.7317  MISS %:    73.2683  MPKI: 0.02856
L2C TRANSLATION FROM L1D PREFETCHER DATA	ACCESS:         51  HIT:         37  MISS:         14  HIT %:     72.549  MISS %:     27.451  MPKI: 0.00028

L2C PREFETCH  REQUESTED:      93051  ISSUED:      93051  USEFUL:       9168  USELESS:      63850
L2C USEFUL LOAD PREFETCHES:       9168 PREFETCH ISSUED TO LOWER LEVEL:      72824  ACCURACY: 12.5893
 TIMELY PREFETCHES:       9168 LATE PREFETCHES: 542 DROPPED PREFETCHES: 0
L2C AVERAGE MISS LATENCY: 39.8583 cycles
L2C RQ	ACCESS:    3764414	FORWARD:          0	MERGED:          0	TO_CACHE:    3764355
L2C WQ	ACCESS:     520783	FORWARD:         59	MERGED:          0	TO_CACHE:     520783
L2C PQ	ACCESS:     194499	FORWARD:          0	MERGED:       3494	TO_CACHE:     191005

L2C Dense regions hint from L2: 0
PSCL5 TOTAL     ACCESS:       4740  HIT:       2370  MISS:       2370  HIT %:         50  MISS %:         50   MPKI: 0.0474
PSCL5 LOAD TRANSLATION INSTRUCTION	ACCESS:       4638  HIT:       2319  MISS:       2319  HIT %:         50  MISS %:         50  MPKI: 0.04638
PSCL5 TRANSLATION FROM L1D PREFETCHER INSTRUCTION	ACCESS:        102  HIT:         51  MISS:         51  HIT %:         50  MISS %:         50  MPKI: 0.00102


PSCL4 TOTAL     ACCESS:       4291  HIT:       2144  MISS:       2147  HIT %:     49.965  MISS %:     50.035   MPKI: 0.04294
PSCL4 LOAD TRANSLATION INSTRUCTION	ACCESS:       2307  HIT:       2093  MISS:        214  HIT %:    90.7239  MISS %:    9.27612  MPKI: 0.00428
PSCL4 TRANSLATION FROM L1D PREFETCHER INSTRUCTION	ACCESS:         51  HIT:         51  MISS:          0  HIT %:        100  MISS %:          0  MPKI: 0
PSCL4 LOAD TRANSLATION DATA	ACCESS:       1882  HIT:          0  MISS:       1882  HIT %:          0  MISS %:        100  MPKI: 0.03764
PSCL4 TRANSLATION FROM L1D PREFETCHER DATA	ACCESS:         51  HIT:          0  MISS:         51  HIT %:          0  MISS %:        100  MPKI: 0.00102


PSCL3 TOTAL     ACCESS:       4428  HIT:       2208  MISS:       2220  HIT %:    49.8645  MISS %:    50.1355   MPKI: 0.0444
PSCL3 LOAD TRANSLATION INSTRUCTION	ACCESS:       3828  HIT:       2163  MISS:       1665  HIT %:    56.5047  MISS %:    43.4953  MPKI: 0.0333
PSCL3 TRANSLATION FROM L1D PREFETCHER INSTRUCTION	ACCESS:         87  HIT:         45  MISS:         42  HIT %:    51.7241  MISS %:    48.2759  MPKI: 0.00084
PSCL3 LOAD TRANSLATION DATA	ACCESS:        510  HIT:          0  MISS:        510  HIT %:          0  MISS %:        100  MPKI: 0.0102
PSCL3 TRANSLATION FROM L1D PREFETCHER DATA	ACCESS:          3  HIT:          0  MISS:          3  HIT %:          0  MISS %:        100  MPKI: 6e-05


PSCL2 TOTAL     ACCESS:       4618  HIT:       2248  MISS:       2370  HIT %:    48.6791  MISS %:    51.3209   MPKI: 0.0474
PSCL2 LOAD TRANSLATION INSTRUCTION	ACCESS:       2656  HIT:       2197  MISS:        459  HIT %:    82.7184  MISS %:    17.2816  MPKI: 0.00918
PSCL2 TRANSLATION FROM L1D PREFETCHER INSTRUCTION	ACCESS:         51  HIT:         51  MISS:          0  HIT %:        100  MISS %:          0  MPKI: 0
PSCL2 LOAD TRANSLATION DATA	ACCESS:       1860  HIT:          0  MISS:       1860  HIT %:          0  MISS %:        100  MPKI: 0.0372
PSCL2 TRANSLATION FROM L1D PREFETCHER DATA	ACCESS:         51  HIT:          0  MISS:         51  HIT %:          0  MISS %:        100  MPKI: 0.00102


LLC TOTAL     ACCESS:     506895  HIT:     476898  MISS:      29997  HIT %:    94.0822  MISS %:    5.91779   MPKI: 0.59994
LLC LOAD INSTRUCTION	ACCESS:     222752  HIT:     221683  MISS:       1069  HIT %:    99.5201  MISS %:   0.479906  MPKI: 0.02138
LLC LOAD TRANSLATION INSTRUCTION	ACCESS:        352  HIT:        317  MISS:         35  HIT %:    90.0568  MISS %:    9.94318  MPKI: 0.0007
LLC LOAD DATA	ACCESS:      77345  HIT:      73989  MISS:       3356  HIT %:     95.661  MISS %:      4.339  MPKI: 0.06712
LLC RFO DATA	ACCESS:      54473  HIT:      39332  MISS:      15141  HIT %:    72.2046  MISS %:    27.7954  MPKI: 0.30282
LLC PREFETCH DATA	ACCESS:      72822  HIT:      62869  MISS:       9953  HIT %:    86.3324  MISS %:    13.6676  MPKI: 0.19906
LLC WRITEBACK DATA	ACCESS:      77709  HIT:      77353  MISS:        356  HIT %:    99.5419  MISS %:   0.458119  MPKI: 0.00712
LLC LOAD TRANSLATION DATA	ACCESS:       1428  HIT:       1341  MISS:         87  HIT %:    93.9076  MISS %:    6.09244  MPKI: 0.00174
LLC TRANSLATION FROM L1D PREFETCHER DATA	ACCESS:         14  HIT:         14  MISS:          0  HIT %:        100  MISS %:          0  MPKI: 0

LLC AVERAGE MISS LATENCY: 160.002 cycles
LLC RQ	ACCESS:     356373	FORWARD:          0	MERGED:          0	TO_CACHE:     356364
LLC WQ	ACCESS:      77709	FORWARD:         11	MERGED:          0	TO_CACHE:      77709
LLC PQ	ACCESS:      72824	FORWARD:          0	MERGED:          0	TO_CACHE:      72822

LLC Dense regions hint to LLC: 0

RAW hits: 1921835
Loads Generated: 12643654
Loads sent to L1D: 10721819
Stores Generated: 6947174
Stores sent to L1D: 6947176
Major fault: 0 Minor fault: 2653
Allocated PAGES: 2653

stream: 
stream:times selected: 1194172
stream:pref_filled: 120218
stream:pref_useful: 23599
stream:pref_late: 6427
stream:misses: 6793
stream:misses_by_poll: 0

CS: 
CS:times selected: 180201
CS:pref_filled: 60441
CS:pref_useful: 37249
CS:pref_late: 7008
CS:misses: 16334
CS:misses_by_poll: 3

CPLX: 
CPLX:times selected: 1012789
CPLX:pref_filled: 19428
CPLX:pref_useful: 4716
CPLX:pref_late: 3103
CPLX:misses: 90566
CPLX:misses_by_poll: 0

NL_L1: 
NL:times selected: 20718
NL:pref_filled: 682
NL:pref_useful: 272
NL:pref_late: 214
NL:misses: 1047
NL:misses_by_poll: 0

total selections: 2407880
total_filled: 93577
total_useful: 34106
total_late: 18056
total_polluted: 3
total_misses_after_warmup: 762164
conflicts: 5522335

test: 116769

DRAM Statistics
 CHANNEL 0
 RQ ROW_BUFFER_HIT:      11113  ROW_BUFFER_MISS:      18523
 DBUS_CONGESTED:         20
 WQ ROW_BUFFER_HIT:       1409  ROW_BUFFER_MISS:      13324  FULL:          0

 AVG_CONGESTED_CYCLE: 6

CPU 0 Branch Prediction Accuracy: 99.8157% MPKI: 0.3369 Average ROB Occupancy at Mispredict: 183.949
Branch types
NOT_BRANCH: 40861042 81.7221%
BRANCH_DIRECT_JUMP: 549193 1.09839%
BRANCH_INDIRECT: 183380 0.36676%
BRANCH_CONDITIONAL: 6181448 12.3629%
BRANCH_DIRECT_CALL: 941055 1.88211%
BRANCH_INDIRECT_CALL: 171155 0.34231%
BRANCH_RETURN: 1112218 2.22444%
BRANCH_OTHER: 0 0%

DRAM PAGES: 1048576
Allocated PAGES: 2653
Average_ROB_Occupancy: 218.028
Average_Decode_Occupancy: 19.1946
Average_FTQ_Occupancy: 5.63871
Indirect max targets: 14 Average targets: 1.15738
Branch_type:  BRANCH_DIRECT_JUMP:  Count Percentage: 3.34441 6.98326 3.78775 7.91685 2.2354 2.84806 1.35518 71.5291 
Branch_type:  BRANCH_INDIRECT:  Count Percentage: 11.7336 3.4599 2.61842 9.68722 3.33677 2.80121 0.933553 65.4294 
Branch_type:  BRANCH_CONDITIONAL:  Count Percentage: 21.883 2.46927 2.27678 4.72197 1.5427 2.99532 3.86709 60.2438 
Branch_type:  BRANCH_DIRECT_CALL:  Count Percentage: 0.861401 1.24925 0.762815 4.44557 1.96474 2.12838 0.863583 87.7243 
Branch_type:  BRANCH_INDIRECT_CALL:  Count Percentage: 9.56193 0 2.99422 0.0055671 0.00058601 2.19344 1.00413 84.2401 
Branch_type:  BRANCH_RETURN:  Count Percentage: 4.69911 1.39551 1.46747 4.45099 3.37439 4.65629 3.73932 76.2169 
Branch_type:  BRANCH_DIRECT_JUMP:  Total Count: 36722 76677 41590 86928 24545 31272 14880 785398 
Branch_type:  BRANCH_INDIRECT:  Total Count: 43073 12701 9612 35561 12249 10283 3427 240186 
Branch_type:  BRANCH_CONDITIONAL:  Total Count: 2704214 305142 281355 583522 190641 370150 477879 7444688 
Branch_type:  BRANCH_DIRECT_CALL:  Total Count: 16182 23468 14330 83513 36909 39983 16223 1647960 
Branch_type:  BRANCH_INDIRECT_CALL:  Total Count: 32634 0 10219 19 2 7486 3427 287504 
Branch_type:  BRANCH_RETURN:  Total Count: 104353 30990 32588 98843 74935 103402 83039 1692546 
Number of unique branch instructions: 10380
Upper 32 bits: 
aaaa
ffff
ffff0000
Unique upper 32 bits: 3
Unique upper 36 bits: 3
Unique upper 40 bits: 5
Unique upper 44 bits: 32
Unique upper 48 bits: 158
Offset_3 4289
Offset_4 268
Offset_5 474
Offset_6 521
Offset_7 613
Offset_8 534
Offset_9 490
Offset_10 398
Offset_11 324
Offset_12 291
Offset_13 223
Offset_14 241
Offset_15 190
Offset_16 226
Offset_17 170
Offset_18 122
Offset_19 252
Offset_20 141
Offset_21 261
Offset_22 404
Offset_23 241
Offset_24 355
Offset_25 92
Offset_47 88
Offset_64 1
decode_dispatch_called: 22896873 63.0307
Dispatch_width: 0 11407553 49.8214 31.4028
Dispatch_width: 1 895756 3.91213 2.46585
Dispatch_width: 2 1032788 4.51061 2.84307
Dispatch_width: 3 685471 2.99373 1.88697
Dispatch_width: 4 3929707 17.1626 10.8177
Dispatch_width: 5 410471 1.79269 1.12995
Dispatch_width: 6 4535127 19.8068 12.4843
Empty_decode_cycles: 13429645 36.9693
ROB_full_cycles: 5996015 16.5059
Starvation_cycles_per_kilo_instr: 257.954
Starvation_cycles_per_kilo_instr_3: 214.552
Starvation_cycles_per_kilo_instr_0: 188.412
Branch_type_1  (3,1)  (4,10)  (5,39)  (6,70)  (7,121)  (8,134)  (9,129)  (10,102)  (11,69)  (12,43)  (13,8)  (14,2)  (15,3)  (16,4)  (18,1)  (19,4)  (20,2)  (21,1)  (22,3)  (23,2)  (24,10)  (25,12)  (64,1) 
Branch_type_2  (3,1)  (4,1)  (5,1)  (8,3)  (9,3)  (12,1)  (13,1)  (14,1)  (16,3)  (17,2)  (20,2)  (21,2)  (23,5)  (24,1)  (47,41) 
Branch_type_3  (3,4287)  (4,257)  (5,430)  (6,436)  (7,461)  (8,336)  (9,267)  (10,160)  (11,126)  (12,50)  (13,7) 
Branch_type_4  (6,3)  (7,8)  (8,25)  (9,54)  (10,64)  (11,65)  (12,108)  (13,96)  (14,108)  (15,90)  (16,101)  (17,79)  (18,55)  (19,124)  (20,72)  (21,141)  (22,215)  (23,136)  (24,205)  (25,76) 
Branch_type_5  (8,2)  (9,1)  (10,4)  (11,6)  (12,3)  (13,14)  (14,16)  (15,11)  (16,20)  (17,11)  (18,16)  (19,13)  (20,12)  (21,13)  (22,42)  (23,26)  (24,41) 
Branch_type_6  (5,4)  (6,12)  (7,23)  (8,34)  (9,36)  (10,68)  (11,58)  (12,86)  (13,97)  (14,114)  (15,86)  (16,98)  (17,78)  (18,50)  (19,111)  (20,53)  (21,104)  (22,144)  (23,72)  (24,98)  (25,4)  (47,47) 
aaaaab1fc620: 2ac9e77e 2aca717c 2aca8eff 2acaf6bc 2acaf9aa 2acaf9f1 2acb1abc 2acb1b7f 2acd4e22 2acdb712 2acf5f9e 2ad0ef44 2ad3f15c 2ad414e6 2ad60e42 2ad8609c 2ad99830 2ada35cc 2ada4676 2ada6612 2adf183e 2adf30e5 2adf5602 2adf785c 2ae11572 2aeb2dcf 2aee101b 2aee1ae1 2aee9456 2b156a8c 2b156b61 2b156bea 2b167f35 2b177656 2b17feec 2b1a3e5a 
aaaaab1fc740: 2aca1fb0 2aca45b3 2aca5aa1 2aca5c69 2aca66f9 2aca9426 2acaeecb 2acf3d2d 2acf3d64 2acf6089 2ad017ea 2ad5e7ef 2ad61064 2ad87373 2ad9bf84 2ad9c093 2ae9b606 2aea9ffa 2aee99f5 2aee9a2c 2aeece4b 
aaaaac68f310: 2ac9ec8c 2ac9fb44 2ac9fbd2 2aca59ab 2acac04c 2acaf6e0 2acaf6ec 2acaf6f9 2acaf700 2acaf708 2acf2d90 2ad3cfbd 2ad3cfc4 2ad3d000 2ad3f35f 2ad4955d 2ad49571 2ad4f3f2 2ad4f400 2ad5f240 2ad5f37c 2ad5f86a 2ad5f86f 2ad5f880 2ad5fc0d 2ad5fc14 2ad5fc21 2ad5fe1b 2ad873bb 2ad873e3 2ad8a6b2 2ad9086e 2ad93096 2ad9bbb2 2ada152c 2ada1554 2ada3332 2ada5522 2adf3130 2adf313c 2adf3a3f 2adf3bd9 2adf5788 2adf7a8d 2ae07f6b 2ae0857a 2ae0857e 2ae08630 2ae08634 2ae08637 2ae08642 2ae0866f 2ae086e4 2ae086ec 2ae08717 2ae0871b 2aee0170 2aee1d38 2aee75f4 2aee7662 2aee85ca 2aee85e4 2aee8eef 2aee9a0a 2af70b84 2af74e8f 2b17d843 
aaaaac690ef0: 2aca598b 2acb111b 2acb175f 2acb1772 2acbfaf4 2acbfb00 2acf374f 2acf6d43 2acfa5c8 2ad3baf1 2ad3d4ac 2ad3d4b8 2ad3f1cf 2ad486b2 2ad5a59b 2ad5fc64 2ad5fcf9 2ad6121c 2ad906e9 2ad907bf 2ad9bada 2ada16ce 2ada1ad5 2ada43df 2ada64c0 2ada72ee 2adeb71a 2adf3bcb 2adf7a38 2adf7c6a 2adf8872 2adf8880 2adf9959 2adf9abe 2ae07f78 2ae08503 2ae08754 2ae12e80 2aea3bea 2aecb509 2aee00b0 2aee2bdd 2aee5467 2aee5601 2aee8f20 2af703fd 2af7048b 2af74e74 2dfba627 
Unique trigger count: 
1 9881
2 542
3 87
4 34
5 13
6 7
7 8
9 3
10 2
11 1
12 1
13 4
16 2
19 4
21 1
36 1
49 1
67 1
BTB PER SET UNIQUE ADDR: 3 4 4 3 1 1 3 2 4 0 3 0 5 3 2 3 3 2 3 5 3 4 2 3 4 5 1 4 3 2 6 6 4 3 6 2 1 5 6 3 4 4 3 7 6 3 4 3 6 4 4 2 3 3 2 4 4 3 3 3 1 4 2 3 1 5 6 2 3 5 5 1 1 4 2 3 3 6 1 3 2 2 1 4 3 4 2 5 3 3 6 5 3 5 2 0 3 4 2 4 4 3 3 3 2 2 1 2 3 2 2 1 3 6 2 6 2 4 4 1 4 5 2 0 1 2 3 1 6 4 5 2 4 2 5 3 2 1 3 3 5 3 3 2 3 4 2 5 4 3 3 8 3 5 3 0 3 3 3 2 5 5 4 4 5 3 2 2 9 1 3 2 4 2 1 1 3 4 5 1 3 3 6 3 5 5 4 1 2 3 5 3 3 4 4 4 2 3 3 5 3 2 4 1 3 3 2 5 3 1 2 4 5 4 3 2 3 5 4 0 1 2 2 3 3 2 3 3 0 4 8 3 3 2 3 3 3 2 1 3 1 0 6 4 9 8 1 1 3 3 2 2 1 3 2 7 3 5 4 3 4 4 4 2 3 7 3 1 4 2 3 2 2 3 4 2 1 1 3 3 4 2 6 2 5 5 3 3 1 1 0 3 1 5 1 1 5 3 2 2 3 3 1 2 3 2 4 2 7 5 3 1 3 2 5 1 7 6 2 2 3 8 3 4 2 2 2 6 2 1 4 0 2 5 5 2 3 3 5 0 3 0 1 4 4 3 1 2 4 4 3 6 5 3 5 3 2 0 4 1 2 5 2 4 7 5 1 1 2 1 3 2 2 4 4 4 3 3 3 4 5 3 2 5 3 2 5 2 4 1 5 4 4 2 3 1 5 0 1 3 4 2 4 2 2 4 4 3 1 1 1 3 5 4 2 2 5 3 1 3 1 1 3 4 4 5 2 0 2 4 2 2 9 4 5 5 4 3 3 1 3 4 5 4 5 6 2 4 3 2 4 3 2 2 5 1 1 4 7 3 3 3 4 6 1 3 6 2 2 3 0 4 5 2 2 1 4 5 3 1 2 2 2 2 0 4 3 0 6 1 5 2 3 5 0 6 4 3 3 1 5 1 1 1 1 2 3 2 3 3 3 2 4 7 2 2 2 6 4 5 3 5 4 3 6 6 0 7 6 3 5 3 3 6 3 4 1 1 4 1 2 5 6 3 5 2 8 3 6 9 4 6 3 6 1 3 3 1 3 4 7 3 5 2 2 1 4 3 3 7 4 2 3 8 3 2 3 3 1 5 5 2 2 0 1 0 0 9 5 3 5 7 2 1 2 3 5 2 3 1 4 2 4 7 2 4 3 4 3 2 5 2 3 2 2 3 2 0 3 1 5 3 7 2 2 3 2 5 2 3 5 4 3 3 5 3 2 3 2 3 8 1 4 4 0 0 3 4 3 4 3 2 5 2 3 0 5 3 2 3 6 2 5 4 6 4 5 3 1 4 5 4 4 3 5 6 3 3 3 3 3 2 6 3 5 3 5 3 4 3 1 5 2 2 2 4 6 4 5 6 0 6 0 3 3 2 3 1 3 1 3 3 3 1 2 1 7 2 0 3 2 0 1 1 1 1 1 4 2 4 5 4 2 1 2 4 5 3 2 2 1 3 2 4 2 1 4 2 3 2 0 2 1 3 2 2 2 6 4 1 3 3 1 5 4 4 8 2 2 3 4 3 0 3 3 4 5 2 1 3 4 4 0 3 8 6 3 4 0 3 2 4 1 1 4 7 7 2 2 2 5 3 5 3 4 3 3 5 1 2 1 3 4 0 4 3 1 2 0 4 4 2 4 2 2 1 2 2 4 4 3 1 3 2 5 2 2 1 5 2 2 1 3 3 1 4 7 4 5 2 6 2 5 4 5 5 3 2 5 4 3 6 2 1 9 3 3 4 5 3 1 3 3 6 4 0 2 3 5 4 3 5 4 4 6 3 2 2 3 4 4 2 3 4 3 1 7 3 1 1 5 2 1 3 4 5 3 5 3 4 5 4 0 3 1 5 0 1 5 2 6 5 5 3 4 1 3 2 5 7 4 4 9 7 5 4 6 4 1 5 4 2 0 4 4 5 5 5 3 2 6 0 5 4 2 4 6 5 4 2 3 2 4 5 2 6 9 4 6 3 3 3 0 5 6 1 7 5 1 3 7 5 3 4 2 1 2 4 4 2 5 5 2 7 4 5 4 5 3 5 1 3 4 2 2 5 4 3 3 3 5 3 4 4 5 2 5 3 2 4 5 2 11 5 3 3 3 2 2 3 5 8 6 2 3 2 3 2 3 1 3 2 4 4 2 4 5 5 4 6 0 3 3 4 5 4 2 1 3 2 3 2 2 1 4 1 3 3 3 5 2 8 5 3 2 1 10 1 2 4 1 2 6 6 3 8 3 5 5 6 2 5 2 2 1 1 5 0 4 4 3 8 4 1 7 5 7 2 3 4 5 4 5 7 4 4 6 1 4 4 7 4 3 4 4 3 6 6 3 6 6 6 4 3 5 3 1 2 5 5 1 3 2 1 3 4 2 2 5 2 2 5 4 1 5 1 7 3 3 3 3 1 3 5 3 4 3 4 2 6 2 3 6 3 4 3 3 6 2 8 3 5 4 8 6 1 6 1 5 2 1 3 6 4 3 1 3 4 2 1 2 2 4 3 3 3 3 4 2 5 2 5 5 6 1 5 3 2 2 6 9 1 7 0 1 4 5 2 5 1 3 3 4 1 1 2 4 5 3 4 1 4 5 6 5 1 5 4 3 6 10 4 2 6 6 5 1 1 3 5 6 3 2 2 4 3 4 5 5 3 1 4 2 2 6 8 5 4 3 6 1 2 5 2 4 1 3 2 6 8 3 3 3 3 4 4 2 5 6 7 4 2 1 5 3 3 4 3 4 4 4 4 8 3 6 4 4 5 5 4 1 7 4 4 3 3 3 2 3 3 2 2 5 4 3 2 5 1 1 3 3 8 5 2 3 4 2 4 3 3 4 3 2 1 3 2 4 2 5 3 4 4 2 1 2 6 2 4 2 5 2 5 5 1 2 4 4 3 3 3 5 3 3 4 4 5 4 4 5 3 3 2 2 3 5 3 4 1 3 0 8 4 3 6 4 4 5 7 3 2 3 3 1 2 5 1 4 2 4 2 1 5 1 5 2 2 3 3 3 2 4 2 4 2 3 1 5 2 0 3 5 1 1 3 2 4 2 3 8 3 1 2 3 3 2 2 7 2 3 6 3 3 3 3 2 2 3 0 2 2 2 3 3 1 2 1 5 1 4 3 4 4 3 3 2 2 2 4 4 2 7 1 3 5 2 2 4 5 3 2 6 0 1 3 3 1 1 2 3 3 7 3 1 1 6 3 1 4 1 7 1 4 2 3 6 2 2 2 1 3 3 1 1 4 4 2 3 3 1 2 0 6 2 4 3 0 3 2 5 5 4 3 3 4 3 3 2 3 2 3 4 0 2 3 2 3 3 1 3 3 3 9 6 2 2 2 4 2 1 3 5 2 3 0 3 2 3 3 3 4 5 5 7 0 5 1 6 4 5 5 3 8 2 5 9 3 0 6 3 3 3 4 3 3 2 2 2 4 3 2 3 4 2 4 5 3 5 5 6 3 2 5 5 3 4 4 5 3 6 3 5 6 2 6 3 3 3 1 3 7 5 3 2 3 3 3 3 4 2 3 3 2 3 1 3 7 1 2 2 3 3 3 6 4 5 2 6 2 3 2 5 2 4 5 6 1 1 7 2 4 2 3 4 6 2 3 2 3 6 3 5 3 5 3 4 10 4 4 3 5 2 5 4 3 2 3 0 2 2 4 4 4 2 3 3 5 4 2 4 10 1 3 2 4 4 4 3 4 3 6 2 4 1 5 2 3 5 3 3 0 2 6 0 8 2 5 5 1 4 3 2 0 4 2 3 5 3 6 2 3 2 1 4 4 6 1 3 3 0 3 2 5 5 3 3 3 5 2 3 2 6 3 4 1 5 3 0 3 5 1 1 8 2 1 4 2 4 3 2 3 6 3 4 6 1 6 3 5 2 5 4 2 3 2 7 1 4 0 3 3 4 4 3 3 3 1 2 3 0 3 0 3 5 6 2 2 6 2 3 3 3 1 2 2 5 2 4 2 5 3 2 3 1 2 3 3 4 2 3 5 2 1 2 2 2 5 2 5 1 5 4 2 4 1 4 1 2 3 5 2 3 4 4 5 3 3 3 4 4 2 1 3 2 0 2 2 2 2 4 2 5 2 3 3 4 2 2 4 3 2 3 7 3 2 7 6 4 2 4 1 2 5 3 4 5 2 4 1 1 2 4 3 2 4 3 2 5 4 4 8 4 2 0 5 1 0 2 3 0 4 4 6 1 3 4 6 5 0 2 2 4 2 5 1 3 2 8 3 1 2 3 6 2 7 3 5 7 0 1 3 1 4 3 1 0 2 3 4 5 4 1 0 3 4 5 1 2 1 3 5 2 2 5 4 3 3 5 4 1 6 2 6 2 1 2 3 2 3 5 2 3 3 3 2 3 1 5 2 5 3 4 2 1 3 5 4 4 0 
BTB PER SET COUNT: 3 4 4 3 1 1 4 2 4 0 3 0 2530 3 2 3 3 2 3 1467 3 4 2 3 4 13 1 4 1462 2 3035 28 4 3 11 2 2922 731 734 3 5 4 3 2270 5229 3 4 3 1659 4 4 2 3 3 2 4 5 3 3 3 1 5 2 3 1 390 563 2 3 987 731 1 1 4 3 3 509 746 1 3 2 2 1 4 3 5 2 12 3 3 2592 456 3 3762 2 0 3 5 2 4 4 3 4 3 2 3 1 2 3 2 2 1 3 2006 2 1831 2 4 4 1 4 6 2 0 1 2 3 1 2069 4 2026 3 4 2 1015 3 2 1 3 3 62 4 3 2 4 7 2 4266 4 3 3 6678 3 2531 3 0 3 3 3 2 5 972 4 5 10 1911 2 2 8208 1 3 2 4 2 1 1 3 4 959 1 3 3 6856 3 8 8 4 1 2 3 42 3 3 4 4 6 2 3 3 6 3 2 4 1 5 3 2 1468 3 1 2 5 17 4 3 2 3 37 4 0 1 2 2 4 5 2 3 21 0 4 5796 3 3 2 3 3 3 2 1 3 2 0 2531 4 9211 2090 1 1 3 3 2 2 1 3 2 2153 3 8 4 3 5 4 4 2 1463 1386 3 1 4 2 5 2 3 3 4 2 1 1 3 4 6 2 2027 2 733 2532 3 3 1 1 0 3 1 14 1 1 7 3 2 2 3 3 1 2 3 2 4 2 2028 974 3 1 3 2 973 1 2533 1225 2 2 3 2249 3 4 2 2 5 205 2 1 1016 0 3 15 1514 2 1015 3 28 0 3 0 1 1015 1016 3 1 2 4 5 3 95 8 3 52 6 2 0 4 1 2 10 2 4 2475 67 1 1 2 1 3 2 2 4 6 4 3 3 3 4 28 3 2 502 5 2 12 2 4 1 16 4 4 2 3 1 2819 0 2 3 4 2 4 2 2 5 1463 4 1 954 1 3 10 5 955 2 133 3 1 93 2 1 3 5 4 12 5 0 2 5 139 2 2789 4 965 2529 4 3 3 1 5 5 1215 4 9 986 2 4 3 2 4 3 2 3 2025 1 1 4 1548 3 3 3 4 2036 1 4 14 2 2 3 0 7 34 507 2 1 4 973 3 1 2 2 2 507 0 4 3 0 31 1 5 2 3 7 0 29 4 4 3 1 2025 10 1 1 1 2 4 2 3 3 3 2 4 41 4 2 2 2532 4 513 3 1466 4 3 20 1522 0 2028 4784 3 7 4 4 23 3 510 3 1 6 1 2 1521 214 5 13 3 65 3 1032 9322 4 1538 5 3031 1 3 5 1 3 4 6798 3 2026 2 2 1 4 3 4 3077 4 3 3 5296 3 2 3 3 3 27 9 47 3 0 2 0 0 4063 5 4 2026 3041 2 1 955 3 7 2 4 1 5 2 4 1461 2 4 3 4 5 2 2531 2 3 2 2 4 903 0 3 1 13 508 3543 2 2 3 2 13 2 3 2025 1463 3 5 1015 3 2 3 2 3 3062 1 4 4 0 0 3 5 3 4 4 2 8 2 3 0 7 3 2 3 7940 2 27 4 2027 5 2940 1016 1 4 735 4 6 4 1520 3112 3 3 3 3 3 2 8 1014 1521 4 22 1462 4 3 4 1021 2 2 2 5 2030 4 21 43 0 2535 0 3 3 1013 3 1 3 1 3 3 5 1 1013 1 2497 2 0 3 2 0 1 1 1 1 1 6 2 4 1521 4 955 1 2 4 9 5 2 2 1 4 3 4 2 2 510 2 3 1013 0 2 1 4 2 2 2 3036 4 1 3 3 1 23 4 4 5796 2 4 3 4 4 0 98 3 4 2810 2 1 3 5 5 0 3 3208 4781 4 4 0 3 2 46 1 1 5 2243 2052 2 2 2 12 5 9 5 2027 3 4 22 1 5 1 3 4 0 5 5 1 2 0 4 6 2 4 2 2 1 2 2 4 54 3 1 3 2 2027 3 2 1 1520 2 2 1 3 1464 1 10 2043 4 12 2 2532 2 2027 5 8 12 3 2 9 4 3 4831 3 1 6187 956 3 5 1520 5 1 3 3 2255 4 0 2 4 29 5 3 4774 5 4 83 4 2 2 3 4 5 2 3 4 3 2 589 3 3 1 1955 3 1 47 4 2242 3 973 3 5 47 5 0 3 2 1520 0 2 1015 2 44 11 1520 3 6 1 3 2 2025 125 5 512 5306 3779 1521 4 2127 6 1 29 5 2 0 958 6 2530 46 1521 3 2 759 0 341 4 2 4 1453 2026 4 2 3 508 4 4776 2 26 1231 4 2033 3 3 3 0 387 30 1 7247 22 1 3 2035 17 509 5 2 3 2 4 4 3 1742 6 2 3544 4 8 4 2024 3 32 1 3 4 2 2 22 5 4 3 5 2037 3 2419 385 1742 4 26 5 2 6 1955 2 5070 27 3 3 4 2 2 3 6 3041 2030 8 3 2 3 2 3 3 3 2 4 4 2 4 12 2026 4 1532 0 3 4 4 1464 388 2 1 3 3 4 2 3 1 5 1 3 3 3 10 2 4048 1520 3 2 1 11186 1 2 4 1 2 2028 119 4 5286 3 28 8 2532 3 33 2 2 1 1 32 0 5 4 3 2045 4 1 2115 6 2538 2 509 4 14 4 2530 1910 4 4 2535 1 5 5 4793 4 3 4 4 3 1524 2015 4 2531 1521 2183 4 3 12 5 1 2 6 2026 1 3 2 1 4 7 2 2 523 2 2 22 4 1 12 1 5393 4 3 4 3 1 3 9 3 4 4 4 2 27 3 3 1798 3 4 3 3 2028 2 5806 3 1520 5 2678 7245 1 5277 1 23 3 1 4 515 4 3 1 4 126 3 1 3 507 4 3 3 3 3 4 2 1520 2 9 8 19 2 2026 3 2 2 50 7261 1 46 0 1 4 8 3 27 1 3 1014 6 1 1 2 4 26 3 4 1 4 7 7302 17 1 9 4 3 2999 10286 1928 3 7242 24 2025 1 1 4 2025 2531 3 2 2 5 3 4 7 16 3 1 4 2 2 3388 7884 3763 5 3 424 1 2 21 2 4 1 3 2 3038 6564 956 4 4 3 6 5 2 2024 2030 2533 4 2 1 20 3 3 6 3 4 5 4 4 2041 3 2026 4 511 2025 2530 12 1 3109 4 4 3 3 3 3 3 3 2 2 16 4 4 2 960 1 1 4 3 3045 12 2 3 4 2 4 3 3 4 3 2 1 3 3 5 2 8 3 7 4 2 1 2 979 4 4 3 7 3 6 360 1 2 4 4 956 3 3 2538 3 3 47 5 10 4 4 7 3 3 2 2 3 2027 3 4 1 3 0 5527 4 3 3035 4 4 2530 6752 3 2 3 3 1 2 8 2 4 4 5 4 1 3768 2 12 2 2 3 7 3 2 1463 2 4 1337 3 1 482 3 0 3 7 1 4 1338 3 4 2 3 2035 4 1 2 3 4 2 2 3038 2 3 71 4 3 3 3 2 2 4 0 5 2 2 956 3 1 2 1 7 1 4 3 4 4 3 3 1013 2 7 4 29 2 2537 1 3 5 2 2 5 14 143 2 21467 0 1 3 4 1 1 2 5 3 2121 403 1 1 1484 4 1 4 1 2545 1 4 2 3 2014 2 2 2 1 3 3 1 1 4 4 3 3 4 1 2 0 3765 2 4 5 0 4 432 2029 6 4 3 3 4 3 3 2 3 2 3 4 0 2 3 2 3 8 1 3 3 3 3789 3038 2 2 2 4 2 1 3 1684 2 3 0 3 2 3 3 3 4 2530 18 5787 0 7 1 2268 4 6 25 3 3548 2 8 8252 3 0 3037 1462 3 3 4 3 3 2 2 2 957 4 2 3 4 2 4 1775 5 2025 6 1023 3037 2 1287 6797 3 5 7 9 3 3256 3 1669 2026 2 2032 3 257 385 1 1462 1534 12 247 6 3 3 3 4 4 2 3 4 2 3 1 3 2636 1 2 2 3 4 3 533 5 6 2 3825 2 3 3 1520 2 1521 1521 3037 1 1 6212 2 1016 3 3 4 2030 508 3 2 3 3036 3 511 3 4408 3 4 8713 4 4 14603 3037 3 2025 1463 5 2 3 0 2 2 4 4 4 2 4 3 10 4 2 163 3548 1 1462 2 1463 213 4 3 4 3 2408 2 727 1 2531 2 4 7 3 3 0 2 3127 0 5281 3 1287 2533 1 4 3 2 0 4 2 4 1489 3 4831 2 3 2 1 6 4 7304 1 3 557 0 3 2 7 2025 956 6 3 1969 2 3 2 2269 3 4 1 29 3 0 3 6 1460 1 4005 2 1 4 3 4 3 4 3 2485 3 458 2531 1 2531 3 2027 225 2025 141 2 3 2 3760 1 197 0 7 1463 4 4 3 3 3 2 2 451 0 3 0 3 8 3047 2 2 737 372 3 7 956 1 2 2 7 2 4 2 109 3 2 3 1 2 195 3 4 2 3 6 2 1 2 2 2 1552 2 7 1 3762 4 2 4 4 4 2 2 3 12 2 3 1016 4 1015 3 3 3 5 6 2 1 3 3 0 2 2 2 2 4 8 2530 2 3 3 4 2 2 4 3 2 3 3095 6 2 3280 2532 133 2 4 2 2 27 3 4 7 2 4 3 1 2 4 1014 2 4 3 3 8 5 4 2625 4 3 0 9 2 0 2 4 0 4 1463 1028 1 3 4 2514 7 0 3 2 5 2 7 1 7 2 4003 3 1 2 3 2535 4 3543 3 5 5040 0 1 3 1 4 3 1 0 2 3 5 22 4 3 0 3 4 1522 1 2 1 3 2532 2 2 17 4 3 4 2025 4 1 2536 2 2029 8 1 2 3 2 3 10 2 3 3 3 2 3 1 21 2 245 3 4 2 1 3 1482 4 5 0 
