
*** ChampSim Multicore Out-of-Order Simulator ***

Warmup Instructions: 50000000
Simulation Instructions: 50000000
Number of CPUs: 1
LLC sets: 2048
LLC ways: 16
Off-chip DRAM Size: 4096 MB Channels: 1 Width: 64-bit Data Rate: 6400 MT/s
CPU 0 runs ./micro_traces/srv478.trace.gz
.gz
ITLB has LRU replacement policy
DTLB has LRU replacement policy
STLB has LRU replacement policy
FDIP Prefetcher at L1I
L1I has LRU replacement policy
L1D has LRU replacement policy
Initialize SRRIP state for L2C
Initialize DRRIP state for LLC
Heartbeat_Variant_0 : 1318 0.321777 per_variant_size: 0 1318 0 0 0 0 0 0 0 
Heartbeat_Variant_1 : 2307 0.563232 per_variant_size: 0 165 2142 0 0 0 0 0 0 
Heartbeat_Variant_2 : 0 0 per_variant_size: 0 0 0 0 0 0 0 0 0 
Heartbeat_Variant_3 : 0 0 per_variant_size: 0 0 0 0 0 0 0 0 0 
Heartbeat_Variant_0_evicts 0 : 5528 1 : 0 2 : 0 3 : 0 
Heartbeat_Variant_1_evicts 0 : 0 1 : 0 2 : 0 3 : 0 
Heartbeat_Variant_2_evicts 0 : 0 1 : 0 2 : 0 3 : 0 
Heartbeat_Variant_3_evicts 0 : 0 1 : 0 2 : 0 3 : 0 
Heartbeat CPU 0 instructions: 10000002 cycles: 2795192 heartbeat IPC: 3.57757 cumulative IPC: 3.57757 (Simulation time: 0 hr 1 min 43 sec) 
Heartbeat_Variant_0 : 1409 0.343994 per_variant_size: 0 1409 0 0 0 0 0 0 0 
Heartbeat_Variant_1 : 2499 0.610107 per_variant_size: 0 144 2355 0 0 0 0 0 0 
Heartbeat_Variant_2 : 0 0 per_variant_size: 0 0 0 0 0 0 0 0 0 
Heartbeat_Variant_3 : 0 0 per_variant_size: 0 0 0 0 0 0 0 0 0 
Heartbeat_Variant_0_evicts 0 : 5609 1 : 17 2 : 0 3 : 0 
Heartbeat_Variant_1_evicts 0 : 10 1 : 0 2 : 0 3 : 0 
Heartbeat_Variant_2_evicts 0 : 0 1 : 0 2 : 0 3 : 0 
Heartbeat_Variant_3_evicts 0 : 0 1 : 0 2 : 0 3 : 0 
Heartbeat CPU 0 instructions: 20000000 cycles: 5590923 heartbeat IPC: 3.57688 cumulative IPC: 3.57723 (Simulation time: 0 hr 3 min 26 sec) 
Heartbeat_Variant_0 : 1409 0.343994 per_variant_size: 0 1409 0 0 0 0 0 0 0 
Heartbeat_Variant_1 : 2500 0.610352 per_variant_size: 0 146 2354 0 0 0 0 0 0 
Heartbeat_Variant_2 : 0 0 per_variant_size: 0 0 0 0 0 0 0 0 0 
Heartbeat_Variant_3 : 0 0 per_variant_size: 0 0 0 0 0 0 0 0 0 
Heartbeat_Variant_0_evicts 0 : 5570 1 : 0 2 : 0 3 : 0 
Heartbeat_Variant_1_evicts 0 : 0 1 : 0 2 : 0 3 : 0 
Heartbeat_Variant_2_evicts 0 : 0 1 : 0 2 : 0 3 : 0 
Heartbeat_Variant_3_evicts 0 : 0 1 : 0 2 : 0 3 : 0 
Heartbeat CPU 0 instructions: 30000003 cycles: 8384929 heartbeat IPC: 3.57909 cumulative IPC: 3.57785 (Simulation time: 0 hr 5 min 11 sec) 
Heartbeat_Variant_0 : 1418 0.346191 per_variant_size: 0 1418 0 0 0 0 0 0 0 
Heartbeat_Variant_1 : 2528 0.617188 per_variant_size: 0 153 2375 0 0 0 0 0 0 
Heartbeat_Variant_2 : 0 0 per_variant_size: 0 0 0 0 0 0 0 0 0 
Heartbeat_Variant_3 : 0 0 per_variant_size: 0 0 0 0 0 0 0 0 0 
Heartbeat_Variant_0_evicts 0 : 5613 1 : 19 2 : 0 3 : 0 
Heartbeat_Variant_1_evicts 0 : 15 1 : 0 2 : 0 3 : 0 
Heartbeat_Variant_2_evicts 0 : 0 1 : 0 2 : 0 3 : 0 
Heartbeat_Variant_3_evicts 0 : 0 1 : 0 2 : 0 3 : 0 
Heartbeat CPU 0 instructions: 40000001 cycles: 11179781 heartbeat IPC: 3.57801 cumulative IPC: 3.57789 (Simulation time: 0 hr 6 min 53 sec) 
Heartbeat_Variant_0 : 1418 0.346191 per_variant_size: 0 1418 0 0 0 0 0 0 0 
Heartbeat_Variant_1 : 2529 0.617432 per_variant_size: 0 143 2386 0 0 0 0 0 0 
Heartbeat_Variant_2 : 0 0 per_variant_size: 0 0 0 0 0 0 0 0 0 
Heartbeat_Variant_3 : 0 0 per_variant_size: 0 0 0 0 0 0 0 0 0 
Heartbeat_Variant_0_evicts 0 : 5595 1 : 0 2 : 0 3 : 0 
Heartbeat_Variant_1_evicts 0 : 0 1 : 0 2 : 0 3 : 0 
Heartbeat_Variant_2_evicts 0 : 0 1 : 0 2 : 0 3 : 0 
Heartbeat_Variant_3_evicts 0 : 0 1 : 0 2 : 0 3 : 0 
Heartbeat CPU 0 instructions: 50000002 cycles: 13975634 heartbeat IPC: 3.57673 cumulative IPC: 3.57766 (Simulation time: 0 hr 8 min 36 sec) 

Warmup complete CPU 0 instructions: 50000002 cycles: 13975634 (Simulation time: 0 hr 8 min 36 sec) 

Cycle: 20000000 FTQ IN: 58225534 FTQ occupancy: 20.5656 DECODE IN: 58225431 DECODE occupancy: 53.2657 ROB IN: 58225392 ROB occupancy: 317.269 ROB OUT: 58225044
Heartbeat_Variant_0 : 1416 0.345703 per_variant_size: 0 1416 0 0 0 0 0 0 0 
Heartbeat_Variant_1 : 2546 0.621582 per_variant_size: 0 168 2378 0 0 0 0 0 0 
Heartbeat_Variant_2 : 0 0 per_variant_size: 0 0 0 0 0 0 0 0 0 
Heartbeat_Variant_3 : 0 0 per_variant_size: 0 0 0 0 0 0 0 0 0 
Heartbeat_Variant_0_evicts 0 : 5462 1 : 4 2 : 0 3 : 0 
Heartbeat_Variant_1_evicts 0 : 8 1 : 0 2 : 0 3 : 0 
Heartbeat_Variant_2_evicts 0 : 0 1 : 0 2 : 0 3 : 0 
Heartbeat_Variant_3_evicts 0 : 0 1 : 0 2 : 0 3 : 0 
Heartbeat CPU 0 instructions: 60000000 cycles: 21282284 heartbeat IPC: 1.36862 cumulative IPC: 1.36862 (Simulation time: 0 hr 10 min 36 sec) 
Heartbeat_Variant_0 : 1416 0.345703 per_variant_size: 0 1416 0 0 0 0 0 0 0 
Heartbeat_Variant_1 : 2546 0.621582 per_variant_size: 0 171 2375 0 0 0 0 0 0 
Heartbeat_Variant_2 : 0 0 per_variant_size: 0 0 0 0 0 0 0 0 0 
Heartbeat_Variant_3 : 0 0 per_variant_size: 0 0 0 0 0 0 0 0 0 
Heartbeat_Variant_0_evicts 0 : 5486 1 : 0 2 : 0 3 : 0 
Heartbeat_Variant_1_evicts 0 : 0 1 : 0 2 : 0 3 : 0 
Heartbeat_Variant_2_evicts 0 : 0 1 : 0 2 : 0 3 : 0 
Heartbeat_Variant_3_evicts 0 : 0 1 : 0 2 : 0 3 : 0 
Heartbeat CPU 0 instructions: 70000001 cycles: 28454883 heartbeat IPC: 1.39419 cumulative IPC: 1.38129 (Simulation time: 0 hr 12 min 35 sec) 
Cycle: 30000000 FTQ IN: 13921823 FTQ occupancy: 14.8497 DECODE IN: 13921788 DECODE occupancy: 37.6396 ROB IN: 13921767 ROB occupancy: 245.156 ROB OUT: 13921767
Heartbeat_Variant_0 : 1417 0.345947 per_variant_size: 0 1417 0 0 0 0 0 0 0 
Heartbeat_Variant_1 : 2545 0.621338 per_variant_size: 0 166 2379 0 0 0 0 0 0 
Heartbeat_Variant_2 : 0 0 per_variant_size: 0 0 0 0 0 0 0 0 0 
Heartbeat_Variant_3 : 0 0 per_variant_size: 0 0 0 0 0 0 0 0 0 
Heartbeat_Variant_0_evicts 0 : 5504 1 : 1 2 : 0 3 : 0 
Heartbeat_Variant_1_evicts 0 : 0 1 : 0 2 : 0 3 : 0 
Heartbeat_Variant_2_evicts 0 : 0 1 : 0 2 : 0 3 : 0 
Heartbeat_Variant_3_evicts 0 : 0 1 : 0 2 : 0 3 : 0 
Heartbeat CPU 0 instructions: 80000001 cycles: 35706201 heartbeat IPC: 1.37906 cumulative IPC: 1.38054 (Simulation time: 0 hr 14 min 38 sec) 
Cycle: 40000000 FTQ IN: 13835610 FTQ occupancy: 15.0437 DECODE IN: 13835677 DECODE occupancy: 37.9618 ROB IN: 13835677 ROB occupancy: 246.054 ROB OUT: 13835673
Heartbeat_Variant_0 : 1417 0.345947 per_variant_size: 0 1417 0 0 0 0 0 0 0 
Heartbeat_Variant_1 : 2548 0.62207 per_variant_size: 0 164 2384 0 0 0 0 0 0 
Heartbeat_Variant_2 : 0 0 per_variant_size: 0 0 0 0 0 0 0 0 0 
Heartbeat_Variant_3 : 0 0 per_variant_size: 0 0 0 0 0 0 0 0 0 
Heartbeat_Variant_0_evicts 0 : 5654 1 : 1 2 : 0 3 : 0 
Heartbeat_Variant_1_evicts 0 : 2 1 : 0 2 : 0 3 : 0 
Heartbeat_Variant_2_evicts 0 : 0 1 : 0 2 : 0 3 : 0 
Heartbeat_Variant_3_evicts 0 : 0 1 : 0 2 : 0 3 : 0 
Heartbeat CPU 0 instructions: 90000002 cycles: 42852312 heartbeat IPC: 1.39936 cumulative IPC: 1.3852 (Simulation time: 0 hr 16 min 39 sec) 
Cycle: 50000000 FTQ IN: 13869146 FTQ occupancy: 15.0814 DECODE IN: 13869089 DECODE occupancy: 38.0025 ROB IN: 13869089 ROB occupancy: 246.123 ROB OUT: 13869093
Heartbeat_Variant_0 : 1417 0.345947 per_variant_size: 0 1417 0 0 0 0 0 0 0 
Heartbeat_Variant_1 : 2548 0.62207 per_variant_size: 0 173 2375 0 0 0 0 0 0 
Heartbeat_Variant_2 : 0 0 per_variant_size: 0 0 0 0 0 0 0 0 0 
Heartbeat_Variant_3 : 0 0 per_variant_size: 0 0 0 0 0 0 0 0 0 
Heartbeat_Variant_0_evicts 0 : 5574 1 : 0 2 : 0 3 : 0 
Heartbeat_Variant_1_evicts 0 : 0 1 : 0 2 : 0 3 : 0 
Heartbeat_Variant_2_evicts 0 : 0 1 : 0 2 : 0 3 : 0 
Heartbeat_Variant_3_evicts 0 : 0 1 : 0 2 : 0 3 : 0 
Heartbeat CPU 0 instructions: 100000001 cycles: 50103447 heartbeat IPC: 1.37909 cumulative IPC: 1.38398 (Simulation time: 0 hr 18 min 57 sec) 
Finished CPU 0 instructions: 50000003 cycles: 36127814 cumulative IPC: 1.38398 (Simulation time: 0 hr 18 min 57 sec) 

ChampSim completed all CPUs

Region of Interest Statistics

CPU 0 cumulative IPC: 1.38398 instructions: 50000003 cycles: 36127814
 Fetch stage stalled: 45.4859  Sim cycles: 36127814 fetch stall cycle: 16433067
 Empty decode stage: 25.8186  Sim cycles: 36127814 fetch stall cycle: 9327706
ITLB TOTAL     ACCESS:    5851542  HIT:    5358784  MISS:     492758  HIT %:     91.579  MISS %:    8.42099   MPKI: 9.85516
ITLB LOAD TRANSLATION INSTRUCTION	ACCESS:    5714542  HIT:    5221784  MISS:     492758  HIT %:    91.3771  MISS %:    8.62288  MPKI: 9.85516
ITLB TRANSLATION FROM L1D PREFETCHER INSTRUCTION	ACCESS:     137000  HIT:     137000  MISS:          0  HIT %:        100  MISS %:          0  MPKI: 0

ITLB AVERAGE MISS LATENCY: 9.05728 cycles
ITLB RQ	ACCESS:    7946443	FORWARD:          0	MERGED:    1616600	TO_CACHE:    6329843

DTLB TOTAL     ACCESS:    8931797  HIT:    8458751  MISS:     473046  HIT %:    94.7038  MISS %:     5.2962   MPKI: 9.46092
DTLB LOAD TRANSLATION DATA	ACCESS:    8931797  HIT:    8458751  MISS:     473046  HIT %:    94.7038  MISS %:     5.2962  MPKI: 9.46092

DTLB AVERAGE MISS LATENCY: 9.32814 cycles
DTLB RQ	ACCESS:   13293480	FORWARD:          0	MERGED:    4324442	TO_CACHE:    8969038

STLB TOTAL     ACCESS:    1221531  HIT:    1219491  MISS:       2040  HIT %:     99.833  MISS %:   0.167004   MPKI: 0.0408
STLB LOAD TRANSLATION INSTRUCTION	ACCESS:     492758  HIT:     492502  MISS:        256  HIT %:     99.948  MISS %:  0.0519525  MPKI: 0.00512
STLB LOAD TRANSLATION DATA	ACCESS:     473046  HIT:     471286  MISS:       1760  HIT %:    99.6279  MISS %:   0.372057  MPKI: 0.0352
STLB TRANSLATION FROM L1D PREFETCHER DATA	ACCESS:     255727  HIT:     255703  MISS:         24  HIT %:    99.9906  MISS %: 0.00938501  MPKI: 0.00048

STLB AVERAGE MISS LATENCY: 74.1461 cycles
STLB RQ	ACCESS:    1368575	FORWARD:          0	MERGED:     147003	TO_CACHE:    1221572

STLB Hit, L1D data hit: 0
STLB Hit, L2C data hit: 0
STLB Hit, LLC data hit: 0
STLB Hit, LLC data miss: 0
STLB STLB hints to L2: 0
L1D TOTAL     ACCESS:   13041371  HIT:   11871687  MISS:    1169684  HIT %:     91.031  MISS %:    8.96903   MPKI: 23.3937
L1D LOAD DATA	ACCESS:    6540175  HIT:    5768271  MISS:     771904  HIT %:    88.1975  MISS %:    11.8025  MPKI: 15.4381
L1D RFO DATA	ACCESS:    6165911  HIT:    5875113  MISS:     290798  HIT %:    95.2838  MISS %:    4.71622  MPKI: 5.81596
L1D PREFETCH DATA	ACCESS:     335285  HIT:     228303  MISS:     106982  HIT %:    68.0922  MISS %:    31.9078  MPKI: 2.13964

L1D PREFETCH  REQUESTED:     805865  ISSUED:     805865  USEFUL:      50618  USELESS:      71064
L1D USEFUL LOAD PREFETCHES:      50618 PREFETCH ISSUED TO LOWER LEVEL:     121712  ACCURACY: 41.5883
 TIMELY PREFETCHES:      50618 LATE PREFETCHES: 14675 DROPPED PREFETCHES: 3
L1D AVERAGE MISS LATENCY: 399816 cycles
L1D RQ	ACCESS:   10669128	FORWARD:          0	MERGED:    3928542	TO_CACHE:    6575410
L1D WQ	ACCESS:    6913476	FORWARD:     165499	MERGED:     195406	TO_CACHE:    6718070
L1D PQ	ACCESS:     403094	FORWARD:          0	MERGED:          0	TO_CACHE:     402771

L1D UNIQUE REGIONS ACCESSED: 0
L1D REGIONS CONFLICTS: 0
L1D Cross Page Prefetch Requests: 5838
L1D Same Page Prefetch Requests: 815354
L1D ROI Sum of L1D PQ occupancy: 5128627
L1D PREFETCHES PUSHED FROM L2C: 0
L1I TOTAL     ACCESS:    7135543  HIT:    4379655  MISS:    2755888  HIT %:     61.378  MISS %:     38.622   MPKI: 55.1178
L1I LOAD INSTRUCTION	ACCESS:    6459067  HIT:    3703179  MISS:    2755888  HIT %:     57.333  MISS %:     42.667  MPKI: 55.1178
L1I PREFETCH INSTRUCTION	ACCESS:     676476  HIT:     676476  MISS:          0  HIT %:        100  MISS %:          0  MPKI: 0

L1I PREFETCH  REQUESTED:    1616786  ISSUED:    1616786  USEFUL:          0  USELESS:          0
L1I USEFUL LOAD PREFETCHES:          0 PREFETCH ISSUED TO LOWER LEVEL:          0  ACCURACY: -nan
 TIMELY PREFETCHES:          0 LATE PREFETCHES: 0 DROPPED PREFETCHES: 0
L1I AVERAGE MISS LATENCY: 17.4164 cycles
L1I RQ	ACCESS:    9583325	FORWARD:          0	MERGED:    2823375	TO_CACHE:    6759950
L1I PQ	ACCESS:    1616786	FORWARD:          0	MERGED:     430293	TO_CACHE:    1186493

L1BTB TOTAL     ACCESS:    5680758  HIT:    2064983  MISS:    3615775  HIT %:    36.3505  MISS %:    63.6495   MPKI: 72.3155
L1BTB BRANCH_DIRECT_JUMP	ACCESS:     545184 HIT:     143038 MISS:     402146 AVERAGE STALL: 56.0221 AVERAGE FETCH STALL: 13.8653 AVERAGE FETCH QUEUE STALL: 19.2707 AVERAGE DECODE STALL: 21.9537 AVERAGE EXECUTE STALL: 2.59557e+15
L1BTB BRANCH_INDIRECT	ACCESS:     181439 HIT:      65199 MISS:     116240 AVERAGE STALL: 112.901 AVERAGE FETCH STALL: 11.2922 AVERAGE FETCH QUEUE STALL: 21.0888 AVERAGE DECODE STALL: 12.6804 AVERAGE EXECUTE STALL: 66.8768
L1BTB BRANCH_CONDITIONAL	ACCESS:    2732119 HIT:    1444084 MISS:    1288035 AVERAGE STALL: 64.5637 AVERAGE FETCH STALL: 25.701 AVERAGE FETCH QUEUE STALL: 18.4925 AVERAGE DECODE STALL: 19.4574 AVERAGE EXECUTE STALL: 3.89583e+15
L1BTB BRANCH_DIRECT_CALL	ACCESS:     940120 HIT:     104134 MISS:     835986 AVERAGE STALL: 55.2328 AVERAGE FETCH STALL: 27.2189 AVERAGE FETCH QUEUE STALL: 13.0422 AVERAGE DECODE STALL: 14.4905 AVERAGE EXECUTE STALL: 1.06567e+16
L1BTB BRANCH_INDIRECT_CALL	ACCESS:     170892 HIT:      21041 MISS:     149851 AVERAGE STALL: 145.791 AVERAGE FETCH STALL: 13.3749 AVERAGE FETCH QUEUE STALL: 19.0564 AVERAGE DECODE STALL: 12.3182 AVERAGE EXECUTE STALL: 100.54
L1BTB BRANCH_RETURN	ACCESS:    1111004 HIT:     287487 MISS:     823517 AVERAGE STALL: 48.2605 AVERAGE FETCH STALL: 17.1943 AVERAGE FETCH QUEUE STALL: 4.85144 AVERAGE DECODE STALL: 5.90995 AVERAGE EXECUTE STALL: 4.28009e+14
L1BTB BRANCH_OTHER ACCESS:          0 HIT:          0 MISS:          0 AVERAGE STALL: -nan AVERAGE FETCH STALL: -nan AVERAGE FETCH QUEUE STALL: -nan AVERAGE DECODE STALL: -nan AVERAGE EXECUTE STALL: -nan
L1BTB TOTAL ROB OCCUPANCY AT BTB MISS: 2.69603

L2BTB TOTAL     ACCESS:    3590626  HIT:    3526269  MISS:      64357  HIT %:    98.2076  MISS %:    1.79236   MPKI: 1.28714
L2BTB BRANCH_DIRECT_JUMP	ACCESS:     398053 HIT:     395036 MISS:       3017 AVERAGE STALL: 56.0221 AVERAGE FETCH STALL: 13.8653 AVERAGE FETCH QUEUE STALL: 19.2707 AVERAGE DECODE STALL: 21.9537 AVERAGE EXECUTE STALL: 2.59557e+15
L2BTB BRANCH_INDIRECT	ACCESS:     106003 HIT:     103388 MISS:       2615 AVERAGE STALL: 112.901 AVERAGE FETCH STALL: 11.2922 AVERAGE FETCH QUEUE STALL: 21.0888 AVERAGE DECODE STALL: 12.6804 AVERAGE EXECUTE STALL: 66.8768
L2BTB BRANCH_CONDITIONAL	ACCESS:    1288035 HIT:    1283286 MISS:       4749 AVERAGE STALL: 64.5637 AVERAGE FETCH STALL: 25.701 AVERAGE FETCH QUEUE STALL: 18.4925 AVERAGE DECODE STALL: 19.4574 AVERAGE EXECUTE STALL: 3.89583e+15
L2BTB BRANCH_DIRECT_CALL	ACCESS:     835986 HIT:     834255 MISS:       1731 AVERAGE STALL: 55.2328 AVERAGE FETCH STALL: 27.2189 AVERAGE FETCH QUEUE STALL: 13.0422 AVERAGE DECODE STALL: 14.4905 AVERAGE EXECUTE STALL: 1.06567e+16
L2BTB BRANCH_INDIRECT_CALL	ACCESS:     140424 HIT:     129894 MISS:      10530 AVERAGE STALL: 145.791 AVERAGE FETCH STALL: 13.3749 AVERAGE FETCH QUEUE STALL: 19.0564 AVERAGE DECODE STALL: 12.3182 AVERAGE EXECUTE STALL: 100.54
L2BTB BRANCH_RETURN	ACCESS:     822125 HIT:     780410 MISS:      41715 AVERAGE STALL: 48.2605 AVERAGE FETCH STALL: 17.1943 AVERAGE FETCH QUEUE STALL: 4.85144 AVERAGE DECODE STALL: 5.90995 AVERAGE EXECUTE STALL: 4.28009e+14
L2BTB BRANCH_OTHER ACCESS:          0 HIT:          0 MISS:          0 AVERAGE STALL: -nan AVERAGE FETCH STALL: -nan AVERAGE FETCH QUEUE STALL: -nan AVERAGE DECODE STALL: -nan AVERAGE EXECUTE STALL: -nan
L2BTB TOTAL ROB OCCUPANCY AT BTB MISS: 151.472

L2C TOTAL     ACCESS:    4548178  HIT:    4026858  MISS:     521320  HIT %:    88.5378  MISS %:    11.4622   MPKI: 10.4264
L2C LOAD INSTRUCTION	ACCESS:    2755888  HIT:    2482270  MISS:     273618  HIT %:    90.0715  MISS %:    9.92849  MPKI: 5.47236
L2C LOAD TRANSLATION INSTRUCTION	ACCESS:        292  HIT:         70  MISS:        222  HIT %:    23.9726  MISS %:    76.0274  MPKI: 0.00444
L2C LOAD DATA	ACCESS:     757204  HIT:     665552  MISS:      91652  HIT %:     87.896  MISS %:     12.104  MPKI: 1.83304
L2C RFO DATA	ACCESS:     290731  HIT:     237705  MISS:      53026  HIT %:    81.7611  MISS %:    18.2389  MPKI: 1.06052
L2C PREFETCH DATA	ACCESS:     211998  HIT:     126263  MISS:      85735  HIT %:    59.5586  MISS %:    40.4414  MPKI: 1.7147
L2C WRITEBACK DATA	ACCESS:     530195  HIT:     514490  MISS:      15705  HIT %:    97.0379  MISS %:    2.96212  MPKI: 0.3141
L2C LOAD TRANSLATION DATA	ACCESS:       1830  HIT:        481  MISS:       1349  HIT %:    26.2842  MISS %:    73.7158  MPKI: 0.02698
L2C TRANSLATION FROM L1D PREFETCHER DATA	ACCESS:         40  HIT:         27  MISS:         13  HIT %:       67.5  MISS %:       32.5  MPKI: 0.00026

L2C PREFETCH  REQUESTED:      98824  ISSUED:      98824  USEFUL:       9133  USELESS:      77590
L2C USEFUL LOAD PREFETCHES:       9133 PREFETCH ISSUED TO LOWER LEVEL:      86506  ACCURACY: 10.5576
 TIMELY PREFETCHES:       9133 LATE PREFETCHES: 771 DROPPED PREFETCHES: 0
L2C AVERAGE MISS LATENCY: 38.5984 cycles
L2C RQ	ACCESS:    3806022	FORWARD:          0	MERGED:          0	TO_CACHE:    3805985
L2C WQ	ACCESS:     530195	FORWARD:         37	MERGED:          0	TO_CACHE:     530195
L2C PQ	ACCESS:     220536	FORWARD:          0	MERGED:       3226	TO_CACHE:     217310

L2C Dense regions hint from L2: 0
PSCL5 TOTAL     ACCESS:       4088  HIT:       2044  MISS:       2044  HIT %:         50  MISS %:         50   MPKI: 0.04088
PSCL5 LOAD TRANSLATION INSTRUCTION	ACCESS:       4010  HIT:       2005  MISS:       2005  HIT %:         50  MISS %:         50  MPKI: 0.0401
PSCL5 TRANSLATION FROM L1D PREFETCHER INSTRUCTION	ACCESS:         78  HIT:         39  MISS:         39  HIT %:         50  MISS %:         50  MPKI: 0.00078


PSCL4 TOTAL     ACCESS:       2721  HIT:       1358  MISS:       1363  HIT %:    49.9081  MISS %:    50.0919   MPKI: 0.02726
PSCL4 LOAD TRANSLATION INSTRUCTION	ACCESS:       1512  HIT:       1337  MISS:        175  HIT %:    88.4259  MISS %:    11.5741  MPKI: 0.0035
PSCL4 TRANSLATION FROM L1D PREFETCHER INSTRUCTION	ACCESS:         21  HIT:         21  MISS:          0  HIT %:        100  MISS %:          0  MPKI: 0
PSCL4 LOAD TRANSLATION DATA	ACCESS:       1167  HIT:          0  MISS:       1167  HIT %:          0  MISS %:        100  MPKI: 0.02334
PSCL4 TRANSLATION FROM L1D PREFETCHER DATA	ACCESS:         21  HIT:          0  MISS:         21  HIT %:          0  MISS %:        100  MPKI: 0.00042


PSCL3 TOTAL     ACCESS:       3995  HIT:       1992  MISS:       2003  HIT %:    49.8623  MISS %:    50.1377   MPKI: 0.04006
PSCL3 LOAD TRANSLATION INSTRUCTION	ACCESS:       2035  HIT:       1954  MISS:         81  HIT %:    96.0197  MISS %:    3.98034  MPKI: 0.00162
PSCL3 TRANSLATION FROM L1D PREFETCHER INSTRUCTION	ACCESS:         38  HIT:         38  MISS:          0  HIT %:        100  MISS %:          0  MPKI: 0
PSCL3 LOAD TRANSLATION DATA	ACCESS:       1884  HIT:          0  MISS:       1884  HIT %:          0  MISS %:        100  MPKI: 0.03768
PSCL3 TRANSLATION FROM L1D PREFETCHER DATA	ACCESS:         38  HIT:          0  MISS:         38  HIT %:          0  MISS %:        100  MPKI: 0.00076


PSCL2 TOTAL     ACCESS:       3986  HIT:       1942  MISS:       2044  HIT %:    48.7205  MISS %:    51.2795   MPKI: 0.04088
PSCL2 LOAD TRANSLATION INSTRUCTION	ACCESS:       2160  HIT:       1904  MISS:        256  HIT %:    88.1481  MISS %:    11.8519  MPKI: 0.00512
PSCL2 TRANSLATION FROM L1D PREFETCHER INSTRUCTION	ACCESS:         38  HIT:         38  MISS:          0  HIT %:        100  MISS %:          0  MPKI: 0
PSCL2 LOAD TRANSLATION DATA	ACCESS:       1750  HIT:          0  MISS:       1750  HIT %:          0  MISS %:        100  MPKI: 0.035
PSCL2 TRANSLATION FROM L1D PREFETCHER DATA	ACCESS:         38  HIT:          0  MISS:         38  HIT %:          0  MISS %:        100  MPKI: 0.00076


LLC TOTAL     ACCESS:     583505  HIT:     553078  MISS:      30427  HIT %:    94.7855  MISS %:    5.21452   MPKI: 0.60854
LLC LOAD INSTRUCTION	ACCESS:     273618  HIT:     272723  MISS:        895  HIT %:    99.6729  MISS %:   0.327098  MPKI: 0.0179
LLC LOAD TRANSLATION INSTRUCTION	ACCESS:        222  HIT:        198  MISS:         24  HIT %:    89.1892  MISS %:    10.8108  MPKI: 0.00048
LLC LOAD DATA	ACCESS:      90909  HIT:      87243  MISS:       3666  HIT %:    95.9674  MISS %:     4.0326  MPKI: 0.07332
LLC RFO DATA	ACCESS:      52989  HIT:      37857  MISS:      15132  HIT %:    71.4431  MISS %:    28.5569  MPKI: 0.30264
LLC PREFETCH DATA	ACCESS:      86506  HIT:      76294  MISS:      10212  HIT %:     88.195  MISS %:     11.805  MPKI: 0.20424
LLC WRITEBACK DATA	ACCESS:      77899  HIT:      77480  MISS:        419  HIT %:    99.4621  MISS %:   0.537876  MPKI: 0.00838
LLC LOAD TRANSLATION DATA	ACCESS:       1349  HIT:       1270  MISS:         79  HIT %:    94.1438  MISS %:    5.85619  MPKI: 0.00158
LLC TRANSLATION FROM L1D PREFETCHER DATA	ACCESS:         13  HIT:         13  MISS:          0  HIT %:        100  MISS %:          0  MPKI: 0

LLC AVERAGE MISS LATENCY: 161.503 cycles
LLC RQ	ACCESS:     419109	FORWARD:          0	MERGED:          0	TO_CACHE:     419100
LLC WQ	ACCESS:      77899	FORWARD:          9	MERGED:          0	TO_CACHE:      77899
LLC PQ	ACCESS:      86506	FORWARD:          0	MERGED:          0	TO_CACHE:      86506

LLC Dense regions hint to LLC: 0

RAW hits: 1942709
Loads Generated: 12611837
Loads sent to L1D: 10669128
Stores Generated: 6913451
Stores sent to L1D: 6913476
Major fault: 0 Minor fault: 2585
Allocated PAGES: 2585

stream: 
stream:times selected: 1255416
stream:pref_filled: 127059
stream:pref_useful: 28946
stream:pref_late: 9852
stream:misses: 10662
stream:misses_by_poll: 0

CS: 
CS:times selected: 196028
CS:pref_filled: 73093
CS:pref_useful: 49542
CS:pref_late: 10733
CS:misses: 25826
CS:misses_by_poll: 10

CPLX: 
CPLX:times selected: 1058200
CPLX:pref_filled: 25536
CPLX:pref_useful: 7590
CPLX:pref_late: 4241
CPLX:misses: 132468
CPLX:misses_by_poll: 0

NL_L1: 
NL:times selected: 12871
NL:pref_filled: 1124
NL:pref_useful: 284
NL:pref_late: 505
NL:misses: 2116
NL:misses_by_poll: 0

total selections: 2522515
total_filled: 106982
total_useful: 50618
total_late: 27826
total_polluted: 10
total_misses_after_warmup: 807143
conflicts: 5477948

test: 121503

DRAM Statistics
 CHANNEL 0
 RQ ROW_BUFFER_HIT:      10982  ROW_BUFFER_MISS:      19026
 DBUS_CONGESTED:         10
 WQ ROW_BUFFER_HIT:       1519  ROW_BUFFER_MISS:      13181  FULL:          0

 AVG_CONGESTED_CYCLE: 4

CPU 0 Branch Prediction Accuracy: 99.8163% MPKI: 0.33652 Average ROB Occupancy at Mispredict: 197.773
Branch types
NOT_BRANCH: 40839839 81.6797%
BRANCH_DIRECT_JUMP: 545184 1.09037%
BRANCH_INDIRECT: 181439 0.362878%
BRANCH_CONDITIONAL: 6211491 12.423%
BRANCH_DIRECT_CALL: 940120 1.88024%
BRANCH_INDIRECT_CALL: 170892 0.341784%
BRANCH_RETURN: 1111004 2.22201%
BRANCH_OTHER: 0 0%

DRAM PAGES: 1048576
Allocated PAGES: 2585
Average_ROB_Occupancy: 246.759
Average_Decode_Occupancy: 37.7856
Average_FTQ_Occupancy: 14.9687
Indirect max targets: 14 Average targets: 1.14576
Branch_type:  BRANCH_DIRECT_JUMP:  Count Percentage: 4.75694 6.46673 3.6247 2.7871 2.31777 12.1768 7.22519 60.6448 
Branch_type:  BRANCH_INDIRECT:  Count Percentage: 13.7132 6.26784 2.56712 0 0 33.1067 15.4983 28.8468 
Branch_type:  BRANCH_CONDITIONAL:  Count Percentage: 25.6414 4.66825 0.80188 5.22351 1.12366 9.46769 3.24346 49.8301 
Branch_type:  BRANCH_DIRECT_CALL:  Count Percentage: 0.389267 1.70195 0.432026 2.04125 1.93491 5.36646 2.48 85.6541 
Branch_type:  BRANCH_INDIRECT_CALL:  Count Percentage: 9.53455 0 2.98815 0 0 4.12983 0.997321 82.3501 
Branch_type:  BRANCH_RETURN:  Count Percentage: 9.18298 2.80993 0.531004 5.59458 1.26234 11.819 3.04498 65.7552 
Branch_type:  BRANCH_DIRECT_JUMP:  Total Count: 51874 70519 39527 30393 25275 132787 78790 661325 
Branch_type:  BRANCH_INDIRECT:  Total Count: 49925 22819 9346 0 0 120530 56424 105021 
Branch_type:  BRANCH_CONDITIONAL:  Total Count: 3185672 579980 99625 648965 139603 1176259 402965 6190855 
Branch_type:  BRANCH_DIRECT_CALL:  Total Count: 7292 31882 8093 38238 36246 100528 46457 1604529 
Branch_type:  BRANCH_INDIRECT_CALL:  Total Count: 32495 0 10184 0 0 14075 3399 280660 
Branch_type:  BRANCH_RETURN:  Total Count: 203390 62236 11761 123912 27959 261775 67442 1456384 
Number of unique branch instructions: 10010
Upper 32 bits: 
aaaa
ffff
ffff0000
Unique upper 32 bits: 3
Unique upper 36 bits: 3
Unique upper 40 bits: 5
Unique upper 44 bits: 32
Unique upper 48 bits: 157
Variant_0 : 1417 0.345947
Variant_1 : 2548 0.62207
Variant_2 : 0 0
Variant_3 : 0 0
Offset_3 4119
Offset_4 248
Offset_5 459
Offset_6 508
Offset_7 583
Offset_8 507
Offset_9 476
Offset_10 384
Offset_11 311
Offset_12 273
Offset_13 211
Offset_14 229
Offset_15 192
Offset_16 224
Offset_17 151
Offset_18 126
Offset_19 241
Offset_20 141
Offset_21 241
Offset_22 395
Offset_23 241
Offset_24 326
Offset_25 88
Offset_47 80
Offset_64 2
decode_dispatch_called: 26327271 72.8726
Dispatch_width: 0 14279594 54.2388 39.5252
Dispatch_width: 1 1015738 3.85812 2.81151
Dispatch_width: 2 815877 3.09898 2.25831
Dispatch_width: 3 487878 1.85313 1.35042
Dispatch_width: 4 6184832 23.4921 17.1193
Dispatch_width: 5 110563 0.419956 0.306033
Dispatch_width: 6 3432789 13.0389 9.50179
Empty_decode_cycles: 9800543 27.1274
ROB_full_cycles: 10037849 27.7843
Starvation_cycles_per_kilo_instr: 226.572
Starvation_cycles_per_kilo_instr_3: 163.618
Starvation_cycles_per_kilo_instr_0: 140.423
Branch_type_1  (3,1)  (4,9)  (5,37)  (6,69)  (7,114)  (8,129)  (9,126)  (10,99)  (11,68)  (12,43)  (13,5)  (14,2)  (15,3)  (16,4)  (18,1)  (19,4)  (20,2)  (21,1)  (22,3)  (23,2)  (24,10)  (25,12) 
Branch_type_2  (3,1)  (5,1)  (8,3)  (9,3)  (12,1)  (13,1)  (14,1)  (16,3)  (17,2)  (20,2)  (21,2)  (23,5)  (24,1)  (47,36) 
Branch_type_3  (3,4117)  (4,239)  (5,417)  (6,424)  (7,439)  (8,314)  (9,261)  (10,157)  (11,126)  (12,50)  (13,4)  (64,2) 
Branch_type_4  (6,3)  (7,8)  (8,25)  (9,53)  (10,61)  (11,59)  (12,98)  (13,93)  (14,101)  (15,90)  (16,100)  (17,67)  (18,57)  (19,118)  (20,74)  (21,127)  (22,210)  (23,136)  (24,187)  (25,72) 
Branch_type_5  (8,2)  (9,1)  (10,3)  (11,5)  (12,3)  (13,14)  (14,16)  (15,11)  (16,20)  (17,12)  (18,16)  (19,12)  (20,10)  (21,13)  (22,42)  (23,26)  (24,37) 
Branch_type_6  (5,4)  (6,12)  (7,22)  (8,34)  (9,32)  (10,64)  (11,53)  (12,78)  (13,94)  (14,109)  (15,88)  (16,97)  (17,70)  (18,52)  (19,107)  (20,53)  (21,98)  (22,140)  (23,72)  (24,91)  (25,4)  (47,44) 
Unique trigger count: 
Variant_0_evicts_0 : 0
Variant_0_evicts_1 : 0
Variant_0_evicts_2 : 0
Variant_0_evicts_3 : 0
Variant_1_evicts_0 : 0
Variant_1_evicts_1 : 0
Variant_1_evicts_2 : 0
Variant_1_evicts_3 : 0
Variant_2_evicts_0 : 0
Variant_2_evicts_1 : 0
Variant_2_evicts_2 : 0
Variant_2_evicts_3 : 0
Variant_3_evicts_0 : 0
Variant_3_evicts_1 : 0
Variant_3_evicts_2 : 0
Variant_3_evicts_3 : 0
BTB PER SET UNIQUE ADDR: 26 25 23 26 24 27 26 24 29 26 32 24 23 27 27 26 23 25 27 28 32 29 25 24 31 24 26 27 26 22 26 25 26 27 26 25 27 23 27 29 30 25 21 27 25 26 30 23 27 22 21 26 29 22 28 29 26 29 30 23 23 30 23 29 25 23 24 30 26 24 24 25 25 27 24 25 23 30 26 28 32 20 27 29 24 25 26 22 23 26 24 24 29 22 24 27 29 26 25 26 21 26 27 21 25 24 28 24 25 22 24 24 25 27 24 21 27 28 25 28 30 25 32 30 27 30 26 26 26 29 31 26 27 25 26 26 31 28 24 28 26 26 24 21 29 26 21 25 25 29 29 23 28 33 26 27 25 27 26 26 26 22 28 30 27 24 27 25 27 29 26 26 28 25 29 29 23 25 25 29 30 27 25 31 27 29 23 28 27 26 29 26 25 27 26 28 26 27 29 21 22 24 28 26 27 25 23 26 22 24 24 26 26 23 25 28 28 25 27 28 23 27 29 24 22 31 27 29 24 22 25 28 26 21 24 27 26 26 22 31 28 22 25 24 21 27 25 23 23 28 26 24 27 24 25 26 
BTB PER SET COUNT: 29 1039 4392 1011 26 29 1011 1951 29 36 1041 1490 30 381 1053 28 1384 763 30 31 32 30 210 1172 524 24 498 188 2919 520 29 28 2526 30 27 992 31 1957 2656 992 1486 28 424 50 25 26 1982 23 27 22 29 95 29 22 33 35 26 33 525 23 25 523 1018 529 53 1455 216 1364 991 1644 25 15557 25 34 3931 987 75 2601 30 32 35 24 27 32 27 88 1345 22 24 1971 75 24 992 24 29 1021 31 2288 29 1019 41 26 27 21 25 25 30 24 26 24 1010 24 25 35 59 22 29 31 1011 1540 30 25 4112 1102 382 3037 27 2463 32 34 7839 28 27 27 2449 26 525 29 27 28 1017 26 25 22 33 3449 1145 27 26 277 1018 380 276 694 36 483 519 509 518 26 27 27 1968 38 1995 24 27 268 3520 29 1012 26 1483 28 30 61 23 26 37 31 1492 27 69 3901 36 2431 2319 32 27 28 1485 1949 30 183 1204 29 1010 38 997 1947 1011 270 545 26 28 105 29 27 24 26 25 27 2467 2936 25 28 2000 81 28 28 29 977 3017 24 22 32 1346 1181 1478 26 143 1978 1012 1929 1479 35 26 26 22 1139 30 31 26 28 21 77 29 20402 1478 262 369 531 27 25 27 290 
To predecode: 0
Predecoding something: 0
Predecode request dropped: 0
sizeofblock_0 0
sizeofblock_1 41988
sizeofblock_2 93353
sizeofblock_3 0
sizeofblock_4 0
sizeofblock_5 0
sizeofblock_6 0
sizeofblock_7 0
sizeofblock_8 0
Variant_0 Correct: 1603329 Incorrect: 0 Accuracy: 1
Variant_1 Correct: 5690228 Incorrect: 0 Accuracy: 1
Variant_2 Correct: 0 Incorrect: 0 Accuracy: -nan
Variant_3 Correct: 0 Incorrect: 0 Accuracy: -nan
