
*** ChampSim Multicore Out-of-Order Simulator ***

Warmup Instructions: 50000000
Simulation Instructions: 50000000
Number of CPUs: 1
LLC sets: 2048
LLC ways: 16
Off-chip DRAM Size: 4096 MB Channels: 1 Width: 64-bit Data Rate: 6400 MT/s
CPU 0 runs ./micro_traces/srv439.trace.gz
.gz
ITLB has LRU replacement policy
DTLB has LRU replacement policy
STLB has LRU replacement policy
FDIP Prefetcher at L1I
L1I has LRU replacement policy
L1D has LRU replacement policy
Initialize SRRIP state for L2C
Initialize DRRIP state for LLC
Heartbeat_Variant_0 : 1297 0.31665 per_variant_size: 0 1297 0 0 0 0 0 0 0 
Heartbeat_Variant_1 : 975 0.238037 per_variant_size: 0 171 804 0 0 0 0 0 0 
Heartbeat_Variant_2 : 820 0.200195 per_variant_size: 0 144 87 109 480 0 0 0 0 
Heartbeat_Variant_3 : 0 0 per_variant_size: 0 0 0 0 0 0 0 0 0 
Heartbeat_Variant_0_evicts 0 : 5636 1 : 0 2 : 1 3 : 0 
Heartbeat_Variant_1_evicts 0 : 0 1 : 0 2 : 196 3 : 0 
Heartbeat_Variant_2_evicts 0 : 0 1 : 197 2 : 0 3 : 0 
Heartbeat_Variant_3_evicts 0 : 0 1 : 0 2 : 0 3 : 0 
Heartbeat CPU 0 instructions: 10000003 cycles: 2797785 heartbeat IPC: 3.57426 cumulative IPC: 3.57426 (Simulation time: 0 hr 2 min 13 sec) 
Heartbeat_Variant_0 : 1380 0.336914 per_variant_size: 0 1380 0 0 0 0 0 0 0 
Heartbeat_Variant_1 : 1039 0.253662 per_variant_size: 0 164 875 0 0 0 0 0 0 
Heartbeat_Variant_2 : 878 0.214355 per_variant_size: 0 146 92 108 532 0 0 0 0 
Heartbeat_Variant_3 : 0 0 per_variant_size: 0 0 0 0 0 0 0 0 0 
Heartbeat_Variant_0_evicts 0 : 5630 1 : 0 2 : 0 3 : 0 
Heartbeat_Variant_1_evicts 0 : 0 1 : 0 2 : 197 3 : 0 
Heartbeat_Variant_2_evicts 0 : 0 1 : 197 2 : 0 3 : 0 
Heartbeat_Variant_3_evicts 0 : 0 1 : 0 2 : 0 3 : 0 
Heartbeat CPU 0 instructions: 20000002 cycles: 5594692 heartbeat IPC: 3.57538 cumulative IPC: 3.57482 (Simulation time: 0 hr 4 min 13 sec) 
Heartbeat_Variant_0 : 1477 0.360596 per_variant_size: 0 1477 0 0 0 0 0 0 0 
Heartbeat_Variant_1 : 1154 0.281738 per_variant_size: 0 164 990 0 0 0 0 0 0 
Heartbeat_Variant_2 : 937 0.22876 per_variant_size: 0 143 101 102 591 0 0 0 0 
Heartbeat_Variant_3 : 0 0 per_variant_size: 0 0 0 0 0 0 0 0 0 
Heartbeat_Variant_0_evicts 0 : 5555 1 : 0 2 : 0 3 : 0 
Heartbeat_Variant_1_evicts 0 : 1 1 : 0 2 : 196 3 : 0 
Heartbeat_Variant_2_evicts 0 : 0 1 : 195 2 : 0 3 : 0 
Heartbeat_Variant_3_evicts 0 : 0 1 : 0 2 : 0 3 : 0 
Heartbeat CPU 0 instructions: 30000001 cycles: 8391892 heartbeat IPC: 3.575 cumulative IPC: 3.57488 (Simulation time: 0 hr 6 min 6 sec) 
Heartbeat_Variant_0 : 1477 0.360596 per_variant_size: 0 1477 0 0 0 0 0 0 0 
Heartbeat_Variant_1 : 1157 0.282471 per_variant_size: 0 164 993 0 0 0 0 0 0 
Heartbeat_Variant_2 : 937 0.22876 per_variant_size: 0 143 99 101 594 0 0 0 0 
Heartbeat_Variant_3 : 0 0 per_variant_size: 0 0 0 0 0 0 0 0 0 
Heartbeat_Variant_0_evicts 0 : 5548 1 : 0 2 : 0 3 : 0 
Heartbeat_Variant_1_evicts 0 : 0 1 : 0 2 : 195 3 : 0 
Heartbeat_Variant_2_evicts 0 : 0 1 : 195 2 : 0 3 : 0 
Heartbeat_Variant_3_evicts 0 : 0 1 : 0 2 : 0 3 : 0 
Heartbeat CPU 0 instructions: 40000000 cycles: 11189044 heartbeat IPC: 3.57506 cumulative IPC: 3.57493 (Simulation time: 0 hr 8 min 3 sec) 
Heartbeat_Variant_0 : 1492 0.364258 per_variant_size: 0 1492 0 0 0 0 0 0 0 
Heartbeat_Variant_1 : 1189 0.290283 per_variant_size: 0 174 1015 0 0 0 0 0 0 
Heartbeat_Variant_2 : 945 0.230713 per_variant_size: 0 143 101 100 601 0 0 0 0 
Heartbeat_Variant_3 : 0 0 per_variant_size: 0 0 0 0 0 0 0 0 0 
Heartbeat_Variant_0_evicts 0 : 5542 1 : 0 2 : 0 3 : 0 
Heartbeat_Variant_1_evicts 0 : 0 1 : 0 2 : 196 3 : 0 
Heartbeat_Variant_2_evicts 0 : 0 1 : 196 2 : 0 3 : 0 
Heartbeat_Variant_3_evicts 0 : 0 1 : 0 2 : 0 3 : 0 
Heartbeat CPU 0 instructions: 50000001 cycles: 13985869 heartbeat IPC: 3.57548 cumulative IPC: 3.57504 (Simulation time: 0 hr 10 min 1 sec) 

Warmup complete CPU 0 instructions: 50000001 cycles: 13985869 (Simulation time: 0 hr 10 min 1 sec) 

Cycle: 20000000 FTQ IN: 58215835 FTQ occupancy: 19.9921 DECODE IN: 58215766 DECODE occupancy: 51.9305 ROB IN: 58215764 ROB occupancy: 313.598 ROB OUT: 58215723
Heartbeat_Variant_0 : 1492 0.364258 per_variant_size: 0 1492 0 0 0 0 0 0 0 
Heartbeat_Variant_1 : 1190 0.290527 per_variant_size: 0 178 1012 0 0 0 0 0 0 
Heartbeat_Variant_2 : 945 0.230713 per_variant_size: 0 143 101 120 581 0 0 0 0 
Heartbeat_Variant_3 : 0 0 per_variant_size: 0 0 0 0 0 0 0 0 0 
Heartbeat_Variant_0_evicts 0 : 5691 1 : 0 2 : 0 3 : 0 
Heartbeat_Variant_1_evicts 0 : 0 1 : 0 2 : 197 3 : 0 
Heartbeat_Variant_2_evicts 0 : 0 1 : 197 2 : 0 3 : 0 
Heartbeat_Variant_3_evicts 0 : 0 1 : 0 2 : 0 3 : 0 
Heartbeat CPU 0 instructions: 60000002 cycles: 21291553 heartbeat IPC: 1.3688 cumulative IPC: 1.3688 (Simulation time: 0 hr 12 min 16 sec) 
Heartbeat_Variant_0 : 1492 0.364258 per_variant_size: 0 1492 0 0 0 0 0 0 0 
Heartbeat_Variant_1 : 1190 0.290527 per_variant_size: 0 183 1007 0 0 0 0 0 0 
Heartbeat_Variant_2 : 945 0.230713 per_variant_size: 0 141 103 108 593 0 0 0 0 
Heartbeat_Variant_3 : 0 0 per_variant_size: 0 0 0 0 0 0 0 0 0 
Heartbeat_Variant_0_evicts 0 : 5580 1 : 0 2 : 0 3 : 0 
Heartbeat_Variant_1_evicts 0 : 0 1 : 0 2 : 196 3 : 0 
Heartbeat_Variant_2_evicts 0 : 0 1 : 196 2 : 0 3 : 0 
Heartbeat_Variant_3_evicts 0 : 0 1 : 0 2 : 0 3 : 0 
Heartbeat CPU 0 instructions: 70000000 cycles: 28560906 heartbeat IPC: 1.37564 cumulative IPC: 1.37221 (Simulation time: 0 hr 14 min 24 sec) 
Cycle: 30000000 FTQ IN: 13641059 FTQ occupancy: 12.9367 DECODE IN: 13641076 DECODE occupancy: 33.1227 ROB IN: 13641018 ROB occupancy: 233.378 ROB OUT: 13640711
Heartbeat_Variant_0 : 1492 0.364258 per_variant_size: 0 1492 0 0 0 0 0 0 0 
Heartbeat_Variant_1 : 1190 0.290527 per_variant_size: 0 182 1008 0 0 0 0 0 0 
Heartbeat_Variant_2 : 945 0.230713 per_variant_size: 0 142 102 104 597 0 0 0 0 
Heartbeat_Variant_3 : 0 0 per_variant_size: 0 0 0 0 0 0 0 0 0 
Heartbeat_Variant_0_evicts 0 : 5532 1 : 0 2 : 0 3 : 0 
Heartbeat_Variant_1_evicts 0 : 0 1 : 0 2 : 195 3 : 0 
Heartbeat_Variant_2_evicts 0 : 0 1 : 195 2 : 0 3 : 0 
Heartbeat_Variant_3_evicts 0 : 0 1 : 0 2 : 0 3 : 0 
Heartbeat CPU 0 instructions: 80000000 cycles: 35914611 heartbeat IPC: 1.35986 cumulative IPC: 1.36807 (Simulation time: 0 hr 16 min 46 sec) 
Cycle: 40000000 FTQ IN: 13752297 FTQ occupancy: 12.8586 DECODE IN: 13752321 DECODE occupancy: 33.1932 ROB IN: 13752330 ROB occupancy: 234.41 ROB OUT: 13752326
Heartbeat_Variant_0 : 1493 0.364502 per_variant_size: 0 1493 0 0 0 0 0 0 0 
Heartbeat_Variant_1 : 1191 0.290771 per_variant_size: 0 183 1008 0 0 0 0 0 0 
Heartbeat_Variant_2 : 946 0.230957 per_variant_size: 0 141 103 113 589 0 0 0 0 
Heartbeat_Variant_3 : 0 0 per_variant_size: 0 0 0 0 0 0 0 0 0 
Heartbeat_Variant_0_evicts 0 : 5518 1 : 1 2 : 0 3 : 0 
Heartbeat_Variant_1_evicts 0 : 0 1 : 0 2 : 194 3 : 0 
Heartbeat_Variant_2_evicts 0 : 0 1 : 194 2 : 0 3 : 0 
Heartbeat_Variant_3_evicts 0 : 0 1 : 0 2 : 0 3 : 0 
Heartbeat CPU 0 instructions: 90000002 cycles: 43199402 heartbeat IPC: 1.37272 cumulative IPC: 1.36923 (Simulation time: 0 hr 19 min 6 sec) 
Cycle: 50000000 FTQ IN: 13586896 FTQ occupancy: 12.9164 DECODE IN: 13586919 DECODE occupancy: 32.9584 ROB IN: 13586970 ROB occupancy: 232.42 ROB OUT: 13587122
Heartbeat_Variant_0 : 1504 0.367188 per_variant_size: 0 1504 0 0 0 0 0 0 0 
Heartbeat_Variant_1 : 1197 0.292236 per_variant_size: 0 176 1021 0 0 0 0 0 0 
Heartbeat_Variant_2 : 953 0.232666 per_variant_size: 0 147 98 105 603 0 0 0 0 
Heartbeat_Variant_3 : 0 0 per_variant_size: 0 0 0 0 0 0 0 0 0 
Heartbeat_Variant_0_evicts 0 : 5515 1 : 0 2 : 0 3 : 0 
Heartbeat_Variant_1_evicts 0 : 0 1 : 0 2 : 194 3 : 0 
Heartbeat_Variant_2_evicts 0 : 0 1 : 194 2 : 0 3 : 0 
Heartbeat_Variant_3_evicts 0 : 0 1 : 0 2 : 0 3 : 0 
Heartbeat CPU 0 instructions: 100000003 cycles: 50585613 heartbeat IPC: 1.35387 cumulative IPC: 1.36613 (Simulation time: 0 hr 21 min 29 sec) 
Finished CPU 0 instructions: 50000002 cycles: 36599744 cumulative IPC: 1.36613 (Simulation time: 0 hr 21 min 29 sec) 

ChampSim completed all CPUs

Region of Interest Statistics

CPU 0 cumulative IPC: 1.36613 instructions: 50000002 cycles: 36599744
 Fetch stage stalled: 54.2095  Sim cycles: 36599744 fetch stall cycle: 19840530
 Empty decode stage: 35.9907  Sim cycles: 36599744 fetch stall cycle: 13172504
ITLB TOTAL     ACCESS:    5868145  HIT:    5372223  MISS:     495922  HIT %:    91.5489  MISS %:    8.45109   MPKI: 9.91844
ITLB LOAD TRANSLATION INSTRUCTION	ACCESS:    5745068  HIT:    5249146  MISS:     495922  HIT %:    91.3679  MISS %:    8.63213  MPKI: 9.91844
ITLB TRANSLATION FROM L1D PREFETCHER INSTRUCTION	ACCESS:     123077  HIT:     123077  MISS:          0  HIT %:        100  MISS %:          0  MPKI: 0

ITLB AVERAGE MISS LATENCY: 9.0682 cycles
ITLB RQ	ACCESS:    8011087	FORWARD:          0	MERGED:    1693532	TO_CACHE:    6317555

DTLB TOTAL     ACCESS:    8987416  HIT:    8515890  MISS:     471526  HIT %:    94.7535  MISS %:    5.24651   MPKI: 9.43052
DTLB LOAD TRANSLATION DATA	ACCESS:    8987416  HIT:    8515890  MISS:     471526  HIT %:    94.7535  MISS %:    5.24651  MPKI: 9.43052

DTLB AVERAGE MISS LATENCY: 9.35083 cycles
DTLB RQ	ACCESS:   13348773	FORWARD:          0	MERGED:    4324608	TO_CACHE:    9024165

STLB TOTAL     ACCESS:    1214625  HIT:    1212401  MISS:       2224  HIT %:    99.8169  MISS %:   0.183102   MPKI: 0.04448
STLB LOAD TRANSLATION INSTRUCTION	ACCESS:     495922  HIT:     495622  MISS:        300  HIT %:    99.9395  MISS %:  0.0604934  MPKI: 0.006
STLB LOAD TRANSLATION DATA	ACCESS:     471525  HIT:     469626  MISS:       1899  HIT %:    99.5973  MISS %:   0.402736  MPKI: 0.03798
STLB TRANSLATION FROM L1D PREFETCHER DATA	ACCESS:     247178  HIT:     247153  MISS:         25  HIT %:    99.9899  MISS %:  0.0101142  MPKI: 0.0005

STLB AVERAGE MISS LATENCY: 75.7019 cycles
STLB RQ	ACCESS:    1335088	FORWARD:          0	MERGED:     120416	TO_CACHE:    1214672

STLB Hit, L1D data hit: 0
STLB Hit, L2C data hit: 0
STLB Hit, LLC data hit: 0
STLB Hit, LLC data miss: 0
STLB STLB hints to L2: 0
L1D TOTAL     ACCESS:   13090684  HIT:   11965533  MISS:    1125151  HIT %:    91.4049  MISS %:    8.59505   MPKI: 22.503
L1D LOAD DATA	ACCESS:    6557480  HIT:    5815526  MISS:     741954  HIT %:    88.6854  MISS %:    11.3146  MPKI: 14.8391
L1D RFO DATA	ACCESS:    6206948  HIT:    5919197  MISS:     287751  HIT %:    95.3641  MISS %:    4.63595  MPKI: 5.75502
L1D PREFETCH DATA	ACCESS:     326256  HIT:     230810  MISS:      95446  HIT %:    70.7451  MISS %:    29.2549  MPKI: 1.90892

L1D PREFETCH  REQUESTED:     735614  ISSUED:     735614  USEFUL:      35399  USELESS:      68309
L1D USEFUL LOAD PREFETCHES:      35399 PREFETCH ISSUED TO LOWER LEVEL:     103745  ACCURACY: 34.1212
 TIMELY PREFETCHES:      35399 LATE PREFETCHES: 8258 DROPPED PREFETCHES: 11
L1D AVERAGE MISS LATENCY: 236077 cycles
L1D RQ	ACCESS:   10697944	FORWARD:          0	MERGED:    3941648	TO_CACHE:    6592429
L1D WQ	ACCESS:    6955226	FORWARD:     164201	MERGED:     198882	TO_CACHE:    6756344
L1D PQ	ACCESS:     367974	FORWARD:          0	MERGED:          0	TO_CACHE:     367640

L1D UNIQUE REGIONS ACCESSED: 0
L1D REGIONS CONFLICTS: 0
L1D Cross Page Prefetch Requests: 6911
L1D Same Page Prefetch Requests: 746084
L1D ROI Sum of L1D PQ occupancy: 4674189
L1D PREFETCHES PUSHED FROM L2C: 0
L1I TOTAL     ACCESS:    7181271  HIT:    4408702  MISS:    2772569  HIT %:    61.3917  MISS %:    38.6083   MPKI: 55.4514
L1I LOAD INSTRUCTION	ACCESS:    6507632  HIT:    3735063  MISS:    2772569  HIT %:    57.3951  MISS %:    42.6049  MPKI: 55.4514
L1I PREFETCH INSTRUCTION	ACCESS:     673639  HIT:     673639  MISS:          0  HIT %:        100  MISS %:          0  MPKI: 0

L1I PREFETCH  REQUESTED:    1596748  ISSUED:    1596748  USEFUL:          0  USELESS:          0
L1I USEFUL LOAD PREFETCHES:          0 PREFETCH ISSUED TO LOWER LEVEL:          0  ACCURACY: -nan
 TIMELY PREFETCHES:          0 LATE PREFETCHES: 0 DROPPED PREFETCHES: 0
L1I AVERAGE MISS LATENCY: 17.9021 cycles
L1I RQ	ACCESS:    9502364	FORWARD:          0	MERGED:    2664988	TO_CACHE:    6837376
L1I PQ	ACCESS:    1596748	FORWARD:          0	MERGED:     423037	TO_CACHE:    1173711

L1BTB TOTAL     ACCESS:    5668974  HIT:    2030779  MISS:    3638195  HIT %:    35.8227  MISS %:    64.1773   MPKI: 72.7639
L1BTB BRANCH_DIRECT_JUMP	ACCESS:     546722  HIT:     143065  MISS:     403657	AVERAGE STALL: 49.3302
L1BTB BRANCH_INDIRECT	ACCESS:     182359  HIT:      65547  MISS:     116812	AVERAGE STALL: 100.745
L1BTB BRANCH_CONDITIONAL	ACCESS:    2702635  HIT:    1407515  MISS:    1295120	AVERAGE STALL: 50.2136
L1BTB BRANCH_DIRECT_CALL	ACCESS:     946874  HIT:     104016  MISS:     842858	AVERAGE STALL: 47.3799
L1BTB BRANCH_INDIRECT_CALL	ACCESS:     171762  HIT:      20935  MISS:     150827	AVERAGE STALL: 137.389
L1BTB BRANCH_RETURN	ACCESS:    1118622  HIT:     289701  MISS:     828921	AVERAGE STALL: 45.8793
L1BTB BRANCH_OTHER ACCESS:          0  HIT:          0  MISS:          0	AVERAGE STALL: -nan
L1BTB TOTAL ROB OCCUPANCY AT BTB MISS: 2.94897

L2BTB TOTAL     ACCESS:    3612864  HIT:    3536210  MISS:      76654  HIT %:    97.8783  MISS %:     2.1217   MPKI: 1.53308
L2BTB BRANCH_DIRECT_JUMP	ACCESS:     399545  HIT:     395871  MISS:       3674	AVERAGE STALL: 49.3302
L2BTB BRANCH_INDIRECT	ACCESS:     106490  HIT:     103777  MISS:       2713	AVERAGE STALL: 100.745
L2BTB BRANCH_CONDITIONAL	ACCESS:    1295120  HIT:    1285379  MISS:       9741	AVERAGE STALL: 50.2136
L2BTB BRANCH_DIRECT_CALL	ACCESS:     842858  HIT:     841575  MISS:       1283	AVERAGE STALL: 47.3799
L2BTB BRANCH_INDIRECT_CALL	ACCESS:     141338  HIT:     130620  MISS:      10718	AVERAGE STALL: 137.389
L2BTB BRANCH_RETURN	ACCESS:     827513  HIT:     778988  MISS:      48525	AVERAGE STALL: 45.8793
L2BTB BRANCH_OTHER ACCESS:          0  HIT:          0  MISS:          0	AVERAGE STALL: -nan
L2BTB TOTAL ROB OCCUPANCY AT BTB MISS: 139.966

L2C TOTAL     ACCESS:    4515351  HIT:    3958473  MISS:     556878  HIT %:     87.667  MISS %:     12.333   MPKI: 11.1376
L2C LOAD INSTRUCTION	ACCESS:    2772569  HIT:    2448593  MISS:     323976  HIT %:     88.315  MISS %:     11.685  MPKI: 6.47952
L2C LOAD TRANSLATION INSTRUCTION	ACCESS:        339  HIT:         78  MISS:        261  HIT %:    23.0088  MISS %:    76.9912  MPKI: 0.00522
L2C LOAD DATA	ACCESS:     733661  HIT:     652762  MISS:      80899  HIT %:    88.9732  MISS %:    11.0268  MPKI: 1.61798
L2C RFO DATA	ACCESS:     287680  HIT:     231994  MISS:      55686  HIT %:    80.6431  MISS %:    19.3569  MPKI: 1.11372
L2C PREFETCH DATA	ACCESS:     193865  HIT:     116872  MISS:      76993  HIT %:    60.2853  MISS %:    39.7147  MPKI: 1.53986
L2C WRITEBACK DATA	ACCESS:     525205  HIT:     507490  MISS:      17715  HIT %:     96.627  MISS %:    3.37297  MPKI: 0.3543
L2C LOAD TRANSLATION DATA	ACCESS:       1976  HIT:        644  MISS:       1332  HIT %:    32.5911  MISS %:    67.4089  MPKI: 0.02664
L2C TRANSLATION FROM L1D PREFETCHER DATA	ACCESS:         56  HIT:         40  MISS:         16  HIT %:    71.4286  MISS %:    28.5714  MPKI: 0.00032

L2C PREFETCH  REQUESTED:      98841  ISSUED:      98841  USEFUL:       8337  USELESS:      69527
L2C USEFUL LOAD PREFETCHES:       8337 PREFETCH ISSUED TO LOWER LEVEL:      77806  ACCURACY: 10.7151
 TIMELY PREFETCHES:       8337 LATE PREFETCHES: 813 DROPPED PREFETCHES: 0
L2C AVERAGE MISS LATENCY: 37.7746 cycles
L2C RQ	ACCESS:    3796347	FORWARD:          0	MERGED:          0	TO_CACHE:    3796282
L2C WQ	ACCESS:     525205	FORWARD:         65	MERGED:          0	TO_CACHE:     525205
L2C PQ	ACCESS:     202586	FORWARD:          0	MERGED:       3650	TO_CACHE:     198936

L2C Dense regions hint from L2: 0
PSCL5 TOTAL     ACCESS:       4474  HIT:       2237  MISS:       2237  HIT %:         50  MISS %:         50   MPKI: 0.04474
PSCL5 LOAD TRANSLATION INSTRUCTION	ACCESS:       4362  HIT:       2181  MISS:       2181  HIT %:         50  MISS %:         50  MPKI: 0.04362
PSCL5 TRANSLATION FROM L1D PREFETCHER INSTRUCTION	ACCESS:        112  HIT:         56  MISS:         56  HIT %:         50  MISS %:         50  MPKI: 0.00112


PSCL4 TOTAL     ACCESS:       4037  HIT:       2015  MISS:       2022  HIT %:    49.9133  MISS %:    50.0867   MPKI: 0.04044
PSCL4 LOAD TRANSLATION INSTRUCTION	ACCESS:       1966  HIT:       1966  MISS:          0  HIT %:        100  MISS %:          0  MPKI: 0
PSCL4 TRANSLATION FROM L1D PREFETCHER INSTRUCTION	ACCESS:         49  HIT:         49  MISS:          0  HIT %:        100  MISS %:          0  MPKI: 0
PSCL4 LOAD TRANSLATION DATA	ACCESS:       1973  HIT:          0  MISS:       1973  HIT %:          0  MISS %:        100  MPKI: 0.03946
PSCL4 TRANSLATION FROM L1D PREFETCHER DATA	ACCESS:         49  HIT:          0  MISS:         49  HIT %:          0  MISS %:        100  MPKI: 0.00098


PSCL3 TOTAL     ACCESS:       4047  HIT:       2020  MISS:       2027  HIT %:    49.9135  MISS %:    50.0865   MPKI: 0.04054
PSCL3 LOAD TRANSLATION INSTRUCTION	ACCESS:       1971  HIT:       1971  MISS:          0  HIT %:        100  MISS %:          0  MPKI: 0
PSCL3 TRANSLATION FROM L1D PREFETCHER INSTRUCTION	ACCESS:         49  HIT:         49  MISS:          0  HIT %:        100  MISS %:          0  MPKI: 0
PSCL3 LOAD TRANSLATION DATA	ACCESS:       1978  HIT:          0  MISS:       1978  HIT %:          0  MISS %:        100  MPKI: 0.03956
PSCL3 TRANSLATION FROM L1D PREFETCHER DATA	ACCESS:         49  HIT:          0  MISS:         49  HIT %:          0  MISS %:        100  MPKI: 0.00098


PSCL2 TOTAL     ACCESS:       4354  HIT:       2117  MISS:       2237  HIT %:     48.622  MISS %:     51.378   MPKI: 0.04474
PSCL2 LOAD TRANSLATION INSTRUCTION	ACCESS:       2359  HIT:       2061  MISS:        298  HIT %:    87.3675  MISS %:    12.6325  MPKI: 0.00596
PSCL2 TRANSLATION FROM L1D PREFETCHER INSTRUCTION	ACCESS:         56  HIT:         56  MISS:          0  HIT %:        100  MISS %:          0  MPKI: 0
PSCL2 LOAD TRANSLATION DATA	ACCESS:       1883  HIT:          0  MISS:       1883  HIT %:          0  MISS %:        100  MPKI: 0.03766
PSCL2 TRANSLATION FROM L1D PREFETCHER DATA	ACCESS:         56  HIT:          0  MISS:         56  HIT %:          0  MISS %:        100  MPKI: 0.00112


LLC TOTAL     ACCESS:     619247  HIT:     588586  MISS:      30661  HIT %:    95.0487  MISS %:    4.95134   MPKI: 0.61322
LLC LOAD INSTRUCTION	ACCESS:     323976  HIT:     322963  MISS:       1013  HIT %:    99.6873  MISS %:   0.312677  MPKI: 0.02026
LLC LOAD TRANSLATION INSTRUCTION	ACCESS:        261  HIT:        214  MISS:         47  HIT %:    81.9923  MISS %:    18.0077  MPKI: 0.00094
LLC LOAD DATA	ACCESS:      80124  HIT:      76492  MISS:       3632  HIT %:     95.467  MISS %:    4.53297  MPKI: 0.07264
LLC RFO DATA	ACCESS:      55627  HIT:      40371  MISS:      15256  HIT %:    72.5745  MISS %:    27.4255  MPKI: 0.30512
LLC PREFETCH DATA	ACCESS:      77806  HIT:      67593  MISS:      10213  HIT %:    86.8738  MISS %:    13.1262  MPKI: 0.20426
LLC WRITEBACK DATA	ACCESS:      80105  HIT:      79699  MISS:        406  HIT %:    99.4932  MISS %:   0.506835  MPKI: 0.00812
LLC LOAD TRANSLATION DATA	ACCESS:       1332  HIT:       1238  MISS:         94  HIT %:    92.9429  MISS %:    7.05706  MPKI: 0.00188
LLC TRANSLATION FROM L1D PREFETCHER DATA	ACCESS:         16  HIT:         16  MISS:          0  HIT %:        100  MISS %:          0  MPKI: 0

LLC AVERAGE MISS LATENCY: 157.33 cycles
LLC RQ	ACCESS:     461357	FORWARD:          0	MERGED:          0	TO_CACHE:     461336
LLC WQ	ACCESS:      80105	FORWARD:         21	MERGED:          0	TO_CACHE:      80105
LLC PQ	ACCESS:      77806	FORWARD:          0	MERGED:          0	TO_CACHE:      77806

LLC Dense regions hint to LLC: 0

RAW hits: 1940916
Loads Generated: 12638860
Loads sent to L1D: 10697944
Stores Generated: 6955224
Stores sent to L1D: 6955226
Major fault: 0 Minor fault: 2610
Allocated PAGES: 2610

stream: 
stream:times selected: 1181348
stream:pref_filled: 121992
stream:pref_useful: 24378
stream:pref_late: 6962
stream:misses: 7842
stream:misses_by_poll: 0

CS: 
CS:times selected: 176809
CS:pref_filled: 59042
CS:pref_useful: 35795
CS:pref_late: 7207
CS:misses: 16909
CS:misses_by_poll: 7

CPLX: 
CPLX:times selected: 1003397
CPLX:pref_filled: 19434
CPLX:pref_useful: 4631
CPLX:pref_late: 3188
CPLX:misses: 94499
CPLX:misses_by_poll: 0

NL_L1: 
NL:times selected: 20848
NL:pref_filled: 694
NL:pref_useful: 317
NL:pref_late: 271
NL:misses: 1670
NL:misses_by_poll: 0

total selections: 2382402
total_filled: 95446
total_useful: 35399
total_late: 18964
total_polluted: 7
total_misses_after_warmup: 776902
conflicts: 5531129

test: 115744

DRAM Statistics
 CHANNEL 0
 RQ ROW_BUFFER_HIT:      11516  ROW_BUFFER_MISS:      18728
 DBUS_CONGESTED:         10
 WQ ROW_BUFFER_HIT:       1453  ROW_BUFFER_MISS:      12624  FULL:          0

 AVG_CONGESTED_CYCLE: 5

CPU 0 Branch Prediction Accuracy: 99.8224% MPKI: 0.3247 Average ROB Occupancy at Mispredict: 188.954
Branch types
NOT_BRANCH: 40856590 81.7132%
BRANCH_DIRECT_JUMP: 546722 1.09344%
BRANCH_INDIRECT: 182359 0.364718%
BRANCH_CONDITIONAL: 6176978 12.354%
BRANCH_DIRECT_CALL: 946874 1.89375%
BRANCH_INDIRECT_CALL: 171762 0.343524%
BRANCH_RETURN: 1118622 2.23724%
BRANCH_OTHER: 0 0%

DRAM PAGES: 1048576
Allocated PAGES: 2610
Average_ROB_Occupancy: 234.434
Average_Decode_Occupancy: 33.0746
Average_FTQ_Occupancy: 12.9126
Indirect max targets: 14 Average targets: 1.18153
Branch_type:  BRANCH_DIRECT_JUMP:  Count Percentage: 3.64059 5.51221 4.15484 8.95434 2.234 6.02354 1.29554 68.1849 
Branch_type:  BRANCH_INDIRECT:  Count Percentage: 6.13022 3.40258 8.15639 9.6754 3.35112 2.81441 3.08454 63.3853 
Branch_type:  BRANCH_CONDITIONAL:  Count Percentage: 24.8755 3.11724 1.43078 4.60604 1.84534 3.60133 1.07319 59.4506 
Branch_type:  BRANCH_DIRECT_CALL:  Count Percentage: 0.897877 1.27962 0.724862 3.95516 2.38908 2.81638 1.0938 86.8432 
Branch_type:  BRANCH_INDIRECT_CALL:  Count Percentage: 9.57775 0 3.0034 0.000874521 0 2.27142 3.28528 81.8613 
Branch_type:  BRANCH_RETURN:  Count Percentage: 8.31836 1.22712 1.02689 3.93619 3.53837 3.67503 1.45792 76.8201 
Branch_type:  BRANCH_DIRECT_JUMP:  Total Count: 39864 60358 45495 98049 24462 65957 14186 746617 
Branch_type:  BRANCH_INDIRECT:  Total Count: 22398 12432 29801 35351 12244 10283 11270 231591 
Branch_type:  BRANCH_CONDITIONAL:  Total Count: 3073339 385132 176771 569072 227990 444941 132592 7345069 
Branch_type:  BRANCH_DIRECT_CALL:  Total Count: 16970 24185 13700 74753 45154 53230 20673 1641349 
Branch_type:  BRANCH_INDIRECT_CALL:  Total Count: 32856 0 10303 3 0 7792 11270 280821 
Branch_type:  BRANCH_RETURN:  Total Count: 185827 27413 22940 87932 79045 82098 32569 1716114 
Number of unique branch instructions: 10659
Upper 32 bits: 
aaaa
ffff
ffff0000
Unique upper 32 bits: 3
Unique upper 36 bits: 3
Unique upper 40 bits: 5
Unique upper 44 bits: 32
Unique upper 48 bits: 157
Variant_0 : 1504 0.367188
Variant_1 : 1197 0.292236
Variant_2 : 953 0.232666
Variant_3 : 0 0
Offset_3 4421
Offset_4 254
Offset_5 475
Offset_6 535
Offset_7 630
Offset_8 575
Offset_9 508
Offset_10 413
Offset_11 343
Offset_12 322
Offset_13 240
Offset_14 245
Offset_15 197
Offset_16 223
Offset_17 165
Offset_18 152
Offset_19 258
Offset_20 144
Offset_21 235
Offset_22 405
Offset_23 241
Offset_24 348
Offset_25 117
Offset_47 94
Offset_64 1
decode_dispatch_called: 25230535 68.9364
Dispatch_width: 0 13497070 53.495 36.8775
Dispatch_width: 1 943458 3.73935 2.57777
Dispatch_width: 2 812623 3.22079 2.2203
Dispatch_width: 3 482101 1.91078 1.31723
Dispatch_width: 4 5417564 21.4723 14.8022
Dispatch_width: 5 151575 0.60076 0.414142
Dispatch_width: 6 3926144 15.5611 10.7272
Empty_decode_cycles: 11369209 31.0636
ROB_full_cycles: 8663189 23.6701
Starvation_cycles_per_kilo_instr: 240.104
Starvation_cycles_per_kilo_instr_3: 184.413
Starvation_cycles_per_kilo_instr_0: 162.031
Branch_type_1  (3,1)  (4,7)  (5,38)  (6,73)  (7,124)  (8,146)  (9,134)  (10,109)  (11,75)  (12,55)  (13,11)  (14,2)  (15,3)  (16,4)  (18,1)  (19,5)  (20,2)  (21,1)  (22,3)  (23,2)  (24,10)  (25,12) 
Branch_type_2  (3,1)  (4,1)  (5,1)  (8,4)  (9,4)  (10,1)  (12,1)  (13,1)  (14,1)  (16,3)  (17,2)  (20,2)  (21,2)  (23,5)  (24,1)  (47,43)  (64,1) 
Branch_type_3  (3,4419)  (4,246)  (5,432)  (6,445)  (7,475)  (8,360)  (9,277)  (10,164)  (11,132)  (12,62)  (13,10) 
Branch_type_4  (6,4)  (7,8)  (8,26)  (9,55)  (10,66)  (11,70)  (12,113)  (13,102)  (14,111)  (15,93)  (16,98)  (17,76)  (18,65)  (19,124)  (20,73)  (21,124)  (22,213)  (23,136)  (24,204)  (25,101) 
Branch_type_5  (8,3)  (9,1)  (10,4)  (11,5)  (12,3)  (13,14)  (14,16)  (15,11)  (16,22)  (17,11)  (18,23)  (19,14)  (20,11)  (21,13)  (22,43)  (23,26)  (24,37) 
Branch_type_6  (5,4)  (6,13)  (7,23)  (8,36)  (9,37)  (10,69)  (11,61)  (12,88)  (13,102)  (14,115)  (15,90)  (16,96)  (17,76)  (18,63)  (19,115)  (20,56)  (21,95)  (22,146)  (23,72)  (24,96)  (25,4)  (47,51) 
Unique trigger count: 
Variant_0_evicts_0 : 0
Variant_0_evicts_1 : 0
Variant_0_evicts_2 : 0
Variant_0_evicts_3 : 0
Variant_1_evicts_0 : 0
Variant_1_evicts_1 : 0
Variant_1_evicts_2 : 0
Variant_1_evicts_3 : 0
Variant_2_evicts_0 : 0
Variant_2_evicts_1 : 0
Variant_2_evicts_2 : 0
Variant_2_evicts_3 : 0
Variant_3_evicts_0 : 0
Variant_3_evicts_1 : 0
Variant_3_evicts_2 : 0
Variant_3_evicts_3 : 0
BTB PER SET UNIQUE ADDR: 27 32 26 28 20 26 28 27 28 28 35 26 22 24 27 34 31 22 30 21 29 21 24 26 36 26 31 25 29 25 29 25 30 25 24 24 20 30 28 26 27 32 26 40 22 18 31 23 26 20 28 36 23 26 35 33 27 25 25 28 28 31 18 26 27 28 24 34 22 31 23 34 27 22 26 28 30 27 30 23 26 29 25 21 29 33 23 27 27 23 30 27 24 34 24 24 28 23 24 37 21 19 27 28 35 27 22 24 23 22 27 21 33 26 32 26 25 23 26 24 21 29 31 28 27 23 27 31 26 27 24 24 29 27 34 37 22 25 28 31 34 27 28 19 26 23 31 29 25 24 26 30 30 27 27 28 31 30 26 27 30 24 36 25 25 27 30 21 24 26 23 23 24 30 27 24 29 24 34 27 37 32 28 27 20 26 22 28 24 23 27 25 27 31 24 19 34 20 28 28 19 26 32 28 28 28 22 27 27 23 34 27 28 33 22 30 25 27 27 28 27 33 31 24 30 32 20 28 30 23 28 31 29 18 23 24 29 20 25 31 32 26 23 30 21 22 30 25 29 25 28 27 33 32 28 34 
BTB PER SET COUNT: 29 52 2003 31 23 30 28 43 513 31 44 30 23 26 31 36 395 25 31 21 516 29 25 719 1528 28 2484 995 1082 1278 29 25 1027 15354 7999 244 20 4376 533 30 807 34 28 134 23 19 1534 23 27 987 2040 1212 1012 32 40 37 1501 27 25 28 28 32 741 30 1512 406 32 455 991 35 60 35 31 22 29 28 30 2198 515 28 254 1919 1961 24 30 1342 993 32 998 23 31 27 317 536 26 1004 31 991 27 1999 21 21 27 59 2497 28 431 2966 1855 1278 30 2963 7633 29 1007 32 25 25 1441 2353 26 29 36 2487 1878 29 996 5412 1496 33 24 40 32 90 701 40 23 28 28 1018 2415 2291 28 335 26 25 2185 29 29 26 26 35 31 27 1621 2936 1730 1521 26 29 1021 26 2199 913 25 1015 1968 263 30 994 28 1000 27 192 997 27 29 70 2862 28 1299 35 30 457 20 527 23 29 24 27 1500 299 224 122 994 425 36 1003 30 28 19 31 1041 29 3986 999 20631 511 996 24 258 27 29 4949 23 31 28 1015 27 28 35 34 2970 24 2973 80 990 2976 1652 25 2031 32 32 19 1997 26 3116 23 510 1969 33 2769 2033 2497 1957 506 32 25 31 2901 31 29 1005 32 31 1148 
To predecode: 0
Predecoding something: 0
Predecode request dropped: 0
sizeofblock_0 0
sizeofblock_1 15026
sizeofblock_2 21758
sizeofblock_3 60394
sizeofblock_4 63349
sizeofblock_5 0
sizeofblock_6 0
sizeofblock_7 0
sizeofblock_8 0
Variant_0 Correct: 1618164 Incorrect: 0 Accuracy: 1
Variant_1 Correct: 2095131 Incorrect: 0 Accuracy: 1
Variant_2 Correct: 3628068 Incorrect: 1938 Accuracy: 0.999466
Variant_3 Correct: 0 Incorrect: 0 Accuracy: -nan
