
*** ChampSim Multicore Out-of-Order Simulator ***

Warmup Instructions: 50000000
Simulation Instructions: 50000000
Number of CPUs: 1
LLC sets: 2048
LLC ways: 16
Off-chip DRAM Size: 4096 MB Channels: 1 Width: 64-bit Data Rate: 6400 MT/s
CPU 0 runs ./micro_traces/srv414.trace.gz
.gz
ITLB has LRU replacement policy
DTLB has LRU replacement policy
STLB has LRU replacement policy
FDIP Prefetcher at L1I
L1I has LRU replacement policy
L1D has LRU replacement policy
Initialize SRRIP state for L2C
Initialize DRRIP state for LLC
Heartbeat_Variant_0 : 1385 0.169067 per_variant_size: 0 1385 0 0 0 0 0 0 0 
Heartbeat_Variant_1 : 1478 0.18042 per_variant_size: 0 977 501 0 0 0 0 0 0 
Heartbeat_Variant_2 : 1549 0.189087 per_variant_size: 0 803 481 222 43 0 0 0 0 
Heartbeat_Variant_3 : 0 0 per_variant_size: 0 0 0 0 0 0 0 0 0 
Heartbeat_Variant_0_evicts 0 : 7378 1 : 734 2 : 1515 3 : 0 
Heartbeat_Variant_1_evicts 0 : 641 1 : 0 2 : 927 3 : 0 
Heartbeat_Variant_2_evicts 0 : 1477 1 : 655 2 : 0 3 : 0 
Heartbeat_Variant_3_evicts 0 : 0 1 : 0 2 : 0 3 : 0 
Heartbeat CPU 0 instructions: 10000003 cycles: 2796973 heartbeat IPC: 3.57529 cumulative IPC: 3.57529 (Simulation time: 0 hr 1 min 40 sec) 
Heartbeat_Variant_0 : 1390 0.169678 per_variant_size: 0 1390 0 0 0 0 0 0 0 
Heartbeat_Variant_1 : 1482 0.180908 per_variant_size: 0 977 505 0 0 0 0 0 0 
Heartbeat_Variant_2 : 1544 0.188477 per_variant_size: 0 797 482 222 43 0 0 0 0 
Heartbeat_Variant_3 : 0 0 per_variant_size: 0 0 0 0 0 0 0 0 0 
Heartbeat_Variant_0_evicts 0 : 7279 1 : 671 2 : 1350 3 : 0 
Heartbeat_Variant_1_evicts 0 : 622 1 : 0 2 : 639 3 : 0 
Heartbeat_Variant_2_evicts 0 : 1394 1 : 590 2 : 0 3 : 0 
Heartbeat_Variant_3_evicts 0 : 0 1 : 0 2 : 0 3 : 0 
Heartbeat CPU 0 instructions: 20000000 cycles: 5592664 heartbeat IPC: 3.57693 cumulative IPC: 3.57611 (Simulation time: 0 hr 3 min 17 sec) 
Heartbeat_Variant_0 : 1390 0.169678 per_variant_size: 0 1390 0 0 0 0 0 0 0 
Heartbeat_Variant_1 : 1490 0.181885 per_variant_size: 0 982 508 0 0 0 0 0 0 
Heartbeat_Variant_2 : 1548 0.188965 per_variant_size: 0 789 487 228 44 0 0 0 0 
Heartbeat_Variant_3 : 0 0 per_variant_size: 0 0 0 0 0 0 0 0 0 
Heartbeat_Variant_0_evicts 0 : 7422 1 : 701 2 : 1380 3 : 0 
Heartbeat_Variant_1_evicts 0 : 658 1 : 0 2 : 673 3 : 0 
Heartbeat_Variant_2_evicts 0 : 1425 1 : 627 2 : 0 3 : 0 
Heartbeat_Variant_3_evicts 0 : 0 1 : 0 2 : 0 3 : 0 
Heartbeat CPU 0 instructions: 30000000 cycles: 8389122 heartbeat IPC: 3.57595 cumulative IPC: 3.57606 (Simulation time: 0 hr 4 min 54 sec) 
Heartbeat_Variant_0 : 1392 0.169922 per_variant_size: 0 1392 0 0 0 0 0 0 0 
Heartbeat_Variant_1 : 1491 0.182007 per_variant_size: 0 979 512 0 0 0 0 0 0 
Heartbeat_Variant_2 : 1545 0.188599 per_variant_size: 0 786 487 229 43 0 0 0 0 
Heartbeat_Variant_3 : 0 0 per_variant_size: 0 0 0 0 0 0 0 0 0 
Heartbeat_Variant_0_evicts 0 : 7376 1 : 682 2 : 1439 3 : 0 
Heartbeat_Variant_1_evicts 0 : 667 1 : 0 2 : 658 3 : 0 
Heartbeat_Variant_2_evicts 0 : 1452 1 : 642 2 : 0 3 : 0 
Heartbeat_Variant_3_evicts 0 : 0 1 : 0 2 : 0 3 : 0 
Heartbeat CPU 0 instructions: 40000000 cycles: 11186237 heartbeat IPC: 3.57511 cumulative IPC: 3.57582 (Simulation time: 0 hr 6 min 32 sec) 
Heartbeat_Variant_0 : 1384 0.168945 per_variant_size: 0 1384 0 0 0 0 0 0 0 
Heartbeat_Variant_1 : 1493 0.182251 per_variant_size: 0 980 513 0 0 0 0 0 0 
Heartbeat_Variant_2 : 1553 0.189575 per_variant_size: 0 791 490 228 44 0 0 0 0 
Heartbeat_Variant_3 : 0 0 per_variant_size: 0 0 0 0 0 0 0 0 0 
Heartbeat_Variant_0_evicts 0 : 7577 1 : 722 2 : 1481 3 : 0 
Heartbeat_Variant_1_evicts 0 : 693 1 : 0 2 : 719 3 : 0 
Heartbeat_Variant_2_evicts 0 : 1518 1 : 689 2 : 0 3 : 0 
Heartbeat_Variant_3_evicts 0 : 0 1 : 0 2 : 0 3 : 0 
Heartbeat CPU 0 instructions: 50000000 cycles: 13982894 heartbeat IPC: 3.5757 cumulative IPC: 3.5758 (Simulation time: 0 hr 8 min 11 sec) 

Warmup complete CPU 0 instructions: 50000004 cycles: 13982895 (Simulation time: 0 hr 8 min 11 sec) 

Cycle: 20000000 FTQ IN: 58060081 FTQ occupancy: 19.1861 DECODE IN: 58059977 DECODE occupancy: 49.5627 ROB IN: 58059917 ROB occupancy: 302.199 ROB OUT: 58059565
Heartbeat_Variant_0 : 1395 0.170288 per_variant_size: 0 1395 0 0 0 0 0 0 0 
Heartbeat_Variant_1 : 1514 0.184814 per_variant_size: 0 995 519 0 0 0 0 0 0 
Heartbeat_Variant_2 : 1562 0.190674 per_variant_size: 0 799 491 229 43 0 0 0 0 
Heartbeat_Variant_3 : 0 0 per_variant_size: 0 0 0 0 0 0 0 0 0 
Heartbeat_Variant_0_evicts 0 : 7537 1 : 714 2 : 1496 3 : 0 
Heartbeat_Variant_1_evicts 0 : 733 1 : 0 2 : 683 3 : 0 
Heartbeat_Variant_2_evicts 0 : 1473 1 : 699 2 : 0 3 : 0 
Heartbeat_Variant_3_evicts 0 : 0 1 : 0 2 : 0 3 : 0 
Heartbeat CPU 0 instructions: 60000001 cycles: 21442293 heartbeat IPC: 1.34059 cumulative IPC: 1.34059 (Simulation time: 0 hr 9 min 49 sec) 
Heartbeat_Variant_0 : 1400 0.170898 per_variant_size: 0 1400 0 0 0 0 0 0 0 
Heartbeat_Variant_1 : 1512 0.18457 per_variant_size: 0 997 515 0 0 0 0 0 0 
Heartbeat_Variant_2 : 1559 0.190308 per_variant_size: 0 798 489 229 43 0 0 0 0 
Heartbeat_Variant_3 : 0 0 per_variant_size: 0 0 0 0 0 0 0 0 0 
Heartbeat_Variant_0_evicts 0 : 7416 1 : 698 2 : 1515 3 : 0 
Heartbeat_Variant_1_evicts 0 : 726 1 : 0 2 : 653 3 : 0 
Heartbeat_Variant_2_evicts 0 : 1482 1 : 683 2 : 0 3 : 0 
Heartbeat_Variant_3_evicts 0 : 0 1 : 0 2 : 0 3 : 0 
Heartbeat CPU 0 instructions: 70000003 cycles: 28978118 heartbeat IPC: 1.327 cumulative IPC: 1.33376 (Simulation time: 0 hr 11 min 28 sec) 
Cycle: 30000000 FTQ IN: 13310556 FTQ occupancy: 10.5449 DECODE IN: 13310592 DECODE occupancy: 25.6319 ROB IN: 13310592 ROB occupancy: 196.457 ROB OUT: 13310921
Heartbeat_Variant_0 : 1399 0.170776 per_variant_size: 0 1399 0 0 0 0 0 0 0 
Heartbeat_Variant_1 : 1517 0.185181 per_variant_size: 0 1002 515 0 0 0 0 0 0 
Heartbeat_Variant_2 : 1558 0.190186 per_variant_size: 0 797 489 229 43 0 0 0 0 
Heartbeat_Variant_3 : 0 0 per_variant_size: 0 0 0 0 0 0 0 0 0 
Heartbeat_Variant_0_evicts 0 : 7462 1 : 699 2 : 1496 3 : 0 
Heartbeat_Variant_1_evicts 0 : 733 1 : 0 2 : 654 3 : 0 
Heartbeat_Variant_2_evicts 0 : 1463 1 : 685 2 : 0 3 : 0 
Heartbeat_Variant_3_evicts 0 : 0 1 : 0 2 : 0 3 : 0 
Heartbeat CPU 0 instructions: 80000000 cycles: 36433820 heartbeat IPC: 1.34125 cumulative IPC: 1.33625 (Simulation time: 0 hr 13 min 7 sec) 
Cycle: 40000000 FTQ IN: 13446810 FTQ occupancy: 10.5131 DECODE IN: 13446722 DECODE occupancy: 25.839 ROB IN: 13446722 ROB occupancy: 198.789 ROB OUT: 13446394
Heartbeat_Variant_0 : 1430 0.174561 per_variant_size: 0 1430 0 0 0 0 0 0 0 
Heartbeat_Variant_1 : 1537 0.187622 per_variant_size: 0 1000 537 0 0 0 0 0 0 
Heartbeat_Variant_2 : 1576 0.192383 per_variant_size: 0 792 500 232 52 0 0 0 0 
Heartbeat_Variant_3 : 0 0 per_variant_size: 0 0 0 0 0 0 0 0 0 
Heartbeat_Variant_0_evicts 0 : 7475 1 : 697 2 : 1506 3 : 0 
Heartbeat_Variant_1_evicts 0 : 729 1 : 0 2 : 645 3 : 0 
Heartbeat_Variant_2_evicts 0 : 1474 1 : 668 2 : 0 3 : 0 
Heartbeat_Variant_3_evicts 0 : 0 1 : 0 2 : 0 3 : 0 
Heartbeat CPU 0 instructions: 90000000 cycles: 43984866 heartbeat IPC: 1.32432 cumulative IPC: 1.33325 (Simulation time: 0 hr 14 min 42 sec) 
Cycle: 50000000 FTQ IN: 13273607 FTQ occupancy: 10.6184 DECODE IN: 13273673 DECODE occupancy: 26.0061 ROB IN: 13273733 ROB occupancy: 199.738 ROB OUT: 13274045
Heartbeat_Variant_0 : 1443 0.176147 per_variant_size: 0 1443 0 0 0 0 0 0 0 
Heartbeat_Variant_1 : 1573 0.192017 per_variant_size: 0 1012 561 0 0 0 0 0 0 
Heartbeat_Variant_2 : 1583 0.193237 per_variant_size: 0 794 501 236 52 0 0 0 0 
Heartbeat_Variant_3 : 0 0 per_variant_size: 0 0 0 0 0 0 0 0 0 
Heartbeat_Variant_0_evicts 0 : 7303 1 : 675 2 : 1416 3 : 0 
Heartbeat_Variant_1_evicts 0 : 719 1 : 0 2 : 575 3 : 0 
Heartbeat_Variant_2_evicts 0 : 1371 1 : 610 2 : 0 3 : 0 
Heartbeat_Variant_3_evicts 0 : 0 1 : 0 2 : 0 3 : 0 
Heartbeat CPU 0 instructions: 100000003 cycles: 51453096 heartbeat IPC: 1.33901 cumulative IPC: 1.33439 (Simulation time: 0 hr 16 min 29 sec) 
Finished CPU 0 instructions: 50000003 cycles: 37470202 cumulative IPC: 1.33439 (Simulation time: 0 hr 16 min 29 sec) 

ChampSim completed all CPUs

Region of Interest Statistics

CPU 0 cumulative IPC: 1.33439 instructions: 50000003 cycles: 37470202
 Fetch stage stalled: 60.8582  Sim cycles: 37470202 fetch stall cycle: 22803701
 Empty decode stage: 47.6597  Sim cycles: 37470202 fetch stall cycle: 17858197
ITLB TOTAL     ACCESS:    5807957  HIT:    5314582  MISS:     493375  HIT %:    91.5052  MISS %:    8.49481   MPKI: 9.8675
ITLB LOAD TRANSLATION INSTRUCTION	ACCESS:    5689569  HIT:    5196194  MISS:     493375  HIT %:    91.3284  MISS %:    8.67157  MPKI: 9.8675
ITLB TRANSLATION FROM L1D PREFETCHER INSTRUCTION	ACCESS:     118388  HIT:     118388  MISS:          0  HIT %:        100  MISS %:          0  MPKI: 0

ITLB AVERAGE MISS LATENCY: 9.05341 cycles
ITLB RQ	ACCESS:    7886037	FORWARD:          0	MERGED:    1629033	TO_CACHE:    6257004

DTLB TOTAL     ACCESS:    9031584  HIT:    8560448  MISS:     471136  HIT %:    94.7835  MISS %:    5.21654   MPKI: 9.42272
DTLB LOAD TRANSLATION DATA	ACCESS:    9031584  HIT:    8560448  MISS:     471136  HIT %:    94.7835  MISS %:    5.21654  MPKI: 9.42272

DTLB AVERAGE MISS LATENCY: 9.31947 cycles
DTLB RQ	ACCESS:   13392447	FORWARD:          0	MERGED:    4322989	TO_CACHE:    9069458

STLB TOTAL     ACCESS:    1213890  HIT:    1211812  MISS:       2078  HIT %:    99.8288  MISS %:   0.171185   MPKI: 0.04156
STLB LOAD TRANSLATION INSTRUCTION	ACCESS:     493375  HIT:     493108  MISS:        267  HIT %:    99.9459  MISS %:  0.0541171  MPKI: 0.00534
STLB LOAD TRANSLATION DATA	ACCESS:     470902  HIT:     469115  MISS:       1787  HIT %:    99.6205  MISS %:   0.379484  MPKI: 0.03574
STLB TRANSLATION FROM L1D PREFETCHER DATA	ACCESS:     249613  HIT:     249589  MISS:         24  HIT %:    99.9904  MISS %: 0.00961488  MPKI: 0.00048

STLB AVERAGE MISS LATENCY: 71.1535 cycles
STLB RQ	ACCESS:    1335243	FORWARD:          0	MERGED:     121314	TO_CACHE:    1213929

STLB Hit, L1D data hit: 0
STLB Hit, L2C data hit: 0
STLB Hit, LLC data hit: 0
STLB Hit, LLC data miss: 0
STLB STLB hints to L2: 0
L1D TOTAL     ACCESS:   13147329  HIT:   12034455  MISS:    1112874  HIT %:    91.5354  MISS %:    8.46464   MPKI: 22.2575
L1D LOAD DATA	ACCESS:    6607098  HIT:    5874546  MISS:     732552  HIT %:    88.9127  MISS %:    11.0873  MPKI: 14.651
L1D RFO DATA	ACCESS:    6209755  HIT:    5924714  MISS:     285041  HIT %:    95.4098  MISS %:    4.59021  MPKI: 5.70082
L1D PREFETCH DATA	ACCESS:     330476  HIT:     235195  MISS:      95281  HIT %:    71.1686  MISS %:    28.8314  MPKI: 1.90562

L1D PREFETCH  REQUESTED:     741777  ISSUED:     741777  USEFUL:      33803  USELESS:      68736
L1D USEFUL LOAD PREFETCHES:      33803 PREFETCH ISSUED TO LOWER LEVEL:     102577  ACCURACY: 32.9538
 TIMELY PREFETCHES:      33803 LATE PREFETCHES: 7261 DROPPED PREFETCHES: 9
L1D AVERAGE MISS LATENCY: 218407 cycles
L1D RQ	ACCESS:   10725673	FORWARD:          0	MERGED:    3920623	TO_CACHE:    6641904
L1D WQ	ACCESS:    6943953	FORWARD:     163459	MERGED:     193410	TO_CACHE:    6750543
L1D PQ	ACCESS:     371045	FORWARD:          0	MERGED:          0	TO_CACHE:     370732

L1D UNIQUE REGIONS ACCESSED: 0
L1D REGIONS CONFLICTS: 0
L1D Cross Page Prefetch Requests: 6960
L1D Same Page Prefetch Requests: 752400
L1D ROI Sum of L1D PQ occupancy: 4706914
L1D PREFETCHES PUSHED FROM L2C: 0
L1I TOTAL     ACCESS:    7114743  HIT:    4354993  MISS:    2759750  HIT %:    61.2108  MISS %:    38.7892   MPKI: 55.195
L1I LOAD INSTRUCTION	ACCESS:    6488991  HIT:    3729241  MISS:    2759750  HIT %:    57.4703  MISS %:    42.5297  MPKI: 55.195
L1I PREFETCH INSTRUCTION	ACCESS:     625752  HIT:     625752  MISS:          0  HIT %:        100  MISS %:          0  MPKI: 0

L1I PREFETCH  REQUESTED:    1478764  ISSUED:    1478764  USEFUL:          0  USELESS:          0
L1I USEFUL LOAD PREFETCHES:          0 PREFETCH ISSUED TO LOWER LEVEL:          0  ACCURACY: -nan
 TIMELY PREFETCHES:          0 LATE PREFETCHES: 0 DROPPED PREFETCHES: 0
L1I AVERAGE MISS LATENCY: 17.8255 cycles
L1I RQ	ACCESS:    9479864	FORWARD:          0	MERGED:    2673603	TO_CACHE:    6806261
L1I PQ	ACCESS:    1478764	FORWARD:          0	MERGED:     398988	TO_CACHE:    1079776

L1BTB TOTAL     ACCESS:    5673037  HIT:    2048311  MISS:    3624726  HIT %:    36.1061  MISS %:    63.8939   MPKI: 72.4945
L1BTB BRANCH_DIRECT_JUMP	ACCESS:     549120  HIT:     145125  MISS:     403995	AVERAGE STALL: 46.7896
L1BTB BRANCH_INDIRECT	ACCESS:     183529  HIT:      66299  MISS:     117230	AVERAGE STALL: 95.6732
L1BTB BRANCH_CONDITIONAL	ACCESS:    2715290  HIT:    1423216  MISS:    1292074	AVERAGE STALL: 49.7112
L1BTB BRANCH_DIRECT_CALL	ACCESS:     941489  HIT:     104384  MISS:     837105	AVERAGE STALL: 50.6739
L1BTB BRANCH_INDIRECT_CALL	ACCESS:     171058  HIT:      20730  MISS:     150328	AVERAGE STALL: 121.808
L1BTB BRANCH_RETURN	ACCESS:    1112551  HIT:     288557  MISS:     823994	AVERAGE STALL: 44.5044
L1BTB BRANCH_OTHER ACCESS:          0  HIT:          0  MISS:          0	AVERAGE STALL: -nan
L1BTB TOTAL ROB OCCUPANCY AT BTB MISS: 6.55257

L2BTB TOTAL     ACCESS:    3599210  HIT:    3448429  MISS:     150781  HIT %:    95.8107  MISS %:    4.18928   MPKI: 3.01562
L2BTB BRANCH_DIRECT_JUMP	ACCESS:     399793  HIT:     385068  MISS:      14725	AVERAGE STALL: 46.7896
L2BTB BRANCH_INDIRECT	ACCESS:     106913  HIT:     103738  MISS:       3175	AVERAGE STALL: 95.6732
L2BTB BRANCH_CONDITIONAL	ACCESS:    1292074  HIT:    1237608  MISS:      54466	AVERAGE STALL: 49.7112
L2BTB BRANCH_DIRECT_CALL	ACCESS:     837105  HIT:     816581  MISS:      20524	AVERAGE STALL: 50.6739
L2BTB BRANCH_INDIRECT_CALL	ACCESS:     140736  HIT:     128561  MISS:      12175	AVERAGE STALL: 121.808
L2BTB BRANCH_RETURN	ACCESS:     822589  HIT:     776873  MISS:      45716	AVERAGE STALL: 44.5044
L2BTB BRANCH_OTHER ACCESS:          0  HIT:          0  MISS:          0	AVERAGE STALL: -nan
L2BTB TOTAL ROB OCCUPANCY AT BTB MISS: 157.522

L2C TOTAL     ACCESS:    4484669  HIT:    3925058  MISS:     559611  HIT %:    87.5217  MISS %:    12.4783   MPKI: 11.1922
L2C LOAD INSTRUCTION	ACCESS:    2759750  HIT:    2443921  MISS:     315829  HIT %:    88.5559  MISS %:    11.4441  MPKI: 6.31658
L2C LOAD TRANSLATION INSTRUCTION	ACCESS:        296  HIT:         60  MISS:        236  HIT %:    20.2703  MISS %:    79.7297  MPKI: 0.00472
L2C LOAD DATA	ACCESS:     725271  HIT:     637711  MISS:      87560  HIT %:    87.9273  MISS %:    12.0727  MPKI: 1.7512
L2C RFO DATA	ACCESS:     284971  HIT:     227394  MISS:      57577  HIT %:    79.7955  MISS %:    20.2045  MPKI: 1.15154
L2C PREFETCH DATA	ACCESS:     192865  HIT:     116333  MISS:      76532  HIT %:    60.3184  MISS %:    39.6816  MPKI: 1.53064
L2C WRITEBACK DATA	ACCESS:     519599  HIT:     498979  MISS:      20620  HIT %:    96.0316  MISS %:    3.96844  MPKI: 0.4124
L2C LOAD TRANSLATION DATA	ACCESS:       1869  HIT:        629  MISS:       1240  HIT %:    33.6544  MISS %:    66.3456  MPKI: 0.0248
L2C TRANSLATION FROM L1D PREFETCHER DATA	ACCESS:         48  HIT:         31  MISS:         17  HIT %:    64.5833  MISS %:    35.4167  MPKI: 0.00034

L2C PREFETCH  REQUESTED:      99538  ISSUED:      99538  USEFUL:       9552  USELESS:      67669
L2C USEFUL LOAD PREFETCHES:       9552 PREFETCH ISSUED TO LOWER LEVEL:      77217  ACCURACY: 12.3703
 TIMELY PREFETCHES:       9552 LATE PREFETCHES: 685 DROPPED PREFETCHES: 0
L2C AVERAGE MISS LATENCY: 36.758 cycles
L2C RQ	ACCESS:    3772259	FORWARD:          0	MERGED:          0	TO_CACHE:    3772205
L2C WQ	ACCESS:     519599	FORWARD:         54	MERGED:          0	TO_CACHE:     519599
L2C PQ	ACCESS:     202115	FORWARD:          0	MERGED:       3282	TO_CACHE:     198833

L2C Dense regions hint from L2: 0
PSCL5 TOTAL     ACCESS:       4178  HIT:       2089  MISS:       2089  HIT %:         50  MISS %:         50   MPKI: 0.04178
PSCL5 LOAD TRANSLATION INSTRUCTION	ACCESS:       4084  HIT:       2042  MISS:       2042  HIT %:         50  MISS %:         50  MPKI: 0.04084
PSCL5 TRANSLATION FROM L1D PREFETCHER INSTRUCTION	ACCESS:         94  HIT:         47  MISS:         47  HIT %:         50  MISS %:         50  MPKI: 0.00094


PSCL4 TOTAL     ACCESS:       3942  HIT:       1966  MISS:       1976  HIT %:    49.8732  MISS %:    50.1268   MPKI: 0.03952
PSCL4 LOAD TRANSLATION INSTRUCTION	ACCESS:       2101  HIT:       1920  MISS:        181  HIT %:    91.3851  MISS %:    8.61495  MPKI: 0.00362
PSCL4 TRANSLATION FROM L1D PREFETCHER INSTRUCTION	ACCESS:         48  HIT:         46  MISS:          2  HIT %:    95.8333  MISS %:    4.16667  MPKI: 4e-05
PSCL4 LOAD TRANSLATION DATA	ACCESS:       1749  HIT:          0  MISS:       1749  HIT %:          0  MISS %:        100  MPKI: 0.03498
PSCL4 TRANSLATION FROM L1D PREFETCHER DATA	ACCESS:         44  HIT:          0  MISS:         44  HIT %:          0  MISS %:        100  MPKI: 0.00088


PSCL3 TOTAL     ACCESS:       3946  HIT:       1968  MISS:       1978  HIT %:    49.8733  MISS %:    50.1267   MPKI: 0.03956
PSCL3 LOAD TRANSLATION INSTRUCTION	ACCESS:       2103  HIT:       1922  MISS:        181  HIT %:    91.3932  MISS %:    8.60675  MPKI: 0.00362
PSCL3 TRANSLATION FROM L1D PREFETCHER INSTRUCTION	ACCESS:         48  HIT:         46  MISS:          2  HIT %:    95.8333  MISS %:    4.16667  MPKI: 4e-05
PSCL3 LOAD TRANSLATION DATA	ACCESS:       1751  HIT:          0  MISS:       1751  HIT %:          0  MISS %:        100  MPKI: 0.03502
PSCL3 TRANSLATION FROM L1D PREFETCHER DATA	ACCESS:         44  HIT:          0  MISS:         44  HIT %:          0  MISS %:        100  MPKI: 0.00088


PSCL2 TOTAL     ACCESS:       4072  HIT:       1983  MISS:       2089  HIT %:    48.6984  MISS %:    51.3016   MPKI: 0.04178
PSCL2 LOAD TRANSLATION INSTRUCTION	ACCESS:       2204  HIT:       1937  MISS:        267  HIT %:    87.8857  MISS %:    12.1143  MPKI: 0.00534
PSCL2 TRANSLATION FROM L1D PREFETCHER INSTRUCTION	ACCESS:         46  HIT:         46  MISS:          0  HIT %:        100  MISS %:          0  MPKI: 0
PSCL2 LOAD TRANSLATION DATA	ACCESS:       1776  HIT:          0  MISS:       1776  HIT %:          0  MISS %:        100  MPKI: 0.03552
PSCL2 TRANSLATION FROM L1D PREFETCHER DATA	ACCESS:         46  HIT:          0  MISS:         46  HIT %:          0  MISS %:        100  MPKI: 0.00092


LLC TOTAL     ACCESS:     626349  HIT:     598448  MISS:      27901  HIT %:    95.5455  MISS %:    4.45455   MPKI: 0.55802
LLC LOAD INSTRUCTION	ACCESS:     315829  HIT:     314888  MISS:        941  HIT %:    99.7021  MISS %:   0.297946  MPKI: 0.01882
LLC LOAD TRANSLATION INSTRUCTION	ACCESS:        236  HIT:        203  MISS:         33  HIT %:    86.0169  MISS %:    13.9831  MPKI: 0.00066
LLC LOAD DATA	ACCESS:      86958  HIT:      83467  MISS:       3491  HIT %:    95.9854  MISS %:    4.01458  MPKI: 0.06982
LLC RFO DATA	ACCESS:      57457  HIT:      44185  MISS:      13272  HIT %:     76.901  MISS %:     23.099  MPKI: 0.26544
LLC PREFETCH DATA	ACCESS:      77214  HIT:      67452  MISS:       9762  HIT %:    87.3572  MISS %:    12.6428  MPKI: 0.19524
LLC WRITEBACK DATA	ACCESS:      87398  HIT:      87085  MISS:        313  HIT %:    99.6419  MISS %:   0.358132  MPKI: 0.00626
LLC LOAD TRANSLATION DATA	ACCESS:       1240  HIT:       1151  MISS:         89  HIT %:    92.8226  MISS %:    7.17742  MPKI: 0.00178
LLC TRANSLATION FROM L1D PREFETCHER DATA	ACCESS:         17  HIT:         17  MISS:          0  HIT %:        100  MISS %:          0  MPKI: 0

LLC AVERAGE MISS LATENCY: 156.592 cycles
LLC RQ	ACCESS:     461774	FORWARD:          0	MERGED:          0	TO_CACHE:     461737
LLC WQ	ACCESS:      87398	FORWARD:         40	MERGED:          0	TO_CACHE:      87398
LLC PQ	ACCESS:      77217	FORWARD:          0	MERGED:          0	TO_CACHE:      77214

LLC Dense regions hint to LLC: 0

RAW hits: 1909531
Loads Generated: 12635204
Loads sent to L1D: 10725673
Stores Generated: 6943942
Stores sent to L1D: 6943953
Major fault: 0 Minor fault: 2570
Allocated PAGES: 2570

stream: 
stream:times selected: 1193925
stream:pref_filled: 123238
stream:pref_useful: 24174
stream:pref_late: 6844
stream:misses: 8102
stream:misses_by_poll: 0

CS: 
CS:times selected: 178568
CS:pref_filled: 60995
CS:pref_useful: 37699
CS:pref_late: 6382
CS:misses: 15221
CS:misses_by_poll: 7

CPLX: 
CPLX:times selected: 1014052
CPLX:pref_filled: 19775
CPLX:pref_useful: 4566
CPLX:pref_late: 3174
CPLX:misses: 92554
CPLX:misses_by_poll: 4

NL_L1: 
NL:times selected: 21584
NL:pref_filled: 671
NL:pref_useful: 303
NL:pref_late: 335
NL:misses: 1809
NL:misses_by_poll: 0

total selections: 2408129
total_filled: 95281
total_useful: 33803
total_late: 17906
total_polluted: 11
total_misses_after_warmup: 767359
conflicts: 5537845

test: 118603

DRAM Statistics
 CHANNEL 0
 RQ ROW_BUFFER_HIT:       9903  ROW_BUFFER_MISS:      17679
 DBUS_CONGESTED:         13
 WQ ROW_BUFFER_HIT:       1447  ROW_BUFFER_MISS:      12505  FULL:          0

 AVG_CONGESTED_CYCLE: 3

CPU 0 Branch Prediction Accuracy: 99.8127% MPKI: 0.34248 Average ROB Occupancy at Mispredict: 164.847
Branch types
NOT_BRANCH: 40854756 81.7095%
BRANCH_DIRECT_JUMP: 549120 1.09824%
BRANCH_INDIRECT: 183529 0.367058%
BRANCH_CONDITIONAL: 6186993 12.374%
BRANCH_DIRECT_CALL: 941489 1.88298%
BRANCH_INDIRECT_CALL: 171058 0.342116%
BRANCH_RETURN: 1112551 2.2251%
BRANCH_OTHER: 0 0%

DRAM PAGES: 1048576
Allocated PAGES: 2570
Average_ROB_Occupancy: 198.669
Average_Decode_Occupancy: 25.675
Average_FTQ_Occupancy: 10.5044
Indirect max targets: 14 Average targets: 1.16054
Branch_type:  BRANCH_DIRECT_JUMP:  Count Percentage: 3.67714 5.37838 4.25626 8.92568 5.66069 3.12611 1.70654 67.2692 
Branch_type:  BRANCH_INDIRECT:  Count Percentage: 11.7384 3.47967 2.59012 3.7202 3.33814 2.80501 1.99481 70.3336 
Branch_type:  BRANCH_CONDITIONAL:  Count Percentage: 21.7072 2.46025 1.9316 4.05815 2.97081 6.20143 0.904932 59.7656 
Branch_type:  BRANCH_DIRECT_CALL:  Count Percentage: 0.390629 1.74031 0.752653 3.8897 3.52927 2.36212 0.609896 86.7254 
Branch_type:  BRANCH_INDIRECT_CALL:  Count Percentage: 9.56145 0 2.99768 4.27258 0.000292542 2.04282 1.00137 80.1238 
Branch_type:  BRANCH_RETURN:  Count Percentage: 3.9125 1.99007 1.04197 3.16921 4.59426 6.99059 1.23621 77.0652 
Branch_type:  BRANCH_DIRECT_JUMP:  Total Count: 40300 58945 46647 97822 62039 34261 18703 737244 
Branch_type:  BRANCH_INDIRECT:  Total Count: 43045 12760 9498 13642 12241 10286 7315 257914 
Branch_type:  BRANCH_CONDITIONAL:  Total Count: 2683836 304180 238819 501741 367305 766732 111884 7389299 
Branch_type:  BRANCH_DIRECT_CALL:  Total Count: 7347 32732 14156 73158 66379 44427 11471 1631143 
Branch_type:  BRANCH_INDIRECT_CALL:  Total Count: 32684 0 10247 14605 1 6983 3423 273888 
Branch_type:  BRANCH_RETURN:  Total Count: 86994 44249 23168 70467 102153 155435 27487 1713537 
Number of unique branch instructions: 10261
Upper 32 bits: 
aaaa
ffff
ffff0000
Unique upper 32 bits: 3
Unique upper 36 bits: 3
Unique upper 40 bits: 5
Unique upper 44 bits: 32
Unique upper 48 bits: 154
Variant_0 : 1443 0.176147
Variant_1 : 1573 0.192017
Variant_2 : 1583 0.193237
Variant_3 : 0 0
Offset_3 4234
Offset_4 256
Offset_5 477
Offset_6 526
Offset_7 610
Offset_8 531
Offset_9 493
Offset_10 400
Offset_11 331
Offset_12 293
Offset_13 217
Offset_14 236
Offset_15 192
Offset_16 232
Offset_17 152
Offset_18 127
Offset_19 243
Offset_20 142
Offset_21 249
Offset_22 406
Offset_23 242
Offset_24 350
Offset_25 96
Offset_47 85
Offset_64 1
decode_dispatch_called: 22804222 60.8596
Dispatch_width: 0 12116201 53.1314 32.3356
Dispatch_width: 1 694281 3.04453 1.85289
Dispatch_width: 2 672844 2.95052 1.79568
Dispatch_width: 3 423651 1.85777 1.13063
Dispatch_width: 4 3235573 14.1885 8.63506
Dispatch_width: 5 223569 0.980384 0.596658
Dispatch_width: 6 5438103 23.8469 14.5131
Empty_decode_cycles: 14665980 39.1404
ROB_full_cycles: 5214517 13.9164
Starvation_cycles_per_kilo_instr: 268.176
Starvation_cycles_per_kilo_instr_3: 233.584
Starvation_cycles_per_kilo_instr_0: 215.677
Branch_type_1  (3,1)  (4,9)  (5,38)  (6,73)  (7,121)  (8,134)  (9,130)  (10,102)  (11,77)  (12,51)  (13,9)  (14,2)  (15,3)  (16,4)  (18,1)  (19,4)  (20,2)  (21,1)  (22,3)  (23,2)  (24,10)  (25,13)  (64,1) 
Branch_type_2  (3,1)  (5,1)  (8,3)  (9,3)  (12,1)  (13,1)  (14,1)  (16,3)  (17,2)  (20,2)  (21,2)  (23,5)  (24,1)  (47,39) 
Branch_type_3  (3,4232)  (4,247)  (5,434)  (6,437)  (7,459)  (8,331)  (9,273)  (10,162)  (11,138)  (12,58)  (13,8)  (24,1) 
Branch_type_4  (6,3)  (7,8)  (8,25)  (9,53)  (10,64)  (11,60)  (12,100)  (13,92)  (14,105)  (15,91)  (16,104)  (17,67)  (18,59)  (19,120)  (20,74)  (21,135)  (22,217)  (23,137)  (24,204)  (25,79) 
Branch_type_5  (8,2)  (9,1)  (10,4)  (11,5)  (12,3)  (13,14)  (14,16)  (15,11)  (16,20)  (17,13)  (18,16)  (19,12)  (20,11)  (21,13)  (22,42)  (23,26)  (24,37) 
Branch_type_6  (5,4)  (6,13)  (7,22)  (8,36)  (9,33)  (10,68)  (11,51)  (12,80)  (13,93)  (14,112)  (15,87)  (16,101)  (17,70)  (18,51)  (19,107)  (20,53)  (21,98)  (22,144)  (23,72)  (24,97)  (25,4)  (47,46) 
Unique trigger count: 
Variant_0_evicts_0 : 0
Variant_0_evicts_1 : 0
Variant_0_evicts_2 : 0
Variant_0_evicts_3 : 0
Variant_1_evicts_0 : 0
Variant_1_evicts_1 : 0
Variant_1_evicts_2 : 0
Variant_1_evicts_3 : 0
Variant_2_evicts_0 : 0
Variant_2_evicts_1 : 0
Variant_2_evicts_2 : 0
Variant_2_evicts_3 : 0
Variant_3_evicts_0 : 0
Variant_3_evicts_1 : 0
Variant_3_evicts_2 : 0
Variant_3_evicts_3 : 0
BTB PER SET UNIQUE ADDR: 3 4 3 2 1 0 3 2 4 0 2 0 5 4 1 3 3 2 5 4 3 4 3 3 4 5 2 4 3 3 6 6 4 3 4 2 1 6 6 3 4 4 3 7 6 2 4 3 6 3 3 2 4 1 0 4 4 3 3 3 1 4 2 3 1 4 6 2 3 5 5 1 1 4 2 3 3 7 2 3 2 2 1 4 3 3 2 5 3 4 6 4 4 6 3 0 3 5 1 3 4 3 3 3 4 2 1 2 4 2 2 3 3 7 2 6 2 5 4 1 5 4 2 0 1 2 3 1 6 6 5 2 4 2 5 3 2 1 4 3 4 3 3 2 1 4 2 5 3 4 3 9 4 5 3 1 3 4 3 2 4 5 3 4 5 4 2 2 8 1 3 2 4 2 1 2 3 5 5 2 3 4 6 3 4 6 3 1 2 3 6 2 3 4 5 4 3 3 2 6 3 2 4 1 3 3 2 4 2 1 4 3 5 4 3 2 3 5 4 0 1 1 2 4 3 2 3 3 0 3 7 3 3 3 3 3 3 2 1 2 1 0 6 3 9 7 1 1 4 3 3 2 1 4 3 6 3 4 4 3 4 4 4 2 3 6 3 1 4 2 3 2 3 3 4 2 1 1 2 3 4 2 6 2 5 5 3 3 1 1 0 3 1 5 1 1 5 3 2 2 3 3 1 2 3 2 4 2 6 5 3 1 3 2 5 2 6 6 2 2 3 7 3 5 2 2 1 6 1 1 4 1 2 4 5 2 2 3 5 0 4 0 1 4 4 2 1 3 3 3 3 6 4 3 5 3 2 0 4 1 2 5 2 4 6 5 1 1 2 1 3 2 2 4 4 4 3 3 3 4 5 3 1 5 3 2 5 2 5 2 5 4 4 2 3 1 5 0 1 4 5 2 4 2 3 4 4 3 1 1 1 3 5 3 2 3 6 3 1 3 1 1 3 4 3 3 2 0 2 4 2 2 9 3 5 4 3 3 3 0 1 4 5 4 4 6 2 4 3 2 5 3 1 3 5 1 1 4 7 2 3 3 5 6 1 3 4 2 2 3 0 4 5 2 2 1 4 5 1 1 2 1 2 2 0 5 3 0 5 1 4 2 3 4 1 6 3 3 3 1 5 1 1 1 2 2 3 2 2 3 4 2 2 6 2 1 2 5 4 5 3 5 4 2 6 6 0 6 6 3 5 3 3 6 3 4 1 2 4 1 2 5 7 2 5 2 7 3 6 9 3 6 4 6 1 3 3 1 3 3 8 2 5 2 2 1 4 2 2 8 4 3 4 8 3 2 3 3 1 5 4 2 1 0 1 0 0 9 5 3 5 7 1 1 2 3 4 3 4 2 5 3 4 7 4 4 4 4 3 2 5 2 3 3 2 2 2 0 3 1 5 4 6 2 2 3 2 5 2 3 5 4 4 2 4 2 2 3 2 2 8 1 4 4 0 0 4 3 3 5 4 2 5 2 3 1 3 3 2 3 5 3 5 4 6 4 5 4 1 4 5 3 5 3 5 6 3 4 4 2 4 2 5 2 5 3 5 4 5 3 1 5 2 2 2 3 6 4 5 4 0 6 0 3 3 2 3 1 3 1 3 4 3 1 2 1 7 2 0 3 2 0 1 1 1 1 1 4 2 4 6 5 2 1 2 5 4 3 2 2 1 4 2 4 2 2 3 3 3 3 0 2 1 4 2 2 2 6 5 1 4 3 1 5 5 4 9 2 2 2 4 3 0 3 3 4 4 2 2 3 5 4 0 3 8 6 3 4 0 2 2 4 2 1 4 7 7 2 3 2 6 3 5 3 4 4 3 4 2 3 1 3 4 0 4 3 1 2 0 4 4 2 4 2 2 2 2 3 4 4 3 1 3 2 5 3 2 2 5 2 2 1 3 3 1 5 6 4 5 2 6 2 5 4 4 5 4 2 4 5 2 6 2 1 9 3 3 4 5 4 2 4 3 6 4 0 2 3 5 4 3 5 4 4 5 3 2 2 2 4 4 2 3 4 3 1 6 3 1 1 5 2 2 3 4 5 4 5 3 5 5 4 0 3 1 6 0 2 6 2 6 4 5 3 4 1 3 2 5 9 4 4 9 7 6 4 6 5 1 5 4 2 0 4 4 5 5 5 3 3 6 1 5 4 3 3 6 6 4 2 2 3 4 5 2 6 9 4 6 4 2 3 0 4 5 1 7 5 1 3 7 5 4 5 2 2 2 3 3 3 5 4 2 7 4 4 4 5 3 5 1 2 4 3 2 5 4 3 4 2 5 3 4 3 5 2 5 2 2 4 5 2 9 5 2 3 3 2 2 3 3 7 6 2 3 2 3 2 2 1 3 2 4 4 1 4 5 5 4 6 0 3 3 3 3 4 2 1 3 2 3 1 2 1 4 1 3 3 3 5 2 8 5 3 2 1 9 1 2 4 1 2 5 5 3 7 3 4 5 5 2 5 2 1 1 1 5 0 4 4 3 7 5 1 7 4 6 2 3 4 5 3 5 7 4 4 6 1 5 4 7 4 3 3 4 3 6 6 3 5 6 6 4 3 5 3 1 2 3 5 1 3 2 1 3 4 2 2 5 2 2 5 4 1 5 1 8 3 3 2 3 1 3 5 3 4 3 4 2 6 2 3 6 3 3 3 3 5 2 8 4 5 3 8 6 1 6 1 5 2 1 2 4 4 3 1 3 4 2 1 2 2 4 3 3 3 3 4 2 5 2 5 4 5 0 5 3 2 2 6 8 0 7 1 1 4 5 2 5 1 3 3 4 1 1 2 4 5 3 4 1 4 4 6 5 1 4 3 3 7 10 4 2 6 6 5 1 1 3 5 6 3 2 2 4 3 4 4 5 3 1 4 2 3 6 8 5 3 3 6 1 3 6 2 4 1 3 2 6 9 4 3 3 3 4 4 2 5 5 6 5 2 1 5 4 2 4 3 4 3 4 4 6 3 5 4 3 5 5 3 1 7 4 4 3 3 3 2 3 3 2 2 5 4 3 2 5 1 1 3 3 8 5 2 3 4 2 3 3 3 4 3 2 1 3 2 4 2 5 3 3 4 2 1 2 6 1 4 2 4 2 4 5 2 1 4 5 4 3 4 5 2 3 4 4 5 4 4 4 3 3 2 2 3 5 2 4 1 3 0 8 3 2 5 4 4 5 7 3 2 3 3 2 2 4 1 4 2 4 3 0 5 1 5 1 2 3 4 3 2 4 2 4 2 3 1 5 1 0 3 4 1 1 3 1 4 2 3 6 3 1 2 2 3 2 2 6 2 3 6 3 3 3 4 2 2 3 0 2 2 2 3 2 2 2 0 4 0 4 2 3 4 3 3 2 1 2 4 4 2 7 1 3 4 2 2 4 5 2 2 5 0 1 2 3 1 1 2 3 3 5 3 1 1 7 3 1 4 1 7 1 4 3 3 6 2 3 2 1 3 3 1 2 3 5 2 3 3 1 2 0 5 1 3 3 0 3 2 5 3 4 3 3 4 1 3 1 1 1 3 3 0 2 3 2 3 3 1 3 3 2 10 6 2 2 3 4 2 1 3 4 2 3 0 3 2 3 2 3 4 5 6 7 0 4 2 6 4 4 5 3 8 2 4 8 3 0 6 3 3 3 5 3 3 2 1 1 4 2 2 2 4 2 4 5 3 5 4 6 1 1 5 5 3 3 4 4 4 6 2 5 5 2 6 3 3 4 2 3 7 5 3 2 3 4 3 3 4 2 3 3 1 3 1 3 7 0 2 3 3 4 4 5 3 4 4 6 1 3 3 6 2 4 5 7 1 1 7 2 4 2 3 4 6 2 3 2 4 8 3 4 3 5 3 4 8 3 3 4 5 2 5 4 3 2 3 1 2 2 3 4 3 4 3 3 6 6 4 4 8 0 3 2 4 4 3 3 4 3 6 2 4 1 5 2 3 4 2 3 1 2 5 0 7 2 5 4 1 4 3 3 0 5 3 3 6 3 6 2 3 2 1 3 4 7 1 3 3 0 3 2 3 7 3 1 4 5 2 3 2 6 3 4 1 4 3 0 2 4 1 1 8 2 0 4 1 4 3 2 3 6 3 2 6 1 5 3 5 2 5 5 2 4 2 7 1 4 0 3 3 5 4 3 3 2 2 2 3 0 3 0 3 5 6 2 2 5 3 3 3 4 1 3 2 4 2 4 2 5 3 2 3 1 1 3 2 3 2 3 4 2 1 1 2 2 5 1 4 1 5 4 2 3 1 4 1 2 3 5 2 3 4 4 5 3 3 3 5 3 2 0 3 2 0 2 1 2 2 4 3 5 2 2 3 4 2 2 4 3 2 3 8 3 2 7 6 4 2 4 1 2 6 3 4 5 2 4 0 1 2 5 3 2 4 3 2 5 3 5 7 3 2 0 4 1 0 2 3 0 4 4 6 1 3 3 6 4 0 3 2 4 2 4 1 3 2 8 3 1 2 3 7 2 7 3 4 7 0 1 3 2 4 2 1 0 2 3 4 5 5 1 0 3 5 5 1 2 1 3 6 2 1 5 4 3 3 4 4 1 6 2 6 2 1 2 2 2 2 5 1 3 1 3 2 3 1 4 2 5 3 4 2 1 3 5 4 3 0 
BTB PER SET COUNT: 3 4 3 2 2 0 4 2 6 0 2 0 8 6 1 3 4 2 6 1466 3 5 3 3 4 6 2 4 1465 3 10 12 7 3 4 2 2930 8 11 5 4 5 3 1142 4853 2 4 4 7 3 3 2 4 1 0 5 5 3 3 3 1 6 2 3 1 388 637 2 3 5 841 1 1 4 2 4 504 689 2 3 2 3 4 5 3 6 2 6 3 5 12 466 4 7 3 0 3 5 1 3 7 3 8 3 4 2 1 3 6 3 4 4 4 12 2 8 2 5 4 1 5 5 2 0 1 2 3 1 9 12 1002 4 4 3 7 3 2 1 4 3 5 8 3 2 1 983 2 10 3 4 4 97 4 6 3 1 5 5 1002 2 4 7 1004 4 6 1930 2 4 3453 1 3 2 5 2 1 3 3 6 969 2 3 4 9 3 8 10 4 1 2 3 9 2 3 4 5 7 4 3 2 6 3 2 5 1 5 3 2 1469 2 1 4 4 5 4 6 2 4 9 4 0 1 1 2 4 4 2 5 17 0 3 1201 4 3 4 3 4 3 3 1 2 2 0 11 3 10 10 1 1 4 3 4 2 1 4 5 7 4 4 4 3 7 4 4 3 1466 8 5 1 6 2 3 2 3 3 5 3 1 1 4 3 7 1000 9 2 6 1504 3 3 1 1 0 1928 1 5 1 1 15 3 2 2 3 4 1 2 3 2 4 2 2008 6 3 1 4 2 5 3 6 9 2 2 4 8 3 6 2 3 1 10 1 1 1003 4 2 4 1930 4 1002 3 8 0 10 0 1 1004 1004 2 1 3 6 5 3 7 5 5 6 5 3 0 4 1 2 6 2 5 10 11 1 1 3 1 4 2 2 7 5 5 7 3 3 6 24 3 1 9 3 2 13 2 5 3 7 4 4 2 4 1 1469 0 1 4 7 2 4 2 3 4 1467 3 1 963 1 3 6 6 964 3 184 3 1 91 1 1 3 5 3 3 7 0 2 7 130 2 2736 3 8 4 4 3 3 0 2 5 8 4 5 32 2 5 3 2 6 3 1 3 5 1 1 4 1023 2 3 4 6 8 1 3 4 2 2 3 0 5 2956 501 2 1 6 5 1 1 3 1 2 500 0 11 3 0 5 1 4 2 4 5 1 10 4 4 9 1 5 8 1 1 2 2 3 2 2 3 4 2 2 7 4 1 3 5 4 1008 3 1467 6 2 8 8 0 6 9 3 5 3 3 9 4 1004 2 3 9 1 3 5 11 5 1007 2 8 4 8 320 5 13 7 7 1 3 7 1 3 4 17 1932 5 3 2 1 6 2 2 1029 4 3 4 2013 3 2 3 5 2 5 4 52 1 0 1 0 0 2332 5 3 8 17 1 1 964 3 4 3 6 2 9 3 6 12 4 7 4 4 5 2 5 2 5 3 2 3 931 0 4 1 6 503 9 3 2 3 2 9 2 3 504 1466 4 5 4 2 2 3 2 2 2026 1 4 4 0 0 5 3 3 5 4 2 7 2 5 1 4 3 2 4 7898 7 14 4 12 5 2933 1005 1 4 934 3 5 5 5 1008 3 6 7 2 5 4 6 1002 7 4 5 1466 8 3 1 1006 2 4 2 3 6 6 17 46 0 6 0 3 3 1002 4 1 3 1 3 6 6 1 1002 1 1481 2 0 4 2 0 1 1 1 1 1 997 2 4 1929 6 964 1 2 8 4 4 2 2 1 4 3 5 2 3 503 3 3 1003 0 3 1 6 2 2 2 6 6 1 6 3 1 5 5 4 25 2 5 2 6 25 0 114 5 4 8 4 2 3 5 16 0 1931 774 10 3 4 0 2 2 1383 3 1 5 8 1156 2 5 2 6 4 5 1004 2004 5 4 6 4 7 1 3 4 0 5 6 2 2 0 5 8 2 4 2 2 2 2 4 6 53 3 1 3 2 6 1003 2 3 5 2 2 1 3 1472 1 13 2937 4 7 3 10 2 6 6 5 5 4 2 6 8 2 9 2 1 3355 965 4 6 8 8 2 6 3 17 4 0 3 4 5 4 3 5 7 5 12 3 2 2 2 5 6 2 3 4 3 2 7 3 1 1 5 2 2 52 4 5 5 5 3 8 5 4 0 4 1 6 0 2 8 2 10 7 5 3 6 1 3 2 5 1009 7 503 2801 1395 6 4 56 7 2 7 4 3 0 967 4 7 5 256 5 3 6 1 7 5 3 3 13 10 5 2 2 503 4 5 3 12 36 8 6 5 2 3 0 386 5 1 971 5 1 3 1011 8 506 6 2 3 3 3 7 3 5 1003 2 1006 4 6 4 2001 3 9 1 3 5 3 2 6 4 4 8 2 2008 3 2428 384 1677 3 9 5 2 5 727 5 1718 5 2 1002 4 2 2 3 3 32 7 4 4 1926 4 2 2 2 1002 2 4 4 1 4 8 8 4 6 0 3 3 3 1466 389 2 1 3 2 5 1 2 1 4 1 3 3 3 6 2 13 7 4 2 2 1932 1 2 4 1 2 6 79 3 12 3 4 5 6 2 5 3 1 1 1 8 0 1005 4 4 10 7 1 7 4 17 2 503 4 7 4 5 634 4 4 11 1 6 8 10 4 3 3 6 3 8 984 4 5 7 1384 7 3 8 9 1 2 3 5 1 3 2 2 3 5 2 3 1670 3 2 6 4 1 5 1 10 4 3 3 4 1 4 7 3 10 3 4 2 8 3 3 6 3 3 3 4 5 2 12 6 1004 3 1008 6 1 970 1 14 2 1 2 504 1002 4 1 4 173 2 1 2 501 5 3 3 3 6 4 2 1504 2 5 4 5 0 9 3 2 2 14 979 0 12 3 1 7 5 2 7 3 3 1504 5 1 1 2 5 4892 3 4 1 5 6 6 7 1 5 3 3 11 4449 1943 4 1471 12 5 1 1 5 5 8 3 3 2 4 3 4 5 6 3 1 4 2 4 8 480 7 3 3 9 1 5 6 2 4 1 3 2 6 1484 966 6 3 3 5 5 2 5 6 6 5 2 1 26 5 2 5 4 2928 3 6 4 7 3 5 4 1002 5 2501 1017 1 2177 4 4 3 4 3 4 3 3 2 2 6 4 3 2 5 1 1 5 4 2014 11 3 4 4 2 3 4 3 5 3 3 1 3 2 7 2 5 3 1003 4 3 1 2 6 1 4 2 4 2 4 5 2 1 5 5 968 3 4 13 2 3 50 4 5 5 4 4 3 5 2 3 3 7 2 7 1 4 0 9 3 2 5 6 4 10 2698 3 2 4 3 2 2 6 2 5 5 1003 6 0 7 1 6 1 2 4 5 3 2 1466 2 4 1347 3 1 468 1 0 3 5 1 1 1349 1 1002 2 3 6 5 1 2 2 3 2 2 3430 4 4 16 4 3 3 5 2 2 4 0 5 1001 2 965 2 2 2 0 4 0 4 2 3 4 3 4 1002 1 10 16 30 2 2505 1 3 4 2 2 7 1011 110 2 20504 0 1 2 3 1 1 2 3 4 282 390 1 1 12 3 1 4 1 8 1 4 3 3 31 4 3 2 1 3 4 1 2 3 6 2 3 3 1 2 0 3811 1 3 4 0 5 438 5 3 4 3 3 6 1 6 1 1 1 5 3 0 2 3 2 3 13 1 928 3 2 62 7 2 3 3 4 2 1 6 966 2 3 0 3 2 3 2 3 4 5 10 11 0 930 3 6 4 4 5 3 2508 2 6 4881 3 0 1005 1465 5 3 5 6 6 2 1 1 969 3 2 2 4 2 5 5 6 5 5 2930 3001 2 8 5 3 5 7 4 4 8 2 1003 6 2 6 3 1252 427 2 1465 19 5 140 3 3 4 4 5 4 2 12 4 1 3 1 3 8 0 3 3 4 4 6 505 3 4 4 15 1 3 3 10 2 1508 8 12 1 1 9 2 1004 2 4 5 7 502 4 2 1003 11 3 506 5 991 3 2003 6544 4 3 14635 1009 2 2005 1468 4 2 1002 2 2 2 3 4 3 4 3 3 7 7 4 165 12 0 2427 2 1466 194 3 7 4 5 7 2 793 1 5 2 4 5 2 1926 1 1001 601 0 2461 3 7 4 1 4 3 4 0 6 3 5 7 3 19 2 3 3 1 3 4 10 1 4 530 0 3 2 4 904 1926 1 4 968 2 3 2 1453 4 4 1 5 4 0 2 11 1463 1 2851 2 0 4 1 4 3 2 5 7 3 440 9 1 5 3 5 213 1004 103 3 6 2 805 1 411 0 4 2927 7 6 3 5 2 3 2 465 0 4 0 3 7 12 2 2 1934 356 3 4 969 1 3 2 4 2 4 2 21 4 1001 3 1 1 421 2 3 3 3 6 2 1 2 2 2 5 1 7 1 3814 4 2 3 8 4 1 2 3 5 2 4 1004 4 5 4 4 3 7 3 2 0 3 4 0 2 1 2 2 5 11 5 2 2 3 12 2 2 4 3 2 3 22 4 2 1370 11 106 2 5 2 2 7 3 5 7 3 7 0 1 2 6 1003 2 6 3 2 5 4 6 24 3 3 0 1927 1 0 2 3 0 5 2928 28 1 3 3 942 4 0 4 2 7 2 6 1 6 2 4383 3 1 2 3 524 6 1006 3 6 5091 0 1 3 2 5 2 1 0 2 3 2932 6 6 3 0 6 9 7 1 2 1 3 14 2 1 5 4 3 3 4 4 1 25 2 6 7 1 2 2 2 2 10 1 3 1 3 2 3 1 5 2 362 3 4 2 1 4 1489 4 4 0 
To predecode: 0
Predecoding something: 0
Predecode request dropped: 0
sizeofblock_0 0
sizeofblock_1 115313
sizeofblock_2 84882
sizeofblock_3 62711
sizeofblock_4 5647
sizeofblock_5 0
sizeofblock_6 0
sizeofblock_7 0
sizeofblock_8 0
