
*** ChampSim Multicore Out-of-Order Simulator ***

Warmup Instructions: 50000000
Simulation Instructions: 50000000
Number of CPUs: 1
LLC sets: 2048
LLC ways: 16
Off-chip DRAM Size: 4096 MB Channels: 1 Width: 64-bit Data Rate: 6400 MT/s
CPU 0 runs ./micro_traces/srv514.trace.gz
.gz
ITLB has LRU replacement policy
DTLB has LRU replacement policy
STLB has LRU replacement policy
FDIP Prefetcher at L1I
L1I has LRU replacement policy
L1D has LRU replacement policy
Initialize SRRIP state for L2C
Initialize DRRIP state for LLC
Heartbeat_Variant_0 : 1322 0.322754 per_variant_size: 0 1322 0 0 0 0 0 0 0 
Heartbeat_Variant_1 : 2520 0.615234 per_variant_size: 0 548 1972 0 0 0 0 0 0 
Heartbeat_Variant_2 : 0 0 per_variant_size: 0 0 0 0 0 0 0 0 0 
Heartbeat_Variant_3 : 0 0 per_variant_size: 0 0 0 0 0 0 0 0 0 
Heartbeat_Variant_0_evicts 0 : 5861 1 : 504 2 : 0 3 : 0 
Heartbeat_Variant_1_evicts 0 : 443 1 : 0 2 : 0 3 : 0 
Heartbeat_Variant_2_evicts 0 : 0 1 : 0 2 : 0 3 : 0 
Heartbeat_Variant_3_evicts 0 : 0 1 : 0 2 : 0 3 : 0 
Heartbeat CPU 0 instructions: 10000001 cycles: 2795720 heartbeat IPC: 3.5769 cumulative IPC: 3.5769 (Simulation time: 0 hr 1 min 30 sec) 
Heartbeat_Variant_0 : 1356 0.331055 per_variant_size: 0 1356 0 0 0 0 0 0 0 
Heartbeat_Variant_1 : 2599 0.634521 per_variant_size: 0 501 2098 0 0 0 0 0 0 
Heartbeat_Variant_2 : 0 0 per_variant_size: 0 0 0 0 0 0 0 0 0 
Heartbeat_Variant_3 : 0 0 per_variant_size: 0 0 0 0 0 0 0 0 0 
Heartbeat_Variant_0_evicts 0 : 5710 1 : 275 2 : 0 3 : 0 
Heartbeat_Variant_1_evicts 0 : 270 1 : 0 2 : 0 3 : 0 
Heartbeat_Variant_2_evicts 0 : 0 1 : 0 2 : 0 3 : 0 
Heartbeat_Variant_3_evicts 0 : 0 1 : 0 2 : 0 3 : 0 
Heartbeat CPU 0 instructions: 20000003 cycles: 5589206 heartbeat IPC: 3.57976 cumulative IPC: 3.57833 (Simulation time: 0 hr 2 min 59 sec) 
Heartbeat_Variant_0 : 1370 0.334473 per_variant_size: 0 1370 0 0 0 0 0 0 0 
Heartbeat_Variant_1 : 2631 0.642334 per_variant_size: 0 491 2140 0 0 0 0 0 0 
Heartbeat_Variant_2 : 0 0 per_variant_size: 0 0 0 0 0 0 0 0 0 
Heartbeat_Variant_3 : 0 0 per_variant_size: 0 0 0 0 0 0 0 0 0 
Heartbeat_Variant_0_evicts 0 : 5668 1 : 282 2 : 0 3 : 0 
Heartbeat_Variant_1_evicts 0 : 279 1 : 0 2 : 0 3 : 0 
Heartbeat_Variant_2_evicts 0 : 0 1 : 0 2 : 0 3 : 0 
Heartbeat_Variant_3_evicts 0 : 0 1 : 0 2 : 0 3 : 0 
Heartbeat CPU 0 instructions: 30000000 cycles: 8384031 heartbeat IPC: 3.57804 cumulative IPC: 3.57823 (Simulation time: 0 hr 4 min 28 sec) 
Heartbeat_Variant_0 : 1377 0.336182 per_variant_size: 0 1377 0 0 0 0 0 0 0 
Heartbeat_Variant_1 : 2636 0.643555 per_variant_size: 0 482 2154 0 0 0 0 0 0 
Heartbeat_Variant_2 : 0 0 per_variant_size: 0 0 0 0 0 0 0 0 0 
Heartbeat_Variant_3 : 0 0 per_variant_size: 0 0 0 0 0 0 0 0 0 
Heartbeat_Variant_0_evicts 0 : 5731 1 : 160 2 : 0 3 : 0 
Heartbeat_Variant_1_evicts 0 : 155 1 : 0 2 : 0 3 : 0 
Heartbeat_Variant_2_evicts 0 : 0 1 : 0 2 : 0 3 : 0 
Heartbeat_Variant_3_evicts 0 : 0 1 : 0 2 : 0 3 : 0 
Heartbeat CPU 0 instructions: 40000003 cycles: 11180346 heartbeat IPC: 3.57614 cumulative IPC: 3.57771 (Simulation time: 0 hr 5 min 59 sec) 
Heartbeat_Variant_0 : 1375 0.335693 per_variant_size: 0 1375 0 0 0 0 0 0 0 
Heartbeat_Variant_1 : 2643 0.645264 per_variant_size: 0 488 2155 0 0 0 0 0 0 
Heartbeat_Variant_2 : 0 0 per_variant_size: 0 0 0 0 0 0 0 0 0 
Heartbeat_Variant_3 : 0 0 per_variant_size: 0 0 0 0 0 0 0 0 0 
Heartbeat_Variant_0_evicts 0 : 5585 1 : 109 2 : 0 3 : 0 
Heartbeat_Variant_1_evicts 0 : 111 1 : 0 2 : 0 3 : 0 
Heartbeat_Variant_2_evicts 0 : 0 1 : 0 2 : 0 3 : 0 
Heartbeat_Variant_3_evicts 0 : 0 1 : 0 2 : 0 3 : 0 
Heartbeat CPU 0 instructions: 50000000 cycles: 13974984 heartbeat IPC: 3.57828 cumulative IPC: 3.57782 (Simulation time: 0 hr 7 min 28 sec) 

Warmup complete CPU 0 instructions: 50000004 cycles: 13974985 (Simulation time: 0 hr 7 min 28 sec) 

Cycle: 20000000 FTQ IN: 58420020 FTQ occupancy: 20.9923 DECODE IN: 58419913 DECODE occupancy: 54.0654 ROB IN: 58419853 ROB occupancy: 320.026 ROB OUT: 58419681
Heartbeat_Variant_0 : 1380 0.336914 per_variant_size: 0 1380 0 0 0 0 0 0 0 
Heartbeat_Variant_1 : 2641 0.644775 per_variant_size: 0 513 2128 0 0 0 0 0 0 
Heartbeat_Variant_2 : 0 0 per_variant_size: 0 0 0 0 0 0 0 0 0 
Heartbeat_Variant_3 : 0 0 per_variant_size: 0 0 0 0 0 0 0 0 0 
Heartbeat_Variant_0_evicts 0 : 5580 1 : 98 2 : 0 3 : 0 
Heartbeat_Variant_1_evicts 0 : 94 1 : 0 2 : 0 3 : 0 
Heartbeat_Variant_2_evicts 0 : 0 1 : 0 2 : 0 3 : 0 
Heartbeat_Variant_3_evicts 0 : 0 1 : 0 2 : 0 3 : 0 
Heartbeat CPU 0 instructions: 60000000 cycles: 21119429 heartbeat IPC: 1.39969 cumulative IPC: 1.39969 (Simulation time: 0 hr 9 min 16 sec) 
Heartbeat_Variant_0 : 1385 0.338135 per_variant_size: 0 1385 0 0 0 0 0 0 0 
Heartbeat_Variant_1 : 2646 0.645996 per_variant_size: 0 511 2135 0 0 0 0 0 0 
Heartbeat_Variant_2 : 0 0 per_variant_size: 0 0 0 0 0 0 0 0 0 
Heartbeat_Variant_3 : 0 0 per_variant_size: 0 0 0 0 0 0 0 0 0 
Heartbeat_Variant_0_evicts 0 : 5644 1 : 135 2 : 0 3 : 0 
Heartbeat_Variant_1_evicts 0 : 132 1 : 0 2 : 0 3 : 0 
Heartbeat_Variant_2_evicts 0 : 0 1 : 0 2 : 0 3 : 0 
Heartbeat_Variant_3_evicts 0 : 0 1 : 0 2 : 0 3 : 0 
Heartbeat CPU 0 instructions: 70000000 cycles: 28323305 heartbeat IPC: 1.38814 cumulative IPC: 1.39389 (Simulation time: 0 hr 11 min 2 sec) 
Cycle: 30000000 FTQ IN: 13947642 FTQ occupancy: 16.3308 DECODE IN: 13947633 DECODE occupancy: 39.9929 ROB IN: 13947633 ROB occupancy: 253.715 ROB OUT: 13947453
Heartbeat_Variant_0 : 1386 0.338379 per_variant_size: 0 1386 0 0 0 0 0 0 0 
Heartbeat_Variant_1 : 2646 0.645996 per_variant_size: 0 514 2132 0 0 0 0 0 0 
Heartbeat_Variant_2 : 0 0 per_variant_size: 0 0 0 0 0 0 0 0 0 
Heartbeat_Variant_3 : 0 0 per_variant_size: 0 0 0 0 0 0 0 0 0 
Heartbeat_Variant_0_evicts 0 : 5620 1 : 33 2 : 0 3 : 0 
Heartbeat_Variant_1_evicts 0 : 32 1 : 0 2 : 0 3 : 0 
Heartbeat_Variant_2_evicts 0 : 0 1 : 0 2 : 0 3 : 0 
Heartbeat_Variant_3_evicts 0 : 0 1 : 0 2 : 0 3 : 0 
Heartbeat CPU 0 instructions: 80000002 cycles: 35422105 heartbeat IPC: 1.40869 cumulative IPC: 1.39879 (Simulation time: 0 hr 12 min 43 sec) 
Cycle: 40000000 FTQ IN: 14066145 FTQ occupancy: 16.3491 DECODE IN: 14066139 DECODE occupancy: 40.2583 ROB IN: 14066139 ROB occupancy: 255.654 ROB OUT: 14066246
Heartbeat_Variant_0 : 1383 0.337646 per_variant_size: 0 1383 0 0 0 0 0 0 0 
Heartbeat_Variant_1 : 2659 0.64917 per_variant_size: 0 478 2181 0 0 0 0 0 0 
Heartbeat_Variant_2 : 0 0 per_variant_size: 0 0 0 0 0 0 0 0 0 
Heartbeat_Variant_3 : 0 0 per_variant_size: 0 0 0 0 0 0 0 0 0 
Heartbeat_Variant_0_evicts 0 : 5675 1 : 216 2 : 0 3 : 0 
Heartbeat_Variant_1_evicts 0 : 223 1 : 0 2 : 0 3 : 0 
Heartbeat_Variant_2_evicts 0 : 0 1 : 0 2 : 0 3 : 0 
Heartbeat_Variant_3_evicts 0 : 0 1 : 0 2 : 0 3 : 0 
Heartbeat CPU 0 instructions: 90000000 cycles: 42637446 heartbeat IPC: 1.38594 cumulative IPC: 1.39555 (Simulation time: 0 hr 14 min 30 sec) 
*** Reached end of trace for Core: 0 Repeating trace: ./micro_traces/srv514.trace.gz
Heartbeat_Variant_0 : 1383 0.337646 per_variant_size: 0 1383 0 0 0 0 0 0 0 
Heartbeat_Variant_1 : 2661 0.649658 per_variant_size: 0 494 2167 0 0 0 0 0 0 
Heartbeat_Variant_2 : 0 0 per_variant_size: 0 0 0 0 0 0 0 0 0 
Heartbeat_Variant_3 : 0 0 per_variant_size: 0 0 0 0 0 0 0 0 0 
Heartbeat_Variant_0_evicts 0 : 5586 1 : 34 2 : 0 3 : 0 
Heartbeat_Variant_1_evicts 0 : 34 1 : 0 2 : 0 3 : 0 
Heartbeat_Variant_2_evicts 0 : 0 1 : 0 2 : 0 3 : 0 
Heartbeat_Variant_3_evicts 0 : 0 1 : 0 2 : 0 3 : 0 
Heartbeat CPU 0 instructions: 100000002 cycles: 49746357 heartbeat IPC: 1.40669 cumulative IPC: 1.39777 (Simulation time: 0 hr 16 min 17 sec) 
Finished CPU 0 instructions: 50000002 cycles: 35771373 cumulative IPC: 1.39777 (Simulation time: 0 hr 16 min 17 sec) 

ChampSim completed all CPUs

Region of Interest Statistics

CPU 0 cumulative IPC: 1.39777 instructions: 50000002 cycles: 35771373
 Fetch stage stalled: 36.9135  Sim cycles: 35771373 fetch stall cycle: 13204477
 Empty decode stage: 20.5179  Sim cycles: 35771373 fetch stall cycle: 7339548
ITLB TOTAL     ACCESS:    5862925  HIT:    5373251  MISS:     489674  HIT %:     91.648  MISS %:    8.35204   MPKI: 9.79348
ITLB LOAD TRANSLATION INSTRUCTION	ACCESS:    5710426  HIT:    5220752  MISS:     489674  HIT %:    91.4249  MISS %:    8.57509  MPKI: 9.79348
ITLB TRANSLATION FROM L1D PREFETCHER INSTRUCTION	ACCESS:     152499  HIT:     152499  MISS:          0  HIT %:        100  MISS %:          0  MPKI: 0

ITLB AVERAGE MISS LATENCY: 9.05306 cycles
ITLB RQ	ACCESS:    7889701	FORWARD:          0	MERGED:    1513876	TO_CACHE:    6375825

DTLB TOTAL     ACCESS:    8911437  HIT:    8439388  MISS:     472049  HIT %:    94.7029  MISS %:    5.29711   MPKI: 9.44098
DTLB LOAD TRANSLATION DATA	ACCESS:    8911437  HIT:    8439388  MISS:     472049  HIT %:    94.7029  MISS %:    5.29711  MPKI: 9.44098

DTLB AVERAGE MISS LATENCY: 9.31697 cycles
DTLB RQ	ACCESS:   13273801	FORWARD:          0	MERGED:    4325867	TO_CACHE:    8947934

STLB TOTAL     ACCESS:    1218496  HIT:    1216371  MISS:       2125  HIT %:    99.8256  MISS %:   0.174395   MPKI: 0.0425
STLB LOAD TRANSLATION INSTRUCTION	ACCESS:     489674  HIT:     489413  MISS:        261  HIT %:    99.9467  MISS %:  0.0533008  MPKI: 0.00522
STLB LOAD TRANSLATION DATA	ACCESS:     472049  HIT:     470200  MISS:       1849  HIT %:    99.6083  MISS %:   0.391697  MPKI: 0.03698
STLB TRANSLATION FROM L1D PREFETCHER DATA	ACCESS:     256773  HIT:     256758  MISS:         15  HIT %:    99.9942  MISS %: 0.00584174  MPKI: 0.0003

STLB AVERAGE MISS LATENCY: 68.0776 cycles
STLB RQ	ACCESS:    1365425	FORWARD:          0	MERGED:     146896	TO_CACHE:    1218529

STLB Hit, L1D data hit: 0
STLB Hit, L2C data hit: 0
STLB Hit, LLC data hit: 0
STLB Hit, LLC data miss: 0
STLB STLB hints to L2: 0
L1D TOTAL     ACCESS:   13032468  HIT:   11872715  MISS:    1159753  HIT %:     91.101  MISS %:    8.89895   MPKI: 23.1951
L1D LOAD DATA	ACCESS:    6535049  HIT:    5769779  MISS:     765270  HIT %:    88.2898  MISS %:    11.7102  MPKI: 15.3054
L1D RFO DATA	ACCESS:    6157646  HIT:    5869309  MISS:     288337  HIT %:    95.3174  MISS %:    4.68258  MPKI: 5.76674
L1D PREFETCH DATA	ACCESS:     339773  HIT:     233627  MISS:     106146  HIT %:    68.7597  MISS %:    31.2403  MPKI: 2.12292

L1D PREFETCH  REQUESTED:     807726  ISSUED:     807726  USEFUL:      48294  USELESS:      70977
L1D USEFUL LOAD PREFETCHES:      48294 PREFETCH ISSUED TO LOWER LEVEL:     119339  ACCURACY: 40.4679
 TIMELY PREFETCHES:      48294 LATE PREFETCHES: 13135 DROPPED PREFETCHES: 7
L1D AVERAGE MISS LATENCY: 364189 cycles
L1D RQ	ACCESS:   10660085	FORWARD:          0	MERGED:    3927609	TO_CACHE:    6569857
L1D WQ	ACCESS:    6901403	FORWARD:     162941	MERGED:     197459	TO_CACHE:    6703944
L1D PQ	ACCESS:     404024	FORWARD:          0	MERGED:          0	TO_CACHE:     403702

L1D UNIQUE REGIONS ACCESSED: 0
L1D REGIONS CONFLICTS: 0
L1D Cross Page Prefetch Requests: 5816
L1D Same Page Prefetch Requests: 819785
L1D ROI Sum of L1D PQ occupancy: 5117188
L1D PREFETCHES PUSHED FROM L2C: 0
L1I TOTAL     ACCESS:    7080130  HIT:    4337527  MISS:    2742603  HIT %:    61.2634  MISS %:    38.7366   MPKI: 54.8521
L1I LOAD INSTRUCTION	ACCESS:    6413174  HIT:    3670571  MISS:    2742603  HIT %:    57.2349  MISS %:    42.7651  MPKI: 54.8521
L1I PREFETCH INSTRUCTION	ACCESS:     666956  HIT:     666956  MISS:          0  HIT %:        100  MISS %:          0  MPKI: 0

L1I PREFETCH  REQUESTED:    1613578  ISSUED:    1613578  USEFUL:          0  USELESS:          0
L1I USEFUL LOAD PREFETCHES:          0 PREFETCH ISSUED TO LOWER LEVEL:          0  ACCURACY: -nan
 TIMELY PREFETCHES:          0 LATE PREFETCHES: 0 DROPPED PREFETCHES: 0
L1I AVERAGE MISS LATENCY: 17.8601 cycles
L1I RQ	ACCESS:    9671228	FORWARD:          0	MERGED:    2971495	TO_CACHE:    6699733
L1I PQ	ACCESS:    1613578	FORWARD:          0	MERGED:     423610	TO_CACHE:    1189968

L1BTB TOTAL     ACCESS:    5681169  HIT:    2078177  MISS:    3602992  HIT %:    36.5801  MISS %:    63.4199   MPKI: 72.0598
L1BTB BRANCH_DIRECT_JUMP	ACCESS:     545087 HIT:     144164 MISS:     400923 AVERAGE STALL: 58.3537 AVERAGE FETCH STALL: 13.0691 AVERAGE FETCH QUEUE STALL: 23.6399 AVERAGE DECODE STALL: 20.714 AVERAGE EXECUTE STALL: 2.38793e+15
L1BTB BRANCH_INDIRECT	ACCESS:     181892 HIT:      65660 MISS:     116232 AVERAGE STALL: 120.961 AVERAGE FETCH STALL: 11.2378 AVERAGE FETCH QUEUE STALL: 21.9737 AVERAGE DECODE STALL: 14.2229 AVERAGE EXECUTE STALL: 72.5649
L1BTB BRANCH_CONDITIONAL	ACCESS:    2737891 HIT:    1454259 MISS:    1283632 AVERAGE STALL: 61.3479 AVERAGE FETCH STALL: 22.1321 AVERAGE FETCH QUEUE STALL: 21.7944 AVERAGE DECODE STALL: 16.7747 AVERAGE EXECUTE STALL: 3.42304e+15
L1BTB BRANCH_DIRECT_CALL	ACCESS:     937390 HIT:     104297 MISS:     833093 AVERAGE STALL: 73.6006 AVERAGE FETCH STALL: 24.2148 AVERAGE FETCH QUEUE STALL: 31.4276 AVERAGE DECODE STALL: 17.1476 AVERAGE EXECUTE STALL: 8.66858e+15
L1BTB BRANCH_INDIRECT_CALL	ACCESS:     170770 HIT:      21331 MISS:     149439 AVERAGE STALL: 147.443 AVERAGE FETCH STALL: 12.3179 AVERAGE FETCH QUEUE STALL: 22.58 AVERAGE DECODE STALL: 12.7208 AVERAGE EXECUTE STALL: 99.3357
L1BTB BRANCH_RETURN	ACCESS:    1108139 HIT:     288466 MISS:     819673 AVERAGE STALL: 54.2147 AVERAGE FETCH STALL: 17.3174 AVERAGE FETCH QUEUE STALL: 6.87257 AVERAGE DECODE STALL: 6.74593 AVERAGE EXECUTE STALL: 4.33317e+14
L1BTB BRANCH_OTHER ACCESS:          0 HIT:          0 MISS:          0 AVERAGE STALL: -nan AVERAGE FETCH STALL: -nan AVERAGE FETCH QUEUE STALL: -nan AVERAGE DECODE STALL: -nan AVERAGE EXECUTE STALL: -nan
L1BTB TOTAL ROB OCCUPANCY AT BTB MISS: 2.80567

L2BTB TOTAL     ACCESS:    3577731  HIT:    3512530  MISS:      65201  HIT %:    98.1776  MISS %:    1.82241   MPKI: 1.30402
L2BTB BRANCH_DIRECT_JUMP	ACCESS:     396762 HIT:     393193 MISS:       3569 AVERAGE STALL: 58.3537 AVERAGE FETCH STALL: 13.0691 AVERAGE FETCH QUEUE STALL: 23.6399 AVERAGE DECODE STALL: 20.714 AVERAGE EXECUTE STALL: 2.38793e+15
L2BTB BRANCH_INDIRECT	ACCESS:     106038 HIT:     103347 MISS:       2691 AVERAGE STALL: 120.961 AVERAGE FETCH STALL: 11.2378 AVERAGE FETCH QUEUE STALL: 21.9737 AVERAGE DECODE STALL: 14.2229 AVERAGE EXECUTE STALL: 72.5649
L2BTB BRANCH_CONDITIONAL	ACCESS:    1283632 HIT:    1278211 MISS:       5421 AVERAGE STALL: 61.3479 AVERAGE FETCH STALL: 22.1321 AVERAGE FETCH QUEUE STALL: 21.7944 AVERAGE DECODE STALL: 16.7747 AVERAGE EXECUTE STALL: 3.42304e+15
L2BTB BRANCH_DIRECT_CALL	ACCESS:     833093 HIT:     830944 MISS:       2149 AVERAGE STALL: 73.6006 AVERAGE FETCH STALL: 24.2148 AVERAGE FETCH QUEUE STALL: 31.4276 AVERAGE DECODE STALL: 17.1476 AVERAGE EXECUTE STALL: 8.66858e+15
L2BTB BRANCH_INDIRECT_CALL	ACCESS:     139918 HIT:     129752 MISS:      10166 AVERAGE STALL: 147.443 AVERAGE FETCH STALL: 12.3179 AVERAGE FETCH QUEUE STALL: 22.58 AVERAGE DECODE STALL: 12.7208 AVERAGE EXECUTE STALL: 99.3357
L2BTB BRANCH_RETURN	ACCESS:     818288 HIT:     777083 MISS:      41205 AVERAGE STALL: 54.2147 AVERAGE FETCH STALL: 17.3174 AVERAGE FETCH QUEUE STALL: 6.87257 AVERAGE DECODE STALL: 6.74593 AVERAGE EXECUTE STALL: 4.33317e+14
L2BTB BRANCH_OTHER ACCESS:          0 HIT:          0 MISS:          0 AVERAGE STALL: -nan AVERAGE FETCH STALL: -nan AVERAGE FETCH QUEUE STALL: -nan AVERAGE DECODE STALL: -nan AVERAGE EXECUTE STALL: -nan
L2BTB TOTAL ROB OCCUPANCY AT BTB MISS: 155.04

L2C TOTAL     ACCESS:    4519553  HIT:    3980373  MISS:     539180  HIT %:    88.0701  MISS %:    11.9299   MPKI: 10.7836
L2C LOAD INSTRUCTION	ACCESS:    2742604  HIT:    2432130  MISS:     310474  HIT %:    88.6796  MISS %:    11.3204  MPKI: 6.20948
L2C LOAD TRANSLATION INSTRUCTION	ACCESS:        296  HIT:         77  MISS:        219  HIT %:    26.0135  MISS %:    73.9865  MPKI: 0.00438
L2C LOAD DATA	ACCESS:     752098  HIT:     669171  MISS:      82927  HIT %:    88.9739  MISS %:    11.0261  MPKI: 1.65854
L2C RFO DATA	ACCESS:     288269  HIT:     236152  MISS:      52117  HIT %:    81.9207  MISS %:    18.0793  MPKI: 1.04234
L2C PREFETCH DATA	ACCESS:     208730  HIT:     131929  MISS:      76801  HIT %:    63.2056  MISS %:    36.7944  MPKI: 1.53602
L2C WRITEBACK DATA	ACCESS:     525605  HIT:     510380  MISS:      15225  HIT %:    97.1033  MISS %:    2.89666  MPKI: 0.3045
L2C LOAD TRANSLATION DATA	ACCESS:       1923  HIT:        513  MISS:       1410  HIT %:    26.6771  MISS %:    73.3229  MPKI: 0.0282
L2C TRANSLATION FROM L1D PREFETCHER DATA	ACCESS:         28  HIT:         21  MISS:          7  HIT %:         75  MISS %:         25  MPKI: 0.00014

L2C PREFETCH  REQUESTED:      96524  ISSUED:      96524  USEFUL:       9300  USELESS:      67793
L2C USEFUL LOAD PREFETCHES:       9300 PREFETCH ISSUED TO LOWER LEVEL:      77193  ACCURACY: 12.0477
 TIMELY PREFETCHES:       9300 LATE PREFETCHES: 392 DROPPED PREFETCHES: 0
L2C AVERAGE MISS LATENCY: 37.2651 cycles
L2C RQ	ACCESS:    3785268	FORWARD:          0	MERGED:          0	TO_CACHE:    3785222
L2C WQ	ACCESS:     525605	FORWARD:         46	MERGED:          0	TO_CACHE:     525605
L2C PQ	ACCESS:     215863	FORWARD:          0	MERGED:       3403	TO_CACHE:     212460

L2C Dense regions hint from L2: 0
PSCL5 TOTAL     ACCESS:       4266  HIT:       2133  MISS:       2133  HIT %:         50  MISS %:         50   MPKI: 0.04266
PSCL5 LOAD TRANSLATION INSTRUCTION	ACCESS:       4210  HIT:       2105  MISS:       2105  HIT %:         50  MISS %:         50  MPKI: 0.0421
PSCL5 TRANSLATION FROM L1D PREFETCHER INSTRUCTION	ACCESS:         56  HIT:         28  MISS:         28  HIT %:         50  MISS %:         50  MPKI: 0.00056


PSCL4 TOTAL     ACCESS:       3877  HIT:       1936  MISS:       1941  HIT %:    49.9355  MISS %:    50.0645   MPKI: 0.03882
PSCL4 LOAD TRANSLATION INSTRUCTION	ACCESS:       3045  HIT:       1908  MISS:       1137  HIT %:    62.6601  MISS %:    37.3399  MPKI: 0.02274
PSCL4 TRANSLATION FROM L1D PREFETCHER INSTRUCTION	ACCESS:         44  HIT:         28  MISS:         16  HIT %:    63.6364  MISS %:    36.3636  MPKI: 0.00032
PSCL4 LOAD TRANSLATION DATA	ACCESS:        776  HIT:          0  MISS:        776  HIT %:          0  MISS %:        100  MPKI: 0.01552
PSCL4 TRANSLATION FROM L1D PREFETCHER DATA	ACCESS:         12  HIT:          0  MISS:         12  HIT %:          0  MISS %:        100  MPKI: 0.00024


PSCL3 TOTAL     ACCESS:       4138  HIT:       2064  MISS:       2074  HIT %:    49.8792  MISS %:    50.1208   MPKI: 0.04148
PSCL3 LOAD TRANSLATION INSTRUCTION	ACCESS:       2151  HIT:       2036  MISS:        115  HIT %:    94.6536  MISS %:    5.34635  MPKI: 0.0023
PSCL3 TRANSLATION FROM L1D PREFETCHER INSTRUCTION	ACCESS:         28  HIT:         28  MISS:          0  HIT %:        100  MISS %:          0  MPKI: 0
PSCL3 LOAD TRANSLATION DATA	ACCESS:       1931  HIT:          0  MISS:       1931  HIT %:          0  MISS %:        100  MPKI: 0.03862
PSCL3 TRANSLATION FROM L1D PREFETCHER DATA	ACCESS:         28  HIT:          0  MISS:         28  HIT %:          0  MISS %:        100  MPKI: 0.00056


PSCL2 TOTAL     ACCESS:       4166  HIT:       2033  MISS:       2133  HIT %:    48.7998  MISS %:    51.2002   MPKI: 0.04266
PSCL2 LOAD TRANSLATION INSTRUCTION	ACCESS:       2265  HIT:       2005  MISS:        260  HIT %:     88.521  MISS %:     11.479  MPKI: 0.0052
PSCL2 TRANSLATION FROM L1D PREFETCHER INSTRUCTION	ACCESS:         28  HIT:         28  MISS:          0  HIT %:        100  MISS %:          0  MPKI: 0
PSCL2 LOAD TRANSLATION DATA	ACCESS:       1845  HIT:          0  MISS:       1845  HIT %:          0  MISS %:        100  MPKI: 0.0369
PSCL2 TRANSLATION FROM L1D PREFETCHER DATA	ACCESS:         28  HIT:          0  MISS:         28  HIT %:          0  MISS %:        100  MPKI: 0.00056


LLC TOTAL     ACCESS:     601717  HIT:     573805  MISS:      27912  HIT %:    95.3613  MISS %:    4.63873   MPKI: 0.55824
LLC LOAD INSTRUCTION	ACCESS:     310474  HIT:     309738  MISS:        736  HIT %:    99.7629  MISS %:   0.237057  MPKI: 0.01472
LLC LOAD TRANSLATION INSTRUCTION	ACCESS:        219  HIT:        190  MISS:         29  HIT %:     86.758  MISS %:     13.242  MPKI: 0.00058
LLC LOAD DATA	ACCESS:      82578  HIT:      79057  MISS:       3521  HIT %:    95.7362  MISS %:    4.26385  MPKI: 0.07042
LLC RFO DATA	ACCESS:      52034  HIT:      38666  MISS:      13368  HIT %:    74.3091  MISS %:    25.6909  MPKI: 0.26736
LLC PREFETCH DATA	ACCESS:      77190  HIT:      67327  MISS:       9863  HIT %:    87.2224  MISS %:    12.7776  MPKI: 0.19726
LLC WRITEBACK DATA	ACCESS:      77805  HIT:      77469  MISS:        336  HIT %:    99.5682  MISS %:   0.431849  MPKI: 0.00672
LLC LOAD TRANSLATION DATA	ACCESS:       1410  HIT:       1352  MISS:         58  HIT %:    95.8865  MISS %:    4.11348  MPKI: 0.00116
LLC TRANSLATION FROM L1D PREFETCHER DATA	ACCESS:          7  HIT:          6  MISS:          1  HIT %:    85.7143  MISS %:    14.2857  MPKI: 2e-05

LLC AVERAGE MISS LATENCY: 155.428 cycles
LLC RQ	ACCESS:     446762	FORWARD:          0	MERGED:          0	TO_CACHE:     446722
LLC WQ	ACCESS:      77805	FORWARD:         43	MERGED:          0	TO_CACHE:      77805
LLC PQ	ACCESS:      77193	FORWARD:          0	MERGED:          0	TO_CACHE:      77190

LLC Dense regions hint to LLC: 0

RAW hits: 1944003
Loads Generated: 12604088
Loads sent to L1D: 10660085
Stores Generated: 6901384
Stores sent to L1D: 6901403
Major fault: 0 Minor fault: 2600
Allocated PAGES: 2600

stream: 
stream:times selected: 1256347
stream:pref_filled: 127802
stream:pref_useful: 28989
stream:pref_late: 9468
stream:misses: 10766
stream:misses_by_poll: 0

CS: 
CS:times selected: 195931
CS:pref_filled: 75054
CS:pref_useful: 51409
CS:pref_late: 9269
CS:misses: 23828
CS:misses_by_poll: 13

CPLX: 
CPLX:times selected: 1059308
CPLX:pref_filled: 25347
CPLX:pref_useful: 7903
CPLX:pref_late: 4170
CPLX:misses: 130652
CPLX:misses_by_poll: 9

NL_L1: 
NL:times selected: 12832
NL:pref_filled: 1181
NL:pref_useful: 309
NL:pref_late: 457
NL:misses: 2093
NL:misses_by_poll: 0

total selections: 2524418
total_filled: 106146
total_useful: 48294
total_late: 25587
total_polluted: 22
total_misses_after_warmup: 800078
conflicts: 5474423

test: 120465

DRAM Statistics
 CHANNEL 0
 RQ ROW_BUFFER_HIT:      10191  ROW_BUFFER_MISS:      17385
 DBUS_CONGESTED:         13
 WQ ROW_BUFFER_HIT:       1362  ROW_BUFFER_MISS:      12288  FULL:          0

 AVG_CONGESTED_CYCLE: 3

CPU 0 Branch Prediction Accuracy: 99.8227% MPKI: 0.3247 Average ROB Occupancy at Mispredict: 201.727
Branch types
NOT_BRANCH: 40842006 81.684%
BRANCH_DIRECT_JUMP: 545087 1.09017%
BRANCH_INDIRECT: 181892 0.363784%
BRANCH_CONDITIONAL: 6214603 12.4292%
BRANCH_DIRECT_CALL: 937390 1.87478%
BRANCH_INDIRECT_CALL: 170770 0.34154%
BRANCH_RETURN: 1108139 2.21628%
BRANCH_OTHER: 0 0%

DRAM PAGES: 1048576
Allocated PAGES: 2600
Average_ROB_Occupancy: 255.636
Average_Decode_Occupancy: 40.1654
Average_FTQ_Occupancy: 16.3623
Indirect max targets: 14 Average targets: 1.14478
Branch_type:  BRANCH_DIRECT_JUMP:  Count Percentage: 3.32704 6.00621 4.23779 7.9044 3.3151 6.01943 1.18464 68.0054 
Branch_type:  BRANCH_INDIRECT:  Count Percentage: 6.14169 3.48153 8.18425 9.67574 3.33826 2.80288 3.06906 63.3066 
Branch_type:  BRANCH_CONDITIONAL:  Count Percentage: 26.0831 2.72405 1.62149 4.56803 2.01565 3.53613 1.15365 58.2979 
Branch_type:  BRANCH_DIRECT_CALL:  Count Percentage: 0.847596 1.23517 0.745457 3.7102 3.21163 2.62085 0.834622 86.7945 
Branch_type:  BRANCH_INDIRECT_CALL:  Count Percentage: 5.25163 0 2.9833 0 1.28367 1.70462 7.54048 81.2363 
Branch_type:  BRANCH_RETURN:  Count Percentage: 8.21506 1.23954 1.20248 3.67014 4.41064 3.49654 1.25485 76.5108 
Branch_type:  BRANCH_DIRECT_JUMP:  Total Count: 36224 65394 46140 86061 36094 65538 12898 740425 
Branch_type:  BRANCH_INDIRECT:  Total Count: 22335 12661 29763 35187 12140 10193 11161 230222 
Branch_type:  BRANCH_CONDITIONAL:  Total Count: 3239237 338298 201372 567300 250322 439149 143271 7239965 
Branch_type:  BRANCH_DIRECT_CALL:  Total Count: 15875 23134 13962 69490 60152 49087 15632 1625612 
Branch_type:  BRANCH_INDIRECT_CALL:  Total Count: 17915 0 10177 0 4379 5815 25723 277123 
Branch_type:  BRANCH_RETURN:  Total Count: 181951 27454 26633 81288 97689 77443 27793 1694597 
Number of unique branch instructions: 10054
Upper 32 bits: 
aaaa
ffff
ffff0000
Unique upper 32 bits: 3
Unique upper 36 bits: 3
Unique upper 40 bits: 5
Unique upper 44 bits: 32
Unique upper 48 bits: 157
Variant_0 : 1383 0.337646
Variant_1 : 2661 0.649658
Variant_2 : 0 0
Variant_3 : 0 0
Offset_3 4136
Offset_4 251
Offset_5 460
Offset_6 515
Offset_7 583
Offset_8 514
Offset_9 482
Offset_10 381
Offset_11 314
Offset_12 272
Offset_13 215
Offset_14 229
Offset_15 192
Offset_16 224
Offset_17 151
Offset_18 126
Offset_19 240
Offset_20 140
Offset_21 241
Offset_22 397
Offset_23 241
Offset_24 333
Offset_25 88
Offset_47 82
Offset_64 1
decode_dispatch_called: 26686880 74.604
Dispatch_width: 0 14440851 54.1122 40.3699
Dispatch_width: 1 1039810 3.89633 2.90682
Dispatch_width: 2 848564 3.1797 2.37219
Dispatch_width: 3 491476 1.84164 1.37394
Dispatch_width: 4 6662881 24.9669 18.6263
Dispatch_width: 5 82687 0.309841 0.231154
Dispatch_width: 6 3120611 11.6934 8.72377
Empty_decode_cycles: 9084493 25.396
ROB_full_cycles: 10587068 29.5965
Starvation_cycles_per_kilo_instr: 220.637
Starvation_cycles_per_kilo_instr_3: 153.181
Starvation_cycles_per_kilo_instr_0: 129.383
Branch_type_1  (3,1)  (4,9)  (5,37)  (6,71)  (7,114)  (8,130)  (9,127)  (10,99)  (11,70)  (12,43)  (13,5)  (14,2)  (15,3)  (16,4)  (18,1)  (19,4)  (20,2)  (21,1)  (22,3)  (23,2)  (24,10)  (25,12) 
Branch_type_2  (3,1)  (5,1)  (8,3)  (9,3)  (12,1)  (13,1)  (14,1)  (16,3)  (17,2)  (20,2)  (21,2)  (23,5)  (24,1)  (47,38) 
Branch_type_3  (3,4134)  (4,242)  (5,418)  (6,429)  (7,440)  (8,320)  (9,267)  (10,156)  (11,127)  (12,50)  (13,4)  (64,1) 
Branch_type_4  (6,3)  (7,8)  (8,25)  (9,52)  (10,60)  (11,59)  (12,97)  (13,95)  (14,101)  (15,90)  (16,100)  (17,67)  (18,57)  (19,118)  (20,73)  (21,127)  (22,211)  (23,136)  (24,194)  (25,72) 
Branch_type_5  (8,2)  (9,1)  (10,3)  (11,5)  (12,3)  (13,14)  (14,16)  (15,11)  (16,20)  (17,12)  (18,16)  (19,12)  (20,10)  (21,13)  (22,42)  (23,26)  (24,37) 
Branch_type_6  (5,4)  (6,12)  (7,21)  (8,34)  (9,32)  (10,63)  (11,53)  (12,78)  (13,96)  (14,109)  (15,88)  (16,97)  (17,70)  (18,52)  (19,106)  (20,53)  (21,98)  (22,141)  (23,72)  (24,91)  (25,4)  (47,44) 
Unique trigger count: 
Variant_0_evicts_0 : 0
Variant_0_evicts_1 : 0
Variant_0_evicts_2 : 0
Variant_0_evicts_3 : 0
Variant_1_evicts_0 : 0
Variant_1_evicts_1 : 0
Variant_1_evicts_2 : 0
Variant_1_evicts_3 : 0
Variant_2_evicts_0 : 0
Variant_2_evicts_1 : 0
Variant_2_evicts_2 : 0
Variant_2_evicts_3 : 0
Variant_3_evicts_0 : 0
Variant_3_evicts_1 : 0
Variant_3_evicts_2 : 0
Variant_3_evicts_3 : 0
BTB PER SET UNIQUE ADDR: 17 12 8 11 13 9 5 12 11 15 11 16 10 10 12 7 7 11 14 14 9 10 9 8 9 9 12 11 14 10 8 15 13 9 6 11 11 13 8 8 8 9 12 12 7 9 10 9 11 12 13 11 13 13 9 6 5 8 11 10 14 10 8 12 12 13 12 13 12 12 11 13 15 9 11 7 8 12 7 12 13 7 7 17 12 9 10 11 6 11 6 9 11 12 8 14 6 11 13 18 16 16 10 9 12 13 8 12 8 10 8 9 12 10 5 7 11 10 7 9 11 6 5 7 10 13 6 15 16 8 9 14 10 9 11 5 8 11 8 12 8 13 11 10 9 8 13 9 8 13 9 9 8 12 9 16 11 13 9 8 10 9 13 11 13 10 10 7 12 10 7 12 11 7 8 8 8 10 9 9 13 9 8 16 12 14 7 8 11 9 11 10 8 12 13 9 7 9 10 10 8 15 11 12 7 11 13 10 7 15 13 11 10 12 5 13 10 16 10 12 9 11 6 10 10 13 14 12 5 14 11 8 10 12 9 13 12 9 9 8 6 8 12 17 7 14 10 6 18 13 11 17 9 7 12 14 8 6 11 10 8 9 6 13 8 8 9 10 11 6 10 13 8 10 10 9 9 14 10 11 12 11 8 8 10 7 11 15 14 14 8 10 11 12 9 12 7 9 12 8 7 11 10 16 11 10 13 11 11 11 6 17 10 13 14 10 11 13 15 15 6 10 10 12 12 9 12 13 8 8 12 16 6 15 9 13 14 15 10 14 10 7 5 14 15 9 6 6 11 8 12 13 12 14 13 11 10 11 10 8 10 12 10 14 12 13 4 7 14 8 13 7 11 10 10 13 10 11 14 10 8 5 7 12 8 8 16 8 13 10 11 10 9 14 11 7 11 12 15 11 11 12 9 9 12 10 16 15 13 12 12 8 8 14 8 9 7 15 16 14 9 11 14 15 9 12 7 8 11 8 14 7 9 9 11 15 14 7 11 12 11 8 11 11 12 10 8 10 12 12 12 19 11 10 18 13 12 8 8 12 9 12 10 12 13 9 9 9 8 13 13 12 10 12 13 13 10 14 6 8 13 17 12 11 10 15 15 12 15 12 13 14 8 6 9 14 13 13 9 9 12 10 11 16 11 10 8 10 12 15 12 15 11 13 9 13 8 14 8 7 6 7 9 11 8 9 15 9 9 13 15 8 10 13 10 12 9 13 12 10 13 9 10 11 13 8 9 14 11 10 10 11 11 11 7 14 11 10 12 10 9 13 8 10 10 15 12 11 10 10 11 9 15 14 7 11 10 12 11 12 9 8 8 13 10 13 8 11 17 15 10 11 14 13 14 8 9 12 12 8 11 9 8 7 13 9 14 11 8 11 15 13 7 11 6 19 7 5 13 10 13 9 11 10 11 14 8 15 7 15 5 15 14 8 9 12 11 11 9 10 11 13 13 15 11 9 12 10 10 12 8 8 10 17 11 10 9 11 11 8 11 10 17 13 11 11 12 6 9 13 12 7 11 11 13 16 8 12 11 10 8 17 10 12 10 9 7 13 11 16 15 10 8 7 8 9 9 8 9 13 4 15 15 13 7 15 8 8 9 10 12 13 12 8 12 11 15 11 6 13 10 14 9 9 9 11 13 10 10 9 13 10 9 8 7 11 11 12 10 11 11 11 11 11 12 9 11 12 14 10 11 11 11 10 8 9 13 8 12 7 7 9 8 12 11 9 6 12 12 13 12 11 10 11 8 8 13 12 9 10 10 13 8 12 9 12 11 12 7 6 6 6 14 8 12 12 9 8 16 13 15 12 11 11 11 11 14 13 11 10 11 14 16 11 12 14 15 11 5 16 12 16 8 12 8 10 8 8 9 13 16 16 13 8 9 11 13 10 10 10 12 7 13 7 12 12 11 11 9 12 11 7 12 13 7 10 8 7 10 11 12 7 9 7 13 10 12 10 13 11 9 13 12 11 9 7 12 9 10 12 14 8 12 11 10 15 14 10 9 9 8 9 11 7 11 10 11 7 8 12 11 10 16 14 5 11 7 14 17 14 9 10 9 12 12 13 14 14 12 9 13 10 11 9 9 7 6 10 9 7 10 14 10 10 8 11 7 10 12 11 9 13 10 12 10 12 14 10 11 9 12 13 8 14 6 9 8 13 11 10 11 9 10 12 8 10 14 11 12 11 10 13 11 13 12 8 11 10 10 16 8 15 11 15 10 13 12 10 12 13 16 11 12 8 11 8 8 12 9 11 14 15 10 11 12 12 10 9 9 10 13 9 11 9 12 12 5 9 7 8 9 12 13 8 
BTB PER SET COUNT: 493 14 1989 14 20 10 50 75 1464 19 11 632 20257 10 12 8 12 2325 425 22 14 12 506 109 18 12 15 15 374 11 8 19 18 12 7 91 17 22 11 9 10 14 14 101 1459 10 10 9 369 17 20 14 18 22 11 6 5 9 73 10 15 1694 8 15 13 28 16 831 17 19 1453 670 17 10 14 8 10 16 7 17 444 7 10 174 12 39 10 14 1459 15 8 780 11 54 8 25 113 15 17 165 19 23 16 90 1434 18 8 18 19 11 8 14 1010 17 6 9 15 16 1459 9 189 19 5 8 12 25 6 17 22 999 10 20 339 10 15 5 969 14 9 24 9 24 12 13 11 14 94 19 10 27 9 293 1298 15 9 21 405 17 10 12 17 12 89 14 21 13 13 7 16 1465 9 12 12 12 9 12 13 12 794 998 184 9 8 21 16 15 7 11 842 1002 18 11 8 16 17 101 7 9 20 10 11 21 968 14 7 14 17 212 964 1683 18 13 13 16 5 16 12 21 93 17 12 18 7 10 14 14 18 15 5 25 15 8 16 15 1002 112 14 19 11 15 998 9 1009 39 9 391 13 8 240 23 12 28 9 7 19 21 8 7 14 14 11 13 7 16 8 10 9 17 2287 9 12 397 9 13 10 9 14 20 15 15 26 18 11 8 10 7 13 910 15 17 9 13 14 16 12 14 10 11 19 651 7 15 479 21 13 173 28 12 14 14 8 25 13 18 1753 17 13 23 24 23 8 1233 13 15 539 10 13 18 9 14 15 28 38 25 10 19 20 211 13 16 12 1933 6 21 23 13 6 13 12 100 15 14 23 19 19 14 11 18 10 22 12 14 13 22 14 563 4 7 18 12 746 361 12 13 921 13 13 13 22 787 9 5 864 20 8 8 77 14 15 12 422 11 9 1449 13 10 18 12 22 19 16 13 1463 10 14 11 20 311 23 21 1438 9 10 327 11 9 8 19 159 19 13 16 17 21 10 15 11 10 17 9 16 7 11 14 14 33 127 399 13 18 1316 8 32 13 23 11 10 19 15 15 23 28 15 12 252 207 21 10 14 14 10 441 13 25 16 10 8798 18 10 17 14 14 12 22 18 18 13 1515 6 10 17 19 13 15 163 17 19 13 21 18 172 29 9 6 13 1024 446 626 15 9 13 14 12 146 13 12 10 12 17 24 13 510 1440 741 9 19 9 24 11 9 8 7 11 86 9 12 1919 265 12 1936 28 193 15 14 13 26 10 1004 18 664 15 12 11 15 20 9 10 26 13 972 13 12 1193 15 9 20 12 11 20 11 9 102 8 15 15 29 150 17 14 13 11 12 21 21 7 14 11 13 16 19 16 12 16 901 14 20 8 17 25 25 13 109 19 22 34 13 2903 19 263 8 17 11 9 12 15 10 24 26 8 17 19 621 11 12 6 25 7 5 20 10 16 10 17 177 15 22 8 28 7 373 7 238 936 8 12 17 17 13 9 10 14 17 18 974 20 9 15 10 12 12 10 10 13 21 2878 12 9 13 11 370 16 10 22 17 15 21 14 6 398 16 15 7 968 18 233 20 10 12 18 12 10 29 1922 25 16 12 7 24 255 28 23 10 8 8 8 13 10 9 13 19 5 31 1901 22 7 81 9 8 10 12 21 513 411 9 510 16 53 19 8 268 10 107 9 9 9 12 15 13 843 11 449 5752 10 104 9 17 268 13 218 16 998 16 848 19 17 9 401 12 19 14 13 16 16 633 9 13 16 9 20 7 8 12 10 180 12 11 6 15 17 15 16 368 11 13 12 13 23 185 11 1385 1846 15 12 16 10 14 15 16 7 7 7 963 17 8 39 521 10 9 22 1180 241 17 582 15 14 18 16 27 12 91 12 7691 18 1438 19 39 25 2450 5 1740 17 19 8 17 152 10 8 9 13 16 19 23 19 9 11 23 22 999 11 17 24 148 17 9 23 15 17 11 13 17 691 511 20 15 9 13 9 7 14 11 23 7 11 7 16 14 17 14 20 11 12 46 16 11 10 7 17 14 18 18 26 9 14 15 506 339 19 10 9 185 10 13 12 7 17 15 19 12 21 14 11 13 27 862 6 16 7 20 154 22 12 11 11 13 37 18 769 75 16 14 19 1002 508 15 9 10 7 12 10 10 13 31 1387 14 9 2972 7 11 15 13 9 207 13 20 12 406 14 11 15 12 98 977 768 175 6 18 9 25 16 1398 14 17 12 15 11 14 1391 13 15 18 12 28 18 13 300 14 12 15 14 18 1002 17 14 28 15 21 16 1002 16 17 16 18 349 8 1468 10 8 1471 11 1583 16 60 10 12 16 15 18 12 10 10 1752 708 19 10 13 13 9 13 7 8 15 16 15 16 
To predecode: 0
Predecoding something: 0
Predecode request dropped: 0
sizeofblock_0 0
sizeofblock_1 49319
sizeofblock_2 86546
sizeofblock_3 0
sizeofblock_4 0
sizeofblock_5 0
sizeofblock_6 0
sizeofblock_7 0
sizeofblock_8 0
Variant_0 Correct: 1599658 Incorrect: 0 Accuracy: 1
Variant_1 Correct: 5686372 Incorrect: 0 Accuracy: 1
Variant_2 Correct: 0 Incorrect: 0 Accuracy: -nan
Variant_3 Correct: 0 Incorrect: 0 Accuracy: -nan
