
*** ChampSim Multicore Out-of-Order Simulator ***

Warmup Instructions: 50000000
Simulation Instructions: 50000000
Number of CPUs: 1
LLC sets: 2048
LLC ways: 16
Off-chip DRAM Size: 4096 MB Channels: 1 Width: 64-bit Data Rate: 6400 MT/s
CPU 0 runs ./micro_traces/srv554.trace.gz
.gz
ITLB has LRU replacement policy
DTLB has LRU replacement policy
STLB has LRU replacement policy
FDIP Prefetcher at L1I
L1I has LRU replacement policy
L1D has LRU replacement policy
Initialize SRRIP state for L2C
Initialize DRRIP state for LLC
Heartbeat_Variant_0 : 1403 0.228353 per_variant_size: 0 1403 0 0 0 0 0 0 0 
Heartbeat_Variant_1 : 2881 0.468913 per_variant_size: 0 983 1898 0 0 0 0 0 0 
Heartbeat_Variant_2 : 0 0 per_variant_size: 0 0 0 0 0 0 0 0 0 
Heartbeat_Variant_3 : 0 0 per_variant_size: 0 0 0 0 0 0 0 0 0 
Heartbeat_Variant_0_evicts 0 : 5623 1 : 46 2 : 0 3 : 0 
Heartbeat_Variant_1_evicts 0 : 32 1 : 0 2 : 0 3 : 0 
Heartbeat_Variant_2_evicts 0 : 0 1 : 0 2 : 0 3 : 0 
Heartbeat_Variant_3_evicts 0 : 0 1 : 0 2 : 0 3 : 0 
Heartbeat CPU 0 instructions: 10000001 cycles: 2796841 heartbeat IPC: 3.57546 cumulative IPC: 3.57546 (Simulation time: 0 hr 1 min 46 sec) 
Heartbeat_Variant_0 : 1403 0.228353 per_variant_size: 0 1403 0 0 0 0 0 0 0 
Heartbeat_Variant_1 : 2882 0.469076 per_variant_size: 0 984 1898 0 0 0 0 0 0 
Heartbeat_Variant_2 : 0 0 per_variant_size: 0 0 0 0 0 0 0 0 0 
Heartbeat_Variant_3 : 0 0 per_variant_size: 0 0 0 0 0 0 0 0 0 
Heartbeat_Variant_0_evicts 0 : 5656 1 : 0 2 : 0 3 : 0 
Heartbeat_Variant_1_evicts 0 : 0 1 : 0 2 : 0 3 : 0 
Heartbeat_Variant_2_evicts 0 : 0 1 : 0 2 : 0 3 : 0 
Heartbeat_Variant_3_evicts 0 : 0 1 : 0 2 : 0 3 : 0 
Heartbeat CPU 0 instructions: 20000001 cycles: 5594140 heartbeat IPC: 3.57488 cumulative IPC: 3.57517 (Simulation time: 0 hr 3 min 28 sec) 
Heartbeat_Variant_0 : 1403 0.228353 per_variant_size: 0 1403 0 0 0 0 0 0 0 
Heartbeat_Variant_1 : 2888 0.470052 per_variant_size: 0 977 1911 0 0 0 0 0 0 
Heartbeat_Variant_2 : 0 0 per_variant_size: 0 0 0 0 0 0 0 0 0 
Heartbeat_Variant_3 : 0 0 per_variant_size: 0 0 0 0 0 0 0 0 0 
Heartbeat_Variant_0_evicts 0 : 5618 1 : 1 2 : 0 3 : 0 
Heartbeat_Variant_1_evicts 0 : 1 1 : 0 2 : 0 3 : 0 
Heartbeat_Variant_2_evicts 0 : 0 1 : 0 2 : 0 3 : 0 
Heartbeat_Variant_3_evicts 0 : 0 1 : 0 2 : 0 3 : 0 
Heartbeat CPU 0 instructions: 30000000 cycles: 8391788 heartbeat IPC: 3.57443 cumulative IPC: 3.57492 (Simulation time: 0 hr 5 min 6 sec) 
Heartbeat_Variant_0 : 1428 0.232422 per_variant_size: 0 1428 0 0 0 0 0 0 0 
Heartbeat_Variant_1 : 2965 0.482585 per_variant_size: 0 977 1988 0 0 0 0 0 0 
Heartbeat_Variant_2 : 0 0 per_variant_size: 0 0 0 0 0 0 0 0 0 
Heartbeat_Variant_3 : 0 0 per_variant_size: 0 0 0 0 0 0 0 0 0 
Heartbeat_Variant_0_evicts 0 : 5551 1 : 9 2 : 0 3 : 0 
Heartbeat_Variant_1_evicts 0 : 10 1 : 0 2 : 0 3 : 0 
Heartbeat_Variant_2_evicts 0 : 0 1 : 0 2 : 0 3 : 0 
Heartbeat_Variant_3_evicts 0 : 0 1 : 0 2 : 0 3 : 0 
Heartbeat CPU 0 instructions: 40000002 cycles: 11188867 heartbeat IPC: 3.57516 cumulative IPC: 3.57498 (Simulation time: 0 hr 6 min 48 sec) 
Heartbeat_Variant_0 : 1428 0.232422 per_variant_size: 0 1428 0 0 0 0 0 0 0 
Heartbeat_Variant_1 : 2967 0.48291 per_variant_size: 0 983 1984 0 0 0 0 0 0 
Heartbeat_Variant_2 : 0 0 per_variant_size: 0 0 0 0 0 0 0 0 0 
Heartbeat_Variant_3 : 0 0 per_variant_size: 0 0 0 0 0 0 0 0 0 
Heartbeat_Variant_0_evicts 0 : 5595 1 : 0 2 : 0 3 : 0 
Heartbeat_Variant_1_evicts 0 : 0 1 : 0 2 : 0 3 : 0 
Heartbeat_Variant_2_evicts 0 : 0 1 : 0 2 : 0 3 : 0 
Heartbeat_Variant_3_evicts 0 : 0 1 : 0 2 : 0 3 : 0 
Heartbeat CPU 0 instructions: 50000000 cycles: 13986020 heartbeat IPC: 3.57506 cumulative IPC: 3.575 (Simulation time: 0 hr 8 min 28 sec) 

Warmup complete CPU 0 instructions: 50000003 cycles: 13986021 (Simulation time: 0 hr 8 min 28 sec) 

Cycle: 20000000 FTQ IN: 58384123 FTQ occupancy: 20.5701 DECODE IN: 58384123 DECODE occupancy: 53.4717 ROB IN: 58384123 ROB occupancy: 318.694 ROB OUT: 58383778
Heartbeat_Variant_0 : 1433 0.233236 per_variant_size: 0 1433 0 0 0 0 0 0 0 
Heartbeat_Variant_1 : 2968 0.483073 per_variant_size: 0 989 1979 0 0 0 0 0 0 
Heartbeat_Variant_2 : 0 0 per_variant_size: 0 0 0 0 0 0 0 0 0 
Heartbeat_Variant_3 : 0 0 per_variant_size: 0 0 0 0 0 0 0 0 0 
Heartbeat_Variant_0_evicts 0 : 5599 1 : 5 2 : 0 3 : 0 
Heartbeat_Variant_1_evicts 0 : 3 1 : 0 2 : 0 3 : 0 
Heartbeat_Variant_2_evicts 0 : 0 1 : 0 2 : 0 3 : 0 
Heartbeat_Variant_3_evicts 0 : 0 1 : 0 2 : 0 3 : 0 
Heartbeat CPU 0 instructions: 60000001 cycles: 21153142 heartbeat IPC: 1.39526 cumulative IPC: 1.39526 (Simulation time: 0 hr 10 min 26 sec) 
Heartbeat_Variant_0 : 1434 0.233398 per_variant_size: 0 1434 0 0 0 0 0 0 0 
Heartbeat_Variant_1 : 2970 0.483398 per_variant_size: 0 987 1983 0 0 0 0 0 0 
Heartbeat_Variant_2 : 0 0 per_variant_size: 0 0 0 0 0 0 0 0 0 
Heartbeat_Variant_3 : 0 0 per_variant_size: 0 0 0 0 0 0 0 0 0 
Heartbeat_Variant_0_evicts 0 : 5571 1 : 0 2 : 0 3 : 0 
Heartbeat_Variant_1_evicts 0 : 0 1 : 0 2 : 0 3 : 0 
Heartbeat_Variant_2_evicts 0 : 0 1 : 0 2 : 0 3 : 0 
Heartbeat_Variant_3_evicts 0 : 0 1 : 0 2 : 0 3 : 0 
Heartbeat CPU 0 instructions: 70000002 cycles: 28389349 heartbeat IPC: 1.38194 cumulative IPC: 1.38857 (Simulation time: 0 hr 12 min 25 sec) 
Cycle: 30000000 FTQ IN: 13869953 FTQ occupancy: 15.0437 DECODE IN: 13869953 DECODE occupancy: 38.2398 ROB IN: 13869953 ROB occupancy: 248.397 ROB OUT: 13870231
Heartbeat_Variant_0 : 1435 0.233561 per_variant_size: 0 1435 0 0 0 0 0 0 0 
Heartbeat_Variant_1 : 2977 0.484538 per_variant_size: 0 978 1999 0 0 0 0 0 0 
Heartbeat_Variant_2 : 0 0 per_variant_size: 0 0 0 0 0 0 0 0 0 
Heartbeat_Variant_3 : 0 0 per_variant_size: 0 0 0 0 0 0 0 0 0 
Heartbeat_Variant_0_evicts 0 : 5514 1 : 0 2 : 0 3 : 0 
Heartbeat_Variant_1_evicts 0 : 0 1 : 0 2 : 0 3 : 0 
Heartbeat_Variant_2_evicts 0 : 0 1 : 0 2 : 0 3 : 0 
Heartbeat_Variant_3_evicts 0 : 0 1 : 0 2 : 0 3 : 0 
Heartbeat CPU 0 instructions: 80000000 cycles: 35532787 heartbeat IPC: 1.39989 cumulative IPC: 1.39232 (Simulation time: 0 hr 14 min 27 sec) 
Cycle: 40000000 FTQ IN: 13864590 FTQ occupancy: 15.1456 DECODE IN: 13864568 DECODE occupancy: 38.5445 ROB IN: 13864537 ROB occupancy: 250.016 ROB OUT: 13864413
Heartbeat_Variant_0 : 1435 0.233561 per_variant_size: 0 1435 0 0 0 0 0 0 0 
Heartbeat_Variant_1 : 2980 0.485026 per_variant_size: 0 985 1995 0 0 0 0 0 0 
Heartbeat_Variant_2 : 0 0 per_variant_size: 0 0 0 0 0 0 0 0 0 
Heartbeat_Variant_3 : 0 0 per_variant_size: 0 0 0 0 0 0 0 0 0 
Heartbeat_Variant_0_evicts 0 : 5602 1 : 1 2 : 0 3 : 0 
Heartbeat_Variant_1_evicts 0 : 1 1 : 0 2 : 0 3 : 0 
Heartbeat_Variant_2_evicts 0 : 0 1 : 0 2 : 0 3 : 0 
Heartbeat_Variant_3_evicts 0 : 0 1 : 0 2 : 0 3 : 0 
Heartbeat CPU 0 instructions: 90000000 cycles: 42769111 heartbeat IPC: 1.38192 cumulative IPC: 1.3897 (Simulation time: 0 hr 16 min 27 sec) 
Heartbeat_Variant_0 : 1435 0.233561 per_variant_size: 0 1435 0 0 0 0 0 0 0 
Heartbeat_Variant_1 : 2980 0.485026 per_variant_size: 0 981 1999 0 0 0 0 0 0 
Heartbeat_Variant_2 : 0 0 per_variant_size: 0 0 0 0 0 0 0 0 0 
Heartbeat_Variant_3 : 0 0 per_variant_size: 0 0 0 0 0 0 0 0 0 
Heartbeat_Variant_0_evicts 0 : 5558 1 : 0 2 : 0 3 : 0 
Heartbeat_Variant_1_evicts 0 : 0 1 : 0 2 : 0 3 : 0 
Heartbeat_Variant_2_evicts 0 : 0 1 : 0 2 : 0 3 : 0 
Heartbeat_Variant_3_evicts 0 : 0 1 : 0 2 : 0 3 : 0 
Heartbeat CPU 0 instructions: 100000001 cycles: 49905818 heartbeat IPC: 1.40121 cumulative IPC: 1.39199 (Simulation time: 0 hr 18 min 26 sec) 
Finished CPU 0 instructions: 50000002 cycles: 35919798 cumulative IPC: 1.39199 (Simulation time: 0 hr 18 min 26 sec) 

ChampSim completed all CPUs

Region of Interest Statistics

CPU 0 cumulative IPC: 1.39199 instructions: 50000002 cycles: 35919798
 Fetch stage stalled: 45.7767  Sim cycles: 35919798 fetch stall cycle: 16442889
 Empty decode stage: 24.6315  Sim cycles: 35919798 fetch stall cycle: 8847583
ITLB TOTAL     ACCESS:    5842253  HIT:    5345273  MISS:     496980  HIT %:    91.4934  MISS %:    8.50665   MPKI: 9.9396
ITLB LOAD TRANSLATION INSTRUCTION	ACCESS:    5706851  HIT:    5209871  MISS:     496980  HIT %:    91.2915  MISS %:    8.70848  MPKI: 9.9396
ITLB TRANSLATION FROM L1D PREFETCHER INSTRUCTION	ACCESS:     135402  HIT:     135402  MISS:          0  HIT %:        100  MISS %:          0  MPKI: 0

ITLB AVERAGE MISS LATENCY: 9.05901 cycles
ITLB RQ	ACCESS:    7949598	FORWARD:          0	MERGED:    1623550	TO_CACHE:    6326048

DTLB TOTAL     ACCESS:    8959148  HIT:    8482940  MISS:     476208  HIT %:    94.6847  MISS %:    5.31533   MPKI: 9.52416
DTLB LOAD TRANSLATION DATA	ACCESS:    8959148  HIT:    8482940  MISS:     476208  HIT %:    94.6847  MISS %:    5.31533  MPKI: 9.52416

DTLB AVERAGE MISS LATENCY: 9.31266 cycles
DTLB RQ	ACCESS:   13335094	FORWARD:          0	MERGED:    4338906	TO_CACHE:    8996188

STLB TOTAL     ACCESS:    1216539  HIT:    1214253  MISS:       2286  HIT %:    99.8121  MISS %:    0.18791   MPKI: 0.04572
STLB LOAD TRANSLATION INSTRUCTION	ACCESS:     496980  HIT:     496509  MISS:        471  HIT %:    99.9052  MISS %:  0.0947724  MPKI: 0.00942
STLB LOAD TRANSLATION DATA	ACCESS:     476208  HIT:     474403  MISS:       1805  HIT %:     99.621  MISS %:   0.379036  MPKI: 0.0361
STLB TRANSLATION FROM L1D PREFETCHER DATA	ACCESS:     243351  HIT:     243341  MISS:         10  HIT %:    99.9959  MISS %: 0.00410929  MPKI: 0.0002

STLB AVERAGE MISS LATENCY: 64.9576 cycles
STLB RQ	ACCESS:    1332351	FORWARD:          0	MERGED:     115773	TO_CACHE:    1216578

STLB Hit, L1D data hit: 0
STLB Hit, L2C data hit: 0
STLB Hit, LLC data hit: 0
STLB Hit, LLC data miss: 0
STLB STLB hints to L2: 0
L1D TOTAL     ACCESS:   13074892  HIT:   11959468  MISS:    1115424  HIT %:     91.469  MISS %:    8.53104   MPKI: 22.3085
L1D LOAD DATA	ACCESS:    6541903  HIT:    5804765  MISS:     737138  HIT %:    88.7321  MISS %:    11.2679  MPKI: 14.7428
L1D RFO DATA	ACCESS:    6212511  HIT:    5927228  MISS:     285283  HIT %:    95.4079  MISS %:    4.59207  MPKI: 5.70566
L1D PREFETCH DATA	ACCESS:     320478  HIT:     227475  MISS:      93003  HIT %:    70.9799  MISS %:    29.0201  MPKI: 1.86006

L1D PREFETCH  REQUESTED:     718729  ISSUED:     718729  USEFUL:      33053  USELESS:      67730
L1D USEFUL LOAD PREFETCHES:      33053 PREFETCH ISSUED TO LOWER LEVEL:     100804  ACCURACY: 32.7894
 TIMELY PREFETCHES:      33053 LATE PREFETCHES: 7747 DROPPED PREFETCHES: 5
L1D AVERAGE MISS LATENCY: 222267 cycles
L1D RQ	ACCESS:   10680333	FORWARD:          0	MERGED:    3933728	TO_CACHE:    6577854
L1D WQ	ACCESS:    6956692	FORWARD:     169154	MERGED:     199452	TO_CACHE:    6757240
L1D PQ	ACCESS:     359566	FORWARD:          0	MERGED:          0	TO_CACHE:     359163

L1D UNIQUE REGIONS ACCESSED: 0
L1D REGIONS CONFLICTS: 0
L1D Cross Page Prefetch Requests: 5509
L1D Same Page Prefetch Requests: 742291
L1D ROI Sum of L1D PQ occupancy: 4559429
L1D PREFETCHES PUSHED FROM L2C: 0
L1I TOTAL     ACCESS:    7128442  HIT:    4352916  MISS:    2775526  HIT %:    61.0641  MISS %:    38.9359   MPKI: 55.5105
L1I LOAD INSTRUCTION	ACCESS:    6460666  HIT:    3685140  MISS:    2775526  HIT %:    57.0396  MISS %:    42.9604  MPKI: 55.5105
L1I PREFETCH INSTRUCTION	ACCESS:     667776  HIT:     667776  MISS:          0  HIT %:        100  MISS %:          0  MPKI: 0

L1I PREFETCH  REQUESTED:    1616104  ISSUED:    1616104  USEFUL:          0  USELESS:          0
L1I USEFUL LOAD PREFETCHES:          0 PREFETCH ISSUED TO LOWER LEVEL:          0  ACCURACY: -nan
 TIMELY PREFETCHES:          0 LATE PREFETCHES: 0 DROPPED PREFETCHES: 0
L1I AVERAGE MISS LATENCY: 17.4923 cycles
L1I RQ	ACCESS:    9570028	FORWARD:          0	MERGED:    2805572	TO_CACHE:    6764456
L1I PQ	ACCESS:    1616104	FORWARD:          0	MERGED:     430962	TO_CACHE:    1185142

L1BTB TOTAL     ACCESS:    5670501  HIT:    2027492  MISS:    3643009  HIT %:    35.7551  MISS %:    64.2449   MPKI: 72.8602
L1BTB BRANCH_DIRECT_JUMP	ACCESS:     547716 HIT:     144129 MISS:     403587 AVERAGE STALL: 57.1892 AVERAGE FETCH STALL: 13.4675 AVERAGE FETCH QUEUE STALL: 19.907 AVERAGE DECODE STALL: 22.8752 AVERAGE EXECUTE STALL: 2.30873e+15
L1BTB BRANCH_INDIRECT	ACCESS:     182663 HIT:      65641 MISS:     117022 AVERAGE STALL: 111.285 AVERAGE FETCH STALL: 10.8773 AVERAGE FETCH QUEUE STALL: 18.6987 AVERAGE DECODE STALL: 13.5945 AVERAGE EXECUTE STALL: 67.1512
L1BTB BRANCH_CONDITIONAL	ACCESS:    2696662 HIT:    1400582 MISS:    1296080 AVERAGE STALL: 59.554 AVERAGE FETCH STALL: 21.5594 AVERAGE FETCH QUEUE STALL: 20.524 AVERAGE DECODE STALL: 16.776 AVERAGE EXECUTE STALL: 5.23015e+15
L1BTB BRANCH_DIRECT_CALL	ACCESS:     949522 HIT:     105242 MISS:     844280 AVERAGE STALL: 86.4723 AVERAGE FETCH STALL: 15.8579 AVERAGE FETCH QUEUE STALL: 51.6118 AVERAGE DECODE STALL: 18.0752 AVERAGE EXECUTE STALL: 9.6378e+15
L1BTB BRANCH_INDIRECT_CALL	ACCESS:     172209 HIT:      21148 MISS:     151061 AVERAGE STALL: 142.068 AVERAGE FETCH STALL: 12.568 AVERAGE FETCH QUEUE STALL: 18.6773 AVERAGE DECODE STALL: 12.3252 AVERAGE EXECUTE STALL: 98.0061
L1BTB BRANCH_RETURN	ACCESS:    1121729 HIT:     290750 MISS:     830979 AVERAGE STALL: 50.1748 AVERAGE FETCH STALL: 15.8698 AVERAGE FETCH QUEUE STALL: 5.76224 AVERAGE DECODE STALL: 6.60808 AVERAGE EXECUTE STALL: 4.25403e+14
L1BTB BRANCH_OTHER ACCESS:          0 HIT:          0 MISS:          0 AVERAGE STALL: -nan AVERAGE FETCH STALL: -nan AVERAGE FETCH QUEUE STALL: -nan AVERAGE DECODE STALL: -nan AVERAGE EXECUTE STALL: -nan
L1BTB TOTAL ROB OCCUPANCY AT BTB MISS: 2.6235

L2BTB TOTAL     ACCESS:    3617689  HIT:    3553699  MISS:      63990  HIT %:    98.2312  MISS %:    1.76881   MPKI: 1.2798
L2BTB BRANCH_DIRECT_JUMP	ACCESS:     399483 HIT:     395595 MISS:       3888 AVERAGE STALL: 57.1892 AVERAGE FETCH STALL: 13.4675 AVERAGE FETCH QUEUE STALL: 19.907 AVERAGE DECODE STALL: 22.8752 AVERAGE EXECUTE STALL: 2.30873e+15
L2BTB BRANCH_INDIRECT	ACCESS:     106706 HIT:     104010 MISS:       2696 AVERAGE STALL: 111.285 AVERAGE FETCH STALL: 10.8773 AVERAGE FETCH QUEUE STALL: 18.6987 AVERAGE DECODE STALL: 13.5945 AVERAGE EXECUTE STALL: 67.1512
L2BTB BRANCH_CONDITIONAL	ACCESS:    1296080 HIT:    1292539 MISS:       3541 AVERAGE STALL: 59.554 AVERAGE FETCH STALL: 21.5594 AVERAGE FETCH QUEUE STALL: 20.524 AVERAGE DECODE STALL: 16.776 AVERAGE EXECUTE STALL: 5.23015e+15
L2BTB BRANCH_DIRECT_CALL	ACCESS:     844279 HIT:     842359 MISS:       1920 AVERAGE STALL: 86.4723 AVERAGE FETCH STALL: 15.8579 AVERAGE FETCH QUEUE STALL: 51.6118 AVERAGE DECODE STALL: 18.0752 AVERAGE EXECUTE STALL: 9.6378e+15
L2BTB BRANCH_INDIRECT_CALL	ACCESS:     141578 HIT:     131595 MISS:       9983 AVERAGE STALL: 142.068 AVERAGE FETCH STALL: 12.568 AVERAGE FETCH QUEUE STALL: 18.6773 AVERAGE DECODE STALL: 12.3252 AVERAGE EXECUTE STALL: 98.0061
L2BTB BRANCH_RETURN	ACCESS:     829563 HIT:     787601 MISS:      41962 AVERAGE STALL: 50.1748 AVERAGE FETCH STALL: 15.8698 AVERAGE FETCH QUEUE STALL: 5.76224 AVERAGE DECODE STALL: 6.60808 AVERAGE EXECUTE STALL: 4.25403e+14
L2BTB BRANCH_OTHER ACCESS:          0 HIT:          0 MISS:          0 AVERAGE STALL: -nan AVERAGE FETCH STALL: -nan AVERAGE FETCH QUEUE STALL: -nan AVERAGE DECODE STALL: -nan AVERAGE EXECUTE STALL: -nan
L2BTB TOTAL ROB OCCUPANCY AT BTB MISS: 149.358

L2C TOTAL     ACCESS:    4502465  HIT:    3990713  MISS:     511752  HIT %:     88.634  MISS %:     11.366   MPKI: 10.235
L2C LOAD INSTRUCTION	ACCESS:    2775526  HIT:    2492068  MISS:     283458  HIT %:    89.7872  MISS %:    10.2128  MPKI: 5.66916
L2C LOAD TRANSLATION INSTRUCTION	ACCESS:        506  HIT:        166  MISS:        340  HIT %:    32.8063  MISS %:    67.1937  MPKI: 0.0068
L2C LOAD DATA	ACCESS:     729353  HIT:     652853  MISS:      76500  HIT %:    89.5113  MISS %:    10.4887  MPKI: 1.53
L2C RFO DATA	ACCESS:     285206  HIT:     225861  MISS:      59345  HIT %:    79.1922  MISS %:    20.8078  MPKI: 1.1869
L2C PREFETCH DATA	ACCESS:     187259  HIT:     114393  MISS:      72866  HIT %:    61.0881  MISS %:    38.9119  MPKI: 1.45732
L2C WRITEBACK DATA	ACCESS:     522722  HIT:     504799  MISS:      17923  HIT %:    96.5712  MISS %:    3.42878  MPKI: 0.35846
L2C LOAD TRANSLATION DATA	ACCESS:       1867  HIT:        558  MISS:       1309  HIT %:    29.8875  MISS %:    70.1125  MPKI: 0.02618
L2C TRANSLATION FROM L1D PREFETCHER DATA	ACCESS:         26  HIT:         15  MISS:         11  HIT %:    57.6923  MISS %:    42.3077  MPKI: 0.00022

L2C PREFETCH  REQUESTED:      93756  ISSUED:      93756  USEFUL:       8051  USELESS:      65325
L2C USEFUL LOAD PREFETCHES:       8051 PREFETCH ISSUED TO LOWER LEVEL:      73344  ACCURACY: 10.977
 TIMELY PREFETCHES:       8051 LATE PREFETCHES: 478 DROPPED PREFETCHES: 0
L2C AVERAGE MISS LATENCY: 37.2553 cycles
L2C RQ	ACCESS:    3792547	FORWARD:          0	MERGED:          0	TO_CACHE:    3792486
L2C WQ	ACCESS:     522722	FORWARD:         61	MERGED:          0	TO_CACHE:     522722
L2C PQ	ACCESS:     194560	FORWARD:          0	MERGED:       3515	TO_CACHE:     191045

L2C Dense regions hint from L2: 0
PSCL5 TOTAL     ACCESS:       4586  HIT:       2293  MISS:       2293  HIT %:         50  MISS %:         50   MPKI: 0.04586
PSCL5 LOAD TRANSLATION INSTRUCTION	ACCESS:       4534  HIT:       2267  MISS:       2267  HIT %:         50  MISS %:         50  MPKI: 0.04534
PSCL5 TRANSLATION FROM L1D PREFETCHER INSTRUCTION	ACCESS:         52  HIT:         26  MISS:         26  HIT %:         50  MISS %:         50  MPKI: 0.00052


PSCL4 TOTAL     ACCESS:       4458  HIT:       2227  MISS:       2231  HIT %:    49.9551  MISS %:    50.0449   MPKI: 0.04462
PSCL4 LOAD TRANSLATION INSTRUCTION	ACCESS:       4279  HIT:       2207  MISS:       2072  HIT %:    51.5775  MISS %:    48.4225  MPKI: 0.04144
PSCL4 TRANSLATION FROM L1D PREFETCHER INSTRUCTION	ACCESS:         40  HIT:         20  MISS:         20  HIT %:         50  MISS %:         50  MPKI: 0.0004
PSCL4 LOAD TRANSLATION DATA	ACCESS:        139  HIT:          0  MISS:        139  HIT %:          0  MISS %:        100  MPKI: 0.00278


PSCL3 TOTAL     ACCESS:       4347  HIT:       2166  MISS:       2181  HIT %:    49.8275  MISS %:    50.1725   MPKI: 0.04362
PSCL3 LOAD TRANSLATION INSTRUCTION	ACCESS:       3104  HIT:       2146  MISS:        958  HIT %:    69.1366  MISS %:    30.8634  MPKI: 0.01916
PSCL3 TRANSLATION FROM L1D PREFETCHER INSTRUCTION	ACCESS:         26  HIT:         20  MISS:          6  HIT %:    76.9231  MISS %:    23.0769  MPKI: 0.00012
PSCL3 LOAD TRANSLATION DATA	ACCESS:       1203  HIT:          0  MISS:       1203  HIT %:          0  MISS %:        100  MPKI: 0.02406
PSCL3 TRANSLATION FROM L1D PREFETCHER DATA	ACCESS:         14  HIT:          0  MISS:         14  HIT %:          0  MISS %:        100  MPKI: 0.00028


PSCL2 TOTAL     ACCESS:       4498  HIT:       2205  MISS:       2293  HIT %:    49.0218  MISS %:    50.9782   MPKI: 0.04586
PSCL2 LOAD TRANSLATION INSTRUCTION	ACCESS:       2650  HIT:       2179  MISS:        471  HIT %:    82.2264  MISS %:    17.7736  MPKI: 0.00942
PSCL2 TRANSLATION FROM L1D PREFETCHER INSTRUCTION	ACCESS:         26  HIT:         26  MISS:          0  HIT %:        100  MISS %:          0  MPKI: 0
PSCL2 LOAD TRANSLATION DATA	ACCESS:       1796  HIT:          0  MISS:       1796  HIT %:          0  MISS %:        100  MPKI: 0.03592
PSCL2 TRANSLATION FROM L1D PREFETCHER DATA	ACCESS:         26  HIT:          0  MISS:         26  HIT %:          0  MISS %:        100  MPKI: 0.00052


LLC TOTAL     ACCESS:     577094  HIT:     550150  MISS:      26944  HIT %:    95.3311  MISS %:    4.66891   MPKI: 0.53888
LLC LOAD INSTRUCTION	ACCESS:     283458  HIT:     282795  MISS:        663  HIT %:    99.7661  MISS %:   0.233897  MPKI: 0.01326
LLC LOAD TRANSLATION INSTRUCTION	ACCESS:        340  HIT:        329  MISS:         11  HIT %:    96.7647  MISS %:    3.23529  MPKI: 0.00022
LLC LOAD DATA	ACCESS:      76086  HIT:      72796  MISS:       3290  HIT %:    95.6759  MISS %:    4.32405  MPKI: 0.0658
LLC RFO DATA	ACCESS:      59270  HIT:      46375  MISS:      12895  HIT %:    78.2436  MISS %:    21.7564  MPKI: 0.2579
LLC PREFETCH DATA	ACCESS:      73342  HIT:      63614  MISS:       9728  HIT %:    86.7361  MISS %:    13.2639  MPKI: 0.19456
LLC WRITEBACK DATA	ACCESS:      83278  HIT:      82983  MISS:        295  HIT %:    99.6458  MISS %:   0.354235  MPKI: 0.0059
LLC LOAD TRANSLATION DATA	ACCESS:       1309  HIT:       1247  MISS:         62  HIT %:    95.2636  MISS %:    4.73644  MPKI: 0.00124
LLC TRANSLATION FROM L1D PREFETCHER DATA	ACCESS:         11  HIT:         11  MISS:          0  HIT %:        100  MISS %:          0  MPKI: 0

LLC AVERAGE MISS LATENCY: 156.465 cycles
LLC RQ	ACCESS:     420485	FORWARD:          0	MERGED:          0	TO_CACHE:     420474
LLC WQ	ACCESS:      83278	FORWARD:         13	MERGED:          0	TO_CACHE:      83278
LLC PQ	ACCESS:      73344	FORWARD:          0	MERGED:          0	TO_CACHE:      73342

LLC Dense regions hint to LLC: 0

RAW hits: 1955806
Loads Generated: 12636139
Loads sent to L1D: 10680333
Stores Generated: 6956688
Stores sent to L1D: 6956692
Major fault: 0 Minor fault: 2586
Allocated PAGES: 2586

stream: 
stream:times selected: 1177922
stream:pref_filled: 120972
stream:pref_useful: 23775
stream:pref_late: 6413
stream:misses: 6722
stream:misses_by_poll: 0

CS: 
CS:times selected: 176606
CS:pref_filled: 58146
CS:pref_useful: 35447
CS:pref_late: 6908
CS:misses: 16271
CS:misses_by_poll: 6

CPLX: 
CPLX:times selected: 1000198
CPLX:pref_filled: 19961
CPLX:pref_useful: 4796
CPLX:pref_late: 3011
CPLX:misses: 92085
CPLX:misses_by_poll: 0

NL_L1: 
NL:times selected: 16607
NL:pref_filled: 612
NL:pref_useful: 225
NL:pref_late: 167
NL:misses: 777
NL:misses_by_poll: 0

total selections: 2371333
total_filled: 93003
total_useful: 33053
total_late: 17721
total_polluted: 6
total_misses_after_warmup: 773089
conflicts: 5520852

test: 116043

DRAM Statistics
 CHANNEL 0
 RQ ROW_BUFFER_HIT:       9966  ROW_BUFFER_MISS:      16668
 DBUS_CONGESTED:         19
 WQ ROW_BUFFER_HIT:       1259  ROW_BUFFER_MISS:      11723  FULL:          0

 AVG_CONGESTED_CYCLE: 6

CPU 0 Branch Prediction Accuracy: 99.8223% MPKI: 0.32532 Average ROB Occupancy at Mispredict: 195.381
Branch types
NOT_BRANCH: 40848945 81.6979%
BRANCH_DIRECT_JUMP: 547716 1.09543%
BRANCH_INDIRECT: 182663 0.365326%
BRANCH_CONDITIONAL: 6177227 12.3545%
BRANCH_DIRECT_CALL: 949522 1.89904%
BRANCH_INDIRECT_CALL: 172209 0.344418%
BRANCH_RETURN: 1121729 2.24346%
BRANCH_OTHER: 0 0%

DRAM PAGES: 1048576
Allocated PAGES: 2586
Average_ROB_Occupancy: 250.575
Average_Decode_Occupancy: 38.3738
Average_FTQ_Occupancy: 15.0473
Indirect max targets: 14 Average targets: 1.15541
Branch_type:  BRANCH_DIRECT_JUMP:  Count Percentage: 3.81 6.01417 3.70827 3.2746 7.49856 5.44858 6.51572 63.7301 
Branch_type:  BRANCH_INDIRECT:  Count Percentage: 11.7602 3.41528 2.53817 0 13.0346 2.80977 16.5673 49.8747 
Branch_type:  BRANCH_CONDITIONAL:  Count Percentage: 21.1514 6.75627 2.12476 3.05652 3.44816 4.56296 3.26865 55.6313 
Branch_type:  BRANCH_DIRECT_CALL:  Count Percentage: 0.889785 1.27293 0.737448 2.27171 4.11494 2.83809 0.887192 86.9879 
Branch_type:  BRANCH_INDIRECT_CALL:  Count Percentage: 9.56314 0 2.99793 0.00378785 0 2.32253 0 85.1126 
Branch_type:  BRANCH_RETURN:  Count Percentage: 4.51441 4.8693 2.14382 2.993 4.19636 5.27514 3.53702 72.471 
Branch_type:  BRANCH_DIRECT_JUMP:  Total Count: 41758 65916 40643 35890 82185 59717 71413 698489 
Branch_type:  BRANCH_INDIRECT:  Total Count: 43039 12499 9289 0 47703 10283 60632 182528 
Branch_type:  BRANCH_CONDITIONAL:  Total Count: 2612555 834514 262444 377532 425906 563602 403734 6871401 
Branch_type:  BRANCH_DIRECT_CALL:  Total Count: 16816 24057 13937 42933 77768 53637 16767 1643980 
Branch_type:  BRANCH_INDIRECT_CALL:  Total Count: 32821 0 10289 13 0 7971 0 292109 
Branch_type:  BRANCH_RETURN:  Total Count: 100848 108776 47891 66861 93743 117842 79014 1618938 
Number of unique branch instructions: 10076
Upper 32 bits: 
aaaa
ffff
ffff0000
Unique upper 32 bits: 3
Unique upper 36 bits: 3
Unique upper 40 bits: 5
Unique upper 44 bits: 32
Unique upper 48 bits: 155
Variant_0 : 1435 0.233561
Variant_1 : 2980 0.485026
Variant_2 : 0 0
Variant_3 : 0 0
Offset_3 4161
Offset_4 247
Offset_5 461
Offset_6 511
Offset_7 599
Offset_8 510
Offset_9 465
Offset_10 386
Offset_11 319
Offset_12 283
Offset_13 218
Offset_14 237
Offset_15 190
Offset_16 224
Offset_17 157
Offset_18 122
Offset_19 249
Offset_20 139
Offset_21 235
Offset_22 405
Offset_23 241
Offset_24 331
Offset_25 92
Offset_47 82
Offset_64 2
decode_dispatch_called: 26357871 73.3798
Dispatch_width: 0 14203486 53.8871 39.5422
Dispatch_width: 1 1027909 3.89982 2.86168
Dispatch_width: 2 841015 3.19075 2.34137
Dispatch_width: 3 494908 1.87765 1.37781
Dispatch_width: 4 6420401 24.3586 17.8743
Dispatch_width: 5 97177 0.368683 0.270539
Dispatch_width: 6 3272975 12.4174 9.1119
Empty_decode_cycles: 9561927 26.6202
ROB_full_cycles: 10156848 28.2765
Starvation_cycles_per_kilo_instr: 224.9
Starvation_cycles_per_kilo_instr_3: 159.724
Starvation_cycles_per_kilo_instr_0: 136.086
Branch_type_1  (3,1)  (4,9)  (5,37)  (6,71)  (7,118)  (8,129)  (9,122)  (10,99)  (11,69)  (12,43)  (13,8)  (14,2)  (15,3)  (16,4)  (18,1)  (19,4)  (20,2)  (21,1)  (22,3)  (23,2)  (24,10)  (25,12) 
Branch_type_2  (3,1)  (4,1)  (5,1)  (8,3)  (9,3)  (12,1)  (13,1)  (14,1)  (16,3)  (17,2)  (20,2)  (21,2)  (23,5)  (24,1)  (47,37) 
Branch_type_3  (3,4159)  (4,237)  (5,419)  (6,425)  (7,452)  (8,317)  (9,251)  (10,156)  (11,124)  (12,50)  (13,7)  (20,1)  (64,1) 
Branch_type_4  (6,3)  (7,8)  (8,25)  (9,52)  (10,62)  (11,63)  (12,104)  (13,93)  (14,107)  (15,90)  (16,100)  (17,72)  (18,55)  (19,124)  (20,71)  (21,124)  (22,216)  (23,136)  (24,191)  (25,76)  (64,1) 
Branch_type_5  (8,2)  (9,1)  (10,4)  (11,6)  (12,3)  (13,14)  (14,16)  (15,11)  (16,20)  (17,11)  (18,16)  (19,12)  (20,11)  (21,13)  (22,42)  (23,26)  (24,37) 
Branch_type_6  (5,4)  (6,12)  (7,21)  (8,34)  (9,36)  (10,65)  (11,57)  (12,82)  (13,95)  (14,111)  (15,86)  (16,97)  (17,72)  (18,50)  (19,109)  (20,52)  (21,95)  (22,144)  (23,72)  (24,92)  (25,4)  (47,45) 
Unique trigger count: 
Variant_0_evicts_0 : 0
Variant_0_evicts_1 : 0
Variant_0_evicts_2 : 0
Variant_0_evicts_3 : 0
Variant_1_evicts_0 : 0
Variant_1_evicts_1 : 0
Variant_1_evicts_2 : 0
Variant_1_evicts_3 : 0
Variant_2_evicts_0 : 0
Variant_2_evicts_1 : 0
Variant_2_evicts_2 : 0
Variant_2_evicts_3 : 0
Variant_3_evicts_0 : 0
Variant_3_evicts_1 : 0
Variant_3_evicts_2 : 0
Variant_3_evicts_3 : 0
BTB PER SET UNIQUE ADDR: 5 3 4 7 6 4 5 5 5 8 5 5 3 4 5 5 4 7 5 4 5 6 5 6 5 3 4 5 5 6 3 6 4 8 6 4 5 4 4 5 5 4 5 5 5 6 6 7 6 4 5 5 8 5 7 4 6 4 4 5 6 4 5 5 6 3 4 7 8 4 4 4 5 6 5 6 6 6 6 6 7 5 4 7 5 7 4 5 7 5 3 5 4 5 6 5 6 6 5 4 6 5 6 8 6 6 4 4 4 5 6 4 6 5 5 5 5 5 3 6 8 7 5 5 7 6 3 7 8 4 6 6 7 4 6 6 5 3 5 6 4 5 7 6 6 7 3 5 7 6 6 4 4 4 7 7 6 6 5 4 5 6 4 8 2 9 6 5 4 4 6 5 7 4 5 6 7 5 5 4 4 4 5 6 4 2 4 5 7 5 5 6 6 3 5 2 6 5 5 6 4 5 7 7 3 5 5 4 4 4 6 5 4 6 4 6 6 5 7 6 4 5 5 4 6 5 3 6 6 4 7 5 2 8 5 6 5 8 5 6 7 7 5 7 6 8 5 5 4 4 5 6 3 4 5 7 5 7 5 5 5 5 5 5 4 5 6 4 7 8 7 5 5 4 7 3 7 3 5 4 6 6 2 6 4 9 6 7 6 4 3 5 5 4 3 5 8 5 7 5 6 5 7 7 6 5 7 7 6 5 5 3 7 5 4 5 5 5 6 4 8 6 6 6 5 4 3 4 5 6 3 5 5 4 4 4 4 5 5 4 5 6 6 7 5 6 4 4 5 7 7 3 4 5 5 7 4 4 6 7 4 7 6 5 4 6 5 4 5 4 6 7 6 5 4 7 5 6 6 5 5 6 4 6 5 5 5 3 6 5 4 7 4 8 4 5 6 7 5 7 6 10 3 5 5 4 5 7 9 6 6 3 5 5 6 4 7 4 6 5 5 4 5 7 8 3 6 4 6 5 5 3 6 4 3 4 5 4 5 5 6 4 3 6 5 5 5 7 7 4 5 4 4 7 6 4 9 3 4 5 4 5 6 6 5 5 6 6 6 6 6 4 6 5 3 7 6 5 3 5 5 4 7 5 6 6 5 7 6 5 8 3 5 4 3 8 9 6 5 5 5 5 5 5 5 5 5 5 6 4 3 5 5 2 2 4 6 3 6 5 4 5 4 3 6 4 3 6 2 5 5 5 3 2 2 4 4 4 5 4 3 4 6 6 2 5 5 7 3 5 3 6 4 5 3 5 5 1 5 3 3 5 5 6 3 4 4 4 4 2 3 4 2 3 2 5 3 3 6 4 2 6 5 4 4 5 2 2 5 3 5 3 5 5 3 6 4 5 5 4 4 4 3 4 3 4 5 1 4 5 4 5 5 6 2 4 6 5 4 3 4 4 4 5 3 5 1 6 4 3 2 5 6 3 3 2 5 3 4 3 3 4 2 2 3 4 4 5 4 3 4 3 4 2 3 4 4 5 3 2 5 2 4 4 5 1 6 3 6 4 4 5 3 7 4 3 1 5 4 7 3 4 2 3 5 4 1 6 5 4 4 3 4 3 3 4 4 3 3 6 5 3 2 3 5 6 3 4 5 4 4 2 4 3 5 3 3 4 1 3 3 2 2 4 3 3 6 4 3 6 4 5 5 5 3 3 4 6 3 7 3 4 5 6 3 2 6 3 3 4 3 5 4 2 4 6 3 2 4 4 6 5 5 5 2 6 4 3 2 5 4 4 2 5 5 3 4 6 2 3 3 3 6 3 6 3 3 5 2 4 2 4 4 5 3 2 5 1 3 2 5 3 5 2 3 4 6 2 2 5 4 2 1 5 2 3 4 3 6 4 5 3 6 5 3 3 3 3 5 6 5 5 4 4 5 4 5 4 4 2 4 6 2 3 3 5 4 3 2 4 4 7 4 5 4 2 6 3 2 4 2 2 3 6 6 3 3 4 3 4 5 2 5 5 1 5 3 5 3 6 5 3 5 4 2 3 6 3 1 0 6 4 1 2 3 5 3 4 3 3 5 2 4 4 4 3 4 6 4 3 6 3 3 5 5 5 4 2 4 2 4 3 6 4 2 4 5 3 4 3 3 5 4 6 3 4 2 5 2 2 4 3 3 4 3 2 4 3 6 4 6 5 6 4 4 5 3 4 3 3 4 5 4 5 5 1 5 4 2 5 5 2 3 6 3 6 2 4 4 3 4 2 3 4 4 1 5 4 2 3 6 4 5 6 4 5 3 4 4 3 7 3 5 4 3 6 4 4 3 5 5 5 5 2 3 6 1 4 2 3 3 3 5 5 5 0 5 6 5 1 3 4 3 2 3 6 4 3 1 4 4 3 3 4 6 4 5 4 3 4 3 3 5 4 4 2 3 4 4 3 5 3 6 3 3 4 6 4 5 4 3 5 3 3 5 4 3 4 3 3 5 3 7 1 4 3 5 1 2 2 3 5 2 6 6 2 3 5 2 2 5 5 6 6 1 4 2 7 4 2 2 6 2 4 6 5 6 5 5 7 4 3 2 5 3 6 4 7 4 1 3 2 6 2 3 6 3 4 5 2 5 5 2 4 3 5 5 3 7 3 5 4 2 1 3 1 7 4 4 3 5 5 4 2 4 2 5 4 4 6 7 3 5 4 2 3 5 4 5 5 3 2 5 3 4 5 3 2 2 3 8 4 4 3 6 4 3 3 4 2 4 3 2 5 4 4 4 2 4 4 6 5 2 4 3 5 3 5 6 7 5 2 3 5 4 5 2 6 4 2 6 3 5 5 4 5 2 3 3 2 7 6 5 5 5 3 7 4 2 3 3 5 4 3 5 2 5 4 3 5 3 7 2 2 4 3 5 5 2 4 5 5 5 3 5 3 5 5 5 3 3 3 5 6 3 7 4 4 4 5 4 1 6 4 4 5 4 4 4 4 3 3 3 7 3 6 4 2 6 4 4 4 4 3 6 3 5 5 3 3 5 4 5 3 4 1 4 5 7 3 3 4 4 5 3 6 4 4 4 5 6 4 1 4 4 6 3 1 8 3 6 3 6 4 4 2 4 2 5 5 4 4 3 2 3 1 4 5 3 5 4 6 2 3 5 5 4 5 3 5 3 2 5 5 4 4 3 4 2 2 2 4 2 5 3 5 3 5 2 2 5 3 3 3 3 3 5 3 4 5 3 6 5 4 5 2 3 5 1 4 4 2 3 7 5 4 4 3 4 4 5 3 4 4 4 3 4 5 6 4 3 3 3 2 3 3 4 6 4 3 2 4 3 3 3 2 4 3 6 4 5 5 6 5 5 4 5 4 4 6 4 2 4 1 4 3 3 3 5 4 4 5 4 4 5 3 3 5 4 5 3 5 3 3 2 4 2 2 6 4 4 5 2 4 7 4 4 3 4 4 5 4 5 2 4 4 7 4 4 3 3 2 3 4 4 2 5 4 4 3 3 1 3 3 5 4 
BTB PER SET COUNT: 5 1473 1474 310 6 11 5 7 5 3930 6 5 3 1469 5 5 4 8 5 4 6 6 6 6 5 3 4 5 9 499 3 496 4 11 451 4 5 4 6 5 6 4 5 2454 6 1019 495 7 6 4 1471 5 208 7 7 4 984 1469 4 5 988 4 5 5 6 3 5 8 8 4 4 4 5 6 5 20 8 6 986 6 7 5 4 7 6 7 4 5 542 983 3 13 4 5 6 5 8 6 7 4 6 5 7 8 366 6 4 4 4 5 6 5 484 5 5 5 6 5 3 6 10 8 5 7 8 6 3 8 8 4 7 9 9 4 6 6 5 3 5 8 1015 5 8 6 7 13 3 5 7 23 7 4 6 4 7 1988 6 6 5 4 7 6 4 8 2 9 9 5 5 4 154 6 7 4 5 8 7 5 5 4 4 4 5 6 4 2 4 5 7 5 500 8 6 3 5 2 6 5 1814 6 4 5 9 7 3 6 6 4 40 4 12 8 4 364 4 7 6 495 7 8 4 5 5 499 6 5 3 7 7 4 9 5 2 8 5 7 5 8 5 6 7 7 7 496 6 8 5 5 4 4 143 6 3 4 5 7 1474 7 6 5 5 10 5 5 4 5 7 4 7 8 7 5 6 5 7 3 991 4 5 5 6 93 2 6 4 11 6 7 6 4 3 5 5 4 15 5 8 5 8 5 6 5 9 7 188 6 7 7 6 1482 8 3 7 6 4 5 5 5 6 4 10 8 123 6 5 4 3 5 5 6 3 6 15 10 4 4 4 5 5 4 5 10 7 7 5 7 4 4 5 9 7 4 4 5 5 7 4 4 7 112 4 7 1478 5 14703 8 142 4 5 4 6 8 6 6 4 7 1476 6 6 5 7 446 4 6 6 5 5 3 7 5 4 918 4 10 5 7 1347 511 364 7 6 272 3 5 5 4 5 56 9 6 9 3 6 5 6 4 7 4 6 7 5 4 5 7 8 450 6 4 6 5 5 980 6 981 3 28 5 4 3907 6 6 4 3 6 573 1471 1475 10 7 5 5 370 4 7 7 4 10 3 4 1039 4 5 14 6 5 5 6 6 7 6 6 7 6 5 9 7 7 5 3 5 5 4 16 1475 76 12 6 1476 6 6 1034 3 649 5 3 11 1035 8 5 5 5 5 5 5 1345 5 7 5 8 4 3 8 982 1955 2 4 7 494 6 5 4 5 4 3 431 4 3 6 2 5 1474 5 3 2 18 8 4 4 8 4 4 4 6 6 2 1476 5 7 3 5 7 1469 981 5 3 5 5 1 7 3 984 7831 6 7 3 5 1954 4 5 4 3 4 2 3 2 5 3 3 6 5 4 6 985 8 7 5 2 2 5 3 5 3 7 982 5 1475 4 6 6 4 4 4 980 4 3 7 980 1 4 5 4 5 990 6 2 4 1483 5 4 3 4 4 4 5 3 5 1 6 4 3 977 7 6 3 7 3 5 5 4 3 3 4 2 2 3 4 4 5 4 3 4 984 4 2 3 4 4 5 3 2 5 2 4 4 5 1 7 3 6 5 4 7 3 3419 5 4 1 5 4 686 3 4 2 3 5 4 1 1476 5 5 4 3 4 3 3 4 4 3 3 6 5 3 2 3 5 8 3 4 5 6 4 2 4 3 5 491 3 4 1 3 3 2 2 6 3 3 6 4 3 7 4 5 5 5 3 3 4 6 3 1495 3 4 6 6 3 2 6 3 3 4 3 6 4 2 4 9 3 3 370 7 10 7 5 61 2 6 4 3 2 7 8 4 3 5 5 3 4 7 2 3 3 3 7 3 6 3 3 6 2 4 4 4 5 6 9 2 5 1 3 2 5 3 5 2 3 4 6 2 2 8 4 4 1 5 2 3 4 3 7 4 5 4 6 5 3 3 3 3 5 500 5 5 4 4 5 6 5 4 4 2 16 986 2 3 4 5 984 4 3 984 4 988 4 7 4 2 6 3 2 4 2 2 3 6 495 3 4 4 3 4 5 2 5 5 1 5 4 5 3 6 5 3 75 4 2 3 6 3 1 0 6 4 1 2 5 6 3 6 3 3 5 2 4 979 4 3 5 8 4 985 7 3 3 7 5 6 451 2 4 4 4 984 8 4 2 5 1477 3 6 3 4 5 4 7 3 4 2 985 2 4 4 4 3 7 3 2 4 3 8 4 6 5 6 4 4 5 3 4 1956 3 5 5 4 7 5 1 493 4 2 5 5 2 3 13 3 6 2 4 6 3 4 2 3 4 4 1 5 1024 2 3 10 4 5 6 4 7 3 4 4 72 7 3 5 4 5 6 4 1978 3 493 5 5 5 2 3 6 1 4 3 3 3 983 6 277 5 0 5 499 9 1 3 4 3 2 3 6 4 3 1 4 4 3 3 4 6 4 983 4 3 5 3 3 6 6 4 2 3 4 1473 5 5 3 6 3 3 8 7 4 5 4 3 6 3 3 5 4 3 4 3 5 5 3 7 1 4 3 5 1 2 2 3 5 292 11 8 2 3 5 93 2 5 6 8 2457 1 4 2 7 4 2 2 6 2 4 6 5 140 149 7 9 6 3 2 7 3 6 4 7 4 2 3 2 6 2 3 6 3 4 5 2 5 20584 2 5 3 5 5 3 7 3 5 4 2 1 3 1 7 5 4 4 5 5 4 2 7 2 5 4 4 6 1473 3 6 5 2 3 6 4 6 5 3 2 5 3 4 7 3 2 2 3 8 5 6 3 10 492 3 3 4 2 4 5 2 8 4 4 28 2 4 363 1478 5 2 1473 3 6 3 6 7 7 369 2 3 5 4 5 2 7 5 2 1472 3 5 5 4 10 2 3 3 2 12 10 5 7 5 3 7 4 2 3 3 50 4 3 5 2 5 4 3 5 3 72 2 2 5 3 5 5 2 4 5 5 5 3 5 3 6 6 5 4 3 3 5 1069 3 8 4 4 4 5 4 1 6 4 4 9 4 4 4 5 4 3 5 7 3 7 4 2 1475 6 4 4 5 3 6 3 5 5 3 5 5 5 6 3 4 1 4 1479 10 1472 3 4 4 5 3 6 4 4 4 363 6 4 1 4 4 6 3 1 53 3 2948 3 7 364 996 2 4 2 6 5 16 5 5 3 3 1 4 8 3 5 4 6 2 3 9 5 4 9 3 499 3 2 5 5 4 4 3 4 2 2 2 4 2 5 3 6 3 7 2 2 5 3 3 3 3 3 5 3 4 59 3 9 5 4 6 2 3 5 1 4 5 2 3 7 7 10 4 3 4 4 5 3 5 2947 4 3 4 5 7 5 3 3 3 2 3 5 4 494 4 3 2 130 3 4 3 2 6 4 6 4 7 5 6 5 6 1477 5 7 4 6 4 2 4 1 4 3 3 3 10 4 4 5 985 4 5 3 3 7 4 5 3 5 3 3 2 4 2 2 6 4 4 986 2 5 7 4 4 3 4 4 7 4 5 2 4 4 9 4 5 7 7 2 3 4 5 2 7 4 984 3 3 1 4 3 5 4 
To predecode: 0
Predecoding something: 0
Predecode request dropped: 0
sizeofblock_0 0
sizeofblock_1 56753
sizeofblock_2 75743
sizeofblock_3 0
sizeofblock_4 0
sizeofblock_5 0
sizeofblock_6 0
sizeofblock_7 0
sizeofblock_8 0
Variant_0 Correct: 1617764 Incorrect: 0 Accuracy: 1
Variant_1 Correct: 5745078 Incorrect: 0 Accuracy: 1
Variant_2 Correct: 0 Incorrect: 0 Accuracy: -nan
Variant_3 Correct: 0 Incorrect: 0 Accuracy: -nan
