
*** ChampSim Multicore Out-of-Order Simulator ***

Warmup Instructions: 50000000
Simulation Instructions: 50000000
Number of CPUs: 1
LLC sets: 2048
LLC ways: 16
Off-chip DRAM Size: 4096 MB Channels: 1 Width: 64-bit Data Rate: 6400 MT/s
CPU 0 runs ./micro_traces/srv5.trace.gz
.gz
ITLB has LRU replacement policy
DTLB has LRU replacement policy
STLB has LRU replacement policy
FDIP Prefetcher at L1I
L1I has LRU replacement policy
L1D has LRU replacement policy
Initialize SRRIP state for L2C
Initialize DRRIP state for LLC
Heartbeat CPU 0 instructions: 10000002 cycles: 2797503 heartbeat IPC: 3.57462 cumulative IPC: 3.57462 (Simulation time: 0 hr 1 min 37 sec) 
Heartbeat CPU 0 instructions: 20000002 cycles: 5594525 heartbeat IPC: 3.57523 cumulative IPC: 3.57492 (Simulation time: 0 hr 3 min 9 sec) 
Heartbeat CPU 0 instructions: 30000002 cycles: 8392127 heartbeat IPC: 3.57449 cumulative IPC: 3.57478 (Simulation time: 0 hr 4 min 44 sec) 
Heartbeat CPU 0 instructions: 40000003 cycles: 11190429 heartbeat IPC: 3.5736 cumulative IPC: 3.57448 (Simulation time: 0 hr 6 min 19 sec) 
Heartbeat CPU 0 instructions: 50000001 cycles: 13987329 heartbeat IPC: 3.57539 cumulative IPC: 3.57466 (Simulation time: 0 hr 7 min 53 sec) 

Warmup complete CPU 0 instructions: 50000001 cycles: 13987329 (Simulation time: 0 hr 7 min 53 sec) 

Cycle: 20000000 FTQ IN: 56884830 FTQ occupancy: 18.3614 DECODE IN: 56884830 DECODE occupancy: 46.893 ROB IN: 56884830 ROB occupancy: 282.616 ROB OUT: 56884723
Heartbeat CPU 0 instructions: 60000001 cycles: 22682507 heartbeat IPC: 1.15006 cumulative IPC: 1.15006 (Simulation time: 0 hr 9 min 17 sec) 
Cycle: 30000000 FTQ IN: 11644737 FTQ occupancy: 7.44476 DECODE IN: 11644737 DECODE occupancy: 15.99 ROB IN: 11644737 ROB occupancy: 129.374 ROB OUT: 11644762
Heartbeat CPU 0 instructions: 70000000 cycles: 31232373 heartbeat IPC: 1.16961 cumulative IPC: 1.15975 (Simulation time: 0 hr 10 min 38 sec) 
Heartbeat CPU 0 instructions: 80000001 cycles: 39949338 heartbeat IPC: 1.14719 cumulative IPC: 1.15553 (Simulation time: 0 hr 11 min 59 sec) 
Cycle: 40000000 FTQ IN: 11532849 FTQ occupancy: 7.54684 DECODE IN: 11532708 DECODE occupancy: 16.2151 ROB IN: 11532648 ROB occupancy: 131.451 ROB OUT: 11532378
Heartbeat CPU 0 instructions: 90000000 cycles: 48696675 heartbeat IPC: 1.1432 cumulative IPC: 1.15243 (Simulation time: 0 hr 13 min 21 sec) 
Cycle: 50000000 FTQ IN: 11450889 FTQ occupancy: 7.37875 DECODE IN: 11451000 DECODE occupancy: 15.8238 ROB IN: 11451060 ROB occupancy: 127.84 ROB OUT: 11451398
Heartbeat CPU 0 instructions: 100000002 cycles: 57306691 heartbeat IPC: 1.16144 cumulative IPC: 1.15422 (Simulation time: 0 hr 14 min 49 sec) 
Finished CPU 0 instructions: 50000001 cycles: 43319362 cumulative IPC: 1.15422 (Simulation time: 0 hr 14 min 49 sec) 

ChampSim completed all CPUs

Region of Interest Statistics

CPU 0 cumulative IPC: 1.15422 instructions: 50000001 cycles: 43319362
 Fetch stage stalled: 68.984  Sim cycles: 43319362 fetch stall cycle: 29883416
 Empty decode stage: 56.5749  Sim cycles: 43319362 fetch stall cycle: 24507863
ITLB TOTAL     ACCESS:    5608064  HIT:    5111696  MISS:     496368  HIT %:     91.149  MISS %:    8.85097   MPKI: 9.92736
ITLB LOAD TRANSLATION INSTRUCTION	ACCESS:    5496410  HIT:    5000042  MISS:     496368  HIT %:    90.9692  MISS %:    9.03077  MPKI: 9.92736
ITLB TRANSLATION FROM L1D PREFETCHER INSTRUCTION	ACCESS:     111654  HIT:     111654  MISS:          0  HIT %:        100  MISS %:          0  MPKI: 0

ITLB AVERAGE MISS LATENCY: 9.05351 cycles
ITLB RQ	ACCESS:    7494079	FORWARD:          0	MERGED:    1393507	TO_CACHE:    6100572

DTLB TOTAL     ACCESS:    9264496  HIT:    8790818  MISS:     473678  HIT %:    94.8872  MISS %:    5.11283   MPKI: 9.47356
DTLB LOAD TRANSLATION DATA	ACCESS:    9264496  HIT:    8790818  MISS:     473678  HIT %:    94.8872  MISS %:    5.11283  MPKI: 9.47356

DTLB AVERAGE MISS LATENCY: 9.34715 cycles
DTLB RQ	ACCESS:   13555713	FORWARD:          0	MERGED:    4257299	TO_CACHE:    9298414

STLB TOTAL     ACCESS:    1219948  HIT:    1217704  MISS:       2244  HIT %:    99.8161  MISS %:   0.183942   MPKI: 0.04488
STLB LOAD TRANSLATION INSTRUCTION	ACCESS:     496368  HIT:     496060  MISS:        308  HIT %:    99.9379  MISS %:  0.0620507  MPKI: 0.00616
STLB LOAD TRANSLATION DATA	ACCESS:     473558  HIT:     471643  MISS:       1915  HIT %:    99.5956  MISS %:   0.404386  MPKI: 0.0383
STLB TRANSLATION FROM L1D PREFETCHER DATA	ACCESS:     250022  HIT:     250001  MISS:         21  HIT %:    99.9916  MISS %: 0.00839926  MPKI: 0.00042

STLB AVERAGE MISS LATENCY: 75.5588 cycles
STLB RQ	ACCESS:    1338676	FORWARD:          0	MERGED:     118689	TO_CACHE:    1219987

STLB Hit, L1D data hit: 0
STLB Hit, L2C data hit: 0
STLB Hit, LLC data hit: 0
STLB Hit, LLC data miss: 0
STLB STLB hints to L2: 0
L1D TOTAL     ACCESS:   13317726  HIT:   12194770  MISS:    1122956  HIT %:     91.568  MISS %:    8.43204   MPKI: 22.4591
L1D LOAD DATA	ACCESS:    6743589  HIT:    6003457  MISS:     740132  HIT %:    89.0247  MISS %:    10.9753  MPKI: 14.8026
L1D RFO DATA	ACCESS:    6246077  HIT:    5958494  MISS:     287583  HIT %:    95.3958  MISS %:    4.60422  MPKI: 5.75166
L1D PREFETCH DATA	ACCESS:     328060  HIT:     232819  MISS:      95241  HIT %:    70.9684  MISS %:    29.0316  MPKI: 1.90482

L1D PREFETCH  REQUESTED:     737521  ISSUED:     737521  USEFUL:      34128  USELESS:      68387
L1D USEFUL LOAD PREFETCHES:      34128 PREFETCH ISSUED TO LOWER LEVEL:     102582  ACCURACY: 33.269
 TIMELY PREFETCHES:      34128 LATE PREFETCHES: 7268 DROPPED PREFETCHES: 5
L1D AVERAGE MISS LATENCY: 228874 cycles
L1D RQ	ACCESS:   10831256	FORWARD:          0	MERGED:    3890415	TO_CACHE:    6776997
L1D WQ	ACCESS:    6955398	FORWARD:     164105	MERGED:     176682	TO_CACHE:    6778716
L1D PQ	ACCESS:     368891	FORWARD:          0	MERGED:          0	TO_CACHE:     368630

L1D UNIQUE REGIONS ACCESSED: 0
L1D REGIONS CONFLICTS: 0
L1D Cross Page Prefetch Requests: 6900
L1D Same Page Prefetch Requests: 756123
L1D ROI Sum of L1D PQ occupancy: 4681746
L1D PREFETCHES PUSHED FROM L2C: 0
L1I TOTAL     ACCESS:    6917769  HIT:    4142755  MISS:    2775014  HIT %:    59.8857  MISS %:    40.1143   MPKI: 55.5003
L1I LOAD INSTRUCTION	ACCESS:    6408612  HIT:    3633598  MISS:    2775014  HIT %:    56.6987  MISS %:    43.3013  MPKI: 55.5003
L1I PREFETCH INSTRUCTION	ACCESS:     509157  HIT:     509157  MISS:          0  HIT %:        100  MISS %:          0  MPKI: 0

L1I PREFETCH  REQUESTED:    1179454  ISSUED:    1179454  USEFUL:          0  USELESS:          0
L1I USEFUL LOAD PREFETCHES:          0 PREFETCH ISSUED TO LOWER LEVEL:          0  ACCURACY: -nan
 TIMELY PREFETCHES:          0 LATE PREFETCHES: 0 DROPPED PREFETCHES: 0
L1I AVERAGE MISS LATENCY: 17.5385 cycles
L1I RQ	ACCESS:    9464784	FORWARD:          0	MERGED:    2817038	TO_CACHE:    6647746
L1I PQ	ACCESS:    1179454	FORWARD:          0	MERGED:     333121	TO_CACHE:     846333

L1BTB TOTAL     ACCESS:    5670577  HIT:    2029020  MISS:    3641557  HIT %:    35.7815  MISS %:    64.2185   MPKI: 72.8311
L1BTB BRANCH_DIRECT_JUMP	ACCESS:     548408  HIT:     143257  MISS:     405151	AVERAGE STALL: 38.3296
L1BTB BRANCH_INDIRECT	ACCESS:     182571  HIT:      65571  MISS:     117000	AVERAGE STALL: 105.471
L1BTB BRANCH_CONDITIONAL	ACCESS:    2702915  HIT:    1405412  MISS:    1297503	AVERAGE STALL: 41.4027
L1BTB BRANCH_DIRECT_CALL	ACCESS:     946371  HIT:     104575  MISS:     841796	AVERAGE STALL: 39.8094
L1BTB BRANCH_INDIRECT_CALL	ACCESS:     171970  HIT:      21098  MISS:     150872	AVERAGE STALL: 116.682
L1BTB BRANCH_RETURN	ACCESS:    1118342  HIT:     289107  MISS:     829235	AVERAGE STALL: 38.6775
L1BTB BRANCH_OTHER ACCESS:          0  HIT:          0  MISS:          0	AVERAGE STALL: -nan
L1BTB TOTAL ROB OCCUPANCY AT BTB MISS: 11.7704

L2BTB1 TOTAL     ACCESS:    3616162  HIT:    3210288  MISS:     405874  HIT %:    88.7761  MISS %:    11.2239   MPKI: 8.11748
L2BTB1 BRANCH_DIRECT_JUMP	ACCESS:     401029  HIT:     364954  MISS:      36075	AVERAGE STALL: 38.3296
L2BTB1 BRANCH_INDIRECT	ACCESS:     106645  HIT:      84297  MISS:      22348	AVERAGE STALL: 105.471
L2BTB1 BRANCH_CONDITIONAL	ACCESS:    1297503  HIT:    1189628  MISS:     107875	AVERAGE STALL: 41.4027
L2BTB1 BRANCH_DIRECT_CALL	ACCESS:     841796  HIT:     726806  MISS:     114990	AVERAGE STALL: 39.8094
L2BTB1 BRANCH_INDIRECT_CALL	ACCESS:     141364  HIT:     116980  MISS:      24384	AVERAGE STALL: 116.682
L2BTB1 BRANCH_RETURN	ACCESS:     827825  HIT:     727623  MISS:     100202	AVERAGE STALL: 38.6775
L2BTB1 BRANCH_OTHER ACCESS:          0  HIT:          0  MISS:          0	AVERAGE STALL: -nan
L2BTB1 TOTAL ROB OCCUPANCY AT BTB MISS: 105.606

L2C TOTAL     ACCESS:    4513142  HIT:    4005921  MISS:     507221  HIT %:    88.7612  MISS %:    11.2388   MPKI: 10.1444
L2C LOAD INSTRUCTION	ACCESS:    2775014  HIT:    2489213  MISS:     285801  HIT %:    89.7009  MISS %:    10.2991  MPKI: 5.71602
L2C LOAD TRANSLATION INSTRUCTION	ACCESS:        352  HIT:        108  MISS:        244  HIT %:    30.6818  MISS %:    69.3182  MPKI: 0.00488
L2C LOAD DATA	ACCESS:     732848  HIT:     654488  MISS:      78360  HIT %:    89.3075  MISS %:    10.6925  MPKI: 1.5672
L2C RFO DATA	ACCESS:     287480  HIT:     235745  MISS:      51735  HIT %:     82.004  MISS %:     17.996  MPKI: 1.0347
L2C PREFETCH DATA	ACCESS:     191465  HIT:     116872  MISS:      74593  HIT %:    61.0409  MISS %:    38.9591  MPKI: 1.49186
L2C WRITEBACK DATA	ACCESS:     523927  HIT:     508911  MISS:      15016  HIT %:     97.134  MISS %:    2.86605  MPKI: 0.30032
L2C LOAD TRANSLATION DATA	ACCESS:       2017  HIT:        558  MISS:       1459  HIT %:    27.6648  MISS %:    72.3352  MPKI: 0.02918
L2C TRANSLATION FROM L1D PREFETCHER DATA	ACCESS:         39  HIT:         26  MISS:         13  HIT %:    66.6667  MISS %:    33.3333  MPKI: 0.00026

L2C PREFETCH  REQUESTED:      96754  ISSUED:      96754  USEFUL:       8939  USELESS:      66057
L2C USEFUL LOAD PREFETCHES:       8939 PREFETCH ISSUED TO LOWER LEVEL:      74972  ACCURACY: 11.9231
 TIMELY PREFETCHES:       8939 LATE PREFETCHES: 379 DROPPED PREFETCHES: 0
L2C AVERAGE MISS LATENCY: 38.2149 cycles
L2C RQ	ACCESS:    3797796	FORWARD:          0	MERGED:          0	TO_CACHE:    3797751
L2C WQ	ACCESS:     523927	FORWARD:         45	MERGED:          0	TO_CACHE:     523927
L2C PQ	ACCESS:     199336	FORWARD:          0	MERGED:       3805	TO_CACHE:     195531

L2C Dense regions hint from L2: 0
PSCL5 TOTAL     ACCESS:       4506  HIT:       2253  MISS:       2253  HIT %:         50  MISS %:         50   MPKI: 0.04506
PSCL5 LOAD TRANSLATION INSTRUCTION	ACCESS:       4428  HIT:       2214  MISS:       2214  HIT %:         50  MISS %:         50  MPKI: 0.04428
PSCL5 TRANSLATION FROM L1D PREFETCHER INSTRUCTION	ACCESS:         78  HIT:         39  MISS:         39  HIT %:         50  MISS %:         50  MPKI: 0.00078


PSCL4 TOTAL     ACCESS:       3875  HIT:       1935  MISS:       1940  HIT %:    49.9355  MISS %:    50.0645   MPKI: 0.0388
PSCL4 LOAD TRANSLATION INSTRUCTION	ACCESS:       2804  HIT:       1909  MISS:        895  HIT %:    68.0813  MISS %:    31.9187  MPKI: 0.0179
PSCL4 TRANSLATION FROM L1D PREFETCHER INSTRUCTION	ACCESS:         45  HIT:         26  MISS:         19  HIT %:    57.7778  MISS %:    42.2222  MPKI: 0.00038
PSCL4 LOAD TRANSLATION DATA	ACCESS:       1019  HIT:          0  MISS:       1019  HIT %:          0  MISS %:        100  MPKI: 0.02038
PSCL4 TRANSLATION FROM L1D PREFETCHER DATA	ACCESS:          7  HIT:          0  MISS:          7  HIT %:          0  MISS %:        100  MPKI: 0.00014


PSCL3 TOTAL     ACCESS:       3835  HIT:       1912  MISS:       1923  HIT %:    49.8566  MISS %:    50.1434   MPKI: 0.03846
PSCL3 LOAD TRANSLATION INSTRUCTION	ACCESS:       2327  HIT:       1878  MISS:        449  HIT %:    80.7048  MISS %:    19.2952  MPKI: 0.00898
PSCL3 TRANSLATION FROM L1D PREFETCHER INSTRUCTION	ACCESS:         42  HIT:         34  MISS:          8  HIT %:    80.9524  MISS %:    19.0476  MPKI: 0.00016
PSCL3 LOAD TRANSLATION DATA	ACCESS:       1440  HIT:          0  MISS:       1440  HIT %:          0  MISS %:        100  MPKI: 0.0288
PSCL3 TRANSLATION FROM L1D PREFETCHER DATA	ACCESS:         26  HIT:          0  MISS:         26  HIT %:          0  MISS %:        100  MPKI: 0.00052


PSCL2 TOTAL     ACCESS:       4365  HIT:       2112  MISS:       2253  HIT %:    48.3849  MISS %:    51.6151   MPKI: 0.04506
PSCL2 LOAD TRANSLATION INSTRUCTION	ACCESS:       2386  HIT:       2073  MISS:        313  HIT %:    86.8818  MISS %:    13.1182  MPKI: 0.00626
PSCL2 TRANSLATION FROM L1D PREFETCHER INSTRUCTION	ACCESS:         39  HIT:         39  MISS:          0  HIT %:        100  MISS %:          0  MPKI: 0
PSCL2 LOAD TRANSLATION DATA	ACCESS:       1901  HIT:          0  MISS:       1901  HIT %:          0  MISS %:        100  MPKI: 0.03802
PSCL2 TRANSLATION FROM L1D PREFETCHER DATA	ACCESS:         39  HIT:          0  MISS:         39  HIT %:          0  MISS %:        100  MPKI: 0.00078


LLC TOTAL     ACCESS:     568702  HIT:     538985  MISS:      29717  HIT %:    94.7746  MISS %:    5.22541   MPKI: 0.59434
LLC LOAD INSTRUCTION	ACCESS:     285801  HIT:     284656  MISS:       1145  HIT %:    99.5994  MISS %:   0.400628  MPKI: 0.0229
LLC LOAD TRANSLATION INSTRUCTION	ACCESS:        244  HIT:        206  MISS:         38  HIT %:    84.4262  MISS %:    15.5738  MPKI: 0.00076
LLC LOAD DATA	ACCESS:      77993  HIT:      74177  MISS:       3816  HIT %:    95.1073  MISS %:    4.89275  MPKI: 0.07632
LLC RFO DATA	ACCESS:      51716  HIT:      37824  MISS:      13892  HIT %:    73.1379  MISS %:    26.8621  MPKI: 0.27784
LLC PREFETCH DATA	ACCESS:      74972  HIT:      64591  MISS:      10381  HIT %:    86.1535  MISS %:    13.8465  MPKI: 0.20762
LLC WRITEBACK DATA	ACCESS:      76504  HIT:      76185  MISS:        319  HIT %:     99.583  MISS %:   0.416972  MPKI: 0.00638
LLC LOAD TRANSLATION DATA	ACCESS:       1459  HIT:       1333  MISS:        126  HIT %:    91.3639  MISS %:    8.63605  MPKI: 0.00252
LLC TRANSLATION FROM L1D PREFETCHER DATA	ACCESS:         13  HIT:         13  MISS:          0  HIT %:        100  MISS %:          0  MPKI: 0

LLC AVERAGE MISS LATENCY: 153.919 cycles
LLC RQ	ACCESS:     417233	FORWARD:          0	MERGED:          0	TO_CACHE:     417226
LLC WQ	ACCESS:      76504	FORWARD:          7	MERGED:          0	TO_CACHE:      76504
LLC PQ	ACCESS:      74972	FORWARD:          0	MERGED:          0	TO_CACHE:      74972

LLC Dense regions hint to LLC: 0

RAW hits: 1804217
Loads Generated: 12635471
Loads sent to L1D: 10831256
Stores Generated: 6955386
Stores sent to L1D: 6955398
Major fault: 0 Minor fault: 2591
Allocated PAGES: 2591

stream: 
stream:times selected: 1194100
stream:pref_filled: 122364
stream:pref_useful: 24036
stream:pref_late: 6572
stream:misses: 7945
stream:misses_by_poll: 0

CS: 
CS:times selected: 180271
CS:pref_filled: 59819
CS:pref_useful: 36366
CS:pref_late: 6466
CS:misses: 15569
CS:misses_by_poll: 1

CPLX: 
CPLX:times selected: 1012745
CPLX:pref_filled: 19908
CPLX:pref_useful: 4826
CPLX:pref_late: 2977
CPLX:misses: 92951
CPLX:misses_by_poll: 1

NL_L1: 
NL:times selected: 20495
NL:pref_filled: 792
NL:pref_useful: 328
NL:pref_late: 286
NL:misses: 1766
NL:misses_by_poll: 0

total selections: 2407611
total_filled: 95241
total_useful: 34128
total_late: 17449
total_polluted: 2
total_misses_after_warmup: 773541
conflicts: 5607350

test: 116947

DRAM Statistics
 CHANNEL 0
 RQ ROW_BUFFER_HIT:      10814  ROW_BUFFER_MISS:      18579
 DBUS_CONGESTED:          8
 WQ ROW_BUFFER_HIT:       1462  ROW_BUFFER_MISS:      12599  FULL:          0

 AVG_CONGESTED_CYCLE: 4

CPU 0 Branch Prediction Accuracy: 99.8098% MPKI: 0.34798 Average ROB Occupancy at Mispredict: 143.29
Branch types
NOT_BRANCH: 40851618 81.7032%
BRANCH_DIRECT_JUMP: 548408 1.09682%
BRANCH_INDIRECT: 182571 0.365142%
BRANCH_CONDITIONAL: 6180296 12.3606%
BRANCH_DIRECT_CALL: 946371 1.89274%
BRANCH_INDIRECT_CALL: 171970 0.34394%
BRANCH_RETURN: 1118342 2.23668%
BRANCH_OTHER: 0 0%

DRAM PAGES: 1048576
Allocated PAGES: 2591
Average_ROB_Occupancy: 130.635
Average_Decode_Occupancy: 16.0269
Average_FTQ_Occupancy: 7.45647
Indirect max targets: 14 Average targets: 1.17572
Branch_type:  BRANCH_DIRECT_JUMP:  Count Percentage: 3.65456 5.30924 4.21505 2.77702 8.18439 6.01067 6.80713 63.0419 
Branch_type:  BRANCH_INDIRECT:  Count Percentage: 11.7748 3.41525 2.56267 0 13.0274 2.80817 16.5336 49.8781 
Branch_type:  BRANCH_CONDITIONAL:  Count Percentage: 21.0025 3.04908 2.46823 2.35861 3.75547 4.63239 3.16229 59.5714 
Branch_type:  BRANCH_DIRECT_CALL:  Count Percentage: 0.390156 1.76233 0.740935 1.48346 5.0914 2.62411 0.741891 87.1657 
Branch_type:  BRANCH_INDIRECT_CALL:  Count Percentage: 9.56376 0 2.99636 0.000876043 0.848009 1.715 0.00759237 84.8684 
Branch_type:  BRANCH_RETURN:  Count Percentage: 4.2585 2.00742 2.15223 2.31797 4.80674 5.13363 3.51603 75.8075 
Branch_type:  BRANCH_DIRECT_JUMP:  Total Count: 40113 58275 46265 30481 89833 65974 74716 691957 
Branch_type:  BRANCH_INDIRECT:  Total Count: 43117 12506 9384 0 47704 10283 60543 182644 
Branch_type:  BRANCH_CONDITIONAL:  Total Count: 2596318 376925 305121 291569 464248 572653 390920 7364169 
Branch_type:  BRANCH_DIRECT_CALL:  Total Count: 7352 33209 13962 27954 95941 49448 13980 1642529 
Branch_type:  BRANCH_INDIRECT_CALL:  Total Count: 32751 0 10261 3 2904 5873 26 290631 
Branch_type:  BRANCH_RETURN:  Total Count: 94866 44719 47945 51637 107079 114361 78326 1688752 
Number of unique branch instructions: 10653
Upper 32 bits: 
aaaa
ffff
ffff0000
Unique upper 32 bits: 3
Unique upper 36 bits: 3
Unique upper 40 bits: 5
Unique upper 44 bits: 32
Unique upper 48 bits: 158
Offset_3 4405
Offset_4 260
Offset_5 479
Offset_6 541
Offset_7 634
Offset_8 576
Offset_9 510
Offset_10 417
Offset_11 342
Offset_12 308
Offset_13 238
Offset_14 244
Offset_15 196
Offset_16 226
Offset_17 163
Offset_18 144
Offset_19 259
Offset_20 141
Offset_21 235
Offset_22 409
Offset_23 241
Offset_24 343
Offset_25 117
Offset_47 92
Offset_64 2
decode_dispatch_called: 20081175 46.3561
Dispatch_width: 0 9979228 49.6944 23.0364
Dispatch_width: 1 532999 2.65422 1.23039
Dispatch_width: 2 667922 3.32611 1.54186
Dispatch_width: 3 415331 2.06826 0.958765
Dispatch_width: 4 1868870 9.30658 4.31417
Dispatch_width: 5 291509 1.45165 0.67293
Dispatch_width: 6 6325316 31.4987 14.6016
Empty_decode_cycles: 23238187 53.6439
ROB_full_cycles: 2669311 6.16194
Starvation_cycles_per_kilo_instr: 343.247
Starvation_cycles_per_kilo_instr_3: 321.644
Starvation_cycles_per_kilo_instr_0: 305.481
Branch_type_1  (3,1)  (4,9)  (5,39)  (6,74)  (7,123)  (8,151)  (9,134)  (10,110)  (11,76)  (12,47)  (13,11)  (14,2)  (15,3)  (16,4)  (18,1)  (19,5)  (20,2)  (21,1)  (22,3)  (23,2)  (24,10)  (25,12) 
Branch_type_2  (3,1)  (4,1)  (5,1)  (8,4)  (9,4)  (10,1)  (12,1)  (13,1)  (14,1)  (16,3)  (17,2)  (20,2)  (21,2)  (23,5)  (24,1)  (47,41) 
Branch_type_3  (3,4403)  (4,250)  (5,435)  (6,451)  (7,481)  (8,354)  (9,279)  (10,168)  (11,130)  (12,54)  (13,10)  (64,2) 
Branch_type_4  (6,3)  (7,8)  (8,26)  (9,55)  (10,66)  (11,70)  (12,115)  (13,101)  (14,110)  (15,93)  (16,99)  (17,75)  (18,61)  (19,126)  (20,72)  (21,124)  (22,214)  (23,136)  (24,198)  (25,101) 
Branch_type_5  (8,3)  (9,1)  (10,4)  (11,5)  (12,3)  (13,14)  (14,16)  (15,11)  (16,22)  (17,11)  (18,23)  (19,14)  (20,11)  (21,13)  (22,43)  (23,26)  (24,38) 
Branch_type_6  (5,4)  (6,13)  (7,22)  (8,38)  (9,37)  (10,68)  (11,61)  (12,88)  (13,101)  (14,115)  (15,89)  (16,98)  (17,75)  (18,59)  (19,114)  (20,54)  (21,95)  (22,149)  (23,72)  (24,96)  (25,4)  (47,51) 
Unique trigger count: 
L2BTB1 768 4
L2BTB2 768 4
L2BTB3 768 4
L2BTB4 112 4
