
*** ChampSim Multicore Out-of-Order Simulator ***

Warmup Instructions: 50000000
Simulation Instructions: 50000000
Number of CPUs: 1
LLC sets: 2048
LLC ways: 16
Off-chip DRAM Size: 4096 MB Channels: 1 Width: 64-bit Data Rate: 6400 MT/s
CPU 0 runs ./micro_traces/srv522.trace.gz
.gz
ITLB has LRU replacement policy
DTLB has LRU replacement policy
STLB has LRU replacement policy
FDIP Prefetcher at L1I
L1I has LRU replacement policy
L1D has LRU replacement policy
Initialize SRRIP state for L2C
Initialize DRRIP state for LLC
Heartbeat_Variant_0 : 1359 0.165894 per_variant_size: 0 1359 0 0 0 0 0 0 0 
Heartbeat_Variant_1 : 2950 0.360107 per_variant_size: 0 1230 1720 0 0 0 0 0 0 
Heartbeat_Variant_2 : 0 0 per_variant_size: 0 0 0 0 0 0 0 0 0 
Heartbeat_Variant_3 : 0 0 per_variant_size: 0 0 0 0 0 0 0 0 0 
Heartbeat_Variant_0_evicts 0 : 5476 1 : 2 2 : 0 3 : 0 
Heartbeat_Variant_1_evicts 0 : 0 1 : 0 2 : 0 3 : 0 
Heartbeat_Variant_2_evicts 0 : 0 1 : 0 2 : 0 3 : 0 
Heartbeat_Variant_3_evicts 0 : 0 1 : 0 2 : 0 3 : 0 
Heartbeat CPU 0 instructions: 10000000 cycles: 2798068 heartbeat IPC: 3.57389 cumulative IPC: 3.57389 (Simulation time: 0 hr 2 min 29 sec) 
Heartbeat_Variant_0 : 1359 0.165894 per_variant_size: 0 1359 0 0 0 0 0 0 0 
Heartbeat_Variant_1 : 2970 0.362549 per_variant_size: 0 1227 1743 0 0 0 0 0 0 
Heartbeat_Variant_2 : 0 0 per_variant_size: 0 0 0 0 0 0 0 0 0 
Heartbeat_Variant_3 : 0 0 per_variant_size: 0 0 0 0 0 0 0 0 0 
Heartbeat_Variant_0_evicts 0 : 5652 1 : 0 2 : 0 3 : 0 
Heartbeat_Variant_1_evicts 0 : 0 1 : 0 2 : 0 3 : 0 
Heartbeat_Variant_2_evicts 0 : 0 1 : 0 2 : 0 3 : 0 
Heartbeat_Variant_3_evicts 0 : 0 1 : 0 2 : 0 3 : 0 
Heartbeat CPU 0 instructions: 20000000 cycles: 5594940 heartbeat IPC: 3.57542 cumulative IPC: 3.57466 (Simulation time: 0 hr 4 min 36 sec) 
Heartbeat_Variant_0 : 1419 0.173218 per_variant_size: 0 1419 0 0 0 0 0 0 0 
Heartbeat_Variant_1 : 3089 0.377075 per_variant_size: 0 1228 1861 0 0 0 0 0 0 
Heartbeat_Variant_2 : 0 0 per_variant_size: 0 0 0 0 0 0 0 0 0 
Heartbeat_Variant_3 : 0 0 per_variant_size: 0 0 0 0 0 0 0 0 0 
Heartbeat_Variant_0_evicts 0 : 5500 1 : 2 2 : 0 3 : 0 
Heartbeat_Variant_1_evicts 0 : 2 1 : 0 2 : 0 3 : 0 
Heartbeat_Variant_2_evicts 0 : 0 1 : 0 2 : 0 3 : 0 
Heartbeat_Variant_3_evicts 0 : 0 1 : 0 2 : 0 3 : 0 
Heartbeat CPU 0 instructions: 30000000 cycles: 8391655 heartbeat IPC: 3.57562 cumulative IPC: 3.57498 (Simulation time: 0 hr 6 min 45 sec) 
Heartbeat_Variant_0 : 1419 0.173218 per_variant_size: 0 1419 0 0 0 0 0 0 0 
Heartbeat_Variant_1 : 3093 0.377563 per_variant_size: 0 1222 1871 0 0 0 0 0 0 
Heartbeat_Variant_2 : 0 0 per_variant_size: 0 0 0 0 0 0 0 0 0 
Heartbeat_Variant_3 : 0 0 per_variant_size: 0 0 0 0 0 0 0 0 0 
Heartbeat_Variant_0_evicts 0 : 5635 1 : 0 2 : 0 3 : 0 
Heartbeat_Variant_1_evicts 0 : 0 1 : 0 2 : 0 3 : 0 
Heartbeat_Variant_2_evicts 0 : 0 1 : 0 2 : 0 3 : 0 
Heartbeat_Variant_3_evicts 0 : 0 1 : 0 2 : 0 3 : 0 
Heartbeat CPU 0 instructions: 40000002 cycles: 11188324 heartbeat IPC: 3.57568 cumulative IPC: 3.57516 (Simulation time: 0 hr 8 min 59 sec) 
Heartbeat_Variant_0 : 1421 0.173462 per_variant_size: 0 1421 0 0 0 0 0 0 0 
Heartbeat_Variant_1 : 3100 0.378418 per_variant_size: 0 1236 1864 0 0 0 0 0 0 
Heartbeat_Variant_2 : 0 0 per_variant_size: 0 0 0 0 0 0 0 0 0 
Heartbeat_Variant_3 : 0 0 per_variant_size: 0 0 0 0 0 0 0 0 0 
Heartbeat_Variant_0_evicts 0 : 5475 1 : 0 2 : 0 3 : 0 
Heartbeat_Variant_1_evicts 0 : 0 1 : 0 2 : 0 3 : 0 
Heartbeat_Variant_2_evicts 0 : 0 1 : 0 2 : 0 3 : 0 
Heartbeat_Variant_3_evicts 0 : 0 1 : 0 2 : 0 3 : 0 
Heartbeat CPU 0 instructions: 50000000 cycles: 13984880 heartbeat IPC: 3.57583 cumulative IPC: 3.57529 (Simulation time: 0 hr 11 min 10 sec) 

Warmup complete CPU 0 instructions: 50000004 cycles: 13984881 (Simulation time: 0 hr 11 min 10 sec) 

Cycle: 20000000 FTQ IN: 58271259 FTQ occupancy: 19.8988 DECODE IN: 58271218 DECODE occupancy: 51.8146 ROB IN: 58271158 ROB occupancy: 313.133 ROB OUT: 58271049
Heartbeat_Variant_0 : 1421 0.173462 per_variant_size: 0 1421 0 0 0 0 0 0 0 
Heartbeat_Variant_1 : 3104 0.378906 per_variant_size: 0 1238 1866 0 0 0 0 0 0 
Heartbeat_Variant_2 : 0 0 per_variant_size: 0 0 0 0 0 0 0 0 0 
Heartbeat_Variant_3 : 0 0 per_variant_size: 0 0 0 0 0 0 0 0 0 
Heartbeat_Variant_0_evicts 0 : 5546 1 : 3 2 : 0 3 : 0 
Heartbeat_Variant_1_evicts 0 : 3 1 : 0 2 : 0 3 : 0 
Heartbeat_Variant_2_evicts 0 : 0 1 : 0 2 : 0 3 : 0 
Heartbeat_Variant_3_evicts 0 : 0 1 : 0 2 : 0 3 : 0 
Heartbeat CPU 0 instructions: 60000000 cycles: 21249805 heartbeat IPC: 1.37648 cumulative IPC: 1.37648 (Simulation time: 0 hr 13 min 39 sec) 
Heartbeat_Variant_0 : 1438 0.175537 per_variant_size: 0 1438 0 0 0 0 0 0 0 
Heartbeat_Variant_1 : 3161 0.385864 per_variant_size: 0 1234 1927 0 0 0 0 0 0 
Heartbeat_Variant_2 : 0 0 per_variant_size: 0 0 0 0 0 0 0 0 0 
Heartbeat_Variant_3 : 0 0 per_variant_size: 0 0 0 0 0 0 0 0 0 
Heartbeat_Variant_0_evicts 0 : 5518 1 : 0 2 : 0 3 : 0 
Heartbeat_Variant_1_evicts 0 : 0 1 : 0 2 : 0 3 : 0 
Heartbeat_Variant_2_evicts 0 : 0 1 : 0 2 : 0 3 : 0 
Heartbeat_Variant_3_evicts 0 : 0 1 : 0 2 : 0 3 : 0 
Heartbeat CPU 0 instructions: 70000003 cycles: 28606351 heartbeat IPC: 1.35933 cumulative IPC: 1.36785 (Simulation time: 0 hr 16 min 14 sec) 
Cycle: 30000000 FTQ IN: 13651327 FTQ occupancy: 13.0257 DECODE IN: 13651242 DECODE occupancy: 33.4219 ROB IN: 13651242 ROB occupancy: 235.014 ROB OUT: 13650999
Heartbeat_Variant_0 : 1438 0.175537 per_variant_size: 0 1438 0 0 0 0 0 0 0 
Heartbeat_Variant_1 : 3161 0.385864 per_variant_size: 0 1235 1926 0 0 0 0 0 0 
Heartbeat_Variant_2 : 0 0 per_variant_size: 0 0 0 0 0 0 0 0 0 
Heartbeat_Variant_3 : 0 0 per_variant_size: 0 0 0 0 0 0 0 0 0 
Heartbeat_Variant_0_evicts 0 : 5546 1 : 0 2 : 0 3 : 0 
Heartbeat_Variant_1_evicts 0 : 0 1 : 0 2 : 0 3 : 0 
Heartbeat_Variant_2_evicts 0 : 0 1 : 0 2 : 0 3 : 0 
Heartbeat_Variant_3_evicts 0 : 0 1 : 0 2 : 0 3 : 0 
Heartbeat CPU 0 instructions: 80000001 cycles: 35844089 heartbeat IPC: 1.38165 cumulative IPC: 1.37242 (Simulation time: 0 hr 18 min 48 sec) 
Cycle: 40000000 FTQ IN: 13821497 FTQ occupancy: 12.9995 DECODE IN: 13821596 DECODE occupancy: 33.6084 ROB IN: 13821656 ROB occupancy: 236.393 ROB OUT: 13821778
Heartbeat_Variant_0 : 1439 0.175659 per_variant_size: 0 1439 0 0 0 0 0 0 0 
Heartbeat_Variant_1 : 3174 0.387451 per_variant_size: 0 1238 1936 0 0 0 0 0 0 
Heartbeat_Variant_2 : 0 0 per_variant_size: 0 0 0 0 0 0 0 0 0 
Heartbeat_Variant_3 : 0 0 per_variant_size: 0 0 0 0 0 0 0 0 0 
Heartbeat_Variant_0_evicts 0 : 5559 1 : 1 2 : 0 3 : 0 
Heartbeat_Variant_1_evicts 0 : 1 1 : 0 2 : 0 3 : 0 
Heartbeat_Variant_2_evicts 0 : 0 1 : 0 2 : 0 3 : 0 
Heartbeat_Variant_3_evicts 0 : 0 1 : 0 2 : 0 3 : 0 
Heartbeat CPU 0 instructions: 90000003 cycles: 43066829 heartbeat IPC: 1.38452 cumulative IPC: 1.37542 (Simulation time: 0 hr 21 min 5 sec) 
Cycle: 50000000 FTQ IN: 13745338 FTQ occupancy: 13.1717 DECODE IN: 13745313 DECODE occupancy: 33.7811 ROB IN: 13745301 ROB occupancy: 235.946 ROB OUT: 13745525
Heartbeat_Variant_0 : 1439 0.175659 per_variant_size: 0 1439 0 0 0 0 0 0 0 
Heartbeat_Variant_1 : 3175 0.387573 per_variant_size: 0 1238 1937 0 0 0 0 0 0 
Heartbeat_Variant_2 : 0 0 per_variant_size: 0 0 0 0 0 0 0 0 0 
Heartbeat_Variant_3 : 0 0 per_variant_size: 0 0 0 0 0 0 0 0 0 
Heartbeat_Variant_0_evicts 0 : 5699 1 : 1 2 : 0 3 : 0 
Heartbeat_Variant_1_evicts 0 : 1 1 : 0 2 : 0 3 : 0 
Heartbeat_Variant_2_evicts 0 : 0 1 : 0 2 : 0 3 : 0 
Heartbeat_Variant_3_evicts 0 : 0 1 : 0 2 : 0 3 : 0 
Heartbeat CPU 0 instructions: 100000001 cycles: 50369752 heartbeat IPC: 1.36931 cumulative IPC: 1.3742 (Simulation time: 0 hr 23 min 26 sec) 
Finished CPU 0 instructions: 50000000 cycles: 36384887 cumulative IPC: 1.3742 (Simulation time: 0 hr 23 min 26 sec) 

ChampSim completed all CPUs

Region of Interest Statistics

CPU 0 cumulative IPC: 1.3742 instructions: 50000000 cycles: 36384887
 Fetch stage stalled: 54.1895  Sim cycles: 36384887 fetch stall cycle: 19716798
 Empty decode stage: 35.3642  Sim cycles: 36384887 fetch stall cycle: 12867211
ITLB TOTAL     ACCESS:    5860420  HIT:    5365148  MISS:     495272  HIT %:    91.5489  MISS %:    8.45113   MPKI: 9.90544
ITLB LOAD TRANSLATION INSTRUCTION	ACCESS:    5734595  HIT:    5239323  MISS:     495272  HIT %:    91.3634  MISS %:    8.63656  MPKI: 9.90544
ITLB TRANSLATION FROM L1D PREFETCHER INSTRUCTION	ACCESS:     125825  HIT:     125825  MISS:          0  HIT %:        100  MISS %:          0  MPKI: 0

ITLB AVERAGE MISS LATENCY: 9.05907 cycles
ITLB RQ	ACCESS:    7999084	FORWARD:          0	MERGED:    1694578	TO_CACHE:    6304506

DTLB TOTAL     ACCESS:    8978753  HIT:    8502117  MISS:     476636  HIT %:    94.6915  MISS %:    5.30849   MPKI: 9.53272
DTLB LOAD TRANSLATION DATA	ACCESS:    8978753  HIT:    8502117  MISS:     476636  HIT %:    94.6915  MISS %:    5.30849  MPKI: 9.53272

DTLB AVERAGE MISS LATENCY: 9.32281 cycles
DTLB RQ	ACCESS:   13349656	FORWARD:          0	MERGED:    4333807	TO_CACHE:    9015849

STLB TOTAL     ACCESS:    1218055  HIT:    1215800  MISS:       2255  HIT %:    99.8149  MISS %:   0.185131   MPKI: 0.0451
STLB LOAD TRANSLATION INSTRUCTION	ACCESS:     495272  HIT:     494882  MISS:        390  HIT %:    99.9213  MISS %:  0.0787446  MPKI: 0.0078
STLB LOAD TRANSLATION DATA	ACCESS:     476636  HIT:     474791  MISS:       1845  HIT %:    99.6129  MISS %:   0.387088  MPKI: 0.0369
STLB TRANSLATION FROM L1D PREFETCHER DATA	ACCESS:     246147  HIT:     246127  MISS:         20  HIT %:    99.9919  MISS %: 0.00812523  MPKI: 0.0004

STLB AVERAGE MISS LATENCY: 66.7481 cycles
STLB RQ	ACCESS:    1336354	FORWARD:          0	MERGED:     118255	TO_CACHE:    1218099

STLB Hit, L1D data hit: 0
STLB Hit, L2C data hit: 0
STLB Hit, LLC data hit: 0
STLB Hit, LLC data miss: 0
STLB STLB hints to L2: 0
L1D TOTAL     ACCESS:   13093578  HIT:   11980700  MISS:    1112878  HIT %:    91.5006  MISS %:    8.49942   MPKI: 22.2576
L1D LOAD DATA	ACCESS:    6559853  HIT:    5827368  MISS:     732485  HIT %:    88.8338  MISS %:    11.1662  MPKI: 14.6497
L1D RFO DATA	ACCESS:    6208088  HIT:    5921897  MISS:     286191  HIT %:      95.39  MISS %:    4.60997  MPKI: 5.72382
L1D PREFETCH DATA	ACCESS:     325637  HIT:     231435  MISS:      94202  HIT %:    71.0715  MISS %:    28.9285  MPKI: 1.88404

L1D PREFETCH  REQUESTED:     729344  ISSUED:     729344  USEFUL:      32364  USELESS:      69282
L1D USEFUL LOAD PREFETCHES:      32364 PREFETCH ISSUED TO LOWER LEVEL:     101711  ACCURACY: 31.8196
 TIMELY PREFETCHES:      32364 LATE PREFETCHES: 7446 DROPPED PREFETCHES: 10
L1D AVERAGE MISS LATENCY: 219433 cycles
L1D RQ	ACCESS:   10691693	FORWARD:          0	MERGED:    3931906	TO_CACHE:    6596024
L1D WQ	ACCESS:    6949977	FORWARD:     164215	MERGED:     196345	TO_CACHE:    6753632
L1D PQ	ACCESS:     364898	FORWARD:          0	MERGED:          0	TO_CACHE:     364446

L1D UNIQUE REGIONS ACCESSED: 0
L1D REGIONS CONFLICTS: 0
L1D Cross Page Prefetch Requests: 5459
L1D Same Page Prefetch Requests: 744169
L1D ROI Sum of L1D PQ occupancy: 4629557
L1D PREFETCHES PUSHED FROM L2C: 0
L1I TOTAL     ACCESS:    7148131  HIT:    4378551  MISS:    2769580  HIT %:    61.2545  MISS %:    38.7455   MPKI: 55.3916
L1I LOAD INSTRUCTION	ACCESS:    6486750  HIT:    3717170  MISS:    2769580  HIT %:     57.304  MISS %:     42.696  MPKI: 55.3916
L1I PREFETCH INSTRUCTION	ACCESS:     661381  HIT:     661381  MISS:          0  HIT %:        100  MISS %:          0  MPKI: 0

L1I PREFETCH  REQUESTED:    1602419  ISSUED:    1602419  USEFUL:          0  USELESS:          0
L1I USEFUL LOAD PREFETCHES:          0 PREFETCH ISSUED TO LOWER LEVEL:          0  ACCURACY: -nan
 TIMELY PREFETCHES:          0 LATE PREFETCHES: 0 DROPPED PREFETCHES: 0
L1I AVERAGE MISS LATENCY: 17.944 cycles
L1I RQ	ACCESS:    9506531	FORWARD:          0	MERGED:    2683484	TO_CACHE:    6823047
L1I PQ	ACCESS:    1602419	FORWARD:          0	MERGED:     426382	TO_CACHE:    1176037

L1BTB TOTAL     ACCESS:    5671017  HIT:    2036492  MISS:    3634525  HIT %:    35.9105  MISS %:    64.0895   MPKI: 72.6905
L1BTB BRANCH_DIRECT_JUMP	ACCESS:     548632 HIT:     144292 MISS:     404340 AVERAGE STALL: 45.8528 AVERAGE FETCH STALL: 16.093 AVERAGE FETCH QUEUE STALL: 11.4072 AVERAGE DECODE STALL: 17.4503 AVERAGE EXECUTE STALL: 2.39911e+15
L1BTB BRANCH_INDIRECT	ACCESS:     182809 HIT:      65968 MISS:     116841 AVERAGE STALL: 106.043 AVERAGE FETCH STALL: 10.9397 AVERAGE FETCH QUEUE STALL: 15.5895 AVERAGE DECODE STALL: 12.5084 AVERAGE EXECUTE STALL: 66.0435
L1BTB BRANCH_CONDITIONAL	ACCESS:    2704635 HIT:    1409800 MISS:    1294835 AVERAGE STALL: 68.9876 AVERAGE FETCH STALL: 22.7739 AVERAGE FETCH QUEUE STALL: 26.4851 AVERAGE DECODE STALL: 19.0204 AVERAGE EXECUTE STALL: 2.53878e+15
L1BTB BRANCH_DIRECT_CALL	ACCESS:     945728 HIT:     104962 MISS:     840766 AVERAGE STALL: 132.856 AVERAGE FETCH STALL: 35.327 AVERAGE FETCH QUEUE STALL: 60.9101 AVERAGE DECODE STALL: 35.9918 AVERAGE EXECUTE STALL: 5.02636e+16
L1BTB BRANCH_INDIRECT_CALL	ACCESS:     171744 HIT:      21267 MISS:     150477 AVERAGE STALL: 135.363 AVERAGE FETCH STALL: 13.3249 AVERAGE FETCH QUEUE STALL: 13.749 AVERAGE DECODE STALL: 11.4888 AVERAGE EXECUTE STALL: 96.3097
L1BTB BRANCH_RETURN	ACCESS:    1117469 HIT:     290203 MISS:     827266 AVERAGE STALL: 47.2138 AVERAGE FETCH STALL: 16.7386 AVERAGE FETCH QUEUE STALL: 4.88157 AVERAGE DECODE STALL: 5.80161 AVERAGE EXECUTE STALL: 4.21091e+14
L1BTB BRANCH_OTHER ACCESS:          0 HIT:          0 MISS:          0 AVERAGE STALL: -nan AVERAGE FETCH STALL: -nan AVERAGE FETCH QUEUE STALL: -nan AVERAGE DECODE STALL: -nan AVERAGE EXECUTE STALL: -nan
L1BTB TOTAL ROB OCCUPANCY AT BTB MISS: 2.62984

L2BTB TOTAL     ACCESS:    3609106  HIT:    3542806  MISS:      66300  HIT %:     98.163  MISS %:    1.83702   MPKI: 1.326
L2BTB BRANCH_DIRECT_JUMP	ACCESS:     400163 HIT:     396642 MISS:       3521 AVERAGE STALL: 45.8528 AVERAGE FETCH STALL: 16.093 AVERAGE FETCH QUEUE STALL: 11.4072 AVERAGE DECODE STALL: 17.4503 AVERAGE EXECUTE STALL: 2.39911e+15
L2BTB BRANCH_INDIRECT	ACCESS:     106569 HIT:     103888 MISS:       2681 AVERAGE STALL: 106.043 AVERAGE FETCH STALL: 10.9397 AVERAGE FETCH QUEUE STALL: 15.5895 AVERAGE DECODE STALL: 12.5084 AVERAGE EXECUTE STALL: 66.0435
L2BTB BRANCH_CONDITIONAL	ACCESS:    1294833 HIT:    1287528 MISS:       7305 AVERAGE STALL: 68.9876 AVERAGE FETCH STALL: 22.7739 AVERAGE FETCH QUEUE STALL: 26.4851 AVERAGE DECODE STALL: 19.0204 AVERAGE EXECUTE STALL: 2.53878e+15
L2BTB BRANCH_DIRECT_CALL	ACCESS:     840765 HIT:     840385 MISS:        380 AVERAGE STALL: 132.856 AVERAGE FETCH STALL: 35.327 AVERAGE FETCH QUEUE STALL: 60.9101 AVERAGE DECODE STALL: 35.9918 AVERAGE EXECUTE STALL: 5.02636e+16
L2BTB BRANCH_INDIRECT_CALL	ACCESS:     140954 HIT:     130924 MISS:      10030 AVERAGE STALL: 135.363 AVERAGE FETCH STALL: 13.3249 AVERAGE FETCH QUEUE STALL: 13.749 AVERAGE DECODE STALL: 11.4888 AVERAGE EXECUTE STALL: 96.3097
L2BTB BRANCH_RETURN	ACCESS:     825822 HIT:     783439 MISS:      42383 AVERAGE STALL: 47.2138 AVERAGE FETCH STALL: 16.7386 AVERAGE FETCH QUEUE STALL: 4.88157 AVERAGE DECODE STALL: 5.80161 AVERAGE EXECUTE STALL: 4.21091e+14
L2BTB BRANCH_OTHER ACCESS:          0 HIT:          0 MISS:          0 AVERAGE STALL: -nan AVERAGE FETCH STALL: -nan AVERAGE FETCH QUEUE STALL: -nan AVERAGE DECODE STALL: -nan AVERAGE EXECUTE STALL: -nan
L2BTB TOTAL ROB OCCUPANCY AT BTB MISS: 144.166

L2C TOTAL     ACCESS:    4500795  HIT:    3918323  MISS:     582472  HIT %:    87.0585  MISS %:    12.9415   MPKI: 11.6494
L2C LOAD INSTRUCTION	ACCESS:    2769580  HIT:    2440564  MISS:     329016  HIT %:    88.1204  MISS %:    11.8796  MPKI: 6.58032
L2C LOAD TRANSLATION INSTRUCTION	ACCESS:        428  HIT:        151  MISS:        277  HIT %:    35.2804  MISS %:    64.7196  MPKI: 0.00554
L2C LOAD DATA	ACCESS:     725021  HIT:     637346  MISS:      87675  HIT %:    87.9072  MISS %:    12.0928  MPKI: 1.7535
L2C RFO DATA	ACCESS:     286099  HIT:     222836  MISS:      63263  HIT %:    77.8877  MISS %:    22.1123  MPKI: 1.26526
L2C PREFETCH DATA	ACCESS:     195522  HIT:     112645  MISS:      82877  HIT %:    57.6124  MISS %:    42.3876  MPKI: 1.65754
L2C WRITEBACK DATA	ACCESS:     522176  HIT:     504114  MISS:      18062  HIT %:     96.541  MISS %:    3.45899  MPKI: 0.36124
L2C LOAD TRANSLATION DATA	ACCESS:       1929  HIT:        636  MISS:       1293  HIT %:    32.9705  MISS %:    67.0295  MPKI: 0.02586
L2C TRANSLATION FROM L1D PREFETCHER DATA	ACCESS:         40  HIT:         31  MISS:          9  HIT %:       77.5  MISS %:       22.5  MPKI: 0.00018

L2C PREFETCH  REQUESTED:     102982  ISSUED:     102982  USEFUL:      10872  USELESS:      72690
L2C USEFUL LOAD PREFETCHES:      10872 PREFETCH ISSUED TO LOWER LEVEL:      83572  ACCURACY: 13.0091
 TIMELY PREFETCHES:      10872 LATE PREFETCHES: 695 DROPPED PREFETCHES: 0
L2C AVERAGE MISS LATENCY: 36.7007 cycles
L2C RQ	ACCESS:    3783146	FORWARD:          0	MERGED:          0	TO_CACHE:    3783099
L2C WQ	ACCESS:     522176	FORWARD:         48	MERGED:          0	TO_CACHE:     522176
L2C PQ	ACCESS:     204693	FORWARD:          0	MERGED:       4359	TO_CACHE:     200333

L2C Dense regions hint from L2: 0
PSCL5 TOTAL     ACCESS:       4532  HIT:       2266  MISS:       2266  HIT %:         50  MISS %:         50   MPKI: 0.04532
PSCL5 LOAD TRANSLATION INSTRUCTION	ACCESS:       4452  HIT:       2226  MISS:       2226  HIT %:         50  MISS %:         50  MPKI: 0.04452
PSCL5 TRANSLATION FROM L1D PREFETCHER INSTRUCTION	ACCESS:         80  HIT:         40  MISS:         40  HIT %:         50  MISS %:         50  MPKI: 0.0008


PSCL4 TOTAL     ACCESS:       3993  HIT:       1991  MISS:       2002  HIT %:    49.8623  MISS %:    50.1377   MPKI: 0.04004
PSCL4 LOAD TRANSLATION INSTRUCTION	ACCESS:       2251  HIT:       1951  MISS:        300  HIT %:    86.6726  MISS %:    13.3274  MPKI: 0.006
PSCL4 TRANSLATION FROM L1D PREFETCHER INSTRUCTION	ACCESS:         42  HIT:         40  MISS:          2  HIT %:    95.2381  MISS %:     4.7619  MPKI: 4e-05
PSCL4 LOAD TRANSLATION DATA	ACCESS:       1662  HIT:          0  MISS:       1662  HIT %:          0  MISS %:        100  MPKI: 0.03324
PSCL4 TRANSLATION FROM L1D PREFETCHER DATA	ACCESS:         38  HIT:          0  MISS:         38  HIT %:          0  MISS %:        100  MPKI: 0.00076


PSCL3 TOTAL     ACCESS:       4087  HIT:       2038  MISS:       2049  HIT %:    49.8654  MISS %:    50.1346   MPKI: 0.04098
PSCL3 LOAD TRANSLATION INSTRUCTION	ACCESS:       2298  HIT:       1998  MISS:        300  HIT %:    86.9452  MISS %:    13.0548  MPKI: 0.006
PSCL3 TRANSLATION FROM L1D PREFETCHER INSTRUCTION	ACCESS:         42  HIT:         40  MISS:          2  HIT %:    95.2381  MISS %:     4.7619  MPKI: 4e-05
PSCL3 LOAD TRANSLATION DATA	ACCESS:       1709  HIT:          0  MISS:       1709  HIT %:          0  MISS %:        100  MPKI: 0.03418
PSCL3 TRANSLATION FROM L1D PREFETCHER DATA	ACCESS:         38  HIT:          0  MISS:         38  HIT %:          0  MISS %:        100  MPKI: 0.00076


PSCL2 TOTAL     ACCESS:       4421  HIT:       2155  MISS:       2266  HIT %:    48.7446  MISS %:    51.2554   MPKI: 0.04532
PSCL2 LOAD TRANSLATION INSTRUCTION	ACCESS:       2503  HIT:       2115  MISS:        388  HIT %:    84.4986  MISS %:    15.5014  MPKI: 0.00776
PSCL2 TRANSLATION FROM L1D PREFETCHER INSTRUCTION	ACCESS:         40  HIT:         40  MISS:          0  HIT %:        100  MISS %:          0  MPKI: 0
PSCL2 LOAD TRANSLATION DATA	ACCESS:       1838  HIT:          0  MISS:       1838  HIT %:          0  MISS %:        100  MPKI: 0.03676
PSCL2 TRANSLATION FROM L1D PREFETCHER DATA	ACCESS:         40  HIT:          0  MISS:         40  HIT %:          0  MISS %:        100  MPKI: 0.0008


LLC TOTAL     ACCESS:     655586  HIT:     627630  MISS:      27956  HIT %:    95.7357  MISS %:    4.26428   MPKI: 0.55912
LLC LOAD INSTRUCTION	ACCESS:     329016  HIT:     328212  MISS:        804  HIT %:    99.7556  MISS %:   0.244365  MPKI: 0.01608
LLC LOAD TRANSLATION INSTRUCTION	ACCESS:        277  HIT:        255  MISS:         22  HIT %:    92.0578  MISS %:    7.94224  MPKI: 0.00044
LLC LOAD DATA	ACCESS:      87158  HIT:      83646  MISS:       3512  HIT %:    95.9705  MISS %:    4.02946  MPKI: 0.07024
LLC RFO DATA	ACCESS:      63076  HIT:      49677  MISS:      13399  HIT %:    78.7574  MISS %:    21.2426  MPKI: 0.26798
LLC PREFETCH DATA	ACCESS:      83570  HIT:      73785  MISS:       9785  HIT %:    88.2913  MISS %:    11.7087  MPKI: 0.1957
LLC WRITEBACK DATA	ACCESS:      91187  HIT:      90828  MISS:        359  HIT %:    99.6063  MISS %:   0.393696  MPKI: 0.00718
LLC LOAD TRANSLATION DATA	ACCESS:       1293  HIT:       1218  MISS:         75  HIT %:    94.1995  MISS %:    5.80046  MPKI: 0.0015
LLC TRANSLATION FROM L1D PREFETCHER DATA	ACCESS:          9  HIT:          9  MISS:          0  HIT %:        100  MISS %:          0  MPKI: 0

LLC AVERAGE MISS LATENCY: 157.62 cycles
LLC RQ	ACCESS:     480838	FORWARD:          0	MERGED:          0	TO_CACHE:     480829
LLC WQ	ACCESS:      91187	FORWARD:         11	MERGED:          0	TO_CACHE:      91187
LLC PQ	ACCESS:      83572	FORWARD:          0	MERGED:          0	TO_CACHE:      83570

LLC Dense regions hint to LLC: 0

RAW hits: 1942529
Loads Generated: 12634222
Loads sent to L1D: 10691693
Stores Generated: 6949969
Stores sent to L1D: 6949977
Major fault: 0 Minor fault: 2589
Allocated PAGES: 2589

stream: 
stream:times selected: 1180230
stream:pref_filled: 121295
stream:pref_useful: 23207
stream:pref_late: 6517
stream:misses: 6857
stream:misses_by_poll: 0

CS: 
CS:times selected: 176859
CS:pref_filled: 59031
CS:pref_useful: 36197
CS:pref_late: 6501
CS:misses: 15483
CS:misses_by_poll: 4

CPLX: 
CPLX:times selected: 1002229
CPLX:pref_filled: 20226
CPLX:pref_useful: 4856
CPLX:pref_late: 2948
CPLX:misses: 91539
CPLX:misses_by_poll: 0

NL_L1: 
NL:times selected: 17345
NL:pref_filled: 575
NL:pref_useful: 217
NL:pref_late: 167
NL:misses: 865
NL:misses_by_poll: 0

total selections: 2376663
total_filled: 94202
total_useful: 32364
total_late: 17544
total_polluted: 4
total_misses_after_warmup: 768662
conflicts: 5524046

test: 114877

DRAM Statistics
 CHANNEL 0
 RQ ROW_BUFFER_HIT:      10117  ROW_BUFFER_MISS:      17467
 DBUS_CONGESTED:         16
 WQ ROW_BUFFER_HIT:       1348  ROW_BUFFER_MISS:      12116  FULL:          0

 AVG_CONGESTED_CYCLE: 6

CPU 0 Branch Prediction Accuracy: 99.8133% MPKI: 0.34154 Average ROB Occupancy at Mispredict: 187.187
Branch types
NOT_BRANCH: 40853400 81.7068%
BRANCH_DIRECT_JUMP: 548632 1.09726%
BRANCH_INDIRECT: 182809 0.365618%
BRANCH_CONDITIONAL: 6180108 12.3602%
BRANCH_DIRECT_CALL: 945728 1.89146%
BRANCH_INDIRECT_CALL: 171744 0.343488%
BRANCH_RETURN: 1117469 2.23494%
BRANCH_OTHER: 0 0%

DRAM PAGES: 1048576
Allocated PAGES: 2589
Average_ROB_Occupancy: 236.149
Average_Decode_Occupancy: 33.4331
Average_FTQ_Occupancy: 12.9978
Indirect max targets: 14 Average targets: 1.15254
Branch_type:  BRANCH_DIRECT_JUMP:  Count Percentage: 3.80171 5.84207 4.26478 14.1927 1.69945 6.57648 1.31489 62.3079 
Branch_type:  BRANCH_INDIRECT:  Count Percentage: 14.4151 0.811765 12.2283 23.3133 1.33778 14.5438 1.06655 32.2835 
Branch_type:  BRANCH_CONDITIONAL:  Count Percentage: 21.771 2.62914 2.44199 8.1502 1.47801 5.01978 0.731695 57.7781 
Branch_type:  BRANCH_DIRECT_CALL:  Count Percentage: 0.260877 1.77745 1.43673 4.62128 2.60797 3.19275 0.771941 85.331 
Branch_type:  BRANCH_INDIRECT_CALL:  Count Percentage: 9.5173 0.575809 2.98244 4.83511 0 4.06299 0 78.0263 
Branch_type:  BRANCH_RETURN:  Count Percentage: 3.64707 1.30738 3.52652 8.73829 2.84405 5.74929 1.27976 72.9076 
Branch_type:  BRANCH_DIRECT_JUMP:  Total Count: 41640 63988 46712 155452 18614 72032 14402 682457 
Branch_type:  BRANCH_INDIRECT:  Total Count: 52616 2963 44634 85095 4883 53086 3893 117837 
Branch_type:  BRANCH_CONDITIONAL:  Total Count: 2688593 324683 301571 1006501 182526 619913 90360 7135255 
Branch_type:  BRANCH_DIRECT_CALL:  Total Count: 4930 33590 27151 87332 49285 60336 14588 1612569 
Branch_type:  BRANCH_INDIRECT_CALL:  Total Count: 32677 1977 10240 16601 0 13950 0 267898 
Branch_type:  BRANCH_RETURN:  Total Count: 81473 29206 78780 195207 63534 128435 28589 1628704 
Number of unique branch instructions: 10211
Upper 32 bits: 
aaaa
ffff
ffff0000
Unique upper 32 bits: 3
Unique upper 36 bits: 3
Unique upper 40 bits: 5
Unique upper 44 bits: 32
Unique upper 48 bits: 154
Variant_0 : 1439 0.175659
Variant_1 : 3175 0.387573
Variant_2 : 0 0
Variant_3 : 0 0
Offset_3 4217
Offset_4 260
Offset_5 466
Offset_6 527
Offset_7 613
Offset_8 535
Offset_9 488
Offset_10 397
Offset_11 331
Offset_12 295
Offset_13 215
Offset_14 234
Offset_15 195
Offset_16 228
Offset_17 156
Offset_18 126
Offset_19 247
Offset_20 144
Offset_21 236
Offset_22 403
Offset_23 245
Offset_24 335
Offset_25 88
Offset_47 82
Offset_64 16
decode_dispatch_called: 25191963 69.2374
Dispatch_width: 0 13465168 53.4503 37.0076
Dispatch_width: 1 938361 3.72484 2.57899
Dispatch_width: 2 807920 3.20705 2.22048
Dispatch_width: 3 483677 1.91997 1.32933
Dispatch_width: 4 5417926 21.5066 14.8906
Dispatch_width: 5 150416 0.597079 0.413402
Dispatch_width: 6 3928495 15.5942 10.7971
Empty_decode_cycles: 11192924 30.7626
ROB_full_cycles: 8624613 23.7038
Starvation_cycles_per_kilo_instr: 238.318
Starvation_cycles_per_kilo_instr_3: 182.634
Starvation_cycles_per_kilo_instr_0: 160.335
Branch_type_1  (3,1)  (4,9)  (5,37)  (6,72)  (7,118)  (8,138)  (9,127)  (10,102)  (11,74)  (12,51)  (13,5)  (14,2)  (15,3)  (16,4)  (18,1)  (19,4)  (20,2)  (21,1)  (22,3)  (23,2)  (24,10)  (25,12) 
Branch_type_2  (3,1)  (5,1)  (8,3)  (9,3)  (12,1)  (13,1)  (14,1)  (16,3)  (17,2)  (20,2)  (21,2)  (23,5)  (24,1)  (47,37) 
Branch_type_3  (3,4215)  (4,251)  (5,424)  (6,438)  (7,461)  (8,328)  (9,269)  (10,162)  (11,136)  (12,58)  (13,4)  (24,2)  (64,9) 
Branch_type_4  (6,4)  (7,8)  (8,30)  (9,54)  (10,63)  (11,62)  (12,104)  (13,94)  (14,103)  (15,93)  (16,102)  (17,72)  (18,57)  (19,121)  (20,74)  (21,124)  (22,215)  (23,138)  (24,193)  (25,72)  (64,3) 
Branch_type_5  (8,2)  (9,1)  (10,3)  (11,5)  (12,3)  (13,14)  (14,16)  (15,11)  (16,20)  (17,11)  (18,16)  (19,12)  (20,11)  (21,13)  (22,42)  (23,26)  (24,37) 
Branch_type_6  (5,4)  (6,13)  (7,26)  (8,34)  (9,34)  (10,67)  (11,54)  (12,78)  (13,97)  (14,112)  (15,88)  (16,99)  (17,71)  (18,52)  (19,110)  (20,55)  (21,96)  (22,143)  (23,74)  (24,92)  (25,4)  (47,45)  (64,4) 
Unique trigger count: 
Variant_0_evicts_0 : 0
Variant_0_evicts_1 : 0
Variant_0_evicts_2 : 0
Variant_0_evicts_3 : 0
Variant_1_evicts_0 : 0
Variant_1_evicts_1 : 0
Variant_1_evicts_2 : 0
Variant_1_evicts_3 : 0
Variant_2_evicts_0 : 0
Variant_2_evicts_1 : 0
Variant_2_evicts_2 : 0
Variant_2_evicts_3 : 0
Variant_3_evicts_0 : 0
Variant_3_evicts_1 : 0
Variant_3_evicts_2 : 0
Variant_3_evicts_3 : 0
BTB PER SET UNIQUE ADDR: 4 4 3 3 3 2 2 3 2 3 4 4 3 4 3 4 2 3 3 3 1 3 3 6 2 4 1 3 3 4 4 4 2 3 2 4 4 4 4 5 4 4 3 3 3 4 2 3 6 2 4 5 1 2 3 4 3 3 4 5 5 4 1 5 6 1 3 4 6 2 3 3 4 4 3 3 2 2 3 3 4 4 5 3 4 2 2 3 3 3 3 3 3 4 2 1 4 5 2 4 2 1 2 5 3 6 3 3 2 4 5 2 2 3 1 4 3 6 1 4 3 4 5 3 5 5 4 4 4 1 2 3 2 3 3 3 6 3 3 4 4 3 4 5 3 4 3 2 3 5 2 2 2 4 2 3 4 1 5 4 5 4 2 3 3 1 1 4 4 5 4 4 3 2 3 4 3 3 2 1 2 3 4 4 1 3 3 4 5 3 4 5 5 3 1 2 4 3 3 3 4 3 2 3 1 4 3 3 4 3 2 3 4 5 2 3 5 2 5 4 4 3 3 4 4 3 4 2 6 3 2 4 5 2 2 3 4 4 3 2 1 4 5 3 3 4 3 2 3 4 2 4 3 3 3 6 3 4 4 3 4 4 4 4 3 4 3 4 3 3 3 5 3 5 3 4 4 2 4 4 4 2 2 5 5 4 5 4 4 4 5 3 3 3 4 4 4 3 3 3 4 2 3 4 3 3 4 4 3 4 3 2 5 4 3 4 5 4 4 1 6 4 3 4 5 5 2 3 3 4 2 4 1 3 2 2 2 2 6 3 3 2 5 3 2 4 2 3 5 3 3 3 2 3 4 3 3 2 3 3 3 4 2 2 3 6 5 3 4 3 6 4 4 4 1 4 4 2 2 2 4 3 3 4 3 4 4 4 4 3 4 2 2 5 3 5 2 4 3 2 3 4 5 4 2 4 3 4 6 4 1 3 1 3 2 2 5 4 3 3 3 2 3 6 4 3 3 4 1 4 5 3 4 3 2 2 4 3 4 2 2 4 2 1 3 0 3 3 4 5 3 1 3 2 4 2 2 2 4 3 3 4 2 5 1 3 4 4 2 3 2 1 1 3 3 3 1 3 1 3 3 3 4 1 3 4 2 5 5 5 5 4 4 2 3 5 6 3 2 3 2 2 4 3 4 3 3 5 3 3 3 3 5 3 1 4 5 3 3 3 3 3 3 5 2 3 1 4 3 5 3 4 5 3 5 3 3 5 4 4 4 5 5 5 2 4 3 4 1 2 2 4 2 3 3 5 3 1 5 3 1 2 4 7 2 2 5 5 3 2 4 3 0 2 3 4 2 1 4 2 2 3 4 2 3 2 3 3 5 3 4 3 2 4 2 5 3 5 4 3 4 2 1 3 1 2 3 3 3 3 4 3 2 3 2 4 4 5 5 5 3 2 2 4 3 3 2 5 2 4 2 4 3 3 2 2 4 4 4 3 3 5 1 2 3 5 3 3 4 3 3 2 3 4 2 5 1 3 4 2 1 3 5 5 5 2 3 4 4 3 3 2 3 3 4 2 2 4 3 4 4 4 2 4 4 3 2 6 4 2 4 3 2 3 2 3 3 3 4 6 4 3 4 2 4 4 3 3 6 4 4 2 2 2 3 3 2 4 3 3 5 5 2 2 3 5 4 3 2 3 2 4 4 4 5 4 5 1 1 5 2 4 5 4 2 2 4 1 4 2 3 4 4 2 3 4 4 4 2 3 4 4 3 2 3 4 4 4 3 3 3 3 2 5 6 3 2 4 2 4 2 4 5 5 3 2 2 2 4 3 4 4 5 5 4 2 3 1 3 2 5 4 3 1 3 4 4 2 4 4 3 2 0 3 3 4 4 2 4 4 4 4 3 3 3 2 3 3 4 4 4 3 3 5 4 2 4 4 3 3 1 6 2 3 3 3 2 4 2 2 4 4 3 4 5 3 4 3 3 3 0 3 3 4 4 4 4 3 4 5 4 2 4 4 3 3 2 4 2 2 4 4 2 4 2 4 4 3 4 1 4 2 3 1 4 3 2 5 6 2 4 2 4 2 3 2 4 3 5 3 3 3 3 4 4 5 2 2 3 4 1 1 4 4 4 1 4 1 4 2 4 4 3 4 3 4 3 3 2 4 3 3 2 3 1 2 3 1 6 1 4 5 2 2 4 3 3 3 5 2 3 2 3 2 4 3 4 3 1 3 4 1 2 5 3 3 4 3 5 4 4 4 3 3 4 5 3 2 3 2 3 2 3 5 3 5 2 3 2 3 5 4 4 2 3 4 3 3 2 2 3 3 4 3 3 4 2 3 3 3 3 2 4 5 5 3 3 4 4 2 2 4 4 4 1 2 3 3 0 4 4 3 3 4 4 2 4 4 2 4 4 4 3 4 3 4 3 5 3 3 4 5 3 3 2 3 4 2 4 2 2 4 3 3 4 5 4 3 1 3 3 2 3 4 3 2 3 0 2 2 4 5 3 3 2 2 3 5 4 2 2 4 4 5 2 4 3 3 3 2 4 1 3 2 4 5 8 5 3 4 3 2 1 4 1 3 3 4 4 3 4 3 4 1 3 5 4 2 4 1 4 5 4 2 2 5 1 4 4 4 3 3 1 2 4 1 4 3 2 3 3 5 4 3 3 3 5 2 3 5 4 3 7 4 1 3 1 3 1 3 3 1 6 3 3 3 5 1 4 3 3 3 3 1 3 3 3 3 5 5 3 3 2 3 4 4 3 2 3 4 5 4 3 3 2 4 4 3 4 5 5 1 3 4 5 5 3 4 2 3 3 1 3 4 4 3 2 5 1 3 3 4 6 4 4 4 5 3 2 5 3 4 4 2 2 2 3 2 2 5 0 3 4 3 3 3 3 5 3 4 4 6 2 2 2 3 3 2 4 3 5 3 4 4 4 3 4 1 4 4 3 2 3 3 4 2 3 3 3 4 3 4 4 3 3 4 2 4 2 5 4 3 1 2 3 3 2 5 2 0 4 3 3 2 6 3 3 4 5 4 2 4 3 4 3 3 3 2 4 3 5 5 3 3 3 5 5 2 4 1 2 4 3 5 3 1 4 0 4 4 3 3 3 3 4 4 4 1 6 5 3 4 2 5 3 7 2 5 0 4 5 2 3 2 2 2 3 4 3 2 3 2 3 4 1 4 2 5 2 3 3 5 4 3 2 2 5 3 2 5 3 3 4 4 4 2 4 1 3 4 4 4 3 3 3 3 3 3 1 2 3 2 3 5 3 5 4 2 4 2 3 3 4 2 2 4 3 3 4 4 3 4 2 2 1 3 3 1 6 4 4 2 4 5 4 4 3 3 4 4 5 2 1 2 4 2 3 3 2 5 3 4 5 5 5 3 4 4 5 4 3 3 3 5 2 4 2 2 3 1 4 3 4 4 4 3 3 4 3 2 3 2 3 3 2 2 4 5 3 5 2 1 3 5 5 2 3 4 3 2 2 3 2 1 5 2 3 2 2 4 4 2 4 4 3 3 1 4 2 1 2 5 3 3 4 3 5 4 3 1 2 4 3 4 2 3 3 5 5 4 3 4 5 2 3 5 3 3 3 3 3 3 3 4 3 3 3 3 3 4 4 3 3 3 4 3 5 4 3 3 2 4 2 2 6 4 3 3 2 2 3 3 5 3 3 4 4 4 3 4 4 3 1 3 4 6 3 3 2 3 3 5 2 3 5 3 3 5 5 2 2 4 4 2 5 4 2 2 3 2 4 5 3 1 4 2 5 4 4 2 4 4 2 4 2 4 2 3 2 1 2 2 3 2 3 3 3 3 4 3 4 3 3 2 1 3 6 4 3 1 3 5 2 3 2 4 1 3 3 2 2 4 2 2 4 5 3 2 3 4 2 3 4 4 3 3 4 1 2 6 1 2 5 3 4 3 4 1 4 0 4 2 3 2 3 3 3 4 4 5 4 4 1 5 3 4 3 4 3 4 4 3 3 3 4 3 2 3 3 4 2 3 4 4 3 5 6 2 2 3 5 3 3 4 1 4 4 4 4 3 3 5 1 5 4 5 6 4 2 1 3 4 4 3 4 4 4 2 2 3 4 2 0 3 1 1 5 3 3 4 4 2 4 3 4 3 4 5 1 3 3 2 5 4 4 4 2 3 4 4 3 3 5 1 3 6 4 3 3 2 3 2 3 3 5 1 2 3 4 1 4 2 3 4 3 2 3 4 4 3 1 3 5 3 4 3 2 5 4 0 3 4 3 4 3 5 4 2 4 3 1 3 4 4 3 3 4 3 3 2 3 4 1 3 4 6 2 4 3 4 2 3 1 3 1 4 2 0 3 5 3 3 1 2 4 3 2 1 2 3 4 4 2 3 3 4 2 3 5 3 1 2 5 4 2 4 4 3 4 2 3 3 3 5 4 3 6 1 5 2 3 2 2 3 3 4 3 4 3 5 4 4 4 2 5 4 4 5 3 4 2 3 4 2 3 4 5 3 2 5 2 3 2 4 5 3 3 4 2 2 5 4 3 3 4 5 4 3 2 5 3 3 3 4 3 2 1 1 4 3 1 3 5 5 1 3 3 3 5 4 3 4 4 4 5 3 6 4 3 1 2 4 5 2 3 4 5 3 2 3 4 2 1 4 3 5 3 5 
BTB PER SET COUNT: 4 1547 1466 1931 5 2 2 3 2 3 64 4 3 4 3 5 2 4 3 3 1 3 3 8 769 427 1 4 3 7 4 4 2 1896 2 4 6 4 4 6 4 973 3 4 5 576 499 3 6 2 4 5 1 3 3 6 586 991 4 2928 6 15 1 5 6 1 5 4 6 2 3 3 5 4 3 261 3 4 971 3 76 4 9 3 7 2 2 4 500 968 3 3 3 4 39 1 4 5 2 4 3 1 2 5 485 10 4 4 2 6 7 2 238 3 1 14 3 6 1 1466 5 4 1724 3 8 8 4 4 608 1 2 3 2 5 3 3 8 3 3 994 1179 3 4 5 3 4 5 6 3 6 2 576 5 5 2 968 4 1 5 9 5 5 4 3 3 1 1 8 4 6 4 33 3 2 3 13 3 13 2 2 2 3 4 4 1 26 3 5 7 3 6 6 5 3 1 484 4 3 3 4 5 1466 2 3 1 5 3 3 5 3 5 3 4 488 2 3 5 2 6 4 4 4 3 6 4 7 5 2 867 3 450 4 5 14631 2 3 8 4 9 2 1 4 5 4 41 4 7854 59 5 4 2 4 3 3 4 16 3 4 5 4 4 4 4 4 10 4 3 4 3 3 15 6 4 5 5 4 10 2 4 6 5 2 2 7 5 4 6 4 4 6 6 3 3 5 604 4 4 3 3 3 4 3 3 5 96 3 6 4 5 22 991 2 5 4 3 4 7 5 4 1 6 5 3 4 1941 6 12 3 5 5 2 4 1 11 2 2 2 2 6 3 3 2 5 7 2 28 2 3 5 3 3 3 2 3 4 4 3 2 42 14 3 246 2 2 3 7 116 3 4 3 11 5 1467 4 1 42 5 2 2 2 5 209 3 4 3 4 4 4 6 4 4 4 2 7 3 5 1450 5 3 3 4 4 5 5 4 6 12 12 6 4 1 3 1 3 2 3 6 7 3 3 4 3 3 592 4 395 3 4 1 4 5 3 6 3 2 2 5 4 4 2 3 4 2 1 545 0 2440 3 4 6 4 989 3 2 15 2 5 4 5 3 3 4 2 6 1 3 5 4 2 3 2 1 1 6 3 4 1 5 1 6 3 3 4 1 214 4 4 5 5 5 970 5 18 2 3 6 6 17 2 5 2 2 4 3 4 3 3 5 7 3 3 3 5 3 1 8 5 589 3 4 3 3 3 5 2 3 1 41 3 7 1465 4 19 4 21 5 4 5 6 4 42 7 5 5 2 1557 3 4 1 10 2 4 995 3 3 5 3 1 8 3 1 2 4 12 2 2 1823 6 3 3 4 3 0 2 4 4 3 1 4 2 7 3 4 2 8 2 7 3 5 3 4 3 2 5 2 7 1465 7 4 3 4 2 989 3 1 3 913 3 3 3 4 3 4 3 2 4 4 5 7 6 3 6 3 12 31 3 2 5 2 4 912 9 3 3 2 2 6 4 4 3 3 7 1 2 3 5 3 3 5 3 3 3 3 8 2 7 1 3 4 2 1 4 8 5 5 498 5 4 12 3 5 2 4 3 4 4 2 4 3 5 969 4 2 4 4 3 2 1470 4 2 4 3 4 3 2 3 5 3 4 8 4 3 4 2 6 4 3 3 8 4 5 2 4 2 3 500 3 4 3 3 6 5 2 2 3 5 4 3 4 5 3 4 30 4 7 4 5 1 2 7 2 4 5 4 2 3 4 1 5 2 3 4 4 2 950 4 4 6 3 5 5 17 3 50 3 4 4 3436 3 3 3 3 3 5 7 3 3 5 2 4 3 4 5 5 3 2 2 2 233 3 9 4 9 5 4 2 19 1 3 2 50 4 4 1 3 4 4 2 4 6 15 2 0 3 4 6 4 2 4 6 4 4 3 3 3 2 40 3 4 502 8 5 3 5 4 2 4 6 3 3 1 971 990 3 3 3 3 4 3 2 4 4 3 6 5 3 4 3 3 4 0 3 3 4 498 6 5 5 4 6 5 2 5 4 4 3 2 4 2 2 4 5 2 19 2 4 4 3 6 1 1466 2 4 2944 10 3 484 7 6 11 5 2 5 924 3 2 6 4 6 3 4 3 3 4 4 588 2 2 3 5 1 1 4 41 7 8 4 1 4 3 45 4 9 4 4 4 3 971 2 4 3 3 2 3 1 2 5 1 14 1 7 10 2 3 78 3 3 3 1981 2 5 2 4 2 17 3 5 3 1 3 4 1 2 9 3 4 5 4 71 5 4 4 4 7 4 7 3 1005 3 3 5 2 3 5 3 6 2 1465 2 3 5 4 4 1942 4 7 3 3 2 3 3 3 29 3 3 5 3 5 6 3 3 2 4 9 5 3 5 486 9 3 82 4 4 4 1 500 3 3 0 9 6 500 3 4 4 2 590 6 3 6 6 4 3 7 3 4 3 5 4 3 6 5 4 5 2 14 4 2 7 2 2 515 3 3 4 6 4 3 1 9 3 2 3 969 3 5 3 0 2 2 4 7 3 3 2 2 4 5 93 2 2 5 8 2429 3 348 49 4 3 2 486 1 3 2 4 5 9 25 3 4 3 2 1 4 1 3 3 4 4 3 4 3 6 2 9 5 4 2 4 1 4 20486 42 2 588 7 1 994 4 4 3 3 1 2 5 1 4 3 2 3 3 5 5 3 7 3 5 4 3 5 4 3 8 4 1 3 1 15 1 991 4 1 7 3 3 3 973 1 6 4 3 5 5 1 1957 3 3 3 5 14 6 3 2 5 5 6 3 2 6 487 1470 992 3 1465 2 4 6 6 4 7 418 1 4 4 7 5 3 5 2 3 3 1 3 4 4 13 2 5 1 3 4 12 6 7 6 4 1467 3 2 5 3 501 4 2 2 2 3 2 4 5 0 35 5 3 1453 3 3 6 3 318 4 8 2 2 2 3 3 2 4 3 11 3 4 1939 4 3 4 3 4 6 3 2 15 5 5 2 3 4 3 6 4 4 5 4 3 5 2 4 2 5 4 3 1 2 3 3 2 5 2 0 10 3 3 2 6 3 3 1556 14 1466 2 4 3 4 3 3 9 2 4 19 5 5 3 3 3 5 31 2 4 1 2 4 3 5 3 1 4 0 4 4 19 4 3 3 4 4 4 1 6 5 3 4 2 5 16 9 2 8 0 591 9 2 3 2 2 2 3 5 3 2 5 2 3 4 1 5 2 6 2 4 3 5 7 3 4 2 5 3 5 5 3 15 4 4 156 2 10 1 3 4 4 5 3 3 4 4 4 4 1 2264 36 3 3 2903 3 5 6 6 6 2 5 41 7 2 2 5 3 771 4 4 3 267 8 2 1 3 3 1 10 4 4 4 4 5 8 1470 3 5 79 4 5 2 1 2 4 2 3 3 2 6 3 4 971 6 5 3 1162 6 5 4 3 3 4 5 2 6 2 2 3 1 4 3 20 4 4 3 3 5 3 2 7 2 3 3 2 2 16 5 3 16 2 1 3 2523 11 2 5 5 968 3 2 4 2 1 5 2 3 2 4 4 4 2 6 4 3 3 1 5 3 1 3 5 3 4 4 3 5 4 3 1 2 4 4 5 2 3 3422 503 6 4 3 4 7 2 3 5 3 3 3 3 3 3 72 4 5 3 3 3 3 6 4 3 4 3 4 4 5 4 3 3 2 4 2 2 9 5 3 3 3 3 5 4 6 3 3 4 4 4 1375 4 4 5 1 3 5 16 3 3 2 3 3 5 2 3 107 3 3 5 5 2 4 5 4 2 7 1468 3 2 18 3 4 9 3 1 13 2 5 5 4 2 4 4 2 4 2 4 967 3 2 1 2 3 3 2 3 3 3 3 4 4 4 3 3 2 1 3 8 4 6 1 3 5 2 5 2 5 1 3 3 2 2 4 2 2 5 5 230 2 40 7 2 3 4 4 3 7 4 1 3 8 1 2 7 5 6 3 6 1 5 0 4 2 4 2 3 3 4 4 4 5 4 18 1 5 3 4 3 4 3 6 4 3 3 3 487 3 3 3 3 4 2 3 4 8 3 5 6 2 3 5 5 3 3 4 1 5 4 4 8 997 4 5 1 417 4 5 235 4 2 2 3 4 4 3 5 4 10 2 2 3 10 2 0 5 1 1 15 3 3 30 5 2 19 5 11 5 5 91 1 3 4 2 5 5 4 4 2 3 6 6 5 7 5 1 3 6 4 3 4 2 4 2 3 3 5 1 2 3 4 1 4 2 3 6 4 2 3 4 2046 3 2 3 5 4 4 3 2 7 15 0 3 5 3 5 3 5 4 970 8 5 1 3 8 5 63 3 4 3 3 2 3 7 1 1479 7 116 4 4 1466 4 2 3 1 7 1 10 2 0 3 5 3 3 1 2 4 3 3 1 2 4 4 4 2 3 3 4 2 3 5 3 1 2 7 4 2 6 4 3 5 4 3 3 3 5 4 3 6 1 6 2 4 4 2 31 3 5 3 4 3 5 4 4 4 2 5 6 4 5 3 4 2 991 5 2 4 4 5 138 495 6 2 3 2 7 5 4 16 4 2 2 142 5 3 3 4 5 4 586 2 5 4 3 73 4 3 2 1449 1 4 3 1 3 7 5 1 4 3 3 6 1466 3 13 5 1467 5 4 1487 4 3 2 2 4 1262 3 3 4 142 3 3 3 4 2 1 7 3 5 11 5 
To predecode: 0
Predecoding something: 0
Predecode request dropped: 0
sizeofblock_0 0
sizeofblock_1 54610
sizeofblock_2 84549
sizeofblock_3 0
sizeofblock_4 0
sizeofblock_5 0
sizeofblock_6 0
sizeofblock_7 0
sizeofblock_8 0
Variant_0 Correct: 1615166 Incorrect: 0 Accuracy: 1
Variant_1 Correct: 5744513 Incorrect: 0 Accuracy: 1
Variant_2 Correct: 0 Incorrect: 0 Accuracy: -nan
Variant_3 Correct: 0 Incorrect: 0 Accuracy: -nan
