
*** ChampSim Multicore Out-of-Order Simulator ***

Warmup Instructions: 50000000
Simulation Instructions: 50000000
Number of CPUs: 1
LLC sets: 2048
LLC ways: 16
Off-chip DRAM Size: 4096 MB Channels: 1 Width: 64-bit Data Rate: 6400 MT/s
CPU 0 runs ./micro_traces/srv554.trace.gz
.gz
ITLB has LRU replacement policy
DTLB has LRU replacement policy
STLB has LRU replacement policy
L1I has LRU replacement policy
L1D has LRU replacement policy
Initialize SRRIP state for L2C
Initialize DRRIP state for LLC
Heartbeat_Variant_0 : 1350 0.32959 per_variant_size: 0 1350 0 0 0 0 0 0 0 
Heartbeat_Variant_1 : 1233 0.301025 per_variant_size: 0 574 659 0 0 0 0 0 0 
Heartbeat_Variant_2 : 1332 0.325195 per_variant_size: 0 549 327 235 221 0 0 0 0 
Heartbeat_Variant_3 : 0 0 per_variant_size: 0 0 0 0 0 0 0 0 0 
Heartbeat_Variant_0_evicts 0 : 5973 1 : 346 2 : 330 3 : 0 
Heartbeat_Variant_1_evicts 0 : 343 1 : 0 2 : 498 3 : 0 
Heartbeat_Variant_2_evicts 0 : 285 1 : 499 2 : 0 3 : 0 
Heartbeat_Variant_3_evicts 0 : 0 1 : 0 2 : 0 3 : 0 
Heartbeat CPU 0 instructions: 10000001 cycles: 2797344 heartbeat IPC: 3.57482 cumulative IPC: 3.57482 (Simulation time: 0 hr 1 min 22 sec) 
Heartbeat_Variant_0 : 1355 0.330811 per_variant_size: 0 1355 0 0 0 0 0 0 0 
Heartbeat_Variant_1 : 1242 0.303223 per_variant_size: 0 583 659 0 0 0 0 0 0 
Heartbeat_Variant_2 : 1327 0.323975 per_variant_size: 0 541 324 240 222 0 0 0 0 
Heartbeat_Variant_3 : 0 0 per_variant_size: 0 0 0 0 0 0 0 0 0 
Heartbeat_Variant_0_evicts 0 : 5669 1 : 26 2 : 27 3 : 0 
Heartbeat_Variant_1_evicts 0 : 25 1 : 0 2 : 231 3 : 0 
Heartbeat_Variant_2_evicts 0 : 24 1 : 227 2 : 0 3 : 0 
Heartbeat_Variant_3_evicts 0 : 0 1 : 0 2 : 0 3 : 0 
Heartbeat CPU 0 instructions: 20000001 cycles: 5595061 heartbeat IPC: 3.57434 cumulative IPC: 3.57458 (Simulation time: 0 hr 2 min 38 sec) 
Heartbeat_Variant_0 : 1364 0.333008 per_variant_size: 0 1364 0 0 0 0 0 0 0 
Heartbeat_Variant_1 : 1245 0.303955 per_variant_size: 0 583 662 0 0 0 0 0 0 
Heartbeat_Variant_2 : 1326 0.32373 per_variant_size: 0 519 341 250 216 0 0 0 0 
Heartbeat_Variant_3 : 0 0 per_variant_size: 0 0 0 0 0 0 0 0 0 
Heartbeat_Variant_0_evicts 0 : 5671 1 : 62 2 : 47 3 : 0 
Heartbeat_Variant_1_evicts 0 : 56 1 : 0 2 : 246 3 : 0 
Heartbeat_Variant_2_evicts 0 : 48 1 : 240 2 : 0 3 : 0 
Heartbeat_Variant_3_evicts 0 : 0 1 : 0 2 : 0 3 : 0 
Heartbeat CPU 0 instructions: 30000000 cycles: 8393022 heartbeat IPC: 3.57403 cumulative IPC: 3.5744 (Simulation time: 0 hr 3 min 55 sec) 
Heartbeat_Variant_0 : 1363 0.332764 per_variant_size: 0 1363 0 0 0 0 0 0 0 
Heartbeat_Variant_1 : 1269 0.309814 per_variant_size: 0 583 686 0 0 0 0 0 0 
Heartbeat_Variant_2 : 1348 0.329102 per_variant_size: 0 512 358 257 221 0 0 0 0 
Heartbeat_Variant_3 : 0 0 per_variant_size: 0 0 0 0 0 0 0 0 0 
Heartbeat_Variant_0_evicts 0 : 5687 1 : 111 2 : 102 3 : 0 
Heartbeat_Variant_1_evicts 0 : 128 1 : 0 2 : 292 3 : 0 
Heartbeat_Variant_2_evicts 0 : 99 1 : 297 2 : 0 3 : 0 
Heartbeat_Variant_3_evicts 0 : 0 1 : 0 2 : 0 3 : 0 
Heartbeat CPU 0 instructions: 40000002 cycles: 11190558 heartbeat IPC: 3.57457 cumulative IPC: 3.57444 (Simulation time: 0 hr 5 min 11 sec) 
Heartbeat_Variant_0 : 1375 0.335693 per_variant_size: 0 1375 0 0 0 0 0 0 0 
Heartbeat_Variant_1 : 1275 0.311279 per_variant_size: 0 584 691 0 0 0 0 0 0 
Heartbeat_Variant_2 : 1342 0.327637 per_variant_size: 0 519 336 264 223 0 0 0 0 
Heartbeat_Variant_3 : 0 0 per_variant_size: 0 0 0 0 0 0 0 0 0 
Heartbeat_Variant_0_evicts 0 : 5714 1 : 88 2 : 95 3 : 0 
Heartbeat_Variant_1_evicts 0 : 89 1 : 0 2 : 272 3 : 0 
Heartbeat_Variant_2_evicts 0 : 86 1 : 271 2 : 0 3 : 0 
Heartbeat_Variant_3_evicts 0 : 0 1 : 0 2 : 0 3 : 0 
Heartbeat CPU 0 instructions: 50000000 cycles: 13988208 heartbeat IPC: 3.57443 cumulative IPC: 3.57444 (Simulation time: 0 hr 6 min 25 sec) 

Warmup complete CPU 0 instructions: 50000003 cycles: 13988209 (Simulation time: 0 hr 6 min 25 sec) 

Cycle: 20000000 FTQ IN: 55101889 FTQ occupancy: 15.5652 DECODE IN: 55101884 DECODE occupancy: 9.42992 ROB IN: 55101874 ROB occupancy: 257.604 ROB OUT: 55101862
Heartbeat_Variant_0 : 1383 0.337646 per_variant_size: 0 1383 0 0 0 0 0 0 0 
Heartbeat_Variant_1 : 1275 0.311279 per_variant_size: 0 592 683 0 0 0 0 0 0 
Heartbeat_Variant_2 : 1346 0.328613 per_variant_size: 0 515 356 261 214 0 0 0 0 
Heartbeat_Variant_3 : 0 0 per_variant_size: 0 0 0 0 0 0 0 0 0 
Heartbeat_Variant_0_evicts 0 : 5704 1 : 105 2 : 104 3 : 0 
Heartbeat_Variant_1_evicts 0 : 106 1 : 0 2 : 291 3 : 0 
Heartbeat_Variant_2_evicts 0 : 96 1 : 299 2 : 0 3 : 0 
Heartbeat_Variant_3_evicts 0 : 0 1 : 0 2 : 0 3 : 0 
Heartbeat CPU 0 instructions: 60000001 cycles: 25795266 heartbeat IPC: 0.846951 cumulative IPC: 0.846951 (Simulation time: 0 hr 7 min 35 sec) 
Cycle: 30000000 FTQ IN: 8382897 FTQ occupancy: 13.8331 DECODE IN: 8382884 DECODE occupancy: 4.66139 ROB IN: 8382894 ROB occupancy: 49.5648 ROB OUT: 8382895
Heartbeat_Variant_0 : 1386 0.338379 per_variant_size: 0 1386 0 0 0 0 0 0 0 
Heartbeat_Variant_1 : 1268 0.30957 per_variant_size: 0 574 694 0 0 0 0 0 0 
Heartbeat_Variant_2 : 1354 0.330566 per_variant_size: 0 528 354 253 219 0 0 0 0 
Heartbeat_Variant_3 : 0 0 per_variant_size: 0 0 0 0 0 0 0 0 0 
Heartbeat_Variant_0_evicts 0 : 5671 1 : 69 2 : 93 3 : 0 
Heartbeat_Variant_1_evicts 0 : 66 1 : 0 2 : 261 3 : 0 
Heartbeat_Variant_2_evicts 0 : 95 1 : 266 2 : 0 3 : 0 
Heartbeat_Variant_3_evicts 0 : 0 1 : 0 2 : 0 3 : 0 
Heartbeat CPU 0 instructions: 70000000 cycles: 37681215 heartbeat IPC: 0.841329 cumulative IPC: 0.844131 (Simulation time: 0 hr 8 min 50 sec) 
Cycle: 40000000 FTQ IN: 8485533 FTQ occupancy: 13.816 DECODE IN: 8485543 DECODE occupancy: 4.66161 ROB IN: 8485535 ROB occupancy: 47.4719 ROB OUT: 8485515
Heartbeat_Variant_0 : 1387 0.338623 per_variant_size: 0 1387 0 0 0 0 0 0 0 
Heartbeat_Variant_1 : 1271 0.310303 per_variant_size: 0 571 700 0 0 0 0 0 0 
Heartbeat_Variant_2 : 1353 0.330322 per_variant_size: 0 523 354 248 228 0 0 0 0 
Heartbeat_Variant_3 : 0 0 per_variant_size: 0 0 0 0 0 0 0 0 0 
Heartbeat_Variant_0_evicts 0 : 5518 1 : 6 2 : 3 3 : 0 
Heartbeat_Variant_1_evicts 0 : 6 1 : 0 2 : 199 3 : 0 
Heartbeat_Variant_2_evicts 0 : 2 1 : 197 2 : 0 3 : 0 
Heartbeat_Variant_3_evicts 0 : 0 1 : 0 2 : 0 3 : 0 
Heartbeat CPU 0 instructions: 80000000 cycles: 49460711 heartbeat IPC: 0.848933 cumulative IPC: 0.845725 (Simulation time: 0 hr 10 min 0 sec) 
Cycle: 50000000 FTQ IN: 8490993 FTQ occupancy: 13.8283 DECODE IN: 8490991 DECODE occupancy: 4.65803 ROB IN: 8490999 ROB occupancy: 47.0689 ROB OUT: 8491024
Cycle: 60000000 FTQ IN: 8352366 FTQ occupancy: 13.862 DECODE IN: 8352358 DECODE occupancy: 4.66346 ROB IN: 8352358 ROB occupancy: 49.1124 ROB OUT: 8352326
Heartbeat_Variant_0 : 1381 0.337158 per_variant_size: 0 1381 0 0 0 0 0 0 0 
Heartbeat_Variant_1 : 1273 0.310791 per_variant_size: 0 579 694 0 0 0 0 0 0 
Heartbeat_Variant_2 : 1367 0.33374 per_variant_size: 0 531 370 252 214 0 0 0 0 
Heartbeat_Variant_3 : 0 0 per_variant_size: 0 0 0 0 0 0 0 0 0 
Heartbeat_Variant_0_evicts 0 : 5685 1 : 75 2 : 100 3 : 0 
Heartbeat_Variant_1_evicts 0 : 78 1 : 0 2 : 267 3 : 0 
Heartbeat_Variant_2_evicts 0 : 105 1 : 271 2 : 0 3 : 0 
Heartbeat_Variant_3_evicts 0 : 0 1 : 0 2 : 0 3 : 0 
Heartbeat CPU 0 instructions: 90000000 cycles: 61389634 heartbeat IPC: 0.838299 cumulative IPC: 0.843856 (Simulation time: 0 hr 11 min 10 sec) 
Cycle: 70000000 FTQ IN: 8489540 FTQ occupancy: 13.8343 DECODE IN: 8489540 DECODE occupancy: 4.67024 ROB IN: 8489540 ROB occupancy: 47.1927 ROB OUT: 8489562
Heartbeat_Variant_0 : 1381 0.337158 per_variant_size: 0 1381 0 0 0 0 0 0 0 
Heartbeat_Variant_1 : 1273 0.310791 per_variant_size: 0 577 696 0 0 0 0 0 0 
Heartbeat_Variant_2 : 1367 0.33374 per_variant_size: 0 530 371 257 209 0 0 0 0 
Heartbeat_Variant_3 : 0 0 per_variant_size: 0 0 0 0 0 0 0 0 0 
Heartbeat_Variant_0_evicts 0 : 5558 1 : 0 2 : 0 3 : 0 
Heartbeat_Variant_1_evicts 0 : 0 1 : 0 2 : 196 3 : 0 
Heartbeat_Variant_2_evicts 0 : 0 1 : 196 2 : 0 3 : 0 
Heartbeat_Variant_3_evicts 0 : 0 1 : 0 2 : 0 3 : 0 
Heartbeat CPU 0 instructions: 100000002 cycles: 73163004 heartbeat IPC: 0.849375 cumulative IPC: 0.844954 (Simulation time: 0 hr 12 min 20 sec) 
Finished CPU 0 instructions: 50000003 cycles: 59174796 cumulative IPC: 0.844954 (Simulation time: 0 hr 12 min 20 sec) 

ChampSim completed all CPUs

Region of Interest Statistics

CPU 0 cumulative IPC: 0.844954 instructions: 50000003 cycles: 59174796
 Fetch stage stalled: 37.7612  Sim cycles: 59174796 fetch stall cycle: 22345082
 Empty decode stage: 70.752  Sim cycles: 59174796 fetch stall cycle: 41867362
ITLB TOTAL     ACCESS:    7257763  HIT:    6760156  MISS:     497607  HIT %:    93.1438  MISS %:     6.8562   MPKI: 9.95214
ITLB LOAD TRANSLATION INSTRUCTION	ACCESS:    7257763  HIT:    6760156  MISS:     497607  HIT %:    93.1438  MISS %:     6.8562  MPKI: 9.95214

ITLB AVERAGE MISS LATENCY: 9.05147 cycles
ITLB RQ	ACCESS:    8400693	FORWARD:          0	MERGED:     939045	TO_CACHE:    7461648

DTLB TOTAL     ACCESS:   10494064  HIT:   10014051  MISS:     480013  HIT %:    95.4259  MISS %:    4.57414   MPKI: 9.60026
DTLB LOAD TRANSLATION DATA	ACCESS:   10494064  HIT:   10014051  MISS:     480013  HIT %:    95.4259  MISS %:    4.57414  MPKI: 9.60026

DTLB AVERAGE MISS LATENCY: 9.28381 cycles
DTLB RQ	ACCESS:   14558831	FORWARD:          0	MERGED:    4035502	TO_CACHE:   10523329

STLB TOTAL     ACCESS:    1231306  HIT:    1229019  MISS:       2287  HIT %:    99.8143  MISS %:   0.185738   MPKI: 0.04574
STLB LOAD TRANSLATION INSTRUCTION	ACCESS:     497607  HIT:     497136  MISS:        471  HIT %:    99.9053  MISS %:   0.094653  MPKI: 0.00942
STLB LOAD TRANSLATION DATA	ACCESS:     480010  HIT:     478211  MISS:       1799  HIT %:    99.6252  MISS %:   0.374784  MPKI: 0.03598
STLB TRANSLATION FROM L1D PREFETCHER DATA	ACCESS:     253689  HIT:     253672  MISS:         17  HIT %:    99.9933  MISS %: 0.00670112  MPKI: 0.00034

STLB AVERAGE MISS LATENCY: 61.5562 cycles
STLB RQ	ACCESS:    1343740	FORWARD:          0	MERGED:     112394	TO_CACHE:    1231346

STLB Hit, L1D data hit: 0
STLB Hit, L2C data hit: 0
STLB Hit, LLC data hit: 0
STLB Hit, LLC data miss: 0
STLB STLB hints to L2: 0
L1D TOTAL     ACCESS:   14353563  HIT:   13240157  MISS:    1113406  HIT %:     92.243  MISS %:      7.757   MPKI: 22.2681
L1D LOAD DATA	ACCESS:    7688826  HIT:    6955074  MISS:     733752  HIT %:    90.4569  MISS %:     9.5431  MPKI: 14.675
L1D RFO DATA	ACCESS:    6338066  HIT:    6049739  MISS:     288327  HIT %:    95.4509  MISS %:    4.54913  MPKI: 5.76654
L1D PREFETCH DATA	ACCESS:     326671  HIT:     235344  MISS:      91327  HIT %:    72.0431  MISS %:    27.9569  MPKI: 1.82654

L1D PREFETCH  REQUESTED:     732422  ISSUED:     732422  USEFUL:      33521  USELESS:      66177
L1D USEFUL LOAD PREFETCHES:      33521 PREFETCH ISSUED TO LOWER LEVEL:      99777  ACCURACY: 33.5959
 TIMELY PREFETCHES:      33521 LATE PREFETCHES: 8337 DROPPED PREFETCHES: 13
L1D AVERAGE MISS LATENCY: 327053 cycles
L1D RQ	ACCESS:   11490938	FORWARD:          0	MERGED:    3622121	TO_CACHE:    7716619
L1D WQ	ACCESS:    6956692	FORWARD:     152380	MERGED:     114480	TO_CACHE:    6842212
L1D PQ	ACCESS:     366302	FORWARD:          0	MERGED:          0	TO_CACHE:     366120

L1D UNIQUE REGIONS ACCESSED: 0
L1D REGIONS CONFLICTS: 0
L1D Cross Page Prefetch Requests: 5944
L1D Same Page Prefetch Requests: 747374
L1D ROI Sum of L1D PQ occupancy: 4653996
L1D PREFETCHES PUSHED FROM L2C: 0
L1I TOTAL     ACCESS:    7897754  HIT:    5120997  MISS:    2776757  HIT %:    64.8412  MISS %:    35.1588   MPKI: 55.5351
L1I LOAD INSTRUCTION	ACCESS:    7897754  HIT:    5120997  MISS:    2776757  HIT %:    64.8412  MISS %:    35.1588  MPKI: 55.5351

L1I AVERAGE MISS LATENCY: 16.7498 cycles
L1I RQ	ACCESS:   15231308	FORWARD:          0	MERGED:    6830615	TO_CACHE:    8400693

L1BTB TOTAL     ACCESS:    5670435  HIT:    2027510  MISS:    3642925  HIT %:    35.7558  MISS %:    64.2442   MPKI: 72.8585
L1BTB BRANCH_DIRECT_JUMP	ACCESS:     547711  HIT:     144129  MISS:     403582	AVERAGE STALL: 21.678
L1BTB BRANCH_INDIRECT	ACCESS:     182663  HIT:      65673  MISS:     116990	AVERAGE STALL: 47.9622
L1BTB BRANCH_CONDITIONAL	ACCESS:    2696628  HIT:    1400577  MISS:    1296051	AVERAGE STALL: 25.7206
L1BTB BRANCH_DIRECT_CALL	ACCESS:     949511  HIT:     105243  MISS:     844268	AVERAGE STALL: 33.1498
L1BTB BRANCH_INDIRECT_CALL	ACCESS:     172208  HIT:      21144  MISS:     151064	AVERAGE STALL: 63.3174
L1BTB BRANCH_RETURN	ACCESS:    1121714  HIT:     290744  MISS:     830970	AVERAGE STALL: 32.3218
L1BTB BRANCH_OTHER ACCESS:          0  HIT:          0  MISS:          0	AVERAGE STALL: -nan
L1BTB TOTAL ROB OCCUPANCY AT BTB MISS: 0.557783

L2BTB TOTAL     ACCESS:    3617577  HIT:    3550301  MISS:      67276  HIT %:    98.1403  MISS %:     1.8597   MPKI: 1.34552
L2BTB BRANCH_DIRECT_JUMP	ACCESS:     399477  HIT:     395525  MISS:       3952	AVERAGE STALL: 21.678
L2BTB BRANCH_INDIRECT	ACCESS:     106653  HIT:     103958  MISS:       2695	AVERAGE STALL: 47.9622
L2BTB BRANCH_CONDITIONAL	ACCESS:    1296051  HIT:    1290807  MISS:       5244	AVERAGE STALL: 25.7206
L2BTB BRANCH_DIRECT_CALL	ACCESS:     844267  HIT:     842660  MISS:       1607	AVERAGE STALL: 33.1498
L2BTB BRANCH_INDIRECT_CALL	ACCESS:     141575  HIT:     131477  MISS:      10098	AVERAGE STALL: 63.3174
L2BTB BRANCH_RETURN	ACCESS:     829554  HIT:     785874  MISS:      43680	AVERAGE STALL: 32.3218
L2BTB BRANCH_OTHER ACCESS:          0  HIT:          0  MISS:          0	AVERAGE STALL: -nan
L2BTB TOTAL ROB OCCUPANCY AT BTB MISS: 30.2034

L2C TOTAL     ACCESS:    4495103  HIT:    4057357  MISS:     437746  HIT %:    90.2617  MISS %:    9.73829   MPKI: 8.75492
L2C LOAD INSTRUCTION	ACCESS:    2776757  HIT:    2536789  MISS:     239968  HIT %:     91.358  MISS %:    8.64202  MPKI: 4.79936
L2C LOAD TRANSLATION INSTRUCTION	ACCESS:        506  HIT:        158  MISS:        348  HIT %:    31.2253  MISS %:    68.7747  MPKI: 0.00696
L2C LOAD DATA	ACCESS:     725403  HIT:     658048  MISS:      67355  HIT %:    90.7148  MISS %:    9.28518  MPKI: 1.3471
L2C RFO DATA	ACCESS:     288206  HIT:     241437  MISS:      46769  HIT %:    83.7724  MISS %:    16.2276  MPKI: 0.93538
L2C PREFETCH DATA	ACCESS:     179970  HIT:     111774  MISS:      68196  HIT %:     62.107  MISS %:     37.893  MPKI: 1.36392
L2C WRITEBACK DATA	ACCESS:     522358  HIT:     508519  MISS:      13839  HIT %:    97.3507  MISS %:    2.64933  MPKI: 0.27678
L2C LOAD TRANSLATION DATA	ACCESS:       1859  HIT:        604  MISS:       1255  HIT %:    32.4906  MISS %:    67.5094  MPKI: 0.0251
L2C TRANSLATION FROM L1D PREFETCHER DATA	ACCESS:         44  HIT:         28  MISS:         16  HIT %:    63.6364  MISS %:    36.3636  MPKI: 0.00032

L2C PREFETCH  REQUESTED:      86863  ISSUED:      86863  USEFUL:       7745  USELESS:      60857
L2C USEFUL LOAD PREFETCHES:       7745 PREFETCH ISSUED TO LOWER LEVEL:      68598  ACCURACY: 11.2904
 TIMELY PREFETCHES:       7745 LATE PREFETCHES: 402 DROPPED PREFETCHES: 0
L2C AVERAGE MISS LATENCY: 38.5436 cycles
L2C RQ	ACCESS:    3792797	FORWARD:          0	MERGED:          0	TO_CACHE:    3792778
L2C WQ	ACCESS:     522358	FORWARD:         19	MERGED:          0	TO_CACHE:     522358
L2C PQ	ACCESS:     186640	FORWARD:          0	MERGED:       3265	TO_CACHE:     183375

L2C Dense regions hint from L2: 0
PSCL5 TOTAL     ACCESS:       4606  HIT:       2303  MISS:       2303  HIT %:         50  MISS %:         50   MPKI: 0.04606
PSCL5 LOAD TRANSLATION INSTRUCTION	ACCESS:       4518  HIT:       2259  MISS:       2259  HIT %:         50  MISS %:         50  MPKI: 0.04518
PSCL5 TRANSLATION FROM L1D PREFETCHER INSTRUCTION	ACCESS:         88  HIT:         44  MISS:         44  HIT %:         50  MISS %:         50  MPKI: 0.00088


PSCL4 TOTAL     ACCESS:       4478  HIT:       2237  MISS:       2241  HIT %:    49.9553  MISS %:    50.0447   MPKI: 0.04482
PSCL4 LOAD TRANSLATION INSTRUCTION	ACCESS:       4261  HIT:       2198  MISS:       2063  HIT %:    51.5841  MISS %:    48.4159  MPKI: 0.04126
PSCL4 TRANSLATION FROM L1D PREFETCHER INSTRUCTION	ACCESS:         78  HIT:         39  MISS:         39  HIT %:         50  MISS %:         50  MPKI: 0.00078
PSCL4 LOAD TRANSLATION DATA	ACCESS:        139  HIT:          0  MISS:        139  HIT %:          0  MISS %:        100  MPKI: 0.00278


PSCL3 TOTAL     ACCESS:       4367  HIT:       2176  MISS:       2191  HIT %:    49.8283  MISS %:    50.1717   MPKI: 0.04382
PSCL3 LOAD TRANSLATION INSTRUCTION	ACCESS:       3095  HIT:       2137  MISS:        958  HIT %:    69.0468  MISS %:    30.9532  MPKI: 0.01916
PSCL3 TRANSLATION FROM L1D PREFETCHER INSTRUCTION	ACCESS:         50  HIT:         39  MISS:         11  HIT %:         78  MISS %:         22  MPKI: 0.00022
PSCL3 LOAD TRANSLATION DATA	ACCESS:       1194  HIT:          0  MISS:       1194  HIT %:          0  MISS %:        100  MPKI: 0.02388
PSCL3 TRANSLATION FROM L1D PREFETCHER DATA	ACCESS:         28  HIT:          0  MISS:         28  HIT %:          0  MISS %:        100  MPKI: 0.00056


PSCL2 TOTAL     ACCESS:       4518  HIT:       2215  MISS:       2303  HIT %:    49.0261  MISS %:    50.9739   MPKI: 0.04606
PSCL2 LOAD TRANSLATION INSTRUCTION	ACCESS:       2642  HIT:       2171  MISS:        471  HIT %:    82.1726  MISS %:    17.8274  MPKI: 0.00942
PSCL2 TRANSLATION FROM L1D PREFETCHER INSTRUCTION	ACCESS:         44  HIT:         44  MISS:          0  HIT %:        100  MISS %:          0  MPKI: 0
PSCL2 LOAD TRANSLATION DATA	ACCESS:       1788  HIT:          0  MISS:       1788  HIT %:          0  MISS %:        100  MPKI: 0.03576
PSCL2 TRANSLATION FROM L1D PREFETCHER DATA	ACCESS:         44  HIT:          0  MISS:         44  HIT %:          0  MISS %:        100  MPKI: 0.00088


LLC TOTAL     ACCESS:     491962  HIT:     465336  MISS:      26626  HIT %:    94.5878  MISS %:    5.41221   MPKI: 0.53252
LLC LOAD INSTRUCTION	ACCESS:     239968  HIT:     239353  MISS:        615  HIT %:    99.7437  MISS %:   0.256284  MPKI: 0.0123
LLC LOAD TRANSLATION INSTRUCTION	ACCESS:        348  HIT:        334  MISS:         14  HIT %:     95.977  MISS %:    4.02299  MPKI: 0.00028
LLC LOAD DATA	ACCESS:      67022  HIT:      63647  MISS:       3375  HIT %:    94.9643  MISS %:    5.03566  MPKI: 0.0675
LLC RFO DATA	ACCESS:      46700  HIT:      33865  MISS:      12835  HIT %:    72.5161  MISS %:    27.4839  MPKI: 0.2567
LLC PREFETCH DATA	ACCESS:      68598  HIT:      59149  MISS:       9449  HIT %:    86.2255  MISS %:    13.7745  MPKI: 0.18898
LLC WRITEBACK DATA	ACCESS:      68055  HIT:      67768  MISS:        287  HIT %:    99.5783  MISS %:   0.421718  MPKI: 0.00574
LLC LOAD TRANSLATION DATA	ACCESS:       1255  HIT:       1204  MISS:         51  HIT %:    95.9363  MISS %:    4.06375  MPKI: 0.00102
LLC TRANSLATION FROM L1D PREFETCHER DATA	ACCESS:         16  HIT:         16  MISS:          0  HIT %:        100  MISS %:          0  MPKI: 0

LLC AVERAGE MISS LATENCY: 154.85 cycles
LLC RQ	ACCESS:     355309	FORWARD:          0	MERGED:          0	TO_CACHE:     355309
LLC WQ	ACCESS:      68055	FORWARD:          0	MERGED:          0	TO_CACHE:      68055
LLC PQ	ACCESS:      68598	FORWARD:          0	MERGED:          0	TO_CACHE:      68598

LLC Dense regions hint to LLC: 0

RAW hits: 1145200
Loads Generated: 12636138
Loads sent to L1D: 11490938
Stores Generated: 6956688
Stores sent to L1D: 6956692
Major fault: 0 Minor fault: 2586
Allocated PAGES: 2586

stream: 
stream:times selected: 1177670
stream:pref_filled: 119559
stream:pref_useful: 24240
stream:pref_late: 6057
stream:misses: 6170
stream:misses_by_poll: 0

CS: 
CS:times selected: 177860
CS:pref_filled: 56933
CS:pref_useful: 34787
CS:pref_late: 7369
CS:misses: 16712
CS:misses_by_poll: 3

CPLX: 
CPLX:times selected: 998731
CPLX:pref_filled: 21172
CPLX:pref_useful: 4777
CPLX:pref_late: 3180
CPLX:misses: 91399
CPLX:misses_by_poll: 0

NL_L1: 
NL:times selected: 18623
NL:pref_filled: 562
NL:pref_useful: 247
NL:pref_late: 181
NL:misses: 655
NL:misses_by_poll: 0

total selections: 2372884
total_filled: 91327
total_useful: 33521
total_late: 18040
total_polluted: 3
total_misses_after_warmup: 761543
conflicts: 6040130

test: 117065

DRAM Statistics
 CHANNEL 0
 RQ ROW_BUFFER_HIT:       9676  ROW_BUFFER_MISS:      16650
 DBUS_CONGESTED:          6
 WQ ROW_BUFFER_HIT:       1204  ROW_BUFFER_MISS:      11675  FULL:          0

 AVG_CONGESTED_CYCLE: 3

CPU 0 Branch Prediction Accuracy: 99.8222% MPKI: 0.32532 Average ROB Occupancy at Mispredict: 67.577
Branch types
NOT_BRANCH: 40848668 81.6973%
BRANCH_DIRECT_JUMP: 547711 1.09542%
BRANCH_INDIRECT: 182663 0.365326%
BRANCH_CONDITIONAL: 6177191 12.3544%
BRANCH_DIRECT_CALL: 949511 1.89902%
BRANCH_INDIRECT_CALL: 172208 0.344416%
BRANCH_RETURN: 1121714 2.24343%
BRANCH_OTHER: 0 0%

DRAM PAGES: 1048576
Allocated PAGES: 2586
Average_ROB_Occupancy: 48.773
Average_Decode_Occupancy: 4.66119
Average_FTQ_Occupancy: 13.8249
Indirect max targets: 14 Average targets: 1.15541
Branch_type:  BRANCH_DIRECT_JUMP:  Count Percentage: 3.81002 6.01421 3.70829 3.27462 7.4986 5.44861 6.82825 63.4174 
Branch_type:  BRANCH_INDIRECT:  Count Percentage: 11.7602 3.41528 2.53817 0 13.0346 2.80977 16.5673 49.8747 
Branch_type:  BRANCH_CONDITIONAL:  Count Percentage: 21.1912 3.00289 2.12477 2.50275 3.44818 4.56298 3.40731 59.7599 
Branch_type:  BRANCH_DIRECT_CALL:  Count Percentage: 0.889791 1.27294 0.737454 2.27173 4.11497 2.83812 0.887199 86.9878 
Branch_type:  BRANCH_INDIRECT_CALL:  Count Percentage: 9.56317 0 2.99794 0.00378786 0 2.32254 0.997955 84.1146 
Branch_type:  BRANCH_RETURN:  Count Percentage: 4.73397 1.42504 2.14383 2.46587 4.19639 5.27518 3.69037 76.0694 
Branch_type:  BRANCH_DIRECT_JUMP:  Total Count: 41758 65916 40643 35890 82185 59717 74838 695058 
Branch_type:  BRANCH_INDIRECT:  Total Count: 43039 12499 9289 0 47703 10283 60632 182528 
Branch_type:  BRANCH_CONDITIONAL:  Total Count: 2617459 370906 262444 309131 425906 563602 420859 7381325 
Branch_type:  BRANCH_DIRECT_CALL:  Total Count: 16816 24057 13937 42933 77768 53637 16767 1643966 
Branch_type:  BRANCH_INDIRECT_CALL:  Total Count: 32821 0 10289 13 0 7971 3425 288683 
Branch_type:  BRANCH_RETURN:  Total Count: 105752 31834 47891 55085 93743 117842 82439 1699311 
Number of unique branch instructions: 10076
Upper 32 bits: 
aaaa
ffff
ffff0000
Unique upper 32 bits: 3
Unique upper 36 bits: 3
Unique upper 40 bits: 5
Unique upper 44 bits: 32
Unique upper 48 bits: 155
Variant_0 : 1381 0.337158
Variant_1 : 1273 0.310791
Variant_2 : 1367 0.33374
Variant_3 : 0 0
Offset_3 4161
Offset_4 247
Offset_5 461
Offset_6 511
Offset_7 599
Offset_8 510
Offset_9 465
Offset_10 386
Offset_11 319
Offset_12 283
Offset_13 218
Offset_14 237
Offset_15 190
Offset_16 224
Offset_17 157
Offset_18 122
Offset_19 249
Offset_20 139
Offset_21 235
Offset_22 405
Offset_23 241
Offset_24 331
Offset_25 92
Offset_47 82
Offset_64 2
decode_dispatch_called: 30670437 51.8302
Dispatch_width: 0 18556653 60.5034 31.359
Dispatch_width: 1 2321664 7.56971 3.9234
Dispatch_width: 2 1138404 3.71173 1.9238
Dispatch_width: 3 1081072 3.5248 1.82691
Dispatch_width: 4 1008538 3.28831 1.70434
Dispatch_width: 5 1260798 4.11079 2.13063
Dispatch_width: 6 5303308 17.2913 8.96211
Empty_decode_cycles: 28504359 48.1698
ROB_full_cycles: 459435 0.776403
Starvation_cycles_per_kilo_instr: 534.12
Starvation_cycles_per_kilo_instr_3: 511.427
Starvation_cycles_per_kilo_instr_0: 466.016
Branch_type_1  (3,1)  (4,9)  (5,37)  (6,71)  (7,118)  (8,129)  (9,122)  (10,99)  (11,69)  (12,43)  (13,8)  (14,2)  (15,3)  (16,4)  (18,1)  (19,4)  (20,2)  (21,1)  (22,3)  (23,2)  (24,10)  (25,12) 
Branch_type_2  (3,1)  (4,1)  (5,1)  (8,3)  (9,3)  (12,1)  (13,1)  (14,1)  (16,3)  (17,2)  (20,2)  (21,2)  (23,5)  (24,1)  (47,37) 
Branch_type_3  (3,4159)  (4,237)  (5,419)  (6,425)  (7,452)  (8,317)  (9,251)  (10,156)  (11,124)  (12,50)  (13,7)  (20,1)  (64,1) 
Branch_type_4  (6,3)  (7,8)  (8,25)  (9,52)  (10,62)  (11,63)  (12,104)  (13,93)  (14,107)  (15,90)  (16,100)  (17,72)  (18,55)  (19,124)  (20,71)  (21,124)  (22,216)  (23,136)  (24,191)  (25,76)  (64,1) 
Branch_type_5  (8,2)  (9,1)  (10,4)  (11,6)  (12,3)  (13,14)  (14,16)  (15,11)  (16,20)  (17,11)  (18,16)  (19,12)  (20,11)  (21,13)  (22,42)  (23,26)  (24,37) 
Branch_type_6  (5,4)  (6,12)  (7,21)  (8,34)  (9,36)  (10,65)  (11,57)  (12,82)  (13,95)  (14,111)  (15,86)  (16,97)  (17,72)  (18,50)  (19,109)  (20,52)  (21,95)  (22,144)  (23,72)  (24,92)  (25,4)  (47,45) 
Unique trigger count: 
Variant_0_evicts_0 : 0
Variant_0_evicts_1 : 0
Variant_0_evicts_2 : 0
Variant_0_evicts_3 : 0
Variant_1_evicts_0 : 0
Variant_1_evicts_1 : 0
Variant_1_evicts_2 : 0
Variant_1_evicts_3 : 0
Variant_2_evicts_0 : 0
Variant_2_evicts_1 : 0
Variant_2_evicts_2 : 0
Variant_2_evicts_3 : 0
Variant_3_evicts_0 : 0
Variant_3_evicts_1 : 0
Variant_3_evicts_2 : 0
Variant_3_evicts_3 : 0
BTB PER SET UNIQUE ADDR: 10 12 9 12 9 11 6 8 7 11 7 13 13 11 10 10 8 9 8 12 12 8 11 7 9 11 14 10 13 10 13 16 17 7 7 11 12 11 7 11 8 10 9 15 9 13 12 6 11 10 15 12 14 11 7 5 5 12 9 8 14 14 14 11 9 14 6 8 15 10 11 12 19 11 8 9 9 10 9 10 11 7 14 18 14 16 10 9 7 21 6 7 14 11 5 17 9 7 10 19 17 16 12 7 12 13 16 11 9 13 10 10 10 10 8 7 16 14 9 9 14 9 12 10 9 14 5 10 16 9 7 19 10 14 12 14 5 15 10 19 8 11 12 11 13 8 12 10 8 15 14 13 9 7 13 20 12 11 13 15 11 12 9 14 10 11 12 8 9 11 13 11 10 9 10 9 11 11 8 11 9 11 7 15 21 16 6 11 8 7 7 9 9 12 13 11 9 10 10 11 10 11 10 11 12 11 13 13 6 10 8 10 10 10 12 12 12 15 11 20 9 16 11 7 10 8 18 6 7 19 7 7 8 10 10 9 8 11 14 11 10 10 14 12 9 9 13 11 13 8 13 7 14 10 11 13 11 9 7 7 11 9 6 11 8 7 9 9 11 12 10 7 9 7 8 9 11 13 12 10 10 14 9 12 13 9 12 16 13 12 11 4 10 16 6 12 10 12 14 14 9 9 12 13 14 12 11 8 12 9 9 17 8 17 10 5 15 11 8 14 6 16 8 11 10 10 12 9 7 7 12 10 10 8 7 11 9 14 8 11 8 11 8 15 15 13 10 11 9 10 15 8 8 13 11 16 15 8 5 10 13 12 7 17 11 8 8 9 16 13 10 12 8 9 11 10 9 13 12 9 14 10 6 10 11 11 16 12 9 11 14 9 13 13 7 7 11 10 16 11 9 11 9 6 16 12 11 13 12 9 8 11 4 14 11 11 11 14 15 16 9 7 10 10 11 11 5 10 11 11 13 10 13 12 14 10 15 10 8 12 15 10 11 12 24 8 11 8 12 13 15 14 14 12 17 14 11 10 10 14 11 6 10 15 15 8 12 10 14 12 7 10 13 9 8 10 10 11 5 12 17 7 10 16 7 12 14 9 13 8 16 17 11 8 9 12 14 9 8 11 11 13 13 20 10 8 11 15 14 10 12 16 10 11 10 13 9 14 10 8 8 8 15 14 10 11 16 8 10 13 12 10 12 9 9 16 12 13 13 10 11 9 10 14 18 13 8 11 6 11 16 9 11 11 11 13 12 6 18 13 13 18 10 13 8 12 8 13 10 13 14 13 13 14 11 13 15 14 9 15 12 11 7 11 15 11 17 11 14 11 12 12 12 8 18 8 7 13 8 14 10 11 7 6 10 10 15 12 10 12 16 14 8 9 5 16 9 12 10 10 16 11 5 8 14 12 8 12 7 14 8 12 10 12 7 10 14 12 9 14 11 10 11 14 13 8 13 18 9 11 11 11 9 10 11 12 8 12 15 11 11 6 16 12 10 13 7 13 13 12 17 11 11 16 16 9 14 13 13 12 14 12 10 12 13 14 11 17 15 11 17 17 9 7 10 10 12 13 8 10 10 10 13 15 6 12 12 7 11 6 10 10 10 9 9 12 14 8 7 10 12 7 12 12 9 7 13 10 11 11 13 7 13 10 6 13 15 14 10 8 8 12 16 10 10 13 10 12 14 9 11 11 12 8 11 7 12 8 7 9 10 5 4 13 10 12 11 15 9 12 9 15 11 7 10 7 8 8 12 14 9 17 10 11 11 9 11 6 8 7 8 10 14 9 12 16 13 10 9 10 14 13 13 12 15 15 13 11 7 10 10 21 15 11 14 12 15 12 5 11 10 17 10 12 12 17 6 14 9 11 11 17 12 10 11 10 11 13 10 9 18 11 12 12 9 11 6 10 11 8 11 10 8 12 16 15 13 10 14 9 15 6 10 15 15 8 12 8 14 9 6 9 12 12 12 8 15 8 12 10 13 6 15 16 15 16 12 9 11 14 10 11 11 12 11 13 11 8 12 7 12 5 12 12 4 8 7 9 13 15 11 10 10 14 12 9 20 19 10 10 12 14 10 9 8 10 9 11 11 6 15 16 14 15 5 14 10 12 11 12 8 16 9 17 8 10 10 10 11 10 12 11 12 13 12 14 12 10 15 10 15 12 12 17 13 10 13 12 7 16 10 13 16 9 14 13 13 17 15 17 12 7 11 13 11 16 12 14 13 12 18 10 12 11 11 10 10 10 11 12 16 14 9 10 12 15 8 8 11 12 7 13 11 9 11 12 7 8 5 7 11 13 11 9 
BTB PER SET COUNT: 11 15 1970 16 11 17 8 9 1477 13 7 594 13 12 12 13 11 1449 8 18 13 12 768 8 9 12 20 183 255 995 19 21 26 7 9 14 15 12 7 808 9 11 15 507 272 94 12 6 74 12 16 13 28 18 9 5 5 21 14 8 23 19 300 14 9 94 6 11 20 12 23 993 31 14 9 14 11 12 18 13 589 7 810 24 19 29 11 10 529 72 7 840 300 86 5 21 499 8 11 9029 27 175 19 8 1723 19 24 16 480 50 10 13 578 10 11 15 24 18 1477 93 22 9 19 12 10 54 5 15 20 943 9 26 17 16 15 30 904 24 16 30 11 17 16 11 18 192 14 11 13 51 24 179 1605 10 18 25 336 13 19 21 14 15 16 23 899 14 35 8 14 275 14 16 16 16 10 10 15 15 12 14 584 233 7 21 36 22 6 13 8 984 9 9 13 14 15 12 9 739 16 13 17 20 10 11 20 13 25 21 9 38 11 11 10 14 23 3448 13 18 1482 28 10 23 21 7 11 13 27 245 454 34 8 11 12 14 992 11 347 12 27 12 1236 13 26 408 10 988 19 14 18 8 14 9 22 10 13 650 11 12 9 14 16 11 6 15 13 7 10 15 13 16 21 7 12 8 953 11 17 18 15 13 10 25 14 359 13 10 15 808 15 13 17 8 14 26 7 13 10 13 17 33 9 11 1000 13 20 137 103 8 252 425 12 34 8 19 1479 408 17 22 9 30 7 3346 8 12 12 15 57 13 8 11 17 10 17 8 8 501 10 470 12 12 8 26 9 23 18 19 10 15 9 14 286 590 14 18 12 19 21 8 5 20 20 15 9 22 12 10 13 9 28 17 12 12 10 10 216 10 10 17 194 12 300 11 10 11 15 14 27 18 9 15 514 9 15 15 8 10 13 16 1486 41 10 14 9 7 24 15 17 504 15 11 9 12 4 969 12 21 20 8763 15 17 9 7 29 13 16 27 5 14 20 17 19 14 23 14 509 17 269 47 9 18 18 13 19 16 862 12 14 11 14 19 540 20 18 18 22 280 14 12 15 22 19 6 14 21 19 8 13053 11 18 17 15 11 14 12 8 16 10 13 5 16 21 8 11 24 9 17 19 15 18 15 430 31 12 10 12 14 1303 10 12 17 13 19 15 150 10 9 14 19 20 12 247 1543 45 16 13 13 9 19 14 8 8 9 19 22 15 17 23 10 15 20 18 14 16 13 14 25 30 996 17 415 11 9 13 23 34 505 9 13 9 16 25 13 993 14 13 21 17 15 39 21 13 25 13 17 994 14 151 21 11 600 1483 15 19 20 2462 13 17 1976 13 25 19 15 12 15 23 23 878 17 20 11 17 12 17 8 18 12 1626 250 10 21 13 22 9 7 14 12 19 1846 10 18 22 17 23 11 5 16 377 16 22 16 22 15 6 648 20 12 9 19 8 21 8 20 10 17 9 12 21 982 9 20 17 12 18 1350 954 11 994 23 13 15 15 12 9 10 1708 18 9 26 30 14 13 6 23 16 11880 22 11 916 1485 22 20 14 15 25 27 11 21 17 14 17 15 12 993 21 1280 22 16 30 19 13 35 29 9 8 101 11 19 290 10 10 12 17 74 19 6 14 16 8 13 8 133 51 16 9 13 121 18 8 19 689 15 1041 12 14 1724 8 19 16 19 18 173 2617 14 127 6 1000 998 18 11 11 906 18 23 10 16 21 156 12 17 11 342 16 499 1966 1125 9 23 9 7 15 12 5 5 14 332 18 13 16 11 24 12 20 14 7 12 8 8 10 15 22 112 24 55 12 16 9 14 9 14 10 11 991 17 9 13 28 19 15 9 149 162 22 387 189 17 16 15 15 8 59 14 783 19 14 25 677 18 1085 6 2204 11 20 13 18 165 29 6 18 9 15 13 22 18 12 31 1951 13 654 10 11 35 402 18 14 1097 13 7 11 13 9 12 601 22 19 1497 16 18 13 21 10 448 7 11 18 998 14 19 11 22 9 13 34 16 15 21 8 21 9 2624 17 19 6 155 21 728 2353 13 11 11 16 13 11 641 16 18 19 17 9 1516 7 16 7 19 29 4 10 7 15 14 111 335 503 12 17 12 356 722 530 22 15 15 14 12 11 8 986 14 14 13 11 16 23 395 17 8 18 19 20 13 19 8 279 12 21 9 10 11 10 23 12 20 59 1753 2196 22 22 12 10 40 11 1124 19 502 24 16 11 17 22 45 27 81 2080 22 11 225 15 23 22 801 27 18 9 14 1627 19 1847 471 190 20 18 32 13 14 14 15 11 13 1485 14 1192 28 1486 16 11 16 18 9 8 13 999 7 16 12 11 19 15 10 366 5 9 15 18 15 12 
To predecode: 0
Predecoding something: 0
Predecode request dropped: 0
sizeofblock_0 0
sizeofblock_1 38718
sizeofblock_2 35276
sizeofblock_3 43914
sizeofblock_4 23011
sizeofblock_5 0
sizeofblock_6 0
sizeofblock_7 0
sizeofblock_8 0
Variant_0 Correct: 1615051 Incorrect: 0 Accuracy: 1
Variant_1 Correct: 2091263 Incorrect: 0 Accuracy: 1
Variant_2 Correct: 3645197 Incorrect: 0 Accuracy: 1
Variant_3 Correct: 0 Incorrect: 0 Accuracy: -nan
