
*** ChampSim Multicore Out-of-Order Simulator ***

Warmup Instructions: 50000000
Simulation Instructions: 50000000
Number of CPUs: 1
LLC sets: 2048
LLC ways: 16
Off-chip DRAM Size: 4096 MB Channels: 1 Width: 64-bit Data Rate: 6400 MT/s
CPU 0 runs ./micro_traces/srv567.trace.gz
.gz
ITLB has LRU replacement policy
DTLB has LRU replacement policy
STLB has LRU replacement policy
FDIP Prefetcher at L1I
L1I has LRU replacement policy
L1D has LRU replacement policy
Initialize SRRIP state for L2C
Initialize DRRIP state for LLC
Heartbeat CPU 0 instructions: 10000000 cycles: 2797995 heartbeat IPC: 3.57399 cumulative IPC: 3.57399 (Simulation time: 0 hr 2 min 6 sec) 
Heartbeat CPU 0 instructions: 20000002 cycles: 5593072 heartbeat IPC: 3.57772 cumulative IPC: 3.57585 (Simulation time: 0 hr 3 min 58 sec) 
Heartbeat CPU 0 instructions: 30000003 cycles: 8389221 heartbeat IPC: 3.57635 cumulative IPC: 3.57602 (Simulation time: 0 hr 5 min 51 sec) 
Heartbeat CPU 0 instructions: 40000002 cycles: 11185390 heartbeat IPC: 3.57632 cumulative IPC: 3.57609 (Simulation time: 0 hr 7 min 51 sec) 
Heartbeat CPU 0 instructions: 50000001 cycles: 13981874 heartbeat IPC: 3.57592 cumulative IPC: 3.57606 (Simulation time: 0 hr 9 min 56 sec) 

Warmup complete CPU 0 instructions: 50000001 cycles: 13981874 (Simulation time: 0 hr 9 min 56 sec) 

Cycle: 20000000 FTQ IN: 54506923 FTQ occupancy: 17.1333 DECODE IN: 54506917 DECODE occupancy: 43.9707 ROB IN: 54506917 ROB occupancy: 260.511 ROB OUT: 54506905
Heartbeat CPU 0 instructions: 60000001 cycles: 27523955 heartbeat IPC: 0.738439 cumulative IPC: 0.738439 (Simulation time: 0 hr 11 min 29 sec) 
Cycle: 30000000 FTQ IN: 7343482 FTQ occupancy: 3.67801 DECODE IN: 7343488 DECODE occupancy: 6.96576 ROB IN: 7343483 ROB occupancy: 57.1516 ROB OUT: 7343370
Cycle: 40000000 FTQ IN: 7523668 FTQ occupancy: 3.55443 DECODE IN: 7523662 DECODE occupancy: 6.67375 ROB IN: 7523667 ROB occupancy: 55.6497 ROB OUT: 7523665
Heartbeat CPU 0 instructions: 70000003 cycles: 40834765 heartbeat IPC: 0.751269 cumulative IPC: 0.744799 (Simulation time: 0 hr 13 min 3 sec) 
Cycle: 50000000 FTQ IN: 7401294 FTQ occupancy: 3.68273 DECODE IN: 7401281 DECODE occupancy: 6.96398 ROB IN: 7401281 ROB occupancy: 57.1469 ROB OUT: 7401398
Heartbeat CPU 0 instructions: 80000002 cycles: 54308989 heartbeat IPC: 0.742158 cumulative IPC: 0.743916 (Simulation time: 0 hr 14 min 45 sec) 
Cycle: 60000000 FTQ IN: 7469064 FTQ occupancy: 3.56849 DECODE IN: 7469083 DECODE occupancy: 6.72469 ROB IN: 7469083 ROB occupancy: 55.8591 ROB OUT: 7469088
Heartbeat CPU 0 instructions: 90000000 cycles: 67686754 heartbeat IPC: 0.747509 cumulative IPC: 0.744811 (Simulation time: 0 hr 16 min 12 sec) 
Cycle: 70000000 FTQ IN: 7482785 FTQ occupancy: 3.53381 DECODE IN: 7482779 DECODE occupancy: 6.64066 ROB IN: 7482779 ROB occupancy: 55.2829 ROB OUT: 7482756
Cycle: 80000000 FTQ IN: 7358936 FTQ occupancy: 3.69095 DECODE IN: 7358912 DECODE occupancy: 7.0051 ROB IN: 7358912 ROB occupancy: 57.0783 ROB OUT: 7358853
Heartbeat CPU 0 instructions: 100000002 cycles: 81226642 heartbeat IPC: 0.738559 cumulative IPC: 0.743552 (Simulation time: 0 hr 17 min 42 sec) 
Finished CPU 0 instructions: 50000001 cycles: 67244768 cumulative IPC: 0.743552 (Simulation time: 0 hr 17 min 42 sec) 

ChampSim completed all CPUs

Region of Interest Statistics

CPU 0 cumulative IPC: 0.743552 instructions: 50000001 cycles: 67244768
 Fetch stage stalled: 81.8648  Sim cycles: 67244768 fetch stall cycle: 55049813
 Empty decode stage: 69.531  Sim cycles: 67244768 fetch stall cycle: 46755952
ITLB TOTAL     ACCESS:    5742248  HIT:    5248570  MISS:     493678  HIT %:    91.4027  MISS %:    8.59729   MPKI: 9.87356
ITLB LOAD TRANSLATION INSTRUCTION	ACCESS:    5663451  HIT:    5169773  MISS:     493678  HIT %:    91.2831  MISS %:    8.71691  MPKI: 9.87356
ITLB TRANSLATION FROM L1D PREFETCHER INSTRUCTION	ACCESS:      78797  HIT:      78797  MISS:          0  HIT %:        100  MISS %:          0  MPKI: 0

ITLB AVERAGE MISS LATENCY: 9.0434 cycles
ITLB RQ	ACCESS:    7214538	FORWARD:          0	MERGED:    1066997	TO_CACHE:    6147541

DTLB TOTAL     ACCESS:   10115387  HIT:    9641929  MISS:     473458  HIT %:    95.3194  MISS %:    4.68057   MPKI: 9.46916
DTLB LOAD TRANSLATION DATA	ACCESS:   10115387  HIT:    9641929  MISS:     473458  HIT %:    95.3194  MISS %:    4.68057  MPKI: 9.46916

DTLB AVERAGE MISS LATENCY: 9.30297 cycles
DTLB RQ	ACCESS:   14173962	FORWARD:          0	MERGED:    4030659	TO_CACHE:   10143303

STLB TOTAL     ACCESS:    1216552  HIT:    1214462  MISS:       2090  HIT %:    99.8282  MISS %:   0.171797   MPKI: 0.0418
STLB LOAD TRANSLATION INSTRUCTION	ACCESS:     493678  HIT:     493395  MISS:        283  HIT %:    99.9427  MISS %:  0.0573248  MPKI: 0.00566
STLB LOAD TRANSLATION DATA	ACCESS:     473387  HIT:     471611  MISS:       1776  HIT %:    99.6248  MISS %:   0.375169  MPKI: 0.03552
STLB TRANSLATION FROM L1D PREFETCHER DATA	ACCESS:     249487  HIT:     249456  MISS:         31  HIT %:    99.9876  MISS %:  0.0124255  MPKI: 0.00062

STLB AVERAGE MISS LATENCY: 70.0091 cycles
STLB RQ	ACCESS:    1340685	FORWARD:          0	MERGED:     124088	TO_CACHE:    1216597

STLB Hit, L1D data hit: 0
STLB Hit, L2C data hit: 0
STLB Hit, LLC data hit: 0
STLB Hit, LLC data miss: 0
STLB STLB hints to L2: 0
L1D TOTAL     ACCESS:   13965933  HIT:   12849766  MISS:    1116167  HIT %:    92.0079  MISS %:    7.99207   MPKI: 22.3233
L1D LOAD DATA	ACCESS:    7330717  HIT:    6597115  MISS:     733602  HIT %:    89.9928  MISS %:    10.0072  MPKI: 14.672
L1D RFO DATA	ACCESS:    6303311  HIT:    6014750  MISS:     288561  HIT %:    95.4221  MISS %:    4.57793  MPKI: 5.77122
L1D PREFETCH DATA	ACCESS:     331905  HIT:     237901  MISS:      94004  HIT %:    71.6774  MISS %:    28.3226  MPKI: 1.88008

L1D PREFETCH  REQUESTED:     747214  ISSUED:     747214  USEFUL:      34421  USELESS:      67536
L1D USEFUL LOAD PREFETCHES:      34421 PREFETCH ISSUED TO LOWER LEVEL:     101980  ACCURACY: 33.7527
 TIMELY PREFETCHES:      34421 LATE PREFETCHES: 7942 DROPPED PREFETCHES: 7
L1D AVERAGE MISS LATENCY: 339942 cycles
L1D RQ	ACCESS:   11277678	FORWARD:          0	MERGED:    3757647	TO_CACHE:    7356510
L1D WQ	ACCESS:    6947799	FORWARD:     163637	MERGED:     130347	TO_CACHE:    6817452
L1D PQ	ACCESS:     373665	FORWARD:          0	MERGED:          0	TO_CACHE:     373549

L1D UNIQUE REGIONS ACCESSED: 0
L1D REGIONS CONFLICTS: 0
L1D Cross Page Prefetch Requests: 6886
L1D Same Page Prefetch Requests: 753155
L1D ROI Sum of L1D PQ occupancy: 4742182
L1D PREFETCHES PUSHED FROM L2C: 0
L1I TOTAL     ACCESS:    7058933  HIT:    4297415  MISS:    2761518  HIT %:    60.8791  MISS %:    39.1209   MPKI: 55.2304
L1I LOAD INSTRUCTION	ACCESS:    6724000  HIT:    3962482  MISS:    2761518  HIT %:    58.9304  MISS %:    41.0696  MPKI: 55.2304
L1I PREFETCH INSTRUCTION	ACCESS:     334933  HIT:     334933  MISS:          0  HIT %:        100  MISS %:          0  MPKI: 0

L1I PREFETCH  REQUESTED:     587082  ISSUED:     587082  USEFUL:          0  USELESS:          0
L1I USEFUL LOAD PREFETCHES:          0 PREFETCH ISSUED TO LOWER LEVEL:          0  ACCURACY: -nan
 TIMELY PREFETCHES:          0 LATE PREFETCHES: 0 DROPPED PREFETCHES: 0
L1I AVERAGE MISS LATENCY: 17.1985 cycles
L1I RQ	ACCESS:    9467393	FORWARD:          0	MERGED:    2655958	TO_CACHE:    6811435
L1I PQ	ACCESS:     587082	FORWARD:          0	MERGED:     183979	TO_CACHE:     403103

L1BTB TOTAL     ACCESS:    5667694  HIT:    2041615  MISS:    3626079  HIT %:     36.022  MISS %:     63.978   MPKI: 72.5216
L1BTB BRANCH_DIRECT_JUMP	ACCESS:     548036  HIT:     144573  MISS:     403463	AVERAGE STALL: 27.5322
L1BTB BRANCH_INDIRECT	ACCESS:     182827  HIT:      66040  MISS:     116787	AVERAGE STALL: 67.1595
L1BTB BRANCH_CONDITIONAL	ACCESS:    2704651  HIT:    1412664  MISS:    1291987	AVERAGE STALL: 29.8739
L1BTB BRANCH_DIRECT_CALL	ACCESS:     944379  HIT:     106140  MISS:     838239	AVERAGE STALL: 30.5807
L1BTB BRANCH_INDIRECT_CALL	ACCESS:     171711  HIT:      21410  MISS:     150301	AVERAGE STALL: 88.4315
L1BTB BRANCH_RETURN	ACCESS:    1116090  HIT:     290788  MISS:     825302	AVERAGE STALL: 29.7828
L1BTB BRANCH_OTHER ACCESS:          0  HIT:          0  MISS:          0	AVERAGE STALL: -nan
L1BTB TOTAL ROB OCCUPANCY AT BTB MISS: 20.0773

L2BTB TOTAL     ACCESS:    3600739  HIT:    2090024  MISS:    1510715  HIT %:    58.0443  MISS %:    41.9557   MPKI: 30.2143
L2BTB BRANCH_DIRECT_JUMP	ACCESS:     399311  HIT:     220968  MISS:     178343	AVERAGE STALL: 27.5322
L2BTB BRANCH_INDIRECT	ACCESS:     106525  HIT:      89883  MISS:      16642	AVERAGE STALL: 67.1595
L2BTB BRANCH_CONDITIONAL	ACCESS:    1291987  HIT:     755092  MISS:     536895	AVERAGE STALL: 29.8739
L2BTB BRANCH_DIRECT_CALL	ACCESS:     838239  HIT:     434616  MISS:     403623	AVERAGE STALL: 30.5807
L2BTB BRANCH_INDIRECT_CALL	ACCESS:     140768  HIT:      75955  MISS:      64813	AVERAGE STALL: 88.4315
L2BTB BRANCH_RETURN	ACCESS:     823909  HIT:     513510  MISS:     310399	AVERAGE STALL: 29.7828
L2BTB BRANCH_OTHER ACCESS:          0  HIT:          0  MISS:          0	AVERAGE STALL: -nan
L2BTB TOTAL ROB OCCUPANCY AT BTB MISS: 48.1903

L2C TOTAL     ACCESS:    4492099  HIT:    3992892  MISS:     499207  HIT %:     88.887  MISS %:     11.113   MPKI: 9.98414
L2C LOAD INSTRUCTION	ACCESS:    2761518  HIT:    2497453  MISS:     264065  HIT %:    90.4377  MISS %:    9.56231  MPKI: 5.2813
L2C LOAD TRANSLATION INSTRUCTION	ACCESS:        319  HIT:         77  MISS:        242  HIT %:    24.1379  MISS %:    75.8621  MPKI: 0.00484
L2C LOAD DATA	ACCESS:     725621  HIT:     645489  MISS:      80132  HIT %:    88.9568  MISS %:    11.0432  MPKI: 1.60264
L2C RFO DATA	ACCESS:     288527  HIT:     228737  MISS:      59790  HIT %:    79.2775  MISS %:    20.7225  MPKI: 1.1958
L2C PREFETCH DATA	ACCESS:     192265  HIT:     115940  MISS:      76325  HIT %:    60.3022  MISS %:    39.6978  MPKI: 1.5265
L2C WRITEBACK DATA	ACCESS:     521950  HIT:     504636  MISS:      17314  HIT %:    96.6828  MISS %:    3.31718  MPKI: 0.34628
L2C LOAD TRANSLATION DATA	ACCESS:       1850  HIT:        527  MISS:       1323  HIT %:    28.4865  MISS %:    71.5135  MPKI: 0.02646
L2C TRANSLATION FROM L1D PREFETCHER DATA	ACCESS:         49  HIT:         33  MISS:         16  HIT %:    67.3469  MISS %:    32.6531  MPKI: 0.00032

L2C PREFETCH  REQUESTED:      96737  ISSUED:      96737  USEFUL:       8141  USELESS:      68824
L2C USEFUL LOAD PREFETCHES:       8141 PREFETCH ISSUED TO LOWER LEVEL:      76816  ACCURACY: 10.5981
 TIMELY PREFETCHES:       8141 LATE PREFETCHES: 491 DROPPED PREFETCHES: 0
L2C AVERAGE MISS LATENCY: 38.4399 cycles
L2C RQ	ACCESS:    3777923	FORWARD:          0	MERGED:          0	TO_CACHE:    3777885
L2C WQ	ACCESS:     521950	FORWARD:         38	MERGED:          0	TO_CACHE:     521950
L2C PQ	ACCESS:     198717	FORWARD:          0	MERGED:       3257	TO_CACHE:     195460

L2C Dense regions hint from L2: 0
PSCL5 TOTAL     ACCESS:       4198  HIT:       2099  MISS:       2099  HIT %:         50  MISS %:         50   MPKI: 0.04198
PSCL5 LOAD TRANSLATION INSTRUCTION	ACCESS:       4100  HIT:       2050  MISS:       2050  HIT %:         50  MISS %:         50  MPKI: 0.041
PSCL5 TRANSLATION FROM L1D PREFETCHER INSTRUCTION	ACCESS:         98  HIT:         49  MISS:         49  HIT %:         50  MISS %:         50  MPKI: 0.00098


PSCL4 TOTAL     ACCESS:       3976  HIT:       1984  MISS:       1992  HIT %:    49.8994  MISS %:    50.1006   MPKI: 0.03984
PSCL4 LOAD TRANSLATION INSTRUCTION	ACCESS:       3021  HIT:       1936  MISS:       1085  HIT %:    64.0847  MISS %:    35.9153  MPKI: 0.0217
PSCL4 TRANSLATION FROM L1D PREFETCHER INSTRUCTION	ACCESS:         76  HIT:         48  MISS:         28  HIT %:    63.1579  MISS %:    36.8421  MPKI: 0.00056
PSCL4 LOAD TRANSLATION DATA	ACCESS:        859  HIT:          0  MISS:        859  HIT %:          0  MISS %:        100  MPKI: 0.01718
PSCL4 TRANSLATION FROM L1D PREFETCHER DATA	ACCESS:         20  HIT:          0  MISS:         20  HIT %:          0  MISS %:        100  MPKI: 0.0004


PSCL3 TOTAL     ACCESS:       4028  HIT:       2010  MISS:       2018  HIT %:    49.9007  MISS %:    50.0993   MPKI: 0.04036
PSCL3 LOAD TRANSLATION INSTRUCTION	ACCESS:       3047  HIT:       1962  MISS:       1085  HIT %:    64.3912  MISS %:    35.6088  MPKI: 0.0217
PSCL3 TRANSLATION FROM L1D PREFETCHER INSTRUCTION	ACCESS:         76  HIT:         48  MISS:         28  HIT %:    63.1579  MISS %:    36.8421  MPKI: 0.00056
PSCL3 LOAD TRANSLATION DATA	ACCESS:        885  HIT:          0  MISS:        885  HIT %:          0  MISS %:        100  MPKI: 0.0177
PSCL3 TRANSLATION FROM L1D PREFETCHER DATA	ACCESS:         20  HIT:          0  MISS:         20  HIT %:          0  MISS %:        100  MPKI: 0.0004


PSCL2 TOTAL     ACCESS:       4094  HIT:       1995  MISS:       2099  HIT %:    48.7298  MISS %:    51.2702   MPKI: 0.04198
PSCL2 LOAD TRANSLATION INSTRUCTION	ACCESS:       2229  HIT:       1946  MISS:        283  HIT %:    87.3037  MISS %:    12.6963  MPKI: 0.00566
PSCL2 TRANSLATION FROM L1D PREFETCHER INSTRUCTION	ACCESS:         49  HIT:         49  MISS:          0  HIT %:        100  MISS %:          0  MPKI: 0
PSCL2 LOAD TRANSLATION DATA	ACCESS:       1767  HIT:          0  MISS:       1767  HIT %:          0  MISS %:        100  MPKI: 0.03534
PSCL2 TRANSLATION FROM L1D PREFETCHER DATA	ACCESS:         49  HIT:          0  MISS:         49  HIT %:          0  MISS %:        100  MPKI: 0.00098


LLC TOTAL     ACCESS:     565515  HIT:     535777  MISS:      29738  HIT %:    94.7414  MISS %:    5.25857   MPKI: 0.59476
LLC LOAD INSTRUCTION	ACCESS:     264065  HIT:     263116  MISS:        949  HIT %:    99.6406  MISS %:   0.359381  MPKI: 0.01898
LLC LOAD TRANSLATION INSTRUCTION	ACCESS:        242  HIT:        211  MISS:         31  HIT %:    87.1901  MISS %:    12.8099  MPKI: 0.00062
LLC LOAD DATA	ACCESS:      79643  HIT:      76266  MISS:       3377  HIT %:    95.7598  MISS %:    4.24017  MPKI: 0.06754
LLC RFO DATA	ACCESS:      59784  HIT:      44598  MISS:      15186  HIT %:    74.5986  MISS %:    25.4014  MPKI: 0.30372
LLC PREFETCH DATA	ACCESS:      76816  HIT:      67066  MISS:       9750  HIT %:    87.3073  MISS %:    12.6927  MPKI: 0.195
LLC WRITEBACK DATA	ACCESS:      83626  HIT:      83260  MISS:        366  HIT %:    99.5623  MISS %:   0.437663  MPKI: 0.00732
LLC LOAD TRANSLATION DATA	ACCESS:       1323  HIT:       1244  MISS:         79  HIT %:    94.0287  MISS %:    5.97128  MPKI: 0.00158
LLC TRANSLATION FROM L1D PREFETCHER DATA	ACCESS:         16  HIT:         16  MISS:          0  HIT %:        100  MISS %:          0  MPKI: 0

LLC AVERAGE MISS LATENCY: 157.941 cycles
LLC RQ	ACCESS:     405077	FORWARD:          0	MERGED:          0	TO_CACHE:     405073
LLC WQ	ACCESS:      83626	FORWARD:          4	MERGED:          0	TO_CACHE:      83626
LLC PQ	ACCESS:      76816	FORWARD:          0	MERGED:          0	TO_CACHE:      76816

LLC Dense regions hint to LLC: 0

RAW hits: 1360584
Loads Generated: 12638262
Loads sent to L1D: 11277678
Stores Generated: 6947792
Stores sent to L1D: 6947799
Major fault: 0 Minor fault: 2539
Allocated PAGES: 2539

stream: 
stream:times selected: 1185306
stream:pref_filled: 120598
stream:pref_useful: 23865
stream:pref_late: 6589
stream:misses: 7855
stream:misses_by_poll: 0

CS: 
CS:times selected: 178504
CS:pref_filled: 59698
CS:pref_useful: 36193
CS:pref_late: 7372
CS:misses: 17019
CS:misses_by_poll: 4

CPLX: 
CPLX:times selected: 1005642
CPLX:pref_filled: 20085
CPLX:pref_useful: 4506
CPLX:pref_late: 3017
CPLX:misses: 92091
CPLX:misses_by_poll: 2

NL_L1: 
NL:times selected: 20697
NL:pref_filled: 756
NL:pref_useful: 323
NL:pref_late: 281
NL:misses: 1671
NL:misses_by_poll: 0

total selections: 2390149
total_filled: 94004
total_useful: 34421
total_late: 18486
total_polluted: 6
total_misses_after_warmup: 759399
conflicts: 5890530

test: 115972

DRAM Statistics
 CHANNEL 0
 RQ ROW_BUFFER_HIT:      10915  ROW_BUFFER_MISS:      18451
 DBUS_CONGESTED:          5
 WQ ROW_BUFFER_HIT:       1415  ROW_BUFFER_MISS:      12952  FULL:          0

 AVG_CONGESTED_CYCLE: 5

CPU 0 Branch Prediction Accuracy: 99.8221% MPKI: 0.32538 Average ROB Occupancy at Mispredict: 92.2797
Branch types
NOT_BRANCH: 40855715 81.7114%
BRANCH_DIRECT_JUMP: 548036 1.09607%
BRANCH_INDIRECT: 182827 0.365654%
BRANCH_CONDITIONAL: 6180733 12.3615%
BRANCH_DIRECT_CALL: 944379 1.88876%
BRANCH_INDIRECT_CALL: 171711 0.343422%
BRANCH_RETURN: 1116090 2.23218%
BRANCH_OTHER: 0 0%

DRAM PAGES: 1048576
Allocated PAGES: 2539
Average_ROB_Occupancy: 57.045
Average_Decode_Occupancy: 6.81413
Average_FTQ_Occupancy: 3.61014
Indirect max targets: 14 Average targets: 1.14527
Branch_type:  BRANCH_DIRECT_JUMP:  Count Percentage: 4.03058 4.76381 4.93336 3.0079 3.0643 6.01234 7.27986 66.9079 
Branch_type:  BRANCH_INDIRECT:  Count Percentage: 13.7446 0.811107 2.56882 0 0 17.7485 17.4903 47.6368 
Branch_type:  BRANCH_CONDITIONAL:  Count Percentage: 26.2716 1.94536 1.5405 6.25449 1.55418 5.1155 5.62218 51.6962 
Branch_type:  BRANCH_DIRECT_CALL:  Count Percentage: 0.8852 1.47926 1.16308 2.38366 2.50939 3.5207 6.16601 81.8927 
Branch_type:  BRANCH_INDIRECT_CALL:  Count Percentage: 9.52117 0 2.98393 6.41719 0 2.47631 5.1158 73.4856 
Branch_type:  BRANCH_RETURN:  Count Percentage: 10.4596 1.45935 1.49155 6.79355 1.66171 6.99995 6.53458 64.5997 
Branch_type:  BRANCH_DIRECT_JUMP:  Total Count: 44169 52204 54062 32962 33580 65886 79776 733207 
Branch_type:  BRANCH_INDIRECT:  Total Count: 50311 2969 9403 0 0 64967 64022 174371 
Branch_type:  BRANCH_CONDITIONAL:  Total Count: 3246774 240417 190382 772960 192073 632198 694816 6388865 
Branch_type:  BRANCH_DIRECT_CALL:  Total Count: 16692 27894 21932 44948 47319 66389 116271 1544230 
Branch_type:  BRANCH_INDIRECT_CALL:  Total Count: 32674 0 10240 22022 0 8498 17556 252182 
Branch_type:  BRANCH_RETURN:  Total Count: 233211 32538 33256 151471 37050 156073 145697 1440333 
Number of unique branch instructions: 9804
Upper 32 bits: 
aaaa
ffff
ffff0000
Unique upper 32 bits: 3
Unique upper 36 bits: 3
Unique upper 40 bits: 5
Unique upper 44 bits: 32
Unique upper 48 bits: 154
Offset_3 4030
Offset_4 244
Offset_5 449
Offset_6 498
Offset_7 571
Offset_8 508
Offset_9 463
Offset_10 374
Offset_11 301
Offset_12 269
Offset_13 203
Offset_14 227
Offset_15 184
Offset_16 220
Offset_17 145
Offset_18 118
Offset_19 234
Offset_20 136
Offset_21 235
Offset_22 392
Offset_23 241
Offset_24 331
Offset_25 88
Offset_47 82
Offset_64 1
decode_dispatch_called: 21176136 31.4911
Dispatch_width: 0 10741136 50.7228 15.9732
Dispatch_width: 1 662318 3.12766 0.984936
Dispatch_width: 2 939111 4.43476 1.39656
Dispatch_width: 3 634831 2.99786 0.94406
Dispatch_width: 4 1576332 7.44391 2.34417
Dispatch_width: 5 485158 2.29106 0.721481
Dispatch_width: 6 6137250 28.9819 9.12673
Empty_decode_cycles: 46068632 68.5089
ROB_full_cycles: 1358077 2.0196
Starvation_cycles_per_kilo_instr: 597.494
Starvation_cycles_per_kilo_instr_3: 576.879
Starvation_cycles_per_kilo_instr_0: 554.517
Branch_type_1  (3,1)  (4,9)  (5,37)  (6,68)  (7,113)  (8,128)  (9,122)  (10,97)  (11,67)  (12,43)  (13,5)  (14,2)  (15,3)  (16,4)  (18,1)  (19,4)  (20,2)  (21,1)  (22,3)  (23,2)  (24,10)  (25,12) 
Branch_type_2  (3,1)  (5,1)  (8,3)  (9,3)  (12,1)  (13,1)  (14,1)  (16,3)  (17,2)  (20,2)  (21,2)  (23,5)  (24,1)  (47,38) 
Branch_type_3  (3,4028)  (4,235)  (5,407)  (6,415)  (7,429)  (8,316)  (9,255)  (10,151)  (11,120)  (12,50)  (13,4)  (64,1) 
Branch_type_4  (6,3)  (7,8)  (8,25)  (9,51)  (10,60)  (11,58)  (12,96)  (13,88)  (14,100)  (15,86)  (16,98)  (17,64)  (18,53)  (19,115)  (20,71)  (21,124)  (22,209)  (23,136)  (24,192)  (25,72) 
Branch_type_5  (8,2)  (9,1)  (10,3)  (11,5)  (12,3)  (13,14)  (14,16)  (15,11)  (16,20)  (17,11)  (18,16)  (19,12)  (20,10)  (21,13)  (22,42)  (23,26)  (24,37) 
Branch_type_6  (5,4)  (6,12)  (7,21)  (8,34)  (9,31)  (10,63)  (11,51)  (12,76)  (13,91)  (14,108)  (15,84)  (16,95)  (17,68)  (18,48)  (19,103)  (20,51)  (21,95)  (22,138)  (23,72)  (24,91)  (25,4)  (47,44) 
aaaaab1fc620: 2ac9e77e 2aca717c 2aca8eff 2acaf6bc 2acaf9aa 2acaf9f1 2acb1abc 2acb1b7f 2acd4e22 2acdb712 2acf5f9e 2ad0ef44 2ad3f15c 2ad414e6 2ad60e42 2ad8609c 2ad99830 2ada35cc 2ada4676 2ada6612 2adf183e 2adf30e5 2adf5602 2adf785c 2ae11572 2aeb2dcf 2aee101b 2aee1ae1 2aee9456 2b156a8c 2b156b61 2b156bea 2b167f35 2b177656 2b17feec 2b1a3e5a 
aaaaab1fc740: 2aca1fb0 2aca45b3 2aca5aa1 2aca5c69 2aca66f9 2aca9426 2acaeecb 2acf3d2d 2acf3d64 2acf6089 2ad017ea 2ad5e7ef 2ad61064 2ad87373 2ad9bf84 2ad9c093 2ae9b606 2aea9ffa 2aee99f5 2aee9a2c 2aeece4b 
aaaaac68f310: 2ac9ec8c 2ac9fb44 2ac9fbd2 2aca59ab 2acac04c 2acaf6e0 2acaf6ec 2acaf6f9 2acaf700 2acaf708 2acf2d90 2ad3cfbd 2ad3cfc4 2ad3d000 2ad3f35f 2ad4955d 2ad49571 2ad4f3f2 2ad4f400 2ad5f240 2ad5f37c 2ad5f86a 2ad5f86f 2ad5f880 2ad5fc0d 2ad5fc14 2ad5fc21 2ad5fe1b 2ad873bb 2ad873e3 2ad8a6b2 2ad9086e 2ad93096 2ad9bbb2 2ada152c 2ada1554 2ada3332 2ada5522 2adf3130 2adf313c 2adf3a3f 2adf3bd9 2adf5788 2adf7a8d 2ae07f6b 2ae0857a 2ae0857e 2ae08630 2ae08634 2ae08637 2ae08642 2ae0866f 2ae086e4 2ae086ec 2ae08717 2ae0871b 2aee0170 2aee1d38 2aee75f4 2aee7662 2aee85ca 2aee85e4 2aee8eef 2aee9a0a 2af70b84 2af74e8f 2b17d843 
aaaaac690ef0: 2aca598b 2acb111b 2acb175f 2acb1772 2acbfaf4 2acbfb00 2acf374f 2acf6d43 2acfa5c8 2ad3baf1 2ad3d4ac 2ad3d4b8 2ad3f1cf 2ad486b2 2ad5a59b 2ad5fc64 2ad5fcf9 2ad6121c 2ad906e9 2ad907bf 2ad9bada 2ada16ce 2ada1ad5 2ada43df 2ada64c0 2ada72ee 2adeb71a 2adf3bcb 2adf7a38 2adf7c6a 2adf8872 2adf8880 2adf9959 2adf9abe 2ae07f78 2ae08503 2ae08754 2ae12e80 2aea3bea 2aecb509 2aee00b0 2aee2bdd 2aee5467 2aee5601 2aee8f20 2af703fd 2af7048b 2af74e74 2dfba627 
Unique trigger count: 
1 9362
2 478
3 85
4 30
5 8
6 8
7 6
8 1
9 3
10 1
11 2
12 1
13 3
16 2
18 2
19 2
21 1
36 1
49 1
67 1
BTB PER SET UNIQUE ADDR: 4 7 6 4 3 3 7 9 10 2 5 2 8 5 4 4 6 4 7 8 4 8 7 8 8 11 1 7 6 5 9 10 6 3 7 4 4 6 7 3 7 5 6 9 9 7 6 11 11 6 5 3 13 2 2 7 5 5 8 8 4 10 5 8 6 9 7 7 5 7 6 2 6 4 6 7 6 13 5 4 9 6 7 6 6 8 7 8 8 10 10 8 9 6 6 4 10 7 4 6 8 5 9 9 4 8 6 8 7 5 7 4 4 8 6 11 3 7 6 2 7 8 4 2 6 4 4 6 10 5 10 3 11 4 8 5 5 2 6 7 8 7 6 6 3 10 3 8 10 6 7 11 6 10 4 8 6 8 6 10 9 6 10 5 9 5 3 4 12 5 4 3 7 6 3 2 5 5 9 4 6 6 8 6 6 10 5 5 6 8 5 8 6 6 6 10 10 3 9 5 4 6 9 3 8 4 5 7 6 2 3 6 9 9 6 6 4 9 8 6 6 2 6 6 6 8 13 7 2 9 14 8 4 2 6 8 9 5 3 4 5 3 9 7 14 10 2 5 5 5 8 10 6 6 5 12 4 6 9 5 8 5 7 4 9 14 6 4 7 5 7 6 4 8 10 7 5 3 4 8 7 4 10 5 9 9 7 7 8 4 5 7 4 10 6 4 6 10 5 6 6 6 4 4 6 5 6 4 11 9 6 3 8 3 6 4 9 14 7 3 6 10 5 7 5 5 5 9 3 2 7 2 6 7 10 5 6 6 7 1 5 6 2 8 6 6 3 6 8 4 4 9 8 6 8 6 7 2 7 5 6 9 6 8 10 8 4 3 4 4 7 4 6 5 7 4 11 6 5 10 9 7 6 12 6 4 8 5 5 3 9 5 8 4 7 3 5 5 2 8 6 4 7 5 5 6 8 5 5 3 4 4 10 4 2 5 8 4 2 6 2 5 5 7 9 6 3 2 4 7 4 4 15 5 8 10 6 6 6 3 4 6 8 4 6 8 4 7 5 3 6 3 4 1 9 3 4 7 9 5 5 4 6 10 5 5 11 3 6 6 2 6 8 7 4 3 9 5 2 3 5 2 3 4 3 7 8 3 6 2 9 4 4 8 1 11 4 7 5 4 11 3 3 3 2 5 5 3 2 6 7 3 5 9 3 3 2 10 5 8 6 5 7 4 11 8 4 9 9 7 5 6 4 8 4 7 4 1 6 4 4 8 9 3 8 5 9 12 12 11 5 8 7 7 2 6 8 3 5 3 11 4 8 4 5 5 9 7 9 7 8 3 9 12 7 7 6 10 3 9 12 5 1 6 4 3 3 13 8 6 7 8 3 5 4 5 6 5 4 4 8 5 9 9 8 5 4 9 8 5 8 6 7 5 8 4 7 5 5 7 8 6 9 3 5 9 7 8 4 6 8 7 6 6 7 4 5 4 5 3 10 8 4 5 2 3 6 6 8 6 7 4 10 3 5 2 9 5 6 8 11 3 6 11 8 8 7 5 5 10 7 6 6 7 11 9 6 6 8 6 7 11 8 6 8 8 7 8 8 6 3 7 2 4 4 6 10 7 7 6 3 10 4 5 6 9 3 4 5 5 7 7 6 5 5 7 9 6 1 8 4 3 5 3 4 1 3 9 2 11 7 9 7 2 6 7 6 3 6 4 4 8 5 10 4 3 5 3 5 6 6 3 4 6 2 5 4 10 9 4 4 6 6 7 7 6 14 5 6 3 9 6 0 5 7 5 6 10 3 3 7 5 4 6 10 9 9 6 3 8 3 9 4 6 6 12 11 4 5 4 12 4 8 3 7 6 7 9 4 5 3 4 6 3 4 6 1 5 4 10 6 4 9 4 5 4 5 3 6 6 7 3 7 4 10 5 4 4 6 4 5 4 6 5 4 8 8 5 5 4 8 7 6 8 5 10 7 4 7 5 6 7 4 4 14 5 5 8 9 8 4 6 6 10 7 2 2 5 7 4 5 6 5 6 9 5 7 4 4 7 8 3 5 7 6 3 9 10 4 3 12 8 5 5 8 6 5 10 6 8 10 6 4 3 2 7 4 3 7 6 8 6 10 6 8 8 7 4 5 10 5 4 10 10 5 8 10 10 2 8 8 8 4 4 6 7 9 6 7 3 9 2 13 7 3 5 9 11 6 9 5 6 11 5 3 8 10 8 8 4 2 5 3 8 10 5 7 5 4 7 11 6 4 5 5 6 4 3 8 6 8 7 7 11 5 9 6 11 5 6 3 4 6 4 7 6 7 4 5 5 8 3 9 5 10 5 9 4 3 6 10 6 13 5 
BTB PER SET COUNT: 4 6819 6824 4 3 3 2703 6827 8288 4 1487 2 3471 1488 4 5 1930 4 2119 6444 4 3175 892 3482 7792 9754 1 685 3076 28 9766 6964 5335 3 3912 5 2928 2424 1271 3 2488 665 57 3691 10716 680 2483 7809 9058 3215 669 3 14138 2 2 3467 885 7314 6325 5219 5 8902 7 3472 27 7226 2124 1993 1490 2730 3414 2 34 4 1386 2974 782 9140 886 4 3097 5337 2702 2697 1920 4183 2003 2988 9273 4887 7679 3923 3969 4345 1990 6 6931 2975 4 995 2515 1088 3480 5343 4 6333 1982 3844 3466 1488 2479 7 4 5024 17 10636 3 1997 1620 2 3468 5827 7 2 3216 4 4 5364 10342 1982 4995 3 10318 5 8777 1981 1487 2 32 8283 6453 7936 1499 4854 3 4136 3 6823 7712 2478 1197 10391 2974 11703 4 5853 7810 8283 2247 8420 11703 2371 9848 2374 7825 3919 3 4 13640 1982 4 3 1113 130 4 2 24 1982 6408 4 124 1491 9745 413 1498 10241 3851 14 6325 6687 43 6922 1492 2973 2973 2860 9778 3 2002 6 4 694 6353 6 5353 4 1487 4354 676 2 3 3307 2351 6299 5190 5336 4 4323 1282 7315 547 2 1907 6818 6320 6326 12311 5424 2 11209 11638 6745 4 2 28 7787 3962 6 3 4 8 3 10735 2439 13663 7025 2 3873 993 8 8783 9380 6796 1987 17 7877 4 3160 3983 1487 3813 885 2868 5 5639 12912 1413 4 2483 2477 2924 2475 4 7315 3981 2918 1976 3 4 3474 3160 4 3017 881 9253 8799 2973 2858 2017 4 1982 3468 500 7794 2971 14 24 7839 2476 4367 2974 1985 4 4 2202 12 905 4 7577 5195 1109 3 3177 3 1106 8 3967 9282 2975 3 3412 5101 887 7300 61 2475 20 3521 5 2 4954 2 1236 2210 10153 7 3960 2477 2487 1 16 891 2 4233 1180 1004 4 888 3272 5 4 7331 6327 4226 3009 26 9272 4 6326 2026 2477 4662 24 3196 3913 6908 4 3 4 4 2973 5 2202 666 2733 4 8209 35 1487 4188 3476 3466 2970 10784 28 4 2002 885 666 4 4641 15 3963 6 5345 5 3364 3782 2 1999 2830 4 2769 1486 681 25 4635 6 6 2290 4 4 4441 4 969 994 1727 4 2 1827 2 993 667 2022 5839 899 5 2 4 2485 126 4 8776 1812 6499 9295 1503 5756 2974 3 4 1005 3089 4 1985 3197 5 3445 19 3 2970 3 8 1 9341 3 4 1327 7325 16 1001 4 2195 7328 1013 24 7995 3 29 1497 2 1123 7307 824 109 3 26249 887 2 3 29 2 3 498 3 2547 2642 370 1828 2 6546 4 4 6779 1 10405 4 2487 6 4 11534 17 3 3 2 1487 17 3 2 45 2561 4 277 6854 5 3 2 12173 24 2990 2478 1468 2484 450 4643 6841 4 5860 7792 5883 6 2616 4 475 4 2978 4 1 890 4 5 6345 6885 6 5066 17 2152 4684 10761 10768 1488 7791 1530 6809 3 1971 4756 3 2475 4 10198 4 6322 4 3425 994 6329 2679 7789 2993 7274 5 8284 11209 5335 2981 4623 9744 3 7012 11814 403 1 2972 1466 3 4 10755 2929 22 4676 3470 3 1960 971 1982 42 1982 4 4 6609 2476 9249 4412 5861 2978 4 8163 7792 1450 3964 1752 2479 3377 7788 5 4491 1982 18 5338 2846 2268 7810 3 1480 4464 2496 6328 13 2478 6326 10238 1987 35 8282 4 887 4 993 3 10737 4074 5 29 2 4 1497 2481 8291 18 5857 4 12675 3 993 2 9724 1487 8325 3961 16181 3 1988 11903 6350 3966 5413 1004 24 4464 4393 7806 2483 2976 10285 4174 2975 2479 7431 2478 8283 10722 2542 6843 20978 3692 2492 6819 2991 2477 3 3056 2 5 4 2477 8292 2482 1500 1526 3 9772 4 2478 5482 7317 3 1467 1981 2455 5830 2493 3882 993 3139 3270 9282 3690 1 7315 4 4 4389 3 4 1 3 8239 2 10254 6819 9626 8779 2 1988 4877 4404 3 1987 4 4 5813 19 12648 4 3 2478 3 1488 3466 7315 3 4 552 2 1487 4 9710 10215 971 4 7313 5851 2210 3880 2203 12676 666 2497 3 3101 687 0 2032 66 1469 4842 4428 3 3 4883 14 4 5810 5611 7299 3445 133 438 3962 3 4314 4 1992 2692 10602 7893 4 1981 4 9711 5 7353 4 2876 3744 4848 9251 4 20 3 5 1313 476 5 23 3 44 5 7237 864 4 5863 421 1488 5 1632 3 2476 2476 4159 3 7292 4 10755 2200 4 4 2973 4 2167 4 1984 5807 4 3196 6355 1488 1417 6 8798 3284 2973 5367 2477 12175 2976 4 6819 3832 1833 7315 4 4 10698 990 665 9769 10262 8232 4 5806 2971 6783 5340 2 3 1488 56 4 7 8282 36 3749 6835 1064 3468 4 4 3412 6823 3 8 2880 1618 3 3727 7019 5 3 5499 4678 156 65 2587 2384 19 5643 184 3913 3442 1503 5 3 2 3466 4 992 7808 2891 6465 1983 8286 4841 6806 3325 2482 4 1981 4027 22 499 8065 5667 1488 3961 7292 8808 2 3472 3150 3947 4 971 1416 3467 2500 2451 5244 3 6270 2 10329 3905 3 1759 8131 11257 3391 5116 1981 1986 9765 4839 5 3528 5193 2805 3472 7 2 1488 3 8162 5951 1633 7297 19 4 2488 9772 32 499 451 1982 2481 4 3 3394 2477 6316 1995 3466 9249 9 3477 2477 5891 6 1499 3 4 1308 5 1985 37 5849 4 1981 7 7819 3 10222 1769 6222 6 2845 8 3 34 4952 2206 6681 24 
