
*** ChampSim Multicore Out-of-Order Simulator ***

Warmup Instructions: 50000000
Simulation Instructions: 50000000
Number of CPUs: 1
LLC sets: 2048
LLC ways: 16
Off-chip DRAM Size: 4096 MB Channels: 1 Width: 64-bit Data Rate: 6400 MT/s
CPU 0 runs ./micro_traces/srv531.trace.gz
.gz
ITLB has LRU replacement policy
DTLB has LRU replacement policy
STLB has LRU replacement policy
FDIP Prefetcher at L1I
L1I has LRU replacement policy
L1D has LRU replacement policy
Initialize SRRIP state for L2C
Initialize DRRIP state for LLC
Heartbeat CPU 0 instructions: 10000003 cycles: 2796173 heartbeat IPC: 3.57632 cumulative IPC: 3.57632 (Simulation time: 0 hr 1 min 34 sec) 
Heartbeat CPU 0 instructions: 20000003 cycles: 5592857 heartbeat IPC: 3.57566 cumulative IPC: 3.57599 (Simulation time: 0 hr 3 min 9 sec) 
Heartbeat CPU 0 instructions: 30000003 cycles: 8389258 heartbeat IPC: 3.57603 cumulative IPC: 3.576 (Simulation time: 0 hr 4 min 43 sec) 
Heartbeat CPU 0 instructions: 40000002 cycles: 11184836 heartbeat IPC: 3.57708 cumulative IPC: 3.57627 (Simulation time: 0 hr 6 min 19 sec) 
Heartbeat CPU 0 instructions: 50000000 cycles: 13980021 heartbeat IPC: 3.57758 cumulative IPC: 3.57653 (Simulation time: 0 hr 7 min 58 sec) 

Warmup complete CPU 0 instructions: 50000004 cycles: 13980022 (Simulation time: 0 hr 7 min 58 sec) 

Cycle: 20000000 FTQ IN: 58284643 FTQ occupancy: 20.1566 DECODE IN: 58284520 DECODE occupancy: 52.6731 ROB IN: 58284460 ROB occupancy: 316.199 ROB OUT: 58284385
Heartbeat CPU 0 instructions: 60000002 cycles: 21238122 heartbeat IPC: 1.37777 cumulative IPC: 1.37777 (Simulation time: 0 hr 9 min 47 sec) 
Heartbeat CPU 0 instructions: 70000003 cycles: 28405903 heartbeat IPC: 1.39513 cumulative IPC: 1.3864 (Simulation time: 0 hr 11 min 34 sec) 
Cycle: 30000000 FTQ IN: 13942932 FTQ occupancy: 13.4193 DECODE IN: 13943055 DECODE occupancy: 35.6372 ROB IN: 13943115 ROB occupancy: 241.05 ROB OUT: 13943161
Heartbeat CPU 0 instructions: 80000001 cycles: 35671465 heartbeat IPC: 1.37636 cumulative IPC: 1.38303 (Simulation time: 0 hr 13 min 28 sec) 
Cycle: 40000000 FTQ IN: 13813056 FTQ occupancy: 13.5284 DECODE IN: 13813056 DECODE occupancy: 35.5779 ROB IN: 13813056 ROB occupancy: 240.709 ROB OUT: 13813028
Heartbeat CPU 0 instructions: 90000000 cycles: 42835794 heartbeat IPC: 1.3958 cumulative IPC: 1.3862 (Simulation time: 0 hr 15 min 20 sec) 
Cycle: 50000000 FTQ IN: 13873199 FTQ occupancy: 13.5676 DECODE IN: 13873119 DECODE occupancy: 35.7277 ROB IN: 13873059 ROB occupancy: 242.451 ROB OUT: 13872764
Heartbeat CPU 0 instructions: 100000001 cycles: 50064052 heartbeat IPC: 1.38346 cumulative IPC: 1.38565 (Simulation time: 0 hr 17 min 12 sec) 
Finished CPU 0 instructions: 50000000 cycles: 36084034 cumulative IPC: 1.38565 (Simulation time: 0 hr 17 min 12 sec) 

ChampSim completed all CPUs

Region of Interest Statistics

CPU 0 cumulative IPC: 1.38565 instructions: 50000000 cycles: 36084034
 Fetch stage stalled: 52.1667  Sim cycles: 36084034 fetch stall cycle: 18823845
 Empty decode stage: 32.1653  Sim cycles: 36084034 fetch stall cycle: 11606523
ITLB TOTAL     ACCESS:    5881207  HIT:    5386287  MISS:     494920  HIT %:    91.5847  MISS %:    8.41528   MPKI: 9.8984
ITLB LOAD TRANSLATION INSTRUCTION	ACCESS:    5759061  HIT:    5264141  MISS:     494920  HIT %:    91.4062  MISS %:    8.59376  MPKI: 9.8984
ITLB TRANSLATION FROM L1D PREFETCHER INSTRUCTION	ACCESS:     122146  HIT:     122146  MISS:          0  HIT %:        100  MISS %:          0  MPKI: 0

ITLB AVERAGE MISS LATENCY: 9.05878 cycles
ITLB RQ	ACCESS:    8040862	FORWARD:          0	MERGED:    1713617	TO_CACHE:    6327245

DTLB TOTAL     ACCESS:    8978724  HIT:    8507575  MISS:     471149  HIT %:    94.7526  MISS %:    5.24739   MPKI: 9.42298
DTLB LOAD TRANSLATION DATA	ACCESS:    8978724  HIT:    8507575  MISS:     471149  HIT %:    94.7526  MISS %:    5.24739  MPKI: 9.42298

DTLB AVERAGE MISS LATENCY: 9.32508 cycles
DTLB RQ	ACCESS:   13347550	FORWARD:          0	MERGED:    4331919	TO_CACHE:    9015631

STLB TOTAL     ACCESS:    1214208  HIT:    1212246  MISS:       1962  HIT %:    99.8384  MISS %:   0.161587   MPKI: 0.03924
STLB LOAD TRANSLATION INSTRUCTION	ACCESS:     494920  HIT:     494678  MISS:        242  HIT %:    99.9511  MISS %:  0.0488968  MPKI: 0.00484
STLB LOAD TRANSLATION DATA	ACCESS:     471149  HIT:     469468  MISS:       1681  HIT %:    99.6432  MISS %:   0.356787  MPKI: 0.03362
STLB TRANSLATION FROM L1D PREFETCHER DATA	ACCESS:     248139  HIT:     248100  MISS:         39  HIT %:    99.9843  MISS %:   0.015717  MPKI: 0.00078

STLB AVERAGE MISS LATENCY: 77.473 cycles
STLB RQ	ACCESS:    1334948	FORWARD:          0	MERGED:     120693	TO_CACHE:    1214255

STLB Hit, L1D data hit: 0
STLB Hit, L2C data hit: 0
STLB Hit, LLC data hit: 0
STLB Hit, LLC data miss: 0
STLB STLB hints to L2: 0
L1D TOTAL     ACCESS:   13094730  HIT:   11971922  MISS:    1122808  HIT %:    91.4255  MISS %:     8.5745   MPKI: 22.4562
L1D LOAD DATA	ACCESS:    6555597  HIT:    5815789  MISS:     739808  HIT %:    88.7149  MISS %:    11.2851  MPKI: 14.7962
L1D RFO DATA	ACCESS:    6212238  HIT:    5924224  MISS:     288014  HIT %:    95.3638  MISS %:    4.63624  MPKI: 5.76028
L1D PREFETCH DATA	ACCESS:     326895  HIT:     231909  MISS:      94986  HIT %:     70.943  MISS %:     29.057  MPKI: 1.89972

L1D PREFETCH  REQUESTED:     738183  ISSUED:     738183  USEFUL:      35199  USELESS:      68203
L1D USEFUL LOAD PREFETCHES:      35199 PREFETCH ISSUED TO LOWER LEVEL:     103491  ACCURACY: 34.0117
 TIMELY PREFETCHES:      35199 LATE PREFETCHES: 8415 DROPPED PREFETCHES: 8
L1D AVERAGE MISS LATENCY: 245212 cycles
L1D RQ	ACCESS:   10694292	FORWARD:          0	MERGED:    3940213	TO_CACHE:    6589624
L1D WQ	ACCESS:    6953810	FORWARD:     164880	MERGED:     195884	TO_CACHE:    6757926
L1D PQ	ACCESS:     369304	FORWARD:          0	MERGED:          0	TO_CACHE:     368879

L1D UNIQUE REGIONS ACCESSED: 0
L1D REGIONS CONFLICTS: 0
L1D Cross Page Prefetch Requests: 6882
L1D Same Page Prefetch Requests: 740139
L1D ROI Sum of L1D PQ occupancy: 4690715
L1D PREFETCHES PUSHED FROM L2C: 0
L1I TOTAL     ACCESS:    7194564  HIT:    4426114  MISS:    2768450  HIT %:    61.5203  MISS %:    38.4797   MPKI: 55.369
L1I LOAD INSTRUCTION	ACCESS:    6522494  HIT:    3754044  MISS:    2768450  HIT %:    57.5553  MISS %:    42.4447  MPKI: 55.369
L1I PREFETCH INSTRUCTION	ACCESS:     672070  HIT:     672070  MISS:          0  HIT %:        100  MISS %:          0  MPKI: 0

L1I PREFETCH  REQUESTED:    1627795  ISSUED:    1627795  USEFUL:          0  USELESS:          0
L1I USEFUL LOAD PREFETCHES:          0 PREFETCH ISSUED TO LOWER LEVEL:          0  ACCURACY: -nan
 TIMELY PREFETCHES:          0 LATE PREFETCHES: 0 DROPPED PREFETCHES: 0
L1I AVERAGE MISS LATENCY: 16.8619 cycles
L1I RQ	ACCESS:    9509394	FORWARD:          0	MERGED:    2664155	TO_CACHE:    6845239
L1I PQ	ACCESS:    1627795	FORWARD:          0	MERGED:     432172	TO_CACHE:    1195623

L1BTB TOTAL     ACCESS:    5669620  HIT:    2035253  MISS:    3634367  HIT %:    35.8975  MISS %:    64.1025   MPKI: 72.6873
L1BTB BRANCH_DIRECT_JUMP	ACCESS:     548065  HIT:     143783  MISS:     404282	AVERAGE STALL: 47.7146
L1BTB BRANCH_INDIRECT	ACCESS:     182603  HIT:      65744  MISS:     116859	AVERAGE STALL: 103.67
L1BTB BRANCH_CONDITIONAL	ACCESS:    2705975  HIT:    1411269  MISS:    1294706	AVERAGE STALL: 105.793
L1BTB BRANCH_DIRECT_CALL	ACCESS:     944983  HIT:     104366  MISS:     840617	AVERAGE STALL: 145.5
L1BTB BRANCH_INDIRECT_CALL	ACCESS:     171511  HIT:      20888  MISS:     150623	AVERAGE STALL: 133.718
L1BTB BRANCH_RETURN	ACCESS:    1116483  HIT:     289203  MISS:     827280	AVERAGE STALL: 46.8745
L1BTB BRANCH_OTHER ACCESS:          0  HIT:          0  MISS:          0	AVERAGE STALL: -nan
L1BTB TOTAL ROB OCCUPANCY AT BTB MISS: 1.97145

L2BTB TOTAL     ACCESS:    3609017  HIT:    3554214  MISS:      54803  HIT %:    98.4815  MISS %:     1.5185   MPKI: 1.09606
L2BTB BRANCH_DIRECT_JUMP	ACCESS:     400141  HIT:     397436  MISS:       2705	AVERAGE STALL: 47.7146
L2BTB BRANCH_INDIRECT	ACCESS:     106579  HIT:     103944  MISS:       2635	AVERAGE STALL: 103.67
L2BTB BRANCH_CONDITIONAL	ACCESS:    1294706  HIT:    1294617  MISS:         89	AVERAGE STALL: 105.793
L2BTB BRANCH_DIRECT_CALL	ACCESS:     840617  HIT:     840566  MISS:         51	AVERAGE STALL: 145.5
L2BTB BRANCH_INDIRECT_CALL	ACCESS:     141103  HIT:     131083  MISS:      10020	AVERAGE STALL: 133.718
L2BTB BRANCH_RETURN	ACCESS:     825871  HIT:     786568  MISS:      39303	AVERAGE STALL: 46.8745
L2BTB BRANCH_OTHER ACCESS:          0  HIT:          0  MISS:          0	AVERAGE STALL: -nan
L2BTB TOTAL ROB OCCUPANCY AT BTB MISS: 130.74

L2C TOTAL     ACCESS:    4495928  HIT:    4056269  MISS:     439659  HIT %:     90.221  MISS %:    9.77905   MPKI: 8.79318
L2C LOAD INSTRUCTION	ACCESS:    2768450  HIT:    2540094  MISS:     228356  HIT %:    91.7515  MISS %:    8.24851  MPKI: 4.56712
L2C LOAD TRANSLATION INSTRUCTION	ACCESS:        269  HIT:         75  MISS:        194  HIT %:     27.881  MISS %:     72.119  MPKI: 0.00388
L2C LOAD DATA	ACCESS:     731355  HIT:     662400  MISS:      68955  HIT %:    90.5716  MISS %:    9.42839  MPKI: 1.3791
L2C RFO DATA	ACCESS:     287903  HIT:     233951  MISS:      53952  HIT %:    81.2604  MISS %:    18.7396  MPKI: 1.07904
L2C PREFETCH DATA	ACCESS:     181443  HIT:     108802  MISS:      72641  HIT %:    59.9648  MISS %:    40.0352  MPKI: 1.45282
L2C WRITEBACK DATA	ACCESS:     524695  HIT:     510327  MISS:      14368  HIT %:    97.2616  MISS %:    2.73835  MPKI: 0.28736
L2C LOAD TRANSLATION DATA	ACCESS:       1742  HIT:        574  MISS:       1168  HIT %:    32.9506  MISS %:    67.0494  MPKI: 0.02336
L2C TRANSLATION FROM L1D PREFETCHER DATA	ACCESS:         71  HIT:         46  MISS:         25  HIT %:    64.7887  MISS %:    35.2113  MPKI: 0.0005

L2C PREFETCH  REQUESTED:      84949  ISSUED:      84949  USEFUL:       8529  USELESS:      64763
L2C USEFUL LOAD PREFETCHES:       8529 PREFETCH ISSUED TO LOWER LEVEL:      73016  ACCURACY: 11.681
 TIMELY PREFETCHES:       8529 LATE PREFETCHES: 375 DROPPED PREFETCHES: 0
L2C AVERAGE MISS LATENCY: 40.0348 cycles
L2C RQ	ACCESS:    3789851	FORWARD:          0	MERGED:          0	TO_CACHE:    3789792
L2C WQ	ACCESS:     524696	FORWARD:         61	MERGED:          0	TO_CACHE:     524696
L2C PQ	ACCESS:     188440	FORWARD:          0	MERGED:       3616	TO_CACHE:     184822

L2C Dense regions hint from L2: 0
PSCL5 TOTAL     ACCESS:       3946  HIT:       1973  MISS:       1973  HIT %:         50  MISS %:         50   MPKI: 0.03946
PSCL5 LOAD TRANSLATION INSTRUCTION	ACCESS:       3812  HIT:       1906  MISS:       1906  HIT %:         50  MISS %:         50  MPKI: 0.03812
PSCL5 TRANSLATION FROM L1D PREFETCHER INSTRUCTION	ACCESS:        134  HIT:         67  MISS:         67  HIT %:         50  MISS %:         50  MPKI: 0.00134


PSCL4 TOTAL     ACCESS:       3699  HIT:       1845  MISS:       1854  HIT %:    49.8783  MISS %:    50.1217   MPKI: 0.03708
PSCL4 LOAD TRANSLATION INSTRUCTION	ACCESS:       3266  HIT:       1783  MISS:       1483  HIT %:    54.5928  MISS %:    45.4072  MPKI: 0.02966
PSCL4 TRANSLATION FROM L1D PREFETCHER INSTRUCTION	ACCESS:        114  HIT:         62  MISS:         52  HIT %:     54.386  MISS %:     45.614  MPKI: 0.00104
PSCL4 LOAD TRANSLATION DATA	ACCESS:        309  HIT:          0  MISS:        309  HIT %:          0  MISS %:        100  MPKI: 0.00618
PSCL4 TRANSLATION FROM L1D PREFETCHER DATA	ACCESS:         10  HIT:          0  MISS:         10  HIT %:          0  MISS %:        100  MPKI: 0.0002


PSCL3 TOTAL     ACCESS:       3715  HIT:       1853  MISS:       1862  HIT %:    49.8789  MISS %:    50.1211   MPKI: 0.03724
PSCL3 LOAD TRANSLATION INSTRUCTION	ACCESS:       3274  HIT:       1791  MISS:       1483  HIT %:    54.7037  MISS %:    45.2963  MPKI: 0.02966
PSCL3 TRANSLATION FROM L1D PREFETCHER INSTRUCTION	ACCESS:        114  HIT:         62  MISS:         52  HIT %:     54.386  MISS %:     45.614  MPKI: 0.00104
PSCL3 LOAD TRANSLATION DATA	ACCESS:        317  HIT:          0  MISS:        317  HIT %:          0  MISS %:        100  MPKI: 0.00634
PSCL3 TRANSLATION FROM L1D PREFETCHER DATA	ACCESS:         10  HIT:          0  MISS:         10  HIT %:          0  MISS %:        100  MPKI: 0.0002


PSCL2 TOTAL     ACCESS:       3853  HIT:       1880  MISS:       1973  HIT %:    48.7931  MISS %:    51.2069   MPKI: 0.03946
PSCL2 LOAD TRANSLATION INSTRUCTION	ACCESS:       2057  HIT:       1815  MISS:        242  HIT %:    88.2353  MISS %:    11.7647  MPKI: 0.00484
PSCL2 TRANSLATION FROM L1D PREFETCHER INSTRUCTION	ACCESS:         65  HIT:         65  MISS:          0  HIT %:        100  MISS %:          0  MPKI: 0
PSCL2 LOAD TRANSLATION DATA	ACCESS:       1666  HIT:          0  MISS:       1666  HIT %:          0  MISS %:        100  MPKI: 0.03332
PSCL2 TRANSLATION FROM L1D PREFETCHER DATA	ACCESS:         65  HIT:          0  MISS:         65  HIT %:          0  MISS %:        100  MPKI: 0.0013


LLC TOTAL     ACCESS:     500327  HIT:     469972  MISS:      30355  HIT %:     93.933  MISS %:    6.06703   MPKI: 0.6071
LLC LOAD INSTRUCTION	ACCESS:     228356  HIT:     227423  MISS:        933  HIT %:    99.5914  MISS %:   0.408573  MPKI: 0.01866
LLC LOAD TRANSLATION INSTRUCTION	ACCESS:        194  HIT:        166  MISS:         28  HIT %:     85.567  MISS %:     14.433  MPKI: 0.00056
LLC LOAD DATA	ACCESS:      68582  HIT:      65031  MISS:       3551  HIT %:    94.8223  MISS %:    5.17774  MPKI: 0.07102
LLC RFO DATA	ACCESS:      53912  HIT:      38722  MISS:      15190  HIT %:    71.8245  MISS %:    28.1755  MPKI: 0.3038
LLC PREFETCH DATA	ACCESS:      73015  HIT:      62859  MISS:      10156  HIT %:    86.0905  MISS %:    13.9095  MPKI: 0.20312
LLC WRITEBACK DATA	ACCESS:      75075  HIT:      74660  MISS:        415  HIT %:    99.4472  MISS %:   0.552781  MPKI: 0.0083
LLC LOAD TRANSLATION DATA	ACCESS:       1168  HIT:       1088  MISS:         80  HIT %:    93.1507  MISS %:    6.84932  MPKI: 0.0016
LLC TRANSLATION FROM L1D PREFETCHER DATA	ACCESS:         25  HIT:         23  MISS:          2  HIT %:         92  MISS %:          8  MPKI: 4e-05

LLC AVERAGE MISS LATENCY: 158.032 cycles
LLC RQ	ACCESS:     352274	FORWARD:          0	MERGED:          0	TO_CACHE:     352236
LLC WQ	ACCESS:      75075	FORWARD:         39	MERGED:          0	TO_CACHE:      75075
LLC PQ	ACCESS:      73016	FORWARD:          0	MERGED:          0	TO_CACHE:      73015

LLC Dense regions hint to LLC: 0

RAW hits: 1946646
Loads Generated: 12640934
Loads sent to L1D: 10694292
Stores Generated: 6953804
Stores sent to L1D: 6953810
Major fault: 0 Minor fault: 2550
Allocated PAGES: 2550

stream: 
stream:times selected: 1172663
stream:pref_filled: 121660
stream:pref_useful: 24355
stream:pref_late: 7104
stream:misses: 8079
stream:misses_by_poll: 0

CS: 
CS:times selected: 177245
CS:pref_filled: 59376
CS:pref_useful: 36273
CS:pref_late: 7134
CS:misses: 17045
CS:misses_by_poll: 5

CPLX: 
CPLX:times selected: 994277
CPLX:pref_filled: 19908
CPLX:pref_useful: 4761
CPLX:pref_late: 3255
CPLX:misses: 94650
CPLX:misses_by_poll: 6

NL_L1: 
NL:times selected: 20341
NL:pref_filled: 724
NL:pref_useful: 370
NL:pref_late: 320
NL:misses: 1775
NL:misses_by_poll: 0

total selections: 2364526
total_filled: 94986
total_useful: 35199
total_late: 19235
total_polluted: 11
total_misses_after_warmup: 773838
conflicts: 5531544

test: 113875

DRAM Statistics
 CHANNEL 0
 RQ ROW_BUFFER_HIT:      11490  ROW_BUFFER_MISS:      18436
 DBUS_CONGESTED:         10
 WQ ROW_BUFFER_HIT:       1446  ROW_BUFFER_MISS:      12427  FULL:          0

 AVG_CONGESTED_CYCLE: 4

CPU 0 Branch Prediction Accuracy: 99.8266% MPKI: 0.31708 Average ROB Occupancy at Mispredict: 190.803
Branch types
NOT_BRANCH: 40855994 81.712%
BRANCH_DIRECT_JUMP: 548065 1.09613%
BRANCH_INDIRECT: 182603 0.365206%
BRANCH_CONDITIONAL: 6180241 12.3605%
BRANCH_DIRECT_CALL: 944983 1.88997%
BRANCH_INDIRECT_CALL: 171511 0.343022%
BRANCH_RETURN: 1116483 2.23297%
BRANCH_OTHER: 0 0%

DRAM PAGES: 1048576
Allocated PAGES: 2550
Average_ROB_Occupancy: 242.483
Average_Decode_Occupancy: 35.6025
Average_FTQ_Occupancy: 13.5058
Indirect max targets: 14 Average targets: 1.14865
Branch_type:  BRANCH_DIRECT_JUMP:  Count Percentage: 3.61491 5.45151 4.64299 7.44582 3.29302 6.32207 1.23658 67.9931 
Branch_type:  BRANCH_INDIRECT:  Count Percentage: 6.06695 3.42372 8.1316 9.68984 3.35102 2.81689 0.938779 65.5812 
Branch_type:  BRANCH_CONDITIONAL:  Count Percentage: 20.7496 3.92994 1.58429 7.27481 2.43423 3.62531 0.550554 59.8513 
Branch_type:  BRANCH_DIRECT_CALL:  Count Percentage: 0.915469 1.29171 0.718412 3.82292 2.62365 2.86373 0.773779 86.9903 
Branch_type:  BRANCH_INDIRECT_CALL:  Count Percentage: 9.56332 0 3.00035 0 0.000290422 2.43432 0.993826 84.0079 
Branch_type:  BRANCH_RETURN:  Count Percentage: 4.76547 4.78764 1.1556 4.00429 3.53171 3.80897 0.511036 77.4353 
Branch_type:  BRANCH_DIRECT_JUMP:  Total Count: 39564 59665 50816 81492 36041 69193 13534 744162 
Branch_type:  BRANCH_INDIRECT:  Total Count: 22115 12480 29641 35321 12215 10268 3422 239054 
Branch_type:  BRANCH_CONDITIONAL:  Total Count: 2562973 485424 195691 898580 300674 447796 68004 7392791 
Branch_type:  BRANCH_DIRECT_CALL:  Total Count: 17361 24496 13624 72498 49755 54308 14674 1649690 
Branch_type:  BRANCH_INDIRECT_CALL:  Total Count: 32929 0 10331 0 1 8382 3422 289261 
Branch_type:  BRANCH_RETURN:  Total Count: 106819 107316 25903 89757 79164 85379 11455 1735730 
Number of unique branch instructions: 10011
Upper 32 bits: 
aaaa
ffff
ffff0000
Unique upper 32 bits: 3
Unique upper 36 bits: 3
Unique upper 40 bits: 5
Unique upper 44 bits: 32
Unique upper 48 bits: 154
Offset_3 4125
Offset_4 249
Offset_5 453
Offset_6 511
Offset_7 594
Offset_8 515
Offset_9 473
Offset_10 388
Offset_11 320
Offset_12 287
Offset_13 207
Offset_14 230
Offset_15 197
Offset_16 227
Offset_17 147
Offset_18 128
Offset_19 245
Offset_20 142
Offset_21 235
Offset_22 395
Offset_23 241
Offset_24 331
Offset_25 88
Offset_47 80
decode_dispatch_called: 26026850 72.1284
Dispatch_width: 0 14036230 53.9298 38.8987
Dispatch_width: 1 997153 3.83125 2.76342
Dispatch_width: 2 842799 3.23819 2.33566
Dispatch_width: 3 502765 1.93172 1.39332
Dispatch_width: 4 5969856 22.9373 16.5443
Dispatch_width: 5 138752 0.533111 0.384525
Dispatch_width: 6 3539295 13.5986 9.80848
Empty_decode_cycles: 10057184 27.8716
ROB_full_cycles: 9487948 26.294
Starvation_cycles_per_kilo_instr: 230.568
Starvation_cycles_per_kilo_instr_3: 169.482
Starvation_cycles_per_kilo_instr_0: 146.055
Branch_type_1  (3,1)  (4,9)  (5,37)  (6,71)  (7,116)  (8,127)  (9,125)  (10,99)  (11,72)  (12,51)  (13,8)  (14,2)  (15,3)  (16,4)  (18,1)  (19,4)  (20,2)  (21,1)  (22,3)  (23,2)  (24,10)  (25,12) 
Branch_type_2  (3,1)  (5,1)  (8,3)  (9,3)  (12,1)  (13,1)  (14,1)  (16,3)  (17,2)  (20,2)  (21,2)  (23,5)  (24,1)  (47,36) 
Branch_type_3  (3,4123)  (4,240)  (5,411)  (6,424)  (7,446)  (8,322)  (9,259)  (10,158)  (11,132)  (12,58)  (13,7) 
Branch_type_4  (6,4)  (7,8)  (8,26)  (9,54)  (10,62)  (11,60)  (12,98)  (13,87)  (14,102)  (15,94)  (16,103)  (17,64)  (18,58)  (19,119)  (20,74)  (21,124)  (22,210)  (23,136)  (24,191)  (25,72) 
Branch_type_5  (8,2)  (9,1)  (10,3)  (11,5)  (12,3)  (13,14)  (14,16)  (15,11)  (16,20)  (17,13)  (18,16)  (19,12)  (20,10)  (21,13)  (22,42)  (23,26)  (24,37) 
Branch_type_6  (5,4)  (6,12)  (7,24)  (8,35)  (9,31)  (10,66)  (11,51)  (12,76)  (13,90)  (14,109)  (15,89)  (16,97)  (17,68)  (18,53)  (19,110)  (20,54)  (21,95)  (22,140)  (23,72)  (24,92)  (25,4)  (47,44) 
Unique trigger count: 
BTB PER SET UNIQUE ADDR: 3 2 2 5 3 3 4 3 2 4 4 4 3 4 5 4 3 4 3 3 2 3 5 4 3 5 5 3 2 4 4 3 2 3 4 3 3 3 4 3 3 4 3 4 2 2 1 3 5 4 4 2 3 2 2 3 3 3 4 5 3 3 3 4 5 1 3 4 3 4 2 2 4 4 3 4 4 2 3 5 3 4 3 4 3 3 2 4 4 2 3 3 4 4 3 2 5 3 3 4 3 3 4 4 6 5 3 3 2 3 3 3 2 2 3 2 3 3 4 4 3 5 4 3 4 3 2 3 6 3 5 2 3 2 3 4 4 2 2 6 3 3 3 4 3 3 5 2 5 3 4 3 2 3 3 4 4 5 4 4 4 3 2 3 2 3 1 3 3 3 4 4 5 4 3 4 2 4 3 2 2 2 4 4 4 3 4 4 5 3 4 4 3 3 2 3 4 5 2 3 3 2 7 3 1 4 2 2 3 3 4 4 5 4 3 4 4 3 3 4 5 3 4 2 3 4 3 3 4 4 1 5 4 3 3 5 4 6 4 4 3 4 5 3 4 3 4 3 3 3 1 5 3 3 2 5 3 4 3 3 3 4 3 5 5 4 3 4 3 4 4 2 5 3 4 4 4 2 4 4 4 3 5 5 3 5 4 3 3 4 4 5 4 2 3 4 4 4 4 3 4 2 3 5 3 3 4 4 5 4 3 3 4 3 2 3 3 3 2 2 3 4 3 2 5 4 2 3 3 4 2 5 2 4 3 3 4 3 4 3 3 4 3 3 4 3 2 3 4 4 3 4 5 4 4 4 4 5 3 4 3 5 3 3 2 5 4 3 3 1 3 4 3 4 2 3 4 3 3 3 3 4 3 3 7 4 3 3 4 3 4 3 3 4 2 4 3 2 2 3 4 4 3 2 2 4 4 3 5 4 4 3 2 4 4 3 3 3 3 2 4 3 3 5 4 3 3 5 1 2 3 2 3 3 3 3 2 2 2 3 2 3 1 3 2 2 4 3 4 4 3 1 4 4 3 3 4 3 6 4 3 3 4 3 4 3 3 4 4 4 3 4 4 4 3 5 3 2 4 4 3 3 4 3 2 4 4 4 3 5 3 4 3 4 2 7 5 4 3 5 3 3 3 3 4 3 4 4 2 6 3 2 4 4 4 5 5 3 3 5 5 3 2 3 4 4 1 5 3 3 3 4 4 3 3 4 3 3 3 2 4 4 4 4 3 3 4 4 3 2 3 5 3 4 4 4 4 2 4 2 3 3 3 5 2 2 4 4 3 4 4 3 2 4 4 4 3 2 4 4 2 4 3 3 4 3 3 2 3 3 3 2 3 3 3 6 4 3 5 3 2 3 3 3 3 3 3 2 2 1 4 3 3 4 2 3 4 4 4 4 5 2 5 3 4 4 2 4 3 4 2 4 3 4 3 1 3 4 4 3 5 4 1 3 4 4 2 3 2 3 4 4 5 3 2 5 2 3 3 3 3 3 5 3 3 3 3 4 4 4 4 3 2 4 2 2 4 4 4 3 2 3 3 4 3 3 2 4 5 3 4 5 5 3 3 3 2 3 3 4 3 3 3 2 4 4 2 2 4 4 3 4 3 4 4 3 4 2 4 4 6 4 4 4 4 2 5 3 2 3 3 4 3 5 6 4 5 3 4 5 3 5 4 4 4 3 5 4 2 4 4 5 4 4 2 3 3 6 3 2 4 3 3 3 3 4 3 3 4 4 4 3 3 4 5 4 3 4 2 4 4 3 3 5 4 3 3 4 4 4 3 4 4 4 3 4 3 2 4 2 3 3 4 3 4 3 4 3 4 4 3 2 1 4 3 3 4 3 5 6 4 4 7 4 3 2 3 2 3 4 4 3 3 4 4 4 5 5 2 5 2 3 3 3 4 3 3 4 2 3 4 4 3 4 4 2 3 2 2 4 2 4 3 5 4 2 3 2 4 3 5 2 4 4 4 4 3 3 4 3 3 4 3 3 3 4 5 4 3 2 4 4 3 4 2 3 3 4 3 3 3 4 3 4 2 3 6 3 3 3 4 2 4 4 4 4 3 2 3 3 3 2 3 4 3 4 4 4 5 4 3 5 4 4 3 4 7 3 2 3 4 4 3 5 3 3 4 4 5 4 4 3 3 2 4 3 2 3 3 2 4 4 4 3 5 2 3 3 1 4 3 2 2 4 4 4 2 3 3 3 3 3 5 3 3 3 4 4 4 4 3 3 4 5 3 4 3 4 3 4 5 3 4 3 4 4 3 3 3 3 5 4 3 4 5 4 3 3 4 4 2 4 5 3 5 3 3 4 5 1 6 4 5 2 4 4 2 4 4 3 4 4 3 5 4 4 4 4 3 3 4 4 4 4 2 2 4 4 3 3 4 3 4 2 3 2 3 4 4 3 4 4 3 4 5 5 3 3 4 3 3 3 5 4 5 3 3 3 2 3 4 3 2 4 3 3 4 5 2 2 4 4 4 4 3 3 4 3 3 4 2 3 4 2 5 2 5 3 3 4 3 4 2 3 5 3 3 3 3 4 3 6 5 2 2 3 3 2 3 2 5 4 4 2 3 5 3 3 4 3 3 2 3 3 3 1 3 3 5 4 3 4 3 3 2 3 3 4 3 3 3 2 5 3 2 2 3 3 4 6 3 4 3 3 5 4 4 3 3 4 4 3 3 2 2 3 3 4 4 2 3 3 1 2 4 3 4 2 3 2 4 4 4 3 3 4 4 3 3 4 4 1 3 4 2 4 4 4 3 4 5 2 2 2 4 4 3 3 3 4 4 4 5 3 2 4 5 3 5 3 2 5 4 2 4 1 2 4 2 4 3 4 4 5 2 4 5 5 2 3 4 5 2 2 2 3 5 3 4 2 4 4 6 3 3 4 3 3 3 8 3 5 4 4 3 3 4 4 4 5 5 3 3 3 4 4 3 2 4 7 3 4 4 2 2 4 4 4 4 6 4 3 3 4 5 2 4 3 3 2 3 3 3 4 2 6 4 4 4 4 4 2 5 3 6 4 2 2 4 2 4 3 4 5 5 3 4 2 4 4 3 5 5 2 4 4 3 5 4 4 3 4 2 3 3 4 4 4 3 4 4 4 3 3 3 3 3 3 3 4 3 4 3 2 1 3 4 4 4 2 4 4 6 2 2 4 4 2 5 6 2 3 4 4 3 3 3 5 3 4 2 2 3 4 4 3 4 4 4 4 3 3 2 3 4 4 3 2 3 3 3 4 3 2 5 3 4 2 3 3 3 2 3 3 3 3 3 3 3 4 3 3 3 4 3 2 4 4 4 4 4 3 3 3 4 3 3 2 3 5 5 5 2 4 4 3 5 4 4 4 2 4 2 2 6 4 3 3 4 4 3 5 2 3 4 2 3 4 3 3 3 3 4 2 3 3 6 3 3 3 3 2 4 4 3 2 2 4 4 4 3 3 4 2 3 3 5 2 2 3 4 4 3 2 3 3 3 3 3 3 3 4 4 5 2 3 3 4 3 2 4 4 2 3 2 3 2 7 5 4 4 4 4 2 2 3 4 2 3 4 3 1 3 4 3 4 4 3 3 3 4 3 4 3 3 3 2 3 2 5 5 4 2 2 4 3 3 3 3 3 5 5 4 3 4 4 5 2 3 4 3 4 3 2 3 4 3 3 2 4 3 3 4 3 4 3 5 2 4 3 2 2 3 3 4 3 3 2 3 5 6 3 4 2 3 3 4 4 3 4 3 2 4 4 3 5 2 5 3 2 3 3 3 2 3 4 2 3 4 3 5 3 3 2 1 2 5 5 3 3 3 3 3 3 2 3 3 4 4 4 2 4 3 4 4 3 4 3 5 4 3 3 3 4 3 4 3 2 4 5 3 2 4 1 3 6 4 4 2 1 3 3 4 3 3 4 4 3 3 4 5 4 4 4 1 4 4 3 2 5 4 2 3 3 4 4 1 2 2 3 4 3 3 3 3 3 4 4 2 2 5 3 3 4 2 4 3 5 3 4 4 4 3 4 2 3 4 3 3 2 2 5 3 3 3 5 3 4 4 3 3 3 5 4 2 3 5 2 3 3 5 4 3 4 3 3 5 5 2 3 4 5 3 2 4 3 3 4 3 2 4 3 3 3 6 3 3 4 4 3 4 4 3 4 3 2 2 3 3 3 3 3 4 3 3 3 4 3 4 4 2 3 4 3 3 4 2 5 4 2 3 3 4 3 3 3 4 4 3 4 1 3 3 3 3 4 4 3 3 3 3 4 2 4 4 3 3 3 3 3 3 3 4 4 3 4 2 1 3 4 4 5 4 3 3 2 3 4 4 4 4 4 3 4 3 3 3 4 4 4 2 3 3 4 4 4 5 4 4 3 5 2 2 3 3 3 4 3 3 2 3 3 3 3 4 3 5 4 2 5 4 3 4 3 4 5 4 6 3 3 3 4 4 3 3 2 4 4 1 4 2 6 4 4 4 5 2 2 3 2 3 4 3 4 5 3 5 3 2 3 4 3 4 3 3 4 4 1 4 4 1 5 5 4 4 3 4 2 3 3 4 5 3 4 6 3 3 3 3 4 3 4 5 4 3 4 5 4 4 5 3 2 4 3 1 2 4 4 
BTB PER SET COUNT: 3 1478 1477 5 3 3 4 3 2 478 46 5 3 4 5 4 3 4 3 3 2 3 5 4 479 5 5 3 2 533 5 3 2 1005 478 3 3 3 6 3 3 6 3 4 2 2 475 3 5 4 4 2 3 2 2 3 3 949 4 5 1004 5 6 1894 5 1 4 4 3 4 2 2 4 951 3 4 4 3 3 7 3 4 4 4 3 4 2 4 477 2 128 12 4 4 3 2 5 3 3 4 3 4 4 4 6 5 4 3 2 3 3 3 2 2 6 2 3 3 4 1479 4 5 949 3 4 4 2 3 408 3 5 2 5 2 3 5 4 2 2 952 3 3 3 4 3 3 6 2 8 7 4 533 2 3 4 1007 4 5 4 4 4 3 2 3 2 4 1 5 7 3 5 5 114 4 4 4 2 4 4 2 2 2 4 5 163 6 6 4 5 4 4 4 3 3 2 3 4 5 1477 3 5 1477 9 3 1 4 2 2 4 3 239 4 5 4 3 5 4 476 3 4 5 3 4 2 3 4 5 4 658 4 286 5 4 4 3 6 5 12 4 4 3 4 5 3 4 3 7742 82 3 3 1 5 4 6 2 7 3 4 3 3 3 4 3 7 7 5 3 4 4 4 4 2 5 3 4 6 4 2 4 5 4 4 5 5 3 5 4 3 3 4 4 6 5 2 3 7 4 4 4 3 4 3 1482 7 3 3 4 4 5 4 3 3 4 3 2 3 3 3 2 2 3 4 3 2 5 4 2 4 3 4 2 5 2 5 4 3 4 3 4 3 4 4 3 3 4 3 2 3 4 4 3 4 5 4 4 361 8 6 3 15 3 7 3 3 2 2480 5 3 1004 1 3 4 1478 5 2 3 4 3 3 4 4 5 1349 3 10 6 4 3 4 3 5 3 3 4 2 4 1362 2 2 4 4 4 3 2 2 4 4 3 6 4 5 3 3 4 4 3 3 3 3 2 4 3 3 5 4 3 3 5 474 2 3 2 3 3 3 5 2 4 2 3 2 3 1 3 386 2 1480 28 4 5 4 186 4 4 3 3 4 3 953 4 3 3 5 3 11 3 3 4 1005 4 3 575 4 4 1004 6 3 2 5 4 3 3 5 3 2 7 4 4 49 5 1004 6 3 4 2 1008 5 6 3 7 3 3 3 3 4 4 7 5 2 8 3 3 5 4 4 6 5 477 3 5 8 3 2 4 5 4 1 8 3 4 1478 4 4 7 4 4 3 3 4 2 4 4 4 5 3 1478 4 4 3 2 3 5 949 4 4 4 477 2 4 2 3 3 3 6 2 2 949 4 3 4 4 4 2 4 4 4 4 2 4 4 4 4 3 3 6 3 5 2 3 3 3 3 3 3 950 6 4 4 6 3 2 3 949 3 8 3 948 2 2 1 4 3 1004 4 3 3 4 4 14763 4 5 2 6 3 4 4 2 4 3 4 946 5 3 4 4 2 4 4 4 3 5 5 1 3 4 4 2 3 3 4 4 4 5 4 2 5 2 3 3 3 3 3 5 3 5 3 4 4 4 5 4 3 2 2953 2 2 4 4 4 3 2 3 3 4 3 3 2 1479 5 3 4 5 7 4 3 3 2 3 3 4 3 3 3 2 4 4 2 2 4 4 4 4 4 4 4 476 4 2 6 5 9 5 5 4 5 2 5 3 2 3 3 4 3 6 6 5 5 5 4 5 4 5 5 4 4 4 6 7 2 4 4 5 4 4 2 3 3 6 23 2 6 3 3 37 3 5 3 477 4 4 9 3 4 4 5 4 3 4 2 5 4 3 3 5 4 3 3 4 4 4 5 4 4 5 3 1005 3 2 5 2 3 3 4 3 4 3 4 4 4 5 3 2 2 4 3 3 4 3 7 7 4 4 8 4 3 2 3 2 3 481 4 3 3 5 4 4 6 1025 2 5 2 3 949 3 4 3 3 5 3 1004 4 4 3 7 4 2 3 2 2 6 2 5 3 5 4 2 3 2 5 3 5 2 5 4 4 4 3 3 4 3 3 4 3 3 4 5 641 6 3 2 1479 4 3 4 2 3 360 4 3 3 3 4 3 951 2 3 6 3 3 3 4 2 5 4 4 4 3 2 4 3 477 1003 3 4 3 5 1480 6 5 5 3 10 4 4 3 4 8 3 2 3 4 5 3 6 3 3 4 476 8 4 4 4 3 2 478 3 2 4 1895 2 4 4 5 3 5 2 476 3 1 9 3 2 3 7 6 4 2 3 3 5 3 3 5 3 3 5 4 41 4 4 3 3 4 6 4 4 4 4 3 4 5 3 5 4 5 4 3 4 3 3 6 4 3 4 6 4 5 3 6 4 2 5 5 3 5 3 3 4 6 1 8 4 6 3 4 4 2 4 5 3 5 4 3 5 4 8 478 476 3 3 4 4 4 5 2 2 4 4 1479 3 6 3 5 2 3 3 3 4 5 3 4 4 3 5 5 5 8 3 4 3 3 3 5 4 44 3 7 39 2 3 4 3 2 4 3 3 16 5 2 2 4 4 5 4 360 3 45 3 3 5 2 3 6 2 7 2 5 17 5 4 225 4 2 3 6 3 3 3 3 4 3 6 5 2 2 3 5 2 4 2 5 20660 4 2 3 5 4 949 4 4 3 2 3 3 4 1 3 4 5 4 3 4 3 3 2 3 3 4 3 5 476 4 6 3 2 2 4 3 4 952 4 4 3 3 5 4 4 3 6 4 4 4 3 2 2017 3 3 4 4 3 3 3 1 3 4 3 4 2 3 359 1207 4 4 1478 1004 4 4 3 3 4 362 1 3 4 2 7 4 4 3 4 6 2 3 2 4 4 3 3 3 4 4 12 5 3 2 4 50 3 6 3 2 5 4 2 4 1 2 4 2 4 3 4 4 7 2 5 5 5 2 4 4 5 2 2 2 3 6 3 4 2 4 115 6 3 3 4 3 3 3 8 3 5 4 4 3 3 4 4 4 5 5 3 3 3 4 11 3 2 5 7 3 4 4 2 2 5 7 4 5 7 4 3 3 4 5 2 4 131 3 1478 3 3 3 5 2 6 4 5 4 362 4 2 7 3 7 4 2 2 48 2 2956 3 4 362 47 4 8 2 5 5 3 6 5 2 4 4 3 5 4 4 3 5 2 3 3 1005 4 4 3 478 4 275 3 3 3 4 4 3 4 950 7 4 3 2 1 3 4 4 4 3 4 4 7 2 4 7 4 3 5 6 2 3 4 4 3 3 3 7 3 4 2 2 3 4 4 5 7 4 4 2007 3 3 2 2008 5 4 3 2 3 3 4 7 4 2 5 3 6 2 3 3 4 2 3 3 3 3 3 3 3 4 3 3 3 4 4 2 5 4 4 4 4 3 3 4 4 3 3 2 5 5 5 6 2 5 4 3 5 4 4 4 2 4 2 2 7 4 4 3 4 4 246 7 2 3 4 2 3 4 3 3 3 3 4 2 3 477 8 3 3 3 3 2 4 4 3 2 2 4 1006 4 3 3 4 2 3 3 5 2 2 3 4 4 3 2 3 3 4 3 3 4 3 4 4 9 2 3 3 4 3 2 4 4 2 3 3 3 2 8 6 4 4 4 6 2 2 3 4 2 4 1479 3 1 37 4 9 4 4 4 4 3 4 3 4 5 3 3 2 3 2 5 6 4 3 2 4 3 3 3 3 3 202 5 5 4 4 4 6 2 948 6 3 4 3 2 3 6 3 3 2 4 3 3 4 3 5 3 5 2 4 3 2 2 4 6 4 3 3 3 3 5 7 3 4 2 6 3 4 4 3 7 3 2 4 4 3 5 2 10 3 2 3 4 3 2 3 4 2 4 4 3 5 3 4 2 1 2 5 5 4 3 3 3 3 3 2 3 3 4 4 4 2 6 3 5 4 4 134 3 5 4 3 3 3 4 3 5 3 2 4 5 3 2 8 1 3 8 534 4 2 947 3 3 5 3 3 4 4 3 3 4 6 8 6 4 1 4 112 3 2 5 4 2 3 3 4 4 1 2 2 4 4 1002 3 5 3 3 5 4 2 2 5 3 3 4 2 4 3 5 3 477 4 4 3 5 2 3 132 3 3 2 2 5 3 3 4 6 3 5 4 3 3 3 1008 4 2 3 5 2 4 3 5 4 3 6 5 3 5 93 2 3 5 5 3 1003 4 3 5 5 3 2 477 3 3 622 7 3 3 5 5 114 189 4 3 4 4 1477 2 3 3 3 3 1004 4 3 7 3 4 3 491 5 2 3 4 3 1432 4 2 7 12 5 4 3 4 3 3 3 4 1005 4 4 1 3 4 3 3 4 4 3 3 3 3 4 2 4 5 95 3 3 1478 3 3 4 4 4 3 4 2 1 3 4 4 5 993 3 3 2 5 6 5 4 4 4 3 4 3 3 3 4 4 5 2 523 3 266 4 4 5 4 4 3 5 2 2 17 3 4 4 3 3 2 3 4 3 31 6 3 5 4 2 5 443 3 5 3 4 5 4 316 3 3 3 27 4 3 3782 2 4 5 474 6 2 6 4 5 4 5 2 2 3 2 3 4 4 4 5 3 5 3 2 3 4 3 6 3 4 4 1362 1 4 4 1 6 5 4 4 3 4 2 4 1478 5 5 3 1480 8 3 3 4 3 4 3 4 8 4 3 5 152 4 4 5 3 2 4 3 1 2 4 783 
