
*** ChampSim Multicore Out-of-Order Simulator ***

Warmup Instructions: 50000000
Simulation Instructions: 50000000
Number of CPUs: 1
LLC sets: 2048
LLC ways: 16
Off-chip DRAM Size: 4096 MB Channels: 1 Width: 64-bit Data Rate: 6400 MT/s
CPU 0 runs ./micro_traces/srv548.trace.gz
.gz
ITLB has LRU replacement policy
DTLB has LRU replacement policy
STLB has LRU replacement policy
FDIP Prefetcher at L1I
L1I has LRU replacement policy
L1D has LRU replacement policy
Initialize SRRIP state for L2C
Initialize DRRIP state for LLC
Heartbeat_Variant_0 : 1330 0.216471 per_variant_size: 0 1330 0 0 0 0 0 0 0 
Heartbeat_Variant_1 : 2746 0.44694 per_variant_size: 0 971 1775 0 0 0 0 0 0 
Heartbeat_Variant_2 : 0 0 per_variant_size: 0 0 0 0 0 0 0 0 0 
Heartbeat_Variant_3 : 0 0 per_variant_size: 0 0 0 0 0 0 0 0 0 
Heartbeat_Variant_0_evicts 0 : 5541 1 : 40 2 : 0 3 : 0 
Heartbeat_Variant_1_evicts 0 : 31 1 : 0 2 : 0 3 : 0 
Heartbeat_Variant_2_evicts 0 : 0 1 : 0 2 : 0 3 : 0 
Heartbeat_Variant_3_evicts 0 : 0 1 : 0 2 : 0 3 : 0 
Heartbeat CPU 0 instructions: 10000000 cycles: 2798384 heartbeat IPC: 3.57349 cumulative IPC: 3.57349 (Simulation time: 0 hr 1 min 50 sec) 
Heartbeat_Variant_0 : 1439 0.234212 per_variant_size: 0 1439 0 0 0 0 0 0 0 
Heartbeat_Variant_1 : 3030 0.493164 per_variant_size: 0 1006 2024 0 0 0 0 0 0 
Heartbeat_Variant_2 : 0 0 per_variant_size: 0 0 0 0 0 0 0 0 0 
Heartbeat_Variant_3 : 0 0 per_variant_size: 0 0 0 0 0 0 0 0 0 
Heartbeat_Variant_0_evicts 0 : 5675 1 : 25 2 : 0 3 : 0 
Heartbeat_Variant_1_evicts 0 : 17 1 : 0 2 : 0 3 : 0 
Heartbeat_Variant_2_evicts 0 : 0 1 : 0 2 : 0 3 : 0 
Heartbeat_Variant_3_evicts 0 : 0 1 : 0 2 : 0 3 : 0 
Heartbeat CPU 0 instructions: 20000002 cycles: 5595438 heartbeat IPC: 3.57519 cumulative IPC: 3.57434 (Simulation time: 0 hr 3 min 29 sec) 
Heartbeat_Variant_0 : 1467 0.23877 per_variant_size: 0 1467 0 0 0 0 0 0 0 
Heartbeat_Variant_1 : 3103 0.505046 per_variant_size: 0 986 2117 0 0 0 0 0 0 
Heartbeat_Variant_2 : 0 0 per_variant_size: 0 0 0 0 0 0 0 0 0 
Heartbeat_Variant_3 : 0 0 per_variant_size: 0 0 0 0 0 0 0 0 0 
Heartbeat_Variant_0_evicts 0 : 5617 1 : 17 2 : 0 3 : 0 
Heartbeat_Variant_1_evicts 0 : 13 1 : 0 2 : 0 3 : 0 
Heartbeat_Variant_2_evicts 0 : 0 1 : 0 2 : 0 3 : 0 
Heartbeat_Variant_3_evicts 0 : 0 1 : 0 2 : 0 3 : 0 
Heartbeat CPU 0 instructions: 30000002 cycles: 8391932 heartbeat IPC: 3.57591 cumulative IPC: 3.57486 (Simulation time: 0 hr 5 min 8 sec) 
Heartbeat_Variant_0 : 1467 0.23877 per_variant_size: 0 1467 0 0 0 0 0 0 0 
Heartbeat_Variant_1 : 3108 0.505859 per_variant_size: 0 989 2119 0 0 0 0 0 0 
Heartbeat_Variant_2 : 0 0 per_variant_size: 0 0 0 0 0 0 0 0 0 
Heartbeat_Variant_3 : 0 0 per_variant_size: 0 0 0 0 0 0 0 0 0 
Heartbeat_Variant_0_evicts 0 : 5597 1 : 1 2 : 0 3 : 0 
Heartbeat_Variant_1_evicts 0 : 3 1 : 0 2 : 0 3 : 0 
Heartbeat_Variant_2_evicts 0 : 0 1 : 0 2 : 0 3 : 0 
Heartbeat_Variant_3_evicts 0 : 0 1 : 0 2 : 0 3 : 0 
Heartbeat CPU 0 instructions: 40000001 cycles: 11188185 heartbeat IPC: 3.57621 cumulative IPC: 3.5752 (Simulation time: 0 hr 6 min 51 sec) 
Heartbeat_Variant_0 : 1494 0.243164 per_variant_size: 0 1494 0 0 0 0 0 0 0 
Heartbeat_Variant_1 : 3155 0.513509 per_variant_size: 0 970 2185 0 0 0 0 0 0 
Heartbeat_Variant_2 : 0 0 per_variant_size: 0 0 0 0 0 0 0 0 0 
Heartbeat_Variant_3 : 0 0 per_variant_size: 0 0 0 0 0 0 0 0 0 
Heartbeat_Variant_0_evicts 0 : 5641 1 : 7 2 : 0 3 : 0 
Heartbeat_Variant_1_evicts 0 : 3 1 : 0 2 : 0 3 : 0 
Heartbeat_Variant_2_evicts 0 : 0 1 : 0 2 : 0 3 : 0 
Heartbeat_Variant_3_evicts 0 : 0 1 : 0 2 : 0 3 : 0 
Heartbeat CPU 0 instructions: 50000000 cycles: 13984152 heartbeat IPC: 3.57658 cumulative IPC: 3.57548 (Simulation time: 0 hr 8 min 29 sec) 

Warmup complete CPU 0 instructions: 50000004 cycles: 13984153 (Simulation time: 0 hr 8 min 29 sec) 

Cycle: 20000000 FTQ IN: 58327099 FTQ occupancy: 20.5982 DECODE IN: 58327099 DECODE occupancy: 53.4519 ROB IN: 58327099 ROB occupancy: 318.973 ROB OUT: 58326852
Heartbeat_Variant_0 : 1494 0.243164 per_variant_size: 0 1494 0 0 0 0 0 0 0 
Heartbeat_Variant_1 : 3157 0.513835 per_variant_size: 0 986 2171 0 0 0 0 0 0 
Heartbeat_Variant_2 : 0 0 per_variant_size: 0 0 0 0 0 0 0 0 0 
Heartbeat_Variant_3 : 0 0 per_variant_size: 0 0 0 0 0 0 0 0 0 
Heartbeat_Variant_0_evicts 0 : 5567 1 : 0 2 : 0 3 : 0 
Heartbeat_Variant_1_evicts 0 : 0 1 : 0 2 : 0 3 : 0 
Heartbeat_Variant_2_evicts 0 : 0 1 : 0 2 : 0 3 : 0 
Heartbeat_Variant_3_evicts 0 : 0 1 : 0 2 : 0 3 : 0 
Heartbeat CPU 0 instructions: 60000002 cycles: 21196446 heartbeat IPC: 1.38652 cumulative IPC: 1.38652 (Simulation time: 0 hr 10 min 30 sec) 
Heartbeat_Variant_0 : 1494 0.243164 per_variant_size: 0 1494 0 0 0 0 0 0 0 
Heartbeat_Variant_1 : 3157 0.513835 per_variant_size: 0 994 2163 0 0 0 0 0 0 
Heartbeat_Variant_2 : 0 0 per_variant_size: 0 0 0 0 0 0 0 0 0 
Heartbeat_Variant_3 : 0 0 per_variant_size: 0 0 0 0 0 0 0 0 0 
Heartbeat_Variant_0_evicts 0 : 5517 1 : 0 2 : 0 3 : 0 
Heartbeat_Variant_1_evicts 0 : 0 1 : 0 2 : 0 3 : 0 
Heartbeat_Variant_2_evicts 0 : 0 1 : 0 2 : 0 3 : 0 
Heartbeat_Variant_3_evicts 0 : 0 1 : 0 2 : 0 3 : 0 
Heartbeat CPU 0 instructions: 70000002 cycles: 28330932 heartbeat IPC: 1.40164 cumulative IPC: 1.39404 (Simulation time: 0 hr 12 min 29 sec) 
Cycle: 30000000 FTQ IN: 14011040 FTQ occupancy: 14.9419 DECODE IN: 14010962 DECODE occupancy: 38.3252 ROB IN: 14010902 ROB occupancy: 250.35 ROB OUT: 14011103
Heartbeat_Variant_0 : 1508 0.245443 per_variant_size: 0 1508 0 0 0 0 0 0 0 
Heartbeat_Variant_1 : 3175 0.516764 per_variant_size: 0 998 2177 0 0 0 0 0 0 
Heartbeat_Variant_2 : 0 0 per_variant_size: 0 0 0 0 0 0 0 0 0 
Heartbeat_Variant_3 : 0 0 per_variant_size: 0 0 0 0 0 0 0 0 0 
Heartbeat_Variant_0_evicts 0 : 5583 1 : 15 2 : 0 3 : 0 
Heartbeat_Variant_1_evicts 0 : 11 1 : 0 2 : 0 3 : 0 
Heartbeat_Variant_2_evicts 0 : 0 1 : 0 2 : 0 3 : 0 
Heartbeat_Variant_3_evicts 0 : 0 1 : 0 2 : 0 3 : 0 
Heartbeat CPU 0 instructions: 80000002 cycles: 35582136 heartbeat IPC: 1.37908 cumulative IPC: 1.38902 (Simulation time: 0 hr 14 min 29 sec) 
Cycle: 40000000 FTQ IN: 13871234 FTQ occupancy: 15.0899 DECODE IN: 13871312 DECODE occupancy: 38.3572 ROB IN: 13871372 ROB occupancy: 250.209 ROB OUT: 13871405
Heartbeat_Variant_0 : 1508 0.245443 per_variant_size: 0 1508 0 0 0 0 0 0 0 
Heartbeat_Variant_1 : 3175 0.516764 per_variant_size: 0 998 2177 0 0 0 0 0 0 
Heartbeat_Variant_2 : 0 0 per_variant_size: 0 0 0 0 0 0 0 0 0 
Heartbeat_Variant_3 : 0 0 per_variant_size: 0 0 0 0 0 0 0 0 0 
Heartbeat_Variant_0_evicts 0 : 5586 1 : 0 2 : 0 3 : 0 
Heartbeat_Variant_1_evicts 0 : 0 1 : 0 2 : 0 3 : 0 
Heartbeat_Variant_2_evicts 0 : 0 1 : 0 2 : 0 3 : 0 
Heartbeat_Variant_3_evicts 0 : 0 1 : 0 2 : 0 3 : 0 
Heartbeat CPU 0 instructions: 90000001 cycles: 42710708 heartbeat IPC: 1.40281 cumulative IPC: 1.39244 (Simulation time: 0 hr 16 min 28 sec) 
Heartbeat_Variant_0 : 1510 0.245768 per_variant_size: 0 1510 0 0 0 0 0 0 0 
Heartbeat_Variant_1 : 3181 0.517741 per_variant_size: 0 992 2189 0 0 0 0 0 0 
Heartbeat_Variant_2 : 0 0 per_variant_size: 0 0 0 0 0 0 0 0 0 
Heartbeat_Variant_3 : 0 0 per_variant_size: 0 0 0 0 0 0 0 0 0 
Heartbeat_Variant_0_evicts 0 : 5603 1 : 1 2 : 0 3 : 0 
Heartbeat_Variant_1_evicts 0 : 2 1 : 0 2 : 0 3 : 0 
Heartbeat_Variant_2_evicts 0 : 0 1 : 0 2 : 0 3 : 0 
Heartbeat_Variant_3_evicts 0 : 0 1 : 0 2 : 0 3 : 0 
Heartbeat CPU 0 instructions: 100000003 cycles: 49938473 heartbeat IPC: 1.38355 cumulative IPC: 1.39065 (Simulation time: 0 hr 18 min 24 sec) 
Finished CPU 0 instructions: 50000003 cycles: 35954321 cumulative IPC: 1.39065 (Simulation time: 0 hr 18 min 24 sec) 

ChampSim completed all CPUs

Region of Interest Statistics

CPU 0 cumulative IPC: 1.39065 instructions: 50000003 cycles: 35954321
 Fetch stage stalled: 45.5818  Sim cycles: 35954321 fetch stall cycle: 16388623
 Empty decode stage: 24.913  Sim cycles: 35954321 fetch stall cycle: 8957298
ITLB TOTAL     ACCESS:    5846956  HIT:    5352026  MISS:     494930  HIT %:    91.5353  MISS %:    8.46475   MPKI: 9.8986
ITLB LOAD TRANSLATION INSTRUCTION	ACCESS:    5712219  HIT:    5217289  MISS:     494930  HIT %:    91.3356  MISS %:    8.66441  MPKI: 9.8986
ITLB TRANSLATION FROM L1D PREFETCHER INSTRUCTION	ACCESS:     134737  HIT:     134737  MISS:          0  HIT %:        100  MISS %:          0  MPKI: 0

ITLB AVERAGE MISS LATENCY: 9.06555 cycles
ITLB RQ	ACCESS:    7955104	FORWARD:          0	MERGED:    1623741	TO_CACHE:    6331363

DTLB TOTAL     ACCESS:    8956497  HIT:    8486562  MISS:     469935  HIT %:    94.7531  MISS %:    5.24686   MPKI: 9.3987
DTLB LOAD TRANSLATION DATA	ACCESS:    8956497  HIT:    8486562  MISS:     469935  HIT %:    94.7531  MISS %:    5.24686  MPKI: 9.3987

DTLB AVERAGE MISS LATENCY: 9.36081 cycles
DTLB RQ	ACCESS:   13330050	FORWARD:          0	MERGED:    4337015	TO_CACHE:    8993035

STLB TOTAL     ACCESS:    1211757  HIT:    1209563  MISS:       2194  HIT %:    99.8189  MISS %:   0.181059   MPKI: 0.04388
STLB LOAD TRANSLATION INSTRUCTION	ACCESS:     494930  HIT:     494632  MISS:        298  HIT %:    99.9398  MISS %:  0.0602105  MPKI: 0.00596
STLB LOAD TRANSLATION DATA	ACCESS:     469935  HIT:     468066  MISS:       1869  HIT %:    99.6023  MISS %:   0.397715  MPKI: 0.03738
STLB TRANSLATION FROM L1D PREFETCHER DATA	ACCESS:     246892  HIT:     246865  MISS:         27  HIT %:    99.9891  MISS %:   0.010936  MPKI: 0.00054

STLB AVERAGE MISS LATENCY: 78.3592 cycles
STLB RQ	ACCESS:    1332488	FORWARD:          0	MERGED:     120683	TO_CACHE:    1211805

STLB Hit, L1D data hit: 0
STLB Hit, L2C data hit: 0
STLB Hit, LLC data hit: 0
STLB Hit, LLC data miss: 0
STLB STLB hints to L2: 0
L1D TOTAL     ACCESS:   13075321  HIT:   11951409  MISS:    1123912  HIT %:    91.4043  MISS %:    8.59567   MPKI: 22.4782
L1D LOAD DATA	ACCESS:    6540503  HIT:    5799438  MISS:     741065  HIT %:    88.6696  MISS %:    11.3304  MPKI: 14.8213
L1D RFO DATA	ACCESS:    6208678  HIT:    5921387  MISS:     287291  HIT %:    95.3728  MISS %:    4.62725  MPKI: 5.74582
L1D PREFETCH DATA	ACCESS:     326140  HIT:     230584  MISS:      95556  HIT %:    70.7009  MISS %:    29.2991  MPKI: 1.91112

L1D PREFETCH  REQUESTED:     735598  ISSUED:     735598  USEFUL:      35163  USELESS:      68387
L1D USEFUL LOAD PREFETCHES:      35163 PREFETCH ISSUED TO LOWER LEVEL:     103598  ACCURACY: 33.9418
 TIMELY PREFETCHES:      35163 LATE PREFETCHES: 7998 DROPPED PREFETCHES: 5
L1D AVERAGE MISS LATENCY: 229273 cycles
L1D RQ	ACCESS:   10687477	FORWARD:          0	MERGED:    3944908	TO_CACHE:    6576674
L1D WQ	ACCESS:    6950873	FORWARD:     166249	MERGED:     197497	TO_CACHE:    6753376
L1D PQ	ACCESS:     367976	FORWARD:          0	MERGED:          0	TO_CACHE:     367622

L1D UNIQUE REGIONS ACCESSED: 0
L1D REGIONS CONFLICTS: 0
L1D Cross Page Prefetch Requests: 6961
L1D Same Page Prefetch Requests: 750424
L1D ROI Sum of L1D PQ occupancy: 4673277
L1D PREFETCHES PUSHED FROM L2C: 0
L1I TOTAL     ACCESS:    7110436  HIT:    4344702  MISS:    2765734  HIT %:    61.1032  MISS %:    38.8968   MPKI: 55.3147
L1I LOAD INSTRUCTION	ACCESS:    6449746  HIT:    3684012  MISS:    2765734  HIT %:    57.1187  MISS %:    42.8813  MPKI: 55.3147
L1I PREFETCH INSTRUCTION	ACCESS:     660690  HIT:     660690  MISS:          0  HIT %:        100  MISS %:          0  MPKI: 0

L1I PREFETCH  REQUESTED:    1617788  ISSUED:    1617788  USEFUL:          0  USELESS:          0
L1I USEFUL LOAD PREFETCHES:          0 PREFETCH ISSUED TO LOWER LEVEL:          0  ACCURACY: -nan
 TIMELY PREFETCHES:          0 LATE PREFETCHES: 0 DROPPED PREFETCHES: 0
L1I AVERAGE MISS LATENCY: 17.5318 cycles
L1I RQ	ACCESS:    9570957	FORWARD:          0	MERGED:    2805247	TO_CACHE:    6765710
L1I PQ	ACCESS:    1617788	FORWARD:          0	MERGED:     428394	TO_CACHE:    1189394

L1BTB TOTAL     ACCESS:    5669180  HIT:    2035924  MISS:    3633256  HIT %:    35.9121  MISS %:    64.0879   MPKI: 72.6651
L1BTB BRANCH_DIRECT_JUMP	ACCESS:     547506 HIT:     143862 MISS:     403644 AVERAGE STALL: 58.5755 AVERAGE FETCH STALL: 12.8512 AVERAGE FETCH QUEUE STALL: 21.985 AVERAGE DECODE STALL: 22.8283 AVERAGE EXECUTE STALL: 2.2496e+15
L1BTB BRANCH_INDIRECT	ACCESS:     182331 HIT:      65592 MISS:     116739 AVERAGE STALL: 114.533 AVERAGE FETCH STALL: 10.8459 AVERAGE FETCH QUEUE STALL: 18.7041 AVERAGE DECODE STALL: 13.582 AVERAGE EXECUTE STALL: 70.4382
L1BTB BRANCH_CONDITIONAL	ACCESS:    2700482 HIT:    1406643 MISS:    1293839 AVERAGE STALL: 68.7893 AVERAGE FETCH STALL: 25.1629 AVERAGE FETCH QUEUE STALL: 25.8648 AVERAGE DECODE STALL: 17.0685 AVERAGE EXECUTE STALL: 4.95747e+15
L1BTB BRANCH_DIRECT_CALL	ACCESS:     946917 HIT:     106504 MISS:     840413 AVERAGE STALL: 71.1449 AVERAGE FETCH STALL: 20.9028 AVERAGE FETCH QUEUE STALL: 33.7102 AVERAGE DECODE STALL: 15.6201 AVERAGE EXECUTE STALL: 3.25914e+16
L1BTB BRANCH_INDIRECT_CALL	ACCESS:     172517 HIT:      21908 MISS:     150609 AVERAGE STALL: 145.571 AVERAGE FETCH STALL: 12.9553 AVERAGE FETCH QUEUE STALL: 18.4224 AVERAGE DECODE STALL: 12.5216 AVERAGE EXECUTE STALL: 101.178
L1BTB BRANCH_RETURN	ACCESS:    1119427 HIT:     291415 MISS:     828012 AVERAGE STALL: 50.7381 AVERAGE FETCH STALL: 17.0567 AVERAGE FETCH QUEUE STALL: 4.84345 AVERAGE DECODE STALL: 6.07386 AVERAGE EXECUTE STALL: 4.40488e+14
L1BTB BRANCH_OTHER ACCESS:          0 HIT:          0 MISS:          0 AVERAGE STALL: -nan AVERAGE FETCH STALL: -nan AVERAGE FETCH QUEUE STALL: -nan AVERAGE DECODE STALL: -nan AVERAGE EXECUTE STALL: -nan
L1BTB TOTAL ROB OCCUPANCY AT BTB MISS: 2.54401

L2BTB TOTAL     ACCESS:    3607940  HIT:    3546267  MISS:      61673  HIT %:    98.2906  MISS %:    1.70937   MPKI: 1.23346
L2BTB BRANCH_DIRECT_JUMP	ACCESS:     399523 HIT:     395442 MISS:       4081 AVERAGE STALL: 58.5755 AVERAGE FETCH STALL: 12.8512 AVERAGE FETCH QUEUE STALL: 21.985 AVERAGE DECODE STALL: 22.8283 AVERAGE EXECUTE STALL: 2.2496e+15
L2BTB BRANCH_INDIRECT	ACCESS:     106455 HIT:     103769 MISS:       2686 AVERAGE STALL: 114.533 AVERAGE FETCH STALL: 10.8459 AVERAGE FETCH QUEUE STALL: 18.7041 AVERAGE DECODE STALL: 13.582 AVERAGE EXECUTE STALL: 70.4382
L2BTB BRANCH_CONDITIONAL	ACCESS:    1293839 HIT:    1290101 MISS:       3738 AVERAGE STALL: 68.7893 AVERAGE FETCH STALL: 25.1629 AVERAGE FETCH QUEUE STALL: 25.8648 AVERAGE DECODE STALL: 17.0685 AVERAGE EXECUTE STALL: 4.95747e+15
L2BTB BRANCH_DIRECT_CALL	ACCESS:     840413 HIT:     839836 MISS:        577 AVERAGE STALL: 71.1449 AVERAGE FETCH STALL: 20.9028 AVERAGE FETCH QUEUE STALL: 33.7102 AVERAGE DECODE STALL: 15.6201 AVERAGE EXECUTE STALL: 3.25914e+16
L2BTB BRANCH_INDIRECT_CALL	ACCESS:     141117 HIT:     131003 MISS:      10114 AVERAGE STALL: 145.571 AVERAGE FETCH STALL: 12.9553 AVERAGE FETCH QUEUE STALL: 18.4224 AVERAGE DECODE STALL: 12.5216 AVERAGE EXECUTE STALL: 101.178
L2BTB BRANCH_RETURN	ACCESS:     826593 HIT:     786116 MISS:      40477 AVERAGE STALL: 50.7381 AVERAGE FETCH STALL: 17.0567 AVERAGE FETCH QUEUE STALL: 4.84345 AVERAGE DECODE STALL: 6.07386 AVERAGE EXECUTE STALL: 4.40488e+14
L2BTB BRANCH_OTHER ACCESS:          0 HIT:          0 MISS:          0 AVERAGE STALL: -nan AVERAGE FETCH STALL: -nan AVERAGE FETCH QUEUE STALL: -nan AVERAGE DECODE STALL: -nan AVERAGE EXECUTE STALL: -nan
L2BTB TOTAL ROB OCCUPANCY AT BTB MISS: 149.872

L2C TOTAL     ACCESS:    4502472  HIT:    4001794  MISS:     500678  HIT %:    88.8799  MISS %:    11.1201   MPKI: 10.0136
L2C LOAD INSTRUCTION	ACCESS:    2765735  HIT:    2481681  MISS:     284054  HIT %:    89.7295  MISS %:    10.2705  MPKI: 5.68108
L2C LOAD TRANSLATION INSTRUCTION	ACCESS:        336  HIT:        105  MISS:        231  HIT %:      31.25  MISS %:      68.75  MPKI: 0.00462
L2C LOAD DATA	ACCESS:     733038  HIT:     656789  MISS:      76249  HIT %:    89.5982  MISS %:    10.4018  MPKI: 1.52498
L2C RFO DATA	ACCESS:     287214  HIT:     237807  MISS:      49407  HIT %:    82.7978  MISS %:    17.2022  MPKI: 0.98814
L2C PREFETCH DATA	ACCESS:     189757  HIT:     115097  MISS:      74660  HIT %:    60.6549  MISS %:    39.3451  MPKI: 1.4932
L2C WRITEBACK DATA	ACCESS:     524395  HIT:     509774  MISS:      14621  HIT %:    97.2118  MISS %:    2.78817  MPKI: 0.29242
L2C LOAD TRANSLATION DATA	ACCESS:       1943  HIT:        510  MISS:       1433  HIT %:    26.2481  MISS %:    73.7519  MPKI: 0.02866
L2C TRANSLATION FROM L1D PREFETCHER DATA	ACCESS:         54  HIT:         31  MISS:         23  HIT %:    57.4074  MISS %:    42.5926  MPKI: 0.00046

L2C PREFETCH  REQUESTED:      94041  ISSUED:      94041  USEFUL:       8961  USELESS:      66484
L2C USEFUL LOAD PREFETCHES:       8961 PREFETCH ISSUED TO LOWER LEVEL:      75374  ACCURACY: 11.8887
 TIMELY PREFETCHES:       8961 LATE PREFETCHES: 714 DROPPED PREFETCHES: 0
L2C AVERAGE MISS LATENCY: 39.0368 cycles
L2C RQ	ACCESS:    3788382	FORWARD:          0	MERGED:          0	TO_CACHE:    3788320
L2C WQ	ACCESS:     524395	FORWARD:         62	MERGED:          0	TO_CACHE:     524395
L2C PQ	ACCESS:     197639	FORWARD:          0	MERGED:       3154	TO_CACHE:     194485

L2C Dense regions hint from L2: 0
PSCL5 TOTAL     ACCESS:       4406  HIT:       2203  MISS:       2203  HIT %:         50  MISS %:         50   MPKI: 0.04406
PSCL5 LOAD TRANSLATION INSTRUCTION	ACCESS:       4298  HIT:       2149  MISS:       2149  HIT %:         50  MISS %:         50  MPKI: 0.04298
PSCL5 TRANSLATION FROM L1D PREFETCHER INSTRUCTION	ACCESS:        108  HIT:         54  MISS:         54  HIT %:         50  MISS %:         50  MPKI: 0.00108


PSCL4 TOTAL     ACCESS:       4333  HIT:       2164  MISS:       2169  HIT %:    49.9423  MISS %:    50.0577   MPKI: 0.04338
PSCL4 LOAD TRANSLATION INSTRUCTION	ACCESS:       3825  HIT:       2115  MISS:       1710  HIT %:    55.2941  MISS %:    44.7059  MPKI: 0.0342
PSCL4 TRANSLATION FROM L1D PREFETCHER INSTRUCTION	ACCESS:         91  HIT:         49  MISS:         42  HIT %:    53.8462  MISS %:    46.1538  MPKI: 0.00084
PSCL4 LOAD TRANSLATION DATA	ACCESS:        410  HIT:          0  MISS:        410  HIT %:          0  MISS %:        100  MPKI: 0.0082
PSCL4 TRANSLATION FROM L1D PREFETCHER DATA	ACCESS:          7  HIT:          0  MISS:          7  HIT %:          0  MISS %:        100  MPKI: 0.00014


PSCL3 TOTAL     ACCESS:       4337  HIT:       2166  MISS:       2171  HIT %:    49.9424  MISS %:    50.0576   MPKI: 0.04342
PSCL3 LOAD TRANSLATION INSTRUCTION	ACCESS:       3827  HIT:       2117  MISS:       1710  HIT %:    55.3175  MISS %:    44.6825  MPKI: 0.0342
PSCL3 TRANSLATION FROM L1D PREFETCHER INSTRUCTION	ACCESS:         91  HIT:         49  MISS:         42  HIT %:    53.8462  MISS %:    46.1538  MPKI: 0.00084
PSCL3 LOAD TRANSLATION DATA	ACCESS:        412  HIT:          0  MISS:        412  HIT %:          0  MISS %:        100  MPKI: 0.00824
PSCL3 TRANSLATION FROM L1D PREFETCHER DATA	ACCESS:          7  HIT:          0  MISS:          7  HIT %:          0  MISS %:        100  MPKI: 0.00014


PSCL2 TOTAL     ACCESS:       4285  HIT:       2082  MISS:       2203  HIT %:    48.5881  MISS %:    51.4119   MPKI: 0.04406
PSCL2 LOAD TRANSLATION INSTRUCTION	ACCESS:       2323  HIT:       2028  MISS:        295  HIT %:    87.3009  MISS %:    12.6991  MPKI: 0.0059
PSCL2 TRANSLATION FROM L1D PREFETCHER INSTRUCTION	ACCESS:         54  HIT:         54  MISS:          0  HIT %:        100  MISS %:          0  MPKI: 0
PSCL2 LOAD TRANSLATION DATA	ACCESS:       1854  HIT:          0  MISS:       1854  HIT %:          0  MISS %:        100  MPKI: 0.03708
PSCL2 TRANSLATION FROM L1D PREFETCHER DATA	ACCESS:         54  HIT:          0  MISS:         54  HIT %:          0  MISS %:        100  MPKI: 0.00108


LLC TOTAL     ACCESS:     558515  HIT:     527692  MISS:      30823  HIT %:    94.4813  MISS %:    5.51874   MPKI: 0.61646
LLC LOAD INSTRUCTION	ACCESS:     284054  HIT:     283088  MISS:        966  HIT %:    99.6599  MISS %:   0.340076  MPKI: 0.01932
LLC LOAD TRANSLATION INSTRUCTION	ACCESS:        231  HIT:        199  MISS:         32  HIT %:    86.1472  MISS %:    13.8528  MPKI: 0.00064
LLC LOAD DATA	ACCESS:      75560  HIT:      71895  MISS:       3665  HIT %:    95.1496  MISS %:    4.85045  MPKI: 0.0733
LLC RFO DATA	ACCESS:      49375  HIT:      34071  MISS:      15304  HIT %:    69.0046  MISS %:    30.9954  MPKI: 0.30608
LLC PREFETCH DATA	ACCESS:      75374  HIT:      65006  MISS:      10368  HIT %:    86.2446  MISS %:    13.7554  MPKI: 0.20736
LLC WRITEBACK DATA	ACCESS:      72465  HIT:      72078  MISS:        387  HIT %:    99.4659  MISS %:   0.534051  MPKI: 0.00774
LLC LOAD TRANSLATION DATA	ACCESS:       1433  HIT:       1332  MISS:        101  HIT %:    92.9518  MISS %:    7.04815  MPKI: 0.00202
LLC TRANSLATION FROM L1D PREFETCHER DATA	ACCESS:         23  HIT:         23  MISS:          0  HIT %:        100  MISS %:          0  MPKI: 0

LLC AVERAGE MISS LATENCY: 159.589 cycles
LLC RQ	ACCESS:     410683	FORWARD:          0	MERGED:          0	TO_CACHE:     410676
LLC WQ	ACCESS:      72465	FORWARD:          7	MERGED:          0	TO_CACHE:      72465
LLC PQ	ACCESS:      75374	FORWARD:          0	MERGED:          0	TO_CACHE:      75374

LLC Dense regions hint to LLC: 0

RAW hits: 1949417
Loads Generated: 12636894
Loads sent to L1D: 10687477
Stores Generated: 6950862
Stores sent to L1D: 6950873
Major fault: 0 Minor fault: 2661
Allocated PAGES: 2661

stream: 
stream:times selected: 1188268
stream:pref_filled: 121689
stream:pref_useful: 24141
stream:pref_late: 6675
stream:misses: 7949
stream:misses_by_poll: 0

CS: 
CS:times selected: 180974
CS:pref_filled: 60644
CS:pref_useful: 37244
CS:pref_late: 7028
CS:misses: 16918
CS:misses_by_poll: 9

CPLX: 
CPLX:times selected: 1006096
CPLX:pref_filled: 19495
CPLX:pref_useful: 4652
CPLX:pref_late: 2999
CPLX:misses: 93359
CPLX:misses_by_poll: 0

NL_L1: 
NL:times selected: 20887
NL:pref_filled: 827
NL:pref_useful: 385
NL:pref_late: 304
NL:misses: 1858
NL:misses_by_poll: 0

total selections: 2396225
total_filled: 95556
total_useful: 35163
total_late: 18229
total_polluted: 9
total_misses_after_warmup: 777236
conflicts: 5513686

test: 115520

DRAM Statistics
 CHANNEL 0
 RQ ROW_BUFFER_HIT:      11328  ROW_BUFFER_MISS:      19090
 DBUS_CONGESTED:         11
 WQ ROW_BUFFER_HIT:       1525  ROW_BUFFER_MISS:      13013  FULL:          0

 AVG_CONGESTED_CYCLE: 6

CPU 0 Branch Prediction Accuracy: 99.8222% MPKI: 0.32518 Average ROB Occupancy at Mispredict: 194.548
Branch types
NOT_BRANCH: 40854276 81.7085%
BRANCH_DIRECT_JUMP: 547506 1.09501%
BRANCH_INDIRECT: 182331 0.364662%
BRANCH_CONDITIONAL: 6176923 12.3538%
BRANCH_DIRECT_CALL: 946917 1.89383%
BRANCH_INDIRECT_CALL: 172517 0.345034%
BRANCH_RETURN: 1119427 2.23885%
BRANCH_OTHER: 0 0%

DRAM PAGES: 1048576
Allocated PAGES: 2661
Average_ROB_Occupancy: 251.328
Average_Decode_Occupancy: 38.249
Average_FTQ_Occupancy: 15.0159
Indirect max targets: 14 Average targets: 1.17778
Branch_type:  BRANCH_DIRECT_JUMP:  Count Percentage: 3.31584 6.40466 4.09986 3.79398 9.94989 2.71885 1.60283 68.1141 
Branch_type:  BRANCH_INDIRECT:  Count Percentage: 13.771 3.44091 5.36711 3.73538 9.68514 1.20521 3.2025 59.5927 
Branch_type:  BRANCH_CONDITIONAL:  Count Percentage: 21.4796 3.03674 1.85294 3.15863 6.30751 9.51823 0.927365 53.719 
Branch_type:  BRANCH_DIRECT_CALL:  Count Percentage: 0.752134 1.26426 1.02866 2.5889 5.12548 2.07211 0.618669 86.5498 
Branch_type:  BRANCH_INDIRECT_CALL:  Count Percentage: 9.52367 0 2.98401 4.26154 1.25889 2.99158 0.995932 77.9844 
Branch_type:  BRANCH_RETURN:  Count Percentage: 4.51993 1.37725 2.61164 3.2738 8.30366 10.0293 1.1845 68.6999 
Branch_type:  BRANCH_DIRECT_JUMP:  Total Count: 36325 70163 44914 41563 109001 29785 17559 746190 
Branch_type:  BRANCH_INDIRECT:  Total Count: 50367 12585 19630 13662 35423 4408 11713 217958 
Branch_type:  BRANCH_CONDITIONAL:  Total Count: 2653661 375170 228919 390228 779252 1175916 114570 6636643 
Branch_type:  BRANCH_DIRECT_CALL:  Total Count: 14190 23852 19407 48843 96699 39093 11672 1632876 
Branch_type:  BRANCH_INDIRECT_CALL:  Total Count: 32704 0 10247 14634 4323 10273 3420 267796 
Branch_type:  BRANCH_RETURN:  Total Count: 100835 30725 58263 73035 185246 223743 26425 1532624 
Number of unique branch instructions: 10810
Upper 32 bits: 
aaaa
ffff
ffff0000
Unique upper 32 bits: 3
Unique upper 36 bits: 3
Unique upper 40 bits: 5
Unique upper 44 bits: 32
Unique upper 48 bits: 158
Variant_0 : 1510 0.245768
Variant_1 : 3181 0.517741
Variant_2 : 0 0
Variant_3 : 0 0
Offset_3 4480
Offset_4 261
Offset_5 486
Offset_6 545
Offset_7 643
Offset_8 585
Offset_9 519
Offset_10 426
Offset_11 348
Offset_12 325
Offset_13 237
Offset_14 247
Offset_15 192
Offset_16 234
Offset_17 170
Offset_18 154
Offset_19 267
Offset_20 145
Offset_21 235
Offset_22 411
Offset_23 241
Offset_24 347
Offset_25 117
Offset_47 92
decode_dispatch_called: 26395467 73.4139
Dispatch_width: 0 14221128 53.8772 39.5533
Dispatch_width: 1 1031784 3.90894 2.86971
Dispatch_width: 2 859960 3.25798 2.39181
Dispatch_width: 3 498038 1.88683 1.3852
Dispatch_width: 4 6423140 24.3343 17.8647
Dispatch_width: 5 106880 0.404918 0.297266
Dispatch_width: 6 3254537 12.3299 9.05187
Empty_decode_cycles: 9558854 26.5861
ROB_full_cycles: 10196248 28.3589
Starvation_cycles_per_kilo_instr: 225.035
Starvation_cycles_per_kilo_instr_3: 159.735
Starvation_cycles_per_kilo_instr_0: 135.837
Branch_type_1  (3,1)  (4,9)  (5,39)  (6,75)  (7,126)  (8,152)  (9,137)  (10,110)  (11,77)  (12,55)  (13,11)  (14,2)  (15,3)  (16,4)  (18,1)  (19,5)  (20,2)  (21,1)  (22,3)  (23,2)  (24,10)  (25,12) 
Branch_type_2  (3,1)  (4,1)  (5,1)  (8,4)  (9,4)  (10,1)  (12,1)  (13,1)  (14,1)  (16,3)  (17,2)  (20,2)  (21,2)  (23,5)  (24,1)  (47,41) 
Branch_type_3  (3,4478)  (4,251)  (5,442)  (6,453)  (7,485)  (8,360)  (9,282)  (10,173)  (11,136)  (12,62)  (13,10) 
Branch_type_4  (6,4)  (7,8)  (8,26)  (9,58)  (10,68)  (11,69)  (12,116)  (13,100)  (14,112)  (15,91)  (16,105)  (17,77)  (18,66)  (19,129)  (20,74)  (21,124)  (22,216)  (23,136)  (24,202)  (25,101) 
Branch_type_5  (8,3)  (9,1)  (10,4)  (11,5)  (12,3)  (13,14)  (14,16)  (15,11)  (16,22)  (17,13)  (18,23)  (19,14)  (20,11)  (21,13)  (22,43)  (23,26)  (24,38) 
Branch_type_6  (5,4)  (6,13)  (7,24)  (8,40)  (9,37)  (10,70)  (11,61)  (12,88)  (13,101)  (14,116)  (15,87)  (16,100)  (17,78)  (18,64)  (19,119)  (20,56)  (21,95)  (22,149)  (23,72)  (24,96)  (25,4)  (47,51) 
Unique trigger count: 
Variant_0_evicts_0 : 0
Variant_0_evicts_1 : 0
Variant_0_evicts_2 : 0
Variant_0_evicts_3 : 0
Variant_1_evicts_0 : 0
Variant_1_evicts_1 : 0
Variant_1_evicts_2 : 0
Variant_1_evicts_3 : 0
Variant_2_evicts_0 : 0
Variant_2_evicts_1 : 0
Variant_2_evicts_2 : 0
Variant_2_evicts_3 : 0
Variant_3_evicts_0 : 0
Variant_3_evicts_1 : 0
Variant_3_evicts_2 : 0
Variant_3_evicts_3 : 0
BTB PER SET UNIQUE ADDR: 6 7 6 5 8 4 6 5 4 5 7 6 4 5 3 8 3 5 7 6 5 5 6 8 6 5 4 6 6 6 8 6 6 8 7 4 6 3 5 5 5 6 6 9 2 3 5 8 6 6 5 6 7 4 6 7 5 6 4 5 7 5 6 6 6 5 6 4 5 3 5 4 6 6 6 6 3 7 6 6 6 7 6 6 6 4 2 4 5 6 5 6 4 8 6 5 6 9 5 8 6 6 7 7 4 7 5 4 5 7 5 5 6 5 4 3 5 7 6 5 5 7 5 7 6 6 4 6 6 5 6 7 7 4 5 5 7 3 7 9 5 5 4 6 6 6 4 7 4 6 8 5 4 4 6 6 3 4 5 7 4 5 6 6 5 7 6 6 5 4 6 3 7 6 7 6 6 5 5 7 5 3 6 8 3 6 4 6 6 7 6 7 7 7 5 7 5 4 6 3 6 8 7 6 8 7 6 6 5 8 6 7 6 8 4 5 7 5 7 4 5 7 4 6 5 4 5 6 5 4 6 4 5 8 4 6 5 6 5 6 10 7 7 6 6 7 7 4 6 5 6 5 5 4 4 4 4 3 5 6 6 4 5 3 7 7 7 5 4 6 7 5 6 5 7 5 12 3 7 7 4 6 3 6 3 6 7 5 4 4 5 8 5 5 5 7 8 7 5 4 9 4 3 4 7 6 5 6 5 6 4 6 7 7 6 6 8 7 6 7 7 6 4 4 8 6 5 6 6 6 6 4 3 3 3 9 7 5 7 5 7 6 6 6 4 6 5 3 6 7 5 8 5 5 6 7 8 7 4 6 6 7 4 5 4 6 5 7 6 6 3 5 5 4 6 6 6 5 3 6 7 5 4 3 6 8 4 6 6 6 5 6 6 8 4 6 6 7 5 5 7 7 7 6 7 4 4 7 6 7 6 4 8 5 8 5 7 4 9 5 6 4 7 6 7 7 4 4 10 7 5 5 7 4 5 4 8 4 3 5 5 5 5 5 7 5 4 7 7 7 8 6 6 5 6 4 6 5 6 5 8 5 4 6 3 6 7 7 5 5 5 5 7 6 5 6 6 4 5 7 6 4 7 5 8 6 6 9 9 4 5 7 4 4 8 7 6 4 6 4 6 5 5 6 6 6 3 5 6 5 4 5 5 3 3 6 6 2 4 4 5 4 3 4 6 3 1 4 1 5 5 3 5 4 5 4 2 3 4 5 6 4 5 6 4 4 5 5 2 4 4 5 2 6 4 4 6 2 4 3 4 4 4 5 4 2 3 3 4 1 4 2 2 1 4 4 5 3 4 4 3 3 2 3 4 3 3 3 5 3 4 3 5 3 2 6 6 5 5 5 4 5 2 3 3 3 4 3 4 4 6 3 4 4 3 3 4 3 4 3 5 3 5 4 6 6 3 6 4 3 2 3 5 3 4 4 5 3 5 3 5 6 1 2 4 5 4 3 5 4 5 3 3 5 3 6 7 5 5 2 1 3 4 6 4 4 5 4 8 5 4 3 3 5 5 5 2 6 5 6 5 4 3 5 4 4 2 6 5 3 5 3 4 4 3 4 4 4 6 5 5 4 2 3 6 3 2 3 5 4 5 5 5 5 5 2 5 4 4 2 5 4 3 4 7 5 5 4 3 5 4 4 7 3 7 3 4 4 2 6 4 5 6 6 4 2 5 2 6 5 3 3 4 3 5 6 3 3 2 4 6 6 6 3 4 7 3 5 6 6 4 3 3 5 7 2 6 4 1 4 3 3 5 5 6 3 3 3 4 4 5 5 5 5 6 3 5 2 4 6 4 4 4 3 7 4 5 5 5 6 3 3 2 4 4 4 6 5 2 5 6 3 6 2 4 3 4 3 3 5 3 5 3 7 4 4 6 5 3 4 5 4 4 5 3 5 6 4 2 4 5 5 4 3 5 4 4 3 3 3 4 6 5 5 6 3 4 3 5 7 5 3 6 3 4 4 4 3 3 5 6 6 5 4 5 5 5 4 4 1 6 3 4 2 2 5 3 3 5 1 4 2 6 5 5 2 6 4 4 5 4 5 2 5 3 6 3 4 6 4 5 3 4 3 5 6 6 4 4 6 2 7 5 4 5 3 4 4 2 3 5 5 6 5 3 2 4 4 6 7 6 5 4 6 4 3 3 6 1 2 4 5 6 4 3 3 5 3 3 5 4 5 5 6 2 6 4 4 4 4 3 6 5 6 5 3 3 4 6 4 5 4 3 5 6 4 2 3 4 6 5 3 5 2 3 4 5 5 4 5 4 5 7 5 6 6 5 4 4 3 3 4 5 6 6 3 5 7 3 2 3 4 4 3 3 5 5 4 2 3 4 3 4 6 6 2 4 4 5 6 4 3 6 4 2 4 6 4 4 3 6 4 7 3 3 4 5 3 4 4 4 5 2 4 6 3 3 4 2 4 5 4 5 5 7 3 5 2 3 3 5 7 4 6 4 3 3 6 5 4 3 5 5 7 5 6 3 6 2 4 6 4 5 1 4 6 7 5 3 6 4 5 5 5 6 6 4 6 4 2 5 4 5 1 4 2 3 2 6 6 4 6 3 2 3 5 2 4 5 5 6 4 2 1 3 2 5 4 4 3 6 4 7 4 4 4 6 4 5 5 6 4 6 6 1 4 3 3 3 4 5 2 5 6 7 3 5 5 5 4 3 3 3 2 5 5 4 6 4 2 4 3 2 3 5 5 5 3 4 4 4 6 5 3 6 4 6 4 4 8 7 3 4 5 3 5 2 5 6 4 5 4 6 4 5 5 5 5 4 4 3 3 7 2 6 3 8 5 3 4 4 6 6 4 4 4 4 6 3 7 4 4 4 6 5 5 5 4 4 5 5 4 5 2 3 4 3 5 6 5 4 6 5 4 6 4 5 4 6 3 3 4 5 5 5 5 5 5 4 5 4 4 5 4 6 5 4 4 6 5 3 5 5 3 6 4 6 4 2 4 5 4 6 3 5 2 4 5 6 5 2 3 5 5 4 5 5 3 5 7 5 5 3 4 7 5 3 2 6 6 3 3 6 7 4 5 5 2 5 4 4 4 6 6 4 6 4 7 5 7 4 4 1 7 5 6 6 5 3 5 4 3 5 2 5 4 4 5 3 4 3 3 3 4 2 4 4 5 3 3 4 3 5 3 4 4 3 3 7 4 3 6 6 6 5 2 2 3 2 3 5 5 4 6 6 3 3 5 4 7 7 4 4 5 3 3 7 5 5 4 5 7 3 3 4 4 5 6 5 5 5 2 4 3 5 6 3 3 5 6 5 3 4 4 5 4 4 4 6 3 4 3 5 4 7 4 3 4 6 4 6 7 5 5 8 2 6 5 5 6 4 5 2 5 3 6 4 4 4 4 4 4 4 5 5 4 4 4 4 4 7 3 2 5 4 7 8 4 3 6 4 3 5 6 4 4 3 4 5 5 2 5 4 4 4 4 
BTB PER SET COUNT: 6 1650 6 5 9 4 6 5 4 7 7 6 4 5 3 8 3 9 7 6 5 5 6 9 499 8 4 6 7 482 2936 6 6 11 8 4 6 3 5 6 5 6 6 30 2 3 500 10 185 6 5 6 500 4 6 7 5 1484 5 5 977 5 6 10 6 5 6 4 5 4 5 4 10 6 6 255 3 7 6 6 6 7 6 6 6 4 2 4 497 55 135 6 4 8 6 5 7 10 5 8 6 6 12 1470 4 977 5 4 5 7 5 5 8 5 4 3 5 7 12 7 6 8 2405 7 6 6 4 8 716 5 7 980 9 4 5 5 7 3 7 994 806 13 4 6 6 6 4 10 8 18 8 5 4 4 6 1947 3 4 5 7 4 7 7 6 5 10 6 6 5 4 7 3 112 9 8 6 6 5 7 7 5 3 6 10 4 7 4 6 8 8 486 7 8 8 7 7 5 989 6 3 6 8 7 6 8 7 6 6 49 8 6 10 1455 384 4 5 7 5 7 4 5 7 4 484 5 5 5 8 5 4 287 4 6 8 4 6 5 7 5 6 10 8 7 6 10 9 7857 195 6 5 1119 5 7 7 4 4 1467 3 5 7 6 7 5 3 7 7 9 5 4 6 24 5 8 5 8 5 1001 5 15 7 4 9 3 1483 3 6 10 5 913 5 5 10 5 5 497 875 8 7 6 5 17 4 3 5 10 7 5 6 5 6 4 6 7 7 6 6 10 7 6 8 7 8 155 4 9 7 6 6 6 7 6 4 20505 3 3 11 7 5 8 5 7 7 9 6 4 6 7 3 6 10 5 12 5 5 6 7 11 1486 8 129 6 8 4 11 14643 6 6 7 6 7 3 14 5 4 6 6 181 5 3 7 9 5 4 3 7 11 4 6 9 7 6 6 6 9 4 6 1831 271 5 6 9 7 8 382 7 4 4 7 6 7 9 4 9 5 9 5 8 26 2463 5 6 4 7 500 8 7 4 4 260 7 5 5 7 4 5 988 10 4 2959 6 5 133 5 5 566 5 4 11 7 10 9 6 6 5 6 4 6 5 10 1118 2007 993 4 8 3 1469 9 7 5 5 5 5 7 7 5 6 6 4 5 9 6 4 7 1468 1518 11 7 502 126 4 1483 9 6 4 10 7 1494 9 7 4 7 5 6 6 1353 8 3 5 6 6 4 7 5 1975 3 6 6 496 4 4 5 4 3 4 6 3 1 4 1 5 5 3 5 7 22 4 2 89 4 5 8 5 5 6 4 1469 5 6 2 4 4 992 987 9 4 4 6 2 4 3 990 5 5 5 4 2 1973 3 4 2 4 2 2 1 4 4 6 4 4 4 4 3 2 3 7 3 3 3 5 3 4 3 6 3 2 1470 6 5 6 5 4 5 2 4 6 3 5 3 4 6 6 3 978 4 3 3 1467 5 6 3 6 3 6 5 6 6 3 6 8 4 2 3 5 3 4 7 5 3 5 3 6 6 1 3 8 5 4 3 6 989 5 29 3 9 3 6 7 5 5 2 1 3 6 7 4 496 5 4 8 5 4 3 3 9 5 1471 2 7 5 8 5 4 3 5 4 4 2 6 5 3 5 3 4 4 3 4 5 4 6 6 5 4 2 3 6 4 2 3 5 5 5 7 5 5 5 495 5 4 4 2 5 4 5 4 7 6 5 5 3 5 5 6 8 3 8 5 4 4 2 1469 4 5 6 6 4 2 5 2 6 7 3 4 5 3 991 6 3 3 187 4 8 6 6 55 4 7 3 2932 6 7 7 3 3 5 8 2 7 4 1 4 3 3 5 7 741 3 3 3 239 4 6 5 5 5 6 3 6 2 4 6 4 4 4 3 8 4 7 8 5 9 3 3 2 4 4 4 6 5 2 5 8 3 6 2 4 3 4 3 3 507 3 5 3 977 4 4 7 5 3 5 7 5 989 5 3 5 981 5 2 4 5 976 6 6 5 4 4 3 3 3 4 7 5 5 498 3 4 3 6 9 5 3 110 3 4 4 4 3 3 5 6 6 90 5 5 5 990 4 4 1 6 3 4 2 2 6 3 3 5 1 4 4 6 5 6 4 6 5 5 10 5 5 2 5 3 8 3 4 6 4 5 973 4 3 5 7 1472 4 5 7 2 7 7 4 5 3 4 975 2 5 5 2931 6 6 3 2 4 4 10 8 6 5 4 6 991 3 3 7 1972 2 4 5 6 6 3 3 497 3 4 5 4 5 6 17 3 8 4 4 4 6 3 7 6 7 5 5 3 36 6 4 5 4 3 5 6 7 2 3 4 106 5 3 6 2 3 5 5 1470 4 497 4 5 14 5 6 6 6 4 7 3 3 4 6 6 6 3 5 484 4 2 3 4 4 3 3 6 6 4 2 3 4 3 33 6 7 2 549 4 5 6 4 3 6 4 2 4 8 474 4 3 7 4 8 3 3 8 5 3 4 4 4 430 2 5 8 3 11 4 2 4 5 4 6 975 7 3 15 2 3 3 5 9 4 9 4 3 15 6 5 4 3 8 8 7 381 338 4 8 2 4 382 4 5 1 4 6 7 64 3 7 4 5 5 7 7 6 4 11 5 2 5 4 5 1 4 2 3 2 7 6 4 7 4 2 3 500 2 989 6 6 6 4 2 1 3 2 5 4 4 3 6 4 8 4 4 4 6 4 5 5 7 4 6 6 1 4 3 3 5 939 1468 2 5 6 7 3 6 5 5 5 5 3 8 2 1962 497 4 6 94 2 5 3 2 3 5 5 5 3 4 381 1467 6 5 3 951 6 8 4 4 8 608 3 4 5 3 5 2 6 1469 4 977 4 8 4 7 23 5 5 4 4 4 3 7 2 8 3 10 5 3 4 4 502 6 11 4 4 4 6 3 8 4 68 4 7 975 5 6 4 5 260 5 4 5 2 3 4 3 5 6 7 4 6 5 4 6 4 5 4 6 3 3 4 5 5 5 6 5 7 4 992 5 4 5 13 6 11 4 4 6 7 3 5 5 3 6 4 6 4 2 4 5 4 6 988 5 2 4 1471 6 5 2 3 5 7 4 5 1468 3 5 387 5 5 3 5 1470 5 3 2 43 6 3 4 6 7 964 6 8 2 5 4 6 4 6 6 4 6 4 12 5 7 4 4 1 7 5 6 7 5 3 499 5 3 5 2 5 4 5 6 3 4 3 4 3 4 2 4 4 5 3 3 4 3 5 3 4 4 3 3 8 31 3 9 6 1469 7 2 2 213 2 3 5 5 4 8 6 3 3 5 5 2439 8 4 4 2651 3 3 7 5 5 5 6 8 3 5 4 5 7 64 5 5 5 2 4 3 5 6 6 4 5 7 6 3 4 4 5 4 4 7 7 3 5 3 5 4 7 4 3 4 13 4 7 9 976 5 12 2 6 6 5 6 4 5 2 5 3 6 4 4 4 5 245 974 4 5 7 4 4 5 4 4 9 3 2 7 4 7 10 4 3 6 4 3 6 1586 4 4 3 4 975 6 2 6 5 4 4 4 
To predecode: 0
Predecoding something: 0
Predecode request dropped: 0
sizeofblock_0 0
sizeofblock_1 47674
sizeofblock_2 82247
sizeofblock_3 0
sizeofblock_4 0
sizeofblock_5 0
sizeofblock_6 0
sizeofblock_7 0
sizeofblock_8 0
Variant_0 Correct: 1613293 Incorrect: 0 Accuracy: 1
Variant_1 Correct: 5730548 Incorrect: 0 Accuracy: 1
Variant_2 Correct: 0 Incorrect: 0 Accuracy: -nan
Variant_3 Correct: 0 Incorrect: 0 Accuracy: -nan
