
*** ChampSim Multicore Out-of-Order Simulator ***

Warmup Instructions: 50000000
Simulation Instructions: 50000000
Number of CPUs: 1
LLC sets: 2048
LLC ways: 16
Off-chip DRAM Size: 4096 MB Channels: 1 Width: 64-bit Data Rate: 6400 MT/s
CPU 0 runs ./micro_traces/srv518.trace.gz
.gz
ITLB has LRU replacement policy
DTLB has LRU replacement policy
STLB has LRU replacement policy
FDIP Prefetcher at L1I
L1I has LRU replacement policy
L1D has LRU replacement policy
Initialize SRRIP state for L2C
Initialize DRRIP state for LLC
Heartbeat_Variant_0 : 1296 0.316406 per_variant_size: 0 1296 0 0 0 0 0 0 0 
Heartbeat_Variant_1 : 1198 0.29248 per_variant_size: 0 600 598 0 0 0 0 0 0 
Heartbeat_Variant_2 : 1280 0.3125 per_variant_size: 0 531 360 217 172 0 0 0 0 
Heartbeat_Variant_3 : 0 0 per_variant_size: 0 0 0 0 0 0 0 0 0 
Heartbeat_Variant_0_evicts 0 : 5970 1 : 209 2 : 208 3 : 0 
Heartbeat_Variant_1_evicts 0 : 170 1 : 0 2 : 356 3 : 0 
Heartbeat_Variant_2_evicts 0 : 181 1 : 354 2 : 0 3 : 0 
Heartbeat_Variant_3_evicts 0 : 0 1 : 0 2 : 0 3 : 0 
Heartbeat CPU 0 instructions: 10000002 cycles: 2798258 heartbeat IPC: 3.57365 cumulative IPC: 3.57365 (Simulation time: 0 hr 1 min 47 sec) 
Heartbeat_Variant_0 : 1325 0.323486 per_variant_size: 0 1325 0 0 0 0 0 0 0 
Heartbeat_Variant_1 : 1222 0.29834 per_variant_size: 0 589 633 0 0 0 0 0 0 
Heartbeat_Variant_2 : 1303 0.318115 per_variant_size: 0 527 356 221 199 0 0 0 0 
Heartbeat_Variant_3 : 0 0 per_variant_size: 0 0 0 0 0 0 0 0 0 
Heartbeat_Variant_0_evicts 0 : 5579 1 : 59 2 : 74 3 : 0 
Heartbeat_Variant_1_evicts 0 : 59 1 : 0 2 : 250 3 : 0 
Heartbeat_Variant_2_evicts 0 : 68 1 : 255 2 : 0 3 : 0 
Heartbeat_Variant_3_evicts 0 : 0 1 : 0 2 : 0 3 : 0 
Heartbeat CPU 0 instructions: 20000001 cycles: 5596235 heartbeat IPC: 3.57401 cumulative IPC: 3.57383 (Simulation time: 0 hr 3 min 25 sec) 
Heartbeat_Variant_0 : 1361 0.332275 per_variant_size: 0 1361 0 0 0 0 0 0 0 
Heartbeat_Variant_1 : 1249 0.304932 per_variant_size: 0 591 658 0 0 0 0 0 0 
Heartbeat_Variant_2 : 1321 0.32251 per_variant_size: 0 512 344 250 215 0 0 0 0 
Heartbeat_Variant_3 : 0 0 per_variant_size: 0 0 0 0 0 0 0 0 0 
Heartbeat_Variant_0_evicts 0 : 5623 1 : 136 2 : 117 3 : 0 
Heartbeat_Variant_1_evicts 0 : 139 1 : 0 2 : 311 3 : 0 
Heartbeat_Variant_2_evicts 0 : 101 1 : 315 2 : 0 3 : 0 
Heartbeat_Variant_3_evicts 0 : 0 1 : 0 2 : 0 3 : 0 
Heartbeat CPU 0 instructions: 30000000 cycles: 8392318 heartbeat IPC: 3.57643 cumulative IPC: 3.5747 (Simulation time: 0 hr 5 min 3 sec) 
Heartbeat_Variant_0 : 1360 0.332031 per_variant_size: 0 1360 0 0 0 0 0 0 0 
Heartbeat_Variant_1 : 1260 0.307617 per_variant_size: 0 600 660 0 0 0 0 0 0 
Heartbeat_Variant_2 : 1320 0.322266 per_variant_size: 0 501 354 255 210 0 0 0 0 
Heartbeat_Variant_3 : 0 0 per_variant_size: 0 0 0 0 0 0 0 0 0 
Heartbeat_Variant_0_evicts 0 : 5588 1 : 42 2 : 26 3 : 0 
Heartbeat_Variant_1_evicts 0 : 44 1 : 0 2 : 243 3 : 0 
Heartbeat_Variant_2_evicts 0 : 28 1 : 237 2 : 0 3 : 0 
Heartbeat_Variant_3_evicts 0 : 0 1 : 0 2 : 0 3 : 0 
Heartbeat CPU 0 instructions: 40000001 cycles: 11189063 heartbeat IPC: 3.57559 cumulative IPC: 3.57492 (Simulation time: 0 hr 6 min 45 sec) 
Heartbeat_Variant_0 : 1372 0.334961 per_variant_size: 0 1372 0 0 0 0 0 0 0 
Heartbeat_Variant_1 : 1266 0.309082 per_variant_size: 0 589 677 0 0 0 0 0 0 
Heartbeat_Variant_2 : 1326 0.32373 per_variant_size: 0 505 345 259 217 0 0 0 0 
Heartbeat_Variant_3 : 0 0 per_variant_size: 0 0 0 0 0 0 0 0 0 
Heartbeat_Variant_0_evicts 0 : 5806 1 : 70 2 : 72 3 : 0 
Heartbeat_Variant_1_evicts 0 : 66 1 : 0 2 : 259 3 : 0 
Heartbeat_Variant_2_evicts 0 : 70 1 : 256 2 : 0 3 : 0 
Heartbeat_Variant_3_evicts 0 : 0 1 : 0 2 : 0 3 : 0 
Heartbeat CPU 0 instructions: 50000000 cycles: 13985761 heartbeat IPC: 3.57564 cumulative IPC: 3.57506 (Simulation time: 0 hr 8 min 24 sec) 

Warmup complete CPU 0 instructions: 50000004 cycles: 13985762 (Simulation time: 0 hr 8 min 24 sec) 

Cycle: 20000000 FTQ IN: 58259451 FTQ occupancy: 19.3083 DECODE IN: 58259405 DECODE occupancy: 50.1999 ROB IN: 58259345 ROB occupancy: 306.778 ROB OUT: 58258997
Heartbeat_Variant_0 : 1372 0.334961 per_variant_size: 0 1372 0 0 0 0 0 0 0 
Heartbeat_Variant_1 : 1262 0.308105 per_variant_size: 0 585 677 0 0 0 0 0 0 
Heartbeat_Variant_2 : 1338 0.32666 per_variant_size: 0 524 338 263 213 0 0 0 0 
Heartbeat_Variant_3 : 0 0 per_variant_size: 0 0 0 0 0 0 0 0 0 
Heartbeat_Variant_0_evicts 0 : 5812 1 : 41 2 : 40 3 : 0 
Heartbeat_Variant_1_evicts 0 : 36 1 : 0 2 : 230 3 : 0 
Heartbeat_Variant_2_evicts 0 : 46 1 : 230 2 : 0 3 : 0 
Heartbeat_Variant_3_evicts 0 : 0 1 : 0 2 : 0 3 : 0 
Heartbeat CPU 0 instructions: 60000002 cycles: 21352627 heartbeat IPC: 1.35743 cumulative IPC: 1.35743 (Simulation time: 0 hr 10 min 7 sec) 
Heartbeat_Variant_0 : 1369 0.334229 per_variant_size: 0 1369 0 0 0 0 0 0 0 
Heartbeat_Variant_1 : 1266 0.309082 per_variant_size: 0 593 673 0 0 0 0 0 0 
Heartbeat_Variant_2 : 1339 0.326904 per_variant_size: 0 524 341 262 212 0 0 0 0 
Heartbeat_Variant_3 : 0 0 per_variant_size: 0 0 0 0 0 0 0 0 0 
Heartbeat_Variant_0_evicts 0 : 5679 1 : 8 2 : 9 3 : 0 
Heartbeat_Variant_1_evicts 0 : 8 1 : 0 2 : 207 3 : 0 
Heartbeat_Variant_2_evicts 0 : 12 1 : 205 2 : 0 3 : 0 
Heartbeat_Variant_3_evicts 0 : 0 1 : 0 2 : 0 3 : 0 
Heartbeat CPU 0 instructions: 70000000 cycles: 28679990 heartbeat IPC: 1.36475 cumulative IPC: 1.36108 (Simulation time: 0 hr 11 min 52 sec) 
Cycle: 30000000 FTQ IN: 13545070 FTQ occupancy: 10.9227 DECODE IN: 13545116 DECODE occupancy: 27.622 ROB IN: 13545176 ROB occupancy: 210.16 ROB OUT: 13545484
Heartbeat_Variant_0 : 1377 0.336182 per_variant_size: 0 1377 0 0 0 0 0 0 0 
Heartbeat_Variant_1 : 1266 0.309082 per_variant_size: 0 593 673 0 0 0 0 0 0 
Heartbeat_Variant_2 : 1342 0.327637 per_variant_size: 0 516 345 264 217 0 0 0 0 
Heartbeat_Variant_3 : 0 0 per_variant_size: 0 0 0 0 0 0 0 0 0 
Heartbeat_Variant_0_evicts 0 : 5517 1 : 48 2 : 31 3 : 0 
Heartbeat_Variant_1_evicts 0 : 45 1 : 0 2 : 215 3 : 0 
Heartbeat_Variant_2_evicts 0 : 29 1 : 217 2 : 0 3 : 0 
Heartbeat_Variant_3_evicts 0 : 0 1 : 0 2 : 0 3 : 0 
Heartbeat CPU 0 instructions: 80000000 cycles: 36110151 heartbeat IPC: 1.34587 cumulative IPC: 1.35597 (Simulation time: 0 hr 13 min 37 sec) 
Cycle: 40000000 FTQ IN: 13442525 FTQ occupancy: 10.8598 DECODE IN: 13442514 DECODE occupancy: 27.4325 ROB IN: 13442500 ROB occupancy: 210.086 ROB OUT: 13442207
Heartbeat_Variant_0 : 1380 0.336914 per_variant_size: 0 1380 0 0 0 0 0 0 0 
Heartbeat_Variant_1 : 1266 0.309082 per_variant_size: 0 592 674 0 0 0 0 0 0 
Heartbeat_Variant_2 : 1342 0.327637 per_variant_size: 0 514 351 274 203 0 0 0 0 
Heartbeat_Variant_3 : 0 0 per_variant_size: 0 0 0 0 0 0 0 0 0 
Heartbeat_Variant_0_evicts 0 : 5632 1 : 34 2 : 12 3 : 0 
Heartbeat_Variant_1_evicts 0 : 34 1 : 0 2 : 216 3 : 0 
Heartbeat_Variant_2_evicts 0 : 10 1 : 217 2 : 0 3 : 0 
Heartbeat_Variant_3_evicts 0 : 0 1 : 0 2 : 0 3 : 0 
Heartbeat CPU 0 instructions: 90000003 cycles: 43471190 heartbeat IPC: 1.3585 cumulative IPC: 1.3566 (Simulation time: 0 hr 15 min 20 sec) 
Cycle: 50000000 FTQ IN: 13661816 FTQ occupancy: 10.7988 DECODE IN: 13661686 DECODE occupancy: 27.4496 ROB IN: 13661640 ROB occupancy: 211.785 ROB OUT: 13661621
Heartbeat_Variant_0 : 1384 0.337891 per_variant_size: 0 1384 0 0 0 0 0 0 0 
Heartbeat_Variant_1 : 1271 0.310303 per_variant_size: 0 593 678 0 0 0 0 0 0 
Heartbeat_Variant_2 : 1342 0.327637 per_variant_size: 0 515 357 272 198 0 0 0 0 
Heartbeat_Variant_3 : 0 0 per_variant_size: 0 0 0 0 0 0 0 0 0 
Heartbeat_Variant_0_evicts 0 : 5620 1 : 33 2 : 33 3 : 0 
Heartbeat_Variant_1_evicts 0 : 32 1 : 0 2 : 214 3 : 0 
Heartbeat_Variant_2_evicts 0 : 30 1 : 214 2 : 0 3 : 0 
Heartbeat_Variant_3_evicts 0 : 0 1 : 0 2 : 0 3 : 0 
Heartbeat CPU 0 instructions: 100000001 cycles: 50802805 heartbeat IPC: 1.36396 cumulative IPC: 1.35807 (Simulation time: 0 hr 17 min 3 sec) 
Finished CPU 0 instructions: 50000001 cycles: 36817044 cumulative IPC: 1.35807 (Simulation time: 0 hr 17 min 3 sec) 

ChampSim completed all CPUs

Region of Interest Statistics

CPU 0 cumulative IPC: 1.35807 instructions: 50000001 cycles: 36817044
 Fetch stage stalled: 59.8266  Sim cycles: 36817044 fetch stall cycle: 22026376
 Empty decode stage: 48.7442  Sim cycles: 36817044 fetch stall cycle: 17946187
ITLB TOTAL     ACCESS:    5864444  HIT:    5372887  MISS:     491557  HIT %:     91.618  MISS %:    8.38199   MPKI: 9.83114
ITLB LOAD TRANSLATION INSTRUCTION	ACCESS:    5738818  HIT:    5247261  MISS:     491557  HIT %:    91.4345  MISS %:    8.56547  MPKI: 9.83114
ITLB TRANSLATION FROM L1D PREFETCHER INSTRUCTION	ACCESS:     125626  HIT:     125626  MISS:          0  HIT %:        100  MISS %:          0  MPKI: 0

ITLB AVERAGE MISS LATENCY: 9.04418 cycles
ITLB RQ	ACCESS:    7996641	FORWARD:          0	MERGED:    1711287	TO_CACHE:    6285354

DTLB TOTAL     ACCESS:    9013059  HIT:    8543573  MISS:     469486  HIT %:     94.791  MISS %:    5.20895   MPKI: 9.38972
DTLB LOAD TRANSLATION DATA	ACCESS:    9013059  HIT:    8543573  MISS:     469486  HIT %:     94.791  MISS %:    5.20895  MPKI: 9.38972

DTLB AVERAGE MISS LATENCY: 9.3042 cycles
DTLB RQ	ACCESS:   13375258	FORWARD:          0	MERGED:    4325825	TO_CACHE:    9049433

STLB TOTAL     ACCESS:    1210018  HIT:    1208123  MISS:       1895  HIT %:    99.8434  MISS %:   0.156609   MPKI: 0.0379
STLB LOAD TRANSLATION INSTRUCTION	ACCESS:     491557  HIT:     491362  MISS:        195  HIT %:    99.9603  MISS %:  0.0396699  MPKI: 0.0039
STLB LOAD TRANSLATION DATA	ACCESS:     469486  HIT:     467797  MISS:       1689  HIT %:    99.6402  MISS %:   0.359755  MPKI: 0.03378
STLB TRANSLATION FROM L1D PREFETCHER DATA	ACCESS:     248975  HIT:     248964  MISS:         11  HIT %:    99.9956  MISS %: 0.00441811  MPKI: 0.00022

STLB AVERAGE MISS LATENCY: 69.7393 cycles
STLB RQ	ACCESS:    1329561	FORWARD:          0	MERGED:     119510	TO_CACHE:    1210051

STLB Hit, L1D data hit: 0
STLB Hit, L2C data hit: 0
STLB Hit, LLC data hit: 0
STLB Hit, LLC data miss: 0
STLB STLB hints to L2: 0
L1D TOTAL     ACCESS:   13128891  HIT:   12021693  MISS:    1107198  HIT %:    91.5667  MISS %:    8.43329   MPKI: 22.144
L1D LOAD DATA	ACCESS:    6593986  HIT:    5865405  MISS:     728581  HIT %:    88.9508  MISS %:    11.0492  MPKI: 14.5716
L1D RFO DATA	ACCESS:    6205990  HIT:    5921049  MISS:     284941  HIT %:    95.4086  MISS %:    4.59139  MPKI: 5.69882
L1D PREFETCH DATA	ACCESS:     328915  HIT:     235239  MISS:      93676  HIT %:    71.5197  MISS %:    28.4803  MPKI: 1.87352

L1D PREFETCH  REQUESTED:     737374  ISSUED:     737374  USEFUL:      33166  USELESS:      68060
L1D USEFUL LOAD PREFETCHES:      33166 PREFETCH ISSUED TO LOWER LEVEL:     101265  ACCURACY: 32.7517
 TIMELY PREFETCHES:      33166 LATE PREFETCHES: 7554 DROPPED PREFETCHES: 5
L1D AVERAGE MISS LATENCY: 219811 cycles
L1D RQ	ACCESS:   10723816	FORWARD:          0	MERGED:    3934378	TO_CACHE:    6628501
L1D WQ	ACCESS:    6939555	FORWARD:     161275	MERGED:     192798	TO_CACHE:    6746757
L1D PQ	ACCESS:     368856	FORWARD:          0	MERGED:          0	TO_CACHE:     368518

L1D UNIQUE REGIONS ACCESSED: 0
L1D REGIONS CONFLICTS: 0
L1D Cross Page Prefetch Requests: 5395
L1D Same Page Prefetch Requests: 752667
L1D ROI Sum of L1D PQ occupancy: 4675360
L1D PREFETCHES PUSHED FROM L2C: 0
L1I TOTAL     ACCESS:    7204368  HIT:    4450549  MISS:    2753819  HIT %:    61.7757  MISS %:    38.2243   MPKI: 55.0764
L1I LOAD INSTRUCTION	ACCESS:    6542250  HIT:    3788431  MISS:    2753819  HIT %:    57.9072  MISS %:    42.0928  MPKI: 55.0764
L1I PREFETCH INSTRUCTION	ACCESS:     662118  HIT:     662118  MISS:          0  HIT %:        100  MISS %:          0  MPKI: 0

L1I PREFETCH  REQUESTED:    1586069  ISSUED:    1586069  USEFUL:          0  USELESS:          0
L1I USEFUL LOAD PREFETCHES:          0 PREFETCH ISSUED TO LOWER LEVEL:          0  ACCURACY: -nan
 TIMELY PREFETCHES:          0 LATE PREFETCHES: 0 DROPPED PREFETCHES: 0
L1I AVERAGE MISS LATENCY: 17.5231 cycles
L1I RQ	ACCESS:    9468585	FORWARD:          0	MERGED:    2622530	TO_CACHE:    6846055
L1I PQ	ACCESS:    1586069	FORWARD:          0	MERGED:     435483	TO_CACHE:    1150586

L1BTB TOTAL     ACCESS:    5672361  HIT:    2054299  MISS:    3618062  HIT %:    36.2159  MISS %:    63.7841   MPKI: 72.3612
L1BTB BRANCH_DIRECT_JUMP	ACCESS:     550040  HIT:     145874  MISS:     404166	AVERAGE STALL: 45.5061
L1BTB BRANCH_INDIRECT	ACCESS:     183638  HIT:      66484  MISS:     117154	AVERAGE STALL: 94.932
L1BTB BRANCH_CONDITIONAL	ACCESS:    2717618  HIT:    1426854  MISS:    1290764	AVERAGE STALL: 48.9123
L1BTB BRANCH_DIRECT_CALL	ACCESS:     939770  HIT:     105163  MISS:     834607	AVERAGE STALL: 61.4294
L1BTB BRANCH_INDIRECT_CALL	ACCESS:     170781  HIT:      20760  MISS:     150021	AVERAGE STALL: 120.115
L1BTB BRANCH_RETURN	ACCESS:    1110514  HIT:     289164  MISS:     821350	AVERAGE STALL: 43.2451
L1BTB BRANCH_OTHER ACCESS:          0  HIT:          0  MISS:          0	AVERAGE STALL: -nan
L1BTB TOTAL ROB OCCUPANCY AT BTB MISS: 2.07903

L2BTB TOTAL     ACCESS:    3592532  HIT:    3528714  MISS:      63818  HIT %:    98.2236  MISS %:    1.77641   MPKI: 1.27636
L2BTB BRANCH_DIRECT_JUMP	ACCESS:     399931  HIT:     395651  MISS:       4280	AVERAGE STALL: 45.5061
L2BTB BRANCH_INDIRECT	ACCESS:     106894  HIT:     104263  MISS:       2631	AVERAGE STALL: 94.932
L2BTB BRANCH_CONDITIONAL	ACCESS:    1290764  HIT:    1286505  MISS:       4259	AVERAGE STALL: 48.9123
L2BTB BRANCH_DIRECT_CALL	ACCESS:     834607  HIT:     834095  MISS:        512	AVERAGE STALL: 61.4294
L2BTB BRANCH_INDIRECT_CALL	ACCESS:     140390  HIT:     130169  MISS:      10221	AVERAGE STALL: 120.115
L2BTB BRANCH_RETURN	ACCESS:     819946  HIT:     778031  MISS:      41915	AVERAGE STALL: 43.2451
L2BTB BRANCH_OTHER ACCESS:          0  HIT:          0  MISS:          0	AVERAGE STALL: -nan
L2BTB TOTAL ROB OCCUPANCY AT BTB MISS: 117.868

L2C TOTAL     ACCESS:    4466791  HIT:    3960287  MISS:     506504  HIT %:    88.6607  MISS %:    11.3393   MPKI: 10.1301
L2C LOAD INSTRUCTION	ACCESS:    2753819  HIT:    2461656  MISS:     292163  HIT %:    89.3906  MISS %:    10.6094  MPKI: 5.84326
L2C LOAD TRANSLATION INSTRUCTION	ACCESS:        214  HIT:         57  MISS:        157  HIT %:    26.6355  MISS %:    73.3645  MPKI: 0.00314
L2C LOAD DATA	ACCESS:     721007  HIT:     645023  MISS:      75984  HIT %:    89.4614  MISS %:    10.5386  MPKI: 1.51968
L2C RFO DATA	ACCESS:     284880  HIT:     232835  MISS:      52045  HIT %:    81.7309  MISS %:    18.2691  MPKI: 1.0409
L2C PREFETCH DATA	ACCESS:     187566  HIT:     116866  MISS:      70700  HIT %:    62.3066  MISS %:    37.6934  MPKI: 1.414
L2C WRITEBACK DATA	ACCESS:     517556  HIT:     503394  MISS:      14162  HIT %:    97.2637  MISS %:    2.73632  MPKI: 0.28324
L2C LOAD TRANSLATION DATA	ACCESS:       1724  HIT:        441  MISS:       1283  HIT %:      25.58  MISS %:      74.42  MPKI: 0.02566
L2C TRANSLATION FROM L1D PREFETCHER DATA	ACCESS:         25  HIT:         15  MISS:         10  HIT %:         60  MISS %:         40  MPKI: 0.0002

L2C PREFETCH  REQUESTED:      93698  ISSUED:      93698  USEFUL:       8607  USELESS:      62613
L2C USEFUL LOAD PREFETCHES:       8607 PREFETCH ISSUED TO LOWER LEVEL:      71212  ACCURACY: 12.0864
 TIMELY PREFETCHES:       8607 LATE PREFETCHES: 512 DROPPED PREFETCHES: 0
L2C AVERAGE MISS LATENCY: 37.5899 cycles
L2C RQ	ACCESS:    3761715	FORWARD:          0	MERGED:          0	TO_CACHE:    3761670
L2C WQ	ACCESS:     517556	FORWARD:         45	MERGED:          0	TO_CACHE:     517556
L2C PQ	ACCESS:     194963	FORWARD:          0	MERGED:       3122	TO_CACHE:     191841

L2C Dense regions hint from L2: 0
PSCL5 TOTAL     ACCESS:       3802  HIT:       1901  MISS:       1901  HIT %:         50  MISS %:         50   MPKI: 0.03802
PSCL5 LOAD TRANSLATION INSTRUCTION	ACCESS:       3752  HIT:       1876  MISS:       1876  HIT %:         50  MISS %:         50  MPKI: 0.03752
PSCL5 TRANSLATION FROM L1D PREFETCHER INSTRUCTION	ACCESS:         50  HIT:         25  MISS:         25  HIT %:         50  MISS %:         50  MPKI: 0.0005


PSCL4 TOTAL     ACCESS:       3777  HIT:       1888  MISS:       1889  HIT %:    49.9868  MISS %:    50.0132   MPKI: 0.03778
PSCL4 LOAD TRANSLATION INSTRUCTION	ACCESS:       1863  HIT:       1863  MISS:          0  HIT %:        100  MISS %:          0  MPKI: 0
PSCL4 TRANSLATION FROM L1D PREFETCHER INSTRUCTION	ACCESS:         25  HIT:         25  MISS:          0  HIT %:        100  MISS %:          0  MPKI: 0
PSCL4 LOAD TRANSLATION DATA	ACCESS:       1864  HIT:          0  MISS:       1864  HIT %:          0  MISS %:        100  MPKI: 0.03728
PSCL4 TRANSLATION FROM L1D PREFETCHER DATA	ACCESS:         25  HIT:          0  MISS:         25  HIT %:          0  MISS %:        100  MPKI: 0.0005


PSCL3 TOTAL     ACCESS:       3779  HIT:       1889  MISS:       1890  HIT %:    49.9868  MISS %:    50.0132   MPKI: 0.0378
PSCL3 LOAD TRANSLATION INSTRUCTION	ACCESS:       1864  HIT:       1864  MISS:          0  HIT %:        100  MISS %:          0  MPKI: 0
PSCL3 TRANSLATION FROM L1D PREFETCHER INSTRUCTION	ACCESS:         25  HIT:         25  MISS:          0  HIT %:        100  MISS %:          0  MPKI: 0
PSCL3 LOAD TRANSLATION DATA	ACCESS:       1865  HIT:          0  MISS:       1865  HIT %:          0  MISS %:        100  MPKI: 0.0373
PSCL3 TRANSLATION FROM L1D PREFETCHER DATA	ACCESS:         25  HIT:          0  MISS:         25  HIT %:          0  MISS %:        100  MPKI: 0.0005


PSCL2 TOTAL     ACCESS:       3742  HIT:       1841  MISS:       1901  HIT %:    49.1983  MISS %:    50.8017   MPKI: 0.03802
PSCL2 LOAD TRANSLATION INSTRUCTION	ACCESS:       2011  HIT:       1816  MISS:        195  HIT %:    90.3033  MISS %:    9.69667  MPKI: 0.0039
PSCL2 TRANSLATION FROM L1D PREFETCHER INSTRUCTION	ACCESS:         25  HIT:         25  MISS:          0  HIT %:        100  MISS %:          0  MPKI: 0
PSCL2 LOAD TRANSLATION DATA	ACCESS:       1681  HIT:          0  MISS:       1681  HIT %:          0  MISS %:        100  MPKI: 0.03362
PSCL2 TRANSLATION FROM L1D PREFETCHER DATA	ACCESS:         25  HIT:          0  MISS:         25  HIT %:          0  MISS %:        100  MPKI: 0.0005


LLC TOTAL     ACCESS:     566375  HIT:     539075  MISS:      27300  HIT %:    95.1799  MISS %:    4.82013   MPKI: 0.546
LLC LOAD INSTRUCTION	ACCESS:     292163  HIT:     291462  MISS:        701  HIT %:    99.7601  MISS %:   0.239935  MPKI: 0.01402
LLC LOAD TRANSLATION INSTRUCTION	ACCESS:        157  HIT:        130  MISS:         27  HIT %:    82.8025  MISS %:    17.1975  MPKI: 0.00054
LLC LOAD DATA	ACCESS:      75511  HIT:      72166  MISS:       3345  HIT %:    95.5702  MISS %:    4.42982  MPKI: 0.0669
LLC RFO DATA	ACCESS:      52006  HIT:      38634  MISS:      13372  HIT %:    74.2876  MISS %:    25.7124  MPKI: 0.26744
LLC PREFETCH DATA	ACCESS:      71212  HIT:      61734  MISS:       9478  HIT %:    86.6904  MISS %:    13.3096  MPKI: 0.18956
LLC WRITEBACK DATA	ACCESS:      74033  HIT:      73721  MISS:        312  HIT %:    99.5786  MISS %:   0.421434  MPKI: 0.00624
LLC LOAD TRANSLATION DATA	ACCESS:       1283  HIT:       1218  MISS:         65  HIT %:    94.9337  MISS %:    5.06625  MPKI: 0.0013
LLC TRANSLATION FROM L1D PREFETCHER DATA	ACCESS:         10  HIT:         10  MISS:          0  HIT %:        100  MISS %:          0  MPKI: 0

LLC AVERAGE MISS LATENCY: 155.053 cycles
LLC RQ	ACCESS:     421130	FORWARD:          0	MERGED:          0	TO_CACHE:     421130
LLC WQ	ACCESS:      74033	FORWARD:          0	MERGED:          0	TO_CACHE:      74033
LLC PQ	ACCESS:      71212	FORWARD:          0	MERGED:          0	TO_CACHE:      71212

LLC Dense regions hint to LLC: 0

RAW hits: 1911008
Loads Generated: 12634824
Loads sent to L1D: 10723816
Stores Generated: 6939544
Stores sent to L1D: 6939555
Major fault: 0 Minor fault: 2500
Allocated PAGES: 2500

stream: 
stream:times selected: 1198266
stream:pref_filled: 122329
stream:pref_useful: 24196
stream:pref_late: 6919
stream:misses: 8359
stream:misses_by_poll: 0

CS: 
CS:times selected: 178828
CS:pref_filled: 58827
CS:pref_useful: 35527
CS:pref_late: 6221
CS:misses: 15079
CS:misses_by_poll: 5

CPLX: 
CPLX:times selected: 1018273
CPLX:pref_filled: 19368
CPLX:pref_useful: 4562
CPLX:pref_late: 3004
CPLX:misses: 92648
CPLX:misses_by_poll: 0

NL_L1: 
NL:times selected: 14246
NL:pref_filled: 463
NL:pref_useful: 166
NL:pref_late: 314
NL:misses: 1081
NL:misses_by_poll: 0

total selections: 2409613
total_filled: 93676
total_useful: 33166
total_late: 17881
total_polluted: 5
total_misses_after_warmup: 763096
conflicts: 5528842

test: 117294

DRAM Statistics
 CHANNEL 0
 RQ ROW_BUFFER_HIT:      10080  ROW_BUFFER_MISS:      16895
 DBUS_CONGESTED:          9
 WQ ROW_BUFFER_HIT:       1300  ROW_BUFFER_MISS:      12211  FULL:          0

 AVG_CONGESTED_CYCLE: 5

CPU 0 Branch Prediction Accuracy: 99.8245% MPKI: 0.321 Average ROB Occupancy at Mispredict: 175.268
Branch types
NOT_BRANCH: 40856439 81.7129%
BRANCH_DIRECT_JUMP: 550040 1.10008%
BRANCH_INDIRECT: 183638 0.367276%
BRANCH_CONDITIONAL: 6188334 12.3767%
BRANCH_DIRECT_CALL: 939770 1.87954%
BRANCH_INDIRECT_CALL: 170781 0.341562%
BRANCH_RETURN: 1110514 2.22103%
BRANCH_OTHER: 0 0%

DRAM PAGES: 1048576
Allocated PAGES: 2500
Average_ROB_Occupancy: 211.657
Average_Decode_Occupancy: 27.4455
Average_FTQ_Occupancy: 10.83
Indirect max targets: 14 Average targets: 1.14527
Branch_type:  BRANCH_DIRECT_JUMP:  Count Percentage: 3.83254 5.22747 4.46891 7.21447 2.9599 6.01204 1.52967 68.755 
Branch_type:  BRANCH_INDIRECT:  Count Percentage: 6.15595 3.45596 8.18332 9.69391 3.33391 2.79888 3.05958 63.3185 
Branch_type:  BRANCH_CONDITIONAL:  Count Percentage: 26.3254 2.09831 1.5393 3.86457 2.04745 3.99283 1.24759 58.8845 
Branch_type:  BRANCH_DIRECT_CALL:  Count Percentage: 0.391287 1.2672 0.768944 2.87009 3.03196 2.63375 1.24132 87.7955 
Branch_type:  BRANCH_INDIRECT_CALL:  Count Percentage: 9.55481 0 2.99431 0 0 1.71091 3.28859 82.4514 
Branch_type:  BRANCH_RETURN:  Count Percentage: 7.91486 1.39208 1.04642 4.08365 3.64945 4.32702 1.57551 76.011 
Branch_type:  BRANCH_DIRECT_JUMP:  Total Count: 42127 57460 49122 79301 32535 66084 16814 755751 
Branch_type:  BRANCH_INDIRECT:  Total Count: 22597 12686 30039 35584 12238 10274 11231 232427 
Branch_type:  BRANCH_CONDITIONAL:  Total Count: 3256597 259572 190420 478068 253281 493935 154334 7284328 
Branch_type:  BRANCH_DIRECT_CALL:  Total Count: 7349 23800 14442 53905 56945 49466 23314 1648940 
Branch_type:  BRANCH_INDIRECT_CALL:  Total Count: 32631 0 10226 0 0 5843 11231 281583 
Branch_type:  BRANCH_RETURN:  Total Count: 175743 30910 23235 90674 81033 96078 34983 1687762 
Number of unique branch instructions: 9803
Upper 32 bits: 
aaaa
ffff
ffff0000
Unique upper 32 bits: 3
Unique upper 36 bits: 3
Unique upper 40 bits: 5
Unique upper 44 bits: 32
Unique upper 48 bits: 154
Variant_0 : 1384 0.337891
Variant_1 : 1271 0.310303
Variant_2 : 1342 0.327637
Variant_3 : 0 0
Offset_3 4033
Offset_4 245
Offset_5 448
Offset_6 499
Offset_7 572
Offset_8 504
Offset_9 464
Offset_10 376
Offset_11 300
Offset_12 269
Offset_13 203
Offset_14 225
Offset_15 184
Offset_16 220
Offset_17 143
Offset_18 118
Offset_19 234
Offset_20 137
Offset_21 235
Offset_22 389
Offset_23 241
Offset_24 331
Offset_25 88
Offset_47 82
decode_dispatch_called: 23537103 63.9299
Dispatch_width: 0 12355797 52.495 33.56
Dispatch_width: 1 814507 3.46052 2.21231
Dispatch_width: 2 760330 3.23035 2.06516
Dispatch_width: 3 462235 1.96386 1.25549
Dispatch_width: 4 4184845 17.7798 11.3666
Dispatch_width: 5 217919 0.925853 0.591897
Dispatch_width: 6 4741470 20.1447 12.8785
Empty_decode_cycles: 13279941 36.0701
ROB_full_cycles: 6532954 17.7444
Starvation_cycles_per_kilo_instr: 255.426
Starvation_cycles_per_kilo_instr_3: 211.399
Starvation_cycles_per_kilo_instr_0: 191.028
Branch_type_1  (3,1)  (4,9)  (5,37)  (6,68)  (7,113)  (8,128)  (9,123)  (10,97)  (11,67)  (12,43)  (13,5)  (14,2)  (15,3)  (16,4)  (18,1)  (19,4)  (20,2)  (21,1)  (22,3)  (23,2)  (24,10)  (25,12) 
Branch_type_2  (3,1)  (5,1)  (8,3)  (9,3)  (12,1)  (13,1)  (14,1)  (16,3)  (17,2)  (20,2)  (21,2)  (23,5)  (24,1)  (47,38) 
Branch_type_3  (3,4031)  (4,236)  (5,406)  (6,416)  (7,430)  (8,314)  (9,255)  (10,152)  (11,120)  (12,50)  (13,4) 
Branch_type_4  (6,3)  (7,8)  (8,24)  (9,52)  (10,60)  (11,57)  (12,96)  (13,88)  (14,99)  (15,86)  (16,98)  (17,64)  (18,53)  (19,114)  (20,72)  (21,124)  (22,206)  (23,136)  (24,192)  (25,72) 
Branch_type_5  (8,2)  (9,1)  (10,3)  (11,5)  (12,3)  (13,14)  (14,16)  (15,11)  (16,20)  (17,11)  (18,16)  (19,12)  (20,10)  (21,13)  (22,42)  (23,26)  (24,37) 
Branch_type_6  (5,4)  (6,12)  (7,21)  (8,33)  (9,30)  (10,64)  (11,51)  (12,76)  (13,91)  (14,107)  (15,84)  (16,95)  (17,66)  (18,48)  (19,104)  (20,51)  (21,95)  (22,138)  (23,72)  (24,91)  (25,4)  (47,44) 
Unique trigger count: 
Variant_0_evicts_0 : 0
Variant_0_evicts_1 : 0
Variant_0_evicts_2 : 0
Variant_0_evicts_3 : 0
Variant_1_evicts_0 : 0
Variant_1_evicts_1 : 0
Variant_1_evicts_2 : 0
Variant_1_evicts_3 : 0
Variant_2_evicts_0 : 0
Variant_2_evicts_1 : 0
Variant_2_evicts_2 : 0
Variant_2_evicts_3 : 0
Variant_3_evicts_0 : 0
Variant_3_evicts_1 : 0
Variant_3_evicts_2 : 0
Variant_3_evicts_3 : 0
BTB PER SET UNIQUE ADDR: 9 15 6 11 10 8 6 10 8 10 7 18 6 9 8 9 12 11 11 9 7 12 9 8 9 12 12 10 11 8 9 11 11 4 5 10 7 13 6 7 5 11 16 11 8 9 7 7 7 11 17 11 6 11 10 4 12 8 5 11 7 13 9 12 8 10 10 10 15 11 8 9 10 6 10 5 5 6 10 11 11 7 13 8 13 12 8 9 8 17 8 8 9 9 7 11 6 9 16 10 14 10 11 10 10 9 7 9 7 8 13 12 8 8 8 5 6 13 11 6 11 8 6 11 11 5 3 8 13 8 11 10 8 12 10 14 6 12 8 10 7 9 8 13 12 13 13 7 7 13 10 13 13 8 8 7 14 11 13 12 11 12 11 14 9 12 9 8 11 8 10 10 8 11 10 10 9 11 8 8 8 13 13 13 8 12 7 10 7 13 9 11 8 13 7 11 9 9 9 15 11 7 9 8 8 10 7 10 8 9 9 13 10 7 5 10 10 10 12 11 6 10 9 9 11 9 12 7 7 15 12 7 8 14 9 13 11 11 10 6 11 8 11 6 7 9 9 10 10 7 9 11 10 8 15 9 10 8 4 8 9 6 5 10 10 4 8 5 9 11 8 6 6 4 7 8 7 9 10 10 8 11 5 10 13 10 9 11 13 11 11 9 10 9 10 13 8 8 10 10 8 10 8 12 11 10 8 5 7 9 13 14 10 17 8 6 12 10 12 12 5 14 9 11 12 10 8 7 7 6 10 11 8 8 11 6 7 9 7 15 10 11 8 14 17 11 11 8 7 6 7 9 7 10 9 9 7 11 9 7 9 11 8 11 14 9 8 8 11 15 10 6 10 9 10 10 12 13 10 12 9 10 8 9 8 12 11 11 14 11 6 6 5 13 5 10 10 10 9 7 10 8 11 11 12 10 12 10 10 11 13 7 6 13 9 8 13 11 16 14 7 16 12 11 9 9 14 8 9 7 10 7 7 7 10 16 15 7 8 15 12 9 6 13 14 9 8 8 10 10 19 10 11 11 15 11 11 12 7 8 9 10 12 14 14 13 10 10 8 10 8 12 10 11 11 12 4 16 4 7 14 9 10 9 9 10 12 10 14 9 6 12 11 6 9 8 10 14 5 11 8 15 10 13 5 9 6 14 14 9 7 8 11 9 9 12 10 17 6 5 5 11 7 7 10 8 12 6 9 14 14 9 11 7 8 11 8 6 12 9 11 8 12 10 11 16 11 8 10 11 10 11 12 10 7 13 11 11 15 13 8 9 8 13 13 13 12 6 13 8 15 10 18 10 8 16 8 9 4 6 13 9 5 9 11 6 12 12 12 7 7 12 9 6 7 8 7 12 8 11 11 7 7 5 13 8 9 8 7 8 7 13 8 11 4 7 9 9 12 12 17 13 5 6 8 14 10 10 7 11 9 9 11 10 8 10 14 11 11 12 7 15 15 13 12 9 9 14 13 8 9 10 9 9 14 10 10 8 7 12 7 6 13 9 7 16 7 9 9 7 11 9 8 13 11 5 9 15 8 7 5 13 11 8 13 11 8 6 12 10 10 9 9 7 8 9 7 14 8 11 7 12 9 10 8 12 9 9 7 4 11 8 6 6 10 8 13 6 3 12 12 9 9 10 9 4 11 11 11 11 13 7 7 10 8 7 11 12 14 10 10 8 10 11 11 13 9 10 5 7 7 7 12 9 9 9 14 8 7 4 8 6 6 8 10 7 8 10 8 11 8 12 12 4 8 9 12 11 14 12 6 9 11 10 10 12 7 8 9 7 10 8 10 12 12 13 10 7 14 10 15 8 8 10 14 9 9 12 7 10 13 7 9 11 9 9 16 11 6 13 11 12 5 10 13 6 7 9 9 12 11 10 11 11 10 9 7 8 11 11 9 14 12 5 6 12 8 15 5 8 9 10 9 9 11 10 10 9 9 11 8 10 9 7 13 7 8 9 13 6 9 11 11 11 13 6 13 12 11 11 9 9 11 17 12 11 14 6 9 11 14 10 10 9 9 10 14 9 10 8 6 9 11 7 4 10 7 11 8 12 6 11 8 11 12 8 10 13 8 10 8 9 9 10 8 8 7 11 11 9 9 13 13 12 9 15 11 10 10 10 7 12 11 8 12 10 9 11 7 16 10 12 10 13 12 9 6 8 12 12 10 10 9 12 14 7 7 9 11 10 11 13 7 9 13 7 13 12 12 13 7 17 13 8 8 18 13 10 10 8 12 12 5 13 8 9 5 12 14 8 11 13 11 6 10 11 8 12 7 14 10 10 7 7 6 12 6 6 6 7 10 15 9 7 
BTB PER SET COUNT: 11 15 2026 12 11 11 6 14 1467 11 7 1513 6 1474 8 9 267 1983 11 9 9 461 745 8 17 13 13 10 398 706 10 12 11 4 5 397 10 17 6 7 5 13 21 39 293 12 7 7 7 516 25 434 7 13 11 4 14 9 5 15 7 15 11 14 8 13 11 1105 21 12 10 515 15 7 13 6 5 29 12 16 16 10 629 8 17 86 8 10 11 18 8 877 17 437 9 12 511 964 32 10 17 12 12 14 1932 11 11 9 1012 8 14 22 1000 8 12 5 6 20 1403 959 23 8 10 11 11 5 3 10 22 774 22 10 9 14 15 17 6 14 9 11 8 38 9 16 13 212 20 11 9 16 13 176 1682 10 9 8 733 12 15 18 16 22 18 16 12 15 9 15 16 394 13 11 8 12 17 12 18 13 9 10 1002 114 45 22 510 56 10 14 12 529 11 11 8 15 7 105 9 9 13 19 14 107 279 10 9 12 7 13 8 996 9 18 13 7 5 3379 11 13 2926 20 6 15 13 10 11 19 14 260 450 26 15 7 8 23 10 22 12 20 1973 7 16 9 15 6 9 526 503 10 12 7 12 15 12 9 19 15 25 9 4 19 21 7 5 10 13 5 8 5 9 12 8 6 6 4 807 8 7 9 12 16 16 16 960 12 13 13 11 21 16 12 13 9 12 12 11 22 8 10 12 11 9 11 8 17 14 11 186 7 7 15 18 20 14 19 1467 6 12 16 18 16 5 3662 9 18 13 11 8 8 8 10 12 14 9 9 15 8 9 214 8 15 10 1109 9 906 24 16 14 11 10 9 13 12 11 10 9 9 8 20 458 10 9 22 9 27 15 10 8 8 15 17 14 396 13 15 15 15 12 15 12 1473 1267 10 8 10 8 12 1279 19 18 808 6 6 5 383 6 15 13 15 10 7 12 11 368 12 15 10 16 517 15 19 16 8 6 15 10 13 15 17 20 17 7 21 14 15 14 15 146 9 15 8 12 8 9 9 18 29 19 7 10 18 14 16 33 16 613 12 8 9 11 10 360 16 13 11 15 518 17 12 7 12 40 14 13 607 14 192 15405 15 8 13 11 19 10 12 18 14 4 376 4 7 22 1288 10 9 996 13 14 11 16 11 1016 14 92 6 11 8 1122 17 6 16 10 23 11 20 9 10 7 17 18 12 268 516 1491 1510 13 14 19 23 8 7 5 12 7 456 10 13 16 7 10 1485 17 83 11 7 9 16 11 1039 15 12 13 8 14 11 15 212 12 10 11 187 12 14 963 509 7 14 11 12 27 16 11 13 8 15 20 21 25 7 16 8 1474 10 22 10 2421 25 8 10 4 8 21 14 6 4117 13 6 15 13 16 8 12 12 11 8 10 12 1829 401 8 14 14 9 8 7 18 10 10 1261 8 8 8 369 18 14 5 11 9 17 24 830 20 15 11 1016 8 19 14 27 7 14 13 14 1022 128 8 10 18 20 15 13 9 22 18 16 12 13 1018 17 25 8 14 10 12 9 18 518 13 8 9 966 7 6 13 11 20453 23 15 965 12 14 11 9 11 15 12 7 11 22 9 9 5 14 11 8 15 11 11 6 13 10 11 15 9 7 681 14 9 2764 10 12 9 31 9 15 8 13 9 13 9 4 15 8 6 7 14 8 18 7 3 18 14 9 12 1469 13 4 12 13 39 13 13 10 7 128 11 8 530 12 16 10 17 13 10 52 16 14 9 10 6 9 1468 9 1474 11 1124 15 19 21 8 4 9 8 7 369 1977 7 8 12 9 15 44 17 17 4 10 11 14 518 29 14 777 13 597 12 15 12 7 8 10 9 16 952 11 13 738 14 11 8 20 11 19 9 8 160 16 9 15 12 11 18 14 7923 12 15 10 9 24 1472 7 66 12 729 5 13 14 6 8 11 9 23 13 33 12 11 459 17 12 9 17 15 11 560 18 5 511 13 255 21 5 10 9 228 19 9 1557 10 324 10 16 11 9 15 9 7 34 13 10 12 13 6 9 36 13 12 20 10 13 14 17 14 10 9 141 23 18 1697 16 7 10 11 16 10 10 11 10 17 18 10 1395 9 6 10 16 318 4 14 7 14 11 15 6 519 15 15 17 1539 2030 974 9 13 12 1002 1010 13 8 10 10 11 12 11 15 14 105 16 64 1078 14 11 750 10 8 106 16 9 17 11 12 16 8 23 12 1007 1114 1789 13 14 7 8 14 1228 10 18 250 13 17 7 7 14 16 11 74 1031 7 12 524 7 18 16 13 152 9 23 18 965 9 698 21 517 18 9 12 715 6 19 8 11 5 1482 18 8 12 1478 15 6 14 12 8 16 7 17 12 12 7 7 7 18 8 7 7 10 12 56 9 7 
To predecode: 0
Predecoding something: 0
Predecode request dropped: 0
sizeofblock_0 0
sizeofblock_1 34452
sizeofblock_2 39600
sizeofblock_3 43743
sizeofblock_4 17450
sizeofblock_5 0
sizeofblock_6 0
sizeofblock_7 0
sizeofblock_8 0
Variant_0 Correct: 1610032 Incorrect: 0 Accuracy: 1
Variant_1 Correct: 2087615 Incorrect: 0 Accuracy: 1
Variant_2 Correct: 3632103 Incorrect: 0 Accuracy: 1
Variant_3 Correct: 0 Incorrect: 0 Accuracy: -nan
