
*** ChampSim Multicore Out-of-Order Simulator ***

Warmup Instructions: 50000000
Simulation Instructions: 50000000
Number of CPUs: 1
LLC sets: 2048
LLC ways: 16
Off-chip DRAM Size: 4096 MB Channels: 1 Width: 64-bit Data Rate: 6400 MT/s
CPU 0 runs ./micro_traces/srv514.trace.gz
.gz
ITLB has LRU replacement policy
DTLB has LRU replacement policy
STLB has LRU replacement policy
FDIP Prefetcher at L1I
L1I has LRU replacement policy
L1D has LRU replacement policy
Initialize SRRIP state for L2C
Initialize DRRIP state for LLC
Heartbeat CPU 0 instructions: 10000001 cycles: 2795749 heartbeat IPC: 3.57686 cumulative IPC: 3.57686 (Simulation time: 0 hr 1 min 38 sec) 
Heartbeat CPU 0 instructions: 20000003 cycles: 5589286 heartbeat IPC: 3.57969 cumulative IPC: 3.57828 (Simulation time: 0 hr 3 min 13 sec) 
Heartbeat CPU 0 instructions: 30000000 cycles: 8384108 heartbeat IPC: 3.57804 cumulative IPC: 3.5782 (Simulation time: 0 hr 4 min 48 sec) 
Heartbeat CPU 0 instructions: 40000003 cycles: 11180316 heartbeat IPC: 3.57627 cumulative IPC: 3.57772 (Simulation time: 0 hr 6 min 24 sec) 
Heartbeat CPU 0 instructions: 50000000 cycles: 13974980 heartbeat IPC: 3.57825 cumulative IPC: 3.57782 (Simulation time: 0 hr 8 min 0 sec) 

Warmup complete CPU 0 instructions: 50000004 cycles: 13974981 (Simulation time: 0 hr 8 min 0 sec) 

Cycle: 20000000 FTQ IN: 55394559 FTQ occupancy: 17.4491 DECODE IN: 55394559 DECODE occupancy: 44.6283 ROB IN: 55394559 ROB occupancy: 266.814 ROB OUT: 55394447
Heartbeat CPU 0 instructions: 60000001 cycles: 25314768 heartbeat IPC: 0.881851 cumulative IPC: 0.881851 (Simulation time: 0 hr 9 min 14 sec) 
Cycle: 30000000 FTQ IN: 8762773 FTQ occupancy: 4.5134 DECODE IN: 8762773 DECODE occupancy: 8.70884 ROB IN: 8762751 ROB occupancy: 74.6773 ROB OUT: 8762835
Heartbeat CPU 0 instructions: 70000000 cycles: 36843727 heartbeat IPC: 0.867381 cumulative IPC: 0.874556 (Simulation time: 0 hr 10 min 26 sec) 
Cycle: 40000000 FTQ IN: 8581970 FTQ occupancy: 4.65527 DECODE IN: 8581969 DECODE occupancy: 9.01616 ROB IN: 8581991 ROB occupancy: 74.4413 ROB OUT: 8582019
Heartbeat CPU 0 instructions: 80000000 cycles: 48169175 heartbeat IPC: 0.882967 cumulative IPC: 0.877342 (Simulation time: 0 hr 11 min 41 sec) 
Cycle: 50000000 FTQ IN: 8891643 FTQ occupancy: 4.60448 DECODE IN: 8891644 DECODE occupancy: 8.99761 ROB IN: 8891644 ROB occupancy: 76.8696 ROB OUT: 8891617
Heartbeat CPU 0 instructions: 90000000 cycles: 59766481 heartbeat IPC: 0.862269 cumulative IPC: 0.873524 (Simulation time: 0 hr 13 min 0 sec) 
Cycle: 60000000 FTQ IN: 8566041 FTQ occupancy: 4.62091 DECODE IN: 8565955 DECODE occupancy: 8.95421 ROB IN: 8565955 ROB occupancy: 75.0302 ROB OUT: 8565976
Cycle: 70000000 FTQ IN: 8770773 FTQ occupancy: 4.578 DECODE IN: 8770834 DECODE occupancy: 8.87548 ROB IN: 8770834 ROB occupancy: 74.4073 ROB OUT: 8770726
*** Reached end of trace for Core: 0 Repeating trace: ./micro_traces/srv514.trace.gz
Heartbeat CPU 0 instructions: 100000002 cycles: 71100065 heartbeat IPC: 0.882334 cumulative IPC: 0.875272 (Simulation time: 0 hr 14 min 15 sec) 
Finished CPU 0 instructions: 50000002 cycles: 57125085 cumulative IPC: 0.875272 (Simulation time: 0 hr 14 min 15 sec) 

ChampSim completed all CPUs

Region of Interest Statistics

CPU 0 cumulative IPC: 0.875272 instructions: 50000002 cycles: 57125085
 Fetch stage stalled: 78.4172  Sim cycles: 57125085 fetch stall cycle: 44795908
 Empty decode stage: 67.8567  Sim cycles: 57125085 fetch stall cycle: 38763214
ITLB TOTAL     ACCESS:    5655852  HIT:    5165543  MISS:     490309  HIT %:    91.3309  MISS %:    8.66906   MPKI: 9.80618
ITLB LOAD TRANSLATION INSTRUCTION	ACCESS:    5565855  HIT:    5075546  MISS:     490309  HIT %:    91.1908  MISS %:    8.80923  MPKI: 9.80618
ITLB TRANSLATION FROM L1D PREFETCHER INSTRUCTION	ACCESS:      89997  HIT:      89997  MISS:          0  HIT %:        100  MISS %:          0  MPKI: 0

ITLB AVERAGE MISS LATENCY: 9.0409 cycles
ITLB RQ	ACCESS:    7226399	FORWARD:          0	MERGED:    1134281	TO_CACHE:    6092118

DTLB TOTAL     ACCESS:    9721003  HIT:    9246386  MISS:     474617  HIT %:    95.1176  MISS %:    4.88239   MPKI: 9.49234
DTLB LOAD TRANSLATION DATA	ACCESS:    9721003  HIT:    9246386  MISS:     474617  HIT %:    95.1176  MISS %:    4.88239  MPKI: 9.49234

DTLB AVERAGE MISS LATENCY: 9.31236 cycles
DTLB RQ	ACCESS:   13882190	FORWARD:          0	MERGED:    4130052	TO_CACHE:    9752138

STLB TOTAL     ACCESS:    1222205  HIT:    1220081  MISS:       2124  HIT %:    99.8262  MISS %:   0.173784   MPKI: 0.04248
STLB LOAD TRANSLATION INSTRUCTION	ACCESS:     490309  HIT:     490048  MISS:        261  HIT %:    99.9468  MISS %:  0.0532317  MPKI: 0.00522
STLB LOAD TRANSLATION DATA	ACCESS:     474425  HIT:     472570  MISS:       1855  HIT %:     99.609  MISS %:      0.391  MPKI: 0.0371
STLB TRANSLATION FROM L1D PREFETCHER DATA	ACCESS:     257471  HIT:     257463  MISS:          8  HIT %:    99.9969  MISS %: 0.00310715  MPKI: 0.00016

STLB AVERAGE MISS LATENCY: 69.3041 cycles
STLB RQ	ACCESS:    1368319	FORWARD:          0	MERGED:     146081	TO_CACHE:    1222238

STLB Hit, L1D data hit: 0
STLB Hit, L2C data hit: 0
STLB Hit, LLC data hit: 0
STLB Hit, LLC data miss: 0
STLB STLB hints to L2: 0
L1D TOTAL     ACCESS:   13672171  HIT:   12513687  MISS:    1158484  HIT %:    91.5267  MISS %:     8.4733   MPKI: 23.1697
L1D LOAD DATA	ACCESS:    7100156  HIT:    6336286  MISS:     763870  HIT %:    89.2415  MISS %:    10.7585  MPKI: 15.2774
L1D RFO DATA	ACCESS:    6232771  HIT:    5942622  MISS:     290149  HIT %:    95.3448  MISS %:    4.65522  MPKI: 5.80298
L1D PREFETCH DATA	ACCESS:     339244  HIT:     234779  MISS:     104465  HIT %:    69.2065  MISS %:    30.7935  MPKI: 2.0893

L1D PREFETCH  REQUESTED:     806979  ISSUED:     806979  USEFUL:      47391  USELESS:      70003
L1D USEFUL LOAD PREFETCHES:      47391 PREFETCH ISSUED TO LOWER LEVEL:     117479  ACCURACY: 40.34
 TIMELY PREFETCHES:      47391 LATE PREFETCHES: 12934 DROPPED PREFETCHES: 4
L1D AVERAGE MISS LATENCY: 481575 cycles
L1D RQ	ACCESS:   11092553	FORWARD:          0	MERGED:    3802136	TO_CACHE:    7129454
L1D WQ	ACCESS:    6901403	FORWARD:     161156	MERGED:     148667	TO_CACHE:    6752736
L1D PQ	ACCESS:     403586	FORWARD:          0	MERGED:          0	TO_CACHE:     403393

L1D UNIQUE REGIONS ACCESSED: 0
L1D REGIONS CONFLICTS: 0
L1D Cross Page Prefetch Requests: 5824
L1D Same Page Prefetch Requests: 819359
L1D ROI Sum of L1D PQ occupancy: 5111299
L1D PREFETCHES PUSHED FROM L2C: 0
L1I TOTAL     ACCESS:    6960659  HIT:    4217813  MISS:    2742846  HIT %:     60.595  MISS %:     39.405   MPKI: 54.8569
L1I LOAD INSTRUCTION	ACCESS:    6580106  HIT:    3837260  MISS:    2742846  HIT %:    58.3161  MISS %:    41.6839  MPKI: 54.8569
L1I PREFETCH INSTRUCTION	ACCESS:     380553  HIT:     380553  MISS:          0  HIT %:        100  MISS %:          0  MPKI: 0

L1I PREFETCH  REQUESTED:     732514  ISSUED:     732514  USEFUL:          0  USELESS:          0
L1I USEFUL LOAD PREFETCHES:          0 PREFETCH ISSUED TO LOWER LEVEL:          0  ACCURACY: -nan
 TIMELY PREFETCHES:          0 LATE PREFETCHES: 0 DROPPED PREFETCHES: 0
L1I AVERAGE MISS LATENCY: 17.6808 cycles
L1I RQ	ACCESS:    9454356	FORWARD:          0	MERGED:    2736344	TO_CACHE:    6718012
L1I PQ	ACCESS:     732514	FORWARD:          0	MERGED:     224127	TO_CACHE:     508387

L1BTB TOTAL     ACCESS:    5681109  HIT:    2078121  MISS:    3602988  HIT %:    36.5795  MISS %:    63.4205   MPKI: 72.0598
L1BTB BRANCH_DIRECT_JUMP	ACCESS:     545085  HIT:     144172  MISS:     400913	AVERAGE STALL: 31.3748
L1BTB BRANCH_INDIRECT	ACCESS:     181892  HIT:      65663  MISS:     116229	AVERAGE STALL: 74.2932
L1BTB BRANCH_CONDITIONAL	ACCESS:    2737845  HIT:    1454193  MISS:    1283652	AVERAGE STALL: 32.45
L1BTB BRANCH_DIRECT_CALL	ACCESS:     937386  HIT:     104296  MISS:     833090	AVERAGE STALL: 33.6562
L1BTB BRANCH_INDIRECT_CALL	ACCESS:     170769  HIT:      21329  MISS:     149440	AVERAGE STALL: 95.563
L1BTB BRANCH_RETURN	ACCESS:    1108132  HIT:     288468  MISS:     819664	AVERAGE STALL: 33.0335
L1BTB BRANCH_OTHER ACCESS:          0  HIT:          0  MISS:          0	AVERAGE STALL: -nan
L1BTB TOTAL ROB OCCUPANCY AT BTB MISS: 17.9882

L2BTB TOTAL     ACCESS:    3577710  HIT:    2547659  MISS:    1030051  HIT %:    71.2092  MISS %:    28.7908   MPKI: 20.601
L2BTB BRANCH_DIRECT_JUMP	ACCESS:     396762  HIT:     280710  MISS:     116052	AVERAGE STALL: 31.3748
L2BTB BRANCH_INDIRECT	ACCESS:     106009  HIT:      92660  MISS:      13349	AVERAGE STALL: 74.2932
L2BTB BRANCH_CONDITIONAL	ACCESS:    1283652  HIT:     911832  MISS:     371820	AVERAGE STALL: 32.45
L2BTB BRANCH_DIRECT_CALL	ACCESS:     833090  HIT:     566871  MISS:     266219	AVERAGE STALL: 33.6562
L2BTB BRANCH_INDIRECT_CALL	ACCESS:     139918  HIT:      91510  MISS:      48408	AVERAGE STALL: 95.563
L2BTB BRANCH_RETURN	ACCESS:     818279  HIT:     604076  MISS:     214203	AVERAGE STALL: 33.0335
L2BTB BRANCH_OTHER ACCESS:          0  HIT:          0  MISS:          0	AVERAGE STALL: -nan
L2BTB TOTAL ROB OCCUPANCY AT BTB MISS: 62.9203

L2C TOTAL     ACCESS:    4518368  HIT:    3979752  MISS:     538616  HIT %:    88.0794  MISS %:    11.9206   MPKI: 10.7723
L2C LOAD INSTRUCTION	ACCESS:    2742846  HIT:    2439403  MISS:     303443  HIT %:    88.9369  MISS %:    11.0631  MPKI: 6.06886
L2C LOAD TRANSLATION INSTRUCTION	ACCESS:        294  HIT:         71  MISS:        223  HIT %:    24.1497  MISS %:    75.8503  MPKI: 0.00446
L2C LOAD DATA	ACCESS:     750903  HIT:     665216  MISS:      85687  HIT %:    88.5888  MISS %:    11.4112  MPKI: 1.71374
L2C RFO DATA	ACCESS:     290057  HIT:     237782  MISS:      52275  HIT %:    81.9777  MISS %:    18.0223  MPKI: 1.0455
L2C PREFETCH DATA	ACCESS:     206842  HIT:     126920  MISS:      79922  HIT %:    61.3608  MISS %:    38.6392  MPKI: 1.59844
L2C WRITEBACK DATA	ACCESS:     525482  HIT:     509849  MISS:      15633  HIT %:     97.025  MISS %:    2.97498  MPKI: 0.31266
L2C LOAD TRANSLATION DATA	ACCESS:       1925  HIT:        498  MISS:       1427  HIT %:    25.8701  MISS %:    74.1299  MPKI: 0.02854
L2C TRANSLATION FROM L1D PREFETCHER DATA	ACCESS:         19  HIT:         13  MISS:          6  HIT %:    68.4211  MISS %:    31.5789  MPKI: 0.00012

L2C PREFETCH  REQUESTED:      96653  ISSUED:      96653  USEFUL:       9594  USELESS:      70817
L2C USEFUL LOAD PREFETCHES:       9594 PREFETCH ISSUED TO LOWER LEVEL:      80440  ACCURACY: 11.9269
 TIMELY PREFETCHES:       9594 LATE PREFETCHES: 518 DROPPED PREFETCHES: 0
L2C AVERAGE MISS LATENCY: 37.2734 cycles
L2C RQ	ACCESS:    3786089	FORWARD:          0	MERGED:          0	TO_CACHE:    3786045
L2C WQ	ACCESS:     525482	FORWARD:         44	MERGED:          0	TO_CACHE:     525482
L2C PQ	ACCESS:     214132	FORWARD:          0	MERGED:       3132	TO_CACHE:     211000

L2C Dense regions hint from L2: 0
PSCL5 TOTAL     ACCESS:       4256  HIT:       2128  MISS:       2128  HIT %:         50  MISS %:         50   MPKI: 0.04256
PSCL5 LOAD TRANSLATION INSTRUCTION	ACCESS:       4218  HIT:       2109  MISS:       2109  HIT %:         50  MISS %:         50  MPKI: 0.04218
PSCL5 TRANSLATION FROM L1D PREFETCHER INSTRUCTION	ACCESS:         38  HIT:         19  MISS:         19  HIT %:         50  MISS %:         50  MPKI: 0.00038


PSCL4 TOTAL     ACCESS:       3869  HIT:       1932  MISS:       1937  HIT %:    49.9354  MISS %:    50.0646   MPKI: 0.03874
PSCL4 LOAD TRANSLATION INSTRUCTION	ACCESS:       3051  HIT:       1913  MISS:       1138  HIT %:    62.7008  MISS %:    37.2992  MPKI: 0.02276
PSCL4 TRANSLATION FROM L1D PREFETCHER INSTRUCTION	ACCESS:         31  HIT:         19  MISS:         12  HIT %:    61.2903  MISS %:    38.7097  MPKI: 0.00024
PSCL4 LOAD TRANSLATION DATA	ACCESS:        780  HIT:          0  MISS:        780  HIT %:          0  MISS %:        100  MPKI: 0.0156
PSCL4 TRANSLATION FROM L1D PREFETCHER DATA	ACCESS:          7  HIT:          0  MISS:          7  HIT %:          0  MISS %:        100  MPKI: 0.00014


PSCL3 TOTAL     ACCESS:       4128  HIT:       2059  MISS:       2069  HIT %:    49.8789  MISS %:    50.1211   MPKI: 0.04138
PSCL3 LOAD TRANSLATION INSTRUCTION	ACCESS:       2155  HIT:       2040  MISS:        115  HIT %:    94.6636  MISS %:    5.33643  MPKI: 0.0023
PSCL3 TRANSLATION FROM L1D PREFETCHER INSTRUCTION	ACCESS:         19  HIT:         19  MISS:          0  HIT %:        100  MISS %:          0  MPKI: 0
PSCL3 LOAD TRANSLATION DATA	ACCESS:       1935  HIT:          0  MISS:       1935  HIT %:          0  MISS %:        100  MPKI: 0.0387
PSCL3 TRANSLATION FROM L1D PREFETCHER DATA	ACCESS:         19  HIT:          0  MISS:         19  HIT %:          0  MISS %:        100  MPKI: 0.00038


PSCL2 TOTAL     ACCESS:       4160  HIT:       2032  MISS:       2128  HIT %:    48.8462  MISS %:    51.1538   MPKI: 0.04256
PSCL2 LOAD TRANSLATION INSTRUCTION	ACCESS:       2273  HIT:       2013  MISS:        260  HIT %:    88.5614  MISS %:    11.4386  MPKI: 0.0052
PSCL2 TRANSLATION FROM L1D PREFETCHER INSTRUCTION	ACCESS:         19  HIT:         19  MISS:          0  HIT %:        100  MISS %:          0  MPKI: 0
PSCL2 LOAD TRANSLATION DATA	ACCESS:       1849  HIT:          0  MISS:       1849  HIT %:          0  MISS %:        100  MPKI: 0.03698
PSCL2 TRANSLATION FROM L1D PREFETCHER DATA	ACCESS:         19  HIT:          0  MISS:         19  HIT %:          0  MISS %:        100  MPKI: 0.00038


LLC TOTAL     ACCESS:     601794  HIT:     573737  MISS:      28057  HIT %:    95.3378  MISS %:    4.66223   MPKI: 0.56114
LLC LOAD INSTRUCTION	ACCESS:     303443  HIT:     302706  MISS:        737  HIT %:    99.7571  MISS %:   0.242879  MPKI: 0.01474
LLC LOAD TRANSLATION INSTRUCTION	ACCESS:        223  HIT:        187  MISS:         36  HIT %:    83.8565  MISS %:    16.1435  MPKI: 0.00072
LLC LOAD DATA	ACCESS:      85186  HIT:      81698  MISS:       3488  HIT %:    95.9054  MISS %:    4.09457  MPKI: 0.06976
LLC RFO DATA	ACCESS:      52243  HIT:      38866  MISS:      13377  HIT %:    74.3947  MISS %:    25.6053  MPKI: 0.26754
LLC PREFETCH DATA	ACCESS:      80440  HIT:      70392  MISS:      10048  HIT %:    87.5087  MISS %:    12.4913  MPKI: 0.20096
LLC WRITEBACK DATA	ACCESS:      78826  HIT:      78531  MISS:        295  HIT %:    99.6258  MISS %:   0.374242  MPKI: 0.0059
LLC LOAD TRANSLATION DATA	ACCESS:       1427  HIT:       1352  MISS:         75  HIT %:    94.7442  MISS %:    5.25578  MPKI: 0.0015
LLC TRANSLATION FROM L1D PREFETCHER DATA	ACCESS:          6  HIT:          5  MISS:          1  HIT %:    83.3333  MISS %:    16.6667  MPKI: 2e-05

LLC AVERAGE MISS LATENCY: 155.366 cycles
LLC RQ	ACCESS:     442543	FORWARD:          0	MERGED:          0	TO_CACHE:     442528
LLC WQ	ACCESS:      78826	FORWARD:         15	MERGED:          0	TO_CACHE:      78826
LLC PQ	ACCESS:      80440	FORWARD:          0	MERGED:          0	TO_CACHE:      80440

LLC Dense regions hint to LLC: 0

RAW hits: 1511535
Loads Generated: 12604088
Loads sent to L1D: 11092553
Stores Generated: 6901384
Stores sent to L1D: 6901403
Major fault: 0 Minor fault: 2600
Allocated PAGES: 2600

stream: 
stream:times selected: 1256291
stream:pref_filled: 125850
stream:pref_useful: 28208
stream:pref_late: 9528
stream:misses: 10755
stream:misses_by_poll: 0

CS: 
CS:times selected: 196050
CS:pref_filled: 75186
CS:pref_useful: 51273
CS:pref_late: 9341
CS:misses: 23833
CS:misses_by_poll: 3

CPLX: 
CPLX:times selected: 1059229
CPLX:pref_filled: 25257
CPLX:pref_useful: 7648
CPLX:pref_late: 4129
CPLX:misses: 131070
CPLX:misses_by_poll: 0

NL_L1: 
NL:times selected: 12819
NL:pref_filled: 1151
NL:pref_useful: 313
NL:pref_late: 472
NL:misses: 2054
NL:misses_by_poll: 0

total selections: 2524389
total_filled: 104465
total_useful: 47391
total_late: 25717
total_polluted: 3
total_misses_after_warmup: 793168
conflicts: 5743737

test: 119615

DRAM Statistics
 CHANNEL 0
 RQ ROW_BUFFER_HIT:      10036  ROW_BUFFER_MISS:      17723
 DBUS_CONGESTED:          7
 WQ ROW_BUFFER_HIT:       1273  ROW_BUFFER_MISS:      12556  FULL:          0

 AVG_CONGESTED_CYCLE: 6

CPU 0 Branch Prediction Accuracy: 99.8227% MPKI: 0.3247 Average ROB Occupancy at Mispredict: 107.532
Branch types
NOT_BRANCH: 40841852 81.6837%
BRANCH_DIRECT_JUMP: 545085 1.09017%
BRANCH_INDIRECT: 181892 0.363784%
BRANCH_CONDITIONAL: 6214578 12.4292%
BRANCH_DIRECT_CALL: 937386 1.87477%
BRANCH_INDIRECT_CALL: 170769 0.341538%
BRANCH_RETURN: 1108132 2.21626%
BRANCH_OTHER: 0 0%

DRAM PAGES: 1048576
Allocated PAGES: 2600
Average_ROB_Occupancy: 76.3813
Average_Decode_Occupancy: 8.93049
Average_FTQ_Occupancy: 4.60078
Indirect max targets: 14 Average targets: 1.14478
Branch_type:  BRANCH_DIRECT_JUMP:  Count Percentage: 3.32705 6.00622 4.2378 7.90441 3.31511 6.01944 1.18464 68.0053 
Branch_type:  BRANCH_INDIRECT:  Count Percentage: 6.14169 3.48153 8.18425 9.67574 3.33826 2.80288 3.06906 63.3066 
Branch_type:  BRANCH_CONDITIONAL:  Count Percentage: 26.0831 2.72406 1.6215 4.56804 2.01566 3.53614 0.919639 58.5318 
Branch_type:  BRANCH_DIRECT_CALL:  Count Percentage: 0.847598 1.23517 0.745459 3.71021 3.21164 2.62085 0.834624 86.7945 
Branch_type:  BRANCH_INDIRECT_CALL:  Count Percentage: 9.5113 0 2.98331 0 1.28367 1.70462 3.28056 81.2365 
Branch_type:  BRANCH_RETURN:  Count Percentage: 8.21508 1.23955 1.20248 3.67015 4.41066 3.49655 1.25485 76.5107 
Branch_type:  BRANCH_DIRECT_JUMP:  Total Count: 36224 65394 46140 86061 36094 65538 12898 740423 
Branch_type:  BRANCH_INDIRECT:  Total Count: 22335 12661 29763 35187 12140 10193 11161 230222 
Branch_type:  BRANCH_CONDITIONAL:  Total Count: 3239237 338298 201372 567300 250322 439149 114209 7269002 
Branch_type:  BRANCH_DIRECT_CALL:  Total Count: 15875 23134 13962 69490 60152 49087 15632 1625608 
Branch_type:  BRANCH_INDIRECT_CALL:  Total Count: 32446 0 10177 0 4379 5815 11191 277123 
Branch_type:  BRANCH_RETURN:  Total Count: 181951 27454 26633 81288 97689 77443 27793 1694590 
Number of unique branch instructions: 10054
Upper 32 bits: 
aaaa
ffff
ffff0000
Unique upper 32 bits: 3
Unique upper 36 bits: 3
Unique upper 40 bits: 5
Unique upper 44 bits: 32
Unique upper 48 bits: 157
Offset_3 4136
Offset_4 251
Offset_5 460
Offset_6 515
Offset_7 583
Offset_8 514
Offset_9 482
Offset_10 381
Offset_11 314
Offset_12 272
Offset_13 215
Offset_14 229
Offset_15 192
Offset_16 224
Offset_17 151
Offset_18 126
Offset_19 240
Offset_20 140
Offset_21 241
Offset_22 397
Offset_23 241
Offset_24 333
Offset_25 88
Offset_47 82
Offset_64 1
decode_dispatch_called: 20162719 35.2957
Dispatch_width: 0 9938279 49.2904 17.3974
Dispatch_width: 1 602711 2.98923 1.05507
Dispatch_width: 2 809222 4.01346 1.41658
Dispatch_width: 3 554901 2.75211 0.971379
Dispatch_width: 4 1505467 7.46659 2.63539
Dispatch_width: 5 420787 2.08696 0.736606
Dispatch_width: 6 6331352 31.4013 11.0833
Empty_decode_cycles: 36962366 64.7043
ROB_full_cycles: 1513357 2.6492
Starvation_cycles_per_kilo_instr: 492.804
Starvation_cycles_per_kilo_instr_3: 473.541
Starvation_cycles_per_kilo_instr_0: 453.873
Branch_type_1  (3,1)  (4,9)  (5,37)  (6,71)  (7,114)  (8,130)  (9,127)  (10,99)  (11,70)  (12,43)  (13,5)  (14,2)  (15,3)  (16,4)  (18,1)  (19,4)  (20,2)  (21,1)  (22,3)  (23,2)  (24,10)  (25,12) 
Branch_type_2  (3,1)  (5,1)  (8,3)  (9,3)  (12,1)  (13,1)  (14,1)  (16,3)  (17,2)  (20,2)  (21,2)  (23,5)  (24,1)  (47,38) 
Branch_type_3  (3,4134)  (4,242)  (5,418)  (6,429)  (7,440)  (8,320)  (9,267)  (10,156)  (11,127)  (12,50)  (13,4)  (64,1) 
Branch_type_4  (6,3)  (7,8)  (8,25)  (9,52)  (10,60)  (11,59)  (12,97)  (13,95)  (14,101)  (15,90)  (16,100)  (17,67)  (18,57)  (19,118)  (20,73)  (21,127)  (22,211)  (23,136)  (24,194)  (25,72) 
Branch_type_5  (8,2)  (9,1)  (10,3)  (11,5)  (12,3)  (13,14)  (14,16)  (15,11)  (16,20)  (17,12)  (18,16)  (19,12)  (20,10)  (21,13)  (22,42)  (23,26)  (24,37) 
Branch_type_6  (5,4)  (6,12)  (7,21)  (8,34)  (9,32)  (10,63)  (11,53)  (12,78)  (13,96)  (14,109)  (15,88)  (16,97)  (17,70)  (18,52)  (19,106)  (20,53)  (21,98)  (22,141)  (23,72)  (24,91)  (25,4)  (47,44) 
Unique trigger count: 
BTB PER SET UNIQUE ADDR: 22 27 20 27 26 27 17 23 14 25 19 29 26 20 23 17 21 22 20 26 22 20 23 26 17 24 25 26 25 22 22 24 28 15 17 22 24 26 16 18 20 21 24 28 20 15 27 17 26 23 29 21 22 28 21 11 20 19 17 25 22 33 24 23 24 27 25 16 28 24 22 22 28 18 20 14 16 24 19 32 26 15 21 29 26 22 29 25 16 39 19 15 25 21 14 26 18 21 27 29 35 31 26 20 24 20 23 25 14 19 21 32 24 19 21 14 25 25 24 23 27 17 19 15 22 22 11 23 32 20 19 32 22 30 20 28 15 26 21 33 20 29 21 24 23 24 29 20 16 22 24 26 17 22 18 30 27 28 27 25 26 23 27 27 23 24 26 18 28 19 21 27 24 23 24 21 22 23 20 26 18 22 20 29 33 31 16 23 27 21 25 18 18 30 25 15 17 25 22 23 28 28 19 19 18 22 22 22 23 24 20 25 20 25 23 25 19 26 17 38 14 27 16 22 20 25 30 26 17 29 21 12 23 28 22 28 28 20 20 16 22 23 30 28 24 21 20 22 26 24 30 28 26 18 28 27 19 17 18 21 25 18 9 22 21 15 21 18 23 21 21 26 18 14 16 17 24 28 21 22 15 25 17 17 26 19 19 34 33 26 23 18 24 28 18 28 24 27 25 24 21 21 20 35 22 28 27 21 31 25 23 29 20 35 27 13 29 22 21 31 20 26 18 21 26 26 24 20 21 17 21 30 19 21 22 24 20 20 17 38 23 25 16 29 25 26 19 22 21 22 25 23 27 24 24 27 24 28 18 17 17 28 21 31 24 26 13 23 28 22 23 17 23 27 20 30 24 28 21 24 24 22 17 18 18 22 27 27 27 22 30 14 27 29 18 16 20 17 30 23 20 27 23 25 28 26 27 27 23 22 28 19 18 30 22 22 21 30 38 31 20 27 25 25 29 19 26 19 29 21 28 22 20 23 29 27 27 20 21 26 25 21 18 31 28 21 17 27 29 23 27 37 26 18 27 34 26 28 18 28 19 22 18 26 34 20 23 24 27 25 24 28 27 23 24 35 27 34 17 25 33 28 20 26 17 26 34 32 28 23 18 26 17 20 20 20 28 25 22 25 20 29 20 34 21 20 18 31 29 26 23 31 23 23 21 26 22 31 18 18 16 22 25 16 24 31 36 16 15 31 27 22 24 25 26 29 21 24 25 23 28 19 27 25 26 30 15 25 18 23 24 31 23 23 18 22 23 24 30 25 22 37 22 23 25 28 22 27 24 28 29 25 30 36 23 28 29 30 21 23 26 27 16 25 25 25 21 23 34 29 20 22 25 17 29 18 16 24 26 22 24 23 22 14 23 26 31 22 21 24 33 25 21 15 11 30 16 28 21 26 30 24 18 22 20 32 20 29 17 25 21 29 31 24 24 21 25 28 23 27 22 28 27 31 26 25 21 24 35 21 16 24 18 20 30 23 24 23 25 22 23 14 27 31 21 26 17 24 18 20 24 21 18 27 34 22 24 28 29 30 21 30 21 27 26 23 21 24 25 28 22 25 22 15 15 22 17 26 21 27 15 24 25 33 12 29 22 18 16 15 21 23 18 23 19 21 32 26 19 28 26 24 22 21 20 21 25 23 22 20 26 21 24 20 23 26 24 31 35 20 22 23 21 25 33 29 22 23 23 19 23 21 24 23 18 21 31 23 19 19 23 15 14 24 24 29 16 24 21 28 24 27 19 17 25 17 29 21 23 27 15 24 23 21 24 22 19 26 21 15 16 14 26 27 20 31 20 18 27 24 34 23 34 27 35 22 23 22 23 19 22 36 30 29 20 28 37 33 12 27 25 31 16 27 28 22 19 25 26 27 24 31 26 23 18 27 26 23 26 23 27 23 22 24 26 27 19 36 20 26 24 20 18 22 29 29 31 28 27 28 25 24 19 25 30 17 25 20 30 20 19 30 26 22 24 12 22 22 19 23 28 14 21 29 25 24 31 22 25 23 27 17 21 20 24 27 32 22 19 19 24 20 22 25 13 29 20 26 23 31 19 24 22 23 25 26 34 22 23 25 25 25 19 27 21 22 14 29 17 18 31 32 29 20 22 32 21 21 25 27 17 31 23 22 22 24 23 28 23 27 23 23 19 25 21 25 26 24 25 25 26 24 22 33 29 24 28 25 19 27 23 27 27 23 27 21 33 33 29 34 19 28 26 24 22 31 37 19 27 21 27 26 26 23 23 20 21 25 28 23 31 31 20 21 28 27 17 32 20 27 27 27 27 17 18 24 13 20 10 14 19 29 24 15 
BTB PER SET COUNT: 2274 2477 2813 2060 2976 2063 1770 1845 1769 2110 1311 2623 12952 1809 1937 1108 2099 2289 1603 2179 1814 1604 2078 2191 1129 2077 2182 1981 2302 1895 1878 2448 2133 857 1227 1898 2043 2365 1077 2223 1599 1733 2425 2345 1973 662 2288 1511 2135 1704 2367 1408 1946 2187 1756 852 1715 1540 1378 2119 1707 3063 2093 1888 2414 2188 1720 1532 2157 1940 2498 2082 2579 1508 1130 790 905 2290 1613 2643 2441 1050 1891 2703 2129 1923 2248 2222 1738 3843 1488 1272 2272 1934 778 2050 1515 1525 2253 3845 3539 2721 2103 1734 3467 1307 1648 2428 1437 3281 1952 2833 2354 1622 1780 1147 2134 2368 2630 2050 2233 1384 1686 1076 1893 1604 772 2618 3299 1701 1428 3029 1512 2472 1710 2301 1361 2288 1657 2852 1624 2242 1690 1803 1964 1799 2708 1322 1122 1729 1782 2083 1289 1712 965 2969 2600 2189 2224 2393 2127 1953 2483 2228 1585 2232 1862 1513 2255 1603 1577 2543 2009 1823 1990 1861 1706 1507 1689 2437 1500 1916 1778 2194 2918 3170 1074 1947 2421 2286 1814 1231 1151 2649 2136 1272 1259 1905 1605 1581 2060 2072 1793 1489 1138 1938 1845 1931 1970 2464 1567 2248 1318 3276 1878 2277 1715 2547 1554 3498 1121 2125 1407 1738 1616 2208 2548 2349 1412 3255 1620 548 1630 2342 1419 5917 2435 1749 2160 1107 2034 2063 2943 2744 1716 2000 1338 1887 2102 1561 1978 2116 2127 1496 2013 2515 1471 1477 1379 1616 2088 1513 331 1882 2122 851 1669 1550 2194 1870 1592 1878 1201 893 1618 1205 2091 2537 1940 2041 924 2173 1425 1820 2065 1537 1262 2955 2962 2413 1955 1256 1824 2575 1085 2677 2302 2086 1719 2066 1536 1461 1881 3002 1935 2713 1984 1836 3112 2335 2567 2248 1233 3219 2971 1597 2547 1738 1647 2801 1529 3205 1173 1584 2754 2351 2337 1320 1703 1093 1810 2825 1285 1504 1847 1940 1425 1839 1132 3527 1915 2870 1210 2076 2449 1910 1435 1789 1791 2097 2188 1829 2332 1770 1614 2579 2256 2750 1461 1326 1265 2782 1495 2817 1954 3023 687 1717 1819 1625 2195 1277 2379 2371 1214 2774 1909 2388 1739 2529 2224 2097 1633 922 1119 1724 3007 2469 2004 2168 2142 982 2227 2422 1322 1187 1447 1543 2827 2228 1711 2061 2096 1638 2203 2249 1991 2225 1456 2054 2045 1347 1443 2674 1533 1899 1850 4804 3379 2665 1357 2150 2474 1924 2438 1743 2624 1471 1684 1820 2544 2122 1386 1744 2625 2317 1862 1551 1800 1856 2795 1418 1307 2839 3016 1827 1322 2017 2456 1859 2390 3791 1834 1678 2620 3196 2012 2669 1253 2174 1346 1807 1544 2480 2742 1804 7439 1933 2558 2177 1986 2120 1941 1702 1969 2847 1831 3267 1334 1906 2810 2413 1574 2244 1446 1903 3262 2568 2520 1910 1747 2274 4604 1079 1085 1825 2756 2550 1660 2157 1424 2898 1419 3405 1571 1248 1211 2855 2672 1981 1829 3238 2772 2469 1666 2492 1507 2904 1182 1302 890 1979 2206 1322 1889 2923 3420 2114 1208 4060 3033 2194 2072 1873 2451 2428 2251 2464 2048 1947 2334 1622 2461 1976 2215 2805 995 2213 1224 2414 1781 2871 2061 2102 1518 1364 1799 1926 2351 2349 1296 2984 1611 1995 2361 2649 1760 2205 1849 2617 2670 2166 3067 2909 2076 2641 2604 2678 1769 1840 2404 2126 1014 3029 2144 2256 1803 2132 3138 2795 1990 1827 2197 970 1849 1290 1896 2360 2012 1570 1318 1873 1803 958 2018 2257 2750 2120 1400 1691 2889 2544 2158 1078 692 2517 1017 2482 2312 2353 2975 1845 1005 1564 1551 2764 1510 2726 2257 1958 1694 3076 3071 1760 1802 1765 2224 2661 1660 2278 2230 2244 2532 2553 3017 2420 1466 2365 3746 1223 1084 2343 1191 1854 3278 1873 1597 1684 2236 1925 2055 778 2429 2901 5740 2514 1348 1959 2029 1786 1636 1792 1550 2228 2975 2124 2013 2774 2324 2967 1873 2599 2068 2313 2827 2055 1809 2033 2260 2605 1641 2475 2107 952 1466 1716 1784 2608 1642 1925 1396 2366 2406 2761 865 2173 1819 1463 1186 1114 1931 2119 1195 1878 1703 1574 3164 2025 1534 2668 2275 2358 1510 1834 1719 1643 1667 2384 1813 1933 2110 5515 1765 1745 1732 1998 2265 3128 3858 1732 1794 1497 1806 2374 2960 2598 2162 1858 1988 1619 2446 1549 2618 2031 1272 1933 2721 2114 1671 1165 2216 1105 812 1765 2843 2821 1170 1911 1227 2129 1814 2510 1753 1419 2183 1335 2384 1947 1479 2715 1753 2368 1948 1786 1894 1867 1427 2256 1474 1078 1263 1419 2200 2454 1690 2848 1760 1333 1779 2120 3248 1911 2562 2515 2797 1613 1833 1929 1818 1631 1403 5015 2746 2407 1713 2933 2876 2903 1155 2702 1867 2820 1188 2447 2758 1922 1403 2078 2225 2647 2018 2913 2228 1985 1148 2808 1931 1906 2402 1898 2399 1983 2051 1867 2158 2226 1729 3237 1579 5192 2595 2002 1414 1752 2709 2527 2730 2282 2536 2287 2627 1929 1733 1985 2755 1034 1884 1037 2860 1411 1577 2693 2288 1582 1971 890 1642 2016 2428 1964 2267 953 1377 2869 2363 2494 2556 2021 1897 1943 2277 1234 2928 2474 1548 2549 2830 1701 1603 1646 2150 1707 1881 2313 835 2365 1608 2528 1783 2741 1816 1863 1988 2381 2429 2520 3710 1975 2055 2031 2122 2175 1426 2399 1352 1780 702 2680 1276 1204 2287 2712 3124 1412 1735 3258 1938 1591 2453 2363 1259 3285 2131 1536 1915 2082 1777 2372 2092 2250 2234 2558 1872 3541 1725 2016 2527 1735 2002 2233 1995 2143 1729 2660 2497 1536 2833 2197 1420 2066 1966 2864 2512 1762 2709 1527 3312 2193 2648 3303 1893 2278 2319 2105 1494 3226 4184 1401 2553 2216 2321 2616 1864 1917 2293 1853 1459 3194 2388 2208 2550 2936 1620 1776 2304 2174 1466 3150 1729 2385 2637 2357 2330 1370 1379 1904 925 1663 529 1281 1547 3008 2111 1096 
