
*** ChampSim Multicore Out-of-Order Simulator ***

Warmup Instructions: 50000000
Simulation Instructions: 50000000
Number of CPUs: 1
LLC sets: 2048
LLC ways: 16
Off-chip DRAM Size: 4096 MB Channels: 1 Width: 64-bit Data Rate: 6400 MT/s
CPU 0 runs ./micro_traces/srv518.trace.gz
.gz
ITLB has LRU replacement policy
DTLB has LRU replacement policy
STLB has LRU replacement policy
CPU 0 L1I next line prefetcher
L1I has LRU replacement policy
L1D has LRU replacement policy
Initialize SRRIP state for L2C
Initialize DRRIP state for LLC
Heartbeat CPU 0 instructions: 10000002 cycles: 2798699 heartbeat IPC: 3.57309 cumulative IPC: 3.57309 (Simulation time: 0 hr 1 min 37 sec) 
Heartbeat CPU 0 instructions: 20000001 cycles: 5597330 heartbeat IPC: 3.57318 cumulative IPC: 3.57313 (Simulation time: 0 hr 3 min 15 sec) 
Heartbeat CPU 0 instructions: 30000000 cycles: 8394059 heartbeat IPC: 3.57561 cumulative IPC: 3.57396 (Simulation time: 0 hr 4 min 53 sec) 
Heartbeat CPU 0 instructions: 40000001 cycles: 11191536 heartbeat IPC: 3.57465 cumulative IPC: 3.57413 (Simulation time: 0 hr 6 min 29 sec) 
Heartbeat CPU 0 instructions: 50000000 cycles: 13989034 heartbeat IPC: 3.57462 cumulative IPC: 3.57423 (Simulation time: 0 hr 8 min 7 sec) 

Warmup complete CPU 0 instructions: 50000004 cycles: 13989035 (Simulation time: 0 hr 8 min 7 sec) 

Cycle: 20000000 FTQ IN: 58183337 FTQ occupancy: 18.7301 DECODE IN: 58183311 DECODE occupancy: 49.864 ROB IN: 58183305 ROB occupancy: 308.195 ROB OUT: 58183000
Heartbeat CPU 0 instructions: 60000002 cycles: 21409731 heartbeat IPC: 1.34758 cumulative IPC: 1.34758 (Simulation time: 0 hr 9 min 46 sec) 
Heartbeat CPU 0 instructions: 70000000 cycles: 28769184 heartbeat IPC: 1.3588 cumulative IPC: 1.35317 (Simulation time: 0 hr 11 min 21 sec) 
Cycle: 30000000 FTQ IN: 13488626 FTQ occupancy: 8.82108 DECODE IN: 13488650 DECODE occupancy: 25.9358 ROB IN: 13488651 ROB occupancy: 216.372 ROB OUT: 13488934
Heartbeat CPU 0 instructions: 80000002 cycles: 36226647 heartbeat IPC: 1.34094 cumulative IPC: 1.34907 (Simulation time: 0 hr 13 min 0 sec) 
Cycle: 40000000 FTQ IN: 13408209 FTQ occupancy: 8.84304 DECODE IN: 13408110 DECODE occupancy: 26.5032 ROB IN: 13408055 ROB occupancy: 219.141 ROB OUT: 13407955
Heartbeat CPU 0 instructions: 90000002 cycles: 43612169 heartbeat IPC: 1.354 cumulative IPC: 1.3503 (Simulation time: 0 hr 14 min 36 sec) 
Cycle: 50000000 FTQ IN: 13602346 FTQ occupancy: 8.7279 DECODE IN: 13602439 DECODE occupancy: 25.9992 ROB IN: 13602495 ROB occupancy: 216.949 ROB OUT: 13602577
Heartbeat CPU 0 instructions: 100000001 cycles: 50971227 heartbeat IPC: 1.35887 cumulative IPC: 1.352 (Simulation time: 0 hr 16 min 7 sec) 
Finished CPU 0 instructions: 50000001 cycles: 36982193 cumulative IPC: 1.352 (Simulation time: 0 hr 16 min 7 sec) 

ChampSim completed all CPUs

Region of Interest Statistics

CPU 0 cumulative IPC: 1.352 instructions: 50000001 cycles: 36982193
 Fetch stage stalled: 60.3024  Sim cycles: 36982193 fetch stall cycle: 22301142
 Empty decode stage: 41.9902  Sim cycles: 36982193 fetch stall cycle: 15528885
ITLB TOTAL     ACCESS:    7695504  HIT:    7086974  MISS:     608530  HIT %:    92.0924  MISS %:     7.9076   MPKI: 12.1706
ITLB LOAD TRANSLATION INSTRUCTION	ACCESS:    5971098  HIT:    5842164  MISS:     128934  HIT %:    97.8407  MISS %:     2.1593  MPKI: 2.57868
ITLB TRANSLATION FROM L1D PREFETCHER INSTRUCTION	ACCESS:    1724406  HIT:    1244810  MISS:     479596  HIT %:    72.1878  MISS %:    27.8122  MPKI: 9.59192

ITLB AVERAGE MISS LATENCY: 107028 cycles
ITLB RQ	ACCESS:   11596368	FORWARD:          0	MERGED:    3758797	TO_CACHE:    7837571

DTLB TOTAL     ACCESS:    9005310  HIT:    8535950  MISS:     469360  HIT %:     94.788  MISS %:    5.21204   MPKI: 9.3872
DTLB LOAD TRANSLATION DATA	ACCESS:    9005310  HIT:    8535950  MISS:     469360  HIT %:     94.788  MISS %:    5.21204  MPKI: 9.3872

DTLB AVERAGE MISS LATENCY: 9.31945 cycles
DTLB RQ	ACCESS:   13370688	FORWARD:          0	MERGED:    4329676	TO_CACHE:    9041012

STLB TOTAL     ACCESS:    1327291  HIT:    1325406  MISS:       1885  HIT %:     99.858  MISS %:   0.142019   MPKI: 0.0377
STLB LOAD TRANSLATION INSTRUCTION	ACCESS:     126827  HIT:     126733  MISS:         94  HIT %:    99.9259  MISS %:  0.0741167  MPKI: 0.00188
STLB TRANSLATION FROM L1D PREFETCHER INSTRUCTION	ACCESS:     481703  HIT:     481613  MISS:         90  HIT %:    99.9813  MISS %:  0.0186837  MPKI: 0.0018
STLB LOAD TRANSLATION DATA	ACCESS:     469360  HIT:     467666  MISS:       1694  HIT %:    99.6391  MISS %:   0.360917  MPKI: 0.03388
STLB TRANSLATION FROM L1D PREFETCHER DATA	ACCESS:     249401  HIT:     249394  MISS:          7  HIT %:    99.9972  MISS %: 0.00280672  MPKI: 0.00014

STLB AVERAGE MISS LATENCY: 72.9034 cycles
STLB RQ	ACCESS:    1453285	FORWARD:          0	MERGED:     122580	TO_CACHE:    1330705

STLB Hit, L1D data hit: 0
STLB Hit, L2C data hit: 0
STLB Hit, LLC data hit: 0
STLB Hit, LLC data miss: 0
STLB STLB hints to L2: 0
L1D TOTAL     ACCESS:   13105812  HIT:   11997527  MISS:    1108285  HIT %:    91.5436  MISS %:    8.45644   MPKI: 22.1657
L1D LOAD DATA	ACCESS:    6584836  HIT:    5855278  MISS:     729558  HIT %:    88.9206  MISS %:    11.0794  MPKI: 14.5912
L1D RFO DATA	ACCESS:    6189547  HIT:    5905232  MISS:     284315  HIT %:    95.4065  MISS %:    4.59347  MPKI: 5.6863
L1D PREFETCH DATA	ACCESS:     331429  HIT:     237017  MISS:      94412  HIT %:    71.5137  MISS %:    28.4863  MPKI: 1.88824

L1D PREFETCH  REQUESTED:     744473  ISSUED:     744473  USEFUL:      33037  USELESS:      69159
L1D USEFUL LOAD PREFETCHES:      33037 PREFETCH ISSUED TO LOWER LEVEL:     102262  ACCURACY: 32.3062
 TIMELY PREFETCHES:      33037 LATE PREFETCHES: 7801 DROPPED PREFETCHES: 4
L1D AVERAGE MISS LATENCY: 227450 cycles
L1D RQ	ACCESS:   10717377	FORWARD:          0	MERGED:    3933141	TO_CACHE:    6625965
L1D WQ	ACCESS:    6939555	FORWARD:     158714	MERGED:     194832	TO_CACHE:    6744723
L1D PQ	ACCESS:     372458	FORWARD:          0	MERGED:          0	TO_CACHE:     372015

L1D UNIQUE REGIONS ACCESSED: 0
L1D REGIONS CONFLICTS: 0
L1D Cross Page Prefetch Requests: 5460
L1D Same Page Prefetch Requests: 757247
L1D ROI Sum of L1D PQ occupancy: 4734215
L1D PREFETCHES PUSHED FROM L2C: 0
L1I TOTAL     ACCESS:   11164674  HIT:    7519933  MISS:    3644741  HIT %:    67.3547  MISS %:    32.6453   MPKI: 72.8948
L1I LOAD INSTRUCTION	ACCESS:    6701084  HIT:    6103134  MISS:     597950  HIT %:    91.0768  MISS %:    8.92318  MPKI: 11.959
L1I PREFETCH INSTRUCTION	ACCESS:    4463590  HIT:    1416799  MISS:    3046791  HIT %:    31.7412  MISS %:    68.2588  MPKI: 60.9358

L1I PREFETCH  REQUESTED:    5143995  ISSUED:    5143920  USEFUL:    2354468  USELESS:     800956
L1I USEFUL LOAD PREFETCHES:    2354468 PREFETCH ISSUED TO LOWER LEVEL:    3155340  ACCURACY: 74.6185
 TIMELY PREFETCHES:    2354468 LATE PREFETCHES: 108549 DROPPED PREFETCHES: 9145
L1I AVERAGE MISS LATENCY: 958311 cycles
L1I RQ	ACCESS:    9452931	FORWARD:          0	MERGED:    2695531	TO_CACHE:    6757400
L1I PQ	ACCESS:    5143920	FORWARD:          0	MERGED:     304952	TO_CACHE:    4838968

L1BTB TOTAL     ACCESS:    5672361  HIT:    2054296  MISS:    3618065  HIT %:    36.2159  MISS %:    63.7841   MPKI: 72.3613
L1BTB BRANCH_DIRECT_JUMP	ACCESS:     550040  HIT:     145873  MISS:     404167	AVERAGE STALL: 31.2908
L1BTB BRANCH_INDIRECT	ACCESS:     183638  HIT:      66484  MISS:     117154	AVERAGE STALL: 123.764
L1BTB BRANCH_CONDITIONAL	ACCESS:    2717617  HIT:    1426852  MISS:    1290765	AVERAGE STALL: 39.2718
L1BTB BRANCH_DIRECT_CALL	ACCESS:     939770  HIT:     105163  MISS:     834607	AVERAGE STALL: 43.8579
L1BTB BRANCH_INDIRECT_CALL	ACCESS:     170781  HIT:      20761  MISS:     150020	AVERAGE STALL: 142.085
L1BTB BRANCH_RETURN	ACCESS:    1110515  HIT:     289163  MISS:     821352	AVERAGE STALL: 40.3324
L1BTB BRANCH_OTHER ACCESS:          0  HIT:          0  MISS:          0	AVERAGE STALL: -nan
L1BTB TOTAL ROB OCCUPANCY AT BTB MISS: 5.74196

L2BTB1 TOTAL     ACCESS:    3592544  HIT:    3468729  MISS:     123815  HIT %:    96.5536  MISS %:    3.44644   MPKI: 2.4763
L2BTB1 BRANCH_DIRECT_JUMP	ACCESS:     399931  HIT:     391592  MISS:       8339	AVERAGE STALL: 31.2908
L2BTB1 BRANCH_INDIRECT	ACCESS:     106903  HIT:      96001  MISS:      10902	AVERAGE STALL: 123.764
L2BTB1 BRANCH_CONDITIONAL	ACCESS:    1290765  HIT:    1275648  MISS:      15117	AVERAGE STALL: 39.2718
L2BTB1 BRANCH_DIRECT_CALL	ACCESS:     834607  HIT:     811663  MISS:      22944	AVERAGE STALL: 43.8579
L2BTB1 BRANCH_INDIRECT_CALL	ACCESS:     140390  HIT:     126948  MISS:      13442	AVERAGE STALL: 142.085
L2BTB1 BRANCH_RETURN	ACCESS:     819948  HIT:     766877  MISS:      53071	AVERAGE STALL: 40.3324
L2BTB1 BRANCH_OTHER ACCESS:          0  HIT:          0  MISS:          0	AVERAGE STALL: -nan
L2BTB1 TOTAL ROB OCCUPANCY AT BTB MISS: 167.789

L2C TOTAL     ACCESS:    6588048  HIT:    5600938  MISS:     987110  HIT %:    85.0167  MISS %:    14.9833   MPKI: 19.7422
L2C LOAD INSTRUCTION	ACCESS:     489401  HIT:     396143  MISS:      93258  HIT %:    80.9445  MISS %:    19.0555  MPKI: 1.86516
L2C PREFETCH INSTRUCTION	ACCESS:    3155340  HIT:    2773653  MISS:     381687  HIT %:    87.9035  MISS %:    12.0965  MPKI: 7.63374
L2C LOAD TRANSLATION INSTRUCTION	ACCESS:        104  HIT:         32  MISS:         72  HIT %:    30.7692  MISS %:    69.2308  MPKI: 0.00144
L2C TRANSLATION FROM L1D PREFETCHER INSTRUCTION	ACCESS:       4384  HIT:       4249  MISS:        135  HIT %:    96.9206  MISS %:    3.07938  MPKI: 0.0027
L2C LOAD DATA	ACCESS:     721666  HIT:     582154  MISS:     139512  HIT %:    80.6681  MISS %:    19.3319  MPKI: 2.79024
L2C RFO DATA	ACCESS:     284246  HIT:     200507  MISS:      83739  HIT %:      70.54  MISS %:      29.46  MPKI: 1.67478
L2C PREFETCH DATA	ACCESS:    1413618  HIT:    1162220  MISS:     251398  HIT %:     82.216  MISS %:     17.784  MPKI: 5.02796
L2C WRITEBACK DATA	ACCESS:     517539  HIT:     481640  MISS:      35899  HIT %:    93.0635  MISS %:    6.93648  MPKI: 0.71798
L2C LOAD TRANSLATION DATA	ACCESS:       1730  HIT:        329  MISS:       1401  HIT %:    19.0173  MISS %:    80.9827  MPKI: 0.02802
L2C TRANSLATION FROM L1D PREFETCHER DATA	ACCESS:         20  HIT:         11  MISS:          9  HIT %:         55  MISS %:         45  MPKI: 0.00018

L2C PREFETCH  REQUESTED:    3261461  ISSUED:    3261461  USEFUL:      33217  USELESS:     602745
L2C USEFUL LOAD PREFETCHES:      33217 PREFETCH ISSUED TO LOWER LEVEL:     635052  ACCURACY: 5.2306
 TIMELY PREFETCHES:      33217 LATE PREFETCHES: 1967 DROPPED PREFETCHES: 0
L2C AVERAGE MISS LATENCY: 33.5696 cycles
L2C RQ	ACCESS:    1501662	FORWARD:          0	MERGED:          0	TO_CACHE:    1501551
L2C WQ	ACCESS:     517539	FORWARD:        111	MERGED:          0	TO_CACHE:     517539
L2C PQ	ACCESS:    6519063	FORWARD:          0	MERGED:    1927613	TO_CACHE:    4591450

L2C Dense regions hint from L2: 0
PSCL5 TOTAL     ACCESS:      10542  HIT:       5271  MISS:       5271  HIT %:         50  MISS %:         50   MPKI: 0.10542
PSCL5 LOAD TRANSLATION INSTRUCTION	ACCESS:       3562  HIT:       1781  MISS:       1781  HIT %:         50  MISS %:         50  MPKI: 0.03562
PSCL5 TRANSLATION FROM L1D PREFETCHER INSTRUCTION	ACCESS:       6980  HIT:       3490  MISS:       3490  HIT %:         50  MISS %:         50  MPKI: 0.0698


PSCL4 TOTAL     ACCESS:      10517  HIT:       5258  MISS:       5259  HIT %:    49.9952  MISS %:    50.0048   MPKI: 0.10518
PSCL4 LOAD TRANSLATION INSTRUCTION	ACCESS:       1768  HIT:       1768  MISS:          0  HIT %:        100  MISS %:          0  MPKI: 0
PSCL4 TRANSLATION FROM L1D PREFETCHER INSTRUCTION	ACCESS:       3490  HIT:       3490  MISS:          0  HIT %:        100  MISS %:          0  MPKI: 0
PSCL4 LOAD TRANSLATION DATA	ACCESS:       1769  HIT:          0  MISS:       1769  HIT %:          0  MISS %:        100  MPKI: 0.03538
PSCL4 TRANSLATION FROM L1D PREFETCHER DATA	ACCESS:       3490  HIT:          0  MISS:       3490  HIT %:          0  MISS %:        100  MPKI: 0.0698


PSCL3 TOTAL     ACCESS:      10519  HIT:       5259  MISS:       5260  HIT %:    49.9952  MISS %:    50.0048   MPKI: 0.1052
PSCL3 LOAD TRANSLATION INSTRUCTION	ACCESS:       1769  HIT:       1769  MISS:          0  HIT %:        100  MISS %:          0  MPKI: 0
PSCL3 TRANSLATION FROM L1D PREFETCHER INSTRUCTION	ACCESS:       3490  HIT:       3490  MISS:          0  HIT %:        100  MISS %:          0  MPKI: 0
PSCL3 LOAD TRANSLATION DATA	ACCESS:       1770  HIT:          0  MISS:       1770  HIT %:          0  MISS %:        100  MPKI: 0.0354
PSCL3 TRANSLATION FROM L1D PREFETCHER DATA	ACCESS:       3490  HIT:          0  MISS:       3490  HIT %:          0  MISS %:        100  MPKI: 0.0698


PSCL2 TOTAL     ACCESS:       8671  HIT:       4306  MISS:       4365  HIT %:    49.6598  MISS %:    50.3402   MPKI: 0.0873
PSCL2 LOAD TRANSLATION INSTRUCTION	ACCESS:       1834  HIT:       1730  MISS:        104  HIT %:    94.3293  MISS %:    5.67067  MPKI: 0.00208
PSCL2 TRANSLATION FROM L1D PREFETCHER INSTRUCTION	ACCESS:       5131  HIT:       2576  MISS:       2555  HIT %:    50.2046  MISS %:    49.7954  MPKI: 0.0511
PSCL2 LOAD TRANSLATION DATA	ACCESS:       1685  HIT:          0  MISS:       1685  HIT %:          0  MISS %:        100  MPKI: 0.0337
PSCL2 TRANSLATION FROM L1D PREFETCHER DATA	ACCESS:         21  HIT:          0  MISS:         21  HIT %:          0  MISS %:        100  MPKI: 0.00042


LLC TOTAL     ACCESS:    1078701  HIT:    1050253  MISS:      28448  HIT %:    97.3628  MISS %:    2.63725   MPKI: 0.56896
LLC LOAD INSTRUCTION	ACCESS:      92303  HIT:      92070  MISS:        233  HIT %:    99.7476  MISS %:   0.252429  MPKI: 0.00466
LLC PREFETCH INSTRUCTION	ACCESS:     378073  HIT:     377615  MISS:        458  HIT %:    99.8789  MISS %:   0.121141  MPKI: 0.00916
LLC LOAD TRANSLATION INSTRUCTION	ACCESS:         72  HIT:         60  MISS:         12  HIT %:    83.3333  MISS %:    16.6667  MPKI: 0.00024
LLC TRANSLATION FROM L1D PREFETCHER INSTRUCTION	ACCESS:        135  HIT:        121  MISS:         14  HIT %:    89.6296  MISS %:    10.3704  MPKI: 0.00028
LLC LOAD DATA	ACCESS:     138526  HIT:     134944  MISS:       3582  HIT %:    97.4142  MISS %:     2.5858  MPKI: 0.07164
LLC RFO DATA	ACCESS:      83692  HIT:      70197  MISS:      13495  HIT %:    83.8754  MISS %:    16.1246  MPKI: 0.2699
LLC PREFETCH DATA	ACCESS:     256979  HIT:     246691  MISS:      10288  HIT %:    95.9966  MISS %:    4.00344  MPKI: 0.20576
LLC WRITEBACK DATA	ACCESS:     127511  HIT:     127220  MISS:        291  HIT %:    99.7718  MISS %:   0.228216  MPKI: 0.00582
LLC LOAD TRANSLATION DATA	ACCESS:       1401  HIT:       1326  MISS:         75  HIT %:    94.6467  MISS %:    5.35332  MPKI: 0.0015
LLC TRANSLATION FROM L1D PREFETCHER DATA	ACCESS:          9  HIT:          9  MISS:          0  HIT %:        100  MISS %:          0  MPKI: 0

LLC AVERAGE MISS LATENCY: 160.457 cycles
LLC RQ	ACCESS:     316159	FORWARD:          0	MERGED:          0	TO_CACHE:     316138
LLC WQ	ACCESS:     127511	FORWARD:         21	MERGED:          0	TO_CACHE:     127511
LLC PQ	ACCESS:     635052	FORWARD:          0	MERGED:          0	TO_CACHE:     635052

LLC Dense regions hint to LLC: 0

RAW hits: 1917447
Loads Generated: 12634824
Loads sent to L1D: 10717377
Stores Generated: 6939544
Stores sent to L1D: 6939555
Major fault: 0 Minor fault: 2500
Allocated PAGES: 2500
I-Shadow cache 408 bytes
Touched + WorthPF tables 12288 bytes 
MMA filter 174 bytes 
FNL filter 272 bytes 
TOTAL PREFETCHER STORAGE SIZE: 31318 bytes
CPU 0 L1I next line prefetcher final stats

stream: 
stream:times selected: 1198898
stream:pref_filled: 118394
stream:pref_useful: 22234
stream:pref_late: 7587
stream:misses: 8199
stream:misses_by_poll: 0

CS: 
CS:times selected: 176363
CS:pref_filled: 54191
CS:pref_useful: 29872
CS:pref_late: 12288
CS:misses: 21101
CS:misses_by_poll: 0

CPLX: 
CPLX:times selected: 1021361
CPLX:pref_filled: 19821
CPLX:pref_useful: 4236
CPLX:pref_late: 3160
CPLX:misses: 94088
CPLX:misses_by_poll: 2

NL_L1: 
NL:times selected: 14586
NL:pref_filled: 429
NL:pref_useful: 153
NL:pref_late: 336
NL:misses: 1133
NL:misses_by_poll: 0

total selections: 2411208
total_filled: 94412
total_useful: 33037
total_late: 24845
total_polluted: 2
total_misses_after_warmup: 770688
conflicts: 5529370

test: 117002

DRAM Statistics
 CHANNEL 0
 RQ ROW_BUFFER_HIT:       9835  ROW_BUFFER_MISS:      18313
 DBUS_CONGESTED:          5
 WQ ROW_BUFFER_HIT:       1454  ROW_BUFFER_MISS:      13135  FULL:          0

 AVG_CONGESTED_CYCLE: 6

CPU 0 Branch Prediction Accuracy: 99.8245% MPKI: 0.321 Average ROB Occupancy at Mispredict: 184.725
Branch types
NOT_BRANCH: 40856446 81.7129%
BRANCH_DIRECT_JUMP: 550040 1.10008%
BRANCH_INDIRECT: 183638 0.367276%
BRANCH_CONDITIONAL: 6188335 12.3767%
BRANCH_DIRECT_CALL: 939770 1.87954%
BRANCH_INDIRECT_CALL: 170781 0.341562%
BRANCH_RETURN: 1110515 2.22103%
BRANCH_OTHER: 0 0%

DRAM PAGES: 1048576
Allocated PAGES: 2500
Average_ROB_Occupancy: 218.097
Average_Decode_Occupancy: 26.1348
Average_FTQ_Occupancy: 8.7957
Indirect max targets: 14 Average targets: 1.14527
Branch_type:  BRANCH_DIRECT_JUMP:  Count Percentage: 3.83254 5.22747 4.46891 7.21447 2.9599 6.01204 1.52967 68.755 
Branch_type:  BRANCH_INDIRECT:  Count Percentage: 6.15595 3.45596 8.18332 9.69391 3.33391 2.79888 3.05958 63.3185 
Branch_type:  BRANCH_CONDITIONAL:  Count Percentage: 26.3254 2.09831 1.5393 3.86457 2.04745 3.99283 1.24759 58.8845 
Branch_type:  BRANCH_DIRECT_CALL:  Count Percentage: 0.391287 1.2672 0.768944 2.87009 3.03196 2.63375 1.24132 87.7955 
Branch_type:  BRANCH_INDIRECT_CALL:  Count Percentage: 9.55481 0 2.99431 0 0 1.71091 3.28859 82.4514 
Branch_type:  BRANCH_RETURN:  Count Percentage: 7.91486 1.39208 1.04642 4.08364 3.64945 4.32702 1.57551 76.011 
Branch_type:  BRANCH_DIRECT_JUMP:  Total Count: 42127 57460 49122 79301 32535 66084 16814 755751 
Branch_type:  BRANCH_INDIRECT:  Total Count: 22597 12686 30039 35584 12238 10274 11231 232427 
Branch_type:  BRANCH_CONDITIONAL:  Total Count: 3256597 259572 190420 478068 253281 493935 154334 7284329 
Branch_type:  BRANCH_DIRECT_CALL:  Total Count: 7349 23800 14442 53905 56945 49466 23314 1648940 
Branch_type:  BRANCH_INDIRECT_CALL:  Total Count: 32631 0 10226 0 0 5843 11231 281583 
Branch_type:  BRANCH_RETURN:  Total Count: 175743 30910 23235 90674 81033 96078 34983 1687763 
Number of unique branch instructions: 9803
Upper 32 bits: 
aaaa
ffff
ffff0000
Unique upper 32 bits: 3
Unique upper 36 bits: 3
Unique upper 40 bits: 5
Unique upper 44 bits: 32
Unique upper 48 bits: 154
Offset_3 4033
Offset_4 245
Offset_5 448
Offset_6 499
Offset_7 572
Offset_8 504
Offset_9 464
Offset_10 376
Offset_11 300
Offset_12 269
Offset_13 203
Offset_14 225
Offset_15 184
Offset_16 220
Offset_17 143
Offset_18 118
Offset_19 234
Offset_20 137
Offset_21 235
Offset_22 389
Offset_23 241
Offset_24 331
Offset_25 88
Offset_47 82
decode_dispatch_called: 24997712 67.5939
Dispatch_width: 0 13442407 53.7745 36.3483
Dispatch_width: 1 887468 3.5502 2.39972
Dispatch_width: 2 935453 3.74215 2.52947
Dispatch_width: 3 587701 2.35102 1.58915
Dispatch_width: 4 4551625 18.2082 12.3076
Dispatch_width: 5 286658 1.14674 0.775124
Dispatch_width: 6 4306400 17.2272 11.6445
Empty_decode_cycles: 11984481 32.4061
ROB_full_cycles: 7021318 18.9857
Starvation_cycles_per_kilo_instr: 256.545
Starvation_cycles_per_kilo_instr_3: 208.162
Starvation_cycles_per_kilo_instr_0: 184.056
Branch_type_1  (3,1)  (4,9)  (5,37)  (6,68)  (7,113)  (8,128)  (9,123)  (10,97)  (11,67)  (12,43)  (13,5)  (14,2)  (15,3)  (16,4)  (18,1)  (19,4)  (20,2)  (21,1)  (22,3)  (23,2)  (24,10)  (25,12) 
Branch_type_2  (3,1)  (5,1)  (8,3)  (9,3)  (12,1)  (13,1)  (14,1)  (16,3)  (17,2)  (20,2)  (21,2)  (23,5)  (24,1)  (47,38) 
Branch_type_3  (3,4031)  (4,236)  (5,406)  (6,416)  (7,430)  (8,314)  (9,255)  (10,152)  (11,120)  (12,50)  (13,4) 
Branch_type_4  (6,3)  (7,8)  (8,24)  (9,52)  (10,60)  (11,57)  (12,96)  (13,88)  (14,99)  (15,86)  (16,98)  (17,64)  (18,53)  (19,114)  (20,72)  (21,124)  (22,206)  (23,136)  (24,192)  (25,72) 
Branch_type_5  (8,2)  (9,1)  (10,3)  (11,5)  (12,3)  (13,14)  (14,16)  (15,11)  (16,20)  (17,11)  (18,16)  (19,12)  (20,10)  (21,13)  (22,42)  (23,26)  (24,37) 
Branch_type_6  (5,4)  (6,12)  (7,21)  (8,33)  (9,30)  (10,64)  (11,51)  (12,76)  (13,91)  (14,107)  (15,84)  (16,95)  (17,66)  (18,48)  (19,104)  (20,51)  (21,95)  (22,138)  (23,72)  (24,91)  (25,4)  (47,44) 
Unique trigger count: 
L2BTB1 1536 4
L2BTB2 1536 4
L2BTB3 1536 4
L2BTB4 224 4
