
*** ChampSim Multicore Out-of-Order Simulator ***

Warmup Instructions: 50000000
Simulation Instructions: 50000000
Number of CPUs: 1
LLC sets: 2048
LLC ways: 16
Off-chip DRAM Size: 4096 MB Channels: 1 Width: 64-bit Data Rate: 6400 MT/s
CPU 0 runs ./micro_traces/srv5.trace.gz
.gz
ITLB has LRU replacement policy
DTLB has LRU replacement policy
STLB has LRU replacement policy
FDIP Prefetcher at L1I
L1I has LRU replacement policy
L1D has LRU replacement policy
Initialize SRRIP state for L2C
Initialize DRRIP state for LLC
Heartbeat CPU 0 instructions: 10000002 cycles: 2797503 heartbeat IPC: 3.57462 cumulative IPC: 3.57462 (Simulation time: 0 hr 1 min 36 sec) 
Heartbeat CPU 0 instructions: 20000002 cycles: 5594525 heartbeat IPC: 3.57523 cumulative IPC: 3.57492 (Simulation time: 0 hr 3 min 13 sec) 
Heartbeat CPU 0 instructions: 30000002 cycles: 8392127 heartbeat IPC: 3.57449 cumulative IPC: 3.57478 (Simulation time: 0 hr 4 min 49 sec) 
Heartbeat CPU 0 instructions: 40000003 cycles: 11190429 heartbeat IPC: 3.5736 cumulative IPC: 3.57448 (Simulation time: 0 hr 6 min 27 sec) 
Heartbeat CPU 0 instructions: 50000001 cycles: 13987329 heartbeat IPC: 3.57539 cumulative IPC: 3.57466 (Simulation time: 0 hr 8 min 3 sec) 

Warmup complete CPU 0 instructions: 50000001 cycles: 13987329 (Simulation time: 0 hr 8 min 3 sec) 

Cycle: 20000000 FTQ IN: 56313534 FTQ occupancy: 17.6322 DECODE IN: 56313504 DECODE occupancy: 44.9792 ROB IN: 56313504 ROB occupancy: 270.898 ROB OUT: 56313473
Heartbeat CPU 0 instructions: 60000001 cycles: 23612485 heartbeat IPC: 1.03894 cumulative IPC: 1.03894 (Simulation time: 0 hr 9 min 21 sec) 
Cycle: 30000000 FTQ IN: 10383773 FTQ occupancy: 5.37951 DECODE IN: 10383788 DECODE occupancy: 10.3832 ROB IN: 10383784 ROB occupancy: 92.1323 ROB OUT: 10383793
Heartbeat CPU 0 instructions: 70000003 cycles: 33157806 heartbeat IPC: 1.04763 cumulative IPC: 1.04327 (Simulation time: 0 hr 10 min 36 sec) 
Cycle: 40000000 FTQ IN: 10463673 FTQ occupancy: 5.17207 DECODE IN: 10463659 DECODE occupancy: 9.92833 ROB IN: 10463663 ROB occupancy: 90.4582 ROB OUT: 10463626
Heartbeat CPU 0 instructions: 80000001 cycles: 42793656 heartbeat IPC: 1.03779 cumulative IPC: 1.04144 (Simulation time: 0 hr 11 min 54 sec) 
Cycle: 50000000 FTQ IN: 10224976 FTQ occupancy: 5.44179 DECODE IN: 10224988 DECODE occupancy: 10.4588 ROB IN: 10224988 ROB occupancy: 92.7192 ROB OUT: 10224851
Heartbeat CPU 0 instructions: 90000001 cycles: 52503502 heartbeat IPC: 1.02988 cumulative IPC: 1.03852 (Simulation time: 0 hr 13 min 10 sec) 
Cycle: 60000000 FTQ IN: 10451857 FTQ occupancy: 5.19249 DECODE IN: 10451874 DECODE occupancy: 9.99516 ROB IN: 10451874 ROB occupancy: 90.7079 ROB OUT: 10451993
Heartbeat CPU 0 instructions: 100000002 cycles: 62046503 heartbeat IPC: 1.04789 cumulative IPC: 1.04038 (Simulation time: 0 hr 14 min 24 sec) 
Finished CPU 0 instructions: 50000001 cycles: 48059174 cumulative IPC: 1.04038 (Simulation time: 0 hr 14 min 24 sec) 

ChampSim completed all CPUs

Region of Interest Statistics

CPU 0 cumulative IPC: 1.04038 instructions: 50000001 cycles: 48059174
 Fetch stage stalled: 74.5674  Sim cycles: 48059174 fetch stall cycle: 35836487
 Empty decode stage: 80.9723  Sim cycles: 48059174 fetch stall cycle: 38914641
ITLB TOTAL     ACCESS:    6043562  HIT:    5546719  MISS:     496843  HIT %:     91.779  MISS %:    8.22103   MPKI: 9.93686
ITLB LOAD TRANSLATION INSTRUCTION	ACCESS:    5961936  HIT:    5465093  MISS:     496843  HIT %:    91.6664  MISS %:    8.33358  MPKI: 9.93686
ITLB TRANSLATION FROM L1D PREFETCHER INSTRUCTION	ACCESS:      81626  HIT:      81626  MISS:          0  HIT %:        100  MISS %:          0  MPKI: 0

ITLB AVERAGE MISS LATENCY: 9.05943 cycles
ITLB RQ	ACCESS:    7681351	FORWARD:          0	MERGED:    1366721	TO_CACHE:    6314630

DTLB TOTAL     ACCESS:    9638749  HIT:    9163489  MISS:     475260  HIT %:    95.0693  MISS %:    4.93072   MPKI: 9.5052
DTLB LOAD TRANSLATION DATA	ACCESS:    9638749  HIT:    9163489  MISS:     475260  HIT %:    95.0693  MISS %:    4.93072  MPKI: 9.5052

DTLB AVERAGE MISS LATENCY: 9.34967 cycles
DTLB RQ	ACCESS:   13870719	FORWARD:          0	MERGED:    4200371	TO_CACHE:    9670348

STLB TOTAL     ACCESS:    1219859  HIT:    1217615  MISS:       2244  HIT %:     99.816  MISS %:   0.183956   MPKI: 0.04488
STLB LOAD TRANSLATION INSTRUCTION	ACCESS:     496843  HIT:     496535  MISS:        308  HIT %:     99.938  MISS %:  0.0619914  MPKI: 0.00616
STLB LOAD TRANSLATION DATA	ACCESS:     475052  HIT:     473137  MISS:       1915  HIT %:    99.5969  MISS %:   0.403114  MPKI: 0.0383
STLB TRANSLATION FROM L1D PREFETCHER DATA	ACCESS:     247964  HIT:     247943  MISS:         21  HIT %:    99.9915  MISS %: 0.00846897  MPKI: 0.00042

STLB AVERAGE MISS LATENCY: 75.6034 cycles
STLB RQ	ACCESS:    1340215	FORWARD:          0	MERGED:     120320	TO_CACHE:    1219895

STLB Hit, L1D data hit: 0
STLB Hit, L2C data hit: 0
STLB Hit, LLC data hit: 0
STLB Hit, LLC data miss: 0
STLB STLB hints to L2: 0
L1D TOTAL     ACCESS:   13636372  HIT:   12513807  MISS:    1122565  HIT %:    91.7679  MISS %:    8.23214   MPKI: 22.4513
L1D LOAD DATA	ACCESS:    7040091  HIT:    6299592  MISS:     740499  HIT %:    89.4817  MISS %:    10.5183  MPKI: 14.81
L1D RFO DATA	ACCESS:    6267912  HIT:    5980951  MISS:     286961  HIT %:    95.4217  MISS %:    4.57826  MPKI: 5.73922
L1D PREFETCH DATA	ACCESS:     328369  HIT:     233264  MISS:      95105  HIT %:    71.0372  MISS %:    28.9628  MPKI: 1.9021

L1D PREFETCH  REQUESTED:     736589  ISSUED:     736589  USEFUL:      34620  USELESS:      67776
L1D USEFUL LOAD PREFETCHES:      34620 PREFETCH ISSUED TO LOWER LEVEL:     102450  ACCURACY: 33.7921
 TIMELY PREFETCHES:      34620 LATE PREFETCHES: 7284 DROPPED PREFETCHES: 4
L1D AVERAGE MISS LATENCY: 242897 cycles
L1D RQ	ACCESS:   11058992	FORWARD:          0	MERGED:    3820459	TO_CACHE:    7073272
L1D WQ	ACCESS:    6955398	FORWARD:     165626	MERGED:     157951	TO_CACHE:    6797447
L1D PQ	ACCESS:     368477	FORWARD:          0	MERGED:          0	TO_CACHE:     368112

L1D UNIQUE REGIONS ACCESSED: 0
L1D REGIONS CONFLICTS: 0
L1D Cross Page Prefetch Requests: 6930
L1D Same Page Prefetch Requests: 755679
L1D ROI Sum of L1D PQ occupancy: 4684358
L1D PREFETCHES PUSHED FROM L2C: 0
L1I TOTAL     ACCESS:    7142343  HIT:    4365607  MISS:    2776736  HIT %:    61.1229  MISS %:    38.8771   MPKI: 55.5347
L1I LOAD INSTRUCTION	ACCESS:    6777566  HIT:    4000830  MISS:    2776736  HIT %:    59.0305  MISS %:    40.9695  MPKI: 55.5347
L1I PREFETCH INSTRUCTION	ACCESS:     364777  HIT:     364777  MISS:          0  HIT %:        100  MISS %:          0  MPKI: 0

L1I PREFETCH  REQUESTED:     899495  ISSUED:     899495  USEFUL:          0  USELESS:          0
L1I USEFUL LOAD PREFETCHES:          0 PREFETCH ISSUED TO LOWER LEVEL:          0  ACCURACY: -nan
 TIMELY PREFETCHES:          0 LATE PREFETCHES: 0 DROPPED PREFETCHES: 0
L1I AVERAGE MISS LATENCY: 17.3085 cycles
L1I RQ	ACCESS:    9426457	FORWARD:          0	MERGED:    2386542	TO_CACHE:    7039915
L1I PQ	ACCESS:     899495	FORWARD:          0	MERGED:     258059	TO_CACHE:     641436

L1BTB TOTAL     ACCESS:    5670575  HIT:    2029034  MISS:    3641541  HIT %:    35.7818  MISS %:    64.2182   MPKI: 72.8308
L1BTB BRANCH_DIRECT_JUMP	ACCESS:     548407 HIT:     143253 MISS:     405154 AVERAGE STALL: 31.9874 AVERAGE FETCH STALL: 17.4885 AVERAGE FETCH QUEUE STALL: 6.6098 AVERAGE DECODE STALL: 7.00779 AVERAGE EXECUTE STALL: 1.08895e+15
L1BTB BRANCH_INDIRECT	ACCESS:     182571 HIT:      65574 MISS:     116997 AVERAGE STALL: 58.5604 AVERAGE FETCH STALL: 11.5965 AVERAGE FETCH QUEUE STALL: 5.18605 AVERAGE DECODE STALL: 6.19821 AVERAGE EXECUTE STALL: 34.6155
L1BTB BRANCH_CONDITIONAL	ACCESS:    2702915 HIT:    1405417 MISS:    1297498 AVERAGE STALL: 34.0011 AVERAGE FETCH STALL: 22.6745 AVERAGE FETCH QUEUE STALL: 4.61072 AVERAGE DECODE STALL: 5.94603 AVERAGE EXECUTE STALL: 6.32518e+14
L1BTB BRANCH_DIRECT_CALL	ACCESS:     946371 HIT:     104575 MISS:     841796 AVERAGE STALL: 33.3774 AVERAGE FETCH STALL: 21.5499 AVERAGE FETCH QUEUE STALL: 5.30947 AVERAGE DECODE STALL: 5.73963 AVERAGE EXECUTE STALL: 8.63531e+14
L1BTB BRANCH_INDIRECT_CALL	ACCESS:     171970 HIT:      21098 MISS:     150872 AVERAGE STALL: 74.6677 AVERAGE FETCH STALL: 13.9562 AVERAGE FETCH QUEUE STALL: 2.09155 AVERAGE DECODE STALL: 5.46522 AVERAGE EXECUTE STALL: 52.6524
L1BTB BRANCH_RETURN	ACCESS:    1118341 HIT:     289117 MISS:     829224 AVERAGE STALL: 35.1105 AVERAGE FETCH STALL: 17.4414 AVERAGE FETCH QUEUE STALL: 2.71588 AVERAGE DECODE STALL: 4.83124 AVERAGE EXECUTE STALL: 3.60612e+14
L1BTB BRANCH_OTHER ACCESS:          0 HIT:          0 MISS:          0 AVERAGE STALL: -nan AVERAGE FETCH STALL: -nan AVERAGE FETCH QUEUE STALL: -nan AVERAGE DECODE STALL: -nan AVERAGE EXECUTE STALL: -nan
L1BTB TOTAL ROB OCCUPANCY AT BTB MISS: 2.13681

L2BTB TOTAL     ACCESS:    3616140  HIT:    3488161  MISS:     127979  HIT %:    96.4609  MISS %:    3.53911   MPKI: 2.55958
L2BTB BRANCH_DIRECT_JUMP	ACCESS:     401028 HIT:     388172 MISS:      12856 AVERAGE STALL: 31.9874 AVERAGE FETCH STALL: 17.4885 AVERAGE FETCH QUEUE STALL: 6.6098 AVERAGE DECODE STALL: 7.00779 AVERAGE EXECUTE STALL: 1.08895e+15
L2BTB BRANCH_INDIRECT	ACCESS:     106642 HIT:     103502 MISS:       3140 AVERAGE STALL: 58.5604 AVERAGE FETCH STALL: 11.5965 AVERAGE FETCH QUEUE STALL: 5.18605 AVERAGE DECODE STALL: 6.19821 AVERAGE EXECUTE STALL: 34.6155
L2BTB BRANCH_CONDITIONAL	ACCESS:    1297498 HIT:    1267924 MISS:      29574 AVERAGE STALL: 34.0011 AVERAGE FETCH STALL: 22.6745 AVERAGE FETCH QUEUE STALL: 4.61072 AVERAGE DECODE STALL: 5.94603 AVERAGE EXECUTE STALL: 6.32518e+14
L2BTB BRANCH_DIRECT_CALL	ACCESS:     841796 HIT:     820378 MISS:      21418 AVERAGE STALL: 33.3774 AVERAGE FETCH STALL: 21.5499 AVERAGE FETCH QUEUE STALL: 5.30947 AVERAGE DECODE STALL: 5.73963 AVERAGE EXECUTE STALL: 8.63531e+14
L2BTB BRANCH_INDIRECT_CALL	ACCESS:     141362 HIT:     130161 MISS:      11201 AVERAGE STALL: 74.6677 AVERAGE FETCH STALL: 13.9562 AVERAGE FETCH QUEUE STALL: 2.09155 AVERAGE DECODE STALL: 5.46522 AVERAGE EXECUTE STALL: 52.6524
L2BTB BRANCH_RETURN	ACCESS:     827814 HIT:     778024 MISS:      49790 AVERAGE STALL: 35.1105 AVERAGE FETCH STALL: 17.4414 AVERAGE FETCH QUEUE STALL: 2.71588 AVERAGE DECODE STALL: 4.83124 AVERAGE EXECUTE STALL: 3.60612e+14
L2BTB BRANCH_OTHER ACCESS:          0 HIT:          0 MISS:          0 AVERAGE STALL: -nan AVERAGE FETCH STALL: -nan AVERAGE FETCH QUEUE STALL: -nan AVERAGE DECODE STALL: -nan AVERAGE EXECUTE STALL: -nan
L2BTB TOTAL ROB OCCUPANCY AT BTB MISS: 60.8011

L2C TOTAL     ACCESS:    4513867  HIT:    4009957  MISS:     503910  HIT %:    88.8364  MISS %:    11.1636   MPKI: 10.0782
L2C LOAD INSTRUCTION	ACCESS:    2776736  HIT:    2493743  MISS:     282993  HIT %:    89.8084  MISS %:    10.1916  MPKI: 5.65986
L2C LOAD TRANSLATION INSTRUCTION	ACCESS:        352  HIT:        112  MISS:        240  HIT %:    31.8182  MISS %:    68.1818  MPKI: 0.0048
L2C LOAD DATA	ACCESS:     733184  HIT:     655045  MISS:      78139  HIT %:    89.3425  MISS %:    10.6575  MPKI: 1.56278
L2C RFO DATA	ACCESS:     286883  HIT:     235123  MISS:      51760  HIT %:    81.9578  MISS %:    18.0422  MPKI: 1.0352
L2C PREFETCH DATA	ACCESS:     190871  HIT:     116573  MISS:      74298  HIT %:    61.0742  MISS %:    38.9258  MPKI: 1.48596
L2C WRITEBACK DATA	ACCESS:     523788  HIT:     508769  MISS:      15019  HIT %:    97.1326  MISS %:    2.86738  MPKI: 0.30038
L2C LOAD TRANSLATION DATA	ACCESS:       2016  HIT:        567  MISS:       1449  HIT %:     28.125  MISS %:     71.875  MPKI: 0.02898
L2C TRANSLATION FROM L1D PREFETCHER DATA	ACCESS:         37  HIT:         25  MISS:         12  HIT %:    67.5676  MISS %:    32.4324  MPKI: 0.00024

L2C PREFETCH  REQUESTED:      95994  ISSUED:      95994  USEFUL:       9047  USELESS:      65669
L2C USEFUL LOAD PREFETCHES:       9047 PREFETCH ISSUED TO LOWER LEVEL:      74672  ACCURACY: 12.1157
 TIMELY PREFETCHES:       9047 LATE PREFETCHES: 374 DROPPED PREFETCHES: 0
L2C AVERAGE MISS LATENCY: 38.2831 cycles
L2C RQ	ACCESS:    3799256	FORWARD:          0	MERGED:          0	TO_CACHE:    3799209
L2C WQ	ACCESS:     523788	FORWARD:         47	MERGED:          0	TO_CACHE:     523788
L2C PQ	ACCESS:     198444	FORWARD:          0	MERGED:       3673	TO_CACHE:     194771

L2C Dense regions hint from L2: 0
PSCL5 TOTAL     ACCESS:       4500  HIT:       2250  MISS:       2250  HIT %:         50  MISS %:         50   MPKI: 0.045
PSCL5 LOAD TRANSLATION INSTRUCTION	ACCESS:       4426  HIT:       2213  MISS:       2213  HIT %:         50  MISS %:         50  MPKI: 0.04426
PSCL5 TRANSLATION FROM L1D PREFETCHER INSTRUCTION	ACCESS:         74  HIT:         37  MISS:         37  HIT %:         50  MISS %:         50  MPKI: 0.00074


PSCL4 TOTAL     ACCESS:       3871  HIT:       1933  MISS:       1938  HIT %:    49.9354  MISS %:    50.0646   MPKI: 0.03876
PSCL4 LOAD TRANSLATION INSTRUCTION	ACCESS:       2803  HIT:       1908  MISS:        895  HIT %:    68.0699  MISS %:    31.9301  MPKI: 0.0179
PSCL4 TRANSLATION FROM L1D PREFETCHER INSTRUCTION	ACCESS:         44  HIT:         25  MISS:         19  HIT %:    56.8182  MISS %:    43.1818  MPKI: 0.00038
PSCL4 LOAD TRANSLATION DATA	ACCESS:       1018  HIT:          0  MISS:       1018  HIT %:          0  MISS %:        100  MPKI: 0.02036
PSCL4 TRANSLATION FROM L1D PREFETCHER DATA	ACCESS:          6  HIT:          0  MISS:          6  HIT %:          0  MISS %:        100  MPKI: 0.00012


PSCL3 TOTAL     ACCESS:       3829  HIT:       1909  MISS:       1920  HIT %:    49.8564  MISS %:    50.1436   MPKI: 0.0384
PSCL3 LOAD TRANSLATION INSTRUCTION	ACCESS:       2329  HIT:       1878  MISS:        451  HIT %:    80.6355  MISS %:    19.3645  MPKI: 0.00902
PSCL3 TRANSLATION FROM L1D PREFETCHER INSTRUCTION	ACCESS:         38  HIT:         31  MISS:          7  HIT %:    81.5789  MISS %:    18.4211  MPKI: 0.00014
PSCL3 LOAD TRANSLATION DATA	ACCESS:       1438  HIT:          0  MISS:       1438  HIT %:          0  MISS %:        100  MPKI: 0.02876
PSCL3 TRANSLATION FROM L1D PREFETCHER DATA	ACCESS:         24  HIT:          0  MISS:         24  HIT %:          0  MISS %:        100  MPKI: 0.00048


PSCL2 TOTAL     ACCESS:       4359  HIT:       2109  MISS:       2250  HIT %:    48.3827  MISS %:    51.6173   MPKI: 0.045
PSCL2 LOAD TRANSLATION INSTRUCTION	ACCESS:       2385  HIT:       2072  MISS:        313  HIT %:    86.8763  MISS %:    13.1237  MPKI: 0.00626
PSCL2 TRANSLATION FROM L1D PREFETCHER INSTRUCTION	ACCESS:         37  HIT:         37  MISS:          0  HIT %:        100  MISS %:          0  MPKI: 0
PSCL2 LOAD TRANSLATION DATA	ACCESS:       1900  HIT:          0  MISS:       1900  HIT %:          0  MISS %:        100  MPKI: 0.038
PSCL2 TRANSLATION FROM L1D PREFETCHER DATA	ACCESS:         37  HIT:          0  MISS:         37  HIT %:          0  MISS %:        100  MPKI: 0.00074


LLC TOTAL     ACCESS:     565253  HIT:     535579  MISS:      29674  HIT %:    94.7503  MISS %:    5.24968   MPKI: 0.59348
LLC LOAD INSTRUCTION	ACCESS:     282993  HIT:     281838  MISS:       1155  HIT %:    99.5919  MISS %:   0.408137  MPKI: 0.0231
LLC LOAD TRANSLATION INSTRUCTION	ACCESS:        240  HIT:        202  MISS:         38  HIT %:    84.1667  MISS %:    15.8333  MPKI: 0.00076
LLC LOAD DATA	ACCESS:      77778  HIT:      73975  MISS:       3803  HIT %:    95.1104  MISS %:    4.88956  MPKI: 0.07606
LLC RFO DATA	ACCESS:      51740  HIT:      37854  MISS:      13886  HIT %:     73.162  MISS %:     26.838  MPKI: 0.27772
LLC PREFETCH DATA	ACCESS:      74672  HIT:      64306  MISS:      10366  HIT %:     86.118  MISS %:     13.882  MPKI: 0.20732
LLC WRITEBACK DATA	ACCESS:      76369  HIT:      76068  MISS:        301  HIT %:    99.6059  MISS %:   0.394139  MPKI: 0.00602
LLC LOAD TRANSLATION DATA	ACCESS:       1449  HIT:       1324  MISS:        125  HIT %:    91.3734  MISS %:    8.62664  MPKI: 0.0025
LLC TRANSLATION FROM L1D PREFETCHER DATA	ACCESS:         12  HIT:         12  MISS:          0  HIT %:        100  MISS %:          0  MPKI: 0

LLC AVERAGE MISS LATENCY: 154.474 cycles
LLC RQ	ACCESS:     414219	FORWARD:          0	MERGED:          0	TO_CACHE:     414212
LLC WQ	ACCESS:      76369	FORWARD:          7	MERGED:          0	TO_CACHE:      76369
LLC PQ	ACCESS:      74672	FORWARD:          0	MERGED:          0	TO_CACHE:      74672

LLC Dense regions hint to LLC: 0

RAW hits: 1576481
Loads Generated: 12635471
Loads sent to L1D: 11058992
Stores Generated: 6955385
Stores sent to L1D: 6955398
Major fault: 0 Minor fault: 2591
Allocated PAGES: 2591

stream: 
stream:times selected: 1191525
stream:pref_filled: 121675
stream:pref_useful: 24569
stream:pref_late: 6562
stream:misses: 7940
stream:misses_by_poll: 0

CS: 
CS:times selected: 181070
CS:pref_filled: 60168
CS:pref_useful: 36582
CS:pref_late: 6478
CS:misses: 15619
CS:misses_by_poll: 0

CPLX: 
CPLX:times selected: 1009387
CPLX:pref_filled: 20166
CPLX:pref_useful: 4565
CPLX:pref_late: 2946
CPLX:misses: 92759
CPLX:misses_by_poll: 1

NL_L1: 
NL:times selected: 20234
NL:pref_filled: 684
NL:pref_useful: 346
NL:pref_late: 287
NL:misses: 1650
NL:misses_by_poll: 0

total selections: 2402216
total_filled: 95105
total_useful: 34620
total_late: 17465
total_polluted: 1
total_misses_after_warmup: 773680
conflicts: 5752226

test: 115789

DRAM Statistics
 CHANNEL 0
 RQ ROW_BUFFER_HIT:      10796  ROW_BUFFER_MISS:      18568
 DBUS_CONGESTED:          8
 WQ ROW_BUFFER_HIT:       1594  ROW_BUFFER_MISS:      12403  FULL:          0

 AVG_CONGESTED_CYCLE: 5

CPU 0 Branch Prediction Accuracy: 99.8098% MPKI: 0.34798 Average ROB Occupancy at Mispredict: 98.561
Branch types
NOT_BRANCH: 40851575 81.7031%
BRANCH_DIRECT_JUMP: 548407 1.09681%
BRANCH_INDIRECT: 182571 0.365142%
BRANCH_CONDITIONAL: 6180288 12.3606%
BRANCH_DIRECT_CALL: 946371 1.89274%
BRANCH_INDIRECT_CALL: 171970 0.34394%
BRANCH_RETURN: 1118341 2.23668%
BRANCH_OTHER: 0 0%

DRAM PAGES: 1048576
Allocated PAGES: 2591
Average_ROB_Occupancy: 92.3847
Average_Decode_Occupancy: 10.1688
Average_FTQ_Occupancy: 5.28176
Indirect max targets: 14 Average targets: 1.17572
Branch_type:  BRANCH_DIRECT_JUMP:  Count Percentage: 3.65457 5.30925 4.21506 2.77703 8.1844 6.01068 6.80714 63.0419 
Branch_type:  BRANCH_INDIRECT:  Count Percentage: 11.7748 3.41525 2.56267 0 13.0274 2.80817 16.5336 49.8781 
Branch_type:  BRANCH_CONDITIONAL:  Count Percentage: 21.0026 3.04908 2.46823 2.35861 3.75547 4.6324 3.16229 59.5714 
Branch_type:  BRANCH_DIRECT_CALL:  Count Percentage: 0.390156 1.76233 0.740935 1.48346 5.0914 2.62411 0.741891 87.1657 
Branch_type:  BRANCH_INDIRECT_CALL:  Count Percentage: 9.56376 0 2.99636 0.000876043 0.848009 1.715 0.00759237 84.8684 
Branch_type:  BRANCH_RETURN:  Count Percentage: 4.2585 2.00742 2.15224 2.31797 4.80674 5.13363 3.51603 75.8075 
Branch_type:  BRANCH_DIRECT_JUMP:  Total Count: 40113 58275 46265 30481 89833 65974 74716 691956 
Branch_type:  BRANCH_INDIRECT:  Total Count: 43117 12506 9384 0 47704 10283 60543 182644 
Branch_type:  BRANCH_CONDITIONAL:  Total Count: 2596318 376925 305121 291569 464248 572653 390920 7364161 
Branch_type:  BRANCH_DIRECT_CALL:  Total Count: 7352 33209 13962 27954 95941 49448 13980 1642529 
Branch_type:  BRANCH_INDIRECT_CALL:  Total Count: 32751 0 10261 3 2904 5873 26 290631 
Branch_type:  BRANCH_RETURN:  Total Count: 94866 44719 47945 51637 107079 114361 78326 1688751 
Number of unique branch instructions: 10653
Upper 32 bits: 
aaaa
ffff
ffff0000
Unique upper 32 bits: 3
Unique upper 36 bits: 3
Unique upper 40 bits: 5
Unique upper 44 bits: 32
Unique upper 48 bits: 158
Offset_3 4405
Offset_4 260
Offset_5 479
Offset_6 541
Offset_7 634
Offset_8 576
Offset_9 510
Offset_10 417
Offset_11 342
Offset_12 308
Offset_13 238
Offset_14 244
Offset_15 196
Offset_16 226
Offset_17 163
Offset_18 144
Offset_19 259
Offset_20 141
Offset_21 235
Offset_22 409
Offset_23 241
Offset_24 343
Offset_25 117
Offset_47 92
Offset_64 2
decode_dispatch_called: 20679479 43.0292
Dispatch_width: 0 10352382 50.0611 21.5409
Dispatch_width: 1 634906 3.07022 1.32109
Dispatch_width: 2 822331 3.97656 1.71108
Dispatch_width: 3 582635 2.81745 1.21233
Dispatch_width: 4 1655466 8.00536 3.44464
Dispatch_width: 5 440213 2.12874 0.915981
Dispatch_width: 6 6191546 29.9405 12.8832
Empty_decode_cycles: 27379695 56.9708
ROB_full_cycles: 1626337 3.38403
Starvation_cycles_per_kilo_instr: 402.413
Starvation_cycles_per_kilo_instr_3: 381.456
Starvation_cycles_per_kilo_instr_0: 361.057
Branch_type_1  (3,1)  (4,9)  (5,39)  (6,74)  (7,123)  (8,151)  (9,134)  (10,110)  (11,76)  (12,47)  (13,11)  (14,2)  (15,3)  (16,4)  (18,1)  (19,5)  (20,2)  (21,1)  (22,3)  (23,2)  (24,10)  (25,12) 
Branch_type_2  (3,1)  (4,1)  (5,1)  (8,4)  (9,4)  (10,1)  (12,1)  (13,1)  (14,1)  (16,3)  (17,2)  (20,2)  (21,2)  (23,5)  (24,1)  (47,41) 
Branch_type_3  (3,4403)  (4,250)  (5,435)  (6,451)  (7,481)  (8,354)  (9,279)  (10,168)  (11,130)  (12,54)  (13,10)  (64,2) 
Branch_type_4  (6,3)  (7,8)  (8,26)  (9,55)  (10,66)  (11,70)  (12,115)  (13,101)  (14,110)  (15,93)  (16,99)  (17,75)  (18,61)  (19,126)  (20,72)  (21,124)  (22,214)  (23,136)  (24,198)  (25,101) 
Branch_type_5  (8,3)  (9,1)  (10,4)  (11,5)  (12,3)  (13,14)  (14,16)  (15,11)  (16,22)  (17,11)  (18,23)  (19,14)  (20,11)  (21,13)  (22,43)  (23,26)  (24,38) 
Branch_type_6  (5,4)  (6,13)  (7,22)  (8,38)  (9,37)  (10,68)  (11,61)  (12,88)  (13,101)  (14,115)  (15,89)  (16,98)  (17,75)  (18,59)  (19,114)  (20,54)  (21,95)  (22,149)  (23,72)  (24,96)  (25,4)  (47,51) 
aaaaab1fc620: 2ac9e77e 2aca717c 2aca8eff 2acaf6bc 2acaf9aa 2acaf9f1 2acb1abc 2acb1b7f 2acd4e22 2acdb712 2acf5f9e 2ad0ef44 2ad3f15c 2ad414e6 2ad60e42 2ad8609c 2ad99830 2ada35cc 2ada4676 2ada6612 2adf183e 2adf30e5 2adf5602 2adf785c 2ae11572 2aeb2dcf 2aee101b 2aee1ae1 2b156a8c 2b156b61 2b156bea 2b167f35 2b177656 2b17feec 2b1a3e5a 
aaaaab1fc640: 2ac9ec07 2aca656e 2aca801d 2acaea11 2acaee73 2acb13ee 2acb1470 2acd462b 2ad0ef5d 2ad3f3fe 2ad86e9b 2ada1641 2ada4115 2ada6638 2adf30d4 2ae12e57 2aee1033 2b1693ab 2b16948c 2b169491 2b17d915 2b17fa85 2b17fccd 
aaaaab1fcb00: 2acf2d72 2acf3734 2acf604c 2acfa5b7 2ad397b5 2ad3b800 2ae8af7d 2ae8aff0 2ae9aaba 2aea9fc6 2aeaa358 2aee910b 2aee91cf 2aee928e 2aee92e4 2af6fe87 2af70dfe 2b16850c 2b16c4a2 2b1765f4 2b178094 2b17d925 2b17db06 2b17ec8f 
aaaaab1fcb10: 2acf2d95 2acf3758 2acf6052 2acfa5f4 2ad397c3 2ad3b81c 2ae8af88 2ae8affe 2ae9aacf 2aeaa017 2aeaa36d 2aee9114 2aee91d8 2aee934d 2aee9353 2af6fe8c 2af70e22 2b168526 2b16c542 2b176609 2b1780a3 2b17d95d 2b17db44 2b17ecac 
aaaaac68f310: 2ac9ec8c 2ac9fb44 2ac9fbd2 2aca59ab 2acac04c 2acaf6e0 2acaf6ec 2acaf6f9 2acaf700 2acaf708 2acf2d90 2ad3cfbd 2ad3cfc4 2ad3d000 2ad3f35f 2ad4955d 2ad49571 2ad4f3f2 2ad4f400 2ad5f240 2ad5f37c 2ad5f86a 2ad5f86f 2ad5f880 2ad5fc0d 2ad5fc14 2ad5fc21 2ad5fe1b 2ad873bb 2ad873e3 2ad8a6b2 2ad9086e 2ad93096 2ad9bbb2 2ada152c 2ada1554 2ada3332 2ada5522 2adf3130 2adf313c 2adf3a3f 2adf3bd9 2adf5788 2adf7a8d 2ae07f6b 2ae0857a 2ae0857e 2ae08630 2ae08634 2ae08637 2ae08642 2ae0866f 2ae086e4 2ae086ec 2ae08717 2ae0871b 2aee0170 2aee1d38 2aee75f4 2aee7662 2aee85ca 2aee85e4 2aee8eef 2af70b84 2af74e8f 2b17d843 
aaaaac690ef0: 2aca598b 2acb111b 2acb175f 2acb1772 2acbfaf4 2acbfb00 2acf374f 2acf6d43 2acfa5c8 2ad3baf1 2ad3d4ac 2ad3d4b8 2ad3f1cf 2ad486b2 2ad5a59b 2ad5fc64 2ad5fcf9 2ad6121c 2ad906e9 2ad907bf 2ad9bada 2ada16ce 2ada1ad5 2ada43df 2ada64c0 2ada72ee 2adeb71a 2adf3bcb 2adf7a38 2adf7c6a 2adf8872 2adf8880 2adf9959 2adf9abe 2ae07f78 2ae08503 2ae08754 2ae12e80 2aea3bea 2aecb509 2aee00b0 2aee2bdd 2aee5467 2aee5601 2aee8f20 2af703fd 2af7048b 2af74e74 
Unique trigger count: 
1 10153
2 549
3 89
4 31
5 16
6 9
7 7
8 2
9 3
10 2
11 1
12 1
13 1
14 3
16 2
19 2
23 1
24 2
35 1
48 1
66 1
BTB PER SET UNIQUE ADDR: 14 18 9 9 5 14 13 18 17 7 13 8 19 14 10 14 15 12 14 15 11 16 13 15 15 13 7 11 11 14 20 14 15 9 18 16 18 18 14 11 15 12 9 15 18 12 13 16 22 11 14 8 18 8 12 15 16 12 16 11 15 22 11 15 12 21 11 18 19 12 8 8 11 8 9 21 13 19 13 13 13 13 12 11 15 12 13 13 20 15 21 20 16 11 11 14 17 13 13 14 15 12 17 14 13 13 12 15 16 12 18 10 9 19 14 19 7 13 14 9 15 16 11 10 12 11 10 11 22 15 15 9 14 8 16 14 13 10 13 12 18 11 12 8 15 16 11 16 25 10 15 25 15 18 14 15 13 21 14 19 17 16 25 14 19 13 11 10 22 19 15 10 17 16 11 11 14 13 13 13 8 12 15 15 19 18 13 15 9 19 9 13 13 19 9 14 16 9 18 12 10 11 14 11 19 11 6 16 12 5 8 10 13 12 10 15 6 20 16 16 14 6 13 14 17 11 20 11 8 19 19 19 8 11 13 13 17 12 10 8 9 10 13 13 21 21 11 11 11 13 14 17 13 13 19 19 10 10 19 12 8 10 14 9 15 25 9 8 15 11 11 13 14 18 19 15 9 13 7 18 14 12 17 18 21 14 13 12 20 8 14 11 11 17 14 13 11 17 9 10 12 12 10 10 7 10 10 14 20 13 17 8 13 9 13 8 15 20 14 9 14 15 15 13 9 11 12 15 8 8 16 8 11 15 19 10 13 12 16 9 11 15 8 21 14 12 10 13 18 13 9 16 24 13 14 14 17 11 12 11 13 20 13 10 13 14 12 8 9 11 15 11 16 10 15 9 16 15 16 13 15 15 12 16 15 17 15 9 20 14 13 11 16 11 15 13 11 14 11 16 12 9 10 15 10 12 16 11 13 10 15 9 20 15 9 11 14 16 8 11 13 16 13 15 20 20 7 11 12 17 9 8 21 13 17 17 15 12 17 7 18 13 14 9 16 22 12 15 11 10 16 8 7 12 19 12 15 11 12 11 8 13 18 16 13 10 15 10 19 12 6 11 15 14 8 9 19 12 11 10 12 13 7 15 9 18 13 10 13 7 17 8 12 15 9 17 10 13 13 8 20 9 15 7 11 10 8 11 15 12 21 9 
BTB PER SET COUNT: 14 29 13 9 5 15 14 520 24 1474 16 447 66 15 10 18 15 13 16 1491 11 22 15 518 16 13 13 12 1476 14 1868 379 17 9 21 23 2954 2477 20 11 19 13 14 19 3829 14 14 17 5315 12 14 11 3389 10 13 19 17 12 18 106 18 6120 11 16 12 3994 12 21 5005 46 10 9 1479 8 10 5906 510 63 13 20 14 985 986 12 510 13 13 14 35 18 4060 512 19 2975 16 17 29 22 13 20 17 13 26 16 1000 15 13 15 17 782 389 11 1474 71 15 2974 9 14 507 1474 17 22 11 12 516 12 11 12 5163 17 511 10 15 13 21 14 509 10 13 13 44 13 13 11 17 23 1495 17 14905 11 17 9511 16 5403 2954 1009 14 118 519 31 27 19 7810 1001 531 1960 654 11 7852 528 16 997 14677 1152 12 1837 1479 518 985 1002 8 12 15 17 29 18 16 44 10 104 9 17 156 1020 9 1490 987 1475 189 12 13 12 1003 14 1503 822 6 2471 18 7 8 17 15 14 10 660 6 6265 17 18 987 6 13 15 20 11 779 1991 16 1507 277 4442 8 12 518 14 20 991 14 8 10 535 13 13 1809 5146 11 983 11 13 986 18 13 14 83 25 12 11 48 15 11 112 15 1475 1483 9716 980 9 16 16 16 15 20 60 91 16 429 15 9 82 15 13 244 23 6064 1002 13 13 141 10 227 13 2479 1494 19 15 17 99 10 12 13 503 11 14 9 10 10 14 29 16 20 448 13 13 986 9 15 6394 16 10 14 15 34 14 18 12 12 17 222 8 1012 1474 12 19 1003 10 1004 13 16 10 11 17 8 1532 1001 12 10 18 20 16 10 20 7852 1955 16 995 22 15 13 51 14 122 15 10 20 17 17 9 10 13 18 11 16 11 15 10 18 17 18 14 16 15 12 140 19 19 19 9 2639 14 119 63 20 16 19 15 1478 20 20 17 12 10 12 16 11 992 2948 11 13 2311 24 10 569 18 980 12 133 19 9 1922 14 502 14 17 6970 32 13 18 12 23 140 979 2731 19 32 267 17 12 21 7 489 14 18 10 24 3560 20 989 11 513 17 8 10 14 46 13 15 11 506 11 987 371 36 19 1009 10 20 10 61 12 500 12 34 515 111 12 20589 12 15 13 12 13 7 509 9 530 264 391 14 9 57 8 14 16 10 29 15 15 1988 8 8108 380 1245 8 13 11 9 14 1507 16 818 12 
