
*** ChampSim Multicore Out-of-Order Simulator ***

Warmup Instructions: 50000000
Simulation Instructions: 50000000
Number of CPUs: 1
LLC sets: 2048
LLC ways: 16
Off-chip DRAM Size: 4096 MB Channels: 1 Width: 64-bit Data Rate: 6400 MT/s
CPU 0 runs ./micro_traces/srv518.trace.gz
.gz
ITLB has LRU replacement policy
DTLB has LRU replacement policy
STLB has LRU replacement policy
CPU 0 L1I next line prefetcher
./conditional/srv518.cond
L1I has LRU replacement policy
L1D has LRU replacement policy
Initialize SRRIP state for L2C
Initialize DRRIP state for LLC
Heartbeat_Variant_0 : 1296 0.316406 per_variant_size: 0 1296 0 0 0 0 0 0 0 
Heartbeat_Variant_1 : 1199 0.292725 per_variant_size: 0 602 597 0 0 0 0 0 0 
Heartbeat_Variant_2 : 1266 0.309082 per_variant_size: 0 517 349 325 75 0 0 0 0 
Heartbeat_Variant_3 : 0 0 per_variant_size: 0 0 0 0 0 0 0 0 0 
Heartbeat_Variant_0_evicts 0 : 5951 1 : 181 2 : 199 3 : 0 
Heartbeat_Variant_1_evicts 0 : 159 1 : 0 2 : 354 3 : 0 
Heartbeat_Variant_2_evicts 0 : 176 1 : 359 2 : 0 3 : 0 
Heartbeat_Variant_3_evicts 0 : 0 1 : 0 2 : 0 3 : 0 
Heartbeat CPU 0 instructions: 10000002 cycles: 2798295 heartbeat IPC: 3.57361 cumulative IPC: 3.57361 (Simulation time: 0 hr 1 min 40 sec) 
Heartbeat_Variant_0 : 1326 0.32373 per_variant_size: 0 1326 0 0 0 0 0 0 0 
Heartbeat_Variant_1 : 1223 0.298584 per_variant_size: 0 592 631 0 0 0 0 0 0 
Heartbeat_Variant_2 : 1291 0.315186 per_variant_size: 0 506 356 356 73 0 0 0 0 
Heartbeat_Variant_3 : 0 0 per_variant_size: 0 0 0 0 0 0 0 0 0 
Heartbeat_Variant_0_evicts 0 : 5570 1 : 79 2 : 74 3 : 0 
Heartbeat_Variant_1_evicts 0 : 78 1 : 0 2 : 253 3 : 0 
Heartbeat_Variant_2_evicts 0 : 69 1 : 252 2 : 0 3 : 0 
Heartbeat_Variant_3_evicts 0 : 0 1 : 0 2 : 0 3 : 0 
Heartbeat CPU 0 instructions: 20000001 cycles: 5596416 heartbeat IPC: 3.57383 cumulative IPC: 3.57372 (Simulation time: 0 hr 3 min 18 sec) 
Heartbeat_Variant_0 : 1360 0.332031 per_variant_size: 0 1360 0 0 0 0 0 0 0 
Heartbeat_Variant_1 : 1257 0.306885 per_variant_size: 0 601 656 0 0 0 0 0 0 
Heartbeat_Variant_2 : 1326 0.32373 per_variant_size: 0 516 363 360 87 0 0 0 0 
Heartbeat_Variant_3 : 0 0 per_variant_size: 0 0 0 0 0 0 0 0 0 
Heartbeat_Variant_0_evicts 0 : 5664 1 : 150 2 : 143 3 : 0 
Heartbeat_Variant_1_evicts 0 : 143 1 : 0 2 : 327 3 : 0 
Heartbeat_Variant_2_evicts 0 : 143 1 : 321 2 : 0 3 : 0 
Heartbeat_Variant_3_evicts 0 : 0 1 : 0 2 : 0 3 : 0 
Heartbeat CPU 0 instructions: 30000000 cycles: 8392810 heartbeat IPC: 3.57603 cumulative IPC: 3.57449 (Simulation time: 0 hr 5 min 1 sec) 
Heartbeat_Variant_0 : 1362 0.33252 per_variant_size: 0 1362 0 0 0 0 0 0 0 
Heartbeat_Variant_1 : 1259 0.307373 per_variant_size: 0 597 662 0 0 0 0 0 0 
Heartbeat_Variant_2 : 1326 0.32373 per_variant_size: 0 514 360 361 91 0 0 0 0 
Heartbeat_Variant_3 : 0 0 per_variant_size: 0 0 0 0 0 0 0 0 0 
Heartbeat_Variant_0_evicts 0 : 5576 1 : 9 2 : 7 3 : 0 
Heartbeat_Variant_1_evicts 0 : 8 1 : 0 2 : 205 3 : 0 
Heartbeat_Variant_2_evicts 0 : 8 1 : 203 2 : 0 3 : 0 
Heartbeat_Variant_3_evicts 0 : 0 1 : 0 2 : 0 3 : 0 
Heartbeat CPU 0 instructions: 40000001 cycles: 11189636 heartbeat IPC: 3.57548 cumulative IPC: 3.57474 (Simulation time: 0 hr 6 min 39 sec) 
Heartbeat_Variant_0 : 1375 0.335693 per_variant_size: 0 1375 0 0 0 0 0 0 0 
Heartbeat_Variant_1 : 1263 0.30835 per_variant_size: 0 598 665 0 0 0 0 0 0 
Heartbeat_Variant_2 : 1328 0.324219 per_variant_size: 0 505 371 362 90 0 0 0 0 
Heartbeat_Variant_3 : 0 0 per_variant_size: 0 0 0 0 0 0 0 0 0 
Heartbeat_Variant_0_evicts 0 : 5807 1 : 83 2 : 78 3 : 0 
Heartbeat_Variant_1_evicts 0 : 78 1 : 0 2 : 287 3 : 0 
Heartbeat_Variant_2_evicts 0 : 73 1 : 283 2 : 0 3 : 0 
Heartbeat_Variant_3_evicts 0 : 0 1 : 0 2 : 0 3 : 0 
Heartbeat CPU 0 instructions: 50000000 cycles: 13986519 heartbeat IPC: 3.57541 cumulative IPC: 3.57487 (Simulation time: 0 hr 8 min 18 sec) 

Warmup complete CPU 0 instructions: 50000004 cycles: 13986520 (Simulation time: 0 hr 8 min 18 sec) 

Cycle: 20000000 FTQ IN: 58282808 FTQ occupancy: 19.5811 DECODE IN: 58282686 DECODE occupancy: 51.1571 ROB IN: 58282626 ROB occupancy: 311.499 ROB OUT: 58282307
Heartbeat_Variant_0 : 1376 0.335938 per_variant_size: 0 1376 0 0 0 0 0 0 0 
Heartbeat_Variant_1 : 1266 0.309082 per_variant_size: 0 596 670 0 0 0 0 0 0 
Heartbeat_Variant_2 : 1332 0.325195 per_variant_size: 0 505 370 341 116 0 0 0 0 
Heartbeat_Variant_3 : 0 0 per_variant_size: 0 0 0 0 0 0 0 0 0 
Heartbeat_Variant_0_evicts 0 : 5802 1 : 29 2 : 29 3 : 0 
Heartbeat_Variant_1_evicts 0 : 28 1 : 0 2 : 226 3 : 0 
Heartbeat_Variant_2_evicts 0 : 31 1 : 226 2 : 0 3 : 0 
Heartbeat_Variant_3_evicts 0 : 0 1 : 0 2 : 0 3 : 0 
Heartbeat CPU 0 instructions: 60000002 cycles: 21338051 heartbeat IPC: 1.36026 cumulative IPC: 1.36026 (Simulation time: 0 hr 10 min 1 sec) 
Heartbeat_Variant_0 : 1376 0.335938 per_variant_size: 0 1376 0 0 0 0 0 0 0 
Heartbeat_Variant_1 : 1266 0.309082 per_variant_size: 0 600 666 0 0 0 0 0 0 
Heartbeat_Variant_2 : 1338 0.32666 per_variant_size: 0 522 364 345 107 0 0 0 0 
Heartbeat_Variant_3 : 0 0 per_variant_size: 0 0 0 0 0 0 0 0 0 
Heartbeat_Variant_0_evicts 0 : 5685 1 : 42 2 : 45 3 : 0 
Heartbeat_Variant_1_evicts 0 : 42 1 : 0 2 : 245 3 : 0 
Heartbeat_Variant_2_evicts 0 : 47 1 : 249 2 : 0 3 : 0 
Heartbeat_Variant_3_evicts 0 : 0 1 : 0 2 : 0 3 : 0 
Heartbeat CPU 0 instructions: 70000000 cycles: 28622659 heartbeat IPC: 1.37276 cumulative IPC: 1.36648 (Simulation time: 0 hr 11 min 51 sec) 
Cycle: 30000000 FTQ IN: 13610392 FTQ occupancy: 11.6902 DECODE IN: 13610373 DECODE occupancy: 30.4869 ROB IN: 13610373 ROB occupancy: 225.027 ROB OUT: 13610344
Heartbeat_Variant_0 : 1377 0.336182 per_variant_size: 0 1377 0 0 0 0 0 0 0 
Heartbeat_Variant_1 : 1269 0.309814 per_variant_size: 0 608 661 0 0 0 0 0 0 
Heartbeat_Variant_2 : 1350 0.32959 per_variant_size: 0 517 379 341 113 0 0 0 0 
Heartbeat_Variant_3 : 0 0 per_variant_size: 0 0 0 0 0 0 0 0 0 
Heartbeat_Variant_0_evicts 0 : 5566 1 : 95 2 : 86 3 : 0 
Heartbeat_Variant_1_evicts 0 : 93 1 : 0 2 : 279 3 : 0 
Heartbeat_Variant_2_evicts 0 : 90 1 : 278 2 : 0 3 : 0 
Heartbeat_Variant_3_evicts 0 : 0 1 : 0 2 : 0 3 : 0 
Heartbeat CPU 0 instructions: 80000000 cycles: 36026641 heartbeat IPC: 1.35062 cumulative IPC: 1.36115 (Simulation time: 0 hr 13 min 41 sec) 
Cycle: 40000000 FTQ IN: 13492421 FTQ occupancy: 11.6091 DECODE IN: 13492507 DECODE occupancy: 30.2997 ROB IN: 13492567 ROB occupancy: 225.568 ROB OUT: 13492568
Heartbeat_Variant_0 : 1382 0.337402 per_variant_size: 0 1382 0 0 0 0 0 0 0 
Heartbeat_Variant_1 : 1273 0.310791 per_variant_size: 0 609 664 0 0 0 0 0 0 
Heartbeat_Variant_2 : 1346 0.328613 per_variant_size: 0 517 377 341 111 0 0 0 0 
Heartbeat_Variant_3 : 0 0 per_variant_size: 0 0 0 0 0 0 0 0 0 
Heartbeat_Variant_0_evicts 0 : 5651 1 : 43 2 : 39 3 : 0 
Heartbeat_Variant_1_evicts 0 : 45 1 : 0 2 : 235 3 : 0 
Heartbeat_Variant_2_evicts 0 : 33 1 : 236 2 : 0 3 : 0 
Heartbeat_Variant_3_evicts 0 : 0 1 : 0 2 : 0 3 : 0 
Heartbeat CPU 0 instructions: 90000002 cycles: 43352347 heartbeat IPC: 1.36506 cumulative IPC: 1.36213 (Simulation time: 0 hr 15 min 21 sec) 
Cycle: 50000000 FTQ IN: 13722129 FTQ occupancy: 11.8023 DECODE IN: 13722058 DECODE occupancy: 31.1434 ROB IN: 13721998 ROB occupancy: 227.411 ROB OUT: 13722124
Heartbeat_Variant_0 : 1387 0.338623 per_variant_size: 0 1387 0 0 0 0 0 0 0 
Heartbeat_Variant_1 : 1280 0.3125 per_variant_size: 0 615 665 0 0 0 0 0 0 
Heartbeat_Variant_2 : 1340 0.327148 per_variant_size: 0 507 377 352 104 0 0 0 0 
Heartbeat_Variant_3 : 0 0 per_variant_size: 0 0 0 0 0 0 0 0 0 
Heartbeat_Variant_0_evicts 0 : 5623 1 : 50 2 : 46 3 : 0 
Heartbeat_Variant_1_evicts 0 : 49 1 : 0 2 : 231 3 : 0 
Heartbeat_Variant_2_evicts 0 : 43 1 : 228 2 : 0 3 : 0 
Heartbeat_Variant_3_evicts 0 : 0 1 : 0 2 : 0 3 : 0 
Heartbeat CPU 0 instructions: 100000001 cycles: 50651819 heartbeat IPC: 1.36996 cumulative IPC: 1.36369 (Simulation time: 0 hr 17 min 9 sec) 
Finished CPU 0 instructions: 50000001 cycles: 36665300 cumulative IPC: 1.36369 (Simulation time: 0 hr 17 min 9 sec) 

ChampSim completed all CPUs

Region of Interest Statistics

CPU 0 cumulative IPC: 1.36369 instructions: 50000001 cycles: 36665300
 Fetch stage stalled: 56.7191  Sim cycles: 36665300 fetch stall cycle: 20796231
 Empty decode stage: 39.4978  Sim cycles: 36665300 fetch stall cycle: 14481990
ITLB TOTAL     ACCESS:    6882171  HIT:    6379634  MISS:     502537  HIT %:     92.698  MISS %:    7.30201   MPKI: 10.0507
ITLB LOAD TRANSLATION INSTRUCTION	ACCESS:    5664390  HIT:    5181269  MISS:     483121  HIT %:    91.4709  MISS %:    8.52909  MPKI: 9.66242
ITLB TRANSLATION FROM L1D PREFETCHER INSTRUCTION	ACCESS:    1217781  HIT:    1198365  MISS:      19416  HIT %:    98.4056  MISS %:    1.59438  MPKI: 0.38832

ITLB AVERAGE MISS LATENCY: 68394.8 cycles
ITLB RQ	ACCESS:   10120130	FORWARD:          0	MERGED:    2759363	TO_CACHE:    7360767

DTLB TOTAL     ACCESS:    8983463  HIT:    8514583  MISS:     468880  HIT %:    94.7806  MISS %:    5.21937   MPKI: 9.3776
DTLB LOAD TRANSLATION DATA	ACCESS:    8983463  HIT:    8514583  MISS:     468880  HIT %:    94.7806  MISS %:    5.21937  MPKI: 9.3776

DTLB AVERAGE MISS LATENCY: 9.32576 cycles
DTLB RQ	ACCESS:   13350956	FORWARD:          0	MERGED:    4331427	TO_CACHE:    9019529

STLB TOTAL     ACCESS:    1222232  HIT:    1220290  MISS:       1942  HIT %:    99.8411  MISS %:    0.15889   MPKI: 0.03884
STLB LOAD TRANSLATION INSTRUCTION	ACCESS:     482053  HIT:     481856  MISS:        197  HIT %:    99.9591  MISS %:  0.0408669  MPKI: 0.00394
STLB TRANSLATION FROM L1D PREFETCHER INSTRUCTION	ACCESS:      20484  HIT:      20451  MISS:         33  HIT %:    99.8389  MISS %:   0.161101  MPKI: 0.00066
STLB LOAD TRANSLATION DATA	ACCESS:     468880  HIT:     467180  MISS:       1700  HIT %:    99.6374  MISS %:   0.362566  MPKI: 0.034
STLB TRANSLATION FROM L1D PREFETCHER DATA	ACCESS:     250815  HIT:     250803  MISS:         12  HIT %:    99.9952  MISS %:  0.0047844  MPKI: 0.00024

STLB AVERAGE MISS LATENCY: 72.1014 cycles
STLB RQ	ACCESS:    1371968	FORWARD:          0	MERGED:     120397	TO_CACHE:    1251571

STLB Hit, L1D data hit: 0
STLB Hit, L2C data hit: 0
STLB Hit, LLC data hit: 0
STLB Hit, LLC data miss: 0
STLB STLB hints to L2: 0
L1D TOTAL     ACCESS:   13095268  HIT:   11987171  MISS:    1108097  HIT %:    91.5382  MISS %:    8.46181   MPKI: 22.1619
L1D LOAD DATA	ACCESS:    6567977  HIT:    5838593  MISS:     729384  HIT %:    88.8948  MISS %:    11.1052  MPKI: 14.5877
L1D RFO DATA	ACCESS:    6196827  HIT:    5912307  MISS:     284520  HIT %:    95.4086  MISS %:    4.59138  MPKI: 5.6904
L1D PREFETCH DATA	ACCESS:     330464  HIT:     236271  MISS:      94193  HIT %:    71.4967  MISS %:    28.5033  MPKI: 1.88386

L1D PREFETCH  REQUESTED:     742900  ISSUED:     742900  USEFUL:      33412  USELESS:      68815
L1D USEFUL LOAD PREFETCHES:      33412 PREFETCH ISSUED TO LOWER LEVEL:     102287  ACCURACY: 32.665
 TIMELY PREFETCHES:      33412 LATE PREFETCHES: 8047 DROPPED PREFETCHES: 4
L1D AVERAGE MISS LATENCY: 233144 cycles
L1D RQ	ACCESS:   10705801	FORWARD:          0	MERGED:    3934694	TO_CACHE:    6606900
L1D WQ	ACCESS:    6939555	FORWARD:     164605	MERGED:     195499	TO_CACHE:    6744056
L1D PQ	ACCESS:     371649	FORWARD:          0	MERGED:          0	TO_CACHE:     371251

L1D UNIQUE REGIONS ACCESSED: 0
L1D REGIONS CONFLICTS: 0
L1D Cross Page Prefetch Requests: 5392
L1D Same Page Prefetch Requests: 755464
L1D ROI Sum of L1D PQ occupancy: 4724540
L1D PREFETCHES PUSHED FROM L2C: 0
L1I TOTAL     ACCESS:    8731744  HIT:    5433927  MISS:    3297817  HIT %:    62.2319  MISS %:    37.7681   MPKI: 65.9563
L1I LOAD INSTRUCTION	ACCESS:    6545632  HIT:    4428964  MISS:    2116668  HIT %:    67.6629  MISS %:    32.3371  MPKI: 42.3334
L1I PREFETCH INSTRUCTION	ACCESS:    2186112  HIT:    1004963  MISS:    1181149  HIT %:    45.9703  MISS %:    54.0297  MPKI: 23.623

L1I PREFETCH  REQUESTED:    3903992  ISSUED:    3901375  USEFUL:     933132  USELESS:     483456
L1I USEFUL LOAD PREFETCHES:     933132 PREFETCH ISSUED TO LOWER LEVEL:    1416541  ACCURACY: 65.874
 TIMELY PREFETCHES:     933132 LATE PREFETCHES: 235392 DROPPED PREFETCHES: 67389
L1I AVERAGE MISS LATENCY: 2.31494e+06 cycles
L1I RQ	ACCESS:    9495781	FORWARD:          0	MERGED:    2738992	TO_CACHE:    6756789
L1I PQ	ACCESS:    3901375	FORWARD:          0	MERGED:     538034	TO_CACHE:    3363341

L1BTB TOTAL     ACCESS:    5672360  HIT:    2054298  MISS:    3618062  HIT %:    36.2159  MISS %:    63.7841   MPKI: 72.3612
L1BTB BRANCH_DIRECT_JUMP	ACCESS:     550040  HIT:     145874  MISS:     404166	AVERAGE STALL: 43.0625
L1BTB BRANCH_INDIRECT	ACCESS:     183638  HIT:      66484  MISS:     117154	AVERAGE STALL: 101.491
L1BTB BRANCH_CONDITIONAL	ACCESS:    2717617  HIT:    1426852  MISS:    1290765	AVERAGE STALL: 57.0927
L1BTB BRANCH_DIRECT_CALL	ACCESS:     939770  HIT:     105163  MISS:     834607	AVERAGE STALL: 59.9846
L1BTB BRANCH_INDIRECT_CALL	ACCESS:     170781  HIT:      20761  MISS:     150020	AVERAGE STALL: 127.084
L1BTB BRANCH_RETURN	ACCESS:    1110514  HIT:     289164  MISS:     821350	AVERAGE STALL: 45.7548
L1BTB BRANCH_OTHER ACCESS:          0  HIT:          0  MISS:          0	AVERAGE STALL: -nan
L1BTB TOTAL ROB OCCUPANCY AT BTB MISS: 4.77705

L2BTB TOTAL     ACCESS:    3592541  HIT:    3490352  MISS:     102189  HIT %:    97.1555  MISS %:    2.84448   MPKI: 2.04378
L2BTB BRANCH_DIRECT_JUMP	ACCESS:     399930  HIT:     393364  MISS:       6566	AVERAGE STALL: 43.0625
L2BTB BRANCH_INDIRECT	ACCESS:     106904  HIT:     104246  MISS:       2658	AVERAGE STALL: 101.491
L2BTB BRANCH_CONDITIONAL	ACCESS:    1290765  HIT:    1268324  MISS:      22441	AVERAGE STALL: 57.0927
L2BTB BRANCH_DIRECT_CALL	ACCESS:     834607  HIT:     833291  MISS:       1316	AVERAGE STALL: 59.9846
L2BTB BRANCH_INDIRECT_CALL	ACCESS:     140390  HIT:     129766  MISS:      10624	AVERAGE STALL: 127.084
L2BTB BRANCH_RETURN	ACCESS:     819945  HIT:     761361  MISS:      58584	AVERAGE STALL: 45.7548
L2BTB BRANCH_OTHER ACCESS:          0  HIT:          0  MISS:          0	AVERAGE STALL: -nan
L2BTB TOTAL ROB OCCUPANCY AT BTB MISS: 169.134

L2C TOTAL     ACCESS:    5655484  HIT:    4825609  MISS:     829875  HIT %:    85.3262  MISS %:    14.6738   MPKI: 16.5975
L2C LOAD INSTRUCTION	ACCESS:    1881276  HIT:    1627253  MISS:     254023  HIT %:    86.4973  MISS %:    13.5027  MPKI: 5.08046
L2C PREFETCH INSTRUCTION	ACCESS:    1416541  HIT:    1232867  MISS:     183674  HIT %:    87.0336  MISS %:    12.9664  MPKI: 3.67348
L2C LOAD TRANSLATION INSTRUCTION	ACCESS:        211  HIT:         62  MISS:        149  HIT %:    29.3839  MISS %:    70.6161  MPKI: 0.00298
L2C TRANSLATION FROM L1D PREFETCHER INSTRUCTION	ACCESS:      40979  HIT:      27144  MISS:      13835  HIT %:    66.2388  MISS %:    33.7612  MPKI: 0.2767
L2C LOAD DATA	ACCESS:     721314  HIT:     610386  MISS:     110928  HIT %:    84.6214  MISS %:    15.3786  MPKI: 2.21856
L2C RFO DATA	ACCESS:     284454  HIT:     211691  MISS:      72763  HIT %:    74.4201  MISS %:    25.5799  MPKI: 1.45526
L2C PREFETCH DATA	ACCESS:     791247  HIT:     624164  MISS:     167083  HIT %:    78.8836  MISS %:    21.1164  MPKI: 3.34166
L2C WRITEBACK DATA	ACCESS:     517696  HIT:     491689  MISS:      26007  HIT %:    94.9764  MISS %:     5.0236  MPKI: 0.52014
L2C LOAD TRANSLATION DATA	ACCESS:       1747  HIT:        338  MISS:       1409  HIT %:    19.3475  MISS %:    80.6525  MPKI: 0.02818
L2C TRANSLATION FROM L1D PREFETCHER DATA	ACCESS:         19  HIT:         15  MISS:          4  HIT %:    78.9474  MISS %:    21.0526  MPKI: 8e-05

L2C PREFETCH  REQUESTED:    1483749  ISSUED:    1483749  USEFUL:      29447  USELESS:     338079
L2C USEFUL LOAD PREFETCHES:      29447 PREFETCH ISSUED TO LOWER LEVEL:     352852  ACCURACY: 8.34543
 TIMELY PREFETCHES:      29447 LATE PREFETCHES: 2095 DROPPED PREFETCHES: 0
L2C AVERAGE MISS LATENCY: 35.0278 cycles
L2C RQ	ACCESS:    2930042	FORWARD:          0	MERGED:          0	TO_CACHE:    2930000
L2C WQ	ACCESS:     517696	FORWARD:         42	MERGED:          0	TO_CACHE:     517696
L2C PQ	ACCESS:    3002577	FORWARD:          0	MERGED:     774224	TO_CACHE:    2228353

L2C Dense regions hint from L2: 0
PSCL5 TOTAL     ACCESS:      62494  HIT:      31247  MISS:      31247  HIT %:         50  MISS %:         50   MPKI: 0.62494
PSCL5 LOAD TRANSLATION INSTRUCTION	ACCESS:       3790  HIT:       1895  MISS:       1895  HIT %:         50  MISS %:         50  MPKI: 0.0379
PSCL5 TRANSLATION FROM L1D PREFETCHER INSTRUCTION	ACCESS:      58704  HIT:      29352  MISS:      29352  HIT %:         50  MISS %:         50  MPKI: 0.58704


PSCL4 TOTAL     ACCESS:      60365  HIT:      30182  MISS:      30183  HIT %:    49.9992  MISS %:    50.0008   MPKI: 0.60366
PSCL4 LOAD TRANSLATION INSTRUCTION	ACCESS:       2033  HIT:       1882  MISS:        151  HIT %:    92.5726  MISS %:    7.42745  MPKI: 0.00302
PSCL4 TRANSLATION FROM L1D PREFETCHER INSTRUCTION	ACCESS:      37841  HIT:      28300  MISS:       9541  HIT %:    74.7866  MISS %:    25.2134  MPKI: 0.19082
PSCL4 LOAD TRANSLATION DATA	ACCESS:       1732  HIT:          0  MISS:       1732  HIT %:          0  MISS %:        100  MPKI: 0.03464
PSCL4 TRANSLATION FROM L1D PREFETCHER DATA	ACCESS:      18759  HIT:          0  MISS:      18759  HIT %:          0  MISS %:        100  MPKI: 0.37518


PSCL3 TOTAL     ACCESS:      60367  HIT:      30183  MISS:      30184  HIT %:    49.9992  MISS %:    50.0008   MPKI: 0.60368
PSCL3 LOAD TRANSLATION INSTRUCTION	ACCESS:       2034  HIT:       1883  MISS:        151  HIT %:    92.5762  MISS %:     7.4238  MPKI: 0.00302
PSCL3 TRANSLATION FROM L1D PREFETCHER INSTRUCTION	ACCESS:      37841  HIT:      28300  MISS:       9541  HIT %:    74.7866  MISS %:    25.2134  MPKI: 0.19082
PSCL3 LOAD TRANSLATION DATA	ACCESS:       1733  HIT:          0  MISS:       1733  HIT %:          0  MISS %:        100  MPKI: 0.03466
PSCL3 TRANSLATION FROM L1D PREFETCHER DATA	ACCESS:      18759  HIT:          0  MISS:      18759  HIT %:          0  MISS %:        100  MPKI: 0.37518


PSCL2 TOTAL     ACCESS:      39880  HIT:      19908  MISS:      19972  HIT %:    49.9198  MISS %:    50.0802   MPKI: 0.39944
PSCL2 LOAD TRANSLATION INSTRUCTION	ACCESS:       2034  HIT:       1834  MISS:        200  HIT %:    90.1672  MISS %:    9.83284  MPKI: 0.004
PSCL2 TRANSLATION FROM L1D PREFETCHER INSTRUCTION	ACCESS:      34640  HIT:      18074  MISS:      16566  HIT %:    52.1767  MISS %:    47.8233  MPKI: 0.33132
PSCL2 LOAD TRANSLATION DATA	ACCESS:       1698  HIT:          0  MISS:       1698  HIT %:          0  MISS %:        100  MPKI: 0.03396
PSCL2 TRANSLATION FROM L1D PREFETCHER DATA	ACCESS:       1508  HIT:          0  MISS:       1508  HIT %:          0  MISS %:        100  MPKI: 0.03016


LLC TOTAL     ACCESS:     909986  HIT:     879334  MISS:      30652  HIT %:    96.6316  MISS %:     3.3684   MPKI: 0.61304
LLC LOAD INSTRUCTION	ACCESS:     252928  HIT:     252384  MISS:        544  HIT %:    99.7849  MISS %:   0.215081  MPKI: 0.01088
LLC PREFETCH INSTRUCTION	ACCESS:     182121  HIT:     181088  MISS:       1033  HIT %:    99.4328  MISS %:   0.567205  MPKI: 0.02066
LLC LOAD TRANSLATION INSTRUCTION	ACCESS:        149  HIT:        143  MISS:          6  HIT %:    95.9732  MISS %:    4.02685  MPKI: 0.00012
LLC TRANSLATION FROM L1D PREFETCHER INSTRUCTION	ACCESS:      13835  HIT:      13720  MISS:        115  HIT %:    99.1688  MISS %:   0.831225  MPKI: 0.0023
LLC LOAD DATA	ACCESS:     109980  HIT:     106209  MISS:       3771  HIT %:    96.5712  MISS %:    3.42881  MPKI: 0.07542
LLC RFO DATA	ACCESS:      72697  HIT:      59191  MISS:      13506  HIT %:    81.4215  MISS %:    18.5785  MPKI: 0.27012
LLC PREFETCH DATA	ACCESS:     170731  HIT:     159456  MISS:      11275  HIT %:     93.396  MISS %:    6.60396  MPKI: 0.2255
LLC WRITEBACK DATA	ACCESS:     106132  HIT:     105826  MISS:        306  HIT %:    99.7117  MISS %:    0.28832  MPKI: 0.00612
LLC LOAD TRANSLATION DATA	ACCESS:       1409  HIT:       1313  MISS:         96  HIT %:    93.1867  MISS %:    6.81334  MPKI: 0.00192
LLC TRANSLATION FROM L1D PREFETCHER DATA	ACCESS:          4  HIT:          4  MISS:          0  HIT %:        100  MISS %:          0  MPKI: 0

LLC AVERAGE MISS LATENCY: 160.529 cycles
LLC RQ	ACCESS:     451016	FORWARD:          0	MERGED:          0	TO_CACHE:     451002
LLC WQ	ACCESS:     106132	FORWARD:         14	MERGED:          0	TO_CACHE:     106132
LLC PQ	ACCESS:     352852	FORWARD:          0	MERGED:          0	TO_CACHE:     352852

LLC Dense regions hint to LLC: 0

RAW hits: 1929023
Loads Generated: 12634824
Loads sent to L1D: 10705801
Stores Generated: 6939544
Stores sent to L1D: 6939555
Major fault: 0 Minor fault: 2500
Allocated PAGES: 2500
I-Shadow cache 408 bytes
Touched + WorthPF tables 12288 bytes 
MMA filter 42 bytes 
FNL filter 272 bytes 
TOTAL PREFETCHER STORAGE SIZE: 19922 bytes
CPU 0 L1I next line prefetcher final stats

stream: 
stream:times selected: 1199593
stream:pref_filled: 120280
stream:pref_useful: 22768
stream:pref_late: 8154
stream:misses: 8299
stream:misses_by_poll: 0

CS: 
CS:times selected: 179298
CS:pref_filled: 55527
CS:pref_useful: 32231
CS:pref_late: 10052
CS:misses: 19231
CS:misses_by_poll: 1

CPLX: 
CPLX:times selected: 1019120
CPLX:pref_filled: 19083
CPLX:pref_useful: 3833
CPLX:pref_late: 3786
CPLX:misses: 94146
CPLX:misses_by_poll: 1

NL_L1: 
NL:times selected: 14324
NL:pref_filled: 454
NL:pref_useful: 161
NL:pref_late: 346
NL:misses: 1127
NL:misses_by_poll: 0

total selections: 2412335
total_filled: 94193
total_useful: 33412
total_late: 23655
total_polluted: 2
total_misses_after_warmup: 768308
conflicts: 5517513

test: 117599

DRAM Statistics
 CHANNEL 0
 RQ ROW_BUFFER_HIT:      10297  ROW_BUFFER_MISS:      20040
 DBUS_CONGESTED:          3
 WQ ROW_BUFFER_HIT:       1466  ROW_BUFFER_MISS:      13256  FULL:          0

 AVG_CONGESTED_CYCLE: 3

CPU 0 Branch Prediction Accuracy: 99.8245% MPKI: 0.321 Average ROB Occupancy at Mispredict: 182.905
Branch types
NOT_BRANCH: 40856439 81.7129%
BRANCH_DIRECT_JUMP: 550040 1.10008%
BRANCH_INDIRECT: 183638 0.367276%
BRANCH_CONDITIONAL: 6188334 12.3767%
BRANCH_DIRECT_CALL: 939770 1.87954%
BRANCH_INDIRECT_CALL: 170781 0.341562%
BRANCH_RETURN: 1110514 2.22103%
BRANCH_OTHER: 0 0%

DRAM PAGES: 1048576
Allocated PAGES: 2500
Average_ROB_Occupancy: 227.105
Average_Decode_Occupancy: 30.6183
Average_FTQ_Occupancy: 11.6892
Indirect max targets: 14 Average targets: 1.14527
Branch_type:  BRANCH_DIRECT_JUMP:  Count Percentage: 3.83254 5.22747 4.46891 7.21447 2.9599 6.01204 1.52967 68.755 
Branch_type:  BRANCH_INDIRECT:  Count Percentage: 6.15595 3.45596 8.18332 9.69391 3.33391 2.79888 3.05958 63.3185 
Branch_type:  BRANCH_CONDITIONAL:  Count Percentage: 26.3254 2.09831 1.5393 3.86457 2.04745 3.99283 1.24759 58.8845 
Branch_type:  BRANCH_DIRECT_CALL:  Count Percentage: 0.391287 1.2672 0.768944 2.87009 3.03196 2.63375 1.24132 87.7955 
Branch_type:  BRANCH_INDIRECT_CALL:  Count Percentage: 9.55481 0 2.99431 0 0 1.71091 3.28859 82.4514 
Branch_type:  BRANCH_RETURN:  Count Percentage: 7.91486 1.39208 1.04642 4.08365 3.64945 4.32702 1.57551 76.011 
Branch_type:  BRANCH_DIRECT_JUMP:  Total Count: 42127 57460 49122 79301 32535 66084 16814 755751 
Branch_type:  BRANCH_INDIRECT:  Total Count: 22597 12686 30039 35584 12238 10274 11231 232427 
Branch_type:  BRANCH_CONDITIONAL:  Total Count: 3256597 259572 190420 478068 253281 493935 154334 7284328 
Branch_type:  BRANCH_DIRECT_CALL:  Total Count: 7349 23800 14442 53905 56945 49466 23314 1648940 
Branch_type:  BRANCH_INDIRECT_CALL:  Total Count: 32631 0 10226 0 0 5843 11231 281583 
Branch_type:  BRANCH_RETURN:  Total Count: 175743 30910 23235 90674 81033 96078 34983 1687762 
Number of unique branch instructions: 9803
Upper 32 bits: 
aaaa
ffff
ffff0000
Unique upper 32 bits: 3
Unique upper 36 bits: 3
Unique upper 40 bits: 5
Unique upper 44 bits: 32
Unique upper 48 bits: 154
Variant_0 : 1387 0.338623
Variant_1 : 1280 0.3125
Variant_2 : 1340 0.327148
Variant_3 : 0 0
Offset_3 4033
Offset_4 245
Offset_5 448
Offset_6 499
Offset_7 572
Offset_8 504
Offset_9 464
Offset_10 376
Offset_11 300
Offset_12 269
Offset_13 203
Offset_14 225
Offset_15 184
Offset_16 220
Offset_17 143
Offset_18 118
Offset_19 234
Offset_20 137
Offset_21 235
Offset_22 389
Offset_23 241
Offset_24 331
Offset_25 88
Offset_47 82
decode_dispatch_called: 24465963 66.7278
Dispatch_width: 0 13091207 53.5078 35.7046
Dispatch_width: 1 832225 3.40156 2.26979
Dispatch_width: 2 785527 3.21069 2.14243
Dispatch_width: 3 458667 1.87471 1.25096
Dispatch_width: 4 4688982 19.1653 12.7886
Dispatch_width: 5 191671 0.783419 0.522759
Dispatch_width: 6 4417684 18.0564 12.0487
Empty_decode_cycles: 12199337 33.2722
ROB_full_cycles: 7518704 20.5063
Starvation_cycles_per_kilo_instr: 247.289
Starvation_cycles_per_kilo_instr_3: 198.483
Starvation_cycles_per_kilo_instr_0: 177.718
Branch_type_1  (3,1)  (4,9)  (5,37)  (6,68)  (7,113)  (8,128)  (9,123)  (10,97)  (11,67)  (12,43)  (13,5)  (14,2)  (15,3)  (16,4)  (18,1)  (19,4)  (20,2)  (21,1)  (22,3)  (23,2)  (24,10)  (25,12) 
Branch_type_2  (3,1)  (5,1)  (8,3)  (9,3)  (12,1)  (13,1)  (14,1)  (16,3)  (17,2)  (20,2)  (21,2)  (23,5)  (24,1)  (47,38) 
Branch_type_3  (3,4031)  (4,236)  (5,406)  (6,416)  (7,430)  (8,314)  (9,255)  (10,152)  (11,120)  (12,50)  (13,4) 
Branch_type_4  (6,3)  (7,8)  (8,24)  (9,52)  (10,60)  (11,57)  (12,96)  (13,88)  (14,99)  (15,86)  (16,98)  (17,64)  (18,53)  (19,114)  (20,72)  (21,124)  (22,206)  (23,136)  (24,192)  (25,72) 
Branch_type_5  (8,2)  (9,1)  (10,3)  (11,5)  (12,3)  (13,14)  (14,16)  (15,11)  (16,20)  (17,11)  (18,16)  (19,12)  (20,10)  (21,13)  (22,42)  (23,26)  (24,37) 
Branch_type_6  (5,4)  (6,12)  (7,21)  (8,33)  (9,30)  (10,64)  (11,51)  (12,76)  (13,91)  (14,107)  (15,84)  (16,95)  (17,66)  (18,48)  (19,104)  (20,51)  (21,95)  (22,138)  (23,72)  (24,91)  (25,4)  (47,44) 
Unique trigger count: 
Variant_0_evicts_0 : 0
Variant_0_evicts_1 : 0
Variant_0_evicts_2 : 0
Variant_0_evicts_3 : 0
Variant_1_evicts_0 : 0
Variant_1_evicts_1 : 0
Variant_1_evicts_2 : 0
Variant_1_evicts_3 : 0
Variant_2_evicts_0 : 0
Variant_2_evicts_1 : 0
Variant_2_evicts_2 : 0
Variant_2_evicts_3 : 0
Variant_3_evicts_0 : 0
Variant_3_evicts_1 : 0
Variant_3_evicts_2 : 0
Variant_3_evicts_3 : 0
BTB PER SET UNIQUE ADDR: 12 11 7 11 11 11 6 8 14 8 9 15 13 9 9 8 7 8 14 11 11 14 12 15 10 10 6 15 6 13 14 15 10 9 11 15 8 14 5 11 9 6 12 14 9 10 13 5 9 8 13 13 9 14 11 5 11 9 8 8 8 10 8 13 11 7 10 7 15 9 8 12 14 4 8 6 7 13 6 15 13 7 11 13 13 11 11 7 5 17 9 7 9 9 6 15 8 9 12 9 11 16 13 10 9 14 8 9 7 7 10 11 10 8 9 8 9 9 11 12 13 8 7 11 11 10 5 6 11 10 10 10 9 12 9 18 5 7 8 14 8 16 11 7 7 12 15 7 6 12 10 12 15 11 11 8 17 10 12 11 10 12 13 15 10 10 13 7 12 10 9 11 12 8 8 10 5 13 8 10 10 9 11 11 16 10 3 10 8 12 10 10 7 12 9 11 5 9 9 15 13 8 5 9 9 11 11 9 6 8 10 12 9 11 10 10 11 8 9 11 8 9 4 8 8 9 16 9 7 14 8 9 8 11 8 13 12 15 12 5 11 9 12 13 8 12 9 9 12 8 14 7 11 10 13 7 8 10 10 7 14 4 5 8 12 6 11 6 6 7 6 10 9 4 7 11 10 15 11 11 9 8 10 8 10 7 10 16 17 10 9 8 8 16 8 13 12 13 7 6 9 7 8 17 9 13 13 7 12 6 13 11 5 15 11 5 22 12 8 10 5 11 8 13 13 11 11 6 9 9 10 13 11 9 8 11 9 10 6 15 10 9 8 11 13 13 7 10 13 9 11 6 12 7 13 10 8 14 9 9 9 10 11 10 10 8 9 10 12 9 10 7 10 15 6 7 12 11 12 11 11 10 6 8 9 9 8 8 10 10 10 7 9 12 8 4 14 5 8 9 12 9 9 10 15 10 11 8 12 8 11 9 7 12 8 8 11 15 18 13 10 9 11 10 14 9 10 12 7 10 18 9 13 6 11 18 11 10 9 11 11 8 11 15 17 9 9 10 15 12 12 6 19 11 13 15 14 13 8 14 10 11 11 11 10 12 13 9 14 11 9 13 9 12 11 11 7 16 7 11 15 7 10 12 7 8 19 9 10 13 12 10 10 8 12 9 9 10 9 9 13 13 10 16 7 7 4 14 10 12 11 11 6 10 12 11 12 16 6 8 7 10 12 8 9 16 16 8 6 11 11 11 14 7 8 11 6 8 13 11 14 7 10 13 13 8 8 6 6 12 13 10 14 13 8 10 11 12 9 10 8 15 9 12 9 15 10 12 13 7 9 13 10 13 9 17 10 14 10 7 10 9 5 11 13 9 12 7 10 9 6 15 9 8 10 8 8 11 9 11 12 9 9 7 10 7 16 6 5 9 16 12 12 10 4 13 11 13 10 11 15 11 7 8 10 18 10 9 9 14 10 12 16 12 12 10 13 11 9 14 12 11 14 16 9 8 13 12 10 10 7 11 6 11 14 12 10 10 6 11 9 7 11 9 7 14 9 10 9 12 10 8 12 14 19 5 14 11 7 9 6 9 10 12 13 12 8 7 14 10 13 13 14 8 8 10 9 10 6 15 9 11 12 13 6 14 8 8 10 5 8 9 8 8 11 7 10 8 5 8 10 9 12 11 8 8 13 10 12 9 14 6 9 5 9 11 13 8 13 11 9 8 11 8 14 15 12 10 13 6 7 6 7 12 10 10 15 9 7 7 6 7 6 7 6 9 13 8 12 6 9 19 7 7 9 7 13 11 14 7 7 11 11 13 13 13 8 12 10 5 10 9 11 12 12 16 11 7 14 13 11 15 9 12 16 5 11 10 11 11 13 16 9 14 8 14 14 12 8 14 7 11 9 7 13 15 6 13 11 10 11 9 7 10 11 10 10 10 9 10 12 12 8 6 7 17 9 13 10 10 6 12 10 9 11 14 7 14 12 11 13 11 12 10 12 4 14 8 13 9 9 8 10 12 12 7 15 9 10 9 10 8 13 12 13 10 14 10 9 13 14 9 7 13 10 11 14 9 9 6 9 8 9 11 7 16 9 8 9 16 8 15 8 13 10 8 10 8 10 8 13 13 12 9 7 11 6 13 11 5 15 14 17 11 11 11 11 11 8 12 10 10 12 10 11 14 8 8 8 15 10 11 9 10 11 13 11 10 15 13 9 12 9 11 13 8 18 9 7 11 12 15 10 9 9 11 9 10 14 12 12 12 12 11 5 17 14 10 8 7 10 8 7 10 11 9 9 6 15 12 18 14 8 10 10 12 8 13 9 14 10 10 12 5 11 10 5 12 5 8 7 12 10 9 
BTB PER SET COUNT: 1091 156 2152 1281 3040 456 7 162 4699 3377 14 6261 6371 2966 486 2621 5205 104 1070 702 1419 54 3294 1329 1205 507 6 1204 454 635 5309 3330 12 1970 22 3485 281 270 6 162 2683 8 1386 2799 4655 1416 513 14 10 1242 1852 5037 10 1088 3936 1048 1775 838 11 21 496 2000 285 17 1047 9 1857 812 680 1476 1032 3687 365 5 1301 9 12 5118 677 1369 1425 1144 5231 2018 2356 8272 19 51 175 3470 931 873 1592 108 1612 4120 3991 2591 1451 1885 1301 2149 3789 2644 1610 557 18 1362 2483 4860 750 1604 2541 2885 135 603 367 15 391 1401 189 4035 1080 1097 3074 2433 5 6 1711 4779 3687 1401 20 1554 24 5792 6 8 606 79 9 3100 127 2385 4772 2090 1945 428 6 3439 2964 5255 2862 916 3611 399 121 5336 2521 780 489 520 263 3139 4122 236 18 1330 1271 880 643 1383 1514 2197 1863 3499 1494 1771 126 973 1505 2574 10595 1604 689 2410 3 122 1405 5687 15 2968 517 811 960 7340 5 227 370 2967 2515 10 510 837 71 2930 1228 670 6 37 2865 5097 4229 33 37 8252 3374 16 3316 17 12 1150 4 1028 984 209 1464 3590 3629 4203 11 11 21 327 419 10356 514 3810 2965 5 144 14 112 1948 148 8172 1702 810 1524 13 1989 4085 1706 6102 288 2791 5208 644 2776 12 343 4 8 10 1212 7 1047 6 660 2759 537 2975 2121 948 514 1879 1094 4803 2173 652 29 8 1928 3405 6275 319 2765 891 3064 760 131 3478 47 1513 1108 22 4471 2858 2126 12 2907 207 3601 301 650 459 608 529 272 1256 4756 1771 22 1879 2373 6 2127 22 42 1607 5 8750 12 742 4982 299 6204 1800 1321 19 2243 582 14 4444 766 348 23 2637 1023 272 190 5343 5299 97 153 2924 3113 39 2279 12 391 484 1391 9 3025 2685 8 7221 1516 867 567 1178 1452 53 4921 755 3375 2340 2198 1709 403 1748 17 2456 10 8 6259 2600 1103 4355 4569 1262 1160 1326 1439 2139 737 24 109 2955 127 2573 128 516 219 55 1048 5 2291 1045 1541 11 779 1301 1442 98 493 468 1574 3953 2960 19 45 239 520 2272 2321 864 7965 2987 2015 2937 3474 2358 815 1569 390 669 2422 1190 3994 1969 4271 739 111 2283 2181 2739 404 1571 4395 11 2798 39 2107 11 705 15 4043 1124 1029 7 4864 3486 4035 2635 1049 3442 3787 24 13 1985 2423 4876 11 8652 4737 763 5479 1546 509 673 1394 494 980 2161 10 2791 3139 478 2897 3233 2701 3298 10 399 2808 1399 5415 58 2402 1666 1189 142 706 4545 4803 2202 755 143 2930 8616 3444 6350 656 1756 4 4744 2883 52 638 1388 1118 4770 2360 36 2483 3738 8 394 1090 316 34 1783 351 3594 1579 1350 6 3652 563 208 2435 66 35 477 7 1459 709 4383 2987 737 2619 1228 3478 3402 809 1002 68 2715 4461 402 5682 8381 27 171 2514 2466 543 4881 2741 1369 1584 2175 10 1999 39 103 512 31 488 2199 2790 1294 5639 4053 117 1558 292 1483 1009 57 9 1014 122 226 6435 8 923 1184 13 7245 1458 391 109 866 2284 3697 248 3638 2703 435 23 22 16 239 2245 3212 184 451 1031 1242 2632 2067 521 23 497 1279 452 6373 4435 158 14 6841 990 57 1551 1054 2163 11545 5615 17 4207 5507 2533 1006 4980 2728 15 4151 1283 3239 2508 3581 3191 21 1907 1038 467 2018 4190 973 49 1906 1716 560 1989 1972 333 4375 1118 7 527 12 10437 2935 1717 2593 5528 15 2145 495 2435 250 285 1322 2582 3738 171 2201 6 1357 37 675 3224 5293 29 185 4589 1965 4460 2766 5150 131 2348 11 811 2992 2244 1710 2014 26 6292 3112 6 194 1832 636 525 8 1765 12 176 1044 1771 497 660 1973 6 2374 574 190 5211 3908 1654 3099 4130 1736 950 266 4098 11736 10 855 1313 1528 3623 380 1241 4007 14 1468 2339 70 25 2732 1240 1798 2420 9 3151 7 295 3799 4342 1412 547 1101 969 9 40 1708 10 50 6 9 3361 1569 356 352 2014 6863 1468 961 364 11 78 3512 1046 9 793 1249 5572 599 5351 485 2150 1378 28 5 932 1915 506 2593 3033 3331 1632 1003 810 1000 19 945 712 17 2391 6 2528 1862 1181 5541 388 8884 1045 656 11 6205 3375 2498 12 1782 3262 23 96 8 223 402 1468 323 6166 72 673 17 552 1475 815 269 1476 1733 9 6506 577 4823 315 9 4200 4612 19 995 1757 10 131 1176 6395 1155 4300 3466 2244 410 102 1261 594 1919 4358 1816 1060 578 3247 2434 511 124 2170 1255 3237 4916 4902 1484 2974 3356 1802 107 2886 1890 2747 3231 4239 1229 1854 755 1350 6717 113 1311 1676 2779 85 16 2303 456 3992 358 456 8 11 543 7 639 2830 10 2920 1069 21 2795 14 6738 2047 1022 2728 5636 15 1479 2577 140 4242 2453 21 3161 8 17 4519 1765 1002 1347 7282 330 3746 5398 6366 1217 22 695 3311 2093 2471 233 4408 747 1501 4170 1517 2933 1133 2155 5173 1166 2201 99 309 1097 1979 1295 13 3470 3935 543 3132 67 358 674 11 1054 654 1706 634 45 4776 2754 192 1773 4995 8899 396 2573 731 975 5 4675 1336 3343 1493 1463 1223 500 89 174 934 2155 22 1474 1368 1403 2601 6911 274 164 1966 3028 22 3882 335 4556 154 13 1793 803 719 969 5 20 122 10 2772 684 13 837 
To predecode: 1181149
Predecoding something: 731654
Predecode request dropped: 0
sizeofblock_0 0
sizeofblock_1 306322
sizeofblock_2 436637
sizeofblock_3 801814
sizeofblock_4 207912
sizeofblock_5 0
sizeofblock_6 0
sizeofblock_7 0
sizeofblock_8 0
Variant_0 Correct: 1609718 Incorrect: 0 Accuracy: 1
Variant_1 Correct: 2086993 Incorrect: 0 Accuracy: 1
Variant_2 Correct: 5015818 Incorrect: 0 Accuracy: 1
Variant_3 Correct: 0 Incorrect: 0 Accuracy: -nan
