
*** ChampSim Multicore Out-of-Order Simulator ***

Warmup Instructions: 50000000
Simulation Instructions: 50000000
Number of CPUs: 1
LLC sets: 2048
LLC ways: 16
Off-chip DRAM Size: 4096 MB Channels: 1 Width: 64-bit Data Rate: 6400 MT/s
CPU 0 runs ./micro_traces/srv5.trace.gz
.gz
ITLB has LRU replacement policy
DTLB has LRU replacement policy
STLB has LRU replacement policy
FDIP Prefetcher at L1I
L1I has LRU replacement policy
L1D has LRU replacement policy
Initialize SRRIP state for L2C
Initialize DRRIP state for LLC
Heartbeat_Variant_0 : 1338 0.32666 per_variant_size: 0 1338 0 0 0 0 0 0 0 
Heartbeat_Variant_1 : 1221 0.298096 per_variant_size: 0 564 657 0 0 0 0 0 0 
Heartbeat_Variant_2 : 1322 0.322754 per_variant_size: 0 542 364 212 204 0 0 0 0 
Heartbeat_Variant_3 : 0 0 per_variant_size: 0 0 0 0 0 0 0 0 0 
Heartbeat_Variant_0_evicts 0 : 5875 1 : 286 2 : 331 3 : 0 
Heartbeat_Variant_1_evicts 0 : 279 1 : 0 2 : 481 3 : 0 
Heartbeat_Variant_2_evicts 0 : 309 1 : 477 2 : 0 3 : 0 
Heartbeat_Variant_3_evicts 0 : 0 1 : 0 2 : 0 3 : 0 
Heartbeat CPU 0 instructions: 10000002 cycles: 2797428 heartbeat IPC: 3.57471 cumulative IPC: 3.57471 (Simulation time: 0 hr 1 min 47 sec) 
Heartbeat_Variant_0 : 1359 0.331787 per_variant_size: 0 1359 0 0 0 0 0 0 0 
Heartbeat_Variant_1 : 1236 0.301758 per_variant_size: 0 537 699 0 0 0 0 0 0 
Heartbeat_Variant_2 : 1339 0.326904 per_variant_size: 0 522 380 215 222 0 0 0 0 
Heartbeat_Variant_3 : 0 0 per_variant_size: 0 0 0 0 0 0 0 0 0 
Heartbeat_Variant_0_evicts 0 : 5778 1 : 98 2 : 120 3 : 0 
Heartbeat_Variant_1_evicts 0 : 98 1 : 0 2 : 288 3 : 0 
Heartbeat_Variant_2_evicts 0 : 111 1 : 292 2 : 0 3 : 0 
Heartbeat_Variant_3_evicts 0 : 0 1 : 0 2 : 0 3 : 0 
Heartbeat CPU 0 instructions: 20000002 cycles: 5594390 heartbeat IPC: 3.57531 cumulative IPC: 3.57501 (Simulation time: 0 hr 3 min 28 sec) 
Heartbeat_Variant_0 : 1361 0.332275 per_variant_size: 0 1361 0 0 0 0 0 0 0 
Heartbeat_Variant_1 : 1246 0.304199 per_variant_size: 0 545 701 0 0 0 0 0 0 
Heartbeat_Variant_2 : 1346 0.328613 per_variant_size: 0 519 384 217 226 0 0 0 0 
Heartbeat_Variant_3 : 0 0 per_variant_size: 0 0 0 0 0 0 0 0 0 
Heartbeat_Variant_0_evicts 0 : 5692 1 : 88 2 : 83 3 : 0 
Heartbeat_Variant_1_evicts 0 : 86 1 : 0 2 : 268 3 : 0 
Heartbeat_Variant_2_evicts 0 : 86 1 : 264 2 : 0 3 : 0 
Heartbeat_Variant_3_evicts 0 : 0 1 : 0 2 : 0 3 : 0 
Heartbeat CPU 0 instructions: 30000002 cycles: 8391990 heartbeat IPC: 3.57449 cumulative IPC: 3.57484 (Simulation time: 0 hr 5 min 4 sec) 
Heartbeat_Variant_0 : 1368 0.333984 per_variant_size: 0 1368 0 0 0 0 0 0 0 
Heartbeat_Variant_1 : 1257 0.306885 per_variant_size: 0 566 691 0 0 0 0 0 0 
Heartbeat_Variant_2 : 1352 0.330078 per_variant_size: 0 523 386 222 221 0 0 0 0 
Heartbeat_Variant_3 : 0 0 per_variant_size: 0 0 0 0 0 0 0 0 0 
Heartbeat_Variant_0_evicts 0 : 5728 1 : 91 2 : 91 3 : 0 
Heartbeat_Variant_1_evicts 0 : 89 1 : 0 2 : 282 3 : 0 
Heartbeat_Variant_2_evicts 0 : 91 1 : 278 2 : 0 3 : 0 
Heartbeat_Variant_3_evicts 0 : 0 1 : 0 2 : 0 3 : 0 
Heartbeat CPU 0 instructions: 40000003 cycles: 11190352 heartbeat IPC: 3.57352 cumulative IPC: 3.57451 (Simulation time: 0 hr 6 min 44 sec) 
Heartbeat_Variant_0 : 1373 0.335205 per_variant_size: 0 1373 0 0 0 0 0 0 0 
Heartbeat_Variant_1 : 1267 0.309326 per_variant_size: 0 574 693 0 0 0 0 0 0 
Heartbeat_Variant_2 : 1349 0.329346 per_variant_size: 0 508 387 232 222 0 0 0 0 
Heartbeat_Variant_3 : 0 0 per_variant_size: 0 0 0 0 0 0 0 0 0 
Heartbeat_Variant_0_evicts 0 : 5588 1 : 44 2 : 52 3 : 0 
Heartbeat_Variant_1_evicts 0 : 45 1 : 0 2 : 235 3 : 0 
Heartbeat_Variant_2_evicts 0 : 47 1 : 230 2 : 0 3 : 0 
Heartbeat_Variant_3_evicts 0 : 0 1 : 0 2 : 0 3 : 0 
Heartbeat CPU 0 instructions: 50000001 cycles: 13987268 heartbeat IPC: 3.57537 cumulative IPC: 3.57468 (Simulation time: 0 hr 8 min 23 sec) 

Warmup complete CPU 0 instructions: 50000001 cycles: 13987268 (Simulation time: 0 hr 8 min 23 sec) 

Cycle: 20000000 FTQ IN: 58079481 FTQ occupancy: 19.3097 DECODE IN: 58079356 DECODE occupancy: 50.1612 ROB IN: 58079296 ROB occupancy: 306.62 ROB OUT: 58078944
Heartbeat_Variant_0 : 1376 0.335938 per_variant_size: 0 1376 0 0 0 0 0 0 0 
Heartbeat_Variant_1 : 1270 0.310059 per_variant_size: 0 583 687 0 0 0 0 0 0 
Heartbeat_Variant_2 : 1354 0.330566 per_variant_size: 0 517 383 236 218 0 0 0 0 
Heartbeat_Variant_3 : 0 0 per_variant_size: 0 0 0 0 0 0 0 0 0 
Heartbeat_Variant_0_evicts 0 : 5667 1 : 94 2 : 101 3 : 0 
Heartbeat_Variant_1_evicts 0 : 90 1 : 0 2 : 269 3 : 0 
Heartbeat_Variant_2_evicts 0 : 102 1 : 266 2 : 0 3 : 0 
Heartbeat_Variant_3_evicts 0 : 0 1 : 0 2 : 0 3 : 0 
Heartbeat CPU 0 instructions: 60000001 cycles: 21418615 heartbeat IPC: 1.34565 cumulative IPC: 1.34565 (Simulation time: 0 hr 10 min 4 sec) 
Heartbeat_Variant_0 : 1378 0.336426 per_variant_size: 0 1378 0 0 0 0 0 0 0 
Heartbeat_Variant_1 : 1266 0.309082 per_variant_size: 0 579 687 0 0 0 0 0 0 
Heartbeat_Variant_2 : 1358 0.331543 per_variant_size: 0 525 374 243 216 0 0 0 0 
Heartbeat_Variant_3 : 0 0 per_variant_size: 0 0 0 0 0 0 0 0 0 
Heartbeat_Variant_0_evicts 0 : 5564 1 : 18 2 : 23 3 : 0 
Heartbeat_Variant_1_evicts 0 : 17 1 : 0 2 : 210 3 : 0 
Heartbeat_Variant_2_evicts 0 : 22 1 : 214 2 : 0 3 : 0 
Heartbeat_Variant_3_evicts 0 : 0 1 : 0 2 : 0 3 : 0 
Heartbeat CPU 0 instructions: 70000000 cycles: 28770188 heartbeat IPC: 1.36025 cumulative IPC: 1.35291 (Simulation time: 0 hr 11 min 46 sec) 
Cycle: 30000000 FTQ IN: 13597450 FTQ occupancy: 10.5708 DECODE IN: 13597556 DECODE occupancy: 27.0918 ROB IN: 13597563 ROB occupancy: 210.39 ROB OUT: 13597814
Heartbeat_Variant_0 : 1375 0.335693 per_variant_size: 0 1375 0 0 0 0 0 0 0 
Heartbeat_Variant_1 : 1272 0.310547 per_variant_size: 0 590 682 0 0 0 0 0 0 
Heartbeat_Variant_2 : 1365 0.333252 per_variant_size: 0 530 376 243 216 0 0 0 0 
Heartbeat_Variant_3 : 0 0 per_variant_size: 0 0 0 0 0 0 0 0 0 
Heartbeat_Variant_0_evicts 0 : 5669 1 : 65 2 : 43 3 : 0 
Heartbeat_Variant_1_evicts 0 : 68 1 : 0 2 : 245 3 : 0 
Heartbeat_Variant_2_evicts 0 : 44 1 : 245 2 : 0 3 : 0 
Heartbeat_Variant_3_evicts 0 : 0 1 : 0 2 : 0 3 : 0 
Heartbeat CPU 0 instructions: 80000000 cycles: 36207748 heartbeat IPC: 1.34453 cumulative IPC: 1.35011 (Simulation time: 0 hr 13 min 30 sec) 
Cycle: 40000000 FTQ IN: 13486332 FTQ occupancy: 10.8172 DECODE IN: 13486252 DECODE occupancy: 27.5654 ROB IN: 13486245 ROB occupancy: 210.94 ROB OUT: 13485998
Heartbeat_Variant_0 : 1392 0.339844 per_variant_size: 0 1392 0 0 0 0 0 0 0 
Heartbeat_Variant_1 : 1293 0.315674 per_variant_size: 0 545 748 0 0 0 0 0 0 
Heartbeat_Variant_2 : 1361 0.332275 per_variant_size: 0 497 385 237 242 0 0 0 0 
Heartbeat_Variant_3 : 0 0 per_variant_size: 0 0 0 0 0 0 0 0 0 
Heartbeat_Variant_0_evicts 0 : 5840 1 : 263 2 : 278 3 : 0 
Heartbeat_Variant_1_evicts 0 : 262 1 : 0 2 : 440 3 : 0 
Heartbeat_Variant_2_evicts 0 : 270 1 : 432 2 : 0 3 : 0 
Heartbeat_Variant_3_evicts 0 : 0 1 : 0 2 : 0 3 : 0 
Heartbeat CPU 0 instructions: 90000001 cycles: 43744051 heartbeat IPC: 1.32691 cumulative IPC: 1.34423 (Simulation time: 0 hr 15 min 15 sec) 
Cycle: 50000000 FTQ IN: 13326711 FTQ occupancy: 10.3793 DECODE IN: 13326657 DECODE occupancy: 26.2695 ROB IN: 13326657 ROB occupancy: 204.844 ROB OUT: 13326802
Heartbeat_Variant_0 : 1385 0.338135 per_variant_size: 0 1385 0 0 0 0 0 0 0 
Heartbeat_Variant_1 : 1294 0.315918 per_variant_size: 0 546 748 0 0 0 0 0 0 
Heartbeat_Variant_2 : 1370 0.334473 per_variant_size: 0 511 385 242 232 0 0 0 0 
Heartbeat_Variant_3 : 0 0 per_variant_size: 0 0 0 0 0 0 0 0 0 
Heartbeat_Variant_0_evicts 0 : 5751 1 : 107 2 : 118 3 : 0 
Heartbeat_Variant_1_evicts 0 : 116 1 : 0 2 : 293 3 : 0 
Heartbeat_Variant_2_evicts 0 : 117 1 : 302 2 : 0 3 : 0 
Heartbeat_Variant_3_evicts 0 : 0 1 : 0 2 : 0 3 : 0 
Heartbeat CPU 0 instructions: 100000002 cycles: 51103345 heartbeat IPC: 1.35883 cumulative IPC: 1.34713 (Simulation time: 0 hr 16 min 58 sec) 
Finished CPU 0 instructions: 50000001 cycles: 37116077 cumulative IPC: 1.34713 (Simulation time: 0 hr 16 min 58 sec) 

ChampSim completed all CPUs

Region of Interest Statistics

CPU 0 cumulative IPC: 1.34713 instructions: 50000001 cycles: 37116077
 Fetch stage stalled: 60.5524  Sim cycles: 37116077 fetch stall cycle: 22474689
 Empty decode stage: 49.161  Sim cycles: 37116077 fetch stall cycle: 18246625
ITLB TOTAL     ACCESS:    5848098  HIT:    5351920  MISS:     496178  HIT %:    91.5156  MISS %:    8.48443   MPKI: 9.92356
ITLB LOAD TRANSLATION INSTRUCTION	ACCESS:    5723734  HIT:    5227556  MISS:     496178  HIT %:    91.3312  MISS %:    8.66878  MPKI: 9.92356
ITLB TRANSLATION FROM L1D PREFETCHER INSTRUCTION	ACCESS:     124364  HIT:     124364  MISS:          0  HIT %:        100  MISS %:          0  MPKI: 0

ITLB AVERAGE MISS LATENCY: 9.07198 cycles
ITLB RQ	ACCESS:    7985612	FORWARD:          0	MERGED:    1711165	TO_CACHE:    6274447

DTLB TOTAL     ACCESS:    9024286  HIT:    8551038  MISS:     473248  HIT %:    94.7558  MISS %:    5.24416   MPKI: 9.46496
DTLB LOAD TRANSLATION DATA	ACCESS:    9024286  HIT:    8551038  MISS:     473248  HIT %:    94.7558  MISS %:    5.24416  MPKI: 9.46496

DTLB AVERAGE MISS LATENCY: 9.36328 cycles
DTLB RQ	ACCESS:   13385739	FORWARD:          0	MERGED:    4326039	TO_CACHE:    9059700

STLB TOTAL     ACCESS:    1215836  HIT:    1213593  MISS:       2243  HIT %:    99.8155  MISS %:   0.184482   MPKI: 0.04486
STLB LOAD TRANSLATION INSTRUCTION	ACCESS:     496178  HIT:     495870  MISS:        308  HIT %:    99.9379  MISS %:  0.0620745  MPKI: 0.00616
STLB LOAD TRANSLATION DATA	ACCESS:     473227  HIT:     471315  MISS:       1912  HIT %:     99.596  MISS %:   0.404034  MPKI: 0.03824
STLB TRANSLATION FROM L1D PREFETCHER DATA	ACCESS:     246431  HIT:     246408  MISS:         23  HIT %:    99.9907  MISS %: 0.00933324  MPKI: 0.00046

STLB AVERAGE MISS LATENCY: 77.7677 cycles
STLB RQ	ACCESS:    1334369	FORWARD:          0	MERGED:     118496	TO_CACHE:    1215873

STLB Hit, L1D data hit: 0
STLB Hit, L2C data hit: 0
STLB Hit, LLC data hit: 0
STLB Hit, LLC data miss: 0
STLB STLB hints to L2: 0
L1D TOTAL     ACCESS:   13131069  HIT:   12008272  MISS:    1122797  HIT %:    91.4493  MISS %:    8.55069   MPKI: 22.4559
L1D LOAD DATA	ACCESS:    6590814  HIT:    5849426  MISS:     741388  HIT %:    88.7512  MISS %:    11.2488  MPKI: 14.8278
L1D RFO DATA	ACCESS:    6216318  HIT:    5929446  MISS:     286872  HIT %:    95.3852  MISS %:    4.61482  MPKI: 5.73744
L1D PREFETCH DATA	ACCESS:     323937  HIT:     229400  MISS:      94537  HIT %:    70.8162  MISS %:    29.1838  MPKI: 1.89074

L1D PREFETCH  REQUESTED:     730340  ISSUED:     730340  USEFUL:      34114  USELESS:      68145
L1D USEFUL LOAD PREFETCHES:      34114 PREFETCH ISSUED TO LOWER LEVEL:     102355  ACCURACY: 33.3291
 TIMELY PREFETCHES:      34114 LATE PREFETCHES: 7720 DROPPED PREFETCHES: 4
L1D AVERAGE MISS LATENCY: 221976 cycles
L1D RQ	ACCESS:   10712776	FORWARD:          0	MERGED:    3926283	TO_CACHE:    6624855
L1D WQ	ACCESS:    6955398	FORWARD:     162092	MERGED:     194514	TO_CACHE:    6760884
L1D PQ	ACCESS:     365397	FORWARD:          0	MERGED:          0	TO_CACHE:     364943

L1D UNIQUE REGIONS ACCESSED: 0
L1D REGIONS CONFLICTS: 0
L1D Cross Page Prefetch Requests: 6886
L1D Same Page Prefetch Requests: 754083
L1D ROI Sum of L1D PQ occupancy: 4644641
L1D PREFETCHES PUSHED FROM L2C: 0
L1I TOTAL     ACCESS:    7180738  HIT:    4405231  MISS:    2775507  HIT %:    61.3479  MISS %:    38.6521   MPKI: 55.5101
L1I LOAD INSTRUCTION	ACCESS:    6528929  HIT:    3753422  MISS:    2775507  HIT %:    57.4891  MISS %:    42.5109  MPKI: 55.5101
L1I PREFETCH INSTRUCTION	ACCESS:     651809  HIT:     651809  MISS:          0  HIT %:        100  MISS %:          0  MPKI: 0

L1I PREFETCH  REQUESTED:    1592879  ISSUED:    1592879  USEFUL:          0  USELESS:          0
L1I USEFUL LOAD PREFETCHES:          0 PREFETCH ISSUED TO LOWER LEVEL:          0  ACCURACY: -nan
 TIMELY PREFETCHES:          0 LATE PREFETCHES: 0 DROPPED PREFETCHES: 0
L1I AVERAGE MISS LATENCY: 17.4596 cycles
L1I RQ	ACCESS:    9471199	FORWARD:          0	MERGED:    2630363	TO_CACHE:    6840836
L1I PQ	ACCESS:    1592879	FORWARD:          0	MERGED:     448103	TO_CACHE:    1144776

L1BTB TOTAL     ACCESS:    5670590  HIT:    2029035  MISS:    3641555  HIT %:    35.7817  MISS %:    64.2183   MPKI: 72.8311
L1BTB BRANCH_DIRECT_JUMP	ACCESS:     548408  HIT:     143251  MISS:     405157	AVERAGE STALL: 38.1267
L1BTB BRANCH_INDIRECT	ACCESS:     182571  HIT:      65574  MISS:     116997	AVERAGE STALL: 90.0714
L1BTB BRANCH_CONDITIONAL	ACCESS:    2702917  HIT:    1405416  MISS:    1297501	AVERAGE STALL: 57.3868
L1BTB BRANCH_DIRECT_CALL	ACCESS:     946377  HIT:     104576  MISS:     841801	AVERAGE STALL: 58.893
L1BTB BRANCH_INDIRECT_CALL	ACCESS:     171970  HIT:      21099  MISS:     150871	AVERAGE STALL: 120.53
L1BTB BRANCH_RETURN	ACCESS:    1118347  HIT:     289119  MISS:     829228	AVERAGE STALL: 43.1556
L1BTB BRANCH_OTHER ACCESS:          0  HIT:          0  MISS:          0	AVERAGE STALL: -nan
L1BTB TOTAL ROB OCCUPANCY AT BTB MISS: 2.34651

L2BTB TOTAL     ACCESS:    3616156  HIT:    3547709  MISS:      68447  HIT %:    98.1072  MISS %:    1.89281   MPKI: 1.36894
L2BTB BRANCH_DIRECT_JUMP	ACCESS:     401029  HIT:     396136  MISS:       4893	AVERAGE STALL: 38.1267
L2BTB BRANCH_INDIRECT	ACCESS:     106643  HIT:     103938  MISS:       2705	AVERAGE STALL: 90.0714
L2BTB BRANCH_CONDITIONAL	ACCESS:    1297501  HIT:    1291579  MISS:       5922	AVERAGE STALL: 57.3868
L2BTB BRANCH_DIRECT_CALL	ACCESS:     841801  HIT:     839642  MISS:       2159	AVERAGE STALL: 58.893
L2BTB BRANCH_INDIRECT_CALL	ACCESS:     141364  HIT:     130801  MISS:      10563	AVERAGE STALL: 120.53
L2BTB BRANCH_RETURN	ACCESS:     827818  HIT:     785613  MISS:      42205	AVERAGE STALL: 43.1556
L2BTB BRANCH_OTHER ACCESS:          0  HIT:          0  MISS:          0	AVERAGE STALL: -nan
L2BTB TOTAL ROB OCCUPANCY AT BTB MISS: 124.84

L2C TOTAL     ACCESS:    4513104  HIT:    4006335  MISS:     506769  HIT %:    88.7712  MISS %:    11.2288   MPKI: 10.1354
L2C LOAD INSTRUCTION	ACCESS:    2775507  HIT:    2489465  MISS:     286042  HIT %:    89.6941  MISS %:    10.3059  MPKI: 5.72084
L2C LOAD TRANSLATION INSTRUCTION	ACCESS:        352  HIT:        114  MISS:        238  HIT %:    32.3864  MISS %:    67.6136  MPKI: 0.00476
L2C LOAD DATA	ACCESS:     733646  HIT:     655249  MISS:      78397  HIT %:    89.3141  MISS %:    10.6859  MPKI: 1.56794
L2C RFO DATA	ACCESS:     286736  HIT:     235215  MISS:      51521  HIT %:    82.0319  MISS %:    17.9681  MPKI: 1.03042
L2C PREFETCH DATA	ACCESS:     190844  HIT:     116648  MISS:      74196  HIT %:    61.1222  MISS %:    38.8778  MPKI: 1.48392
L2C WRITEBACK DATA	ACCESS:     523968  HIT:     509050  MISS:      14918  HIT %:    97.1529  MISS %:    2.84712  MPKI: 0.29836
L2C LOAD TRANSLATION DATA	ACCESS:       2014  HIT:        567  MISS:       1447  HIT %:    28.1529  MISS %:    71.8471  MPKI: 0.02894
L2C TRANSLATION FROM L1D PREFETCHER DATA	ACCESS:         37  HIT:         27  MISS:         10  HIT %:     72.973  MISS %:     27.027  MPKI: 0.0002

L2C PREFETCH  REQUESTED:      96218  ISSUED:      96218  USEFUL:       8749  USELESS:      65933
L2C USEFUL LOAD PREFETCHES:       8749 PREFETCH ISSUED TO LOWER LEVEL:      74619  ACCURACY: 11.7249
 TIMELY PREFETCHES:       8749 LATE PREFETCHES: 423 DROPPED PREFETCHES: 0
L2C AVERAGE MISS LATENCY: 38.3463 cycles
L2C RQ	ACCESS:    3798358	FORWARD:          0	MERGED:          0	TO_CACHE:    3798298
L2C WQ	ACCESS:     523968	FORWARD:         60	MERGED:          0	TO_CACHE:     523968
L2C PQ	ACCESS:     198573	FORWARD:          0	MERGED:       3629	TO_CACHE:     194944

L2C Dense regions hint from L2: 0
PSCL5 TOTAL     ACCESS:       4496  HIT:       2248  MISS:       2248  HIT %:         50  MISS %:         50   MPKI: 0.04496
PSCL5 LOAD TRANSLATION INSTRUCTION	ACCESS:       4422  HIT:       2211  MISS:       2211  HIT %:         50  MISS %:         50  MPKI: 0.04422
PSCL5 TRANSLATION FROM L1D PREFETCHER INSTRUCTION	ACCESS:         74  HIT:         37  MISS:         37  HIT %:         50  MISS %:         50  MPKI: 0.00074


PSCL4 TOTAL     ACCESS:       3867  HIT:       1931  MISS:       1936  HIT %:    49.9354  MISS %:    50.0646   MPKI: 0.03872
PSCL4 LOAD TRANSLATION INSTRUCTION	ACCESS:       2802  HIT:       1907  MISS:        895  HIT %:    68.0585  MISS %:    31.9415  MPKI: 0.0179
PSCL4 TRANSLATION FROM L1D PREFETCHER INSTRUCTION	ACCESS:         41  HIT:         24  MISS:         17  HIT %:    58.5366  MISS %:    41.4634  MPKI: 0.00034
PSCL4 LOAD TRANSLATION DATA	ACCESS:       1017  HIT:          0  MISS:       1017  HIT %:          0  MISS %:        100  MPKI: 0.02034
PSCL4 TRANSLATION FROM L1D PREFETCHER DATA	ACCESS:          7  HIT:          0  MISS:          7  HIT %:          0  MISS %:        100  MPKI: 0.00014


PSCL3 TOTAL     ACCESS:       3825  HIT:       1907  MISS:       1918  HIT %:    49.8562  MISS %:    50.1438   MPKI: 0.03836
PSCL3 LOAD TRANSLATION INSTRUCTION	ACCESS:       2323  HIT:       1874  MISS:        449  HIT %:    80.6715  MISS %:    19.3285  MPKI: 0.00898
PSCL3 TRANSLATION FROM L1D PREFETCHER INSTRUCTION	ACCESS:         41  HIT:         33  MISS:          8  HIT %:    80.4878  MISS %:    19.5122  MPKI: 0.00016
PSCL3 LOAD TRANSLATION DATA	ACCESS:       1436  HIT:          0  MISS:       1436  HIT %:          0  MISS %:        100  MPKI: 0.02872
PSCL3 TRANSLATION FROM L1D PREFETCHER DATA	ACCESS:         25  HIT:          0  MISS:         25  HIT %:          0  MISS %:        100  MPKI: 0.0005


PSCL2 TOTAL     ACCESS:       4355  HIT:       2107  MISS:       2248  HIT %:    48.3812  MISS %:    51.6188   MPKI: 0.04496
PSCL2 LOAD TRANSLATION INSTRUCTION	ACCESS:       2383  HIT:       2070  MISS:        313  HIT %:    86.8653  MISS %:    13.1347  MPKI: 0.00626
PSCL2 TRANSLATION FROM L1D PREFETCHER INSTRUCTION	ACCESS:         37  HIT:         37  MISS:          0  HIT %:        100  MISS %:          0  MPKI: 0
PSCL2 LOAD TRANSLATION DATA	ACCESS:       1898  HIT:          0  MISS:       1898  HIT %:          0  MISS %:        100  MPKI: 0.03796
PSCL2 TRANSLATION FROM L1D PREFETCHER DATA	ACCESS:         37  HIT:          0  MISS:         37  HIT %:          0  MISS %:        100  MPKI: 0.00074


LLC TOTAL     ACCESS:     568103  HIT:     538431  MISS:      29672  HIT %:     94.777  MISS %:      5.223   MPKI: 0.59344
LLC LOAD INSTRUCTION	ACCESS:     286044  HIT:     284915  MISS:       1129  HIT %:    99.6053  MISS %:   0.394695  MPKI: 0.02258
LLC LOAD TRANSLATION INSTRUCTION	ACCESS:        238  HIT:        190  MISS:         48  HIT %:    79.8319  MISS %:    20.1681  MPKI: 0.00096
LLC LOAD DATA	ACCESS:      77999  HIT:      74215  MISS:       3784  HIT %:    95.1487  MISS %:    4.85134  MPKI: 0.07568
LLC RFO DATA	ACCESS:      51493  HIT:      37593  MISS:      13900  HIT %:     73.006  MISS %:     26.994  MPKI: 0.278
LLC PREFETCH DATA	ACCESS:      74619  HIT:      64261  MISS:      10358  HIT %:    86.1188  MISS %:    13.8812  MPKI: 0.20716
LLC WRITEBACK DATA	ACCESS:      76253  HIT:      75919  MISS:        334  HIT %:     99.562  MISS %:   0.438016  MPKI: 0.00668
LLC LOAD TRANSLATION DATA	ACCESS:       1447  HIT:       1328  MISS:        119  HIT %:    91.7761  MISS %:    8.22391  MPKI: 0.00238
LLC TRANSLATION FROM L1D PREFETCHER DATA	ACCESS:         10  HIT:         10  MISS:          0  HIT %:        100  MISS %:          0  MPKI: 0

LLC AVERAGE MISS LATENCY: 156.229 cycles
LLC RQ	ACCESS:     417235	FORWARD:          0	MERGED:          0	TO_CACHE:     417232
LLC WQ	ACCESS:      76253	FORWARD:          3	MERGED:          0	TO_CACHE:      76253
LLC PQ	ACCESS:      74619	FORWARD:          0	MERGED:          0	TO_CACHE:      74619

LLC Dense regions hint to LLC: 0

RAW hits: 1922698
Loads Generated: 12635471
Loads sent to L1D: 10712776
Stores Generated: 6955386
Stores sent to L1D: 6955398
Major fault: 0 Minor fault: 2591
Allocated PAGES: 2591

stream: 
stream:times selected: 1190797
stream:pref_filled: 122833
stream:pref_useful: 24238
stream:pref_late: 6665
stream:misses: 8086
stream:misses_by_poll: 0

CS: 
CS:times selected: 179962
CS:pref_filled: 58982
CS:pref_useful: 35819
CS:pref_late: 6541
CS:misses: 15954
CS:misses_by_poll: 3

CPLX: 
CPLX:times selected: 1009681
CPLX:pref_filled: 20248
CPLX:pref_useful: 4714
CPLX:pref_late: 2969
CPLX:misses: 93160
CPLX:misses_by_poll: 3

NL_L1: 
NL:times selected: 20358
NL:pref_filled: 793
NL:pref_useful: 341
NL:pref_late: 291
NL:misses: 1722
NL:misses_by_poll: 0

total selections: 2400798
total_filled: 94537
total_useful: 34114
total_late: 17867
total_polluted: 6
total_misses_after_warmup: 775430
conflicts: 5537912

test: 116759

DRAM Statistics
 CHANNEL 0
 RQ ROW_BUFFER_HIT:      10806  ROW_BUFFER_MISS:      18512
 DBUS_CONGESTED:         11
 WQ ROW_BUFFER_HIT:       1495  ROW_BUFFER_MISS:      12674  FULL:          0

 AVG_CONGESTED_CYCLE: 3

CPU 0 Branch Prediction Accuracy: 99.8098% MPKI: 0.34798 Average ROB Occupancy at Mispredict: 167.87
Branch types
NOT_BRANCH: 40851874 81.7037%
BRANCH_DIRECT_JUMP: 548408 1.09682%
BRANCH_INDIRECT: 182571 0.365142%
BRANCH_CONDITIONAL: 6180317 12.3606%
BRANCH_DIRECT_CALL: 946377 1.89275%
BRANCH_INDIRECT_CALL: 171970 0.34394%
BRANCH_RETURN: 1118347 2.23669%
BRANCH_OTHER: 0 0%

DRAM PAGES: 1048576
Allocated PAGES: 2591
Average_ROB_Occupancy: 209.851
Average_Decode_Occupancy: 26.9762
Average_FTQ_Occupancy: 10.6047
Indirect max targets: 14 Average targets: 1.17572
Branch_type:  BRANCH_DIRECT_JUMP:  Count Percentage: 3.65456 5.30924 4.21505 2.77702 8.18439 6.01067 6.80713 63.0419 
Branch_type:  BRANCH_INDIRECT:  Count Percentage: 11.7748 3.41525 2.56267 0 13.0274 2.80817 16.5336 49.8781 
Branch_type:  BRANCH_CONDITIONAL:  Count Percentage: 20.9081 6.79574 2.46823 2.45299 3.75546 4.63239 3.16229 55.8248 
Branch_type:  BRANCH_DIRECT_CALL:  Count Percentage: 0.390155 1.76233 0.740933 1.48346 5.09138 2.6241 0.741888 87.1658 
Branch_type:  BRANCH_INDIRECT_CALL:  Count Percentage: 9.56376 0 2.99636 0.000876043 0.848009 1.715 0.00759237 84.8684 
Branch_type:  BRANCH_RETURN:  Count Percentage: 3.73481 5.45794 2.15223 2.84173 4.80673 5.13361 3.51602 72.3569 
Branch_type:  BRANCH_DIRECT_JUMP:  Total Count: 40113 58275 46265 30481 89833 65974 74716 691957 
Branch_type:  BRANCH_INDIRECT:  Total Count: 43117 12506 9384 0 47704 10283 60543 182644 
Branch_type:  BRANCH_CONDITIONAL:  Total Count: 2584652 840086 305121 303237 464248 572653 390920 6901027 
Branch_type:  BRANCH_DIRECT_CALL:  Total Count: 7352 33209 13962 27954 95941 49448 13980 1642535 
Branch_type:  BRANCH_INDIRECT_CALL:  Total Count: 32751 0 10261 3 2904 5873 26 290631 
Branch_type:  BRANCH_RETURN:  Total Count: 83200 121586 47945 63305 107079 114361 78326 1611888 
Number of unique branch instructions: 10653
Upper 32 bits: 
aaaa
ffff
ffff0000
Unique upper 32 bits: 3
Unique upper 36 bits: 3
Unique upper 40 bits: 5
Unique upper 44 bits: 32
Unique upper 48 bits: 158
Variant_0 : 1385 0.338135
Variant_1 : 1294 0.315918
Variant_2 : 1370 0.334473
Variant_3 : 0 0
Offset_3 4405
Offset_4 260
Offset_5 479
Offset_6 541
Offset_7 634
Offset_8 576
Offset_9 510
Offset_10 417
Offset_11 342
Offset_12 308
Offset_13 238
Offset_14 244
Offset_15 196
Offset_16 226
Offset_17 163
Offset_18 144
Offset_19 259
Offset_20 141
Offset_21 235
Offset_22 409
Offset_23 241
Offset_24 343
Offset_25 117
Offset_47 92
Offset_64 2
decode_dispatch_called: 23480941 63.2635
Dispatch_width: 0 12329607 52.509 33.219
Dispatch_width: 1 801654 3.41406 2.15986
Dispatch_width: 2 763814 3.25291 2.05791
Dispatch_width: 3 458087 1.95089 1.2342
Dispatch_width: 4 4126999 17.576 11.1192
Dispatch_width: 5 216335 0.921322 0.582861
Dispatch_width: 6 4784445 20.3759 12.8905
Empty_decode_cycles: 13635136 36.7365
ROB_full_cycles: 6453893 17.3884
Starvation_cycles_per_kilo_instr: 258.777
Starvation_cycles_per_kilo_instr_3: 215.344
Starvation_cycles_per_kilo_instr_0: 195.108
Branch_type_1  (3,1)  (4,9)  (5,39)  (6,74)  (7,123)  (8,151)  (9,134)  (10,110)  (11,76)  (12,47)  (13,11)  (14,2)  (15,3)  (16,4)  (18,1)  (19,5)  (20,2)  (21,1)  (22,3)  (23,2)  (24,10)  (25,12) 
Branch_type_2  (3,1)  (4,1)  (5,1)  (8,4)  (9,4)  (10,1)  (12,1)  (13,1)  (14,1)  (16,3)  (17,2)  (20,2)  (21,2)  (23,5)  (24,1)  (47,41) 
Branch_type_3  (3,4403)  (4,250)  (5,435)  (6,451)  (7,481)  (8,354)  (9,279)  (10,168)  (11,130)  (12,54)  (13,10)  (64,2) 
Branch_type_4  (6,3)  (7,8)  (8,26)  (9,55)  (10,66)  (11,70)  (12,115)  (13,101)  (14,110)  (15,93)  (16,99)  (17,75)  (18,61)  (19,126)  (20,72)  (21,124)  (22,214)  (23,136)  (24,198)  (25,101) 
Branch_type_5  (8,3)  (9,1)  (10,4)  (11,5)  (12,3)  (13,14)  (14,16)  (15,11)  (16,22)  (17,11)  (18,23)  (19,14)  (20,11)  (21,13)  (22,43)  (23,26)  (24,38) 
Branch_type_6  (5,4)  (6,13)  (7,22)  (8,38)  (9,37)  (10,68)  (11,61)  (12,88)  (13,101)  (14,115)  (15,89)  (16,98)  (17,75)  (18,59)  (19,114)  (20,54)  (21,95)  (22,149)  (23,72)  (24,96)  (25,4)  (47,51) 
Unique trigger count: 
Variant_0_evicts_0 : 0
Variant_0_evicts_1 : 0
Variant_0_evicts_2 : 0
Variant_0_evicts_3 : 0
Variant_1_evicts_0 : 0
Variant_1_evicts_1 : 0
Variant_1_evicts_2 : 0
Variant_1_evicts_3 : 0
Variant_2_evicts_0 : 0
Variant_2_evicts_1 : 0
Variant_2_evicts_2 : 0
Variant_2_evicts_3 : 0
Variant_3_evicts_0 : 0
Variant_3_evicts_1 : 0
Variant_3_evicts_2 : 0
Variant_3_evicts_3 : 0
BTB PER SET UNIQUE ADDR: 11 14 8 14 9 16 11 15 10 13 11 20 19 13 12 8 15 10 12 11 14 12 14 16 12 14 15 9 17 11 12 19 16 6 12 7 14 10 8 11 10 7 17 15 10 13 18 12 14 13 16 10 13 14 12 5 13 10 11 14 11 17 8 10 17 17 13 13 14 12 17 12 14 11 11 8 8 19 8 17 11 9 10 14 17 12 11 8 10 16 9 9 12 10 10 16 11 13 14 17 18 17 12 16 12 10 9 13 8 12 7 19 12 9 9 7 12 10 10 12 12 12 12 12 14 16 7 16 20 9 9 19 10 19 8 12 9 12 9 14 14 13 13 15 12 14 11 10 8 13 13 18 11 13 12 17 20 14 16 15 14 14 13 15 9 9 14 6 9 7 11 14 12 15 12 9 13 14 12 11 6 12 11 18 19 15 5 14 12 12 10 12 10 13 16 13 9 14 8 14 14 15 13 14 13 10 12 12 16 11 9 15 13 15 8 13 15 13 13 19 8 13 8 9 8 15 17 9 8 19 5 7 10 15 12 11 11 12 14 12 15 13 15 12 17 11 9 8 13 11 15 14 12 13 16 8 10 9 13 12 13 9 6 13 18 11 13 11 12 13 10 15 10 6 10 10 11 14 14 12 12 16 10 13 6 8 12 14 16 13 16 11 15 14 7 13 13 13 16 10 11 12 11 21 9 16 12 12 15 10 11 17 7 17 10 5 22 14 11 20 13 12 12 11 11 19 12 12 8 11 10 14 12 12 15 15 11 10 7 19 14 14 8 15 11 14 13 16 16 10 11 11 12 14 12 9 11 11 12 12 10 14 8 14 9 14 8 11 15 12 14 11 18 14 10 15 13 10 15 7 15 12 8 9 9 14 18 12 14 11 13 12 17 18 10 10 10 7 16 9 13 12 8 12 13 16 16 15 14 8 16 7 11 19 10 9 12 14 19 20 13 11 9 12 20 11 13 12 13 14 22 16 9 12 13 11 18 12 11 11 16 7 12 16 21 8 11 13 10 15 15 14 18 11 12 21 17 16 10 13 12 13 15 9 19 13 12 11 13 17 13 13 16 11 16 15 15 18 13 12 17 15 11 13 5 16 15 13 16 18 10 16 10 6 11 6 12 18 10 10 8 17 12 15 8 12 11 9 18 12 10 14 11 13 13 16 11 22 6 10 6 12 12 8 11 15 21 10 6 21 14 10 19 11 12 18 10 17 10 13 17 11 14 11 19 15 11 12 12 8 17 16 14 10 10 16 13 10 19 17 17 12 15 13 12 11 9 16 16 15 11 8 15 10 14 15 19 14 10 10 12 11 7 14 12 11 16 14 13 17 14 13 12 11 13 10 8 12 9 12 14 11 15 8 16 17 17 11 16 7 16 10 12 13 4 13 10 16 13 14 17 10 6 10 14 18 13 18 10 13 9 14 14 13 10 12 8 19 10 16 9 16 14 14 16 13 9 16 23 10 8 13 10 8 12 10 13 14 10 17 12 10 9 12 13 17 10 15 12 14 17 16 14 17 15 11 14 17 12 11 12 12 14 13 17 13 8 17 21 18 15 11 16 11 11 10 16 15 9 12 8 15 18 15 9 12 12 9 14 10 12 16 6 14 13 10 12 11 13 14 14 8 14 17 10 12 13 10 8 9 17 10 14 8 9 14 12 16 12 15 14 9 12 9 13 14 14 17 8 11 12 10 14 13 9 12 17 15 12 9 8 12 9 11 15 13 7 15 13 11 15 13 14 13 11 10 16 8 18 12 10 11 17 10 9 12 11 13 6 6 7 10 16 14 15 19 15 10 15 12 17 12 17 18 16 14 15 11 11 12 15 16 11 16 12 16 15 16 7 11 17 18 10 15 14 13 7 15 15 17 13 19 17 15 12 15 14 14 13 12 15 14 10 16 14 18 11 19 12 8 13 10 12 12 13 15 18 11 14 13 15 15 12 8 22 5 15 9 13 14 13 12 17 8 14 9 13 11 10 12 16 6 15 15 13 10 18 10 10 15 15 10 14 12 10 15 16 12 10 8 10 12 14 8 8 14 10 13 12 14 9 16 13 15 18 15 18 9 10 12 15 16 10 7 12 8 9 10 12 9 16 18 21 15 14 17 12 9 9 15 12 21 11 17 11 11 10 18 8 15 16 14 8 18 11 12 15 14 15 17 12 12 13 15 19 9 13 16 12 17 13 14 16 10 14 13 18 11 17 19 15 12 13 15 10 17 23 11 12 11 15 11 15 17 13 9 10 10 24 14 19 19 10 14 16 12 9 19 9 14 9 17 9 7 11 14 6 9 9 10 11 16 10 7 
BTB PER SET COUNT: 18 26 1760 17 1474 25 986 20 20 18 14 967 15472 30 14 11 997 1484 25 15 21 16 739 74 24 21 22 10 27 223 18 1022 25 6 15 7 31 16 10 2767 12 16 25 21 1476 29 29 18 825 400 31 263 24 25 313 6 17 16 16 20 11 20 12 13 26 371 15 956 23 19 1489 510 23 16 16 10 11 602 12 30 949 10 18 1005 28 49 16 10 1295 26 10 14 13 12 17 26 1085 15 20 26 26 27 14 80 2308 16 12 17 988 15 9 26 40 14 13 580 20 12 1481 283 442 45 17 15 20 58 10 874 31 1002 10 5863 18 33 13 18 984 21 15 29 21 235 24 29 30 18 22 17 9 21 20 252 638 17 18 27 146 22 25 20 25 271 16 19 1475 13 21 6 11 1473 15 17 16 21 18 9 25 17 51 987 8 174 89 32 92 42 6 17 997 1027 21 14 12 19 18 165 16 521 11 16 23 110 986 24 17 13 14 324 20 19 15 55 22 2034 11 1364 29 16 2938 26 16 17 10 10 9 19 23 250 9 32 5 9 13 25 14 3519 149 30 26 17 23 23 27 14 27 15 12 9 21 11 22 17 18 15 24 9 51 16 22 16 718 12 6 28 25 15 17 12 2110 16 15 24 10 6 17 10 18 21 24 575 12 23 19 19 10 10 16 18 25 14 18 14 23 203 10 24 19 17 26 864 15 15 11 30 12 116 79 88 238 26 24 26 10 22 1969 994 29 22 19 33 15 1072 21 15 1476 31 15 21 10 11 13 19 24 15 17 26 15 984 8 24 14 51 9 18 21 16 16 32 19 22 15 11 16 18 18 14 12 21 371 23 13 20 8 21 9 42 14 17 21 15 20 56 27 23 986 17 20 16 349 7 718 12 823 12 10 22 421 12 16 1293 23 17 42 198 11 857 13 10 1745 12 20 15 8 15 18 26 27 19 18 8 629 8 19 419 13 10 13 1633 469 25 16 14 14 16 31 13 1405 20 19 17 74 17 12 13 64 22 22 80 13 25 20 7 20 23 2466 8 153 19 16 22 20 40 31 14 17 1505 20 17 13 15 18 18 21 16 22 15 24 19 17 29 24 18 21 15 21 22 16 25 23 17 22 17 17 21 8 1010 29 17 23 37 15 18 12 7 13 6 184 984 12 15 8 32 17 150 9 16 16 9 25 16 264 1810 156 508 17 23 29 35 6 148 9 21 13 10 17 19 364 16 7 1788 20 11 30 13 13 32 15 434 18 433 21 14 18 19 34 425 13 19 26 9 24 29 824 21 14 30 15 10 37 42 22 15 19 14 16 16 10 20 20 21 633 8 20 12 2461 20 31 157 12 12 17 15 8 1510 16 18 18 25 18 33 26 18 658 14 26 15 11 378 9 12 15 17 23 14 25 21 35 763 26 7 27 19 25 19 4 19 16 20 18 15 19 11 6 10 21 21 17 24 12 25 9 21 23 18 12 17 10 451 12 215 9 20 21 26 52 72 998 30 283 10 8 17 17 9 35 511 23 303 18 274 26 16 10 19 33 26 12 144 1484 23 26 26 853 28 69 141 19 26 12 15 12 13 23 24 21 15 11 20 41 27 19 15 19 18 970 16 30 18 17 19 818 19 1475 26 9 16 22 11 16 13 363 440 1003 21 14 16 17 11 15 458 20 11 14 395 12 15 25 12 1000 11 48 12658 64 121 13 22 1012 17 15 18 853 19 12 17 19 21 392 21 14 17 23 10 20 1974 11 14 24 873 20 10 9 22 9 39 2943 20 7 477 21 18 66 25 16 15 18 12 28 530 31 24 997 16 23 11 11 85 14 13 14 8 13 284 21 31 643 32 25 12 17 1091 28 17 22 29 75 20 27 15 16 42 21 7878 15 1232 452 516 17 267 12 14 24 616 12 30 99 16 7 21 22 23 17 28 32 20 494 1440 20 23 14 14 23 180 13 22 1198 27 25 28 15 8 22 1947 14 16 20 33 101 14 30 14 18 20 15 9 34 5 21 10 17 48 20 46 26 9 16 11 19 15 10 18 18 6 91 116 705 21 21 12 13 33 19 23 29 14 13 20 22 17 11 8 11 14 22 700 13 20 14 18 16 198 497 579 20 24 26 216 270 283 19 17 23 22 13 8 19 13 12 13 17 19 45 21 113 23 19 46 15 15 16 17 12 738 19 19 18 15 34 31 8 20 23 55 16 263 11 12 183 21 23 312 14 16 348 22 26 13 1272 26 17 28 24 20 28 11 1487 25 26 17 28 37 26 20 18 188 13 742 31 25 17 20 23 12 132 118 22 9 18 1480 30 1122 27 37 20 24 18 14 12 33 12 989 16 23 10 7 16 19 8 12 12 10 20 519 13 11 
To predecode: 0
Predecoding something: 0
Predecode request dropped: 0
sizeofblock_0 0
sizeofblock_1 38078
sizeofblock_2 43643
sizeofblock_3 38128
sizeofblock_4 21629
sizeofblock_5 0
sizeofblock_6 0
sizeofblock_7 0
sizeofblock_8 0
Variant_0 Correct: 1612210 Incorrect: 0 Accuracy: 1
Variant_1 Correct: 2089888 Incorrect: 0 Accuracy: 1
Variant_2 Correct: 3642137 Incorrect: 0 Accuracy: 1
Variant_3 Correct: 0 Incorrect: 0 Accuracy: -nan
