
*** ChampSim Multicore Out-of-Order Simulator ***

Warmup Instructions: 50000000
Simulation Instructions: 50000000
Number of CPUs: 1
LLC sets: 2048
LLC ways: 16
Off-chip DRAM Size: 4096 MB Channels: 1 Width: 64-bit Data Rate: 6400 MT/s
CPU 0 runs ./micro_traces/srv567.trace.gz
.gz
ITLB has LRU replacement policy
DTLB has LRU replacement policy
STLB has LRU replacement policy
FDIP Prefetcher at L1I
L1I has LRU replacement policy
L1D has LRU replacement policy
Initialize SRRIP state for L2C
Initialize DRRIP state for LLC
Heartbeat_Variant_0 : 1329 0.324463 per_variant_size: 0 1329 0 0 0 0 0 0 0 
Heartbeat_Variant_1 : 2516 0.614258 per_variant_size: 0 552 1964 0 0 0 0 0 0 
Heartbeat_Variant_2 : 0 0 per_variant_size: 0 0 0 0 0 0 0 0 0 
Heartbeat_Variant_3 : 0 0 per_variant_size: 0 0 0 0 0 0 0 0 0 
Heartbeat_Variant_0_evicts 0 : 5789 1 : 447 2 : 0 3 : 0 
Heartbeat_Variant_1_evicts 0 : 387 1 : 0 2 : 0 3 : 0 
Heartbeat_Variant_2_evicts 0 : 0 1 : 0 2 : 0 3 : 0 
Heartbeat_Variant_3_evicts 0 : 0 1 : 0 2 : 0 3 : 0 
Heartbeat CPU 0 instructions: 10000000 cycles: 2798027 heartbeat IPC: 3.57395 cumulative IPC: 3.57395 (Simulation time: 0 hr 1 min 47 sec) 
Heartbeat_Variant_0 : 1351 0.329834 per_variant_size: 0 1351 0 0 0 0 0 0 0 
Heartbeat_Variant_1 : 2583 0.630615 per_variant_size: 0 533 2050 0 0 0 0 0 0 
Heartbeat_Variant_2 : 0 0 per_variant_size: 0 0 0 0 0 0 0 0 0 
Heartbeat_Variant_3 : 0 0 per_variant_size: 0 0 0 0 0 0 0 0 0 
Heartbeat_Variant_0_evicts 0 : 5635 1 : 201 2 : 0 3 : 0 
Heartbeat_Variant_1_evicts 0 : 201 1 : 0 2 : 0 3 : 0 
Heartbeat_Variant_2_evicts 0 : 0 1 : 0 2 : 0 3 : 0 
Heartbeat_Variant_3_evicts 0 : 0 1 : 0 2 : 0 3 : 0 
Heartbeat CPU 0 instructions: 20000002 cycles: 5593102 heartbeat IPC: 3.57772 cumulative IPC: 3.57583 (Simulation time: 0 hr 3 min 23 sec) 
Heartbeat_Variant_0 : 1351 0.329834 per_variant_size: 0 1351 0 0 0 0 0 0 0 
Heartbeat_Variant_1 : 2591 0.632568 per_variant_size: 0 547 2044 0 0 0 0 0 0 
Heartbeat_Variant_2 : 0 0 per_variant_size: 0 0 0 0 0 0 0 0 0 
Heartbeat_Variant_3 : 0 0 per_variant_size: 0 0 0 0 0 0 0 0 0 
Heartbeat_Variant_0_evicts 0 : 5744 1 : 36 2 : 0 3 : 0 
Heartbeat_Variant_1_evicts 0 : 36 1 : 0 2 : 0 3 : 0 
Heartbeat_Variant_2_evicts 0 : 0 1 : 0 2 : 0 3 : 0 
Heartbeat_Variant_3_evicts 0 : 0 1 : 0 2 : 0 3 : 0 
Heartbeat CPU 0 instructions: 30000003 cycles: 8389219 heartbeat IPC: 3.57639 cumulative IPC: 3.57602 (Simulation time: 0 hr 5 min 5 sec) 
Heartbeat_Variant_0 : 1363 0.332764 per_variant_size: 0 1363 0 0 0 0 0 0 0 
Heartbeat_Variant_1 : 2622 0.640137 per_variant_size: 0 524 2098 0 0 0 0 0 0 
Heartbeat_Variant_2 : 0 0 per_variant_size: 0 0 0 0 0 0 0 0 0 
Heartbeat_Variant_3 : 0 0 per_variant_size: 0 0 0 0 0 0 0 0 0 
Heartbeat_Variant_0_evicts 0 : 5738 1 : 250 2 : 0 3 : 0 
Heartbeat_Variant_1_evicts 0 : 242 1 : 0 2 : 0 3 : 0 
Heartbeat_Variant_2_evicts 0 : 0 1 : 0 2 : 0 3 : 0 
Heartbeat_Variant_3_evicts 0 : 0 1 : 0 2 : 0 3 : 0 
Heartbeat CPU 0 instructions: 40000002 cycles: 11185472 heartbeat IPC: 3.57621 cumulative IPC: 3.57607 (Simulation time: 0 hr 6 min 43 sec) 
Heartbeat_Variant_0 : 1363 0.332764 per_variant_size: 0 1363 0 0 0 0 0 0 0 
Heartbeat_Variant_1 : 2626 0.641113 per_variant_size: 0 523 2103 0 0 0 0 0 0 
Heartbeat_Variant_2 : 0 0 per_variant_size: 0 0 0 0 0 0 0 0 0 
Heartbeat_Variant_3 : 0 0 per_variant_size: 0 0 0 0 0 0 0 0 0 
Heartbeat_Variant_0_evicts 0 : 5575 1 : 36 2 : 0 3 : 0 
Heartbeat_Variant_1_evicts 0 : 37 1 : 0 2 : 0 3 : 0 
Heartbeat_Variant_2_evicts 0 : 0 1 : 0 2 : 0 3 : 0 
Heartbeat_Variant_3_evicts 0 : 0 1 : 0 2 : 0 3 : 0 
Heartbeat CPU 0 instructions: 50000001 cycles: 13981896 heartbeat IPC: 3.576 cumulative IPC: 3.57605 (Simulation time: 0 hr 8 min 22 sec) 

Warmup complete CPU 0 instructions: 50000001 cycles: 13981896 (Simulation time: 0 hr 8 min 22 sec) 

Cycle: 20000000 FTQ IN: 58257526 FTQ occupancy: 20.5247 DECODE IN: 58257445 DECODE occupancy: 53.2558 ROB IN: 58257385 ROB occupancy: 317.043 ROB OUT: 58257033
Heartbeat_Variant_0 : 1376 0.335938 per_variant_size: 0 1376 0 0 0 0 0 0 0 
Heartbeat_Variant_1 : 2626 0.641113 per_variant_size: 0 519 2107 0 0 0 0 0 0 
Heartbeat_Variant_2 : 0 0 per_variant_size: 0 0 0 0 0 0 0 0 0 
Heartbeat_Variant_3 : 0 0 per_variant_size: 0 0 0 0 0 0 0 0 0 
Heartbeat_Variant_0_evicts 0 : 5670 1 : 145 2 : 0 3 : 0 
Heartbeat_Variant_1_evicts 0 : 134 1 : 0 2 : 0 3 : 0 
Heartbeat_Variant_2_evicts 0 : 0 1 : 0 2 : 0 3 : 0 
Heartbeat_Variant_3_evicts 0 : 0 1 : 0 2 : 0 3 : 0 
Heartbeat CPU 0 instructions: 60000001 cycles: 21245558 heartbeat IPC: 1.37672 cumulative IPC: 1.37672 (Simulation time: 0 hr 10 min 17 sec) 
Heartbeat_Variant_0 : 1376 0.335938 per_variant_size: 0 1376 0 0 0 0 0 0 0 
Heartbeat_Variant_1 : 2632 0.642578 per_variant_size: 0 504 2128 0 0 0 0 0 0 
Heartbeat_Variant_2 : 0 0 per_variant_size: 0 0 0 0 0 0 0 0 0 
Heartbeat_Variant_3 : 0 0 per_variant_size: 0 0 0 0 0 0 0 0 0 
Heartbeat_Variant_0_evicts 0 : 5606 1 : 44 2 : 0 3 : 0 
Heartbeat_Variant_1_evicts 0 : 47 1 : 0 2 : 0 3 : 0 
Heartbeat_Variant_2_evicts 0 : 0 1 : 0 2 : 0 3 : 0 
Heartbeat_Variant_3_evicts 0 : 0 1 : 0 2 : 0 3 : 0 
Heartbeat CPU 0 instructions: 70000002 cycles: 28370590 heartbeat IPC: 1.4035 cumulative IPC: 1.38998 (Simulation time: 0 hr 12 min 12 sec) 
Cycle: 30000000 FTQ IN: 14025593 FTQ occupancy: 14.812 DECODE IN: 14025674 DECODE occupancy: 38.0702 ROB IN: 14025726 ROB occupancy: 247.319 ROB OUT: 14025727
Heartbeat_Variant_0 : 1375 0.335693 per_variant_size: 0 1375 0 0 0 0 0 0 0 
Heartbeat_Variant_1 : 2634 0.643066 per_variant_size: 0 507 2127 0 0 0 0 0 0 
Heartbeat_Variant_2 : 0 0 per_variant_size: 0 0 0 0 0 0 0 0 0 
Heartbeat_Variant_3 : 0 0 per_variant_size: 0 0 0 0 0 0 0 0 0 
Heartbeat_Variant_0_evicts 0 : 5627 1 : 36 2 : 0 3 : 0 
Heartbeat_Variant_1_evicts 0 : 38 1 : 0 2 : 0 3 : 0 
Heartbeat_Variant_2_evicts 0 : 0 1 : 0 2 : 0 3 : 0 
Heartbeat_Variant_3_evicts 0 : 0 1 : 0 2 : 0 3 : 0 
Heartbeat CPU 0 instructions: 80000002 cycles: 35580826 heartbeat IPC: 1.38692 cumulative IPC: 1.38896 (Simulation time: 0 hr 14 min 5 sec) 
Cycle: 40000000 FTQ IN: 13865875 FTQ occupancy: 14.9549 DECODE IN: 13865785 DECODE occupancy: 38.1762 ROB IN: 13865733 ROB occupancy: 247.983 ROB OUT: 13865736
Heartbeat_Variant_0 : 1378 0.336426 per_variant_size: 0 1378 0 0 0 0 0 0 0 
Heartbeat_Variant_1 : 2639 0.644287 per_variant_size: 0 497 2142 0 0 0 0 0 0 
Heartbeat_Variant_2 : 0 0 per_variant_size: 0 0 0 0 0 0 0 0 0 
Heartbeat_Variant_3 : 0 0 per_variant_size: 0 0 0 0 0 0 0 0 0 
Heartbeat_Variant_0_evicts 0 : 5573 1 : 102 2 : 0 3 : 0 
Heartbeat_Variant_1_evicts 0 : 100 1 : 0 2 : 0 3 : 0 
Heartbeat_Variant_2_evicts 0 : 0 1 : 0 2 : 0 3 : 0 
Heartbeat_Variant_3_evicts 0 : 0 1 : 0 2 : 0 3 : 0 
Heartbeat CPU 0 instructions: 90000001 cycles: 42754036 heartbeat IPC: 1.39408 cumulative IPC: 1.39023 (Simulation time: 0 hr 15 min 57 sec) 
Heartbeat_Variant_0 : 1381 0.337158 per_variant_size: 0 1381 0 0 0 0 0 0 0 
Heartbeat_Variant_1 : 2640 0.644531 per_variant_size: 0 500 2140 0 0 0 0 0 0 
Heartbeat_Variant_2 : 0 0 per_variant_size: 0 0 0 0 0 0 0 0 0 
Heartbeat_Variant_3 : 0 0 per_variant_size: 0 0 0 0 0 0 0 0 0 
Heartbeat_Variant_0_evicts 0 : 5654 1 : 41 2 : 0 3 : 0 
Heartbeat_Variant_1_evicts 0 : 38 1 : 0 2 : 0 3 : 0 
Heartbeat_Variant_2_evicts 0 : 0 1 : 0 2 : 0 3 : 0 
Heartbeat_Variant_3_evicts 0 : 0 1 : 0 2 : 0 3 : 0 
Heartbeat CPU 0 instructions: 100000001 cycles: 49955321 heartbeat IPC: 1.38864 cumulative IPC: 1.38991 (Simulation time: 0 hr 17 min 53 sec) 
Finished CPU 0 instructions: 50000000 cycles: 35973425 cumulative IPC: 1.38991 (Simulation time: 0 hr 17 min 53 sec) 

ChampSim completed all CPUs

Region of Interest Statistics

CPU 0 cumulative IPC: 1.38991 instructions: 50000000 cycles: 35973425
 Fetch stage stalled: 46.0246  Sim cycles: 35973425 fetch stall cycle: 16556640
 Empty decode stage: 25.5708  Sim cycles: 35973425 fetch stall cycle: 9198689
ITLB TOTAL     ACCESS:    5837130  HIT:    5343615  MISS:     493515  HIT %:    91.5452  MISS %:    8.45475   MPKI: 9.8703
ITLB LOAD TRANSLATION INSTRUCTION	ACCESS:    5699432  HIT:    5205917  MISS:     493515  HIT %:     91.341  MISS %:    8.65902  MPKI: 9.8703
ITLB TRANSLATION FROM L1D PREFETCHER INSTRUCTION	ACCESS:     137698  HIT:     137698  MISS:          0  HIT %:        100  MISS %:          0  MPKI: 0

ITLB AVERAGE MISS LATENCY: 9.06396 cycles
ITLB RQ	ACCESS:    7931158	FORWARD:          0	MERGED:    1613705	TO_CACHE:    6317453

DTLB TOTAL     ACCESS:    8961029  HIT:    8491246  MISS:     469783  HIT %:    94.7575  MISS %:    5.24251   MPKI: 9.39566
DTLB LOAD TRANSLATION DATA	ACCESS:    8961029  HIT:    8491246  MISS:     469783  HIT %:    94.7575  MISS %:    5.24251  MPKI: 9.39566

DTLB AVERAGE MISS LATENCY: 9.32904 cycles
DTLB RQ	ACCESS:   13330044	FORWARD:          0	MERGED:    4332364	TO_CACHE:    8997680

STLB TOTAL     ACCESS:    1211768  HIT:    1209679  MISS:       2089  HIT %:    99.8276  MISS %:   0.172393   MPKI: 0.04178
STLB LOAD TRANSLATION INSTRUCTION	ACCESS:     493515  HIT:     493233  MISS:        282  HIT %:    99.9429  MISS %:  0.0571411  MPKI: 0.00564
STLB LOAD TRANSLATION DATA	ACCESS:     469783  HIT:     468012  MISS:       1771  HIT %:     99.623  MISS %:   0.376983  MPKI: 0.03542
STLB TRANSLATION FROM L1D PREFETCHER DATA	ACCESS:     248470  HIT:     248434  MISS:         36  HIT %:    99.9855  MISS %:  0.0144887  MPKI: 0.00072

STLB AVERAGE MISS LATENCY: 74.4055 cycles
STLB RQ	ACCESS:    1333005	FORWARD:          0	MERGED:     121198	TO_CACHE:    1211807

STLB Hit, L1D data hit: 0
STLB Hit, L2C data hit: 0
STLB Hit, LLC data hit: 0
STLB Hit, LLC data miss: 0
STLB STLB hints to L2: 0
L1D TOTAL     ACCESS:   13072497  HIT:   11954081  MISS:    1118416  HIT %:    91.4445  MISS %:    8.55549   MPKI: 22.3683
L1D LOAD DATA	ACCESS:    6544124  HIT:    5807512  MISS:     736612  HIT %:    88.7439  MISS %:    11.2561  MPKI: 14.7322
L1D RFO DATA	ACCESS:    6200424  HIT:    5914286  MISS:     286138  HIT %:    95.3852  MISS %:    4.61481  MPKI: 5.72276
L1D PREFETCH DATA	ACCESS:     327949  HIT:     232283  MISS:      95666  HIT %:     70.829  MISS %:     29.171  MPKI: 1.91332

L1D PREFETCH  REQUESTED:     739787  ISSUED:     739787  USEFUL:      35382  USELESS:      68978
L1D USEFUL LOAD PREFETCHES:      35382 PREFETCH ISSUED TO LOWER LEVEL:     104382  ACCURACY: 33.8966
 TIMELY PREFETCHES:      35382 LATE PREFETCHES: 8681 DROPPED PREFETCHES: 11
L1D AVERAGE MISS LATENCY: 250119 cycles
L1D RQ	ACCESS:   10691589	FORWARD:          0	MERGED:    3946290	TO_CACHE:    6579805
L1D WQ	ACCESS:    6947799	FORWARD:     165867	MERGED:     197560	TO_CACHE:    6750239
L1D PQ	ACCESS:     370080	FORWARD:          0	MERGED:          0	TO_CACHE:     369707

L1D UNIQUE REGIONS ACCESSED: 0
L1D REGIONS CONFLICTS: 0
L1D Cross Page Prefetch Requests: 6891
L1D Same Page Prefetch Requests: 749548
L1D ROI Sum of L1D PQ occupancy: 4697341
L1D PREFETCHES PUSHED FROM L2C: 0
L1I TOTAL     ACCESS:    7118279  HIT:    4356920  MISS:    2761359  HIT %:    61.2075  MISS %:    38.7925   MPKI: 55.2272
L1I LOAD INSTRUCTION	ACCESS:    6442951  HIT:    3681592  MISS:    2761359  HIT %:    57.1414  MISS %:    42.8586  MPKI: 55.2272
L1I PREFETCH INSTRUCTION	ACCESS:     675328  HIT:     675328  MISS:          0  HIT %:        100  MISS %:          0  MPKI: 0

L1I PREFETCH  REQUESTED:    1608238  ISSUED:    1608238  USEFUL:          0  USELESS:          0
L1I USEFUL LOAD PREFETCHES:          0 PREFETCH ISSUED TO LOWER LEVEL:          0  ACCURACY: -nan
 TIMELY PREFETCHES:          0 LATE PREFETCHES: 0 DROPPED PREFETCHES: 0
L1I AVERAGE MISS LATENCY: 17.2898 cycles
L1I RQ	ACCESS:    9565115	FORWARD:          0	MERGED:    2818059	TO_CACHE:    6747056
L1I PQ	ACCESS:    1608238	FORWARD:          0	MERGED:     424136	TO_CACHE:    1184102

L1BTB TOTAL     ACCESS:    5667994  HIT:    2041915  MISS:    3626079  HIT %:    36.0254  MISS %:    63.9746   MPKI: 72.5216
L1BTB BRANCH_DIRECT_JUMP	ACCESS:     548040 HIT:     144579 MISS:     403461 AVERAGE STALL: 54.278 AVERAGE FETCH STALL: 14.3559 AVERAGE FETCH QUEUE STALL: 19.6079 AVERAGE DECODE STALL: 19.3817 AVERAGE EXECUTE STALL: 2.14672e+15
L1BTB BRANCH_INDIRECT	ACCESS:     182829 HIT:      66038 MISS:     116791 AVERAGE STALL: 109.866 AVERAGE FETCH STALL: 10.8784 AVERAGE FETCH QUEUE STALL: 19.6097 AVERAGE DECODE STALL: 13.5805 AVERAGE EXECUTE STALL: 64.8362
L1BTB BRANCH_CONDITIONAL	ACCESS:    2704931 HIT:    1412954 MISS:    1291977 AVERAGE STALL: 63.362 AVERAGE FETCH STALL: 20.5891 AVERAGE FETCH QUEUE STALL: 25.3473 AVERAGE DECODE STALL: 16.6966 AVERAGE EXECUTE STALL: 2.3496e+15
L1BTB BRANCH_DIRECT_CALL	ACCESS:     944385 HIT:     106143 MISS:     838242 AVERAGE STALL: 76.7401 AVERAGE FETCH STALL: 29.3633 AVERAGE FETCH QUEUE STALL: 28.1151 AVERAGE DECODE STALL: 18.3912 AVERAGE EXECUTE STALL: 1.65888e+16
L1BTB BRANCH_INDIRECT_CALL	ACCESS:     171712 HIT:      21413 MISS:     150299 AVERAGE STALL: 141.856 AVERAGE FETCH STALL: 12.2699 AVERAGE FETCH QUEUE STALL: 17.8819 AVERAGE DECODE STALL: 13.7937 AVERAGE EXECUTE STALL: 97.413
L1BTB BRANCH_RETURN	ACCESS:    1116097 HIT:     290788 MISS:     825309 AVERAGE STALL: 48.6206 AVERAGE FETCH STALL: 16.3299 AVERAGE FETCH QUEUE STALL: 5.58065 AVERAGE DECODE STALL: 6.21136 AVERAGE EXECUTE STALL: 4.16951e+14
L1BTB BRANCH_OTHER ACCESS:          0 HIT:          0 MISS:          0 AVERAGE STALL: -nan AVERAGE FETCH STALL: -nan AVERAGE FETCH QUEUE STALL: -nan AVERAGE DECODE STALL: -nan AVERAGE EXECUTE STALL: -nan
L1BTB TOTAL ROB OCCUPANCY AT BTB MISS: 2.91342

L2BTB TOTAL     ACCESS:    3600758  HIT:    3531697  MISS:      69061  HIT %:     98.082  MISS %:    1.91796   MPKI: 1.38122
L2BTB BRANCH_DIRECT_JUMP	ACCESS:     399305 HIT:     394864 MISS:       4441 AVERAGE STALL: 54.278 AVERAGE FETCH STALL: 14.3559 AVERAGE FETCH QUEUE STALL: 19.6079 AVERAGE DECODE STALL: 19.3817 AVERAGE EXECUTE STALL: 2.14672e+15
L2BTB BRANCH_INDIRECT	ACCESS:     106549 HIT:     103917 MISS:       2632 AVERAGE STALL: 109.866 AVERAGE FETCH STALL: 10.8784 AVERAGE FETCH QUEUE STALL: 19.6097 AVERAGE DECODE STALL: 13.5805 AVERAGE EXECUTE STALL: 64.8362
L2BTB BRANCH_CONDITIONAL	ACCESS:    1291977 HIT:    1284090 MISS:       7887 AVERAGE STALL: 63.362 AVERAGE FETCH STALL: 20.5891 AVERAGE FETCH QUEUE STALL: 25.3473 AVERAGE DECODE STALL: 16.6966 AVERAGE EXECUTE STALL: 2.3496e+15
L2BTB BRANCH_DIRECT_CALL	ACCESS:     838242 HIT:     837121 MISS:       1121 AVERAGE STALL: 76.7401 AVERAGE FETCH STALL: 29.3633 AVERAGE FETCH QUEUE STALL: 28.1151 AVERAGE DECODE STALL: 18.3912 AVERAGE EXECUTE STALL: 1.65888e+16
L2BTB BRANCH_INDIRECT_CALL	ACCESS:     140769 HIT:     130648 MISS:      10121 AVERAGE STALL: 141.856 AVERAGE FETCH STALL: 12.2699 AVERAGE FETCH QUEUE STALL: 17.8819 AVERAGE DECODE STALL: 13.7937 AVERAGE EXECUTE STALL: 97.413
L2BTB BRANCH_RETURN	ACCESS:     823916 HIT:     781057 MISS:      42859 AVERAGE STALL: 48.6206 AVERAGE FETCH STALL: 16.3299 AVERAGE FETCH QUEUE STALL: 5.58065 AVERAGE DECODE STALL: 6.21136 AVERAGE EXECUTE STALL: 4.16951e+14
L2BTB BRANCH_OTHER ACCESS:          0 HIT:          0 MISS:          0 AVERAGE STALL: -nan AVERAGE FETCH STALL: -nan AVERAGE FETCH QUEUE STALL: -nan AVERAGE DECODE STALL: -nan AVERAGE EXECUTE STALL: -nan
L2BTB TOTAL ROB OCCUPANCY AT BTB MISS: 152.971

L2C TOTAL     ACCESS:    4494503  HIT:    3994102  MISS:     500401  HIT %:    88.8664  MISS %:    11.1336   MPKI: 10.008
L2C LOAD INSTRUCTION	ACCESS:    2761359  HIT:    2498193  MISS:     263166  HIT %:    90.4697  MISS %:    9.53031  MPKI: 5.26332
L2C LOAD TRANSLATION INSTRUCTION	ACCESS:        318  HIT:         82  MISS:        236  HIT %:    25.7862  MISS %:    74.2138  MPKI: 0.00472
L2C LOAD DATA	ACCESS:     727907  HIT:     647701  MISS:      80206  HIT %:    88.9813  MISS %:    11.0187  MPKI: 1.60412
L2C RFO DATA	ACCESS:     286064  HIT:     225776  MISS:      60288  HIT %:     78.925  MISS %:     21.075  MPKI: 1.20576
L2C PREFETCH DATA	ACCESS:     194567  HIT:     117132  MISS:      77435  HIT %:    60.2014  MISS %:    39.7986  MPKI: 1.5487
L2C WRITEBACK DATA	ACCESS:     522384  HIT:     504705  MISS:      17679  HIT %:    96.6157  MISS %:    3.38429  MPKI: 0.35358
L2C LOAD TRANSLATION DATA	ACCESS:       1842  HIT:        469  MISS:       1373  HIT %:    25.4615  MISS %:    74.5385  MPKI: 0.02746
L2C TRANSLATION FROM L1D PREFETCHER DATA	ACCESS:         62  HIT:         44  MISS:         18  HIT %:    70.9677  MISS %:    29.0323  MPKI: 0.00036

L2C PREFETCH  REQUESTED:      97464  ISSUED:      97464  USEFUL:       8072  USELESS:      69856
L2C USEFUL LOAD PREFETCHES:       8072 PREFETCH ISSUED TO LOWER LEVEL:      77762  ACCURACY: 10.3804
 TIMELY PREFETCHES:       8072 LATE PREFETCHES: 327 DROPPED PREFETCHES: 0
L2C AVERAGE MISS LATENCY: 38.4547 cycles
L2C RQ	ACCESS:    3777618	FORWARD:          0	MERGED:          0	TO_CACHE:    3777556
L2C WQ	ACCESS:     522384	FORWARD:         62	MERGED:          0	TO_CACHE:     522384
L2C PQ	ACCESS:     201846	FORWARD:          0	MERGED:       3613	TO_CACHE:     198233

L2C Dense regions hint from L2: 0
PSCL5 TOTAL     ACCESS:       4206  HIT:       2103  MISS:       2103  HIT %:         50  MISS %:         50   MPKI: 0.04206
PSCL5 LOAD TRANSLATION INSTRUCTION	ACCESS:       4082  HIT:       2041  MISS:       2041  HIT %:         50  MISS %:         50  MPKI: 0.04082
PSCL5 TRANSLATION FROM L1D PREFETCHER INSTRUCTION	ACCESS:        124  HIT:         62  MISS:         62  HIT %:         50  MISS %:         50  MPKI: 0.00124


PSCL4 TOTAL     ACCESS:       3986  HIT:       1989  MISS:       1997  HIT %:    49.8996  MISS %:    50.1004   MPKI: 0.03994
PSCL4 LOAD TRANSLATION INSTRUCTION	ACCESS:       3008  HIT:       1927  MISS:       1081  HIT %:    64.0625  MISS %:    35.9375  MPKI: 0.02162
PSCL4 TRANSLATION FROM L1D PREFETCHER INSTRUCTION	ACCESS:         97  HIT:         62  MISS:         35  HIT %:    63.9175  MISS %:    36.0825  MPKI: 0.0007
PSCL4 LOAD TRANSLATION DATA	ACCESS:        854  HIT:          0  MISS:        854  HIT %:          0  MISS %:        100  MPKI: 0.01708
PSCL4 TRANSLATION FROM L1D PREFETCHER DATA	ACCESS:         27  HIT:          0  MISS:         27  HIT %:          0  MISS %:        100  MPKI: 0.00054


PSCL3 TOTAL     ACCESS:       4038  HIT:       2015  MISS:       2023  HIT %:    49.9009  MISS %:    50.0991   MPKI: 0.04046
PSCL3 LOAD TRANSLATION INSTRUCTION	ACCESS:       3034  HIT:       1953  MISS:       1081  HIT %:    64.3705  MISS %:    35.6295  MPKI: 0.02162
PSCL3 TRANSLATION FROM L1D PREFETCHER INSTRUCTION	ACCESS:         97  HIT:         62  MISS:         35  HIT %:    63.9175  MISS %:    36.0825  MPKI: 0.0007
PSCL3 LOAD TRANSLATION DATA	ACCESS:        880  HIT:          0  MISS:        880  HIT %:          0  MISS %:        100  MPKI: 0.0176
PSCL3 TRANSLATION FROM L1D PREFETCHER DATA	ACCESS:         27  HIT:          0  MISS:         27  HIT %:          0  MISS %:        100  MPKI: 0.00054


PSCL2 TOTAL     ACCESS:       4102  HIT:       1999  MISS:       2103  HIT %:    48.7323  MISS %:    51.2677   MPKI: 0.04206
PSCL2 LOAD TRANSLATION INSTRUCTION	ACCESS:       2219  HIT:       1937  MISS:        282  HIT %:    87.2916  MISS %:    12.7084  MPKI: 0.00564
PSCL2 TRANSLATION FROM L1D PREFETCHER INSTRUCTION	ACCESS:         62  HIT:         62  MISS:          0  HIT %:        100  MISS %:          0  MPKI: 0
PSCL2 LOAD TRANSLATION DATA	ACCESS:       1759  HIT:          0  MISS:       1759  HIT %:          0  MISS %:        100  MPKI: 0.03518
PSCL2 TRANSLATION FROM L1D PREFETCHER DATA	ACCESS:         62  HIT:          0  MISS:         62  HIT %:          0  MISS %:        100  MPKI: 0.00124


LLC TOTAL     ACCESS:     567237  HIT:     537481  MISS:      29756  HIT %:    94.7542  MISS %:    5.24578   MPKI: 0.59512
LLC LOAD INSTRUCTION	ACCESS:     263166  HIT:     262343  MISS:        823  HIT %:    99.6873  MISS %:    0.31273  MPKI: 0.01646
LLC LOAD TRANSLATION INSTRUCTION	ACCESS:        236  HIT:        199  MISS:         37  HIT %:     84.322  MISS %:     15.678  MPKI: 0.00074
LLC LOAD DATA	ACCESS:      79886  HIT:      76529  MISS:       3357  HIT %:    95.7978  MISS %:    4.20224  MPKI: 0.06714
LLC RFO DATA	ACCESS:      60280  HIT:      45055  MISS:      15225  HIT %:    74.7429  MISS %:    25.2571  MPKI: 0.3045
LLC PREFETCH DATA	ACCESS:      77762  HIT:      67922  MISS:       9840  HIT %:     87.346  MISS %:     12.654  MPKI: 0.1968
LLC WRITEBACK DATA	ACCESS:      84516  HIT:      84110  MISS:        406  HIT %:    99.5196  MISS %:   0.480382  MPKI: 0.00812
LLC LOAD TRANSLATION DATA	ACCESS:       1373  HIT:       1307  MISS:         66  HIT %:     95.193  MISS %:    4.80699  MPKI: 0.00132
LLC TRANSLATION FROM L1D PREFETCHER DATA	ACCESS:         18  HIT:         16  MISS:          2  HIT %:    88.8889  MISS %:    11.1111  MPKI: 4e-05

LLC AVERAGE MISS LATENCY: 158.375 cycles
LLC RQ	ACCESS:     404960	FORWARD:          0	MERGED:          0	TO_CACHE:     404959
LLC WQ	ACCESS:      84516	FORWARD:          1	MERGED:          0	TO_CACHE:      84516
LLC PQ	ACCESS:      77762	FORWARD:          0	MERGED:          0	TO_CACHE:      77762

LLC Dense regions hint to LLC: 0

RAW hits: 1946674
Loads Generated: 12638263
Loads sent to L1D: 10691589
Stores Generated: 6947803
Stores sent to L1D: 6947799
Major fault: 0 Minor fault: 2539
Allocated PAGES: 2539

stream: 
stream:times selected: 1188551
stream:pref_filled: 122926
stream:pref_useful: 24487
stream:pref_late: 6867
stream:misses: 8070
stream:misses_by_poll: 0

CS: 
CS:times selected: 179849
CS:pref_filled: 59589
CS:pref_useful: 36020
CS:pref_late: 7646
CS:misses: 17200
CS:misses_by_poll: 10

CPLX: 
CPLX:times selected: 1007458
CPLX:pref_filled: 19118
CPLX:pref_useful: 4370
CPLX:pref_late: 3099
CPLX:misses: 92982
CPLX:misses_by_poll: 1

NL_L1: 
NL:times selected: 20874
NL:pref_filled: 759
NL:pref_useful: 325
NL:pref_late: 278
NL:misses: 1777
NL:misses_by_poll: 0

total selections: 2396732
total_filled: 95666
total_useful: 35382
total_late: 19246
total_polluted: 11
total_misses_after_warmup: 772297
conflicts: 5512770

test: 116803

DRAM Statistics
 CHANNEL 0
 RQ ROW_BUFFER_HIT:      10895  ROW_BUFFER_MISS:      18431
 DBUS_CONGESTED:         11
 WQ ROW_BUFFER_HIT:       1437  ROW_BUFFER_MISS:      12894  FULL:          0

 AVG_CONGESTED_CYCLE: 5

CPU 0 Branch Prediction Accuracy: 99.8221% MPKI: 0.32538 Average ROB Occupancy at Mispredict: 193.474
Branch types
NOT_BRANCH: 40855896 81.7118%
BRANCH_DIRECT_JUMP: 548040 1.09608%
BRANCH_INDIRECT: 182829 0.365658%
BRANCH_CONDITIONAL: 6180769 12.3615%
BRANCH_DIRECT_CALL: 944385 1.88877%
BRANCH_INDIRECT_CALL: 171712 0.343424%
BRANCH_RETURN: 1116097 2.23219%
BRANCH_OTHER: 0 0%

DRAM PAGES: 1048576
Allocated PAGES: 2539
Average_ROB_Occupancy: 248.095
Average_Decode_Occupancy: 37.9604
Average_FTQ_Occupancy: 14.8674
Indirect max targets: 14 Average targets: 1.14527
Branch_type:  BRANCH_DIRECT_JUMP:  Count Percentage: 4.03057 4.76379 4.93334 3.00789 3.06429 6.01232 7.27983 66.908 
Branch_type:  BRANCH_INDIRECT:  Count Percentage: 13.7445 0.811102 2.56881 0 0 17.7484 17.4902 47.637 
Branch_type:  BRANCH_CONDITIONAL:  Count Percentage: 26.2715 1.94535 1.54049 6.25447 1.55417 5.09183 5.62216 51.72 
Branch_type:  BRANCH_DIRECT_CALL:  Count Percentage: 0.885197 1.47925 1.16308 2.38365 2.50939 3.52069 6.166 81.8927 
Branch_type:  BRANCH_INDIRECT_CALL:  Count Percentage: 9.52115 0 2.98392 6.41717 0 2.4763 5.11579 73.4857 
Branch_type:  BRANCH_RETURN:  Count Percentage: 10.4596 1.45934 1.49154 6.79353 1.66171 6.47523 6.53456 65.1245 
Branch_type:  BRANCH_DIRECT_JUMP:  Total Count: 44169 52204 54062 32962 33580 65886 79776 733211 
Branch_type:  BRANCH_INDIRECT:  Total Count: 50311 2969 9403 0 0 64967 64022 174373 
Branch_type:  BRANCH_CONDITIONAL:  Total Count: 3246774 240417 190382 772960 192073 629275 694816 6391824 
Branch_type:  BRANCH_DIRECT_CALL:  Total Count: 16692 27894 21932 44948 47319 66389 116271 1544236 
Branch_type:  BRANCH_INDIRECT_CALL:  Total Count: 32674 0 10240 22022 0 8498 17556 252183 
Branch_type:  BRANCH_RETURN:  Total Count: 233211 32538 33256 151471 37050 144374 145697 1452039 
Number of unique branch instructions: 9804
Upper 32 bits: 
aaaa
ffff
ffff0000
Unique upper 32 bits: 3
Unique upper 36 bits: 3
Unique upper 40 bits: 5
Unique upper 44 bits: 32
Unique upper 48 bits: 154
Variant_0 : 1381 0.337158
Variant_1 : 2640 0.644531
Variant_2 : 0 0
Variant_3 : 0 0
Offset_3 4030
Offset_4 244
Offset_5 449
Offset_6 498
Offset_7 571
Offset_8 508
Offset_9 463
Offset_10 374
Offset_11 301
Offset_12 269
Offset_13 203
Offset_14 227
Offset_15 184
Offset_16 220
Offset_17 145
Offset_18 118
Offset_19 234
Offset_20 136
Offset_21 235
Offset_22 392
Offset_23 241
Offset_24 331
Offset_25 88
Offset_47 82
Offset_64 1
decode_dispatch_called: 26373207 73.313
Dispatch_width: 0 14326295 54.3214 39.8247
Dispatch_width: 1 1002779 3.80226 2.78755
Dispatch_width: 2 847387 3.21306 2.35559
Dispatch_width: 3 490493 1.85982 1.36349
Dispatch_width: 4 6149655 23.3178 17.095
Dispatch_width: 5 107463 0.40747 0.298729
Dispatch_width: 6 3449135 13.0782 9.58801
Empty_decode_cycles: 9600218 26.687
ROB_full_cycles: 9962086 27.6929
Starvation_cycles_per_kilo_instr: 225.622
Starvation_cycles_per_kilo_instr_3: 163.051
Starvation_cycles_per_kilo_instr_0: 139.644
Branch_type_1  (3,1)  (4,9)  (5,37)  (6,68)  (7,113)  (8,128)  (9,122)  (10,97)  (11,67)  (12,43)  (13,5)  (14,2)  (15,3)  (16,4)  (18,1)  (19,4)  (20,2)  (21,1)  (22,3)  (23,2)  (24,10)  (25,12) 
Branch_type_2  (3,1)  (5,1)  (8,3)  (9,3)  (12,1)  (13,1)  (14,1)  (16,3)  (17,2)  (20,2)  (21,2)  (23,5)  (24,1)  (47,38) 
Branch_type_3  (3,4028)  (4,235)  (5,407)  (6,415)  (7,429)  (8,316)  (9,255)  (10,151)  (11,120)  (12,50)  (13,4)  (64,1) 
Branch_type_4  (6,3)  (7,8)  (8,25)  (9,51)  (10,60)  (11,58)  (12,96)  (13,88)  (14,100)  (15,86)  (16,98)  (17,64)  (18,53)  (19,115)  (20,71)  (21,124)  (22,209)  (23,136)  (24,192)  (25,72) 
Branch_type_5  (8,2)  (9,1)  (10,3)  (11,5)  (12,3)  (13,14)  (14,16)  (15,11)  (16,20)  (17,11)  (18,16)  (19,12)  (20,10)  (21,13)  (22,42)  (23,26)  (24,37) 
Branch_type_6  (5,4)  (6,12)  (7,21)  (8,34)  (9,31)  (10,63)  (11,51)  (12,76)  (13,91)  (14,108)  (15,84)  (16,95)  (17,68)  (18,48)  (19,103)  (20,51)  (21,95)  (22,138)  (23,72)  (24,91)  (25,4)  (47,44) 
Unique trigger count: 
Variant_0_evicts_0 : 0
Variant_0_evicts_1 : 0
Variant_0_evicts_2 : 0
Variant_0_evicts_3 : 0
Variant_1_evicts_0 : 0
Variant_1_evicts_1 : 0
Variant_1_evicts_2 : 0
Variant_1_evicts_3 : 0
Variant_2_evicts_0 : 0
Variant_2_evicts_1 : 0
Variant_2_evicts_2 : 0
Variant_2_evicts_3 : 0
Variant_3_evicts_0 : 0
Variant_3_evicts_1 : 0
Variant_3_evicts_2 : 0
Variant_3_evicts_3 : 0
BTB PER SET UNIQUE ADDR: 10 11 6 8 8 7 8 10 9 8 10 10 9 10 11 7 10 11 13 9 12 10 10 12 9 12 7 9 8 13 9 12 13 7 7 7 8 13 4 7 10 11 9 8 8 7 7 8 6 10 12 9 7 9 7 7 8 10 7 8 11 14 13 10 8 10 10 8 6 7 11 12 12 7 12 10 6 12 10 10 8 3 6 12 11 12 14 6 8 16 8 6 8 9 9 10 11 10 10 11 8 10 9 6 8 8 11 11 7 7 7 13 8 9 9 8 7 7 10 9 11 8 6 10 11 11 6 10 14 11 8 15 8 12 8 10 7 11 10 12 5 9 10 8 9 10 11 11 7 9 10 10 9 8 10 13 13 13 11 12 7 8 12 6 11 10 8 6 13 10 8 9 7 11 8 8 10 10 10 10 9 9 9 11 8 18 6 12 10 9 13 10 10 11 12 8 8 11 7 8 11 12 5 8 9 9 14 6 8 10 5 14 13 9 7 11 10 10 7 10 6 11 7 9 11 8 11 11 5 11 10 8 9 11 8 10 11 12 10 6 12 9 10 12 10 7 8 8 11 13 10 7 12 5 10 10 10 8 8 9 12 6 5 11 9 7 7 7 8 10 8 11 9 5 7 7 12 10 9 9 8 9 11 5 8 6 9 14 17 12 9 9 8 12 6 11 9 7 7 11 9 10 7 15 9 7 7 8 11 13 9 14 8 15 11 7 12 12 8 13 7 10 12 10 10 15 9 6 6 8 7 10 7 10 9 8 8 12 7 15 7 10 6 9 10 7 8 6 10 7 10 9 8 9 9 13 8 9 8 9 9 7 10 12 6 12 7 10 6 8 9 5 11 10 12 12 9 9 15 8 8 7 6 10 8 10 10 11 14 10 10 9 5 13 8 11 8 6 13 7 10 13 10 11 11 10 7 14 7 11 11 7 11 8 11 9 10 11 17 13 13 8 9 13 10 10 11 10 8 6 12 8 10 11 10 10 10 7 9 11 11 8 9 7 16 10 9 10 13 9 9 8 12 7 12 9 12 9 9 11 10 8 13 9 13 8 12 10 7 12 9 10 10 10 8 10 7 8 8 8 12 9 13 10 9 12 9 9 11 9 12 9 10 8 10 8 9 7 7 12 9 10 10 17 11 8 7 10 8 11 9 13 8 8 10 10 9 14 9 7 7 9 8 11 14 11 11 7 7 8 12 9 10 9 6 12 7 11 10 14 10 7 11 11 11 10 8 9 9 10 9 13 10 10 8 11 10 8 15 10 8 13 8 9 9 11 14 11 6 10 11 10 11 12 8 7 10 15 11 7 9 7 9 7 8 10 8 10 11 9 7 6 8 10 8 8 10 10 11 11 13 9 6 7 9 10 12 12 11 6 11 15 6 7 6 16 10 8 7 9 16 9 6 6 10 10 8 11 8 9 11 13 9 11 9 7 10 8 8 13 6 11 9 12 9 10 7 12 14 6 9 6 9 10 10 9 14 10 13 11 9 5 9 16 9 9 8 13 9 9 13 10 7 10 8 8 12 10 8 11 7 11 11 12 10 9 12 11 10 11 10 12 4 9 10 12 7 8 10 11 8 10 6 12 7 11 9 10 9 7 11 11 7 8 9 8 11 11 8 11 8 11 11 8 7 8 8 6 11 11 12 8 11 8 7 10 9 12 7 7 10 8 10 10 13 10 8 9 10 7 11 8 8 7 9 8 9 11 7 6 10 5 9 12 10 11 5 12 10 13 10 12 7 7 15 10 9 9 9 13 4 9 12 8 9 6 9 9 10 9 7 7 11 11 10 7 7 12 12 12 12 12 13 14 12 6 10 7 8 13 10 17 8 9 10 12 15 12 5 9 7 15 7 9 13 10 9 6 10 14 9 11 8 8 10 7 8 11 10 6 10 7 10 11 8 15 8 11 10 10 6 9 9 8 9 9 10 9 10 11 9 7 7 7 13 9 9 9 10 11 8 12 9 11 8 9 11 11 9 14 11 7 7 13 11 9 11 9 10 10 11 7 11 8 9 11 15 10 8 10 11 11 9 12 5 9 12 12 10 13 10 12 9 10 9 13 10 12 8 8 9 6 12 9 9 12 5 9 7 8 10 14 11 8 9 11 10 11 11 12 6 10 7 9 11 6 8 11 6 10 10 11 9 8 7 8 6 7 11 9 9 6 6 8 11 9 10 11 7 11 12 12 9 9 11 6 8 10 13 11 10 7 11 10 10 9 11 9 8 13 12 11 8 9 10 9 8 9 12 10 17 9 7 9 8 13 7 11 8 10 7 10 6 8 6 5 7 8 7 8 6 11 8 8 
BTB PER SET COUNT: 148 13 1469 11 9 8 13 13 963 8 13 13 134 12 20 7 1466 15 585 10 15 14 774 510 13 13 8 9 9 16 439 167 16 7 9 10 8 20 4 7 13 20 13 2422 1470 115 7 8 530 11 17 12 10 13 9 359 9 11 475 10 14 20 96 15 8 11 11 2932 6 7 225 350 15 7 16 14 7 12 13 15 13 3 9 29 13 15 19 7 10 54 9 6 10 444 10 12 14 980 13 13 9 13 9 6 2026 10 18 13 1952 7 7 32 238 10 9 13 7 11 1481 17 18 47 6 15 11 122 7 1990 17 746 10 21 8 18 9 13 973 14 13 15 7 11 11 11 13 410 157 16 12 13 15 10 807 10 14 13 1216 17 11 13 7 10 17 6 110 12 9 6 17 1827 8 9 7 11 10 10 11 12 11 927 678 9 1472 14 8 44 7 13 18 9 20 10 19 12 16 106 11 11 7 10 14 12 5 9 11 9 17 8 9 1495 5 24 21 16 9 18 17 11 2936 15 7 13 9 11 17 10 13 257 5 20 14 8 10 15 8 18 217 515 16 6 14 10 1004 21 11 850 1491 8 396 22 13 7 16 5 12 11 48 9 8 13 157 7 5 509 11 8 8 8 23 11 8 14 534 5 7 7 15 11 9 9 9 10 405 5 8 7 11 16 37 14 12 9 9 834 8 13 11 7 7 993 11 12 7 18 11 7 8 334 16 157 9 17 9 18 1220 181 18 15 10 22 8 3198 16 12 11 1481 483 6 6 8 7 11 10 14 10 13 8 14 7 19 7 375 7 13 14 9 8 6 15 8 13 9 10 11 10 16 11 11 123 14 11 7 14 16 6 2376 9 11 7 8 10 358 14 652 159 166 9 9 257 1471 9 7 6 10 8 12 1268 12 20 1494 15 10 8 384 8 661 9 7 26 7 11 16 113 13 11 11 8 17 8 16 11 7 14 9 11 9 10 14084 20 23 20 8 13 15 12 12 1150 13 12 6 57 9 14 14 189 24 11 13 12 13 17 13 11 8 1667 14 958 15 19 10 24 12 20 7 694 10 16 9 10 16 12 8 19 10 23 210 255 13 9 12 11 14 13 14 8 10 7 9 11 8 17 11 20 10 9 15 1003 10 11 14 20 9 973 8 13 9 1649 902 9 21 12 11 11 26 12 8 8 10 8 13 10 26 861 1495 14 12 9 19 13 7 7 9 8 23 18 13 362 7 7 14 13 10 11 9 6 12 1015 365 13 15 11 8 12 15 17 12 9 9 12 1302 9 16 12 35 13 12 13 8 28 38 9 21 11 11 306 14 21 13 8 10 19 12 12 14 1471 8 10 979 14 7 11 11 18 2935 9 12 8 12 15 16 12 7 10 14 8 11 14 364 12 11 17 9 8 9 10 16 17 2265 11 7 13 21 8 7 6 17 372 10 8 9 23 10 8 995 10 14 10 12 8 11 12 17 1001 11 9 10 14 8 8 335 6 15 10 13 15 162 8 17 17 6 11 6 10 13 22 84 25 12 18 12 13 5 14 16 6422 20 9 989 640 13 27 12 25 12 720 179 16 12 10 15 7 11 269 13 872 14 13 13 195 11 10 16 4 14 2462 18 974 15 11 14 9 17 10 19 8 885 14 19 10 10 205 14 997 9 182 8 1103 15 15 15 8 268 16 1470 7 10 8 6 926 800 19 14540 13 9 7 1945 11 13 462 7 15 10 13 17 17 10 371 9 13 7 1477 33 464 1471 1475 8 11 1329 9 6 12 8 9 18 2982 16 5 16 10 18 14 13 7 7 22 18 10 880 10 16 1487 12 25 9 11 6 13 13 10 15 7 828 19 14 1308 11 166 13 14 1356 16 13 25 345 16 8 10 7 8 55 11 4365 11 10 11 1050 16 2513 5 2441 8 1152 8 9 1500 12 9 6 11 20 13 13 9 9 39 1941 8 17 87 6 18 1447 10 13 8 23 10 13 10 12 6 850 9 11 81 11 11 14 18 14 16 8 978 8 17 9 11 10 13 21 9 36 11 18 8 10 12 11 9 16 13 7 155 17 16 11 16 10 10 19 11 7 12 3558 11 14 24 12 10 15 13 13 13 633 6 12 14 20 28 17 12 336 9 10 15 18 1120 541 10 12 14 997 19 11 11 19 8 11 8 24 11 18 12 12 9 15 14 14 15 13 6 74 9 11 14 6 96 18 6 15 434 13 13 13 7 13 6 8 134 10 12 7 995 8 18 14 13 13 8 13 21 1272 15 12 525 8 9 10 22 15 664 8 11 20 12 9 22 10 10 22 16 11 14 14 20 13 10 1472 29 13 28 1471 7 12 12 19 7 13 9 13 12 636 10 10 6 5 10 61 11 10 8 13 9 8 
To predecode: 0
Predecoding something: 0
Predecode request dropped: 0
sizeofblock_0 0
sizeofblock_1 54314
sizeofblock_2 88285
sizeofblock_3 0
sizeofblock_4 0
sizeofblock_5 0
sizeofblock_6 0
sizeofblock_7 0
sizeofblock_8 0
Variant_0 Correct: 1610643 Incorrect: 0 Accuracy: 1
Variant_1 Correct: 5715744 Incorrect: 0 Accuracy: 1
Variant_2 Correct: 0 Incorrect: 0 Accuracy: -nan
Variant_3 Correct: 0 Incorrect: 0 Accuracy: -nan
