
*** ChampSim Multicore Out-of-Order Simulator ***

Warmup Instructions: 50000000
Simulation Instructions: 50000000
Number of CPUs: 1
LLC sets: 2048
LLC ways: 16
Off-chip DRAM Size: 4096 MB Channels: 1 Width: 64-bit Data Rate: 6400 MT/s
CPU 0 runs ./micro_traces/srv554.trace.gz
.gz
ITLB has LRU replacement policy
DTLB has LRU replacement policy
STLB has LRU replacement policy
SN4L + DIS + BTB Prefetcher for L1I CPU 0
srv554.cond
L1I has LRU replacement policy
L1D has LRU replacement policy
Initialize SRRIP state for L2C
Initialize DRRIP state for LLC
Heartbeat CPU 0 instructions: 10000001 cycles: 2799450 heartbeat IPC: 3.57213 cumulative IPC: 3.57213 (Simulation time: 0 hr 1 min 47 sec) 
Heartbeat CPU 0 instructions: 20000001 cycles: 5598111 heartbeat IPC: 3.57314 cumulative IPC: 3.57263 (Simulation time: 0 hr 3 min 28 sec) 
Heartbeat CPU 0 instructions: 30000000 cycles: 8397031 heartbeat IPC: 3.57281 cumulative IPC: 3.57269 (Simulation time: 0 hr 5 min 12 sec) 
Heartbeat CPU 0 instructions: 40000002 cycles: 11195088 heartbeat IPC: 3.57391 cumulative IPC: 3.573 (Simulation time: 0 hr 6 min 54 sec) 
Heartbeat CPU 0 instructions: 50000000 cycles: 13993460 heartbeat IPC: 3.57351 cumulative IPC: 3.5731 (Simulation time: 0 hr 8 min 37 sec) 

Warmup complete CPU 0 instructions: 50000003 cycles: 13993461 (Simulation time: 0 hr 8 min 37 sec) 

Cycle: 20000000 FTQ IN: 57138624 FTQ occupancy: 18.442 DECODE IN: 57138624 DECODE occupancy: 47.2718 ROB IN: 57138622 ROB occupancy: 287.979 ROB OUT: 57138274
Heartbeat CPU 0 instructions: 60000001 cycles: 22460209 heartbeat IPC: 1.18109 cumulative IPC: 1.18109 (Simulation time: 0 hr 10 min 11 sec) 
Cycle: 30000000 FTQ IN: 11652942 FTQ occupancy: 7.95087 DECODE IN: 11652936 DECODE occupancy: 17.7595 ROB IN: 11652938 ROB occupancy: 144.781 ROB OUT: 11653101
Heartbeat CPU 0 instructions: 70000002 cycles: 31023019 heartbeat IPC: 1.16784 cumulative IPC: 1.17443 (Simulation time: 0 hr 11 min 44 sec) 
Heartbeat CPU 0 instructions: 80000002 cycles: 39444606 heartbeat IPC: 1.18742 cumulative IPC: 1.17873 (Simulation time: 0 hr 13 min 14 sec) 
Cycle: 40000000 FTQ IN: 11845300 FTQ occupancy: 7.8342 DECODE IN: 11845267 DECODE occupancy: 17.5869 ROB IN: 11845241 ROB occupancy: 145.459 ROB OUT: 11845329
Heartbeat CPU 0 instructions: 90000000 cycles: 48011725 heartbeat IPC: 1.16725 cumulative IPC: 1.17584 (Simulation time: 0 hr 14 min 45 sec) 
Cycle: 50000000 FTQ IN: 11742197 FTQ occupancy: 8.05561 DECODE IN: 11742135 DECODE occupancy: 18.0772 ROB IN: 11742101 ROB occupancy: 147.974 ROB OUT: 11741846
Heartbeat CPU 0 instructions: 100000001 cycles: 56437115 heartbeat IPC: 1.18689 cumulative IPC: 1.17803 (Simulation time: 0 hr 16 min 22 sec) 
Finished CPU 0 instructions: 50000002 cycles: 42443655 cumulative IPC: 1.17803 (Simulation time: 0 hr 16 min 22 sec) 

ChampSim completed all CPUs

Region of Interest Statistics

CPU 0 cumulative IPC: 1.17803 instructions: 50000002 cycles: 42443655
 Fetch stage stalled: 67.6742  Sim cycles: 42443655 fetch stall cycle: 28723408
 Empty decode stage: 55.9626  Sim cycles: 42443655 fetch stall cycle: 23752589
ITLB TOTAL     ACCESS:    8159988  HIT:    7604111  MISS:     555877  HIT %:    93.1878  MISS %:    6.81223   MPKI: 11.1175
ITLB LOAD TRANSLATION INSTRUCTION	ACCESS:    5558500  HIT:    5081339  MISS:     477161  HIT %:    91.4157  MISS %:    8.58435  MPKI: 9.54322
ITLB TRANSLATION FROM L1D PREFETCHER INSTRUCTION	ACCESS:    2601488  HIT:    2522772  MISS:      78716  HIT %:    96.9742  MISS %:    3.02581  MPKI: 1.57432

ITLB AVERAGE MISS LATENCY: 330968 cycles
ITLB RQ	ACCESS:   11327839	FORWARD:          0	MERGED:    2667488	TO_CACHE:    8660351

DTLB TOTAL     ACCESS:    9219889  HIT:    8742988  MISS:     476901  HIT %:    94.8275  MISS %:    5.17252   MPKI: 9.53802
DTLB LOAD TRANSLATION DATA	ACCESS:    9219889  HIT:    8742988  MISS:     476901  HIT %:    94.8275  MISS %:    5.17252  MPKI: 9.53802

DTLB AVERAGE MISS LATENCY: 9.32624 cycles
DTLB RQ	ACCESS:   13527219	FORWARD:          0	MERGED:    4271756	TO_CACHE:    9255463

STLB TOTAL     ACCESS:    1276677  HIT:    1274380  MISS:       2297  HIT %:    99.8201  MISS %:    0.17992   MPKI: 0.04594
STLB LOAD TRANSLATION INSTRUCTION	ACCESS:     472062  HIT:     471616  MISS:        446  HIT %:    99.9055  MISS %:  0.0944791  MPKI: 0.00892
STLB TRANSLATION FROM L1D PREFETCHER INSTRUCTION	ACCESS:      83815  HIT:      83793  MISS:         22  HIT %:    99.9738  MISS %:  0.0262483  MPKI: 0.00044
STLB LOAD TRANSLATION DATA	ACCESS:     476746  HIT:     474932  MISS:       1814  HIT %:    99.6195  MISS %:   0.380496  MPKI: 0.03628
STLB TRANSLATION FROM L1D PREFETCHER DATA	ACCESS:     244054  HIT:     244039  MISS:         15  HIT %:    99.9939  MISS %: 0.00614618  MPKI: 0.0003

STLB AVERAGE MISS LATENCY: 70.2055 cycles
STLB RQ	ACCESS:    1410958	FORWARD:          0	MERGED:     115746	TO_CACHE:    1295212

STLB Hit, L1D data hit: 0
STLB Hit, L2C data hit: 0
STLB Hit, LLC data hit: 0
STLB Hit, LLC data miss: 0
STLB STLB hints to L2: 0
L1D TOTAL     ACCESS:   13265235  HIT:   12149726  MISS:    1115509  HIT %:    91.5907  MISS %:    8.40927   MPKI: 22.3102
L1D LOAD DATA	ACCESS:    6713292  HIT:    5974834  MISS:     738458  HIT %:    89.0001  MISS %:    10.9999  MPKI: 14.7692
L1D RFO DATA	ACCESS:    6233053  HIT:    5947453  MISS:     285600  HIT %:     95.418  MISS %:    4.58202  MPKI: 5.712
L1D PREFETCH DATA	ACCESS:     318890  HIT:     227439  MISS:      91451  HIT %:    71.3221  MISS %:    28.6779  MPKI: 1.82902

L1D PREFETCH  REQUESTED:     719712  ISSUED:     719712  USEFUL:      32929  USELESS:      67883
L1D USEFUL LOAD PREFETCHES:      32929 PREFETCH ISSUED TO LOWER LEVEL:     100831  ACCURACY: 32.6576
 TIMELY PREFETCHES:      32929 LATE PREFETCHES: 9336 DROPPED PREFETCHES: 10
L1D AVERAGE MISS LATENCY: 293927 cycles
L1D RQ	ACCESS:   10813628	FORWARD:          0	MERGED:    3900522	TO_CACHE:    6751001
L1D WQ	ACCESS:    6956692	FORWARD:     162449	MERGED:     180474	TO_CACHE:    6776218
L1D PQ	ACCESS:     360028	FORWARD:          0	MERGED:          0	TO_CACHE:     359684

L1D UNIQUE REGIONS ACCESSED: 0
L1D REGIONS CONFLICTS: 0
L1D Cross Page Prefetch Requests: 5565
L1D Same Page Prefetch Requests: 742900
L1D ROI Sum of L1D PQ occupancy: 4568541
L1D PREFETCHES PUSHED FROM L2C: 0
L1I TOTAL     ACCESS:   10739826  HIT:    7141889  MISS:    3597937  HIT %:    66.4991  MISS %:    33.5009   MPKI: 71.9587
L1I LOAD INSTRUCTION	ACCESS:    6499920  HIT:    4165053  MISS:    2334867  HIT %:    64.0785  MISS %:    35.9215  MPKI: 46.6973
L1I PREFETCH INSTRUCTION	ACCESS:    4239906  HIT:    2976836  MISS:    1263070  HIT %:      70.21  MISS %:      29.79  MPKI: 25.2614

L1I PREFETCH  REQUESTED:    4907124  ISSUED:    4907124  USEFUL:     616427  USELESS:     739728
L1I USEFUL LOAD PREFETCHES:     616427 PREFETCH ISSUED TO LOWER LEVEL:    1356087  ACCURACY: 45.4563
 TIMELY PREFETCHES:     616427 LATE PREFETCHES: 93017 DROPPED PREFETCHES: 44127
L1I AVERAGE MISS LATENCY: 907530 cycles
L1I RQ	ACCESS:    9482921	FORWARD:          0	MERGED:    2800853	TO_CACHE:    6682068
L1I PQ	ACCESS:    4907124	FORWARD:          0	MERGED:     261353	TO_CACHE:    4645771

L1BTB TOTAL     ACCESS:    5670352  HIT:    2027314  MISS:    3643038  HIT %:    35.7529  MISS %:    64.2471   MPKI: 72.8608
L1BTB BRANCH_DIRECT_JUMP	ACCESS:     547715  HIT:     144117  MISS:     403598	AVERAGE STALL: 38.0008
L1BTB BRANCH_INDIRECT	ACCESS:     182663  HIT:      65643  MISS:     117020	AVERAGE STALL: 91.844
L1BTB BRANCH_CONDITIONAL	ACCESS:    2696527  HIT:    1400421  MISS:    1296106	AVERAGE STALL: 38.9309
L1BTB BRANCH_DIRECT_CALL	ACCESS:     949516  HIT:     105243  MISS:     844273	AVERAGE STALL: 42.442
L1BTB BRANCH_INDIRECT_CALL	ACCESS:     172209  HIT:      21148  MISS:     151061	AVERAGE STALL: 118.941
L1BTB BRANCH_RETURN	ACCESS:    1121722  HIT:     290742  MISS:     830980	AVERAGE STALL: 38.7983
L1BTB BRANCH_OTHER ACCESS:          0  HIT:          0  MISS:          0	AVERAGE STALL: -nan
L1BTB TOTAL ROB OCCUPANCY AT BTB MISS: 14.17

L2BTB TOTAL     ACCESS:    3617699  HIT:    3197761  MISS:     419938  HIT %:    88.3921  MISS %:    11.6079   MPKI: 8.39876
L2BTB BRANCH_DIRECT_JUMP	ACCESS:     399493  HIT:     353889  MISS:      45604	AVERAGE STALL: 38.0008
L2BTB BRANCH_INDIRECT	ACCESS:     106687  HIT:     101574  MISS:       5113	AVERAGE STALL: 91.844
L2BTB BRANCH_CONDITIONAL	ACCESS:    1296106  HIT:    1158780  MISS:     137326	AVERAGE STALL: 38.9309
L2BTB BRANCH_DIRECT_CALL	ACCESS:     844272  HIT:     734078  MISS:     110194	AVERAGE STALL: 42.442
L2BTB BRANCH_INDIRECT_CALL	ACCESS:     141577  HIT:     120276  MISS:      21301	AVERAGE STALL: 118.941
L2BTB BRANCH_RETURN	ACCESS:     829564  HIT:     729164  MISS:     100400	AVERAGE STALL: 38.7983
L2BTB BRANCH_OTHER ACCESS:          0  HIT:          0  MISS:          0	AVERAGE STALL: -nan
L2BTB TOTAL ROB OCCUPANCY AT BTB MISS: 122.928

L2C TOTAL     ACCESS:    6146026  HIT:    5026843  MISS:    1119183  HIT %:    81.7901  MISS %:    18.2099   MPKI: 22.3837
L2C LOAD INSTRUCTION	ACCESS:    2241850  HIT:    1872526  MISS:     369324  HIT %:    83.5259  MISS %:    16.4741  MPKI: 7.38648
L2C PREFETCH INSTRUCTION	ACCESS:    1356087  HIT:    1128728  MISS:     227359  HIT %:    83.2342  MISS %:    16.7658  MPKI: 4.54718
L2C LOAD TRANSLATION INSTRUCTION	ACCESS:        483  HIT:        177  MISS:        306  HIT %:     36.646  MISS %:     63.354  MPKI: 0.00612
L2C TRANSLATION FROM L1D PREFETCHER INSTRUCTION	ACCESS:      26448  HIT:      26041  MISS:        407  HIT %:    98.4611  MISS %:    1.53887  MPKI: 0.00814
L2C LOAD DATA	ACCESS:     729094  HIT:     581416  MISS:     147678  HIT %:     79.745  MISS %:     20.255  MPKI: 2.95356
L2C RFO DATA	ACCESS:     285537  HIT:     197876  MISS:      87661  HIT %:    69.2996  MISS %:    30.7004  MPKI: 1.75322
L2C PREFETCH DATA	ACCESS:     981963  HIT:     734795  MISS:     247168  HIT %:    74.8292  MISS %:    25.1708  MPKI: 4.94336
L2C WRITEBACK DATA	ACCESS:     522641  HIT:     484776  MISS:      37865  HIT %:    92.7551  MISS %:    7.24493  MPKI: 0.7573
L2C LOAD TRANSLATION DATA	ACCESS:       1883  HIT:        485  MISS:       1398  HIT %:    25.7568  MISS %:    74.2432  MPKI: 0.02796
L2C TRANSLATION FROM L1D PREFETCHER DATA	ACCESS:         40  HIT:         23  MISS:         17  HIT %:       57.5  MISS %:       42.5  MPKI: 0.00034

L2C PREFETCH  REQUESTED:    1420472  ISSUED:    1420472  USEFUL:      37935  USELESS:     439736
L2C USEFUL LOAD PREFETCHES:      37935 PREFETCH ISSUED TO LOWER LEVEL:     476827  ACCURACY: 7.95572
 TIMELY PREFETCHES:      37935 LATE PREFETCHES: 2300 DROPPED PREFETCHES: 0
L2C AVERAGE MISS LATENCY: 32.9362 cycles
L2C RQ	ACCESS:    3285384	FORWARD:          0	MERGED:          0	TO_CACHE:    3285337
L2C WQ	ACCESS:     522641	FORWARD:         51	MERGED:          0	TO_CACHE:     522641
L2C PQ	ACCESS:    2877390	FORWARD:          0	MERGED:     518321	TO_CACHE:    2359065

L2C Dense regions hint from L2: 0
PSCL5 TOTAL     ACCESS:      41610  HIT:      20805  MISS:      20805  HIT %:         50  MISS %:         50   MPKI: 0.4161
PSCL5 LOAD TRANSLATION INSTRUCTION	ACCESS:       4500  HIT:       2250  MISS:       2250  HIT %:         50  MISS %:         50  MPKI: 0.045
PSCL5 TRANSLATION FROM L1D PREFETCHER INSTRUCTION	ACCESS:      37110  HIT:      18555  MISS:      18555  HIT %:         50  MISS %:         50  MPKI: 0.3711


PSCL4 TOTAL     ACCESS:      38772  HIT:      19382  MISS:      19390  HIT %:    49.9897  MISS %:    50.0103   MPKI: 0.3878
PSCL4 LOAD TRANSLATION INSTRUCTION	ACCESS:       2584  HIT:       2104  MISS:        480  HIT %:    81.4241  MISS %:    18.5759  MPKI: 0.0096
PSCL4 TRANSLATION FROM L1D PREFETCHER INSTRUCTION	ACCESS:      21272  HIT:      17278  MISS:       3994  HIT %:    81.2241  MISS %:    18.7759  MPKI: 0.07988
PSCL4 LOAD TRANSLATION DATA	ACCESS:       1632  HIT:          0  MISS:       1632  HIT %:          0  MISS %:        100  MPKI: 0.03264
PSCL4 TRANSLATION FROM L1D PREFETCHER DATA	ACCESS:      13284  HIT:          0  MISS:      13284  HIT %:          0  MISS %:        100  MPKI: 0.26568


PSCL3 TOTAL     ACCESS:      37352  HIT:      18667  MISS:      18685  HIT %:    49.9759  MISS %:    50.0241   MPKI: 0.3737
PSCL3 LOAD TRANSLATION INSTRUCTION	ACCESS:       2175  HIT:       2051  MISS:        124  HIT %:    94.2989  MISS %:    5.70115  MPKI: 0.00248
PSCL3 TRANSLATION FROM L1D PREFETCHER INSTRUCTION	ACCESS:      17892  HIT:      16616  MISS:       1276  HIT %:    92.8683  MISS %:    7.13168  MPKI: 0.02552
PSCL3 LOAD TRANSLATION DATA	ACCESS:       1945  HIT:          0  MISS:       1945  HIT %:          0  MISS %:        100  MPKI: 0.0389
PSCL3 TRANSLATION FROM L1D PREFETCHER DATA	ACCESS:      15340  HIT:          0  MISS:      15340  HIT %:          0  MISS %:        100  MPKI: 0.3068


PSCL2 TOTAL     ACCESS:      27342  HIT:      13624  MISS:      13718  HIT %:    49.8281  MISS %:    50.1719   MPKI: 0.27436
PSCL2 LOAD TRANSLATION INSTRUCTION	ACCESS:       2603  HIT:       2157  MISS:        446  HIT %:    82.8659  MISS %:    17.1341  MPKI: 0.00892
PSCL2 TRANSLATION FROM L1D PREFETCHER INSTRUCTION	ACCESS:      22898  HIT:      11467  MISS:      11431  HIT %:    50.0786  MISS %:    49.9214  MPKI: 0.22862
PSCL2 LOAD TRANSLATION DATA	ACCESS:       1805  HIT:          0  MISS:       1805  HIT %:          0  MISS %:        100  MPKI: 0.0361
PSCL2 TRANSLATION FROM L1D PREFETCHER DATA	ACCESS:         36  HIT:          0  MISS:         36  HIT %:          0  MISS %:        100  MPKI: 0.00072


LLC TOTAL     ACCESS:    1215223  HIT:    1187388  MISS:      27835  HIT %:    97.7095  MISS %:    2.29053   MPKI: 0.5567
LLC LOAD INSTRUCTION	ACCESS:     368150  HIT:     367763  MISS:        387  HIT %:    99.8949  MISS %:    0.10512  MPKI: 0.00774
LLC PREFETCH INSTRUCTION	ACCESS:     217642  HIT:     217383  MISS:        259  HIT %:     99.881  MISS %:   0.119003  MPKI: 0.00518
LLC LOAD TRANSLATION INSTRUCTION	ACCESS:        306  HIT:        271  MISS:         35  HIT %:    88.5621  MISS %:    11.4379  MPKI: 0.0007
LLC TRANSLATION FROM L1D PREFETCHER INSTRUCTION	ACCESS:        407  HIT:        401  MISS:          6  HIT %:    98.5258  MISS %:     1.4742  MPKI: 0.00012
LLC LOAD DATA	ACCESS:     146625  HIT:     143069  MISS:       3556  HIT %:    97.5748  MISS %:    2.42523  MPKI: 0.07112
LLC RFO DATA	ACCESS:      87560  HIT:      74696  MISS:      12864  HIT %:    85.3084  MISS %:    14.6916  MPKI: 0.25728
LLC PREFETCH DATA	ACCESS:     259183  HIT:     248764  MISS:      10419  HIT %:    95.9801  MISS %:    4.01994  MPKI: 0.20838
LLC WRITEBACK DATA	ACCESS:     133935  HIT:     133718  MISS:        217  HIT %:     99.838  MISS %:   0.162019  MPKI: 0.00434
LLC LOAD TRANSLATION DATA	ACCESS:       1398  HIT:       1306  MISS:         92  HIT %:    93.4192  MISS %:    6.58083  MPKI: 0.00184
LLC TRANSLATION FROM L1D PREFETCHER DATA	ACCESS:         17  HIT:         17  MISS:          0  HIT %:        100  MISS %:          0  MPKI: 0

LLC AVERAGE MISS LATENCY: 158.148 cycles
LLC RQ	ACCESS:     604491	FORWARD:          0	MERGED:          0	TO_CACHE:     604463
LLC WQ	ACCESS:     133935	FORWARD:         30	MERGED:          0	TO_CACHE:     133935
LLC PQ	ACCESS:     476827	FORWARD:          0	MERGED:          0	TO_CACHE:     476825

LLC Dense regions hint to LLC: 0

RAW hits: 1822511
Loads Generated: 12636139
Loads sent to L1D: 10813628
Stores Generated: 6956688
Stores sent to L1D: 6956692
Major fault: 0 Minor fault: 2586
Allocated PAGES: 2586
CPU 0 L1I prefetcher final stats
USEFUL PREFETCHES 1298528
USELESS PREFETCHES 1620283
MISSES TRACKED 2263286
MISSES OMITTED 2450042
2263286 2291509 4683643BRANCHES PENDING
22981772/32621961
To predecode: 9355647 predecoding_something: 319382698

stream: 
stream:times selected: 1179371
stream:pref_filled: 118527
stream:pref_useful: 21887
stream:pref_late: 7709
stream:misses: 6828
stream:misses_by_poll: 0

CS: 
CS:times selected: 178561
CS:pref_filled: 52217
CS:pref_useful: 29929
CS:pref_late: 12852
CS:misses: 22140
CS:misses_by_poll: 3

CPLX: 
CPLX:times selected: 999585
CPLX:pref_filled: 19576
CPLX:pref_useful: 4101
CPLX:pref_late: 3711
CPLX:misses: 94046
CPLX:misses_by_poll: 1

NL_L1: 
NL:times selected: 17107
NL:pref_filled: 587
NL:pref_useful: 213
NL:pref_late: 183
NL:misses: 845
NL:misses_by_poll: 0

total selections: 2374624
total_filled: 91451
total_useful: 32929
total_late: 25764
total_polluted: 4
total_misses_after_warmup: 776167
conflicts: 5600553

test: 115657

DRAM Statistics
 CHANNEL 0
 RQ ROW_BUFFER_HIT:       9897  ROW_BUFFER_MISS:      17702
 DBUS_CONGESTED:          9
 WQ ROW_BUFFER_HIT:       1389  ROW_BUFFER_MISS:      11885  FULL:          0

 AVG_CONGESTED_CYCLE: 6

CPU 0 Branch Prediction Accuracy: 99.8222% MPKI: 0.32532 Average ROB Occupancy at Mispredict: 147.284
Branch types
NOT_BRANCH: 40848693 81.6974%
BRANCH_DIRECT_JUMP: 547715 1.09543%
BRANCH_INDIRECT: 182663 0.365326%
BRANCH_CONDITIONAL: 6177197 12.3544%
BRANCH_DIRECT_CALL: 949516 1.89903%
BRANCH_INDIRECT_CALL: 172209 0.344418%
BRANCH_RETURN: 1121722 2.24344%
BRANCH_OTHER: 0 0%

DRAM PAGES: 1048576
Allocated PAGES: 2586
Average_ROB_Occupancy: 147.233
Average_Decode_Occupancy: 17.7748
Average_FTQ_Occupancy: 7.92308
Indirect max targets: 14 Average targets: 1.15541
Branch_type:  BRANCH_DIRECT_JUMP:  Count Percentage: 3.81 6.01418 3.70827 3.27461 7.49856 5.44858 6.51573 63.7301 
Branch_type:  BRANCH_INDIRECT:  Count Percentage: 11.7602 3.41528 2.53817 0 13.0346 2.80977 16.5673 49.8747 
Branch_type:  BRANCH_CONDITIONAL:  Count Percentage: 21.2468 3.00288 2.12477 2.96119 3.44817 4.56297 3.26866 59.3846 
Branch_type:  BRANCH_DIRECT_CALL:  Count Percentage: 0.889788 1.27293 0.737451 2.27172 4.11495 2.8381 0.887195 86.9879 
Branch_type:  BRANCH_INDIRECT_CALL:  Count Percentage: 9.56314 0 2.99793 0.00378785 0 2.32253 0 85.1126 
Branch_type:  BRANCH_RETURN:  Count Percentage: 5.04148 1.42504 2.14382 2.46586 4.19637 5.27515 3.53703 75.9152 
Branch_type:  BRANCH_DIRECT_JUMP:  Total Count: 41758 65916 40643 35890 82185 59717 71413 698488 
Branch_type:  BRANCH_INDIRECT:  Total Count: 43039 12499 9289 0 47703 10283 60632 182528 
Branch_type:  BRANCH_CONDITIONAL:  Total Count: 2624329 370906 262444 365756 425906 563602 403734 7334981 
Branch_type:  BRANCH_DIRECT_CALL:  Total Count: 16816 24057 13937 42933 77768 53637 16767 1643974 
Branch_type:  BRANCH_INDIRECT_CALL:  Total Count: 32821 0 10289 13 0 7971 0 292109 
Branch_type:  BRANCH_RETURN:  Total Count: 112622 31834 47891 55085 93743 117842 79014 1695875 
Number of unique branch instructions: 10076
Upper 32 bits: 
aaaa
ffff
ffff0000
Unique upper 32 bits: 3
Unique upper 36 bits: 3
Unique upper 40 bits: 5
Unique upper 44 bits: 32
Unique upper 48 bits: 155
Offset_3 4161
Offset_4 247
Offset_5 461
Offset_6 511
Offset_7 599
Offset_8 510
Offset_9 465
Offset_10 386
Offset_11 319
Offset_12 283
Offset_13 218
Offset_14 237
Offset_15 190
Offset_16 224
Offset_17 157
Offset_18 122
Offset_19 249
Offset_20 139
Offset_21 235
Offset_22 405
Offset_23 241
Offset_24 331
Offset_25 92
Offset_47 82
Offset_64 2
decode_dispatch_called: 20859486 49.1463
Dispatch_width: 0 10650127 51.0565 25.0924
Dispatch_width: 1 575195 2.75747 1.3552
Dispatch_width: 2 659462 3.16145 1.55374
Dispatch_width: 3 432419 2.07301 1.01881
Dispatch_width: 4 2074241 9.94387 4.88705
Dispatch_width: 5 296740 1.42257 0.699139
Dispatch_width: 6 6171302 29.5851 14.54
Empty_decode_cycles: 21584169 50.8537
ROB_full_cycles: 3201430 7.54278
Starvation_cycles_per_kilo_instr: 330.709
Starvation_cycles_per_kilo_instr_3: 306.999
Starvation_cycles_per_kilo_instr_0: 290.329
Branch_type_1  (3,1)  (4,9)  (5,37)  (6,71)  (7,118)  (8,129)  (9,122)  (10,99)  (11,69)  (12,43)  (13,8)  (14,2)  (15,3)  (16,4)  (18,1)  (19,4)  (20,2)  (21,1)  (22,3)  (23,2)  (24,10)  (25,12) 
Branch_type_2  (3,1)  (4,1)  (5,1)  (8,3)  (9,3)  (12,1)  (13,1)  (14,1)  (16,3)  (17,2)  (20,2)  (21,2)  (23,5)  (24,1)  (47,37) 
Branch_type_3  (3,4159)  (4,237)  (5,419)  (6,425)  (7,452)  (8,317)  (9,251)  (10,156)  (11,124)  (12,50)  (13,7)  (20,1)  (64,1) 
Branch_type_4  (6,3)  (7,8)  (8,25)  (9,52)  (10,62)  (11,63)  (12,104)  (13,93)  (14,107)  (15,90)  (16,100)  (17,72)  (18,55)  (19,124)  (20,71)  (21,124)  (22,216)  (23,136)  (24,191)  (25,76)  (64,1) 
Branch_type_5  (8,2)  (9,1)  (10,4)  (11,6)  (12,3)  (13,14)  (14,16)  (15,11)  (16,20)  (17,11)  (18,16)  (19,12)  (20,11)  (21,13)  (22,42)  (23,26)  (24,37) 
Branch_type_6  (5,4)  (6,12)  (7,21)  (8,34)  (9,36)  (10,65)  (11,57)  (12,82)  (13,95)  (14,111)  (15,86)  (16,97)  (17,72)  (18,50)  (19,109)  (20,52)  (21,95)  (22,144)  (23,72)  (24,92)  (25,4)  (47,45) 
Unique trigger count: 
BTB PER SET UNIQUE ADDR: 3 4 3 3 1 0 3 2 4 0 2 0 5 3 1 3 3 2 3 5 3 4 2 3 4 5 1 4 3 2 6 6 4 3 5 2 1 5 5 2 4 4 3 6 6 3 4 3 6 3 3 2 3 2 0 3 4 3 3 3 1 4 2 3 1 4 5 2 3 5 5 1 1 4 2 3 3 6 1 3 2 2 1 4 3 4 2 5 3 3 6 5 3 5 2 0 3 4 2 3 4 3 3 3 2 2 1 2 3 2 2 1 3 6 2 6 2 4 4 1 4 4 2 0 1 2 2 1 5 4 5 2 4 1 5 3 2 1 3 3 4 3 3 2 3 4 2 5 4 3 2 8 3 5 2 0 3 3 3 2 4 5 3 4 5 3 2 2 9 1 3 2 4 2 1 1 3 4 4 1 2 3 6 3 5 5 4 1 2 3 5 2 3 4 4 4 2 3 3 5 3 2 4 1 3 3 2 5 3 1 2 4 5 4 3 2 2 4 4 0 1 2 2 3 3 2 3 3 0 4 8 3 3 1 3 3 3 2 1 3 1 0 6 4 9 7 1 1 3 3 2 2 1 3 2 6 3 5 4 3 4 4 4 2 3 7 3 1 4 2 3 2 2 3 4 2 1 1 3 3 4 2 6 2 5 5 3 3 1 1 0 3 1 5 1 1 5 3 2 2 3 3 1 2 3 2 4 2 7 5 3 1 3 2 5 1 7 6 2 2 3 7 3 4 2 2 1 5 1 1 4 0 2 5 5 2 3 3 5 0 3 0 1 4 3 3 1 2 4 3 2 6 5 3 5 3 2 0 4 1 2 5 2 4 7 4 1 1 2 1 3 2 2 4 4 4 3 3 3 4 5 3 1 4 3 2 5 2 4 1 5 4 4 2 3 1 5 0 1 3 4 2 3 2 2 4 3 2 1 1 1 2 4 4 2 2 5 3 1 3 1 1 3 4 4 5 2 0 2 4 1 2 8 4 5 5 4 3 3 0 3 4 5 3 5 6 2 3 3 2 4 3 2 2 5 0 1 3 7 3 3 3 4 6 1 3 5 2 2 3 0 4 5 2 2 1 3 5 3 1 2 1 2 2 0 4 3 0 6 1 5 2 3 4 0 5 4 3 2 1 5 1 1 1 1 2 3 2 3 3 3 2 4 7 2 2 2 6 4 5 3 5 4 3 6 6 0 7 6 3 5 3 3 6 3 4 1 1 4 1 2 5 6 3 5 2 8 3 6 9 4 6 3 6 1 3 3 1 3 4 8 3 5 2 2 1 4 3 3 7 4 2 3 8 3 2 3 3 1 5 5 2 2 0 1 0 0 9 4 2 5 6 2 1 2 3 4 2 3 1 4 2 4 7 1 4 4 4 2 2 5 2 2 2 2 3 2 0 3 1 5 4 7 2 2 3 2 5 2 3 5 4 3 3 5 3 2 3 2 3 8 1 4 4 0 0 3 4 3 4 3 2 5 2 3 0 5 3 2 3 6 2 5 4 5 4 5 3 1 4 5 4 4 3 5 6 3 3 3 3 3 2 5 2 5 3 5 3 4 3 1 5 2 2 2 3 6 4 5 5 0 6 0 3 3 2 3 1 3 1 3 3 3 1 2 1 7 2 0 3 2 0 1 1 1 1 1 4 2 4 5 4 2 1 2 4 5 3 2 2 1 3 2 4 2 1 4 2 3 2 0 2 1 3 2 2 2 6 4 1 3 3 1 5 4 4 8 2 2 2 4 3 0 3 3 4 5 2 1 3 4 4 0 3 8 6 3 4 0 3 2 4 2 1 4 7 7 2 2 2 5 3 4 3 4 3 3 5 2 3 1 3 4 0 4 3 1 2 0 4 4 2 4 2 2 1 2 2 4 4 3 1 3 2 5 2 2 1 5 2 2 1 3 3 1 4 7 4 5 2 6 2 5 4 4 5 3 2 4 4 2 6 2 1 9 3 3 4 5 3 1 3 3 6 4 0 2 3 5 4 3 5 4 4 6 3 2 2 3 4 4 2 3 4 3 1 6 3 1 1 5 2 1 3 4 5 3 5 3 4 5 4 0 3 1 5 0 1 5 2 6 5 5 3 4 1 3 2 5 7 4 4 9 7 5 4 6 4 1 5 4 2 0 4 4 5 5 5 3 2 6 0 5 4 2 4 6 5 4 2 3 2 4 5 2 6 9 4 6 3 3 3 0 5 6 1 7 5 1 3 7 5 3 4 2 1 2 3 3 2 5 4 2 7 4 5 4 5 3 5 1 3 4 2 2 5 4 3 3 3 5 3 4 3 5 2 5 3 2 4 5 2 10 5 3 3 3 2 2 3 4 7 6 2 3 2 3 2 3 1 3 2 4 4 2 4 5 5 4 6 0 3 3 4 4 4 2 1 3 2 3 1 2 1 4 1 3 3 3 5 2 8 5 3 2 1 10 1 2 4 1 2 6 5 3 7 3 5 5 5 2 5 2 2 1 1 5 0 4 4 3 7 4 1 7 4 6 2 3 4 5 3 5 7 4 4 6 1 4 4 7 4 3 3 4 3 6 6 3 6 5 6 4 3 5 3 1 2 4 5 1 3 2 1 3 4 2 2 5 2 2 5 4 1 5 1 7 3 3 2 3 1 3 5 3 4 3 4 2 6 2 3 6 3 3 3 3 6 2 8 3 5 3 8 6 1 6 1 5 2 1 2 4 4 3 1 3 4 2 1 2 2 4 3 3 3 3 4 2 5 2 5 4 5 0 5 3 2 2 6 9 0 7 0 1 4 5 2 5 1 3 3 4 1 1 2 4 5 3 4 1 4 4 6 5 1 5 4 3 6 10 4 2 6 6 5 1 1 3 5 6 3 2 2 4 3 4 4 5 3 1 4 2 2 6 8 5 3 3 6 1 2 5 2 4 1 3 2 6 8 3 3 3 3 4 4 2 5 6 6 4 2 1 5 3 2 4 3 4 4 4 4 7 3 5 4 4 5 5 3 1 7 4 4 3 3 3 2 3 3 2 2 5 4 3 2 5 1 1 3 3 8 5 2 3 4 2 4 3 3 4 3 2 1 3 2 4 2 5 3 4 4 2 1 2 6 2 4 2 5 2 5 5 1 1 4 4 3 3 3 5 2 3 4 4 5 4 4 4 3 3 2 2 3 5 3 4 1 3 0 8 4 3 6 4 4 5 7 3 2 3 3 1 2 4 1 4 2 4 2 0 5 1 5 2 2 3 3 3 2 4 2 3 2 3 1 5 2 0 3 4 1 1 3 2 4 2 3 7 3 1 2 3 3 2 2 7 2 3 6 3 3 3 3 2 2 3 0 2 2 2 3 2 1 2 0 3 0 4 2 3 3 2 3 2 2 2 4 4 2 6 1 3 4 2 2 4 5 2 2 5 0 1 3 3 1 1 2 3 3 5 3 1 1 6 2 1 4 1 6 1 4 2 3 6 2 2 2 1 3 3 1 0 3 4 2 3 3 1 2 0 5 1 3 3 0 3 2 5 3 4 3 3 4 2 3 2 2 2 3 4 0 2 3 2 3 3 1 3 3 2 9 6 2 2 2 4 1 1 3 5 2 3 0 3 2 3 2 3 4 5 5 7 0 4 1 6 4 4 5 3 8 2 5 8 3 0 6 3 3 3 4 3 3 2 1 2 4 3 2 3 3 2 3 5 3 5 5 6 2 1 5 5 3 3 4 5 3 6 2 5 5 2 6 3 3 3 1 3 6 5 3 2 3 3 3 3 4 2 3 3 2 3 1 3 7 0 2 2 3 3 3 5 4 4 2 5 1 2 2 5 2 4 5 6 1 1 7 2 4 2 3 4 6 2 3 2 3 6 3 5 3 5 3 4 10 4 4 3 5 2 5 4 3 2 3 0 2 2 3 4 3 2 3 3 5 4 2 4 10 0 3 2 4 4 4 3 4 2 6 2 4 1 5 2 3 4 3 3 0 2 5 0 7 2 5 5 1 4 3 2 0 4 2 3 5 3 6 2 3 2 1 4 4 6 1 3 3 0 3 2 5 5 3 2 3 5 2 3 2 6 3 4 1 5 3 0 2 4 1 1 8 2 0 4 2 4 3 2 3 6 3 3 6 1 5 3 5 2 5 4 2 3 2 7 1 4 0 3 3 4 4 3 3 2 1 2 3 0 3 0 3 4 6 2 2 5 2 3 3 3 1 2 2 4 2 4 2 5 3 2 3 1 2 3 3 3 2 3 4 2 1 1 2 2 5 1 4 1 5 4 2 3 1 4 1 2 3 5 2 3 4 4 5 3 3 3 4 4 2 1 3 2 0 2 2 2 2 4 2 5 2 3 3 4 1 2 4 3 2 3 7 3 2 7 6 3 2 4 1 2 5 3 4 4 2 4 1 1 2 4 3 2 4 3 2 5 4 4 8 4 2 0 4 1 0 2 3 0 4 4 6 1 3 4 6 4 0 2 2 4 2 5 1 3 2 8 3 1 2 3 6 2 7 3 4 6 0 1 3 1 4 2 1 0 2 3 4 5 4 1 0 3 4 5 1 1 1 3 5 2 1 5 4 3 3 5 4 0 6 2 6 2 1 2 2 1 2 4 1 3 1 3 2 3 1 5 2 5 2 4 2 1 3 5 4 4 0 
BTB PER SET COUNT: 4 4 3 1483 1 0 731 2 4 0 2 0 3851 21 1 4 3 20 1447 4315 3 483 2 3 13 6833 1 4 1472 2 3410 2572 4 3 5101 259 2940 3194 3932 2 6 5504 1823 2205 10321 3 4 3 1578 3 942 3499 3 2 0 3 4 3 4 834 3 4 984 476 1 363 452 2 3 1848 1607 2944 1 8994 2 978 1474 758 1 4 2 2 1 4 3 5 2 12 3 3 3008 2465 3 3928 3 0 850 4 2 4 521 1677 3886 3 2 3 1 2910 3 2 2 1 98 2626 2547 2486 875 1337 4 1 4 4 2 0 1 2 2 1 2402 6 18451 3 4129 1 979 3 1825 1 10 3 3668 5 3 2 6 4 7 7566 4 9118 2 7202 3 10300 2 0 3 3 1029 9150 4586 1391 3 1472 10 1965 156 2 9821 243 3 2 640 37 1 5088 3 4 986 5 461 36 7712 264 4488 2197 1438 1 2 4 41 2 3 2458 1469 2955 102 3 245 989 4334 3 1005 1 5 3 2 1480 2860 1 977 5 16 4 3 1754 2 5 8477 0 5 871 2 3 4775 2 88 61 0 4 14109 3 3 1 993 3 3 73 1 3 1 0 2445 4 9788 5883 733 1 3 3 5670 2 1 911 2 3748 3 8 4 3 1728 634 1651 2 1859 1630 3 13911 255 2 3 2 2 3 1899 6711 1 1 3 205 82289 2 1963 15323 749 8317 3 3 1 1 0 1854 1 44 1 3843 993 2335 2 2 3 4 1 2 3 2 12 2 1963 995 2463 9416 3 2 1865 1 2445 1255 2 5 3 2224 4 5127 2 2 1 31 1 10 3651 0 2 15 1534 2 1034 4770 2470 0 3 0 2 981 980 1473 1 2 3465 591 2 610 4542 13593 1034 3176 2 0 4 1 2 678 1634 4 2709 5 960 75 479 1 3384 2 2 4 5 2955 10 2937 971 4 24 380 1 86690 86 2 776 2 4 1 2919 372 2692 520 3 1 6377 0 1 3 4 2 291 2 2 3385 2536 2 1 981 1 1080 70 4 982 1471 2790 1118 1 89 1 1 3 54 1538 11 9 0 2 6 2797 3064 8614 5 4233 5621 4 3 4345 0 3 492 3853 393 10 2352 3058 2352 3 1955 985 3 4 2 1952 0 1 3 1487 3 3 3 4 2989 1 1469 987 2 2 6032 0 1105 35 490 2 1 3 998 3 1 2230 1 1477 4898 0 3684 18 0 28 1 6 2 2205 984 0 37 5 2319 2 1 3233 13 1 2 1 2 4 250 51 4 3 2 4 524 3 1870 1473 5384 4 502 3 1483 812 13 884 4194 0 1957 4920 3 7 5294 3 1091 1472 495 1 5 5 1 2 1468 164 724 1710 13 116 4 994 13718 4610 2159 8989 2928 1 3 11 1 1474 739 16664 3 1955 2 2 1 4 1852 3 3940 111 3 3 6424 3 2 533 3819 1 24 1596 39 2 0 1 0 0 6505 7494 2 1981 2933 2 1 982 747 4 2 1746 1 3667 716 3219 5610 1 4 4 1475 2 2 2450 2 2 2 980 3 3424 0 2498 141 13 492 3419 4387 6 3 2 18 3 1342 4594 6082 3 10 3204 3 2 2131 2 3 2943 1 4 9 0 0 4 6 11 5 3 2 9 484 4 0 13 476 705 3 17118 1036 3746 4 1957 6 5441 982 1 4 5905 4 6516 4 1468 3008 487 3 6 3 4925 2676 7 979 6076 3 3645 1472 4 1474 21 2898 2 2 4575 3 6174 10 5144 38 0 2892 0 954 3 979 3 1 1972 1 3 4 5 1 979 1 2470 985 0 3 2 0 1 1 1 1 1 1879 1443 4 5651 5825 983 1 2 479 9 1226 3 2640 1 3 4254 6531 2 1 494 2 3 1953 0 2 1 5 2 43 2 7841 2456 1 3 2155 1 34 541 4 8828 2 3 1263 4 704 0 110 3 1270 2949 3 1 8223 4 4 0 1472 4503 4934 8 1985 0 3 2 1596 2 1 5 2173 3419 1349 2 2 8732 1713 431 1510 2254 4 3 20 2 920 1 1398 42 0 28 5 2 2 0 4 4 4625 1923 2 2053 1469 2 2 1487 3088 50192 1 1802 2 4407 4 3 2 1523 6131 2 1 3 8651 1 10 1976 2096 9 3 5045 3368 2629 9 2521 13 8 2 50 4 2 6413 6 1 6935 983 8 6 3209 1037 1 939 1483 4256 5 0 5 1473 24 4 248 6373 5 4491 1193 3 2 316 1476 4 5 2 3 15 4 3 4384 3 1 998 1778 2 1 1692 28110 2470 3 4875 3 4 3090 4 0 3 1 5710 0 1 1469 2337 56 13 1466 56 9 1468 7 2 4513 149 8 495 5738 3923 9157 2794 2300 13 1 24 5 662 0 984 4 6362 1416 1468 32 2 817 0 4000 307 5001 4 8363 1973 13 2 984 493 492 4908 5 4871 2610 3112 8456 1473 4248 3 0 1063 9481 1 7351 3902 1 51 6859 766 492 8 2 3 2 3 3 5954 2313 5935 2 3464 488 10 4 4843 3 1487 1 3 4 3276 2 5879 4 4 3 1320 3679 2633 5899 1343 1724 3 499 4 2 4 2998 2628 5702 1495 4 56 3 2 2 3 4 5385 1959 2 963 32 4 2 3 3 3 2 506 2422 2 4 865 1955 5122 6923 0 3 3 4 1474 365 798 8 4 4 596 1 7 1 6 1 4 3 3 12 1548 4399 3422 12481 2 1 16245 1 2 6 980 977 3689 1093 934 5399 2482 24 8 2535 2 4109 2 2 1 1 4928 0 3658 4 4 12043 1470 1 3502 2864 5523 41 493 6 1490 1005 2444 4685 4 3908 5292 491 6 5389 10909 926 3 985 4 3 3928 2426 3045 4399 19632 3620 4 3 436 4 1 3 4 13622 2749 3 2 1 3 4 568 2 507 3 2008 32 7 4942 1973 1 5670 3 570 265 3 1 24 1482 3 5621 3 4 2 26 5 7 1693 4050 3 5805 3 9089 2 8446 3 2280 3 7421 9881 1 5389 7338 2240 3407 1260 2 494 1269 4 1193 2396 3139 2 1 2 490 2947 6379 3 984 3794 26 2031 1471 922 2979 4 3986 0 2796 3 2 3 47 16738 0 305 0 1 4 3500 4 25 1 963 986 15 1 1 2 2895 2506 3 1440 521 1328 22 14928 11546 1 5155 716 3 2976 10786 1978 3871 8708 4325 3233 1 1 472 1952 2443 2718 2 2 2095 3 14 2888 3235 3 1 1750 20715 2 3445 29803 6478 3 3 748 4577 2 43 2 4 1 3 717 6240 8530 983 5 3 3 980 4 2 4649 1964 3923 990 481 1 4223 3861 2 2672 4426 9 5 1317 1187 7617 1976 1957 2942 492 3664 2443 10 1712 32786 4 3913 3 4 3 2 3 966 2 2 15 1171 4 228 1470 1 1 4322 960 4416 7033 4 339 4 2 4 3 1437 4 3 4 1 3 6549 5668 2 4210 6665 780 4 2 3756 445 7194 2 9418 2 6 2 31 1653 5 1 4 4 983 3 1947 2448 3 1402 2006 4 7851 5 4 4 3 3 6703 3 2920 4399 3 4 1 2255 0 12894 2205 3 2925 567 4 2481 9302 1371 2 4 1025 1 2 3090 1 5011 1448 1474 2 0 19390 1 115 2 2 2826 203 5 2 4390 2230 3 1342 1088 1 524 2 0 3 242 1 1 1359 2 15026 2 3 6400 481 1 2 3 4760 735 2 2928 3 3 1712 5 3 2146 957 2 3999 829 0 4 1625 2 1935 2 1 2 0 4 0 3376 2 3042 854 2 3904 977 478 8 4 5699 2 15025 1 3 4 2 491 5 290 4453 2 24038 0 1 3 423 1 1 2 18278 3 2019 367 1 1 1361 2 501 4 1 7108 1 4413 2 314 1940 13 5377 106 1 5 4 1 0 29 1474 2 3 3 1 2 0 6400 1 29 5 0 5227 2182 2841 3 6222 3 3 2002 2 52 2 1464 2 3 4 0 2 3 2 3 8923 1 4 985 2 4256 2936 6982 2 1597 980 1 2 3 1728 2 971 0 2758 2 3 2 1999 1885 2438 17 5895 0 393 1 2926 4 62 8303 1466 3423 2 751 8448 480 0 5970 6175 3 4 4403 2116 246 2 1 2 984 2800 1458 3 957 2 245 3333 4 1957 494 9328 2926 1 1195 37935 9 5 5881 8 1769 6405 2 2534 1956 2537 2453 3083 280 362 1 1957 2980 13 4108 6 15502 3 3 983 11 2 14 3 2 3728 1 6 2608 0 2 2 1653 2225 1029 3156 242 1121 3999 9242 1 2 3 4356 2 3333 3105 3097 1 1 6384 2 1192 2 4 980 1959 493 3 3166 3353 2928 5 495 3 4599 3 4 12613 241 4 14703 2934 2923 1952 1475 6 2 9 0 2 2 313 16242 1473 2 1255 3 12 1450 7833 175 3426 0 1473 2 1473 78 4 3 4 4888 3239 168 3202 1 2443 2 3 8 3 3 0 490 3033 0 5394 346 1194 2446 727 2444 4 2 0 3707 2 4 8751 3 8823 2 3 2 1 4 5607 7347 1 3 11689 0 3 240 9382 3231 984 2 4 1962 2 3 2 7302 3 5 1 10270 989 0 2 492 1470 1 6494 2 0 8439 517 4 3 4 1990 3382 3 408 9386 1 4391 6414 4896 213 1952 2016 2 3 2 11036 4371 7027 0 5 1474 683 4 3 3175 1934 1 2 498 0 4284 0 3 2780 3343 2 2 5602 1188 1574 7 983 1 15872 2 4 4137 4 2 102 3 6370 3 89 2 1867 3 5 2562 3 4 2 1 1 56 2 1433 1 4 2716 12134 486 2 1431 3 47 1 1996 3606 739 2384 490 1009 1438 8375 9 17856 3 4 4 2 1 3 2 0 2 2 244 483 4 14 2443 2 3 3 5 1 2 980 3 7 1442 3288 14 322 3668 5556 910 6 5 1 2 601 3 5 494 2 2240 1 2347 2 2391 978 2 4 3 26069 11 4 985 3311 1547 2 0 4 2352 0 2499 1714 0 5 1474 1004 1 3 4 2423 8 0 3312 2 5 2 463 1420 1048 874 6662 1617 626 2 1887 2453 6 31262 2946 4 15536 0 1 46 3471 4 12727 230 0 727 4081 5 1497 4 2 0 610 4601 3553 1 1 1 3 6510 2 1 4901 9 4454 17 3572 1924 0 2454 2 6379 5 14500 1168 2 1 10 487 1 3 1 1734 958 4 2446 17 21 901 2 26570 12 2 3 2139 4 4 0 
