
*** ChampSim Multicore Out-of-Order Simulator ***

Warmup Instructions: 50000000
Simulation Instructions: 50000000
Number of CPUs: 1
LLC sets: 2048
LLC ways: 16
Off-chip DRAM Size: 4096 MB Channels: 1 Width: 64-bit Data Rate: 6400 MT/s
CPU 0 runs ./micro_traces/srv518.trace.gz
.gz
ITLB has LRU replacement policy
DTLB has LRU replacement policy
STLB has LRU replacement policy
FDIP Prefetcher at L1I
L1I has LRU replacement policy
L1D has LRU replacement policy
Initialize SRRIP state for L2C
Initialize DRRIP state for LLC
Heartbeat_Variant_0 : 1270 0.155029 per_variant_size: 0 1270 0 0 0 0 0 0 0 
Heartbeat_Variant_1 : 2690 0.328369 per_variant_size: 0 1022 1668 0 0 0 0 0 0 
Heartbeat_Variant_2 : 0 0 per_variant_size: 0 0 0 0 0 0 0 0 0 
Heartbeat_Variant_3 : 0 0 per_variant_size: 0 0 0 0 0 0 0 0 0 
Heartbeat_Variant_0_evicts 0 : 8040 1 : 1725 2 : 0 3 : 0 
Heartbeat_Variant_1_evicts 0 : 1730 1 : 0 2 : 0 3 : 0 
Heartbeat_Variant_2_evicts 0 : 0 1 : 0 2 : 0 3 : 0 
Heartbeat_Variant_3_evicts 0 : 0 1 : 0 2 : 0 3 : 0 
Heartbeat CPU 0 instructions: 10000002 cycles: 2798227 heartbeat IPC: 3.57369 cumulative IPC: 3.57369 (Simulation time: 0 hr 2 min 6 sec) 
Heartbeat_Variant_0 : 1315 0.160522 per_variant_size: 0 1315 0 0 0 0 0 0 0 
Heartbeat_Variant_1 : 2790 0.340576 per_variant_size: 0 1033 1757 0 0 0 0 0 0 
Heartbeat_Variant_2 : 0 0 per_variant_size: 0 0 0 0 0 0 0 0 0 
Heartbeat_Variant_3 : 0 0 per_variant_size: 0 0 0 0 0 0 0 0 0 
Heartbeat_Variant_0_evicts 0 : 7689 1 : 1634 2 : 0 3 : 0 
Heartbeat_Variant_1_evicts 0 : 1631 1 : 0 2 : 0 3 : 0 
Heartbeat_Variant_2_evicts 0 : 0 1 : 0 2 : 0 3 : 0 
Heartbeat_Variant_3_evicts 0 : 0 1 : 0 2 : 0 3 : 0 
Heartbeat CPU 0 instructions: 20000001 cycles: 5596184 heartbeat IPC: 3.57404 cumulative IPC: 3.57386 (Simulation time: 0 hr 4 min 13 sec) 
Heartbeat_Variant_0 : 1362 0.16626 per_variant_size: 0 1362 0 0 0 0 0 0 0 
Heartbeat_Variant_1 : 2899 0.353882 per_variant_size: 0 1028 1871 0 0 0 0 0 0 
Heartbeat_Variant_2 : 0 0 per_variant_size: 0 0 0 0 0 0 0 0 0 
Heartbeat_Variant_3 : 0 0 per_variant_size: 0 0 0 0 0 0 0 0 0 
Heartbeat_Variant_0_evicts 0 : 7640 1 : 1572 2 : 0 3 : 0 
Heartbeat_Variant_1_evicts 0 : 1576 1 : 0 2 : 0 3 : 0 
Heartbeat_Variant_2_evicts 0 : 0 1 : 0 2 : 0 3 : 0 
Heartbeat_Variant_3_evicts 0 : 0 1 : 0 2 : 0 3 : 0 
Heartbeat CPU 0 instructions: 30000000 cycles: 8392322 heartbeat IPC: 3.57636 cumulative IPC: 3.5747 (Simulation time: 0 hr 6 min 13 sec) 
Heartbeat_Variant_0 : 1364 0.166504 per_variant_size: 0 1364 0 0 0 0 0 0 0 
Heartbeat_Variant_1 : 2911 0.355347 per_variant_size: 0 1035 1876 0 0 0 0 0 0 
Heartbeat_Variant_2 : 0 0 per_variant_size: 0 0 0 0 0 0 0 0 0 
Heartbeat_Variant_3 : 0 0 per_variant_size: 0 0 0 0 0 0 0 0 0 
Heartbeat_Variant_0_evicts 0 : 7781 1 : 1670 2 : 0 3 : 0 
Heartbeat_Variant_1_evicts 0 : 1669 1 : 0 2 : 0 3 : 0 
Heartbeat_Variant_2_evicts 0 : 0 1 : 0 2 : 0 3 : 0 
Heartbeat_Variant_3_evicts 0 : 0 1 : 0 2 : 0 3 : 0 
Heartbeat CPU 0 instructions: 40000001 cycles: 11189008 heartbeat IPC: 3.57566 cumulative IPC: 3.57494 (Simulation time: 0 hr 8 min 21 sec) 
Heartbeat_Variant_0 : 1363 0.166382 per_variant_size: 0 1363 0 0 0 0 0 0 0 
Heartbeat_Variant_1 : 2915 0.355835 per_variant_size: 0 1032 1883 0 0 0 0 0 0 
Heartbeat_Variant_2 : 0 0 per_variant_size: 0 0 0 0 0 0 0 0 0 
Heartbeat_Variant_3 : 0 0 per_variant_size: 0 0 0 0 0 0 0 0 0 
Heartbeat_Variant_0_evicts 0 : 8042 1 : 1682 2 : 0 3 : 0 
Heartbeat_Variant_1_evicts 0 : 1683 1 : 0 2 : 0 3 : 0 
Heartbeat_Variant_2_evicts 0 : 0 1 : 0 2 : 0 3 : 0 
Heartbeat_Variant_3_evicts 0 : 0 1 : 0 2 : 0 3 : 0 
Heartbeat CPU 0 instructions: 50000000 cycles: 13985708 heartbeat IPC: 3.57564 cumulative IPC: 3.57508 (Simulation time: 0 hr 10 min 29 sec) 

Warmup complete CPU 0 instructions: 50000004 cycles: 13985709 (Simulation time: 0 hr 10 min 29 sec) 

Cycle: 20000000 FTQ IN: 58260847 FTQ occupancy: 19.6409 DECODE IN: 58260777 DECODE occupancy: 51.1283 ROB IN: 58260717 ROB occupancy: 309.611 ROB OUT: 58260365
Heartbeat_Variant_0 : 1369 0.167114 per_variant_size: 0 1369 0 0 0 0 0 0 0 
Heartbeat_Variant_1 : 2909 0.355103 per_variant_size: 0 1036 1873 0 0 0 0 0 0 
Heartbeat_Variant_2 : 0 0 per_variant_size: 0 0 0 0 0 0 0 0 0 
Heartbeat_Variant_3 : 0 0 per_variant_size: 0 0 0 0 0 0 0 0 0 
Heartbeat_Variant_0_evicts 0 : 8121 1 : 1570 2 : 0 3 : 0 
Heartbeat_Variant_1_evicts 0 : 1564 1 : 0 2 : 0 3 : 0 
Heartbeat_Variant_2_evicts 0 : 0 1 : 0 2 : 0 3 : 0 
Heartbeat_Variant_3_evicts 0 : 0 1 : 0 2 : 0 3 : 0 
Heartbeat CPU 0 instructions: 60000002 cycles: 21348599 heartbeat IPC: 1.35816 cumulative IPC: 1.35816 (Simulation time: 0 hr 12 min 52 sec) 
Heartbeat_Variant_0 : 1368 0.166992 per_variant_size: 0 1368 0 0 0 0 0 0 0 
Heartbeat_Variant_1 : 2910 0.355225 per_variant_size: 0 1037 1873 0 0 0 0 0 0 
Heartbeat_Variant_2 : 0 0 per_variant_size: 0 0 0 0 0 0 0 0 0 
Heartbeat_Variant_3 : 0 0 per_variant_size: 0 0 0 0 0 0 0 0 0 
Heartbeat_Variant_0_evicts 0 : 8064 1 : 1499 2 : 0 3 : 0 
Heartbeat_Variant_1_evicts 0 : 1500 1 : 0 2 : 0 3 : 0 
Heartbeat_Variant_2_evicts 0 : 0 1 : 0 2 : 0 3 : 0 
Heartbeat_Variant_3_evicts 0 : 0 1 : 0 2 : 0 3 : 0 
Heartbeat CPU 0 instructions: 70000000 cycles: 28652042 heartbeat IPC: 1.36922 cumulative IPC: 1.36367 (Simulation time: 0 hr 15 min 20 sec) 
Cycle: 30000000 FTQ IN: 13584187 FTQ occupancy: 11.9361 DECODE IN: 13584241 DECODE occupancy: 30.4097 ROB IN: 13584301 ROB occupancy: 218.745 ROB OUT: 13584434
Heartbeat_Variant_0 : 1370 0.167236 per_variant_size: 0 1370 0 0 0 0 0 0 0 
Heartbeat_Variant_1 : 2914 0.355713 per_variant_size: 0 1034 1880 0 0 0 0 0 0 
Heartbeat_Variant_2 : 0 0 per_variant_size: 0 0 0 0 0 0 0 0 0 
Heartbeat_Variant_3 : 0 0 per_variant_size: 0 0 0 0 0 0 0 0 0 
Heartbeat_Variant_0_evicts 0 : 7740 1 : 1473 2 : 0 3 : 0 
Heartbeat_Variant_1_evicts 0 : 1473 1 : 0 2 : 0 3 : 0 
Heartbeat_Variant_2_evicts 0 : 0 1 : 0 2 : 0 3 : 0 
Heartbeat_Variant_3_evicts 0 : 0 1 : 0 2 : 0 3 : 0 
Heartbeat CPU 0 instructions: 80000003 cycles: 36048281 heartbeat IPC: 1.35204 cumulative IPC: 1.35977 (Simulation time: 0 hr 17 min 48 sec) 
Cycle: 40000000 FTQ IN: 13504172 FTQ occupancy: 11.9043 DECODE IN: 13504175 DECODE occupancy: 30.5285 ROB IN: 13504151 ROB occupancy: 221.472 ROB OUT: 13504151
Heartbeat_Variant_0 : 1366 0.166748 per_variant_size: 0 1366 0 0 0 0 0 0 0 
Heartbeat_Variant_1 : 2918 0.356201 per_variant_size: 0 1041 1877 0 0 0 0 0 0 
Heartbeat_Variant_2 : 0 0 per_variant_size: 0 0 0 0 0 0 0 0 0 
Heartbeat_Variant_3 : 0 0 per_variant_size: 0 0 0 0 0 0 0 0 0 
Heartbeat_Variant_0_evicts 0 : 7933 1 : 1493 2 : 0 3 : 0 
Heartbeat_Variant_1_evicts 0 : 1497 1 : 0 2 : 0 3 : 0 
Heartbeat_Variant_2_evicts 0 : 0 1 : 0 2 : 0 3 : 0 
Heartbeat_Variant_3_evicts 0 : 0 1 : 0 2 : 0 3 : 0 
Heartbeat CPU 0 instructions: 90000002 cycles: 43392840 heartbeat IPC: 1.36155 cumulative IPC: 1.36021 (Simulation time: 0 hr 20 min 21 sec) 
Cycle: 50000000 FTQ IN: 13699190 FTQ occupancy: 11.836 DECODE IN: 13699063 DECODE occupancy: 30.5023 ROB IN: 13699027 ROB occupancy: 221.119 ROB OUT: 13698898
Heartbeat_Variant_0 : 1363 0.166382 per_variant_size: 0 1363 0 0 0 0 0 0 0 
Heartbeat_Variant_1 : 2921 0.356567 per_variant_size: 0 1043 1878 0 0 0 0 0 0 
Heartbeat_Variant_2 : 0 0 per_variant_size: 0 0 0 0 0 0 0 0 0 
Heartbeat_Variant_3 : 0 0 per_variant_size: 0 0 0 0 0 0 0 0 0 
Heartbeat_Variant_0_evicts 0 : 7863 1 : 1457 2 : 0 3 : 0 
Heartbeat_Variant_1_evicts 0 : 1460 1 : 0 2 : 0 3 : 0 
Heartbeat_Variant_2_evicts 0 : 0 1 : 0 2 : 0 3 : 0 
Heartbeat_Variant_3_evicts 0 : 0 1 : 0 2 : 0 3 : 0 
Heartbeat CPU 0 instructions: 100000001 cycles: 50696831 heartbeat IPC: 1.36911 cumulative IPC: 1.36198 (Simulation time: 0 hr 23 min 21 sec) 
Finished CPU 0 instructions: 50000001 cycles: 36711123 cumulative IPC: 1.36198 (Simulation time: 0 hr 23 min 21 sec) 

ChampSim completed all CPUs

Region of Interest Statistics

CPU 0 cumulative IPC: 1.36198 instructions: 50000001 cycles: 36711123
 Fetch stage stalled: 56.9317  Sim cycles: 36711123 fetch stall cycle: 20900266
 Empty decode stage: 39.8488  Sim cycles: 36711123 fetch stall cycle: 14628943
ITLB TOTAL     ACCESS:    5824735  HIT:    5333207  MISS:     491528  HIT %:    91.5614  MISS %:    8.43863   MPKI: 9.83056
ITLB LOAD TRANSLATION INSTRUCTION	ACCESS:    5706879  HIT:    5215351  MISS:     491528  HIT %:    91.3871  MISS %:     8.6129  MPKI: 9.83056
ITLB TRANSLATION FROM L1D PREFETCHER INSTRUCTION	ACCESS:     117856  HIT:     117856  MISS:          0  HIT %:        100  MISS %:          0  MPKI: 0

ITLB AVERAGE MISS LATENCY: 9.03737 cycles
ITLB RQ	ACCESS:    7931888	FORWARD:          0	MERGED:    1662460	TO_CACHE:    6269428

DTLB TOTAL     ACCESS:    8995468  HIT:    8526217  MISS:     469251  HIT %:    94.7835  MISS %:    5.21653   MPKI: 9.38502
DTLB LOAD TRANSLATION DATA	ACCESS:    8995468  HIT:    8526217  MISS:     469251  HIT %:    94.7835  MISS %:    5.21653  MPKI: 9.38502

DTLB AVERAGE MISS LATENCY: 9.30713 cycles
DTLB RQ	ACCESS:   13363242	FORWARD:          0	MERGED:    4330962	TO_CACHE:    9032280

STLB TOTAL     ACCESS:    1210961  HIT:    1209065  MISS:       1896  HIT %:    99.8434  MISS %:    0.15657   MPKI: 0.03792
STLB LOAD TRANSLATION INSTRUCTION	ACCESS:     491528  HIT:     491333  MISS:        195  HIT %:    99.9603  MISS %:  0.0396722  MPKI: 0.0039
STLB LOAD TRANSLATION DATA	ACCESS:     469249  HIT:     467559  MISS:       1690  HIT %:    99.6399  MISS %:    0.36015  MPKI: 0.0338
STLB TRANSLATION FROM L1D PREFETCHER DATA	ACCESS:     250184  HIT:     250173  MISS:         11  HIT %:    99.9956  MISS %: 0.00439676  MPKI: 0.00022

STLB AVERAGE MISS LATENCY: 70.2141 cycles
STLB RQ	ACCESS:    1331235	FORWARD:          0	MERGED:     120236	TO_CACHE:    1210999

STLB Hit, L1D data hit: 0
STLB Hit, L2C data hit: 0
STLB Hit, LLC data hit: 0
STLB Hit, LLC data miss: 0
STLB STLB hints to L2: 0
L1D TOTAL     ACCESS:   13117578  HIT:   12009656  MISS:    1107922  HIT %:    91.5539  MISS %:    8.44609   MPKI: 22.1584
L1D LOAD DATA	ACCESS:    6581435  HIT:    5852980  MISS:     728455  HIT %:    88.9317  MISS %:    11.0683  MPKI: 14.5691
L1D RFO DATA	ACCESS:    6205060  HIT:    5920147  MISS:     284913  HIT %:    95.4084  MISS %:    4.59162  MPKI: 5.69826
L1D PREFETCH DATA	ACCESS:     331083  HIT:     236529  MISS:      94554  HIT %:     71.441  MISS %:     28.559  MPKI: 1.89108

L1D PREFETCH  REQUESTED:     741242  ISSUED:     741242  USEFUL:      32995  USELESS:      68674
L1D USEFUL LOAD PREFETCHES:      32995 PREFETCH ISSUED TO LOWER LEVEL:     101725  ACCURACY: 32.4355
 TIMELY PREFETCHES:      32995 LATE PREFETCHES: 7127 DROPPED PREFETCHES: 4
L1D AVERAGE MISS LATENCY: 206680 cycles
L1D RQ	ACCESS:   10711844	FORWARD:          0	MERGED:    3933262	TO_CACHE:    6615910
L1D WQ	ACCESS:    6939555	FORWARD:     163002	MERGED:     192223	TO_CACHE:    6747332
L1D PQ	ACCESS:     370786	FORWARD:          0	MERGED:          0	TO_CACHE:     370456

L1D UNIQUE REGIONS ACCESSED: 0
L1D REGIONS CONFLICTS: 0
L1D Cross Page Prefetch Requests: 5405
L1D Same Page Prefetch Requests: 754213
L1D ROI Sum of L1D PQ occupancy: 4705319
L1D PREFETCHES PUSHED FROM L2C: 0
L1I TOTAL     ACCESS:    7143325  HIT:    4390015  MISS:    2753310  HIT %:    61.4562  MISS %:    38.5438   MPKI: 55.0662
L1I LOAD INSTRUCTION	ACCESS:    6491448  HIT:    3738138  MISS:    2753310  HIT %:    57.5856  MISS %:    42.4144  MPKI: 55.0662
L1I PREFETCH INSTRUCTION	ACCESS:     651877  HIT:     651877  MISS:          0  HIT %:        100  MISS %:          0  MPKI: 0

L1I PREFETCH  REQUESTED:    1558088  ISSUED:    1558088  USEFUL:          0  USELESS:          0
L1I USEFUL LOAD PREFETCHES:          0 PREFETCH ISSUED TO LOWER LEVEL:          0  ACCURACY: -nan
 TIMELY PREFETCHES:          0 LATE PREFETCHES: 0 DROPPED PREFETCHES: 0
L1I AVERAGE MISS LATENCY: 17.2885 cycles
L1I RQ	ACCESS:    9487151	FORWARD:          0	MERGED:    2683495	TO_CACHE:    6803656
L1I PQ	ACCESS:    1558088	FORWARD:          0	MERGED:     429856	TO_CACHE:    1128232

L1BTB TOTAL     ACCESS:    5672365  HIT:    2054293  MISS:    3618072  HIT %:    36.2158  MISS %:    63.7842   MPKI: 72.3614
L1BTB BRANCH_DIRECT_JUMP	ACCESS:     550041 HIT:     145877 MISS:     404164 AVERAGE STALL: 45.0309 AVERAGE FETCH STALL: 16.2253 AVERAGE FETCH QUEUE STALL: 12.3024 AVERAGE DECODE STALL: 15.6413 AVERAGE EXECUTE STALL: 1.71327e+15
L1BTB BRANCH_INDIRECT	ACCESS:     183638 HIT:      66484 MISS:     117154 AVERAGE STALL: 105.027 AVERAGE FETCH STALL: 11.6376 AVERAGE FETCH QUEUE STALL: 14.2684 AVERAGE DECODE STALL: 12.0579 AVERAGE EXECUTE STALL: 66.1011
L1BTB BRANCH_CONDITIONAL	ACCESS:    2717620 HIT:    1426846 MISS:    1290774 AVERAGE STALL: 48.5801 AVERAGE FETCH STALL: 20.4 AVERAGE FETCH QUEUE STALL: 15.1392 AVERAGE DECODE STALL: 12.3322 AVERAGE EXECUTE STALL: 1.55393e+15
L1BTB BRANCH_DIRECT_CALL	ACCESS:     939770 HIT:     105163 MISS:     834607 AVERAGE STALL: 56.2472 AVERAGE FETCH STALL: 22.078 AVERAGE FETCH QUEUE STALL: 17.5991 AVERAGE DECODE STALL: 15.8603 AVERAGE EXECUTE STALL: 9.41593e+14
L1BTB BRANCH_INDIRECT_CALL	ACCESS:     170781 HIT:      20760 MISS:     150021 AVERAGE STALL: 134.703 AVERAGE FETCH STALL: 13.8052 AVERAGE FETCH QUEUE STALL: 13.5476 AVERAGE DECODE STALL: 10.1068 AVERAGE EXECUTE STALL: 96.7359
L1BTB BRANCH_RETURN	ACCESS:    1110515 HIT:     289163 MISS:     821352 AVERAGE STALL: 45.2483 AVERAGE FETCH STALL: 17.596 AVERAGE FETCH QUEUE STALL: 4.90411 AVERAGE DECODE STALL: 6.09129 AVERAGE EXECUTE STALL: 4.10411e+14
L1BTB BRANCH_OTHER ACCESS:          0 HIT:          0 MISS:          0 AVERAGE STALL: -nan AVERAGE FETCH STALL: -nan AVERAGE FETCH QUEUE STALL: -nan AVERAGE DECODE STALL: -nan AVERAGE EXECUTE STALL: -nan
L1BTB TOTAL ROB OCCUPANCY AT BTB MISS: 3.95642

L2BTB TOTAL     ACCESS:    3592554  HIT:    3495976  MISS:      96578  HIT %:    97.3117  MISS %:    2.68828   MPKI: 1.93156
L2BTB BRANCH_DIRECT_JUMP	ACCESS:     399932 HIT:     393393 MISS:       6539 AVERAGE STALL: 45.0309 AVERAGE FETCH STALL: 16.2253 AVERAGE FETCH QUEUE STALL: 12.3024 AVERAGE DECODE STALL: 15.6413 AVERAGE EXECUTE STALL: 1.71327e+15
L2BTB BRANCH_INDIRECT	ACCESS:     106903 HIT:     103985 MISS:       2918 AVERAGE STALL: 105.027 AVERAGE FETCH STALL: 11.6376 AVERAGE FETCH QUEUE STALL: 14.2684 AVERAGE DECODE STALL: 12.0579 AVERAGE EXECUTE STALL: 66.1011
L2BTB BRANCH_CONDITIONAL	ACCESS:    1290774 HIT:    1278868 MISS:      11906 AVERAGE STALL: 48.5801 AVERAGE FETCH STALL: 20.4 AVERAGE FETCH QUEUE STALL: 15.1392 AVERAGE DECODE STALL: 12.3322 AVERAGE EXECUTE STALL: 1.55393e+15
L2BTB BRANCH_DIRECT_CALL	ACCESS:     834607 HIT:     815011 MISS:      19596 AVERAGE STALL: 56.2472 AVERAGE FETCH STALL: 22.078 AVERAGE FETCH QUEUE STALL: 17.5991 AVERAGE DECODE STALL: 15.8603 AVERAGE EXECUTE STALL: 9.41593e+14
L2BTB BRANCH_INDIRECT_CALL	ACCESS:     140390 HIT:     128322 MISS:      12068 AVERAGE STALL: 134.703 AVERAGE FETCH STALL: 13.8052 AVERAGE FETCH QUEUE STALL: 13.5476 AVERAGE DECODE STALL: 10.1068 AVERAGE EXECUTE STALL: 96.7359
L2BTB BRANCH_RETURN	ACCESS:     819948 HIT:     776397 MISS:      43551 AVERAGE STALL: 45.2483 AVERAGE FETCH STALL: 17.596 AVERAGE FETCH QUEUE STALL: 4.90411 AVERAGE DECODE STALL: 6.09129 AVERAGE EXECUTE STALL: 4.10411e+14
L2BTB BRANCH_OTHER ACCESS:          0 HIT:          0 MISS:          0 AVERAGE STALL: -nan AVERAGE FETCH STALL: -nan AVERAGE FETCH QUEUE STALL: -nan AVERAGE DECODE STALL: -nan AVERAGE EXECUTE STALL: -nan
L2BTB TOTAL ROB OCCUPANCY AT BTB MISS: 148.218

L2C TOTAL     ACCESS:    4466971  HIT:    3987447  MISS:     479524  HIT %:    89.2651  MISS %:    10.7349   MPKI: 9.59048
L2C LOAD INSTRUCTION	ACCESS:    2753310  HIT:    2485586  MISS:     267724  HIT %:    90.2763  MISS %:    9.72371  MPKI: 5.35448
L2C LOAD TRANSLATION INSTRUCTION	ACCESS:        214  HIT:         53  MISS:        161  HIT %:    24.7664  MISS %:    75.2336  MPKI: 0.00322
L2C LOAD DATA	ACCESS:     721304  HIT:     645996  MISS:      75308  HIT %:    89.5595  MISS %:    10.4405  MPKI: 1.50616
L2C RFO DATA	ACCESS:     284843  HIT:     231558  MISS:      53285  HIT %:    81.2932  MISS %:    18.7068  MPKI: 1.0657
L2C PREFETCH DATA	ACCESS:     187960  HIT:     119561  MISS:      68399  HIT %:    63.6098  MISS %:    36.3902  MPKI: 1.36798
L2C WRITEBACK DATA	ACCESS:     517592  HIT:     504277  MISS:      13315  HIT %:    97.4275  MISS %:    2.57249  MPKI: 0.2663
L2C LOAD TRANSLATION DATA	ACCESS:       1725  HIT:        401  MISS:       1324  HIT %:    23.2464  MISS %:    76.7536  MPKI: 0.02648
L2C TRANSLATION FROM L1D PREFETCHER DATA	ACCESS:         23  HIT:         15  MISS:          8  HIT %:    65.2174  MISS %:    34.7826  MPKI: 0.00016

L2C PREFETCH  REQUESTED:      93782  ISSUED:      93782  USEFUL:       8980  USELESS:      59963
L2C USEFUL LOAD PREFETCHES:       8980 PREFETCH ISSUED TO LOWER LEVEL:      68968  ACCURACY: 13.0205
 TIMELY PREFETCHES:       8980 LATE PREFETCHES: 569 DROPPED PREFETCHES: 0
L2C AVERAGE MISS LATENCY: 38.1259 cycles
L2C RQ	ACCESS:    3761469	FORWARD:          0	MERGED:          0	TO_CACHE:    3761419
L2C WQ	ACCESS:     517592	FORWARD:         50	MERGED:          0	TO_CACHE:     517592
L2C PQ	ACCESS:     195507	FORWARD:          0	MERGED:       3266	TO_CACHE:     192241

L2C Dense regions hint from L2: 0
PSCL5 TOTAL     ACCESS:       3800  HIT:       1900  MISS:       1900  HIT %:         50  MISS %:         50   MPKI: 0.038
PSCL5 LOAD TRANSLATION INSTRUCTION	ACCESS:       3754  HIT:       1877  MISS:       1877  HIT %:         50  MISS %:         50  MPKI: 0.03754
PSCL5 TRANSLATION FROM L1D PREFETCHER INSTRUCTION	ACCESS:         46  HIT:         23  MISS:         23  HIT %:         50  MISS %:         50  MPKI: 0.00046


PSCL4 TOTAL     ACCESS:       3775  HIT:       1887  MISS:       1888  HIT %:    49.9868  MISS %:    50.0132   MPKI: 0.03776
PSCL4 LOAD TRANSLATION INSTRUCTION	ACCESS:       1864  HIT:       1864  MISS:          0  HIT %:        100  MISS %:          0  MPKI: 0
PSCL4 TRANSLATION FROM L1D PREFETCHER INSTRUCTION	ACCESS:         23  HIT:         23  MISS:          0  HIT %:        100  MISS %:          0  MPKI: 0
PSCL4 LOAD TRANSLATION DATA	ACCESS:       1865  HIT:          0  MISS:       1865  HIT %:          0  MISS %:        100  MPKI: 0.0373
PSCL4 TRANSLATION FROM L1D PREFETCHER DATA	ACCESS:         23  HIT:          0  MISS:         23  HIT %:          0  MISS %:        100  MPKI: 0.00046


PSCL3 TOTAL     ACCESS:       3777  HIT:       1888  MISS:       1889  HIT %:    49.9868  MISS %:    50.0132   MPKI: 0.03778
PSCL3 LOAD TRANSLATION INSTRUCTION	ACCESS:       1865  HIT:       1865  MISS:          0  HIT %:        100  MISS %:          0  MPKI: 0
PSCL3 TRANSLATION FROM L1D PREFETCHER INSTRUCTION	ACCESS:         23  HIT:         23  MISS:          0  HIT %:        100  MISS %:          0  MPKI: 0
PSCL3 LOAD TRANSLATION DATA	ACCESS:       1866  HIT:          0  MISS:       1866  HIT %:          0  MISS %:        100  MPKI: 0.03732
PSCL3 TRANSLATION FROM L1D PREFETCHER DATA	ACCESS:         23  HIT:          0  MISS:         23  HIT %:          0  MISS %:        100  MPKI: 0.00046


PSCL2 TOTAL     ACCESS:       3740  HIT:       1840  MISS:       1900  HIT %:    49.1979  MISS %:    50.8021   MPKI: 0.038
PSCL2 LOAD TRANSLATION INSTRUCTION	ACCESS:       2012  HIT:       1817  MISS:        195  HIT %:    90.3082  MISS %:    9.69185  MPKI: 0.0039
PSCL2 TRANSLATION FROM L1D PREFETCHER INSTRUCTION	ACCESS:         23  HIT:         23  MISS:          0  HIT %:        100  MISS %:          0  MPKI: 0
PSCL2 LOAD TRANSLATION DATA	ACCESS:       1682  HIT:          0  MISS:       1682  HIT %:          0  MISS %:        100  MPKI: 0.03364
PSCL2 TRANSLATION FROM L1D PREFETCHER DATA	ACCESS:         23  HIT:          0  MISS:         23  HIT %:          0  MISS %:        100  MPKI: 0.00046


LLC TOTAL     ACCESS:     540954  HIT:     513682  MISS:      27272  HIT %:    94.9585  MISS %:    5.04146   MPKI: 0.54544
LLC LOAD INSTRUCTION	ACCESS:     267724  HIT:     267034  MISS:        690  HIT %:    99.7423  MISS %:   0.257728  MPKI: 0.0138
LLC LOAD TRANSLATION INSTRUCTION	ACCESS:        161  HIT:        139  MISS:         22  HIT %:    86.3354  MISS %:    13.6646  MPKI: 0.00044
LLC LOAD DATA	ACCESS:      74752  HIT:      71458  MISS:       3294  HIT %:    95.5934  MISS %:    4.40657  MPKI: 0.06588
LLC RFO DATA	ACCESS:      53269  HIT:      39915  MISS:      13354  HIT %:     74.931  MISS %:     25.069  MPKI: 0.26708
LLC PREFETCH DATA	ACCESS:      68968  HIT:      59442  MISS:       9526  HIT %:    86.1878  MISS %:    13.8122  MPKI: 0.19052
LLC WRITEBACK DATA	ACCESS:      74748  HIT:      74429  MISS:        319  HIT %:    99.5732  MISS %:   0.426767  MPKI: 0.00638
LLC LOAD TRANSLATION DATA	ACCESS:       1324  HIT:       1257  MISS:         67  HIT %:    94.9396  MISS %:    5.06042  MPKI: 0.00134
LLC TRANSLATION FROM L1D PREFETCHER DATA	ACCESS:          8  HIT:          8  MISS:          0  HIT %:        100  MISS %:          0  MPKI: 0

LLC AVERAGE MISS LATENCY: 156.035 cycles
LLC RQ	ACCESS:     397241	FORWARD:          0	MERGED:          0	TO_CACHE:     397238
LLC WQ	ACCESS:      74748	FORWARD:          3	MERGED:          0	TO_CACHE:      74748
LLC PQ	ACCESS:      68968	FORWARD:          0	MERGED:          0	TO_CACHE:      68968

LLC Dense regions hint to LLC: 0

RAW hits: 1922984
Loads Generated: 12634828
Loads sent to L1D: 10711844
Stores Generated: 6939544
Stores sent to L1D: 6939555
Major fault: 0 Minor fault: 2500
Allocated PAGES: 2500

stream: 
stream:times selected: 1198220
stream:pref_filled: 122604
stream:pref_useful: 24114
stream:pref_late: 6670
stream:misses: 8240
stream:misses_by_poll: 0

CS: 
CS:times selected: 177992
CS:pref_filled: 58990
CS:pref_useful: 35600
CS:pref_late: 6184
CS:misses: 14968
CS:misses_by_poll: 2

CPLX: 
CPLX:times selected: 1019045
CPLX:pref_filled: 19429
CPLX:pref_useful: 4652
CPLX:pref_late: 3020
CPLX:misses: 92734
CPLX:misses_by_poll: 0

NL_L1: 
NL:times selected: 14565
NL:pref_filled: 438
NL:pref_useful: 167
NL:pref_late: 314
NL:misses: 1102
NL:misses_by_poll: 0

total selections: 2409822
total_filled: 94554
total_useful: 32995
total_late: 17452
total_polluted: 2
total_misses_after_warmup: 762929
conflicts: 5523043

test: 117319

DRAM Statistics
 CHANNEL 0
 RQ ROW_BUFFER_HIT:      10020  ROW_BUFFER_MISS:      16924
 DBUS_CONGESTED:         11
 WQ ROW_BUFFER_HIT:       1353  ROW_BUFFER_MISS:      12197  FULL:          0

 AVG_CONGESTED_CYCLE: 5

CPU 0 Branch Prediction Accuracy: 99.8245% MPKI: 0.321 Average ROB Occupancy at Mispredict: 183.516
Branch types
NOT_BRANCH: 40856450 81.7129%
BRANCH_DIRECT_JUMP: 550041 1.10008%
BRANCH_INDIRECT: 183638 0.367276%
BRANCH_CONDITIONAL: 6188337 12.3767%
BRANCH_DIRECT_CALL: 939770 1.87954%
BRANCH_INDIRECT_CALL: 170781 0.341562%
BRANCH_RETURN: 1110515 2.22103%
BRANCH_OTHER: 0 0%

DRAM PAGES: 1048576
Allocated PAGES: 2500
Average_ROB_Occupancy: 221.457
Average_Decode_Occupancy: 30.4544
Average_FTQ_Occupancy: 11.8771
Indirect max targets: 14 Average targets: 1.14527
Branch_type:  BRANCH_DIRECT_JUMP:  Count Percentage: 3.83253 5.22746 4.46891 7.21446 2.95989 6.01204 1.52966 68.755 
Branch_type:  BRANCH_INDIRECT:  Count Percentage: 6.15595 3.45596 8.18332 9.69391 3.33391 2.79888 3.05958 63.3185 
Branch_type:  BRANCH_CONDITIONAL:  Count Percentage: 26.3254 2.09831 1.5393 3.86457 2.04745 3.99283 1.24759 58.8845 
Branch_type:  BRANCH_DIRECT_CALL:  Count Percentage: 0.391287 1.2672 0.768944 2.87009 3.03196 2.63375 1.24132 87.7955 
Branch_type:  BRANCH_INDIRECT_CALL:  Count Percentage: 9.55481 0 2.99431 0 0 1.71091 3.28859 82.4514 
Branch_type:  BRANCH_RETURN:  Count Percentage: 7.91486 1.39208 1.04642 4.08364 3.64945 4.32702 1.57551 76.011 
Branch_type:  BRANCH_DIRECT_JUMP:  Total Count: 42127 57460 49122 79301 32535 66084 16814 755752 
Branch_type:  BRANCH_INDIRECT:  Total Count: 22597 12686 30039 35584 12238 10274 11231 232427 
Branch_type:  BRANCH_CONDITIONAL:  Total Count: 3256597 259572 190420 478068 253281 493935 154334 7284331 
Branch_type:  BRANCH_DIRECT_CALL:  Total Count: 7349 23800 14442 53905 56945 49466 23314 1648940 
Branch_type:  BRANCH_INDIRECT_CALL:  Total Count: 32631 0 10226 0 0 5843 11231 281583 
Branch_type:  BRANCH_RETURN:  Total Count: 175743 30910 23235 90674 81033 96078 34983 1687763 
Number of unique branch instructions: 9803
Upper 32 bits: 
aaaa
ffff
ffff0000
Unique upper 32 bits: 3
Unique upper 36 bits: 3
Unique upper 40 bits: 5
Unique upper 44 bits: 32
Unique upper 48 bits: 154
Variant_0 : 1363 0.166382
Variant_1 : 2921 0.356567
Variant_2 : 0 0
Variant_3 : 0 0
Offset_3 4033
Offset_4 245
Offset_5 448
Offset_6 499
Offset_7 572
Offset_8 504
Offset_9 464
Offset_10 376
Offset_11 300
Offset_12 269
Offset_13 203
Offset_14 225
Offset_15 184
Offset_16 220
Offset_17 143
Offset_18 118
Offset_19 234
Offset_20 137
Offset_21 235
Offset_22 389
Offset_23 241
Offset_24 331
Offset_25 88
Offset_47 82
decode_dispatch_called: 24287039 66.1572
Dispatch_width: 0 12910820 53.1593 35.1687
Dispatch_width: 1 848955 3.49551 2.31253
Dispatch_width: 2 773382 3.18434 2.10667
Dispatch_width: 3 461677 1.90092 1.25759
Dispatch_width: 4 4676212 19.2539 12.7379
Dispatch_width: 5 181870 0.748836 0.495408
Dispatch_width: 6 4434123 18.2572 12.0784
Empty_decode_cycles: 12424084 33.8428
ROB_full_cycles: 7403188 20.1661
Starvation_cycles_per_kilo_instr: 248.738
Starvation_cycles_per_kilo_instr_3: 200.157
Starvation_cycles_per_kilo_instr_0: 179.317
Branch_type_1  (3,1)  (4,9)  (5,37)  (6,68)  (7,113)  (8,128)  (9,123)  (10,97)  (11,67)  (12,43)  (13,5)  (14,2)  (15,3)  (16,4)  (18,1)  (19,4)  (20,2)  (21,1)  (22,3)  (23,2)  (24,10)  (25,12) 
Branch_type_2  (3,1)  (5,1)  (8,3)  (9,3)  (12,1)  (13,1)  (14,1)  (16,3)  (17,2)  (20,2)  (21,2)  (23,5)  (24,1)  (47,38) 
Branch_type_3  (3,4031)  (4,236)  (5,406)  (6,416)  (7,430)  (8,314)  (9,255)  (10,152)  (11,120)  (12,50)  (13,4) 
Branch_type_4  (6,3)  (7,8)  (8,24)  (9,52)  (10,60)  (11,57)  (12,96)  (13,88)  (14,99)  (15,86)  (16,98)  (17,64)  (18,53)  (19,114)  (20,72)  (21,124)  (22,206)  (23,136)  (24,192)  (25,72) 
Branch_type_5  (8,2)  (9,1)  (10,3)  (11,5)  (12,3)  (13,14)  (14,16)  (15,11)  (16,20)  (17,11)  (18,16)  (19,12)  (20,10)  (21,13)  (22,42)  (23,26)  (24,37) 
Branch_type_6  (5,4)  (6,12)  (7,21)  (8,33)  (9,30)  (10,64)  (11,51)  (12,76)  (13,91)  (14,107)  (15,84)  (16,95)  (17,66)  (18,48)  (19,104)  (20,51)  (21,95)  (22,138)  (23,72)  (24,91)  (25,4)  (47,44) 
Unique trigger count: 
Variant_0_evicts_0 : 0
Variant_0_evicts_1 : 0
Variant_0_evicts_2 : 0
Variant_0_evicts_3 : 0
Variant_1_evicts_0 : 0
Variant_1_evicts_1 : 0
Variant_1_evicts_2 : 0
Variant_1_evicts_3 : 0
Variant_2_evicts_0 : 0
Variant_2_evicts_1 : 0
Variant_2_evicts_2 : 0
Variant_2_evicts_3 : 0
Variant_3_evicts_0 : 0
Variant_3_evicts_1 : 0
Variant_3_evicts_2 : 0
Variant_3_evicts_3 : 0
BTB PER SET UNIQUE ADDR: 2 4 3 2 1 0 3 2 4 0 2 0 5 3 1 3 3 2 3 4 3 4 2 3 4 5 1 4 3 2 6 6 4 2 4 2 1 5 5 2 3 4 3 6 6 2 4 3 6 3 3 2 3 1 0 3 4 3 3 3 1 4 2 3 1 4 5 2 3 5 5 1 1 4 2 3 3 6 1 3 2 2 1 4 3 3 2 5 3 3 6 4 3 5 2 0 3 3 1 3 4 2 3 3 2 2 1 2 3 2 2 1 3 6 2 6 2 4 4 1 4 4 2 0 1 2 2 1 6 4 5 2 4 1 5 3 2 1 3 3 5 3 3 2 1 4 2 5 4 3 3 8 3 5 3 0 3 3 3 2 4 5 4 4 4 3 2 2 8 1 2 2 4 2 1 1 3 4 5 1 3 3 6 3 4 5 3 1 2 3 5 3 3 4 4 4 2 3 3 5 3 2 4 1 3 3 2 4 2 1 2 4 5 4 3 2 3 5 4 0 1 1 2 3 3 2 3 3 0 3 8 3 3 2 3 3 3 2 1 2 1 0 5 3 9 7 1 1 3 3 2 2 1 3 2 6 3 4 4 3 4 4 4 2 3 6 3 1 4 2 3 2 2 3 4 2 1 1 3 3 4 2 6 2 5 5 3 3 1 1 0 3 1 5 1 1 5 3 1 2 3 3 1 2 3 2 4 2 6 5 3 1 3 2 5 1 5 6 2 2 3 6 3 4 2 2 1 6 1 1 4 0 2 5 5 1 2 2 5 0 3 0 1 4 4 2 1 2 3 3 3 5 4 3 5 3 2 0 4 1 2 4 2 4 6 5 1 1 2 1 2 2 2 4 4 4 3 3 3 4 5 3 1 5 3 2 5 2 4 1 5 4 4 2 3 1 5 0 1 3 4 2 4 2 2 4 4 3 1 1 1 3 5 3 2 2 5 3 1 3 1 1 3 4 3 3 2 0 2 4 2 2 9 3 5 5 3 3 3 0 2 4 5 4 4 6 2 4 3 2 4 3 1 1 5 1 1 4 7 2 3 3 4 6 1 3 4 2 3 3 0 4 4 2 2 1 4 5 1 1 2 1 2 2 0 4 3 0 5 1 4 2 3 4 0 6 3 3 3 1 5 1 1 1 1 2 2 2 2 3 3 2 2 6 2 1 2 5 4 5 3 4 4 2 6 5 0 5 6 3 4 3 3 6 3 4 1 1 4 1 2 5 6 2 5 2 7 3 6 9 3 6 3 6 1 3 3 1 2 3 7 2 5 2 2 1 4 2 2 7 3 2 3 7 2 2 3 3 1 5 4 2 1 0 1 0 0 9 5 3 5 7 1 1 2 3 4 2 2 1 3 2 4 6 2 4 3 4 3 2 5 2 3 2 2 2 2 0 3 1 5 3 6 2 2 3 2 5 2 3 5 4 3 2 5 2 2 3 2 2 7 1 4 3 0 0 3 3 3 3 3 2 5 2 3 0 4 3 2 3 5 2 5 4 6 4 5 2 1 4 5 3 4 3 5 6 3 3 3 3 3 2 4 2 5 3 5 3 4 3 1 4 2 2 2 3 6 4 5 3 0 6 0 3 3 2 3 1 3 1 3 3 3 1 2 1 7 2 0 3 2 0 1 1 1 1 1 4 2 4 5 4 2 1 2 4 4 3 2 2 1 3 2 4 2 1 3 2 2 2 0 2 1 3 2 2 2 6 4 1 3 3 1 5 4 4 8 2 2 2 3 3 0 3 3 3 5 2 1 3 3 4 0 3 8 6 3 3 0 2 2 4 1 1 4 6 7 2 2 2 5 3 5 3 4 3 3 5 1 2 1 3 4 0 4 3 1 2 0 4 4 2 4 2 2 1 2 2 4 4 3 1 3 2 5 2 2 1 5 2 2 1 3 3 1 4 6 4 4 2 6 2 5 4 4 5 3 2 4 4 2 6 2 1 9 3 2 4 5 3 1 3 3 6 4 0 2 2 5 4 3 5 3 4 5 3 2 2 2 4 4 2 3 3 3 1 6 3 1 1 5 2 1 3 4 5 3 5 3 4 5 4 0 3 1 5 0 0 5 2 5 4 5 3 4 1 3 2 5 6 4 4 8 7 5 4 6 4 1 5 4 2 0 4 4 5 5 5 3 2 6 0 5 4 2 3 6 5 4 2 2 2 4 5 2 5 9 4 6 3 2 3 0 4 5 1 6 5 1 3 6 5 3 4 2 1 2 2 3 2 5 4 2 7 4 3 4 5 3 5 1 2 4 2 2 5 4 3 2 3 5 2 4 3 5 2 5 2 2 3 5 2 9 5 2 3 3 2 2 3 4 7 6 2 3 2 3 2 3 1 3 2 4 4 1 4 5 5 4 6 0 3 3 3 3 4 2 1 2 2 3 1 1 1 4 1 3 3 3 5 2 8 5 3 2 1 10 1 2 4 1 2 5 5 3 6 3 5 5 5 2 5 2 2 1 1 5 0 4 4 3 7 4 1 7 4 6 2 3 4 5 3 5 7 4 4 6 1 4 4 7 4 3 3 4 3 6 6 2 6 5 6 4 3 5 3 1 2 4 5 1 3 2 1 3 4 2 2 5 2 2 5 4 1 5 1 7 3 3 2 3 1 3 4 3 4 3 4 2 6 1 3 6 3 3 3 3 5 2 8 3 5 3 8 6 1 6 1 5 2 1 2 4 4 2 1 3 4 2 1 2 1 4 3 3 3 2 3 2 5 2 4 4 5 0 5 3 2 2 6 8 0 6 0 1 4 5 2 5 1 4 3 4 1 1 2 4 5 3 4 1 4 4 6 5 1 4 3 3 6 10 4 2 6 6 5 1 1 3 5 6 3 2 2 4 3 4 4 5 3 1 4 2 2 6 8 5 3 3 6 1 2 5 2 4 1 3 2 6 8 3 3 3 3 4 4 2 5 6 5 4 2 1 5 3 2 4 3 4 4 4 4 7 3 5 4 3 5 5 3 1 7 4 4 3 3 3 2 3 3 2 2 5 4 3 2 5 1 1 3 3 8 5 1 3 4 2 3 3 3 4 3 2 1 3 2 4 2 5 3 4 4 2 1 2 6 1 4 2 4 2 4 5 1 1 4 4 3 3 3 5 2 3 4 4 5 4 4 4 3 3 2 2 3 5 2 4 1 3 0 8 3 2 6 4 4 5 7 3 2 3 3 1 2 4 1 4 2 4 2 0 5 1 5 2 2 3 3 3 2 4 2 4 2 3 1 5 1 0 3 4 1 1 3 1 4 2 3 6 3 1 2 2 3 2 2 6 2 3 5 3 3 3 3 2 2 3 0 2 2 2 3 2 1 2 0 4 0 4 2 4 3 3 3 2 1 2 4 4 2 7 1 3 3 2 2 4 5 2 2 5 0 1 2 3 1 1 2 3 3 5 3 1 1 5 3 1 4 1 6 1 4 2 3 6 2 2 2 1 3 3 1 1 3 4 1 3 3 1 2 0 5 1 3 3 0 3 2 5 3 4 3 3 4 1 3 1 2 1 3 3 0 2 3 2 3 3 1 3 3 2 9 6 2 2 2 4 1 1 3 5 2 3 0 3 2 3 2 3 4 5 5 7 0 4 1 6 4 4 5 3 7 2 4 8 3 0 6 3 3 3 4 3 3 2 1 2 4 2 2 2 3 2 3 5 3 5 3 6 1 1 5 5 3 3 4 4 3 6 2 5 5 2 6 3 3 3 1 3 7 5 3 2 3 3 3 3 4 2 2 3 1 3 1 3 7 0 2 2 3 3 3 5 3 4 2 6 1 2 2 5 2 4 5 6 1 1 7 2 4 2 3 4 6 2 3 2 3 6 3 3 3 5 3 4 9 4 4 3 5 2 5 4 3 2 3 0 2 2 3 4 3 2 3 3 4 4 2 3 7 0 3 2 4 4 4 3 4 3 6 2 4 1 5 2 3 4 2 3 0 2 5 0 7 2 5 5 1 4 3 2 0 4 2 3 5 3 6 2 2 2 1 3 4 6 1 3 3 0 3 2 4 5 3 1 3 5 2 3 2 6 3 4 1 5 3 0 2 4 1 1 8 2 0 4 1 4 3 2 3 6 3 3 6 1 5 3 5 2 5 4 2 3 2 7 1 4 0 3 3 4 4 3 3 2 1 2 3 0 3 0 3 4 6 2 2 5 2 3 3 3 1 2 2 4 2 4 2 5 3 2 3 1 2 3 3 3 2 3 4 2 1 1 2 2 5 1 4 1 5 4 2 3 1 4 1 2 3 5 2 3 4 4 5 3 3 3 4 3 2 0 3 2 0 2 1 2 2 4 2 5 2 2 3 4 1 2 4 3 2 3 7 3 2 7 6 4 2 3 1 2 5 3 4 5 2 4 0 1 2 4 3 2 4 3 2 5 3 4 7 4 2 0 4 1 0 2 3 0 4 4 6 1 3 4 6 4 0 2 2 4 1 4 1 3 2 8 3 1 2 3 6 2 7 3 4 7 0 1 3 1 4 2 1 0 2 3 4 5 4 1 0 3 4 5 1 1 1 3 5 2 1 5 4 3 3 5 4 1 6 2 6 2 1 2 2 2 2 5 1 3 1 3 2 3 1 5 2 5 3 4 2 1 3 5 4 4 0 
BTB PER SET COUNT: 2 4 3 2 1 0 3 2 4 0 2 0 5 3 1 3 3 2 3 1472 3 4 3 3 4 6 1 4 1462 2 7 6 4 2 4 2 2920 5 7 2 3 4 5 913 961 2 4 3 6 3 3 2 3 1 0 3 4 3 4 3 1 4 2 3 1 390 5 2 3 5 6 1 1 4 3 3 508 689 2 3 2 2 2 4 3 3 2 7 3 3 8 452 3 5 2 0 3 5 1 3 5 2 3 3 2 2 1 2 3 2 2 1 5 7 2 8 2 4 4 1 4 4 2 0 1 2 2 1 6 5 510 3 4 1 7 3 2 1 3 3 6 4 3 2 1 12 2 5 4 3 3 1078 3 5 3 0 3 3 3 2 6 5 4 4 4 2867 4 2 3182 1 2 2 4 2 1 1 3 6 1407 1 3 3 2026 3 4 5 3 1 2 3 5 3 3 4 4 10 2 3 4 5 3 2 4 1 4 3 2 1928 2 1 2 6 5 4 3 2 4 5 4 0 1 1 2 3 4 2 3 29 0 3 1731 3 3 4 3 3 4 2 1 2 2 0 5 3 1004 9 1 1 3 3 2 2 1 3 2 7 3 4 4 3 4 4 4 2 2921 6 3 1 4 2 3 2 2 3 4 3 1 1 3 3 4 2 6 2 5 1519 3 3 1 1 0 3 1 6 1 1 8 3 1 2 3 3 1 2 3 2 4 2 2024 5 3 1 3 2 5 2 5 6 2 2 3 6 3 4 2 2 1 7 1 1 1518 0 2 5 959 1 1516 2 5 0 3 0 1 1014 1014 2 1 2 4 5 3 6 4 3 5 3 2 0 4 1 2 4 2 4 10 6 1 1 2 1 2 2 2 4 4 4 3 4 3 4 5 3 1 7 4 2 5 2 4 1 5 4 4 2 3 1 1464 0 1 3 4 2 4 2 2 5 1463 3 1 955 1 3 5 3 1460 2 236 3 1 94 1 1 3 4 3 3 6 0 2 5 120 2 935 3 6 5 3 3 3 0 5 5 5 4 5 6 2 4 3 2 4 3 1 1 5 1 1 4 513 2 3 3 4 6 1 3 5 2 3 3 0 5 42 506 2 1 4 6 1 1 2 2 2 506 0 4 3 0 5 1 5 2 3 4 0 8 3 3 3 1 5 10 1 1 1 2 3 2 2 3 3 2 2 6 5 1 2 5 4 511 3 1463 4 2 8 5 0 5 6 3 4 3 3 10 3 509 1 1 4 1 2 5 6 5 7 4 7 3 6 2824 3 6 5 8 1 3 8 1 2 3 9 2 5 2 2 1 5 2 2 47 3 3 3 26 2 2 3 3 1 5 4 57 1 0 1 0 0 2586 6 4 5 12 1 1 956 3 6 2 2 1 5 2 5 6 2 4 3 4 3 2 5 2 3 2 2 2 900 0 4 1 6 1013 6 2 2 3 2 5 2 3 511 1463 3 2 5 2 2 3 2 2 1520 1 4 3 0 0 3 4 3 4 3 2 5 2 4 0 4 3 2 3 7917 3 5 4 6 8 2926 1013 1 4 5 3 4 5 5 1636 3 3 6 3 3 2 4 1012 5 4 6 1462 4 3 3 1016 2 3 2 3 6 4 6 60 0 6 0 3 3 1012 3 1 3 1 3 3 5 1 1012 1 1477 2 0 4 2 0 1 1 1 1 1 6 2 4 5 4 956 1 3 4 4 4 2 2 1 3 3 4 2 2 1013 2 2 1012 0 2 1 3 2 2 2 6 4 2 3 3 1 5 4 4 25 2 4 2 3 4 0 118 4 3 5 3 1 3 3 5 0 3 21 6 3 3 0 2 2 76 1 1 5 6 18 4 2 2 5 4 5 4 2024 3 3 9 1 4 1 3 4 0 5 5 3 2 0 4 4 2 4 2 2 1 2 2 4 92 3 1 3 2 5 4 2 1 5 2 2 1 3 1468 1 16 7 4 4 2 1518 2 8 5 4 5 3 2 4 4 2 7 2 1 1396 964 2 4 5 3 1 3 3 6 4 0 2 2 5 4 3 5 5 4 7 4 2 2 2 4 4 3 3 3 3 2 6 3 1 1 5 3 1 116 5 5 3 5 5 4 5 4 0 3 1 5 0 0 5 2 7 4 5 3 7 1 3 2 5 6 4 509 1247 456 5 4 54 4 2 5 5 2 0 958 4 5 5 258 3 2 6 0 5 4 2 3 8 5 6 2 2 507 4 5 10 5 31 4 6 3 2 3 0 390 5 1 960 6 1 3 6 5 734 4 2 2 2 3 4 2 5 4 2 7 4 3 5 5 3 5 1 2 4 2 2 5 4 3 2 3 2027 2 2419 389 1014 4 5 5 2 3 8 2 1482 5 2 3 3 2 2 3 7 24 7 2 3 2 3 2 5 2 3 2 4 4 1 4 5 7 4 6 0 3 3 3 1463 393 2 1 2 2 4 1 2 1 4 1 3 3 3 7 2 8 7 3 2 3 1540 1 2 4 1 2 5 104 3 6 3 5 5 5 2 5 2 2 1 1 5 0 6 4 3 19 4 1 8 4 6 2 1014 4 5 3 5 375 4 4 6 1 5 6 7 5 3 3 4 3 7 6 2 6 5 6 4 3 5 4 1 2 4 5 1 3 2 1 3 5 2 2 510 3 2 5 4 1 5 1 7 3 3 2 3 1 3 4 3 4 4 5 2 6 1 3 6 3 3 3 3 5 2 963 3 5 3 19 6 1 960 1 7 2 1 2 1013 4 2 1 3 97 2 1 2 506 4 3 3 4 2 3 2 6 2 4 4 5 0 6 3 2 2 9 965 0 7 0 1 4 5 3 5 1 4 1517 4 1 2 2 4 6 4 4 1 4 4 6 5 1 4 3 3 6 1531 1922 2 1465 6 5 1 1 3 5 6 3 2 2 5 3 4 4 5 3 1 4 2 2 6 1635 5 3 3 6 1 2 5 2 4 1 3 2 6 1502 958 3 3 3 5 4 2 5 6 6 4 2 1 21 3 2 8 3 4 6 5 4 7 3 5 4 508 5 2526 12 1 1711 4 4 3 3 3 4 3 3 2 2 5 4 3 2 5 1 1 3 3 16 6 1 3 4 2 3 3 3 5 3 3 1 3 2 4 2 5 3 8 4 2 1 2 6 1 4 2 4 2 4 5 1 1 4 4 957 3 3 8 2 3 50 4 5 5 4 4 4 3 2 2 5 6 4 4 2 3 0 1330 3 2 6 4 4 5 1221 3 2 3 3 1 3 5 2 4 4 6 4 0 8 2 5 2 2 3 3 3 2 1463 2 4 1344 3 1 454 1 0 3 4 1 4 1345 1 4 2 3 6 4 1 2 2 3 3 2 2025 2 3 19 4 3 3 3 2 2 3 0 3 2 2 958 2 1 2 0 6 0 4 2 4 3 3 3 1012 1 25 4 29 2 1520 1 3 3 2 2 6 7 129 2 20453 0 1 2 3 1 1 2 4 3 491 371 1 1 5 3 1 4 1 6 1 4 2 3 33 2 2 2 1 3 3 1 1 3 4 1 3 3 1 2 0 5 1 3 3 0 4 778 5 3 4 3 3 4 1 3 1 2 1 3 3 0 2 3 2 3 9 1 3 3 2 731 6 2 2 2 4 1 1 3 1416 2 3 0 3 2 3 2 3 5 5 7 7 0 4 1 6 4 5 8 3 1520 2 4 4809 3 0 1518 1462 3 3 4 3 3 2 1 2 959 2 2 2 3 2 3 5 3 5 3 10 3027 1 5 5 3 9 6 4 3 6 2 5 5 2 6 3 404 390 1 1462 7 5 421 10 3 3 3 4 4 2 2 3 1 3 1 3 7 0 2 2 3 3 3 510 3 4 2 6 1 2 2 5 2 2023 5 6 1 1 7 2 1014 2 3 4 7 1012 3 2 3 6 3 510 3 984 3 4 5289 4 4 14613 1519 2 393 1463 3 2 3 0 4 2 3 4 3 2 3 3 4 4 2 284 7 0 1463 2 1463 363 4 3 4 3 6 2 967 1 5 2 5 4 2 3 0 2 799 0 1018 2 6 5 1 4 3 3 0 4 2 3 5 3 8 2 2 3 1 3 4 8 1 3 857 0 3 2 6 5 958 1 3 959 2 3 2 686 4 4 1 7 3 0 2 4 1460 1 2037 2 0 4 1 5 3 2 3 6 3 427 6 1 5 3 5 233 5 194 2 3 2 7 1 320 0 3 2417 4 6 5 3 2 3 2 452 0 3 0 3 4 6 2 2 5 692 3 6 957 1 2 2 4 2 4 2 50 3 2 3 1 2 211 3 3 2 3 4 2 1 1 2 2 5 1 4 1 3768 4 2 3 6 4 1 2 3 5 2 3 1519 4 5 3 3 3 5 3 2 0 3 4 0 2 1 2 2 4 6 5 2 2 3 4 1 2 4 3 2 3 11 4 2 1141 12 131 3 3 1 2 5 3 4 5 2 4 0 1 2 4 1013 2 4 3 2 5 3 4 476 4 2 0 4 1 0 2 3 0 4 1971 6 1 3 4 10 4 0 2 2 5 2 4 1 3 2 2934 3 1 2 3 511 4 1296 3 4 1248 0 1 3 1 4 2 1 0 2 3 4 5 4 2 0 3 4 5 1 1 1 3 5 2 1 5 4 3 5 5 4 1 21 2 23 2 1 2 2 2 2 5 1 3 1 3 2 3 1 5 3 227 3 4 2 1 3 1494 4 5 0 
To predecode: 0
Predecoding something: 0
Predecode request dropped: 0
sizeofblock_0 0
sizeofblock_1 64993
sizeofblock_2 95996
sizeofblock_3 0
sizeofblock_4 0
sizeofblock_5 0
sizeofblock_6 0
sizeofblock_7 0
sizeofblock_8 0
Variant_0 Correct: 0 Incorrect: 0 Accuracy: -nan
Variant_1 Correct: 0 Incorrect: 0 Accuracy: -nan
Variant_2 Correct: 0 Incorrect: 0 Accuracy: -nan
Variant_3 Correct: 0 Incorrect: 0 Accuracy: -nan
