
*** ChampSim Multicore Out-of-Order Simulator ***

Warmup Instructions: 50000000
Simulation Instructions: 50000000
Number of CPUs: 1
LLC sets: 2048
LLC ways: 16
Off-chip DRAM Size: 4096 MB Channels: 1 Width: 64-bit Data Rate: 6400 MT/s
CPU 0 runs ./micro_traces/srv567.trace.gz
.gz
ITLB has LRU replacement policy
DTLB has LRU replacement policy
STLB has LRU replacement policy
FDIP Prefetcher at L1I
L1I has LRU replacement policy
L1D has LRU replacement policy
Initialize SRRIP state for L2C
Initialize DRRIP state for LLC
Heartbeat_Variant_0 : 1344 0.328125 per_variant_size: 0 1344 0 0 0 0 0 0 0 
Heartbeat_Variant_1 : 2416 0.589844 per_variant_size: 0 322 2094 0 0 0 0 0 0 
Heartbeat_Variant_2 : 0 0 per_variant_size: 0 0 0 0 0 0 0 0 0 
Heartbeat_Variant_3 : 0 0 per_variant_size: 0 0 0 0 0 0 0 0 0 
Heartbeat_Variant_0_evicts 0 : 5570 1 : 40 2 : 0 3 : 0 
Heartbeat_Variant_1_evicts 0 : 28 1 : 0 2 : 0 3 : 0 
Heartbeat_Variant_2_evicts 0 : 0 1 : 0 2 : 0 3 : 0 
Heartbeat_Variant_3_evicts 0 : 0 1 : 0 2 : 0 3 : 0 
Heartbeat CPU 0 instructions: 10000000 cycles: 2798080 heartbeat IPC: 3.57388 cumulative IPC: 3.57388 (Simulation time: 0 hr 1 min 42 sec) 
Heartbeat_Variant_0 : 1372 0.334961 per_variant_size: 0 1372 0 0 0 0 0 0 0 
Heartbeat_Variant_1 : 2497 0.609619 per_variant_size: 0 292 2205 0 0 0 0 0 0 
Heartbeat_Variant_2 : 0 0 per_variant_size: 0 0 0 0 0 0 0 0 0 
Heartbeat_Variant_3 : 0 0 per_variant_size: 0 0 0 0 0 0 0 0 0 
Heartbeat_Variant_0_evicts 0 : 5565 1 : 34 2 : 0 3 : 0 
Heartbeat_Variant_1_evicts 0 : 35 1 : 0 2 : 0 3 : 0 
Heartbeat_Variant_2_evicts 0 : 0 1 : 0 2 : 0 3 : 0 
Heartbeat_Variant_3_evicts 0 : 0 1 : 0 2 : 0 3 : 0 
Heartbeat CPU 0 instructions: 20000002 cycles: 5593133 heartbeat IPC: 3.57775 cumulative IPC: 3.57581 (Simulation time: 0 hr 3 min 23 sec) 
Heartbeat_Variant_0 : 1372 0.334961 per_variant_size: 0 1372 0 0 0 0 0 0 0 
Heartbeat_Variant_1 : 2502 0.61084 per_variant_size: 0 293 2209 0 0 0 0 0 0 
Heartbeat_Variant_2 : 0 0 per_variant_size: 0 0 0 0 0 0 0 0 0 
Heartbeat_Variant_3 : 0 0 per_variant_size: 0 0 0 0 0 0 0 0 0 
Heartbeat_Variant_0_evicts 0 : 5726 1 : 1 2 : 0 3 : 0 
Heartbeat_Variant_1_evicts 0 : 1 1 : 0 2 : 0 3 : 0 
Heartbeat_Variant_2_evicts 0 : 0 1 : 0 2 : 0 3 : 0 
Heartbeat_Variant_3_evicts 0 : 0 1 : 0 2 : 0 3 : 0 
Heartbeat CPU 0 instructions: 30000003 cycles: 8389332 heartbeat IPC: 3.57628 cumulative IPC: 3.57597 (Simulation time: 0 hr 5 min 5 sec) 
Heartbeat_Variant_0 : 1391 0.3396 per_variant_size: 0 1391 0 0 0 0 0 0 0 
Heartbeat_Variant_1 : 2528 0.617188 per_variant_size: 0 282 2246 0 0 0 0 0 0 
Heartbeat_Variant_2 : 0 0 per_variant_size: 0 0 0 0 0 0 0 0 0 
Heartbeat_Variant_3 : 0 0 per_variant_size: 0 0 0 0 0 0 0 0 0 
Heartbeat_Variant_0_evicts 0 : 5635 1 : 30 2 : 0 3 : 0 
Heartbeat_Variant_1_evicts 0 : 24 1 : 0 2 : 0 3 : 0 
Heartbeat_Variant_2_evicts 0 : 0 1 : 0 2 : 0 3 : 0 
Heartbeat_Variant_3_evicts 0 : 0 1 : 0 2 : 0 3 : 0 
Heartbeat CPU 0 instructions: 40000002 cycles: 11185523 heartbeat IPC: 3.57629 cumulative IPC: 3.57605 (Simulation time: 0 hr 6 min 47 sec) 
Heartbeat_Variant_0 : 1392 0.339844 per_variant_size: 0 1392 0 0 0 0 0 0 0 
Heartbeat_Variant_1 : 2537 0.619385 per_variant_size: 0 282 2255 0 0 0 0 0 0 
Heartbeat_Variant_2 : 0 0 per_variant_size: 0 0 0 0 0 0 0 0 0 
Heartbeat_Variant_3 : 0 0 per_variant_size: 0 0 0 0 0 0 0 0 0 
Heartbeat_Variant_0_evicts 0 : 5556 1 : 4 2 : 0 3 : 0 
Heartbeat_Variant_1_evicts 0 : 6 1 : 0 2 : 0 3 : 0 
Heartbeat_Variant_2_evicts 0 : 0 1 : 0 2 : 0 3 : 0 
Heartbeat_Variant_3_evicts 0 : 0 1 : 0 2 : 0 3 : 0 
Heartbeat CPU 0 instructions: 50000001 cycles: 13981947 heartbeat IPC: 3.576 cumulative IPC: 3.57604 (Simulation time: 0 hr 8 min 28 sec) 

Warmup complete CPU 0 instructions: 50000001 cycles: 13981947 (Simulation time: 0 hr 8 min 28 sec) 

Cycle: 20000000 FTQ IN: 58299230 FTQ occupancy: 20.6049 DECODE IN: 58299101 DECODE occupancy: 53.4979 ROB IN: 58299101 ROB occupancy: 318.008 ROB OUT: 58298767
Heartbeat_Variant_0 : 1393 0.340088 per_variant_size: 0 1393 0 0 0 0 0 0 0 
Heartbeat_Variant_1 : 2546 0.621582 per_variant_size: 0 293 2253 0 0 0 0 0 0 
Heartbeat_Variant_2 : 0 0 per_variant_size: 0 0 0 0 0 0 0 0 0 
Heartbeat_Variant_3 : 0 0 per_variant_size: 0 0 0 0 0 0 0 0 0 
Heartbeat_Variant_0_evicts 0 : 5605 1 : 7 2 : 0 3 : 0 
Heartbeat_Variant_1_evicts 0 : 9 1 : 0 2 : 0 3 : 0 
Heartbeat_Variant_2_evicts 0 : 0 1 : 0 2 : 0 3 : 0 
Heartbeat_Variant_3_evicts 0 : 0 1 : 0 2 : 0 3 : 0 
Heartbeat CPU 0 instructions: 60000001 cycles: 21211642 heartbeat IPC: 1.38318 cumulative IPC: 1.38318 (Simulation time: 0 hr 10 min 28 sec) 
Heartbeat_Variant_0 : 1401 0.342041 per_variant_size: 0 1401 0 0 0 0 0 0 0 
Heartbeat_Variant_1 : 2551 0.622803 per_variant_size: 0 290 2261 0 0 0 0 0 0 
Heartbeat_Variant_2 : 0 0 per_variant_size: 0 0 0 0 0 0 0 0 0 
Heartbeat_Variant_3 : 0 0 per_variant_size: 0 0 0 0 0 0 0 0 0 
Heartbeat_Variant_0_evicts 0 : 5598 1 : 9 2 : 0 3 : 0 
Heartbeat_Variant_1_evicts 0 : 8 1 : 0 2 : 0 3 : 0 
Heartbeat_Variant_2_evicts 0 : 0 1 : 0 2 : 0 3 : 0 
Heartbeat_Variant_3_evicts 0 : 0 1 : 0 2 : 0 3 : 0 
Heartbeat CPU 0 instructions: 70000002 cycles: 28320334 heartbeat IPC: 1.40673 cumulative IPC: 1.39486 (Simulation time: 0 hr 12 min 26 sec) 
Cycle: 30000000 FTQ IN: 14059037 FTQ occupancy: 15.0237 DECODE IN: 14059046 DECODE occupancy: 38.6995 ROB IN: 14058986 ROB occupancy: 248.25 ROB OUT: 14059012
Heartbeat_Variant_0 : 1401 0.342041 per_variant_size: 0 1401 0 0 0 0 0 0 0 
Heartbeat_Variant_1 : 2553 0.623291 per_variant_size: 0 301 2252 0 0 0 0 0 0 
Heartbeat_Variant_2 : 0 0 per_variant_size: 0 0 0 0 0 0 0 0 0 
Heartbeat_Variant_3 : 0 0 per_variant_size: 0 0 0 0 0 0 0 0 0 
Heartbeat_Variant_0_evicts 0 : 5601 1 : 6 2 : 0 3 : 0 
Heartbeat_Variant_1_evicts 0 : 8 1 : 0 2 : 0 3 : 0 
Heartbeat_Variant_2_evicts 0 : 0 1 : 0 2 : 0 3 : 0 
Heartbeat_Variant_3_evicts 0 : 0 1 : 0 2 : 0 3 : 0 
Heartbeat CPU 0 instructions: 80000002 cycles: 35515888 heartbeat IPC: 1.38975 cumulative IPC: 1.39315 (Simulation time: 0 hr 14 min 24 sec) 
Cycle: 40000000 FTQ IN: 13909079 FTQ occupancy: 15.221 DECODE IN: 13909188 DECODE occupancy: 38.9495 ROB IN: 13909192 ROB occupancy: 250.548 ROB OUT: 13909152
Heartbeat_Variant_0 : 1399 0.341553 per_variant_size: 0 1399 0 0 0 0 0 0 0 
Heartbeat_Variant_1 : 2562 0.625488 per_variant_size: 0 293 2269 0 0 0 0 0 0 
Heartbeat_Variant_2 : 0 0 per_variant_size: 0 0 0 0 0 0 0 0 0 
Heartbeat_Variant_3 : 0 0 per_variant_size: 0 0 0 0 0 0 0 0 0 
Heartbeat_Variant_0_evicts 0 : 5499 1 : 8 2 : 0 3 : 0 
Heartbeat_Variant_1_evicts 0 : 10 1 : 0 2 : 0 3 : 0 
Heartbeat_Variant_2_evicts 0 : 0 1 : 0 2 : 0 3 : 0 
Heartbeat_Variant_3_evicts 0 : 0 1 : 0 2 : 0 3 : 0 
Heartbeat CPU 0 instructions: 90000001 cycles: 42666749 heartbeat IPC: 1.39843 cumulative IPC: 1.39447 (Simulation time: 0 hr 16 min 24 sec) 
Heartbeat_Variant_0 : 1400 0.341797 per_variant_size: 0 1400 0 0 0 0 0 0 0 
Heartbeat_Variant_1 : 2562 0.625488 per_variant_size: 0 291 2271 0 0 0 0 0 0 
Heartbeat_Variant_2 : 0 0 per_variant_size: 0 0 0 0 0 0 0 0 0 
Heartbeat_Variant_3 : 0 0 per_variant_size: 0 0 0 0 0 0 0 0 0 
Heartbeat_Variant_0_evicts 0 : 5637 1 : 0 2 : 0 3 : 0 
Heartbeat_Variant_1_evicts 0 : 0 1 : 0 2 : 0 3 : 0 
Heartbeat_Variant_2_evicts 0 : 0 1 : 0 2 : 0 3 : 0 
Heartbeat_Variant_3_evicts 0 : 0 1 : 0 2 : 0 3 : 0 
Heartbeat CPU 0 instructions: 100000001 cycles: 49850774 heartbeat IPC: 1.39198 cumulative IPC: 1.39397 (Simulation time: 0 hr 18 min 24 sec) 
Finished CPU 0 instructions: 50000000 cycles: 35868827 cumulative IPC: 1.39397 (Simulation time: 0 hr 18 min 24 sec) 

ChampSim completed all CPUs

Region of Interest Statistics

CPU 0 cumulative IPC: 1.39397 instructions: 50000000 cycles: 35868827
 Fetch stage stalled: 45.4281  Sim cycles: 35868827 fetch stall cycle: 16294530
 Empty decode stage: 24.4111  Sim cycles: 35868827 fetch stall cycle: 8755972
ITLB TOTAL     ACCESS:    5844711  HIT:    5351207  MISS:     493504  HIT %:    91.5564  MISS %:     8.4436   MPKI: 9.87008
ITLB LOAD TRANSLATION INSTRUCTION	ACCESS:    5707255  HIT:    5213751  MISS:     493504  HIT %:     91.353  MISS %:    8.64696  MPKI: 9.87008
ITLB TRANSLATION FROM L1D PREFETCHER INSTRUCTION	ACCESS:     137456  HIT:     137456  MISS:          0  HIT %:        100  MISS %:          0  MPKI: 0

ITLB AVERAGE MISS LATENCY: 9.06034 cycles
ITLB RQ	ACCESS:    7943927	FORWARD:          0	MERGED:    1618987	TO_CACHE:    6324940

DTLB TOTAL     ACCESS:    8957295  HIT:    8487453  MISS:     469842  HIT %:    94.7546  MISS %:    5.24536   MPKI: 9.39684
DTLB LOAD TRANSLATION DATA	ACCESS:    8957295  HIT:    8487453  MISS:     469842  HIT %:    94.7546  MISS %:    5.24536  MPKI: 9.39684

DTLB AVERAGE MISS LATENCY: 9.33337 cycles
DTLB RQ	ACCESS:   13326244	FORWARD:          0	MERGED:    4332144	TO_CACHE:    8994100

STLB TOTAL     ACCESS:    1212003  HIT:    1209914  MISS:       2089  HIT %:    99.8276  MISS %:   0.172359   MPKI: 0.04178
STLB LOAD TRANSLATION INSTRUCTION	ACCESS:     493504  HIT:     493222  MISS:        282  HIT %:    99.9429  MISS %:  0.0571424  MPKI: 0.00564
STLB LOAD TRANSLATION DATA	ACCESS:     469842  HIT:     468068  MISS:       1774  HIT %:    99.6224  MISS %:   0.377574  MPKI: 0.03548
STLB TRANSLATION FROM L1D PREFETCHER DATA	ACCESS:     248657  HIT:     248624  MISS:         33  HIT %:    99.9867  MISS %:  0.0132713  MPKI: 0.00066

STLB AVERAGE MISS LATENCY: 74.8588 cycles
STLB RQ	ACCESS:    1333026	FORWARD:          0	MERGED:     120980	TO_CACHE:    1212046

STLB Hit, L1D data hit: 0
STLB Hit, L2C data hit: 0
STLB Hit, LLC data hit: 0
STLB Hit, LLC data miss: 0
STLB STLB hints to L2: 0
L1D TOTAL     ACCESS:   13069803  HIT:   11951404  MISS:    1118399  HIT %:    91.4429  MISS %:    8.55712   MPKI: 22.368
L1D LOAD DATA	ACCESS:    6541002  HIT:    5804485  MISS:     736517  HIT %:      88.74  MISS %:      11.26  MPKI: 14.7303
L1D RFO DATA	ACCESS:    6200765  HIT:    5914591  MISS:     286174  HIT %:    95.3849  MISS %:    4.61514  MPKI: 5.72348
L1D PREFETCH DATA	ACCESS:     328036  HIT:     232328  MISS:      95708  HIT %:    70.8239  MISS %:    29.1761  MPKI: 1.91416

L1D PREFETCH  REQUESTED:     739853  ISSUED:     739853  USEFUL:      35368  USELESS:      68993
L1D USEFUL LOAD PREFETCHES:      35368 PREFETCH ISSUED TO LOWER LEVEL:     104377  ACCURACY: 33.8849
 TIMELY PREFETCHES:      35368 LATE PREFETCHES: 8638 DROPPED PREFETCHES: 10
L1D AVERAGE MISS LATENCY: 248385 cycles
L1D RQ	ACCESS:   10687206	FORWARD:          0	MERGED:    3944798	TO_CACHE:    6576450
L1D WQ	ACCESS:    6947799	FORWARD:     166451	MERGED:     198005	TO_CACHE:    6749794
L1D PQ	ACCESS:     370173	FORWARD:          0	MERGED:          0	TO_CACHE:     369680

L1D UNIQUE REGIONS ACCESSED: 0
L1D REGIONS CONFLICTS: 0
L1D Cross Page Prefetch Requests: 6927
L1D Same Page Prefetch Requests: 749831
L1D ROI Sum of L1D PQ occupancy: 4705056
L1D PREFETCHES PUSHED FROM L2C: 0
L1I TOTAL     ACCESS:    7120638  HIT:    4359131  MISS:    2761507  HIT %:    61.2183  MISS %:    38.7817   MPKI: 55.2301
L1I LOAD INSTRUCTION	ACCESS:    6454141  HIT:    3692634  MISS:    2761507  HIT %:    57.2134  MISS %:    42.7866  MPKI: 55.2301
L1I PREFETCH INSTRUCTION	ACCESS:     666497  HIT:     666497  MISS:          0  HIT %:        100  MISS %:          0  MPKI: 0

L1I PREFETCH  REQUESTED:    1616918  ISSUED:    1616918  USEFUL:          0  USELESS:          0
L1I USEFUL LOAD PREFETCHES:          0 PREFETCH ISSUED TO LOWER LEVEL:          0  ACCURACY: -nan
 TIMELY PREFETCHES:          0 LATE PREFETCHES: 0 DROPPED PREFETCHES: 0
L1I AVERAGE MISS LATENCY: 17.2608 cycles
L1I RQ	ACCESS:    9572316	FORWARD:          0	MERGED:    2818507	TO_CACHE:    6753809
L1I PQ	ACCESS:    1616918	FORWARD:          0	MERGED:     426800	TO_CACHE:    1190118

L1BTB TOTAL     ACCESS:    5667993  HIT:    2041910  MISS:    3626083  HIT %:    36.0253  MISS %:    63.9747   MPKI: 72.5217
L1BTB BRANCH_DIRECT_JUMP	ACCESS:     548040 HIT:     144578 MISS:     403462 AVERAGE STALL: 56.2339 AVERAGE FETCH STALL: 12.8088 AVERAGE FETCH QUEUE STALL: 19.2452 AVERAGE DECODE STALL: 23.2407 AVERAGE EXECUTE STALL: 2.26535e+15
L1BTB BRANCH_INDIRECT	ACCESS:     182829 HIT:      66038 MISS:     116791 AVERAGE STALL: 109.381 AVERAGE FETCH STALL: 10.84 AVERAGE FETCH QUEUE STALL: 19.8397 AVERAGE DECODE STALL: 13.5213 AVERAGE EXECUTE STALL: 64.2186
L1BTB BRANCH_CONDITIONAL	ACCESS:    2704930 HIT:    1412952 MISS:    1291978 AVERAGE STALL: 71.6685 AVERAGE FETCH STALL: 22.6095 AVERAGE FETCH QUEUE STALL: 26.9418 AVERAGE DECODE STALL: 21.4498 AVERAGE EXECUTE STALL: 4.81513e+15
L1BTB BRANCH_DIRECT_CALL	ACCESS:     944385 HIT:     106142 MISS:     838243 AVERAGE STALL: 82.0378 AVERAGE FETCH STALL: 26.5945 AVERAGE FETCH QUEUE STALL: 31.3742 AVERAGE DECODE STALL: 23.1465 AVERAGE EXECUTE STALL: 1.70016e+16
L1BTB BRANCH_INDIRECT_CALL	ACCESS:     171712 HIT:      21414 MISS:     150298 AVERAGE STALL: 141.498 AVERAGE FETCH STALL: 12.3114 AVERAGE FETCH QUEUE STALL: 17.0945 AVERAGE DECODE STALL: 13.9058 AVERAGE EXECUTE STALL: 97.6967
L1BTB BRANCH_RETURN	ACCESS:    1116097 HIT:     290786 MISS:     825311 AVERAGE STALL: 48.9569 AVERAGE FETCH STALL: 16.0642 AVERAGE FETCH QUEUE STALL: 6.09265 AVERAGE DECODE STALL: 6.27452 AVERAGE EXECUTE STALL: 4.25158e+14
L1BTB BRANCH_OTHER ACCESS:          0 HIT:          0 MISS:          0 AVERAGE STALL: -nan AVERAGE FETCH STALL: -nan AVERAGE FETCH QUEUE STALL: -nan AVERAGE DECODE STALL: -nan AVERAGE EXECUTE STALL: -nan
L1BTB TOTAL ROB OCCUPANCY AT BTB MISS: 2.57287

L2BTB TOTAL     ACCESS:    3600767  HIT:    3537172  MISS:      63595  HIT %:    98.2338  MISS %:    1.76615   MPKI: 1.2719
L2BTB BRANCH_DIRECT_JUMP	ACCESS:     399306 HIT:     395317 MISS:       3989 AVERAGE STALL: 56.2339 AVERAGE FETCH STALL: 12.8088 AVERAGE FETCH QUEUE STALL: 19.2452 AVERAGE DECODE STALL: 23.2407 AVERAGE EXECUTE STALL: 2.26535e+15
L2BTB BRANCH_INDIRECT	ACCESS:     106553 HIT:     103939 MISS:       2614 AVERAGE STALL: 109.381 AVERAGE FETCH STALL: 10.84 AVERAGE FETCH QUEUE STALL: 19.8397 AVERAGE DECODE STALL: 13.5213 AVERAGE EXECUTE STALL: 64.2186
L2BTB BRANCH_CONDITIONAL	ACCESS:    1291978 HIT:    1288123 MISS:       3855 AVERAGE STALL: 71.6685 AVERAGE FETCH STALL: 22.6095 AVERAGE FETCH QUEUE STALL: 26.9418 AVERAGE DECODE STALL: 21.4498 AVERAGE EXECUTE STALL: 4.81513e+15
L2BTB BRANCH_DIRECT_CALL	ACCESS:     838243 HIT:     837151 MISS:       1092 AVERAGE STALL: 82.0378 AVERAGE FETCH STALL: 26.5945 AVERAGE FETCH QUEUE STALL: 31.3742 AVERAGE DECODE STALL: 23.1465 AVERAGE EXECUTE STALL: 1.70016e+16
L2BTB BRANCH_INDIRECT_CALL	ACCESS:     140769 HIT:     130726 MISS:      10043 AVERAGE STALL: 141.498 AVERAGE FETCH STALL: 12.3114 AVERAGE FETCH QUEUE STALL: 17.0945 AVERAGE DECODE STALL: 13.9058 AVERAGE EXECUTE STALL: 97.6967
L2BTB BRANCH_RETURN	ACCESS:     823918 HIT:     781916 MISS:      42002 AVERAGE STALL: 48.9569 AVERAGE FETCH STALL: 16.0642 AVERAGE FETCH QUEUE STALL: 6.09265 AVERAGE DECODE STALL: 6.27452 AVERAGE EXECUTE STALL: 4.25158e+14
L2BTB BRANCH_OTHER ACCESS:          0 HIT:          0 MISS:          0 AVERAGE STALL: -nan AVERAGE FETCH STALL: -nan AVERAGE FETCH QUEUE STALL: -nan AVERAGE DECODE STALL: -nan AVERAGE EXECUTE STALL: -nan
L2BTB TOTAL ROB OCCUPANCY AT BTB MISS: 146.701

L2C TOTAL     ACCESS:    4493607  HIT:    3994021  MISS:     499586  HIT %:    88.8823  MISS %:    11.1177   MPKI: 9.99172
L2C LOAD INSTRUCTION	ACCESS:    2761507  HIT:    2501689  MISS:     259818  HIT %:    90.5914  MISS %:    9.40856  MPKI: 5.19636
L2C LOAD TRANSLATION INSTRUCTION	ACCESS:        318  HIT:         86  MISS:        232  HIT %:     27.044  MISS %:     72.956  MPKI: 0.00464
L2C LOAD DATA	ACCESS:     727859  HIT:     648503  MISS:      79356  HIT %:    89.0973  MISS %:    10.9027  MPKI: 1.58712
L2C RFO DATA	ACCESS:     286108  HIT:     222208  MISS:      63900  HIT %:    77.6658  MISS %:    22.3342  MPKI: 1.278
L2C PREFETCH DATA	ACCESS:     193513  HIT:     116988  MISS:      76525  HIT %:    60.4549  MISS %:    39.5451  MPKI: 1.5305
L2C WRITEBACK DATA	ACCESS:     522398  HIT:     504042  MISS:      18356  HIT %:    96.4862  MISS %:     3.5138  MPKI: 0.36712
L2C LOAD TRANSLATION DATA	ACCESS:       1844  HIT:        465  MISS:       1379  HIT %:    25.2169  MISS %:    74.7831  MPKI: 0.02758
L2C TRANSLATION FROM L1D PREFETCHER DATA	ACCESS:         60  HIT:         40  MISS:         20  HIT %:    66.6667  MISS %:    33.3333  MPKI: 0.0004

L2C PREFETCH  REQUESTED:      96401  ISSUED:      96401  USEFUL:       8289  USELESS:      68782
L2C USEFUL LOAD PREFETCHES:       8289 PREFETCH ISSUED TO LOWER LEVEL:      76824  ACCURACY: 10.7896
 TIMELY PREFETCHES:       8289 LATE PREFETCHES: 299 DROPPED PREFETCHES: 0
L2C AVERAGE MISS LATENCY: 38.5034 cycles
L2C RQ	ACCESS:    3777755	FORWARD:          0	MERGED:          0	TO_CACHE:    3777700
L2C WQ	ACCESS:     522398	FORWARD:         56	MERGED:          0	TO_CACHE:     522398
L2C PQ	ACCESS:     200778	FORWARD:          0	MERGED:       3698	TO_CACHE:     197079

L2C Dense regions hint from L2: 0
PSCL5 TOTAL     ACCESS:       4206  HIT:       2103  MISS:       2103  HIT %:         50  MISS %:         50   MPKI: 0.04206
PSCL5 LOAD TRANSLATION INSTRUCTION	ACCESS:       4086  HIT:       2043  MISS:       2043  HIT %:         50  MISS %:         50  MPKI: 0.04086
PSCL5 TRANSLATION FROM L1D PREFETCHER INSTRUCTION	ACCESS:        120  HIT:         60  MISS:         60  HIT %:         50  MISS %:         50  MPKI: 0.0012


PSCL4 TOTAL     ACCESS:       3984  HIT:       1988  MISS:       1996  HIT %:    49.8996  MISS %:    50.1004   MPKI: 0.03992
PSCL4 LOAD TRANSLATION INSTRUCTION	ACCESS:       3011  HIT:       1928  MISS:       1083  HIT %:    64.0319  MISS %:    35.9681  MPKI: 0.02166
PSCL4 TRANSLATION FROM L1D PREFETCHER INSTRUCTION	ACCESS:         93  HIT:         60  MISS:         33  HIT %:    64.5161  MISS %:    35.4839  MPKI: 0.00066
PSCL4 LOAD TRANSLATION DATA	ACCESS:        853  HIT:          0  MISS:        853  HIT %:          0  MISS %:        100  MPKI: 0.01706
PSCL4 TRANSLATION FROM L1D PREFETCHER DATA	ACCESS:         27  HIT:          0  MISS:         27  HIT %:          0  MISS %:        100  MPKI: 0.00054


PSCL3 TOTAL     ACCESS:       4036  HIT:       2014  MISS:       2022  HIT %:    49.9009  MISS %:    50.0991   MPKI: 0.04044
PSCL3 LOAD TRANSLATION INSTRUCTION	ACCESS:       3037  HIT:       1954  MISS:       1083  HIT %:    64.3398  MISS %:    35.6602  MPKI: 0.02166
PSCL3 TRANSLATION FROM L1D PREFETCHER INSTRUCTION	ACCESS:         93  HIT:         60  MISS:         33  HIT %:    64.5161  MISS %:    35.4839  MPKI: 0.00066
PSCL3 LOAD TRANSLATION DATA	ACCESS:        879  HIT:          0  MISS:        879  HIT %:          0  MISS %:        100  MPKI: 0.01758
PSCL3 TRANSLATION FROM L1D PREFETCHER DATA	ACCESS:         27  HIT:          0  MISS:         27  HIT %:          0  MISS %:        100  MPKI: 0.00054


PSCL2 TOTAL     ACCESS:       4102  HIT:       1999  MISS:       2103  HIT %:    48.7323  MISS %:    51.2677   MPKI: 0.04206
PSCL2 LOAD TRANSLATION INSTRUCTION	ACCESS:       2221  HIT:       1939  MISS:        282  HIT %:     87.303  MISS %:     12.697  MPKI: 0.00564
PSCL2 TRANSLATION FROM L1D PREFETCHER INSTRUCTION	ACCESS:         60  HIT:         60  MISS:          0  HIT %:        100  MISS %:          0  MPKI: 0
PSCL2 LOAD TRANSLATION DATA	ACCESS:       1761  HIT:          0  MISS:       1761  HIT %:          0  MISS %:        100  MPKI: 0.03522
PSCL2 TRANSLATION FROM L1D PREFETCHER DATA	ACCESS:         60  HIT:          0  MISS:         60  HIT %:          0  MISS %:        100  MPKI: 0.0012


LLC TOTAL     ACCESS:     568164  HIT:     538357  MISS:      29807  HIT %:    94.7538  MISS %:     5.2462   MPKI: 0.59614
LLC LOAD INSTRUCTION	ACCESS:     259818  HIT:     258882  MISS:        936  HIT %:    99.6397  MISS %:   0.360252  MPKI: 0.01872
LLC LOAD TRANSLATION INSTRUCTION	ACCESS:        232  HIT:        205  MISS:         27  HIT %:    88.3621  MISS %:    11.6379  MPKI: 0.00054
LLC LOAD DATA	ACCESS:      79069  HIT:      75657  MISS:       3412  HIT %:    95.6848  MISS %:    4.31522  MPKI: 0.06824
LLC RFO DATA	ACCESS:      63886  HIT:      48656  MISS:      15230  HIT %:    76.1607  MISS %:    23.8393  MPKI: 0.3046
LLC PREFETCH DATA	ACCESS:      76823  HIT:      67068  MISS:       9755  HIT %:     87.302  MISS %:     12.698  MPKI: 0.1951
LLC WRITEBACK DATA	ACCESS:      86937  HIT:      86567  MISS:        370  HIT %:    99.5744  MISS %:   0.425596  MPKI: 0.0074
LLC LOAD TRANSLATION DATA	ACCESS:       1379  HIT:       1303  MISS:         76  HIT %:    94.4888  MISS %:    5.51124  MPKI: 0.00152
LLC TRANSLATION FROM L1D PREFETCHER DATA	ACCESS:         20  HIT:         19  MISS:          1  HIT %:         95  MISS %:          5  MPKI: 2e-05

LLC AVERAGE MISS LATENCY: 159.389 cycles
LLC RQ	ACCESS:     404406	FORWARD:          0	MERGED:          0	TO_CACHE:     404404
LLC WQ	ACCESS:      86937	FORWARD:          3	MERGED:          0	TO_CACHE:      86937
LLC PQ	ACCESS:      76824	FORWARD:          0	MERGED:          0	TO_CACHE:      76823

LLC Dense regions hint to LLC: 0

RAW hits: 1951057
Loads Generated: 12638263
Loads sent to L1D: 10687206
Stores Generated: 6947803
Stores sent to L1D: 6947799
Major fault: 0 Minor fault: 2539
Allocated PAGES: 2539

stream: 
stream:times selected: 1188487
stream:pref_filled: 122536
stream:pref_useful: 24253
stream:pref_late: 6805
stream:misses: 8143
stream:misses_by_poll: 0

CS: 
CS:times selected: 179799
CS:pref_filled: 59650
CS:pref_useful: 36066
CS:pref_late: 7625
CS:misses: 17193
CS:misses_by_poll: 10

CPLX: 
CPLX:times selected: 1007462
CPLX:pref_filled: 19237
CPLX:pref_useful: 4387
CPLX:pref_late: 3106
CPLX:misses: 92990
CPLX:misses_by_poll: 0

NL_L1: 
NL:times selected: 21026
NL:pref_filled: 799
NL:pref_useful: 331
NL:pref_late: 275
NL:misses: 1796
NL:misses_by_poll: 0

total selections: 2396774
total_filled: 95708
total_useful: 35368
total_late: 19197
total_polluted: 10
total_misses_after_warmup: 771969
conflicts: 5511158

test: 116825

DRAM Statistics
 CHANNEL 0
 RQ ROW_BUFFER_HIT:      11026  ROW_BUFFER_MISS:      18396
 DBUS_CONGESTED:         10
 WQ ROW_BUFFER_HIT:       1434  ROW_BUFFER_MISS:      12950  FULL:          0

 AVG_CONGESTED_CYCLE: 6

CPU 0 Branch Prediction Accuracy: 99.8221% MPKI: 0.32538 Average ROB Occupancy at Mispredict: 195.336
Branch types
NOT_BRANCH: 40855896 81.7118%
BRANCH_DIRECT_JUMP: 548040 1.09608%
BRANCH_INDIRECT: 182829 0.365658%
BRANCH_CONDITIONAL: 6180769 12.3615%
BRANCH_DIRECT_CALL: 944385 1.88877%
BRANCH_INDIRECT_CALL: 171712 0.343424%
BRANCH_RETURN: 1116097 2.23219%
BRANCH_OTHER: 0 0%

DRAM PAGES: 1048576
Allocated PAGES: 2539
Average_ROB_Occupancy: 249.911
Average_Decode_Occupancy: 38.6629
Average_FTQ_Occupancy: 15.1009
Indirect max targets: 14 Average targets: 1.14527
Branch_type:  BRANCH_DIRECT_JUMP:  Count Percentage: 4.03057 4.76379 4.93334 3.00789 3.06429 6.01232 7.27983 66.908 
Branch_type:  BRANCH_INDIRECT:  Count Percentage: 13.7445 0.811102 2.56881 0 0 17.7484 17.4902 47.637 
Branch_type:  BRANCH_CONDITIONAL:  Count Percentage: 26.2715 1.94535 1.54049 6.25447 1.55417 5.09183 5.62216 51.72 
Branch_type:  BRANCH_DIRECT_CALL:  Count Percentage: 0.885197 1.47925 1.16308 2.38365 2.50939 3.52069 6.166 81.8927 
Branch_type:  BRANCH_INDIRECT_CALL:  Count Percentage: 9.52115 0 2.98392 6.41717 0 2.4763 5.11579 73.4857 
Branch_type:  BRANCH_RETURN:  Count Percentage: 10.4596 1.45934 1.49154 6.79353 1.66171 6.47523 6.53456 65.1245 
Branch_type:  BRANCH_DIRECT_JUMP:  Total Count: 44169 52204 54062 32962 33580 65886 79776 733211 
Branch_type:  BRANCH_INDIRECT:  Total Count: 50311 2969 9403 0 0 64967 64022 174373 
Branch_type:  BRANCH_CONDITIONAL:  Total Count: 3246774 240417 190382 772960 192073 629275 694816 6391824 
Branch_type:  BRANCH_DIRECT_CALL:  Total Count: 16692 27894 21932 44948 47319 66389 116271 1544236 
Branch_type:  BRANCH_INDIRECT_CALL:  Total Count: 32674 0 10240 22022 0 8498 17556 252183 
Branch_type:  BRANCH_RETURN:  Total Count: 233211 32538 33256 151471 37050 144374 145697 1452039 
Number of unique branch instructions: 9804
Upper 32 bits: 
aaaa
ffff
ffff0000
Unique upper 32 bits: 3
Unique upper 36 bits: 3
Unique upper 40 bits: 5
Unique upper 44 bits: 32
Unique upper 48 bits: 154
Variant_0 : 1400 0.341797
Variant_1 : 2562 0.625488
Variant_2 : 0 0
Variant_3 : 0 0
Offset_3 4030
Offset_4 244
Offset_5 449
Offset_6 498
Offset_7 571
Offset_8 508
Offset_9 463
Offset_10 374
Offset_11 301
Offset_12 269
Offset_13 203
Offset_14 227
Offset_15 184
Offset_16 220
Offset_17 145
Offset_18 118
Offset_19 234
Offset_20 136
Offset_21 235
Offset_22 392
Offset_23 241
Offset_24 331
Offset_25 88
Offset_47 82
Offset_64 1
decode_dispatch_called: 26578629 74.0995
Dispatch_width: 0 14466497 54.4291 40.3317
Dispatch_width: 1 1021946 3.84499 2.84912
Dispatch_width: 2 843508 3.17363 2.35165
Dispatch_width: 3 493733 1.85763 1.3765
Dispatch_width: 4 6303359 23.7159 17.5734
Dispatch_width: 5 101330 0.381246 0.282502
Dispatch_width: 6 3348256 12.5975 9.33472
Empty_decode_cycles: 9290198 25.9005
ROB_full_cycles: 10127956 28.2361
Starvation_cycles_per_kilo_instr: 223.926
Starvation_cycles_per_kilo_instr_3: 159.879
Starvation_cycles_per_kilo_instr_0: 136.287
Branch_type_1  (3,1)  (4,9)  (5,37)  (6,68)  (7,113)  (8,128)  (9,122)  (10,97)  (11,67)  (12,43)  (13,5)  (14,2)  (15,3)  (16,4)  (18,1)  (19,4)  (20,2)  (21,1)  (22,3)  (23,2)  (24,10)  (25,12) 
Branch_type_2  (3,1)  (5,1)  (8,3)  (9,3)  (12,1)  (13,1)  (14,1)  (16,3)  (17,2)  (20,2)  (21,2)  (23,5)  (24,1)  (47,38) 
Branch_type_3  (3,4028)  (4,235)  (5,407)  (6,415)  (7,429)  (8,316)  (9,255)  (10,151)  (11,120)  (12,50)  (13,4)  (64,1) 
Branch_type_4  (6,3)  (7,8)  (8,25)  (9,51)  (10,60)  (11,58)  (12,96)  (13,88)  (14,100)  (15,86)  (16,98)  (17,64)  (18,53)  (19,115)  (20,71)  (21,124)  (22,209)  (23,136)  (24,192)  (25,72) 
Branch_type_5  (8,2)  (9,1)  (10,3)  (11,5)  (12,3)  (13,14)  (14,16)  (15,11)  (16,20)  (17,11)  (18,16)  (19,12)  (20,10)  (21,13)  (22,42)  (23,26)  (24,37) 
Branch_type_6  (5,4)  (6,12)  (7,21)  (8,34)  (9,31)  (10,63)  (11,51)  (12,76)  (13,91)  (14,108)  (15,84)  (16,95)  (17,68)  (18,48)  (19,103)  (20,51)  (21,95)  (22,138)  (23,72)  (24,91)  (25,4)  (47,44) 
Unique trigger count: 
Variant_0_evicts_0 : 0
Variant_0_evicts_1 : 0
Variant_0_evicts_2 : 0
Variant_0_evicts_3 : 0
Variant_1_evicts_0 : 0
Variant_1_evicts_1 : 0
Variant_1_evicts_2 : 0
Variant_1_evicts_3 : 0
Variant_2_evicts_0 : 0
Variant_2_evicts_1 : 0
Variant_2_evicts_2 : 0
Variant_2_evicts_3 : 0
Variant_3_evicts_0 : 0
Variant_3_evicts_1 : 0
Variant_3_evicts_2 : 0
Variant_3_evicts_3 : 0
BTB PER SET UNIQUE ADDR: 10 13 14 15 12 13 15 12 14 15 13 12 17 12 10 14 14 12 15 13 16 12 12 14 15 11 11 13 12 16 17 11 15 12 15 14 18 12 14 14 15 13 12 12 15 11 11 12 14 11 10 12 14 13 18 11 15 13 14 16 15 15 13 14 16 12 13 12 14 14 10 14 18 12 16 15 13 10 15 12 16 17 14 13 16 15 15 15 14 13 15 10 13 14 13 12 16 15 15 14 13 17 12 14 14 11 12 13 13 12 15 12 12 12 14 12 15 9 13 14 17 11 12 14 15 15 18 13 13 15 13 17 16 9 11 17 14 12 14 15 13 13 17 13 13 12 10 14 12 14 11 15 11 15 14 12 15 11 13 16 13 14 11 14 11 14 10 11 14 15 14 15 13 12 13 15 11 13 15 11 13 16 14 14 12 12 12 16 13 13 13 11 15 13 13 15 13 15 15 11 11 16 15 15 15 10 12 15 14 14 14 13 14 12 14 14 13 11 13 13 14 12 15 10 15 13 18 12 12 15 17 11 17 12 10 17 14 12 14 10 16 13 12 15 11 16 13 12 16 13 10 14 12 12 9 14 13 12 15 15 15 9 13 14 15 12 14 10 14 13 13 14 14 11 15 13 14 11 13 15 8 12 13 16 16 11 10 13 15 13 13 14 10 17 17 11 13 12 15 13 12 14 15 13 11 13 12 13 13 12 17 14 15 13 12 15 15 15 13 11 13 11 11 13 15 15 13 13 15 13 16 12 17 11 13 14 14 14 13 12 15 13 13 11 14 16 15 11 14 14 18 15 13 14 12 13 13 12 12 13 12 12 12 15 15 15 12 13 10 10 13 12 12 16 14 13 15 13 15 12 13 11 10 17 15 14 12 15 10 15 16 12 13 14 14 12 14 12 15 16 12 15 15 10 11 13 10 15 15 14 12 15 15 15 15 14 17 14 16 15 17 15 16 16 15 13 11 20 14 15 13 14 13 14 11 13 14 14 10 12 13 14 17 12 16 11 12 14 11 16 14 15 16 15 10 13 16 9 15 11 12 15 13 10 11 15 14 14 13 13 17 13 13 16 18 13 22 13 14 14 13 13 14 16 10 15 16 11 12 15 16 10 15 12 13 15 14 15 12 12 11 14 9 14 15 14 13 14 14 13 15 11 
BTB PER SET COUNT: 999 18 14 1029 12 459 1481 12 14 18 1479 12 18 1002 15 14 22 14 16 136 17 14 12 47 16 12 11 13 12 17 2445 1496 16 1946 16 18 19 13 15 14 1585 15 1004 12 1103 11 14 12 15 18 10 1010 18 1002 24 11 35 13 18 17 19 382 365 15 16 12 15 1002 16 14 10 77 18 1476 20 15 508 10 353 12 16 17 23 1003 104 16 1994 2137 1479 871 17 10 15 56 16 12 987 46 15 17 14 18 12 16 15 11 507 17 981 13 15 982 12 12 15 12 15 9 17 19 17 13 14 15 20 2324 21 17 16 453 13 3041 18 12 68 422 15 14 512 377 16 15 19 628 13 15 12 15 14 983 11 16 11 17 14 14 15 11 13 17 123 25 11 15 11 982 12 12 15 15 1476 373 155 13 19 15 12 13 15 13 15 19 15 14 51 12 13 17 13 15 14 12 513 14 14 18 13 15 15 11 13 17 16 478 497 124 13 17 1964 14 14 13 14 13 18 16 13 11 16 15 366 12 15 1000 15 13 1001 22 16 15 22 1469 828 201 10 121 16 12 16 977 19 13 12 17 11 2941 16 12 2449 13 12 382 14 12 9 212 15 28 15 545 1478 9 13 16 226 12 14 10 490 15 16 1497 1056 12 17 17 461 12 20 47 8 13 16 19 17 11 10 508 17 15 14 1432 10 64 988 2447 14 12 122 13 12 15 55 18 13 13 20493 13 14 13 4498 1476 962 19 13 1498 16 16 14 11 14 14 11 15 15 15 14 13 16 16 18 16 26 11 1496 20 509 1479 14 14 16 61 13 11 491 1345 16 16 1477 94 19 18 13 14 12 14 928 12 18 15 14 110 12 995 23 543 32 980 11 10 507 12 12 16 14 17 2448 1479 17 12 13 11 12 23 1479 124 507 17 999 1005 16 12 16 16 14 12 14 17 1816 524 15 18 15 11 11 13 10 16 23 14 12 1499 16 148 1480 523 17 15 18 120 17 15 2939 18736 21 15 1000 22 15 15 13 14 14 1807 12 13 16 14 1001 14 13 645 22 12 16 11 12 14 2958 18 138 982 19 16 11 13 1052 9 1004 979 13 613 16 14 160 17 1215 15 13 1003 1007 14 29 16 19 7872 1650 14 17 380 3267 14 1476 16 10 1479 16 11 14 19 18 10 20 12 882 17 2983 18 13 12 13 14 15 15 17 173 508 14 16 15 19 11 
To predecode: 0
Predecoding something: 0
Predecode request dropped: 0
sizeofblock_0 0
sizeofblock_1 36213
sizeofblock_2 96208
sizeofblock_3 0
sizeofblock_4 0
sizeofblock_5 0
sizeofblock_6 0
sizeofblock_7 0
sizeofblock_8 0
Variant_0 Correct: 1612428 Incorrect: 0 Accuracy: 1
Variant_1 Correct: 5725514 Incorrect: 0 Accuracy: 1
Variant_2 Correct: 0 Incorrect: 0 Accuracy: -nan
Variant_3 Correct: 0 Incorrect: 0 Accuracy: -nan
