
*** ChampSim Multicore Out-of-Order Simulator ***

Warmup Instructions: 50000000
Simulation Instructions: 50000000
Number of CPUs: 1
LLC sets: 2048
LLC ways: 16
Off-chip DRAM Size: 4096 MB Channels: 1 Width: 64-bit Data Rate: 6400 MT/s
CPU 0 runs ./micro_traces/srv599.trace.gz
.gz
ITLB has LRU replacement policy
DTLB has LRU replacement policy
STLB has LRU replacement policy
FDIP Prefetcher at L1I
L1I has LRU replacement policy
L1D has LRU replacement policy
Initialize SRRIP state for L2C
Initialize DRRIP state for LLC
Heartbeat CPU 0 instructions: 10000000 cycles: 2796624 heartbeat IPC: 3.57574 cumulative IPC: 3.57574 (Simulation time: 0 hr 1 min 37 sec) 
Heartbeat CPU 0 instructions: 20000002 cycles: 5592891 heartbeat IPC: 3.5762 cumulative IPC: 3.57597 (Simulation time: 0 hr 3 min 12 sec) 
Heartbeat CPU 0 instructions: 30000003 cycles: 8387876 heartbeat IPC: 3.57784 cumulative IPC: 3.57659 (Simulation time: 0 hr 4 min 44 sec) 
Heartbeat CPU 0 instructions: 40000001 cycles: 11183997 heartbeat IPC: 3.57638 cumulative IPC: 3.57654 (Simulation time: 0 hr 6 min 20 sec) 
Heartbeat CPU 0 instructions: 50000003 cycles: 13978761 heartbeat IPC: 3.57812 cumulative IPC: 3.57686 (Simulation time: 0 hr 7 min 54 sec) 

Warmup complete CPU 0 instructions: 50000003 cycles: 13978761 (Simulation time: 0 hr 7 min 54 sec) 

Cycle: 20000000 FTQ IN: 56317660 FTQ occupancy: 17.6451 DECODE IN: 56317654 DECODE occupancy: 44.984 ROB IN: 56317654 ROB occupancy: 270.827 ROB OUT: 56317574
Heartbeat CPU 0 instructions: 60000000 cycles: 23582875 heartbeat IPC: 1.04122 cumulative IPC: 1.04122 (Simulation time: 0 hr 9 min 11 sec) 
Cycle: 30000000 FTQ IN: 10444603 FTQ occupancy: 5.36163 DECODE IN: 10444558 DECODE occupancy: 10.3103 ROB IN: 10444558 ROB occupancy: 93.1835 ROB OUT: 10444629
Heartbeat CPU 0 instructions: 70000003 cycles: 33127743 heartbeat IPC: 1.04768 cumulative IPC: 1.04444 (Simulation time: 0 hr 10 min 27 sec) 
Cycle: 40000000 FTQ IN: 10513570 FTQ occupancy: 5.20794 DECODE IN: 10513615 DECODE occupancy: 10.081 ROB IN: 10513613 ROB occupancy: 91.8016 ROB OUT: 10513540
Heartbeat CPU 0 instructions: 80000000 cycles: 42654042 heartbeat IPC: 1.04973 cumulative IPC: 1.0462 (Simulation time: 0 hr 11 min 40 sec) 
Cycle: 50000000 FTQ IN: 10473835 FTQ occupancy: 5.40299 DECODE IN: 10473824 DECODE occupancy: 10.423 ROB IN: 10473766 ROB occupancy: 93.354 ROB OUT: 10473664
Heartbeat CPU 0 instructions: 90000001 cycles: 52146077 heartbeat IPC: 1.05351 cumulative IPC: 1.04802 (Simulation time: 0 hr 12 min 57 sec) 
Cycle: 60000000 FTQ IN: 10477846 FTQ occupancy: 5.12239 DECODE IN: 10477849 DECODE occupancy: 9.8353 ROB IN: 10477909 ROB occupancy: 90.9974 ROB OUT: 10477956
Heartbeat CPU 0 instructions: 100000002 cycles: 61682479 heartbeat IPC: 1.04861 cumulative IPC: 1.04814 (Simulation time: 0 hr 14 min 12 sec) 
Finished CPU 0 instructions: 50000003 cycles: 47703719 cumulative IPC: 1.04814 (Simulation time: 0 hr 14 min 12 sec) 

ChampSim completed all CPUs

Region of Interest Statistics

CPU 0 cumulative IPC: 1.04814 instructions: 50000003 cycles: 47703719
 Fetch stage stalled: 74.3289  Sim cycles: 47703719 fetch stall cycle: 35457651
 Empty decode stage: 81.2953  Sim cycles: 47703719 fetch stall cycle: 38780879
ITLB TOTAL     ACCESS:    6033584  HIT:    5541233  MISS:     492351  HIT %:    91.8398  MISS %:    8.16017   MPKI: 9.84702
ITLB LOAD TRANSLATION INSTRUCTION	ACCESS:    5951656  HIT:    5459305  MISS:     492351  HIT %:    91.7275  MISS %:     8.2725  MPKI: 9.84702
ITLB TRANSLATION FROM L1D PREFETCHER INSTRUCTION	ACCESS:      81928  HIT:      81928  MISS:          0  HIT %:        100  MISS %:          0  MPKI: 0

ITLB AVERAGE MISS LATENCY: 9.04286 cycles
ITLB RQ	ACCESS:    7654875	FORWARD:          0	MERGED:    1353035	TO_CACHE:    6301840

DTLB TOTAL     ACCESS:    9602014  HIT:    9124642  MISS:     477372  HIT %:    95.0284  MISS %:    4.97158   MPKI: 9.54744
DTLB LOAD TRANSLATION DATA	ACCESS:    9602014  HIT:    9124642  MISS:     477372  HIT %:    95.0284  MISS %:    4.97158  MPKI: 9.54744

DTLB AVERAGE MISS LATENCY: 9.29031 cycles
DTLB RQ	ACCESS:   13829220	FORWARD:          0	MERGED:    4194830	TO_CACHE:    9634390

STLB TOTAL     ACCESS:    1219497  HIT:    1217620  MISS:       1877  HIT %:    99.8461  MISS %:   0.153916   MPKI: 0.03754
STLB LOAD TRANSLATION INSTRUCTION	ACCESS:     492351  HIT:     492162  MISS:        189  HIT %:    99.9616  MISS %:  0.0383872  MPKI: 0.00378
STLB LOAD TRANSLATION DATA	ACCESS:     477294  HIT:     475615  MISS:       1679  HIT %:    99.6482  MISS %:   0.351775  MPKI: 0.03358
STLB TRANSLATION FROM L1D PREFETCHER DATA	ACCESS:     249852  HIT:     249843  MISS:          9  HIT %:    99.9964  MISS %: 0.00360213  MPKI: 0.00018

STLB AVERAGE MISS LATENCY: 70.7507 cycles
STLB RQ	ACCESS:    1356675	FORWARD:          0	MERGED:     137147	TO_CACHE:    1219528

STLB Hit, L1D data hit: 0
STLB Hit, L2C data hit: 0
STLB Hit, LLC data hit: 0
STLB Hit, LLC data miss: 0
STLB STLB hints to L2: 0
L1D TOTAL     ACCESS:   13597055  HIT:   12454537  MISS:    1142518  HIT %:    91.5973  MISS %:    8.40269   MPKI: 22.8504
L1D LOAD DATA	ACCESS:    7037540  HIT:    6283444  MISS:     754096  HIT %:    89.2847  MISS %:    10.7153  MPKI: 15.0819
L1D RFO DATA	ACCESS:    6227553  HIT:    5940606  MISS:     286947  HIT %:    95.3923  MISS %:     4.6077  MPKI: 5.73894
L1D PREFETCH DATA	ACCESS:     331962  HIT:     230487  MISS:     101475  HIT %:    69.4317  MISS %:    30.5683  MPKI: 2.0295

L1D PREFETCH  REQUESTED:     774175  ISSUED:     774175  USEFUL:      42761  USELESS:      69441
L1D USEFUL LOAD PREFETCHES:      42761 PREFETCH ISSUED TO LOWER LEVEL:     112238  ACCURACY: 38.0985
 TIMELY PREFETCHES:      42761 LATE PREFETCHES: 10713 DROPPED PREFETCHES: 4
L1D AVERAGE MISS LATENCY: 353025 cycles
L1D RQ	ACCESS:   11051186	FORWARD:          0	MERGED:    3814928	TO_CACHE:    7071270
L1D WQ	ACCESS:    6917138	FORWARD:     165259	MERGED:     159188	TO_CACHE:    6757950
L1D PQ	ACCESS:     387223	FORWARD:          0	MERGED:          0	TO_CACHE:     386952

L1D UNIQUE REGIONS ACCESSED: 0
L1D REGIONS CONFLICTS: 0
L1D Cross Page Prefetch Requests: 5904
L1D Same Page Prefetch Requests: 783796
L1D ROI Sum of L1D PQ occupancy: 4908962
L1D PREFETCHES PUSHED FROM L2C: 0
L1I TOTAL     ACCESS:    7121858  HIT:    4370179  MISS:    2751679  HIT %:    61.3629  MISS %:    38.6371   MPKI: 55.0336
L1I LOAD INSTRUCTION	ACCESS:    6763096  HIT:    4011417  MISS:    2751679  HIT %:    59.3133  MISS %:    40.6867  MPKI: 55.0336
L1I PREFETCH INSTRUCTION	ACCESS:     358762  HIT:     358762  MISS:          0  HIT %:        100  MISS %:          0  MPKI: 0

L1I PREFETCH  REQUESTED:     890382  ISSUED:     890382  USEFUL:          0  USELESS:          0
L1I USEFUL LOAD PREFETCHES:          0 PREFETCH ISSUED TO LOWER LEVEL:          0  ACCURACY: -nan
 TIMELY PREFETCHES:          0 LATE PREFETCHES: 0 DROPPED PREFETCHES: 0
L1I AVERAGE MISS LATENCY: 17.2116 cycles
L1I RQ	ACCESS:    9433488	FORWARD:          0	MERGED:    2411977	TO_CACHE:    7021511
L1I PQ	ACCESS:     890382	FORWARD:          0	MERGED:     257018	TO_CACHE:     633364

L1BTB TOTAL     ACCESS:    5677736  HIT:    2063533  MISS:    3614203  HIT %:    36.3443  MISS %:    63.6557   MPKI: 72.2841
L1BTB BRANCH_DIRECT_JUMP	ACCESS:     545093 HIT:     143478 MISS:     401615 AVERAGE STALL: 30.0857 AVERAGE FETCH STALL: 17.6809 AVERAGE FETCH QUEUE STALL: 5.27533 AVERAGE DECODE STALL: 6.25456 AVERAGE EXECUTE STALL: 1.11724e+15
L1BTB BRANCH_INDIRECT	ACCESS:     181931 HIT:      65611 MISS:     116320 AVERAGE STALL: 59.5427 AVERAGE FETCH STALL: 13.7567 AVERAGE FETCH QUEUE STALL: 3.6313 AVERAGE DECODE STALL: 5.90684 AVERAGE EXECUTE STALL: 35.2846
L1BTB BRANCH_CONDITIONAL	ACCESS:    2723616 HIT:    1436611 MISS:    1287005 AVERAGE STALL: 36.0686 AVERAGE FETCH STALL: 23.4295 AVERAGE FETCH QUEUE STALL: 5.75967 AVERAGE DECODE STALL: 6.10419 AVERAGE EXECUTE STALL: 6.51944e+14
L1BTB BRANCH_DIRECT_CALL	ACCESS:     941949 HIT:     105536 MISS:     836413 AVERAGE STALL: 33.5656 AVERAGE FETCH STALL: 21.7921 AVERAGE FETCH QUEUE STALL: 5.25364 AVERAGE DECODE STALL: 5.74694 AVERAGE EXECUTE STALL: 8.9119e+14
L1BTB BRANCH_INDIRECT_CALL	ACCESS:     171597 HIT:      21737 MISS:     149860 AVERAGE STALL: 74.1902 AVERAGE FETCH STALL: 13.8701 AVERAGE FETCH QUEUE STALL: 2.5669 AVERAGE DECODE STALL: 5.42032 AVERAGE EXECUTE STALL: 51.834
L1BTB BRANCH_RETURN	ACCESS:    1113550 HIT:     290560 MISS:     822990 AVERAGE STALL: 34.9181 AVERAGE FETCH STALL: 17.2862 AVERAGE FETCH QUEUE STALL: 2.84621 AVERAGE DECODE STALL: 4.75185 AVERAGE EXECUTE STALL: 3.64834e+14
L1BTB BRANCH_OTHER ACCESS:          0 HIT:          0 MISS:          0 AVERAGE STALL: -nan AVERAGE FETCH STALL: -nan AVERAGE FETCH QUEUE STALL: -nan AVERAGE DECODE STALL: -nan AVERAGE EXECUTE STALL: -nan
L1BTB TOTAL ROB OCCUPANCY AT BTB MISS: 2.08632

L2BTB TOTAL     ACCESS:    3588891  HIT:    3463748  MISS:     125143  HIT %:     96.513  MISS %:    3.48695   MPKI: 2.50286
L2BTB BRANCH_DIRECT_JUMP	ACCESS:     397467 HIT:     385095 MISS:      12372 AVERAGE STALL: 30.0857 AVERAGE FETCH STALL: 17.6809 AVERAGE FETCH QUEUE STALL: 5.27533 AVERAGE DECODE STALL: 6.25456 AVERAGE EXECUTE STALL: 1.11724e+15
L2BTB BRANCH_INDIRECT	ACCESS:     106069 HIT:     102935 MISS:       3134 AVERAGE STALL: 59.5427 AVERAGE FETCH STALL: 13.7567 AVERAGE FETCH QUEUE STALL: 3.6313 AVERAGE DECODE STALL: 5.90684 AVERAGE EXECUTE STALL: 35.2846
L2BTB BRANCH_CONDITIONAL	ACCESS:    1287005 HIT:    1258344 MISS:      28661 AVERAGE STALL: 36.0686 AVERAGE FETCH STALL: 23.4295 AVERAGE FETCH QUEUE STALL: 5.75967 AVERAGE DECODE STALL: 6.10419 AVERAGE EXECUTE STALL: 6.51944e+14
L2BTB BRANCH_DIRECT_CALL	ACCESS:     836413 HIT:     815693 MISS:      20720 AVERAGE STALL: 33.5656 AVERAGE FETCH STALL: 21.7921 AVERAGE FETCH QUEUE STALL: 5.25364 AVERAGE DECODE STALL: 5.74694 AVERAGE EXECUTE STALL: 8.9119e+14
L2BTB BRANCH_INDIRECT_CALL	ACCESS:     140344 HIT:     129271 MISS:      11073 AVERAGE STALL: 74.1902 AVERAGE FETCH STALL: 13.8701 AVERAGE FETCH QUEUE STALL: 2.5669 AVERAGE DECODE STALL: 5.42032 AVERAGE EXECUTE STALL: 51.834
L2BTB BRANCH_RETURN	ACCESS:     821593 HIT:     772410 MISS:      49183 AVERAGE STALL: 34.9181 AVERAGE FETCH STALL: 17.2862 AVERAGE FETCH QUEUE STALL: 2.84621 AVERAGE DECODE STALL: 4.75185 AVERAGE EXECUTE STALL: 3.64834e+14
L2BTB BRANCH_OTHER ACCESS:          0 HIT:          0 MISS:          0 AVERAGE STALL: -nan AVERAGE FETCH STALL: -nan AVERAGE FETCH QUEUE STALL: -nan AVERAGE DECODE STALL: -nan AVERAGE EXECUTE STALL: -nan
L2BTB TOTAL ROB OCCUPANCY AT BTB MISS: 60.2542

L2C TOTAL     ACCESS:    4503022  HIT:    4000808  MISS:     502214  HIT %:    88.8472  MISS %:    11.1528   MPKI: 10.0443
L2C LOAD INSTRUCTION	ACCESS:    2751679  HIT:    2477716  MISS:     273963  HIT %:    90.0438  MISS %:    9.95621  MPKI: 5.47926
L2C LOAD TRANSLATION INSTRUCTION	ACCESS:        218  HIT:         39  MISS:        179  HIT %:    17.8899  MISS %:    82.1101  MPKI: 0.00358
L2C LOAD DATA	ACCESS:     743356  HIT:     664986  MISS:      78370  HIT %:    89.4573  MISS %:    10.5427  MPKI: 1.5674
L2C RFO DATA	ACCESS:     286871  HIT:     232664  MISS:      54207  HIT %:    81.1041  MISS %:    18.8959  MPKI: 1.08414
L2C PREFETCH DATA	ACCESS:     196218  HIT:     118130  MISS:      78088  HIT %:    60.2034  MISS %:    39.7966  MPKI: 1.56176
L2C WRITEBACK DATA	ACCESS:     522914  HIT:     506755  MISS:      16159  HIT %:    96.9098  MISS %:    3.09018  MPKI: 0.32318
L2C LOAD TRANSLATION DATA	ACCESS:       1747  HIT:        504  MISS:       1243  HIT %:    28.8495  MISS %:    71.1505  MPKI: 0.02486
L2C TRANSLATION FROM L1D PREFETCHER DATA	ACCESS:         19  HIT:         14  MISS:          5  HIT %:    73.6842  MISS %:    26.3158  MPKI: 0.0001

L2C PREFETCH  REQUESTED:      92062  ISSUED:      92062  USEFUL:       8960  USELESS:      69609
L2C USEFUL LOAD PREFETCHES:       8960 PREFETCH ISSUED TO LOWER LEVEL:      78511  ACCURACY: 11.4124
 TIMELY PREFETCHES:       8960 LATE PREFETCHES: 423 DROPPED PREFETCHES: 0
L2C AVERAGE MISS LATENCY: 37.4564 cycles
L2C RQ	ACCESS:    3783946	FORWARD:          0	MERGED:          0	TO_CACHE:    3783893
L2C WQ	ACCESS:     522914	FORWARD:         53	MERGED:          0	TO_CACHE:     522914
L2C PQ	ACCESS:     204300	FORWARD:          0	MERGED:       3737	TO_CACHE:     200563

L2C Dense regions hint from L2: 0
PSCL5 TOTAL     ACCESS:       3766  HIT:       1883  MISS:       1883  HIT %:         50  MISS %:         50   MPKI: 0.03766
PSCL5 LOAD TRANSLATION INSTRUCTION	ACCESS:       3728  HIT:       1864  MISS:       1864  HIT %:         50  MISS %:         50  MPKI: 0.03728
PSCL5 TRANSLATION FROM L1D PREFETCHER INSTRUCTION	ACCESS:         38  HIT:         19  MISS:         19  HIT %:         50  MISS %:         50  MPKI: 0.00038


PSCL4 TOTAL     ACCESS:       3576  HIT:       1784  MISS:       1792  HIT %:    49.8881  MISS %:    50.1119   MPKI: 0.03584
PSCL4 LOAD TRANSLATION INSTRUCTION	ACCESS:       1855  HIT:       1767  MISS:         88  HIT %:    95.2561  MISS %:    4.74394  MPKI: 0.00176
PSCL4 TRANSLATION FROM L1D PREFETCHER INSTRUCTION	ACCESS:         17  HIT:         17  MISS:          0  HIT %:        100  MISS %:          0  MPKI: 0
PSCL4 LOAD TRANSLATION DATA	ACCESS:       1687  HIT:          0  MISS:       1687  HIT %:          0  MISS %:        100  MPKI: 0.03374
PSCL4 TRANSLATION FROM L1D PREFETCHER DATA	ACCESS:         17  HIT:          0  MISS:         17  HIT %:          0  MISS %:        100  MPKI: 0.00034


PSCL3 TOTAL     ACCESS:       3614  HIT:       1803  MISS:       1811  HIT %:    49.8893  MISS %:    50.1107   MPKI: 0.03622
PSCL3 LOAD TRANSLATION INSTRUCTION	ACCESS:       1874  HIT:       1786  MISS:         88  HIT %:    95.3042  MISS %:    4.69584  MPKI: 0.00176
PSCL3 TRANSLATION FROM L1D PREFETCHER INSTRUCTION	ACCESS:         17  HIT:         17  MISS:          0  HIT %:        100  MISS %:          0  MPKI: 0
PSCL3 LOAD TRANSLATION DATA	ACCESS:       1706  HIT:          0  MISS:       1706  HIT %:          0  MISS %:        100  MPKI: 0.03412
PSCL3 TRANSLATION FROM L1D PREFETCHER DATA	ACCESS:         17  HIT:          0  MISS:         17  HIT %:          0  MISS %:        100  MPKI: 0.00034


PSCL2 TOTAL     ACCESS:       3680  HIT:       1797  MISS:       1883  HIT %:    48.8315  MISS %:    51.1685   MPKI: 0.03766
PSCL2 LOAD TRANSLATION INSTRUCTION	ACCESS:       1967  HIT:       1778  MISS:        189  HIT %:    90.3915  MISS %:    9.60854  MPKI: 0.00378
PSCL2 TRANSLATION FROM L1D PREFETCHER INSTRUCTION	ACCESS:         19  HIT:         19  MISS:          0  HIT %:        100  MISS %:          0  MPKI: 0
PSCL2 LOAD TRANSLATION DATA	ACCESS:       1675  HIT:          0  MISS:       1675  HIT %:          0  MISS %:        100  MPKI: 0.0335
PSCL2 TRANSLATION FROM L1D PREFETCHER DATA	ACCESS:         19  HIT:          0  MISS:         19  HIT %:          0  MISS %:        100  MPKI: 0.00038


LLC TOTAL     ACCESS:     565487  HIT:     538343  MISS:      27144  HIT %:    95.1999  MISS %:    4.80011   MPKI: 0.54288
LLC LOAD INSTRUCTION	ACCESS:     273963  HIT:     273268  MISS:        695  HIT %:    99.7463  MISS %:   0.253684  MPKI: 0.0139
LLC LOAD TRANSLATION INSTRUCTION	ACCESS:        179  HIT:        157  MISS:         22  HIT %:    87.7095  MISS %:    12.2905  MPKI: 0.00044
LLC LOAD DATA	ACCESS:      78002  HIT:      74623  MISS:       3379  HIT %:    95.6681  MISS %:    4.33194  MPKI: 0.06758
LLC RFO DATA	ACCESS:      54152  HIT:      41146  MISS:      13006  HIT %:    75.9824  MISS %:    24.0176  MPKI: 0.26012
LLC PREFETCH DATA	ACCESS:      78511  HIT:      68825  MISS:       9686  HIT %:    87.6629  MISS %:    12.3371  MPKI: 0.19372
LLC WRITEBACK DATA	ACCESS:      79432  HIT:      79147  MISS:        285  HIT %:    99.6412  MISS %:   0.358797  MPKI: 0.0057
LLC LOAD TRANSLATION DATA	ACCESS:       1243  HIT:       1172  MISS:         71  HIT %:     94.288  MISS %:    5.71199  MPKI: 0.00142
LLC TRANSLATION FROM L1D PREFETCHER DATA	ACCESS:          5  HIT:          5  MISS:          0  HIT %:        100  MISS %:          0  MPKI: 0

LLC AVERAGE MISS LATENCY: 154.526 cycles
LLC RQ	ACCESS:     407544	FORWARD:          0	MERGED:          0	TO_CACHE:     407544
LLC WQ	ACCESS:      79432	FORWARD:          0	MERGED:          0	TO_CACHE:      79432
LLC PQ	ACCESS:      78511	FORWARD:          0	MERGED:          0	TO_CACHE:      78511

LLC Dense regions hint to LLC: 0

RAW hits: 1559477
Loads Generated: 12610663
Loads sent to L1D: 11051186
Stores Generated: 6917125
Stores sent to L1D: 6917138
Major fault: 0 Minor fault: 2543
Allocated PAGES: 2543

stream: 
stream:times selected: 1226887
stream:pref_filled: 124327
stream:pref_useful: 27563
stream:pref_late: 8421
stream:misses: 8823
stream:misses_by_poll: 0

CS: 
CS:times selected: 188296
CS:pref_filled: 69625
CS:pref_useful: 45317
CS:pref_late: 8393
CS:misses: 20913
CS:misses_by_poll: 5

CPLX: 
CPLX:times selected: 1037497
CPLX:pref_filled: 23475
CPLX:pref_useful: 6679
CPLX:pref_late: 3420
CPLX:misses: 118128
CPLX:misses_by_poll: 0

NL_L1: 
NL:times selected: 12273
NL:pref_filled: 1454
NL:pref_useful: 179
NL:pref_late: 208
NL:misses: 1549
NL:misses_by_poll: 0

total selections: 2464953
total_filled: 101475
total_useful: 42761
total_late: 22392
total_polluted: 5
total_misses_after_warmup: 787826
conflicts: 5733464

test: 117369

DRAM Statistics
 CHANNEL 0
 RQ ROW_BUFFER_HIT:      10080  ROW_BUFFER_MISS:      16774
 DBUS_CONGESTED:         13
 WQ ROW_BUFFER_HIT:       1254  ROW_BUFFER_MISS:      11492  FULL:          0

 AVG_CONGESTED_CYCLE: 4

CPU 0 Branch Prediction Accuracy: 99.8236% MPKI: 0.32298 Average ROB Occupancy at Mispredict: 102.368
Branch types
NOT_BRANCH: 40846192 81.6924%
BRANCH_DIRECT_JUMP: 545093 1.09019%
BRANCH_INDIRECT: 181931 0.363862%
BRANCH_CONDITIONAL: 6199264 12.3985%
BRANCH_DIRECT_CALL: 941949 1.8839%
BRANCH_INDIRECT_CALL: 171597 0.343194%
BRANCH_RETURN: 1113550 2.2271%
BRANCH_OTHER: 0 0%

DRAM PAGES: 1048576
Allocated PAGES: 2543
Average_ROB_Occupancy: 93.0477
Average_Decode_Occupancy: 10.1275
Average_FTQ_Occupancy: 5.25827
Indirect max targets: 14 Average targets: 1.17685
Branch_type:  BRANCH_DIRECT_JUMP:  Count Percentage: 3.80739 5.15306 4.71125 8.80677 2.41328 6.01854 1.79544 67.2943 
Branch_type:  BRANCH_INDIRECT:  Count Percentage: 6.17192 3.47085 8.17289 9.66252 3.34465 2.80779 0.935746 65.4336 
Branch_type:  BRANCH_CONDITIONAL:  Count Percentage: 22.4056 3.12525 1.56206 8.06433 2.74411 3.53208 1.59248 56.9741 
Branch_type:  BRANCH_DIRECT_CALL:  Count Percentage: 0.389801 1.76015 0.732974 5.03143 2.82527 2.62167 2.47215 84.1665 
Branch_type:  BRANCH_INDIRECT_CALL:  Count Percentage: 9.54072 0 2.99109 0.000877496 1.0565 1.71199 2.70532 81.9935 
Branch_type:  BRANCH_RETURN:  Count Percentage: 4.01323 5.38503 1.03517 5.41654 4.86175 3.42368 1.95176 73.9128 
Branch_type:  BRANCH_DIRECT_JUMP:  Total Count: 41572 56265 51441 96159 26350 65715 19604 734770 
Branch_type:  BRANCH_INDIRECT:  Total Count: 22498 12652 29792 35222 12192 10235 3411 238520 
Branch_type:  BRANCH_CONDITIONAL:  Total Count: 2777898 387476 193668 999835 340222 437916 197440 7063790 
Branch_type:  BRANCH_DIRECT_CALL:  Total Count: 7323 33067 13770 94523 53077 49252 46443 1581194 
Branch_type:  BRANCH_INDIRECT_CALL:  Total Count: 32618 0 10226 3 3612 5853 9249 280321 
Branch_type:  BRANCH_RETURN:  Total Count: 89149 119622 22995 120322 107998 76053 43356 1641885 
Number of unique branch instructions: 10472
Upper 32 bits: 
aaaa
ffff
ffff0000
Unique upper 32 bits: 3
Unique upper 36 bits: 3
Unique upper 40 bits: 5
Unique upper 44 bits: 32
Unique upper 48 bits: 157
Offset_3 4330
Offset_4 255
Offset_5 472
Offset_6 526
Offset_7 622
Offset_8 560
Offset_9 499
Offset_10 410
Offset_11 339
Offset_12 309
Offset_13 224
Offset_14 234
Offset_15 199
Offset_16 225
Offset_17 155
Offset_18 152
Offset_19 255
Offset_20 143
Offset_21 235
Offset_22 400
Offset_23 241
Offset_24 339
Offset_25 114
Offset_47 90
Offset_64 1
decode_dispatch_called: 20641815 43.2709
Dispatch_width: 0 10304479 49.9204 21.601
Dispatch_width: 1 627073 3.03788 1.31452
Dispatch_width: 2 833592 4.03837 1.74744
Dispatch_width: 3 588516 2.85109 1.23369
Dispatch_width: 4 1676955 8.12407 3.51535
Dispatch_width: 5 435132 2.10801 0.912155
Dispatch_width: 6 6176068 29.9202 12.9467
Empty_decode_cycles: 27061904 56.7291
ROB_full_cycles: 1636190 3.4299
Starvation_cycles_per_kilo_instr: 398.915
Starvation_cycles_per_kilo_instr_3: 377.794
Starvation_cycles_per_kilo_instr_0: 357.302
Branch_type_1  (3,1)  (4,7)  (5,38)  (6,72)  (7,123)  (8,145)  (9,133)  (10,109)  (11,77)  (12,55)  (13,11)  (14,2)  (15,3)  (16,4)  (18,1)  (19,5)  (20,2)  (21,1)  (22,3)  (23,2)  (24,10)  (25,12) 
Branch_type_2  (3,1)  (4,1)  (5,1)  (8,4)  (9,4)  (10,1)  (12,1)  (13,1)  (14,1)  (16,3)  (17,2)  (20,2)  (21,2)  (23,5)  (24,1)  (47,40) 
Branch_type_3  (3,4328)  (4,247)  (5,429)  (6,437)  (7,468)  (8,346)  (9,273)  (10,164)  (11,134)  (12,62)  (13,10)  (64,1) 
Branch_type_4  (6,4)  (7,8)  (8,26)  (9,55)  (10,64)  (11,67)  (12,105)  (13,94)  (14,105)  (15,95)  (16,99)  (17,70)  (18,65)  (19,123)  (20,73)  (21,124)  (22,211)  (23,136)  (24,195)  (25,98) 
Branch_type_5  (8,3)  (9,1)  (10,4)  (11,5)  (12,3)  (13,14)  (14,16)  (15,11)  (16,22)  (17,11)  (18,23)  (19,14)  (20,11)  (21,13)  (22,43)  (23,26)  (24,37) 
Branch_type_6  (5,4)  (6,13)  (7,23)  (8,36)  (9,33)  (10,68)  (11,56)  (12,83)  (13,94)  (14,110)  (15,90)  (16,97)  (17,72)  (18,63)  (19,113)  (20,55)  (21,95)  (22,143)  (23,72)  (24,96)  (25,4)  (47,50) 
aaaaab1fc620: 2ac9e77e 2aca717c 2aca8eff 2acaf6bc 2acaf9aa 2acaf9f1 2acb1abc 2acb1b7f 2acd4e22 2acdb712 2acf5f9e 2ad0ef44 2ad3f15c 2ad414e6 2ad60e42 2ad8609c 2ad99830 2ada35cc 2ada4676 2ada6612 2adf183e 2adf30e5 2adf5602 2adf785c 2ae11572 2aeb2dcf 2aee101b 2aee1ae1 2b156a8c 2b156b61 2b156bea 2b167f35 2b177656 2b17feec 2b1a3e5a 
aaaaab1fc640: 2ac9ec07 2aca656e 2aca801d 2acaea11 2acaee73 2acb13ee 2acb1470 2acd462b 2ad0ef5d 2ad3f3fe 2ad86e9b 2ada1641 2ada4115 2ada6638 2adf30d4 2ae12e57 2aee1033 2b1693ab 2b16948c 2b169491 2b17d915 2b17fa85 2b17fccd 
aaaaab1fcb00: 2acf2d72 2acf3734 2acf604c 2acfa5b7 2ad397b5 2ad3b800 2ae8af7d 2ae8aff0 2ae9aaba 2aea9fc6 2aeaa358 2aee910b 2aee91cf 2aee928e 2aee92e4 2af6fe87 2af70dfe 2b16850c 2b16c4a2 2b1765f4 2b178094 2b17d925 2b17db06 
aaaaab1fcb10: 2acf2d95 2acf3758 2acf6052 2acfa5f4 2ad397c3 2ad3b81c 2ae8af88 2ae8affe 2ae9aacf 2aeaa017 2aeaa36d 2aee9114 2aee91d8 2aee934d 2aee9353 2af6fe8c 2af70e22 2b168526 2b16c542 2b176609 2b1780a3 2b17d95d 2b17db44 
aaaaac68f310: 2ac9ec8c 2ac9fb44 2ac9fbd2 2aca59ab 2acac04c 2acaf6e0 2acaf6ec 2acaf6f9 2acaf700 2acaf708 2acf2d90 2ad3cfbd 2ad3cfc4 2ad3d000 2ad3f35f 2ad4955d 2ad49571 2ad4f3f2 2ad4f400 2ad5f240 2ad5f37c 2ad5f86a 2ad5f86f 2ad5f880 2ad5fc0d 2ad5fc14 2ad5fc21 2ad5fe1b 2ad873bb 2ad873e3 2ad8a6b2 2ad9086e 2ad93096 2ad9bbb2 2ada152c 2ada1554 2ada3332 2ada5522 2adf3130 2adf313c 2adf3a3f 2adf3bd9 2adf5788 2adf7a8d 2ae07f6b 2ae0857a 2ae0857e 2ae08630 2ae08634 2ae08637 2ae08642 2ae0866f 2ae086e4 2ae086ec 2ae08717 2ae0871b 2aee0170 2aee1d38 2aee75f4 2aee7662 2aee85ca 2aee85e4 2aee8eef 2af70b84 2af74e8f 2b17d843 
aaaaac690ef0: 2aca598b 2acb111b 2acb175f 2acb1772 2acbfaf4 2acbfb00 2acf374f 2acf6d43 2acfa5c8 2ad3baf1 2ad3d4ac 2ad3d4b8 2ad3f1cf 2ad486b2 2ad5a59b 2ad5fc64 2ad5fcf9 2ad6121c 2ad906e9 2ad907bf 2ad9bada 2ada16ce 2ada1ad5 2ada43df 2ada64c0 2ada72ee 2adeb71a 2adf3bcb 2adf7a38 2adf7c6a 2adf8872 2adf8880 2adf9959 2adf9abe 2ae07f78 2ae08503 2ae08754 2ae12e80 2aea3bea 2aecb509 2aee00b0 2aee2bdd 2aee5467 2aee5601 2aee8f20 2af703fd 2af7048b 2af74e74 
Unique trigger count: 
1 9975
2 548
3 88
4 30
5 12
6 11
7 7
8 2
9 3
10 2
11 1
12 2
13 1
14 2
16 2
19 2
23 3
35 1
48 1
66 1
BTB PER SET UNIQUE ADDR: 11 17 9 9 5 14 13 18 17 6 13 7 19 13 10 12 15 12 12 15 10 16 12 14 14 12 7 11 11 14 20 13 15 10 16 17 18 18 12 11 15 12 8 16 18 10 12 15 21 10 14 8 18 8 12 16 15 12 15 12 15 21 10 15 12 22 11 18 19 12 8 8 11 8 9 21 13 20 14 13 11 14 12 11 15 13 13 13 20 16 20 18 16 11 11 14 19 13 13 13 14 13 17 13 14 13 12 15 15 11 16 10 9 18 13 19 7 14 14 9 15 16 11 10 12 10 10 10 21 16 15 9 14 8 16 13 13 10 13 12 18 11 12 9 13 16 11 16 23 10 13 25 13 17 13 15 13 19 14 18 16 15 22 13 18 13 11 10 21 17 13 10 15 15 10 11 13 14 13 12 9 11 15 15 18 19 12 14 9 19 9 13 13 18 10 14 16 9 18 13 10 12 13 11 20 10 6 15 11 5 8 9 13 12 11 15 6 20 15 17 14 6 13 14 15 11 19 11 8 18 18 19 8 10 12 13 16 13 10 7 9 10 11 12 21 20 10 11 11 13 15 17 13 13 19 18 10 9 20 13 8 10 14 9 15 24 8 8 15 11 11 13 14 17 19 14 10 11 7 17 13 12 15 18 21 14 11 12 20 8 13 10 12 17 14 12 9 16 9 11 12 10 10 11 8 9 11 14 18 13 15 8 13 9 12 8 16 19 13 8 14 15 15 14 9 11 12 15 8 6 14 8 10 14 17 11 13 12 16 9 12 15 8 18 14 11 10 15 17 13 9 16 22 13 14 15 17 11 12 11 13 20 13 10 12 14 11 8 7 12 14 11 16 10 15 9 15 15 15 14 14 14 12 16 14 16 13 8 20 12 13 12 18 11 14 15 11 14 11 15 12 9 10 16 11 12 16 11 13 10 14 10 20 13 8 11 13 16 8 11 13 16 13 15 20 17 8 12 12 18 9 8 21 13 17 18 15 12 16 7 18 14 14 9 16 22 12 15 10 11 16 8 7 12 19 12 15 12 11 11 8 13 18 18 14 10 16 11 19 13 6 12 15 15 9 7 18 12 10 10 12 13 8 14 10 18 13 9 11 6 18 8 12 14 8 17 10 14 14 8 20 10 16 8 11 9 8 11 15 12 21 9 
BTB PER SET COUNT: 11 24 9 10 5 14 13 517 18 1468 13 425 65 13 10 15 15 12 12 1478 10 18 13 507 15 12 9 11 1472 15 1831 383 15 10 19 25 2945 2260 16 12 19 14 11 18 3658 14 12 15 5287 10 14 10 3465 9 12 19 16 13 15 117 17 6074 11 15 12 3985 12 30 4753 41 9 8 1472 8 9 5906 505 57 14 13 11 982 980 12 510 14 13 13 33 20 3760 512 16 2962 12 17 36 14 13 15 14 13 23 14 974 13 12 16 15 764 384 11 1470 54 14 2758 8 14 506 1469 15 26 11 10 505 10 10 10 4977 17 507 9 15 8 16 14 505 10 14 12 35 14 12 11 13 19 1486 17 14853 11 13 8689 13 5411 2935 1000 13 63 508 25 17 19 7535 998 513 1950 636 10 7763 512 13 994 14627 1113 10 1837 1474 507 981 996 9 13 15 15 27 21 12 47 9 48 9 13 168 1014 10 1478 985 1469 128 15 12 12 997 13 1497 736 6 2458 12 5 8 10 15 12 11 666 6 5997 15 18 983 6 14 14 15 12 796 1992 8 1500 273 4390 8 11 507 13 16 996 10 7 9 525 11 12 1613 4983 10 979 11 14 983 18 13 13 72 21 12 9 62 13 8 135 15 1470 1475 9646 976 8 15 11 11 13 18 47 85 15 449 11 8 93 14 12 222 30 6095 997 11 12 130 10 245 11 2472 1480 14 14 9 108 9 12 13 489 12 12 8 10 13 14 24 14 16 390 13 9 980 9 18 6356 18 8 14 17 29 16 11 11 12 17 237 6 997 1470 10 18 992 13 1000 13 16 9 14 16 8 1551 998 11 11 18 18 15 9 19 7823 1950 15 997 27 11 12 50 13 53 13 10 13 15 13 10 8 12 16 15 17 11 15 9 16 15 15 14 14 14 12 148 15 18 13 8 2280 12 163 74 24 13 14 19 1471 14 11 15 13 9 11 17 11 996 2936 12 14 2312 14 11 567 13 976 11 117 16 9 1925 14 493 13 16 7021 29 10 12 12 22 118 976 2464 15 24 271 16 12 18 7 476 15 14 9 24 3241 19 983 10 503 18 8 9 13 44 12 15 15 503 11 990 378 45 19 1010 12 17 11 51 14 498 12 43 510 135 7 20479 12 11 12 12 13 8 505 11 534 274 385 11 6 49 8 12 15 8 30 12 14 1981 8 8068 386 1224 9 11 11 9 12 1505 12 729 9 
