
*** ChampSim Multicore Out-of-Order Simulator ***

Warmup Instructions: 50000000
Simulation Instructions: 50000000
Number of CPUs: 1
LLC sets: 2048
LLC ways: 16
Off-chip DRAM Size: 4096 MB Channels: 1 Width: 64-bit Data Rate: 6400 MT/s
CPU 0 runs ./micro_traces/srv514.trace.gz
.gz
ITLB has LRU replacement policy
DTLB has LRU replacement policy
STLB has LRU replacement policy
FDIP Prefetcher at L1I
L1I has LRU replacement policy
L1D has LRU replacement policy
Initialize SRRIP state for L2C
Initialize DRRIP state for LLC
Heartbeat_Variant_0 : 1322 0.322754 per_variant_size: 0 1322 0 0 0 0 0 0 0 
Heartbeat_Variant_1 : 2520 0.615234 per_variant_size: 0 548 1972 0 0 0 0 0 0 
Heartbeat_Variant_2 : 0 0 per_variant_size: 0 0 0 0 0 0 0 0 0 
Heartbeat_Variant_3 : 0 0 per_variant_size: 0 0 0 0 0 0 0 0 0 
Heartbeat_Variant_0_evicts 0 : 5861 1 : 504 2 : 0 3 : 0 
Heartbeat_Variant_1_evicts 0 : 443 1 : 0 2 : 0 3 : 0 
Heartbeat_Variant_2_evicts 0 : 0 1 : 0 2 : 0 3 : 0 
Heartbeat_Variant_3_evicts 0 : 0 1 : 0 2 : 0 3 : 0 
Heartbeat CPU 0 instructions: 10000001 cycles: 2866457 heartbeat IPC: 3.48863 cumulative IPC: 3.48863 (Simulation time: 0 hr 1 min 48 sec) 
Heartbeat_Variant_0 : 1356 0.331055 per_variant_size: 0 1356 0 0 0 0 0 0 0 
Heartbeat_Variant_1 : 2599 0.634521 per_variant_size: 0 501 2098 0 0 0 0 0 0 
Heartbeat_Variant_2 : 0 0 per_variant_size: 0 0 0 0 0 0 0 0 0 
Heartbeat_Variant_3 : 0 0 per_variant_size: 0 0 0 0 0 0 0 0 0 
Heartbeat_Variant_0_evicts 0 : 5710 1 : 275 2 : 0 3 : 0 
Heartbeat_Variant_1_evicts 0 : 270 1 : 0 2 : 0 3 : 0 
Heartbeat_Variant_2_evicts 0 : 0 1 : 0 2 : 0 3 : 0 
Heartbeat_Variant_3_evicts 0 : 0 1 : 0 2 : 0 3 : 0 
Heartbeat CPU 0 instructions: 20000003 cycles: 5729009 heartbeat IPC: 3.49339 cumulative IPC: 3.49101 (Simulation time: 0 hr 3 min 34 sec) 
Heartbeat_Variant_0 : 1370 0.334473 per_variant_size: 0 1370 0 0 0 0 0 0 0 
Heartbeat_Variant_1 : 2631 0.642334 per_variant_size: 0 491 2140 0 0 0 0 0 0 
Heartbeat_Variant_2 : 0 0 per_variant_size: 0 0 0 0 0 0 0 0 0 
Heartbeat_Variant_3 : 0 0 per_variant_size: 0 0 0 0 0 0 0 0 0 
Heartbeat_Variant_0_evicts 0 : 5668 1 : 282 2 : 0 3 : 0 
Heartbeat_Variant_1_evicts 0 : 279 1 : 0 2 : 0 3 : 0 
Heartbeat_Variant_2_evicts 0 : 0 1 : 0 2 : 0 3 : 0 
Heartbeat_Variant_3_evicts 0 : 0 1 : 0 2 : 0 3 : 0 
Heartbeat CPU 0 instructions: 30000000 cycles: 8588723 heartbeat IPC: 3.49685 cumulative IPC: 3.49295 (Simulation time: 0 hr 5 min 19 sec) 
Heartbeat_Variant_0 : 1377 0.336182 per_variant_size: 0 1377 0 0 0 0 0 0 0 
Heartbeat_Variant_1 : 2636 0.643555 per_variant_size: 0 482 2154 0 0 0 0 0 0 
Heartbeat_Variant_2 : 0 0 per_variant_size: 0 0 0 0 0 0 0 0 0 
Heartbeat_Variant_3 : 0 0 per_variant_size: 0 0 0 0 0 0 0 0 0 
Heartbeat_Variant_0_evicts 0 : 5731 1 : 160 2 : 0 3 : 0 
Heartbeat_Variant_1_evicts 0 : 155 1 : 0 2 : 0 3 : 0 
Heartbeat_Variant_2_evicts 0 : 0 1 : 0 2 : 0 3 : 0 
Heartbeat_Variant_3_evicts 0 : 0 1 : 0 2 : 0 3 : 0 
Heartbeat CPU 0 instructions: 40000003 cycles: 11453334 heartbeat IPC: 3.49088 cumulative IPC: 3.49243 (Simulation time: 0 hr 7 min 4 sec) 
Heartbeat_Variant_0 : 1375 0.335693 per_variant_size: 0 1375 0 0 0 0 0 0 0 
Heartbeat_Variant_1 : 2643 0.645264 per_variant_size: 0 488 2155 0 0 0 0 0 0 
Heartbeat_Variant_2 : 0 0 per_variant_size: 0 0 0 0 0 0 0 0 0 
Heartbeat_Variant_3 : 0 0 per_variant_size: 0 0 0 0 0 0 0 0 0 
Heartbeat_Variant_0_evicts 0 : 5585 1 : 109 2 : 0 3 : 0 
Heartbeat_Variant_1_evicts 0 : 111 1 : 0 2 : 0 3 : 0 
Heartbeat_Variant_2_evicts 0 : 0 1 : 0 2 : 0 3 : 0 
Heartbeat_Variant_3_evicts 0 : 0 1 : 0 2 : 0 3 : 0 
Heartbeat CPU 0 instructions: 50000000 cycles: 14319498 heartbeat IPC: 3.48898 cumulative IPC: 3.49174 (Simulation time: 0 hr 8 min 48 sec) 

Warmup complete CPU 0 instructions: 50000004 cycles: 14319499 (Simulation time: 0 hr 8 min 48 sec) 

Cycle: 20000000 FTQ IN: 56559807 FTQ occupancy: 21.0571 DECODE IN: 56559767 DECODE occupancy: 54.7398 ROB IN: 56559767 ROB occupancy: 326.757 ROB OUT: 56559659
Heartbeat_Variant_0 : 1380 0.336914 per_variant_size: 0 1380 0 0 0 0 0 0 0 
Heartbeat_Variant_1 : 2641 0.644775 per_variant_size: 0 513 2128 0 0 0 0 0 0 
Heartbeat_Variant_2 : 0 0 per_variant_size: 0 0 0 0 0 0 0 0 0 
Heartbeat_Variant_3 : 0 0 per_variant_size: 0 0 0 0 0 0 0 0 0 
Heartbeat_Variant_0_evicts 0 : 5580 1 : 98 2 : 0 3 : 0 
Heartbeat_Variant_1_evicts 0 : 94 1 : 0 2 : 0 3 : 0 
Heartbeat_Variant_2_evicts 0 : 0 1 : 0 2 : 0 3 : 0 
Heartbeat_Variant_3_evicts 0 : 0 1 : 0 2 : 0 3 : 0 
Heartbeat CPU 0 instructions: 60000001 cycles: 22978941 heartbeat IPC: 1.15481 cumulative IPC: 1.15481 (Simulation time: 0 hr 11 min 7 sec) 
Cycle: 30000000 FTQ IN: 11567329 FTQ occupancy: 15.9185 DECODE IN: 11567270 DECODE occupancy: 41.0183 ROB IN: 11567210 ROB occupancy: 270.037 ROB OUT: 11567025
Heartbeat_Variant_0 : 1385 0.338135 per_variant_size: 0 1385 0 0 0 0 0 0 0 
Heartbeat_Variant_1 : 2646 0.645996 per_variant_size: 0 511 2135 0 0 0 0 0 0 
Heartbeat_Variant_2 : 0 0 per_variant_size: 0 0 0 0 0 0 0 0 0 
Heartbeat_Variant_3 : 0 0 per_variant_size: 0 0 0 0 0 0 0 0 0 
Heartbeat_Variant_0_evicts 0 : 5645 1 : 135 2 : 0 3 : 0 
Heartbeat_Variant_1_evicts 0 : 132 1 : 0 2 : 0 3 : 0 
Heartbeat_Variant_2_evicts 0 : 0 1 : 0 2 : 0 3 : 0 
Heartbeat_Variant_3_evicts 0 : 0 1 : 0 2 : 0 3 : 0 
Heartbeat CPU 0 instructions: 70000000 cycles: 31686002 heartbeat IPC: 1.14849 cumulative IPC: 1.15164 (Simulation time: 0 hr 13 min 24 sec) 
Cycle: 40000000 FTQ IN: 11491912 FTQ occupancy: 16.1442 DECODE IN: 11491912 DECODE occupancy: 41.4343 ROB IN: 11491912 ROB occupancy: 272.631 ROB OUT: 11491853
Heartbeat_Variant_0 : 1386 0.338379 per_variant_size: 0 1386 0 0 0 0 0 0 0 
Heartbeat_Variant_1 : 2646 0.645996 per_variant_size: 0 514 2132 0 0 0 0 0 0 
Heartbeat_Variant_2 : 0 0 per_variant_size: 0 0 0 0 0 0 0 0 0 
Heartbeat_Variant_3 : 0 0 per_variant_size: 0 0 0 0 0 0 0 0 0 
Heartbeat_Variant_0_evicts 0 : 5620 1 : 33 2 : 0 3 : 0 
Heartbeat_Variant_1_evicts 0 : 32 1 : 0 2 : 0 3 : 0 
Heartbeat_Variant_2_evicts 0 : 0 1 : 0 2 : 0 3 : 0 
Heartbeat_Variant_3_evicts 0 : 0 1 : 0 2 : 0 3 : 0 
Heartbeat CPU 0 instructions: 80000000 cycles: 40322786 heartbeat IPC: 1.15784 cumulative IPC: 1.1537 (Simulation time: 0 hr 15 min 44 sec) 
Heartbeat_Variant_0 : 1383 0.337646 per_variant_size: 0 1383 0 0 0 0 0 0 0 
Heartbeat_Variant_1 : 2654 0.647949 per_variant_size: 0 471 2183 0 0 0 0 0 0 
Heartbeat_Variant_2 : 0 0 per_variant_size: 0 0 0 0 0 0 0 0 0 
Heartbeat_Variant_3 : 0 0 per_variant_size: 0 0 0 0 0 0 0 0 0 
Heartbeat_Variant_0_evicts 0 : 5705 1 : 201 2 : 0 3 : 0 
Heartbeat_Variant_1_evicts 0 : 205 1 : 0 2 : 0 3 : 0 
Heartbeat_Variant_2_evicts 0 : 0 1 : 0 2 : 0 3 : 0 
Heartbeat_Variant_3_evicts 0 : 0 1 : 0 2 : 0 3 : 0 
Heartbeat CPU 0 instructions: 90000000 cycles: 49076776 heartbeat IPC: 1.14234 cumulative IPC: 1.15084 (Simulation time: 0 hr 18 min 1 sec) 
Cycle: 50000000 FTQ IN: 11448187 FTQ occupancy: 16.036 DECODE IN: 11448152 DECODE occupancy: 41.1405 ROB IN: 11448152 ROB occupancy: 271.277 ROB OUT: 11448152
*** Reached end of trace for Core: 0 Repeating trace: ./micro_traces/srv514.trace.gz
Heartbeat_Variant_0 : 1385 0.338135 per_variant_size: 0 1385 0 0 0 0 0 0 0 
Heartbeat_Variant_1 : 2653 0.647705 per_variant_size: 0 476 2177 0 0 0 0 0 0 
Heartbeat_Variant_2 : 0 0 per_variant_size: 0 0 0 0 0 0 0 0 0 
Heartbeat_Variant_3 : 0 0 per_variant_size: 0 0 0 0 0 0 0 0 0 
Heartbeat_Variant_0_evicts 0 : 5589 1 : 30 2 : 0 3 : 0 
Heartbeat_Variant_1_evicts 0 : 29 1 : 0 2 : 0 3 : 0 
Heartbeat_Variant_2_evicts 0 : 0 1 : 0 2 : 0 3 : 0 
Heartbeat_Variant_3_evicts 0 : 0 1 : 0 2 : 0 3 : 0 
Heartbeat CPU 0 instructions: 100000002 cycles: 57706439 heartbeat IPC: 1.15879 cumulative IPC: 1.15242 (Simulation time: 0 hr 20 min 48 sec) 
Finished CPU 0 instructions: 50000002 cycles: 43386941 cumulative IPC: 1.15242 (Simulation time: 0 hr 20 min 48 sec) 

ChampSim completed all CPUs

Region of Interest Statistics

CPU 0 cumulative IPC: 1.15242 instructions: 50000002 cycles: 43386941
 Fetch stage stalled: 41.528  Sim cycles: 43386941 fetch stall cycle: 18017724
 Empty decode stage: 18.7481  Sim cycles: 43386941 fetch stall cycle: 8134214
ITLB TOTAL     ACCESS:    5926633  HIT:    5436494  MISS:     490139  HIT %:    91.7299  MISS %:    8.27011   MPKI: 9.80278
ITLB LOAD TRANSLATION INSTRUCTION	ACCESS:    5787819  HIT:    5297680  MISS:     490139  HIT %:    91.5315  MISS %:    8.46846  MPKI: 9.80278
ITLB TRANSLATION FROM L1D PREFETCHER INSTRUCTION	ACCESS:     138814  HIT:     138814  MISS:          0  HIT %:        100  MISS %:          0  MPKI: 0

ITLB AVERAGE MISS LATENCY: 9.04946 cycles
ITLB RQ	ACCESS:    7983188	FORWARD:          0	MERGED:    1598692	TO_CACHE:    6384496

DTLB TOTAL     ACCESS:    8964674  HIT:    8492006  MISS:     472668  HIT %:    94.7274  MISS %:    5.27256   MPKI: 9.45336
DTLB LOAD TRANSLATION DATA	ACCESS:    8964674  HIT:    8492006  MISS:     472668  HIT %:    94.7274  MISS %:    5.27256  MPKI: 9.45336

DTLB AVERAGE MISS LATENCY: 9.31423 cycles
DTLB RQ	ACCESS:   13311344	FORWARD:          0	MERGED:    4311687	TO_CACHE:    8999657

STLB TOTAL     ACCESS:    1210413  HIT:    1208288  MISS:       2125  HIT %:    99.8244  MISS %:    0.17556   MPKI: 0.0425
STLB LOAD TRANSLATION INSTRUCTION	ACCESS:     490139  HIT:     489878  MISS:        261  HIT %:    99.9467  MISS %:  0.0532502  MPKI: 0.00522
STLB LOAD TRANSLATION DATA	ACCESS:     472668  HIT:     470804  MISS:       1864  HIT %:    99.6056  MISS %:   0.394357  MPKI: 0.03728
STLB TRANSLATION FROM L1D PREFETCHER DATA	ACCESS:     247606  HIT:     247606  MISS:          0  HIT %:        100  MISS %:          0  MPKI: 0

STLB AVERAGE MISS LATENCY: 68.1496 cycles
STLB RQ	ACCESS:    1343199	FORWARD:          0	MERGED:     132786	TO_CACHE:    1210413

STLB Hit, L1D data hit: 0
STLB Hit, L2C data hit: 0
STLB Hit, LLC data hit: 0
STLB Hit, LLC data miss: 0
STLB STLB hints to L2: 0
L1D TOTAL     ACCESS:   11680275  HIT:    6179513  MISS:    5500762  HIT %:    52.9055  MISS %:    47.0945   MPKI: 110.015
L1D LOAD DATA	ACCESS:    6342706  HIT:    2685093  MISS:    3657613  HIT %:    42.3336  MISS %:    57.6664  MPKI: 73.1523
L1D RFO DATA	ACCESS:    5051432  HIT:    3417585  MISS:    1633847  HIT %:    67.6558  MISS %:    32.3442  MPKI: 32.6769
L1D PREFETCH DATA	ACCESS:     286137  HIT:      76835  MISS:     209302  HIT %:    26.8525  MISS %:    73.1475  MPKI: 4.18604

L1D PREFETCH  REQUESTED:     760963  ISSUED:     760963  USEFUL:      32551  USELESS:     197715
L1D USEFUL LOAD PREFETCHES:      32551 PREFETCH ISSUED TO LOWER LEVEL:     231247  ACCURACY: 14.0763
 TIMELY PREFETCHES:      32551 LATE PREFETCHES: 20987 DROPPED PREFETCHES: 0
L1D AVERAGE MISS LATENCY: 145254 cycles
L1D RQ	ACCESS:   10640922	FORWARD:          0	MERGED:    3887275	TO_CACHE:    6601571
L1D WQ	ACCESS:    6901403	FORWARD:     152255	MERGED:     191630	TO_CACHE:    6709773
L1D PQ	ACCESS:     380571	FORWARD:          0	MERGED:          0	TO_CACHE:     380392

L1D UNIQUE REGIONS ACCESSED: 0
L1D REGIONS CONFLICTS: 0
L1D Cross Page Prefetch Requests: 2940
L1D Same Page Prefetch Requests: 776582
L1D ROI Sum of L1D PQ occupancy: 4776511
L1D PREFETCHES PUSHED FROM L2C: 0
L1I TOTAL     ACCESS:    7171213  HIT:    4428681  MISS:    2742532  HIT %:    61.7564  MISS %:    38.2436   MPKI: 54.8506
L1I LOAD INSTRUCTION	ACCESS:    6493186  HIT:    3750654  MISS:    2742532  HIT %:    57.7629  MISS %:    42.2371  MPKI: 54.8506
L1I PREFETCH INSTRUCTION	ACCESS:     678027  HIT:     678027  MISS:          0  HIT %:        100  MISS %:          0  MPKI: 0

L1I PREFETCH  REQUESTED:    1612419  ISSUED:    1612419  USEFUL:          0  USELESS:          0
L1I USEFUL LOAD PREFETCHES:          0 PREFETCH ISSUED TO LOWER LEVEL:          0  ACCURACY: -nan
 TIMELY PREFETCHES:          0 LATE PREFETCHES: 0 DROPPED PREFETCHES: 0
L1I AVERAGE MISS LATENCY: 18.1028 cycles
L1I RQ	ACCESS:    9604640	FORWARD:          0	MERGED:    2808989	TO_CACHE:    6795651
L1I PQ	ACCESS:    1612419	FORWARD:          0	MERGED:     424882	TO_CACHE:    1187537

L1BTB TOTAL     ACCESS:    5681161  HIT:    2078161  MISS:    3603000  HIT %:    36.5799  MISS %:    63.4201   MPKI: 72.06
L1BTB BRANCH_DIRECT_JUMP	ACCESS:     545087 HIT:     144165 MISS:     400922 AVERAGE STALL: 71.0836 AVERAGE FETCH STALL: 14.9706 AVERAGE FETCH QUEUE STALL: 25.6032 AVERAGE DECODE STALL: 29.5793 AVERAGE EXECUTE STALL: 2.44425e+15
L1BTB BRANCH_INDIRECT	ACCESS:     181892 HIT:      65660 MISS:     116232 AVERAGE STALL: 140.445 AVERAGE FETCH STALL: 11.1375 AVERAGE FETCH QUEUE STALL: 25.0359 AVERAGE DECODE STALL: 16.1151 AVERAGE EXECUTE STALL: 87.1947
L1BTB BRANCH_CONDITIONAL	ACCESS:    2737883 HIT:    1454247 MISS:    1283636 AVERAGE STALL: 71.5136 AVERAGE FETCH STALL: 23.2559 AVERAGE FETCH QUEUE STALL: 25.7133 AVERAGE DECODE STALL: 21.9256 AVERAGE EXECUTE STALL: 3.32194e+15
L1BTB BRANCH_DIRECT_CALL	ACCESS:     937390 HIT:     104296 MISS:     833094 AVERAGE STALL: 82.0135 AVERAGE FETCH STALL: 23.1881 AVERAGE FETCH QUEUE STALL: 36.8738 AVERAGE DECODE STALL: 21.148 AVERAGE EXECUTE STALL: 8.58787e+15
L1BTB BRANCH_INDIRECT_CALL	ACCESS:     170770 HIT:      21329 MISS:     149441 AVERAGE STALL: 170.299 AVERAGE FETCH STALL: 12.2296 AVERAGE FETCH QUEUE STALL: 22.9948 AVERAGE DECODE STALL: 16.0066 AVERAGE EXECUTE STALL: 118.58
L1BTB BRANCH_RETURN	ACCESS:    1108139 HIT:     288464 MISS:     819675 AVERAGE STALL: 55.5661 AVERAGE FETCH STALL: 17.6377 AVERAGE FETCH QUEUE STALL: 6.73222 AVERAGE DECODE STALL: 6.96356 AVERAGE EXECUTE STALL: 4.32849e+14
L1BTB BRANCH_OTHER ACCESS:          0 HIT:          0 MISS:          0 AVERAGE STALL: -nan AVERAGE FETCH STALL: -nan AVERAGE FETCH QUEUE STALL: -nan AVERAGE DECODE STALL: -nan AVERAGE EXECUTE STALL: -nan
L1BTB TOTAL ROB OCCUPANCY AT BTB MISS: 2.95227

L2BTB TOTAL     ACCESS:    3577725  HIT:    3512490  MISS:      65235  HIT %:    98.1766  MISS %:    1.82337   MPKI: 1.3047
L2BTB BRANCH_DIRECT_JUMP	ACCESS:     396761 HIT:     393370 MISS:       3391 AVERAGE STALL: 71.0836 AVERAGE FETCH STALL: 14.9706 AVERAGE FETCH QUEUE STALL: 25.6032 AVERAGE DECODE STALL: 29.5793 AVERAGE EXECUTE STALL: 2.44425e+15
L2BTB BRANCH_INDIRECT	ACCESS:     106026 HIT:     103343 MISS:       2683 AVERAGE STALL: 140.445 AVERAGE FETCH STALL: 11.1375 AVERAGE FETCH QUEUE STALL: 25.0359 AVERAGE DECODE STALL: 16.1151 AVERAGE EXECUTE STALL: 87.1947
L2BTB BRANCH_CONDITIONAL	ACCESS:    1283636 HIT:    1278050 MISS:       5586 AVERAGE STALL: 71.5136 AVERAGE FETCH STALL: 23.2559 AVERAGE FETCH QUEUE STALL: 25.7133 AVERAGE DECODE STALL: 21.9256 AVERAGE EXECUTE STALL: 3.32194e+15
L2BTB BRANCH_DIRECT_CALL	ACCESS:     833094 HIT:     830925 MISS:       2169 AVERAGE STALL: 82.0135 AVERAGE FETCH STALL: 23.1881 AVERAGE FETCH QUEUE STALL: 36.8738 AVERAGE DECODE STALL: 21.148 AVERAGE EXECUTE STALL: 8.58787e+15
L2BTB BRANCH_INDIRECT_CALL	ACCESS:     139918 HIT:     129762 MISS:      10156 AVERAGE STALL: 170.299 AVERAGE FETCH STALL: 12.2296 AVERAGE FETCH QUEUE STALL: 22.9948 AVERAGE DECODE STALL: 16.0066 AVERAGE EXECUTE STALL: 118.58
L2BTB BRANCH_RETURN	ACCESS:     818290 HIT:     777040 MISS:      41250 AVERAGE STALL: 55.5661 AVERAGE FETCH STALL: 17.6377 AVERAGE FETCH QUEUE STALL: 6.73222 AVERAGE DECODE STALL: 6.96356 AVERAGE EXECUTE STALL: 4.32849e+14
L2BTB BRANCH_OTHER ACCESS:          0 HIT:          0 MISS:          0 AVERAGE STALL: -nan AVERAGE FETCH STALL: -nan AVERAGE FETCH QUEUE STALL: -nan AVERAGE DECODE STALL: -nan AVERAGE EXECUTE STALL: -nan
L2BTB TOTAL ROB OCCUPANCY AT BTB MISS: 163.057

L2C TOTAL     ACCESS:    9996402  HIT:    9445904  MISS:     550498  HIT %:     94.493  MISS %:    5.50696   MPKI: 11.01
L2C LOAD INSTRUCTION	ACCESS:    2742532  HIT:    2408086  MISS:     334446  HIT %:    87.8052  MISS %:    12.1948  MPKI: 6.68892
L2C LOAD TRANSLATION INSTRUCTION	ACCESS:        294  HIT:         74  MISS:        220  HIT %:    25.1701  MISS %:    74.8299  MPKI: 0.0044
L2C LOAD DATA	ACCESS:    3601144  HIT:    3519638  MISS:      81506  HIT %:    97.7367  MISS %:    2.26334  MPKI: 1.63012
L2C RFO DATA	ACCESS:    1577854  HIT:    1524691  MISS:      53163  HIT %:    96.6307  MISS %:    3.36932  MPKI: 1.06326
L2C PREFETCH DATA	ACCESS:     324918  HIT:     254920  MISS:      69998  HIT %:    78.4567  MISS %:    21.5433  MPKI: 1.39996
L2C WRITEBACK DATA	ACCESS:    1747719  HIT:    1737911  MISS:       9808  HIT %:    99.4388  MISS %:   0.561189  MPKI: 0.19616
L2C LOAD TRANSLATION DATA	ACCESS:       1941  HIT:        584  MISS:       1357  HIT %:    30.0876  MISS %:    69.9124  MPKI: 0.02714

L2C PREFETCH  REQUESTED:     101507  ISSUED:     101507  USEFUL:      13917  USELESS:      56637
L2C USEFUL LOAD PREFETCHES:      13917 PREFETCH ISSUED TO LOWER LEVEL:      70590  ACCURACY: 19.7153
 TIMELY PREFETCHES:      13917 LATE PREFETCHES: 592 DROPPED PREFETCHES: 0
L2C AVERAGE MISS LATENCY: 36.7963 cycles
L2C RQ	ACCESS:    8014281	FORWARD:          0	MERGED:          0	TO_CACHE:    7923765
L2C WQ	ACCESS:    1779102	FORWARD:      91728	MERGED:      31383	TO_CACHE:    1747719
L2C PQ	ACCESS:     332754	FORWARD:          0	MERGED:       2976	TO_CACHE:     328566

L2C Dense regions hint from L2: 0
PSCL5 TOTAL     ACCESS:       4250  HIT:       2125  MISS:       2125  HIT %:         50  MISS %:         50   MPKI: 0.0425
PSCL5 LOAD TRANSLATION INSTRUCTION	ACCESS:       4250  HIT:       2125  MISS:       2125  HIT %:         50  MISS %:         50  MPKI: 0.0425


PSCL4 TOTAL     ACCESS:       3863  HIT:       1929  MISS:       1934  HIT %:    49.9353  MISS %:    50.0647   MPKI: 0.03868
PSCL4 LOAD TRANSLATION INSTRUCTION	ACCESS:       3075  HIT:       1929  MISS:       1146  HIT %:    62.7317  MISS %:    37.2683  MPKI: 0.02292
PSCL4 LOAD TRANSLATION DATA	ACCESS:        788  HIT:          0  MISS:        788  HIT %:          0  MISS %:        100  MPKI: 0.01576


PSCL3 TOTAL     ACCESS:       4122  HIT:       2056  MISS:       2066  HIT %:    49.8787  MISS %:    50.1213   MPKI: 0.04132
PSCL3 LOAD TRANSLATION INSTRUCTION	ACCESS:       2171  HIT:       2056  MISS:        115  HIT %:    94.7029  MISS %:     5.2971  MPKI: 0.0023
PSCL3 LOAD TRANSLATION DATA	ACCESS:       1951  HIT:          0  MISS:       1951  HIT %:          0  MISS %:        100  MPKI: 0.03902


PSCL2 TOTAL     ACCESS:       4154  HIT:       2029  MISS:       2125  HIT %:    48.8445  MISS %:    51.1555   MPKI: 0.0425
PSCL2 LOAD TRANSLATION INSTRUCTION	ACCESS:       2289  HIT:       2029  MISS:        260  HIT %:    88.6413  MISS %:    11.3587  MPKI: 0.0052
PSCL2 LOAD TRANSLATION DATA	ACCESS:       1865  HIT:          0  MISS:       1865  HIT %:          0  MISS %:        100  MPKI: 0.0373


LLC TOTAL     ACCESS:     619449  HIT:     592848  MISS:      26601  HIT %:    95.7057  MISS %:     4.2943   MPKI: 0.53202
LLC LOAD INSTRUCTION	ACCESS:     334446  HIT:     333913  MISS:        533  HIT %:    99.8406  MISS %:   0.159368  MPKI: 0.01066
LLC LOAD TRANSLATION INSTRUCTION	ACCESS:        220  HIT:        191  MISS:         29  HIT %:    86.8182  MISS %:    13.1818  MPKI: 0.00058
LLC LOAD DATA	ACCESS:      80950  HIT:      77004  MISS:       3946  HIT %:    95.1254  MISS %:    4.87461  MPKI: 0.07892
LLC RFO DATA	ACCESS:      53102  HIT:      39717  MISS:      13385  HIT %:    74.7938  MISS %:    25.2062  MPKI: 0.2677
LLC PREFETCH DATA	ACCESS:      70590  HIT:      62223  MISS:       8367  HIT %:     88.147  MISS %:     11.853  MPKI: 0.16734
LLC WRITEBACK DATA	ACCESS:      78784  HIT:      78503  MISS:        281  HIT %:    99.6433  MISS %:   0.356671  MPKI: 0.00562
LLC LOAD TRANSLATION DATA	ACCESS:       1357  HIT:       1297  MISS:         60  HIT %:    95.5785  MISS %:    4.42152  MPKI: 0.0012

LLC AVERAGE MISS LATENCY: 150.468 cycles
LLC RQ	ACCESS:     470100	FORWARD:          0	MERGED:          0	TO_CACHE:     470075
LLC WQ	ACCESS:      78784	FORWARD:         25	MERGED:          0	TO_CACHE:      78784
LLC PQ	ACCESS:      70590	FORWARD:          0	MERGED:          0	TO_CACHE:      70590

LLC Dense regions hint to LLC: 0

RAW hits: 1963166
Loads Generated: 12604088
Loads sent to L1D: 10640922
Stores Generated: 6901385
Stores sent to L1D: 6901403
Major fault: 0 Minor fault: 2600
Allocated PAGES: 2600

stream: 
stream:times selected: 1260006
stream:pref_filled: 386977
stream:pref_useful: 25330
stream:pref_late: 39267
stream:misses: 113915
stream:misses_by_poll: 0

CS: 
CS:times selected: 195786
CS:pref_filled: 14197
CS:pref_useful: 752
CS:pref_late: 8293
CS:misses: 6873
CS:misses_by_poll: 0

CPLX: 
CPLX:times selected: 1258429
CPLX:pref_filled: 51622
CPLX:pref_useful: 2500
CPLX:pref_late: 8529
CPLX:misses: 751442
CPLX:misses_by_poll: 2

NL_L1: 
NL:times selected: 6362
NL:pref_filled: 2266
NL:pref_useful: 81
NL:pref_late: 335
NL:misses: 5099
NL:misses_by_poll: 0

total selections: 2720583
total_filled: 209302
total_useful: 32551
total_late: 60698
total_polluted: 2
total_misses_after_warmup: 3916479
conflicts: 5531927

test: 121427

DRAM Statistics
 CHANNEL 0
 RQ ROW_BUFFER_HIT:       9566  ROW_BUFFER_MISS:      16753
 DBUS_CONGESTED:          9
 WQ ROW_BUFFER_HIT:       1329  ROW_BUFFER_MISS:      12087  FULL:          0

 AVG_CONGESTED_CYCLE: 3

CPU 0 Branch Prediction Accuracy: 99.8227% MPKI: 0.3247 Average ROB Occupancy at Mispredict: 207.298
Branch types
NOT_BRANCH: 40842006 81.684%
BRANCH_DIRECT_JUMP: 545087 1.09017%
BRANCH_INDIRECT: 181892 0.363784%
BRANCH_CONDITIONAL: 6214603 12.4292%
BRANCH_DIRECT_CALL: 937390 1.87478%
BRANCH_INDIRECT_CALL: 170770 0.34154%
BRANCH_RETURN: 1108139 2.21628%
BRANCH_OTHER: 0 0%

DRAM PAGES: 1048576
Allocated PAGES: 2600
Average_ROB_Occupancy: 272.509
Average_Decode_Occupancy: 41.2711
Average_FTQ_Occupancy: 16.0481
Indirect max targets: 14 Average targets: 1.14478
Branch_type:  BRANCH_DIRECT_JUMP:  Count Percentage: 3.32704 6.00621 4.23779 7.9044 3.3151 6.01943 1.18464 68.0054 
Branch_type:  BRANCH_INDIRECT:  Count Percentage: 6.14169 3.48153 8.18425 9.67574 3.33826 2.80288 3.06906 63.3066 
Branch_type:  BRANCH_CONDITIONAL:  Count Percentage: 26.0831 2.72405 1.62149 4.56803 2.01565 3.53613 1.15365 58.2979 
Branch_type:  BRANCH_DIRECT_CALL:  Count Percentage: 0.847596 1.23517 0.745457 3.7102 3.21163 2.62085 0.834622 86.7945 
Branch_type:  BRANCH_INDIRECT_CALL:  Count Percentage: 5.25163 0 2.9833 0 1.28367 1.70462 7.54048 81.2363 
Branch_type:  BRANCH_RETURN:  Count Percentage: 8.21506 1.23954 1.20248 3.67014 4.41064 3.49654 1.25485 76.5108 
Branch_type:  BRANCH_DIRECT_JUMP:  Total Count: 36224 65394 46140 86061 36094 65538 12898 740425 
Branch_type:  BRANCH_INDIRECT:  Total Count: 22335 12661 29763 35187 12140 10193 11161 230222 
Branch_type:  BRANCH_CONDITIONAL:  Total Count: 3239237 338298 201372 567300 250322 439149 143271 7239965 
Branch_type:  BRANCH_DIRECT_CALL:  Total Count: 15875 23134 13962 69490 60152 49087 15632 1625612 
Branch_type:  BRANCH_INDIRECT_CALL:  Total Count: 17915 0 10177 0 4379 5815 25723 277123 
Branch_type:  BRANCH_RETURN:  Total Count: 181951 27454 26633 81288 97689 77443 27793 1694597 
Number of unique branch instructions: 10054
Upper 32 bits: 
aaaa
ffff
ffff0000
Unique upper 32 bits: 3
Unique upper 36 bits: 3
Unique upper 40 bits: 5
Unique upper 44 bits: 32
Unique upper 48 bits: 157
Variant_0 : 1385 0.338135
Variant_1 : 2653 0.647705
Variant_2 : 0 0
Variant_3 : 0 0
Offset_3 4136
Offset_4 251
Offset_5 460
Offset_6 515
Offset_7 583
Offset_8 514
Offset_9 482
Offset_10 381
Offset_11 314
Offset_12 272
Offset_13 215
Offset_14 229
Offset_15 192
Offset_16 224
Offset_17 151
Offset_18 126
Offset_19 240
Offset_20 140
Offset_21 241
Offset_22 397
Offset_23 241
Offset_24 333
Offset_25 88
Offset_47 82
Offset_64 1
decode_dispatch_called: 33074550 76.2316
Dispatch_width: 0 20336485 61.4868 46.8724
Dispatch_width: 1 1198825 3.62461 2.7631
Dispatch_width: 2 952872 2.88098 2.19622
Dispatch_width: 3 561101 1.69647 1.29325
Dispatch_width: 4 7426356 22.4534 17.1166
Dispatch_width: 5 86760 0.262316 0.199968
Dispatch_width: 6 2512151 7.59542 5.79011
Empty_decode_cycles: 10312391 23.7684
ROB_full_cycles: 17394893 40.0925
Starvation_cycles_per_kilo_instr: 234.799
Starvation_cycles_per_kilo_instr_3: 159.668
Starvation_cycles_per_kilo_instr_0: 132.54
Branch_type_1  (3,1)  (4,9)  (5,37)  (6,71)  (7,114)  (8,130)  (9,127)  (10,99)  (11,70)  (12,43)  (13,5)  (14,2)  (15,3)  (16,4)  (18,1)  (19,4)  (20,2)  (21,1)  (22,3)  (23,2)  (24,10)  (25,12) 
Branch_type_2  (3,1)  (5,1)  (8,3)  (9,3)  (12,1)  (13,1)  (14,1)  (16,3)  (17,2)  (20,2)  (21,2)  (23,5)  (24,1)  (47,38) 
Branch_type_3  (3,4134)  (4,242)  (5,418)  (6,429)  (7,440)  (8,320)  (9,267)  (10,156)  (11,127)  (12,50)  (13,4)  (64,1) 
Branch_type_4  (6,3)  (7,8)  (8,25)  (9,52)  (10,60)  (11,59)  (12,97)  (13,95)  (14,101)  (15,90)  (16,100)  (17,67)  (18,57)  (19,118)  (20,73)  (21,127)  (22,211)  (23,136)  (24,194)  (25,72) 
Branch_type_5  (8,2)  (9,1)  (10,3)  (11,5)  (12,3)  (13,14)  (14,16)  (15,11)  (16,20)  (17,12)  (18,16)  (19,12)  (20,10)  (21,13)  (22,42)  (23,26)  (24,37) 
Branch_type_6  (5,4)  (6,12)  (7,21)  (8,34)  (9,32)  (10,63)  (11,53)  (12,78)  (13,96)  (14,109)  (15,88)  (16,97)  (17,70)  (18,52)  (19,106)  (20,53)  (21,98)  (22,141)  (23,72)  (24,91)  (25,4)  (47,44) 
Unique trigger count: 
Variant_0_evicts_0 : 0
Variant_0_evicts_1 : 0
Variant_0_evicts_2 : 0
Variant_0_evicts_3 : 0
Variant_1_evicts_0 : 0
Variant_1_evicts_1 : 0
Variant_1_evicts_2 : 0
Variant_1_evicts_3 : 0
Variant_2_evicts_0 : 0
Variant_2_evicts_1 : 0
Variant_2_evicts_2 : 0
Variant_2_evicts_3 : 0
Variant_3_evicts_0 : 0
Variant_3_evicts_1 : 0
Variant_3_evicts_2 : 0
Variant_3_evicts_3 : 0
BTB PER SET UNIQUE ADDR: 16 12 8 11 13 10 5 12 11 15 11 15 9 11 12 7 8 11 14 16 9 10 9 8 9 10 12 12 14 10 8 15 13 8 6 12 11 12 9 8 8 9 12 13 8 8 10 9 11 12 14 11 13 13 9 6 4 7 10 10 15 12 8 12 12 13 11 14 12 12 11 12 14 10 10 7 8 11 9 13 15 7 7 16 11 9 10 9 6 12 6 12 10 12 8 15 6 10 14 17 15 14 10 8 13 13 7 13 8 11 8 10 13 10 5 7 10 9 6 11 11 5 6 8 9 13 6 14 16 8 9 16 9 9 11 7 7 12 8 12 8 14 9 10 9 6 13 12 8 13 9 9 8 12 9 16 11 13 9 9 10 9 13 12 13 10 10 7 11 10 7 14 9 6 7 8 9 7 9 9 13 10 8 17 11 15 9 8 12 9 12 10 7 12 12 9 7 8 10 10 8 14 11 11 7 11 15 9 8 16 13 12 10 12 5 13 10 17 10 12 9 11 6 10 10 13 14 11 5 14 11 10 9 11 9 12 12 9 9 8 6 9 12 16 9 13 10 6 16 13 10 16 9 7 12 13 9 6 12 9 7 9 5 12 7 8 8 9 12 6 9 12 8 10 10 9 9 16 10 12 11 11 10 7 11 8 11 15 16 14 8 10 11 11 8 11 7 10 12 10 7 12 10 17 10 10 11 11 12 11 6 17 10 13 12 10 12 13 15 16 7 10 11 12 13 11 11 12 8 8 11 15 6 15 10 13 13 14 10 13 9 8 6 12 15 9 7 7 11 6 11 12 10 15 13 10 10 10 9 9 11 12 10 13 12 12 4 7 14 8 14 6 11 11 10 13 11 11 14 10 8 6 7 12 8 8 17 8 9 12 8 10 9 16 12 7 10 12 15 12 10 11 9 9 12 11 15 15 13 11 11 8 9 14 8 9 7 16 16 14 8 12 14 14 9 12 7 8 11 7 15 7 9 9 12 14 14 6 11 12 11 8 9 11 14 11 8 9 10 10 12 18 12 10 18 13 10 9 9 12 9 12 10 12 14 9 9 9 8 13 12 12 11 12 13 13 9 13 6 10 13 15 12 12 10 15 14 13 13 12 13 14 9 7 11 13 11 13 9 8 10 10 10 16 10 11 8 11 12 14 12 15 12 12 9 13 10 15 10 7 6 7 10 11 10 9 16 8 8 13 15 8 10 13 11 10 11 12 11 9 12 9 10 11 13 8 8 14 11 10 10 12 11 11 6 14 11 9 12 10 9 13 7 11 10 16 12 12 11 12 12 8 16 15 7 10 10 12 10 11 9 8 8 12 9 13 7 12 17 14 9 12 13 12 14 8 9 11 11 8 11 8 8 7 12 10 13 12 8 12 15 15 7 12 5 16 7 6 13 10 13 10 10 9 11 14 8 15 7 14 5 15 14 7 10 12 11 11 8 10 10 12 13 15 11 8 12 10 10 12 8 9 10 16 10 11 9 12 11 9 11 10 14 13 11 11 12 6 9 12 13 7 12 11 12 16 9 11 10 11 7 17 11 12 11 9 7 13 11 17 15 11 8 7 8 10 9 9 9 14 5 14 15 14 7 15 8 8 9 12 13 15 12 8 11 11 14 13 6 12 9 14 11 8 10 10 12 10 10 8 13 10 10 8 7 10 11 13 10 11 11 11 12 11 12 9 11 12 15 10 10 13 11 10 7 10 13 9 11 7 7 9 8 11 11 9 6 11 12 13 11 11 9 9 9 7 14 10 9 9 9 13 9 11 9 10 11 10 8 6 7 6 14 8 12 13 9 8 17 13 17 13 13 12 12 12 13 13 10 11 11 15 17 11 12 14 14 10 5 16 11 17 8 11 10 10 8 8 10 13 16 16 13 9 10 12 14 10 10 10 12 8 13 9 12 12 11 12 9 14 10 8 9 14 8 9 9 7 10 13 11 9 9 8 13 10 11 9 13 10 9 13 10 13 9 7 12 8 10 11 14 7 14 11 10 15 12 9 9 8 9 9 10 6 9 9 10 6 8 12 10 10 15 14 6 15 6 14 17 13 8 10 10 13 11 12 14 14 11 9 13 10 10 11 9 7 6 7 9 7 10 13 11 10 8 11 7 10 12 11 9 13 10 11 10 13 12 10 11 9 10 13 8 11 6 9 7 13 11 10 11 10 11 13 8 9 13 10 14 11 10 14 11 14 12 8 13 11 10 14 8 16 10 14 11 17 10 10 11 12 16 12 11 7 11 7 8 12 9 11 14 15 10 10 12 13 10 9 9 10 12 10 11 9 12 11 5 8 7 9 8 12 13 8 
BTB PER SET COUNT: 487 14 1988 14 20 12 5 118 1464 18 12 718 20255 11 12 8 14 2265 425 28 17 12 420 111 19 13 15 15 374 11 8 19 22 11 7 94 21 20 12 9 10 14 15 104 1460 8 10 9 369 18 22 14 18 22 13 6 4 7 15 10 17 1696 8 15 14 23 13 924 13 19 1453 669 16 11 13 8 10 15 10 19 488 7 10 175 11 39 10 11 1459 18 8 792 10 58 8 25 113 16 19 23 17 21 19 8 1435 18 7 18 20 11 8 18 1011 15 6 9 12 15 1458 11 190 5 6 9 10 25 6 16 22 999 10 24 338 10 13 10 968 14 11 24 9 24 10 14 11 6 98 22 9 24 9 293 1298 14 9 20 405 17 10 12 17 10 94 15 21 13 13 7 12 1465 9 15 10 9 8 12 14 10 793 998 154 13 8 22 13 16 11 11 842 1002 19 11 7 14 15 101 9 10 20 10 9 21 968 13 8 14 19 268 965 1685 16 16 13 15 5 17 12 25 93 17 12 19 7 10 14 14 18 13 5 26 14 11 14 14 1002 111 14 19 11 17 998 10 1010 36 12 391 13 8 237 24 11 26 9 7 19 20 9 7 15 12 7 12 6 15 7 10 8 15 2052 11 11 394 9 13 10 9 14 23 12 12 26 19 13 7 11 8 12 910 19 17 9 14 14 15 11 13 10 12 18 653 7 16 479 23 12 145 20 12 15 16 8 21 14 18 1671 17 15 30 20 21 11 1233 17 14 540 12 12 17 9 13 14 26 38 27 13 18 18 210 14 14 11 1689 6 16 25 13 7 14 11 98 14 15 11 21 20 11 11 18 9 23 14 15 13 22 14 715 4 7 17 12 748 360 12 14 921 13 14 12 21 634 9 6 864 19 9 8 78 14 9 16 476 11 9 1454 12 10 16 14 23 22 13 12 1463 10 16 12 16 253 23 19 1597 9 11 327 11 11 8 23 158 20 11 15 17 19 11 16 11 10 17 7 17 7 11 14 16 31 121 356 12 14 1316 8 30 13 25 12 10 16 13 13 23 25 16 11 252 207 19 11 15 14 10 440 12 25 17 10 8798 18 10 17 14 14 13 22 15 18 11 1516 6 14 18 17 12 16 163 17 18 14 17 20 172 23 954 7 13 1071 584 627 12 8 10 14 12 145 12 13 10 14 17 23 13 461 1440 740 9 21 11 24 15 9 8 7 12 86 10 12 1677 388 10 1936 29 194 14 14 17 19 13 1005 15 664 14 12 18 12 21 9 9 24 14 972 11 16 1193 15 8 19 12 10 20 11 9 102 7 14 13 27 149 18 14 16 14 11 21 22 7 16 11 14 15 16 9 11 19 898 10 19 7 17 21 28 12 110 19 21 34 13 2903 18 319 8 17 10 9 14 15 11 23 29 8 18 20 372 11 14 5 20 7 7 19 10 16 11 16 176 14 22 8 29 8 365 8 268 937 7 15 16 15 13 8 10 13 16 17 974 20 8 15 10 12 12 10 11 12 20 2877 13 9 18 11 371 16 11 15 13 14 21 14 6 398 15 17 7 969 19 77 69 10 11 16 13 9 29 1923 25 254 12 7 21 255 29 20 11 8 8 8 19 10 11 12 20 6 30 1980 23 7 84 9 9 10 14 21 515 411 9 509 16 25 21 8 383 9 107 11 8 10 11 14 12 843 8 449 5751 39 103 9 17 268 14 218 17 998 17 850 23 17 10 401 12 20 14 11 17 21 633 7 14 16 9 19 7 8 13 10 171 12 11 6 14 16 17 15 368 11 11 13 13 23 15 12 1384 2015 15 13 16 11 12 15 12 12 7 93 963 21 8 39 523 10 9 23 1180 274 19 591 16 14 19 15 26 11 85 12 6887 19 1438 19 39 24 2448 5 2034 16 21 8 16 154 10 8 9 14 16 19 23 19 10 13 23 22 1002 12 18 22 150 17 11 105 14 16 14 13 20 839 512 16 16 10 12 11 7 16 14 21 9 11 9 16 16 15 13 20 10 13 39 12 15 10 7 16 10 12 12 28 8 17 15 506 339 15 9 9 14 10 14 11 6 14 13 20 6 16 18 10 13 26 859 7 20 6 20 155 21 10 10 12 13 35 15 773 70 15 14 17 1002 507 18 9 12 8 9 10 10 13 30 1389 14 9 2980 7 11 16 11 10 165 13 14 12 407 13 11 16 12 13 978 768 12 6 19 8 24 16 1329 15 16 11 16 11 13 1390 11 29 18 12 29 18 14 300 14 14 14 12 14 1001 18 13 25 16 24 254 1002 14 15 16 16 442 7 1468 8 8 1470 11 1582 15 61 10 11 15 16 17 10 10 10 1752 709 19 10 13 12 9 11 7 12 14 18 15 16 
To predecode: 0
Predecoding something: 0
Predecode request dropped: 0
sizeofblock_0 0
sizeofblock_1 50450
sizeofblock_2 85450
sizeofblock_3 0
sizeofblock_4 0
sizeofblock_5 0
sizeofblock_6 0
sizeofblock_7 0
sizeofblock_8 0
Variant_0 Correct: 1599640 Incorrect: 0 Accuracy: 1
Variant_1 Correct: 5686327 Incorrect: 0 Accuracy: 1
Variant_2 Correct: 0 Incorrect: 0 Accuracy: -nan
Variant_3 Correct: 0 Incorrect: 0 Accuracy: -nan
