
*** ChampSim Multicore Out-of-Order Simulator ***

Warmup Instructions: 50000000
Simulation Instructions: 50000000
Number of CPUs: 1
LLC sets: 2048
LLC ways: 16
Off-chip DRAM Size: 4096 MB Channels: 1 Width: 64-bit Data Rate: 6400 MT/s
CPU 0 runs ./micro_traces/srv518.trace.gz
.gz
ITLB has LRU replacement policy
DTLB has LRU replacement policy
STLB has LRU replacement policy
FDIP Prefetcher at L1I
L1I has LRU replacement policy
L1D has LRU replacement policy
Initialize SRRIP state for L2C
Initialize DRRIP state for LLC
Heartbeat_Variant_0 : 1062 0.259277 per_variant_size: 0 1062 0 0 0 0 0 0 0 
Heartbeat_Variant_1 : 1198 0.29248 per_variant_size: 0 847 351 0 0 0 0 0 0 
Heartbeat_Variant_2 : 1522 0.371582 per_variant_size: 0 939 419 117 47 0 0 0 0 
Heartbeat_Variant_3 : 0 0 per_variant_size: 0 0 0 0 0 0 0 0 0 
Heartbeat_Variant_0_evicts 0 : 14293 1 : 10304 2 : 12658 3 : 0 
Heartbeat_Variant_1_evicts 0 : 10239 1 : 0 2 : 12216 3 : 0 
Heartbeat_Variant_2_evicts 0 : 12615 1 : 12173 2 : 0 3 : 0 
Heartbeat_Variant_3_evicts 0 : 0 1 : 0 2 : 0 3 : 0 
Heartbeat CPU 0 instructions: 10000002 cycles: 2798203 heartbeat IPC: 3.57372 cumulative IPC: 3.57372 (Simulation time: 0 hr 2 min 11 sec) 
Heartbeat_Variant_0 : 1092 0.266602 per_variant_size: 0 1092 0 0 0 0 0 0 0 
Heartbeat_Variant_1 : 1201 0.293213 per_variant_size: 0 829 372 0 0 0 0 0 0 
Heartbeat_Variant_2 : 1516 0.370117 per_variant_size: 0 887 441 132 56 0 0 0 0 
Heartbeat_Variant_3 : 0 0 per_variant_size: 0 0 0 0 0 0 0 0 0 
Heartbeat_Variant_0_evicts 0 : 13645 1 : 9791 2 : 12022 3 : 0 
Heartbeat_Variant_1_evicts 0 : 9751 1 : 0 2 : 11381 3 : 0 
Heartbeat_Variant_2_evicts 0 : 12034 1 : 11346 2 : 0 3 : 0 
Heartbeat_Variant_3_evicts 0 : 0 1 : 0 2 : 0 3 : 0 
Heartbeat CPU 0 instructions: 20000001 cycles: 5596292 heartbeat IPC: 3.57387 cumulative IPC: 3.5738 (Simulation time: 0 hr 4 min 11 sec) 
Heartbeat_Variant_0 : 1057 0.258057 per_variant_size: 0 1057 0 0 0 0 0 0 0 
Heartbeat_Variant_1 : 1215 0.296631 per_variant_size: 0 832 383 0 0 0 0 0 0 
Heartbeat_Variant_2 : 1573 0.384033 per_variant_size: 0 934 443 129 67 0 0 0 0 
Heartbeat_Variant_3 : 0 0 per_variant_size: 0 0 0 0 0 0 0 0 0 
Heartbeat_Variant_0_evicts 0 : 13275 1 : 9593 2 : 11573 3 : 0 
Heartbeat_Variant_1_evicts 0 : 9525 1 : 0 2 : 11285 3 : 0 
Heartbeat_Variant_2_evicts 0 : 11684 1 : 11214 2 : 0 3 : 0 
Heartbeat_Variant_3_evicts 0 : 0 1 : 0 2 : 0 3 : 0 
Heartbeat CPU 0 instructions: 30000000 cycles: 8392500 heartbeat IPC: 3.57627 cumulative IPC: 3.57462 (Simulation time: 0 hr 6 min 12 sec) 
Heartbeat_Variant_0 : 1085 0.264893 per_variant_size: 0 1085 0 0 0 0 0 0 0 
Heartbeat_Variant_1 : 1210 0.29541 per_variant_size: 0 827 383 0 0 0 0 0 0 
Heartbeat_Variant_2 : 1552 0.378906 per_variant_size: 0 925 428 138 61 0 0 0 0 
Heartbeat_Variant_3 : 0 0 per_variant_size: 0 0 0 0 0 0 0 0 0 
Heartbeat_Variant_0_evicts 0 : 13614 1 : 9783 2 : 12201 3 : 0 
Heartbeat_Variant_1_evicts 0 : 9747 1 : 0 2 : 11619 3 : 0 
Heartbeat_Variant_2_evicts 0 : 12210 1 : 11589 2 : 0 3 : 0 
Heartbeat_Variant_3_evicts 0 : 0 1 : 0 2 : 0 3 : 0 
Heartbeat CPU 0 instructions: 40000001 cycles: 11189226 heartbeat IPC: 3.57561 cumulative IPC: 3.57487 (Simulation time: 0 hr 8 min 10 sec) 
Heartbeat_Variant_0 : 1078 0.263184 per_variant_size: 0 1078 0 0 0 0 0 0 0 
Heartbeat_Variant_1 : 1210 0.29541 per_variant_size: 0 837 373 0 0 0 0 0 0 
Heartbeat_Variant_2 : 1569 0.383057 per_variant_size: 0 927 447 134 61 0 0 0 0 
Heartbeat_Variant_3 : 0 0 per_variant_size: 0 0 0 0 0 0 0 0 0 
Heartbeat_Variant_0_evicts 0 : 14077 1 : 10281 2 : 12259 3 : 0 
Heartbeat_Variant_1_evicts 0 : 10210 1 : 0 2 : 12098 3 : 0 
Heartbeat_Variant_2_evicts 0 : 12337 1 : 12031 2 : 0 3 : 0 
Heartbeat_Variant_3_evicts 0 : 0 1 : 0 2 : 0 3 : 0 
Heartbeat CPU 0 instructions: 50000000 cycles: 13985945 heartbeat IPC: 3.57562 cumulative IPC: 3.57502 (Simulation time: 0 hr 10 min 8 sec) 

Warmup complete CPU 0 instructions: 50000004 cycles: 13985946 (Simulation time: 0 hr 10 min 8 sec) 

Cycle: 20000000 FTQ IN: 56599403 FTQ occupancy: 17.9635 DECODE IN: 56599403 DECODE occupancy: 45.8819 ROB IN: 56599391 ROB occupancy: 276.15 ROB OUT: 56599380
Heartbeat_Variant_0 : 1052 0.256836 per_variant_size: 0 1052 0 0 0 0 0 0 0 
Heartbeat_Variant_1 : 1254 0.306152 per_variant_size: 0 891 363 0 0 0 0 0 0 
Heartbeat_Variant_2 : 1553 0.37915 per_variant_size: 0 918 435 136 64 0 0 0 0 
Heartbeat_Variant_3 : 0 0 per_variant_size: 0 0 0 0 0 0 0 0 0 
Heartbeat_Variant_0_evicts 0 : 14168 1 : 10044 2 : 11932 3 : 0 
Heartbeat_Variant_1_evicts 0 : 10059 1 : 0 2 : 11907 3 : 0 
Heartbeat_Variant_2_evicts 0 : 11944 1 : 11879 2 : 0 3 : 0 
Heartbeat_Variant_3_evicts 0 : 0 1 : 0 2 : 0 3 : 0 
Heartbeat CPU 0 instructions: 60000002 cycles: 23235238 heartbeat IPC: 1.08116 cumulative IPC: 1.08116 (Simulation time: 0 hr 12 min 0 sec) 
Cycle: 30000000 FTQ IN: 10767195 FTQ occupancy: 6.38497 DECODE IN: 10767188 DECODE occupancy: 13.1139 ROB IN: 10767182 ROB occupancy: 107.728 ROB OUT: 10766845
Heartbeat_Variant_0 : 1051 0.256592 per_variant_size: 0 1051 0 0 0 0 0 0 0 
Heartbeat_Variant_1 : 1226 0.299316 per_variant_size: 0 869 357 0 0 0 0 0 0 
Heartbeat_Variant_2 : 1582 0.38623 per_variant_size: 0 949 433 139 61 0 0 0 0 
Heartbeat_Variant_3 : 0 0 per_variant_size: 0 0 0 0 0 0 0 0 0 
Heartbeat_Variant_0_evicts 0 : 14155 1 : 10067 2 : 12164 3 : 0 
Heartbeat_Variant_1_evicts 0 : 10081 1 : 0 2 : 11962 3 : 0 
Heartbeat_Variant_2_evicts 0 : 12151 1 : 12004 2 : 0 3 : 0 
Heartbeat_Variant_3_evicts 0 : 0 1 : 0 2 : 0 3 : 0 
Heartbeat CPU 0 instructions: 70000000 cycles: 32412531 heartbeat IPC: 1.08965 cumulative IPC: 1.08539 (Simulation time: 0 hr 13 min 40 sec) 
Cycle: 40000000 FTQ IN: 10901965 FTQ occupancy: 6.22787 DECODE IN: 10901834 DECODE occupancy: 12.8567 ROB IN: 10901792 ROB occupancy: 107.926 ROB OUT: 10902032
Heartbeat_Variant_0 : 1074 0.262207 per_variant_size: 0 1074 0 0 0 0 0 0 0 
Heartbeat_Variant_1 : 1202 0.293457 per_variant_size: 0 833 369 0 0 0 0 0 0 
Heartbeat_Variant_2 : 1590 0.388184 per_variant_size: 0 943 444 139 64 0 0 0 0 
Heartbeat_Variant_3 : 0 0 per_variant_size: 0 0 0 0 0 0 0 0 0 
Heartbeat_Variant_0_evicts 0 : 13584 1 : 9891 2 : 11820 3 : 0 
Heartbeat_Variant_1_evicts 0 : 9809 1 : 0 2 : 11507 3 : 0 
Heartbeat_Variant_2_evicts 0 : 11879 1 : 11452 2 : 0 3 : 0 
Heartbeat_Variant_3_evicts 0 : 0 1 : 0 2 : 0 3 : 0 
Heartbeat CPU 0 instructions: 80000002 cycles: 41629566 heartbeat IPC: 1.08495 cumulative IPC: 1.08524 (Simulation time: 0 hr 15 min 30 sec) 
Cycle: 50000000 FTQ IN: 10858811 FTQ occupancy: 6.50011 DECODE IN: 10858928 DECODE occupancy: 13.5148 ROB IN: 10858929 ROB occupancy: 111.67 ROB OUT: 10858689
Heartbeat_Variant_0 : 1063 0.259521 per_variant_size: 0 1063 0 0 0 0 0 0 0 
Heartbeat_Variant_1 : 1218 0.297363 per_variant_size: 0 834 384 0 0 0 0 0 0 
Heartbeat_Variant_2 : 1586 0.387207 per_variant_size: 0 959 430 133 64 0 0 0 0 
Heartbeat_Variant_3 : 0 0 per_variant_size: 0 0 0 0 0 0 0 0 0 
Heartbeat_Variant_0_evicts 0 : 13811 1 : 9739 2 : 11788 3 : 0 
Heartbeat_Variant_1_evicts 0 : 9752 1 : 0 2 : 11473 3 : 0 
Heartbeat_Variant_2_evicts 0 : 11786 1 : 11471 2 : 0 3 : 0 
Heartbeat_Variant_3_evicts 0 : 0 1 : 0 2 : 0 3 : 0 
Heartbeat CPU 0 instructions: 90000002 cycles: 50791230 heartbeat IPC: 1.0915 cumulative IPC: 1.0868 (Simulation time: 0 hr 17 min 13 sec) 
Heartbeat_Variant_0 : 1059 0.258545 per_variant_size: 0 1059 0 0 0 0 0 0 0 
Heartbeat_Variant_1 : 1247 0.304443 per_variant_size: 0 869 378 0 0 0 0 0 0 
Heartbeat_Variant_2 : 1561 0.381104 per_variant_size: 0 919 446 135 61 0 0 0 0 
Heartbeat_Variant_3 : 0 0 per_variant_size: 0 0 0 0 0 0 0 0 0 
Heartbeat_Variant_0_evicts 0 : 13652 1 : 9688 2 : 11838 3 : 0 
Heartbeat_Variant_1_evicts 0 : 9681 1 : 0 2 : 11182 3 : 0 
Heartbeat_Variant_2_evicts 0 : 11849 1 : 11146 2 : 0 3 : 0 
Heartbeat_Variant_3_evicts 0 : 0 1 : 0 2 : 0 3 : 0 
Heartbeat CPU 0 instructions: 100000001 cycles: 59864777 heartbeat IPC: 1.1021 cumulative IPC: 1.08983 (Simulation time: 0 hr 18 min 59 sec) 
Finished CPU 0 instructions: 50000001 cycles: 45878832 cumulative IPC: 1.08983 (Simulation time: 0 hr 18 min 59 sec) 

ChampSim completed all CPUs

Region of Interest Statistics

CPU 0 cumulative IPC: 1.08983 instructions: 50000001 cycles: 45878832
 Fetch stage stalled: 72.5279  Sim cycles: 45878832 fetch stall cycle: 33274935
 Empty decode stage: 64.1832  Sim cycles: 45878832 fetch stall cycle: 29446487
ITLB TOTAL     ACCESS:    5736546  HIT:    5244905  MISS:     491641  HIT %:    91.4297  MISS %:    8.57033   MPKI: 9.83282
ITLB LOAD TRANSLATION INSTRUCTION	ACCESS:    5633889  HIT:    5142248  MISS:     491641  HIT %:    91.2735  MISS %:    8.72649  MPKI: 9.83282
ITLB TRANSLATION FROM L1D PREFETCHER INSTRUCTION	ACCESS:     102657  HIT:     102657  MISS:          0  HIT %:        100  MISS %:          0  MPKI: 0

ITLB AVERAGE MISS LATENCY: 9.03452 cycles
ITLB RQ	ACCESS:    7533783	FORWARD:          0	MERGED:    1360163	TO_CACHE:    6173620

DTLB TOTAL     ACCESS:    9403282  HIT:    8932502  MISS:     470780  HIT %:    94.9935  MISS %:    5.00655   MPKI: 9.4156
DTLB LOAD TRANSLATION DATA	ACCESS:    9403282  HIT:    8932502  MISS:     470780  HIT %:    94.9935  MISS %:    5.00655  MPKI: 9.4156

DTLB AVERAGE MISS LATENCY: 9.28782 cycles
DTLB RQ	ACCESS:   13671320	FORWARD:          0	MERGED:    4235088	TO_CACHE:    9436232

STLB TOTAL     ACCESS:    1214441  HIT:    1212544  MISS:       1897  HIT %:    99.8438  MISS %:   0.156204   MPKI: 0.03794
STLB LOAD TRANSLATION INSTRUCTION	ACCESS:     491641  HIT:     491446  MISS:        195  HIT %:    99.9603  MISS %:  0.0396631  MPKI: 0.0039
STLB LOAD TRANSLATION DATA	ACCESS:     470475  HIT:     468793  MISS:       1682  HIT %:    99.6425  MISS %:   0.357511  MPKI: 0.03364
STLB TRANSLATION FROM L1D PREFETCHER DATA	ACCESS:     252325  HIT:     252305  MISS:         20  HIT %:    99.9921  MISS %: 0.00792629  MPKI: 0.0004

STLB AVERAGE MISS LATENCY: 67.9204 cycles
STLB RQ	ACCESS:    1335106	FORWARD:          0	MERGED:     120625	TO_CACHE:    1214481

STLB Hit, L1D data hit: 0
STLB Hit, L2C data hit: 0
STLB Hit, LLC data hit: 0
STLB Hit, LLC data miss: 0
STLB STLB hints to L2: 0
L1D TOTAL     ACCESS:   13449953  HIT:   12343464  MISS:    1106489  HIT %:    91.7733  MISS %:    8.22671   MPKI: 22.1298
L1D LOAD DATA	ACCESS:    6870341  HIT:    6142852  MISS:     727489  HIT %:    89.4112  MISS %:    10.5888  MPKI: 14.5498
L1D RFO DATA	ACCESS:    6246649  HIT:    5961614  MISS:     285035  HIT %:     95.437  MISS %:    4.56301  MPKI: 5.7007
L1D PREFETCH DATA	ACCESS:     332963  HIT:     238998  MISS:      93965  HIT %:    71.7791  MISS %:    28.2209  MPKI: 1.8793

L1D PREFETCH  REQUESTED:     745611  ISSUED:     745611  USEFUL:      33386  USELESS:      67708
L1D USEFUL LOAD PREFETCHES:      33386 PREFETCH ISSUED TO LOWER LEVEL:     101161  ACCURACY: 33.0028
 TIMELY PREFETCHES:      33386 LATE PREFETCHES: 7143 DROPPED PREFETCHES: 8
L1D AVERAGE MISS LATENCY: 237068 cycles
L1D RQ	ACCESS:   10929814	FORWARD:          0	MERGED:    3867945	TO_CACHE:    6899837
L1D WQ	ACCESS:    6939555	FORWARD:     162273	MERGED:     168072	TO_CACHE:    6771483
L1D PQ	ACCESS:     372926	FORWARD:          0	MERGED:          0	TO_CACHE:     372685

L1D UNIQUE REGIONS ACCESSED: 0
L1D REGIONS CONFLICTS: 0
L1D Cross Page Prefetch Requests: 6956
L1D Same Page Prefetch Requests: 755471
L1D ROI Sum of L1D PQ occupancy: 4725896
L1D PREFETCHES PUSHED FROM L2C: 0
L1I TOTAL     ACCESS:    7021955  HIT:    4268076  MISS:    2753879  HIT %:    60.7819  MISS %:    39.2181   MPKI: 55.0776
L1I LOAD INSTRUCTION	ACCESS:    6536746  HIT:    3782867  MISS:    2753879  HIT %:    57.8708  MISS %:    42.1292  MPKI: 55.0776
L1I PREFETCH INSTRUCTION	ACCESS:     485209  HIT:     485209  MISS:          0  HIT %:        100  MISS %:          0  MPKI: 0

L1I PREFETCH  REQUESTED:    1064383  ISSUED:    1064383  USEFUL:          0  USELESS:          0
L1I USEFUL LOAD PREFETCHES:          0 PREFETCH ISSUED TO LOWER LEVEL:          0  ACCURACY: -nan
 TIMELY PREFETCHES:          0 LATE PREFETCHES: 0 DROPPED PREFETCHES: 0
L1I AVERAGE MISS LATENCY: 17.5177 cycles
L1I RQ	ACCESS:    9435933	FORWARD:          0	MERGED:    2660559	TO_CACHE:    6775374
L1I PQ	ACCESS:    1064383	FORWARD:          0	MERGED:     305974	TO_CACHE:     758409

L1BTB TOTAL     ACCESS:    5672584  HIT:    2054521  MISS:    3618063  HIT %:    36.2184  MISS %:    63.7816   MPKI: 72.3613
L1BTB BRANCH_DIRECT_JUMP	ACCESS:     550040  HIT:     145886  MISS:     404154	AVERAGE STALL: 34.9741
L1BTB BRANCH_INDIRECT	ACCESS:     183638  HIT:      66485  MISS:     117153	AVERAGE STALL: 83.4333
L1BTB BRANCH_CONDITIONAL	ACCESS:    2717840  HIT:    1427066  MISS:    1290774	AVERAGE STALL: 35.8568
L1BTB BRANCH_DIRECT_CALL	ACCESS:     939770  HIT:     105164  MISS:     834606	AVERAGE STALL: 37.4973
L1BTB BRANCH_INDIRECT_CALL	ACCESS:     170781  HIT:      20756  MISS:     150025	AVERAGE STALL: 108.989
L1BTB BRANCH_RETURN	ACCESS:    1110515  HIT:     289164  MISS:     821351	AVERAGE STALL: 36.9018
L1BTB BRANCH_OTHER ACCESS:          0  HIT:          0  MISS:          0	AVERAGE STALL: -nan
L1BTB TOTAL ROB OCCUPANCY AT BTB MISS: 12.5641

L2BTB TOTAL     ACCESS:    3592527  HIT:    3101248  MISS:     491279  HIT %:     86.325  MISS %:     13.675   MPKI: 9.82558
L2BTB BRANCH_DIRECT_JUMP	ACCESS:     399920  HIT:     349006  MISS:      50914	AVERAGE STALL: 34.9741
L2BTB BRANCH_INDIRECT	ACCESS:     106889  HIT:      98176  MISS:       8713	AVERAGE STALL: 83.4333
L2BTB BRANCH_CONDITIONAL	ACCESS:    1290774  HIT:    1148965  MISS:     141809	AVERAGE STALL: 35.8568
L2BTB BRANCH_DIRECT_CALL	ACCESS:     834606  HIT:     676028  MISS:     158578	AVERAGE STALL: 37.4973
L2BTB BRANCH_INDIRECT_CALL	ACCESS:     140391  HIT:     106778  MISS:      33613	AVERAGE STALL: 108.989
L2BTB BRANCH_RETURN	ACCESS:     819947  HIT:     722295  MISS:      97652	AVERAGE STALL: 36.9018
L2BTB BRANCH_OTHER ACCESS:          0  HIT:          0  MISS:          0	AVERAGE STALL: -nan
L2BTB TOTAL ROB OCCUPANCY AT BTB MISS: 92.5295

L2C TOTAL     ACCESS:    4466304  HIT:    3955054  MISS:     511250  HIT %:    88.5532  MISS %:    11.4468   MPKI: 10.225
L2C LOAD INSTRUCTION	ACCESS:    2753879  HIT:    2462761  MISS:     291118  HIT %:    89.4288  MISS %:    10.5712  MPKI: 5.82236
L2C LOAD TRANSLATION INSTRUCTION	ACCESS:        214  HIT:         55  MISS:        159  HIT %:    25.7009  MISS %:    74.2991  MPKI: 0.00318
L2C LOAD DATA	ACCESS:     720311  HIT:     641368  MISS:      78943  HIT %:    89.0404  MISS %:    10.9596  MPKI: 1.57886
L2C RFO DATA	ACCESS:     284954  HIT:     231232  MISS:      53722  HIT %:    81.1471  MISS %:    18.8529  MPKI: 1.07444
L2C PREFETCH DATA	ACCESS:     187919  HIT:     117313  MISS:      70606  HIT %:    62.4274  MISS %:    37.5726  MPKI: 1.41212
L2C WRITEBACK DATA	ACCESS:     517272  HIT:     501846  MISS:      15426  HIT %:    97.0178  MISS %:    2.98218  MPKI: 0.30852
L2C LOAD TRANSLATION DATA	ACCESS:       1715  HIT:        451  MISS:       1264  HIT %:    26.2974  MISS %:    73.7026  MPKI: 0.02528
L2C TRANSLATION FROM L1D PREFETCHER DATA	ACCESS:         40  HIT:         28  MISS:         12  HIT %:         70  MISS %:         30  MPKI: 0.00024

L2C PREFETCH  REQUESTED:      94919  ISSUED:      94919  USEFUL:       8829  USELESS:      62279
L2C USEFUL LOAD PREFETCHES:       8829 PREFETCH ISSUED TO LOWER LEVEL:      71155  ACCURACY: 12.4081
 TIMELY PREFETCHES:       8829 LATE PREFETCHES: 549 DROPPED PREFETCHES: 0
L2C AVERAGE MISS LATENCY: 37.426 cycles
L2C RQ	ACCESS:    3761176	FORWARD:          0	MERGED:          0	TO_CACHE:    3761113
L2C WQ	ACCESS:     517272	FORWARD:         63	MERGED:          0	TO_CACHE:     517272
L2C PQ	ACCESS:     196080	FORWARD:          0	MERGED:       3706	TO_CACHE:     192374

L2C Dense regions hint from L2: 0
PSCL5 TOTAL     ACCESS:       3814  HIT:       1907  MISS:       1907  HIT %:         50  MISS %:         50   MPKI: 0.03814
PSCL5 LOAD TRANSLATION INSTRUCTION	ACCESS:       3734  HIT:       1867  MISS:       1867  HIT %:         50  MISS %:         50  MPKI: 0.03734
PSCL5 TRANSLATION FROM L1D PREFETCHER INSTRUCTION	ACCESS:         80  HIT:         40  MISS:         40  HIT %:         50  MISS %:         50  MPKI: 0.0008


PSCL4 TOTAL     ACCESS:       3789  HIT:       1894  MISS:       1895  HIT %:    49.9868  MISS %:    50.0132   MPKI: 0.0379
PSCL4 LOAD TRANSLATION INSTRUCTION	ACCESS:       1854  HIT:       1854  MISS:          0  HIT %:        100  MISS %:          0  MPKI: 0
PSCL4 TRANSLATION FROM L1D PREFETCHER INSTRUCTION	ACCESS:         40  HIT:         40  MISS:          0  HIT %:        100  MISS %:          0  MPKI: 0
PSCL4 LOAD TRANSLATION DATA	ACCESS:       1855  HIT:          0  MISS:       1855  HIT %:          0  MISS %:        100  MPKI: 0.0371
PSCL4 TRANSLATION FROM L1D PREFETCHER DATA	ACCESS:         40  HIT:          0  MISS:         40  HIT %:          0  MISS %:        100  MPKI: 0.0008


PSCL3 TOTAL     ACCESS:       3791  HIT:       1895  MISS:       1896  HIT %:    49.9868  MISS %:    50.0132   MPKI: 0.03792
PSCL3 LOAD TRANSLATION INSTRUCTION	ACCESS:       1855  HIT:       1855  MISS:          0  HIT %:        100  MISS %:          0  MPKI: 0
PSCL3 TRANSLATION FROM L1D PREFETCHER INSTRUCTION	ACCESS:         40  HIT:         40  MISS:          0  HIT %:        100  MISS %:          0  MPKI: 0
PSCL3 LOAD TRANSLATION DATA	ACCESS:       1856  HIT:          0  MISS:       1856  HIT %:          0  MISS %:        100  MPKI: 0.03712
PSCL3 TRANSLATION FROM L1D PREFETCHER DATA	ACCESS:         40  HIT:          0  MISS:         40  HIT %:          0  MISS %:        100  MPKI: 0.0008


PSCL2 TOTAL     ACCESS:       3754  HIT:       1847  MISS:       1907  HIT %:    49.2009  MISS %:    50.7991   MPKI: 0.03814
PSCL2 LOAD TRANSLATION INSTRUCTION	ACCESS:       2002  HIT:       1807  MISS:        195  HIT %:    90.2597  MISS %:    9.74026  MPKI: 0.0039
PSCL2 TRANSLATION FROM L1D PREFETCHER INSTRUCTION	ACCESS:         40  HIT:         40  MISS:          0  HIT %:        100  MISS %:          0  MPKI: 0
PSCL2 LOAD TRANSLATION DATA	ACCESS:       1672  HIT:          0  MISS:       1672  HIT %:          0  MISS %:        100  MPKI: 0.03344
PSCL2 TRANSLATION FROM L1D PREFETCHER DATA	ACCESS:         40  HIT:          0  MISS:         40  HIT %:          0  MISS %:        100  MPKI: 0.0008


LLC TOTAL     ACCESS:     573767  HIT:     546586  MISS:      27181  HIT %:    95.2627  MISS %:    4.73729   MPKI: 0.54362
LLC LOAD INSTRUCTION	ACCESS:     291118  HIT:     290439  MISS:        679  HIT %:    99.7668  MISS %:   0.233239  MPKI: 0.01358
LLC LOAD TRANSLATION INSTRUCTION	ACCESS:        159  HIT:        129  MISS:         30  HIT %:    81.1321  MISS %:    18.8679  MPKI: 0.0006
LLC LOAD DATA	ACCESS:      78400  HIT:      75130  MISS:       3270  HIT %:    95.8291  MISS %:    4.17092  MPKI: 0.0654
LLC RFO DATA	ACCESS:      53716  HIT:      40343  MISS:      13373  HIT %:    75.1043  MISS %:    24.8957  MPKI: 0.26746
LLC PREFETCH DATA	ACCESS:      71155  HIT:      61701  MISS:       9454  HIT %:    86.7135  MISS %:    13.2865  MPKI: 0.18908
LLC WRITEBACK DATA	ACCESS:      77943  HIT:      77629  MISS:        314  HIT %:    99.5971  MISS %:   0.402858  MPKI: 0.00628
LLC LOAD TRANSLATION DATA	ACCESS:       1264  HIT:       1203  MISS:         61  HIT %:    95.1741  MISS %:    4.82595  MPKI: 0.00122
LLC TRANSLATION FROM L1D PREFETCHER DATA	ACCESS:         12  HIT:         12  MISS:          0  HIT %:        100  MISS %:          0  MPKI: 0

LLC AVERAGE MISS LATENCY: 155.474 cycles
LLC RQ	ACCESS:     424669	FORWARD:          0	MERGED:          0	TO_CACHE:     424669
LLC WQ	ACCESS:      77943	FORWARD:          0	MERGED:          0	TO_CACHE:      77943
LLC PQ	ACCESS:      71155	FORWARD:          0	MERGED:          0	TO_CACHE:      71155

LLC Dense regions hint to LLC: 0

RAW hits: 1705010
Loads Generated: 12634824
Loads sent to L1D: 10929814
Stores Generated: 6939544
Stores sent to L1D: 6939555
Major fault: 0 Minor fault: 2500
Allocated PAGES: 2500

stream: 
stream:times selected: 1197757
stream:pref_filled: 120522
stream:pref_useful: 23927
stream:pref_late: 6577
stream:misses: 8033
stream:misses_by_poll: 0

CS: 
CS:times selected: 178060
CS:pref_filled: 59161
CS:pref_useful: 35804
CS:pref_late: 6325
CS:misses: 14950
CS:misses_by_poll: 3

CPLX: 
CPLX:times selected: 1018572
CPLX:pref_filled: 19729
CPLX:pref_useful: 4633
CPLX:pref_late: 3038
CPLX:misses: 91724
CPLX:misses_by_poll: 2

NL_L1: 
NL:times selected: 21210
NL:pref_filled: 687
NL:pref_useful: 249
NL:pref_late: 355
NL:misses: 1785
NL:misses_by_poll: 0

total selections: 2415599
total_filled: 93965
total_useful: 33386
total_late: 17539
total_polluted: 5
total_misses_after_warmup: 756985
conflicts: 5656763

test: 116195

DRAM Statistics
 CHANNEL 0
 RQ ROW_BUFFER_HIT:       9836  ROW_BUFFER_MISS:      17022
 DBUS_CONGESTED:          8
 WQ ROW_BUFFER_HIT:       1287  ROW_BUFFER_MISS:      12295  FULL:          0

 AVG_CONGESTED_CYCLE: 5

CPU 0 Branch Prediction Accuracy: 99.8245% MPKI: 0.321 Average ROB Occupancy at Mispredict: 123.15
Branch types
NOT_BRANCH: 40856446 81.7129%
BRANCH_DIRECT_JUMP: 550040 1.10008%
BRANCH_INDIRECT: 183638 0.367276%
BRANCH_CONDITIONAL: 6188335 12.3767%
BRANCH_DIRECT_CALL: 939770 1.87954%
BRANCH_INDIRECT_CALL: 170781 0.341562%
BRANCH_RETURN: 1110515 2.22103%
BRANCH_OTHER: 0 0%

DRAM PAGES: 1048576
Allocated PAGES: 2500
Average_ROB_Occupancy: 110.454
Average_Decode_Occupancy: 13.1632
Average_FTQ_Occupancy: 6.3548
Indirect max targets: 14 Average targets: 1.14527
Branch_type:  BRANCH_DIRECT_JUMP:  Count Percentage: 3.83254 5.22747 4.46891 7.21447 2.9599 6.01204 1.52967 68.755 
Branch_type:  BRANCH_INDIRECT:  Count Percentage: 6.15595 3.45596 8.18332 9.69391 3.33391 2.79888 3.05958 63.3185 
Branch_type:  BRANCH_CONDITIONAL:  Count Percentage: 26.3254 2.09831 1.5393 3.86457 2.04745 3.99283 1.24759 58.8845 
Branch_type:  BRANCH_DIRECT_CALL:  Count Percentage: 0.391287 1.2672 0.768944 2.87009 3.03196 2.63375 1.24132 87.7955 
Branch_type:  BRANCH_INDIRECT_CALL:  Count Percentage: 9.55481 0 2.99431 0 0 1.71091 3.28859 82.4514 
Branch_type:  BRANCH_RETURN:  Count Percentage: 7.91486 1.39208 1.04642 4.08364 3.64945 4.32702 1.57551 76.011 
Branch_type:  BRANCH_DIRECT_JUMP:  Total Count: 42127 57460 49122 79301 32535 66084 16814 755751 
Branch_type:  BRANCH_INDIRECT:  Total Count: 22597 12686 30039 35584 12238 10274 11231 232427 
Branch_type:  BRANCH_CONDITIONAL:  Total Count: 3256597 259572 190420 478068 253281 493935 154334 7284329 
Branch_type:  BRANCH_DIRECT_CALL:  Total Count: 7349 23800 14442 53905 56945 49466 23314 1648940 
Branch_type:  BRANCH_INDIRECT_CALL:  Total Count: 32631 0 10226 0 0 5843 11231 281583 
Branch_type:  BRANCH_RETURN:  Total Count: 175743 30910 23235 90674 81033 96078 34983 1687763 
Number of unique branch instructions: 9803
Upper 32 bits: 
aaaa
ffff
ffff0000
Unique upper 32 bits: 3
Unique upper 36 bits: 3
Unique upper 40 bits: 5
Unique upper 44 bits: 32
Unique upper 48 bits: 154
Variant_0 : 1059 0.258545
Variant_1 : 1247 0.304443
Variant_2 : 1561 0.381104
Variant_3 : 0 0
Offset_3 4033
Offset_4 245
Offset_5 448
Offset_6 499
Offset_7 572
Offset_8 504
Offset_9 464
Offset_10 376
Offset_11 300
Offset_12 269
Offset_13 203
Offset_14 225
Offset_15 184
Offset_16 220
Offset_17 143
Offset_18 118
Offset_19 234
Offset_20 137
Offset_21 235
Offset_22 389
Offset_23 241
Offset_24 331
Offset_25 88
Offset_47 82
decode_dispatch_called: 20196026 44.0204
Dispatch_width: 0 10167678 50.3449 22.162
Dispatch_width: 1 537306 2.66045 1.17114
Dispatch_width: 2 684402 3.3888 1.49176
Dispatch_width: 3 464438 2.29965 1.01231
Dispatch_width: 4 1498590 7.42022 3.26641
Dispatch_width: 5 355789 1.76168 0.775497
Dispatch_width: 6 6487823 32.1243 14.1412
Empty_decode_cycles: 25682806 55.9796
ROB_full_cycles: 1860799 4.0559
Starvation_cycles_per_kilo_instr: 375.302
Starvation_cycles_per_kilo_instr_3: 356.758
Starvation_cycles_per_kilo_instr_0: 339.897
Branch_type_1  (3,1)  (4,9)  (5,37)  (6,68)  (7,113)  (8,128)  (9,123)  (10,97)  (11,67)  (12,43)  (13,5)  (14,2)  (15,3)  (16,4)  (18,1)  (19,4)  (20,2)  (21,1)  (22,3)  (23,2)  (24,10)  (25,12) 
Branch_type_2  (3,1)  (5,1)  (8,3)  (9,3)  (12,1)  (13,1)  (14,1)  (16,3)  (17,2)  (20,2)  (21,2)  (23,5)  (24,1)  (47,38) 
Branch_type_3  (3,4031)  (4,236)  (5,406)  (6,416)  (7,430)  (8,314)  (9,255)  (10,152)  (11,120)  (12,50)  (13,4) 
Branch_type_4  (6,3)  (7,8)  (8,24)  (9,52)  (10,60)  (11,57)  (12,96)  (13,88)  (14,99)  (15,86)  (16,98)  (17,64)  (18,53)  (19,114)  (20,72)  (21,124)  (22,206)  (23,136)  (24,192)  (25,72) 
Branch_type_5  (8,2)  (9,1)  (10,3)  (11,5)  (12,3)  (13,14)  (14,16)  (15,11)  (16,20)  (17,11)  (18,16)  (19,12)  (20,10)  (21,13)  (22,42)  (23,26)  (24,37) 
Branch_type_6  (5,4)  (6,12)  (7,21)  (8,33)  (9,30)  (10,64)  (11,51)  (12,76)  (13,91)  (14,107)  (15,84)  (16,95)  (17,66)  (18,48)  (19,104)  (20,51)  (21,95)  (22,138)  (23,72)  (24,91)  (25,4)  (47,44) 
Unique trigger count: 
Variant_0_evicts_0 : 0
Variant_0_evicts_1 : 0
Variant_0_evicts_2 : 0
Variant_0_evicts_3 : 0
Variant_1_evicts_0 : 0
Variant_1_evicts_1 : 0
Variant_1_evicts_2 : 0
Variant_1_evicts_3 : 0
Variant_2_evicts_0 : 0
Variant_2_evicts_1 : 0
Variant_2_evicts_2 : 0
Variant_2_evicts_3 : 0
Variant_3_evicts_0 : 0
Variant_3_evicts_1 : 0
Variant_3_evicts_2 : 0
Variant_3_evicts_3 : 0
BTB PER SET UNIQUE ADDR: 2 7 3 7 5 6 7 6 2 6 5 4 2 5 11 8 4 4 4 2 5 9 7 8 4 6 4 3 5 9 6 5 4 7 5 8 6 3 5 9 4 8 3 3 8 5 4 4 7 7 9 5 6 2 2 8 5 3 7 5 4 7 4 8 7 2 5 4 4 8 6 5 5 7 7 9 3 5 5 6 10 7 5 9 6 4 6 3 5 7 5 8 7 8 4 2 4 2 4 7 6 2 4 7 4 4 4 5 6 10 7 2 3 8 2 5 4 6 4 10 5 4 5 4 9 7 3 6 5 2 3 6 3 5 8 6 5 2 7 6 3 4 9 7 4 9 5 5 5 7 3 2 3 10 2 5 6 3 6 5 2 6 4 6 9 2 1 3 9 8 6 6 5 4 4 5 3 6 6 6 5 5 4 9 6 5 4 5 5 5 5 3 6 7 3 5 5 6 5 3 6 7 3 5 1 9 2 5 8 4 2 2 7 6 6 5 6 4 3 5 4 8 6 7 6 10 7 3 7 9 3 5 6 11 3 7 3 6 6 6 4 6 5 5 6 4 4 4 5 6 3 7 4 3 5 5 3 4 7 1 10 7 6 4 4 4 5 5 8 5 7 7 6 6 5 5 6 2 6 8 8 2 4 7 2 5 11 4 9 5 4 2 10 7 8 5 3 2 7 4 13 3 5 9 4 3 6 7 7 3 7 2 8 5 5 4 4 7 6 3 9 8 3 5 9 6 3 5 3 8 4 11 3 5 4 4 7 7 6 7 3 5 6 3 5 6 4 7 2 4 6 8 5 2 7 4 4 6 5 4 11 6 5 6 6 9 6 7 2 3 9 7 9 4 5 4 8 7 5 1 4 5 4 4 8 3 3 6 3 5 5 2 4 7 3 3 6 2 5 3 7 7 5 4 4 9 11 5 9 1 5 4 1 5 6 3 5 4 4 6 6 1 4 5 7 4 7 8 6 5 8 3 3 4 7 1 4 2 2 4 9 5 3 1 3 1 4 5 7 4 9 2 5 4 5 3 7 2 12 5 5 6 4 12 2 10 4 6 2 6 5 7 2 7 4 8 4 2 4 7 5 2 6 5 4 5 5 5 5 7 7 4 6 5 8 4 7 6 3 8 3 3 3 4 5 6 6 5 2 4 7 3 4 3 5 5 9 6 7 5 6 6 9 3 6 13 3 3 5 3 9 7 4 3 3 5 6 9 3 6 3 8 12 12 5 4 7 10 6 3 3 8 2 5 6 8 7 1 6 4 4 3 5 8 6 3 4 4 10 5 5 4 1 7 2 7 9 2 6 5 2 9 2 8 3 4 3 1 5 9 8 6 6 7 3 6 13 8 5 5 8 2 4 2 5 11 8 2 4 4 4 3 5 6 1 4 10 4 8 8 4 5 5 1 6 6 3 5 5 4 5 8 4 5 6 6 3 9 5 11 3 5 5 4 4 6 6 4 4 5 4 5 5 8 5 7 6 3 3 5 4 5 5 8 5 5 2 9 8 6 7 5 7 4 8 4 4 7 4 7 7 9 3 7 7 8 4 8 8 3 6 2 4 7 5 9 3 7 5 9 7 6 4 3 10 4 2 7 7 6 5 2 2 7 5 5 7 7 5 3 6 6 3 7 5 9 8 7 4 7 4 5 9 5 6 2 7 5 3 8 4 11 4 6 5 3 6 3 5 5 6 4 6 5 9 9 9 1 3 8 7 4 6 6 8 8 7 12 5 5 6 5 1 6 6 6 5 7 4 7 6 4 4 4 7 5 4 6 5 9 6 4 5 5 8 6 8 3 5 5 5 6 7 4 4 2 5 4 6 5 6 2 1 5 8 6 11 3 6 5 8 4 4 4 5 6 6 6 10 4 7 6 3 7 4 4 6 4 2 5 1 9 5 4 5 4 4 6 3 4 3 7 5 3 6 3 10 6 4 4 1 6 4 8 6 7 7 4 5 5 4 4 5 3 2 4 4 7 0 6 6 5 6 4 4 5 7 10 3 0 9 3 3 1 4 6 4 8 6 2 7 2 7 5 5 2 5 6 6 10 6 3 5 8 8 9 5 6 9 5 9 1 6 8 2 2 6 7 7 4 3 8 7 3 5 6 4 4 2 6 7 4 4 2 5 3 3 3 6 4 9 7 6 2 11 5 8 3 4 2 5 3 8 4 5 3 8 5 2 4 5 1 2 7 2 4 2 10 5 7 4 5 7 4 8 3 3 5 6 4 3 5 7 11 6 3 5 5 4 2 6 5 7 4 3 4 5 7 4 6 3 9 9 5 6 5 5 7 3 4 5 3 4 6 9 4 7 7 4 5 6 3 6 5 5 7 8 5 2 4 6 5 5 7 8 5 4 6 3 4 5 5 6 4 3 7 11 8 4 2 4 6 5 5 4 7 9 6 10 7 1 5 2 7 9 4 5 7 6 3 8 1 4 5 6 6 4 3 3 9 7 9 6 5 6 4 4 2 5 3 5 11 7 9 3 6 3 6 3 2 6 7 4 5 9 2 6 6 4 6 6 4 4 8 4 8 6 7 3 3 6 6 8 3 4 4 5 5 3 4 8 11 7 3 5 6 3 5 4 5 6 6 2 5 3 3 5 9 7 5 4 2 6 5 2 3 6 9 6 7 10 5 6 3 4 10 3 7 4 6 10 2 10 4 4 4 6 3 6 8 10 9 4 2 7 4 7 5 4 2 7 3 3 3 6 6 5 1 8 4 5 3 5 7 1 6 7 3 8 5 9 2 5 4 5 8 8 5 7 6 3 3 4 2 8 5 3 6 3 3 6 5 6 4 7 6 8 5 2 7 5 7 2 3 5 2 3 3 2 5 3 4 5 3 5 3 7 6 4 10 6 4 10 3 4 7 6 8 7 3 8 4 7 7 5 4 4 6 11 9 7 5 7 10 4 5 6 5 5 6 2 5 5 8 7 6 7 9 8 7 13 7 4 5 11 5 3 4 4 4 3 6 5 6 6 3 5 4 9 11 5 5 4 7 7 4 7 7 6 6 6 6 6 6 9 10 4 5 9 5 5 3 5 7 5 2 8 2 3 6 4 9 8 7 6 2 5 4 5 7 3 6 5 13 9 7 4 4 2 5 2 5 3 6 4 4 6 5 6 2 2 5 9 8 1 5 6 4 5 4 7 4 9 3 2 4 9 8 5 6 2 4 8 5 9 6 3 2 2 5 7 7 6 8 7 9 5 5 3 6 8 4 6 6 10 6 6 9 7 3 8 7 6 4 4 5 7 3 8 4 3 5 2 6 6 4 5 5 10 5 6 4 5 7 10 5 5 6 4 9 4 4 7 1 4 3 5 5 4 10 4 7 4 6 7 4 6 4 6 5 7 5 5 8 5 10 6 3 7 2 7 4 10 8 8 7 9 4 7 3 6 7 10 4 4 6 7 8 6 11 9 1 5 7 5 4 12 6 6 3 4 5 5 2 5 8 6 5 2 6 4 3 7 6 5 7 4 7 3 2 5 6 4 5 3 6 4 8 5 4 2 8 5 4 4 4 4 6 6 6 8 3 4 4 1 6 5 7 7 2 4 6 4 6 3 7 8 4 4 7 6 5 3 5 6 3 3 6 4 7 6 5 6 6 4 5 11 6 9 7 5 6 8 4 3 6 4 5 9 4 3 10 7 8 5 7 3 3 3 4 4 8 8 4 8 6 7 4 6 7 5 6 7 2 7 6 6 6 4 8 10 5 3 5 5 4 3 4 6 4 3 6 3 6 7 4 5 4 1 2 6 4 3 2 6 5 1 5 4 3 8 5 6 3 1 5 6 6 13 3 3 6 3 3 4 4 1 5 4 5 2 5 4 2 4 8 9 3 3 4 2 2 6 7 5 3 4 5 4 6 1 4 3 9 6 5 7 4 4 3 5 3 4 5 3 7 3 5 8 8 6 4 7 4 3 6 5 9 5 5 7 3 3 3 5 7 1 1 3 4 6 8 3 7 4 7 5 5 7 4 3 5 7 10 0 7 4 9 6 9 5 10 1 6 11 7 7 6 2 6 4 7 3 6 4 6 6 5 4 7 4 5 3 4 2 1 4 2 5 2 6 5 6 2 5 3 3 8 2 6 3 4 7 6 6 7 6 4 6 3 5 8 2 3 6 5 4 4 5 8 4 5 3 3 7 6 4 6 4 7 3 5 5 8 5 2 4 8 6 5 2 3 7 4 6 6 2 6 4 3 3 8 3 7 5 4 4 9 4 10 4 5 3 4 5 10 5 6 3 3 2 3 2 5 2 10 1 6 2 5 3 4 3 5 4 5 2 1 3 8 2 5 5 4 3 7 5 4 4 6 6 7 7 2 4 8 1 5 11 4 1 1 9 9 2 8 7 8 5 5 6 4 8 5 7 6 4 0 5 3 5 8 4 7 8 9 4 4 2 7 3 7 6 7 8 8 6 5 7 9 7 3 5 6 6 5 5 6 3 11 3 7 6 10 6 3 5 9 3 4 4 5 3 3 8 8 4 6 3 6 2 5 7 7 3 4 1 3 7 4 0 3 7 9 3 4 4 8 8 6 4 10 7 5 4 9 5 5 7 3 3 11 3 3 6 5 4 16 4 8 4 7 4 5 4 6 7 7 
BTB PER SET COUNT: 2 1878 751 929 866 317 439 900 2 805 1007 353 2 746 1204 193 757 178 1179 8 475 1574 1026 527 575 597 367 326 631 1003 844 104 253 1150 723 856 826 160 437 1557 6 1652 3 10 2642 767 189 230 196 921 1819 529 1066 2 2 781 1006 1171 682 51 1152 1037 305 354 181 5 253 286 4 1219 874 261 242 767 472 1610 4 1032 1283 242 683 401 232 1565 838 131 1091 3 690 1729 782 1132 1007 1121 5 63 268 2 304 609 678 2 399 193 81 151 43 622 672 964 358 2 122 1297 3 205 451 19 528 2636 406 575 1954 239 290 1101 7 394 883 2 3 577 3 334 639 632 266 141 1050 1044 4 638 1455 609 4 434 7 484 412 784 269 452 3 889 2 1802 225 744 623 288 2 507 4 419 710 77 1 3 317 829 179 698 296 187 388 427 130 241 80 846 71 683 314 624 566 477 5 10 10 190 45 3 1042 706 3 492 222 671 1366 3 336 382 110 165 1 1053 2 559 630 4 3 2 996 776 292 492 913 247 375 200 210 958 335 1283 2052 1446 194 167 223 1667 305 200 304 5698 283 646 3 383 447 936 689 87 713 254 410 388 328 679 240 468 3 671 4 244 467 127 289 353 531 1 440 578 502 319 142 552 7 550 829 275 531 632 198 545 606 999 170 315 525 733 567 2 373 1008 2 658 1891 279 583 8 6 2 1395 629 796 268 7 2 422 240 1033 210 1468 720 219 6 707 12 502 5 183 2 911 360 5 448 4 851 368 4 610 461 216 300 1309 389 412 214 4 396 4 1696 201 741 242 237 876 419 299 607 3 370 366 3 702 294 4 826 2 307 356 208 424 2 672 6 349 575 683 175 1940 323 436 1221 292 3095 830 1354 2 3 670 529 3217 9 525 278 708 489 276 1 113 1213 101 503 928 305 4 536 58 274 430 2 665 288 100 3 1684 3 511 40 716 752 331 267 411 1278 2603 624 829 1 252 337 1 453 928 238 369 436 266 681 484 1 4 586 794 822 625 639 1141 467 1576 40 3 448 840 2 333 5 2 161 2090 375 3 1 504 1 362 37 784 580 1722 214 314 305 650 4 645 3 1696 274 1207 326 39 1001 7 1018 408 221 2 593 413 541 2 423 951 203 146 3 307 711 132 2 211 547 6 429 141 428 254 929 451 389 90 702 845 940 892 514 86 873 3 229 3 298 5 479 239 124 2 44 1051 335 1109 1097 5 518 1037 1451 1142 634 369 574 1530 3 539 2014 48 5 294 4 2371 839 167 27 5 131 528 640 571 290 327 684 1261 1679 462 1170 1053 1667 766 66 3 1366 1013 684 412 770 1222 1 132 169 954 7748 462 897 444 4 1184 164 2124 509 245 295 1 1377 2 1192 1267 2 422 239 4 668 2 896 3 311 223 1 7 2172 924 605 849 1229 232 1725 1075 965 426 363 826 2 585 92 159 830 1259 2 200 240 414 104 1182 393 1 311 1157 335 10737 925 311 319 467 1 753 287 467 191 550 452 618 944 90 795 456 724 3 1075 589 2447 5 272 444 12 5 1066 273 233 162 698 715 335 225 919 148 383 413 289 3 54 454 624 398 154 228 877 2 1820 822 937 415 447 720 304 959 408 381 1433 319 869 1148 768 106 1503 592 1191 411 1157 165 192 623 2 341 910 274 1466 106 1740 388 1725 657 1268 9 3 1274 121 4 401 1589 749 386 2 276 882 104 1011 468 482 371 183 409 610 749 825 501 1174 1007 926 994 674 339 409 767 323 11 4 10 550 161 2500 4 2212 238 333 251 4 381 170 6 686 492 282 201 346 201 826 823 1 3 869 553 300 289 163 170 224 766 1940 665 5 175 409 1 390 804 1224 384 729 369 665 785 109 163 186 748 5 729 755 257 1267 627 444 790 5 104 1032 211 139 288 185 206 46 627 923 291 2 143 4 274 176 395 2 1 273 1088 551 1937 390 816 98 738 380 125 210 448 1074 483 524 1781 525 693 487 136 834 24 177 1444 155 2 425 10 1724 509 638 499 6 136 854 9 832 3 602 44 248 689 27 948 156 214 6 1 498 174 327 511 319 1441 258 785 113 757 219 427 4 2 51 1309 1237 0 976 400 1012 536 184 12 501 272 1663 60 0 1787 46 111 1 6 844 627 1012 956 241 958 155 800 1008 203 128 82 116 451 1056 726 308 541 692 901 1005 217 696 1496 935 1841 1 124 462 182 3 1443 342 312 393 4 964 1479 331 283 472 261 244 97 1087 1043 4 5 2 1087 384 3 13 278 4 1375 1057 485 2 2305 502 1507 3 1909 278 639 144 820 425 300 6 606 567 2 282 6 1 251 1216 3 83 91 1458 446 412 492 248 916 17 784 130 3 1000 10 163 4 407 910 1094 415 8 329 1713 6 2 516 376 673 1414 298 7 354 1467 1014 510 3 788 1201 343 559 103 214 1222 3 24 504 317 503 212 589 240 889 1236 5 173 772 3 962 582 672 842 555 381 1459 181 447 662 6 543 346 785 509 36 105 5 323 257 284 105 376 16 1082 1768 341 2 5 718 469 782 472 615 911 755 540 527 1 429 2 1237 933 221 178 777 166 3 1314 1 181 402 299 287 17 77 77 692 995 1074 651 8 473 634 222 2 289 3 238 2033 712 1695 389 830 4 198 4 159 183 714 107 1358 860 2 6 654 7 315 355 16 391 134 4 900 498 421 3 4 118 516 491 8 472 247 188 766 3 350 954 10260 1233 307 716 7 4 618 50 383 122 442 2 208 3 901 128 1321 1345 182 83 2 667 292 386 7 231 361 140 698 1017 8 429 449 73 1337 8 148 478 753 813 97 1461 411 353 264 175 294 1145 822 1199 679 207 2 1763 176 1120 401 604 151 615 47 4 4 691 825 1154 1 925 391 725 3 296 1479 1 223 842 116 662 270 795 5 541 66 512 808 676 235 398 144 3 79 439 2 1338 325 11 488 174 3 405 497 7 244 384 286 26 104 71 371 357 530 2 245 519 2 3 102 2 20 4 199 5 3 665 3 523 216 230 685 443 260 1203 3 203 491 287 1140 720 322 1520 17 164 499 235 453 133 1354 1914 1456 51 745 226 1439 259 709 798 323 400 778 4 338 367 496 992 441 471 1132 960 1012 940 205 28 412 769 825 3 155 510 191 4 354 7 450 85 8 132 1486 354 1947 413 371 4 744 523 141 257 1083 506 390 661 683 229 408 965 1043 182 468 1240 609 2663 4 298 202 13 2 784 2 249 378 468 524 922 639 125 2 326 184 278 723 3 189 298 1904 1235 498 453 188 2 753 3 737 277 200 192 208 6 266 292 256 2 132 438 446 1 381 694 39 11 4 975 278 341 64 2 370 960 223 120 532 2 471 965 80 1339 1054 205 205 105 944 1315 446 457 616 354 964 406 42 208 2050 1438 4 477 1995 1127 1035 999 504 887 68 434 1346 95 115 340 6 677 3 401 7 3 328 2 780 319 5 7 589 1042 372 398 4 71 280 1258 314 242 14 5 1653 188 199 951 1 4 6 434 374 602 1594 196 718 409 491 743 577 16 179 6 171 477 159 349 607 460 1718 799 135 256 2 916 557 723 292 1598 822 1011 149 909 83 350 585 1871 247 4 1125 103 740 901 2028 1374 1 59 930 498 729 1224 564 1187 3 468 68 793 154 154 913 236 671 2 825 4 3 233 232 5 472 535 758 242 4 952 405 239 14 125 398 4 402 76 1041 769 919 337 397 423 180 3931 836 399 478 934 11 37 269 1 639 357 1328 90 1456 419 337 79 682 3 475 1126 4 171 451 158 271 3 561 458 138 165 682 81 559 189 461 394 689 668 469 1063 144 1384 406 6 636 1246 277 194 212 5 680 763 4 251 753 687 991 201 828 170 10 3 202 341 603 1298 130 915 672 1278 35 302 9 5 723 671 112 779 736 430 477 6 870 572 291 503 193 79 189 537 615 695 720 453 376 8 126 378 5 996 484 1 277 189 233 3 5 380 383 1 583 5 322 295 6 246 3 1 204 216 489 2997 132 316 882 3 244 385 13 1 317 511 163 43 305 72 2 11 978 1115 124 3 49 2 197 622 575 393 261 4 406 448 373 1 272 13 1905 179 428 501 466 187 308 275 73 59 241 167 641 376 5 690 508 205 30 893 13 166 788 480 1196 331 459 835 3 3 3 174 601 1 1 7 713 446 1163 3 1131 325 586 805 681 1421 407 3 10 452 1395 0 317 45 854 166 2036 431 724 1 760 2765 586 288 234 2 1080 6 993 3 376 367 555 428 109 4 590 353 290 3 4 5 1 322 2 813 2 819 513 338 2 146 3 8 456 162 1029 123 333 551 996 265 822 923 156 504 103 227 1237 2 722 178 5 351 791 499 1289 319 486 253 326 355 1285 801 633 5 1356 5 384 396 729 11 2 200 895 1845 376 3 72 955 282 449 795 2 865 11894 208 147 1354 232 1399 609 4 356 1209 569 1532 505 503 442 15 635 1513 586 562 104 220 2 3 2 923 6 1048 1 416 722 253 3 245 282 162 153 376 2 1 3 1178 2 121 588 627 58 1127 453 74 154 1295 160 291 900 2 396 1219 1 597 1346 127 2 1 613 752 3 404 598 1226 53 320 597 365 575 18 1282 490 218 0 433 308 361 1135 243 651 1344 281 327 79 2 869 175 631 901 436 397 1695 605 1336 1239 1273 871 228 177 587 3381 796 264 664 533 1695 3 751 394 1886 10 231 501 1319 203 559 474 209 74 13 1166 1539 481 608 31 549 2 289 78 509 3 276 1343 464 692 250 0 81 437 1286 152 168 4 1267 427 791 205 1622 396 858 4 963 1499 192 520 4 4 1803 127 184 455 596 131 2912 234 1274 114 662 532 6 79 312 793 920 
To predecode: 0
Predecoding something: 0
Predecode request dropped: 0
sizeofblock_0 0
sizeofblock_1 510171
sizeofblock_2 145889
sizeofblock_3 28506
sizeofblock_4 6917
sizeofblock_5 0
sizeofblock_6 0
sizeofblock_7 0
sizeofblock_8 0
Variant_0 Correct: 1305152 Incorrect: 0 Accuracy: 1
Variant_1 Correct: 1817625 Incorrect: 0 Accuracy: 1
Variant_2 Correct: 3328258 Incorrect: 0 Accuracy: 1
Variant_3 Correct: 0 Incorrect: 0 Accuracy: -nan
