
*** ChampSim Multicore Out-of-Order Simulator ***

Warmup Instructions: 50000000
Simulation Instructions: 50000000
Number of CPUs: 1
LLC sets: 2048
LLC ways: 16
Off-chip DRAM Size: 4096 MB Channels: 1 Width: 64-bit Data Rate: 6400 MT/s
CPU 0 runs ./micro_traces/srv553.trace.gz
.gz
ITLB has LRU replacement policy
DTLB has LRU replacement policy
STLB has LRU replacement policy
FDIP Prefetcher at L1I
L1I has LRU replacement policy
L1D has LRU replacement policy
Initialize SRRIP state for L2C
Initialize DRRIP state for LLC
Heartbeat CPU 0 instructions: 10000003 cycles: 2796010 heartbeat IPC: 3.57653 cumulative IPC: 3.57653 (Simulation time: 0 hr 1 min 34 sec) 
Heartbeat CPU 0 instructions: 20000000 cycles: 5592181 heartbeat IPC: 3.57632 cumulative IPC: 3.57642 (Simulation time: 0 hr 3 min 7 sec) 
Heartbeat CPU 0 instructions: 30000000 cycles: 8386377 heartbeat IPC: 3.57885 cumulative IPC: 3.57723 (Simulation time: 0 hr 4 min 42 sec) 
Heartbeat CPU 0 instructions: 40000001 cycles: 11182389 heartbeat IPC: 3.57652 cumulative IPC: 3.57705 (Simulation time: 0 hr 6 min 19 sec) 
Heartbeat CPU 0 instructions: 50000002 cycles: 13977074 heartbeat IPC: 3.57822 cumulative IPC: 3.57729 (Simulation time: 0 hr 7 min 57 sec) 

Warmup complete CPU 0 instructions: 50000002 cycles: 13977074 (Simulation time: 0 hr 7 min 57 sec) 

Cycle: 20000000 FTQ IN: 58246666 FTQ occupancy: 20.2162 DECODE IN: 58246565 DECODE occupancy: 52.6504 ROB IN: 58246505 ROB occupancy: 316.291 ROB OUT: 58246434
Heartbeat CPU 0 instructions: 60000003 cycles: 21259865 heartbeat IPC: 1.3731 cumulative IPC: 1.3731 (Simulation time: 0 hr 9 min 50 sec) 
Heartbeat CPU 0 instructions: 70000003 cycles: 28525717 heartbeat IPC: 1.3763 cumulative IPC: 1.3747 (Simulation time: 0 hr 11 min 40 sec) 
Cycle: 30000000 FTQ IN: 13814076 FTQ occupancy: 13.4725 DECODE IN: 13814160 DECODE occupancy: 35.0477 ROB IN: 13814160 ROB occupancy: 240.23 ROB OUT: 13813879
Heartbeat CPU 0 instructions: 80000001 cycles: 35784024 heartbeat IPC: 1.37773 cumulative IPC: 1.37571 (Simulation time: 0 hr 13 min 37 sec) 
Cycle: 40000000 FTQ IN: 13802221 FTQ occupancy: 13.6061 DECODE IN: 13802137 DECODE occupancy: 35.1558 ROB IN: 13802137 ROB occupancy: 241.327 ROB OUT: 13802141
Heartbeat CPU 0 instructions: 90000000 cycles: 42981712 heartbeat IPC: 1.38933 cumulative IPC: 1.37909 (Simulation time: 0 hr 15 min 28 sec) 
Cycle: 50000000 FTQ IN: 13758937 FTQ occupancy: 13.6003 DECODE IN: 13759003 DECODE occupancy: 35.1125 ROB IN: 13759003 ROB occupancy: 240.883 ROB OUT: 13759118
*** Reached end of trace for Core: 0 Repeating trace: ./micro_traces/srv553.trace.gz
Heartbeat CPU 0 instructions: 100000000 cycles: 50274581 heartbeat IPC: 1.3712 cumulative IPC: 1.37751 (Simulation time: 0 hr 17 min 29 sec) 
Finished CPU 0 instructions: 50000002 cycles: 36297508 cumulative IPC: 1.37751 (Simulation time: 0 hr 17 min 29 sec) 

ChampSim completed all CPUs

Region of Interest Statistics

CPU 0 cumulative IPC: 1.37751 instructions: 50000002 cycles: 36297508
 Fetch stage stalled: 51.9305  Sim cycles: 36297508 fetch stall cycle: 18849472
 Empty decode stage: 32.9012  Sim cycles: 36297508 fetch stall cycle: 11942302
ITLB TOTAL     ACCESS:    5871600  HIT:    5383915  MISS:     487685  HIT %:    91.6942  MISS %:    8.30583   MPKI: 9.7537
ITLB LOAD TRANSLATION INSTRUCTION	ACCESS:    5745533  HIT:    5257848  MISS:     487685  HIT %:    91.5119  MISS %:    8.48807  MPKI: 9.7537
ITLB TRANSLATION FROM L1D PREFETCHER INSTRUCTION	ACCESS:     126067  HIT:     126067  MISS:          0  HIT %:        100  MISS %:          0  MPKI: 0

ITLB AVERAGE MISS LATENCY: 9.05445 cycles
ITLB RQ	ACCESS:    8004410	FORWARD:          0	MERGED:    1695181	TO_CACHE:    6309229

DTLB TOTAL     ACCESS:    8940485  HIT:    8469093  MISS:     471392  HIT %:    94.7274  MISS %:    5.27256   MPKI: 9.42784
DTLB LOAD TRANSLATION DATA	ACCESS:    8940485  HIT:    8469093  MISS:     471392  HIT %:    94.7274  MISS %:    5.27256  MPKI: 9.42784

DTLB AVERAGE MISS LATENCY: 9.33338 cycles
DTLB RQ	ACCESS:   13294889	FORWARD:          0	MERGED:    4317467	TO_CACHE:    8977422

STLB TOTAL     ACCESS:    1219981  HIT:    1217837  MISS:       2144  HIT %:    99.8243  MISS %:    0.17574   MPKI: 0.04288
STLB LOAD TRANSLATION INSTRUCTION	ACCESS:     487685  HIT:     487423  MISS:        262  HIT %:    99.9463  MISS %:  0.0537232  MPKI: 0.00524
STLB LOAD TRANSLATION DATA	ACCESS:     471392  HIT:     469519  MISS:       1873  HIT %:    99.6027  MISS %:   0.397334  MPKI: 0.03746
STLB TRANSLATION FROM L1D PREFETCHER DATA	ACCESS:     260904  HIT:     260895  MISS:          9  HIT %:    99.9966  MISS %: 0.00344954  MPKI: 0.00018

STLB AVERAGE MISS LATENCY: 70.9338 cycles
STLB RQ	ACCESS:    1365676	FORWARD:          0	MERGED:     145657	TO_CACHE:    1220019

STLB Hit, L1D data hit: 0
STLB Hit, L2C data hit: 0
STLB Hit, LLC data hit: 0
STLB Hit, LLC data miss: 0
STLB STLB hints to L2: 0
L1D TOTAL     ACCESS:   13052352  HIT:   11898451  MISS:    1153901  HIT %:    91.1594  MISS %:    8.84056   MPKI: 23.078
L1D LOAD DATA	ACCESS:    6553180  HIT:    5794925  MISS:     758255  HIT %:    88.4292  MISS %:    11.5708  MPKI: 15.1651
L1D RFO DATA	ACCESS:    6155685  HIT:    5866127  MISS:     289558  HIT %:    95.2961  MISS %:    4.70391  MPKI: 5.79116
L1D PREFETCH DATA	ACCESS:     343487  HIT:     237399  MISS:     106088  HIT %:    69.1144  MISS %:    30.8856  MPKI: 2.12176

L1D PREFETCH  REQUESTED:     813497  ISSUED:     813497  USEFUL:      48728  USELESS:      70363
L1D USEFUL LOAD PREFETCHES:      48728 PREFETCH ISSUED TO LOWER LEVEL:     119099  ACCURACY: 40.9139
 TIMELY PREFETCHES:      48728 LATE PREFETCHES: 12975 DROPPED PREFETCHES: 2
L1D AVERAGE MISS LATENCY: 361632 cycles
L1D RQ	ACCESS:   10684745	FORWARD:          0	MERGED:    3935549	TO_CACHE:    6588087
L1D WQ	ACCESS:    6902088	FORWARD:     161412	MERGED:     195286	TO_CACHE:    6706802
L1D PQ	ACCESS:     406900	FORWARD:          0	MERGED:          0	TO_CACHE:     406597

L1D UNIQUE REGIONS ACCESSED: 0
L1D REGIONS CONFLICTS: 0
L1D Cross Page Prefetch Requests: 6093
L1D Same Page Prefetch Requests: 818639
L1D ROI Sum of L1D PQ occupancy: 5185489
L1D PREFETCHES PUSHED FROM L2C: 0
L1I TOTAL     ACCESS:    7149011  HIT:    4417135  MISS:    2731876  HIT %:    61.7867  MISS %:    38.2133   MPKI: 54.6375
L1I LOAD INSTRUCTION	ACCESS:    6477046  HIT:    3745170  MISS:    2731876  HIT %:    57.8222  MISS %:    42.1778  MPKI: 54.6375
L1I PREFETCH INSTRUCTION	ACCESS:     671965  HIT:     671965  MISS:          0  HIT %:        100  MISS %:          0  MPKI: 0

L1I PREFETCH  REQUESTED:    1628360  ISSUED:    1628360  USEFUL:          0  USELESS:          0
L1I USEFUL LOAD PREFETCHES:          0 PREFETCH ISSUED TO LOWER LEVEL:          0  ACCURACY: -nan
 TIMELY PREFETCHES:          0 LATE PREFETCHES: 0 DROPPED PREFETCHES: 0
L1I AVERAGE MISS LATENCY: 17.7909 cycles
L1I RQ	ACCESS:    9524009	FORWARD:          0	MERGED:    2710539	TO_CACHE:    6813470
L1I PQ	ACCESS:    1628360	FORWARD:          0	MERGED:     437420	TO_CACHE:    1190940

L1BTB TOTAL     ACCESS:    5679739  HIT:    2087155  MISS:    3592584  HIT %:    36.7474  MISS %:    63.2526   MPKI: 71.8517
L1BTB BRANCH_DIRECT_JUMP	ACCESS:     545897  HIT:     145056  MISS:     400841	AVERAGE STALL: 50.2003
L1BTB BRANCH_INDIRECT	ACCESS:     182493  HIT:      66215  MISS:     116278	AVERAGE STALL: 105.667
L1BTB BRANCH_CONDITIONAL	ACCESS:    2745605  HIT:    1464415  MISS:    1281190	AVERAGE STALL: 87.8358
L1BTB BRANCH_DIRECT_CALL	ACCESS:     933082  HIT:     103400  MISS:     829682	AVERAGE STALL: 122.622
L1BTB BRANCH_INDIRECT_CALL	ACCESS:     169789  HIT:      20867  MISS:     148922	AVERAGE STALL: 135.3
L1BTB BRANCH_RETURN	ACCESS:    1102873  HIT:     287202  MISS:     815671	AVERAGE STALL: 46.4892
L1BTB BRANCH_OTHER ACCESS:          0  HIT:          0  MISS:          0	AVERAGE STALL: -nan
L1BTB TOTAL ROB OCCUPANCY AT BTB MISS: 1.98822

L2BTB TOTAL     ACCESS:    3567157  HIT:    3512726  MISS:      54431  HIT %:    98.4741  MISS %:    1.52589   MPKI: 1.08862
L2BTB BRANCH_DIRECT_JUMP	ACCESS:     396599  HIT:     393816  MISS:       2783	AVERAGE STALL: 50.2003
L2BTB BRANCH_INDIRECT	ACCESS:     106071  HIT:     103372  MISS:       2699	AVERAGE STALL: 105.667
L2BTB BRANCH_CONDITIONAL	ACCESS:    1281190  HIT:    1281091  MISS:         99	AVERAGE STALL: 87.8358
L2BTB BRANCH_DIRECT_CALL	ACCESS:     829682  HIT:     829626  MISS:         56	AVERAGE STALL: 122.622
L2BTB BRANCH_INDIRECT_CALL	ACCESS:     139330  HIT:     129207  MISS:      10123	AVERAGE STALL: 135.3
L2BTB BRANCH_RETURN	ACCESS:     814285  HIT:     775614  MISS:      38671	AVERAGE STALL: 46.4892
L2BTB BRANCH_OTHER ACCESS:          0  HIT:          0  MISS:          0	AVERAGE STALL: -nan
L2BTB TOTAL ROB OCCUPANCY AT BTB MISS: 131.227

L2C TOTAL     ACCESS:    4507143  HIT:    3937440  MISS:     569703  HIT %:      87.36  MISS %:      12.64   MPKI: 11.3941
L2C LOAD INSTRUCTION	ACCESS:    2731876  HIT:    2421769  MISS:     310107  HIT %:    88.6486  MISS %:    11.3514  MPKI: 6.20214
L2C LOAD TRANSLATION INSTRUCTION	ACCESS:        290  HIT:         69  MISS:        221  HIT %:    23.7931  MISS %:    76.2069  MPKI: 0.00442
L2C LOAD DATA	ACCESS:     745242  HIT:     650364  MISS:      94878  HIT %:    87.2688  MISS %:    12.7312  MPKI: 1.89756
L2C RFO DATA	ACCESS:     289491  HIT:     229010  MISS:      60481  HIT %:    79.1078  MISS %:    20.8922  MPKI: 1.20962
L2C PREFETCH DATA	ACCESS:     214294  HIT:     128839  MISS:      85455  HIT %:    60.1225  MISS %:    39.8775  MPKI: 1.7091
L2C WRITEBACK DATA	ACCESS:     523989  HIT:     506713  MISS:      17276  HIT %:     96.703  MISS %:    3.29702  MPKI: 0.34552
L2C LOAD TRANSLATION DATA	ACCESS:       1936  HIT:        665  MISS:       1271  HIT %:    34.3492  MISS %:    65.6508  MPKI: 0.02542
L2C TRANSLATION FROM L1D PREFETCHER DATA	ACCESS:         25  HIT:         11  MISS:         14  HIT %:         44  MISS %:         56  MPKI: 0.00028

L2C PREFETCH  REQUESTED:     103678  ISSUED:     103678  USEFUL:       9062  USELESS:      77075
L2C USEFUL LOAD PREFETCHES:       9062 PREFETCH ISSUED TO LOWER LEVEL:      86038  ACCURACY: 10.5326
 TIMELY PREFETCHES:       9062 LATE PREFETCHES: 583 DROPPED PREFETCHES: 0
L2C AVERAGE MISS LATENCY: 37.7547 cycles
L2C RQ	ACCESS:    3768929	FORWARD:          0	MERGED:          0	TO_CACHE:    3768860
L2C WQ	ACCESS:     523989	FORWARD:         69	MERGED:          0	TO_CACHE:     523989
L2C PQ	ACCESS:     222777	FORWARD:          0	MERGED:       3213	TO_CACHE:     219564

L2C Dense regions hint from L2: 0
PSCL5 TOTAL     ACCESS:       4296  HIT:       2148  MISS:       2148  HIT %:         50  MISS %:         50   MPKI: 0.04296
PSCL5 LOAD TRANSLATION INSTRUCTION	ACCESS:       4248  HIT:       2124  MISS:       2124  HIT %:         50  MISS %:         50  MPKI: 0.04248
PSCL5 TRANSLATION FROM L1D PREFETCHER INSTRUCTION	ACCESS:         48  HIT:         24  MISS:         24  HIT %:         50  MISS %:         50  MPKI: 0.00048


PSCL4 TOTAL     ACCESS:       4152  HIT:       2073  MISS:       2079  HIT %:    49.9277  MISS %:    50.0723   MPKI: 0.04158
PSCL4 LOAD TRANSLATION INSTRUCTION	ACCESS:       2942  HIT:       2052  MISS:        890  HIT %:    69.7485  MISS %:    30.2515  MPKI: 0.0178
PSCL4 TRANSLATION FROM L1D PREFETCHER INSTRUCTION	ACCESS:         33  HIT:         21  MISS:         12  HIT %:    63.6364  MISS %:    36.3636  MPKI: 0.00024
PSCL4 LOAD TRANSLATION DATA	ACCESS:       1168  HIT:          0  MISS:       1168  HIT %:          0  MISS %:        100  MPKI: 0.02336
PSCL4 TRANSLATION FROM L1D PREFETCHER DATA	ACCESS:          9  HIT:          0  MISS:          9  HIT %:          0  MISS %:        100  MPKI: 0.00018


PSCL3 TOTAL     ACCESS:       4240  HIT:       2117  MISS:       2123  HIT %:    49.9292  MISS %:    50.0708   MPKI: 0.04246
PSCL3 LOAD TRANSLATION INSTRUCTION	ACCESS:       2986  HIT:       2096  MISS:        890  HIT %:    70.1942  MISS %:    29.8058  MPKI: 0.0178
PSCL3 TRANSLATION FROM L1D PREFETCHER INSTRUCTION	ACCESS:         33  HIT:         21  MISS:         12  HIT %:    63.6364  MISS %:    36.3636  MPKI: 0.00024
PSCL3 LOAD TRANSLATION DATA	ACCESS:       1212  HIT:          0  MISS:       1212  HIT %:          0  MISS %:        100  MPKI: 0.02424
PSCL3 TRANSLATION FROM L1D PREFETCHER DATA	ACCESS:          9  HIT:          0  MISS:          9  HIT %:          0  MISS %:        100  MPKI: 0.00018


PSCL2 TOTAL     ACCESS:       4205  HIT:       2057  MISS:       2148  HIT %:     48.918  MISS %:     51.082   MPKI: 0.04296
PSCL2 LOAD TRANSLATION INSTRUCTION	ACCESS:       2294  HIT:       2034  MISS:        260  HIT %:    88.6661  MISS %:    11.3339  MPKI: 0.0052
PSCL2 TRANSLATION FROM L1D PREFETCHER INSTRUCTION	ACCESS:         23  HIT:         23  MISS:          0  HIT %:        100  MISS %:          0  MPKI: 0
PSCL2 LOAD TRANSLATION DATA	ACCESS:       1865  HIT:          0  MISS:       1865  HIT %:          0  MISS %:        100  MPKI: 0.0373
PSCL2 TRANSLATION FROM L1D PREFETCHER DATA	ACCESS:         23  HIT:          0  MISS:         23  HIT %:          0  MISS %:        100  MPKI: 0.00046


LLC TOTAL     ACCESS:     636198  HIT:     605912  MISS:      30286  HIT %:    95.2395  MISS %:    4.76047   MPKI: 0.60572
LLC LOAD INSTRUCTION	ACCESS:     310107  HIT:     309147  MISS:        960  HIT %:    99.6904  MISS %:   0.309571  MPKI: 0.0192
LLC LOAD TRANSLATION INSTRUCTION	ACCESS:        221  HIT:        208  MISS:         13  HIT %:    94.1176  MISS %:    5.88235  MPKI: 0.00026
LLC LOAD DATA	ACCESS:      94341  HIT:      90784  MISS:       3557  HIT %:    96.2296  MISS %:    3.77036  MPKI: 0.07114
LLC RFO DATA	ACCESS:      60405  HIT:      45103  MISS:      15302  HIT %:    74.6677  MISS %:    25.3323  MPKI: 0.30604
LLC PREFETCH DATA	ACCESS:      86035  HIT:      76018  MISS:      10017  HIT %:    88.3571  MISS %:    11.6429  MPKI: 0.20034
LLC WRITEBACK DATA	ACCESS:      83804  HIT:      83446  MISS:        358  HIT %:    99.5728  MISS %:   0.427187  MPKI: 0.00716
LLC LOAD TRANSLATION DATA	ACCESS:       1271  HIT:       1192  MISS:         79  HIT %:    93.7844  MISS %:    6.21558  MPKI: 0.00158
LLC TRANSLATION FROM L1D PREFETCHER DATA	ACCESS:         14  HIT:         14  MISS:          0  HIT %:        100  MISS %:          0  MPKI: 0

LLC AVERAGE MISS LATENCY: 161.57 cycles
LLC RQ	ACCESS:     466389	FORWARD:          0	MERGED:          0	TO_CACHE:     466359
LLC WQ	ACCESS:      83804	FORWARD:         33	MERGED:          0	TO_CACHE:      83804
LLC PQ	ACCESS:      86038	FORWARD:          0	MERGED:          0	TO_CACHE:      86035

LLC Dense regions hint to LLC: 0

RAW hits: 1928447
Loads Generated: 12613193
Loads sent to L1D: 10684745
Stores Generated: 6902078
Stores sent to L1D: 6902088
Major fault: 0 Minor fault: 2519
Allocated PAGES: 2519

stream: 
stream:times selected: 1262086
stream:pref_filled: 127500
stream:pref_useful: 29254
stream:pref_late: 9465
stream:misses: 10446
stream:misses_by_poll: 0

CS: 
CS:times selected: 199044
CS:pref_filled: 73401
CS:pref_useful: 49794
CS:pref_late: 9456
CS:misses: 24045
CS:misses_by_poll: 1

CPLX: 
CPLX:times selected: 1061807
CPLX:pref_filled: 24646
CPLX:pref_useful: 7340
CPLX:pref_late: 4155
CPLX:misses: 128493
CPLX:misses_by_poll: 0

NL_L1: 
NL:times selected: 13060
NL:pref_filled: 1297
NL:pref_useful: 324
NL:pref_late: 403
NL:misses: 2051
NL:misses_by_poll: 0

total selections: 2535997
total_filled: 106088
total_useful: 48728
total_late: 25657
total_polluted: 1
total_misses_after_warmup: 793164
conflicts: 5478990

test: 119933

DRAM Statistics
 CHANNEL 0
 RQ ROW_BUFFER_HIT:      11197  ROW_BUFFER_MISS:      18719
 DBUS_CONGESTED:          8
 WQ ROW_BUFFER_HIT:       1488  ROW_BUFFER_MISS:      13267  FULL:          0

 AVG_CONGESTED_CYCLE: 5

CPU 0 Branch Prediction Accuracy: 99.8159% MPKI: 0.33678 Average ROB Occupancy at Mispredict: 193.35
Branch types
NOT_BRANCH: 40852391 81.7048%
BRANCH_DIRECT_JUMP: 545897 1.09179%
BRANCH_INDIRECT: 182493 0.364986%
BRANCH_CONDITIONAL: 6213403 12.4268%
BRANCH_DIRECT_CALL: 933082 1.86616%
BRANCH_INDIRECT_CALL: 169789 0.339578%
BRANCH_RETURN: 1102873 2.20575%
BRANCH_OTHER: 0 0%

DRAM PAGES: 1048576
Allocated PAGES: 2519
Average_ROB_Occupancy: 242.046
Average_Decode_Occupancy: 35.1413
Average_FTQ_Occupancy: 13.5816
Indirect max targets: 14 Average targets: 1.14966
Branch_type:  BRANCH_DIRECT_JUMP:  Count Percentage: 3.34064 6.03018 5.05481 3.7701 7.05164 12.6717 1.71966 60.3613 
Branch_type:  BRANCH_INDIRECT:  Count Percentage: 13.7594 6.28724 2.61447 3.70073 9.68446 16.4482 3.18063 44.3248 
Branch_type:  BRANCH_CONDITIONAL:  Count Percentage: 21.9489 3.86835 1.73762 2.83677 4.69582 14.7827 0.98497 49.1448 
Branch_type:  BRANCH_DIRECT_CALL:  Count Percentage: 0.709738 1.25073 1.05329 2.19371 4.41696 4.87798 0.889675 84.6079 
Branch_type:  BRANCH_INDIRECT_CALL:  Count Percentage: 9.52119 0 2.98197 4.2448 0 5.40068 0.999277 76.8521 
Branch_type:  BRANCH_RETURN:  Count Percentage: 4.44094 2.2779 1.75192 3.31218 7.1335 15.1739 1.38574 64.5239 
Branch_type:  BRANCH_DIRECT_JUMP:  Total Count: 36459 65812 55167 41146 76960 138296 18768 658769 
Branch_type:  BRANCH_INDIRECT:  Total Count: 50186 22932 9536 13498 35323 59993 11601 161670 
Branch_type:  BRANCH_CONDITIONAL:  Total Count: 2726564 480538 215853 352392 583329 1836351 122356 6104922 
Branch_type:  BRANCH_DIRECT_CALL:  Total Count: 13261 23369 19680 40988 82528 91142 16623 1580845 
Branch_type:  BRANCH_INDIRECT_CALL:  Total Count: 32405 0 10149 14447 0 18381 3401 261563 
Branch_type:  BRANCH_RETURN:  Total Count: 98126 50332 38710 73185 157620 335278 30619 1425705 
Number of unique branch instructions: 9864
Upper 32 bits: 
aaaa
ffff
ffff0000
Unique upper 32 bits: 3
Unique upper 36 bits: 3
Unique upper 40 bits: 5
Unique upper 44 bits: 32
Unique upper 48 bits: 154
Offset_3 4071
Offset_4 244
Offset_5 452
Offset_6 498
Offset_7 576
Offset_8 505
Offset_9 468
Offset_10 377
Offset_11 318
Offset_12 271
Offset_13 199
Offset_14 227
Offset_15 184
Offset_16 224
Offset_17 142
Offset_18 121
Offset_19 234
Offset_20 137
Offset_21 235
Offset_22 393
Offset_23 241
Offset_24 326
Offset_25 88
Offset_47 80
Offset_64 2
decode_dispatch_called: 25826204 71.1515
Dispatch_width: 0 13906812 53.8477 38.3134
Dispatch_width: 1 981681 3.8011 2.70454
Dispatch_width: 2 831853 3.22097 2.29176
Dispatch_width: 3 495682 1.9193 1.36561
Dispatch_width: 4 5826214 22.5593 16.0513
Dispatch_width: 5 141059 0.546186 0.388619
Dispatch_width: 6 3642903 14.1055 10.0362
Empty_decode_cycles: 10471304 28.8485
ROB_full_cycles: 9362295 25.7932
Starvation_cycles_per_kilo_instr: 232.923
Starvation_cycles_per_kilo_instr_3: 173.25
Starvation_cycles_per_kilo_instr_0: 150.158
Branch_type_1  (3,1)  (4,9)  (5,37)  (6,68)  (7,113)  (8,129)  (9,124)  (10,97)  (11,70)  (12,44)  (13,5)  (14,2)  (15,3)  (16,4)  (18,1)  (19,4)  (20,2)  (21,1)  (22,3)  (23,2)  (24,10)  (25,12) 
Branch_type_2  (3,1)  (5,1)  (8,3)  (9,3)  (12,1)  (13,1)  (14,1)  (16,3)  (17,2)  (20,2)  (21,2)  (23,5)  (24,1)  (47,36) 
Branch_type_3  (3,4069)  (4,235)  (5,410)  (6,415)  (7,434)  (8,313)  (9,258)  (10,153)  (11,133)  (12,51)  (13,4)  (64,1) 
Branch_type_4  (6,3)  (7,8)  (8,25)  (9,51)  (10,60)  (11,59)  (12,96)  (13,86)  (14,100)  (15,86)  (16,100)  (17,63)  (18,55)  (19,115)  (20,71)  (21,124)  (22,209)  (23,136)  (24,187)  (25,72)  (64,1) 
Branch_type_5  (8,2)  (9,1)  (10,3)  (11,5)  (12,3)  (13,14)  (14,16)  (15,11)  (16,20)  (17,11)  (18,16)  (19,12)  (20,10)  (21,13)  (22,42)  (23,26)  (24,37) 
Branch_type_6  (5,4)  (6,12)  (7,21)  (8,33)  (9,31)  (10,64)  (11,51)  (12,76)  (13,89)  (14,108)  (15,84)  (16,97)  (17,66)  (18,49)  (19,103)  (20,52)  (21,95)  (22,139)  (23,72)  (24,91)  (25,4)  (47,44) 
Unique trigger count: 
BTB PER SET UNIQUE ADDR: 3 2 4 4 2 2 3 3 2 4 4 3 3 3 4 4 2 4 2 2 2 2 4 4 3 5 3 4 3 4 2 3 2 4 3 4 3 3 2 3 3 5 4 3 2 3 2 3 3 2 3 4 4 3 2 4 3 3 4 5 3 4 2 4 6 3 5 3 4 3 4 3 4 4 3 3 4 4 6 4 4 4 3 6 3 3 4 3 3 3 3 3 4 3 3 1 5 2 4 4 3 4 3 3 5 6 3 3 3 4 3 4 3 3 3 2 4 5 2 4 4 3 3 3 4 3 3 4 4 4 3 3 5 3 3 4 3 2 2 3 4 3 3 4 3 3 2 3 3 4 6 3 3 3 4 4 3 2 5 4 3 3 4 3 2 1 2 4 3 3 3 3 5 2 3 4 2 4 4 2 3 3 4 2 3 2 2 4 6 2 2 4 4 2 4 2 4 4 5 4 4 3 4 4 2 5 2 4 3 3 3 4 3 3 3 3 6 3 4 5 2 4 3 3 5 3 2 3 6 4 1 4 4 4 4 5 3 4 3 3 3 4 5 5 3 4 3 2 4 3 2 5 1 3 3 5 2 5 2 3 6 3 3 4 3 4 4 4 2 4 3 4 2 3 5 4 4 2 5 4 6 3 1 3 4 5 3 4 3 4 3 4 3 3 2 5 2 3 3 2 5 2 3 3 3 4 3 3 4 2 4 3 4 3 2 3 3 2 3 4 4 5 2 1 4 5 4 3 3 3 2 3 2 3 2 5 4 3 4 3 4 3 3 2 4 3 1 2 3 4 4 3 5 4 4 4 4 4 3 2 4 3 3 4 3 3 5 4 2 1 2 3 3 3 2 4 4 3 3 2 3 4 3 4 4 4 3 4 4 3 3 3 4 4 3 4 5 2 2 3 4 4 4 2 2 2 5 4 4 3 3 4 1 3 4 2 3 3 4 3 2 2 3 5 5 3 2 3 2 4 3 2 3 4 3 2 4 3 2 4 2 4 3 3 3 2 2 4 4 4 2 1 5 3 4 3 4 3 3 3 4 4 3 7 2 2 4 3 4 3 3 4 4 5 4 2 1 1 3 4 3 2 2 4 2 4 2 3 4 4 3 3 3 2 3 4 3 3 3 5 2 3 4 4 4 3 3 1 3 4 3 3 3 4 4 3 4 3 4 4 3 4 2 3 3 3 1 4 2 3 2 4 4 3 3 3 2 2 4 3 4 5 5 4 2 3 3 3 2 3 4 4 3 3 4 3 4 2 4 2 3 4 3 2 3 2 3 2 2 2 3 2 1 3 3 3 2 3 3 3 1 4 3 2 5 3 3 2 4 3 3 3 4 4 4 2 3 4 4 4 2 4 3 2 2 3 4 3 3 3 2 3 4 3 2 4 3 4 3 3 4 4 3 3 5 4 2 5 2 5 2 5 3 3 2 3 4 4 3 3 4 3 2 2 5 4 3 2 2 3 3 4 3 3 2 4 3 6 4 2 4 4 5 3 3 3 2 2 4 4 4 4 3 4 2 3 2 4 5 4 3 3 2 4 4 3 3 4 7 2 4 3 3 3 5 3 3 4 3 4 4 4 3 3 3 5 3 3 3 5 5 2 4 3 4 1 5 2 2 3 3 4 2 2 4 3 4 2 2 4 3 6 4 4 4 4 4 4 2 4 2 5 5 4 3 2 3 3 3 4 4 4 5 6 3 3 3 2 4 2 5 4 3 3 4 4 2 4 3 5 3 4 2 4 3 4 4 5 2 4 3 3 3 4 4 3 3 4 5 4 5 4 3 4 5 3 5 2 4 3 4 2 4 2 5 3 4 4 3 3 3 2 0 3 3 3 2 2 5 4 4 4 4 4 3 3 4 3 5 5 4 3 2 4 3 4 5 6 3 3 2 3 3 3 3 4 2 4 2 3 2 3 3 5 4 3 3 2 2 4 2 4 3 5 3 3 3 3 5 6 5 2 4 3 2 4 3 4 2 4 5 4 4 3 4 3 4 4 2 1 3 2 2 3 2 5 3 2 3 3 4 2 3 4 5 3 3 5 2 3 3 2 4 4 3 4 4 2 3 2 2 3 3 4 4 4 5 4 4 4 2 4 5 5 2 3 5 2 2 2 3 3 3 4 4 4 3 3 4 4 5 4 3 3 3 3 2 4 2 2 3 4 4 3 4 2 4 5 3 4 2 1 2 3 4 4 3 2 2 2 3 4 3 4 4 3 4 4 4 3 3 4 3 4 4 2 3 3 3 4 3 2 4 3 3 5 3 3 2 4 4 3 4 4 4 4 2 3 3 3 3 3 3 3 6 5 3 4 4 3 4 4 4 3 2 4 4 3 4 2 5 3 4 4 4 5 3 5 4 4 2 4 3 3 3 3 3 4 2 3 4 3 3 2 2 2 2 5 5 3 5 4 4 3 4 5 2 3 5 4 4 3 4 2 3 2 4 3 2 3 2 3 2 5 3 4 4 4 3 3 5 3 5 4 3 3 3 4 4 3 3 6 4 3 4 3 5 3 3 5 3 2 2 3 4 5 4 3 2 3 4 5 5 2 3 3 3 2 4 2 4 4 5 5 4 2 4 3 4 4 4 2 2 4 3 2 3 2 4 2 4 2 4 3 3 3 4 4 3 3 3 2 3 3 3 3 4 2 3 4 3 2 4 5 3 5 3 2 3 3 5 2 4 1 3 4 3 5 4 2 3 4 2 3 4 5 2 3 4 2 2 4 4 3 2 4 3 3 3 4 4 3 3 3 2 3 4 3 3 3 4 3 3 3 4 4 3 2 5 3 2 3 4 3 2 3 4 3 2 4 2 4 3 4 4 3 3 3 2 4 4 3 4 4 3 3 3 2 4 4 4 4 3 1 4 3 5 3 3 4 2 5 4 3 4 4 3 2 3 4 3 4 4 4 3 5 3 4 4 3 4 3 4 4 4 3 3 2 3 3 3 3 4 3 5 3 4 1 2 4 4 4 4 3 4 4 3 4 7 2 3 4 4 3 2 4 6 3 4 3 2 3 2 3 4 6 3 3 5 4 4 3 5 4 4 4 3 2 4 3 4 3 2 2 3 3 3 4 4 4 4 4 2 2 3 3 4 4 3 3 3 2 3 2 4 4 4 4 3 3 3 5 3 2 1 3 4 4 4 3 3 4 4 2 3 4 4 2 4 3 2 3 4 4 2 4 3 2 2 2 4 3 3 3 3 3 3 5 4 4 6 3 3 3 4 3 4 2 4 3 3 4 4 2 4 4 5 2 3 3 3 2 3 2 4 5 2 3 3 4 4 2 4 3 3 3 3 3 4 6 3 2 3 4 5 3 4 2 4 4 3 4 3 4 4 5 5 4 4 4 2 2 2 3 5 4 3 3 2 4 2 4 2 6 3 3 2 4 5 3 5 5 3 3 3 3 7 4 3 4 4 2 3 4 4 3 2 3 3 3 4 3 4 2 4 3 4 3 1 4 4 2 3 2 2 4 5 3 3 2 3 4 3 3 4 2 3 3 3 2 4 4 2 2 2 3 4 5 3 4 5 3 3 4 2 3 4 2 3 5 2 3 4 3 3 5 3 3 3 3 4 2 4 3 3 3 1 4 3 5 5 2 3 3 3 2 4 3 3 2 4 4 4 5 4 4 3 4 3 5 3 5 3 5 3 4 2 3 2 4 3 2 4 4 3 3 4 2 4 5 2 4 3 2 4 5 4 2 3 3 5 4 3 4 3 2 3 3 3 3 4 3 3 3 5 3 2 6 4 2 4 3 2 3 3 4 3 3 3 4 3 2 3 2 2 3 3 3 4 3 2 5 3 2 2 2 3 3 3 4 3 4 5 4 3 4 3 2 5 3 3 3 4 3 2 4 3 2 3 4 3 3 4 5 4 4 5 4 4 2 4 3 4 3 4 2 3 4 3 4 4 4 4 4 2 4 2 4 3 3 4 3 4 4 3 3 2 2 3 4 5 3 3 3 2 4 4 3 3 2 2 3 3 4 2 3 5 3 3 4 3 4 2 5 3 4 4 2 2 5 2 3 2 3 4 4 4 3 3 4 3 3 4 4 1 4 5 3 2 2 3 3 4 4 4 2 3 4 2 3 1 3 3 3 3 3 3 3 3 1 2 4 4 1 4 3 5 1 3 4 5 3 4 3 4 3 2 3 3 4 3 3 4 4 3 3 4 3 3 4 3 4 4 3 2 2 3 3 4 2 2 2 4 3 3 2 3 3 2 4 2 4 3 2 3 3 3 4 3 1 4 4 2 3 2 3 3 5 5 4 2 2 3 3 3 3 2 2 3 4 4 3 3 3 2 3 5 4 2 2 3 3 3 2 4 3 2 3 6 5 2 2 5 3 3 3 3 3 3 4 5 2 3 3 4 2 3 3 4 1 4 4 3 4 4 3 5 3 3 3 4 4 3 3 5 4 3 4 3 3 4 3 4 2 3 4 5 2 2 3 3 4 4 3 4 2 4 3 2 2 3 4 3 2 4 3 4 3 2 3 4 3 3 4 3 4 2 2 3 3 1 3 3 4 2 3 3 2 4 3 6 4 3 3 3 2 4 3 3 3 4 3 5 3 3 3 4 2 4 4 4 4 1 3 4 3 3 4 
BTB PER SET COUNT: 3 2 1455 4 2 2 3 3 2 4 4 3 3 3 4 4 2 4 2 2 2 2 7 4 505 5 3 4 3 4 2 3 2 5 440 4 3 3 2 4 3 5 4 3 1452 3 504 3 3 2 3 4 506 3 2 4 4 1007 4 77 3 4 2 6 7 3 5 3 4 3 4 3 4 4 3 3 4 5 9 4 4 5 3 6 3 3 4 4 3 1006 3 3 4 3 3 1 5 2 4 5 3 5 3 3 385 10 3 4 3 4 3 4 257 3 8 2 4 5 2 4 4 3 1528 3 4 3 3 4 6 4 3 3 6 3 3 5 3 2 2 1006 755 1006 4 4 3 3 2 3 5 14 6 3 3 5 4 953 3 1005 6 4 3 3 4 3 4 1 461 4 6 3 3 3 94 2 4 4 2 4 5 2 3 3 4 2 4 2 2 4 6 2 2 4 4 2 4 2 4 1007 5 4 4 3 5 4 4 5 2 4 3 3 3 6 1006 3 3 3 6 3 5 5 2 5 3 3 5 3 3 3 167 4 244 5 4 5 4 5 3 4 3 3 3 4 1448 5 3 4 3 2 4 3 3 6 1 4 3 12 1451 5 3 3 6 3 3 4 3 4 475 5 2 5 3 6 4 3 6 4 951 2 5 6 6 3 1 3 4 5 3 5 619 4 3 5 5 3 4 5 2 6 3 2 5 2 1453 3 3 4 3 3 4 2 4 3 7 3 2 3 4 2 3 4 4 7 2 1 4 6 29 4 5 3 2 3 2 3 2 5 5 3 4 3 4 5 3 2 4 3 1 2 3 4 5 3 5 5 951 4 6 5 3 2 4 3 3 6 3 4 6 451 2 1 2 3 3 4 2 4 4 3 3 2 7 4 3 4 6 5 3 4 4 3 3 3 4 4 3 4 1333 2 2 3 5 217 5 3 2 2 6 4 4 4 4 4 1 3 4 2 3 3 4 3 2 2 3 508 6 317 2 6 314 5 3 2 4 4 3 3 5 3 2 4 2 6 3 3 389 2 2 21 5 4 2 316 5 3 4 3 4 3 3 3 1453 5 3 7 5 1451 4 3012 4 3 3 31 4 6 951 2 1 1 3 4 3 2 2 4 65 5 2 3 54 4 951 3 6 2 3 951 3 3 3 5 2 3 6 4 4 3 3 1 3 4 3 3 3 2013 4 3 4 505 4 4 3 4 2 4 3 3 1 384 2 3 2 4 4 5 3 3 2 2 5 3 5 6 6 4 2 1453 3 3 2 3 16 4 1006 3 4 3 4 2 4 2 1006 7875 3 2 3 2 3 2 2 3 3 2 1 3 3 3 2 3 3 3 2 4 3 2 5 3 6 2 4 3 3 4 4 4 5 1451 3 5 4 4 2 4 3 2 2 3 4 3 3 3 2 3 952 3 2 5 3 5 3 3 4 4 3 8 6 4 949 5 2 7 2 5 3 4 2 4 4 4 3 4 4 3 2 2 5 4 3 2 2 999 3 4 4 3 2 4 3 6 4 2 4 951 5 3 3 505 3 2 4 4 5 7 3 5 2 1452 2 4 5 4 3 3 2 4 4 3 3 4 9 2 4 3 3 3 7 3 3 4 3 5 5 4 3 3 3 5 3 3 3 5 5 2 7 3 4 1 12 2 2 4 3 5 3 2 4 3 6 3 2 450 3 7 4 4 4 5 4 6 2 4 2 5 7 5 3 2 4 3 3 4 4 4 5 6 1007 4 4 4 171 3 8 5 3 4 5 4 2 2904 3 6 5 4 2 4 3 4 4 5 2 7 3 3 4 4 194 4 3 5 111 4 6 4 3 4 1001 3 5 2 4 3 4 2 4 2 5 3 6 4 3 4 3 2 0 3 3 3 2 2 6 4 7 4 4 5 3 3 4 3 5 441 4 3 2 951 3 4 5 900 3 3 14 3 3 3 3 4 2 4 2 3 2 3 4 8 4 3 3 2 2 4 2 4 3 5 505 3 3 3 5 7 5 3 4 3 2 4 4 4 2 4 5 4 41 3 386 3 1007 4 2 1 3 2 2 3 2 6 383 2 3 4 4 2 3 4 5 3 3 5 2 506 3 2 5 4 3 451 427 2 3 2 1506 3 3 4 4 5 217 4 5 4 2 4 5 6 3 3 5 2 2 2 3 1452 4 4 4 4 3 3 4 5 5 4 4 3 505 3 2 4 2009 2 3 4 4 4 5 2 4 5 4 10 2 1 2 3 5 5 5 2 2 4 3 5 3 4 4 3 4 49 8 3 4 5 3 5 4 2 3 3 3 4 3 3 4 3 3 5 3 3 1451 505 4 3 4 4 4 5 3 3 4 3 3 4 3 3 7 5 3 6 5 3 4 4 4 3 2 4 5 3 1450 2 9 3 6 4 4 8 505 6 4 5 2 4 3 3 3 4 3 5 2 3 4 3 4 2 2 2 4 5 6 3 5 4 4 3 101 6 7 3 6 4 6 3 5 2 3 56 4 4 2 4 2 3 2 5 3 4 4 4 3 3 8 5 7 2402 3 3 40 5 4 3 384 7 5 3 5 3 6 514 3 5 4 3 3 4 5 5 4 3 2 4 4 5 5 2 3 4 3 2 5 2 5 5 5 5 4 4 4 1006 4 4 4 2 2 4 3 2 3 2 4 2 4 2 4 3 6 3 4 4 3 3 3 4 3 3 3 3 4 2 5 4 1452 4 4 6 3 6 3 2 3 4 6 2 6 1 1909 505 3 7 119 2 12 5 1451 5 4 5 2 3 4 2 2 4 4 3 949 5 3 3 3 4 391 5 3 3 2 3 4 3 1453 3 4 3 6 3 6 4 1239 2 6 3 6 3 4 3 3 3 4 3 2 4 2 73 3 4 4 3 3 3 2 4 4 54 5 4 3 3 3 2 4 4 4 5 3 1 4 3 8 3 3 4 2 118 4 3 4 4 3 2 3 5 3 4 4 4 3 5 3 4 4 3 5 3 4 8 94 6 3 2 3 4 3 3 4 3 5 3 6 1 2 9 4 5 4 3 450 4 3 1454 7 2 3 4 4 3 2 4 12 4 6 384 2 3 2 3 5 6 3 3 5 5 4 3 5 5 5 4 3 2 5 3 4 3 2 2 3 3 3 6 4 4 4 4 2 2 3 3 5 4 3 506 4 2 3 2 4 114 5 5 3 1006 11 5 3 2 1 3 4 5 4 130 3 4 4 2 4 4 4 2 4 3 2 3 4 1453 2 4 3 219 2 2 4 3 3 3 950 3 3 6 4 1900 50 3 3 1899 4 3 4 2 5 3 3 6 6 2 4 4 6 2 3 4 3 2 3 2 4 5 3 3 3 4 4 2 4 3 3 3 3 3 4 6 3 2 3 7 5 3 4 2 4 508 3 4 3 4 4 5 5 5 4 5 2 2 2 3 5 4 4 3 2 4 2 4 2 12 3 950 2 4 9 3 5 9 4 3 3 3 8 4 3 4 4 2 3 1454 4 3 4 3 950 3 4 3 4 2 4 950 4 3 3 4 5 2 3 3 2 5 6 3 3 2 3 4 3 3 4 2 3 4 3 2 6 5 2 2 2 3 2904 5 3 5 7 3 3 4 2 3 4 2 3 1454 2 3 4 3 3 5 3 4 3 3 4 2 5 3 3 3 1 4 3 5 5 2 3 3 3 2 6 3 3 2 207 4 7 9 5 4 3 5 3 6 3 506 1452 5 3 7 2 3 2 4 3 2 4 4 3 3 4 2 506 5 2 4 3 5 4 5 4 2 3 3 6 4 3 4 4 2 3 4 3 4 4 3 3 3 5 3 2 6 4 2 4 3 4 3 3 4 3 3 3 4 3 2 3 2 2 3 3 3 6 3 2 5 3 5 2 2 3 3 5 4 3 4 5 4 3 5 118 2 5 4 4 3 4 3 2 4 3 2 3 1481 3 3 4 468 4 5 5 4 4 2 5 3 1453 3 4 2 5 4 3 4 4 7 8 5 2 6 2 4 4 3 4 4 4 4 3 3 2 2 3 4 5 950 3 508 2 5 4 3 3 2 2 3 3 5 2 3 5 4 3 506 3 4 2 5 3 4 951 2 2 5 2 3 2 4 4 4 4 3 3 4 3 3 4 4 1 5 5 3 2 2 3 3 6 6 4 2 3 4 3 6 1 3 3 950 3 3 3 3 3 1 2 4 4 1 5 3 5 1 3 4 5 3 4 3 4 3 2 3 3 6 3 3 4 4 3 3 4 3 72 5 3 4 4 5 2 2 3 3 20310 2 2 2 7 3 3 2 3 3 2 4 2 4 5 2 3 8 3 4 3 1 6 4 2 1006 2 3 3 6 5 4 14502 2 3 4 3 5 2 2 3 4 4 3 1453 3 2 3 5 4 2 2 3 3 3 2 4 3 2 3 8 5 3 2 6 1226 3 3 3 3 3 4 6 2 3 3 4 2 3 3 4 1 7 6 3 39 4 3 5 3 3 3 5 4 4 3 6 4 3 4 3 1006 7 33 4 2 4 4 8 115 2 4 950 4 4 6 4 2 4 3 2 2 3 4 6 2 5 3 4 505 2 3 4 3 4 4 3 4 1330 2 3 4 1 3 3 4 2 3 3 2 13 5 7 167 4 3 3 2 4 3 3 4 5 3 1010 3 3 3 5 2 4 4 5 4 1 3 4 3 3 4 
