
*** ChampSim Multicore Out-of-Order Simulator ***

Warmup Instructions: 50000000
Simulation Instructions: 50000000
Number of CPUs: 1
LLC sets: 2048
LLC ways: 16
Off-chip DRAM Size: 4096 MB Channels: 1 Width: 64-bit Data Rate: 6400 MT/s
CPU 0 runs ./micro_traces/srv554.trace.gz
.gz
ITLB has LRU replacement policy
DTLB has LRU replacement policy
STLB has LRU replacement policy
FDIP Prefetcher at L1I
L1I has LRU replacement policy
L1D has LRU replacement policy
Initialize SRRIP state for L2C
Initialize DRRIP state for LLC
Heartbeat CPU 0 instructions: 10000001 cycles: 2796985 heartbeat IPC: 3.57528 cumulative IPC: 3.57528 (Simulation time: 0 hr 2 min 4 sec) 
Heartbeat CPU 0 instructions: 20000001 cycles: 5594395 heartbeat IPC: 3.57474 cumulative IPC: 3.57501 (Simulation time: 0 hr 4 min 4 sec) 
Heartbeat CPU 0 instructions: 30000000 cycles: 8392149 heartbeat IPC: 3.5743 cumulative IPC: 3.57477 (Simulation time: 0 hr 5 min 56 sec) 
Heartbeat CPU 0 instructions: 40000002 cycles: 11189315 heartbeat IPC: 3.57505 cumulative IPC: 3.57484 (Simulation time: 0 hr 7 min 53 sec) 
Heartbeat CPU 0 instructions: 50000000 cycles: 13986522 heartbeat IPC: 3.57499 cumulative IPC: 3.57487 (Simulation time: 0 hr 9 min 43 sec) 

Warmup complete CPU 0 instructions: 50000003 cycles: 13986523 (Simulation time: 0 hr 9 min 43 sec) 

Cycle: 20000000 FTQ IN: 54491789 FTQ occupancy: 17.1187 DECODE IN: 54491762 DECODE occupancy: 43.8976 ROB IN: 54491762 ROB occupancy: 260.176 ROB OUT: 54491762
Heartbeat CPU 0 instructions: 60000001 cycles: 27459956 heartbeat IPC: 0.742201 cumulative IPC: 0.742201 (Simulation time: 0 hr 11 min 21 sec) 
Cycle: 30000000 FTQ IN: 7289762 FTQ occupancy: 3.67834 DECODE IN: 7289786 DECODE occupancy: 6.94666 ROB IN: 7289786 ROB occupancy: 57.1697 ROB OUT: 7289750
Cycle: 40000000 FTQ IN: 7427774 FTQ occupancy: 3.5324 DECODE IN: 7427762 DECODE occupancy: 6.58298 ROB IN: 7427762 ROB occupancy: 55.6468 ROB OUT: 7427776
Heartbeat CPU 0 instructions: 70000002 cycles: 41073470 heartbeat IPC: 0.734564 cumulative IPC: 0.738363 (Simulation time: 0 hr 13 min 1 sec) 
Cycle: 50000000 FTQ IN: 7463489 FTQ occupancy: 3.51082 DECODE IN: 7463479 DECODE occupancy: 6.52038 ROB IN: 7463479 ROB occupancy: 55.3896 ROB OUT: 7463501
Heartbeat CPU 0 instructions: 80000003 cycles: 54485303 heartbeat IPC: 0.74561 cumulative IPC: 0.740763 (Simulation time: 0 hr 14 min 35 sec) 
Cycle: 60000000 FTQ IN: 7319335 FTQ occupancy: 3.61829 DECODE IN: 7319354 DECODE occupancy: 6.73018 ROB IN: 7319354 ROB occupancy: 56.4177 ROB OUT: 7319196
Heartbeat CPU 0 instructions: 90000000 cycles: 68109312 heartbeat IPC: 0.733998 cumulative IPC: 0.73906 (Simulation time: 0 hr 16 min 11 sec) 
Cycle: 70000000 FTQ IN: 7433404 FTQ occupancy: 3.52139 DECODE IN: 7433396 DECODE occupancy: 6.55824 ROB IN: 7433396 ROB occupancy: 55.5379 ROB OUT: 7433553
Cycle: 80000000 FTQ IN: 7447421 FTQ occupancy: 3.51573 DECODE IN: 7447427 DECODE occupancy: 6.55618 ROB IN: 7447403 ROB occupancy: 55.8161 ROB OUT: 7447380
Heartbeat CPU 0 instructions: 100000002 cycles: 81515392 heartbeat IPC: 0.74593 cumulative IPC: 0.740424 (Simulation time: 0 hr 17 min 36 sec) 
Finished CPU 0 instructions: 50000003 cycles: 67528870 cumulative IPC: 0.740424 (Simulation time: 0 hr 17 min 36 sec) 

ChampSim completed all CPUs

Region of Interest Statistics

CPU 0 cumulative IPC: 0.740424 instructions: 50000003 cycles: 67528870
 Fetch stage stalled: 82.1885  Sim cycles: 67528870 fetch stall cycle: 55500980
 Empty decode stage: 69.9443  Sim cycles: 67528870 fetch stall cycle: 47232621
ITLB TOTAL     ACCESS:    5743520  HIT:    5246392  MISS:     497128  HIT %:    91.3445  MISS %:    8.65546   MPKI: 9.94256
ITLB LOAD TRANSLATION INSTRUCTION	ACCESS:    5664166  HIT:    5167038  MISS:     497128  HIT %:    91.2233  MISS %:    8.77672  MPKI: 9.94256
ITLB TRANSLATION FROM L1D PREFETCHER INSTRUCTION	ACCESS:      79354  HIT:      79354  MISS:          0  HIT %:        100  MISS %:          0  MPKI: 0

ITLB AVERAGE MISS LATENCY: 9.05088 cycles
ITLB RQ	ACCESS:    7218228	FORWARD:          0	MERGED:    1065860	TO_CACHE:    6152368

DTLB TOTAL     ACCESS:   10118250  HIT:    9638847  MISS:     479403  HIT %:     95.262  MISS %:      4.738   MPKI: 9.58806
DTLB LOAD TRANSLATION DATA	ACCESS:   10118250  HIT:    9638847  MISS:     479403  HIT %:     95.262  MISS %:      4.738  MPKI: 9.58806

DTLB AVERAGE MISS LATENCY: 9.28799 cycles
DTLB RQ	ACCESS:   14183900	FORWARD:          0	MERGED:    4035919	TO_CACHE:   10147981

STLB TOTAL     ACCESS:    1221124  HIT:    1218838  MISS:       2286  HIT %:    99.8128  MISS %:   0.187205   MPKI: 0.04572
STLB LOAD TRANSLATION INSTRUCTION	ACCESS:     497128  HIT:     496657  MISS:        471  HIT %:    99.9053  MISS %:  0.0947442  MPKI: 0.00942
STLB LOAD TRANSLATION DATA	ACCESS:     479328  HIT:     477529  MISS:       1799  HIT %:    99.6247  MISS %:   0.375317  MPKI: 0.03598
STLB TRANSLATION FROM L1D PREFETCHER DATA	ACCESS:     244668  HIT:     244652  MISS:         16  HIT %:    99.9935  MISS %: 0.00653947  MPKI: 0.00032

STLB AVERAGE MISS LATENCY: 63.1225 cycles
STLB RQ	ACCESS:    1341567	FORWARD:          0	MERGED:     120401	TO_CACHE:    1221166

STLB Hit, L1D data hit: 0
STLB Hit, L2C data hit: 0
STLB Hit, LLC data hit: 0
STLB Hit, LLC data miss: 0
STLB STLB hints to L2: 0
L1D TOTAL     ACCESS:   13974254  HIT:   12860324  MISS:    1113930  HIT %:    92.0287  MISS %:     7.9713   MPKI: 22.2786
L1D LOAD DATA	ACCESS:    7329432  HIT:    6594546  MISS:     734886  HIT %:    89.9735  MISS %:    10.0265  MPKI: 14.6977
L1D RFO DATA	ACCESS:    6319191  HIT:    6031693  MISS:     287498  HIT %:    95.4504  MISS %:     4.5496  MPKI: 5.74996
L1D PREFETCH DATA	ACCESS:     325631  HIT:     234085  MISS:      91546  HIT %:    71.8866  MISS %:    28.1134  MPKI: 1.83092

L1D PREFETCH  REQUESTED:     730230  ISSUED:     730230  USEFUL:      32051  USELESS:      66944
L1D USEFUL LOAD PREFETCHES:      32051 PREFETCH ISSUED TO LOWER LEVEL:      99051  ACCURACY: 32.3581
 TIMELY PREFETCHES:      32051 LATE PREFETCHES: 7422 DROPPED PREFETCHES: 9
L1D AVERAGE MISS LATENCY: 319707 cycles
L1D RQ	ACCESS:   11277255	FORWARD:          0	MERGED:    3757020	TO_CACHE:    7356458
L1D WQ	ACCESS:    6956692	FORWARD:     163935	MERGED:     129250	TO_CACHE:    6827442
L1D PQ	ACCESS:     365194	FORWARD:          0	MERGED:          0	TO_CACHE:     365036

L1D UNIQUE REGIONS ACCESSED: 0
L1D REGIONS CONFLICTS: 0
L1D Cross Page Prefetch Requests: 6090
L1D Same Page Prefetch Requests: 747190
L1D ROI Sum of L1D PQ occupancy: 4625184
L1D PREFETCHES PUSHED FROM L2C: 0
L1I TOTAL     ACCESS:    7064186  HIT:    4288352  MISS:    2775834  HIT %:    60.7055  MISS %:    39.2945   MPKI: 55.5167
L1I LOAD INSTRUCTION	ACCESS:    6731367  HIT:    3955533  MISS:    2775834  HIT %:    58.7627  MISS %:    41.2373  MPKI: 55.5167
L1I PREFETCH INSTRUCTION	ACCESS:     332819  HIT:     332819  MISS:          0  HIT %:        100  MISS %:          0  MPKI: 0

L1I PREFETCH  REQUESTED:     582411  ISSUED:     582411  USEFUL:          0  USELESS:          0
L1I USEFUL LOAD PREFETCHES:          0 PREFETCH ISSUED TO LOWER LEVEL:          0  ACCURACY: -nan
 TIMELY PREFETCHES:          0 LATE PREFETCHES: 0 DROPPED PREFETCHES: 0
L1I AVERAGE MISS LATENCY: 17.3483 cycles
L1I RQ	ACCESS:    9467531	FORWARD:          0	MERGED:    2649605	TO_CACHE:    6817926
L1I PQ	ACCESS:     582411	FORWARD:          0	MERGED:     182109	TO_CACHE:     400302

L1BTB TOTAL     ACCESS:    5670129  HIT:    2027147  MISS:    3642982  HIT %:    35.7513  MISS %:    64.2487   MPKI: 72.8596
L1BTB BRANCH_DIRECT_JUMP	ACCESS:     547710  HIT:     144128  MISS:     403582	AVERAGE STALL: 27.9636
L1BTB BRANCH_INDIRECT	ACCESS:     182663  HIT:      65645  MISS:     117018	AVERAGE STALL: 66.6588
L1BTB BRANCH_CONDITIONAL	ACCESS:    2696327  HIT:    1400242  MISS:    1296085	AVERAGE STALL: 30.1481
L1BTB BRANCH_DIRECT_CALL	ACCESS:     949508  HIT:     105243  MISS:     844265	AVERAGE STALL: 30.874
L1BTB BRANCH_INDIRECT_CALL	ACCESS:     172208  HIT:      21144  MISS:     151064	AVERAGE STALL: 87.4127
L1BTB BRANCH_RETURN	ACCESS:    1121713  HIT:     290745  MISS:     830968	AVERAGE STALL: 29.7818
L1BTB BRANCH_OTHER ACCESS:          0  HIT:          0  MISS:          0	AVERAGE STALL: -nan
L1BTB TOTAL ROB OCCUPANCY AT BTB MISS: 19.8877

L2BTB TOTAL     ACCESS:    3617647  HIT:    2103603  MISS:    1514044  HIT %:    58.1484  MISS %:    41.8516   MPKI: 30.2809
L2BTB BRANCH_DIRECT_JUMP	ACCESS:     399490  HIT:     221310  MISS:     178180	AVERAGE STALL: 27.9636
L2BTB BRANCH_INDIRECT	ACCESS:     106681  HIT:      89928  MISS:      16753	AVERAGE STALL: 66.6588
L2BTB BRANCH_CONDITIONAL	ACCESS:    1296085  HIT:     758366  MISS:     537719	AVERAGE STALL: 30.1481
L2BTB BRANCH_DIRECT_CALL	ACCESS:     844264  HIT:     439402  MISS:     404862	AVERAGE STALL: 30.874
L2BTB BRANCH_INDIRECT_CALL	ACCESS:     141575  HIT:      76885  MISS:      64690	AVERAGE STALL: 87.4127
L2BTB BRANCH_RETURN	ACCESS:     829552  HIT:     517712  MISS:     311840	AVERAGE STALL: 29.7818
L2BTB BRANCH_OTHER ACCESS:          0  HIT:          0  MISS:          0	AVERAGE STALL: -nan
L2BTB TOTAL ROB OCCUPANCY AT BTB MISS: 47.8524

L2C TOTAL     ACCESS:    4506433  HIT:    3985306  MISS:     521127  HIT %:    88.4359  MISS %:    11.5641   MPKI: 10.4225
L2C LOAD INSTRUCTION	ACCESS:    2775834  HIT:    2494889  MISS:     280945  HIT %:    89.8789  MISS %:    10.1211  MPKI: 5.6189
L2C LOAD TRANSLATION INSTRUCTION	ACCESS:        508  HIT:        174  MISS:        334  HIT %:     34.252  MISS %:     65.748  MPKI: 0.00668
L2C LOAD DATA	ACCESS:     727448  HIT:     645918  MISS:      81530  HIT %:    88.7923  MISS %:    11.2077  MPKI: 1.6306
L2C RFO DATA	ACCESS:     287409  HIT:     227039  MISS:      60370  HIT %:    78.9951  MISS %:    21.0049  MPKI: 1.2074
L2C PREFETCH DATA	ACCESS:     190933  HIT:     114484  MISS:      76449  HIT %:    59.9603  MISS %:    40.0397  MPKI: 1.52898
L2C WRITEBACK DATA	ACCESS:     522402  HIT:     502198  MISS:      20204  HIT %:    96.1325  MISS %:    3.86752  MPKI: 0.40408
L2C LOAD TRANSLATION DATA	ACCESS:       1868  HIT:        580  MISS:       1288  HIT %:    31.0493  MISS %:    68.9507  MPKI: 0.02576
L2C TRANSLATION FROM L1D PREFETCHER DATA	ACCESS:         31  HIT:         24  MISS:          7  HIT %:    77.4194  MISS %:    22.5806  MPKI: 0.00014

L2C PREFETCH  REQUESTED:      98897  ISSUED:      98897  USEFUL:       9364  USELESS:      67853
L2C USEFUL LOAD PREFETCHES:       9364 PREFETCH ISSUED TO LOWER LEVEL:      77191  ACCURACY: 12.1309
 TIMELY PREFETCHES:       9364 LATE PREFETCHES: 742 DROPPED PREFETCHES: 0
L2C AVERAGE MISS LATENCY: 36.8093 cycles
L2C RQ	ACCESS:    3793120	FORWARD:          0	MERGED:          0	TO_CACHE:    3793098
L2C WQ	ACCESS:     522402	FORWARD:         22	MERGED:          0	TO_CACHE:     522402
L2C PQ	ACCESS:     197948	FORWARD:          0	MERGED:       3464	TO_CACHE:     194484

L2C Dense regions hint from L2: 0
PSCL5 TOTAL     ACCESS:       4592  HIT:       2296  MISS:       2296  HIT %:         50  MISS %:         50   MPKI: 0.04592
PSCL5 LOAD TRANSLATION INSTRUCTION	ACCESS:       4530  HIT:       2265  MISS:       2265  HIT %:         50  MISS %:         50  MPKI: 0.0453
PSCL5 TRANSLATION FROM L1D PREFETCHER INSTRUCTION	ACCESS:         62  HIT:         31  MISS:         31  HIT %:         50  MISS %:         50  MPKI: 0.00062


PSCL4 TOTAL     ACCESS:       4165  HIT:       2079  MISS:       2086  HIT %:     49.916  MISS %:     50.084   MPKI: 0.04172
PSCL4 LOAD TRANSLATION INSTRUCTION	ACCESS:       3601  HIT:       2054  MISS:       1547  HIT %:    57.0397  MISS %:    42.9603  MPKI: 0.03094
PSCL4 TRANSLATION FROM L1D PREFETCHER INSTRUCTION	ACCESS:         46  HIT:         25  MISS:         21  HIT %:    54.3478  MISS %:    45.6522  MPKI: 0.00042
PSCL4 LOAD TRANSLATION DATA	ACCESS:        514  HIT:          0  MISS:        514  HIT %:          0  MISS %:        100  MPKI: 0.01028
PSCL4 TRANSLATION FROM L1D PREFETCHER DATA	ACCESS:          4  HIT:          0  MISS:          4  HIT %:          0  MISS %:        100  MPKI: 8e-05


PSCL3 TOTAL     ACCESS:       4189  HIT:       2086  MISS:       2103  HIT %:    49.7971  MISS %:    50.2029   MPKI: 0.04206
PSCL3 LOAD TRANSLATION INSTRUCTION	ACCESS:       3096  HIT:       2062  MISS:       1034  HIT %:    66.6021  MISS %:    33.3979  MPKI: 0.02068
PSCL3 TRANSLATION FROM L1D PREFETCHER INSTRUCTION	ACCESS:         31  HIT:         24  MISS:          7  HIT %:    77.4194  MISS %:    22.5806  MPKI: 0.00014
PSCL3 LOAD TRANSLATION DATA	ACCESS:       1045  HIT:          0  MISS:       1045  HIT %:          0  MISS %:        100  MPKI: 0.0209
PSCL3 TRANSLATION FROM L1D PREFETCHER DATA	ACCESS:         17  HIT:          0  MISS:         17  HIT %:          0  MISS %:        100  MPKI: 0.00034


PSCL2 TOTAL     ACCESS:       4504  HIT:       2208  MISS:       2296  HIT %:    49.0231  MISS %:    50.9769   MPKI: 0.04592
PSCL2 LOAD TRANSLATION INSTRUCTION	ACCESS:       2648  HIT:       2177  MISS:        471  HIT %:     82.213  MISS %:     17.787  MPKI: 0.00942
PSCL2 TRANSLATION FROM L1D PREFETCHER INSTRUCTION	ACCESS:         31  HIT:         31  MISS:          0  HIT %:        100  MISS %:          0  MPKI: 0
PSCL2 LOAD TRANSLATION DATA	ACCESS:       1794  HIT:          0  MISS:       1794  HIT %:          0  MISS %:        100  MPKI: 0.03588
PSCL2 TRANSLATION FROM L1D PREFETCHER DATA	ACCESS:         31  HIT:          0  MISS:         31  HIT %:          0  MISS %:        100  MPKI: 0.00062


LLC TOTAL     ACCESS:     589251  HIT:     562362  MISS:      26889  HIT %:    95.4367  MISS %:    4.56325   MPKI: 0.53778
LLC LOAD INSTRUCTION	ACCESS:     280945  HIT:     280303  MISS:        642  HIT %:    99.7715  MISS %:   0.228514  MPKI: 0.01284
LLC LOAD TRANSLATION INSTRUCTION	ACCESS:        334  HIT:        316  MISS:         18  HIT %:    94.6108  MISS %:    5.38922  MPKI: 0.00036
LLC LOAD DATA	ACCESS:      80849  HIT:      77572  MISS:       3277  HIT %:    95.9468  MISS %:    4.05324  MPKI: 0.06554
LLC RFO DATA	ACCESS:      60307  HIT:      47440  MISS:      12867  HIT %:    78.6642  MISS %:    21.3358  MPKI: 0.25734
LLC PREFETCH DATA	ACCESS:      77191  HIT:      67471  MISS:       9720  HIT %:    87.4079  MISS %:    12.5921  MPKI: 0.1944
LLC WRITEBACK DATA	ACCESS:      88330  HIT:      88036  MISS:        294  HIT %:    99.6672  MISS %:   0.332843  MPKI: 0.00588
LLC LOAD TRANSLATION DATA	ACCESS:       1288  HIT:       1217  MISS:         71  HIT %:    94.4876  MISS %:    5.51242  MPKI: 0.00142
LLC TRANSLATION FROM L1D PREFETCHER DATA	ACCESS:          7  HIT:          7  MISS:          0  HIT %:        100  MISS %:          0  MPKI: 0

LLC AVERAGE MISS LATENCY: 153.59 cycles
LLC RQ	ACCESS:     423732	FORWARD:          0	MERGED:          0	TO_CACHE:     423730
LLC WQ	ACCESS:      88330	FORWARD:          2	MERGED:          0	TO_CACHE:      88330
LLC PQ	ACCESS:      77191	FORWARD:          0	MERGED:          0	TO_CACHE:      77191

LLC Dense regions hint to LLC: 0

RAW hits: 1358883
Loads Generated: 12636138
Loads sent to L1D: 11277255
Stores Generated: 6956688
Stores sent to L1D: 6956692
Major fault: 0 Minor fault: 2586
Allocated PAGES: 2586

stream: 
stream:times selected: 1175415
stream:pref_filled: 118618
stream:pref_useful: 23176
stream:pref_late: 6189
stream:misses: 6542
stream:misses_by_poll: 0

CS: 
CS:times selected: 174668
CS:pref_filled: 58179
CS:pref_useful: 35408
CS:pref_late: 6913
CS:misses: 16260
CS:misses_by_poll: 2

CPLX: 
CPLX:times selected: 999693
CPLX:pref_filled: 21052
CPLX:pref_useful: 4852
CPLX:pref_late: 2925
CPLX:misses: 91316
CPLX:misses_by_poll: 0

NL_L1: 
NL:times selected: 19498
NL:pref_filled: 610
NL:pref_useful: 253
NL:pref_late: 174
NL:misses: 849
NL:misses_by_poll: 0

total selections: 2369274
total_filled: 91546
total_useful: 32051
total_late: 17316
total_polluted: 2
total_misses_after_warmup: 761911
conflicts: 5900249

test: 115549

DRAM Statistics
 CHANNEL 0
 RQ ROW_BUFFER_HIT:       9866  ROW_BUFFER_MISS:      16719
 DBUS_CONGESTED:         12
 WQ ROW_BUFFER_HIT:       1133  ROW_BUFFER_MISS:      11818  FULL:          0

 AVG_CONGESTED_CYCLE: 4

CPU 0 Branch Prediction Accuracy: 99.8222% MPKI: 0.32532 Average ROB Occupancy at Mispredict: 92.4378
Branch types
NOT_BRANCH: 40848539 81.6971%
BRANCH_DIRECT_JUMP: 547710 1.09542%
BRANCH_INDIRECT: 182663 0.365326%
BRANCH_CONDITIONAL: 6177170 12.3543%
BRANCH_DIRECT_CALL: 949508 1.89902%
BRANCH_INDIRECT_CALL: 172208 0.344416%
BRANCH_RETURN: 1121713 2.24343%
BRANCH_OTHER: 0 0%

DRAM PAGES: 1048576
Allocated PAGES: 2586
Average_ROB_Occupancy: 56.6052
Average_Decode_Occupancy: 6.6258
Average_FTQ_Occupancy: 3.55348
Indirect max targets: 14 Average targets: 1.15541
Branch_type:  BRANCH_DIRECT_JUMP:  Count Percentage: 3.81002 6.01421 3.70829 3.27462 7.4986 5.44861 6.82825 63.4174 
Branch_type:  BRANCH_INDIRECT:  Count Percentage: 11.7602 3.41528 2.53817 0 13.0346 2.80977 16.5673 49.8747 
Branch_type:  BRANCH_CONDITIONAL:  Count Percentage: 21.1912 3.00289 2.12477 2.50275 3.44818 4.56298 3.43504 59.7322 
Branch_type:  BRANCH_DIRECT_CALL:  Count Percentage: 0.889791 1.27294 0.737454 2.27173 4.11497 2.83812 0.887199 86.9878 
Branch_type:  BRANCH_INDIRECT_CALL:  Count Percentage: 9.56317 0 2.99794 0.00378786 0 2.32254 0.997955 84.1146 
Branch_type:  BRANCH_RETURN:  Count Percentage: 4.73397 1.42504 2.14383 2.46587 4.19639 5.27518 3.69037 76.0694 
Branch_type:  BRANCH_DIRECT_JUMP:  Total Count: 41758 65916 40643 35890 82185 59717 74838 695058 
Branch_type:  BRANCH_INDIRECT:  Total Count: 43039 12499 9289 0 47703 10283 60632 182528 
Branch_type:  BRANCH_CONDITIONAL:  Total Count: 2617459 370906 262444 309131 425906 563602 424284 7377899 
Branch_type:  BRANCH_DIRECT_CALL:  Total Count: 16816 24057 13937 42933 77768 53637 16767 1643966 
Branch_type:  BRANCH_INDIRECT_CALL:  Total Count: 32821 0 10289 13 0 7971 3425 288683 
Branch_type:  BRANCH_RETURN:  Total Count: 105752 31834 47891 55085 93743 117842 82439 1699311 
Number of unique branch instructions: 10076
Upper 32 bits: 
aaaa
ffff
ffff0000
Unique upper 32 bits: 3
Unique upper 36 bits: 3
Unique upper 40 bits: 5
Unique upper 44 bits: 32
Unique upper 48 bits: 155
Offset_3 4161
Offset_4 247
Offset_5 461
Offset_6 511
Offset_7 599
Offset_8 510
Offset_9 465
Offset_10 386
Offset_11 319
Offset_12 283
Offset_13 218
Offset_14 237
Offset_15 190
Offset_16 224
Offset_17 157
Offset_18 122
Offset_19 249
Offset_20 139
Offset_21 235
Offset_22 405
Offset_23 241
Offset_24 331
Offset_25 92
Offset_47 82
Offset_64 2
decode_dispatch_called: 21081003 31.2178
Dispatch_width: 0 10648670 50.5131 15.7691
Dispatch_width: 1 666335 3.16083 0.986741
Dispatch_width: 2 938400 4.4514 1.38963
Dispatch_width: 3 642642 3.04844 0.951655
Dispatch_width: 4 1548194 7.34402 2.29264
Dispatch_width: 5 484731 2.29937 0.717813
Dispatch_width: 6 6152031 29.1828 9.11022
Empty_decode_cycles: 46447867 68.7822
ROB_full_cycles: 1281698 1.898
Starvation_cycles_per_kilo_instr: 600.951
Starvation_cycles_per_kilo_instr_3: 580.622
Starvation_cycles_per_kilo_instr_0: 558.148
Branch_type_1  (3,1)  (4,9)  (5,37)  (6,71)  (7,118)  (8,129)  (9,122)  (10,99)  (11,69)  (12,43)  (13,8)  (14,2)  (15,3)  (16,4)  (18,1)  (19,4)  (20,2)  (21,1)  (22,3)  (23,2)  (24,10)  (25,12) 
Branch_type_2  (3,1)  (4,1)  (5,1)  (8,3)  (9,3)  (12,1)  (13,1)  (14,1)  (16,3)  (17,2)  (20,2)  (21,2)  (23,5)  (24,1)  (47,37) 
Branch_type_3  (3,4159)  (4,237)  (5,419)  (6,425)  (7,452)  (8,317)  (9,251)  (10,156)  (11,124)  (12,50)  (13,7)  (20,1)  (64,1) 
Branch_type_4  (6,3)  (7,8)  (8,25)  (9,52)  (10,62)  (11,63)  (12,104)  (13,93)  (14,107)  (15,90)  (16,100)  (17,72)  (18,55)  (19,124)  (20,71)  (21,124)  (22,216)  (23,136)  (24,191)  (25,76)  (64,1) 
Branch_type_5  (8,2)  (9,1)  (10,4)  (11,6)  (12,3)  (13,14)  (14,16)  (15,11)  (16,20)  (17,11)  (18,16)  (19,12)  (20,11)  (21,13)  (22,42)  (23,26)  (24,37) 
Branch_type_6  (5,4)  (6,12)  (7,21)  (8,34)  (9,36)  (10,65)  (11,57)  (12,82)  (13,95)  (14,111)  (15,86)  (16,97)  (17,72)  (18,50)  (19,109)  (20,52)  (21,95)  (22,144)  (23,72)  (24,92)  (25,4)  (47,45) 
aaaaab1fc620: 2ac9e77e 2aca717c 2aca8eff 2acaf6bc 2acaf9aa 2acaf9f1 2acb1abc 2acb1b7f 2acd4e22 2acdb712 2acf5f9e 2ad0ef44 2ad3f15c 2ad414e6 2ad60e42 2ad8609c 2ad99830 2ada35cc 2ada4676 2ada6612 2adf183e 2adf30e5 2adf5602 2adf785c 2ae11572 2aeb2dcf 2aee101b 2aee1ae1 2b156a8c 2b156b61 2b156bea 2b167f35 2b177656 2b17feec 2b1a3e5a 
aaaaac68f310: 2ac9ec8c 2ac9fb44 2ac9fbd2 2aca59ab 2acac04c 2acaf6e0 2acaf6ec 2acaf6f9 2acaf700 2acaf708 2acf2d90 2ad3cfbd 2ad3cfc4 2ad3d000 2ad3f35f 2ad4955d 2ad49571 2ad4f3f2 2ad4f400 2ad5f240 2ad5f37c 2ad5f86a 2ad5f86f 2ad5f880 2ad5fc0d 2ad5fc14 2ad5fc21 2ad5fe1b 2ad873bb 2ad873e3 2ad8a6b2 2ad9086e 2ad93096 2ad9bbb2 2ada152c 2ada1554 2ada3332 2ada5522 2adf3130 2adf313c 2adf3a3f 2adf3bd9 2adf5788 2adf7a8d 2ae07f6b 2ae0857a 2ae0857e 2ae08630 2ae08634 2ae08637 2ae08642 2ae0866f 2ae086e4 2ae086ec 2ae08717 2ae0871b 2aee0170 2aee1d38 2aee75f4 2aee7662 2aee85ca 2aee85e4 2aee8eef 2af70b84 2af74e8f 2b17d843 
aaaaac690ef0: 2aca598b 2acb111b 2acb175f 2acb1772 2acbfaf4 2acbfb00 2acf374f 2acf6d43 2acfa5c8 2ad3baf1 2ad3d4ac 2ad3d4b8 2ad3f1cf 2ad486b2 2ad5a59b 2ad5fc64 2ad5fcf9 2ad6121c 2ad906e9 2ad907bf 2ad9bada 2ada16ce 2ada1ad5 2ada43df 2ada64c0 2ada72ee 2adeb71a 2adf3bcb 2adf7a38 2adf7c6a 2adf8872 2adf8880 2adf9959 2adf9abe 2ae07f78 2ae08503 2ae08754 2ae12e80 2aea3bea 2aecb509 2aee00b0 2aee2bdd 2aee5467 2aee5601 2aee8f20 2af703fd 2af7048b 2af74e74 
Unique trigger count: 
1 9603
2 514
3 86
4 34
5 7
6 8
7 8
9 3
10 2
11 1
12 1
13 4
16 2
18 2
19 3
35 1
48 1
66 1
BTB PER SET UNIQUE ADDR: 6 7 6 5 3 3 7 9 10 2 5 2 8 5 4 4 6 4 7 9 5 8 7 8 8 11 1 7 6 6 10 10 6 4 8 4 4 6 7 3 8 5 6 9 9 8 6 11 11 6 5 3 13 3 2 7 5 5 9 8 4 11 5 8 6 9 7 7 5 7 6 2 6 4 6 7 6 13 5 4 9 6 7 6 6 8 7 8 8 10 10 9 9 6 6 4 10 8 5 6 8 6 9 9 5 8 6 8 7 5 7 4 4 8 6 11 3 7 6 2 7 8 4 2 6 4 4 6 9 5 10 3 11 4 8 5 5 2 6 8 7 7 6 6 5 10 4 8 10 6 5 11 6 11 4 8 6 8 6 10 10 6 9 5 10 5 3 4 13 5 6 3 7 6 3 2 5 6 8 4 5 6 9 7 7 10 6 6 6 8 5 7 6 6 6 10 11 3 10 5 4 6 9 3 8 4 5 8 7 2 3 6 9 9 6 6 3 8 8 6 6 3 7 7 6 8 13 7 2 10 14 8 4 2 6 8 9 5 3 5 5 3 10 8 14 10 2 5 5 5 8 10 6 6 5 12 4 7 9 5 8 5 7 4 9 15 6 4 7 5 7 6 4 8 10 8 5 3 4 8 7 4 10 5 9 9 7 7 8 4 5 7 5 10 6 4 6 10 6 6 6 6 4 4 6 5 6 4 12 9 6 3 8 3 6 4 10 14 7 4 6 11 5 8 5 5 5 8 3 2 7 2 6 7 10 5 7 7 7 1 5 6 3 8 5 8 3 7 9 4 3 10 9 6 8 6 7 2 7 5 6 10 6 8 11 7 4 3 4 4 8 5 6 5 7 4 11 7 6 10 9 7 6 11 6 4 8 5 5 3 9 5 8 4 7 3 5 5 2 8 6 4 6 5 5 6 7 4 4 3 4 3 9 6 2 5 9 4 2 6 3 5 5 7 11 8 3 2 5 7 3 4 15 6 8 11 7 6 6 3 5 6 8 3 7 8 4 6 5 3 6 3 5 2 9 2 4 6 9 6 5 5 6 10 5 5 11 3 5 7 2 6 9 7 4 3 8 5 4 4 5 2 3 4 3 7 8 3 7 2 11 4 4 8 1 11 5 7 4 4 11 3 3 3 2 5 6 3 3 6 7 4 7 10 3 4 2 11 5 8 6 5 7 5 11 9 4 10 9 7 7 6 5 8 5 7 5 1 6 4 4 8 9 4 8 5 10 12 12 11 6 8 7 7 2 6 8 3 6 4 11 5 8 4 5 5 9 8 10 7 8 3 9 12 7 7 6 11 3 10 13 5 2 6 4 3 3 13 7 5 7 7 4 5 5 5 7 5 5 4 9 5 9 12 7 6 5 9 7 5 8 6 7 5 8 5 7 5 5 7 8 7 10 3 5 9 7 8 4 6 8 7 6 7 7 6 5 5 5 4 11 8 4 6 2 3 6 7 8 8 7 4 10 3 5 2 10 5 6 8 12 3 6 11 7 8 7 6 5 10 7 7 6 6 11 9 8 6 8 6 7 12 9 6 8 8 7 8 8 6 3 8 2 4 4 6 10 7 7 8 3 11 4 5 7 12 3 4 5 5 7 7 6 5 4 7 9 6 1 8 4 3 5 4 4 1 3 9 2 11 7 9 7 2 6 7 7 3 6 4 4 8 5 10 4 4 6 3 7 6 6 3 4 6 2 5 4 11 9 4 5 6 6 7 7 6 14 5 6 3 9 6 0 5 7 5 6 10 3 3 8 6 4 6 10 9 9 7 3 9 3 9 5 6 6 12 11 4 5 4 12 4 8 3 7 6 7 9 5 6 3 4 6 3 4 6 1 5 4 10 6 4 9 4 5 4 5 3 6 6 7 3 7 4 10 5 4 4 6 4 5 4 6 5 4 8 9 5 6 4 8 7 6 8 5 10 7 4 7 5 6 7 4 4 14 5 6 8 9 8 4 6 6 10 8 2 3 6 7 4 5 7 6 6 10 5 7 4 6 7 8 3 5 8 6 3 9 10 4 3 12 8 4 5 8 6 5 10 6 8 9 6 4 4 2 7 4 4 7 6 9 7 10 7 8 9 7 4 5 11 5 4 11 10 5 8 10 10 2 8 8 8 4 4 6 7 9 7 8 3 9 2 13 7 3 6 9 11 6 9 6 6 10 5 3 9 10 8 8 4 3 5 3 9 11 5 8 5 4 7 12 6 4 5 5 6 4 4 8 6 8 7 7 11 4 11 6 11 5 6 3 5 5 4 6 6 7 4 6 5 8 4 9 5 10 4 9 5 3 7 10 6 14 5 
BTB PER SET COUNT: 9 6859 6860 6 3 3 2697 6865 8331 2 1469 2 3425 1468 4 7 1966 4 2072 6503 9 3057 1007 3431 7846 9807 1 767 3036 29 9797 6979 5391 5 3826 6 2943 2453 1298 3 2457 748 26 3676 10781 768 2449 7839 9029 3185 564 3 14220 3 2 3422 999 7344 6377 5318 4 8938 10 3426 31 7333 2076 1968 1469 2728 3438 2 32 4 1352 2933 731 9186 997 4 3115 5392 2698 2692 1964 4172 1965 2946 9307 4853 7704 3940 3914 4421 1963 5 6847 2939 6 991 2472 1132 3434 5367 12 6378 1953 3799 3422 1469 2451 5 4 5049 23 10663 3 1972 1576 2 3422 5900 4 2 3230 5 4 5397 10283 1952 4904 4 10431 4 8815 1957 1466 2 34 8327 6374 7972 1483 4915 5 4184 4 6859 7686 2441 980 10441 2933 11759 4 5855 7834 8334 2176 8444 11762 2472 9801 2470 7849 3920 3 4 13723 1951 8 3 1153 141 3 2 29 1957 6374 4 23 1471 9802 353 1481 10288 3931 22 6369 6890 41 6856 1473 2932 2931 2919 9835 3 1974 8 5 553 6376 5 5408 4 1465 4430 757 2 4 3417 2334 6397 5295 5390 3 3910 1240 7347 469 3 1986 6859 6362 6373 12337 5403 2 11271 11724 6877 4 2 26 7835 3910 7 3 9 11 3 10779 2403 13721 6862 2 3923 982 8 8823 9414 6862 1963 20 7703 4 3192 3918 1468 3778 995 2880 4 5631 12998 1483 6 2451 2443 2942 2443 4 7344 3920 2943 1948 3 4 3428 3211 4 2986 930 9315 8814 2934 3684 2042 4 1957 3420 494 7843 2931 9 32 7805 2442 4416 2931 1956 4 4 2204 16 1002 4 7606 5137 1248 3 3161 3 1244 4 3917 9315 2936 7 3441 5040 999 7345 21 2440 22 3427 5 2 4896 2 1214 2205 10180 8 3910 2445 2455 1 17 1005 4 4194 1015 1044 3 1009 3267 7 3 7401 6374 4268 2966 22 9304 3 6368 1995 2444 4672 31 3189 3946 6869 4 3 5 4 2938 8 2200 751 2673 4 8320 37 1468 4161 3432 3419 2930 10794 29 4 1971 998 750 3 4470 22 3908 6 5397 3 3457 3909 2 1971 2803 4 2791 1462 736 26 4656 4 4 2323 5 3 4409 9 982 982 1778 4 2 1854 3 982 757 2010 5895 1213 7 2 6 2456 141 4 8841 1889 6627 9339 1484 5893 2932 3 20 993 3074 3 1960 3186 4 3425 23 3 2926 3 11 2 9398 2 4 1506 7356 22 989 8 2178 7359 1002 24 7810 3 18 1486 2 1176 7332 831 146 3 26219 998 4 4 29 2 3 492 3 2538 2677 367 1889 2 6568 4 4 6867 1 10405 20 2455 4 4 11545 15 3 4 2 1468 40 3 3 69 2532 4 247 6872 4 4 2 12245 23 2949 2440 1479 2455 455 4552 6854 4 5883 7846 5883 14 2639 7 533 9 2942 7 1 1005 4 4 6367 6909 6 5163 20 2132 4656 10774 10760 1471 7842 1526 6848 2 1947 4772 3 2446 4 10298 7 6375 4 3414 982 6374 2721 7842 2980 7356 4 8332 11273 5390 2940 4663 9800 3 7129 11875 340 2 2934 1473 3 4 10763 2946 20 4657 3422 4 1959 987 1957 43 1956 7 4 6745 2445 9309 4423 5882 2938 8 8196 7839 1503 3911 1752 2446 3440 7839 6 4525 1956 23 5399 2822 2244 7833 3 1488 4401 2449 6379 9 2445 6371 10283 1962 37 8328 10 1002 8 982 4 10779 4061 4 29 2 3 1475 2450 8341 29 5880 4 12736 3 979 3 9805 1468 8320 3911 16140 3 1961 12009 6367 3920 5395 999 23 4405 4421 7830 2445 2928 10275 4122 2938 2444 7484 2444 8328 10789 2568 6855 21070 3678 2456 6859 2998 2447 4 3020 2 4 4 2444 8335 2448 1486 1506 3 9804 4 2442 5562 7354 3 1474 1954 2452 5883 2453 3936 978 981 3296 9320 3671 1 7343 4 3 4407 4 4 1 3 8265 2 10291 6860 9669 8816 2 1975 4813 4254 4 1959 4 5 5863 25 12746 4 4 2449 3 1470 3423 7347 3 4 574 2 1469 4 9775 10291 985 9 7347 5878 2213 3935 2205 12748 697 2459 3 3053 772 0 2008 53 1477 4903 4368 3 3 4898 16 4 5884 5627 7355 3396 120 408 3911 3 4270 8 1965 2615 10629 7866 4 1957 4 9775 4 7375 5 3147 3792 4918 9268 8 24 3 4 1429 498 6 32 1 43 4 7243 688 4 5890 392 1467 8 1729 3 2444 2445 4174 3 7347 4 10823 2201 5 5 2931 4 2192 4 1955 5891 4 3188 6378 1465 1448 5 8811 3253 2932 5397 2443 12252 2934 4 6854 3865 1807 7350 4 4 10793 1003 759 9799 10279 8284 4 5888 2933 6887 5397 2 4 1472 74 4 11 8325 42 3757 6912 1104 3420 4 13 3431 6862 3 11 2829 1533 5 3734 7116 7 3 5490 4655 140 83 2725 2484 17 5629 197 3934 3396 1486 5 4 2 3420 4 979 7832 2853 6664 1961 8331 4910 6868 3252 2450 4 1951 4017 24 495 8081 5632 1470 3908 7331 8817 2 3425 3199 3888 4 984 1370 3420 2477 2411 5297 3 6411 2 10352 3916 3 1706 8145 11264 3474 5142 1954 1962 9795 4908 6 3549 5297 2819 3426 4 3 1468 3 8197 5869 1780 7359 18 4 2466 9799 39 493 511 1951 2450 4 4 2942 2445 6359 1974 3421 9274 5 3433 2444 5871 9 1479 4 9 1423 4 1961 37 5873 5 1956 7 7848 4 10296 1800 6286 5 2819 10 4 35 4900 2210 6622 23 
