
*** ChampSim Multicore Out-of-Order Simulator ***

Warmup Instructions: 50000000
Simulation Instructions: 50000000
Number of CPUs: 1
LLC sets: 2048
LLC ways: 16
Off-chip DRAM Size: 4096 MB Channels: 1 Width: 64-bit Data Rate: 6400 MT/s
CPU 0 runs ./micro_traces/srv548.trace.gz
.gz
ITLB has LRU replacement policy
DTLB has LRU replacement policy
STLB has LRU replacement policy
FDIP Prefetcher at L1I
L1I has LRU replacement policy
L1D has LRU replacement policy
Initialize SRRIP state for L2C
Initialize DRRIP state for LLC
Heartbeat_Variant_0 : 1328 0.324219 per_variant_size: 0 1328 0 0 0 0 0 0 0 
Heartbeat_Variant_1 : 2416 0.589844 per_variant_size: 0 311 2105 0 0 0 0 0 0 
Heartbeat_Variant_2 : 0 0 per_variant_size: 0 0 0 0 0 0 0 0 0 
Heartbeat_Variant_3 : 0 0 per_variant_size: 0 0 0 0 0 0 0 0 0 
Heartbeat_Variant_0_evicts 0 : 5551 1 : 39 2 : 0 3 : 0 
Heartbeat_Variant_1_evicts 0 : 43 1 : 0 2 : 0 3 : 0 
Heartbeat_Variant_2_evicts 0 : 0 1 : 0 2 : 0 3 : 0 
Heartbeat_Variant_3_evicts 0 : 0 1 : 0 2 : 0 3 : 0 
Heartbeat CPU 0 instructions: 10000000 cycles: 2798318 heartbeat IPC: 3.57358 cumulative IPC: 3.57358 (Simulation time: 0 hr 1 min 43 sec) 
Heartbeat_Variant_0 : 1414 0.345215 per_variant_size: 0 1414 0 0 0 0 0 0 0 
Heartbeat_Variant_1 : 2615 0.638428 per_variant_size: 0 246 2369 0 0 0 0 0 0 
Heartbeat_Variant_2 : 0 0 per_variant_size: 0 0 0 0 0 0 0 0 0 
Heartbeat_Variant_3 : 0 0 per_variant_size: 0 0 0 0 0 0 0 0 0 
Heartbeat_Variant_0_evicts 0 : 5744 1 : 193 2 : 0 3 : 0 
Heartbeat_Variant_1_evicts 0 : 180 1 : 0 2 : 0 3 : 0 
Heartbeat_Variant_2_evicts 0 : 0 1 : 0 2 : 0 3 : 0 
Heartbeat_Variant_3_evicts 0 : 0 1 : 0 2 : 0 3 : 0 
Heartbeat CPU 0 instructions: 20000002 cycles: 5595351 heartbeat IPC: 3.57522 cumulative IPC: 3.5744 (Simulation time: 0 hr 3 min 20 sec) 
Heartbeat_Variant_0 : 1413 0.344971 per_variant_size: 0 1413 0 0 0 0 0 0 0 
Heartbeat_Variant_1 : 2650 0.646973 per_variant_size: 0 208 2442 0 0 0 0 0 0 
Heartbeat_Variant_2 : 0 0 per_variant_size: 0 0 0 0 0 0 0 0 0 
Heartbeat_Variant_3 : 0 0 per_variant_size: 0 0 0 0 0 0 0 0 0 
Heartbeat_Variant_0_evicts 0 : 5683 1 : 150 2 : 0 3 : 0 
Heartbeat_Variant_1_evicts 0 : 157 1 : 0 2 : 0 3 : 0 
Heartbeat_Variant_2_evicts 0 : 0 1 : 0 2 : 0 3 : 0 
Heartbeat_Variant_3_evicts 0 : 0 1 : 0 2 : 0 3 : 0 
Heartbeat CPU 0 instructions: 30000002 cycles: 8391847 heartbeat IPC: 3.5759 cumulative IPC: 3.5749 (Simulation time: 0 hr 4 min 59 sec) 
Heartbeat_Variant_0 : 1415 0.345459 per_variant_size: 0 1415 0 0 0 0 0 0 0 
Heartbeat_Variant_1 : 2652 0.647461 per_variant_size: 0 218 2434 0 0 0 0 0 0 
Heartbeat_Variant_2 : 0 0 per_variant_size: 0 0 0 0 0 0 0 0 0 
Heartbeat_Variant_3 : 0 0 per_variant_size: 0 0 0 0 0 0 0 0 0 
Heartbeat_Variant_0_evicts 0 : 5630 1 : 86 2 : 0 3 : 0 
Heartbeat_Variant_1_evicts 0 : 84 1 : 0 2 : 0 3 : 0 
Heartbeat_Variant_2_evicts 0 : 0 1 : 0 2 : 0 3 : 0 
Heartbeat_Variant_3_evicts 0 : 0 1 : 0 2 : 0 3 : 0 
Heartbeat CPU 0 instructions: 40000001 cycles: 11188167 heartbeat IPC: 3.57613 cumulative IPC: 3.57521 (Simulation time: 0 hr 6 min 40 sec) 
Heartbeat_Variant_0 : 1420 0.34668 per_variant_size: 0 1420 0 0 0 0 0 0 0 
Heartbeat_Variant_1 : 2657 0.648682 per_variant_size: 0 183 2474 0 0 0 0 0 0 
Heartbeat_Variant_2 : 0 0 per_variant_size: 0 0 0 0 0 0 0 0 0 
Heartbeat_Variant_3 : 0 0 per_variant_size: 0 0 0 0 0 0 0 0 0 
Heartbeat_Variant_0_evicts 0 : 5738 1 : 116 2 : 0 3 : 0 
Heartbeat_Variant_1_evicts 0 : 114 1 : 0 2 : 0 3 : 0 
Heartbeat_Variant_2_evicts 0 : 0 1 : 0 2 : 0 3 : 0 
Heartbeat_Variant_3_evicts 0 : 0 1 : 0 2 : 0 3 : 0 
Heartbeat CPU 0 instructions: 50000000 cycles: 13984240 heartbeat IPC: 3.57644 cumulative IPC: 3.57545 (Simulation time: 0 hr 8 min 17 sec) 

Warmup complete CPU 0 instructions: 50000004 cycles: 13984241 (Simulation time: 0 hr 8 min 17 sec) 

Cycle: 20000000 FTQ IN: 58234765 FTQ occupancy: 20.0455 DECODE IN: 58234708 DECODE occupancy: 52.2233 ROB IN: 58234648 ROB occupancy: 315.278 ROB OUT: 58234297
Heartbeat_Variant_0 : 1428 0.348633 per_variant_size: 0 1428 0 0 0 0 0 0 0 
Heartbeat_Variant_1 : 2651 0.647217 per_variant_size: 0 189 2462 0 0 0 0 0 0 
Heartbeat_Variant_2 : 0 0 per_variant_size: 0 0 0 0 0 0 0 0 0 
Heartbeat_Variant_3 : 0 0 per_variant_size: 0 0 0 0 0 0 0 0 0 
Heartbeat_Variant_0_evicts 0 : 5597 1 : 59 2 : 0 3 : 0 
Heartbeat_Variant_1_evicts 0 : 51 1 : 0 2 : 0 3 : 0 
Heartbeat_Variant_2_evicts 0 : 0 1 : 0 2 : 0 3 : 0 
Heartbeat_Variant_3_evicts 0 : 0 1 : 0 2 : 0 3 : 0 
Heartbeat CPU 0 instructions: 60000002 cycles: 21274812 heartbeat IPC: 1.37163 cumulative IPC: 1.37163 (Simulation time: 0 hr 10 min 11 sec) 
Heartbeat_Variant_0 : 1428 0.348633 per_variant_size: 0 1428 0 0 0 0 0 0 0 
Heartbeat_Variant_1 : 2651 0.647217 per_variant_size: 0 193 2458 0 0 0 0 0 0 
Heartbeat_Variant_2 : 0 0 per_variant_size: 0 0 0 0 0 0 0 0 0 
Heartbeat_Variant_3 : 0 0 per_variant_size: 0 0 0 0 0 0 0 0 0 
Heartbeat_Variant_0_evicts 0 : 5517 1 : 2 2 : 0 3 : 0 
Heartbeat_Variant_1_evicts 0 : 2 1 : 0 2 : 0 3 : 0 
Heartbeat_Variant_2_evicts 0 : 0 1 : 0 2 : 0 3 : 0 
Heartbeat_Variant_3_evicts 0 : 0 1 : 0 2 : 0 3 : 0 
Heartbeat CPU 0 instructions: 70000002 cycles: 28471240 heartbeat IPC: 1.38958 cumulative IPC: 1.38055 (Simulation time: 0 hr 12 min 4 sec) 
Cycle: 30000000 FTQ IN: 13892670 FTQ occupancy: 13.0297 DECODE IN: 13892636 DECODE occupancy: 34.0291 ROB IN: 13892636 ROB occupancy: 239.602 ROB OUT: 13892635
Heartbeat_Variant_0 : 1428 0.348633 per_variant_size: 0 1428 0 0 0 0 0 0 0 
Heartbeat_Variant_1 : 2653 0.647705 per_variant_size: 0 183 2470 0 0 0 0 0 0 
Heartbeat_Variant_2 : 0 0 per_variant_size: 0 0 0 0 0 0 0 0 0 
Heartbeat_Variant_3 : 0 0 per_variant_size: 0 0 0 0 0 0 0 0 0 
Heartbeat_Variant_0_evicts 0 : 5702 1 : 193 2 : 0 3 : 0 
Heartbeat_Variant_1_evicts 0 : 195 1 : 0 2 : 0 3 : 0 
Heartbeat_Variant_2_evicts 0 : 0 1 : 0 2 : 0 3 : 0 
Heartbeat_Variant_3_evicts 0 : 0 1 : 0 2 : 0 3 : 0 
Heartbeat CPU 0 instructions: 80000002 cycles: 35802976 heartbeat IPC: 1.36393 cumulative IPC: 1.37497 (Simulation time: 0 hr 13 min 58 sec) 
Cycle: 40000000 FTQ IN: 13730786 FTQ occupancy: 13.0197 DECODE IN: 13730877 DECODE occupancy: 33.5914 ROB IN: 13730937 ROB occupancy: 237.19 ROB OUT: 13731148
Heartbeat_Variant_0 : 1428 0.348633 per_variant_size: 0 1428 0 0 0 0 0 0 0 
Heartbeat_Variant_1 : 2654 0.647949 per_variant_size: 0 185 2469 0 0 0 0 0 0 
Heartbeat_Variant_2 : 0 0 per_variant_size: 0 0 0 0 0 0 0 0 0 
Heartbeat_Variant_3 : 0 0 per_variant_size: 0 0 0 0 0 0 0 0 0 
Heartbeat_Variant_0_evicts 0 : 5590 1 : 5 2 : 0 3 : 0 
Heartbeat_Variant_1_evicts 0 : 6 1 : 0 2 : 0 3 : 0 
Heartbeat_Variant_2_evicts 0 : 0 1 : 0 2 : 0 3 : 0 
Heartbeat_Variant_3_evicts 0 : 0 1 : 0 2 : 0 3 : 0 
Heartbeat CPU 0 instructions: 90000001 cycles: 42984426 heartbeat IPC: 1.39248 cumulative IPC: 1.3793 (Simulation time: 0 hr 15 min 52 sec) 
Cycle: 50000000 FTQ IN: 13749332 FTQ occupancy: 13.1544 DECODE IN: 13749302 DECODE occupancy: 33.9748 ROB IN: 13749302 ROB occupancy: 237.919 ROB OUT: 13749395
Heartbeat_Variant_0 : 1433 0.349854 per_variant_size: 0 1433 0 0 0 0 0 0 0 
Heartbeat_Variant_1 : 2651 0.647217 per_variant_size: 0 169 2482 0 0 0 0 0 0 
Heartbeat_Variant_2 : 0 0 per_variant_size: 0 0 0 0 0 0 0 0 0 
Heartbeat_Variant_3 : 0 0 per_variant_size: 0 0 0 0 0 0 0 0 0 
Heartbeat_Variant_0_evicts 0 : 5640 1 : 86 2 : 0 3 : 0 
Heartbeat_Variant_1_evicts 0 : 82 1 : 0 2 : 0 3 : 0 
Heartbeat_Variant_2_evicts 0 : 0 1 : 0 2 : 0 3 : 0 
Heartbeat_Variant_3_evicts 0 : 0 1 : 0 2 : 0 3 : 0 
Heartbeat CPU 0 instructions: 100000003 cycles: 50283832 heartbeat IPC: 1.36997 cumulative IPC: 1.37743 (Simulation time: 0 hr 17 min 49 sec) 
Finished CPU 0 instructions: 50000003 cycles: 36299592 cumulative IPC: 1.37743 (Simulation time: 0 hr 17 min 49 sec) 

ChampSim completed all CPUs

Region of Interest Statistics

CPU 0 cumulative IPC: 1.37743 instructions: 50000003 cycles: 36299592
 Fetch stage stalled: 53.4428  Sim cycles: 36299592 fetch stall cycle: 19399515
 Empty decode stage: 34.9632  Sim cycles: 36299592 fetch stall cycle: 12691495
ITLB TOTAL     ACCESS:    5867147  HIT:    5372264  MISS:     494883  HIT %:    91.5652  MISS %:    8.43482   MPKI: 9.89766
ITLB LOAD TRANSLATION INSTRUCTION	ACCESS:    5741531  HIT:    5246648  MISS:     494883  HIT %:    91.3806  MISS %:    8.61936  MPKI: 9.89766
ITLB TRANSLATION FROM L1D PREFETCHER INSTRUCTION	ACCESS:     125616  HIT:     125616  MISS:          0  HIT %:        100  MISS %:          0  MPKI: 0

ITLB AVERAGE MISS LATENCY: 9.05903 cycles
ITLB RQ	ACCESS:    8013717	FORWARD:          0	MERGED:    1699497	TO_CACHE:    6314220

DTLB TOTAL     ACCESS:    8971241  HIT:    8500920  MISS:     470321  HIT %:    94.7575  MISS %:    5.24254   MPKI: 9.40642
DTLB LOAD TRANSLATION DATA	ACCESS:    8971241  HIT:    8500920  MISS:     470321  HIT %:    94.7575  MISS %:    5.24254  MPKI: 9.40642

DTLB AVERAGE MISS LATENCY: 9.35723 cycles
DTLB RQ	ACCESS:   13342982	FORWARD:          0	MERGED:    4334900	TO_CACHE:    9008082

STLB TOTAL     ACCESS:    1212891  HIT:    1210697  MISS:       2194  HIT %:    99.8191  MISS %:    0.18089   MPKI: 0.04388
STLB LOAD TRANSLATION INSTRUCTION	ACCESS:     494883  HIT:     494585  MISS:        298  HIT %:    99.9398  MISS %:  0.0602163  MPKI: 0.00596
STLB LOAD TRANSLATION DATA	ACCESS:     470321  HIT:     468452  MISS:       1869  HIT %:    99.6026  MISS %:   0.397388  MPKI: 0.03738
STLB TRANSLATION FROM L1D PREFETCHER DATA	ACCESS:     247687  HIT:     247660  MISS:         27  HIT %:    99.9891  MISS %:  0.0109009  MPKI: 0.00054

STLB AVERAGE MISS LATENCY: 75.3573 cycles
STLB RQ	ACCESS:    1333122	FORWARD:          0	MERGED:     120182	TO_CACHE:    1212940

STLB Hit, L1D data hit: 0
STLB Hit, L2C data hit: 0
STLB Hit, LLC data hit: 0
STLB Hit, LLC data miss: 0
STLB STLB hints to L2: 0
L1D TOTAL     ACCESS:   13091367  HIT:   11967398  MISS:    1123969  HIT %:    91.4144  MISS %:    8.58557   MPKI: 22.4794
L1D LOAD DATA	ACCESS:    6553210  HIT:    5812852  MISS:     740358  HIT %:    88.7024  MISS %:    11.2976  MPKI: 14.8072
L1D RFO DATA	ACCESS:    6211561  HIT:    5923731  MISS:     287830  HIT %:    95.3662  MISS %:    4.63378  MPKI: 5.7566
L1D PREFETCH DATA	ACCESS:     326596  HIT:     230815  MISS:      95781  HIT %:    70.6729  MISS %:    29.3271  MPKI: 1.91562

L1D PREFETCH  REQUESTED:     736189  ISSUED:     736189  USEFUL:      35371  USELESS:      68460
L1D USEFUL LOAD PREFETCHES:      35371 PREFETCH ISSUED TO LOWER LEVEL:     103872  ACCURACY: 34.0525
 TIMELY PREFETCHES:      35371 LATE PREFETCHES: 8053 DROPPED PREFETCHES: 6
L1D AVERAGE MISS LATENCY: 231357 cycles
L1D RQ	ACCESS:   10695667	FORWARD:          0	MERGED:    3942393	TO_CACHE:    6588205
L1D WQ	ACCESS:    6950873	FORWARD:     165424	MERGED:     196096	TO_CACHE:    6754777
L1D PQ	ACCESS:     368272	FORWARD:          0	MERGED:          0	TO_CACHE:     367917

L1D UNIQUE REGIONS ACCESSED: 0
L1D REGIONS CONFLICTS: 0
L1D Cross Page Prefetch Requests: 6978
L1D Same Page Prefetch Requests: 751288
L1D ROI Sum of L1D PQ occupancy: 4674175
L1D PREFETCHES PUSHED FROM L2C: 0
L1I TOTAL     ACCESS:    7151770  HIT:    4386033  MISS:    2765737  HIT %:    61.3279  MISS %:    38.6721   MPKI: 55.3147
L1I LOAD INSTRUCTION	ACCESS:    6493866  HIT:    3728129  MISS:    2765737  HIT %:      57.41  MISS %:      42.59  MPKI: 55.3147
L1I PREFETCH INSTRUCTION	ACCESS:     657904  HIT:     657904  MISS:          0  HIT %:        100  MISS %:          0  MPKI: 0

L1I PREFETCH  REQUESTED:    1612818  ISSUED:    1612818  USEFUL:          0  USELESS:          0
L1I USEFUL LOAD PREFETCHES:          0 PREFETCH ISSUED TO LOWER LEVEL:          0  ACCURACY: -nan
 TIMELY PREFETCHES:          0 LATE PREFETCHES: 0 DROPPED PREFETCHES: 0
L1I AVERAGE MISS LATENCY: 17.4675 cycles
L1I RQ	ACCESS:    9508495	FORWARD:          0	MERGED:    2676537	TO_CACHE:    6831958
L1I PQ	ACCESS:    1612818	FORWARD:          0	MERGED:     431059	TO_CACHE:    1181759

L1BTB TOTAL     ACCESS:    5669164  HIT:    2035924  MISS:    3633240  HIT %:    35.9122  MISS %:    64.0878   MPKI: 72.6648
L1BTB BRANCH_DIRECT_JUMP	ACCESS:     547503 HIT:     143864 MISS:     403639 AVERAGE STALL: 50.9256 AVERAGE FETCH STALL: 15.6977 AVERAGE FETCH QUEUE STALL: 16.3065 AVERAGE DECODE STALL: 18.0785 AVERAGE EXECUTE STALL: 2.01802e+15
L1BTB BRANCH_INDIRECT	ACCESS:     182329 HIT:      65593 MISS:     116736 AVERAGE STALL: 104.99 AVERAGE FETCH STALL: 10.8556 AVERAGE FETCH QUEUE STALL: 14.9963 AVERAGE DECODE STALL: 11.8518 AVERAGE EXECUTE STALL: 66.3234
L1BTB BRANCH_CONDITIONAL	ACCESS:    2700480 HIT:    1406641 MISS:    1293839 AVERAGE STALL: 63.4108 AVERAGE FETCH STALL: 28.6514 AVERAGE FETCH QUEUE STALL: 19.9284 AVERAGE DECODE STALL: 14.1469 AVERAGE EXECUTE STALL: 6.17154e+15
L1BTB BRANCH_DIRECT_CALL	ACCESS:     946913 HIT:     106503 MISS:     840410 AVERAGE STALL: 56.324 AVERAGE FETCH STALL: 23.5233 AVERAGE FETCH QUEUE STALL: 18.8341 AVERAGE DECODE STALL: 13.1001 AVERAGE EXECUTE STALL: 1.61956e+16
L1BTB BRANCH_INDIRECT_CALL	ACCESS:     172517 HIT:      21908 MISS:     150609 AVERAGE STALL: 134.067 AVERAGE FETCH STALL: 13.2474 AVERAGE FETCH QUEUE STALL: 14.1037 AVERAGE DECODE STALL: 10.1294 AVERAGE EXECUTE STALL: 96.0962
L1BTB BRANCH_RETURN	ACCESS:    1119422 HIT:     291415 MISS:     828007 AVERAGE STALL: 47.3059 AVERAGE FETCH STALL: 16.9347 AVERAGE FETCH QUEUE STALL: 4.30998 AVERAGE DECODE STALL: 5.83362 AVERAGE EXECUTE STALL: 4.34184e+14
L1BTB BRANCH_OTHER ACCESS:          0 HIT:          0 MISS:          0 AVERAGE STALL: -nan AVERAGE FETCH STALL: -nan AVERAGE FETCH QUEUE STALL: -nan AVERAGE DECODE STALL: -nan AVERAGE EXECUTE STALL: -nan
L1BTB TOTAL ROB OCCUPANCY AT BTB MISS: 2.41962

L2BTB TOTAL     ACCESS:    3607915  HIT:    3544865  MISS:      63050  HIT %:    98.2525  MISS %:    1.74755   MPKI: 1.261
L2BTB BRANCH_DIRECT_JUMP	ACCESS:     399519 HIT:     394497 MISS:       5022 AVERAGE STALL: 50.9256 AVERAGE FETCH STALL: 15.6977 AVERAGE FETCH QUEUE STALL: 16.3065 AVERAGE DECODE STALL: 18.0785 AVERAGE EXECUTE STALL: 2.01802e+15
L2BTB BRANCH_INDIRECT	ACCESS:     106442 HIT:     103749 MISS:       2693 AVERAGE STALL: 104.99 AVERAGE FETCH STALL: 10.8556 AVERAGE FETCH QUEUE STALL: 14.9963 AVERAGE DECODE STALL: 11.8518 AVERAGE EXECUTE STALL: 66.3234
L2BTB BRANCH_CONDITIONAL	ACCESS:    1293839 HIT:    1290816 MISS:       3023 AVERAGE STALL: 63.4108 AVERAGE FETCH STALL: 28.6514 AVERAGE FETCH QUEUE STALL: 19.9284 AVERAGE DECODE STALL: 14.1469 AVERAGE EXECUTE STALL: 6.17154e+15
L2BTB BRANCH_DIRECT_CALL	ACCESS:     840410 HIT:     839246 MISS:       1164 AVERAGE STALL: 56.324 AVERAGE FETCH STALL: 23.5233 AVERAGE FETCH QUEUE STALL: 18.8341 AVERAGE DECODE STALL: 13.1001 AVERAGE EXECUTE STALL: 1.61956e+16
L2BTB BRANCH_INDIRECT_CALL	ACCESS:     141117 HIT:     131056 MISS:      10061 AVERAGE STALL: 134.067 AVERAGE FETCH STALL: 13.2474 AVERAGE FETCH QUEUE STALL: 14.1037 AVERAGE DECODE STALL: 10.1294 AVERAGE EXECUTE STALL: 96.0962
L2BTB BRANCH_RETURN	ACCESS:     826588 HIT:     785501 MISS:      41087 AVERAGE STALL: 47.3059 AVERAGE FETCH STALL: 16.9347 AVERAGE FETCH QUEUE STALL: 4.30998 AVERAGE DECODE STALL: 5.83362 AVERAGE EXECUTE STALL: 4.34184e+14
L2BTB BRANCH_OTHER ACCESS:          0 HIT:          0 MISS:          0 AVERAGE STALL: -nan AVERAGE FETCH STALL: -nan AVERAGE FETCH QUEUE STALL: -nan AVERAGE DECODE STALL: -nan AVERAGE EXECUTE STALL: -nan
L2BTB TOTAL ROB OCCUPANCY AT BTB MISS: 139.43

L2C TOTAL     ACCESS:    4502622  HIT:    4001568  MISS:     501054  HIT %:     88.872  MISS %:     11.128   MPKI: 10.0211
L2C LOAD INSTRUCTION	ACCESS:    2765737  HIT:    2482130  MISS:     283607  HIT %:    89.7457  MISS %:    10.2543  MPKI: 5.67214
L2C LOAD TRANSLATION INSTRUCTION	ACCESS:        336  HIT:        104  MISS:        232  HIT %:    30.9524  MISS %:    69.0476  MPKI: 0.00464
L2C LOAD DATA	ACCESS:     732276  HIT:     656237  MISS:      76039  HIT %:    89.6161  MISS %:    10.3839  MPKI: 1.52078
L2C RFO DATA	ACCESS:     287761  HIT:     237875  MISS:      49886  HIT %:    82.6641  MISS %:    17.3359  MPKI: 0.99772
L2C PREFETCH DATA	ACCESS:     190115  HIT:     115119  MISS:      74996  HIT %:    60.5523  MISS %:    39.4477  MPKI: 1.49992
L2C WRITEBACK DATA	ACCESS:     524398  HIT:     509559  MISS:      14839  HIT %:    97.1703  MISS %:    2.82972  MPKI: 0.29678
L2C LOAD TRANSLATION DATA	ACCESS:       1940  HIT:        512  MISS:       1428  HIT %:    26.3918  MISS %:    73.6082  MPKI: 0.02856
L2C TRANSLATION FROM L1D PREFETCHER DATA	ACCESS:         59  HIT:         32  MISS:         27  HIT %:    54.2373  MISS %:    45.7627  MPKI: 0.00054

L2C PREFETCH  REQUESTED:      94257  ISSUED:      94257  USEFUL:       8943  USELESS:      66802
L2C USEFUL LOAD PREFETCHES:       8943 PREFETCH ISSUED TO LOWER LEVEL:      75693  ACCURACY: 11.8148
 TIMELY PREFETCHES:       8943 LATE PREFETCHES: 697 DROPPED PREFETCHES: 0
L2C AVERAGE MISS LATENCY: 38.8399 cycles
L2C RQ	ACCESS:    3788171	FORWARD:          0	MERGED:          0	TO_CACHE:    3788111
L2C WQ	ACCESS:     524398	FORWARD:         61	MERGED:          0	TO_CACHE:     524398
L2C PQ	ACCESS:     198129	FORWARD:          0	MERGED:       3277	TO_CACHE:     194851

L2C Dense regions hint from L2: 0
PSCL5 TOTAL     ACCESS:       4410  HIT:       2205  MISS:       2205  HIT %:         50  MISS %:         50   MPKI: 0.0441
PSCL5 LOAD TRANSLATION INSTRUCTION	ACCESS:       4294  HIT:       2147  MISS:       2147  HIT %:         50  MISS %:         50  MPKI: 0.04294
PSCL5 TRANSLATION FROM L1D PREFETCHER INSTRUCTION	ACCESS:        116  HIT:         58  MISS:         58  HIT %:         50  MISS %:         50  MPKI: 0.00116


PSCL4 TOTAL     ACCESS:       4337  HIT:       2166  MISS:       2171  HIT %:    49.9424  MISS %:    50.0576   MPKI: 0.04342
PSCL4 LOAD TRANSLATION INSTRUCTION	ACCESS:       3821  HIT:       2113  MISS:       1708  HIT %:    55.2997  MISS %:    44.7003  MPKI: 0.03416
PSCL4 TRANSLATION FROM L1D PREFETCHER INSTRUCTION	ACCESS:         99  HIT:         53  MISS:         46  HIT %:    53.5354  MISS %:    46.4646  MPKI: 0.00092
PSCL4 LOAD TRANSLATION DATA	ACCESS:        410  HIT:          0  MISS:        410  HIT %:          0  MISS %:        100  MPKI: 0.0082
PSCL4 TRANSLATION FROM L1D PREFETCHER DATA	ACCESS:          7  HIT:          0  MISS:          7  HIT %:          0  MISS %:        100  MPKI: 0.00014


PSCL3 TOTAL     ACCESS:       4341  HIT:       2168  MISS:       2173  HIT %:    49.9424  MISS %:    50.0576   MPKI: 0.04346
PSCL3 LOAD TRANSLATION INSTRUCTION	ACCESS:       3823  HIT:       2115  MISS:       1708  HIT %:     55.323  MISS %:     44.677  MPKI: 0.03416
PSCL3 TRANSLATION FROM L1D PREFETCHER INSTRUCTION	ACCESS:         99  HIT:         53  MISS:         46  HIT %:    53.5354  MISS %:    46.4646  MPKI: 0.00092
PSCL3 LOAD TRANSLATION DATA	ACCESS:        412  HIT:          0  MISS:        412  HIT %:          0  MISS %:        100  MPKI: 0.00824
PSCL3 TRANSLATION FROM L1D PREFETCHER DATA	ACCESS:          7  HIT:          0  MISS:          7  HIT %:          0  MISS %:        100  MPKI: 0.00014


PSCL2 TOTAL     ACCESS:       4289  HIT:       2084  MISS:       2205  HIT %:    48.5894  MISS %:    51.4106   MPKI: 0.0441
PSCL2 LOAD TRANSLATION INSTRUCTION	ACCESS:       2322  HIT:       2027  MISS:        295  HIT %:    87.2954  MISS %:    12.7046  MPKI: 0.0059
PSCL2 TRANSLATION FROM L1D PREFETCHER INSTRUCTION	ACCESS:         57  HIT:         57  MISS:          0  HIT %:        100  MISS %:          0  MPKI: 0
PSCL2 LOAD TRANSLATION DATA	ACCESS:       1853  HIT:          0  MISS:       1853  HIT %:          0  MISS %:        100  MPKI: 0.03706
PSCL2 TRANSLATION FROM L1D PREFETCHER DATA	ACCESS:         57  HIT:          0  MISS:         57  HIT %:          0  MISS %:        100  MPKI: 0.00114


LLC TOTAL     ACCESS:     559151  HIT:     528412  MISS:      30739  HIT %:    94.5026  MISS %:    5.49744   MPKI: 0.61478
LLC LOAD INSTRUCTION	ACCESS:     283608  HIT:     282610  MISS:        998  HIT %:    99.6481  MISS %:   0.351894  MPKI: 0.01996
LLC LOAD TRANSLATION INSTRUCTION	ACCESS:        232  HIT:        200  MISS:         32  HIT %:    86.2069  MISS %:    13.7931  MPKI: 0.00064
LLC LOAD DATA	ACCESS:      75374  HIT:      71729  MISS:       3645  HIT %:    95.1641  MISS %:    4.83589  MPKI: 0.0729
LLC RFO DATA	ACCESS:      49849  HIT:      34561  MISS:      15288  HIT %:    69.3314  MISS %:    30.6686  MPKI: 0.30576
LLC PREFETCH DATA	ACCESS:      75693  HIT:      65503  MISS:      10190  HIT %:    86.5377  MISS %:    13.4623  MPKI: 0.2038
LLC WRITEBACK DATA	ACCESS:      72940  HIT:      72455  MISS:        485  HIT %:    99.3351  MISS %:    0.66493  MPKI: 0.0097
LLC LOAD TRANSLATION DATA	ACCESS:       1428  HIT:       1327  MISS:        101  HIT %:    92.9272  MISS %:    7.07283  MPKI: 0.00202
LLC TRANSLATION FROM L1D PREFETCHER DATA	ACCESS:         27  HIT:         27  MISS:          0  HIT %:        100  MISS %:          0  MPKI: 0

LLC AVERAGE MISS LATENCY: 157.359 cycles
LLC RQ	ACCESS:     410523	FORWARD:          0	MERGED:          0	TO_CACHE:     410518
LLC WQ	ACCESS:      72940	FORWARD:          5	MERGED:          0	TO_CACHE:      72940
LLC PQ	ACCESS:      75693	FORWARD:          0	MERGED:          0	TO_CACHE:      75693

LLC Dense regions hint to LLC: 0

RAW hits: 1941227
Loads Generated: 12636894
Loads sent to L1D: 10695667
Stores Generated: 6950862
Stores sent to L1D: 6950873
Major fault: 0 Minor fault: 2661
Allocated PAGES: 2661

stream: 
stream:times selected: 1188947
stream:pref_filled: 121958
stream:pref_useful: 24299
stream:pref_late: 6660
stream:misses: 7970
stream:misses_by_poll: 0

CS: 
CS:times selected: 181836
CS:pref_filled: 60740
CS:pref_useful: 37336
CS:pref_late: 6945
CS:misses: 16958
CS:misses_by_poll: 5

CPLX: 
CPLX:times selected: 1005896
CPLX:pref_filled: 19317
CPLX:pref_useful: 4583
CPLX:pref_late: 3012
CPLX:misses: 93238
CPLX:misses_by_poll: 0

NL_L1: 
NL:times selected: 20699
NL:pref_filled: 812
NL:pref_useful: 390
NL:pref_late: 295
NL:misses: 1801
NL:misses_by_poll: 0

total selections: 2397378
total_filled: 95781
total_useful: 35371
total_late: 18282
total_polluted: 5
total_misses_after_warmup: 775353
conflicts: 5518677

test: 115335

DRAM Statistics
 CHANNEL 0
 RQ ROW_BUFFER_HIT:      11369  ROW_BUFFER_MISS:      18857
 DBUS_CONGESTED:         21
 WQ ROW_BUFFER_HIT:       1463  ROW_BUFFER_MISS:      12937  FULL:          0

 AVG_CONGESTED_CYCLE: 5

CPU 0 Branch Prediction Accuracy: 99.8222% MPKI: 0.32518 Average ROB Occupancy at Mispredict: 189.153
Branch types
NOT_BRANCH: 40854194 81.7084%
BRANCH_DIRECT_JUMP: 547503 1.09501%
BRANCH_INDIRECT: 182329 0.364658%
BRANCH_CONDITIONAL: 6176899 12.3538%
BRANCH_DIRECT_CALL: 946913 1.89383%
BRANCH_INDIRECT_CALL: 172517 0.345034%
BRANCH_RETURN: 1119422 2.23884%
BRANCH_OTHER: 0 0%

DRAM PAGES: 1048576
Allocated PAGES: 2661
Average_ROB_Occupancy: 239.344
Average_Decode_Occupancy: 33.8668
Average_FTQ_Occupancy: 13.0787
Indirect max targets: 14 Average targets: 1.17778
Branch_type:  BRANCH_DIRECT_JUMP:  Count Percentage: 3.31585 6.40467 4.09987 3.79399 9.94991 2.71886 1.60283 68.114 
Branch_type:  BRANCH_INDIRECT:  Count Percentage: 13.7711 3.44093 5.36714 3.7354 9.68519 1.20521 3.20251 59.5925 
Branch_type:  BRANCH_CONDITIONAL:  Count Percentage: 21.4796 3.03675 1.85294 3.15863 6.30752 9.51825 0.927367 53.7189 
Branch_type:  BRANCH_DIRECT_CALL:  Count Percentage: 0.752136 1.26427 1.02866 2.5889 5.12549 2.07211 0.61867 86.5498 
Branch_type:  BRANCH_INDIRECT_CALL:  Count Percentage: 9.52367 0 2.98401 4.26154 1.25889 2.99158 0.995932 77.9844 
Branch_type:  BRANCH_RETURN:  Count Percentage: 4.51994 1.37725 2.61165 3.2738 8.30368 10.5543 1.1845 68.1749 
Branch_type:  BRANCH_DIRECT_JUMP:  Total Count: 36325 70163 44914 41563 109001 29785 17559 746187 
Branch_type:  BRANCH_INDIRECT:  Total Count: 50367 12585 19630 13662 35423 4408 11713 217956 
Branch_type:  BRANCH_CONDITIONAL:  Total Count: 2653661 375170 228919 390228 779252 1175916 114570 6636619 
Branch_type:  BRANCH_DIRECT_CALL:  Total Count: 14190 23852 19407 48843 96699 39093 11672 1632872 
Branch_type:  BRANCH_INDIRECT_CALL:  Total Count: 32704 0 10247 14634 4323 10273 3420 267796 
Branch_type:  BRANCH_RETURN:  Total Count: 100835 30725 58263 73035 185246 235454 26425 1520908 
Number of unique branch instructions: 10810
Upper 32 bits: 
aaaa
ffff
ffff0000
Unique upper 32 bits: 3
Unique upper 36 bits: 3
Unique upper 40 bits: 5
Unique upper 44 bits: 32
Unique upper 48 bits: 158
Variant_0 : 1433 0.349854
Variant_1 : 2651 0.647217
Variant_2 : 0 0
Variant_3 : 0 0
Offset_3 4480
Offset_4 261
Offset_5 486
Offset_6 545
Offset_7 643
Offset_8 585
Offset_9 519
Offset_10 426
Offset_11 348
Offset_12 325
Offset_13 237
Offset_14 247
Offset_15 192
Offset_16 234
Offset_17 170
Offset_18 154
Offset_19 267
Offset_20 145
Offset_21 235
Offset_22 411
Offset_23 241
Offset_24 347
Offset_25 117
Offset_47 92
decode_dispatch_called: 25429073 70.0533
Dispatch_width: 0 13584946 53.4229 37.4245
Dispatch_width: 1 961040 3.7793 2.64752
Dispatch_width: 2 826767 3.25127 2.27762
Dispatch_width: 3 494560 1.94486 1.36244
Dispatch_width: 4 5656966 22.2461 15.5841
Dispatch_width: 5 155024 0.609633 0.427068
Dispatch_width: 6 3749770 14.746 10.3301
Empty_decode_cycles: 10870519 29.9467
ROB_full_cycles: 8968670 24.7074
Starvation_cycles_per_kilo_instr: 235.812
Starvation_cycles_per_kilo_instr_3: 177.692
Starvation_cycles_per_kilo_instr_0: 154.868
Branch_type_1  (3,1)  (4,9)  (5,39)  (6,75)  (7,126)  (8,152)  (9,137)  (10,110)  (11,77)  (12,55)  (13,11)  (14,2)  (15,3)  (16,4)  (18,1)  (19,5)  (20,2)  (21,1)  (22,3)  (23,2)  (24,10)  (25,12) 
Branch_type_2  (3,1)  (4,1)  (5,1)  (8,4)  (9,4)  (10,1)  (12,1)  (13,1)  (14,1)  (16,3)  (17,2)  (20,2)  (21,2)  (23,5)  (24,1)  (47,41) 
Branch_type_3  (3,4478)  (4,251)  (5,442)  (6,453)  (7,485)  (8,360)  (9,282)  (10,173)  (11,136)  (12,62)  (13,10) 
Branch_type_4  (6,4)  (7,8)  (8,26)  (9,58)  (10,68)  (11,69)  (12,116)  (13,100)  (14,112)  (15,91)  (16,105)  (17,77)  (18,66)  (19,129)  (20,74)  (21,124)  (22,216)  (23,136)  (24,202)  (25,101) 
Branch_type_5  (8,3)  (9,1)  (10,4)  (11,5)  (12,3)  (13,14)  (14,16)  (15,11)  (16,22)  (17,13)  (18,23)  (19,14)  (20,11)  (21,13)  (22,43)  (23,26)  (24,38) 
Branch_type_6  (5,4)  (6,13)  (7,24)  (8,40)  (9,37)  (10,70)  (11,61)  (12,88)  (13,101)  (14,116)  (15,87)  (16,100)  (17,78)  (18,64)  (19,119)  (20,56)  (21,95)  (22,149)  (23,72)  (24,96)  (25,4)  (47,51) 
Unique trigger count: 
Variant_0_evicts_0 : 0
Variant_0_evicts_1 : 0
Variant_0_evicts_2 : 0
Variant_0_evicts_3 : 0
Variant_1_evicts_0 : 0
Variant_1_evicts_1 : 0
Variant_1_evicts_2 : 0
Variant_1_evicts_3 : 0
Variant_2_evicts_0 : 0
Variant_2_evicts_1 : 0
Variant_2_evicts_2 : 0
Variant_2_evicts_3 : 0
Variant_3_evicts_0 : 0
Variant_3_evicts_1 : 0
Variant_3_evicts_2 : 0
Variant_3_evicts_3 : 0
BTB PER SET UNIQUE ADDR: 24 20 19 25 18 23 24 16 18 25 17 18 22 18 19 24 15 27 24 12 23 16 17 17 26 22 21 23 15 23 25 15 18 17 13 18 25 18 16 24 19 17 14 20 19 23 20 17 16 19 21 22 16 23 24 17 22 18 20 15 25 22 19 25 19 19 26 15 23 18 17 27 15 17 21 21 16 19 25 22 26 21 23 23 21 19 19 22 22 25 25 19 23 19 18 22 17 13 18 23 15 29 26 15 19 23 23 16 21 13 17 23 15 28 28 16 30 20 15 31 19 17 18 20 20 22 21 20 17 17 22 15 24 17 20 27 24 19 20 25 21 24 24 18 29 22 21 23 14 23 20 16 18 20 22 17 25 15 17 30 22 16 18 19 19 23 23 18 23 24 24 17 23 15 15 27 19 25 22 18 16 19 12 21 16 13 15 17 13 28 25 19 20 19 13 22 20 25 26 21 16 21 20 17 24 18 21 24 18 24 24 18 24 20 16 21 33 19 18 20 19 17 18 17 19 22 23 19 22 20 19 23 29 20 18 22 15 25 23 14 20 21 20 17 19 22 23 14 12 24 21 16 26 23 19 18 18 20 23 17 26 20 19 22 31 19 20 28 18 23 20 19 17 15 20 22 23 26 23 18 21 25 22 16 17 17 15 27 20 20 20 21 24 20 23 20 13 28 20 23 20 21 17 16 18 19 24 18 20 24 22 21 20 19 17 22 20 23 14 18 29 18 18 21 20 19 28 17 18 27 26 18 21 20 24 21 17 26 23 18 22 19 17 24 24 17 23 26 18 18 26 21 21 20 21 16 23 18 17 24 17 18 19 21 21 22 22 18 24 16 19 21 19 18 26 19 10 30 19 15 18 26 18 14 24 20 16 23 21 22 20 18 21 20 30 19 18 18 19 24 14 23 21 19 24 20 14 23 21 16 15 16 15 22 23 16 18 21 22 23 31 16 14 28 25 21 20 19 18 23 20 22 30 16 13 22 21 23 26 19 19 20 24 13 23 18 14 22 22 25 24 20 22 18 19 21 24 15 14 23 13 18 29 19 23 18 20 17 21 25 27 16 18 25 20 17 22 16 25 24 23 19 19 27 16 22 27 18 20 20 21 19 25 17 17 17 15 21 16 17 24 18 16 19 21 22 18 22 13 27 22 17 
BTB PER SET COUNT: 744 318 23 28 19 51 26 16 31 28 17 19 524 20 19 34 18 1098 595 563 158 17 18 18 28 1499 2676 765 399 142 27 17 21 21 13 225 26 19 20 25 22 17 16 22 72 25 20 176 17 698 28 26 18 759 26 17 43 21 1991 15 31 1487 397 1708 23 939 85 17 38 20 18 409 17 1699 22 374 71 19 3081 26 30 21 25 293 22 1300 25 25 23 26 999 19 24 29 24 701 1003 1494 687 26 15 534 30 16 138 883 495 1245 21 13 511 26 16 1375 1016 40 34 236 17 39 21 19 144 5001 22 794 22 20 1003 17 24 1032 40 18 1975 686 25 23 145 26 27 641 15539 18 38 3481 1492 1310 2446 73 23 16 513 42 24 18 25 17 17 319 22 259 21 21 22 936 220 888 34 29 29 19 26 16 15 524 19 287 23 20 730 19 12 26 1480 13 16 213 15 1018 70 22 1527 608 13 24 22 29 29 22 16 24 22 18 536 20 1483 222 19 24 27 1482 29 545 16 23 38 19 19 991 281 17 18 759 22 24 1486 28 769 26 2991 1490 35 21 19 762 18 1544 27 18 21 1494 22 515 1498 24 25 15 1983 725 23 16 27 562 21 21 146 21 31 19 32 389 3308 27 568 139 25 31 28 377 22 102 20 16 26 29 367 28 24 22 23 58 26 17 20 24 17 28 24 26 24 2279 151 30 878 331 13 226 23 1531 1005 27 17 18 18 21 27 18 21 1191 4254 984 22 22 20 23 493 1272 14 19 7540 24 20 41 452 105 32 135 142 31 1017 20 24 26 26 21 18 1096 2471 388 30 396 19 28 27 17 273 1494 19 335 28 22 283 24 685 16 490 18 277 30 17 18 19 26 260 30 25 18 28 17 20 222 639 19 1497 19 10 35 20 15 24 29 50 16 1296 23 16 26 25 258 26 2976 24 20 539 22 162 515 47 424 15 27 22 21 948 33 16 191 7124 18 16 19 16 23 25 24 19 516 28 26 888 18 17 2315 25 29 20 124 19 24 58 27 34 1001 13 688 24 777 29 24 22 21 26 13 26 23 15 25 1040 44 27 5481 24 1197 19 21 60 18 14 24 14 264 31 21 25 20 37 19 28 146 1288 1483 21 259 23 17 783 18 47 310 277 330 19 352 17 219 29 436 22 25 23 19 35 3339 17 22 16 21 1195 18 753 20 19 22 33 173 19 28 13 33 22 19 
To predecode: 0
Predecoding something: 0
Predecode request dropped: 0
sizeofblock_0 0
sizeofblock_1 35143
sizeofblock_2 98347
sizeofblock_3 0
sizeofblock_4 0
sizeofblock_5 0
sizeofblock_6 0
sizeofblock_7 0
sizeofblock_8 0
Variant_0 Correct: 1612028 Incorrect: 0 Accuracy: 1
Variant_1 Correct: 5728970 Incorrect: 0 Accuracy: 1
Variant_2 Correct: 0 Incorrect: 0 Accuracy: -nan
Variant_3 Correct: 0 Incorrect: 0 Accuracy: -nan
