
*** ChampSim Multicore Out-of-Order Simulator ***

Warmup Instructions: 50000000
Simulation Instructions: 50000000
Number of CPUs: 1
LLC sets: 2048
LLC ways: 16
Off-chip DRAM Size: 4096 MB Channels: 1 Width: 64-bit Data Rate: 6400 MT/s
CPU 0 runs ./micro_traces/srv554.trace.gz
.gz
ITLB has LRU replacement policy
DTLB has LRU replacement policy
STLB has LRU replacement policy
FDIP Prefetcher at L1I
L1I has LRU replacement policy
L1D has LRU replacement policy
Initialize SRRIP state for L2C
Initialize DRRIP state for LLC
Heartbeat_Variant_0 : 1360 0.332031 per_variant_size: 0 1360 0 0 0 0 0 0 0 
Heartbeat_Variant_1 : 2595 0.633545 per_variant_size: 0 526 2069 0 0 0 0 0 0 
Heartbeat_Variant_2 : 0 0 per_variant_size: 0 0 0 0 0 0 0 0 0 
Heartbeat_Variant_3 : 0 0 per_variant_size: 0 0 0 0 0 0 0 0 0 
Heartbeat_Variant_0_evicts 0 : 5986 1 : 757 2 : 0 3 : 0 
Heartbeat_Variant_1_evicts 0 : 692 1 : 0 2 : 0 3 : 0 
Heartbeat_Variant_2_evicts 0 : 0 1 : 0 2 : 0 3 : 0 
Heartbeat_Variant_3_evicts 0 : 0 1 : 0 2 : 0 3 : 0 
Heartbeat CPU 0 instructions: 10000001 cycles: 2796842 heartbeat IPC: 3.57546 cumulative IPC: 3.57546 (Simulation time: 0 hr 1 min 32 sec) 
Heartbeat_Variant_0 : 1365 0.333252 per_variant_size: 0 1365 0 0 0 0 0 0 0 
Heartbeat_Variant_1 : 2599 0.634521 per_variant_size: 0 535 2064 0 0 0 0 0 0 
Heartbeat_Variant_2 : 0 0 per_variant_size: 0 0 0 0 0 0 0 0 0 
Heartbeat_Variant_3 : 0 0 per_variant_size: 0 0 0 0 0 0 0 0 0 
Heartbeat_Variant_0_evicts 0 : 5715 1 : 109 2 : 0 3 : 0 
Heartbeat_Variant_1_evicts 0 : 106 1 : 0 2 : 0 3 : 0 
Heartbeat_Variant_2_evicts 0 : 0 1 : 0 2 : 0 3 : 0 
Heartbeat_Variant_3_evicts 0 : 0 1 : 0 2 : 0 3 : 0 
Heartbeat CPU 0 instructions: 20000001 cycles: 5594216 heartbeat IPC: 3.57478 cumulative IPC: 3.57512 (Simulation time: 0 hr 3 min 5 sec) 
Heartbeat_Variant_0 : 1371 0.334717 per_variant_size: 0 1371 0 0 0 0 0 0 0 
Heartbeat_Variant_1 : 2614 0.638184 per_variant_size: 0 527 2087 0 0 0 0 0 0 
Heartbeat_Variant_2 : 0 0 per_variant_size: 0 0 0 0 0 0 0 0 0 
Heartbeat_Variant_3 : 0 0 per_variant_size: 0 0 0 0 0 0 0 0 0 
Heartbeat_Variant_0_evicts 0 : 5697 1 : 142 2 : 0 3 : 0 
Heartbeat_Variant_1_evicts 0 : 137 1 : 0 2 : 0 3 : 0 
Heartbeat_Variant_2_evicts 0 : 0 1 : 0 2 : 0 3 : 0 
Heartbeat_Variant_3_evicts 0 : 0 1 : 0 2 : 0 3 : 0 
Heartbeat CPU 0 instructions: 30000000 cycles: 8391907 heartbeat IPC: 3.57438 cumulative IPC: 3.57487 (Simulation time: 0 hr 4 min 35 sec) 
Heartbeat_Variant_0 : 1363 0.332764 per_variant_size: 0 1363 0 0 0 0 0 0 0 
Heartbeat_Variant_1 : 2650 0.646973 per_variant_size: 0 487 2163 0 0 0 0 0 0 
Heartbeat_Variant_2 : 0 0 per_variant_size: 0 0 0 0 0 0 0 0 0 
Heartbeat_Variant_3 : 0 0 per_variant_size: 0 0 0 0 0 0 0 0 0 
Heartbeat_Variant_0_evicts 0 : 5650 1 : 209 2 : 0 3 : 0 
Heartbeat_Variant_1_evicts 0 : 222 1 : 0 2 : 0 3 : 0 
Heartbeat_Variant_2_evicts 0 : 0 1 : 0 2 : 0 3 : 0 
Heartbeat_Variant_3_evicts 0 : 0 1 : 0 2 : 0 3 : 0 
Heartbeat CPU 0 instructions: 40000002 cycles: 11188953 heartbeat IPC: 3.5752 cumulative IPC: 3.57495 (Simulation time: 0 hr 6 min 4 sec) 
Heartbeat_Variant_0 : 1379 0.33667 per_variant_size: 0 1379 0 0 0 0 0 0 0 
Heartbeat_Variant_1 : 2650 0.646973 per_variant_size: 0 487 2163 0 0 0 0 0 0 
Heartbeat_Variant_2 : 0 0 per_variant_size: 0 0 0 0 0 0 0 0 0 
Heartbeat_Variant_3 : 0 0 per_variant_size: 0 0 0 0 0 0 0 0 0 
Heartbeat_Variant_0_evicts 0 : 5728 1 : 206 2 : 0 3 : 0 
Heartbeat_Variant_1_evicts 0 : 194 1 : 0 2 : 0 3 : 0 
Heartbeat_Variant_2_evicts 0 : 0 1 : 0 2 : 0 3 : 0 
Heartbeat_Variant_3_evicts 0 : 0 1 : 0 2 : 0 3 : 0 
Heartbeat CPU 0 instructions: 50000000 cycles: 13986165 heartbeat IPC: 3.57499 cumulative IPC: 3.57496 (Simulation time: 0 hr 7 min 36 sec) 

Warmup complete CPU 0 instructions: 50000003 cycles: 13986166 (Simulation time: 0 hr 7 min 36 sec) 

Cycle: 20000000 FTQ IN: 58414378 FTQ occupancy: 20.8875 DECODE IN: 58414378 DECODE occupancy: 53.9052 ROB IN: 58414378 ROB occupancy: 319.472 ROB OUT: 58414312
Heartbeat_Variant_0 : 1383 0.337646 per_variant_size: 0 1383 0 0 0 0 0 0 0 
Heartbeat_Variant_1 : 2657 0.648682 per_variant_size: 0 506 2151 0 0 0 0 0 0 
Heartbeat_Variant_2 : 0 0 per_variant_size: 0 0 0 0 0 0 0 0 0 
Heartbeat_Variant_3 : 0 0 per_variant_size: 0 0 0 0 0 0 0 0 0 
Heartbeat_Variant_0_evicts 0 : 5706 1 : 208 2 : 0 3 : 0 
Heartbeat_Variant_1_evicts 0 : 206 1 : 0 2 : 0 3 : 0 
Heartbeat_Variant_2_evicts 0 : 0 1 : 0 2 : 0 3 : 0 
Heartbeat_Variant_3_evicts 0 : 0 1 : 0 2 : 0 3 : 0 
Heartbeat CPU 0 instructions: 60000001 cycles: 21125284 heartbeat IPC: 1.40073 cumulative IPC: 1.40073 (Simulation time: 0 hr 9 min 21 sec) 
Heartbeat_Variant_0 : 1387 0.338623 per_variant_size: 0 1387 0 0 0 0 0 0 0 
Heartbeat_Variant_1 : 2658 0.648926 per_variant_size: 0 493 2165 0 0 0 0 0 0 
Heartbeat_Variant_2 : 0 0 per_variant_size: 0 0 0 0 0 0 0 0 0 
Heartbeat_Variant_3 : 0 0 per_variant_size: 0 0 0 0 0 0 0 0 0 
Heartbeat_Variant_0_evicts 0 : 5619 1 : 115 2 : 0 3 : 0 
Heartbeat_Variant_1_evicts 0 : 112 1 : 0 2 : 0 3 : 0 
Heartbeat_Variant_2_evicts 0 : 0 1 : 0 2 : 0 3 : 0 
Heartbeat_Variant_3_evicts 0 : 0 1 : 0 2 : 0 3 : 0 
Heartbeat CPU 0 instructions: 70000002 cycles: 28318530 heartbeat IPC: 1.39019 cumulative IPC: 1.39544 (Simulation time: 0 hr 11 min 10 sec) 
Cycle: 30000000 FTQ IN: 13951957 FTQ occupancy: 16.1707 DECODE IN: 13951857 DECODE occupancy: 39.8889 ROB IN: 13951797 ROB occupancy: 253.035 ROB OUT: 13951613
Heartbeat_Variant_0 : 1380 0.336914 per_variant_size: 0 1380 0 0 0 0 0 0 0 
Heartbeat_Variant_1 : 2666 0.650879 per_variant_size: 0 501 2165 0 0 0 0 0 0 
Heartbeat_Variant_2 : 0 0 per_variant_size: 0 0 0 0 0 0 0 0 0 
Heartbeat_Variant_3 : 0 0 per_variant_size: 0 0 0 0 0 0 0 0 0 
Heartbeat_Variant_0_evicts 0 : 5558 1 : 84 2 : 0 3 : 0 
Heartbeat_Variant_1_evicts 0 : 91 1 : 0 2 : 0 3 : 0 
Heartbeat_Variant_2_evicts 0 : 0 1 : 0 2 : 0 3 : 0 
Heartbeat_Variant_3_evicts 0 : 0 1 : 0 2 : 0 3 : 0 
Heartbeat CPU 0 instructions: 80000000 cycles: 35417297 heartbeat IPC: 1.4087 cumulative IPC: 1.39983 (Simulation time: 0 hr 12 min 57 sec) 
Cycle: 40000000 FTQ IN: 13924864 FTQ occupancy: 16.197 DECODE IN: 13924946 DECODE occupancy: 39.9659 ROB IN: 13925006 ROB occupancy: 252.916 ROB OUT: 13925158
Heartbeat_Variant_0 : 1391 0.3396 per_variant_size: 0 1391 0 0 0 0 0 0 0 
Heartbeat_Variant_1 : 2661 0.649658 per_variant_size: 0 497 2164 0 0 0 0 0 0 
Heartbeat_Variant_2 : 0 0 per_variant_size: 0 0 0 0 0 0 0 0 0 
Heartbeat_Variant_3 : 0 0 per_variant_size: 0 0 0 0 0 0 0 0 0 
Heartbeat_Variant_0_evicts 0 : 5721 1 : 228 2 : 0 3 : 0 
Heartbeat_Variant_1_evicts 0 : 218 1 : 0 2 : 0 3 : 0 
Heartbeat_Variant_2_evicts 0 : 0 1 : 0 2 : 0 3 : 0 
Heartbeat_Variant_3_evicts 0 : 0 1 : 0 2 : 0 3 : 0 
Heartbeat CPU 0 instructions: 90000000 cycles: 42621903 heartbeat IPC: 1.388 cumulative IPC: 1.39686 (Simulation time: 0 hr 14 min 45 sec) 
Heartbeat_Variant_0 : 1391 0.3396 per_variant_size: 0 1391 0 0 0 0 0 0 0 
Heartbeat_Variant_1 : 2661 0.649658 per_variant_size: 0 496 2165 0 0 0 0 0 0 
Heartbeat_Variant_2 : 0 0 per_variant_size: 0 0 0 0 0 0 0 0 0 
Heartbeat_Variant_3 : 0 0 per_variant_size: 0 0 0 0 0 0 0 0 0 
Heartbeat_Variant_0_evicts 0 : 5560 1 : 3 2 : 0 3 : 0 
Heartbeat_Variant_1_evicts 0 : 3 1 : 0 2 : 0 3 : 0 
Heartbeat_Variant_2_evicts 0 : 0 1 : 0 2 : 0 3 : 0 
Heartbeat_Variant_3_evicts 0 : 0 1 : 0 2 : 0 3 : 0 
Heartbeat CPU 0 instructions: 100000001 cycles: 49713141 heartbeat IPC: 1.41019 cumulative IPC: 1.3995 (Simulation time: 0 hr 16 min 37 sec) 
Finished CPU 0 instructions: 50000002 cycles: 35726976 cumulative IPC: 1.3995 (Simulation time: 0 hr 16 min 37 sec) 

ChampSim completed all CPUs

Region of Interest Statistics

CPU 0 cumulative IPC: 1.3995 instructions: 50000002 cycles: 35726976
 Fetch stage stalled: 37.4982  Sim cycles: 35726976 fetch stall cycle: 13396987
 Empty decode stage: 20.3207  Sim cycles: 35726976 fetch stall cycle: 7259979
ITLB TOTAL     ACCESS:    5858380  HIT:    5361867  MISS:     496513  HIT %:    91.5247  MISS %:    8.47526   MPKI: 9.93026
ITLB LOAD TRANSLATION INSTRUCTION	ACCESS:    5708651  HIT:    5212138  MISS:     496513  HIT %:    91.3024  MISS %:    8.69755  MPKI: 9.93026
ITLB TRANSLATION FROM L1D PREFETCHER INSTRUCTION	ACCESS:     149729  HIT:     149729  MISS:          0  HIT %:        100  MISS %:          0  MPKI: 0

ITLB AVERAGE MISS LATENCY: 9.06105 cycles
ITLB RQ	ACCESS:    7909405	FORWARD:          0	MERGED:    1527499	TO_CACHE:    6381906

DTLB TOTAL     ACCESS:    8957810  HIT:    8481788  MISS:     476022  HIT %:     94.686  MISS %:    5.31404   MPKI: 9.52044
DTLB LOAD TRANSLATION DATA	ACCESS:    8957810  HIT:    8481788  MISS:     476022  HIT %:     94.686  MISS %:    5.31404  MPKI: 9.52044

DTLB AVERAGE MISS LATENCY: 9.30836 cycles
DTLB RQ	ACCESS:   13332251	FORWARD:          0	MERGED:    4337348	TO_CACHE:    8994903

STLB TOTAL     ACCESS:    1216745  HIT:    1214457  MISS:       2288  HIT %:     99.812  MISS %:   0.188043   MPKI: 0.04576
STLB LOAD TRANSLATION INSTRUCTION	ACCESS:     496513  HIT:     496042  MISS:        471  HIT %:    99.9051  MISS %:  0.0948616  MPKI: 0.00942
STLB LOAD TRANSLATION DATA	ACCESS:     476022  HIT:     474222  MISS:       1800  HIT %:    99.6219  MISS %:   0.378134  MPKI: 0.036
STLB TRANSLATION FROM L1D PREFETCHER DATA	ACCESS:     244210  HIT:     244193  MISS:         17  HIT %:     99.993  MISS %: 0.00696122  MPKI: 0.00034

STLB AVERAGE MISS LATENCY: 64.4358 cycles
STLB RQ	ACCESS:    1333269	FORWARD:          0	MERGED:     116481	TO_CACHE:    1216788

STLB Hit, L1D data hit: 0
STLB Hit, L2C data hit: 0
STLB Hit, LLC data hit: 0
STLB Hit, LLC data miss: 0
STLB STLB hints to L2: 0
L1D TOTAL     ACCESS:   13079195  HIT:   11963777  MISS:    1115418  HIT %:    91.4718  MISS %:    8.52819   MPKI: 22.3084
L1D LOAD DATA	ACCESS:    6540556  HIT:    5803890  MISS:     736666  HIT %:     88.737  MISS %:     11.263  MPKI: 14.7333
L1D RFO DATA	ACCESS:    6216414  HIT:    5930932  MISS:     285482  HIT %:    95.4076  MISS %:    4.59239  MPKI: 5.70964
L1D PREFETCH DATA	ACCESS:     322225  HIT:     228955  MISS:      93270  HIT %:    71.0544  MISS %:    28.9456  MPKI: 1.8654

L1D PREFETCH  REQUESTED:     721842  ISSUED:     721842  USEFUL:      33132  USELESS:      67669
L1D USEFUL LOAD PREFETCHES:      33132 PREFETCH ISSUED TO LOWER LEVEL:     100811  ACCURACY: 32.8655
 TIMELY PREFETCHES:      33132 LATE PREFETCHES: 7503 DROPPED PREFETCHES: 9
L1D AVERAGE MISS LATENCY: 213490 cycles
L1D RQ	ACCESS:   10675895	FORWARD:          0	MERGED:    3935476	TO_CACHE:    6574847
L1D WQ	ACCESS:    6956692	FORWARD:     165946	MERGED:     199288	TO_CACHE:    6757404
L1D PQ	ACCESS:     361108	FORWARD:          0	MERGED:          0	TO_CACHE:     360734

L1D UNIQUE REGIONS ACCESSED: 0
L1D REGIONS CONFLICTS: 0
L1D Cross Page Prefetch Requests: 6074
L1D Same Page Prefetch Requests: 742944
L1D ROI Sum of L1D PQ occupancy: 4580073
L1D PREFETCHES PUSHED FROM L2C: 0
L1I TOTAL     ACCESS:    7095507  HIT:    4319961  MISS:    2775546  HIT %:     60.883  MISS %:     39.117   MPKI: 55.5109
L1I LOAD INSTRUCTION	ACCESS:    6437528  HIT:    3661982  MISS:    2775546  HIT %:    56.8849  MISS %:    43.1151  MPKI: 55.5109
L1I PREFETCH INSTRUCTION	ACCESS:     657979  HIT:     657979  MISS:          0  HIT %:        100  MISS %:          0  MPKI: 0

L1I PREFETCH  REQUESTED:    1609561  ISSUED:    1609561  USEFUL:          0  USELESS:          0
L1I USEFUL LOAD PREFETCHES:          0 PREFETCH ISSUED TO LOWER LEVEL:          0  ACCURACY: -nan
 TIMELY PREFETCHES:          0 LATE PREFETCHES: 0 DROPPED PREFETCHES: 0
L1I AVERAGE MISS LATENCY: 17.2415 cycles
L1I RQ	ACCESS:    9655239	FORWARD:          0	MERGED:    2936570	TO_CACHE:    6718669
L1I PQ	ACCESS:    1609561	FORWARD:          0	MERGED:     418825	TO_CACHE:    1190736

L1BTB TOTAL     ACCESS:    5670495  HIT:    2027506  MISS:    3642989  HIT %:    35.7554  MISS %:    64.2446   MPKI: 72.8598
L1BTB BRANCH_DIRECT_JUMP	ACCESS:     547716 HIT:     144128 MISS:     403588 AVERAGE STALL: 58.4359 AVERAGE FETCH STALL: 14.8619 AVERAGE FETCH QUEUE STALL: 19.1028 AVERAGE DECODE STALL: 23.543 AVERAGE EXECUTE STALL: 2.54298e+15
L1BTB BRANCH_INDIRECT	ACCESS:     182663 HIT:      65640 MISS:     117023 AVERAGE STALL: 115.337 AVERAGE FETCH STALL: 10.8769 AVERAGE FETCH QUEUE STALL: 21.5635 AVERAGE DECODE STALL: 14.0123 AVERAGE EXECUTE STALL: 67.9209
L1BTB BRANCH_CONDITIONAL	ACCESS:    2696656 HIT:    1400596 MISS:    1296060 AVERAGE STALL: 68.3618 AVERAGE FETCH STALL: 21.7917 AVERAGE FETCH QUEUE STALL: 28.703 AVERAGE DECODE STALL: 17.1492 AVERAGE EXECUTE STALL: 2.92203e+15
L1BTB BRANCH_DIRECT_CALL	ACCESS:     949522 HIT:     105242 MISS:     844280 AVERAGE STALL: 66.5534 AVERAGE FETCH STALL: 21.4294 AVERAGE FETCH QUEUE STALL: 25.7374 AVERAGE DECODE STALL: 18.4945 AVERAGE EXECUTE STALL: 7.75073e+15
L1BTB BRANCH_INDIRECT_CALL	ACCESS:     172209 HIT:      21148 MISS:     151061 AVERAGE STALL: 147.079 AVERAGE FETCH STALL: 12.6429 AVERAGE FETCH QUEUE STALL: 20.2388 AVERAGE DECODE STALL: 13.5534 AVERAGE EXECUTE STALL: 100.151
L1BTB BRANCH_RETURN	ACCESS:    1121729 HIT:     290752 MISS:     830977 AVERAGE STALL: 53.2419 AVERAGE FETCH STALL: 16.8345 AVERAGE FETCH QUEUE STALL: 6.59248 AVERAGE DECODE STALL: 6.71952 AVERAGE EXECUTE STALL: 4.2065e+14
L1BTB BRANCH_OTHER ACCESS:          0 HIT:          0 MISS:          0 AVERAGE STALL: -nan AVERAGE FETCH STALL: -nan AVERAGE FETCH QUEUE STALL: -nan AVERAGE DECODE STALL: -nan AVERAGE EXECUTE STALL: -nan
L1BTB TOTAL ROB OCCUPANCY AT BTB MISS: 2.8274

L2BTB TOTAL     ACCESS:    3617674  HIT:    3550445  MISS:      67229  HIT %:    98.1417  MISS %:    1.85835   MPKI: 1.34458
L2BTB BRANCH_DIRECT_JUMP	ACCESS:     399483 HIT:     396328 MISS:       3155 AVERAGE STALL: 58.4359 AVERAGE FETCH STALL: 14.8619 AVERAGE FETCH QUEUE STALL: 19.1028 AVERAGE DECODE STALL: 23.543 AVERAGE EXECUTE STALL: 2.54298e+15
L2BTB BRANCH_INDIRECT	ACCESS:     106713 HIT:     103970 MISS:       2743 AVERAGE STALL: 115.337 AVERAGE FETCH STALL: 10.8769 AVERAGE FETCH QUEUE STALL: 21.5635 AVERAGE DECODE STALL: 14.0123 AVERAGE EXECUTE STALL: 67.9209
L2BTB BRANCH_CONDITIONAL	ACCESS:    1296060 HIT:    1289712 MISS:       6348 AVERAGE STALL: 68.3618 AVERAGE FETCH STALL: 21.7917 AVERAGE FETCH QUEUE STALL: 28.703 AVERAGE DECODE STALL: 17.1492 AVERAGE EXECUTE STALL: 2.92203e+15
L2BTB BRANCH_DIRECT_CALL	ACCESS:     844279 HIT:     841881 MISS:       2398 AVERAGE STALL: 66.5534 AVERAGE FETCH STALL: 21.4294 AVERAGE FETCH QUEUE STALL: 25.7374 AVERAGE DECODE STALL: 18.4945 AVERAGE EXECUTE STALL: 7.75073e+15
L2BTB BRANCH_INDIRECT_CALL	ACCESS:     141578 HIT:     131453 MISS:      10125 AVERAGE STALL: 147.079 AVERAGE FETCH STALL: 12.6429 AVERAGE FETCH QUEUE STALL: 20.2388 AVERAGE DECODE STALL: 13.5534 AVERAGE EXECUTE STALL: 100.151
L2BTB BRANCH_RETURN	ACCESS:     829561 HIT:     787101 MISS:      42460 AVERAGE STALL: 53.2419 AVERAGE FETCH STALL: 16.8345 AVERAGE FETCH QUEUE STALL: 6.59248 AVERAGE DECODE STALL: 6.71952 AVERAGE EXECUTE STALL: 4.2065e+14
L2BTB BRANCH_OTHER ACCESS:          0 HIT:          0 MISS:          0 AVERAGE STALL: -nan AVERAGE FETCH STALL: -nan AVERAGE FETCH QUEUE STALL: -nan AVERAGE DECODE STALL: -nan AVERAGE EXECUTE STALL: -nan
L2BTB TOTAL ROB OCCUPANCY AT BTB MISS: 153.21

L2C TOTAL     ACCESS:    4499187  HIT:    4030666  MISS:     468521  HIT %:    89.5865  MISS %:    10.4135   MPKI: 9.37042
L2C LOAD INSTRUCTION	ACCESS:    2775546  HIT:    2518202  MISS:     257344  HIT %:    90.7282  MISS %:    9.27183  MPKI: 5.14688
L2C LOAD TRANSLATION INSTRUCTION	ACCESS:        506  HIT:        156  MISS:        350  HIT %:      30.83  MISS %:      69.17  MPKI: 0.007
L2C LOAD DATA	ACCESS:     729129  HIT:     656243  MISS:      72886  HIT %:    90.0037  MISS %:    9.99631  MPKI: 1.45772
L2C RFO DATA	ACCESS:     285424  HIT:     234561  MISS:      50863  HIT %:    82.1798  MISS %:    17.8202  MPKI: 1.01726
L2C PREFETCH DATA	ACCESS:     183953  HIT:     113895  MISS:      70058  HIT %:    61.9153  MISS %:    38.0847  MPKI: 1.40116
L2C WRITEBACK DATA	ACCESS:     522729  HIT:     507049  MISS:      15680  HIT %:    97.0004  MISS %:    2.99964  MPKI: 0.3136
L2C LOAD TRANSLATION DATA	ACCESS:       1858  HIT:        536  MISS:       1322  HIT %:    28.8482  MISS %:    71.1518  MPKI: 0.02644
L2C TRANSLATION FROM L1D PREFETCHER DATA	ACCESS:         42  HIT:         24  MISS:         18  HIT %:    57.1429  MISS %:    42.8571  MPKI: 0.00036

L2C PREFETCH  REQUESTED:      90364  ISSUED:      90364  USEFUL:       7593  USELESS:      63050
L2C USEFUL LOAD PREFETCHES:       7593 PREFETCH ISSUED TO LOWER LEVEL:      70608  ACCURACY: 10.7537
 TIMELY PREFETCHES:       7593 LATE PREFETCHES: 550 DROPPED PREFETCHES: 0
L2C AVERAGE MISS LATENCY: 37.9567 cycles
L2C RQ	ACCESS:    3792562	FORWARD:          0	MERGED:          0	TO_CACHE:    3792508
L2C WQ	ACCESS:     522729	FORWARD:         54	MERGED:          0	TO_CACHE:     522729
L2C PQ	ACCESS:     191175	FORWARD:          0	MERGED:       3485	TO_CACHE:     187690

L2C Dense regions hint from L2: 0
PSCL5 TOTAL     ACCESS:       4600  HIT:       2300  MISS:       2300  HIT %:         50  MISS %:         50   MPKI: 0.046
PSCL5 LOAD TRANSLATION INSTRUCTION	ACCESS:       4516  HIT:       2258  MISS:       2258  HIT %:         50  MISS %:         50  MPKI: 0.04516
PSCL5 TRANSLATION FROM L1D PREFETCHER INSTRUCTION	ACCESS:         84  HIT:         42  MISS:         42  HIT %:         50  MISS %:         50  MPKI: 0.00084


PSCL4 TOTAL     ACCESS:       4472  HIT:       2234  MISS:       2238  HIT %:    49.9553  MISS %:    50.0447   MPKI: 0.04476
PSCL4 LOAD TRANSLATION INSTRUCTION	ACCESS:       4261  HIT:       2198  MISS:       2063  HIT %:    51.5841  MISS %:    48.4159  MPKI: 0.04126
PSCL4 TRANSLATION FROM L1D PREFETCHER INSTRUCTION	ACCESS:         72  HIT:         36  MISS:         36  HIT %:         50  MISS %:         50  MPKI: 0.00072
PSCL4 LOAD TRANSLATION DATA	ACCESS:        139  HIT:          0  MISS:        139  HIT %:          0  MISS %:        100  MPKI: 0.00278


PSCL3 TOTAL     ACCESS:       4361  HIT:       2173  MISS:       2188  HIT %:     49.828  MISS %:     50.172   MPKI: 0.04376
PSCL3 LOAD TRANSLATION INSTRUCTION	ACCESS:       3092  HIT:       2137  MISS:        955  HIT %:    69.1138  MISS %:    30.8862  MPKI: 0.0191
PSCL3 TRANSLATION FROM L1D PREFETCHER INSTRUCTION	ACCESS:         49  HIT:         36  MISS:         13  HIT %:    73.4694  MISS %:    26.5306  MPKI: 0.00026
PSCL3 LOAD TRANSLATION DATA	ACCESS:       1197  HIT:          0  MISS:       1197  HIT %:          0  MISS %:        100  MPKI: 0.02394
PSCL3 TRANSLATION FROM L1D PREFETCHER DATA	ACCESS:         23  HIT:          0  MISS:         23  HIT %:          0  MISS %:        100  MPKI: 0.00046


PSCL2 TOTAL     ACCESS:       4512  HIT:       2212  MISS:       2300  HIT %:    49.0248  MISS %:    50.9752   MPKI: 0.046
PSCL2 LOAD TRANSLATION INSTRUCTION	ACCESS:       2641  HIT:       2170  MISS:        471  HIT %:    82.1658  MISS %:    17.8342  MPKI: 0.00942
PSCL2 TRANSLATION FROM L1D PREFETCHER INSTRUCTION	ACCESS:         42  HIT:         42  MISS:          0  HIT %:        100  MISS %:          0  MPKI: 0
PSCL2 LOAD TRANSLATION DATA	ACCESS:       1787  HIT:          0  MISS:       1787  HIT %:          0  MISS %:        100  MPKI: 0.03574
PSCL2 TRANSLATION FROM L1D PREFETCHER DATA	ACCESS:         42  HIT:          0  MISS:         42  HIT %:          0  MISS %:        100  MPKI: 0.00084


LLC TOTAL     ACCESS:     525459  HIT:     498635  MISS:      26824  HIT %:    94.8951  MISS %:    5.10487   MPKI: 0.53648
LLC LOAD INSTRUCTION	ACCESS:     257344  HIT:     256630  MISS:        714  HIT %:    99.7226  MISS %:    0.27745  MPKI: 0.01428
LLC LOAD TRANSLATION INSTRUCTION	ACCESS:        350  HIT:        336  MISS:         14  HIT %:         96  MISS %:          4  MPKI: 0.00028
LLC LOAD DATA	ACCESS:      72412  HIT:      69204  MISS:       3208  HIT %:    95.5698  MISS %:     4.4302  MPKI: 0.06416
LLC RFO DATA	ACCESS:      50762  HIT:      37887  MISS:      12875  HIT %:    74.6365  MISS %:    25.3635  MPKI: 0.2575
LLC PREFETCH DATA	ACCESS:      70605  HIT:      60929  MISS:       9676  HIT %:    86.2956  MISS %:    13.7044  MPKI: 0.19352
LLC WRITEBACK DATA	ACCESS:      72646  HIT:      72372  MISS:        274  HIT %:    99.6228  MISS %:   0.377171  MPKI: 0.00548
LLC LOAD TRANSLATION DATA	ACCESS:       1322  HIT:       1259  MISS:         63  HIT %:    95.2345  MISS %:    4.76551  MPKI: 0.00126
LLC TRANSLATION FROM L1D PREFETCHER DATA	ACCESS:         18  HIT:         18  MISS:          0  HIT %:        100  MISS %:          0  MPKI: 0

LLC AVERAGE MISS LATENCY: 155.251 cycles
LLC RQ	ACCESS:     382233	FORWARD:          0	MERGED:          0	TO_CACHE:     382208
LLC WQ	ACCESS:      72646	FORWARD:         28	MERGED:          0	TO_CACHE:      72646
LLC PQ	ACCESS:      70608	FORWARD:          0	MERGED:          0	TO_CACHE:      70605

LLC Dense regions hint to LLC: 0

RAW hits: 1960244
Loads Generated: 12636139
Loads sent to L1D: 10675895
Stores Generated: 6956688
Stores sent to L1D: 6956692
Major fault: 0 Minor fault: 2586
Allocated PAGES: 2586

stream: 
stream:times selected: 1177713
stream:pref_filled: 121008
stream:pref_useful: 23686
stream:pref_late: 6420
stream:misses: 6596
stream:misses_by_poll: 0

CS: 
CS:times selected: 176275
CS:pref_filled: 58361
CS:pref_useful: 35715
CS:pref_late: 6699
CS:misses: 15906
CS:misses_by_poll: 4

CPLX: 
CPLX:times selected: 1000332
CPLX:pref_filled: 19855
CPLX:pref_useful: 4833
CPLX:pref_late: 3090
CPLX:misses: 91873
CPLX:misses_by_poll: 1

NL_L1: 
NL:times selected: 19803
NL:pref_filled: 696
NL:pref_useful: 251
NL:pref_late: 175
NL:misses: 1012
NL:misses_by_poll: 0

total selections: 2374123
total_filled: 93270
total_useful: 33132
total_late: 17536
total_polluted: 5
total_misses_after_warmup: 770957
conflicts: 5519548

test: 115840

DRAM Statistics
 CHANNEL 0
 RQ ROW_BUFFER_HIT:       9851  ROW_BUFFER_MISS:      16693
 DBUS_CONGESTED:         12
 WQ ROW_BUFFER_HIT:       1211  ROW_BUFFER_MISS:      11879  FULL:          0

 AVG_CONGESTED_CYCLE: 6

CPU 0 Branch Prediction Accuracy: 99.8223% MPKI: 0.32532 Average ROB Occupancy at Mispredict: 198.278
Branch types
NOT_BRANCH: 40848945 81.6979%
BRANCH_DIRECT_JUMP: 547716 1.09543%
BRANCH_INDIRECT: 182663 0.365326%
BRANCH_CONDITIONAL: 6177227 12.3545%
BRANCH_DIRECT_CALL: 949522 1.89904%
BRANCH_INDIRECT_CALL: 172209 0.344418%
BRANCH_RETURN: 1121729 2.24346%
BRANCH_OTHER: 0 0%

DRAM PAGES: 1048576
Allocated PAGES: 2586
Average_ROB_Occupancy: 254.625
Average_Decode_Occupancy: 39.9641
Average_FTQ_Occupancy: 16.1563
Indirect max targets: 14 Average targets: 1.15541
Branch_type:  BRANCH_DIRECT_JUMP:  Count Percentage: 3.81 6.01417 3.70827 3.2746 7.49856 5.44858 6.51572 63.7301 
Branch_type:  BRANCH_INDIRECT:  Count Percentage: 11.7602 3.41528 2.53817 0 13.0346 2.80977 16.5673 49.8747 
Branch_type:  BRANCH_CONDITIONAL:  Count Percentage: 21.1514 6.75627 2.12476 3.05652 3.44816 4.56296 3.26865 55.6313 
Branch_type:  BRANCH_DIRECT_CALL:  Count Percentage: 0.889785 1.27293 0.737448 2.27171 4.11494 2.83809 0.887192 86.9879 
Branch_type:  BRANCH_INDIRECT_CALL:  Count Percentage: 9.56314 0 2.99793 0.00378785 0 2.32253 0 85.1126 
Branch_type:  BRANCH_RETURN:  Count Percentage: 4.51441 4.8693 2.14382 2.993 4.19636 5.27514 3.53702 72.471 
Branch_type:  BRANCH_DIRECT_JUMP:  Total Count: 41758 65916 40643 35890 82185 59717 71413 698489 
Branch_type:  BRANCH_INDIRECT:  Total Count: 43039 12499 9289 0 47703 10283 60632 182528 
Branch_type:  BRANCH_CONDITIONAL:  Total Count: 2612555 834514 262444 377532 425906 563602 403734 6871401 
Branch_type:  BRANCH_DIRECT_CALL:  Total Count: 16816 24057 13937 42933 77768 53637 16767 1643980 
Branch_type:  BRANCH_INDIRECT_CALL:  Total Count: 32821 0 10289 13 0 7971 0 292109 
Branch_type:  BRANCH_RETURN:  Total Count: 100848 108776 47891 66861 93743 117842 79014 1618938 
Number of unique branch instructions: 10076
Upper 32 bits: 
aaaa
ffff
ffff0000
Unique upper 32 bits: 3
Unique upper 36 bits: 3
Unique upper 40 bits: 5
Unique upper 44 bits: 32
Unique upper 48 bits: 155
Variant_0 : 1391 0.3396
Variant_1 : 2661 0.649658
Variant_2 : 0 0
Variant_3 : 0 0
Offset_3 4161
Offset_4 247
Offset_5 461
Offset_6 511
Offset_7 599
Offset_8 510
Offset_9 465
Offset_10 386
Offset_11 319
Offset_12 283
Offset_13 218
Offset_14 237
Offset_15 190
Offset_16 224
Offset_17 157
Offset_18 122
Offset_19 249
Offset_20 139
Offset_21 235
Offset_22 405
Offset_23 241
Offset_24 331
Offset_25 92
Offset_47 82
Offset_64 2
decode_dispatch_called: 26639505 74.5641
Dispatch_width: 0 14410398 54.0941 40.3348
Dispatch_width: 1 1045168 3.92338 2.92543
Dispatch_width: 2 842393 3.16219 2.35786
Dispatch_width: 3 494131 1.85488 1.38308
Dispatch_width: 4 6603854 24.7897 18.4842
Dispatch_width: 5 89127 0.334567 0.249467
Dispatch_width: 6 3154434 11.8412 8.82928
Empty_decode_cycles: 9087471 25.4359
ROB_full_cycles: 10534941 29.4874
Starvation_cycles_per_kilo_instr: 220.376
Starvation_cycles_per_kilo_instr_3: 153.446
Starvation_cycles_per_kilo_instr_0: 129.629
Branch_type_1  (3,1)  (4,9)  (5,37)  (6,71)  (7,118)  (8,129)  (9,122)  (10,99)  (11,69)  (12,43)  (13,8)  (14,2)  (15,3)  (16,4)  (18,1)  (19,4)  (20,2)  (21,1)  (22,3)  (23,2)  (24,10)  (25,12) 
Branch_type_2  (3,1)  (4,1)  (5,1)  (8,3)  (9,3)  (12,1)  (13,1)  (14,1)  (16,3)  (17,2)  (20,2)  (21,2)  (23,5)  (24,1)  (47,37) 
Branch_type_3  (3,4159)  (4,237)  (5,419)  (6,425)  (7,452)  (8,317)  (9,251)  (10,156)  (11,124)  (12,50)  (13,7)  (20,1)  (64,1) 
Branch_type_4  (6,3)  (7,8)  (8,25)  (9,52)  (10,62)  (11,63)  (12,104)  (13,93)  (14,107)  (15,90)  (16,100)  (17,72)  (18,55)  (19,124)  (20,71)  (21,124)  (22,216)  (23,136)  (24,191)  (25,76)  (64,1) 
Branch_type_5  (8,2)  (9,1)  (10,4)  (11,6)  (12,3)  (13,14)  (14,16)  (15,11)  (16,20)  (17,11)  (18,16)  (19,12)  (20,11)  (21,13)  (22,42)  (23,26)  (24,37) 
Branch_type_6  (5,4)  (6,12)  (7,21)  (8,34)  (9,36)  (10,65)  (11,57)  (12,82)  (13,95)  (14,111)  (15,86)  (16,97)  (17,72)  (18,50)  (19,109)  (20,52)  (21,95)  (22,144)  (23,72)  (24,92)  (25,4)  (47,45) 
Unique trigger count: 
Variant_0_evicts_0 : 0
Variant_0_evicts_1 : 0
Variant_0_evicts_2 : 0
Variant_0_evicts_3 : 0
Variant_1_evicts_0 : 0
Variant_1_evicts_1 : 0
Variant_1_evicts_2 : 0
Variant_1_evicts_3 : 0
Variant_2_evicts_0 : 0
Variant_2_evicts_1 : 0
Variant_2_evicts_2 : 0
Variant_2_evicts_3 : 0
Variant_3_evicts_0 : 0
Variant_3_evicts_1 : 0
Variant_3_evicts_2 : 0
Variant_3_evicts_3 : 0
BTB PER SET UNIQUE ADDR: 11 17 10 13 11 11 8 13 9 12 10 13 15 14 9 8 11 13 10 13 12 9 11 12 10 14 15 15 9 9 10 17 15 13 6 11 13 13 11 9 13 9 13 9 10 8 11 8 13 11 11 11 15 10 12 4 7 7 10 10 10 11 11 7 12 18 11 11 13 10 13 12 11 10 9 9 8 14 12 13 16 6 10 13 12 10 10 9 7 11 6 10 15 13 8 13 10 10 10 14 18 15 14 9 13 6 8 10 10 14 9 12 15 10 8 5 14 14 10 9 13 8 9 10 9 11 8 12 18 10 6 14 10 9 14 12 11 11 9 22 9 13 9 11 8 11 14 11 9 12 18 14 9 13 13 13 9 11 13 10 9 8 13 14 11 13 13 8 13 9 11 11 11 9 13 11 10 9 6 10 10 11 7 14 12 16 7 10 14 10 11 10 11 12 13 8 9 9 10 12 14 13 11 11 7 13 11 8 10 9 11 10 11 11 10 10 11 11 10 14 9 12 7 11 11 13 16 13 9 14 9 5 12 15 6 8 9 10 12 11 10 9 14 12 8 9 8 10 15 11 14 13 11 8 11 13 8 4 11 7 10 9 3 12 12 6 12 11 9 10 12 11 8 9 6 6 8 11 8 8 8 9 10 10 9 11 10 15 12 13 9 7 14 12 8 11 9 10 11 11 7 10 11 17 13 13 15 12 15 11 8 16 8 17 12 8 12 12 9 13 8 13 8 14 11 16 10 8 10 8 14 11 11 14 13 12 11 12 7 15 15 11 8 13 12 9 10 14 8 9 10 10 12 11 9 16 8 11 11 7 8 10 7 17 6 11 5 8 14 12 10 11 10 12 10 13 14 16 11 10 10 8 8 11 11 9 13 16 13 12 17 8 10 17 7 10 9 9 14 14 9 12 9 13 15 13 16 10 10 10 13 5 10 14 10 11 12 14 16 16 7 8 11 8 13 8 9 10 11 6 14 14 12 14 15 13 15 8 9 12 13 10 7 8 16 6 11 11 16 8 16 14 9 10 13 12 13 10 9 12 11 9 9 12 12 12 12 11 12 15 10 10 10 14 14 16 10 15 10 12 12 16 12 10 10 13 13 10 11 13 11 16 5 9 9 14 11 12 9 11 11 9 12 17 11 9 12 18 11 14 15 12 16 11 12 15 12 14 12 6 10 14 12 11 13 14 13 6 5 13 18 15 12 11 12 14 11 13 14 12 12 10 13 8 14 13 8 13 8 12 9 13 13 9 10 13 11 8 12 13 14 13 10 13 10 14 13 12 11 13 14 15 17 11 8 10 9 11 10 10 9 12 7 10 13 12 12 16 18 10 10 13 10 8 13 9 12 13 10 13 11 8 10 6 13 9 10 12 9 8 16 14 13 10 6 19 9 10 12 14 15 9 10 11 12 12 10 13 9 11 6 13 12 11 11 12 9 11 9 11 12 10 11 10 11 10 10 13 19 9 12 13 10 12 13 13 13 13 14 11 8 7 11 15 8 9 10 14 12 10 13 12 13 11 17 8 16 14 10 11 8 19 11 12 13 11 10 11 15 12 12 13 10 7 11 12 9 14 8 14 7 17 10 11 10 15 12 8 9 11 6 14 10 9 8 9 11 8 5 15 11 10 12 10 10 12 9 8 11 13 17 9 16 10 10 10 12 11 13 9 9 9 10 13 14 16 13 13 11 11 11 9 11 7 9 11 10 7 8 5 9 7 11 15 12 12 8 14 15 15 12 16 13 11 15 10 11 12 14 11 8 10 15 9 12 15 10 12 11 9 9 10 13 13 15 15 11 11 12 13 14 12 14 13 12 8 17 9 10 9 15 18 13 17 11 8 12 13 7 14 11 13 9 12 18 14 9 9 14 12 13 11 11 11 9 10 12 12 13 8 11 10 9 13 14 14 9 18 12 14 11 9 13 11 12 13 12 6 14 11 10 10 11 9 15 8 10 9 12 16 10 12 13 9 13 8 13 10 10 12 12 8 13 10 11 15 13 9 10 9 14 10 16 12 13 16 14 6 10 12 11 10 13 13 6 13 8 13 13 14 7 13 8 9 11 10 15 14 11 12 14 12 11 12 8 7 6 8 8 9 11 10 15 11 8 15 11 11 11 15 5 15 10 9 12 12 11 14 9 11 14 12 9 13 10 10 9 10 11 13 13 10 10 14 12 10 14 9 10 14 11 11 11 11 12 10 15 9 18 14 12 14 10 13 12 13 16 12 14 7 12 10 15 11 10 7 13 10 12 9 16 9 11 11 12 14 9 13 9 10 14 12 10 9 9 10 9 10 6 12 12 18 12 10 
BTB PER SET COUNT: 15 18 1968 19 15 14 987 105 1482 12 17 281 20460 18 11 10 247 17 12 19 20 11 426 149 15 18 17 22 374 11 288 22 24 17 7 309 24 23 15 10 17 9 18 873 150 8 19 12 16 13 16 82 24 10 162 6 10 7 506 15 12 21 15 7 13 34 14 1498 15 13 89 762 14 13 11 11 8 570 16 20 990 7 201 19 19 896 11 11 32 14 6 494 309 57 8 20 312 10 17 7795 29 23 21 292 28 9 12 14 1273 18 11 16 125 15 9 228 20 16 1483 399 21 8 10 15 9 16 12 15 22 783 6 986 378 11 18 16 609 13 11 31 15 13 12 13 10 16 917 17 12 21 31 286 1361 23 21 17 10 14 16 971 15 81 360 21 17 869 20 8 20 656 16 13 18 10 17 11 17 12 7 11 23 267 7 21 19 1051 8 13 184 1195 12 10 14 15 14 8 9 11 14 15 19 149 992 14 7 15 11 8 994 60 11 13 13 25 19 12 11 11 1515 17 10 16 9 19 12 15 20 259 9 16 10 6 17 21 984 9 929 12 25 16 989 12 17 14 11 555 8 13 19 15 24 19 13 8 20 16 8 8 16 8 14 12 3 18 20 6 14 14 562 14 12 13 9 9 6 6 11 15 9 9 12 11 11 11 13 14 10 18 14 17 11 9 16 217 10 14 9 15 15 31 7 11 50 27 17 134 31 498 199 13 8 23 8 25 1488 587 19 22 9 18 13 3362 8 17 12 27 13 13 19 11 17 18 57 20 13 514 18 58 7 18 21 1988 10 14 14 10 13 24 8 35 10 457 18 17 15 22 9 15 17 13 13 11 8 25 7 14 5 9 22 18 15 240 11 15 329 15 22 17 176 897 13 8 70 18 11 10 1109 25 16 14 21 8 15 387 8 13 14 10 595 2109 9 17 1479 15 26 15 20 499 16 23 1177 5 13 16 14 15 19 16 51 20 8 13 18 9 16 8 9 17 14 7 21 16 16 25 23 15 20 8 12 20 14 11 37 10 26 7 923 14 21 8 365 1681 11 14 42 23 17 11 13 15 42 9 9 15 14 14 12824 15 15 23 12 10 13 24 19 29 10 17 14 13 15 618 15 12 994 16 20 16 14 18 990 26 986 14 11 19 361 265 12 15 12 11 16 22 14 14 17 20 13 17 521 499 994 24 13 28 13 30 20 8 15 19 13 229 13 23 439 6 5 2722 31 90 14 11 17 18 13 1018 21 352 19 11 40 8 30 454 9 18 11 834 11 15 817 989 10 16 15 16 13 25 15 33 10 15 13 20 167 12 18 16 597 19 23 21 8 12 11 12 14 13 15 14 17 2949 14 15 12 22 31 10 15 31 14 8 14 17 1497 29 16 15 14 8 11 10 20 12 12 1483 9 11 23 1490 360 10 6 25 11 12 18 538 24 13 13 823 15 26 11 16 895 741 6 21 18 150 16 18 11 645 10 14 15 20 11 992 11 10 15 16 39 10 15 23 11 15 15 25 24 300 322 15 11 10 15 19 148 22 14 678 1493 15 22 14 118 13 977 11 28 18 10 20 9 26 1973 17 352 11 10 17 19 16 12 17 12 9 2475 13 10 219 8 15 9 25 1459 14 11 215 16 10 12 15 9 23 12 9 12 114 667 15 18 18 16 120 14 15 1223 15 12 9 14 13 62 16 43 123 18 1885 510 11 13 16 690 10 17 20 194 16 205 14 21 15 16 9 36 1479 9 11 13 10 9 10 16 11 16 20 16 15 8 15 26 25 14 31 18 13 22 16 22 19 21 21 1686 13 96 10 22 28 12 14 15 14 88 995 16 13 52 28 20 17 20 1197 98 12 37 198 133 8 28 11 13 39 26 155 20 489 12 12 13 2463 9 4427 17 1026 10 22 174 15 19 10 21 18 21 11 15 11 33 1972 17 74 17 8 17 12 10 18 511 21 14 23 13 1889 17 1274 133 13 137 13 17 7 25 13 14 356 156 10 299 10 12 9 20 21 14 34 15 9 19 8 19 15 11 16 12 8 20 12 502 860 21 12 11 10 17 10 682 22 16 24 23 9 16 24 19 12 21 148 6 18 8 21 148 18 9 846 8 9 11 15 1022 684 13 30 16 414 501 15 8 10 6 12 8 12 12 10 128 12 9 1283 14 12 15 29 5 659 17 12 13 222 12 19 14 15 23 16 13 278 13 19 41 10 11 19 18 10 10 19 15 13 620 9 30 17 21 1566 15 13 967 10 24 15 519 14 1001 16 18 95 17 1340 20 578 24 8 19 745 419 13 1480 12 13 1485 16 10 133 1478 19 15 17 23 11 19 10 11 25 742 11 18 10 11 17 12 9 18 15 24 12 16 
To predecode: 0
Predecoding something: 0
Predecode request dropped: 0
sizeofblock_0 0
sizeofblock_1 52816
sizeofblock_2 86661
sizeofblock_3 0
sizeofblock_4 0
sizeofblock_5 0
sizeofblock_6 0
sizeofblock_7 0
sizeofblock_8 0
Variant_0 Correct: 1614780 Incorrect: 0 Accuracy: 1
Variant_1 Correct: 5737911 Incorrect: 0 Accuracy: 1
Variant_2 Correct: 0 Incorrect: 0 Accuracy: -nan
Variant_3 Correct: 0 Incorrect: 0 Accuracy: -nan
