
*** ChampSim Multicore Out-of-Order Simulator ***

Warmup Instructions: 50000000
Simulation Instructions: 50000000
Number of CPUs: 1
LLC sets: 2048
LLC ways: 16
Off-chip DRAM Size: 4096 MB Channels: 1 Width: 64-bit Data Rate: 6400 MT/s
CPU 0 runs ./micro_traces/srv563.trace.gz
.gz
ITLB has LRU replacement policy
DTLB has LRU replacement policy
STLB has LRU replacement policy
FDIP Prefetcher at L1I
L1I has LRU replacement policy
L1D has LRU replacement policy
Initialize SRRIP state for L2C
Initialize DRRIP state for LLC
Heartbeat CPU 0 instructions: 10000000 cycles: 2797838 heartbeat IPC: 3.57419 cumulative IPC: 3.57419 (Simulation time: 0 hr 1 min 42 sec) 
Heartbeat CPU 0 instructions: 20000000 cycles: 5594645 heartbeat IPC: 3.57551 cumulative IPC: 3.57485 (Simulation time: 0 hr 3 min 20 sec) 
Heartbeat CPU 0 instructions: 30000002 cycles: 8391327 heartbeat IPC: 3.57567 cumulative IPC: 3.57512 (Simulation time: 0 hr 4 min 58 sec) 
Heartbeat CPU 0 instructions: 40000000 cycles: 11187438 heartbeat IPC: 3.5764 cumulative IPC: 3.57544 (Simulation time: 0 hr 6 min 32 sec) 
Heartbeat CPU 0 instructions: 50000003 cycles: 13983414 heartbeat IPC: 3.57657 cumulative IPC: 3.57566 (Simulation time: 0 hr 8 min 7 sec) 

Warmup complete CPU 0 instructions: 50000003 cycles: 13983414 (Simulation time: 0 hr 8 min 7 sec) 

Cycle: 20000000 FTQ IN: 56362976 FTQ occupancy: 17.6133 DECODE IN: 56362951 DECODE occupancy: 44.9755 ROB IN: 56362934 ROB occupancy: 270.995 ROB OUT: 56362907
Heartbeat CPU 0 instructions: 60000000 cycles: 23540244 heartbeat IPC: 1.04637 cumulative IPC: 1.04637 (Simulation time: 0 hr 9 min 25 sec) 
Cycle: 30000000 FTQ IN: 10463893 FTQ occupancy: 5.33048 DECODE IN: 10463913 DECODE occupancy: 10.3446 ROB IN: 10463928 ROB occupancy: 92.2152 ROB OUT: 10463864
Heartbeat CPU 0 instructions: 70000003 cycles: 33056629 heartbeat IPC: 1.05082 cumulative IPC: 1.04859 (Simulation time: 0 hr 10 min 46 sec) 
Cycle: 40000000 FTQ IN: 10477879 FTQ occupancy: 5.06729 DECODE IN: 10477884 DECODE occupancy: 9.81234 ROB IN: 10477886 ROB occupancy: 89.3135 ROB OUT: 10477973
Heartbeat CPU 0 instructions: 80000003 cycles: 42626189 heartbeat IPC: 1.04498 cumulative IPC: 1.04738 (Simulation time: 0 hr 12 min 6 sec) 
Cycle: 50000000 FTQ IN: 10449128 FTQ occupancy: 5.3405 DECODE IN: 10449112 DECODE occupancy: 10.3949 ROB IN: 10449052 ROB occupancy: 92.5461 ROB OUT: 10448975
Heartbeat CPU 0 instructions: 90000000 cycles: 52128027 heartbeat IPC: 1.05243 cumulative IPC: 1.04864 (Simulation time: 0 hr 13 min 20 sec) 
Cycle: 60000000 FTQ IN: 10550827 FTQ occupancy: 5.15484 DECODE IN: 10550813 DECODE occupancy: 9.98997 ROB IN: 10550873 ROB occupancy: 90.1608 ROB OUT: 10550922
Heartbeat CPU 0 instructions: 100000000 cycles: 61631860 heartbeat IPC: 1.05221 cumulative IPC: 1.04935 (Simulation time: 0 hr 14 min 39 sec) 
Finished CPU 0 instructions: 50000001 cycles: 47648447 cumulative IPC: 1.04935 (Simulation time: 0 hr 14 min 39 sec) 

ChampSim completed all CPUs

Region of Interest Statistics

CPU 0 cumulative IPC: 1.04935 instructions: 50000001 cycles: 47648447
 Fetch stage stalled: 74.2572  Sim cycles: 47648447 fetch stall cycle: 35382407
 Empty decode stage: 81.1203  Sim cycles: 47648447 fetch stall cycle: 38652544
ITLB TOTAL     ACCESS:    6039248  HIT:    5544672  MISS:     494576  HIT %:    91.8106  MISS %:    8.18936   MPKI: 9.89152
ITLB LOAD TRANSLATION INSTRUCTION	ACCESS:    5959027  HIT:    5464451  MISS:     494576  HIT %:    91.7004  MISS %:    8.29961  MPKI: 9.89152
ITLB TRANSLATION FROM L1D PREFETCHER INSTRUCTION	ACCESS:      80221  HIT:      80221  MISS:          0  HIT %:        100  MISS %:          0  MPKI: 0

ITLB AVERAGE MISS LATENCY: 9.05181 cycles
ITLB RQ	ACCESS:    7673888	FORWARD:          0	MERGED:    1364935	TO_CACHE:    6308953

DTLB TOTAL     ACCESS:    9646206  HIT:    9171829  MISS:     474377  HIT %:    95.0822  MISS %:    4.91776   MPKI: 9.48754
DTLB LOAD TRANSLATION DATA	ACCESS:    9646206  HIT:    9171829  MISS:     474377  HIT %:    95.0822  MISS %:    4.91776  MPKI: 9.48754

DTLB AVERAGE MISS LATENCY: 9.32066 cycles
DTLB RQ	ACCESS:   13871373	FORWARD:          0	MERGED:    4192768	TO_CACHE:    9678605

STLB TOTAL     ACCESS:    1216779  HIT:    1214738  MISS:       2041  HIT %:    99.8323  MISS %:   0.167738   MPKI: 0.04082
STLB LOAD TRANSLATION INSTRUCTION	ACCESS:     494576  HIT:     494325  MISS:        251  HIT %:    99.9492  MISS %:  0.0507505  MPKI: 0.00502
STLB LOAD TRANSLATION DATA	ACCESS:     474263  HIT:     472509  MISS:       1754  HIT %:    99.6302  MISS %:   0.369837  MPKI: 0.03508
STLB TRANSLATION FROM L1D PREFETCHER DATA	ACCESS:     247940  HIT:     247904  MISS:         36  HIT %:    99.9855  MISS %:  0.0145196  MPKI: 0.00072

STLB AVERAGE MISS LATENCY: 73.5938 cycles
STLB RQ	ACCESS:    1341219	FORWARD:          0	MERGED:     124404	TO_CACHE:    1216815

STLB Hit, L1D data hit: 0
STLB Hit, L2C data hit: 0
STLB Hit, LLC data hit: 0
STLB Hit, LLC data miss: 0
STLB STLB hints to L2: 0
L1D TOTAL     ACCESS:   13633408  HIT:   12515106  MISS:    1118302  HIT %:    91.7973  MISS %:    8.20266   MPKI: 22.366
L1D LOAD DATA	ACCESS:    7046411  HIT:    6311077  MISS:     735334  HIT %:    89.5644  MISS %:    10.4356  MPKI: 14.7067
L1D RFO DATA	ACCESS:    6256035  HIT:    5968325  MISS:     287710  HIT %:    95.4011  MISS %:    4.59892  MPKI: 5.7542
L1D PREFETCH DATA	ACCESS:     330962  HIT:     235704  MISS:      95258  HIT %:    71.2178  MISS %:    28.7822  MPKI: 1.90516

L1D PREFETCH  REQUESTED:     744793  ISSUED:     744793  USEFUL:      35784  USELESS:      68213
L1D USEFUL LOAD PREFETCHES:      35784 PREFETCH ISSUED TO LOWER LEVEL:     103997  ACCURACY: 34.4087
 TIMELY PREFETCHES:      35784 LATE PREFETCHES: 8693 DROPPED PREFETCHES: 7
L1D AVERAGE MISS LATENCY: 297577 cycles
L1D RQ	ACCESS:   11076601	FORWARD:          0	MERGED:    3827232	TO_CACHE:    7079911
L1D WQ	ACCESS:    6950443	FORWARD:     169719	MERGED:     158981	TO_CACHE:    6791462
L1D PQ	ACCESS:     372527	FORWARD:          0	MERGED:          0	TO_CACHE:     372266

L1D UNIQUE REGIONS ACCESSED: 0
L1D REGIONS CONFLICTS: 0
L1D Cross Page Prefetch Requests: 6939
L1D Same Page Prefetch Requests: 751971
L1D ROI Sum of L1D PQ occupancy: 4729137
L1D PREFETCHES PUSHED FROM L2C: 0
L1I TOTAL     ACCESS:    7139256  HIT:    4373615  MISS:    2765641  HIT %:    61.2615  MISS %:    38.7385   MPKI: 55.3128
L1I LOAD INSTRUCTION	ACCESS:    6774277  HIT:    4008636  MISS:    2765641  HIT %:    59.1744  MISS %:    40.8256  MPKI: 55.3128
L1I PREFETCH INSTRUCTION	ACCESS:     364979  HIT:     364979  MISS:          0  HIT %:        100  MISS %:          0  MPKI: 0

L1I PREFETCH  REQUESTED:     899408  ISSUED:     899408  USEFUL:          0  USELESS:          0
L1I USEFUL LOAD PREFETCHES:          0 PREFETCH ISSUED TO LOWER LEVEL:          0  ACCURACY: -nan
 TIMELY PREFETCHES:          0 LATE PREFETCHES: 0 DROPPED PREFETCHES: 0
L1I AVERAGE MISS LATENCY: 16.8898 cycles
L1I RQ	ACCESS:    9427126	FORWARD:          0	MERGED:    2394211	TO_CACHE:    7032915
L1I PQ	ACCESS:     899408	FORWARD:          0	MERGED:     258435	TO_CACHE:     640973

L1BTB TOTAL     ACCESS:    5669586  HIT:    2040595  MISS:    3628991  HIT %:     35.992  MISS %:     64.008   MPKI: 72.5798
L1BTB BRANCH_DIRECT_JUMP	ACCESS:     548587 HIT:     144271 MISS:     404316 AVERAGE STALL: 30.6084 AVERAGE FETCH STALL: 17.7815 AVERAGE FETCH QUEUE STALL: 5.4493 AVERAGE DECODE STALL: 6.50574 AVERAGE EXECUTE STALL: 1.08116e+15
L1BTB BRANCH_INDIRECT	ACCESS:     182965 HIT:      66049 MISS:     116916 AVERAGE STALL: 59.5579 AVERAGE FETCH STALL: 11.5714 AVERAGE FETCH QUEUE STALL: 6.44458 AVERAGE DECODE STALL: 6.16368 AVERAGE EXECUTE STALL: 34.415
L1BTB BRANCH_CONDITIONAL	ACCESS:    2710092 HIT:    1416768 MISS:    1293324 AVERAGE STALL: 31.8905 AVERAGE FETCH STALL: 20.8543 AVERAGE FETCH QUEUE STALL: 4.40982 AVERAGE DECODE STALL: 5.8611 AVERAGE EXECUTE STALL: 6.24467e+14
L1BTB BRANCH_DIRECT_CALL	ACCESS:     942631 HIT:     104142 MISS:     838489 AVERAGE STALL: 29.5999 AVERAGE FETCH STALL: 18.4836 AVERAGE FETCH QUEUE STALL: 4.85684 AVERAGE DECODE STALL: 5.48477 AVERAGE EXECUTE STALL: 8.64421e+14
L1BTB BRANCH_INDIRECT_CALL	ACCESS:     171337 HIT:      20857 MISS:     150480 AVERAGE STALL: 74.7719 AVERAGE FETCH STALL: 13.5844 AVERAGE FETCH QUEUE STALL: 2.42315 AVERAGE DECODE STALL: 5.50506 AVERAGE EXECUTE STALL: 52.7596
L1BTB BRANCH_RETURN	ACCESS:    1113974 HIT:     288508 MISS:     825466 AVERAGE STALL: 33.8013 AVERAGE FETCH STALL: 16.8007 AVERAGE FETCH QUEUE STALL: 2.27947 AVERAGE DECODE STALL: 4.71422 AVERAGE EXECUTE STALL: 3.61071e+14
L1BTB BRANCH_OTHER ACCESS:          0 HIT:          0 MISS:          0 AVERAGE STALL: -nan AVERAGE FETCH STALL: -nan AVERAGE FETCH QUEUE STALL: -nan AVERAGE DECODE STALL: -nan AVERAGE EXECUTE STALL: -nan
L1BTB TOTAL ROB OCCUPANCY AT BTB MISS: 2.2005

L2BTB TOTAL     ACCESS:    3603532  HIT:    3475360  MISS:     128172  HIT %:    96.4432  MISS %:    3.55684   MPKI: 2.56344
L2BTB BRANCH_DIRECT_JUMP	ACCESS:     400139 HIT:     387239 MISS:      12900 AVERAGE STALL: 30.6084 AVERAGE FETCH STALL: 17.7815 AVERAGE FETCH QUEUE STALL: 5.4493 AVERAGE DECODE STALL: 6.50574 AVERAGE EXECUTE STALL: 1.08116e+15
L2BTB BRANCH_INDIRECT	ACCESS:     106612 HIT:     103445 MISS:       3167 AVERAGE STALL: 59.5579 AVERAGE FETCH STALL: 11.5714 AVERAGE FETCH QUEUE STALL: 6.44458 AVERAGE DECODE STALL: 6.16368 AVERAGE EXECUTE STALL: 34.415
L2BTB BRANCH_CONDITIONAL	ACCESS:    1293324 HIT:    1263478 MISS:      29846 AVERAGE STALL: 31.8905 AVERAGE FETCH STALL: 20.8543 AVERAGE FETCH QUEUE STALL: 4.40982 AVERAGE DECODE STALL: 5.8611 AVERAGE EXECUTE STALL: 6.24467e+14
L2BTB BRANCH_DIRECT_CALL	ACCESS:     838489 HIT:     817122 MISS:      21367 AVERAGE STALL: 29.5999 AVERAGE FETCH STALL: 18.4836 AVERAGE FETCH QUEUE STALL: 4.85684 AVERAGE DECODE STALL: 5.48477 AVERAGE EXECUTE STALL: 8.64421e+14
L2BTB BRANCH_INDIRECT_CALL	ACCESS:     140918 HIT:     129724 MISS:      11194 AVERAGE STALL: 74.7719 AVERAGE FETCH STALL: 13.5844 AVERAGE FETCH QUEUE STALL: 2.42315 AVERAGE DECODE STALL: 5.50506 AVERAGE EXECUTE STALL: 52.7596
L2BTB BRANCH_RETURN	ACCESS:     824050 HIT:     774352 MISS:      49698 AVERAGE STALL: 33.8013 AVERAGE FETCH STALL: 16.8007 AVERAGE FETCH QUEUE STALL: 2.27947 AVERAGE DECODE STALL: 4.71422 AVERAGE EXECUTE STALL: 3.61071e+14
L2BTB BRANCH_OTHER ACCESS:          0 HIT:          0 MISS:          0 AVERAGE STALL: -nan AVERAGE FETCH STALL: -nan AVERAGE FETCH QUEUE STALL: -nan AVERAGE DECODE STALL: -nan AVERAGE EXECUTE STALL: -nan
L2BTB TOTAL ROB OCCUPANCY AT BTB MISS: 62.3038

L2C TOTAL     ACCESS:    4486222  HIT:    4035816  MISS:     450406  HIT %:    89.9602  MISS %:    10.0398   MPKI: 9.00812
L2C LOAD INSTRUCTION	ACCESS:    2765641  HIT:    2520897  MISS:     244744  HIT %:    91.1506  MISS %:    8.84945  MPKI: 4.89488
L2C LOAD TRANSLATION INSTRUCTION	ACCESS:        283  HIT:         69  MISS:        214  HIT %:    24.3816  MISS %:    75.6184  MPKI: 0.00428
L2C LOAD DATA	ACCESS:     726610  HIT:     659495  MISS:      67115  HIT %:    90.7633  MISS %:    9.23673  MPKI: 1.3423
L2C RFO DATA	ACCESS:     287647  HIT:     234260  MISS:      53387  HIT %:    81.4401  MISS %:    18.5599  MPKI: 1.06774
L2C PREFETCH DATA	ACCESS:     181663  HIT:     112126  MISS:      69537  HIT %:     61.722  MISS %:     38.278  MPKI: 1.39074
L2C WRITEBACK DATA	ACCESS:     522501  HIT:     508499  MISS:      14002  HIT %:    97.3202  MISS %:     2.6798  MPKI: 0.28004
L2C LOAD TRANSLATION DATA	ACCESS:       1818  HIT:        429  MISS:       1389  HIT %:    23.5974  MISS %:    76.4026  MPKI: 0.02778
L2C TRANSLATION FROM L1D PREFETCHER DATA	ACCESS:         59  HIT:         41  MISS:         18  HIT %:    69.4915  MISS %:    30.5085  MPKI: 0.00036

L2C PREFETCH  REQUESTED:      84708  ISSUED:      84708  USEFUL:       7961  USELESS:      61584
L2C USEFUL LOAD PREFETCHES:       7961 PREFETCH ISSUED TO LOWER LEVEL:      70001  ACCURACY: 11.3727
 TIMELY PREFETCHES:       7961 LATE PREFETCHES: 464 DROPPED PREFETCHES: 0
L2C AVERAGE MISS LATENCY: 39.7217 cycles
L2C RQ	ACCESS:    3782108	FORWARD:          0	MERGED:          0	TO_CACHE:    3782060
L2C WQ	ACCESS:     522502	FORWARD:         48	MERGED:          0	TO_CACHE:     522502
L2C PQ	ACCESS:     188705	FORWARD:          0	MERGED:       3402	TO_CACHE:     185303

L2C Dense regions hint from L2: 0
PSCL5 TOTAL     ACCESS:       4110  HIT:       2055  MISS:       2055  HIT %:         50  MISS %:         50   MPKI: 0.0411
PSCL5 LOAD TRANSLATION INSTRUCTION	ACCESS:       3992  HIT:       1996  MISS:       1996  HIT %:         50  MISS %:         50  MPKI: 0.03992
PSCL5 TRANSLATION FROM L1D PREFETCHER INSTRUCTION	ACCESS:        118  HIT:         59  MISS:         59  HIT %:         50  MISS %:         50  MPKI: 0.00118


PSCL4 TOTAL     ACCESS:       3826  HIT:       1910  MISS:       1916  HIT %:    49.9216  MISS %:    50.0784   MPKI: 0.03832
PSCL4 LOAD TRANSLATION INSTRUCTION	ACCESS:       2307  HIT:       1866  MISS:        441  HIT %:    80.8843  MISS %:    19.1157  MPKI: 0.00882
PSCL4 TRANSLATION FROM L1D PREFETCHER INSTRUCTION	ACCESS:         50  HIT:         44  MISS:          6  HIT %:         88  MISS %:         12  MPKI: 0.00012
PSCL4 LOAD TRANSLATION DATA	ACCESS:       1431  HIT:          0  MISS:       1431  HIT %:          0  MISS %:        100  MPKI: 0.02862
PSCL4 TRANSLATION FROM L1D PREFETCHER DATA	ACCESS:         38  HIT:          0  MISS:         38  HIT %:          0  MISS %:        100  MPKI: 0.00076


PSCL3 TOTAL     ACCESS:       3894  HIT:       1944  MISS:       1950  HIT %:     49.923  MISS %:     50.077   MPKI: 0.039
PSCL3 LOAD TRANSLATION INSTRUCTION	ACCESS:       2341  HIT:       1900  MISS:        441  HIT %:    81.1619  MISS %:    18.8381  MPKI: 0.00882
PSCL3 TRANSLATION FROM L1D PREFETCHER INSTRUCTION	ACCESS:         50  HIT:         44  MISS:          6  HIT %:         88  MISS %:         12  MPKI: 0.00012
PSCL3 LOAD TRANSLATION DATA	ACCESS:       1465  HIT:          0  MISS:       1465  HIT %:          0  MISS %:        100  MPKI: 0.0293
PSCL3 TRANSLATION FROM L1D PREFETCHER DATA	ACCESS:         38  HIT:          0  MISS:         38  HIT %:          0  MISS %:        100  MPKI: 0.00076


PSCL2 TOTAL     ACCESS:       4016  HIT:       1961  MISS:       2055  HIT %:    48.8297  MISS %:    51.1703   MPKI: 0.0411
PSCL2 LOAD TRANSLATION INSTRUCTION	ACCESS:       2153  HIT:       1902  MISS:        251  HIT %:    88.3418  MISS %:    11.6582  MPKI: 0.00502
PSCL2 TRANSLATION FROM L1D PREFETCHER INSTRUCTION	ACCESS:         59  HIT:         59  MISS:          0  HIT %:        100  MISS %:          0  MPKI: 0
PSCL2 LOAD TRANSLATION DATA	ACCESS:       1745  HIT:          0  MISS:       1745  HIT %:          0  MISS %:        100  MPKI: 0.0349
PSCL2 TRANSLATION FROM L1D PREFETCHER DATA	ACCESS:         59  HIT:          0  MISS:         59  HIT %:          0  MISS %:        100  MPKI: 0.00118


LLC TOTAL     ACCESS:     511360  HIT:     481523  MISS:      29837  HIT %:    94.1652  MISS %:    5.83483   MPKI: 0.59674
LLC LOAD INSTRUCTION	ACCESS:     244744  HIT:     243876  MISS:        868  HIT %:    99.6453  MISS %:   0.354656  MPKI: 0.01736
LLC LOAD TRANSLATION INSTRUCTION	ACCESS:        214  HIT:        194  MISS:         20  HIT %:    90.6542  MISS %:    9.34579  MPKI: 0.0004
LLC LOAD DATA	ACCESS:      66702  HIT:      63277  MISS:       3425  HIT %:    94.8652  MISS %:    5.13478  MPKI: 0.0685
LLC RFO DATA	ACCESS:      53334  HIT:      37917  MISS:      15417  HIT %:    71.0935  MISS %:    28.9065  MPKI: 0.30834
LLC PREFETCH DATA	ACCESS:      70000  HIT:      60296  MISS:       9704  HIT %:    86.1371  MISS %:    13.8629  MPKI: 0.19408
LLC WRITEBACK DATA	ACCESS:      74959  HIT:      74630  MISS:        329  HIT %:    99.5611  MISS %:   0.438907  MPKI: 0.00658
LLC LOAD TRANSLATION DATA	ACCESS:       1389  HIT:       1315  MISS:         74  HIT %:    94.6724  MISS %:    5.32757  MPKI: 0.00148
LLC TRANSLATION FROM L1D PREFETCHER DATA	ACCESS:         18  HIT:         18  MISS:          0  HIT %:        100  MISS %:          0  MPKI: 0

LLC AVERAGE MISS LATENCY: 159.245 cycles
LLC RQ	ACCESS:     366405	FORWARD:          0	MERGED:          0	TO_CACHE:     366403
LLC WQ	ACCESS:      74959	FORWARD:          3	MERGED:          0	TO_CACHE:      74959
LLC PQ	ACCESS:      70001	FORWARD:          0	MERGED:          0	TO_CACHE:      70000

LLC Dense regions hint to LLC: 0

RAW hits: 1563944
Loads Generated: 12640543
Loads sent to L1D: 11076601
Stores Generated: 6950429
Stores sent to L1D: 6950443
Major fault: 0 Minor fault: 2546
Allocated PAGES: 2546

stream: 
stream:times selected: 1185701
stream:pref_filled: 122352
stream:pref_useful: 24873
stream:pref_late: 6709
stream:misses: 8085
stream:misses_by_poll: 0

CS: 
CS:times selected: 180543
CS:pref_filled: 59983
CS:pref_useful: 36296
CS:pref_late: 7735
CS:misses: 17481
CS:misses_by_poll: 6

CPLX: 
CPLX:times selected: 1004096
CPLX:pref_filled: 20088
CPLX:pref_useful: 4443
CPLX:pref_late: 3056
CPLX:misses: 92919
CPLX:misses_by_poll: 0

NL_L1: 
NL:times selected: 21037
NL:pref_filled: 604
NL:pref_useful: 286
NL:pref_late: 361
NL:misses: 1788
NL:misses_by_poll: 0

total selections: 2391377
total_filled: 95258
total_useful: 35784
total_late: 19308
total_polluted: 6
total_misses_after_warmup: 768836
conflicts: 5758123

test: 116940

DRAM Statistics
 CHANNEL 0
 RQ ROW_BUFFER_HIT:      11249  ROW_BUFFER_MISS:      18234
 DBUS_CONGESTED:          6
 WQ ROW_BUFFER_HIT:       1536  ROW_BUFFER_MISS:      12781  FULL:          0

 AVG_CONGESTED_CYCLE: 4

CPU 0 Branch Prediction Accuracy: 99.8245% MPKI: 0.32086 Average ROB Occupancy at Mispredict: 96.8141
Branch types
NOT_BRANCH: 40858227 81.7165%
BRANCH_DIRECT_JUMP: 548587 1.09717%
BRANCH_INDIRECT: 182965 0.36593%
BRANCH_CONDITIONAL: 6181805 12.3636%
BRANCH_DIRECT_CALL: 942631 1.88526%
BRANCH_INDIRECT_CALL: 171337 0.342674%
BRANCH_RETURN: 1113974 2.22795%
BRANCH_OTHER: 0 0%

DRAM PAGES: 1048576
Allocated PAGES: 2546
Average_ROB_Occupancy: 92.5062
Average_Decode_Occupancy: 10.2007
Average_FTQ_Occupancy: 5.23947
Indirect max targets: 14 Average targets: 1.14966
Branch_type:  BRANCH_DIRECT_JUMP:  Count Percentage: 2.90188 6.71545 4.01451 9.10763 1.69594 5.9748 1.21898 68.3708 
Branch_type:  BRANCH_INDIRECT:  Count Percentage: 11.769 3.45274 2.54579 0 1.33799 9.66651 5.88967 65.3383 
Branch_type:  BRANCH_CONDITIONAL:  Count Percentage: 21.0906 3.22782 1.77466 5.4371 1.17557 9.03278 5.10134 53.1601 
Branch_type:  BRANCH_DIRECT_CALL:  Count Percentage: 0.259583 1.77361 1.43084 4.70999 2.16542 2.99894 0.705795 85.9558 
Branch_type:  BRANCH_INDIRECT_CALL:  Count Percentage: 9.55558 0 2.99514 8.70266 0 2.6605 1.28405 74.8021 
Branch_type:  BRANCH_RETURN:  Count Percentage: 3.90657 1.38011 1.41195 6.33895 2.79835 9.28712 5.47682 69.4001 
Branch_type:  BRANCH_DIRECT_JUMP:  Total Count: 31814 73623 44012 99849 18593 65503 13364 749564 
Branch_type:  BRANCH_INDIRECT:  Total Count: 43030 12624 9308 0 4892 35343 21534 238892 
Branch_type:  BRANCH_CONDITIONAL:  Total Count: 2606333 398887 219309 671906 145275 1116252 630413 6569417 
Branch_type:  BRANCH_DIRECT_CALL:  Total Count: 4896 33452 26987 88835 40842 56563 13312 1621212 
Branch_type:  BRANCH_INDIRECT_CALL:  Total Count: 32781 0 10275 29855 0 9127 4405 256613 
Branch_type:  BRANCH_RETURN:  Total Count: 87115 30776 31486 141356 62402 207099 122131 1547595 
Number of unique branch instructions: 9917
Upper 32 bits: 
aaaa
ffff
ffff0000
Unique upper 32 bits: 3
Unique upper 36 bits: 3
Unique upper 40 bits: 5
Unique upper 44 bits: 32
Unique upper 48 bits: 154
Offset_3 4073
Offset_4 249
Offset_5 451
Offset_6 503
Offset_7 585
Offset_8 509
Offset_9 468
Offset_10 385
Offset_11 315
Offset_12 288
Offset_13 201
Offset_14 230
Offset_15 189
Offset_16 223
Offset_17 143
Offset_18 126
Offset_19 240
Offset_20 142
Offset_21 235
Offset_22 392
Offset_23 241
Offset_24 327
Offset_25 88
Offset_47 80
decode_dispatch_called: 20743777 43.5351
Dispatch_width: 0 10419739 50.2307 21.868
Dispatch_width: 1 627152 3.02333 1.31621
Dispatch_width: 2 833002 4.01567 1.74822
Dispatch_width: 3 584485 2.81764 1.22666
Dispatch_width: 4 1640814 7.90991 3.44358
Dispatch_width: 5 441727 2.12944 0.927054
Dispatch_width: 6 6196858 29.8733 13.0054
Empty_decode_cycles: 26904670 56.4649
ROB_full_cycles: 1631985 3.42505
Starvation_cycles_per_kilo_instr: 398.196
Starvation_cycles_per_kilo_instr_3: 377.371
Starvation_cycles_per_kilo_instr_0: 356.924
Branch_type_1  (3,1)  (4,9)  (5,37)  (6,69)  (7,114)  (8,127)  (9,123)  (10,98)  (11,70)  (12,51)  (13,5)  (14,2)  (15,3)  (16,4)  (18,1)  (19,4)  (20,2)  (21,1)  (22,3)  (23,2)  (24,10)  (25,12) 
Branch_type_2  (3,1)  (5,1)  (8,3)  (9,3)  (12,1)  (13,1)  (14,1)  (16,3)  (17,2)  (20,2)  (21,2)  (23,5)  (24,1)  (47,36) 
Branch_type_3  (3,4071)  (4,240)  (5,409)  (6,418)  (7,439)  (8,317)  (9,256)  (10,156)  (11,130)  (12,58)  (13,4) 
Branch_type_4  (6,4)  (7,8)  (8,26)  (9,54)  (10,62)  (11,59)  (12,99)  (13,87)  (14,102)  (15,89)  (16,100)  (17,64)  (18,57)  (19,116)  (20,74)  (21,124)  (22,209)  (23,136)  (24,188)  (25,72) 
Branch_type_5  (8,2)  (9,1)  (10,3)  (11,5)  (12,3)  (13,14)  (14,16)  (15,11)  (16,20)  (17,11)  (18,16)  (19,12)  (20,10)  (21,13)  (22,42)  (23,26)  (24,37) 
Branch_type_6  (5,4)  (6,12)  (7,24)  (8,34)  (9,31)  (10,66)  (11,51)  (12,76)  (13,90)  (14,109)  (15,86)  (16,96)  (17,66)  (18,52)  (19,108)  (20,54)  (21,95)  (22,138)  (23,72)  (24,91)  (25,4)  (47,44) 
aaaaab1fc620: 2ac9e77e 2aca717c 2aca8eff 2acaf6bc 2acaf9aa 2acaf9f1 2acb1abc 2acb1b7f 2acd4e22 2acdb712 2acf5f9e 2ad0ef44 2ad3f15c 2ad414e6 2ad60e42 2ad8609c 2ad99830 2ada35cc 2ada4676 2ada6612 2adf183e 2adf30e5 2adf5602 2adf785c 2ae11572 2aeb2dcf 2aee101b 2aee1ae1 2b156a8c 2b156b61 2b156bea 2b167f35 2b177656 2b17feec 2b1a3e5a 
aaaaac68f310: 2ac9ec8c 2ac9fb44 2ac9fbd2 2aca59ab 2acac04c 2acaf6e0 2acaf6ec 2acaf6f9 2acaf700 2acaf708 2acf2d90 2ad3cfbd 2ad3cfc4 2ad3d000 2ad3f35f 2ad4955d 2ad49571 2ad4f3f2 2ad4f400 2ad5f240 2ad5f37c 2ad5f86a 2ad5f86f 2ad5f880 2ad5fc0d 2ad5fc14 2ad5fc21 2ad5fe1b 2ad873bb 2ad873e3 2ad8a6b2 2ad9086e 2ad93096 2ad9bbb2 2ada152c 2ada1554 2ada3332 2ada5522 2adf3130 2adf313c 2adf3a3f 2adf3bd9 2adf5788 2adf7a8d 2ae07f6b 2ae0857a 2ae0857e 2ae08630 2ae08634 2ae08637 2ae08642 2ae0866f 2ae086e4 2ae086ec 2ae08717 2ae0871b 2aee0170 2aee1d38 2aee75f4 2aee7662 2aee85ca 2aee85e4 2aee8eef 2af70b84 2af74e8f 2b17d843 
aaaaac690ef0: 2aca598b 2acb111b 2acb175f 2acb1772 2acbfaf4 2acbfb00 2acf374f 2acf6d43 2acfa5c8 2ad3baf1 2ad3d4ac 2ad3d4b8 2ad3f1cf 2ad486b2 2ad5a59b 2ad5fc64 2ad5fcf9 2ad6121c 2ad906e9 2ad907bf 2ad9bada 2ada16ce 2ada1ad5 2ada43df 2ada64c0 2ada72ee 2adeb71a 2adf3bcb 2adf7a38 2adf7c6a 2adf8872 2adf8880 2adf9959 2adf9abe 2ae07f78 2ae08503 2ae08754 2ae12e80 2aea3bea 2aecb509 2aee00b0 2aee2bdd 2aee5467 2aee5601 2aee8f20 2af703fd 2af7048b 2af74e74 
Unique trigger count: 
1 9454
2 503
3 86
4 27
5 10
6 9
7 6
9 3
10 2
11 1
12 2
13 3
16 2
17 2
19 3
35 1
48 1
66 1
BTB PER SET UNIQUE ADDR: 9 16 9 7 5 13 12 17 16 6 12 6 19 13 7 12 15 11 13 14 9 16 11 16 12 12 7 11 10 13 18 13 14 9 16 17 16 17 12 11 14 12 8 16 17 10 11 14 21 10 13 7 18 7 11 15 14 12 15 12 13 21 11 15 13 21 10 16 17 12 7 8 10 7 9 20 13 19 13 11 12 12 11 11 13 12 11 12 16 16 19 17 16 11 11 13 19 12 12 12 14 11 17 13 12 13 11 15 15 11 16 8 9 18 13 19 7 14 14 9 13 14 11 7 11 8 9 9 20 15 14 8 13 8 14 12 13 8 14 11 19 10 11 9 13 15 9 16 21 9 12 22 13 18 12 13 11 18 14 16 16 12 21 14 16 11 11 10 19 16 12 9 15 14 10 10 13 12 12 11 9 10 12 12 16 18 12 11 9 18 9 13 12 15 10 14 16 8 16 13 10 12 14 10 18 10 6 15 10 5 8 9 13 10 10 15 6 20 15 16 13 5 12 13 12 11 19 11 6 17 19 18 8 6 11 11 14 12 9 7 10 9 11 12 18 20 10 9 9 11 15 17 13 12 19 17 10 9 19 12 8 10 14 9 15 24 9 7 14 10 11 12 14 17 19 13 9 11 7 17 11 10 15 17 20 13 12 12 20 8 14 10 12 17 13 13 9 15 8 11 12 9 8 11 8 9 11 14 16 13 15 7 13 7 11 7 16 20 14 5 13 15 15 13 9 9 11 13 8 4 13 7 9 15 17 10 12 12 15 8 12 14 7 18 13 10 11 13 16 11 8 14 23 11 13 15 16 10 11 11 12 20 13 10 12 13 11 7 9 11 12 10 16 10 14 8 15 14 13 14 15 14 13 16 15 15 12 8 17 11 13 11 16 10 12 15 12 13 11 15 10 7 8 13 10 9 14 10 12 9 14 10 17 12 9 9 14 14 7 10 12 15 10 15 20 16 6 11 12 16 7 8 20 12 17 17 13 9 15 6 17 14 11 9 15 19 10 15 10 11 16 8 8 9 19 11 13 11 12 11 8 13 17 17 13 10 17 11 17 13 6 12 13 14 9 6 17 11 10 10 12 13 8 13 10 18 13 9 9 6 16 9 10 14 9 15 9 12 13 7 20 9 14 8 11 9 8 9 13 12 22 8 
BTB PER SET COUNT: 9 16 10 7 5 13 12 518 19 1476 12 471 61 13 7 13 15 11 13 1482 9 19 11 505 14 12 9 11 1477 13 1788 388 17 11 20 24 2951 2429 16 12 15 13 9 18 3799 14 11 14 5272 10 13 8 3442 7 11 17 15 12 16 88 13 6046 11 15 13 4061 10 17 4846 50 7 8 1477 7 12 5878 501 51 13 12 13 991 990 12 504 15 11 13 17 21 3911 507 17 2945 11 14 30 13 13 13 15 11 22 13 992 13 11 15 15 747 383 10 1477 33 13 2863 11 15 502 1476 14 19 12 7 503 8 9 10 5110 17 503 8 14 8 16 14 502 8 14 11 39 13 12 9 14 20 1477 16 14812 10 12 9567 13 5393 2948 993 14 51 504 18 18 15 7742 993 506 1969 658 10 7835 506 13 988 14697 1141 10 1844 1480 500 991 990 9 11 12 12 16 22 12 39 9 44 9 13 181 994 10 1489 994 1475 200 14 11 12 993 10 1496 755 6 2460 10 6 8 12 14 11 10 651 7 6281 15 17 993 5 12 13 12 12 770 2012 6 1495 251 4410 8 7 500 11 14 990 9 7 10 491 11 12 1742 5108 10 988 9 11 996 20 14 12 51 19 13 9 35 12 8 101 14 1477 1482 9587 987 7 14 12 11 12 16 54 66 16 448 11 8 61 12 10 237 19 6062 992 12 12 141 10 248 10 2459 1485 13 13 12 80 8 12 12 499 9 11 9 9 12 14 16 14 15 387 14 8 989 11 18 6373 17 5 13 15 47 13 9 10 11 16 244 4 992 1477 10 20 1003 12 998 12 15 8 15 15 7 1539 992 10 11 16 17 11 8 15 7838 1967 15 994 19 10 11 52 13 48 15 11 16 13 12 7 11 12 13 11 19 11 14 8 17 14 13 14 16 16 13 167 16 16 12 9 2635 11 111 46 17 10 12 18 1479 13 12 16 12 8 9 15 11 986 2948 10 13 2333 14 10 556 13 987 9 136 14 7 1934 13 504 10 15 6943 19 10 11 13 26 142 987 2686 12 25 269 15 10 15 6 365 15 12 10 22 3462 14 993 10 500 20 8 8 9 40 11 13 12 500 11 985 382 29 17 1012 10 19 11 49 15 496 13 42 505 125 6 20584 11 10 12 12 14 8 502 12 397 264 387 9 6 17 9 10 14 10 18 10 14 1971 8 8070 391 1213 8 11 12 9 9 1504 13 784 8 
