
*** ChampSim Multicore Out-of-Order Simulator ***

Warmup Instructions: 50000000
Simulation Instructions: 50000000
Number of CPUs: 1
LLC sets: 2048
LLC ways: 16
Off-chip DRAM Size: 4096 MB Channels: 1 Width: 64-bit Data Rate: 6400 MT/s
CPU 0 runs ./micro_traces/srv548.trace.gz
.gz
ITLB has LRU replacement policy
DTLB has LRU replacement policy
STLB has LRU replacement policy
FDIP Prefetcher at L1I
L1I has LRU replacement policy
L1D has LRU replacement policy
Initialize SRRIP state for L2C
Initialize DRRIP state for LLC
Heartbeat_Variant_0 : 1320 0.322266 per_variant_size: 0 1320 0 0 0 0 0 0 0 
Heartbeat_Variant_1 : 1202 0.293457 per_variant_size: 0 574 628 0 0 0 0 0 0 
Heartbeat_Variant_2 : 1303 0.318115 per_variant_size: 0 519 391 204 189 0 0 0 0 
Heartbeat_Variant_3 : 0 0 per_variant_size: 0 0 0 0 0 0 0 0 0 
Heartbeat_Variant_0_evicts 0 : 5754 1 : 243 2 : 226 3 : 0 
Heartbeat_Variant_1_evicts 0 : 231 1 : 0 2 : 399 3 : 0 
Heartbeat_Variant_2_evicts 0 : 216 1 : 405 2 : 0 3 : 0 
Heartbeat_Variant_3_evicts 0 : 0 1 : 0 2 : 0 3 : 0 
Heartbeat CPU 0 instructions: 10000000 cycles: 2798414 heartbeat IPC: 3.57345 cumulative IPC: 3.57345 (Simulation time: 0 hr 1 min 46 sec) 
Heartbeat_Variant_0 : 1370 0.334473 per_variant_size: 0 1370 0 0 0 0 0 0 0 
Heartbeat_Variant_1 : 1277 0.311768 per_variant_size: 0 566 711 0 0 0 0 0 0 
Heartbeat_Variant_2 : 1357 0.331299 per_variant_size: 0 528 376 245 208 0 0 0 0 
Heartbeat_Variant_3 : 0 0 per_variant_size: 0 0 0 0 0 0 0 0 0 
Heartbeat_Variant_0_evicts 0 : 5982 1 : 278 2 : 322 3 : 0 
Heartbeat_Variant_1_evicts 0 : 290 1 : 0 2 : 517 3 : 0 
Heartbeat_Variant_2_evicts 0 : 321 1 : 519 2 : 0 3 : 0 
Heartbeat_Variant_3_evicts 0 : 0 1 : 0 2 : 0 3 : 0 
Heartbeat CPU 0 instructions: 20000002 cycles: 5595523 heartbeat IPC: 3.57512 cumulative IPC: 3.57429 (Simulation time: 0 hr 3 min 26 sec) 
Heartbeat_Variant_0 : 1369 0.334229 per_variant_size: 0 1369 0 0 0 0 0 0 0 
Heartbeat_Variant_1 : 1297 0.31665 per_variant_size: 0 558 739 0 0 0 0 0 0 
Heartbeat_Variant_2 : 1374 0.335449 per_variant_size: 0 536 379 245 214 0 0 0 0 
Heartbeat_Variant_3 : 0 0 per_variant_size: 0 0 0 0 0 0 0 0 0 
Heartbeat_Variant_0_evicts 0 : 5752 1 : 156 2 : 157 3 : 0 
Heartbeat_Variant_1_evicts 0 : 163 1 : 0 2 : 353 3 : 0 
Heartbeat_Variant_2_evicts 0 : 155 1 : 356 2 : 0 3 : 0 
Heartbeat_Variant_3_evicts 0 : 0 1 : 0 2 : 0 3 : 0 
Heartbeat CPU 0 instructions: 30000002 cycles: 8391972 heartbeat IPC: 3.57596 cumulative IPC: 3.57485 (Simulation time: 0 hr 5 min 5 sec) 
Heartbeat_Variant_0 : 1378 0.336426 per_variant_size: 0 1378 0 0 0 0 0 0 0 
Heartbeat_Variant_1 : 1296 0.316406 per_variant_size: 0 557 739 0 0 0 0 0 0 
Heartbeat_Variant_2 : 1376 0.335938 per_variant_size: 0 526 390 257 203 0 0 0 0 
Heartbeat_Variant_3 : 0 0 per_variant_size: 0 0 0 0 0 0 0 0 0 
Heartbeat_Variant_0_evicts 0 : 5684 1 : 73 2 : 71 3 : 0 
Heartbeat_Variant_1_evicts 0 : 66 1 : 0 2 : 270 3 : 0 
Heartbeat_Variant_2_evicts 0 : 69 1 : 269 2 : 0 3 : 0 
Heartbeat_Variant_3_evicts 0 : 0 1 : 0 2 : 0 3 : 0 
Heartbeat CPU 0 instructions: 40000001 cycles: 11188288 heartbeat IPC: 3.57613 cumulative IPC: 3.57517 (Simulation time: 0 hr 6 min 44 sec) 
Heartbeat_Variant_0 : 1384 0.337891 per_variant_size: 0 1384 0 0 0 0 0 0 0 
Heartbeat_Variant_1 : 1300 0.317383 per_variant_size: 0 544 756 0 0 0 0 0 0 
Heartbeat_Variant_2 : 1374 0.335449 per_variant_size: 0 512 385 267 210 0 0 0 0 
Heartbeat_Variant_3 : 0 0 per_variant_size: 0 0 0 0 0 0 0 0 0 
Heartbeat_Variant_0_evicts 0 : 5749 1 : 92 2 : 110 3 : 0 
Heartbeat_Variant_1_evicts 0 : 90 1 : 0 2 : 275 3 : 0 
Heartbeat_Variant_2_evicts 0 : 108 1 : 272 2 : 0 3 : 0 
Heartbeat_Variant_3_evicts 0 : 0 1 : 0 2 : 0 3 : 0 
Heartbeat CPU 0 instructions: 50000000 cycles: 13984279 heartbeat IPC: 3.57655 cumulative IPC: 3.57544 (Simulation time: 0 hr 8 min 22 sec) 

Warmup complete CPU 0 instructions: 50000004 cycles: 13984280 (Simulation time: 0 hr 8 min 22 sec) 

Cycle: 20000000 FTQ IN: 58230141 FTQ occupancy: 19.9822 DECODE IN: 58230023 DECODE occupancy: 51.9984 ROB IN: 58229963 ROB occupancy: 314.934 ROB OUT: 58229615
Heartbeat_Variant_0 : 1385 0.338135 per_variant_size: 0 1385 0 0 0 0 0 0 0 
Heartbeat_Variant_1 : 1294 0.315918 per_variant_size: 0 544 750 0 0 0 0 0 0 
Heartbeat_Variant_2 : 1380 0.336914 per_variant_size: 0 515 387 272 206 0 0 0 0 
Heartbeat_Variant_3 : 0 0 per_variant_size: 0 0 0 0 0 0 0 0 0 
Heartbeat_Variant_0_evicts 0 : 5625 1 : 53 2 : 76 3 : 0 
Heartbeat_Variant_1_evicts 0 : 46 1 : 0 2 : 269 3 : 0 
Heartbeat_Variant_2_evicts 0 : 82 1 : 268 2 : 0 3 : 0 
Heartbeat_Variant_3_evicts 0 : 0 1 : 0 2 : 0 3 : 0 
Heartbeat CPU 0 instructions: 60000002 cycles: 21277077 heartbeat IPC: 1.37122 cumulative IPC: 1.37122 (Simulation time: 0 hr 10 min 14 sec) 
Heartbeat_Variant_0 : 1385 0.338135 per_variant_size: 0 1385 0 0 0 0 0 0 0 
Heartbeat_Variant_1 : 1294 0.315918 per_variant_size: 0 542 752 0 0 0 0 0 0 
Heartbeat_Variant_2 : 1380 0.336914 per_variant_size: 0 514 391 267 208 0 0 0 0 
Heartbeat_Variant_3 : 0 0 per_variant_size: 0 0 0 0 0 0 0 0 0 
Heartbeat_Variant_0_evicts 0 : 5531 1 : 2 2 : 8 3 : 0 
Heartbeat_Variant_1_evicts 0 : 3 1 : 0 2 : 196 3 : 0 
Heartbeat_Variant_2_evicts 0 : 7 1 : 197 2 : 0 3 : 0 
Heartbeat_Variant_3_evicts 0 : 0 1 : 0 2 : 0 3 : 0 
Heartbeat CPU 0 instructions: 70000002 cycles: 28473359 heartbeat IPC: 1.38961 cumulative IPC: 1.38035 (Simulation time: 0 hr 11 min 58 sec) 
Cycle: 30000000 FTQ IN: 13892746 FTQ occupancy: 12.9161 DECODE IN: 13892742 DECODE occupancy: 33.6109 ROB IN: 13892742 ROB occupancy: 239.503 ROB OUT: 13892738
Heartbeat_Variant_0 : 1389 0.339111 per_variant_size: 0 1389 0 0 0 0 0 0 0 
Heartbeat_Variant_1 : 1290 0.314941 per_variant_size: 0 543 747 0 0 0 0 0 0 
Heartbeat_Variant_2 : 1391 0.3396 per_variant_size: 0 532 386 266 207 0 0 0 0 
Heartbeat_Variant_3 : 0 0 per_variant_size: 0 0 0 0 0 0 0 0 0 
Heartbeat_Variant_0_evicts 0 : 5769 1 : 196 2 : 185 3 : 0 
Heartbeat_Variant_1_evicts 0 : 190 1 : 0 2 : 378 3 : 0 
Heartbeat_Variant_2_evicts 0 : 188 1 : 378 2 : 0 3 : 0 
Heartbeat_Variant_3_evicts 0 : 0 1 : 0 2 : 0 3 : 0 
Heartbeat CPU 0 instructions: 80000002 cycles: 35817970 heartbeat IPC: 1.36154 cumulative IPC: 1.37402 (Simulation time: 0 hr 13 min 43 sec) 
Cycle: 40000000 FTQ IN: 13718739 FTQ occupancy: 12.7871 DECODE IN: 13718844 DECODE occupancy: 32.8961 ROB IN: 13718844 ROB occupancy: 234.701 ROB OUT: 13718845
Heartbeat_Variant_0 : 1387 0.338623 per_variant_size: 0 1387 0 0 0 0 0 0 0 
Heartbeat_Variant_1 : 1298 0.316895 per_variant_size: 0 551 747 0 0 0 0 0 0 
Heartbeat_Variant_2 : 1386 0.338379 per_variant_size: 0 526 387 266 207 0 0 0 0 
Heartbeat_Variant_3 : 0 0 per_variant_size: 0 0 0 0 0 0 0 0 0 
Heartbeat_Variant_0_evicts 0 : 5598 1 : 11 2 : 13 3 : 0 
Heartbeat_Variant_1_evicts 0 : 12 1 : 0 2 : 215 3 : 0 
Heartbeat_Variant_2_evicts 0 : 14 1 : 209 2 : 0 3 : 0 
Heartbeat_Variant_3_evicts 0 : 0 1 : 0 2 : 0 3 : 0 
Heartbeat CPU 0 instructions: 90000001 cycles: 42993618 heartbeat IPC: 1.3936 cumulative IPC: 1.37887 (Simulation time: 0 hr 15 min 31 sec) 
Cycle: 50000000 FTQ IN: 13750646 FTQ occupancy: 12.8954 DECODE IN: 13750530 DECODE occupancy: 33.2653 ROB IN: 13750530 ROB occupancy: 236.554 ROB OUT: 13750529
Heartbeat_Variant_0 : 1398 0.341309 per_variant_size: 0 1398 0 0 0 0 0 0 0 
Heartbeat_Variant_1 : 1293 0.315674 per_variant_size: 0 541 752 0 0 0 0 0 0 
Heartbeat_Variant_2 : 1383 0.337646 per_variant_size: 0 517 384 278 204 0 0 0 0 
Heartbeat_Variant_3 : 0 0 per_variant_size: 0 0 0 0 0 0 0 0 0 
Heartbeat_Variant_0_evicts 0 : 5694 1 : 99 2 : 122 3 : 0 
Heartbeat_Variant_1_evicts 0 : 92 1 : 0 2 : 296 3 : 0 
Heartbeat_Variant_2_evicts 0 : 118 1 : 295 2 : 0 3 : 0 
Heartbeat_Variant_3_evicts 0 : 0 1 : 0 2 : 0 3 : 0 
Heartbeat CPU 0 instructions: 100000003 cycles: 50294417 heartbeat IPC: 1.36971 cumulative IPC: 1.37703 (Simulation time: 0 hr 17 min 13 sec) 
Finished CPU 0 instructions: 50000003 cycles: 36310138 cumulative IPC: 1.37703 (Simulation time: 0 hr 17 min 13 sec) 

ChampSim completed all CPUs

Region of Interest Statistics

CPU 0 cumulative IPC: 1.37703 instructions: 50000003 cycles: 36310138
 Fetch stage stalled: 54.0166  Sim cycles: 36310138 fetch stall cycle: 19613517
 Empty decode stage: 36.0045  Sim cycles: 36310138 fetch stall cycle: 13073277
ITLB TOTAL     ACCESS:    5866229  HIT:    5371334  MISS:     494895  HIT %:    91.5637  MISS %:    8.43634   MPKI: 9.8979
ITLB LOAD TRANSLATION INSTRUCTION	ACCESS:    5739871  HIT:    5244976  MISS:     494895  HIT %:    91.3779  MISS %:    8.62206  MPKI: 9.8979
ITLB TRANSLATION FROM L1D PREFETCHER INSTRUCTION	ACCESS:     126358  HIT:     126358  MISS:          0  HIT %:        100  MISS %:          0  MPKI: 0

ITLB AVERAGE MISS LATENCY: 9.05917 cycles
ITLB RQ	ACCESS:    8007379	FORWARD:          0	MERGED:    1693787	TO_CACHE:    6313592

DTLB TOTAL     ACCESS:    8971590  HIT:    8501263  MISS:     470327  HIT %:    94.7576  MISS %:     5.2424   MPKI: 9.40654
DTLB LOAD TRANSLATION DATA	ACCESS:    8971590  HIT:    8501263  MISS:     470327  HIT %:    94.7576  MISS %:     5.2424  MPKI: 9.40654

DTLB AVERAGE MISS LATENCY: 9.35225 cycles
DTLB RQ	ACCESS:   13344316	FORWARD:          0	MERGED:    4335866	TO_CACHE:    9008450

STLB TOTAL     ACCESS:    1212784  HIT:    1210589  MISS:       2195  HIT %:     99.819  MISS %:   0.180989   MPKI: 0.0439
STLB LOAD TRANSLATION INSTRUCTION	ACCESS:     494895  HIT:     494597  MISS:        298  HIT %:    99.9398  MISS %:  0.0602148  MPKI: 0.00596
STLB LOAD TRANSLATION DATA	ACCESS:     470327  HIT:     468456  MISS:       1871  HIT %:    99.6022  MISS %:   0.397808  MPKI: 0.03742
STLB TRANSLATION FROM L1D PREFETCHER DATA	ACCESS:     247562  HIT:     247536  MISS:         26  HIT %:    99.9895  MISS %:  0.0105024  MPKI: 0.00052

STLB AVERAGE MISS LATENCY: 74.4296 cycles
STLB RQ	ACCESS:    1333100	FORWARD:          0	MERGED:     120269	TO_CACHE:    1212831

STLB Hit, L1D data hit: 0
STLB Hit, L2C data hit: 0
STLB Hit, LLC data hit: 0
STLB Hit, LLC data miss: 0
STLB STLB hints to L2: 0
L1D TOTAL     ACCESS:   13092468  HIT:   11968363  MISS:    1124105  HIT %:    91.4141  MISS %:    8.58589   MPKI: 22.4821
L1D LOAD DATA	ACCESS:    6554610  HIT:    5814137  MISS:     740473  HIT %:     88.703  MISS %:     11.297  MPKI: 14.8095
L1D RFO DATA	ACCESS:    6211351  HIT:    5923469  MISS:     287882  HIT %:    95.3652  MISS %:    4.63477  MPKI: 5.75764
L1D PREFETCH DATA	ACCESS:     326507  HIT:     230757  MISS:      95750  HIT %:    70.6744  MISS %:    29.3256  MPKI: 1.915

L1D PREFETCH  REQUESTED:     736114  ISSUED:     736114  USEFUL:      35265  USELESS:      68549
L1D USEFUL LOAD PREFETCHES:      35265 PREFETCH ISSUED TO LOWER LEVEL:     103858  ACCURACY: 33.955
 TIMELY PREFETCHES:      35265 LATE PREFETCHES: 8067 DROPPED PREFETCHES: 5
L1D AVERAGE MISS LATENCY: 232291 cycles
L1D RQ	ACCESS:   10695782	FORWARD:          0	MERGED:    3941237	TO_CACHE:    6589387
L1D WQ	ACCESS:    6950873	FORWARD:     165518	MERGED:     195944	TO_CACHE:    6754929
L1D PQ	ACCESS:     368237	FORWARD:          0	MERGED:          0	TO_CACHE:     367877

L1D UNIQUE REGIONS ACCESSED: 0
L1D REGIONS CONFLICTS: 0
L1D Cross Page Prefetch Requests: 6981
L1D Same Page Prefetch Requests: 750813
L1D ROI Sum of L1D PQ occupancy: 4677028
L1D PREFETCHES PUSHED FROM L2C: 0
L1I TOTAL     ACCESS:    7159345  HIT:    4393590  MISS:    2765755  HIT %:    61.3686  MISS %:    38.6314   MPKI: 55.3151
L1I LOAD INSTRUCTION	ACCESS:    6492818  HIT:    3727063  MISS:    2765755  HIT %:    57.4029  MISS %:    42.5971  MPKI: 55.3151
L1I PREFETCH INSTRUCTION	ACCESS:     666527  HIT:     666527  MISS:          0  HIT %:        100  MISS %:          0  MPKI: 0

L1I PREFETCH  REQUESTED:    1608968  ISSUED:    1608968  USEFUL:          0  USELESS:          0
L1I USEFUL LOAD PREFETCHES:          0 PREFETCH ISSUED TO LOWER LEVEL:          0  ACCURACY: -nan
 TIMELY PREFETCHES:          0 LATE PREFETCHES: 0 DROPPED PREFETCHES: 0
L1I AVERAGE MISS LATENCY: 17.4772 cycles
L1I RQ	ACCESS:    9506945	FORWARD:          0	MERGED:    2675705	TO_CACHE:    6831240
L1I PQ	ACCESS:    1608968	FORWARD:          0	MERGED:     432829	TO_CACHE:    1176139

L1BTB TOTAL     ACCESS:    5669163  HIT:    2035924  MISS:    3633239  HIT %:    35.9123  MISS %:    64.0877   MPKI: 72.6648
L1BTB BRANCH_DIRECT_JUMP	ACCESS:     547503  HIT:     143864  MISS:     403639	AVERAGE STALL: 53.5488
L1BTB BRANCH_INDIRECT	ACCESS:     182329  HIT:      65594  MISS:     116735	AVERAGE STALL: 107.535
L1BTB BRANCH_CONDITIONAL	ACCESS:    2700479  HIT:    1406641  MISS:    1293838	AVERAGE STALL: 72.6621
L1BTB BRANCH_DIRECT_CALL	ACCESS:     946913  HIT:     106503  MISS:     840410	AVERAGE STALL: 71.4112
L1BTB BRANCH_INDIRECT_CALL	ACCESS:     172517  HIT:      21908  MISS:     150609	AVERAGE STALL: 131.66
L1BTB BRANCH_RETURN	ACCESS:    1119422  HIT:     291414  MISS:     828008	AVERAGE STALL: 49.9601
L1BTB BRANCH_OTHER ACCESS:          0  HIT:          0  MISS:          0	AVERAGE STALL: -nan
L1BTB TOTAL ROB OCCUPANCY AT BTB MISS: 2.62382

L2BTB TOTAL     ACCESS:    3607915  HIT:    3542784  MISS:      65131  HIT %:    98.1948  MISS %:    1.80523   MPKI: 1.30262
L2BTB BRANCH_DIRECT_JUMP	ACCESS:     399519  HIT:     395182  MISS:       4337	AVERAGE STALL: 53.5488
L2BTB BRANCH_INDIRECT	ACCESS:     106442  HIT:     103725  MISS:       2717	AVERAGE STALL: 107.535
L2BTB BRANCH_CONDITIONAL	ACCESS:    1293838  HIT:    1289003  MISS:       4835	AVERAGE STALL: 72.6621
L2BTB BRANCH_DIRECT_CALL	ACCESS:     840410  HIT:     839102  MISS:       1308	AVERAGE STALL: 71.4112
L2BTB BRANCH_INDIRECT_CALL	ACCESS:     141117  HIT:     130833  MISS:      10284	AVERAGE STALL: 131.66
L2BTB BRANCH_RETURN	ACCESS:     826589  HIT:     784939  MISS:      41650	AVERAGE STALL: 49.9601
L2BTB BRANCH_OTHER ACCESS:          0  HIT:          0  MISS:          0	AVERAGE STALL: -nan
L2BTB TOTAL ROB OCCUPANCY AT BTB MISS: 146.366

L2C TOTAL     ACCESS:    4503424  HIT:    4000843  MISS:     502581  HIT %:      88.84  MISS %:      11.16   MPKI: 10.0516
L2C LOAD INSTRUCTION	ACCESS:    2765756  HIT:    2481352  MISS:     284404  HIT %:     89.717  MISS %:     10.283  MPKI: 5.68808
L2C LOAD TRANSLATION INSTRUCTION	ACCESS:        336  HIT:        102  MISS:        234  HIT %:    30.3571  MISS %:    69.6429  MPKI: 0.00468
L2C LOAD DATA	ACCESS:     732381  HIT:     655393  MISS:      76988  HIT %:     89.488  MISS %:     10.512  MPKI: 1.53976
L2C RFO DATA	ACCESS:     287812  HIT:     237965  MISS:      49847  HIT %:    82.6807  MISS %:    17.3193  MPKI: 0.99694
L2C PREFETCH DATA	ACCESS:     190766  HIT:     115867  MISS:      74899  HIT %:    60.7378  MISS %:    39.2622  MPKI: 1.49798
L2C WRITEBACK DATA	ACCESS:     524373  HIT:     509616  MISS:      14757  HIT %:    97.1858  MISS %:    2.81422  MPKI: 0.29514
L2C LOAD TRANSLATION DATA	ACCESS:       1943  HIT:        519  MISS:       1424  HIT %:    26.7113  MISS %:    73.2887  MPKI: 0.02848
L2C TRANSLATION FROM L1D PREFETCHER DATA	ACCESS:         57  HIT:         29  MISS:         28  HIT %:    50.8772  MISS %:    49.1228  MPKI: 0.00056

L2C PREFETCH  REQUESTED:      94886  ISSUED:      94886  USEFUL:       9000  USELESS:      66672
L2C USEFUL LOAD PREFETCHES:       9000 PREFETCH ISSUED TO LOWER LEVEL:      75563  ACCURACY: 11.9106
 TIMELY PREFETCHES:       9000 LATE PREFETCHES: 664 DROPPED PREFETCHES: 0
L2C AVERAGE MISS LATENCY: 38.8337 cycles
L2C RQ	ACCESS:    3788341	FORWARD:          0	MERGED:          0	TO_CACHE:    3788287
L2C WQ	ACCESS:     524373	FORWARD:         54	MERGED:          0	TO_CACHE:     524373
L2C PQ	ACCESS:     198744	FORWARD:          0	MERGED:       3220	TO_CACHE:     195524

L2C Dense regions hint from L2: 0
PSCL5 TOTAL     ACCESS:       4412  HIT:       2206  MISS:       2206  HIT %:         50  MISS %:         50   MPKI: 0.04412
PSCL5 LOAD TRANSLATION INSTRUCTION	ACCESS:       4302  HIT:       2151  MISS:       2151  HIT %:         50  MISS %:         50  MPKI: 0.04302
PSCL5 TRANSLATION FROM L1D PREFETCHER INSTRUCTION	ACCESS:        110  HIT:         55  MISS:         55  HIT %:         50  MISS %:         50  MPKI: 0.0011


PSCL4 TOTAL     ACCESS:       4337  HIT:       2166  MISS:       2171  HIT %:    49.9424  MISS %:    50.0576   MPKI: 0.04342
PSCL4 LOAD TRANSLATION INSTRUCTION	ACCESS:       3828  HIT:       2116  MISS:       1712  HIT %:    55.2769  MISS %:    44.7231  MPKI: 0.03424
PSCL4 TRANSLATION FROM L1D PREFETCHER INSTRUCTION	ACCESS:         93  HIT:         50  MISS:         43  HIT %:    53.7634  MISS %:    46.2366  MPKI: 0.00086
PSCL4 LOAD TRANSLATION DATA	ACCESS:        409  HIT:          0  MISS:        409  HIT %:          0  MISS %:        100  MPKI: 0.00818
PSCL4 TRANSLATION FROM L1D PREFETCHER DATA	ACCESS:          7  HIT:          0  MISS:          7  HIT %:          0  MISS %:        100  MPKI: 0.00014


PSCL3 TOTAL     ACCESS:       4341  HIT:       2168  MISS:       2173  HIT %:    49.9424  MISS %:    50.0576   MPKI: 0.04346
PSCL3 LOAD TRANSLATION INSTRUCTION	ACCESS:       3830  HIT:       2118  MISS:       1712  HIT %:    55.3003  MISS %:    44.6997  MPKI: 0.03424
PSCL3 TRANSLATION FROM L1D PREFETCHER INSTRUCTION	ACCESS:         93  HIT:         50  MISS:         43  HIT %:    53.7634  MISS %:    46.2366  MPKI: 0.00086
PSCL3 LOAD TRANSLATION DATA	ACCESS:        411  HIT:          0  MISS:        411  HIT %:          0  MISS %:        100  MPKI: 0.00822
PSCL3 TRANSLATION FROM L1D PREFETCHER DATA	ACCESS:          7  HIT:          0  MISS:          7  HIT %:          0  MISS %:        100  MPKI: 0.00014


PSCL2 TOTAL     ACCESS:       4291  HIT:       2085  MISS:       2206  HIT %:    48.5901  MISS %:    51.4099   MPKI: 0.04412
PSCL2 LOAD TRANSLATION INSTRUCTION	ACCESS:       2327  HIT:       2032  MISS:        295  HIT %:    87.3227  MISS %:    12.6773  MPKI: 0.0059
PSCL2 TRANSLATION FROM L1D PREFETCHER INSTRUCTION	ACCESS:         53  HIT:         53  MISS:          0  HIT %:        100  MISS %:          0  MPKI: 0
PSCL2 LOAD TRANSLATION DATA	ACCESS:       1858  HIT:          0  MISS:       1858  HIT %:          0  MISS %:        100  MPKI: 0.03716
PSCL2 TRANSLATION FROM L1D PREFETCHER DATA	ACCESS:         53  HIT:          0  MISS:         53  HIT %:          0  MISS %:        100  MPKI: 0.00106


LLC TOTAL     ACCESS:     560823  HIT:     530130  MISS:      30693  HIT %:    94.5272  MISS %:    5.47285   MPKI: 0.61386
LLC LOAD INSTRUCTION	ACCESS:     284405  HIT:     283393  MISS:       1012  HIT %:    99.6442  MISS %:   0.355831  MPKI: 0.02024
LLC LOAD TRANSLATION INSTRUCTION	ACCESS:        234  HIT:        199  MISS:         35  HIT %:    85.0427  MISS %:    14.9573  MPKI: 0.0007
LLC LOAD DATA	ACCESS:      76352  HIT:      72689  MISS:       3663  HIT %:    95.2025  MISS %:    4.79752  MPKI: 0.07326
LLC RFO DATA	ACCESS:      49812  HIT:      34527  MISS:      15285  HIT %:    69.3146  MISS %:    30.6854  MPKI: 0.3057
LLC PREFETCH DATA	ACCESS:      75562  HIT:      65402  MISS:      10160  HIT %:    86.5541  MISS %:    13.4459  MPKI: 0.2032
LLC WRITEBACK DATA	ACCESS:      73006  HIT:      72547  MISS:        459  HIT %:    99.3713  MISS %:   0.628715  MPKI: 0.00918
LLC LOAD TRANSLATION DATA	ACCESS:       1424  HIT:       1346  MISS:         78  HIT %:    94.5225  MISS %:    5.47753  MPKI: 0.00156
LLC TRANSLATION FROM L1D PREFETCHER DATA	ACCESS:         28  HIT:         27  MISS:          1  HIT %:    96.4286  MISS %:    3.57143  MPKI: 2e-05

LLC AVERAGE MISS LATENCY: 157.824 cycles
LLC RQ	ACCESS:     412262	FORWARD:          0	MERGED:          0	TO_CACHE:     412255
LLC WQ	ACCESS:      73006	FORWARD:          8	MERGED:          0	TO_CACHE:      73006
LLC PQ	ACCESS:      75563	FORWARD:          0	MERGED:          0	TO_CACHE:      75562

LLC Dense regions hint to LLC: 0

RAW hits: 1941112
Loads Generated: 12636894
Loads sent to L1D: 10695782
Stores Generated: 6950862
Stores sent to L1D: 6950873
Major fault: 0 Minor fault: 2661
Allocated PAGES: 2661

stream: 
stream:times selected: 1188936
stream:pref_filled: 121960
stream:pref_useful: 24214
stream:pref_late: 6700
stream:misses: 7954
stream:misses_by_poll: 0

CS: 
CS:times selected: 181661
CS:pref_filled: 60723
CS:pref_useful: 37283
CS:pref_late: 6967
CS:misses: 16927
CS:misses_by_poll: 8

CPLX: 
CPLX:times selected: 1006059
CPLX:pref_filled: 19367
CPLX:pref_useful: 4656
CPLX:pref_late: 3025
CPLX:misses: 93189
CPLX:misses_by_poll: 0

NL_L1: 
NL:times selected: 20963
NL:pref_filled: 812
NL:pref_useful: 375
NL:pref_late: 307
NL:misses: 1833
NL:misses_by_poll: 0

total selections: 2397619
total_filled: 95750
total_useful: 35265
total_late: 18312
total_polluted: 8
total_misses_after_warmup: 775250
conflicts: 5519011

test: 115206

DRAM Statistics
 CHANNEL 0
 RQ ROW_BUFFER_HIT:      11446  ROW_BUFFER_MISS:      18771
 DBUS_CONGESTED:         14
 WQ ROW_BUFFER_HIT:       1482  ROW_BUFFER_MISS:      12775  FULL:          0

 AVG_CONGESTED_CYCLE: 6

CPU 0 Branch Prediction Accuracy: 99.8222% MPKI: 0.32518 Average ROB Occupancy at Mispredict: 186.792
Branch types
NOT_BRANCH: 40854194 81.7084%
BRANCH_DIRECT_JUMP: 547503 1.09501%
BRANCH_INDIRECT: 182329 0.364658%
BRANCH_CONDITIONAL: 6176899 12.3538%
BRANCH_DIRECT_CALL: 946913 1.89383%
BRANCH_INDIRECT_CALL: 172517 0.345034%
BRANCH_RETURN: 1119422 2.23884%
BRANCH_OTHER: 0 0%

DRAM PAGES: 1048576
Allocated PAGES: 2661
Average_ROB_Occupancy: 238.02
Average_Decode_Occupancy: 33.2299
Average_FTQ_Occupancy: 12.8727
Indirect max targets: 14 Average targets: 1.17778
Branch_type:  BRANCH_DIRECT_JUMP:  Count Percentage: 3.31585 6.40467 4.09987 3.79399 9.94991 2.71886 1.60283 68.114 
Branch_type:  BRANCH_INDIRECT:  Count Percentage: 13.7711 3.44093 5.36714 3.7354 9.68519 1.20521 3.20251 59.5925 
Branch_type:  BRANCH_CONDITIONAL:  Count Percentage: 21.4796 3.03675 1.85294 3.15863 6.30752 9.51825 0.927367 53.7189 
Branch_type:  BRANCH_DIRECT_CALL:  Count Percentage: 0.752136 1.26427 1.02866 2.5889 5.12549 2.07211 0.61867 86.5498 
Branch_type:  BRANCH_INDIRECT_CALL:  Count Percentage: 9.52367 0 2.98401 4.26154 1.25889 2.99158 0.995932 77.9844 
Branch_type:  BRANCH_RETURN:  Count Percentage: 4.51994 1.37725 2.61165 3.2738 8.30368 10.5543 1.1845 68.1749 
Branch_type:  BRANCH_DIRECT_JUMP:  Total Count: 36325 70163 44914 41563 109001 29785 17559 746187 
Branch_type:  BRANCH_INDIRECT:  Total Count: 50367 12585 19630 13662 35423 4408 11713 217956 
Branch_type:  BRANCH_CONDITIONAL:  Total Count: 2653661 375170 228919 390228 779252 1175916 114570 6636619 
Branch_type:  BRANCH_DIRECT_CALL:  Total Count: 14190 23852 19407 48843 96699 39093 11672 1632872 
Branch_type:  BRANCH_INDIRECT_CALL:  Total Count: 32704 0 10247 14634 4323 10273 3420 267796 
Branch_type:  BRANCH_RETURN:  Total Count: 100835 30725 58263 73035 185246 235454 26425 1520908 
Number of unique branch instructions: 10810
Upper 32 bits: 
aaaa
ffff
ffff0000
Unique upper 32 bits: 3
Unique upper 36 bits: 3
Unique upper 40 bits: 5
Unique upper 44 bits: 32
Unique upper 48 bits: 158
Variant_0 : 1398 0.341309
Variant_1 : 1293 0.315674
Variant_2 : 1383 0.337646
Variant_3 : 0 0
Offset_3 4480
Offset_4 261
Offset_5 486
Offset_6 545
Offset_7 643
Offset_8 585
Offset_9 519
Offset_10 426
Offset_11 348
Offset_12 325
Offset_13 237
Offset_14 247
Offset_15 192
Offset_16 234
Offset_17 170
Offset_18 154
Offset_19 267
Offset_20 145
Offset_21 235
Offset_22 411
Offset_23 241
Offset_24 347
Offset_25 117
Offset_47 92
decode_dispatch_called: 25224343 69.4691
Dispatch_width: 0 13450229 53.3224 37.0426
Dispatch_width: 1 943744 3.7414 2.59912
Dispatch_width: 2 819086 3.2472 2.25581
Dispatch_width: 3 493127 1.95496 1.3581
Dispatch_width: 4 5505927 21.8278 15.1636
Dispatch_width: 5 158527 0.628468 0.436592
Dispatch_width: 6 3853703 15.2777 10.6133
Empty_decode_cycles: 11085795 30.5309
ROB_full_cycles: 8706661 23.9786
Starvation_cycles_per_kilo_instr: 237.498
Starvation_cycles_per_kilo_instr_3: 180.853
Starvation_cycles_per_kilo_instr_0: 158.294
Branch_type_1  (3,1)  (4,9)  (5,39)  (6,75)  (7,126)  (8,152)  (9,137)  (10,110)  (11,77)  (12,55)  (13,11)  (14,2)  (15,3)  (16,4)  (18,1)  (19,5)  (20,2)  (21,1)  (22,3)  (23,2)  (24,10)  (25,12) 
Branch_type_2  (3,1)  (4,1)  (5,1)  (8,4)  (9,4)  (10,1)  (12,1)  (13,1)  (14,1)  (16,3)  (17,2)  (20,2)  (21,2)  (23,5)  (24,1)  (47,41) 
Branch_type_3  (3,4478)  (4,251)  (5,442)  (6,453)  (7,485)  (8,360)  (9,282)  (10,173)  (11,136)  (12,62)  (13,10) 
Branch_type_4  (6,4)  (7,8)  (8,26)  (9,58)  (10,68)  (11,69)  (12,116)  (13,100)  (14,112)  (15,91)  (16,105)  (17,77)  (18,66)  (19,129)  (20,74)  (21,124)  (22,216)  (23,136)  (24,202)  (25,101) 
Branch_type_5  (8,3)  (9,1)  (10,4)  (11,5)  (12,3)  (13,14)  (14,16)  (15,11)  (16,22)  (17,13)  (18,23)  (19,14)  (20,11)  (21,13)  (22,43)  (23,26)  (24,38) 
Branch_type_6  (5,4)  (6,13)  (7,24)  (8,40)  (9,37)  (10,70)  (11,61)  (12,88)  (13,101)  (14,116)  (15,87)  (16,100)  (17,78)  (18,64)  (19,119)  (20,56)  (21,95)  (22,149)  (23,72)  (24,96)  (25,4)  (47,51) 
Unique trigger count: 
Variant_0_evicts_0 : 0
Variant_0_evicts_1 : 0
Variant_0_evicts_2 : 0
Variant_0_evicts_3 : 0
Variant_1_evicts_0 : 0
Variant_1_evicts_1 : 0
Variant_1_evicts_2 : 0
Variant_1_evicts_3 : 0
Variant_2_evicts_0 : 0
Variant_2_evicts_1 : 0
Variant_2_evicts_2 : 0
Variant_2_evicts_3 : 0
Variant_3_evicts_0 : 0
Variant_3_evicts_1 : 0
Variant_3_evicts_2 : 0
Variant_3_evicts_3 : 0
BTB PER SET UNIQUE ADDR: 12 15 11 11 13 14 14 15 12 13 13 15 17 14 13 13 11 13 16 14 14 13 14 13 12 10 13 16 10 11 15 13 16 10 9 12 14 15 7 15 10 7 16 19 12 10 14 9 16 8 15 12 10 16 13 6 13 12 12 7 12 20 11 9 9 21 14 11 15 13 12 10 17 11 8 10 6 15 8 12 8 7 12 14 13 18 16 8 10 27 10 10 12 13 9 9 12 11 15 12 17 14 14 16 11 7 14 16 9 11 8 17 16 10 14 8 15 10 14 14 14 10 14 13 11 14 6 12 17 14 13 15 11 17 12 19 11 12 14 21 6 13 12 14 14 9 14 8 7 14 15 16 13 12 8 15 17 10 16 12 12 15 16 16 10 12 14 11 14 9 13 13 13 12 21 9 11 15 14 15 11 13 13 17 22 15 6 12 11 13 12 12 12 15 10 14 8 14 11 13 12 13 13 14 13 10 12 15 11 14 10 11 15 12 7 18 10 14 12 19 9 20 9 13 11 10 21 13 7 17 11 8 10 16 13 11 13 11 17 9 13 12 11 14 11 17 11 9 17 10 13 12 14 13 12 11 8 9 11 12 13 9 5 10 16 10 10 13 11 11 12 15 14 8 9 11 12 14 7 10 15 17 5 12 12 10 14 16 22 12 9 12 10 13 5 13 11 13 15 12 13 9 17 16 14 16 15 10 16 14 15 21 9 16 18 8 15 17 11 18 12 16 11 17 14 14 16 8 14 8 10 18 12 12 13 13 14 15 8 21 16 8 10 14 11 15 12 15 12 12 13 14 9 15 11 14 9 12 11 12 11 19 4 16 10 16 11 11 12 12 17 10 13 11 12 15 13 17 13 16 14 13 9 9 12 14 16 17 10 14 15 11 17 18 9 10 11 10 15 9 10 11 6 11 16 11 19 19 13 13 13 9 8 18 16 15 10 15 16 19 9 12 10 10 13 14 12 10 12 10 18 13 7 15 12 12 14 14 12 11 15 11 15 18 17 8 12 10 12 18 12 13 12 11 10 21 17 13 11 16 15 13 15 16 18 7 13 14 15 15 16 12 17 14 15 20 13 17 10 14 19 19 15 15 9 22 22 16 14 13 10 11 13 11 15 12 18 21 9 11 14 13 10 10 11 12 12 13 15 15 13 18 10 14 14 17 19 19 9 9 11 9 11 11 12 19 22 8 10 21 14 14 20 12 14 19 13 9 10 12 15 13 14 16 14 12 9 14 11 12 13 15 17 14 12 16 9 12 19 14 13 21 10 12 12 15 12 12 12 11 12 16 20 17 15 12 15 14 11 17 18 10 8 12 20 15 12 12 16 16 8 12 11 11 18 8 10 10 13 12 15 10 12 10 11 17 18 15 14 14 14 15 14 10 3 17 14 20 14 12 16 11 6 12 14 20 15 21 14 17 14 18 14 16 12 15 10 19 9 15 12 15 14 19 15 15 11 16 19 12 7 16 12 11 13 11 13 11 11 16 13 6 15 15 13 15 11 11 15 13 13 14 11 13 21 13 18 18 13 15 14 19 14 13 15 13 12 12 15 15 12 14 16 10 11 17 14 17 11 11 7 10 15 9 7 13 14 10 9 9 9 15 10 11 13 8 19 12 14 11 14 12 18 15 7 14 14 11 13 9 13 12 11 11 10 17 18 20 19 11 13 8 11 10 19 15 14 13 8 9 11 13 12 14 10 12 17 10 10 10 16 6 6 15 16 16 9 16 11 13 9 13 11 10 9 10 14 12 14 14 8 18 14 10 14 14 9 11 8 8 7 7 16 12 11 22 14 11 14 13 16 11 13 16 19 11 15 8 13 11 13 19 11 13 12 17 17 15 10 16 12 13 5 15 12 17 16 14 16 14 15 11 18 14 13 20 9 11 13 8 14 16 12 13 16 19 11 14 12 12 13 12 11 9 13 15 12 17 12 11 11 7 10 8 22 11 11 10 15 9 11 11 11 9 17 6 14 15 10 11 15 12 14 16 12 14 21 14 17 14 18 14 11 14 10 16 16 10 9 14 15 16 13 12 10 9 9 12 9 10 13 15 14 15 16 16 19 9 14 11 18 17 12 11 12 9 9 9 14 8 18 18 16 15 10 16 9 12 11 16 9 17 11 11 13 9 11 15 7 15 11 13 14 17 11 15 10 16 17 11 17 15 12 10 19 12 20 15 9 14 14 12 13 9 17 11 18 15 14 21 13 13 13 15 14 22 10 17 17 13 20 12 14 14 15 12 11 16 18 11 19 19 11 13 16 13 12 18 12 13 17 14 8 8 9 10 7 7 6 10 11 21 13 5 
BTB PER SET COUNT: 220 26 1774 15 1477 30 718 21 12 17 13 1104 18018 123 15 21 1138 14 24 19 21 16 710 73 13 14 22 26 388 761 22 1453 30 15 17 22 19 22 7 57 12 10 17 371 1079 12 20 9 396 12 19 101 12 20 335 327 20 17 15 8 15 28 16 11 12 351 20 14 24 15 1380 506 26 15 13 14 8 899 11 15 153 8 869 143 16 1886 25 9 12 61 10 15 23 17 11 13 908 249 24 14 31 19 22 141 13 9 18 21 995 2513 9 25 92 18 27 1054 23 10 1876 180 736 11 19 13 11 133 6 14 34 641 19 4568 16 26 20 30 987 18 21 31 6 21 18 20 21 10 23 10 9 240 23 105 93 19 11 30 39 10 26 552 15 34 22 23 1478 19 18 11 16 363 17 17 14 16 39 9 22 20 269 894 20 187 1136 27 464 23 6 20 746 954 15 12 13 16 10 17 9 397 14 14 17 18 986 20 14 14 14 26 11 129 13 13 17 12807 7 181 10 24 2331 30 14 26 10 17 14 21 30 137 422 25 19 11 15 33 25 13 32 71 26 14 19 14 24 623 13 697 11 16 26 12 16 16 26 13 12 14 93 19 13 12 24 12 5 15 22 18 10 22 480 14 16 1001 15 10 10 27 17 15 7 13 21 26 8 19 14 14 16 21 32 12 13 16 10 627 5 17 16 18 17 1000 13 11 352 22 19 29 22 10 27 31 27 39 12 20 1238 1042 25 33 14 37 18 2946 16 31 759 404 28 12 15 9 12 32 33 13 19 22 23 259 9 33 20 2823 10 722 24 17 13 23 16 90 17 25 13 25 11 22 12 21 78 16 15 23 5 25 14 45 13 15 21 12 35 19 18 1264 601 90 23 28 17 1137 583 14 10 10 14 16 1173 28 13 934 16 11 26 28 13 461 24 16 53 11 12 11 12 11 25 17 31 302 23 16 13 10 9 29 22 24 12 2554 17 24 9 25 14 11 19 16 192 21 16 10 43 18 7 31 506 19 15 113 13 14 676 22 32 25 21 9 258 13 13 26 72 372 14 13 10 188 24 18 13 19 24 14 20 697 25 267 437 19 18 21 23 18 20 23 16 24 18 24 12 21 36 28 22 18 11 38 34 19 21 19 10 13 63 16 26 281 522 975 11 14 15 16 15 32 12 17 16 22 16 16 268 197 713 193 31 23 32 24 11 823 12 11 16 11 16 30 888 187 15 68 18 17 150 18 22 22 16 10 11 442 31 22 17 25 24 15 9 19 15 18 15 24 315 21 17 25 12 15 37 20 17 29 18 19 23 26 18 19 16 13 23 21 31 25 794 18 23 24 20 25 30 13 11 594 39 22 16 15 22 23 9 25 11 16 30 9 1264 397 21 19 20 15 18 17 15 26 28 2239 18 22 16 373 42 12 3 21 387 29 28 26 23 11 9 261 21 34 25 33 412 26 17 39 23 86 14 29 10 1018 12 465 12 27 16 1162 19 24 497 24 577 20 7 22 15 15 26 259 21 35 127 410 68 8 20 24 1555 24 13 13 1128 17 19 22 982 23 350 347 28 29 16 31 18 45 269 15 1720 16 18 19 48 23 17 16 33 11 2066 26 39 377 23 15 9 12 1491 11 7 18 18 11 10 11 12 18 19 12 19 136 524 18 18 163 17 389 29 934 7 20 17 14 838 661 134 1455 18 104 13 22 1008 26 24 13 23 18 14 11 131 20 348 15 8 12 1478 15 18 1971 13 16 36 1475 13 11 27 8 6 131 23 26 10 19 12 23 49 27 240 10 12 20 21 567 20 18 985 22 119 11 20 21 14 15 9 10 8 977 27 27 325 33 17 15 21 500 16 13 232 20 501 14 16 10 22 21 14 7542 14 20 20 41 22 26 14 2227 12 815 7 20 14 34 19 18 21 21 25 164 26 22 514 22 14 125 184 8 17 115 17 17 220 27 14 14 15 22 334 986 19 15 16 20 27 33 18 16 997 8 915 9 425 14 16 10 29 14 18 17 16 10 28 7 17 22 12 15 19 14 25 18 156 1298 27 21 19 245 40 231 11 333 12 19 17 11 12 17 15 19 20 300 16 17 13 16 17 20 267 516 27 16 26 1132 52 294 21 35 24 510 19 1003 23 15 10 15 19 26 42 23 422 21 12 2621 10 20 13 36 12 486 12 13 15 12 24 37 9 26 13 71 2045 109 11 16 193 25 21 14 21 24 15 10 35 16 422 22 48 16 27 15 13 15 1748 20 25 19 18 31 16 16 527 724 28 86 12 171 23 15 46 38 389 146 28 20 14 1496 38 567 165 36 18 27 21 19 14 30 21 750 30 22 8 8 12 10 7 11 6 12 13 332 16 5 
To predecode: 0
Predecoding something: 0
Predecode request dropped: 0
sizeofblock_0 0
sizeofblock_1 38566
sizeofblock_2 44201
sizeofblock_3 35963
sizeofblock_4 19786
sizeofblock_5 0
sizeofblock_6 0
sizeofblock_7 0
sizeofblock_8 0
Variant_0 Correct: 1609722 Incorrect: 0 Accuracy: 1
Variant_1 Correct: 2086297 Incorrect: 0 Accuracy: 1
Variant_2 Correct: 3638536 Incorrect: 0 Accuracy: 1
Variant_3 Correct: 0 Incorrect: 0 Accuracy: -nan
