
*** ChampSim Multicore Out-of-Order Simulator ***

Warmup Instructions: 50000000
Simulation Instructions: 50000000
Number of CPUs: 1
LLC sets: 2048
LLC ways: 16
Off-chip DRAM Size: 4096 MB Channels: 1 Width: 64-bit Data Rate: 6400 MT/s
CPU 0 runs ./micro_traces/srv522.trace.gz
.gz
ITLB has LRU replacement policy
DTLB has LRU replacement policy
STLB has LRU replacement policy
FDIP Prefetcher at L1I
L1I has LRU replacement policy
L1D has LRU replacement policy
Initialize SRRIP state for L2C
Initialize DRRIP state for LLC
Heartbeat CPU 0 instructions: 10000000 cycles: 2798101 heartbeat IPC: 3.57385 cumulative IPC: 3.57385 (Simulation time: 0 hr 1 min 34 sec) 
Heartbeat CPU 0 instructions: 20000000 cycles: 5595010 heartbeat IPC: 3.57538 cumulative IPC: 3.57461 (Simulation time: 0 hr 3 min 11 sec) 
Heartbeat CPU 0 instructions: 30000000 cycles: 8391689 heartbeat IPC: 3.57567 cumulative IPC: 3.57497 (Simulation time: 0 hr 4 min 49 sec) 
Heartbeat CPU 0 instructions: 40000002 cycles: 11188393 heartbeat IPC: 3.57564 cumulative IPC: 3.57513 (Simulation time: 0 hr 6 min 25 sec) 
Heartbeat CPU 0 instructions: 50000000 cycles: 13984898 heartbeat IPC: 3.57589 cumulative IPC: 3.57529 (Simulation time: 0 hr 7 min 57 sec) 

Warmup complete CPU 0 instructions: 50000004 cycles: 13984899 (Simulation time: 0 hr 7 min 57 sec) 

Cycle: 20000000 FTQ IN: 56274449 FTQ occupancy: 17.6851 DECODE IN: 56274422 DECODE occupancy: 45.0762 ROB IN: 56274422 ROB occupancy: 270.625 ROB OUT: 56274417
Heartbeat CPU 0 instructions: 60000002 cycles: 23567965 heartbeat IPC: 1.04351 cumulative IPC: 1.04351 (Simulation time: 0 hr 9 min 9 sec) 
Cycle: 30000000 FTQ IN: 10418396 FTQ occupancy: 5.28075 DECODE IN: 10418326 DECODE occupancy: 10.0692 ROB IN: 10418266 ROB occupancy: 90.4038 ROB OUT: 10418201
Heartbeat CPU 0 instructions: 70000003 cycles: 33260992 heartbeat IPC: 1.03167 cumulative IPC: 1.03755 (Simulation time: 0 hr 10 min 28 sec) 
Cycle: 40000000 FTQ IN: 10344628 FTQ occupancy: 5.63672 DECODE IN: 10344708 DECODE occupancy: 10.8701 ROB IN: 10344768 ROB occupancy: 92.1274 ROB OUT: 10344760
Heartbeat CPU 0 instructions: 80000002 cycles: 42849689 heartbeat IPC: 1.04289 cumulative IPC: 1.03933 (Simulation time: 0 hr 11 min 46 sec) 
Cycle: 50000000 FTQ IN: 10402959 FTQ occupancy: 5.40303 DECODE IN: 10402954 DECODE occupancy: 10.3905 ROB IN: 10402954 ROB occupancy: 89.6459 ROB OUT: 10403012
Heartbeat CPU 0 instructions: 90000003 cycles: 52435418 heartbeat IPC: 1.04322 cumulative IPC: 1.0403 (Simulation time: 0 hr 13 min 1 sec) 
Cycle: 60000000 FTQ IN: 10375707 FTQ occupancy: 5.65345 DECODE IN: 10375664 DECODE occupancy: 10.9372 ROB IN: 10375664 ROB occupancy: 92.0394 ROB OUT: 10375647
Heartbeat CPU 0 instructions: 100000001 cycles: 62085193 heartbeat IPC: 1.03629 cumulative IPC: 1.03949 (Simulation time: 0 hr 14 min 19 sec) 
Finished CPU 0 instructions: 50000000 cycles: 48100310 cumulative IPC: 1.03949 (Simulation time: 0 hr 14 min 19 sec) 

ChampSim completed all CPUs

Region of Interest Statistics

CPU 0 cumulative IPC: 1.03949 instructions: 50000000 cycles: 48100310
 Fetch stage stalled: 74.432  Sim cycles: 48100310 fetch stall cycle: 35802019
 Empty decode stage: 80.1734  Sim cycles: 48100310 fetch stall cycle: 38563636
ITLB TOTAL     ACCESS:    6059111  HIT:    5563201  MISS:     495910  HIT %:    91.8155  MISS %:    8.18453   MPKI: 9.9182
ITLB LOAD TRANSLATION INSTRUCTION	ACCESS:    5974927  HIT:    5479017  MISS:     495910  HIT %:    91.7001  MISS %:    8.29985  MPKI: 9.9182
ITLB TRANSLATION FROM L1D PREFETCHER INSTRUCTION	ACCESS:      84184  HIT:      84184  MISS:          0  HIT %:        100  MISS %:          0  MPKI: 0

ITLB AVERAGE MISS LATENCY: 9.05354 cycles
ITLB RQ	ACCESS:    7710709	FORWARD:          0	MERGED:    1381135	TO_CACHE:    6329574

DTLB TOTAL     ACCESS:    9630080  HIT:    9151310  MISS:     478770  HIT %:    95.0284  MISS %:    4.97161   MPKI: 9.5754
DTLB LOAD TRANSLATION DATA	ACCESS:    9630080  HIT:    9151310  MISS:     478770  HIT %:    95.0284  MISS %:    4.97161  MPKI: 9.5754

DTLB AVERAGE MISS LATENCY: 9.304 cycles
DTLB RQ	ACCESS:   13869901	FORWARD:          0	MERGED:    4207694	TO_CACHE:    9662207

STLB TOTAL     ACCESS:    1221017  HIT:    1218763  MISS:       2254  HIT %:    99.8154  MISS %:     0.1846   MPKI: 0.04508
STLB LOAD TRANSLATION INSTRUCTION	ACCESS:     495910  HIT:     495521  MISS:        389  HIT %:    99.9216  MISS %:  0.0784417  MPKI: 0.00778
STLB LOAD TRANSLATION DATA	ACCESS:     478560  HIT:     476727  MISS:       1833  HIT %:     99.617  MISS %:   0.383024  MPKI: 0.03666
STLB TRANSLATION FROM L1D PREFETCHER DATA	ACCESS:     246547  HIT:     246515  MISS:         32  HIT %:     99.987  MISS %:  0.0129793  MPKI: 0.00064

STLB AVERAGE MISS LATENCY: 65.2147 cycles
STLB RQ	ACCESS:    1341654	FORWARD:          0	MERGED:     120601	TO_CACHE:    1221053

STLB Hit, L1D data hit: 0
STLB Hit, L2C data hit: 0
STLB Hit, LLC data hit: 0
STLB Hit, LLC data miss: 0
STLB STLB hints to L2: 0
L1D TOTAL     ACCESS:   13632151  HIT:   12519721  MISS:    1112430  HIT %:    91.8397  MISS %:    8.16034   MPKI: 22.2486
L1D LOAD DATA	ACCESS:    7042332  HIT:    6309836  MISS:     732496  HIT %:    89.5987  MISS %:    10.4013  MPKI: 14.6499
L1D RFO DATA	ACCESS:    6261197  HIT:    5974933  MISS:     286264  HIT %:     95.428  MISS %:    4.57203  MPKI: 5.72528
L1D PREFETCH DATA	ACCESS:     328622  HIT:     234952  MISS:      93670  HIT %:    71.4961  MISS %:    28.5039  MPKI: 1.8734

L1D PREFETCH  REQUESTED:     734247  ISSUED:     734247  USEFUL:      32588  USELESS:      68700
L1D USEFUL LOAD PREFETCHES:      32588 PREFETCH ISSUED TO LOWER LEVEL:     101370  ACCURACY: 32.1476
 TIMELY PREFETCHES:      32588 LATE PREFETCHES: 7627 DROPPED PREFETCHES: 13
L1D AVERAGE MISS LATENCY: 268206 cycles
L1D RQ	ACCESS:   11060564	FORWARD:          0	MERGED:    3816710	TO_CACHE:    7078333
L1D WQ	ACCESS:    6949977	FORWARD:     165820	MERGED:     158409	TO_CACHE:    6791568
L1D PQ	ACCESS:     367273	FORWARD:          0	MERGED:          0	TO_CACHE:     366974

L1D UNIQUE REGIONS ACCESSED: 0
L1D REGIONS CONFLICTS: 0
L1D Cross Page Prefetch Requests: 5920
L1D Same Page Prefetch Requests: 746401
L1D ROI Sum of L1D PQ occupancy: 4660231
L1D PREFETCHES PUSHED FROM L2C: 0
L1I TOTAL     ACCESS:    7147070  HIT:    4376054  MISS:    2771016  HIT %:    61.2286  MISS %:    38.7714   MPKI: 55.4203
L1I LOAD INSTRUCTION	ACCESS:    6773131  HIT:    4002115  MISS:    2771016  HIT %:    59.0881  MISS %:    40.9119  MPKI: 55.4203
L1I PREFETCH INSTRUCTION	ACCESS:     373939  HIT:     373939  MISS:          0  HIT %:        100  MISS %:          0  MPKI: 0

L1I PREFETCH  REQUESTED:     930837  ISSUED:     930837  USEFUL:          0  USELESS:          0
L1I USEFUL LOAD PREFETCHES:          0 PREFETCH ISSUED TO LOWER LEVEL:          0  ACCURACY: -nan
 TIMELY PREFETCHES:          0 LATE PREFETCHES: 0 DROPPED PREFETCHES: 0
L1I AVERAGE MISS LATENCY: 17.8265 cycles
L1I RQ	ACCESS:    9431949	FORWARD:          0	MERGED:    2384840	TO_CACHE:    7047109
L1I PQ	ACCESS:     930837	FORWARD:          0	MERGED:     267237	TO_CACHE:     663600

L1BTB TOTAL     ACCESS:    5670989  HIT:    2036477  MISS:    3634512  HIT %:    35.9104  MISS %:    64.0896   MPKI: 72.6902
L1BTB BRANCH_DIRECT_JUMP	ACCESS:     548631 HIT:     144295 MISS:     404336 AVERAGE STALL: 32.7789 AVERAGE FETCH STALL: 20.3703 AVERAGE FETCH QUEUE STALL: 5.41096 AVERAGE DECODE STALL: 6.12313 AVERAGE EXECUTE STALL: 1.11995e+15
L1BTB BRANCH_INDIRECT	ACCESS:     182808 HIT:      65971 MISS:     116837 AVERAGE STALL: 60.2775 AVERAGE FETCH STALL: 11.934 AVERAGE FETCH QUEUE STALL: 5.53265 AVERAGE DECODE STALL: 6.27608 AVERAGE EXECUTE STALL: 35.5716
L1BTB BRANCH_CONDITIONAL	ACCESS:    2704625 HIT:    1409799 MISS:    1294826 AVERAGE STALL: 35.0167 AVERAGE FETCH STALL: 22.5271 AVERAGE FETCH QUEUE STALL: 5.60434 AVERAGE DECODE STALL: 6.11694 AVERAGE EXECUTE STALL: 6.60511e+14
L1BTB BRANCH_DIRECT_CALL	ACCESS:     945720 HIT:     104962 MISS:     840758 AVERAGE STALL: 33.3037 AVERAGE FETCH STALL: 21.7841 AVERAGE FETCH QUEUE STALL: 5.0212 AVERAGE DECODE STALL: 5.72725 AVERAGE EXECUTE STALL: 9.09648e+14
L1BTB BRANCH_INDIRECT_CALL	ACCESS:     171742 HIT:      21244 MISS:     150498 AVERAGE STALL: 76.8051 AVERAGE FETCH STALL: 14.6394 AVERAGE FETCH QUEUE STALL: 2.56312 AVERAGE DECODE STALL: 5.62987 AVERAGE EXECUTE STALL: 53.475
L1BTB BRANCH_RETURN	ACCESS:    1117463 HIT:     290206 MISS:     827257 AVERAGE STALL: 35.2025 AVERAGE FETCH STALL: 16.8738 AVERAGE FETCH QUEUE STALL: 2.84651 AVERAGE DECODE STALL: 4.88512 AVERAGE EXECUTE STALL: 3.54193e+14
L1BTB BRANCH_OTHER ACCESS:          0 HIT:          0 MISS:          0 AVERAGE STALL: -nan AVERAGE FETCH STALL: -nan AVERAGE FETCH QUEUE STALL: -nan AVERAGE DECODE STALL: -nan AVERAGE EXECUTE STALL: -nan
L1BTB TOTAL ROB OCCUPANCY AT BTB MISS: 2.15367

L2BTB TOTAL     ACCESS:    3609050  HIT:    3483309  MISS:     125741  HIT %:     96.516  MISS %:    3.48405   MPKI: 2.51482
L2BTB BRANCH_DIRECT_JUMP	ACCESS:     400160 HIT:     387851 MISS:      12309 AVERAGE STALL: 32.7789 AVERAGE FETCH STALL: 20.3703 AVERAGE FETCH QUEUE STALL: 5.41096 AVERAGE DECODE STALL: 6.12313 AVERAGE EXECUTE STALL: 1.11995e+15
L2BTB BRANCH_INDIRECT	ACCESS:     106556 HIT:     103406 MISS:       3150 AVERAGE STALL: 60.2775 AVERAGE FETCH STALL: 11.934 AVERAGE FETCH QUEUE STALL: 5.53265 AVERAGE DECODE STALL: 6.27608 AVERAGE EXECUTE STALL: 35.5716
L2BTB BRANCH_CONDITIONAL	ACCESS:    1294824 HIT:    1266489 MISS:      28335 AVERAGE STALL: 35.0167 AVERAGE FETCH STALL: 22.5271 AVERAGE FETCH QUEUE STALL: 5.60434 AVERAGE DECODE STALL: 6.11694 AVERAGE EXECUTE STALL: 6.60511e+14
L2BTB BRANCH_DIRECT_CALL	ACCESS:     840757 HIT:     820454 MISS:      20303 AVERAGE STALL: 33.3037 AVERAGE FETCH STALL: 21.7841 AVERAGE FETCH QUEUE STALL: 5.0212 AVERAGE DECODE STALL: 5.72725 AVERAGE EXECUTE STALL: 9.09648e+14
L2BTB BRANCH_INDIRECT_CALL	ACCESS:     140940 HIT:     129956 MISS:      10984 AVERAGE STALL: 76.8051 AVERAGE FETCH STALL: 14.6394 AVERAGE FETCH QUEUE STALL: 2.56312 AVERAGE DECODE STALL: 5.62987 AVERAGE EXECUTE STALL: 53.475
L2BTB BRANCH_RETURN	ACCESS:     825813 HIT:     775153 MISS:      50660 AVERAGE STALL: 35.2025 AVERAGE FETCH STALL: 16.8738 AVERAGE FETCH QUEUE STALL: 2.84651 AVERAGE DECODE STALL: 4.88512 AVERAGE EXECUTE STALL: 3.54193e+14
L2BTB BRANCH_OTHER ACCESS:          0 HIT:          0 MISS:          0 AVERAGE STALL: -nan AVERAGE FETCH STALL: -nan AVERAGE FETCH QUEUE STALL: -nan AVERAGE DECODE STALL: -nan AVERAGE EXECUTE STALL: -nan
L2BTB TOTAL ROB OCCUPANCY AT BTB MISS: 62.2513

L2C TOTAL     ACCESS:    4501955  HIT:    3918117  MISS:     583838  HIT %:    87.0315  MISS %:    12.9685   MPKI: 11.6768
L2C LOAD INSTRUCTION	ACCESS:    2771016  HIT:    2439420  MISS:     331596  HIT %:    88.0334  MISS %:    11.9666  MPKI: 6.63192
L2C LOAD TRANSLATION INSTRUCTION	ACCESS:        427  HIT:        135  MISS:        292  HIT %:    31.6159  MISS %:    68.3841  MPKI: 0.00584
L2C LOAD DATA	ACCESS:     724857  HIT:     636534  MISS:      88323  HIT %:    87.8151  MISS %:    12.1849  MPKI: 1.76646
L2C RFO DATA	ACCESS:     286161  HIT:     224599  MISS:      61562  HIT %:    78.4869  MISS %:    21.5131  MPKI: 1.23124
L2C PREFETCH DATA	ACCESS:     195400  HIT:     112642  MISS:      82758  HIT %:    57.6469  MISS %:    42.3531  MPKI: 1.65516
L2C WRITEBACK DATA	ACCESS:     522122  HIT:     504102  MISS:      18020  HIT %:    96.5487  MISS %:     3.4513  MPKI: 0.3604
L2C LOAD TRANSLATION DATA	ACCESS:       1918  HIT:        642  MISS:       1276  HIT %:    33.4724  MISS %:    66.5276  MPKI: 0.02552
L2C TRANSLATION FROM L1D PREFETCHER DATA	ACCESS:         54  HIT:         43  MISS:         11  HIT %:    79.6296  MISS %:    20.3704  MPKI: 0.00022

L2C PREFETCH  REQUESTED:     102453  ISSUED:     102453  USEFUL:      10688  USELESS:      72558
L2C USEFUL LOAD PREFETCHES:      10688 PREFETCH ISSUED TO LOWER LEVEL:      83322  ACCURACY: 12.8273
 TIMELY PREFETCHES:      10688 LATE PREFETCHES: 564 DROPPED PREFETCHES: 0
L2C AVERAGE MISS LATENCY: 36.5282 cycles
L2C RQ	ACCESS:    3784477	FORWARD:          0	MERGED:          0	TO_CACHE:    3784435
L2C WQ	ACCESS:     522122	FORWARD:         42	MERGED:          0	TO_CACHE:     522122
L2C PQ	ACCESS:     203823	FORWARD:          0	MERGED:       4297	TO_CACHE:     199526

L2C Dense regions hint from L2: 0
PSCL5 TOTAL     ACCESS:       4536  HIT:       2268  MISS:       2268  HIT %:         50  MISS %:         50   MPKI: 0.04536
PSCL5 LOAD TRANSLATION INSTRUCTION	ACCESS:       4428  HIT:       2214  MISS:       2214  HIT %:         50  MISS %:         50  MPKI: 0.04428
PSCL5 TRANSLATION FROM L1D PREFETCHER INSTRUCTION	ACCESS:        108  HIT:         54  MISS:         54  HIT %:         50  MISS %:         50  MPKI: 0.00108


PSCL4 TOTAL     ACCESS:       3997  HIT:       1993  MISS:       2004  HIT %:    49.8624  MISS %:    50.1376   MPKI: 0.04008
PSCL4 LOAD TRANSLATION INSTRUCTION	ACCESS:       2239  HIT:       1940  MISS:        299  HIT %:    86.6458  MISS %:    13.3542  MPKI: 0.00598
PSCL4 TRANSLATION FROM L1D PREFETCHER INSTRUCTION	ACCESS:         58  HIT:         53  MISS:          5  HIT %:    91.3793  MISS %:    8.62069  MPKI: 0.0001
PSCL4 LOAD TRANSLATION DATA	ACCESS:       1652  HIT:          0  MISS:       1652  HIT %:          0  MISS %:        100  MPKI: 0.03304
PSCL4 TRANSLATION FROM L1D PREFETCHER DATA	ACCESS:         48  HIT:          0  MISS:         48  HIT %:          0  MISS %:        100  MPKI: 0.00096


PSCL3 TOTAL     ACCESS:       4091  HIT:       2040  MISS:       2051  HIT %:    49.8656  MISS %:    50.1344   MPKI: 0.04102
PSCL3 LOAD TRANSLATION INSTRUCTION	ACCESS:       2286  HIT:       1987  MISS:        299  HIT %:    86.9204  MISS %:    13.0796  MPKI: 0.00598
PSCL3 TRANSLATION FROM L1D PREFETCHER INSTRUCTION	ACCESS:         58  HIT:         53  MISS:          5  HIT %:    91.3793  MISS %:    8.62069  MPKI: 0.0001
PSCL3 LOAD TRANSLATION DATA	ACCESS:       1699  HIT:          0  MISS:       1699  HIT %:          0  MISS %:        100  MPKI: 0.03398
PSCL3 TRANSLATION FROM L1D PREFETCHER DATA	ACCESS:         48  HIT:          0  MISS:         48  HIT %:          0  MISS %:        100  MPKI: 0.00096


PSCL2 TOTAL     ACCESS:       4425  HIT:       2157  MISS:       2268  HIT %:    48.7458  MISS %:    51.2542   MPKI: 0.04536
PSCL2 LOAD TRANSLATION INSTRUCTION	ACCESS:       2491  HIT:       2103  MISS:        388  HIT %:    84.4239  MISS %:    15.5761  MPKI: 0.00776
PSCL2 TRANSLATION FROM L1D PREFETCHER INSTRUCTION	ACCESS:         54  HIT:         54  MISS:          0  HIT %:        100  MISS %:          0  MPKI: 0
PSCL2 LOAD TRANSLATION DATA	ACCESS:       1826  HIT:          0  MISS:       1826  HIT %:          0  MISS %:        100  MPKI: 0.03652
PSCL2 TRANSLATION FROM L1D PREFETCHER DATA	ACCESS:         54  HIT:          0  MISS:         54  HIT %:          0  MISS %:        100  MPKI: 0.00108


LLC TOTAL     ACCESS:     655726  HIT:     627943  MISS:      27783  HIT %:     95.763  MISS %:    4.23698   MPKI: 0.55566
LLC LOAD INSTRUCTION	ACCESS:     331596  HIT:     330740  MISS:        856  HIT %:    99.7419  MISS %:   0.258145  MPKI: 0.01712
LLC LOAD TRANSLATION INSTRUCTION	ACCESS:        292  HIT:        269  MISS:         23  HIT %:    92.1233  MISS %:    7.87671  MPKI: 0.00046
LLC LOAD DATA	ACCESS:      87796  HIT:      84388  MISS:       3408  HIT %:    96.1183  MISS %:    3.88173  MPKI: 0.06816
LLC RFO DATA	ACCESS:      61522  HIT:      48193  MISS:      13329  HIT %:    78.3346  MISS %:    21.6654  MPKI: 0.26658
LLC PREFETCH DATA	ACCESS:      83322  HIT:      73573  MISS:       9749  HIT %:    88.2996  MISS %:    11.7004  MPKI: 0.19498
LLC WRITEBACK DATA	ACCESS:      89911  HIT:      89565  MISS:        346  HIT %:    99.6152  MISS %:   0.384825  MPKI: 0.00692
LLC LOAD TRANSLATION DATA	ACCESS:       1276  HIT:       1204  MISS:         72  HIT %:    94.3574  MISS %:    5.64263  MPKI: 0.00144
LLC TRANSLATION FROM L1D PREFETCHER DATA	ACCESS:         11  HIT:         11  MISS:          0  HIT %:        100  MISS %:          0  MPKI: 0

LLC AVERAGE MISS LATENCY: 155.221 cycles
LLC RQ	ACCESS:     482497	FORWARD:          0	MERGED:          0	TO_CACHE:     482494
LLC WQ	ACCESS:      89911	FORWARD:          3	MERGED:          0	TO_CACHE:      89911
LLC PQ	ACCESS:      83322	FORWARD:          0	MERGED:          0	TO_CACHE:      83322

LLC Dense regions hint to LLC: 0

RAW hits: 1573658
Loads Generated: 12634222
Loads sent to L1D: 11060564
Stores Generated: 6949969
Stores sent to L1D: 6949977
Major fault: 0 Minor fault: 2589
Allocated PAGES: 2589

stream: 
stream:times selected: 1178234
stream:pref_filled: 120151
stream:pref_useful: 23231
stream:pref_late: 6645
stream:misses: 6841
stream:misses_by_poll: 0

CS: 
CS:times selected: 176702
CS:pref_filled: 59415
CS:pref_useful: 36427
CS:pref_late: 6299
CS:misses: 15327
CS:misses_by_poll: 3

CPLX: 
CPLX:times selected: 1000433
CPLX:pref_filled: 20356
CPLX:pref_useful: 4665
CPLX:pref_late: 3099
CPLX:misses: 91779
CPLX:misses_by_poll: 0

NL_L1: 
NL:times selected: 19491
NL:pref_filled: 607
NL:pref_useful: 274
NL:pref_late: 174
NL:misses: 1050
NL:misses_by_poll: 0

total selections: 2374860
total_filled: 93670
total_useful: 32588
total_late: 17708
total_polluted: 3
total_misses_after_warmup: 768503
conflicts: 5757423

test: 114539

DRAM Statistics
 CHANNEL 0
 RQ ROW_BUFFER_HIT:      10293  ROW_BUFFER_MISS:      17135
 DBUS_CONGESTED:          6
 WQ ROW_BUFFER_HIT:       1333  ROW_BUFFER_MISS:      11749  FULL:          0

 AVG_CONGESTED_CYCLE: 4

CPU 0 Branch Prediction Accuracy: 99.8133% MPKI: 0.34154 Average ROB Occupancy at Mispredict: 101.212
Branch types
NOT_BRANCH: 40853110 81.7062%
BRANCH_DIRECT_JUMP: 548631 1.09726%
BRANCH_INDIRECT: 182808 0.365616%
BRANCH_CONDITIONAL: 6180084 12.3602%
BRANCH_DIRECT_CALL: 945720 1.89144%
BRANCH_INDIRECT_CALL: 171742 0.343484%
BRANCH_RETURN: 1117463 2.23493%
BRANCH_OTHER: 0 0%

DRAM PAGES: 1048576
Allocated PAGES: 2589
Average_ROB_Occupancy: 91.8544
Average_Decode_Occupancy: 10.54
Average_FTQ_Occupancy: 5.47689
Indirect max targets: 14 Average targets: 1.15254
Branch_type:  BRANCH_DIRECT_JUMP:  Count Percentage: 3.80171 5.84207 4.26478 14.1927 1.69945 6.57649 1.3149 62.3079 
Branch_type:  BRANCH_INDIRECT:  Count Percentage: 14.4151 0.811767 12.2283 23.3133 1.33779 14.5439 1.06656 32.2833 
Branch_type:  BRANCH_CONDITIONAL:  Count Percentage: 21.7711 2.62914 2.44199 8.15022 1.47802 5.01979 0.731697 57.7781 
Branch_type:  BRANCH_DIRECT_CALL:  Count Percentage: 0.260878 1.77746 1.43673 4.6213 2.60799 3.19276 0.771945 85.3309 
Branch_type:  BRANCH_INDIRECT_CALL:  Count Percentage: 9.51736 0.575812 2.98246 4.83513 0 4.06302 0 78.0262 
Branch_type:  BRANCH_RETURN:  Count Percentage: 3.64708 1.30739 3.52653 8.73831 2.84406 5.74931 1.27977 72.9076 
Branch_type:  BRANCH_DIRECT_JUMP:  Total Count: 41640 63988 46712 155452 18614 72032 14402 682456 
Branch_type:  BRANCH_INDIRECT:  Total Count: 52616 2963 44634 85095 4883 53086 3893 117836 
Branch_type:  BRANCH_CONDITIONAL:  Total Count: 2688593 324683 301571 1006501 182526 619913 90360 7135231 
Branch_type:  BRANCH_DIRECT_CALL:  Total Count: 4930 33590 27151 87332 49285 60336 14588 1612561 
Branch_type:  BRANCH_INDIRECT_CALL:  Total Count: 32677 1977 10240 16601 0 13950 0 267896 
Branch_type:  BRANCH_RETURN:  Total Count: 81473 29206 78780 195207 63534 128435 28589 1628698 
Number of unique branch instructions: 10211
Upper 32 bits: 
aaaa
ffff
ffff0000
Unique upper 32 bits: 3
Unique upper 36 bits: 3
Unique upper 40 bits: 5
Unique upper 44 bits: 32
Unique upper 48 bits: 154
Offset_3 4217
Offset_4 260
Offset_5 466
Offset_6 527
Offset_7 613
Offset_8 535
Offset_9 488
Offset_10 397
Offset_11 331
Offset_12 295
Offset_13 215
Offset_14 234
Offset_15 195
Offset_16 228
Offset_17 156
Offset_18 126
Offset_19 247
Offset_20 144
Offset_21 236
Offset_22 403
Offset_23 245
Offset_24 335
Offset_25 88
Offset_47 82
Offset_64 16
decode_dispatch_called: 20698448 43.0318
Dispatch_width: 0 10444777 50.4616 21.7146
Dispatch_width: 1 602769 2.91215 1.25315
Dispatch_width: 2 807388 3.90072 1.67855
Dispatch_width: 3 560304 2.70699 1.16487
Dispatch_width: 4 1586696 7.66577 3.29872
Dispatch_width: 5 424621 2.05146 0.882782
Dispatch_width: 6 6271893 30.3013 13.0392
Empty_decode_cycles: 27401862 56.9682
ROB_full_cycles: 1581015 3.28691
Starvation_cycles_per_kilo_instr: 402.474
Starvation_cycles_per_kilo_instr_3: 382.361
Starvation_cycles_per_kilo_instr_0: 362.656
Branch_type_1  (3,1)  (4,9)  (5,37)  (6,72)  (7,118)  (8,138)  (9,127)  (10,102)  (11,74)  (12,51)  (13,5)  (14,2)  (15,3)  (16,4)  (18,1)  (19,4)  (20,2)  (21,1)  (22,3)  (23,2)  (24,10)  (25,12) 
Branch_type_2  (3,1)  (5,1)  (8,3)  (9,3)  (12,1)  (13,1)  (14,1)  (16,3)  (17,2)  (20,2)  (21,2)  (23,5)  (24,1)  (47,37) 
Branch_type_3  (3,4215)  (4,251)  (5,424)  (6,438)  (7,461)  (8,328)  (9,269)  (10,162)  (11,136)  (12,58)  (13,4)  (24,2)  (64,9) 
Branch_type_4  (6,4)  (7,8)  (8,30)  (9,54)  (10,63)  (11,62)  (12,104)  (13,94)  (14,103)  (15,93)  (16,102)  (17,72)  (18,57)  (19,121)  (20,74)  (21,124)  (22,215)  (23,138)  (24,193)  (25,72)  (64,3) 
Branch_type_5  (8,2)  (9,1)  (10,3)  (11,5)  (12,3)  (13,14)  (14,16)  (15,11)  (16,20)  (17,11)  (18,16)  (19,12)  (20,11)  (21,13)  (22,42)  (23,26)  (24,37) 
Branch_type_6  (5,4)  (6,13)  (7,26)  (8,34)  (9,34)  (10,67)  (11,54)  (12,78)  (13,97)  (14,112)  (15,88)  (16,99)  (17,71)  (18,52)  (19,110)  (20,55)  (21,96)  (22,143)  (23,74)  (24,92)  (25,4)  (47,45)  (64,4) 
aaaaab1fc620: 2ac9e77e 2aca717c 2aca8eff 2acaf6bc 2acaf9aa 2acaf9f1 2acb1abc 2acb1b7f 2acd4e22 2acdb712 2acf5f9e 2ad0ef44 2ad3f15c 2ad414e6 2ad60e42 2ad8609c 2ad99830 2ada35cc 2ada4676 2ada6612 2adf183e 2adf30e5 2adf5602 2adf785c 2ae11572 2aeb2dcf 2aee101b 2aee1ae1 2b156a8c 2b156b61 2b156bea 2b167f35 2b177656 2b17feec 2b1a3e5a 
aaaaac68f310: 2ac9ec8c 2ac9fb44 2ac9fbd2 2aca59ab 2acac04c 2acaf6e0 2acaf6ec 2acaf6f9 2acaf700 2acaf708 2acf2d90 2ad3cfbd 2ad3cfc4 2ad3d000 2ad3f35f 2ad4955d 2ad49571 2ad4f3f2 2ad4f400 2ad5f240 2ad5f37c 2ad5f86a 2ad5f86f 2ad5f880 2ad5fc0d 2ad5fc14 2ad5fc21 2ad5fe1b 2ad873bb 2ad873e3 2ad8a6b2 2ad9086e 2ad93096 2ad9bbb2 2ada152c 2ada1554 2ada3332 2ada5522 2adf3130 2adf313c 2adf3a3f 2adf3bd9 2adf5788 2adf7a8d 2ae07f6b 2ae0857a 2ae0857e 2ae08630 2ae08634 2ae08637 2ae08642 2ae0866f 2ae086e4 2ae086ec 2ae08717 2ae0871b 2aee0170 2aee1d38 2aee75f4 2aee7662 2aee85ca 2aee85e4 2aee8eef 2af70b84 2af74e8f 2b17d843 
aaaaac690ef0: 2aca598b 2acb111b 2acb175f 2acb1772 2acbfaf4 2acbfb00 2acf374f 2acf6d43 2acfa5c8 2ad3baf1 2ad3d4ac 2ad3d4b8 2ad3f1cf 2ad486b2 2ad5a59b 2ad5fc64 2ad5fcf9 2ad6121c 2ad906e9 2ad907bf 2ad9bada 2ada16ce 2ada1ad5 2ada43df 2ada64c0 2ada72ee 2adeb71a 2adf3bcb 2adf7a38 2adf7c6a 2adf8872 2adf8880 2adf9959 2adf9abe 2ae07f78 2ae08503 2ae08754 2ae12e80 2aea3bea 2aecb509 2aee00b0 2aee2bdd 2aee5467 2aee5601 2aee8f20 2af703fd 2af7048b 2af74e74 
Unique trigger count: 
1 9705
2 555
3 93
4 31
5 8
6 9
7 8
9 3
10 2
11 1
12 1
13 3
14 1
16 3
17 2
19 3
35 1
48 1
66 1
BTB PER SET UNIQUE ADDR: 10 18 9 8 5 13 12 17 16 7 12 7 19 15 9 14 15 11 13 14 11 16 12 16 12 13 7 11 11 13 18 14 14 9 17 17 16 17 12 11 15 12 8 16 18 10 11 15 21 10 14 8 18 8 11 15 14 12 18 12 13 23 12 15 13 21 12 17 17 12 7 8 10 7 9 20 13 19 13 11 13 12 11 11 16 12 11 13 17 16 19 19 16 11 12 13 19 12 12 12 15 11 17 14 13 13 11 15 15 13 17 8 9 19 13 19 7 14 14 9 14 14 11 8 11 9 9 10 20 16 14 8 13 9 14 12 13 8 13 13 19 10 11 9 14 15 10 16 23 9 14 22 16 18 12 14 11 19 15 16 15 12 24 14 19 11 11 10 21 17 14 9 16 16 10 10 13 14 12 12 9 10 13 13 16 19 12 14 9 20 9 13 13 17 10 15 17 8 17 14 10 12 14 10 18 11 6 15 10 5 8 10 13 10 10 15 7 20 15 16 13 5 12 13 13 11 19 11 6 17 19 18 8 6 12 11 17 12 10 7 10 9 11 12 19 21 11 9 9 11 15 17 13 12 19 18 10 11 19 12 8 10 14 9 15 25 9 7 15 10 11 12 15 18 20 15 9 13 7 17 12 10 17 17 21 13 12 13 20 8 15 10 12 18 13 13 12 16 9 11 12 10 8 11 9 10 11 14 17 13 16 7 13 7 13 7 16 20 14 7 13 14 15 13 9 9 11 13 8 6 14 8 10 15 19 10 12 15 15 8 12 14 7 19 14 10 11 14 17 11 8 14 24 11 14 15 17 10 11 11 12 21 14 10 12 13 13 7 9 11 15 10 17 11 14 8 16 15 14 14 17 15 14 17 16 16 14 9 17 13 13 11 16 10 13 15 11 14 11 14 10 7 8 13 11 10 14 10 14 10 14 10 17 14 9 10 16 15 7 10 13 15 10 16 21 17 6 11 12 16 7 8 20 12 17 17 13 9 16 6 17 14 11 9 15 19 10 15 11 11 16 8 8 11 19 11 13 11 13 11 8 13 18 17 14 10 16 11 18 14 6 12 14 14 9 7 18 11 10 10 12 13 8 15 10 18 13 9 11 7 17 9 12 15 8 15 10 12 13 9 20 10 14 8 11 9 8 10 13 12 21 8 
BTB PER SET COUNT: 11 30 11 9 6 14 15 528 17 1471 14 422 51 16 9 17 17 12 13 1570 12 21 15 602 12 14 46 12 1474 13 1821 505 15 9 24 49 2942 2638 13 13 18 34 11 18 3886 11 12 15 5194 11 14 8 3213 9 13 17 16 14 23 109 15 5989 14 15 15 4263 19 20 4710 45 20 9 1474 7 11 5407 512 57 14 91 14 982 980 11 516 14 11 14 32 21 3941 546 18 2982 15 23 33 15 21 13 15 12 26 17 1171 18 11 17 16 787 501 10 1473 69 14 2796 11 14 511 1471 24 21 14 8 600 9 11 11 4902 22 512 8 107 17 16 15 512 9 14 36 59 13 11 29 15 22 1494 18 14647 11 14 7268 16 4973 2948 1036 11 174 602 16 62 15 7244 1002 528 1947 584 18 7510 605 16 997 14648 1113 10 1955 1477 610 980 1001 15 15 14 15 17 23 13 59 9 464 11 51 154 1055 11 1483 983 1470 247 16 13 13 1002 11 1499 760 6 2479 12 5 9 11 13 11 13 669 7 5594 15 17 978 5 12 13 14 12 788 1988 43 1508 267 4161 8 10 596 13 25 924 49 8 10 541 12 12 1980 4635 13 974 9 16 980 25 16 12 56 21 12 11 82 12 10 76 14 1472 1492 9618 978 8 16 11 54 19 19 78 71 22 484 14 10 95 48 10 246 48 5742 1002 14 14 155 10 237 11 2489 1576 16 39 15 76 9 11 14 584 8 54 12 13 13 15 21 14 16 371 13 7 981 10 20 5942 18 8 13 24 59 15 84 10 12 15 232 8 1062 1472 12 23 1009 12 1003 18 15 8 14 17 8 1552 1003 10 17 20 19 12 9 37 7215 1944 22 934 35 16 13 49 20 529 18 17 13 16 15 8 13 12 26 10 22 14 14 8 18 17 14 15 18 15 14 150 19 20 15 10 2249 16 145 73 21 11 50 21 1474 16 104 16 16 7 9 14 12 932 2938 11 18 2426 14 17 657 16 977 10 141 15 8 2041 14 498 16 22 6487 21 7 84 12 20 140 973 3019 50 36 259 13 10 17 6 344 16 12 11 19 3789 22 982 11 598 17 8 10 13 50 11 13 15 508 12 918 497 41 20 991 10 16 11 60 15 506 13 45 510 144 7 20516 11 41 12 14 13 8 511 10 420 261 425 11 11 95 9 18 16 8 63 48 12 1955 9 8011 504 1171 8 13 12 8 11 1492 13 847 8 
