
*** ChampSim Multicore Out-of-Order Simulator ***

Warmup Instructions: 50000000
Simulation Instructions: 50000000
Number of CPUs: 1
LLC sets: 2048
LLC ways: 16
Off-chip DRAM Size: 4096 MB Channels: 1 Width: 64-bit Data Rate: 6400 MT/s
CPU 0 runs ./micro_traces/srv531.trace.gz
.gz
ITLB has LRU replacement policy
DTLB has LRU replacement policy
STLB has LRU replacement policy
FDIP Prefetcher at L1I
L1I has LRU replacement policy
L1D has LRU replacement policy
Initialize SRRIP state for L2C
Initialize DRRIP state for LLC
Heartbeat_Variant_0 : 1325 0.323486 per_variant_size: 0 1325 0 0 0 0 0 0 0 
Heartbeat_Variant_1 : 2534 0.618652 per_variant_size: 0 561 1973 0 0 0 0 0 0 
Heartbeat_Variant_2 : 0 0 per_variant_size: 0 0 0 0 0 0 0 0 0 
Heartbeat_Variant_3 : 0 0 per_variant_size: 0 0 0 0 0 0 0 0 0 
Heartbeat_Variant_0_evicts 0 : 5648 1 : 422 2 : 0 3 : 0 
Heartbeat_Variant_1_evicts 0 : 371 1 : 0 2 : 0 3 : 0 
Heartbeat_Variant_2_evicts 0 : 0 1 : 0 2 : 0 3 : 0 
Heartbeat_Variant_3_evicts 0 : 0 1 : 0 2 : 0 3 : 0 
Heartbeat CPU 0 instructions: 10000003 cycles: 2796019 heartbeat IPC: 3.57651 cumulative IPC: 3.57651 (Simulation time: 0 hr 1 min 42 sec) 
Heartbeat_Variant_0 : 1345 0.328369 per_variant_size: 0 1345 0 0 0 0 0 0 0 
Heartbeat_Variant_1 : 2585 0.631104 per_variant_size: 0 515 2070 0 0 0 0 0 0 
Heartbeat_Variant_2 : 0 0 per_variant_size: 0 0 0 0 0 0 0 0 0 
Heartbeat_Variant_3 : 0 0 per_variant_size: 0 0 0 0 0 0 0 0 0 
Heartbeat_Variant_0_evicts 0 : 5679 1 : 193 2 : 0 3 : 0 
Heartbeat_Variant_1_evicts 0 : 189 1 : 0 2 : 0 3 : 0 
Heartbeat_Variant_2_evicts 0 : 0 1 : 0 2 : 0 3 : 0 
Heartbeat_Variant_3_evicts 0 : 0 1 : 0 2 : 0 3 : 0 
Heartbeat CPU 0 instructions: 20000003 cycles: 5592767 heartbeat IPC: 3.57558 cumulative IPC: 3.57605 (Simulation time: 0 hr 3 min 20 sec) 
Heartbeat_Variant_0 : 1345 0.328369 per_variant_size: 0 1345 0 0 0 0 0 0 0 
Heartbeat_Variant_1 : 2588 0.631836 per_variant_size: 0 517 2071 0 0 0 0 0 0 
Heartbeat_Variant_2 : 0 0 per_variant_size: 0 0 0 0 0 0 0 0 0 
Heartbeat_Variant_3 : 0 0 per_variant_size: 0 0 0 0 0 0 0 0 0 
Heartbeat_Variant_0_evicts 0 : 5608 1 : 0 2 : 0 3 : 0 
Heartbeat_Variant_1_evicts 0 : 2 1 : 0 2 : 0 3 : 0 
Heartbeat_Variant_2_evicts 0 : 0 1 : 0 2 : 0 3 : 0 
Heartbeat_Variant_3_evicts 0 : 0 1 : 0 2 : 0 3 : 0 
Heartbeat CPU 0 instructions: 30000003 cycles: 8389187 heartbeat IPC: 3.576 cumulative IPC: 3.57603 (Simulation time: 0 hr 5 min 2 sec) 
Heartbeat_Variant_0 : 1370 0.334473 per_variant_size: 0 1370 0 0 0 0 0 0 0 
Heartbeat_Variant_1 : 2633 0.642822 per_variant_size: 0 498 2135 0 0 0 0 0 0 
Heartbeat_Variant_2 : 0 0 per_variant_size: 0 0 0 0 0 0 0 0 0 
Heartbeat_Variant_3 : 0 0 per_variant_size: 0 0 0 0 0 0 0 0 0 
Heartbeat_Variant_0_evicts 0 : 5736 1 : 373 2 : 0 3 : 0 
Heartbeat_Variant_1_evicts 0 : 373 1 : 0 2 : 0 3 : 0 
Heartbeat_Variant_2_evicts 0 : 0 1 : 0 2 : 0 3 : 0 
Heartbeat_Variant_3_evicts 0 : 0 1 : 0 2 : 0 3 : 0 
Heartbeat CPU 0 instructions: 40000002 cycles: 11184719 heartbeat IPC: 3.57714 cumulative IPC: 3.57631 (Simulation time: 0 hr 6 min 40 sec) 
Heartbeat_Variant_0 : 1370 0.334473 per_variant_size: 0 1370 0 0 0 0 0 0 0 
Heartbeat_Variant_1 : 2636 0.643555 per_variant_size: 0 495 2141 0 0 0 0 0 0 
Heartbeat_Variant_2 : 0 0 per_variant_size: 0 0 0 0 0 0 0 0 0 
Heartbeat_Variant_3 : 0 0 per_variant_size: 0 0 0 0 0 0 0 0 0 
Heartbeat_Variant_0_evicts 0 : 5455 1 : 21 2 : 0 3 : 0 
Heartbeat_Variant_1_evicts 0 : 22 1 : 0 2 : 0 3 : 0 
Heartbeat_Variant_2_evicts 0 : 0 1 : 0 2 : 0 3 : 0 
Heartbeat_Variant_3_evicts 0 : 0 1 : 0 2 : 0 3 : 0 
Heartbeat CPU 0 instructions: 50000000 cycles: 13979882 heartbeat IPC: 3.57761 cumulative IPC: 3.57657 (Simulation time: 0 hr 8 min 23 sec) 

Warmup complete CPU 0 instructions: 50000004 cycles: 13979883 (Simulation time: 0 hr 8 min 23 sec) 

Cycle: 20000000 FTQ IN: 58319413 FTQ occupancy: 20.6076 DECODE IN: 58319287 DECODE occupancy: 53.5407 ROB IN: 58319227 ROB occupancy: 318.199 ROB OUT: 58318875
Heartbeat_Variant_0 : 1372 0.334961 per_variant_size: 0 1372 0 0 0 0 0 0 0 
Heartbeat_Variant_1 : 2643 0.645264 per_variant_size: 0 505 2138 0 0 0 0 0 0 
Heartbeat_Variant_2 : 0 0 per_variant_size: 0 0 0 0 0 0 0 0 0 
Heartbeat_Variant_3 : 0 0 per_variant_size: 0 0 0 0 0 0 0 0 0 
Heartbeat_Variant_0_evicts 0 : 5708 1 : 182 2 : 0 3 : 0 
Heartbeat_Variant_1_evicts 0 : 181 1 : 0 2 : 0 3 : 0 
Heartbeat_Variant_2_evicts 0 : 0 1 : 0 2 : 0 3 : 0 
Heartbeat_Variant_3_evicts 0 : 0 1 : 0 2 : 0 3 : 0 
Heartbeat CPU 0 instructions: 60000002 cycles: 21209458 heartbeat IPC: 1.38321 cumulative IPC: 1.38321 (Simulation time: 0 hr 10 min 24 sec) 
Heartbeat_Variant_0 : 1372 0.334961 per_variant_size: 0 1372 0 0 0 0 0 0 0 
Heartbeat_Variant_1 : 2643 0.645264 per_variant_size: 0 505 2138 0 0 0 0 0 0 
Heartbeat_Variant_2 : 0 0 per_variant_size: 0 0 0 0 0 0 0 0 0 
Heartbeat_Variant_3 : 0 0 per_variant_size: 0 0 0 0 0 0 0 0 0 
Heartbeat_Variant_0_evicts 0 : 5578 1 : 1 2 : 0 3 : 0 
Heartbeat_Variant_1_evicts 0 : 1 1 : 0 2 : 0 3 : 0 
Heartbeat_Variant_2_evicts 0 : 0 1 : 0 2 : 0 3 : 0 
Heartbeat_Variant_3_evicts 0 : 0 1 : 0 2 : 0 3 : 0 
Heartbeat CPU 0 instructions: 70000003 cycles: 28331932 heartbeat IPC: 1.40401 cumulative IPC: 1.39353 (Simulation time: 0 hr 12 min 19 sec) 
Cycle: 30000000 FTQ IN: 14029980 FTQ occupancy: 15.1103 DECODE IN: 14030106 DECODE occupancy: 38.9444 ROB IN: 14030166 ROB occupancy: 250.2 ROB OUT: 14030190
Heartbeat_Variant_0 : 1377 0.336182 per_variant_size: 0 1377 0 0 0 0 0 0 0 
Heartbeat_Variant_1 : 2639 0.644287 per_variant_size: 0 485 2154 0 0 0 0 0 0 
Heartbeat_Variant_2 : 0 0 per_variant_size: 0 0 0 0 0 0 0 0 0 
Heartbeat_Variant_3 : 0 0 per_variant_size: 0 0 0 0 0 0 0 0 0 
Heartbeat_Variant_0_evicts 0 : 5545 1 : 33 2 : 0 3 : 0 
Heartbeat_Variant_1_evicts 0 : 28 1 : 0 2 : 0 3 : 0 
Heartbeat_Variant_2_evicts 0 : 0 1 : 0 2 : 0 3 : 0 
Heartbeat_Variant_3_evicts 0 : 0 1 : 0 2 : 0 3 : 0 
Heartbeat CPU 0 instructions: 80000001 cycles: 35556291 heartbeat IPC: 1.38421 cumulative IPC: 1.39041 (Simulation time: 0 hr 14 min 19 sec) 
Cycle: 40000000 FTQ IN: 13898982 FTQ occupancy: 15.0882 DECODE IN: 13898893 DECODE occupancy: 38.5694 ROB IN: 13898833 ROB occupancy: 247.84 ROB OUT: 13898813
Heartbeat_Variant_0 : 1376 0.335938 per_variant_size: 0 1376 0 0 0 0 0 0 0 
Heartbeat_Variant_1 : 2654 0.647949 per_variant_size: 0 477 2177 0 0 0 0 0 0 
Heartbeat_Variant_2 : 0 0 per_variant_size: 0 0 0 0 0 0 0 0 0 
Heartbeat_Variant_3 : 0 0 per_variant_size: 0 0 0 0 0 0 0 0 0 
Heartbeat_Variant_0_evicts 0 : 5749 1 : 176 2 : 0 3 : 0 
Heartbeat_Variant_1_evicts 0 : 181 1 : 0 2 : 0 3 : 0 
Heartbeat_Variant_2_evicts 0 : 0 1 : 0 2 : 0 3 : 0 
Heartbeat_Variant_3_evicts 0 : 0 1 : 0 2 : 0 3 : 0 
Heartbeat CPU 0 instructions: 90000000 cycles: 42669596 heartbeat IPC: 1.40582 cumulative IPC: 1.39423 (Simulation time: 0 hr 16 min 15 sec) 
Heartbeat_Variant_0 : 1377 0.336182 per_variant_size: 0 1377 0 0 0 0 0 0 0 
Heartbeat_Variant_1 : 2653 0.647705 per_variant_size: 0 476 2177 0 0 0 0 0 0 
Heartbeat_Variant_2 : 0 0 per_variant_size: 0 0 0 0 0 0 0 0 0 
Heartbeat_Variant_3 : 0 0 per_variant_size: 0 0 0 0 0 0 0 0 0 
Heartbeat_Variant_0_evicts 0 : 5564 1 : 42 2 : 0 3 : 0 
Heartbeat_Variant_1_evicts 0 : 41 1 : 0 2 : 0 3 : 0 
Heartbeat_Variant_2_evicts 0 : 0 1 : 0 2 : 0 3 : 0 
Heartbeat_Variant_3_evicts 0 : 0 1 : 0 2 : 0 3 : 0 
Heartbeat CPU 0 instructions: 100000001 cycles: 49837361 heartbeat IPC: 1.39514 cumulative IPC: 1.39441 (Simulation time: 0 hr 18 min 13 sec) 
Finished CPU 0 instructions: 50000000 cycles: 35857481 cumulative IPC: 1.39441 (Simulation time: 0 hr 18 min 13 sec) 

ChampSim completed all CPUs

Region of Interest Statistics

CPU 0 cumulative IPC: 1.39441 instructions: 50000000 cycles: 35857481
 Fetch stage stalled: 45.2172  Sim cycles: 35857481 fetch stall cycle: 16213764
 Empty decode stage: 24.2544  Sim cycles: 35857481 fetch stall cycle: 8697004
ITLB TOTAL     ACCESS:    5853278  HIT:    5358358  MISS:     494920  HIT %:    91.5446  MISS %:    8.45543   MPKI: 9.8984
ITLB LOAD TRANSLATION INSTRUCTION	ACCESS:    5718214  HIT:    5223294  MISS:     494920  HIT %:    91.3448  MISS %:    8.65515  MPKI: 9.8984
ITLB TRANSLATION FROM L1D PREFETCHER INSTRUCTION	ACCESS:     135064  HIT:     135064  MISS:          0  HIT %:        100  MISS %:          0  MPKI: 0

ITLB AVERAGE MISS LATENCY: 9.05047 cycles
ITLB RQ	ACCESS:    7958789	FORWARD:          0	MERGED:    1622306	TO_CACHE:    6336483

DTLB TOTAL     ACCESS:    8967876  HIT:    8497144  MISS:     470732  HIT %:    94.7509  MISS %:    5.24909   MPKI: 9.41464
DTLB LOAD TRANSLATION DATA	ACCESS:    8967876  HIT:    8497144  MISS:     470732  HIT %:    94.7509  MISS %:    5.24909  MPKI: 9.41464

DTLB AVERAGE MISS LATENCY: 9.32602 cycles
DTLB RQ	ACCESS:   13334914	FORWARD:          0	MERGED:    4330353	TO_CACHE:    9004561

STLB TOTAL     ACCESS:    1213806  HIT:    1211844  MISS:       1962  HIT %:    99.8384  MISS %:    0.16164   MPKI: 0.03924
STLB LOAD TRANSLATION INSTRUCTION	ACCESS:     494920  HIT:     494678  MISS:        242  HIT %:    99.9511  MISS %:  0.0488968  MPKI: 0.00484
STLB LOAD TRANSLATION DATA	ACCESS:     470732  HIT:     469051  MISS:       1681  HIT %:    99.6429  MISS %:   0.357103  MPKI: 0.03362
STLB TRANSLATION FROM L1D PREFETCHER DATA	ACCESS:     248154  HIT:     248115  MISS:         39  HIT %:    99.9843  MISS %:   0.015716  MPKI: 0.00078

STLB AVERAGE MISS LATENCY: 76.0061 cycles
STLB RQ	ACCESS:    1336011	FORWARD:          0	MERGED:     122158	TO_CACHE:    1213853

STLB Hit, L1D data hit: 0
STLB Hit, L2C data hit: 0
STLB Hit, LLC data hit: 0
STLB Hit, LLC data miss: 0
STLB STLB hints to L2: 0
L1D TOTAL     ACCESS:   13080304  HIT:   11956990  MISS:    1123314  HIT %:    91.4122  MISS %:    8.58783   MPKI: 22.4663
L1D LOAD DATA	ACCESS:    6542424  HIT:    5801997  MISS:     740427  HIT %:    88.6827  MISS %:    11.3173  MPKI: 14.8085
L1D RFO DATA	ACCESS:    6209270  HIT:    5921729  MISS:     287541  HIT %:    95.3692  MISS %:    4.63083  MPKI: 5.75082
L1D PREFETCH DATA	ACCESS:     328610  HIT:     233264  MISS:      95346  HIT %:    70.9851  MISS %:    29.0149  MPKI: 1.90692

L1D PREFETCH  REQUESTED:     741079  ISSUED:     741079  USEFUL:      35020  USELESS:      68607
L1D USEFUL LOAD PREFETCHES:      35020 PREFETCH ISSUED TO LOWER LEVEL:     103714  ACCURACY: 33.7659
 TIMELY PREFETCHES:      35020 LATE PREFETCHES: 8275 DROPPED PREFETCHES: 7
L1D AVERAGE MISS LATENCY: 240494 cycles
L1D RQ	ACCESS:   10690534	FORWARD:          0	MERGED:    3945170	TO_CACHE:    6577895
L1D WQ	ACCESS:    6953810	FORWARD:     167830	MERGED:     196791	TO_CACHE:    6757019
L1D PQ	ACCESS:     370720	FORWARD:          0	MERGED:          0	TO_CACHE:     370359

L1D UNIQUE REGIONS ACCESSED: 0
L1D REGIONS CONFLICTS: 0
L1D Cross Page Prefetch Requests: 6923
L1D Same Page Prefetch Requests: 741230
L1D ROI Sum of L1D PQ occupancy: 4713602
L1D PREFETCHES PUSHED FROM L2C: 0
L1I TOTAL     ACCESS:    7130449  HIT:    4361807  MISS:    2768642  HIT %:    61.1716  MISS %:    38.8284   MPKI: 55.3728
L1I LOAD INSTRUCTION	ACCESS:    6464255  HIT:    3695613  MISS:    2768642  HIT %:      57.17  MISS %:      42.83  MPKI: 55.3728
L1I PREFETCH INSTRUCTION	ACCESS:     666194  HIT:     666194  MISS:          0  HIT %:        100  MISS %:          0  MPKI: 0

L1I PREFETCH  REQUESTED:    1615330  ISSUED:    1615330  USEFUL:          0  USELESS:          0
L1I USEFUL LOAD PREFETCHES:          0 PREFETCH ISSUED TO LOWER LEVEL:          0  ACCURACY: -nan
 TIMELY PREFETCHES:          0 LATE PREFETCHES: 0 DROPPED PREFETCHES: 0
L1I AVERAGE MISS LATENCY: 17.0141 cycles
L1I RQ	ACCESS:    9573089	FORWARD:          0	MERGED:    2806141	TO_CACHE:    6766948
L1I PQ	ACCESS:    1615330	FORWARD:          0	MERGED:     423489	TO_CACHE:    1191841

L1BTB TOTAL     ACCESS:    5669632  HIT:    2035243  MISS:    3634389  HIT %:    35.8973  MISS %:    64.1027   MPKI: 72.6878
L1BTB BRANCH_DIRECT_JUMP	ACCESS:     548069 HIT:     143781 MISS:     404288 AVERAGE STALL: 52.0052 AVERAGE FETCH STALL: 14.0106 AVERAGE FETCH QUEUE STALL: 16.6178 AVERAGE DECODE STALL: 20.4872 AVERAGE EXECUTE STALL: 2.44619e+15
L1BTB BRANCH_INDIRECT	ACCESS:     182603 HIT:      65740 MISS:     116863 AVERAGE STALL: 110.031 AVERAGE FETCH STALL: 10.8588 AVERAGE FETCH QUEUE STALL: 17.9713 AVERAGE DECODE STALL: 13.6011 AVERAGE EXECUTE STALL: 66.637
L1BTB BRANCH_CONDITIONAL	ACCESS:    2705979 HIT:    1411266 MISS:    1294713 AVERAGE STALL: 63.8124 AVERAGE FETCH STALL: 18.3183 AVERAGE FETCH QUEUE STALL: 28.99 AVERAGE DECODE STALL: 15.6973 AVERAGE EXECUTE STALL: 5.11841e+15
L1BTB BRANCH_DIRECT_CALL	ACCESS:     944984 HIT:     104366 MISS:     840618 AVERAGE STALL: 62.5749 AVERAGE FETCH STALL: 28.6264 AVERAGE FETCH QUEUE STALL: 17.4649 AVERAGE DECODE STALL: 15.6104 AVERAGE EXECUTE STALL: 1.33575e+16
L1BTB BRANCH_INDIRECT_CALL	ACCESS:     171511 HIT:      20887 MISS:     150624 AVERAGE STALL: 138.08 AVERAGE FETCH STALL: 12.2929 AVERAGE FETCH QUEUE STALL: 16.7589 AVERAGE DECODE STALL: 11.7256 AVERAGE EXECUTE STALL: 96.8122
L1BTB BRANCH_RETURN	ACCESS:    1116486 HIT:     289203 MISS:     827283 AVERAGE STALL: 51.5759 AVERAGE FETCH STALL: 16.5858 AVERAGE FETCH QUEUE STALL: 6.77676 AVERAGE DECODE STALL: 6.58001 AVERAGE EXECUTE STALL: 4.30677e+14
L1BTB BRANCH_OTHER ACCESS:          0 HIT:          0 MISS:          0 AVERAGE STALL: -nan AVERAGE FETCH STALL: -nan AVERAGE FETCH QUEUE STALL: -nan AVERAGE DECODE STALL: -nan AVERAGE EXECUTE STALL: -nan
L1BTB TOTAL ROB OCCUPANCY AT BTB MISS: 2.54946

L2BTB TOTAL     ACCESS:    3609051  HIT:    3546352  MISS:      62699  HIT %:    98.2627  MISS %:    1.73727   MPKI: 1.25398
L2BTB BRANCH_DIRECT_JUMP	ACCESS:     400147 HIT:     396735 MISS:       3412 AVERAGE STALL: 52.0052 AVERAGE FETCH STALL: 14.0106 AVERAGE FETCH QUEUE STALL: 16.6178 AVERAGE DECODE STALL: 20.4872 AVERAGE EXECUTE STALL: 2.44619e+15
L2BTB BRANCH_INDIRECT	ACCESS:     106596 HIT:     103920 MISS:       2676 AVERAGE STALL: 110.031 AVERAGE FETCH STALL: 10.8588 AVERAGE FETCH QUEUE STALL: 17.9713 AVERAGE DECODE STALL: 13.6011 AVERAGE EXECUTE STALL: 66.637
L2BTB BRANCH_CONDITIONAL	ACCESS:    1294713 HIT:    1291061 MISS:       3652 AVERAGE STALL: 63.8124 AVERAGE FETCH STALL: 18.3183 AVERAGE FETCH QUEUE STALL: 28.99 AVERAGE DECODE STALL: 15.6973 AVERAGE EXECUTE STALL: 5.11841e+15
L2BTB BRANCH_DIRECT_CALL	ACCESS:     840618 HIT:     839221 MISS:       1397 AVERAGE STALL: 62.5749 AVERAGE FETCH STALL: 28.6264 AVERAGE FETCH QUEUE STALL: 17.4649 AVERAGE DECODE STALL: 15.6104 AVERAGE EXECUTE STALL: 1.33575e+16
L2BTB BRANCH_INDIRECT_CALL	ACCESS:     141103 HIT:     130981 MISS:      10122 AVERAGE STALL: 138.08 AVERAGE FETCH STALL: 12.2929 AVERAGE FETCH QUEUE STALL: 16.7589 AVERAGE DECODE STALL: 11.7256 AVERAGE EXECUTE STALL: 96.8122
L2BTB BRANCH_RETURN	ACCESS:     825874 HIT:     784434 MISS:      41440 AVERAGE STALL: 51.5759 AVERAGE FETCH STALL: 16.5858 AVERAGE FETCH QUEUE STALL: 6.77676 AVERAGE DECODE STALL: 6.58001 AVERAGE EXECUTE STALL: 4.30677e+14
L2BTB BRANCH_OTHER ACCESS:          0 HIT:          0 MISS:          0 AVERAGE STALL: -nan AVERAGE FETCH STALL: -nan AVERAGE FETCH QUEUE STALL: -nan AVERAGE DECODE STALL: -nan AVERAGE EXECUTE STALL: -nan
L2BTB TOTAL ROB OCCUPANCY AT BTB MISS: 147.781

L2C TOTAL     ACCESS:    4498433  HIT:    4047759  MISS:     450674  HIT %:    89.9815  MISS %:    10.0185   MPKI: 9.01348
L2C LOAD INSTRUCTION	ACCESS:    2768642  HIT:    2530544  MISS:     238098  HIT %:    91.4002  MISS %:    8.59981  MPKI: 4.76196
L2C LOAD TRANSLATION INSTRUCTION	ACCESS:        269  HIT:         64  MISS:        205  HIT %:    23.7918  MISS %:    76.2082  MPKI: 0.0041
L2C LOAD DATA	ACCESS:     732119  HIT:     662815  MISS:      69304  HIT %:    90.5338  MISS %:    9.46622  MPKI: 1.38608
L2C RFO DATA	ACCESS:     287430  HIT:     233097  MISS:      54333  HIT %:     81.097  MISS %:     18.903  MPKI: 1.08666
L2C PREFETCH DATA	ACCESS:     183363  HIT:     112341  MISS:      71022  HIT %:     61.267  MISS %:     38.733  MPKI: 1.42044
L2C WRITEBACK DATA	ACCESS:     524798  HIT:     508329  MISS:      16469  HIT %:    96.8618  MISS %:    3.13816  MPKI: 0.32938
L2C LOAD TRANSLATION DATA	ACCESS:       1744  HIT:        524  MISS:       1220  HIT %:    30.0459  MISS %:    69.9541  MPKI: 0.0244
L2C TRANSLATION FROM L1D PREFETCHER DATA	ACCESS:         68  HIT:         45  MISS:         23  HIT %:    66.1765  MISS %:    33.8235  MPKI: 0.00046

L2C PREFETCH  REQUESTED:      86407  ISSUED:      86407  USEFUL:       8296  USELESS:      63395
L2C USEFUL LOAD PREFETCHES:       8296 PREFETCH ISSUED TO LOWER LEVEL:      71418  ACCURACY: 11.6161
 TIMELY PREFETCHES:       8296 LATE PREFETCHES: 396 DROPPED PREFETCHES: 0
L2C AVERAGE MISS LATENCY: 39.6971 cycles
L2C RQ	ACCESS:    3790323	FORWARD:          0	MERGED:          0	TO_CACHE:    3790272
L2C WQ	ACCESS:     524799	FORWARD:         53	MERGED:          0	TO_CACHE:     524799
L2C PQ	ACCESS:     190121	FORWARD:          0	MERGED:       3507	TO_CACHE:     186612

L2C Dense regions hint from L2: 0
PSCL5 TOTAL     ACCESS:       3944  HIT:       1972  MISS:       1972  HIT %:         50  MISS %:         50   MPKI: 0.03944
PSCL5 LOAD TRANSLATION INSTRUCTION	ACCESS:       3816  HIT:       1908  MISS:       1908  HIT %:         50  MISS %:         50  MPKI: 0.03816
PSCL5 TRANSLATION FROM L1D PREFETCHER INSTRUCTION	ACCESS:        128  HIT:         64  MISS:         64  HIT %:         50  MISS %:         50  MPKI: 0.00128


PSCL4 TOTAL     ACCESS:       3697  HIT:       1844  MISS:       1853  HIT %:    49.8783  MISS %:    50.1217   MPKI: 0.03706
PSCL4 LOAD TRANSLATION INSTRUCTION	ACCESS:       3270  HIT:       1785  MISS:       1485  HIT %:    54.5872  MISS %:    45.4128  MPKI: 0.0297
PSCL4 TRANSLATION FROM L1D PREFETCHER INSTRUCTION	ACCESS:        108  HIT:         59  MISS:         49  HIT %:    54.6296  MISS %:    45.3704  MPKI: 0.00098
PSCL4 LOAD TRANSLATION DATA	ACCESS:        309  HIT:          0  MISS:        309  HIT %:          0  MISS %:        100  MPKI: 0.00618
PSCL4 TRANSLATION FROM L1D PREFETCHER DATA	ACCESS:         10  HIT:          0  MISS:         10  HIT %:          0  MISS %:        100  MPKI: 0.0002


PSCL3 TOTAL     ACCESS:       3713  HIT:       1852  MISS:       1861  HIT %:    49.8788  MISS %:    50.1212   MPKI: 0.03722
PSCL3 LOAD TRANSLATION INSTRUCTION	ACCESS:       3278  HIT:       1793  MISS:       1485  HIT %:     54.698  MISS %:     45.302  MPKI: 0.0297
PSCL3 TRANSLATION FROM L1D PREFETCHER INSTRUCTION	ACCESS:        108  HIT:         59  MISS:         49  HIT %:    54.6296  MISS %:    45.3704  MPKI: 0.00098
PSCL3 LOAD TRANSLATION DATA	ACCESS:        317  HIT:          0  MISS:        317  HIT %:          0  MISS %:        100  MPKI: 0.00634
PSCL3 TRANSLATION FROM L1D PREFETCHER DATA	ACCESS:         10  HIT:          0  MISS:         10  HIT %:          0  MISS %:        100  MPKI: 0.0002


PSCL2 TOTAL     ACCESS:       3851  HIT:       1879  MISS:       1972  HIT %:    48.7925  MISS %:    51.2075   MPKI: 0.03944
PSCL2 LOAD TRANSLATION INSTRUCTION	ACCESS:       2059  HIT:       1817  MISS:        242  HIT %:    88.2467  MISS %:    11.7533  MPKI: 0.00484
PSCL2 TRANSLATION FROM L1D PREFETCHER INSTRUCTION	ACCESS:         62  HIT:         62  MISS:          0  HIT %:        100  MISS %:          0  MPKI: 0
PSCL2 LOAD TRANSLATION DATA	ACCESS:       1668  HIT:          0  MISS:       1668  HIT %:          0  MISS %:        100  MPKI: 0.03336
PSCL2 TRANSLATION FROM L1D PREFETCHER DATA	ACCESS:         62  HIT:          0  MISS:         62  HIT %:          0  MISS %:        100  MPKI: 0.00124


LLC TOTAL     ACCESS:     510067  HIT:     479738  MISS:      30329  HIT %:    94.0539  MISS %:    5.94608   MPKI: 0.60658
LLC LOAD INSTRUCTION	ACCESS:     238098  HIT:     237254  MISS:        844  HIT %:    99.6455  MISS %:   0.354476  MPKI: 0.01688
LLC LOAD TRANSLATION INSTRUCTION	ACCESS:        205  HIT:        179  MISS:         26  HIT %:    87.3171  MISS %:    12.6829  MPKI: 0.00052
LLC LOAD DATA	ACCESS:      68937  HIT:      65363  MISS:       3574  HIT %:    94.8156  MISS %:    5.18444  MPKI: 0.07148
LLC RFO DATA	ACCESS:      54299  HIT:      39148  MISS:      15151  HIT %:    72.0971  MISS %:    27.9029  MPKI: 0.30302
LLC PREFETCH DATA	ACCESS:      71416  HIT:      61223  MISS:      10193  HIT %:    85.7273  MISS %:    14.2727  MPKI: 0.20386
LLC WRITEBACK DATA	ACCESS:      75869  HIT:      75418  MISS:        451  HIT %:    99.4056  MISS %:   0.594446  MPKI: 0.00902
LLC LOAD TRANSLATION DATA	ACCESS:       1220  HIT:       1132  MISS:         88  HIT %:    92.7869  MISS %:    7.21311  MPKI: 0.00176
LLC TRANSLATION FROM L1D PREFETCHER DATA	ACCESS:         23  HIT:         21  MISS:          2  HIT %:    91.3043  MISS %:    8.69565  MPKI: 4e-05

LLC AVERAGE MISS LATENCY: 158.891 cycles
LLC RQ	ACCESS:     362786	FORWARD:          0	MERGED:          0	TO_CACHE:     362781
LLC WQ	ACCESS:      75869	FORWARD:          7	MERGED:          0	TO_CACHE:      75869
LLC PQ	ACCESS:      71418	FORWARD:          0	MERGED:          0	TO_CACHE:      71416

LLC Dense regions hint to LLC: 0

RAW hits: 1950404
Loads Generated: 12640934
Loads sent to L1D: 10690534
Stores Generated: 6953804
Stores sent to L1D: 6953810
Major fault: 0 Minor fault: 2550
Allocated PAGES: 2550

stream: 
stream:times selected: 1172568
stream:pref_filled: 121593
stream:pref_useful: 24238
stream:pref_late: 6949
stream:misses: 8090
stream:misses_by_poll: 0

CS: 
CS:times selected: 176397
CS:pref_filled: 59451
CS:pref_useful: 36244
CS:pref_late: 7155
CS:misses: 17104
CS:misses_by_poll: 4

CPLX: 
CPLX:times selected: 994981
CPLX:pref_filled: 20240
CPLX:pref_useful: 4902
CPLX:pref_late: 3200
CPLX:misses: 94585
CPLX:misses_by_poll: 7

NL_L1: 
NL:times selected: 20311
NL:pref_filled: 751
NL:pref_useful: 377
NL:pref_late: 305
NL:misses: 1801
NL:misses_by_poll: 0

total selections: 2364257
total_filled: 95346
total_useful: 35020
total_late: 18979
total_polluted: 11
total_misses_after_warmup: 775901
conflicts: 5526259

test: 114140

DRAM Statistics
 CHANNEL 0
 RQ ROW_BUFFER_HIT:      11330  ROW_BUFFER_MISS:      18541
 DBUS_CONGESTED:          8
 WQ ROW_BUFFER_HIT:       1500  ROW_BUFFER_MISS:      12545  FULL:          0

 AVG_CONGESTED_CYCLE: 6

CPU 0 Branch Prediction Accuracy: 99.8266% MPKI: 0.31708 Average ROB Occupancy at Mispredict: 193.037
Branch types
NOT_BRANCH: 40856057 81.7121%
BRANCH_DIRECT_JUMP: 548069 1.09614%
BRANCH_INDIRECT: 182603 0.365206%
BRANCH_CONDITIONAL: 6180251 12.3605%
BRANCH_DIRECT_CALL: 944984 1.88997%
BRANCH_INDIRECT_CALL: 171511 0.343022%
BRANCH_RETURN: 1116486 2.23297%
BRANCH_OTHER: 0 0%

DRAM PAGES: 1048576
Allocated PAGES: 2550
Average_ROB_Occupancy: 250.48
Average_Decode_Occupancy: 38.7446
Average_FTQ_Occupancy: 15.1095
Indirect max targets: 14 Average targets: 1.14865
Branch_type:  BRANCH_DIRECT_JUMP:  Count Percentage: 3.6149 5.45149 4.64297 7.44579 3.29301 6.32205 1.23658 67.9932 
Branch_type:  BRANCH_INDIRECT:  Count Percentage: 6.06695 3.42372 8.1316 9.68984 3.35102 2.81689 0.938779 65.5812 
Branch_type:  BRANCH_CONDITIONAL:  Count Percentage: 20.7496 3.92994 1.58429 7.27481 2.43422 3.62531 0.550553 59.8513 
Branch_type:  BRANCH_DIRECT_CALL:  Count Percentage: 0.915468 1.29171 0.718411 3.82291 2.62365 2.86373 0.773779 86.9903 
Branch_type:  BRANCH_INDIRECT_CALL:  Count Percentage: 9.56332 0 3.00035 0 0.000290422 2.43432 0.993826 84.0079 
Branch_type:  BRANCH_RETURN:  Count Percentage: 4.76546 4.78763 1.1556 3.75521 3.5317 3.80897 0.511036 77.6844 
Branch_type:  BRANCH_DIRECT_JUMP:  Total Count: 39564 59665 50816 81492 36041 69193 13534 744166 
Branch_type:  BRANCH_INDIRECT:  Total Count: 22115 12480 29641 35321 12215 10268 3422 239054 
Branch_type:  BRANCH_CONDITIONAL:  Total Count: 2562973 485424 195691 898580 300674 447796 68004 7392801 
Branch_type:  BRANCH_DIRECT_CALL:  Total Count: 17361 24496 13624 72498 49755 54308 14674 1649691 
Branch_type:  BRANCH_INDIRECT_CALL:  Total Count: 32929 0 10331 0 1 8382 3422 289261 
Branch_type:  BRANCH_RETURN:  Total Count: 106819 107316 25903 84174 79164 85379 11455 1741316 
Number of unique branch instructions: 10011
Upper 32 bits: 
aaaa
ffff
ffff0000
Unique upper 32 bits: 3
Unique upper 36 bits: 3
Unique upper 40 bits: 5
Unique upper 44 bits: 32
Unique upper 48 bits: 154
Variant_0 : 1377 0.336182
Variant_1 : 2653 0.647705
Variant_2 : 0 0
Variant_3 : 0 0
Offset_3 4125
Offset_4 249
Offset_5 453
Offset_6 511
Offset_7 594
Offset_8 515
Offset_9 473
Offset_10 388
Offset_11 320
Offset_12 287
Offset_13 207
Offset_14 230
Offset_15 197
Offset_16 227
Offset_17 147
Offset_18 128
Offset_19 245
Offset_20 142
Offset_21 235
Offset_22 395
Offset_23 241
Offset_24 331
Offset_25 88
Offset_47 80
decode_dispatch_called: 26659062 74.3473
Dispatch_width: 0 14472452 54.2872 40.361
Dispatch_width: 1 1039595 3.89959 2.89924
Dispatch_width: 2 854352 3.20473 2.38263
Dispatch_width: 3 501818 1.88235 1.39948
Dispatch_width: 4 6446443 24.1811 17.978
Dispatch_width: 5 105937 0.397377 0.295439
Dispatch_width: 6 3238465 12.1477 9.03149
Empty_decode_cycles: 9198419 25.6527
ROB_full_cycles: 10326766 28.7995
Starvation_cycles_per_kilo_instr: 222.922
Starvation_cycles_per_kilo_instr_3: 157.399
Starvation_cycles_per_kilo_instr_0: 133.441
Branch_type_1  (3,1)  (4,9)  (5,37)  (6,71)  (7,116)  (8,127)  (9,125)  (10,99)  (11,72)  (12,51)  (13,8)  (14,2)  (15,3)  (16,4)  (18,1)  (19,4)  (20,2)  (21,1)  (22,3)  (23,2)  (24,10)  (25,12) 
Branch_type_2  (3,1)  (5,1)  (8,3)  (9,3)  (12,1)  (13,1)  (14,1)  (16,3)  (17,2)  (20,2)  (21,2)  (23,5)  (24,1)  (47,36) 
Branch_type_3  (3,4123)  (4,240)  (5,411)  (6,424)  (7,446)  (8,322)  (9,259)  (10,158)  (11,132)  (12,58)  (13,7) 
Branch_type_4  (6,4)  (7,8)  (8,26)  (9,54)  (10,62)  (11,60)  (12,98)  (13,87)  (14,102)  (15,94)  (16,103)  (17,64)  (18,58)  (19,119)  (20,74)  (21,124)  (22,210)  (23,136)  (24,191)  (25,72) 
Branch_type_5  (8,2)  (9,1)  (10,3)  (11,5)  (12,3)  (13,14)  (14,16)  (15,11)  (16,20)  (17,13)  (18,16)  (19,12)  (20,10)  (21,13)  (22,42)  (23,26)  (24,37) 
Branch_type_6  (5,4)  (6,12)  (7,24)  (8,35)  (9,31)  (10,66)  (11,51)  (12,76)  (13,90)  (14,109)  (15,89)  (16,97)  (17,68)  (18,53)  (19,110)  (20,54)  (21,95)  (22,140)  (23,72)  (24,92)  (25,4)  (47,44) 
Unique trigger count: 
Variant_0_evicts_0 : 0
Variant_0_evicts_1 : 0
Variant_0_evicts_2 : 0
Variant_0_evicts_3 : 0
Variant_1_evicts_0 : 0
Variant_1_evicts_1 : 0
Variant_1_evicts_2 : 0
Variant_1_evicts_3 : 0
Variant_2_evicts_0 : 0
Variant_2_evicts_1 : 0
Variant_2_evicts_2 : 0
Variant_2_evicts_3 : 0
Variant_3_evicts_0 : 0
Variant_3_evicts_1 : 0
Variant_3_evicts_2 : 0
Variant_3_evicts_3 : 0
BTB PER SET UNIQUE ADDR: 14 11 10 9 11 11 9 11 7 12 13 15 9 11 9 5 7 10 12 12 10 10 9 11 5 8 9 12 10 12 10 11 11 8 8 9 9 12 10 6 9 7 10 10 9 10 11 11 8 12 8 11 11 12 7 8 10 9 7 9 10 13 10 9 13 13 10 8 7 10 11 11 12 7 9 9 8 12 8 13 9 6 6 15 8 13 11 8 5 10 6 7 8 6 8 10 8 8 13 11 18 13 7 8 8 8 12 8 9 10 4 15 10 9 10 8 9 8 13 12 10 11 5 8 8 13 5 12 15 6 9 12 8 12 10 12 8 14 9 13 8 13 10 9 9 13 13 10 11 9 10 10 9 10 9 10 12 11 10 8 11 9 12 12 11 10 11 9 12 8 10 11 9 13 8 11 10 8 10 11 10 10 12 8 7 15 5 10 10 9 12 12 11 11 14 9 12 9 12 13 8 9 9 8 11 9 11 8 7 11 10 11 9 6 10 9 8 10 12 11 8 12 9 9 8 10 8 13 7 13 11 6 8 13 13 10 11 11 10 8 10 7 11 14 8 9 8 7 14 8 7 8 9 6 8 12 8 6 7 8 11 13 7 12 8 8 8 8 12 12 10 8 6 6 8 6 7 13 9 12 10 9 8 10 10 10 9 10 14 9 8 12 12 9 7 13 10 8 8 12 8 10 7 9 12 9 9 6 12 9 9 12 9 13 8 8 14 12 9 10 8 9 10 9 12 15 7 8 9 9 9 14 9 9 9 9 12 11 9 10 9 10 4 10 16 7 8 9 10 9 8 8 10 7 10 11 10 10 9 7 9 13 8 9 8 9 7 10 14 8 8 9 11 12 10 8 13 13 10 13 14 7 6 9 8 13 12 11 12 13 15 9 13 11 8 8 12 11 14 6 8 10 9 12 9 11 9 12 9 10 9 9 8 9 12 11 9 12 13 11 10 11 12 10 10 11 14 7 13 7 14 5 13 14 12 11 13 10 9 11 11 9 11 7 15 10 7 11 9 9 11 15 13 8 8 13 9 13 9 15 6 12 11 11 15 11 7 10 9 14 6 11 11 11 11 13 8 10 9 10 9 15 9 10 7 10 9 7 13 17 11 10 10 10 7 11 10 11 11 8 13 13 10 15 9 8 8 14 12 8 5 10 13 6 11 17 11 14 9 8 7 9 11 9 8 13 12 7 6 12 13 7 11 7 7 12 7 10 10 10 10 10 11 9 11 11 8 8 8 9 7 12 11 10 10 10 10 12 16 11 6 9 8 8 5 14 11 10 10 11 12 9 7 10 10 11 13 11 10 10 7 10 11 9 11 7 9 10 7 11 10 12 13 9 12 8 8 12 11 15 9 9 10 6 8 10 10 8 9 11 12 12 9 9 7 9 9 11 10 14 12 6 8 8 6 10 8 12 8 9 9 12 9 9 11 9 13 12 8 10 8 7 15 9 9 11 7 9 14 8 10 12 7 10 13 10 12 10 11 8 9 8 10 12 11 11 9 8 13 8 8 13 13 12 12 10 14 11 9 10 10 11 8 11 9 8 11 9 14 12 13 8 10 10 8 12 10 10 6 14 7 9 9 10 8 15 9 7 10 5 6 9 7 8 10 9 21 8 8 11 14 10 9 9 10 9 12 6 10 10 8 8 8 15 9 14 9 11 14 8 10 10 11 10 14 13 8 11 9 8 11 8 9 10 9 11 13 13 9 7 9 10 10 8 16 9 12 14 8 12 8 8 10 9 13 9 8 11 12 7 7 13 11 12 9 9 9 10 8 8 6 8 12 12 10 12 7 13 9 9 11 12 14 11 13 8 7 9 8 10 9 9 11 12 9 12 12 14 6 12 13 11 9 12 9 11 7 9 10 10 14 14 12 7 10 13 11 9 11 10 10 12 11 10 12 9 13 19 10 13 8 8 10 11 12 12 13 8 8 12 7 15 8 11 12 7 11 13 11 8 6 10 8 10 11 8 10 12 9 9 9 6 10 11 9 12 11 7 9 9 14 8 11 8 7 13 11 10 6 10 11 13 10 10 8 13 10 14 10 9 10 13 12 10 13 9 18 8 11 8 8 9 12 10 12 9 7 9 12 7 10 12 13 6 9 13 11 7 14 13 9 10 13 6 6 7 6 8 10 7 11 6 8 9 6 8 11 11 13 9 8 11 11 11 10 8 12 11 9 10 10 12 13 10 7 9 16 9 12 15 11 12 16 10 6 14 14 9 14 11 10 14 8 13 9 6 7 6 11 8 10 18 10 9 12 8 7 8 8 14 11 10 10 7 7 7 7 9 8 10 9 13 10 9 
BTB PER SET COUNT: 28 12 1488 12 17 12 1418 15 200 16 23 93 20630 11 10 5 2420 10 15 24 13 15 836 13 5 8 11 13 14 1266 528 11 14 9 12 18 12 12 12 6 10 7 10 14 10 11 12 11 11 15 12 43 16 21 7 160 10 9 541 9 10 17 11 11 22 18 13 1289 15 12 18 123 17 10 12 16 9 16 11 15 779 7 9 832 9 15 19 17 5 18 7 657 483 7 10 11 643 8 25 11 19 17 7 8 2779 8 17 8 338 13 4 27 959 10 18 9 9 11 1484 151 13 16 6 10 8 51 5 1527 26 761 12 15 10 14 15 17 874 20 9 17 10 20 11 12 9 18 143 10 13 18 14 279 1275 13 10 14 19 13 12 8 18 10 15 18 90 12 11 9 16 1448 13 14 10 20 10 13 14 10 16 115 11 139 457 8 8 18 6 16 11 955 21 13 13 12 17 102 18 9 15 263 11 13 1012 9 12 9 15 9 7 331 12 19 12 6 11 47 13 17 1491 19 10 17 10 9 11 24 8 14 10 15 12 6 9 18 14 13 12 23 1454 12 16 8 16 17 9 139 8 7 567 9 9 9 9 6 17 17 8 7 7 9 830 19 8 173 8 10 9 10 1290 15 15 12 7 8 8 6 7 14 14 132 26 10 9 15 10 12 9 12 19 13 11 12 13 919 9 17 14 10 10 964 10 12 7 9 16 10 13 6 185 15 10 12 11 18 10 8 18 18 11 15 10 4434 16 11 15 21 425 10 12 14 9 27 52 10 9 11 15 346 11 318 10 1283 5 10 25 8 9 13 12 125 10 142 17 8 11 16 11 15 11 12 9 17 8 9 10 14 9 12 16 8 8 166 17 729 892 8 16 14 12 1495 18 7 7 9 9 15 15 17 14 1228 18 9 18 374 9 956 14 13 20 6 10 12 1486 13 15 13 9 490 11 10 11 10 8 819 13 14 11 62 26 12 15 15 16 15 17 13 137 7 15 7 18 5 22 16 12 26 15 196 9 16 855 11 12 8 845 1293 973 19 13 12 795 514 16 8 484 16 13 17 9 24 6 17 15 726 22 13 9 15 11 17 6 17 11 17 11 16 9 14 9 14 9 235 12 14 8 14 10 7 14 32 11 11 1013 12 7 19 823 1008 12 8 13 15 12 58 12 10 11 16 14 9 6 16 867 7 13 23 33 16 10 11 9 9 12 538 8 20 15 8 8 1490 16 7 151 7 12 12 7 961 10 13 12 14 37 9 12 408 8 8 10 1624 8 18 1017 33 12 12 13 14 19 13 6 100 9 8 6 17 119 15 11 20 375 10 7 14 772 13 16 14 13 12 10 12 16 2961 13 7 11 12 8 11 16 166 19 9 14 8 9 138 116 17 13 10 11 6 13 15 14 1482 12 14 17 914 12 11 7 15 11 15 13 31 17 7 9 953 6 13 11 15 1349 10 9 16 9 29 11 9 25 844 8 11 9 7 20 10 9 129 326 9 19 8 11 15 8 11 19 486 16 11 12 12 91 8 11 15 55 18 13 1009 637 11 12 14 869 16 434 326 16 12 9 13 12 13 1484 17 72 10 14 10 63 16 13 8 12 13 2484 18 16 106 8 18 1001 15 1487 15 8 25 9 7 12 5 8 321 637 9 119 9 38 18 10 513 16 1012 13 2159 11 9 14 6 950 1659 11 12821 8 130 12 2026 485 18 19 9 1071 16 18 67 19 21 954 12 13 8 1488 12 10 47 13 16 15 748 10 7 15 11 10 372 676 11 13 19 9 15 9 365 11 9 19 9 10 14 14 7 1476 15 252 13 9 12 13 11 9 11 13 189 15 15 12 732 7 22 11 126 18 13 18 15 14 10 7 9 8 99 9 27 14 18 413 56 14 630 6 2528 15 1016 11 13 14 13 14 10 13 11 15 23 17 8 39 1165 12 16 14 218 11 1016 17 14 15 15 19 32 10 1971 9 369 455 13 16 14 158 8 10 15 8 636 8 13 16 7 11 21 11 11 8 15 8 11 14 8 14 17 9 11 12 6 160 15 484 14 17 7 11 14 19 9 12 7778 7 18 13 10 6 11 12 21 11 16 13 25 11 15 121 19 219 546 19 15 19 492 582 127 17 10 11 959 487 17 14 9 9 9 20 19 11 15 652 6 9 1707 14 9 134 17 10 1531 16 6 6 8 6 9 12 8 201 11 8 11 6 9 15 12 127 16 1011 19 959 16 11 8 147 12 49 12 54 870 20 13 8 9 24 13 182 25 15 15 408 592 6 534 24 540 16 14 11 364 12 20 11 6 10 1485 12 8 11 557 12 10 14 9 10 10 9 1021 492 10 12 8 8 9 10 129 11 12 12 313 14 10 
To predecode: 0
Predecoding something: 0
Predecode request dropped: 0
sizeofblock_0 0
sizeofblock_1 53533
sizeofblock_2 78386
sizeofblock_3 0
sizeofblock_4 0
sizeofblock_5 0
sizeofblock_6 0
sizeofblock_7 0
sizeofblock_8 0
Variant_0 Correct: 1618197 Incorrect: 0 Accuracy: 1
Variant_1 Correct: 5761042 Incorrect: 0 Accuracy: 1
Variant_2 Correct: 0 Incorrect: 0 Accuracy: -nan
Variant_3 Correct: 0 Incorrect: 0 Accuracy: -nan
