
*** ChampSim Multicore Out-of-Order Simulator ***

Warmup Instructions: 50000000
Simulation Instructions: 50000000
Number of CPUs: 1
LLC sets: 2048
LLC ways: 16
Off-chip DRAM Size: 4096 MB Channels: 1 Width: 64-bit Data Rate: 6400 MT/s
CPU 0 runs ./micro_traces/srv553.trace.gz
.gz
ITLB has LRU replacement policy
DTLB has LRU replacement policy
STLB has LRU replacement policy
FDIP Prefetcher at L1I
L1I has LRU replacement policy
L1D has LRU replacement policy
Initialize SRRIP state for L2C
Initialize DRRIP state for LLC
Heartbeat_Variant_0 : 1295 0.316162 per_variant_size: 0 1295 0 0 0 0 0 0 0 
Heartbeat_Variant_1 : 2466 0.602051 per_variant_size: 0 591 1875 0 0 0 0 0 0 
Heartbeat_Variant_2 : 0 0 per_variant_size: 0 0 0 0 0 0 0 0 0 
Heartbeat_Variant_3 : 0 0 per_variant_size: 0 0 0 0 0 0 0 0 0 
Heartbeat_Variant_0_evicts 0 : 5782 1 : 317 2 : 0 3 : 0 
Heartbeat_Variant_1_evicts 0 : 289 1 : 0 2 : 0 3 : 0 
Heartbeat_Variant_2_evicts 0 : 0 1 : 0 2 : 0 3 : 0 
Heartbeat_Variant_3_evicts 0 : 0 1 : 0 2 : 0 3 : 0 
Heartbeat CPU 0 instructions: 10000003 cycles: 2796052 heartbeat IPC: 3.57647 cumulative IPC: 3.57647 (Simulation time: 0 hr 1 min 40 sec) 
Heartbeat_Variant_0 : 1356 0.331055 per_variant_size: 0 1356 0 0 0 0 0 0 0 
Heartbeat_Variant_1 : 2596 0.633789 per_variant_size: 0 537 2059 0 0 0 0 0 0 
Heartbeat_Variant_2 : 0 0 per_variant_size: 0 0 0 0 0 0 0 0 0 
Heartbeat_Variant_3 : 0 0 per_variant_size: 0 0 0 0 0 0 0 0 0 
Heartbeat_Variant_0_evicts 0 : 5757 1 : 418 2 : 0 3 : 0 
Heartbeat_Variant_1_evicts 0 : 408 1 : 0 2 : 0 3 : 0 
Heartbeat_Variant_2_evicts 0 : 0 1 : 0 2 : 0 3 : 0 
Heartbeat_Variant_3_evicts 0 : 0 1 : 0 2 : 0 3 : 0 
Heartbeat CPU 0 instructions: 20000000 cycles: 5592266 heartbeat IPC: 3.57626 cumulative IPC: 3.57637 (Simulation time: 0 hr 3 min 18 sec) 
Heartbeat_Variant_0 : 1356 0.331055 per_variant_size: 0 1356 0 0 0 0 0 0 0 
Heartbeat_Variant_1 : 2598 0.634277 per_variant_size: 0 538 2060 0 0 0 0 0 0 
Heartbeat_Variant_2 : 0 0 per_variant_size: 0 0 0 0 0 0 0 0 0 
Heartbeat_Variant_3 : 0 0 per_variant_size: 0 0 0 0 0 0 0 0 0 
Heartbeat_Variant_0_evicts 0 : 5515 1 : 19 2 : 0 3 : 0 
Heartbeat_Variant_1_evicts 0 : 19 1 : 0 2 : 0 3 : 0 
Heartbeat_Variant_2_evicts 0 : 0 1 : 0 2 : 0 3 : 0 
Heartbeat_Variant_3_evicts 0 : 0 1 : 0 2 : 0 3 : 0 
Heartbeat CPU 0 instructions: 30000000 cycles: 8386547 heartbeat IPC: 3.57874 cumulative IPC: 3.57716 (Simulation time: 0 hr 4 min 56 sec) 
Heartbeat_Variant_0 : 1371 0.334717 per_variant_size: 0 1371 0 0 0 0 0 0 0 
Heartbeat_Variant_1 : 2609 0.636963 per_variant_size: 0 530 2079 0 0 0 0 0 0 
Heartbeat_Variant_2 : 0 0 per_variant_size: 0 0 0 0 0 0 0 0 0 
Heartbeat_Variant_3 : 0 0 per_variant_size: 0 0 0 0 0 0 0 0 0 
Heartbeat_Variant_0_evicts 0 : 5680 1 : 171 2 : 0 3 : 0 
Heartbeat_Variant_1_evicts 0 : 162 1 : 0 2 : 0 3 : 0 
Heartbeat_Variant_2_evicts 0 : 0 1 : 0 2 : 0 3 : 0 
Heartbeat_Variant_3_evicts 0 : 0 1 : 0 2 : 0 3 : 0 
Heartbeat CPU 0 instructions: 40000001 cycles: 11182615 heartbeat IPC: 3.57645 cumulative IPC: 3.57698 (Simulation time: 0 hr 6 min 33 sec) 
Heartbeat_Variant_0 : 1371 0.334717 per_variant_size: 0 1371 0 0 0 0 0 0 0 
Heartbeat_Variant_1 : 2612 0.637695 per_variant_size: 0 522 2090 0 0 0 0 0 0 
Heartbeat_Variant_2 : 0 0 per_variant_size: 0 0 0 0 0 0 0 0 0 
Heartbeat_Variant_3 : 0 0 per_variant_size: 0 0 0 0 0 0 0 0 0 
Heartbeat_Variant_0_evicts 0 : 5560 1 : 5 2 : 0 3 : 0 
Heartbeat_Variant_1_evicts 0 : 6 1 : 0 2 : 0 3 : 0 
Heartbeat_Variant_2_evicts 0 : 0 1 : 0 2 : 0 3 : 0 
Heartbeat_Variant_3_evicts 0 : 0 1 : 0 2 : 0 3 : 0 
Heartbeat CPU 0 instructions: 50000002 cycles: 13977336 heartbeat IPC: 3.57818 cumulative IPC: 3.57722 (Simulation time: 0 hr 8 min 11 sec) 

Warmup complete CPU 0 instructions: 50000002 cycles: 13977336 (Simulation time: 0 hr 8 min 11 sec) 

Cycle: 20000000 FTQ IN: 57796558 FTQ occupancy: 18.7876 DECODE IN: 57796516 DECODE occupancy: 48.3242 ROB IN: 57796456 ROB occupancy: 296.278 ROB OUT: 57796290
Heartbeat_Variant_0 : 1365 0.333252 per_variant_size: 0 1365 0 0 0 0 0 0 0 
Heartbeat_Variant_1 : 2629 0.641846 per_variant_size: 0 529 2100 0 0 0 0 0 0 
Heartbeat_Variant_2 : 0 0 per_variant_size: 0 0 0 0 0 0 0 0 0 
Heartbeat_Variant_3 : 0 0 per_variant_size: 0 0 0 0 0 0 0 0 0 
Heartbeat_Variant_0_evicts 0 : 5639 1 : 70 2 : 0 3 : 0 
Heartbeat_Variant_1_evicts 0 : 80 1 : 0 2 : 0 3 : 0 
Heartbeat_Variant_2_evicts 0 : 0 1 : 0 2 : 0 3 : 0 
Heartbeat_Variant_3_evicts 0 : 0 1 : 0 2 : 0 3 : 0 
Heartbeat CPU 0 instructions: 60000000 cycles: 21676944 heartbeat IPC: 1.29877 cumulative IPC: 1.29877 (Simulation time: 0 hr 9 min 44 sec) 
Heartbeat_Variant_0 : 1374 0.335449 per_variant_size: 0 1374 0 0 0 0 0 0 0 
Heartbeat_Variant_1 : 2640 0.644531 per_variant_size: 0 504 2136 0 0 0 0 0 0 
Heartbeat_Variant_2 : 0 0 per_variant_size: 0 0 0 0 0 0 0 0 0 
Heartbeat_Variant_3 : 0 0 per_variant_size: 0 0 0 0 0 0 0 0 0 
Heartbeat_Variant_0_evicts 0 : 5659 1 : 259 2 : 0 3 : 0 
Heartbeat_Variant_1_evicts 0 : 253 1 : 0 2 : 0 3 : 0 
Heartbeat_Variant_2_evicts 0 : 0 1 : 0 2 : 0 3 : 0 
Heartbeat_Variant_3_evicts 0 : 0 1 : 0 2 : 0 3 : 0 
Heartbeat CPU 0 instructions: 70000003 cycles: 29370691 heartbeat IPC: 1.29976 cumulative IPC: 1.29926 (Simulation time: 0 hr 11 min 15 sec) 
Cycle: 30000000 FTQ IN: 13029595 FTQ occupancy: 8.62546 DECODE IN: 13029603 DECODE occupancy: 20.3145 ROB IN: 13029663 ROB occupancy: 171.35 ROB OUT: 13029804
Heartbeat_Variant_0 : 1375 0.335693 per_variant_size: 0 1375 0 0 0 0 0 0 0 
Heartbeat_Variant_1 : 2646 0.645996 per_variant_size: 0 518 2128 0 0 0 0 0 0 
Heartbeat_Variant_2 : 0 0 per_variant_size: 0 0 0 0 0 0 0 0 0 
Heartbeat_Variant_3 : 0 0 per_variant_size: 0 0 0 0 0 0 0 0 0 
Heartbeat_Variant_0_evicts 0 : 5740 1 : 123 2 : 0 3 : 0 
Heartbeat_Variant_1_evicts 0 : 123 1 : 0 2 : 0 3 : 0 
Heartbeat_Variant_2_evicts 0 : 0 1 : 0 2 : 0 3 : 0 
Heartbeat_Variant_3_evicts 0 : 0 1 : 0 2 : 0 3 : 0 
Heartbeat CPU 0 instructions: 80000003 cycles: 37036775 heartbeat IPC: 1.30445 cumulative IPC: 1.30099 (Simulation time: 0 hr 12 min 48 sec) 
Cycle: 40000000 FTQ IN: 13077788 FTQ occupancy: 8.84945 DECODE IN: 13077763 DECODE occupancy: 20.7287 ROB IN: 13077762 ROB occupancy: 173.613 ROB OUT: 13077561
Heartbeat_Variant_0 : 1375 0.335693 per_variant_size: 0 1375 0 0 0 0 0 0 0 
Heartbeat_Variant_1 : 2648 0.646484 per_variant_size: 0 506 2142 0 0 0 0 0 0 
Heartbeat_Variant_2 : 0 0 per_variant_size: 0 0 0 0 0 0 0 0 0 
Heartbeat_Variant_3 : 0 0 per_variant_size: 0 0 0 0 0 0 0 0 0 
Heartbeat_Variant_0_evicts 0 : 5639 1 : 110 2 : 0 3 : 0 
Heartbeat_Variant_1_evicts 0 : 110 1 : 0 2 : 0 3 : 0 
Heartbeat_Variant_2_evicts 0 : 0 1 : 0 2 : 0 3 : 0 
Heartbeat_Variant_3_evicts 0 : 0 1 : 0 2 : 0 3 : 0 
Heartbeat CPU 0 instructions: 90000000 cycles: 44642995 heartbeat IPC: 1.31471 cumulative IPC: 1.30439 (Simulation time: 0 hr 14 min 20 sec) 
Cycle: 50000000 FTQ IN: 13021067 FTQ occupancy: 8.89853 DECODE IN: 13021069 DECODE occupancy: 20.9105 ROB IN: 13021070 ROB occupancy: 174.297 ROB OUT: 13020955
Heartbeat_Variant_0 : 1376 0.335938 per_variant_size: 0 1376 0 0 0 0 0 0 0 
Heartbeat_Variant_1 : 2649 0.646729 per_variant_size: 0 491 2158 0 0 0 0 0 0 
Heartbeat_Variant_2 : 0 0 per_variant_size: 0 0 0 0 0 0 0 0 0 
Heartbeat_Variant_3 : 0 0 per_variant_size: 0 0 0 0 0 0 0 0 0 
Heartbeat_Variant_0_evicts 0 : 5656 1 : 83 2 : 0 3 : 0 
Heartbeat_Variant_1_evicts 0 : 83 1 : 0 2 : 0 3 : 0 
Heartbeat_Variant_2_evicts 0 : 0 1 : 0 2 : 0 3 : 0 
Heartbeat_Variant_3_evicts 0 : 0 1 : 0 2 : 0 3 : 0 
Heartbeat CPU 0 instructions: 100000001 cycles: 52346624 heartbeat IPC: 1.29809 cumulative IPC: 1.30313 (Simulation time: 0 hr 15 min 59 sec) 
Finished CPU 0 instructions: 50000003 cycles: 38369289 cumulative IPC: 1.30313 (Simulation time: 0 hr 15 min 59 sec) 

ChampSim completed all CPUs

Region of Interest Statistics

CPU 0 cumulative IPC: 1.30313 instructions: 50000003 cycles: 38369289
 Fetch stage stalled: 64.4743  Sim cycles: 38369289 fetch stall cycle: 24738312
 Empty decode stage: 62.089  Sim cycles: 38369289 fetch stall cycle: 23823094
ITLB TOTAL     ACCESS:    5860674  HIT:    5372336  MISS:     488338  HIT %:    91.6675  MISS %:    8.33245   MPKI: 9.76676
ITLB LOAD TRANSLATION INSTRUCTION	ACCESS:    5744461  HIT:    5256123  MISS:     488338  HIT %:     91.499  MISS %:    8.50102  MPKI: 9.76676
ITLB TRANSLATION FROM L1D PREFETCHER INSTRUCTION	ACCESS:     116213  HIT:     116213  MISS:          0  HIT %:        100  MISS %:          0  MPKI: 0

ITLB AVERAGE MISS LATENCY: 9.05028 cycles
ITLB RQ	ACCESS:    7967352	FORWARD:          0	MERGED:    1701476	TO_CACHE:    6265876

DTLB TOTAL     ACCESS:    9085448  HIT:    8613527  MISS:     471921  HIT %:    94.8057  MISS %:    5.19425   MPKI: 9.43842
DTLB LOAD TRANSLATION DATA	ACCESS:    9085448  HIT:    8613527  MISS:     471921  HIT %:    94.8057  MISS %:    5.19425  MPKI: 9.43842

DTLB AVERAGE MISS LATENCY: 9.33141 cycles
DTLB RQ	ACCESS:   13407901	FORWARD:          0	MERGED:    4285384	TO_CACHE:    9122517

STLB TOTAL     ACCESS:    1220175  HIT:    1218030  MISS:       2145  HIT %:    99.8242  MISS %:   0.175794   MPKI: 0.0429
STLB LOAD TRANSLATION INSTRUCTION	ACCESS:     488338  HIT:     488076  MISS:        262  HIT %:    99.9463  MISS %:  0.0536514  MPKI: 0.00524
STLB LOAD TRANSLATION DATA	ACCESS:     471808  HIT:     469932  MISS:       1876  HIT %:    99.6024  MISS %:   0.397619  MPKI: 0.03752
STLB TRANSLATION FROM L1D PREFETCHER DATA	ACCESS:     260029  HIT:     260022  MISS:          7  HIT %:    99.9973  MISS %: 0.00269201  MPKI: 0.00014

STLB AVERAGE MISS LATENCY: 69.6303 cycles
STLB RQ	ACCESS:    1366724	FORWARD:          0	MERGED:     146510	TO_CACHE:    1220214

STLB Hit, L1D data hit: 0
STLB Hit, L2C data hit: 0
STLB Hit, LLC data hit: 0
STLB Hit, LLC data miss: 0
STLB STLB hints to L2: 0
L1D TOTAL     ACCESS:   13170160  HIT:   12016597  MISS:    1153563  HIT %:    91.2411  MISS %:    8.75891   MPKI: 23.0713
L1D LOAD DATA	ACCESS:    6657471  HIT:    5899518  MISS:     757953  HIT %:     88.615  MISS %:     11.385  MPKI: 15.1591
L1D RFO DATA	ACCESS:    6168892  HIT:    5879347  MISS:     289545  HIT %:    95.3064  MISS %:    4.69363  MPKI: 5.7909
L1D PREFETCH DATA	ACCESS:     343797  HIT:     237732  MISS:     106065  HIT %:    69.1489  MISS %:    30.8511  MPKI: 2.1213

L1D PREFETCH  REQUESTED:     813270  ISSUED:     813270  USEFUL:      48829  USELESS:      69981
L1D USEFUL LOAD PREFETCHES:      48829 PREFETCH ISSUED TO LOWER LEVEL:     118820  ACCURACY: 41.0949
 TIMELY PREFETCHES:      48829 LATE PREFETCHES: 12718 DROPPED PREFETCHES: 4
L1D AVERAGE MISS LATENCY: 366944 cycles
L1D RQ	ACCESS:   10753841	FORWARD:          0	MERGED:    3901051	TO_CACHE:    6692945
L1D WQ	ACCESS:    6902088	FORWARD:     160185	MERGED:     187132	TO_CACHE:    6714956
L1D PQ	ACCESS:     406805	FORWARD:          0	MERGED:          0	TO_CACHE:     406465

L1D UNIQUE REGIONS ACCESSED: 0
L1D REGIONS CONFLICTS: 0
L1D Cross Page Prefetch Requests: 6149
L1D Same Page Prefetch Requests: 818386
L1D ROI Sum of L1D PQ occupancy: 5174705
L1D PREFETCHES PUSHED FROM L2C: 0
L1I TOTAL     ACCESS:    7209597  HIT:    4476390  MISS:    2733207  HIT %:    62.0893  MISS %:    37.9107   MPKI: 54.6641
L1I LOAD INSTRUCTION	ACCESS:    6563701  HIT:    3830494  MISS:    2733207  HIT %:    58.3588  MISS %:    41.6412  MPKI: 54.6641
L1I PREFETCH INSTRUCTION	ACCESS:     645896  HIT:     645896  MISS:          0  HIT %:        100  MISS %:          0  MPKI: 0

L1I PREFETCH  REQUESTED:    1536614  ISSUED:    1536614  USEFUL:          0  USELESS:          0
L1I USEFUL LOAD PREFETCHES:          0 PREFETCH ISSUED TO LOWER LEVEL:          0  ACCURACY: -nan
 TIMELY PREFETCHES:          0 LATE PREFETCHES: 0 DROPPED PREFETCHES: 0
L1I AVERAGE MISS LATENCY: 17.7126 cycles
L1I RQ	ACCESS:    9447343	FORWARD:          0	MERGED:    2588596	TO_CACHE:    6858747
L1I PQ	ACCESS:    1536614	FORWARD:          0	MERGED:     428009	TO_CACHE:    1108605

L1BTB TOTAL     ACCESS:    5679715  HIT:    2087148  MISS:    3592567  HIT %:    36.7474  MISS %:    63.2526   MPKI: 71.8513
L1BTB BRANCH_DIRECT_JUMP	ACCESS:     545897 HIT:     145057 MISS:     400840 AVERAGE STALL: 32.0304 AVERAGE FETCH STALL: 14.09 AVERAGE FETCH QUEUE STALL: 6.27502 AVERAGE DECODE STALL: 10.7314 AVERAGE EXECUTE STALL: 2.19813e+15
L1BTB BRANCH_INDIRECT	ACCESS:     182492 HIT:      66218 MISS:     116274 AVERAGE STALL: 79.3322 AVERAGE FETCH STALL: 11.2391 AVERAGE FETCH QUEUE STALL: 7.66783 AVERAGE DECODE STALL: 8.07935 AVERAGE EXECUTE STALL: 51.3853
L1BTB BRANCH_CONDITIONAL	ACCESS:    2745594 HIT:    1464407 MISS:    1281187 AVERAGE STALL: 42.316 AVERAGE FETCH STALL: 19.1063 AVERAGE FETCH QUEUE STALL: 13.0874 AVERAGE DECODE STALL: 9.41895 AVERAGE EXECUTE STALL: 3.37482e+15
L1BTB BRANCH_DIRECT_CALL	ACCESS:     933080 HIT:     103400 MISS:     829680 AVERAGE STALL: 47.6352 AVERAGE FETCH STALL: 26.2268 AVERAGE FETCH QUEUE STALL: 12.7817 AVERAGE DECODE STALL: 7.9474 AVERAGE EXECUTE STALL: 1.04337e+16
L1BTB BRANCH_INDIRECT_CALL	ACCESS:     169785 HIT:      20867 MISS:     148918 AVERAGE STALL: 105.015 AVERAGE FETCH STALL: 13.0397 AVERAGE FETCH QUEUE STALL: 7.62135 AVERAGE DECODE STALL: 7.89774 AVERAGE EXECUTE STALL: 75.972
L1BTB BRANCH_RETURN	ACCESS:    1102867 HIT:     287199 MISS:     815668 AVERAGE STALL: 40.8334 AVERAGE FETCH STALL: 16.9823 AVERAGE FETCH QUEUE STALL: 4.29976 AVERAGE DECODE STALL: 5.34725 AVERAGE EXECUTE STALL: 4.38227e+14
L1BTB BRANCH_OTHER ACCESS:          0 HIT:          0 MISS:          0 AVERAGE STALL: -nan AVERAGE FETCH STALL: -nan AVERAGE FETCH QUEUE STALL: -nan AVERAGE DECODE STALL: -nan AVERAGE EXECUTE STALL: -nan
L1BTB TOTAL ROB OCCUPANCY AT BTB MISS: 1.88984

L2BTB TOTAL     ACCESS:    3567130  HIT:    3501957  MISS:      65173  HIT %:     98.173  MISS %:    1.82704   MPKI: 1.30346
L2BTB BRANCH_DIRECT_JUMP	ACCESS:     396599 HIT:     392442 MISS:       4157 AVERAGE STALL: 32.0304 AVERAGE FETCH STALL: 14.09 AVERAGE FETCH QUEUE STALL: 6.27502 AVERAGE DECODE STALL: 10.7314 AVERAGE EXECUTE STALL: 2.19813e+15
L2BTB BRANCH_INDIRECT	ACCESS:     106056 HIT:     103344 MISS:       2712 AVERAGE STALL: 79.3322 AVERAGE FETCH STALL: 11.2391 AVERAGE FETCH QUEUE STALL: 7.66783 AVERAGE DECODE STALL: 8.07935 AVERAGE EXECUTE STALL: 51.3853
L2BTB BRANCH_CONDITIONAL	ACCESS:    1281187 HIT:    1275663 MISS:       5524 AVERAGE STALL: 42.316 AVERAGE FETCH STALL: 19.1063 AVERAGE FETCH QUEUE STALL: 13.0874 AVERAGE DECODE STALL: 9.41895 AVERAGE EXECUTE STALL: 3.37482e+15
L2BTB BRANCH_DIRECT_CALL	ACCESS:     829680 HIT:     827890 MISS:       1790 AVERAGE STALL: 47.6352 AVERAGE FETCH STALL: 26.2268 AVERAGE FETCH QUEUE STALL: 12.7817 AVERAGE DECODE STALL: 7.9474 AVERAGE EXECUTE STALL: 1.04337e+16
L2BTB BRANCH_INDIRECT_CALL	ACCESS:     139326 HIT:     129064 MISS:      10262 AVERAGE STALL: 105.015 AVERAGE FETCH STALL: 13.0397 AVERAGE FETCH QUEUE STALL: 7.62135 AVERAGE DECODE STALL: 7.89774 AVERAGE EXECUTE STALL: 75.972
L2BTB BRANCH_RETURN	ACCESS:     814282 HIT:     773554 MISS:      40728 AVERAGE STALL: 40.8334 AVERAGE FETCH STALL: 16.9823 AVERAGE FETCH QUEUE STALL: 4.29976 AVERAGE DECODE STALL: 5.34725 AVERAGE EXECUTE STALL: 4.38227e+14
L2BTB BRANCH_OTHER ACCESS:          0 HIT:          0 MISS:          0 AVERAGE STALL: -nan AVERAGE FETCH STALL: -nan AVERAGE FETCH QUEUE STALL: -nan AVERAGE DECODE STALL: -nan AVERAGE EXECUTE STALL: -nan
L2BTB TOTAL ROB OCCUPANCY AT BTB MISS: 104.175

L2C TOTAL     ACCESS:    4508457  HIT:    3948789  MISS:     559668  HIT %:    87.5863  MISS %:    12.4137   MPKI: 11.1934
L2C LOAD INSTRUCTION	ACCESS:    2733207  HIT:    2426818  MISS:     306389  HIT %:    88.7901  MISS %:    11.2099  MPKI: 6.12778
L2C LOAD TRANSLATION INSTRUCTION	ACCESS:        290  HIT:         66  MISS:        224  HIT %:    22.7586  MISS %:    77.2414  MPKI: 0.00448
L2C LOAD DATA	ACCESS:     745198  HIT:     652211  MISS:      92987  HIT %:    87.5218  MISS %:    12.4782  MPKI: 1.85974
L2C RFO DATA	ACCESS:     289484  HIT:     231242  MISS:      58242  HIT %:    79.8808  MISS %:    20.1192  MPKI: 1.16484
L2C PREFETCH DATA	ACCESS:     214358  HIT:     127614  MISS:      86744  HIT %:    59.5331  MISS %:    40.4669  MPKI: 1.73488
L2C WRITEBACK DATA	ACCESS:     523957  HIT:     510249  MISS:      13708  HIT %:    97.3838  MISS %:    2.61625  MPKI: 0.27416
L2C LOAD TRANSLATION DATA	ACCESS:       1946  HIT:        580  MISS:       1366  HIT %:    29.8047  MISS %:    70.1953  MPKI: 0.02732
L2C TRANSLATION FROM L1D PREFETCHER DATA	ACCESS:         17  HIT:          9  MISS:          8  HIT %:    52.9412  MISS %:    47.0588  MPKI: 0.00016

L2C PREFETCH  REQUESTED:     103686  ISSUED:     103686  USEFUL:       8836  USELESS:      78486
L2C USEFUL LOAD PREFETCHES:       8836 PREFETCH ISSUED TO LOWER LEVEL:      87179  ACCURACY: 10.1355
 TIMELY PREFETCHES:       8836 LATE PREFETCHES: 435 DROPPED PREFETCHES: 0
L2C AVERAGE MISS LATENCY: 38.0767 cycles
L2C RQ	ACCESS:    3770204	FORWARD:          0	MERGED:          0	TO_CACHE:    3770143
L2C WQ	ACCESS:     523957	FORWARD:         61	MERGED:          0	TO_CACHE:     523957
L2C PQ	ACCESS:     222506	FORWARD:          0	MERGED:       3228	TO_CACHE:     219278

L2C Dense regions hint from L2: 0
PSCL5 TOTAL     ACCESS:       4300  HIT:       2150  MISS:       2150  HIT %:         50  MISS %:         50   MPKI: 0.043
PSCL5 LOAD TRANSLATION INSTRUCTION	ACCESS:       4266  HIT:       2133  MISS:       2133  HIT %:         50  MISS %:         50  MPKI: 0.04266
PSCL5 TRANSLATION FROM L1D PREFETCHER INSTRUCTION	ACCESS:         34  HIT:         17  MISS:         17  HIT %:         50  MISS %:         50  MPKI: 0.00034


PSCL4 TOTAL     ACCESS:       4154  HIT:       2074  MISS:       2080  HIT %:    49.9278  MISS %:    50.0722   MPKI: 0.0416
PSCL4 LOAD TRANSLATION INSTRUCTION	ACCESS:       2950  HIT:       2057  MISS:        893  HIT %:    69.7288  MISS %:    30.2712  MPKI: 0.01786
PSCL4 TRANSLATION FROM L1D PREFETCHER INSTRUCTION	ACCESS:         29  HIT:         17  MISS:         12  HIT %:    58.6207  MISS %:    41.3793  MPKI: 0.00024
PSCL4 LOAD TRANSLATION DATA	ACCESS:       1170  HIT:          0  MISS:       1170  HIT %:          0  MISS %:        100  MPKI: 0.0234
PSCL4 TRANSLATION FROM L1D PREFETCHER DATA	ACCESS:          5  HIT:          0  MISS:          5  HIT %:          0  MISS %:        100  MPKI: 0.0001


PSCL3 TOTAL     ACCESS:       4242  HIT:       2118  MISS:       2124  HIT %:    49.9293  MISS %:    50.0707   MPKI: 0.04248
PSCL3 LOAD TRANSLATION INSTRUCTION	ACCESS:       2994  HIT:       2101  MISS:        893  HIT %:    70.1737  MISS %:    29.8263  MPKI: 0.01786
PSCL3 TRANSLATION FROM L1D PREFETCHER INSTRUCTION	ACCESS:         29  HIT:         17  MISS:         12  HIT %:    58.6207  MISS %:    41.3793  MPKI: 0.00024
PSCL3 LOAD TRANSLATION DATA	ACCESS:       1214  HIT:          0  MISS:       1214  HIT %:          0  MISS %:        100  MPKI: 0.02428
PSCL3 TRANSLATION FROM L1D PREFETCHER DATA	ACCESS:          5  HIT:          0  MISS:          5  HIT %:          0  MISS %:        100  MPKI: 0.0001


PSCL2 TOTAL     ACCESS:       4209  HIT:       2059  MISS:       2150  HIT %:     48.919  MISS %:     51.081   MPKI: 0.043
PSCL2 LOAD TRANSLATION INSTRUCTION	ACCESS:       2302  HIT:       2042  MISS:        260  HIT %:    88.7055  MISS %:    11.2945  MPKI: 0.0052
PSCL2 TRANSLATION FROM L1D PREFETCHER INSTRUCTION	ACCESS:         17  HIT:         17  MISS:          0  HIT %:        100  MISS %:          0  MPKI: 0
PSCL2 LOAD TRANSLATION DATA	ACCESS:       1873  HIT:          0  MISS:       1873  HIT %:          0  MISS %:        100  MPKI: 0.03746
PSCL2 TRANSLATION FROM L1D PREFETCHER DATA	ACCESS:         17  HIT:          0  MISS:         17  HIT %:          0  MISS %:        100  MPKI: 0.00034


LLC TOTAL     ACCESS:     626246  HIT:     595854  MISS:      30392  HIT %:     95.147  MISS %:    4.85304   MPKI: 0.60784
LLC LOAD INSTRUCTION	ACCESS:     306389  HIT:     305301  MISS:       1088  HIT %:    99.6449  MISS %:   0.355104  MPKI: 0.02176
LLC LOAD TRANSLATION INSTRUCTION	ACCESS:        224  HIT:        206  MISS:         18  HIT %:    91.9643  MISS %:    8.03571  MPKI: 0.00036
LLC LOAD DATA	ACCESS:      92562  HIT:      89049  MISS:       3513  HIT %:    96.2047  MISS %:    3.79529  MPKI: 0.07026
LLC RFO DATA	ACCESS:      58227  HIT:      42895  MISS:      15332  HIT %:    73.6686  MISS %:    26.3314  MPKI: 0.30664
LLC PREFETCH DATA	ACCESS:      87177  HIT:      77181  MISS:       9996  HIT %:    88.5337  MISS %:    11.4663  MPKI: 0.19992
LLC WRITEBACK DATA	ACCESS:      80293  HIT:      79919  MISS:        374  HIT %:    99.5342  MISS %:   0.465794  MPKI: 0.00748
LLC LOAD TRANSLATION DATA	ACCESS:       1366  HIT:       1295  MISS:         71  HIT %:    94.8023  MISS %:    5.19766  MPKI: 0.00142
LLC TRANSLATION FROM L1D PREFETCHER DATA	ACCESS:          8  HIT:          8  MISS:          0  HIT %:        100  MISS %:          0  MPKI: 0

LLC AVERAGE MISS LATENCY: 160.512 cycles
LLC RQ	ACCESS:     458781	FORWARD:          0	MERGED:          0	TO_CACHE:     458776
LLC WQ	ACCESS:      80293	FORWARD:          7	MERGED:          0	TO_CACHE:      80293
LLC PQ	ACCESS:      87179	FORWARD:          0	MERGED:          0	TO_CACHE:      87177

LLC Dense regions hint to LLC: 0

RAW hits: 1859351
Loads Generated: 12613192
Loads sent to L1D: 10753841
Stores Generated: 6902078
Stores sent to L1D: 6902088
Major fault: 0 Minor fault: 2519
Allocated PAGES: 2519

stream: 
stream:times selected: 1262057
stream:pref_filled: 126711
stream:pref_useful: 28910
stream:pref_late: 9200
stream:misses: 10503
stream:misses_by_poll: 0

CS: 
CS:times selected: 200151
CS:pref_filled: 73980
CS:pref_useful: 50355
CS:pref_late: 9233
CS:misses: 24092
CS:misses_by_poll: 13

CPLX: 
CPLX:times selected: 1060788
CPLX:pref_filled: 24825
CPLX:pref_useful: 7345
CPLX:pref_late: 3934
CPLX:misses: 128139
CPLX:misses_by_poll: 0

NL_L1: 
NL:times selected: 12995
NL:pref_filled: 1309
NL:pref_useful: 328
NL:pref_late: 400
NL:misses: 2030
NL:misses_by_poll: 0

total selections: 2535991
total_filled: 106065
total_useful: 48829
total_late: 25239
total_polluted: 13
total_misses_after_warmup: 793431
conflicts: 5527763

test: 119495

DRAM Statistics
 CHANNEL 0
 RQ ROW_BUFFER_HIT:      11249  ROW_BUFFER_MISS:      18746
 DBUS_CONGESTED:          4
 WQ ROW_BUFFER_HIT:       1431  ROW_BUFFER_MISS:      13073  FULL:          0

 AVG_CONGESTED_CYCLE: 4

CPU 0 Branch Prediction Accuracy: 99.8159% MPKI: 0.33676 Average ROB Occupancy at Mispredict: 157.408
Branch types
NOT_BRANCH: 40852230 81.7045%
BRANCH_DIRECT_JUMP: 545897 1.09179%
BRANCH_INDIRECT: 182492 0.364984%
BRANCH_CONDITIONAL: 6213381 12.4268%
BRANCH_DIRECT_CALL: 933080 1.86616%
BRANCH_INDIRECT_CALL: 169785 0.33957%
BRANCH_RETURN: 1102867 2.20573%
BRANCH_OTHER: 0 0%

DRAM PAGES: 1048576
Allocated PAGES: 2519
Average_ROB_Occupancy: 174.607
Average_Decode_Occupancy: 20.7169
Average_FTQ_Occupancy: 8.81874
Indirect max targets: 14 Average targets: 1.14966
Branch_type:  BRANCH_DIRECT_JUMP:  Count Percentage: 3.34064 6.03018 5.05481 3.7701 7.05164 12.6717 1.71966 60.3613 
Branch_type:  BRANCH_INDIRECT:  Count Percentage: 13.7595 3.48771 2.61448 3.70074 9.68449 19.2475 3.18064 44.325 
Branch_type:  BRANCH_CONDITIONAL:  Count Percentage: 22.3692 3.02308 1.73763 2.83677 4.69583 15.0909 0.984972 49.2616 
Branch_type:  BRANCH_DIRECT_CALL:  Count Percentage: 0.709739 1.25073 1.05329 2.19371 4.41696 4.87799 0.889676 84.6079 
Branch_type:  BRANCH_INDIRECT_CALL:  Count Percentage: 9.52131 0 2.982 4.24485 0 5.40074 0.999289 76.8518 
Branch_type:  BRANCH_RETURN:  Count Percentage: 4.44096 1.39665 1.94875 3.31218 7.13352 15.8582 1.38575 64.524 
Branch_type:  BRANCH_DIRECT_JUMP:  Total Count: 36459 65812 55167 41146 76960 138296 18768 658769 
Branch_type:  BRANCH_INDIRECT:  Total Count: 50186 12721 9536 13498 35323 70203 11601 161670 
Branch_type:  BRANCH_CONDITIONAL:  Total Count: 2778771 375535 215853 352392 583329 1874629 122356 6119418 
Branch_type:  BRANCH_DIRECT_CALL:  Total Count: 13261 23369 19680 40988 82528 91142 16623 1580843 
Branch_type:  BRANCH_INDIRECT_CALL:  Total Count: 32405 0 10149 14447 0 18381 3401 261559 
Branch_type:  BRANCH_RETURN:  Total Count: 98126 30860 43059 73185 157620 350398 30619 1425702 
Number of unique branch instructions: 9864
Upper 32 bits: 
aaaa
ffff
ffff0000
Unique upper 32 bits: 3
Unique upper 36 bits: 3
Unique upper 40 bits: 5
Unique upper 44 bits: 32
Unique upper 48 bits: 154
Variant_0 : 1376 0.335938
Variant_1 : 2649 0.646729
Variant_2 : 0 0
Variant_3 : 0 0
Offset_3 4071
Offset_4 244
Offset_5 452
Offset_6 498
Offset_7 576
Offset_8 505
Offset_9 468
Offset_10 377
Offset_11 318
Offset_12 271
Offset_13 199
Offset_14 227
Offset_15 184
Offset_16 224
Offset_17 142
Offset_18 121
Offset_19 234
Offset_20 137
Offset_21 235
Offset_22 393
Offset_23 241
Offset_24 326
Offset_25 88
Offset_47 80
Offset_64 2
decode_dispatch_called: 21762408 56.7183
Dispatch_width: 0 11247017 51.6809 29.3125
Dispatch_width: 1 669066 3.07441 1.74375
Dispatch_width: 2 695221 3.1946 1.81192
Dispatch_width: 3 450488 2.07003 1.17408
Dispatch_width: 4 2666995 12.2551 6.95086
Dispatch_width: 5 280827 1.29042 0.731906
Dispatch_width: 6 5752794 26.4345 14.9932
Empty_decode_cycles: 16606881 43.2817
ROB_full_cycles: 4081734 10.638
Starvation_cycles_per_kilo_instr: 285.348
Starvation_cycles_per_kilo_instr_3: 255.869
Starvation_cycles_per_kilo_instr_0: 237.722
Branch_type_1  (3,1)  (4,9)  (5,37)  (6,68)  (7,113)  (8,129)  (9,124)  (10,97)  (11,70)  (12,44)  (13,5)  (14,2)  (15,3)  (16,4)  (18,1)  (19,4)  (20,2)  (21,1)  (22,3)  (23,2)  (24,10)  (25,12) 
Branch_type_2  (3,1)  (5,1)  (8,3)  (9,3)  (12,1)  (13,1)  (14,1)  (16,3)  (17,2)  (20,2)  (21,2)  (23,5)  (24,1)  (47,36) 
Branch_type_3  (3,4069)  (4,235)  (5,410)  (6,415)  (7,434)  (8,313)  (9,258)  (10,153)  (11,133)  (12,51)  (13,4)  (64,1) 
Branch_type_4  (6,3)  (7,8)  (8,25)  (9,51)  (10,60)  (11,59)  (12,96)  (13,86)  (14,100)  (15,86)  (16,100)  (17,63)  (18,55)  (19,115)  (20,71)  (21,124)  (22,209)  (23,136)  (24,187)  (25,72)  (64,1) 
Branch_type_5  (8,2)  (9,1)  (10,3)  (11,5)  (12,3)  (13,14)  (14,16)  (15,11)  (16,20)  (17,11)  (18,16)  (19,12)  (20,10)  (21,13)  (22,42)  (23,26)  (24,37) 
Branch_type_6  (5,4)  (6,12)  (7,21)  (8,33)  (9,31)  (10,64)  (11,51)  (12,76)  (13,89)  (14,108)  (15,84)  (16,97)  (17,66)  (18,49)  (19,103)  (20,52)  (21,95)  (22,139)  (23,72)  (24,91)  (25,4)  (47,44) 
Unique trigger count: 
Variant_0_evicts_0 : 0
Variant_0_evicts_1 : 0
Variant_0_evicts_2 : 0
Variant_0_evicts_3 : 0
Variant_1_evicts_0 : 0
Variant_1_evicts_1 : 0
Variant_1_evicts_2 : 0
Variant_1_evicts_3 : 0
Variant_2_evicts_0 : 0
Variant_2_evicts_1 : 0
Variant_2_evicts_2 : 0
Variant_2_evicts_3 : 0
Variant_3_evicts_0 : 0
Variant_3_evicts_1 : 0
Variant_3_evicts_2 : 0
Variant_3_evicts_3 : 0
BTB PER SET UNIQUE ADDR: 12 13 10 8 13 13 12 10 7 12 9 12 11 12 9 9 7 9 11 9 9 9 12 15 8 12 8 12 9 11 12 11 11 8 7 8 8 14 9 10 12 11 10 12 8 12 9 10 4 10 9 10 8 8 12 7 11 11 9 15 13 12 12 10 8 13 9 6 10 5 15 9 11 9 8 10 6 12 10 14 9 8 14 13 9 14 17 11 6 12 8 6 8 11 8 13 8 9 14 18 10 14 12 9 10 9 6 13 6 7 10 12 9 8 6 7 11 9 11 5 11 7 9 9 10 8 5 10 13 11 7 17 12 13 8 11 8 8 10 11 6 7 10 8 10 7 8 7 6 5 11 7 7 9 9 8 15 11 11 9 11 8 12 14 12 13 10 9 10 8 10 9 10 7 14 9 10 9 11 10 8 9 10 8 14 15 5 8 9 8 10 11 7 14 10 7 7 14 8 9 10 11 12 7 10 7 12 11 10 16 9 12 8 11 10 11 12 8 10 16 6 11 6 10 10 12 13 9 9 12 9 8 8 11 9 9 12 9 10 10 10 8 12 10 9 9 8 8 12 11 10 10 16 10 12 11 5 7 11 8 11 8 7 10 10 7 9 11 10 8 11 10 10 8 7 6 7 10 7 8 9 11 8 8 13 8 9 12 13 14 7 7 13 11 7 8 9 7 13 8 8 11 7 14 11 12 8 10 12 9 7 13 8 16 14 9 10 14 11 12 5 10 12 12 13 12 8 10 10 8 11 12 11 9 11 8 8 11 7 11 10 9 7 11 10 10 6 11 13 9 9 10 12 12 10 9 11 9 7 9 9 10 7 14 8 11 7 6 9 8 9 10 9 13 11 11 10 16 10 13 13 9 9 11 8 10 11 18 10 10 12 9 12 15 7 9 7 10 13 10 8 9 7 17 13 10 9 10 11 8 14 8 9 14 11 9 12 7 12 15 12 9 10 12 12 11 8 12 13 13 11 12 10 9 9 13 13 11 9 10 10 12 12 7 15 10 9 11 8 10 9 15 11 10 12 15 12 13 7 9 11 10 11 7 9 7 9 11 10 11 13 14 12 7 12 10 9 12 6 8 13 11 9 13 8 10 12 10 14 11 10 8 9 7 9 10 11 10 9 11 8 14 10 18 9 7 10 9 15 11 10 13 10 10 11 9 10 12 8 9 6 7 13 8 12 11 15 8 8 16 11 12 11 11 10 7 6 12 11 10 10 9 10 11 16 11 8 18 7 12 13 12 12 10 10 14 12 7 10 12 8 12 9 10 11 14 7 16 12 14 13 11 12 14 9 13 13 13 9 10 11 11 9 7 12 6 8 11 8 10 8 9 11 7 11 8 14 11 10 8 12 10 8 6 5 10 13 8 11 10 13 10 9 7 5 12 9 14 7 15 12 7 7 7 11 15 10 14 11 12 9 8 9 13 12 8 9 9 9 12 14 10 10 16 9 10 10 13 13 7 11 8 8 6 11 11 8 13 7 8 14 7 12 16 10 13 9 9 11 11 13 11 10 12 16 11 10 10 9 13 7 8 13 11 9 12 9 9 10 10 8 9 9 5 10 10 10 11 6 14 11 12 11 9 6 14 11 10 8 11 10 11 10 10 7 8 11 11 10 12 10 10 13 7 8 14 12 8 6 10 11 9 13 7 8 14 17 10 12 9 9 11 15 10 9 10 9 10 9 10 13 12 10 8 7 8 16 7 6 6 10 7 6 12 10 13 9 10 12 9 9 6 7 6 9 6 12 10 12 9 7 12 12 8 11 8 8 11 12 8 7 7 13 10 12 10 9 11 10 9 14 11 10 12 12 9 11 13 12 10 7 17 12 14 12 11 11 14 7 13 6 13 5 9 12 9 10 9 8 15 10 13 9 11 9 11 13 8 9 7 16 12 6 8 9 11 10 12 10 9 10 9 6 14 12 10 8 11 13 10 11 5 10 7 11 9 8 8 10 10 8 14 10 11 14 6 11 10 6 13 8 6 9 8 10 9 8 13 11 8 13 8 16 9 7 12 11 13 10 10 12 9 8 14 7 8 11 9 12 9 7 13 11 13 13 10 12 11 8 10 14 12 10 9 7 9 8 12 10 7 8 14 12 10 7 12 8 13 13 11 6 9 9 7 12 11 12 11 11 11 8 14 8 12 8 11 8 9 12 9 16 12 10 9 8 6 12 7 9 10 12 7 9 7 10 9 14 12 11 10 10 12 8 8 9 15 12 10 12 10 10 15 10 14 10 7 8 9 11 9 13 11 6 8 12 10 7 11 7 12 8 10 9 9 8 8 5 12 5 8 10 12 11 6 
BTB PER SET COUNT: 781 14 1966 8 1216 20 1462 12 1457 14 11 13 52 13 14 11 10 10 14 10 10 13 515 19 8 15 9 12 9 13 17 12 15 10 10 509 8 17 11 14 18 13 13 15 8 14 17 11 4 10 10 11 9 8 16 388 15 13 70 20 13 17 20 13 9 20 14 6 11 5 1473 9 13 11 8 10 8 266 18 16 15 12 16 14 13 20 23 14 270 29 11 6 8 17 10 16 1139 12 16 4735 10 27 18 11 11 9 7 19 6 9 12 18 12 9 8 1080 13 12 1474 9 13 8 12 12 12 10 5 12 15 1015 7 3066 147 17 8 12 642 13 14 15 6 8 12 11 12 9 11 7 6 5 12 283 902 13 11 11 20 13 13 184 11 222 15 20 231 20 14 9 10 1838 13 12 11 9 17 913 11 12 153 13 10 214 18 8 443 663 7 10 11 8 14 17 7 20 15 7 10 1247 12 10 10 16 969 7 15 7 13 14 957 577 14 15 9 96 12 821 14 8 2012 22 8 14 430 10 20 16 14 9 626 17 12 9 8 15 10 14 13 11 14 12 11 12 14 379 11 9 8 11 13 12 10 12 24 13 14 17 79 12 16 16 13 9 7 516 12 7 12 16 466 9 16 14 13 9 9 6 7 10 7 12 23 17 603 1014 18 9 9 16 15 16 8 8 18 946 7 8 16 7 17 170 8 11 7 22 12 141 12 12 101 1016 958 16 13 21 1971 1014 13 20 15 23 5 2910 17 16 1464 13 10 13 17 8 12 17 60 9 19 14 12 610 9 14 12 1125 10 15 16 10 6 13 16 102 9 921 16 14 12 10 12 14 7 11 9 10 10 20 10 1955 7 6 16 9 10 15 11 400 15 11 12 24 13 551 197 11 941 11 8 12 12 32 12 273 16 11 13 1713 9 60 7 11 1153 14 13 9 7 30 17 14 13 824 17 8 1317 10 9 984 12 9 17 20314 328 17 17 10 22 17 13 14 10 14 22 15 13 13 13 10 13 30 15 392 9 13 608 12 38 7 1235 1248 597 18 8 13 9 15 20 18 13 253 20 19 8 10 14 126 15 7 9 54 13 12 12 14 17 14 18 7 16 11 13 19 6 13 18 20 9 15 10 10 18 11 230 15 76 11 3474 8 10 13 896 11 11 12 8 17 12 25 15 8 11 13 22 15 326 27 12 269 11 13 27 13 14 9 6 8 18 8 14 11 2569 1464 9 1813 16 18 482 12 13 7 8 48 24 728 12 11 30 16 21 13 8 28 10 14 15 16 12 257 11 18 14 10 14 41 10 105 9 17 17 24 72 21 16 21 15 15 17 17 14 19 14 15 11 16 12 12 10 2907 12 9 1003 20 12 13 9 23 15 9 11 12 1145 11 264 8 25 15 10 6 5 14 18 963 15 12 18 16 569 7 5 18 9 18 9 371 13 11 14 7 14 16 14 23 552 963 10 14 16 148 23 10 12 1012 9 15 18 13 11 152 2024 12 81 15 614 7 17 12 10 6 13 519 11 17 7 678 398 7 14 26 13 15 12 1472 1465 23 13 13 977 17 861 519 11 14 13 17 7 8 382 17 1970 12 11 10 13 14 12 9 9 5 1990 18 13 206 6 15 610 21 14 13 8 449 21 16 10 12 391 14 1251 12 7 122 1363 16 11 55 12 86 16 1459 8 15 14 9 1009 16 64 7200 15 8 8 21 361 18 26 14 11 21 124 10 507 10 1002 10 12 17 17 16 18 9 8 8 18 1456 6 6 12 8 6 14 2881 19 9 13 14 143 10 11 7 6 13 8 13 14 17 9 2033 13 872 9 18 9 11 14 14 9 7 8 14 11 205 14 202 16 12 286 17 15 12 260 462 11 14 18 18 28 12 190 14 20 15 243 961 225 7 15 6 1067 7 11 15 9 19 10 9 21 11 15 11 21 434 17 24 8 10 7 21 41 6 8 2577 11 180 14 12 7241 22 253 6 20 46 10 11 18 19 10 24 6 629 7 1018 10 10 12 11 14 12 41 12 13 21 6 19 11 6 22 11 6 108 11 513 12 8 24 13 9 15 1512 1380 15 7 16 14 17 15 11 21 11 8 365 7 11 11 13 129 13 509 772 15 16 17 229 17 973 9 12 20 16 14 10 7 12 14 12 12 9 10 19 12 11 9 150 9 17 17 18 8 901 12 10 12 12 14 15 20 13 9 965 9 897 10 19 8 9 14 16 26 24 10 10 9 6 1464 7 44 138 34 8 13 7 13 9 19 14 91 11 13 16 9 151 12 582 1712 15 16 16 18 850 11 999 1462 7 8 1460 19 11 13 20 6 9 17 11 8 16 9 15 515 10 10 9 8 10 8 45 5 9 13 543 12 6 
To predecode: 0
Predecoding something: 0
Predecode request dropped: 0
sizeofblock_0 0
sizeofblock_1 53834
sizeofblock_2 83441
sizeofblock_3 0
sizeofblock_4 0
sizeofblock_5 0
sizeofblock_6 0
sizeofblock_7 0
sizeofblock_8 0
Variant_0 Correct: 1598943 Incorrect: 0 Accuracy: 1
Variant_1 Correct: 5679662 Incorrect: 0 Accuracy: 1
Variant_2 Correct: 0 Incorrect: 0 Accuracy: -nan
Variant_3 Correct: 0 Incorrect: 0 Accuracy: -nan
