
*** ChampSim Multicore Out-of-Order Simulator ***

Warmup Instructions: 50000000
Simulation Instructions: 50000000
Number of CPUs: 1
LLC sets: 2048
LLC ways: 16
Off-chip DRAM Size: 4096 MB Channels: 1 Width: 64-bit Data Rate: 6400 MT/s
CPU 0 runs ./micro_traces/srv5.trace.gz
.gz
ITLB has LRU replacement policy
DTLB has LRU replacement policy
STLB has LRU replacement policy
FDIP Prefetcher at L1I
L1I has LRU replacement policy
L1D has LRU replacement policy
Initialize SRRIP state for L2C
Initialize DRRIP state for LLC
Heartbeat_Variant_0 : 1338 0.32666 per_variant_size: 0 1338 0 0 0 0 0 0 0 
Heartbeat_Variant_1 : 1221 0.298096 per_variant_size: 0 564 657 0 0 0 0 0 0 
Heartbeat_Variant_2 : 1322 0.322754 per_variant_size: 0 542 364 212 204 0 0 0 0 
Heartbeat_Variant_3 : 0 0 per_variant_size: 0 0 0 0 0 0 0 0 0 
Heartbeat_Variant_0_evicts 0 : 5875 1 : 286 2 : 331 3 : 0 
Heartbeat_Variant_1_evicts 0 : 279 1 : 0 2 : 481 3 : 0 
Heartbeat_Variant_2_evicts 0 : 309 1 : 477 2 : 0 3 : 0 
Heartbeat_Variant_3_evicts 0 : 0 1 : 0 2 : 0 3 : 0 
Heartbeat CPU 0 instructions: 10000002 cycles: 2797428 heartbeat IPC: 3.57471 cumulative IPC: 3.57471 (Simulation time: 0 hr 1 min 47 sec) 
Heartbeat_Variant_0 : 1359 0.331787 per_variant_size: 0 1359 0 0 0 0 0 0 0 
Heartbeat_Variant_1 : 1236 0.301758 per_variant_size: 0 537 699 0 0 0 0 0 0 
Heartbeat_Variant_2 : 1339 0.326904 per_variant_size: 0 522 380 215 222 0 0 0 0 
Heartbeat_Variant_3 : 0 0 per_variant_size: 0 0 0 0 0 0 0 0 0 
Heartbeat_Variant_0_evicts 0 : 5778 1 : 98 2 : 120 3 : 0 
Heartbeat_Variant_1_evicts 0 : 98 1 : 0 2 : 288 3 : 0 
Heartbeat_Variant_2_evicts 0 : 111 1 : 292 2 : 0 3 : 0 
Heartbeat_Variant_3_evicts 0 : 0 1 : 0 2 : 0 3 : 0 
Heartbeat CPU 0 instructions: 20000002 cycles: 5594390 heartbeat IPC: 3.57531 cumulative IPC: 3.57501 (Simulation time: 0 hr 3 min 26 sec) 
Heartbeat_Variant_0 : 1361 0.332275 per_variant_size: 0 1361 0 0 0 0 0 0 0 
Heartbeat_Variant_1 : 1246 0.304199 per_variant_size: 0 545 701 0 0 0 0 0 0 
Heartbeat_Variant_2 : 1346 0.328613 per_variant_size: 0 519 384 217 226 0 0 0 0 
Heartbeat_Variant_3 : 0 0 per_variant_size: 0 0 0 0 0 0 0 0 0 
Heartbeat_Variant_0_evicts 0 : 5692 1 : 88 2 : 83 3 : 0 
Heartbeat_Variant_1_evicts 0 : 86 1 : 0 2 : 268 3 : 0 
Heartbeat_Variant_2_evicts 0 : 86 1 : 264 2 : 0 3 : 0 
Heartbeat_Variant_3_evicts 0 : 0 1 : 0 2 : 0 3 : 0 
Heartbeat CPU 0 instructions: 30000002 cycles: 8391990 heartbeat IPC: 3.57449 cumulative IPC: 3.57484 (Simulation time: 0 hr 5 min 2 sec) 
Heartbeat_Variant_0 : 1368 0.333984 per_variant_size: 0 1368 0 0 0 0 0 0 0 
Heartbeat_Variant_1 : 1257 0.306885 per_variant_size: 0 566 691 0 0 0 0 0 0 
Heartbeat_Variant_2 : 1352 0.330078 per_variant_size: 0 523 386 222 221 0 0 0 0 
Heartbeat_Variant_3 : 0 0 per_variant_size: 0 0 0 0 0 0 0 0 0 
Heartbeat_Variant_0_evicts 0 : 5728 1 : 91 2 : 91 3 : 0 
Heartbeat_Variant_1_evicts 0 : 89 1 : 0 2 : 282 3 : 0 
Heartbeat_Variant_2_evicts 0 : 91 1 : 278 2 : 0 3 : 0 
Heartbeat_Variant_3_evicts 0 : 0 1 : 0 2 : 0 3 : 0 
Heartbeat CPU 0 instructions: 40000003 cycles: 11190352 heartbeat IPC: 3.57352 cumulative IPC: 3.57451 (Simulation time: 0 hr 6 min 36 sec) 
Heartbeat_Variant_0 : 1373 0.335205 per_variant_size: 0 1373 0 0 0 0 0 0 0 
Heartbeat_Variant_1 : 1267 0.309326 per_variant_size: 0 574 693 0 0 0 0 0 0 
Heartbeat_Variant_2 : 1349 0.329346 per_variant_size: 0 508 387 232 222 0 0 0 0 
Heartbeat_Variant_3 : 0 0 per_variant_size: 0 0 0 0 0 0 0 0 0 
Heartbeat_Variant_0_evicts 0 : 5588 1 : 44 2 : 52 3 : 0 
Heartbeat_Variant_1_evicts 0 : 45 1 : 0 2 : 235 3 : 0 
Heartbeat_Variant_2_evicts 0 : 47 1 : 230 2 : 0 3 : 0 
Heartbeat_Variant_3_evicts 0 : 0 1 : 0 2 : 0 3 : 0 
Heartbeat CPU 0 instructions: 50000001 cycles: 13987268 heartbeat IPC: 3.57537 cumulative IPC: 3.57468 (Simulation time: 0 hr 8 min 10 sec) 

Warmup complete CPU 0 instructions: 50000001 cycles: 13987268 (Simulation time: 0 hr 8 min 10 sec) 

Cycle: 20000000 FTQ IN: 58214970 FTQ occupancy: 20.0016 DECODE IN: 58214876 DECODE occupancy: 52.0337 ROB IN: 58214816 ROB occupancy: 313.45 ROB OUT: 58214464
Heartbeat_Variant_0 : 1376 0.335938 per_variant_size: 0 1376 0 0 0 0 0 0 0 
Heartbeat_Variant_1 : 1270 0.310059 per_variant_size: 0 583 687 0 0 0 0 0 0 
Heartbeat_Variant_2 : 1354 0.330566 per_variant_size: 0 517 383 236 218 0 0 0 0 
Heartbeat_Variant_3 : 0 0 per_variant_size: 0 0 0 0 0 0 0 0 0 
Heartbeat_Variant_0_evicts 0 : 5667 1 : 94 2 : 101 3 : 0 
Heartbeat_Variant_1_evicts 0 : 90 1 : 0 2 : 269 3 : 0 
Heartbeat_Variant_2_evicts 0 : 102 1 : 266 2 : 0 3 : 0 
Heartbeat_Variant_3_evicts 0 : 0 1 : 0 2 : 0 3 : 0 
Heartbeat CPU 0 instructions: 60000001 cycles: 21301129 heartbeat IPC: 1.36727 cumulative IPC: 1.36727 (Simulation time: 0 hr 9 min 59 sec) 
Heartbeat_Variant_0 : 1378 0.336426 per_variant_size: 0 1378 0 0 0 0 0 0 0 
Heartbeat_Variant_1 : 1266 0.309082 per_variant_size: 0 579 687 0 0 0 0 0 0 
Heartbeat_Variant_2 : 1358 0.331543 per_variant_size: 0 525 374 243 216 0 0 0 0 
Heartbeat_Variant_3 : 0 0 per_variant_size: 0 0 0 0 0 0 0 0 0 
Heartbeat_Variant_0_evicts 0 : 5564 1 : 18 2 : 23 3 : 0 
Heartbeat_Variant_1_evicts 0 : 17 1 : 0 2 : 210 3 : 0 
Heartbeat_Variant_2_evicts 0 : 22 1 : 214 2 : 0 3 : 0 
Heartbeat_Variant_3_evicts 0 : 0 1 : 0 2 : 0 3 : 0 
Heartbeat CPU 0 instructions: 70000000 cycles: 28541816 heartbeat IPC: 1.38108 cumulative IPC: 1.37414 (Simulation time: 0 hr 11 min 48 sec) 
Cycle: 30000000 FTQ IN: 13809375 FTQ occupancy: 12.9516 DECODE IN: 13809342 DECODE occupancy: 33.5211 ROB IN: 13809402 ROB occupancy: 232.987 ROB OUT: 13809754
Heartbeat_Variant_0 : 1375 0.335693 per_variant_size: 0 1375 0 0 0 0 0 0 0 
Heartbeat_Variant_1 : 1272 0.310547 per_variant_size: 0 590 682 0 0 0 0 0 0 
Heartbeat_Variant_2 : 1365 0.333252 per_variant_size: 0 530 376 243 216 0 0 0 0 
Heartbeat_Variant_3 : 0 0 per_variant_size: 0 0 0 0 0 0 0 0 0 
Heartbeat_Variant_0_evicts 0 : 5669 1 : 65 2 : 43 3 : 0 
Heartbeat_Variant_1_evicts 0 : 68 1 : 0 2 : 245 3 : 0 
Heartbeat_Variant_2_evicts 0 : 44 1 : 245 2 : 0 3 : 0 
Heartbeat_Variant_3_evicts 0 : 0 1 : 0 2 : 0 3 : 0 
Heartbeat CPU 0 instructions: 80000000 cycles: 35860083 heartbeat IPC: 1.36644 cumulative IPC: 1.37157 (Simulation time: 0 hr 13 min 37 sec) 
Cycle: 40000000 FTQ IN: 13511319 FTQ occupancy: 12.9554 DECODE IN: 13511322 DECODE occupancy: 33.21 ROB IN: 13511322 ROB occupancy: 230.706 ROB OUT: 13511316
Heartbeat_Variant_0 : 1392 0.339844 per_variant_size: 0 1392 0 0 0 0 0 0 0 
Heartbeat_Variant_1 : 1293 0.315674 per_variant_size: 0 545 748 0 0 0 0 0 0 
Heartbeat_Variant_2 : 1361 0.332275 per_variant_size: 0 497 385 237 242 0 0 0 0 
Heartbeat_Variant_3 : 0 0 per_variant_size: 0 0 0 0 0 0 0 0 0 
Heartbeat_Variant_0_evicts 0 : 5841 1 : 263 2 : 278 3 : 0 
Heartbeat_Variant_1_evicts 0 : 262 1 : 0 2 : 440 3 : 0 
Heartbeat_Variant_2_evicts 0 : 270 1 : 432 2 : 0 3 : 0 
Heartbeat_Variant_3_evicts 0 : 0 1 : 0 2 : 0 3 : 0 
Heartbeat CPU 0 instructions: 90000001 cycles: 43273233 heartbeat IPC: 1.34895 cumulative IPC: 1.36584 (Simulation time: 0 hr 15 min 25 sec) 
Cycle: 50000000 FTQ IN: 13751329 FTQ occupancy: 12.6604 DECODE IN: 13751429 DECODE occupancy: 32.5504 ROB IN: 13751428 ROB occupancy: 230.636 ROB OUT: 13751288
Heartbeat_Variant_0 : 1385 0.338135 per_variant_size: 0 1385 0 0 0 0 0 0 0 
Heartbeat_Variant_1 : 1294 0.315918 per_variant_size: 0 546 748 0 0 0 0 0 0 
Heartbeat_Variant_2 : 1370 0.334473 per_variant_size: 0 511 385 242 232 0 0 0 0 
Heartbeat_Variant_3 : 0 0 per_variant_size: 0 0 0 0 0 0 0 0 0 
Heartbeat_Variant_0_evicts 0 : 5751 1 : 107 2 : 118 3 : 0 
Heartbeat_Variant_1_evicts 0 : 116 1 : 0 2 : 293 3 : 0 
Heartbeat_Variant_2_evicts 0 : 117 1 : 302 2 : 0 3 : 0 
Heartbeat_Variant_3_evicts 0 : 0 1 : 0 2 : 0 3 : 0 
Heartbeat CPU 0 instructions: 100000002 cycles: 50515011 heartbeat IPC: 1.38088 cumulative IPC: 1.36882 (Simulation time: 0 hr 17 min 13 sec) 
Finished CPU 0 instructions: 50000001 cycles: 36527743 cumulative IPC: 1.36882 (Simulation time: 0 hr 17 min 13 sec) 

ChampSim completed all CPUs

Region of Interest Statistics

CPU 0 cumulative IPC: 1.36882 instructions: 50000001 cycles: 36527743
 Fetch stage stalled: 54.2651  Sim cycles: 36527743 fetch stall cycle: 19821811
 Empty decode stage: 35.8475  Sim cycles: 36527743 fetch stall cycle: 13094276
ITLB TOTAL     ACCESS:    5870226  HIT:    5374024  MISS:     496202  HIT %:    91.5471  MISS %:    8.45286   MPKI: 9.92404
ITLB LOAD TRANSLATION INSTRUCTION	ACCESS:    5745979  HIT:    5249777  MISS:     496202  HIT %:    91.3644  MISS %:    8.63564  MPKI: 9.92404
ITLB TRANSLATION FROM L1D PREFETCHER INSTRUCTION	ACCESS:     124247  HIT:     124247  MISS:          0  HIT %:        100  MISS %:          0  MPKI: 0

ITLB AVERAGE MISS LATENCY: 9.07057 cycles
ITLB RQ	ACCESS:    8005476	FORWARD:          0	MERGED:    1689221	TO_CACHE:    6316255

DTLB TOTAL     ACCESS:    8983415  HIT:    8510338  MISS:     473077  HIT %:    94.7339  MISS %:    5.26612   MPKI: 9.46154
DTLB LOAD TRANSLATION DATA	ACCESS:    8983415  HIT:    8510338  MISS:     473077  HIT %:    94.7339  MISS %:    5.26612  MPKI: 9.46154

DTLB AVERAGE MISS LATENCY: 9.36398 cycles
DTLB RQ	ACCESS:   13354307	FORWARD:          0	MERGED:    4334963	TO_CACHE:    9019344

STLB TOTAL     ACCESS:    1216554  HIT:    1214310  MISS:       2244  HIT %:    99.8155  MISS %:   0.184455   MPKI: 0.04488
STLB LOAD TRANSLATION INSTRUCTION	ACCESS:     496202  HIT:     495894  MISS:        308  HIT %:    99.9379  MISS %:  0.0620715  MPKI: 0.00616
STLB LOAD TRANSLATION DATA	ACCESS:     473076  HIT:     471164  MISS:       1912  HIT %:    99.5958  MISS %:   0.404163  MPKI: 0.03824
STLB TRANSLATION FROM L1D PREFETCHER DATA	ACCESS:     247276  HIT:     247252  MISS:         24  HIT %:    99.9903  MISS %: 0.00970575  MPKI: 0.00048

STLB AVERAGE MISS LATENCY: 77.6533 cycles
STLB RQ	ACCESS:    1335418	FORWARD:          0	MERGED:     118827	TO_CACHE:    1216591

STLB Hit, L1D data hit: 0
STLB Hit, L2C data hit: 0
STLB Hit, LLC data hit: 0
STLB Hit, LLC data miss: 0
STLB STLB hints to L2: 0
L1D TOTAL     ACCESS:   13100824  HIT:   11977995  MISS:    1122829  HIT %:    91.4293  MISS %:    8.57067   MPKI: 22.4566
L1D LOAD DATA	ACCESS:    6561117  HIT:    5819852  MISS:     741265  HIT %:    88.7022  MISS %:    11.2978  MPKI: 14.8253
L1D RFO DATA	ACCESS:    6214391  HIT:    5927533  MISS:     286858  HIT %:     95.384  MISS %:    4.61603  MPKI: 5.73716
L1D PREFETCH DATA	ACCESS:     325316  HIT:     230610  MISS:      94706  HIT %:     70.888  MISS %:     29.112  MPKI: 1.89412

L1D PREFETCH  REQUESTED:     732701  ISSUED:     732701  USEFUL:      34030  USELESS:      68142
L1D USEFUL LOAD PREFETCHES:      34030 PREFETCH ISSUED TO LOWER LEVEL:     102258  ACCURACY: 33.2786
 TIMELY PREFETCHES:      34030 LATE PREFETCHES: 7459 DROPPED PREFETCHES: 5
L1D AVERAGE MISS LATENCY: 212457 cycles
L1D RQ	ACCESS:   10690982	FORWARD:          0	MERGED:    3932682	TO_CACHE:    6595441
L1D WQ	ACCESS:    6955398	FORWARD:     163282	MERGED:     196532	TO_CACHE:    6758866
L1D PQ	ACCESS:     366562	FORWARD:          0	MERGED:          0	TO_CACHE:     366139

L1D UNIQUE REGIONS ACCESSED: 0
L1D REGIONS CONFLICTS: 0
L1D Cross Page Prefetch Requests: 6896
L1D Same Page Prefetch Requests: 755238
L1D ROI Sum of L1D PQ occupancy: 4656413
L1D PREFETCHES PUSHED FROM L2C: 0
L1I TOTAL     ACCESS:    7160159  HIT:    4385063  MISS:    2775096  HIT %:    61.2425  MISS %:    38.7575   MPKI: 55.5019
L1I LOAD INSTRUCTION	ACCESS:    6502681  HIT:    3727585  MISS:    2775096  HIT %:    57.3238  MISS %:    42.6762  MPKI: 55.5019
L1I PREFETCH INSTRUCTION	ACCESS:     657478  HIT:     657478  MISS:          0  HIT %:        100  MISS %:          0  MPKI: 0

L1I PREFETCH  REQUESTED:    1607744  ISSUED:    1607744  USEFUL:          0  USELESS:          0
L1I USEFUL LOAD PREFETCHES:          0 PREFETCH ISSUED TO LOWER LEVEL:          0  ACCURACY: -nan
 TIMELY PREFETCHES:          0 LATE PREFETCHES: 0 DROPPED PREFETCHES: 0
L1I AVERAGE MISS LATENCY: 17.486 cycles
L1I RQ	ACCESS:    9510151	FORWARD:          0	MERGED:    2677649	TO_CACHE:    6832502
L1I PQ	ACCESS:    1607744	FORWARD:          0	MERGED:     434770	TO_CACHE:    1172974

L1BTB TOTAL     ACCESS:    5670595  HIT:    2029035  MISS:    3641560  HIT %:    35.7817  MISS %:    64.2183   MPKI: 72.8312
L1BTB BRANCH_DIRECT_JUMP	ACCESS:     548408  HIT:     143251  MISS:     405157	AVERAGE STALL: 48.4811
L1BTB BRANCH_INDIRECT	ACCESS:     182571  HIT:      65573  MISS:     116998	AVERAGE STALL: 100.988
L1BTB BRANCH_CONDITIONAL	ACCESS:    2702917  HIT:    1405416  MISS:    1297501	AVERAGE STALL: 67.7768
L1BTB BRANCH_DIRECT_CALL	ACCESS:     946380  HIT:     104576  MISS:     841804	AVERAGE STALL: 65.2791
L1BTB BRANCH_INDIRECT_CALL	ACCESS:     171970  HIT:      21099  MISS:     150871	AVERAGE STALL: 134.624
L1BTB BRANCH_RETURN	ACCESS:    1118349  HIT:     289120  MISS:     829229	AVERAGE STALL: 47.731
L1BTB BRANCH_OTHER ACCESS:          0  HIT:          0  MISS:          0	AVERAGE STALL: -nan
L1BTB TOTAL ROB OCCUPANCY AT BTB MISS: 2.64532

L2BTB TOTAL     ACCESS:    3616166  HIT:    3547713  MISS:      68453  HIT %:     98.107  MISS %:    1.89297   MPKI: 1.36906
L2BTB BRANCH_DIRECT_JUMP	ACCESS:     401029  HIT:     396135  MISS:       4894	AVERAGE STALL: 48.4811
L2BTB BRANCH_INDIRECT	ACCESS:     106649  HIT:     103939  MISS:       2710	AVERAGE STALL: 100.988
L2BTB BRANCH_CONDITIONAL	ACCESS:    1297501  HIT:    1291579  MISS:       5922	AVERAGE STALL: 67.7768
L2BTB BRANCH_DIRECT_CALL	ACCESS:     841804  HIT:     839645  MISS:       2159	AVERAGE STALL: 65.2791
L2BTB BRANCH_INDIRECT_CALL	ACCESS:     141364  HIT:     130801  MISS:      10563	AVERAGE STALL: 134.624
L2BTB BRANCH_RETURN	ACCESS:     827819  HIT:     785614  MISS:      42205	AVERAGE STALL: 47.731
L2BTB BRANCH_OTHER ACCESS:          0  HIT:          0  MISS:          0	AVERAGE STALL: -nan
L2BTB TOTAL ROB OCCUPANCY AT BTB MISS: 140.725

L2C TOTAL     ACCESS:    4512985  HIT:    4005288  MISS:     507697  HIT %:    88.7503  MISS %:    11.2497   MPKI: 10.1539
L2C LOAD INSTRUCTION	ACCESS:    2775096  HIT:    2489267  MISS:     285829  HIT %:    89.7002  MISS %:    10.2998  MPKI: 5.71658
L2C LOAD TRANSLATION INSTRUCTION	ACCESS:        352  HIT:        114  MISS:        238  HIT %:    32.3864  MISS %:    67.6136  MPKI: 0.00476
L2C LOAD DATA	ACCESS:     733790  HIT:     655111  MISS:      78679  HIT %:    89.2777  MISS %:    10.7223  MPKI: 1.57358
L2C RFO DATA	ACCESS:     286733  HIT:     235047  MISS:      51686  HIT %:    81.9742  MISS %:    18.0258  MPKI: 1.03372
L2C PREFETCH DATA	ACCESS:     190974  HIT:     116169  MISS:      74805  HIT %:    60.8297  MISS %:    39.1703  MPKI: 1.4961
L2C WRITEBACK DATA	ACCESS:     523987  HIT:     508987  MISS:      15000  HIT %:    97.1373  MISS %:    2.86267  MPKI: 0.3
L2C LOAD TRANSLATION DATA	ACCESS:       2011  HIT:        563  MISS:       1448  HIT %:     27.996  MISS %:     72.004  MPKI: 0.02896
L2C TRANSLATION FROM L1D PREFETCHER DATA	ACCESS:         42  HIT:         30  MISS:         12  HIT %:    71.4286  MISS %:    28.5714  MPKI: 0.00024

L2C PREFETCH  REQUESTED:      96443  ISSUED:      96443  USEFUL:       8685  USELESS:      66559
L2C USEFUL LOAD PREFETCHES:       8685 PREFETCH ISSUED TO LOWER LEVEL:      75185  ACCURACY: 11.5515
 TIMELY PREFETCHES:       8685 LATE PREFETCHES: 380 DROPPED PREFETCHES: 0
L2C AVERAGE MISS LATENCY: 38.2854 cycles
L2C RQ	ACCESS:    3798072	FORWARD:          0	MERGED:          0	TO_CACHE:    3798024
L2C WQ	ACCESS:     523987	FORWARD:         48	MERGED:          0	TO_CACHE:     523987
L2C PQ	ACCESS:     198701	FORWARD:          0	MERGED:       3643	TO_CACHE:     195058

L2C Dense regions hint from L2: 0
PSCL5 TOTAL     ACCESS:       4500  HIT:       2250  MISS:       2250  HIT %:         50  MISS %:         50   MPKI: 0.045
PSCL5 LOAD TRANSLATION INSTRUCTION	ACCESS:       4416  HIT:       2208  MISS:       2208  HIT %:         50  MISS %:         50  MPKI: 0.04416
PSCL5 TRANSLATION FROM L1D PREFETCHER INSTRUCTION	ACCESS:         84  HIT:         42  MISS:         42  HIT %:         50  MISS %:         50  MPKI: 0.00084


PSCL4 TOTAL     ACCESS:       3871  HIT:       1933  MISS:       1938  HIT %:    49.9354  MISS %:    50.0646   MPKI: 0.03876
PSCL4 LOAD TRANSLATION INSTRUCTION	ACCESS:       2797  HIT:       1905  MISS:        892  HIT %:    68.1087  MISS %:    31.8913  MPKI: 0.01784
PSCL4 TRANSLATION FROM L1D PREFETCHER INSTRUCTION	ACCESS:         49  HIT:         28  MISS:         21  HIT %:    57.1429  MISS %:    42.8571  MPKI: 0.00042
PSCL4 LOAD TRANSLATION DATA	ACCESS:       1018  HIT:          0  MISS:       1018  HIT %:          0  MISS %:        100  MPKI: 0.02036
PSCL4 TRANSLATION FROM L1D PREFETCHER DATA	ACCESS:          7  HIT:          0  MISS:          7  HIT %:          0  MISS %:        100  MPKI: 0.00014


PSCL3 TOTAL     ACCESS:       3829  HIT:       1909  MISS:       1920  HIT %:    49.8564  MISS %:    50.1436   MPKI: 0.0384
PSCL3 LOAD TRANSLATION INSTRUCTION	ACCESS:       2321  HIT:       1873  MISS:        448  HIT %:     80.698  MISS %:     19.302  MPKI: 0.00896
PSCL3 TRANSLATION FROM L1D PREFETCHER INSTRUCTION	ACCESS:         45  HIT:         36  MISS:          9  HIT %:         80  MISS %:         20  MPKI: 0.00018
PSCL3 LOAD TRANSLATION DATA	ACCESS:       1436  HIT:          0  MISS:       1436  HIT %:          0  MISS %:        100  MPKI: 0.02872
PSCL3 TRANSLATION FROM L1D PREFETCHER DATA	ACCESS:         27  HIT:          0  MISS:         27  HIT %:          0  MISS %:        100  MPKI: 0.00054


PSCL2 TOTAL     ACCESS:       4359  HIT:       2109  MISS:       2250  HIT %:    48.3827  MISS %:    51.6173   MPKI: 0.045
PSCL2 LOAD TRANSLATION INSTRUCTION	ACCESS:       2380  HIT:       2067  MISS:        313  HIT %:    86.8487  MISS %:    13.1513  MPKI: 0.00626
PSCL2 TRANSLATION FROM L1D PREFETCHER INSTRUCTION	ACCESS:         42  HIT:         42  MISS:          0  HIT %:        100  MISS %:          0  MPKI: 0
PSCL2 LOAD TRANSLATION DATA	ACCESS:       1895  HIT:          0  MISS:       1895  HIT %:          0  MISS %:        100  MPKI: 0.0379
PSCL2 TRANSLATION FROM L1D PREFETCHER DATA	ACCESS:         42  HIT:          0  MISS:         42  HIT %:          0  MISS %:        100  MPKI: 0.00084


LLC TOTAL     ACCESS:     569083  HIT:     539421  MISS:      29662  HIT %:    94.7878  MISS %:    5.21224   MPKI: 0.59324
LLC LOAD INSTRUCTION	ACCESS:     285829  HIT:     284697  MISS:       1132  HIT %:     99.604  MISS %:   0.396041  MPKI: 0.02264
LLC LOAD TRANSLATION INSTRUCTION	ACCESS:        238  HIT:        192  MISS:         46  HIT %:    80.6723  MISS %:    19.3277  MPKI: 0.00092
LLC LOAD DATA	ACCESS:      78328  HIT:      74512  MISS:       3816  HIT %:    95.1282  MISS %:    4.87182  MPKI: 0.07632
LLC RFO DATA	ACCESS:      51654  HIT:      37751  MISS:      13903  HIT %:    73.0844  MISS %:    26.9156  MPKI: 0.27806
LLC PREFETCH DATA	ACCESS:      75185  HIT:      64864  MISS:      10321  HIT %:    86.2725  MISS %:    13.7275  MPKI: 0.20642
LLC WRITEBACK DATA	ACCESS:      76389  HIT:      76065  MISS:        324  HIT %:    99.5759  MISS %:   0.424145  MPKI: 0.00648
LLC LOAD TRANSLATION DATA	ACCESS:       1448  HIT:       1328  MISS:        120  HIT %:    91.7127  MISS %:    8.28729  MPKI: 0.0024
LLC TRANSLATION FROM L1D PREFETCHER DATA	ACCESS:         12  HIT:         12  MISS:          0  HIT %:        100  MISS %:          0  MPKI: 0

LLC AVERAGE MISS LATENCY: 155.621 cycles
LLC RQ	ACCESS:     417512	FORWARD:          0	MERGED:          0	TO_CACHE:     417509
LLC WQ	ACCESS:      76389	FORWARD:          3	MERGED:          0	TO_CACHE:      76389
LLC PQ	ACCESS:      75185	FORWARD:          0	MERGED:          0	TO_CACHE:      75185

LLC Dense regions hint to LLC: 0

RAW hits: 1944492
Loads Generated: 12635471
Loads sent to L1D: 10690982
Stores Generated: 6955386
Stores sent to L1D: 6955398
Major fault: 0 Minor fault: 2591
Allocated PAGES: 2591

stream: 
stream:times selected: 1190911
stream:pref_filled: 122782
stream:pref_useful: 24199
stream:pref_late: 6688
stream:misses: 8108
stream:misses_by_poll: 0

CS: 
CS:times selected: 178928
CS:pref_filled: 59180
CS:pref_useful: 36024
CS:pref_late: 6443
CS:misses: 15634
CS:misses_by_poll: 2

CPLX: 
CPLX:times selected: 1010819
CPLX:pref_filled: 20197
CPLX:pref_useful: 4688
CPLX:pref_late: 2963
CPLX:misses: 93199
CPLX:misses_by_poll: 3

NL_L1: 
NL:times selected: 20423
NL:pref_filled: 810
NL:pref_useful: 343
NL:pref_late: 292
NL:misses: 1731
NL:misses_by_poll: 0

total selections: 2401081
total_filled: 94706
total_useful: 34030
total_late: 17606
total_polluted: 5
total_misses_after_warmup: 775590
conflicts: 5523433

test: 116521

DRAM Statistics
 CHANNEL 0
 RQ ROW_BUFFER_HIT:      10843  ROW_BUFFER_MISS:      18475
 DBUS_CONGESTED:          9
 WQ ROW_BUFFER_HIT:       1512  ROW_BUFFER_MISS:      12598  FULL:          0

 AVG_CONGESTED_CYCLE: 4

CPU 0 Branch Prediction Accuracy: 99.8098% MPKI: 0.34798 Average ROB Occupancy at Mispredict: 177.982
Branch types
NOT_BRANCH: 40852013 81.704%
BRANCH_DIRECT_JUMP: 548408 1.09682%
BRANCH_INDIRECT: 182571 0.365142%
BRANCH_CONDITIONAL: 6180328 12.3607%
BRANCH_DIRECT_CALL: 946380 1.89276%
BRANCH_INDIRECT_CALL: 171970 0.34394%
BRANCH_RETURN: 1118349 2.2367%
BRANCH_OTHER: 0 0%

DRAM PAGES: 1048576
Allocated PAGES: 2591
Average_ROB_Occupancy: 232.622
Average_Decode_Occupancy: 33.1097
Average_FTQ_Occupancy: 12.8728
Indirect max targets: 14 Average targets: 1.17572
Branch_type:  BRANCH_DIRECT_JUMP:  Count Percentage: 3.65456 5.30924 4.21505 2.77702 8.18439 6.01067 6.80713 63.0419 
Branch_type:  BRANCH_INDIRECT:  Count Percentage: 11.7748 3.41525 2.56267 0 13.0274 2.80817 16.5336 49.8781 
Branch_type:  BRANCH_CONDITIONAL:  Count Percentage: 20.9081 9.54656 2.46823 2.45299 3.75546 4.63238 3.16228 53.074 
Branch_type:  BRANCH_DIRECT_CALL:  Count Percentage: 0.390154 1.76233 0.740932 1.48346 5.09137 2.62409 0.741887 87.1658 
Branch_type:  BRANCH_INDIRECT_CALL:  Count Percentage: 9.56376 0 2.99636 0.000876043 0.848009 1.715 0.00759237 84.8684 
Branch_type:  BRANCH_RETURN:  Count Percentage: 3.73481 5.5896 2.15223 2.84173 4.80672 5.13361 3.51602 72.2253 
Branch_type:  BRANCH_DIRECT_JUMP:  Total Count: 40113 58275 46265 30481 89833 65974 74716 691957 
Branch_type:  BRANCH_INDIRECT:  Total Count: 43117 12506 9384 0 47704 10283 60543 182644 
Branch_type:  BRANCH_CONDITIONAL:  Total Count: 2584652 1180141 305121 303237 464248 572653 390920 6560983 
Branch_type:  BRANCH_DIRECT_CALL:  Total Count: 7352 33209 13962 27954 95941 49448 13980 1642538 
Branch_type:  BRANCH_INDIRECT_CALL:  Total Count: 32751 0 10261 3 2904 5873 26 290631 
Branch_type:  BRANCH_RETURN:  Total Count: 83200 124519 47945 63305 107079 114361 78326 1608957 
Number of unique branch instructions: 10653
Upper 32 bits: 
aaaa
ffff
ffff0000
Unique upper 32 bits: 3
Unique upper 36 bits: 3
Unique upper 40 bits: 5
Unique upper 44 bits: 32
Unique upper 48 bits: 158
Variant_0 : 1385 0.338135
Variant_1 : 1294 0.315918
Variant_2 : 1370 0.334473
Variant_3 : 0 0
Offset_3 4405
Offset_4 260
Offset_5 479
Offset_6 541
Offset_7 634
Offset_8 576
Offset_9 510
Offset_10 417
Offset_11 342
Offset_12 308
Offset_13 238
Offset_14 244
Offset_15 196
Offset_16 226
Offset_17 163
Offset_18 144
Offset_19 259
Offset_20 141
Offset_21 235
Offset_22 409
Offset_23 241
Offset_24 343
Offset_25 117
Offset_47 92
Offset_64 2
decode_dispatch_called: 25209469 69.0146
Dispatch_width: 0 13556483 53.7754 37.1128
Dispatch_width: 1 917764 3.64055 2.51251
Dispatch_width: 2 794025 3.14971 2.17376
Dispatch_width: 3 479982 1.90398 1.31402
Dispatch_width: 4 5278883 20.9401 14.4517
Dispatch_width: 5 155283 0.615971 0.42511
Dispatch_width: 6 4027049 15.9744 11.0246
Empty_decode_cycles: 11318274 30.9854
ROB_full_cycles: 8454876 23.1465
Starvation_cycles_per_kilo_instr: 240.458
Starvation_cycles_per_kilo_instr_3: 186.117
Starvation_cycles_per_kilo_instr_0: 164.199
Branch_type_1  (3,1)  (4,9)  (5,39)  (6,74)  (7,123)  (8,151)  (9,134)  (10,110)  (11,76)  (12,47)  (13,11)  (14,2)  (15,3)  (16,4)  (18,1)  (19,5)  (20,2)  (21,1)  (22,3)  (23,2)  (24,10)  (25,12) 
Branch_type_2  (3,1)  (4,1)  (5,1)  (8,4)  (9,4)  (10,1)  (12,1)  (13,1)  (14,1)  (16,3)  (17,2)  (20,2)  (21,2)  (23,5)  (24,1)  (47,41) 
Branch_type_3  (3,4403)  (4,250)  (5,435)  (6,451)  (7,481)  (8,354)  (9,279)  (10,168)  (11,130)  (12,54)  (13,10)  (64,2) 
Branch_type_4  (6,3)  (7,8)  (8,26)  (9,55)  (10,66)  (11,70)  (12,115)  (13,101)  (14,110)  (15,93)  (16,99)  (17,75)  (18,61)  (19,126)  (20,72)  (21,124)  (22,214)  (23,136)  (24,198)  (25,101) 
Branch_type_5  (8,3)  (9,1)  (10,4)  (11,5)  (12,3)  (13,14)  (14,16)  (15,11)  (16,22)  (17,11)  (18,23)  (19,14)  (20,11)  (21,13)  (22,43)  (23,26)  (24,38) 
Branch_type_6  (5,4)  (6,13)  (7,22)  (8,38)  (9,37)  (10,68)  (11,61)  (12,88)  (13,101)  (14,115)  (15,89)  (16,98)  (17,75)  (18,59)  (19,114)  (20,54)  (21,95)  (22,149)  (23,72)  (24,96)  (25,4)  (47,51) 
Unique trigger count: 
Variant_0_evicts_0 : 0
Variant_0_evicts_1 : 0
Variant_0_evicts_2 : 0
Variant_0_evicts_3 : 0
Variant_1_evicts_0 : 0
Variant_1_evicts_1 : 0
Variant_1_evicts_2 : 0
Variant_1_evicts_3 : 0
Variant_2_evicts_0 : 0
Variant_2_evicts_1 : 0
Variant_2_evicts_2 : 0
Variant_2_evicts_3 : 0
Variant_3_evicts_0 : 0
Variant_3_evicts_1 : 0
Variant_3_evicts_2 : 0
Variant_3_evicts_3 : 0
BTB PER SET UNIQUE ADDR: 11 14 8 14 9 16 11 15 10 13 11 20 19 13 12 8 15 10 12 11 14 12 14 16 12 14 15 9 17 11 12 19 16 6 12 7 14 10 8 11 10 7 17 15 10 13 18 12 14 13 16 10 13 14 12 5 13 10 11 14 11 17 8 10 17 17 13 13 14 12 17 12 14 11 11 8 8 19 8 17 11 9 10 14 17 12 11 8 10 16 9 9 12 10 10 16 11 13 14 17 18 17 12 16 12 10 9 13 8 12 7 19 12 9 9 7 12 10 10 12 12 12 12 12 14 16 7 16 20 9 9 19 10 19 8 12 9 12 9 14 14 13 13 15 12 14 11 10 8 13 13 18 11 13 12 17 20 14 16 15 14 14 13 15 9 9 14 6 9 7 11 14 12 15 12 9 13 14 12 11 6 12 11 18 19 15 5 14 12 12 10 12 10 13 16 13 9 14 8 14 14 15 13 14 13 10 12 12 16 11 9 15 13 15 8 13 15 13 13 19 8 13 8 9 8 15 17 9 8 19 5 7 10 15 12 11 11 12 14 12 15 13 15 12 17 11 9 8 13 11 15 14 12 13 16 8 10 9 13 12 13 9 6 13 18 11 13 11 12 13 10 15 10 6 10 10 11 14 14 12 12 16 10 13 6 8 12 14 16 13 16 11 15 14 7 13 13 13 16 10 11 12 11 21 9 16 12 12 15 10 11 17 7 17 10 5 22 14 11 20 13 12 12 11 11 19 12 12 8 11 10 14 12 12 15 15 11 10 7 19 14 14 8 15 11 14 13 16 16 10 11 11 12 14 12 9 11 11 12 12 10 14 8 14 9 14 8 11 15 12 14 11 18 14 10 15 13 10 15 7 15 12 8 9 9 14 18 12 14 11 13 12 17 18 10 10 10 7 16 9 13 12 8 12 13 16 16 15 14 8 16 7 11 19 10 9 12 14 19 20 13 11 9 12 20 11 13 12 13 14 22 16 9 12 13 11 18 12 11 11 16 7 12 16 21 8 11 13 10 15 15 14 18 11 12 21 17 16 10 13 12 13 15 9 19 13 12 11 13 17 13 13 16 11 16 15 15 18 13 12 17 15 11 13 5 16 15 13 16 18 10 16 10 6 11 6 12 18 10 10 8 17 12 15 8 12 11 9 18 12 10 14 11 13 13 16 11 22 6 10 6 12 12 8 11 15 21 10 6 21 14 10 19 11 12 18 10 17 10 13 17 11 14 11 19 15 11 12 12 8 17 16 14 10 10 16 13 10 19 17 17 12 15 13 12 11 9 16 16 15 11 8 15 10 14 15 19 14 10 10 12 11 7 14 12 11 16 14 13 17 14 13 12 11 13 10 8 12 9 12 14 11 15 8 16 17 17 11 16 7 16 10 12 13 4 13 10 16 13 14 17 10 6 10 14 18 13 18 10 13 9 14 14 13 10 12 8 19 10 16 9 16 14 14 16 13 9 16 23 10 8 13 10 8 12 10 13 14 10 17 12 10 9 12 13 17 10 15 12 14 17 16 14 17 15 11 14 17 12 11 12 12 14 13 17 13 8 17 21 18 15 11 16 11 11 10 16 15 9 12 8 15 18 15 9 12 12 9 14 10 12 16 6 14 13 10 12 11 13 14 14 8 14 17 10 12 13 10 8 9 17 10 14 8 9 14 12 16 12 15 14 9 12 9 13 14 14 17 8 11 12 10 14 13 9 12 17 15 12 9 8 12 9 11 15 13 7 15 13 11 15 13 14 13 11 10 16 8 18 12 10 11 17 10 9 12 11 13 6 6 7 10 16 14 15 19 15 10 15 12 17 12 17 18 16 14 15 11 11 12 15 16 11 16 12 16 15 16 7 11 17 18 10 15 14 13 7 15 15 17 13 19 17 15 12 15 14 14 13 12 15 14 10 16 14 18 11 19 12 8 13 10 12 12 13 15 18 11 14 13 15 15 12 8 22 5 15 9 13 14 13 12 17 8 14 9 13 11 10 12 16 6 15 15 13 10 18 10 10 15 15 10 14 12 10 15 16 12 10 8 10 12 14 8 8 14 10 13 12 14 9 16 13 15 18 15 18 9 10 12 15 16 10 7 12 8 9 10 12 9 16 18 21 15 14 17 12 9 9 15 12 21 11 17 11 11 10 18 8 15 16 14 8 18 11 12 15 14 15 17 12 12 13 15 19 9 13 16 12 17 13 14 16 10 14 13 18 11 17 19 15 12 13 15 10 17 23 11 12 11 15 11 15 17 13 9 10 10 24 14 19 19 10 14 16 12 9 19 9 14 9 17 9 7 11 14 6 9 9 10 11 16 10 7 
BTB PER SET COUNT: 18 26 1760 17 1474 25 986 20 20 18 14 967 15472 30 14 11 997 1484 25 15 21 16 739 74 24 21 22 10 27 223 18 1022 25 6 15 7 31 16 10 2767 12 16 25 21 1476 29 29 18 825 400 31 263 24 25 313 6 17 16 16 20 11 20 12 13 26 371 15 956 23 19 1489 510 23 16 16 10 11 602 12 30 949 10 18 1005 28 49 16 10 1295 26 10 14 13 12 17 26 1085 15 20 26 26 27 14 80 2308 16 12 17 988 15 9 26 40 14 13 580 20 12 1481 283 442 45 17 15 20 58 10 874 31 1002 10 5863 18 33 13 18 984 21 15 29 21 235 24 29 30 18 22 17 9 21 20 252 638 17 18 27 146 22 25 20 25 271 16 19 1475 13 21 6 11 1473 15 17 16 21 18 9 25 17 51 987 8 174 89 32 92 42 6 17 997 1027 21 14 12 19 18 165 16 521 11 16 23 110 986 24 17 13 14 324 20 19 15 55 22 2034 11 1364 29 16 2938 26 16 17 10 10 9 19 23 250 9 32 5 9 13 25 14 3519 149 30 26 17 23 23 27 14 27 15 12 9 21 11 22 17 18 15 24 9 51 16 22 16 718 12 6 28 25 15 17 12 2110 16 15 24 10 6 17 10 18 21 24 575 12 23 19 19 10 10 16 18 25 14 18 14 23 203 10 24 19 17 26 864 15 15 11 30 12 116 79 88 238 26 24 26 10 22 1969 994 29 22 19 33 15 1072 21 15 1476 31 15 21 10 11 13 19 24 15 17 26 15 984 8 24 14 51 9 18 21 16 16 32 19 22 15 11 16 18 18 14 12 21 371 23 13 20 8 21 9 42 14 17 21 15 20 56 27 23 986 17 20 16 349 7 718 12 823 12 10 22 421 12 16 1293 23 17 42 198 11 857 13 10 1745 12 20 15 8 15 18 26 27 19 18 8 629 8 19 419 13 10 13 1633 469 25 16 14 14 16 31 13 1405 20 19 17 74 17 12 13 64 22 22 81 13 25 20 7 20 23 2466 8 153 19 16 22 20 40 31 14 17 1505 20 17 13 15 18 18 21 16 22 15 24 19 17 29 24 18 21 15 21 22 16 25 23 17 22 17 17 21 8 1010 29 17 23 37 15 18 12 7 13 6 184 984 12 15 8 32 17 150 9 16 16 9 25 16 264 1810 156 508 17 23 29 35 6 148 9 21 13 10 17 19 364 16 7 1788 20 11 30 13 13 32 15 434 18 433 21 14 18 19 34 425 13 19 26 9 24 29 824 21 14 30 15 10 37 42 22 15 19 14 16 16 10 20 20 21 633 8 20 12 2461 20 31 157 12 12 17 15 8 1510 16 18 18 25 18 33 26 18 658 14 26 15 11 378 9 12 15 17 23 14 25 21 35 763 26 7 27 19 25 19 4 19 16 20 18 15 19 11 6 10 21 21 17 24 12 25 9 21 23 18 12 17 10 451 12 215 9 20 21 26 52 72 998 30 283 10 8 17 17 9 35 511 23 303 18 274 26 16 10 19 33 26 12 144 1484 23 26 26 853 28 69 141 19 26 12 15 12 13 23 24 21 15 11 20 41 27 19 15 19 18 970 16 30 18 17 19 818 19 1475 26 9 16 22 11 16 13 363 440 1003 21 14 16 17 11 15 458 20 11 14 395 12 15 25 12 1000 11 48 12658 64 121 13 22 1012 17 15 18 853 19 12 17 19 21 392 21 14 17 23 10 20 1974 11 14 24 873 20 10 9 22 9 39 2943 20 7 477 21 18 66 25 16 15 18 12 28 530 31 24 997 16 23 11 11 85 14 13 14 8 13 284 21 31 643 32 25 12 17 1091 28 17 22 29 75 20 27 15 16 42 21 7878 15 1232 452 516 17 267 12 14 24 616 12 30 99 16 7 21 22 23 17 28 32 20 494 1440 20 23 14 14 23 180 13 22 1198 27 25 28 15 8 22 1947 14 16 20 33 101 14 30 14 18 20 15 9 34 5 21 10 17 48 20 46 26 9 16 11 19 15 10 18 18 6 91 116 705 21 21 12 13 33 19 23 29 14 13 20 22 17 11 8 11 14 22 700 13 20 14 18 16 198 497 579 20 24 26 216 270 283 19 17 23 22 13 8 19 13 12 13 17 19 45 21 113 23 19 46 15 15 16 17 12 738 19 19 18 15 34 31 8 20 23 55 16 263 11 12 183 21 23 312 14 16 348 22 26 13 1272 26 17 28 24 20 28 11 1487 25 26 17 28 37 26 20 18 188 13 742 31 25 17 20 23 12 132 118 22 9 18 1480 30 1122 27 37 20 24 18 14 12 33 12 989 16 23 10 7 16 19 8 12 12 10 20 519 13 11 
To predecode: 0
Predecoding something: 0
Predecode request dropped: 0
sizeofblock_0 0
sizeofblock_1 38078
sizeofblock_2 43643
sizeofblock_3 38128
sizeofblock_4 21629
sizeofblock_5 0
sizeofblock_6 0
sizeofblock_7 0
sizeofblock_8 0
Variant_0 Correct: 1612218 Incorrect: 0 Accuracy: 1
Variant_1 Correct: 2089890 Incorrect: 0 Accuracy: 1
Variant_2 Correct: 3642137 Incorrect: 0 Accuracy: 1
Variant_3 Correct: 0 Incorrect: 0 Accuracy: -nan
