
*** ChampSim Multicore Out-of-Order Simulator ***

Warmup Instructions: 50000000
Simulation Instructions: 50000000
Number of CPUs: 1
LLC sets: 2048
LLC ways: 16
Off-chip DRAM Size: 4096 MB Channels: 1 Width: 64-bit Data Rate: 6400 MT/s
CPU 0 runs ./micro_traces/srv514.trace.gz
.gz
ITLB has LRU replacement policy
DTLB has LRU replacement policy
STLB has LRU replacement policy
FDIP Prefetcher at L1I
L1I has LRU replacement policy
L1D has LRU replacement policy
Initialize SRRIP state for L2C
Initialize DRRIP state for LLC
Heartbeat_Variant_0 : 1334 0.325684 per_variant_size: 0 1334 0 0 0 0 0 0 0 
Heartbeat_Variant_1 : 2424 0.591797 per_variant_size: 0 324 2100 0 0 0 0 0 0 
Heartbeat_Variant_2 : 0 0 per_variant_size: 0 0 0 0 0 0 0 0 0 
Heartbeat_Variant_3 : 0 0 per_variant_size: 0 0 0 0 0 0 0 0 0 
Heartbeat_Variant_0_evicts 0 : 5611 1 : 41 2 : 0 3 : 0 
Heartbeat_Variant_1_evicts 0 : 31 1 : 0 2 : 0 3 : 0 
Heartbeat_Variant_2_evicts 0 : 0 1 : 0 2 : 0 3 : 0 
Heartbeat_Variant_3_evicts 0 : 0 1 : 0 2 : 0 3 : 0 
Heartbeat CPU 0 instructions: 10000001 cycles: 2795789 heartbeat IPC: 3.57681 cumulative IPC: 3.57681 (Simulation time: 0 hr 1 min 37 sec) 
Heartbeat_Variant_0 : 1385 0.338135 per_variant_size: 0 1385 0 0 0 0 0 0 0 
Heartbeat_Variant_1 : 2520 0.615234 per_variant_size: 0 274 2246 0 0 0 0 0 0 
Heartbeat_Variant_2 : 0 0 per_variant_size: 0 0 0 0 0 0 0 0 0 
Heartbeat_Variant_3 : 0 0 per_variant_size: 0 0 0 0 0 0 0 0 0 
Heartbeat_Variant_0_evicts 0 : 5548 1 : 57 2 : 0 3 : 0 
Heartbeat_Variant_1_evicts 0 : 48 1 : 0 2 : 0 3 : 0 
Heartbeat_Variant_2_evicts 0 : 0 1 : 0 2 : 0 3 : 0 
Heartbeat_Variant_3_evicts 0 : 0 1 : 0 2 : 0 3 : 0 
Heartbeat CPU 0 instructions: 20000003 cycles: 5589379 heartbeat IPC: 3.57962 cumulative IPC: 3.57822 (Simulation time: 0 hr 3 min 15 sec) 
Heartbeat_Variant_0 : 1405 0.343018 per_variant_size: 0 1405 0 0 0 0 0 0 0 
Heartbeat_Variant_1 : 2560 0.625 per_variant_size: 0 250 2310 0 0 0 0 0 0 
Heartbeat_Variant_2 : 0 0 per_variant_size: 0 0 0 0 0 0 0 0 0 
Heartbeat_Variant_3 : 0 0 per_variant_size: 0 0 0 0 0 0 0 0 0 
Heartbeat_Variant_0_evicts 0 : 5540 1 : 50 2 : 0 3 : 0 
Heartbeat_Variant_1_evicts 0 : 45 1 : 0 2 : 0 3 : 0 
Heartbeat_Variant_2_evicts 0 : 0 1 : 0 2 : 0 3 : 0 
Heartbeat_Variant_3_evicts 0 : 0 1 : 0 2 : 0 3 : 0 
Heartbeat CPU 0 instructions: 30000000 cycles: 8384321 heartbeat IPC: 3.57789 cumulative IPC: 3.57811 (Simulation time: 0 hr 4 min 51 sec) 
Heartbeat_Variant_0 : 1410 0.344238 per_variant_size: 0 1410 0 0 0 0 0 0 0 
Heartbeat_Variant_1 : 2564 0.625977 per_variant_size: 0 248 2316 0 0 0 0 0 0 
Heartbeat_Variant_2 : 0 0 per_variant_size: 0 0 0 0 0 0 0 0 0 
Heartbeat_Variant_3 : 0 0 per_variant_size: 0 0 0 0 0 0 0 0 0 
Heartbeat_Variant_0_evicts 0 : 5641 1 : 39 2 : 0 3 : 0 
Heartbeat_Variant_1_evicts 0 : 38 1 : 0 2 : 0 3 : 0 
Heartbeat_Variant_2_evicts 0 : 0 1 : 0 2 : 0 3 : 0 
Heartbeat_Variant_3_evicts 0 : 0 1 : 0 2 : 0 3 : 0 
Heartbeat CPU 0 instructions: 40000003 cycles: 11180547 heartbeat IPC: 3.57625 cumulative IPC: 3.57764 (Simulation time: 0 hr 6 min 26 sec) 
Heartbeat_Variant_0 : 1411 0.344482 per_variant_size: 0 1411 0 0 0 0 0 0 0 
Heartbeat_Variant_1 : 2564 0.625977 per_variant_size: 0 242 2322 0 0 0 0 0 0 
Heartbeat_Variant_2 : 0 0 per_variant_size: 0 0 0 0 0 0 0 0 0 
Heartbeat_Variant_3 : 0 0 per_variant_size: 0 0 0 0 0 0 0 0 0 
Heartbeat_Variant_0_evicts 0 : 5529 1 : 11 2 : 0 3 : 0 
Heartbeat_Variant_1_evicts 0 : 10 1 : 0 2 : 0 3 : 0 
Heartbeat_Variant_2_evicts 0 : 0 1 : 0 2 : 0 3 : 0 
Heartbeat_Variant_3_evicts 0 : 0 1 : 0 2 : 0 3 : 0 
Heartbeat CPU 0 instructions: 50000000 cycles: 13975237 heartbeat IPC: 3.57821 cumulative IPC: 3.57776 (Simulation time: 0 hr 8 min 5 sec) 

Warmup complete CPU 0 instructions: 50000004 cycles: 13975238 (Simulation time: 0 hr 8 min 5 sec) 

Cycle: 20000000 FTQ IN: 58313482 FTQ occupancy: 19.9441 DECODE IN: 58313450 DECODE occupancy: 52.0185 ROB IN: 58313450 ROB occupancy: 315.579 ROB OUT: 58313346
Heartbeat_Variant_0 : 1410 0.344238 per_variant_size: 0 1410 0 0 0 0 0 0 0 
Heartbeat_Variant_1 : 2568 0.626953 per_variant_size: 0 263 2305 0 0 0 0 0 0 
Heartbeat_Variant_2 : 0 0 per_variant_size: 0 0 0 0 0 0 0 0 0 
Heartbeat_Variant_3 : 0 0 per_variant_size: 0 0 0 0 0 0 0 0 0 
Heartbeat_Variant_0_evicts 0 : 5537 1 : 15 2 : 0 3 : 0 
Heartbeat_Variant_1_evicts 0 : 18 1 : 0 2 : 0 3 : 0 
Heartbeat_Variant_2_evicts 0 : 0 1 : 0 2 : 0 3 : 0 
Heartbeat_Variant_3_evicts 0 : 0 1 : 0 2 : 0 3 : 0 
Heartbeat CPU 0 instructions: 60000000 cycles: 21210294 heartbeat IPC: 1.38216 cumulative IPC: 1.38216 (Simulation time: 0 hr 9 min 55 sec) 
Heartbeat_Variant_0 : 1412 0.344727 per_variant_size: 0 1412 0 0 0 0 0 0 0 
Heartbeat_Variant_1 : 2576 0.628906 per_variant_size: 0 260 2316 0 0 0 0 0 0 
Heartbeat_Variant_2 : 0 0 per_variant_size: 0 0 0 0 0 0 0 0 0 
Heartbeat_Variant_3 : 0 0 per_variant_size: 0 0 0 0 0 0 0 0 0 
Heartbeat_Variant_0_evicts 0 : 5599 1 : 23 2 : 0 3 : 0 
Heartbeat_Variant_1_evicts 0 : 25 1 : 0 2 : 0 3 : 0 
Heartbeat_Variant_2_evicts 0 : 0 1 : 0 2 : 0 3 : 0 
Heartbeat_Variant_3_evicts 0 : 0 1 : 0 2 : 0 3 : 0 
Heartbeat CPU 0 instructions: 70000000 cycles: 28504549 heartbeat IPC: 1.37094 cumulative IPC: 1.37653 (Simulation time: 0 hr 11 min 47 sec) 
Cycle: 30000000 FTQ IN: 13774011 FTQ occupancy: 13.0856 DECODE IN: 13774021 DECODE occupancy: 33.637 ROB IN: 13774021 ROB occupancy: 239.329 ROB OUT: 13774094
Heartbeat_Variant_0 : 1412 0.344727 per_variant_size: 0 1412 0 0 0 0 0 0 0 
Heartbeat_Variant_1 : 2576 0.628906 per_variant_size: 0 256 2320 0 0 0 0 0 0 
Heartbeat_Variant_2 : 0 0 per_variant_size: 0 0 0 0 0 0 0 0 0 
Heartbeat_Variant_3 : 0 0 per_variant_size: 0 0 0 0 0 0 0 0 0 
Heartbeat_Variant_0_evicts 0 : 5606 1 : 0 2 : 0 3 : 0 
Heartbeat_Variant_1_evicts 0 : 0 1 : 0 2 : 0 3 : 0 
Heartbeat_Variant_2_evicts 0 : 0 1 : 0 2 : 0 3 : 0 
Heartbeat_Variant_3_evicts 0 : 0 1 : 0 2 : 0 3 : 0 
Heartbeat CPU 0 instructions: 80000002 cycles: 35689898 heartbeat IPC: 1.39172 cumulative IPC: 1.38156 (Simulation time: 0 hr 13 min 35 sec) 
Cycle: 40000000 FTQ IN: 13908469 FTQ occupancy: 13.0046 DECODE IN: 13908392 DECODE occupancy: 33.6354 ROB IN: 13908332 ROB occupancy: 240.127 ROB OUT: 13908014
Heartbeat_Variant_0 : 1419 0.346436 per_variant_size: 0 1419 0 0 0 0 0 0 0 
Heartbeat_Variant_1 : 2592 0.632812 per_variant_size: 0 249 2343 0 0 0 0 0 0 
Heartbeat_Variant_2 : 0 0 per_variant_size: 0 0 0 0 0 0 0 0 0 
Heartbeat_Variant_3 : 0 0 per_variant_size: 0 0 0 0 0 0 0 0 0 
Heartbeat_Variant_0_evicts 0 : 5602 1 : 78 2 : 0 3 : 0 
Heartbeat_Variant_1_evicts 0 : 77 1 : 0 2 : 0 3 : 0 
Heartbeat_Variant_2_evicts 0 : 0 1 : 0 2 : 0 3 : 0 
Heartbeat_Variant_3_evicts 0 : 0 1 : 0 2 : 0 3 : 0 
Heartbeat CPU 0 instructions: 90000000 cycles: 42978236 heartbeat IPC: 1.37205 cumulative IPC: 1.37917 (Simulation time: 0 hr 15 min 25 sec) 
*** Reached end of trace for Core: 0 Repeating trace: ./micro_traces/srv514.trace.gz
Cycle: 50000000 FTQ IN: 13763156 FTQ occupancy: 13.2137 DECODE IN: 13763114 DECODE occupancy: 33.9434 ROB IN: 13763114 ROB occupancy: 239.892 ROB OUT: 13763111
Heartbeat_Variant_0 : 1417 0.345947 per_variant_size: 0 1417 0 0 0 0 0 0 0 
Heartbeat_Variant_1 : 2594 0.633301 per_variant_size: 0 249 2345 0 0 0 0 0 0 
Heartbeat_Variant_2 : 0 0 per_variant_size: 0 0 0 0 0 0 0 0 0 
Heartbeat_Variant_3 : 0 0 per_variant_size: 0 0 0 0 0 0 0 0 0 
Heartbeat_Variant_0_evicts 0 : 5580 1 : 5 2 : 0 3 : 0 
Heartbeat_Variant_1_evicts 0 : 7 1 : 0 2 : 0 3 : 0 
Heartbeat_Variant_2_evicts 0 : 0 1 : 0 2 : 0 3 : 0 
Heartbeat_Variant_3_evicts 0 : 0 1 : 0 2 : 0 3 : 0 
Heartbeat CPU 0 instructions: 100000002 cycles: 50180320 heartbeat IPC: 1.38849 cumulative IPC: 1.38102 (Simulation time: 0 hr 17 min 14 sec) 
Finished CPU 0 instructions: 50000002 cycles: 36205083 cumulative IPC: 1.38102 (Simulation time: 0 hr 17 min 14 sec) 

ChampSim completed all CPUs

Region of Interest Statistics

CPU 0 cumulative IPC: 1.38102 instructions: 50000002 cycles: 36205083
 Fetch stage stalled: 53.5272  Sim cycles: 36205083 fetch stall cycle: 19379554
 Empty decode stage: 35.4633  Sim cycles: 36205083 fetch stall cycle: 12839502
ITLB TOTAL     ACCESS:    5848347  HIT:    5358210  MISS:     490137  HIT %:    91.6192  MISS %:    8.38078   MPKI: 9.80274
ITLB LOAD TRANSLATION INSTRUCTION	ACCESS:    5722126  HIT:    5231989  MISS:     490137  HIT %:    91.4344  MISS %:    8.56565  MPKI: 9.80274
ITLB TRANSLATION FROM L1D PREFETCHER INSTRUCTION	ACCESS:     126221  HIT:     126221  MISS:          0  HIT %:        100  MISS %:          0  MPKI: 0

ITLB AVERAGE MISS LATENCY: 9.06069 cycles
ITLB RQ	ACCESS:    7983510	FORWARD:          0	MERGED:    1693187	TO_CACHE:    6290323

DTLB TOTAL     ACCESS:    8929106  HIT:    8456634  MISS:     472472  HIT %:    94.7086  MISS %:    5.29137   MPKI: 9.44944
DTLB LOAD TRANSLATION DATA	ACCESS:    8929106  HIT:    8456634  MISS:     472472  HIT %:    94.7086  MISS %:    5.29137  MPKI: 9.44944

DTLB AVERAGE MISS LATENCY: 9.33283 cycles
DTLB RQ	ACCESS:   13292456	FORWARD:          0	MERGED:    4326544	TO_CACHE:    8965912

STLB TOTAL     ACCESS:    1219290  HIT:    1217166  MISS:       2124  HIT %:    99.8258  MISS %:     0.1742   MPKI: 0.04248
STLB LOAD TRANSLATION INSTRUCTION	ACCESS:     490137  HIT:     489876  MISS:        261  HIT %:    99.9467  MISS %:  0.0532504  MPKI: 0.00522
STLB LOAD TRANSLATION DATA	ACCESS:     472472  HIT:     470622  MISS:       1850  HIT %:    99.6084  MISS %:   0.391558  MPKI: 0.037
STLB TRANSLATION FROM L1D PREFETCHER DATA	ACCESS:     256681  HIT:     256668  MISS:         13  HIT %:    99.9949  MISS %: 0.00506465  MPKI: 0.00026

STLB AVERAGE MISS LATENCY: 73.3583 cycles
STLB RQ	ACCESS:    1365700	FORWARD:          0	MERGED:     146379	TO_CACHE:    1219321

STLB Hit, L1D data hit: 0
STLB Hit, L2C data hit: 0
STLB Hit, LLC data hit: 0
STLB Hit, LLC data miss: 0
STLB STLB hints to L2: 0
L1D TOTAL     ACCESS:   13050121  HIT:   11890664  MISS:    1159457  HIT %:    91.1154  MISS %:    8.88465   MPKI: 23.1891
L1D LOAD DATA	ACCESS:    6552853  HIT:    5788376  MISS:     764477  HIT %:    88.3337  MISS %:    11.6663  MPKI: 15.2895
L1D RFO DATA	ACCESS:    6157727  HIT:    5868872  MISS:     288855  HIT %:    95.3091  MISS %:    4.69094  MPKI: 5.7771
L1D PREFETCH DATA	ACCESS:     339541  HIT:     233416  MISS:     106125  HIT %:    68.7446  MISS %:    31.2554  MPKI: 2.1225

L1D PREFETCH  REQUESTED:     806497  ISSUED:     806497  USEFUL:      48031  USELESS:      70819
L1D USEFUL LOAD PREFETCHES:      48031 PREFETCH ISSUED TO LOWER LEVEL:     118939  ACCURACY: 40.3829
 TIMELY PREFETCHES:      48031 LATE PREFETCHES: 12742 DROPPED PREFETCHES: 10
L1D AVERAGE MISS LATENCY: 356493 cycles
L1D RQ	ACCESS:   10670448	FORWARD:          0	MERGED:    3921437	TO_CACHE:    6587791
L1D WQ	ACCESS:    6901403	FORWARD:     161535	MERGED:     196738	TO_CACHE:    6704665
L1D PQ	ACCESS:     403406	FORWARD:          0	MERGED:          0	TO_CACHE:     403091

L1D UNIQUE REGIONS ACCESSED: 0
L1D REGIONS CONFLICTS: 0
L1D Cross Page Prefetch Requests: 5832
L1D Same Page Prefetch Requests: 819114
L1D ROI Sum of L1D PQ occupancy: 5114968
L1D PREFETCHES PUSHED FROM L2C: 0
L1I TOTAL     ACCESS:    7138795  HIT:    4396563  MISS:    2742232  HIT %:    61.5869  MISS %:    38.4131   MPKI: 54.8446
L1I LOAD INSTRUCTION	ACCESS:    6475816  HIT:    3733584  MISS:    2742232  HIT %:    57.6543  MISS %:    42.3457  MPKI: 54.8446
L1I PREFETCH INSTRUCTION	ACCESS:     662979  HIT:     662979  MISS:          0  HIT %:        100  MISS %:          0  MPKI: 0

L1I PREFETCH  REQUESTED:    1608845  ISSUED:    1608845  USEFUL:          0  USELESS:          0
L1I USEFUL LOAD PREFETCHES:          0 PREFETCH ISSUED TO LOWER LEVEL:          0  ACCURACY: -nan
 TIMELY PREFETCHES:          0 LATE PREFETCHES: 0 DROPPED PREFETCHES: 0
L1I AVERAGE MISS LATENCY: 17.6851 cycles
L1I RQ	ACCESS:    9514648	FORWARD:          0	MERGED:    2711873	TO_CACHE:    6802775
L1I PQ	ACCESS:    1608845	FORWARD:          0	MERGED:     428110	TO_CACHE:    1180735

L1BTB TOTAL     ACCESS:    5681167  HIT:    2078183  MISS:    3602984  HIT %:    36.5802  MISS %:    63.4198   MPKI: 72.0597
L1BTB BRANCH_DIRECT_JUMP	ACCESS:     545087 HIT:     144165 MISS:     400922 AVERAGE STALL: 50.8486 AVERAGE FETCH STALL: 13.0158 AVERAGE FETCH QUEUE STALL: 16.0428 AVERAGE DECODE STALL: 20.8504 AVERAGE EXECUTE STALL: 2.19709e+15
L1BTB BRANCH_INDIRECT	ACCESS:     181892 HIT:      65660 MISS:     116232 AVERAGE STALL: 107.363 AVERAGE FETCH STALL: 11.1134 AVERAGE FETCH QUEUE STALL: 14.2979 AVERAGE DECODE STALL: 12.1846 AVERAGE EXECUTE STALL: 68.8059
L1BTB BRANCH_CONDITIONAL	ACCESS:    2737892 HIT:    1454264 MISS:    1283628 AVERAGE STALL: 58.8503 AVERAGE FETCH STALL: 21.7916 AVERAGE FETCH QUEUE STALL: 20.8255 AVERAGE DECODE STALL: 15.5557 AVERAGE EXECUTE STALL: 3.76849e+15
L1BTB BRANCH_DIRECT_CALL	ACCESS:     937390 HIT:     104298 MISS:     833092 AVERAGE STALL: 56.8116 AVERAGE FETCH STALL: 25.1336 AVERAGE FETCH QUEUE STALL: 16.8196 AVERAGE DECODE STALL: 14.3139 AVERAGE EXECUTE STALL: 2.10579e+16
L1BTB BRANCH_INDIRECT_CALL	ACCESS:     170769 HIT:      21331 MISS:     149438 AVERAGE STALL: 130.903 AVERAGE FETCH STALL: 12.6083 AVERAGE FETCH QUEUE STALL: 13.0078 AVERAGE DECODE STALL: 10.5676 AVERAGE EXECUTE STALL: 94.2323
L1BTB BRANCH_RETURN	ACCESS:    1108137 HIT:     288465 MISS:     819672 AVERAGE STALL: 48.4832 AVERAGE FETCH STALL: 16.5304 AVERAGE FETCH QUEUE STALL: 5.82869 AVERAGE DECODE STALL: 7.24426 AVERAGE EXECUTE STALL: 4.10777e+14
L1BTB BRANCH_OTHER ACCESS:          0 HIT:          0 MISS:          0 AVERAGE STALL: -nan AVERAGE FETCH STALL: -nan AVERAGE FETCH QUEUE STALL: -nan AVERAGE DECODE STALL: -nan AVERAGE EXECUTE STALL: -nan
L1BTB TOTAL ROB OCCUPANCY AT BTB MISS: 2.73681

L2BTB TOTAL     ACCESS:    3577708  HIT:    3511418  MISS:      66290  HIT %:    98.1471  MISS %:    1.85286   MPKI: 1.3258
L2BTB BRANCH_DIRECT_JUMP	ACCESS:     396761 HIT:     392522 MISS:       4239 AVERAGE STALL: 50.8486 AVERAGE FETCH STALL: 13.0158 AVERAGE FETCH QUEUE STALL: 16.0428 AVERAGE DECODE STALL: 20.8504 AVERAGE EXECUTE STALL: 2.19709e+15
L2BTB BRANCH_INDIRECT	ACCESS:     106022 HIT:     103366 MISS:       2656 AVERAGE STALL: 107.363 AVERAGE FETCH STALL: 11.1134 AVERAGE FETCH QUEUE STALL: 14.2979 AVERAGE DECODE STALL: 12.1846 AVERAGE EXECUTE STALL: 68.8059
L2BTB BRANCH_CONDITIONAL	ACCESS:    1283628 HIT:    1278707 MISS:       4921 AVERAGE STALL: 58.8503 AVERAGE FETCH STALL: 21.7916 AVERAGE FETCH QUEUE STALL: 20.8255 AVERAGE DECODE STALL: 15.5557 AVERAGE EXECUTE STALL: 3.76849e+15
L2BTB BRANCH_DIRECT_CALL	ACCESS:     833092 HIT:     832205 MISS:        887 AVERAGE STALL: 56.8116 AVERAGE FETCH STALL: 25.1336 AVERAGE FETCH QUEUE STALL: 16.8196 AVERAGE DECODE STALL: 14.3139 AVERAGE EXECUTE STALL: 2.10579e+16
L2BTB BRANCH_INDIRECT_CALL	ACCESS:     139918 HIT:     129869 MISS:      10049 AVERAGE STALL: 130.903 AVERAGE FETCH STALL: 12.6083 AVERAGE FETCH QUEUE STALL: 13.0078 AVERAGE DECODE STALL: 10.5676 AVERAGE EXECUTE STALL: 94.2323
L2BTB BRANCH_RETURN	ACCESS:     818287 HIT:     774749 MISS:      43538 AVERAGE STALL: 48.4832 AVERAGE FETCH STALL: 16.5304 AVERAGE FETCH QUEUE STALL: 5.82869 AVERAGE DECODE STALL: 7.24426 AVERAGE EXECUTE STALL: 4.10777e+14
L2BTB BRANCH_OTHER ACCESS:          0 HIT:          0 MISS:          0 AVERAGE STALL: -nan AVERAGE FETCH STALL: -nan AVERAGE FETCH QUEUE STALL: -nan AVERAGE DECODE STALL: -nan AVERAGE EXECUTE STALL: -nan
L2BTB TOTAL ROB OCCUPANCY AT BTB MISS: 148.751

L2C TOTAL     ACCESS:    4518507  HIT:    3989922  MISS:     528585  HIT %:    88.3018  MISS %:    11.6982   MPKI: 10.5717
L2C LOAD INSTRUCTION	ACCESS:    2742233  HIT:    2440551  MISS:     301682  HIT %:    88.9987  MISS %:    11.0013  MPKI: 6.03364
L2C LOAD TRANSLATION INSTRUCTION	ACCESS:        296  HIT:         69  MISS:        227  HIT %:    23.3108  MISS %:    76.6892  MPKI: 0.00454
L2C LOAD DATA	ACCESS:     751695  HIT:     669105  MISS:      82590  HIT %:    89.0128  MISS %:    10.9872  MPKI: 1.6518
L2C RFO DATA	ACCESS:     288768  HIT:     236890  MISS:      51878  HIT %:    82.0347  MISS %:    17.9653  MPKI: 1.03756
L2C PREFETCH DATA	ACCESS:     207982  HIT:     132965  MISS:      75017  HIT %:     63.931  MISS %:     36.069  MPKI: 1.50034
L2C WRITEBACK DATA	ACCESS:     525581  HIT:     509783  MISS:      15798  HIT %:    96.9942  MISS %:    3.00582  MPKI: 0.31596
L2C LOAD TRANSLATION DATA	ACCESS:       1925  HIT:        536  MISS:       1389  HIT %:    27.8442  MISS %:    72.1558  MPKI: 0.02778
L2C TRANSLATION FROM L1D PREFETCHER DATA	ACCESS:         27  HIT:         23  MISS:          4  HIT %:    85.1852  MISS %:    14.8148  MPKI: 8e-05

L2C PREFETCH  REQUESTED:      96094  ISSUED:      96094  USEFUL:       8980  USELESS:      66423
L2C USEFUL LOAD PREFETCHES:       8980 PREFETCH ISSUED TO LOWER LEVEL:      75437  ACCURACY: 11.904
 TIMELY PREFETCHES:       8980 LATE PREFETCHES: 420 DROPPED PREFETCHES: 0
L2C AVERAGE MISS LATENCY: 37.5918 cycles
L2C RQ	ACCESS:    3785001	FORWARD:          0	MERGED:          0	TO_CACHE:    3784946
L2C WQ	ACCESS:     525581	FORWARD:         56	MERGED:          0	TO_CACHE:     525581
L2C PQ	ACCESS:     215033	FORWARD:          0	MERGED:       3202	TO_CACHE:     211830

L2C Dense regions hint from L2: 0
PSCL5 TOTAL     ACCESS:       4268  HIT:       2134  MISS:       2134  HIT %:         50  MISS %:         50   MPKI: 0.04268
PSCL5 LOAD TRANSLATION INSTRUCTION	ACCESS:       4214  HIT:       2107  MISS:       2107  HIT %:         50  MISS %:         50  MPKI: 0.04214
PSCL5 TRANSLATION FROM L1D PREFETCHER INSTRUCTION	ACCESS:         54  HIT:         27  MISS:         27  HIT %:         50  MISS %:         50  MPKI: 0.00054


PSCL4 TOTAL     ACCESS:       3879  HIT:       1937  MISS:       1942  HIT %:    49.9356  MISS %:    50.0644   MPKI: 0.03884
PSCL4 LOAD TRANSLATION INSTRUCTION	ACCESS:       3047  HIT:       1910  MISS:       1137  HIT %:    62.6846  MISS %:    37.3154  MPKI: 0.02274
PSCL4 TRANSLATION FROM L1D PREFETCHER INSTRUCTION	ACCESS:         42  HIT:         27  MISS:         15  HIT %:    64.2857  MISS %:    35.7143  MPKI: 0.0003
PSCL4 LOAD TRANSLATION DATA	ACCESS:        778  HIT:          0  MISS:        778  HIT %:          0  MISS %:        100  MPKI: 0.01556
PSCL4 TRANSLATION FROM L1D PREFETCHER DATA	ACCESS:         12  HIT:          0  MISS:         12  HIT %:          0  MISS %:        100  MPKI: 0.00024


PSCL3 TOTAL     ACCESS:       4138  HIT:       2064  MISS:       2074  HIT %:    49.8792  MISS %:    50.1208   MPKI: 0.04148
PSCL3 LOAD TRANSLATION INSTRUCTION	ACCESS:       2153  HIT:       2038  MISS:        115  HIT %:    94.6586  MISS %:    5.34138  MPKI: 0.0023
PSCL3 TRANSLATION FROM L1D PREFETCHER INSTRUCTION	ACCESS:         26  HIT:         26  MISS:          0  HIT %:        100  MISS %:          0  MPKI: 0
PSCL3 LOAD TRANSLATION DATA	ACCESS:       1933  HIT:          0  MISS:       1933  HIT %:          0  MISS %:        100  MPKI: 0.03866
PSCL3 TRANSLATION FROM L1D PREFETCHER DATA	ACCESS:         26  HIT:          0  MISS:         26  HIT %:          0  MISS %:        100  MPKI: 0.00052


PSCL2 TOTAL     ACCESS:       4168  HIT:       2034  MISS:       2134  HIT %:    48.8004  MISS %:    51.1996   MPKI: 0.04268
PSCL2 LOAD TRANSLATION INSTRUCTION	ACCESS:       2267  HIT:       2007  MISS:        260  HIT %:    88.5311  MISS %:    11.4689  MPKI: 0.0052
PSCL2 TRANSLATION FROM L1D PREFETCHER INSTRUCTION	ACCESS:         27  HIT:         27  MISS:          0  HIT %:        100  MISS %:          0  MPKI: 0
PSCL2 LOAD TRANSLATION DATA	ACCESS:       1847  HIT:          0  MISS:       1847  HIT %:          0  MISS %:        100  MPKI: 0.03694
PSCL2 TRANSLATION FROM L1D PREFETCHER DATA	ACCESS:         27  HIT:          0  MISS:         27  HIT %:          0  MISS %:        100  MPKI: 0.00054


LLC TOTAL     ACCESS:     590521  HIT:     562255  MISS:      28266  HIT %:    95.2134  MISS %:    4.78662   MPKI: 0.56532
LLC LOAD INSTRUCTION	ACCESS:     301682  HIT:     300790  MISS:        892  HIT %:    99.7043  MISS %:   0.295676  MPKI: 0.01784
LLC LOAD TRANSLATION INSTRUCTION	ACCESS:        227  HIT:        189  MISS:         38  HIT %:    83.2599  MISS %:    16.7401  MPKI: 0.00076
LLC LOAD DATA	ACCESS:      82226  HIT:      78666  MISS:       3560  HIT %:    95.6705  MISS %:    4.32953  MPKI: 0.0712
LLC RFO DATA	ACCESS:      51799  HIT:      38450  MISS:      13349  HIT %:    74.2292  MISS %:    25.7708  MPKI: 0.26698
LLC PREFETCH DATA	ACCESS:      75436  HIT:      65368  MISS:      10068  HIT %:    86.6536  MISS %:    13.3464  MPKI: 0.20136
LLC WRITEBACK DATA	ACCESS:      77758  HIT:      77477  MISS:        281  HIT %:    99.6386  MISS %:   0.361378  MPKI: 0.00562
LLC LOAD TRANSLATION DATA	ACCESS:       1389  HIT:       1312  MISS:         77  HIT %:    94.4564  MISS %:    5.54356  MPKI: 0.00154
LLC TRANSLATION FROM L1D PREFETCHER DATA	ACCESS:          4  HIT:          3  MISS:          1  HIT %:         75  MISS %:         25  MPKI: 2e-05

LLC AVERAGE MISS LATENCY: 157.675 cycles
LLC RQ	ACCESS:     437350	FORWARD:          0	MERGED:          0	TO_CACHE:     437327
LLC WQ	ACCESS:      77758	FORWARD:         24	MERGED:          0	TO_CACHE:      77758
LLC PQ	ACCESS:      75437	FORWARD:          0	MERGED:          0	TO_CACHE:      75436

LLC Dense regions hint to LLC: 0

RAW hits: 1933640
Loads Generated: 12604088
Loads sent to L1D: 10670448
Stores Generated: 6901384
Stores sent to L1D: 6901403
Major fault: 0 Minor fault: 2600
Allocated PAGES: 2600

stream: 
stream:times selected: 1257314
stream:pref_filled: 127879
stream:pref_useful: 28851
stream:pref_late: 9497
stream:misses: 10690
stream:misses_by_poll: 0

CS: 
CS:times selected: 197459
CS:pref_filled: 75314
CS:pref_useful: 51654
CS:pref_late: 8920
CS:misses: 23632
CS:misses_by_poll: 3

CPLX: 
CPLX:times selected: 1058788
CPLX:pref_filled: 25243
CPLX:pref_useful: 7865
CPLX:pref_late: 4082
CPLX:misses: 130799
CPLX:misses_by_poll: 1

NL_L1: 
NL:times selected: 12663
NL:pref_filled: 1148
NL:pref_useful: 332
NL:pref_late: 468
NL:misses: 2047
NL:misses_by_poll: 0

total selections: 2526224
total_filled: 106125
total_useful: 48031
total_late: 25306
total_polluted: 4
total_misses_after_warmup: 799415
conflicts: 5482689

test: 120001

DRAM Statistics
 CHANNEL 0
 RQ ROW_BUFFER_HIT:      10143  ROW_BUFFER_MISS:      17839
 DBUS_CONGESTED:         12
 WQ ROW_BUFFER_HIT:       1440  ROW_BUFFER_MISS:      12437  FULL:          0

 AVG_CONGESTED_CYCLE: 5

CPU 0 Branch Prediction Accuracy: 99.8227% MPKI: 0.3247 Average ROB Occupancy at Mispredict: 195.188
Branch types
NOT_BRANCH: 40841987 81.684%
BRANCH_DIRECT_JUMP: 545087 1.09017%
BRANCH_INDIRECT: 181892 0.363784%
BRANCH_CONDITIONAL: 6214600 12.4292%
BRANCH_DIRECT_CALL: 937390 1.87478%
BRANCH_INDIRECT_CALL: 170769 0.341538%
BRANCH_RETURN: 1108137 2.21627%
BRANCH_OTHER: 0 0%

DRAM PAGES: 1048576
Allocated PAGES: 2600
Average_ROB_Occupancy: 240.87
Average_Decode_Occupancy: 33.6627
Average_FTQ_Occupancy: 13.0518
Indirect max targets: 14 Average targets: 1.14478
Branch_type:  BRANCH_DIRECT_JUMP:  Count Percentage: 3.32704 6.00621 4.23779 7.9044 3.3151 6.01943 1.18464 68.0054 
Branch_type:  BRANCH_INDIRECT:  Count Percentage: 6.14169 3.48153 8.18425 9.67574 3.33826 2.80288 3.06906 63.3066 
Branch_type:  BRANCH_CONDITIONAL:  Count Percentage: 26.0831 2.72406 1.62149 4.56803 2.01565 3.53613 0.919638 58.5319 
Branch_type:  BRANCH_DIRECT_CALL:  Count Percentage: 0.847596 1.23517 0.745457 3.7102 3.21163 2.62085 0.834622 86.7945 
Branch_type:  BRANCH_INDIRECT_CALL:  Count Percentage: 9.5113 0 2.98331 0 1.28367 1.70462 3.28056 81.2365 
Branch_type:  BRANCH_RETURN:  Count Percentage: 8.21506 1.23954 1.20248 3.67014 4.41065 3.49654 1.25485 76.5107 
Branch_type:  BRANCH_DIRECT_JUMP:  Total Count: 36224 65394 46140 86061 36094 65538 12898 740425 
Branch_type:  BRANCH_INDIRECT:  Total Count: 22335 12661 29763 35187 12140 10193 11161 230222 
Branch_type:  BRANCH_CONDITIONAL:  Total Count: 3239237 338298 201372 567300 250322 439149 114209 7269024 
Branch_type:  BRANCH_DIRECT_CALL:  Total Count: 15875 23134 13962 69490 60152 49087 15632 1625612 
Branch_type:  BRANCH_INDIRECT_CALL:  Total Count: 32446 0 10177 0 4379 5815 11191 277123 
Branch_type:  BRANCH_RETURN:  Total Count: 181951 27454 26633 81288 97689 77443 27793 1694595 
Number of unique branch instructions: 10054
Upper 32 bits: 
aaaa
ffff
ffff0000
Unique upper 32 bits: 3
Unique upper 36 bits: 3
Unique upper 40 bits: 5
Unique upper 44 bits: 32
Unique upper 48 bits: 157
Variant_0 : 1417 0.345947
Variant_1 : 2594 0.633301
Variant_2 : 0 0
Variant_3 : 0 0
Offset_3 4136
Offset_4 251
Offset_5 460
Offset_6 515
Offset_7 583
Offset_8 514
Offset_9 482
Offset_10 381
Offset_11 314
Offset_12 272
Offset_13 215
Offset_14 229
Offset_15 192
Offset_16 224
Offset_17 151
Offset_18 126
Offset_19 240
Offset_20 140
Offset_21 241
Offset_22 397
Offset_23 241
Offset_24 333
Offset_25 88
Offset_47 82
Offset_64 1
decode_dispatch_called: 25313419 69.9168
Dispatch_width: 0 13466692 53.1998 37.1956
Dispatch_width: 1 964993 3.81218 2.66535
Dispatch_width: 2 824718 3.25803 2.27791
Dispatch_width: 3 494234 1.95246 1.3651
Dispatch_width: 4 5661070 22.3639 15.6361
Dispatch_width: 5 151698 0.599279 0.418996
Dispatch_width: 6 3750014 14.8143 10.3577
Empty_decode_cycles: 10891664 30.0832
ROB_full_cycles: 8901508 24.5863
Starvation_cycles_per_kilo_instr: 235.536
Starvation_cycles_per_kilo_instr_3: 177.408
Starvation_cycles_per_kilo_instr_0: 154.568
Branch_type_1  (3,1)  (4,9)  (5,37)  (6,71)  (7,114)  (8,130)  (9,127)  (10,99)  (11,70)  (12,43)  (13,5)  (14,2)  (15,3)  (16,4)  (18,1)  (19,4)  (20,2)  (21,1)  (22,3)  (23,2)  (24,10)  (25,12) 
Branch_type_2  (3,1)  (5,1)  (8,3)  (9,3)  (12,1)  (13,1)  (14,1)  (16,3)  (17,2)  (20,2)  (21,2)  (23,5)  (24,1)  (47,38) 
Branch_type_3  (3,4134)  (4,242)  (5,418)  (6,429)  (7,440)  (8,320)  (9,267)  (10,156)  (11,127)  (12,50)  (13,4)  (64,1) 
Branch_type_4  (6,3)  (7,8)  (8,25)  (9,52)  (10,60)  (11,59)  (12,97)  (13,95)  (14,101)  (15,90)  (16,100)  (17,67)  (18,57)  (19,118)  (20,73)  (21,127)  (22,211)  (23,136)  (24,194)  (25,72) 
Branch_type_5  (8,2)  (9,1)  (10,3)  (11,5)  (12,3)  (13,14)  (14,16)  (15,11)  (16,20)  (17,12)  (18,16)  (19,12)  (20,10)  (21,13)  (22,42)  (23,26)  (24,37) 
Branch_type_6  (5,4)  (6,12)  (7,21)  (8,34)  (9,32)  (10,63)  (11,53)  (12,78)  (13,96)  (14,109)  (15,88)  (16,97)  (17,70)  (18,52)  (19,106)  (20,53)  (21,98)  (22,141)  (23,72)  (24,91)  (25,4)  (47,44) 
Unique trigger count: 
Variant_0_evicts_0 : 0
Variant_0_evicts_1 : 0
Variant_0_evicts_2 : 0
Variant_0_evicts_3 : 0
Variant_1_evicts_0 : 0
Variant_1_evicts_1 : 0
Variant_1_evicts_2 : 0
Variant_1_evicts_3 : 0
Variant_2_evicts_0 : 0
Variant_2_evicts_1 : 0
Variant_2_evicts_2 : 0
Variant_2_evicts_3 : 0
Variant_3_evicts_0 : 0
Variant_3_evicts_1 : 0
Variant_3_evicts_2 : 0
Variant_3_evicts_3 : 0
BTB PER SET UNIQUE ADDR: 19 13 17 15 15 15 20 16 14 14 16 12 16 17 12 16 12 17 19 14 17 11 12 17 16 14 14 17 14 16 12 11 11 14 13 12 18 19 13 18 14 15 14 14 14 17 13 15 16 10 14 18 12 17 15 13 14 14 14 14 15 16 12 21 16 18 17 12 17 13 13 13 19 13 12 15 13 17 17 12 19 15 17 16 15 17 16 15 15 20 18 13 16 16 14 17 16 10 13 15 14 21 14 14 15 14 13 11 16 14 13 16 16 15 15 12 14 10 16 12 21 14 11 14 14 15 17 11 12 15 17 15 15 17 15 15 17 13 13 18 17 15 19 16 21 15 13 16 12 16 17 15 14 17 17 17 18 10 10 20 12 13 13 13 13 14 17 14 14 15 16 15 19 10 16 21 15 15 14 14 13 16 12 18 13 14 14 18 13 23 17 10 17 12 17 19 15 18 15 7 14 23 17 13 19 11 15 14 16 18 14 15 16 13 13 15 17 11 14 17 10 17 20 13 16 15 20 14 15 13 13 17 17 14 15 18 15 16 18 15 19 16 12 16 13 16 17 17 13 19 17 15 16 11 12 15 17 19 15 15 17 12 16 18 12 13 13 13 11 21 19 18 14 14 17 17 12 17 16 11 15 16 12 15 15 12 16 19 18 12 14 16 12 15 17 13 12 16 18 13 18 14 15 14 15 16 19 13 15 15 12 14 14 12 15 17 10 16 15 12 17 11 13 14 13 17 12 15 15 17 13 10 21 13 14 16 14 18 17 12 12 12 16 15 13 11 14 20 13 13 17 12 11 18 15 12 14 12 14 14 12 13 12 14 14 21 16 13 18 7 15 18 12 20 17 12 14 17 12 14 17 13 11 18 14 15 14 19 11 16 16 14 11 19 15 14 15 10 15 15 15 17 12 15 16 15 13 13 17 12 15 18 16 14 13 13 14 19 16 13 18 16 14 15 15 13 15 18 13 16 16 13 17 15 15 19 12 18 14 15 17 17 14 13 19 13 11 18 16 15 21 15 19 13 13 13 11 13 12 16 11 14 18 18 15 14 13 14 14 15 18 12 16 16 17 16 17 12 12 19 15 11 15 22 14 14 16 10 11 21 19 12 21 13 13 17 14 21 24 10 13 12 13 15 18 12 10 16 13 18 14 8 
BTB PER SET COUNT: 52 14 17 1046 583 2153 24 17 14 14 18 12 18 17 21 16 13 2429 19 15 20 12 12 1046 19 14 16 17 16 831 14 506 11 1904 13 18 19 23 197 1014 568 19 1973 14 66 515 13 836 16 1158 16 21 367 1976 16 13 14 16 17 15 15 1901 13 1915 18 20 975 1004 1008 14 13 79 19 13 13 18 1003 17 771 15 977 15 21 19 974 21 20 258 1475 21 23 1925 18 17 14 18 16 10 14 510 14 683 14 2738 18 17 22 12 18 16 13 668 340 1912 258 12 16 10 16 14 2414 17 14 16 16 19 341 11 12 16 18 4369 53 17 482 649 18 977 16 1937 21 1932 19 3347 22 1380 14 19 15 19 17 349 453 17 1544 17 22 506 10 20 968 19 16 50 14 18 17 14 16 16 17 1969 171 10 17 517 16 20 405 213 14 20 16 19 18 16 14 21 1499 702 24 999 513 15 19 1010 19 18 15 7 17 408 19 13 20 129 30 144 19 229 15 1965 20 13 17 1467 17 1989 17 18 364 23 1470 232 16 194 540 15 973 16 13 179 19 374 93 256 21 1470 19 971 977 32 13 16 13 1470 18 18 13 24 20 387 20 13 486 328 21 22 16 15 18 14 18 30 12 13 36 16 12 592 22 1010 16 14 2071 17 12 164 18 429 17 19 14 16 15 13 18 516 21 12 14 22 12 15 17 13 1991 16 515 13 21 15 1163 15 2815 18 20361 14 16 16 13 14 14 13 15 2414 10 1250 17 14 31 13 17 14 26 17 13 145 23 23 14 505 2768 13 17 16 16 19 17 12 12 12 35 15 482 11 14 1468 15 15 19 14 13 21 23 14 511 13 14 14 12 14 12 238 17 2342 19 15 19 7 17 21 12 187 24 12 2427 19 12 17 17 13 13 25 30 16 14 19 11 1000 810 23 11 22 17 19 128 12 864 16 17 1192 13 15 16 15 15 13 21 14 15 19 1835 14 13 1007 56 19 17 16 460 16 15 18 16 13 15 19 14 17 16000 14 18 107 19 19 12 373 14 518 20 622 15 18 20 13 11 96 16 18 372 15 156 1454 13 13 12 13 3223 496 825 14 20 2427 15 14 13 14 14 16 181 12 27 17 17 7838 20 12 13 1311 1469 1498 1468 1258 18 16 16 11 11 1476 25 13 29 13 368 20 2979 129 29 13 434 12 125 107 378 13 11 16 13 181 16 8 
To predecode: 0
Predecoding something: 0
Predecode request dropped: 0
sizeofblock_0 0
sizeofblock_1 43879
sizeofblock_2 93574
sizeofblock_3 0
sizeofblock_4 0
sizeofblock_5 0
sizeofblock_6 0
sizeofblock_7 0
sizeofblock_8 0
Variant_0 Correct: 1602000 Incorrect: 0 Accuracy: 1
Variant_1 Correct: 5684916 Incorrect: 0 Accuracy: 1
Variant_2 Correct: 0 Incorrect: 0 Accuracy: -nan
Variant_3 Correct: 0 Incorrect: 0 Accuracy: -nan
