
*** ChampSim Multicore Out-of-Order Simulator ***

Warmup Instructions: 50000000
Simulation Instructions: 50000000
Number of CPUs: 1
LLC sets: 2048
LLC ways: 16
Off-chip DRAM Size: 4096 MB Channels: 1 Width: 64-bit Data Rate: 6400 MT/s
CPU 0 runs ./micro_traces/srv563.trace.gz
.gz
ITLB has LRU replacement policy
DTLB has LRU replacement policy
STLB has LRU replacement policy
FDIP Prefetcher at L1I
L1I has LRU replacement policy
L1D has LRU replacement policy
Initialize SRRIP state for L2C
Initialize DRRIP state for LLC
Heartbeat CPU 0 instructions: 10000000 cycles: 2797838 heartbeat IPC: 3.57419 cumulative IPC: 3.57419 (Simulation time: 0 hr 2 min 5 sec) 
Heartbeat CPU 0 instructions: 20000000 cycles: 5594645 heartbeat IPC: 3.57551 cumulative IPC: 3.57485 (Simulation time: 0 hr 4 min 14 sec) 
Heartbeat CPU 0 instructions: 30000002 cycles: 8391327 heartbeat IPC: 3.57567 cumulative IPC: 3.57512 (Simulation time: 0 hr 6 min 16 sec) 
Heartbeat CPU 0 instructions: 40000000 cycles: 11187438 heartbeat IPC: 3.5764 cumulative IPC: 3.57544 (Simulation time: 0 hr 8 min 20 sec) 
Heartbeat CPU 0 instructions: 50000003 cycles: 13983414 heartbeat IPC: 3.57657 cumulative IPC: 3.57566 (Simulation time: 0 hr 10 min 25 sec) 

Warmup complete CPU 0 instructions: 50000003 cycles: 13983414 (Simulation time: 0 hr 10 min 25 sec) 

Cycle: 20000000 FTQ IN: 57875039 FTQ occupancy: 19.1799 DECODE IN: 57874933 DECODE occupancy: 49.4392 ROB IN: 57874873 ROB occupancy: 299.625 ROB OUT: 57874784
Heartbeat CPU 0 instructions: 60000000 cycles: 21729849 heartbeat IPC: 1.29092 cumulative IPC: 1.29092 (Simulation time: 0 hr 12 min 34 sec) 
Heartbeat CPU 0 instructions: 70000003 cycles: 29392754 heartbeat IPC: 1.30499 cumulative IPC: 1.29791 (Simulation time: 0 hr 14 min 46 sec) 
Cycle: 30000000 FTQ IN: 12915437 FTQ occupancy: 10.4813 DECODE IN: 12915475 DECODE occupancy: 25.0416 ROB IN: 12915479 ROB occupancy: 186.655 ROB OUT: 12915220
Heartbeat CPU 0 instructions: 80000003 cycles: 37161361 heartbeat IPC: 1.28723 cumulative IPC: 1.29433 (Simulation time: 0 hr 16 min 54 sec) 
Cycle: 40000000 FTQ IN: 12915574 FTQ occupancy: 10.4512 DECODE IN: 12915634 DECODE occupancy: 24.9351 ROB IN: 12915630 ROB occupancy: 185.941 ROB OUT: 12915626
Heartbeat CPU 0 instructions: 90000000 cycles: 44816351 heartbeat IPC: 1.30634 cumulative IPC: 1.29731 (Simulation time: 0 hr 18 min 55 sec) 
Cycle: 50000000 FTQ IN: 13060100 FTQ occupancy: 10.3698 DECODE IN: 13060108 DECODE occupancy: 24.8961 ROB IN: 13060168 ROB occupancy: 185.933 ROB OUT: 13060479
Heartbeat CPU 0 instructions: 100000000 cycles: 52516789 heartbeat IPC: 1.29863 cumulative IPC: 1.29758 (Simulation time: 0 hr 21 min 14 sec) 
Finished CPU 0 instructions: 50000001 cycles: 38533392 cumulative IPC: 1.29758 (Simulation time: 0 hr 21 min 14 sec) 

ChampSim completed all CPUs

Region of Interest Statistics

CPU 0 cumulative IPC: 1.29758 instructions: 50000001 cycles: 38533392
 Fetch stage stalled: 59.7431  Sim cycles: 38533392 fetch stall cycle: 23021062
 Empty decode stage: 45.8989  Sim cycles: 38533392 fetch stall cycle: 17686418
ITLB TOTAL     ACCESS:    5678174  HIT:    5184287  MISS:     493887  HIT %:     91.302  MISS %:    8.69799   MPKI: 9.87774
ITLB LOAD TRANSLATION INSTRUCTION	ACCESS:    5552243  HIT:    5058356  MISS:     493887  HIT %:    91.1047  MISS %:    8.89527  MPKI: 9.87774
ITLB TRANSLATION FROM L1D PREFETCHER INSTRUCTION	ACCESS:     125931  HIT:     125931  MISS:          0  HIT %:        100  MISS %:          0  MPKI: 0

ITLB AVERAGE MISS LATENCY: 9.04889 cycles
ITLB RQ	ACCESS:    7647939	FORWARD:          0	MERGED:    1475152	TO_CACHE:    6172787

DTLB TOTAL     ACCESS:    9084343  HIT:    8612194  MISS:     472149  HIT %:    94.8026  MISS %:    5.19739   MPKI: 9.44298
DTLB LOAD TRANSLATION DATA	ACCESS:    9084343  HIT:    8612194  MISS:     472149  HIT %:    94.8026  MISS %:    5.19739  MPKI: 9.44298

DTLB AVERAGE MISS LATENCY: 9.32812 cycles
DTLB RQ	ACCESS:   13428077	FORWARD:          0	MERGED:    4307718	TO_CACHE:    9120359

STLB TOTAL     ACCESS:    1214927  HIT:    1212884  MISS:       2043  HIT %:    99.8318  MISS %:   0.168158   MPKI: 0.04086
STLB LOAD TRANSLATION INSTRUCTION	ACCESS:     493887  HIT:     493636  MISS:        251  HIT %:    99.9492  MISS %:  0.0508213  MPKI: 0.00502
STLB LOAD TRANSLATION DATA	ACCESS:     472069  HIT:     470313  MISS:       1756  HIT %:     99.628  MISS %:    0.37198  MPKI: 0.03512
STLB TRANSLATION FROM L1D PREFETCHER DATA	ACCESS:     248971  HIT:     248935  MISS:         36  HIT %:    99.9855  MISS %:  0.0144595  MPKI: 0.00072

STLB AVERAGE MISS LATENCY: 74.628 cycles
STLB RQ	ACCESS:    1336969	FORWARD:          0	MERGED:     122005	TO_CACHE:    1214964

STLB Hit, L1D data hit: 0
STLB Hit, L2C data hit: 0
STLB Hit, LLC data hit: 0
STLB Hit, LLC data miss: 0
STLB STLB hints to L2: 0
L1D TOTAL     ACCESS:   13177752  HIT:   12058772  MISS:    1118980  HIT %:    91.5086  MISS %:    8.49143   MPKI: 22.3796
L1D LOAD DATA	ACCESS:    6632620  HIT:    5895655  MISS:     736965  HIT %:    88.8888  MISS %:    11.1112  MPKI: 14.7393
L1D RFO DATA	ACCESS:    6216147  HIT:    5929251  MISS:     286896  HIT %:    95.3847  MISS %:    4.61533  MPKI: 5.73792
L1D PREFETCH DATA	ACCESS:     328985  HIT:     233866  MISS:      95119  HIT %:    71.0871  MISS %:    28.9129  MPKI: 1.90238

L1D PREFETCH  REQUESTED:     742225  ISSUED:     742225  USEFUL:      35048  USELESS:      69069
L1D USEFUL LOAD PREFETCHES:      35048 PREFETCH ISSUED TO LOWER LEVEL:     104108  ACCURACY: 33.665
 TIMELY PREFETCHES:      35048 LATE PREFETCHES: 8950 DROPPED PREFETCHES: 8
L1D AVERAGE MISS LATENCY: 268744 cycles
L1D RQ	ACCESS:   10756022	FORWARD:          0	MERGED:    3921051	TO_CACHE:    6667391
L1D WQ	ACCESS:    6950443	FORWARD:     167939	MERGED:     189757	TO_CACHE:    6760686
L1D PQ	ACCESS:     371292	FORWARD:          0	MERGED:          0	TO_CACHE:     370933

L1D UNIQUE REGIONS ACCESSED: 0
L1D REGIONS CONFLICTS: 0
L1D Cross Page Prefetch Requests: 6947
L1D Same Page Prefetch Requests: 750728
L1D ROI Sum of L1D PQ occupancy: 4715134
L1D PREFETCHES PUSHED FROM L2C: 0
L1I TOTAL     ACCESS:    6987380  HIT:    4223555  MISS:    2763825  HIT %:    60.4455  MISS %:    39.5545   MPKI: 55.2765
L1I LOAD INSTRUCTION	ACCESS:    6401096  HIT:    3637271  MISS:    2763825  HIT %:    56.8226  MISS %:    43.1774  MPKI: 55.2765
L1I PREFETCH INSTRUCTION	ACCESS:     586284  HIT:     586284  MISS:          0  HIT %:        100  MISS %:          0  MPKI: 0

L1I PREFETCH  REQUESTED:    1365338  ISSUED:    1365338  USEFUL:          0  USELESS:          0
L1I USEFUL LOAD PREFETCHES:          0 PREFETCH ISSUED TO LOWER LEVEL:          0  ACCURACY: -nan
 TIMELY PREFETCHES:          0 LATE PREFETCHES: 0 DROPPED PREFETCHES: 0
L1I AVERAGE MISS LATENCY: 17.104 cycles
L1I RQ	ACCESS:    9502625	FORWARD:          0	MERGED:    2836407	TO_CACHE:    6666218
L1I PQ	ACCESS:    1365338	FORWARD:          0	MERGED:     383617	TO_CACHE:     981721

L1BTB TOTAL     ACCESS:    5669587  HIT:    2040572  MISS:    3629015  HIT %:    35.9915  MISS %:    64.0085   MPKI: 72.5803
L1BTB BRANCH_DIRECT_JUMP	ACCESS:     548588 HIT:     144270 MISS:     404318 AVERAGE STALL: 41.0187 AVERAGE FETCH STALL: 18.1294 AVERAGE FETCH QUEUE STALL: 10.6428 AVERAGE DECODE STALL: 11.4102 AVERAGE EXECUTE STALL: 6.16845e+14
L1BTB BRANCH_INDIRECT	ACCESS:     182965 HIT:      66048 MISS:     116917 AVERAGE STALL: 102.865 AVERAGE FETCH STALL: 13.0829 AVERAGE FETCH QUEUE STALL: 13.7874 AVERAGE DECODE STALL: 11.0875 AVERAGE EXECUTE STALL: 63.969
L1BTB BRANCH_CONDITIONAL	ACCESS:    2710091 HIT:    1416757 MISS:    1293334 AVERAGE STALL: 44.754 AVERAGE FETCH STALL: 21.4598 AVERAGE FETCH QUEUE STALL: 12.5729 AVERAGE DECODE STALL: 9.9653 AVERAGE EXECUTE STALL: 2.52519e+14
L1BTB BRANCH_DIRECT_CALL	ACCESS:     942631 HIT:     104141 MISS:     838490 AVERAGE STALL: 42.9624 AVERAGE FETCH STALL: 20.7753 AVERAGE FETCH QUEUE STALL: 11.8971 AVERAGE DECODE STALL: 9.54141 AVERAGE EXECUTE STALL: 3.43144e+14
L1BTB BRANCH_INDIRECT_CALL	ACCESS:     171337 HIT:      20857 MISS:     150480 AVERAGE STALL: 122.306 AVERAGE FETCH STALL: 15.1777 AVERAGE FETCH QUEUE STALL: 11.5088 AVERAGE DECODE STALL: 8.38446 AVERAGE EXECUTE STALL: 86.7089
L1BTB BRANCH_RETURN	ACCESS:    1113975 HIT:     288499 MISS:     825476 AVERAGE STALL: 42.505 AVERAGE FETCH STALL: 17.8641 AVERAGE FETCH QUEUE STALL: 7.10148 AVERAGE DECODE STALL: 6.41239 AVERAGE EXECUTE STALL: 2.64488e+14
L1BTB BRANCH_OTHER ACCESS:          0 HIT:          0 MISS:          0 AVERAGE STALL: -nan AVERAGE FETCH STALL: -nan AVERAGE FETCH QUEUE STALL: -nan AVERAGE DECODE STALL: -nan AVERAGE EXECUTE STALL: -nan
L1BTB TOTAL ROB OCCUPANCY AT BTB MISS: 9.46723

L2BTB TOTAL     ACCESS:    3603586  HIT:    3362143  MISS:     241443  HIT %:    93.2999  MISS %:    6.70008   MPKI: 4.82886
L2BTB BRANCH_DIRECT_JUMP	ACCESS:     400141 HIT:     374397 MISS:      25744 AVERAGE STALL: 41.0187 AVERAGE FETCH STALL: 18.1294 AVERAGE FETCH QUEUE STALL: 10.6428 AVERAGE DECODE STALL: 11.4102 AVERAGE EXECUTE STALL: 6.16845e+14
L2BTB BRANCH_INDIRECT	ACCESS:     106642 HIT:     101933 MISS:       4709 AVERAGE STALL: 102.865 AVERAGE FETCH STALL: 13.0829 AVERAGE FETCH QUEUE STALL: 13.7874 AVERAGE DECODE STALL: 11.0875 AVERAGE EXECUTE STALL: 63.969
L2BTB BRANCH_CONDITIONAL	ACCESS:    1293334 HIT:    1219885 MISS:      73449 AVERAGE STALL: 44.754 AVERAGE FETCH STALL: 21.4598 AVERAGE FETCH QUEUE STALL: 12.5729 AVERAGE DECODE STALL: 9.9653 AVERAGE EXECUTE STALL: 2.52519e+14
L2BTB BRANCH_DIRECT_CALL	ACCESS:     838490 HIT:     784704 MISS:      53786 AVERAGE STALL: 42.9624 AVERAGE FETCH STALL: 20.7753 AVERAGE FETCH QUEUE STALL: 11.8971 AVERAGE DECODE STALL: 9.54141 AVERAGE EXECUTE STALL: 3.43144e+14
L2BTB BRANCH_INDIRECT_CALL	ACCESS:     140919 HIT:     125520 MISS:      15399 AVERAGE STALL: 122.306 AVERAGE FETCH STALL: 15.1777 AVERAGE FETCH QUEUE STALL: 11.5088 AVERAGE DECODE STALL: 8.38446 AVERAGE EXECUTE STALL: 86.7089
L2BTB BRANCH_RETURN	ACCESS:     824060 HIT:     755704 MISS:      68356 AVERAGE STALL: 42.505 AVERAGE FETCH STALL: 17.8641 AVERAGE FETCH QUEUE STALL: 7.10148 AVERAGE DECODE STALL: 6.41239 AVERAGE EXECUTE STALL: 2.64488e+14
L2BTB BRANCH_OTHER ACCESS:          0 HIT:          0 MISS:          0 AVERAGE STALL: -nan AVERAGE FETCH STALL: -nan AVERAGE FETCH QUEUE STALL: -nan AVERAGE DECODE STALL: -nan AVERAGE EXECUTE STALL: -nan
L2BTB TOTAL ROB OCCUPANCY AT BTB MISS: 142.297

L2C TOTAL     ACCESS:    4485145  HIT:    4033469  MISS:     451676  HIT %:    89.9295  MISS %:    10.0705   MPKI: 9.03352
L2C LOAD INSTRUCTION	ACCESS:    2763825  HIT:    2518654  MISS:     245171  HIT %:    91.1293  MISS %:    8.87071  MPKI: 4.90342
L2C LOAD TRANSLATION INSTRUCTION	ACCESS:        285  HIT:         67  MISS:        218  HIT %:    23.5088  MISS %:    76.4912  MPKI: 0.00436
L2C LOAD DATA	ACCESS:     727983  HIT:     660726  MISS:      67257  HIT %:    90.7612  MISS %:    9.23881  MPKI: 1.34514
L2C RFO DATA	ACCESS:     286826  HIT:     233154  MISS:      53672  HIT %:    81.2876  MISS %:    18.7124  MPKI: 1.07344
L2C PREFETCH DATA	ACCESS:     181860  HIT:     112226  MISS:      69634  HIT %:    61.7101  MISS %:    38.2899  MPKI: 1.39268
L2C WRITEBACK DATA	ACCESS:     522479  HIT:     508175  MISS:      14304  HIT %:    97.2623  MISS %:    2.73772  MPKI: 0.28608
L2C LOAD TRANSLATION DATA	ACCESS:       1826  HIT:        426  MISS:       1400  HIT %:    23.3297  MISS %:    76.6703  MPKI: 0.028
L2C TRANSLATION FROM L1D PREFETCHER DATA	ACCESS:         61  HIT:         41  MISS:         20  HIT %:    67.2131  MISS %:    32.7869  MPKI: 0.0004

L2C PREFETCH  REQUESTED:      85055  ISSUED:      85055  USEFUL:       8008  USELESS:      61753
L2C USEFUL LOAD PREFETCHES:       8008 PREFETCH ISSUED TO LOWER LEVEL:      70186  ACCURACY: 11.4097
 TIMELY PREFETCHES:       8008 LATE PREFETCHES: 552 DROPPED PREFETCHES: 0
L2C AVERAGE MISS LATENCY: 39.7924 cycles
L2C RQ	ACCESS:    3780871	FORWARD:          0	MERGED:          0	TO_CACHE:    3780808
L2C WQ	ACCESS:     522479	FORWARD:         64	MERGED:          0	TO_CACHE:     522479
L2C PQ	ACCESS:     189163	FORWARD:          0	MERGED:       3408	TO_CACHE:     185754

L2C Dense regions hint from L2: 0
PSCL5 TOTAL     ACCESS:       4116  HIT:       2058  MISS:       2058  HIT %:         50  MISS %:         50   MPKI: 0.04116
PSCL5 LOAD TRANSLATION INSTRUCTION	ACCESS:       3994  HIT:       1997  MISS:       1997  HIT %:         50  MISS %:         50  MPKI: 0.03994
PSCL5 TRANSLATION FROM L1D PREFETCHER INSTRUCTION	ACCESS:        122  HIT:         61  MISS:         61  HIT %:         50  MISS %:         50  MPKI: 0.00122


PSCL4 TOTAL     ACCESS:       3932  HIT:       1961  MISS:       1971  HIT %:    49.8728  MISS %:    50.1272   MPKI: 0.03942
PSCL4 LOAD TRANSLATION INSTRUCTION	ACCESS:       2347  HIT:       1908  MISS:        439  HIT %:    81.2953  MISS %:    18.7047  MPKI: 0.00878
PSCL4 TRANSLATION FROM L1D PREFETCHER INSTRUCTION	ACCESS:         59  HIT:         53  MISS:          6  HIT %:    89.8305  MISS %:    10.1695  MPKI: 0.00012
PSCL4 LOAD TRANSLATION DATA	ACCESS:       1479  HIT:          0  MISS:       1479  HIT %:          0  MISS %:        100  MPKI: 0.02958
PSCL4 TRANSLATION FROM L1D PREFETCHER DATA	ACCESS:         47  HIT:          0  MISS:         47  HIT %:          0  MISS %:        100  MPKI: 0.00094


PSCL3 TOTAL     ACCESS:       4002  HIT:       1996  MISS:       2006  HIT %:    49.8751  MISS %:    50.1249   MPKI: 0.04012
PSCL3 LOAD TRANSLATION INSTRUCTION	ACCESS:       2382  HIT:       1943  MISS:        439  HIT %:    81.5701  MISS %:    18.4299  MPKI: 0.00878
PSCL3 TRANSLATION FROM L1D PREFETCHER INSTRUCTION	ACCESS:         59  HIT:         53  MISS:          6  HIT %:    89.8305  MISS %:    10.1695  MPKI: 0.00012
PSCL3 LOAD TRANSLATION DATA	ACCESS:       1514  HIT:          0  MISS:       1514  HIT %:          0  MISS %:        100  MPKI: 0.03028
PSCL3 TRANSLATION FROM L1D PREFETCHER DATA	ACCESS:         47  HIT:          0  MISS:         47  HIT %:          0  MISS %:        100  MPKI: 0.00094


PSCL2 TOTAL     ACCESS:       4021  HIT:       1963  MISS:       2058  HIT %:    48.8187  MISS %:    51.1813   MPKI: 0.04116
PSCL2 LOAD TRANSLATION INSTRUCTION	ACCESS:       2153  HIT:       1902  MISS:        251  HIT %:    88.3418  MISS %:    11.6582  MPKI: 0.00502
PSCL2 TRANSLATION FROM L1D PREFETCHER INSTRUCTION	ACCESS:         61  HIT:         61  MISS:          0  HIT %:        100  MISS %:          0  MPKI: 0
PSCL2 LOAD TRANSLATION DATA	ACCESS:       1746  HIT:          0  MISS:       1746  HIT %:          0  MISS %:        100  MPKI: 0.03492
PSCL2 TRANSLATION FROM L1D PREFETCHER DATA	ACCESS:         61  HIT:          0  MISS:         61  HIT %:          0  MISS %:        100  MPKI: 0.00122


LLC TOTAL     ACCESS:     512827  HIT:     482851  MISS:      29976  HIT %:    94.1548  MISS %:    5.84525   MPKI: 0.59952
LLC LOAD INSTRUCTION	ACCESS:     245172  HIT:     244262  MISS:        910  HIT %:    99.6288  MISS %:   0.371168  MPKI: 0.0182
LLC LOAD TRANSLATION INSTRUCTION	ACCESS:        218  HIT:        195  MISS:         23  HIT %:    89.4495  MISS %:    10.5505  MPKI: 0.00046
LLC LOAD DATA	ACCESS:      66774  HIT:      63352  MISS:       3422  HIT %:    94.8753  MISS %:    5.12475  MPKI: 0.06844
LLC RFO DATA	ACCESS:      53601  HIT:      38174  MISS:      15427  HIT %:    71.2188  MISS %:    28.7812  MPKI: 0.30854
LLC PREFETCH DATA	ACCESS:      70186  HIT:      60404  MISS:       9782  HIT %:    86.0627  MISS %:    13.9373  MPKI: 0.19564
LLC WRITEBACK DATA	ACCESS:      75456  HIT:      75119  MISS:        337  HIT %:    99.5534  MISS %:   0.446618  MPKI: 0.00674
LLC LOAD TRANSLATION DATA	ACCESS:       1400  HIT:       1325  MISS:         75  HIT %:    94.6429  MISS %:    5.35714  MPKI: 0.0015
LLC TRANSLATION FROM L1D PREFETCHER DATA	ACCESS:         20  HIT:         20  MISS:          0  HIT %:        100  MISS %:          0  MPKI: 0

LLC AVERAGE MISS LATENCY: 160.436 cycles
LLC RQ	ACCESS:     367188	FORWARD:          0	MERGED:          0	TO_CACHE:     367186
LLC WQ	ACCESS:      75456	FORWARD:          2	MERGED:          0	TO_CACHE:      75456
LLC PQ	ACCESS:      70186	FORWARD:          0	MERGED:          0	TO_CACHE:      70186

LLC Dense regions hint to LLC: 0

RAW hits: 1884523
Loads Generated: 12640543
Loads sent to L1D: 10756022
Stores Generated: 6950429
Stores sent to L1D: 6950443
Major fault: 0 Minor fault: 2546
Allocated PAGES: 2546

stream: 
stream:times selected: 1188340
stream:pref_filled: 123532
stream:pref_useful: 24567
stream:pref_late: 6868
stream:misses: 8119
stream:misses_by_poll: 0

CS: 
CS:times selected: 180868
CS:pref_filled: 59161
CS:pref_useful: 35701
CS:pref_late: 7911
CS:misses: 17730
CS:misses_by_poll: 7

CPLX: 
CPLX:times selected: 1006330
CPLX:pref_filled: 19574
CPLX:pref_useful: 4451
CPLX:pref_late: 3056
CPLX:misses: 93356
CPLX:misses_by_poll: 0

NL_L1: 
NL:times selected: 21233
NL:pref_filled: 673
NL:pref_useful: 262
NL:pref_late: 367
NL:misses: 1857
NL:misses_by_poll: 0

total selections: 2396771
total_filled: 95119
total_useful: 35048
total_late: 19565
total_polluted: 7
total_misses_after_warmup: 771738
conflicts: 5560016

test: 118567

DRAM Statistics
 CHANNEL 0
 RQ ROW_BUFFER_HIT:      11200  ROW_BUFFER_MISS:      18414
 DBUS_CONGESTED:          8
 WQ ROW_BUFFER_HIT:       1601  ROW_BUFFER_MISS:      12813  FULL:          0

 AVG_CONGESTED_CYCLE: 6

CPU 0 Branch Prediction Accuracy: 99.8245% MPKI: 0.32086 Average ROB Occupancy at Mispredict: 173.228
Branch types
NOT_BRANCH: 40858291 81.7166%
BRANCH_DIRECT_JUMP: 548588 1.09718%
BRANCH_INDIRECT: 182965 0.36593%
BRANCH_CONDITIONAL: 6181812 12.3636%
BRANCH_DIRECT_CALL: 942631 1.88526%
BRANCH_INDIRECT_CALL: 171337 0.342674%
BRANCH_RETURN: 1113975 2.22795%
BRANCH_OTHER: 0 0%

DRAM PAGES: 1048576
Allocated PAGES: 2546
Average_ROB_Occupancy: 187.453
Average_Decode_Occupancy: 24.949
Average_FTQ_Occupancy: 10.4223
Indirect max targets: 14 Average targets: 1.14966
Branch_type:  BRANCH_DIRECT_JUMP:  Count Percentage: 2.90188 6.71545 4.01451 9.10763 1.69594 5.97479 1.21898 68.3708 
Branch_type:  BRANCH_INDIRECT:  Count Percentage: 11.769 3.45274 2.54579 0 1.33799 9.66651 5.88967 65.3383 
Branch_type:  BRANCH_CONDITIONAL:  Count Percentage: 21.0906 3.22782 1.77466 5.4371 1.17557 12.8984 1.2358 53.1601 
Branch_type:  BRANCH_DIRECT_CALL:  Count Percentage: 0.259583 1.77361 1.43084 4.70999 2.16542 2.99894 0.705795 85.9558 
Branch_type:  BRANCH_INDIRECT_CALL:  Count Percentage: 9.55558 0 2.99514 8.70266 0 2.6605 1.28405 74.8021 
Branch_type:  BRANCH_RETURN:  Count Percentage: 3.90657 1.38011 1.41195 6.33894 2.79834 12.8648 1.89923 69.4001 
Branch_type:  BRANCH_DIRECT_JUMP:  Total Count: 31814 73623 44012 99849 18593 65503 13364 749565 
Branch_type:  BRANCH_INDIRECT:  Total Count: 43030 12624 9308 0 4892 35343 21534 238892 
Branch_type:  BRANCH_CONDITIONAL:  Total Count: 2606333 398887 219309 671906 145275 1593953 152718 6569418 
Branch_type:  BRANCH_DIRECT_CALL:  Total Count: 4896 33452 26987 88835 40842 56563 13312 1621212 
Branch_type:  BRANCH_INDIRECT_CALL:  Total Count: 32781 0 10275 29855 0 9127 4405 256613 
Branch_type:  BRANCH_RETURN:  Total Count: 87115 30776 31486 141356 62402 286879 42352 1547595 
Number of unique branch instructions: 9917
Upper 32 bits: 
aaaa
ffff
ffff0000
Unique upper 32 bits: 3
Unique upper 36 bits: 3
Unique upper 40 bits: 5
Unique upper 44 bits: 32
Unique upper 48 bits: 154
Offset_3 4073
Offset_4 249
Offset_5 451
Offset_6 503
Offset_7 585
Offset_8 509
Offset_9 468
Offset_10 385
Offset_11 315
Offset_12 288
Offset_13 201
Offset_14 230
Offset_15 189
Offset_16 223
Offset_17 143
Offset_18 126
Offset_19 240
Offset_20 142
Offset_21 235
Offset_22 392
Offset_23 241
Offset_24 327
Offset_25 88
Offset_47 80
decode_dispatch_called: 22486622 58.3562
Dispatch_width: 0 11712176 52.0851 30.3949
Dispatch_width: 1 706284 3.14091 1.83291
Dispatch_width: 2 716885 3.18805 1.86043
Dispatch_width: 3 423988 1.88551 1.10031
Dispatch_width: 4 3378471 15.0244 8.76764
Dispatch_width: 5 219160 0.974624 0.568753
Dispatch_width: 6 5329658 23.7015 13.8313
Empty_decode_cycles: 16046770 41.6438
ROB_full_cycles: 5411476 14.0436
Starvation_cycles_per_kilo_instr: 277.923
Starvation_cycles_per_kilo_instr_3: 241.946
Starvation_cycles_per_kilo_instr_0: 223.475
Branch_type_1  (3,1)  (4,9)  (5,37)  (6,69)  (7,114)  (8,127)  (9,123)  (10,98)  (11,70)  (12,51)  (13,5)  (14,2)  (15,3)  (16,4)  (18,1)  (19,4)  (20,2)  (21,1)  (22,3)  (23,2)  (24,10)  (25,12) 
Branch_type_2  (3,1)  (5,1)  (8,3)  (9,3)  (12,1)  (13,1)  (14,1)  (16,3)  (17,2)  (20,2)  (21,2)  (23,5)  (24,1)  (47,36) 
Branch_type_3  (3,4071)  (4,240)  (5,409)  (6,418)  (7,439)  (8,317)  (9,256)  (10,156)  (11,130)  (12,58)  (13,4) 
Branch_type_4  (6,4)  (7,8)  (8,26)  (9,54)  (10,62)  (11,59)  (12,99)  (13,87)  (14,102)  (15,89)  (16,100)  (17,64)  (18,57)  (19,116)  (20,74)  (21,124)  (22,209)  (23,136)  (24,188)  (25,72) 
Branch_type_5  (8,2)  (9,1)  (10,3)  (11,5)  (12,3)  (13,14)  (14,16)  (15,11)  (16,20)  (17,11)  (18,16)  (19,12)  (20,10)  (21,13)  (22,42)  (23,26)  (24,37) 
Branch_type_6  (5,4)  (6,12)  (7,24)  (8,34)  (9,31)  (10,66)  (11,51)  (12,76)  (13,90)  (14,109)  (15,86)  (16,96)  (17,66)  (18,52)  (19,108)  (20,54)  (21,95)  (22,138)  (23,72)  (24,91)  (25,4)  (47,44) 
aaaaab1fc620: 2ac9e77e 2aca717c 2aca8eff 2acaf6bc 2acaf9aa 2acaf9f1 2acb1abc 2acb1b7f 2acd4e22 2acdb712 2acf5f9e 2ad0ef44 2ad3f15c 2ad414e6 2ad60e42 2ad8609c 2ad99830 2ada35cc 2ada4676 2ada6612 2adf183e 2adf30e5 2adf5602 2adf785c 2ae11572 2aeb2dcf 2aee101b 2aee1ae1 2b156a8c 2b156b61 2b156bea 2b167f35 2b177656 2b17feec 2b1a3e5a 
aaaaac68f310: 2ac9ec8c 2ac9fb44 2ac9fbd2 2aca59ab 2acac04c 2acaf6e0 2acaf6ec 2acaf6f9 2acaf700 2acaf708 2acf2d90 2ad3cfbd 2ad3cfc4 2ad3d000 2ad3f35f 2ad4955d 2ad49571 2ad4f3f2 2ad4f400 2ad5f240 2ad5f37c 2ad5f86a 2ad5f86f 2ad5f880 2ad5fc0d 2ad5fc14 2ad5fc21 2ad5fe1b 2ad873bb 2ad873e3 2ad8a6b2 2ad9086e 2ad93096 2ad9bbb2 2ada152c 2ada1554 2ada3332 2ada5522 2adf3130 2adf313c 2adf3a3f 2adf3bd9 2adf5788 2adf7a8d 2ae07f6b 2ae0857a 2ae0857e 2ae08630 2ae08634 2ae08637 2ae08642 2ae0866f 2ae086e4 2ae086ec 2ae08717 2ae0871b 2aee0170 2aee1d38 2aee75f4 2aee7662 2aee85ca 2aee85e4 2aee8eef 2af70b84 2af74e8f 2b17d843 
aaaaac690ef0: 2aca598b 2acb111b 2acb175f 2acb1772 2acbfaf4 2acbfb00 2acf374f 2acf6d43 2acfa5c8 2ad3baf1 2ad3d4ac 2ad3d4b8 2ad3f1cf 2ad486b2 2ad5a59b 2ad5fc64 2ad5fcf9 2ad6121c 2ad906e9 2ad907bf 2ad9bada 2ada16ce 2ada1ad5 2ada43df 2ada64c0 2ada72ee 2adeb71a 2adf3bcb 2adf7a38 2adf7c6a 2adf8872 2adf8880 2adf9959 2adf9abe 2ae07f78 2ae08503 2ae08754 2ae12e80 2aea3bea 2aecb509 2aee00b0 2aee2bdd 2aee5467 2aee5601 2aee8f20 2af703fd 2af7048b 2af74e74 
Unique trigger count: 
1 9454
2 503
3 86
4 27
5 10
6 9
7 6
9 3
10 2
11 1
12 2
13 3
16 2
17 2
19 3
35 1
48 1
66 1
BTB PER SET UNIQUE ADDR: 4 7 6 4 3 3 7 9 10 2 5 2 8 5 3 4 6 4 8 8 5 8 7 8 8 11 1 7 6 5 9 10 6 4 7 4 4 6 7 3 7 5 6 10 9 7 6 11 11 6 5 3 13 2 2 7 5 5 8 8 4 10 5 8 6 10 7 7 5 7 6 2 6 4 6 7 6 14 6 4 9 7 7 6 6 7 7 8 8 11 10 8 9 6 7 4 11 7 4 6 8 5 9 9 5 8 6 8 7 5 7 4 4 8 6 11 3 8 6 2 7 8 4 2 6 4 4 6 10 7 10 3 11 5 8 5 5 2 6 7 8 7 6 7 3 10 3 8 10 6 6 11 6 10 5 8 6 8 7 10 10 6 10 5 10 5 3 4 12 5 4 3 7 6 3 2 5 6 9 4 6 6 8 6 6 11 5 5 6 8 5 8 6 6 6 10 11 3 9 6 4 6 9 3 8 4 5 7 6 2 3 6 9 9 6 6 4 9 8 6 6 2 6 6 6 8 13 7 2 9 14 8 4 3 6 8 9 6 3 4 5 3 9 7 14 10 1 5 5 5 9 10 6 6 5 11 4 6 9 5 8 5 7 4 9 14 6 4 7 5 7 6 4 8 10 7 6 3 4 8 7 4 9 5 9 9 7 7 8 4 5 7 4 11 6 4 5 10 5 6 6 6 4 4 7 4 6 4 10 9 6 3 8 3 6 4 9 14 7 2 6 11 5 8 5 5 5 9 3 0 7 2 5 7 9 5 7 8 7 1 6 6 2 8 6 6 3 8 9 4 4 10 9 6 8 7 7 2 7 5 6 10 6 8 10 8 4 3 4 5 7 4 7 5 7 4 11 6 5 10 10 7 7 13 6 4 8 5 5 3 9 6 8 4 7 4 6 5 2 9 6 4 6 6 5 6 7 4 4 3 4 4 9 4 2 5 9 4 2 6 2 5 5 7 10 6 4 2 4 8 3 4 14 5 8 10 6 6 6 4 4 6 8 3 6 8 4 6 5 4 6 3 5 1 9 3 5 7 10 5 5 4 6 11 6 5 13 4 6 7 2 6 8 8 5 3 9 5 2 3 5 2 3 4 3 7 8 3 6 2 10 5 4 8 2 11 4 7 5 4 11 3 4 4 2 5 5 3 3 6 8 3 5 9 3 3 2 10 5 8 6 4 7 4 11 8 4 8 9 7 5 6 4 8 4 8 4 1 6 4 4 8 9 3 8 5 9 13 12 11 5 8 7 7 2 6 8 3 5 3 10 4 8 4 5 5 9 8 9 7 7 4 9 11 6 7 7 11 3 9 12 5 1 6 4 3 3 13 7 5 7 7 3 5 4 5 7 5 4 4 8 5 9 9 7 5 4 9 8 5 8 6 6 6 8 4 7 5 5 7 8 6 9 4 5 10 7 8 4 6 8 7 6 6 7 5 5 4 5 3 10 8 4 5 2 3 6 7 8 6 8 4 11 3 5 2 10 5 6 8 11 3 6 11 7 8 7 5 5 10 7 6 6 6 11 9 6 6 8 6 7 11 8 6 8 8 7 8 8 6 3 7 3 4 4 6 10 7 7 6 3 10 4 5 6 9 4 4 5 5 7 7 6 6 5 7 10 6 1 8 4 3 5 3 4 1 4 9 2 11 7 10 7 3 6 7 6 3 6 4 4 8 5 10 4 3 5 3 5 6 6 3 5 6 2 5 4 10 9 4 4 6 6 7 7 6 14 6 6 3 10 7 0 5 7 5 6 10 3 3 7 5 4 6 10 9 9 6 3 8 3 9 4 6 6 12 11 4 5 5 12 4 9 3 8 6 7 9 4 5 3 5 6 3 4 7 1 5 5 10 6 4 9 4 5 4 5 3 7 6 7 3 7 4 10 5 4 4 6 4 5 4 6 5 4 8 8 5 5 4 8 7 6 8 5 10 7 4 8 5 7 7 4 4 14 5 5 8 9 8 4 6 6 10 7 2 2 5 7 4 5 6 5 6 9 5 7 4 4 8 8 4 5 7 6 3 9 11 4 3 12 8 4 5 8 6 5 11 6 8 9 6 4 3 2 7 5 3 7 6 8 6 10 6 8 8 7 4 5 10 5 4 10 10 5 8 10 10 2 9 8 8 4 4 6 7 9 7 7 3 9 2 13 8 3 6 9 11 6 9 5 7 10 5 3 8 10 8 8 4 2 6 3 9 11 6 7 5 4 7 11 6 4 6 5 6 4 3 8 6 8 7 7 11 5 9 7 11 5 6 3 4 6 4 6 6 7 4 5 5 8 3 9 6 10 4 9 4 3 6 10 6 14 5 
BTB PER SET COUNT: 4 7 6 4 3 3 7 27 2944 4 5 2 8 5 3 5 6 4 8 1476 5 8 7 8 8 2458 1 7 1473 5 4406 390 8 5 11 6 2939 6 10 3 7 5 7 39 1962 11 6 5382 3190 6 5 4 11758 2 2 7 6 5 9 82 4 2569 5 8 6 1352 7 7 5 7 6 2 6 4 7 7 494 3567 6 4 11 7 8 6 497 10 7 9 8 471 2023 498 33 6 7 4 3428 8 4 6 9 5 14 2164 5 8 6 8 7 5 7 5 4 9 6 4033 3 9 6 2 8 10 5 2 496 4 4 7 2159 9 552 3 5148 5 8 5 5 2 6 7 8 10 7 7 4 25 3 8 3066 6 6 3323 6 3429 5 8 7 8 7 773 992 7 3137 5 34 1963 3 4 9795 5 4 3 7 153 3 2 5 494 1003 4 6 6 8 6 6 1966 5 5 6 9 5 8 6 6 6 27 1001 3 13 7 4 6 9 3 9 4 5 2452 6 2 3 9 14 12 6 6 5 1388 8 6 6 2 6 6 6 8 5423 2008 2 3916 8193 8 4 3 7 8 3429 6 3 4 5 3 1474 7 12241 1196 1 5 5 5 12 510 6 6 5 3291 4 6 30 5 8 5 7 4 2231 9798 984 4 7 5 7 6 4 8 34 9 6 3 5 9 8 4 20 5 1472 3431 7 7 8 5 5 7 492 2945 6 4 7 4466 5 6 6 6 4 4 8 4 6 4 1484 1471 6 3 8 3 6 8 16 4658 10 2 6 410 5 8 5 5 5 20 3 0 986 2 6 7 997 7 992 8 7 1 6 6 2 987 985 6 3 8 11 4 4 106 16 984 8 9 10 2 7 46 7 18 7 9 39 8 4 3 4 6 8 5 7 5 7 4 4030 6 5 2219 48 7 7 6412 7 5 8 5 6 3 35 7 8 4 7 6 1473 5 3 10 7 5 7 7 6 6 2941 4 4 2327 4 4 538 4 980 5 132 4 2 1439 2 5 5 7 43 7 6 2 4 9 138 5 5640 5 10 2026 7 6 6 4 5 7 8 3 7 8 4 984 5 4 6 3 5 1 375 3 5 8 504 5 982 4 16 62 26 5 1637 4 6 8 2 7 37 497 121 3 21547 5 2 3 5 2 3 493 4 7 259 378 6 2 30 5 4 8 3 2467 4 7 6 5 3907 18 4 4 2 5 5 3 3 6 9 3 5 26 4 3 2 6861 5 502 9 1472 7 469 216 8 4 8 33 7 5 6 4 11 4 497 6 1 8 4 4 8 20 6 9 6 13 4171 4900 4888 6 9 8 8 2 6 989 3 5 3 4418 4 8 4 5 5 37 10 2939 7 7 6 1472 3434 6 7 7 3430 3 34 7081 43 1 6 1471 3 5 5380 7 5 7 8 3 984 982 6 7 5 4 4 9 9 1227 11 8 2939 4 1726 8 5 9 7 6 6 8 4 987 5 5 7 8 742 2939 5 1473 27 7 157 8 6 496 1474 6 9 7 5 7 4 5 3 2462 8 4 5 2 3 8 9 497 6 8 4 1003 3 5 2 2454 5 1474 8 11260 4 6 5881 7 990 2943 985 7 34 497 8 8 8 3920 989 495 6 655 6 7 1493 9 985 14690 988 7 1842 1475 6 3 986 3 5 4 6 2943 8 7 34 3 1972 4 5 175 4408 4 1472 5 1472 190 7 7 6 984 7 1488 751 1 8 4 4 5 3 4 1 4 659 2 3438 7 1235 987 3 6 7 6 4 6 4 4 8 5 6370 4 4 493 3 5 984 6 3 5 488 2 5 4 2947 2450 983 4 6 985 8 8 6 8328 7 9 3 17 7 0 96 7 1473 6 3492 3 3 7 7 4 6 1860 34 24 7 442 8 3 2831 4 6 224 3531 3369 4 5 5 3959 5 244 3 1967 1473 7 27 5 6 3 6 6 493 5 7 1 5 6 1309 6 4 1242 384 6 5 983 3 7 81 7 3 7 4 1157 5 4 5 6 4 242 4 6 1475 4 13 9 5 6 4 8 7 9 9 5 6365 7 4 8 8 7 7 4 4 6381 983 7 985 2452 8 4 6 6 27 8 2 3 5 8 4 7 6 5 6 112 6 7 4 4 8 8 4 6 9 6 3 11 1474 4 4 5501 8 100 39 9 6 5 1825 6 8 80 6 5 3 2 8 5 980 7 6 9 6 21 6 10 9 7 4 6 108 5 495 3430 2448 5 8 4973 1239 4 10 9 17 4 982 6 7 15 254 8 4 14 2 5505 8 4 7 37 4412 10 2697 5 496 2944 5 3 8 23 8 8 4 2 6 3 379 50 6 986 5 4 7 3445 7 494 6 5 8 4 3 10 6 8 9 7 3435 5 45 8 3920 5 9 3 4 6 4 6 6 7 5 6 7 1965 3 2460 373 1217 4 34 7 4 6 1508 7 3929 5 
