
*** ChampSim Multicore Out-of-Order Simulator ***

Warmup Instructions: 50000000
Simulation Instructions: 50000000
Number of CPUs: 1
LLC sets: 2048
LLC ways: 16
Off-chip DRAM Size: 4096 MB Channels: 1 Width: 64-bit Data Rate: 6400 MT/s
CPU 0 runs ./micro_traces/srv567.trace.gz
.gz
ITLB has LRU replacement policy
DTLB has LRU replacement policy
STLB has LRU replacement policy
FDIP Prefetcher at L1I
L1I has LRU replacement policy
L1D has LRU replacement policy
Initialize SRRIP state for L2C
Initialize DRRIP state for LLC
Heartbeat CPU 0 instructions: 10000000 cycles: 2797995 heartbeat IPC: 3.57399 cumulative IPC: 3.57399 (Simulation time: 0 hr 1 min 36 sec) 
Heartbeat CPU 0 instructions: 20000002 cycles: 5593072 heartbeat IPC: 3.57772 cumulative IPC: 3.57585 (Simulation time: 0 hr 3 min 11 sec) 
Heartbeat CPU 0 instructions: 30000003 cycles: 8389221 heartbeat IPC: 3.57635 cumulative IPC: 3.57602 (Simulation time: 0 hr 4 min 45 sec) 
Heartbeat CPU 0 instructions: 40000002 cycles: 11185390 heartbeat IPC: 3.57632 cumulative IPC: 3.57609 (Simulation time: 0 hr 6 min 17 sec) 
Heartbeat CPU 0 instructions: 50000001 cycles: 13981874 heartbeat IPC: 3.57592 cumulative IPC: 3.57606 (Simulation time: 0 hr 7 min 50 sec) 

Warmup complete CPU 0 instructions: 50000001 cycles: 13981874 (Simulation time: 0 hr 7 min 50 sec) 

Cycle: 20000000 FTQ IN: 56868658 FTQ occupancy: 18.3608 DECODE IN: 56868658 DECODE occupancy: 46.9379 ROB IN: 56868658 ROB occupancy: 283.468 ROB OUT: 56868553
Heartbeat CPU 0 instructions: 60000001 cycles: 22700737 heartbeat IPC: 1.14694 cumulative IPC: 1.14694 (Simulation time: 0 hr 9 min 14 sec) 
Cycle: 30000000 FTQ IN: 11669194 FTQ occupancy: 7.40849 DECODE IN: 11669194 DECODE occupancy: 16.1929 ROB IN: 11669194 ROB occupancy: 130.802 ROB OUT: 11669181
Heartbeat CPU 0 instructions: 70000002 cycles: 31262795 heartbeat IPC: 1.16794 cumulative IPC: 1.15735 (Simulation time: 0 hr 10 min 34 sec) 
Heartbeat CPU 0 instructions: 80000002 cycles: 39943010 heartbeat IPC: 1.15205 cumulative IPC: 1.15557 (Simulation time: 0 hr 11 min 56 sec) 
Cycle: 40000000 FTQ IN: 11519254 FTQ occupancy: 7.549 DECODE IN: 11519254 DECODE occupancy: 16.4064 ROB IN: 11519254 ROB occupancy: 131.013 ROB OUT: 11519345
Heartbeat CPU 0 instructions: 90000001 cycles: 48520536 heartbeat IPC: 1.16584 cumulative IPC: 1.15812 (Simulation time: 0 hr 13 min 18 sec) 
Cycle: 50000000 FTQ IN: 11664780 FTQ occupancy: 7.4042 DECODE IN: 11664732 DECODE occupancy: 16.2011 ROB IN: 11664710 ROB occupancy: 131.338 ROB OUT: 11664646
Heartbeat CPU 0 instructions: 100000001 cycles: 57231621 heartbeat IPC: 1.14796 cumulative IPC: 1.15608 (Simulation time: 0 hr 14 min 45 sec) 
Finished CPU 0 instructions: 50000000 cycles: 43249747 cumulative IPC: 1.15608 (Simulation time: 0 hr 14 min 45 sec) 

ChampSim completed all CPUs

Region of Interest Statistics

CPU 0 cumulative IPC: 1.15608 instructions: 50000000 cycles: 43249747
 Fetch stage stalled: 68.8269  Sim cycles: 43249747 fetch stall cycle: 29767454
 Empty decode stage: 56.0726  Sim cycles: 43249747 fetch stall cycle: 24251272
ITLB TOTAL     ACCESS:    5609594  HIT:    5115683  MISS:     493911  HIT %:    91.1952  MISS %:    8.80475   MPKI: 9.87822
ITLB LOAD TRANSLATION INSTRUCTION	ACCESS:    5498696  HIT:    5004785  MISS:     493911  HIT %:    91.0177  MISS %:    8.98233  MPKI: 9.87822
ITLB TRANSLATION FROM L1D PREFETCHER INSTRUCTION	ACCESS:     110898  HIT:     110898  MISS:          0  HIT %:        100  MISS %:          0  MPKI: 0

ITLB AVERAGE MISS LATENCY: 9.04677 cycles
ITLB RQ	ACCESS:    7485245	FORWARD:          0	MERGED:    1388152	TO_CACHE:    6097093

DTLB TOTAL     ACCESS:    9259399  HIT:    8788966  MISS:     470433  HIT %:    94.9194  MISS %:     5.0806   MPKI: 9.40866
DTLB LOAD TRANSLATION DATA	ACCESS:    9259399  HIT:    8788966  MISS:     470433  HIT %:    94.9194  MISS %:     5.0806  MPKI: 9.40866

DTLB AVERAGE MISS LATENCY: 9.31297 cycles
DTLB RQ	ACCESS:   13551481	FORWARD:          0	MERGED:    4257880	TO_CACHE:    9293601

STLB TOTAL     ACCESS:    1214924  HIT:    1212833  MISS:       2091  HIT %:    99.8279  MISS %:    0.17211   MPKI: 0.04182
STLB LOAD TRANSLATION INSTRUCTION	ACCESS:     493911  HIT:     493628  MISS:        283  HIT %:    99.9427  MISS %:  0.0572978  MPKI: 0.00566
STLB LOAD TRANSLATION DATA	ACCESS:     470321  HIT:     468548  MISS:       1773  HIT %:     99.623  MISS %:   0.376977  MPKI: 0.03546
STLB TRANSLATION FROM L1D PREFETCHER DATA	ACCESS:     250692  HIT:     250657  MISS:         35  HIT %:     99.986  MISS %:  0.0139614  MPKI: 0.0007

STLB AVERAGE MISS LATENCY: 71.3118 cycles
STLB RQ	ACCESS:    1334385	FORWARD:          0	MERGED:     119419	TO_CACHE:    1214966

STLB Hit, L1D data hit: 0
STLB Hit, L2C data hit: 0
STLB Hit, LLC data hit: 0
STLB Hit, LLC data miss: 0
STLB STLB hints to L2: 0
L1D TOTAL     ACCESS:   13311790  HIT:   12194624  MISS:    1117166  HIT %:    91.6077  MISS %:     8.3923   MPKI: 22.3433
L1D LOAD DATA	ACCESS:    6748927  HIT:    6013924  MISS:     735003  HIT %:    89.1093  MISS %:    10.8907  MPKI: 14.7001
L1D RFO DATA	ACCESS:    6234769  HIT:    5947223  MISS:     287546  HIT %:     95.388  MISS %:    4.61198  MPKI: 5.75092
L1D PREFETCH DATA	ACCESS:     328094  HIT:     233477  MISS:      94617  HIT %:    71.1616  MISS %:    28.8384  MPKI: 1.89234

L1D PREFETCH  REQUESTED:     740394  ISSUED:     740394  USEFUL:      35049  USELESS:      67983
L1D USEFUL LOAD PREFETCHES:      35049 PREFETCH ISSUED TO LOWER LEVEL:     103063  ACCURACY: 34.0074
 TIMELY PREFETCHES:      35049 LATE PREFETCHES: 8403 DROPPED PREFETCHES: 8
L1D AVERAGE MISS LATENCY: 269837 cycles
L1D RQ	ACCESS:   10845840	FORWARD:          0	MERGED:    3901162	TO_CACHE:    6782002
L1D WQ	ACCESS:    6947799	FORWARD:     162988	MERGED:     178320	TO_CACHE:    6769479
L1D PQ	ACCESS:     370353	FORWARD:          0	MERGED:          0	TO_CACHE:     370041

L1D UNIQUE REGIONS ACCESSED: 0
L1D REGIONS CONFLICTS: 0
L1D Cross Page Prefetch Requests: 6910
L1D Same Page Prefetch Requests: 749819
L1D ROI Sum of L1D PQ occupancy: 4702493
L1D PREFETCHES PUSHED FROM L2C: 0
L1I TOTAL     ACCESS:    6916114  HIT:    4154646  MISS:    2761468  HIT %:     60.072  MISS %:     39.928   MPKI: 55.2294
L1I LOAD INSTRUCTION	ACCESS:    6403851  HIT:    3642383  MISS:    2761468  HIT %:     56.878  MISS %:     43.122  MPKI: 55.2294
L1I PREFETCH INSTRUCTION	ACCESS:     512263  HIT:     512263  MISS:          0  HIT %:        100  MISS %:          0  MPKI: 0

L1I PREFETCH  REQUESTED:    1176124  ISSUED:    1176124  USEFUL:          0  USELESS:          0
L1I USEFUL LOAD PREFETCHES:          0 PREFETCH ISSUED TO LOWER LEVEL:          0  ACCURACY: -nan
 TIMELY PREFETCHES:          0 LATE PREFETCHES: 0 DROPPED PREFETCHES: 0
L1I AVERAGE MISS LATENCY: 17.2886 cycles
L1I RQ	ACCESS:    9462981	FORWARD:          0	MERGED:    2821732	TO_CACHE:    6641249
L1I PQ	ACCESS:    1176124	FORWARD:          0	MERGED:     332128	TO_CACHE:     843996

L1BTB TOTAL     ACCESS:    5667890  HIT:    2041819  MISS:    3626071  HIT %:    36.0243  MISS %:    63.9757   MPKI: 72.5214
L1BTB BRANCH_DIRECT_JUMP	ACCESS:     548037  HIT:     144585  MISS:     403452	AVERAGE STALL: 36.0531
L1BTB BRANCH_INDIRECT	ACCESS:     182827  HIT:      66041  MISS:     116786	AVERAGE STALL: 107.481
L1BTB BRANCH_CONDITIONAL	ACCESS:    2704843  HIT:    1412855  MISS:    1291988	AVERAGE STALL: 40.7737
L1BTB BRANCH_DIRECT_CALL	ACCESS:     944381  HIT:     106142  MISS:     838239	AVERAGE STALL: 40.4171
L1BTB BRANCH_INDIRECT_CALL	ACCESS:     171711  HIT:      21412  MISS:     150299	AVERAGE STALL: 115.885
L1BTB BRANCH_RETURN	ACCESS:    1116091  HIT:     290784  MISS:     825307	AVERAGE STALL: 39.2563
L1BTB BRANCH_OTHER ACCESS:          0  HIT:          0  MISS:          0	AVERAGE STALL: -nan
L1BTB TOTAL ROB OCCUPANCY AT BTB MISS: 11.9474

L2BTB1 TOTAL     ACCESS:    3600735  HIT:    3193286  MISS:     407449  HIT %:    88.6843  MISS %:    11.3157   MPKI: 8.14898
L2BTB1 BRANCH_DIRECT_JUMP	ACCESS:     399300  HIT:     363013  MISS:      36287	AVERAGE STALL: 36.0531
L2BTB1 BRANCH_INDIRECT	ACCESS:     106524  HIT:      84287  MISS:      22237	AVERAGE STALL: 107.481
L2BTB1 BRANCH_CONDITIONAL	ACCESS:    1291988  HIT:    1183043  MISS:     108945	AVERAGE STALL: 40.7737
L2BTB1 BRANCH_DIRECT_CALL	ACCESS:     838239  HIT:     722973  MISS:     115266	AVERAGE STALL: 40.4171
L2BTB1 BRANCH_INDIRECT_CALL	ACCESS:     140770  HIT:     116278  MISS:      24492	AVERAGE STALL: 115.885
L2BTB1 BRANCH_RETURN	ACCESS:     823914  HIT:     723692  MISS:     100222	AVERAGE STALL: 39.2563
L2BTB1 BRANCH_OTHER ACCESS:          0  HIT:          0  MISS:          0	AVERAGE STALL: -nan
L2BTB1 TOTAL ROB OCCUPANCY AT BTB MISS: 106.326

L2C TOTAL     ACCESS:    4493276  HIT:    3993884  MISS:     499392  HIT %:    88.8858  MISS %:    11.1142   MPKI: 9.98784
L2C LOAD INSTRUCTION	ACCESS:    2761469  HIT:    2498848  MISS:     262621  HIT %:    90.4898  MISS %:    9.51019  MPKI: 5.25242
L2C LOAD TRANSLATION INSTRUCTION	ACCESS:        319  HIT:         83  MISS:        236  HIT %:    26.0188  MISS %:    73.9812  MPKI: 0.00472
L2C LOAD DATA	ACCESS:     726582  HIT:     646234  MISS:      80348  HIT %:    88.9416  MISS %:    11.0584  MPKI: 1.60696
L2C RFO DATA	ACCESS:     287468  HIT:     227598  MISS:      59870  HIT %:    79.1733  MISS %:    20.8267  MPKI: 1.1974
L2C PREFETCH DATA	ACCESS:     193253  HIT:     115904  MISS:      77349  HIT %:    59.9753  MISS %:    40.0247  MPKI: 1.54698
L2C WRITEBACK DATA	ACCESS:     522282  HIT:     504649  MISS:      17633  HIT %:    96.6239  MISS %:    3.37615  MPKI: 0.35266
L2C LOAD TRANSLATION DATA	ACCESS:       1848  HIT:        529  MISS:       1319  HIT %:    28.6255  MISS %:    71.3745  MPKI: 0.02638
L2C TRANSLATION FROM L1D PREFETCHER DATA	ACCESS:         55  HIT:         39  MISS:         16  HIT %:    70.9091  MISS %:    29.0909  MPKI: 0.00032

L2C PREFETCH  REQUESTED:      97236  ISSUED:      97236  USEFUL:       8097  USELESS:      69748
L2C USEFUL LOAD PREFETCHES:       8097 PREFETCH ISSUED TO LOWER LEVEL:      77718  ACCURACY: 10.4184
 TIMELY PREFETCHES:       8097 LATE PREFETCHES: 369 DROPPED PREFETCHES: 0
L2C AVERAGE MISS LATENCY: 38.5629 cycles
L2C RQ	ACCESS:    3777794	FORWARD:          0	MERGED:          0	TO_CACHE:    3777742
L2C WQ	ACCESS:     522282	FORWARD:         53	MERGED:          0	TO_CACHE:     522282
L2C PQ	ACCESS:     200299	FORWARD:          0	MERGED:       3546	TO_CACHE:     196752

L2C Dense regions hint from L2: 0
PSCL5 TOTAL     ACCESS:       4206  HIT:       2103  MISS:       2103  HIT %:         50  MISS %:         50   MPKI: 0.04206
PSCL5 LOAD TRANSLATION INSTRUCTION	ACCESS:       4096  HIT:       2048  MISS:       2048  HIT %:         50  MISS %:         50  MPKI: 0.04096
PSCL5 TRANSLATION FROM L1D PREFETCHER INSTRUCTION	ACCESS:        110  HIT:         55  MISS:         55  HIT %:         50  MISS %:         50  MPKI: 0.0011


PSCL4 TOTAL     ACCESS:       3984  HIT:       1988  MISS:       1996  HIT %:    49.8996  MISS %:    50.1004   MPKI: 0.03992
PSCL4 LOAD TRANSLATION INSTRUCTION	ACCESS:       3018  HIT:       1934  MISS:       1084  HIT %:    64.0822  MISS %:    35.9178  MPKI: 0.02168
PSCL4 TRANSLATION FROM L1D PREFETCHER INSTRUCTION	ACCESS:         87  HIT:         54  MISS:         33  HIT %:     62.069  MISS %:     37.931  MPKI: 0.00066
PSCL4 LOAD TRANSLATION DATA	ACCESS:        858  HIT:          0  MISS:        858  HIT %:          0  MISS %:        100  MPKI: 0.01716
PSCL4 TRANSLATION FROM L1D PREFETCHER DATA	ACCESS:         21  HIT:          0  MISS:         21  HIT %:          0  MISS %:        100  MPKI: 0.00042


PSCL3 TOTAL     ACCESS:       4036  HIT:       2014  MISS:       2022  HIT %:    49.9009  MISS %:    50.0991   MPKI: 0.04044
PSCL3 LOAD TRANSLATION INSTRUCTION	ACCESS:       3044  HIT:       1960  MISS:       1084  HIT %:     64.389  MISS %:     35.611  MPKI: 0.02168
PSCL3 TRANSLATION FROM L1D PREFETCHER INSTRUCTION	ACCESS:         87  HIT:         54  MISS:         33  HIT %:     62.069  MISS %:     37.931  MPKI: 0.00066
PSCL3 LOAD TRANSLATION DATA	ACCESS:        884  HIT:          0  MISS:        884  HIT %:          0  MISS %:        100  MPKI: 0.01768
PSCL3 TRANSLATION FROM L1D PREFETCHER DATA	ACCESS:         21  HIT:          0  MISS:         21  HIT %:          0  MISS %:        100  MPKI: 0.00042


PSCL2 TOTAL     ACCESS:       4102  HIT:       1999  MISS:       2103  HIT %:    48.7323  MISS %:    51.2677   MPKI: 0.04206
PSCL2 LOAD TRANSLATION INSTRUCTION	ACCESS:       2227  HIT:       1944  MISS:        283  HIT %:    87.2923  MISS %:    12.7077  MPKI: 0.00566
PSCL2 TRANSLATION FROM L1D PREFETCHER INSTRUCTION	ACCESS:         55  HIT:         55  MISS:          0  HIT %:        100  MISS %:          0  MPKI: 0
PSCL2 LOAD TRANSLATION DATA	ACCESS:       1765  HIT:          0  MISS:       1765  HIT %:          0  MISS %:        100  MPKI: 0.0353
PSCL2 TRANSLATION FROM L1D PREFETCHER DATA	ACCESS:         55  HIT:          0  MISS:         55  HIT %:          0  MISS %:        100  MPKI: 0.0011


LLC TOTAL     ACCESS:     565766  HIT:     535935  MISS:      29831  HIT %:    94.7273  MISS %:    5.27267   MPKI: 0.59662
LLC LOAD INSTRUCTION	ACCESS:     262621  HIT:     261662  MISS:        959  HIT %:    99.6348  MISS %:   0.365165  MPKI: 0.01918
LLC LOAD TRANSLATION INSTRUCTION	ACCESS:        236  HIT:        206  MISS:         30  HIT %:    87.2881  MISS %:    12.7119  MPKI: 0.0006
LLC LOAD DATA	ACCESS:      79983  HIT:      76611  MISS:       3372  HIT %:    95.7841  MISS %:     4.2159  MPKI: 0.06744
LLC RFO DATA	ACCESS:      59862  HIT:      44653  MISS:      15209  HIT %:    74.5932  MISS %:    25.4068  MPKI: 0.30418
LLC PREFETCH DATA	ACCESS:      77718  HIT:      67893  MISS:       9825  HIT %:    87.3581  MISS %:    12.6419  MPKI: 0.1965
LLC WRITEBACK DATA	ACCESS:      84011  HIT:      83651  MISS:        360  HIT %:    99.5715  MISS %:   0.428515  MPKI: 0.0072
LLC LOAD TRANSLATION DATA	ACCESS:       1319  HIT:       1244  MISS:         75  HIT %:    94.3139  MISS %:    5.68613  MPKI: 0.0015
LLC TRANSLATION FROM L1D PREFETCHER DATA	ACCESS:         16  HIT:         15  MISS:          1  HIT %:      93.75  MISS %:       6.25  MPKI: 2e-05

LLC AVERAGE MISS LATENCY: 159.678 cycles
LLC RQ	ACCESS:     404041	FORWARD:          0	MERGED:          0	TO_CACHE:     404037
LLC WQ	ACCESS:      84011	FORWARD:          4	MERGED:          0	TO_CACHE:      84011
LLC PQ	ACCESS:      77718	FORWARD:          0	MERGED:          0	TO_CACHE:      77718

LLC Dense regions hint to LLC: 0

RAW hits: 1792423
Loads Generated: 12638263
Loads sent to L1D: 10845840
Stores Generated: 6947803
Stores sent to L1D: 6947799
Major fault: 0 Minor fault: 2539
Allocated PAGES: 2539

stream: 
stream:times selected: 1191648
stream:pref_filled: 121660
stream:pref_useful: 23972
stream:pref_late: 6855
stream:misses: 7956
stream:misses_by_poll: 0

CS: 
CS:times selected: 182073
CS:pref_filled: 59997
CS:pref_useful: 36202
CS:pref_late: 7415
CS:misses: 16944
CS:misses_by_poll: 5

CPLX: 
CPLX:times selected: 1008389
CPLX:pref_filled: 19010
CPLX:pref_useful: 4452
CPLX:pref_late: 3074
CPLX:misses: 92783
CPLX:misses_by_poll: 0

NL_L1: 
NL:times selected: 21142
NL:pref_filled: 773
NL:pref_useful: 322
NL:pref_late: 292
NL:misses: 1801
NL:misses_by_poll: 0

total selections: 2403252
total_filled: 94617
total_useful: 35049
total_late: 18947
total_polluted: 5
total_misses_after_warmup: 768082
conflicts: 5606246

test: 116007

DRAM Statistics
 CHANNEL 0
 RQ ROW_BUFFER_HIT:      10929  ROW_BUFFER_MISS:      18534
 DBUS_CONGESTED:          7
 WQ ROW_BUFFER_HIT:       1440  ROW_BUFFER_MISS:      12981  FULL:          0

 AVG_CONGESTED_CYCLE: 5

CPU 0 Branch Prediction Accuracy: 99.8221% MPKI: 0.32538 Average ROB Occupancy at Mispredict: 150.034
Branch types
NOT_BRANCH: 40855776 81.7116%
BRANCH_DIRECT_JUMP: 548037 1.09607%
BRANCH_INDIRECT: 182827 0.365654%
BRANCH_CONDITIONAL: 6180739 12.3615%
BRANCH_DIRECT_CALL: 944381 1.88876%
BRANCH_INDIRECT_CALL: 171711 0.343422%
BRANCH_RETURN: 1116091 2.23218%
BRANCH_OTHER: 0 0%

DRAM PAGES: 1048576
Allocated PAGES: 2539
Average_ROB_Occupancy: 132.087
Average_Decode_Occupancy: 16.308
Average_FTQ_Occupancy: 7.48855
Indirect max targets: 14 Average targets: 1.14527
Branch_type:  BRANCH_DIRECT_JUMP:  Count Percentage: 4.03058 4.7638 4.93335 3.0079 3.0643 6.01234 7.27985 66.9079 
Branch_type:  BRANCH_INDIRECT:  Count Percentage: 13.7446 0.811107 2.56882 0 0 17.7485 17.4903 47.6368 
Branch_type:  BRANCH_CONDITIONAL:  Count Percentage: 26.2716 1.94536 1.5405 6.25449 1.55418 5.09184 5.62218 51.7199 
Branch_type:  BRANCH_DIRECT_CALL:  Count Percentage: 0.885199 1.47926 1.16308 2.38365 2.50939 3.5207 6.16601 81.8927 
Branch_type:  BRANCH_INDIRECT_CALL:  Count Percentage: 9.52117 0 2.98393 6.41719 0 2.47631 5.1158 73.4856 
Branch_type:  BRANCH_RETURN:  Count Percentage: 10.4596 1.45935 1.49155 6.79355 1.66171 6.99995 6.53458 64.5997 
Branch_type:  BRANCH_DIRECT_JUMP:  Total Count: 44169 52204 54062 32962 33580 65886 79776 733208 
Branch_type:  BRANCH_INDIRECT:  Total Count: 50311 2969 9403 0 0 64967 64022 174371 
Branch_type:  BRANCH_CONDITIONAL:  Total Count: 3246774 240417 190382 772960 192073 629275 694816 6391794 
Branch_type:  BRANCH_DIRECT_CALL:  Total Count: 16692 27894 21932 44948 47319 66389 116271 1544232 
Branch_type:  BRANCH_INDIRECT_CALL:  Total Count: 32674 0 10240 22022 0 8498 17556 252182 
Branch_type:  BRANCH_RETURN:  Total Count: 233211 32538 33256 151471 37050 156073 145697 1440334 
Number of unique branch instructions: 9804
Upper 32 bits: 
aaaa
ffff
ffff0000
Unique upper 32 bits: 3
Unique upper 36 bits: 3
Unique upper 40 bits: 5
Unique upper 44 bits: 32
Unique upper 48 bits: 154
Offset_3 4030
Offset_4 244
Offset_5 449
Offset_6 498
Offset_7 571
Offset_8 508
Offset_9 463
Offset_10 374
Offset_11 301
Offset_12 269
Offset_13 203
Offset_14 227
Offset_15 184
Offset_16 220
Offset_17 145
Offset_18 118
Offset_19 234
Offset_20 136
Offset_21 235
Offset_22 392
Offset_23 241
Offset_24 331
Offset_25 88
Offset_47 82
Offset_64 1
decode_dispatch_called: 20255933 46.8348
Dispatch_width: 0 10125105 49.9859 23.4108
Dispatch_width: 1 533750 2.63503 1.23411
Dispatch_width: 2 680240 3.35823 1.57282
Dispatch_width: 3 419463 2.07082 0.969862
Dispatch_width: 4 1923473 9.49585 4.44736
Dispatch_width: 5 290224 1.43279 0.671042
Dispatch_width: 6 6283678 31.0214 14.5288
Empty_decode_cycles: 22993814 53.1652
ROB_full_cycles: 2763711 6.39012
Starvation_cycles_per_kilo_instr: 342.024
Starvation_cycles_per_kilo_instr_3: 319.887
Starvation_cycles_per_kilo_instr_0: 303.552
Branch_type_1  (3,1)  (4,9)  (5,37)  (6,68)  (7,113)  (8,128)  (9,122)  (10,97)  (11,67)  (12,43)  (13,5)  (14,2)  (15,3)  (16,4)  (18,1)  (19,4)  (20,2)  (21,1)  (22,3)  (23,2)  (24,10)  (25,12) 
Branch_type_2  (3,1)  (5,1)  (8,3)  (9,3)  (12,1)  (13,1)  (14,1)  (16,3)  (17,2)  (20,2)  (21,2)  (23,5)  (24,1)  (47,38) 
Branch_type_3  (3,4028)  (4,235)  (5,407)  (6,415)  (7,429)  (8,316)  (9,255)  (10,151)  (11,120)  (12,50)  (13,4)  (64,1) 
Branch_type_4  (6,3)  (7,8)  (8,25)  (9,51)  (10,60)  (11,58)  (12,96)  (13,88)  (14,100)  (15,86)  (16,98)  (17,64)  (18,53)  (19,115)  (20,71)  (21,124)  (22,209)  (23,136)  (24,192)  (25,72) 
Branch_type_5  (8,2)  (9,1)  (10,3)  (11,5)  (12,3)  (13,14)  (14,16)  (15,11)  (16,20)  (17,11)  (18,16)  (19,12)  (20,10)  (21,13)  (22,42)  (23,26)  (24,37) 
Branch_type_6  (5,4)  (6,12)  (7,21)  (8,34)  (9,31)  (10,63)  (11,51)  (12,76)  (13,91)  (14,108)  (15,84)  (16,95)  (17,68)  (18,48)  (19,103)  (20,51)  (21,95)  (22,138)  (23,72)  (24,91)  (25,4)  (47,44) 
Unique trigger count: 
L2BTB1 768 4
L2BTB2 768 4
L2BTB3 768 4
L2BTB4 112 4
