
*** ChampSim Multicore Out-of-Order Simulator ***

Warmup Instructions: 50000000
Simulation Instructions: 50000000
Number of CPUs: 1
LLC sets: 2048
LLC ways: 16
Off-chip DRAM Size: 4096 MB Channels: 1 Width: 64-bit Data Rate: 6400 MT/s
CPU 0 runs ./micro_traces/srv554.trace.gz
.gz
ITLB has LRU replacement policy
DTLB has LRU replacement policy
STLB has LRU replacement policy
FDIP Prefetcher at L1I
L1I has LRU replacement policy
L1D has LRU replacement policy
Initialize SRRIP state for L2C
Initialize DRRIP state for LLC
Heartbeat_Variant_0 : 1354 0.330566 per_variant_size: 0 1354 0 0 0 0 0 0 0 
Heartbeat_Variant_1 : 1251 0.30542 per_variant_size: 0 620 631 0 0 0 0 0 0 
Heartbeat_Variant_2 : 1327 0.323975 per_variant_size: 0 521 366 225 215 0 0 0 0 
Heartbeat_Variant_3 : 0 0 per_variant_size: 0 0 0 0 0 0 0 0 0 
Heartbeat_Variant_0_evicts 0 : 5983 1 : 411 2 : 410 3 : 0 
Heartbeat_Variant_1_evicts 0 : 379 1 : 0 2 : 584 3 : 0 
Heartbeat_Variant_2_evicts 0 : 387 1 : 558 2 : 0 3 : 0 
Heartbeat_Variant_3_evicts 0 : 0 1 : 0 2 : 0 3 : 0 
Heartbeat CPU 0 instructions: 10000001 cycles: 2796859 heartbeat IPC: 3.57544 cumulative IPC: 3.57544 (Simulation time: 0 hr 1 min 49 sec) 
Heartbeat_Variant_0 : 1361 0.332275 per_variant_size: 0 1361 0 0 0 0 0 0 0 
Heartbeat_Variant_1 : 1249 0.304932 per_variant_size: 0 606 643 0 0 0 0 0 0 
Heartbeat_Variant_2 : 1336 0.326172 per_variant_size: 0 527 367 234 208 0 0 0 0 
Heartbeat_Variant_3 : 0 0 per_variant_size: 0 0 0 0 0 0 0 0 0 
Heartbeat_Variant_0_evicts 0 : 5703 1 : 43 2 : 32 3 : 0 
Heartbeat_Variant_1_evicts 0 : 43 1 : 0 2 : 237 3 : 0 
Heartbeat_Variant_2_evicts 0 : 29 1 : 241 2 : 0 3 : 0 
Heartbeat_Variant_3_evicts 0 : 0 1 : 0 2 : 0 3 : 0 
Heartbeat CPU 0 instructions: 20000001 cycles: 5594196 heartbeat IPC: 3.57483 cumulative IPC: 3.57513 (Simulation time: 0 hr 3 min 25 sec) 
Heartbeat_Variant_0 : 1370 0.334473 per_variant_size: 0 1370 0 0 0 0 0 0 0 
Heartbeat_Variant_1 : 1251 0.30542 per_variant_size: 0 593 658 0 0 0 0 0 0 
Heartbeat_Variant_2 : 1343 0.327881 per_variant_size: 0 528 371 234 210 0 0 0 0 
Heartbeat_Variant_3 : 0 0 per_variant_size: 0 0 0 0 0 0 0 0 0 
Heartbeat_Variant_0_evicts 0 : 5679 1 : 61 2 : 47 3 : 0 
Heartbeat_Variant_1_evicts 0 : 55 1 : 0 2 : 254 3 : 0 
Heartbeat_Variant_2_evicts 0 : 49 1 : 253 2 : 0 3 : 0 
Heartbeat_Variant_3_evicts 0 : 0 1 : 0 2 : 0 3 : 0 
Heartbeat CPU 0 instructions: 30000000 cycles: 8391934 heartbeat IPC: 3.57432 cumulative IPC: 3.57486 (Simulation time: 0 hr 5 min 3 sec) 
Heartbeat_Variant_0 : 1374 0.335449 per_variant_size: 0 1374 0 0 0 0 0 0 0 
Heartbeat_Variant_1 : 1265 0.308838 per_variant_size: 0 584 681 0 0 0 0 0 0 
Heartbeat_Variant_2 : 1355 0.330811 per_variant_size: 0 515 376 248 216 0 0 0 0 
Heartbeat_Variant_3 : 0 0 per_variant_size: 0 0 0 0 0 0 0 0 0 
Heartbeat_Variant_0_evicts 0 : 5651 1 : 109 2 : 89 3 : 0 
Heartbeat_Variant_1_evicts 0 : 111 1 : 0 2 : 276 3 : 0 
Heartbeat_Variant_2_evicts 0 : 88 1 : 278 2 : 0 3 : 0 
Heartbeat_Variant_3_evicts 0 : 0 1 : 0 2 : 0 3 : 0 
Heartbeat CPU 0 instructions: 40000002 cycles: 11189009 heartbeat IPC: 3.57516 cumulative IPC: 3.57494 (Simulation time: 0 hr 6 min 41 sec) 
Heartbeat_Variant_0 : 1380 0.336914 per_variant_size: 0 1380 0 0 0 0 0 0 0 
Heartbeat_Variant_1 : 1269 0.309814 per_variant_size: 0 584 685 0 0 0 0 0 0 
Heartbeat_Variant_2 : 1364 0.333008 per_variant_size: 0 538 367 248 211 0 0 0 0 
Heartbeat_Variant_3 : 0 0 per_variant_size: 0 0 0 0 0 0 0 0 0 
Heartbeat_Variant_0_evicts 0 : 5702 1 : 135 2 : 128 3 : 0 
Heartbeat_Variant_1_evicts 0 : 125 1 : 0 2 : 306 3 : 0 
Heartbeat_Variant_2_evicts 0 : 138 1 : 301 2 : 0 3 : 0 
Heartbeat_Variant_3_evicts 0 : 0 1 : 0 2 : 0 3 : 0 
Heartbeat CPU 0 instructions: 50000000 cycles: 13986260 heartbeat IPC: 3.57494 cumulative IPC: 3.57494 (Simulation time: 0 hr 8 min 22 sec) 

Warmup complete CPU 0 instructions: 50000003 cycles: 13986261 (Simulation time: 0 hr 8 min 22 sec) 

Cycle: 20000000 FTQ IN: 58174801 FTQ occupancy: 19.2105 DECODE IN: 58174691 DECODE occupancy: 49.9996 ROB IN: 58174631 ROB occupancy: 306.377 ROB OUT: 58174283
Heartbeat_Variant_0 : 1386 0.338379 per_variant_size: 0 1386 0 0 0 0 0 0 0 
Heartbeat_Variant_1 : 1263 0.30835 per_variant_size: 0 584 679 0 0 0 0 0 0 
Heartbeat_Variant_2 : 1375 0.335693 per_variant_size: 0 552 362 260 201 0 0 0 0 
Heartbeat_Variant_3 : 0 0 per_variant_size: 0 0 0 0 0 0 0 0 0 
Heartbeat_Variant_0_evicts 0 : 5667 1 : 82 2 : 76 3 : 0 
Heartbeat_Variant_1_evicts 0 : 73 1 : 0 2 : 281 3 : 0 
Heartbeat_Variant_2_evicts 0 : 82 1 : 281 2 : 0 3 : 0 
Heartbeat_Variant_3_evicts 0 : 0 1 : 0 2 : 0 3 : 0 
Heartbeat CPU 0 instructions: 60000001 cycles: 21335286 heartbeat IPC: 1.36072 cumulative IPC: 1.36072 (Simulation time: 0 hr 10 min 7 sec) 
Heartbeat_Variant_0 : 1387 0.338623 per_variant_size: 0 1387 0 0 0 0 0 0 0 
Heartbeat_Variant_1 : 1260 0.307617 per_variant_size: 0 573 687 0 0 0 0 0 0 
Heartbeat_Variant_2 : 1383 0.337646 per_variant_size: 0 555 370 252 206 0 0 0 0 
Heartbeat_Variant_3 : 0 0 per_variant_size: 0 0 0 0 0 0 0 0 0 
Heartbeat_Variant_0_evicts 0 : 5626 1 : 72 2 : 65 3 : 0 
Heartbeat_Variant_1_evicts 0 : 74 1 : 0 2 : 254 3 : 0 
Heartbeat_Variant_2_evicts 0 : 64 1 : 261 2 : 0 3 : 0 
Heartbeat_Variant_3_evicts 0 : 0 1 : 0 2 : 0 3 : 0 
Heartbeat CPU 0 instructions: 70000002 cycles: 28746495 heartbeat IPC: 1.34931 cumulative IPC: 1.35499 (Simulation time: 0 hr 11 min 47 sec) 
Cycle: 30000000 FTQ IN: 13545694 FTQ occupancy: 10.5756 DECODE IN: 13545792 DECODE occupancy: 26.556 ROB IN: 13545831 ROB occupancy: 204.93 ROB OUT: 13546041
Heartbeat_Variant_0 : 1389 0.339111 per_variant_size: 0 1389 0 0 0 0 0 0 0 
Heartbeat_Variant_1 : 1264 0.308594 per_variant_size: 0 575 689 0 0 0 0 0 0 
Heartbeat_Variant_2 : 1380 0.336914 per_variant_size: 0 544 373 252 211 0 0 0 0 
Heartbeat_Variant_3 : 0 0 per_variant_size: 0 0 0 0 0 0 0 0 0 
Heartbeat_Variant_0_evicts 0 : 5518 1 : 4 2 : 7 3 : 0 
Heartbeat_Variant_1_evicts 0 : 6 1 : 0 2 : 208 3 : 0 
Heartbeat_Variant_2_evicts 0 : 5 1 : 207 2 : 0 3 : 0 
Heartbeat_Variant_3_evicts 0 : 0 1 : 0 2 : 0 3 : 0 
Heartbeat CPU 0 instructions: 80000000 cycles: 36054912 heartbeat IPC: 1.36829 cumulative IPC: 1.35939 (Simulation time: 0 hr 13 min 33 sec) 
Cycle: 40000000 FTQ IN: 13517146 FTQ occupancy: 10.5631 DECODE IN: 13517056 DECODE occupancy: 26.5828 ROB IN: 13517017 ROB occupancy: 206.927 ROB OUT: 13516836
Heartbeat_Variant_0 : 1390 0.339355 per_variant_size: 0 1390 0 0 0 0 0 0 0 
Heartbeat_Variant_1 : 1264 0.308594 per_variant_size: 0 569 695 0 0 0 0 0 0 
Heartbeat_Variant_2 : 1385 0.338135 per_variant_size: 0 543 377 253 212 0 0 0 0 
Heartbeat_Variant_3 : 0 0 per_variant_size: 0 0 0 0 0 0 0 0 0 
Heartbeat_Variant_0_evicts 0 : 5711 1 : 79 2 : 68 3 : 0 
Heartbeat_Variant_1_evicts 0 : 80 1 : 0 2 : 245 3 : 0 
Heartbeat_Variant_2_evicts 0 : 67 1 : 248 2 : 0 3 : 0 
Heartbeat_Variant_3_evicts 0 : 0 1 : 0 2 : 0 3 : 0 
Heartbeat CPU 0 instructions: 90000000 cycles: 43479920 heartbeat IPC: 1.3468 cumulative IPC: 1.35622 (Simulation time: 0 hr 15 min 17 sec) 
Cycle: 50000000 FTQ IN: 13709020 FTQ occupancy: 10.525 DECODE IN: 13709090 DECODE occupancy: 26.7305 ROB IN: 13709140 ROB occupancy: 207.389 ROB OUT: 13709345
Heartbeat_Variant_0 : 1390 0.339355 per_variant_size: 0 1390 0 0 0 0 0 0 0 
Heartbeat_Variant_1 : 1264 0.308594 per_variant_size: 0 567 697 0 0 0 0 0 0 
Heartbeat_Variant_2 : 1385 0.338135 per_variant_size: 0 542 378 256 209 0 0 0 0 
Heartbeat_Variant_3 : 0 0 per_variant_size: 0 0 0 0 0 0 0 0 0 
Heartbeat_Variant_0_evicts 0 : 5558 1 : 0 2 : 0 3 : 0 
Heartbeat_Variant_1_evicts 0 : 0 1 : 0 2 : 197 3 : 0 
Heartbeat_Variant_2_evicts 0 : 0 1 : 197 2 : 0 3 : 0 
Heartbeat_Variant_3_evicts 0 : 0 1 : 0 2 : 0 3 : 0 
Heartbeat CPU 0 instructions: 100000001 cycles: 50772859 heartbeat IPC: 1.37119 cumulative IPC: 1.35919 (Simulation time: 0 hr 16 min 57 sec) 
Finished CPU 0 instructions: 50000002 cycles: 36786599 cumulative IPC: 1.35919 (Simulation time: 0 hr 16 min 57 sec) 

ChampSim completed all CPUs

Region of Interest Statistics

CPU 0 cumulative IPC: 1.35919 instructions: 50000002 cycles: 36786599
 Fetch stage stalled: 60.399  Sim cycles: 36786599 fetch stall cycle: 22218722
 Empty decode stage: 49.9808  Sim cycles: 36786599 fetch stall cycle: 18386248
ITLB TOTAL     ACCESS:    5874211  HIT:    5377259  MISS:     496952  HIT %:    91.5401  MISS %:    8.45989   MPKI: 9.93904
ITLB LOAD TRANSLATION INSTRUCTION	ACCESS:    5752203  HIT:    5255251  MISS:     496952  HIT %:    91.3607  MISS %:    8.63933  MPKI: 9.93904
ITLB TRANSLATION FROM L1D PREFETCHER INSTRUCTION	ACCESS:     122008  HIT:     122008  MISS:          0  HIT %:        100  MISS %:          0  MPKI: 0

ITLB AVERAGE MISS LATENCY: 9.07248 cycles
ITLB RQ	ACCESS:    8024526	FORWARD:          0	MERGED:    1722857	TO_CACHE:    6301669

DTLB TOTAL     ACCESS:    9024112  HIT:    8547691  MISS:     476421  HIT %:    94.7206  MISS %:    5.27942   MPKI: 9.52842
DTLB LOAD TRANSLATION DATA	ACCESS:    9024112  HIT:    8547691  MISS:     476421  HIT %:    94.7206  MISS %:    5.27942  MPKI: 9.52842

DTLB AVERAGE MISS LATENCY: 9.30855 cycles
DTLB RQ	ACCESS:   13388776	FORWARD:          0	MERGED:    4327231	TO_CACHE:    9061545

STLB TOTAL     ACCESS:    1216974  HIT:    1214688  MISS:       2286  HIT %:    99.8122  MISS %:   0.187843   MPKI: 0.04572
STLB LOAD TRANSLATION INSTRUCTION	ACCESS:     496952  HIT:     496481  MISS:        471  HIT %:    99.9052  MISS %:  0.0947778  MPKI: 0.00942
STLB LOAD TRANSLATION DATA	ACCESS:     476415  HIT:     474616  MISS:       1799  HIT %:    99.6224  MISS %:   0.377612  MPKI: 0.03598
STLB TRANSLATION FROM L1D PREFETCHER DATA	ACCESS:     243607  HIT:     243591  MISS:         16  HIT %:    99.9934  MISS %: 0.00656796  MPKI: 0.00032

STLB AVERAGE MISS LATENCY: 65.8552 cycles
STLB RQ	ACCESS:    1332307	FORWARD:          0	MERGED:     115292	TO_CACHE:    1217015

STLB Hit, L1D data hit: 0
STLB Hit, L2C data hit: 0
STLB Hit, LLC data hit: 0
STLB Hit, LLC data miss: 0
STLB STLB hints to L2: 0
L1D TOTAL     ACCESS:   13133030  HIT:   12017875  MISS:    1115155  HIT %:    91.5088  MISS %:    8.49122   MPKI: 22.3031
L1D LOAD DATA	ACCESS:    6593235  HIT:    5856411  MISS:     736824  HIT %:    88.8245  MISS %:    11.1755  MPKI: 14.7365
L1D RFO DATA	ACCESS:    6220039  HIT:    5934043  MISS:     285996  HIT %:     95.402  MISS %:    4.59798  MPKI: 5.71992
L1D PREFETCH DATA	ACCESS:     319756  HIT:     227421  MISS:      92335  HIT %:    71.1233  MISS %:    28.8767  MPKI: 1.8467

L1D PREFETCH  REQUESTED:     718208  ISSUED:     718208  USEFUL:      32894  USELESS:      67391
L1D USEFUL LOAD PREFETCHES:      32894 PREFETCH ISSUED TO LOWER LEVEL:     100290  ACCURACY: 32.7989
 TIMELY PREFETCHES:      32894 LATE PREFETCHES: 7920 DROPPED PREFETCHES: 11
L1D AVERAGE MISS LATENCY: 228184 cycles
L1D RQ	ACCESS:   10711887	FORWARD:          0	MERGED:    3919498	TO_CACHE:    6627449
L1D WQ	ACCESS:    6956692	FORWARD:     165282	MERGED:     195365	TO_CACHE:    6761327
L1D PQ	ACCESS:     359275	FORWARD:          0	MERGED:          0	TO_CACHE:     358933

L1D UNIQUE REGIONS ACCESSED: 0
L1D REGIONS CONFLICTS: 0
L1D Cross Page Prefetch Requests: 6113
L1D Same Page Prefetch Requests: 740987
L1D ROI Sum of L1D PQ occupancy: 4555473
L1D PREFETCHES PUSHED FROM L2C: 0
L1I TOTAL     ACCESS:    7227507  HIT:    4452056  MISS:    2775451  HIT %:    61.5988  MISS %:    38.4012   MPKI: 55.509
L1I LOAD INSTRUCTION	ACCESS:    6568652  HIT:    3793201  MISS:    2775451  HIT %:     57.747  MISS %:     42.253  MPKI: 55.509
L1I PREFETCH INSTRUCTION	ACCESS:     658855  HIT:     658855  MISS:          0  HIT %:        100  MISS %:          0  MPKI: 0

L1I PREFETCH  REQUESTED:    1587321  ISSUED:    1587321  USEFUL:          0  USELESS:          0
L1I USEFUL LOAD PREFETCHES:          0 PREFETCH ISSUED TO LOWER LEVEL:          0  ACCURACY: -nan
 TIMELY PREFETCHES:          0 LATE PREFETCHES: 0 DROPPED PREFETCHES: 0
L1I AVERAGE MISS LATENCY: 17.3519 cycles
L1I RQ	ACCESS:    9466882	FORWARD:          0	MERGED:    2594232	TO_CACHE:    6872650
L1I PQ	ACCESS:    1587321	FORWARD:          0	MERGED:     435445	TO_CACHE:    1151876

L1BTB TOTAL     ACCESS:    5670496  HIT:    2027495  MISS:    3643001  HIT %:    35.7552  MISS %:    64.2448   MPKI: 72.86
L1BTB BRANCH_DIRECT_JUMP	ACCESS:     547716  HIT:     144133  MISS:     403583	AVERAGE STALL: 41.7251
L1BTB BRANCH_INDIRECT	ACCESS:     182663  HIT:      65645  MISS:     117018	AVERAGE STALL: 92.7768
L1BTB BRANCH_CONDITIONAL	ACCESS:    2696659  HIT:    1400576  MISS:    1296083	AVERAGE STALL: 61.6566
L1BTB BRANCH_DIRECT_CALL	ACCESS:     949521  HIT:     105242  MISS:     844279	AVERAGE STALL: 60.781
L1BTB BRANCH_INDIRECT_CALL	ACCESS:     172209  HIT:      21148  MISS:     151061	AVERAGE STALL: 118.781
L1BTB BRANCH_RETURN	ACCESS:    1121728  HIT:     290751  MISS:     830977	AVERAGE STALL: 42.7338
L1BTB BRANCH_OTHER ACCESS:          0  HIT:          0  MISS:          0	AVERAGE STALL: -nan
L1BTB TOTAL ROB OCCUPANCY AT BTB MISS: 2.28926

L2BTB TOTAL     ACCESS:    3617666  HIT:    3551924  MISS:      65742  HIT %:    98.1828  MISS %:    1.81725   MPKI: 1.31484
L2BTB BRANCH_DIRECT_JUMP	ACCESS:     399482  HIT:     395095  MISS:       4387	AVERAGE STALL: 41.7251
L2BTB BRANCH_INDIRECT	ACCESS:     106684  HIT:     103993  MISS:       2691	AVERAGE STALL: 92.7768
L2BTB BRANCH_CONDITIONAL	ACCESS:    1296083  HIT:    1291899  MISS:       4184	AVERAGE STALL: 61.6566
L2BTB BRANCH_DIRECT_CALL	ACCESS:     844278  HIT:     843222  MISS:       1056	AVERAGE STALL: 60.781
L2BTB BRANCH_INDIRECT_CALL	ACCESS:     141578  HIT:     130777  MISS:      10801	AVERAGE STALL: 118.781
L2BTB BRANCH_RETURN	ACCESS:     829561  HIT:     786938  MISS:      42623	AVERAGE STALL: 42.7338
L2BTB BRANCH_OTHER ACCESS:          0  HIT:          0  MISS:          0	AVERAGE STALL: -nan
L2BTB TOTAL ROB OCCUPANCY AT BTB MISS: 126.856

L2C TOTAL     ACCESS:    4499334  HIT:    4005456  MISS:     493878  HIT %:    89.0233  MISS %:    10.9767   MPKI: 9.87756
L2C LOAD INSTRUCTION	ACCESS:    2775451  HIT:    2497000  MISS:     278451  HIT %:    89.9674  MISS %:    10.0326  MPKI: 5.56902
L2C LOAD TRANSLATION INSTRUCTION	ACCESS:        508  HIT:        154  MISS:        354  HIT %:     30.315  MISS %:     69.685  MPKI: 0.00708
L2C LOAD DATA	ACCESS:     728864  HIT:     654367  MISS:      74497  HIT %:     89.779  MISS %:     10.221  MPKI: 1.48994
L2C RFO DATA	ACCESS:     285926  HIT:     234389  MISS:      51537  HIT %:    81.9754  MISS %:    18.0246  MPKI: 1.03074
L2C PREFETCH DATA	ACCESS:     183973  HIT:     112071  MISS:      71902  HIT %:    60.9171  MISS %:    39.0829  MPKI: 1.43804
L2C WRITEBACK DATA	ACCESS:     522709  HIT:     506874  MISS:      15835  HIT %:    96.9706  MISS %:    3.02941  MPKI: 0.3167
L2C LOAD TRANSLATION DATA	ACCESS:       1861  HIT:        575  MISS:       1286  HIT %:    30.8974  MISS %:    69.1026  MPKI: 0.02572
L2C TRANSLATION FROM L1D PREFETCHER DATA	ACCESS:         42  HIT:         26  MISS:         16  HIT %:    61.9048  MISS %:    38.0952  MPKI: 0.00032

L2C PREFETCH  REQUESTED:      91249  ISSUED:      91249  USEFUL:       8570  USELESS:      63822
L2C USEFUL LOAD PREFETCHES:       8570 PREFETCH ISSUED TO LOWER LEVEL:      72350  ACCURACY: 11.8452
 TIMELY PREFETCHES:       8570 LATE PREFETCHES: 448 DROPPED PREFETCHES: 0
L2C AVERAGE MISS LATENCY: 37.5979 cycles
L2C RQ	ACCESS:    3792730	FORWARD:          0	MERGED:          0	TO_CACHE:    3792655
L2C WQ	ACCESS:     522709	FORWARD:         75	MERGED:          0	TO_CACHE:     522709
L2C PQ	ACCESS:     191539	FORWARD:          0	MERGED:       3411	TO_CACHE:     188128

L2C Dense regions hint from L2: 0
PSCL5 TOTAL     ACCESS:       4600  HIT:       2300  MISS:       2300  HIT %:         50  MISS %:         50   MPKI: 0.046
PSCL5 LOAD TRANSLATION INSTRUCTION	ACCESS:       4516  HIT:       2258  MISS:       2258  HIT %:         50  MISS %:         50  MPKI: 0.04516
PSCL5 TRANSLATION FROM L1D PREFETCHER INSTRUCTION	ACCESS:         84  HIT:         42  MISS:         42  HIT %:         50  MISS %:         50  MPKI: 0.00084


PSCL4 TOTAL     ACCESS:       4173  HIT:       2083  MISS:       2090  HIT %:    49.9161  MISS %:    50.0839   MPKI: 0.0418
PSCL4 LOAD TRANSLATION INSTRUCTION	ACCESS:       3593  HIT:       2049  MISS:       1544  HIT %:    57.0276  MISS %:    42.9724  MPKI: 0.03088
PSCL4 TRANSLATION FROM L1D PREFETCHER INSTRUCTION	ACCESS:         62  HIT:         34  MISS:         28  HIT %:    54.8387  MISS %:    45.1613  MPKI: 0.00056
PSCL4 LOAD TRANSLATION DATA	ACCESS:        512  HIT:          0  MISS:        512  HIT %:          0  MISS %:        100  MPKI: 0.01024
PSCL4 TRANSLATION FROM L1D PREFETCHER DATA	ACCESS:          6  HIT:          0  MISS:          6  HIT %:          0  MISS %:        100  MPKI: 0.00012


PSCL3 TOTAL     ACCESS:       4199  HIT:       2091  MISS:       2108  HIT %:    49.7976  MISS %:    50.2024   MPKI: 0.04216
PSCL3 LOAD TRANSLATION INSTRUCTION	ACCESS:       3089  HIT:       2057  MISS:       1032  HIT %:    66.5911  MISS %:    33.4089  MPKI: 0.02064
PSCL3 TRANSLATION FROM L1D PREFETCHER INSTRUCTION	ACCESS:         47  HIT:         34  MISS:         13  HIT %:    72.3404  MISS %:    27.6596  MPKI: 0.00026
PSCL3 LOAD TRANSLATION DATA	ACCESS:       1042  HIT:          0  MISS:       1042  HIT %:          0  MISS %:        100  MPKI: 0.02084
PSCL3 TRANSLATION FROM L1D PREFETCHER DATA	ACCESS:         21  HIT:          0  MISS:         21  HIT %:          0  MISS %:        100  MPKI: 0.00042


PSCL2 TOTAL     ACCESS:       4512  HIT:       2212  MISS:       2300  HIT %:    49.0248  MISS %:    50.9752   MPKI: 0.046
PSCL2 LOAD TRANSLATION INSTRUCTION	ACCESS:       2641  HIT:       2170  MISS:        471  HIT %:    82.1658  MISS %:    17.8342  MPKI: 0.00942
PSCL2 TRANSLATION FROM L1D PREFETCHER INSTRUCTION	ACCESS:         42  HIT:         42  MISS:          0  HIT %:        100  MISS %:          0  MPKI: 0
PSCL2 LOAD TRANSLATION DATA	ACCESS:       1787  HIT:          0  MISS:       1787  HIT %:          0  MISS %:        100  MPKI: 0.03574
PSCL2 TRANSLATION FROM L1D PREFETCHER DATA	ACCESS:         42  HIT:          0  MISS:         42  HIT %:          0  MISS %:        100  MPKI: 0.00084


LLC TOTAL     ACCESS:     554091  HIT:     527361  MISS:      26730  HIT %:    95.1759  MISS %:    4.82412   MPKI: 0.5346
LLC LOAD INSTRUCTION	ACCESS:     278451  HIT:     277797  MISS:        654  HIT %:    99.7651  MISS %:   0.234871  MPKI: 0.01308
LLC LOAD TRANSLATION INSTRUCTION	ACCESS:        354  HIT:        322  MISS:         32  HIT %:    90.9605  MISS %:    9.03955  MPKI: 0.00064
LLC LOAD DATA	ACCESS:      74116  HIT:      70922  MISS:       3194  HIT %:    95.6905  MISS %:    4.30946  MPKI: 0.06388
LLC RFO DATA	ACCESS:      51452  HIT:      38574  MISS:      12878  HIT %:    74.9708  MISS %:    25.0292  MPKI: 0.25756
LLC PREFETCH DATA	ACCESS:      72350  HIT:      62712  MISS:       9638  HIT %:    86.6786  MISS %:    13.3214  MPKI: 0.19276
LLC WRITEBACK DATA	ACCESS:      76066  HIT:      75798  MISS:        268  HIT %:    99.6477  MISS %:   0.352326  MPKI: 0.00536
LLC LOAD TRANSLATION DATA	ACCESS:       1286  HIT:       1220  MISS:         66  HIT %:    94.8678  MISS %:    5.13219  MPKI: 0.00132
LLC TRANSLATION FROM L1D PREFETCHER DATA	ACCESS:         16  HIT:         16  MISS:          0  HIT %:        100  MISS %:          0  MPKI: 0

LLC AVERAGE MISS LATENCY: 156.941 cycles
LLC RQ	ACCESS:     405693	FORWARD:          0	MERGED:          0	TO_CACHE:     405675
LLC WQ	ACCESS:      76066	FORWARD:         18	MERGED:          0	TO_CACHE:      76066
LLC PQ	ACCESS:      72350	FORWARD:          0	MERGED:          0	TO_CACHE:      72350

LLC Dense regions hint to LLC: 0

RAW hits: 1924252
Loads Generated: 12636139
Loads sent to L1D: 10711887
Stores Generated: 6956688
Stores sent to L1D: 6956692
Major fault: 0 Minor fault: 2586
Allocated PAGES: 2586

stream: 
stream:times selected: 1179125
stream:pref_filled: 121109
stream:pref_useful: 23770
stream:pref_late: 6412
stream:misses: 6790
stream:misses_by_poll: 0

CS: 
CS:times selected: 178504
CS:pref_filled: 57907
CS:pref_useful: 35296
CS:pref_late: 6837
CS:misses: 16269
CS:misses_by_poll: 0

CPLX: 
CPLX:times selected: 999483
CPLX:pref_filled: 19587
CPLX:pref_useful: 4698
CPLX:pref_late: 2995
CPLX:misses: 91717
CPLX:misses_by_poll: 1

NL_L1: 
NL:times selected: 19863
NL:pref_filled: 635
NL:pref_useful: 243
NL:pref_late: 168
NL:misses: 978
NL:misses_by_poll: 0

total selections: 2376975
total_filled: 92335
total_useful: 32894
total_late: 17857
total_polluted: 1
total_misses_after_warmup: 771038
conflicts: 5543124

test: 115791

DRAM Statistics
 CHANNEL 0
 RQ ROW_BUFFER_HIT:       9890  ROW_BUFFER_MISS:      16564
 DBUS_CONGESTED:          5
 WQ ROW_BUFFER_HIT:       1165  ROW_BUFFER_MISS:      11609  FULL:          0

 AVG_CONGESTED_CYCLE: 6

CPU 0 Branch Prediction Accuracy: 99.8223% MPKI: 0.32532 Average ROB Occupancy at Mispredict: 170.213
Branch types
NOT_BRANCH: 40848925 81.6978%
BRANCH_DIRECT_JUMP: 547716 1.09543%
BRANCH_INDIRECT: 182663 0.365326%
BRANCH_CONDITIONAL: 6177226 12.3545%
BRANCH_DIRECT_CALL: 949521 1.89904%
BRANCH_INDIRECT_CALL: 172209 0.344418%
BRANCH_RETURN: 1121728 2.24346%
BRANCH_OTHER: 0 0%

DRAM PAGES: 1048576
Allocated PAGES: 2586
Average_ROB_Occupancy: 207.91
Average_Decode_Occupancy: 26.6093
Average_FTQ_Occupancy: 10.5232
Indirect max targets: 14 Average targets: 1.15541
Branch_type:  BRANCH_DIRECT_JUMP:  Count Percentage: 3.81 6.01417 3.70827 3.2746 7.49856 5.44858 6.51572 63.7301 
Branch_type:  BRANCH_INDIRECT:  Count Percentage: 11.7602 3.41528 2.53817 0 13.0346 2.80977 16.5673 49.8747 
Branch_type:  BRANCH_CONDITIONAL:  Count Percentage: 21.1514 6.78005 2.12476 3.05652 3.44816 4.56296 3.26865 55.6075 
Branch_type:  BRANCH_DIRECT_CALL:  Count Percentage: 0.889785 1.27293 0.737449 2.27171 4.11494 2.8381 0.887193 86.9879 
Branch_type:  BRANCH_INDIRECT_CALL:  Count Percentage: 9.56314 0 2.99793 0.00378785 0 2.32253 0 85.1126 
Branch_type:  BRANCH_RETURN:  Count Percentage: 4.51441 5.00078 2.14382 2.993 4.19636 5.27514 3.53702 72.3395 
Branch_type:  BRANCH_DIRECT_JUMP:  Total Count: 41758 65916 40643 35890 82185 59717 71413 698489 
Branch_type:  BRANCH_INDIRECT:  Total Count: 43039 12499 9289 0 47703 10283 60632 182528 
Branch_type:  BRANCH_CONDITIONAL:  Total Count: 2612555 837451 262444 377532 425906 563602 403734 6868463 
Branch_type:  BRANCH_DIRECT_CALL:  Total Count: 16816 24057 13937 42933 77768 53637 16767 1643979 
Branch_type:  BRANCH_INDIRECT_CALL:  Total Count: 32821 0 10289 13 0 7971 0 292109 
Branch_type:  BRANCH_RETURN:  Total Count: 100848 111713 47891 66861 93743 117842 79014 1616000 
Number of unique branch instructions: 10076
Upper 32 bits: 
aaaa
ffff
ffff0000
Unique upper 32 bits: 3
Unique upper 36 bits: 3
Unique upper 40 bits: 5
Unique upper 44 bits: 32
Unique upper 48 bits: 155
Variant_0 : 1390 0.339355
Variant_1 : 1264 0.308594
Variant_2 : 1385 0.338135
Variant_3 : 0 0
Offset_3 4161
Offset_4 247
Offset_5 461
Offset_6 511
Offset_7 599
Offset_8 510
Offset_9 465
Offset_10 386
Offset_11 319
Offset_12 283
Offset_13 218
Offset_14 237
Offset_15 190
Offset_16 224
Offset_17 157
Offset_18 122
Offset_19 249
Offset_20 139
Offset_21 235
Offset_22 405
Offset_23 241
Offset_24 331
Offset_25 92
Offset_47 82
Offset_64 2
decode_dispatch_called: 23253165 63.211
Dispatch_width: 0 12194950 52.4443 33.1505
Dispatch_width: 1 789884 3.39689 2.14721
Dispatch_width: 2 730882 3.14315 1.98682
Dispatch_width: 3 467161 2.00902 1.26992
Dispatch_width: 4 3927267 16.8892 10.6758
Dispatch_width: 5 220323 0.947497 0.598922
Dispatch_width: 6 4922698 21.17 13.3818
Empty_decode_cycles: 13533434 36.789
ROB_full_cycles: 6132001 16.6691
Starvation_cycles_per_kilo_instr: 257.319
Starvation_cycles_per_kilo_instr_3: 215.843
Starvation_cycles_per_kilo_instr_0: 195.964
Branch_type_1  (3,1)  (4,9)  (5,37)  (6,71)  (7,118)  (8,129)  (9,122)  (10,99)  (11,69)  (12,43)  (13,8)  (14,2)  (15,3)  (16,4)  (18,1)  (19,4)  (20,2)  (21,1)  (22,3)  (23,2)  (24,10)  (25,12) 
Branch_type_2  (3,1)  (4,1)  (5,1)  (8,3)  (9,3)  (12,1)  (13,1)  (14,1)  (16,3)  (17,2)  (20,2)  (21,2)  (23,5)  (24,1)  (47,37) 
Branch_type_3  (3,4159)  (4,237)  (5,419)  (6,425)  (7,452)  (8,317)  (9,251)  (10,156)  (11,124)  (12,50)  (13,7)  (20,1)  (64,1) 
Branch_type_4  (6,3)  (7,8)  (8,25)  (9,52)  (10,62)  (11,63)  (12,104)  (13,93)  (14,107)  (15,90)  (16,100)  (17,72)  (18,55)  (19,124)  (20,71)  (21,124)  (22,216)  (23,136)  (24,191)  (25,76)  (64,1) 
Branch_type_5  (8,2)  (9,1)  (10,4)  (11,6)  (12,3)  (13,14)  (14,16)  (15,11)  (16,20)  (17,11)  (18,16)  (19,12)  (20,11)  (21,13)  (22,42)  (23,26)  (24,37) 
Branch_type_6  (5,4)  (6,12)  (7,21)  (8,34)  (9,36)  (10,65)  (11,57)  (12,82)  (13,95)  (14,111)  (15,86)  (16,97)  (17,72)  (18,50)  (19,109)  (20,52)  (21,95)  (22,144)  (23,72)  (24,92)  (25,4)  (47,45) 
Unique trigger count: 
Variant_0_evicts_0 : 0
Variant_0_evicts_1 : 0
Variant_0_evicts_2 : 0
Variant_0_evicts_3 : 0
Variant_1_evicts_0 : 0
Variant_1_evicts_1 : 0
Variant_1_evicts_2 : 0
Variant_1_evicts_3 : 0
Variant_2_evicts_0 : 0
Variant_2_evicts_1 : 0
Variant_2_evicts_2 : 0
Variant_2_evicts_3 : 0
Variant_3_evicts_0 : 0
Variant_3_evicts_1 : 0
Variant_3_evicts_2 : 0
Variant_3_evicts_3 : 0
BTB PER SET UNIQUE ADDR: 9 12 6 11 12 9 9 7 8 11 12 14 12 9 9 8 10 12 10 10 13 9 9 12 9 10 12 10 11 13 14 16 13 8 9 10 12 13 9 10 9 9 8 17 10 7 13 7 17 8 14 11 8 15 12 7 9 13 11 10 10 12 10 12 12 14 13 8 19 4 10 12 15 7 7 8 10 13 10 18 12 9 10 15 10 14 13 8 8 19 9 7 14 14 7 11 7 7 12 18 16 18 8 9 14 8 6 11 8 13 9 16 8 9 13 5 11 13 11 9 12 8 9 9 9 13 6 5 14 12 8 16 11 11 12 15 8 10 10 20 9 12 10 11 10 10 11 7 8 10 11 13 10 10 10 13 20 14 8 12 14 8 12 17 10 12 15 8 11 10 14 10 13 7 9 11 9 12 13 14 8 8 7 14 18 7 8 14 9 10 12 11 8 14 10 11 9 10 11 11 14 9 10 12 9 9 12 16 10 8 8 11 13 6 10 11 12 9 13 22 5 11 11 6 11 10 17 9 5 13 7 7 12 10 9 16 14 14 11 11 10 9 17 11 7 10 10 11 9 9 12 13 14 10 8 15 12 8 10 5 13 9 6 13 10 7 9 10 10 8 11 14 8 7 8 8 9 10 13 11 12 11 7 12 14 8 13 17 18 15 12 10 9 20 6 12 11 12 14 13 10 9 13 20 10 17 9 11 16 7 9 14 11 14 9 7 17 12 11 13 9 13 11 13 15 11 11 8 9 7 11 13 8 10 7 14 12 9 8 18 9 10 6 15 17 10 12 14 6 11 16 10 11 14 12 17 13 15 8 12 12 11 8 13 14 12 5 11 13 10 7 11 11 13 8 17 15 10 12 6 13 9 10 7 8 12 11 10 17 11 11 10 11 15 10 7 11 11 14 14 6 14 13 14 18 14 10 14 15 9 11 7 9 19 12 11 10 7 13 14 13 13 12 9 14 9 12 12 10 7 13 13 13 15 14 16 14 8 8 14 14 7 10 14 22 8 11 12 12 11 14 16 12 8 15 13 17 14 8 14 12 9 12 14 15 11 11 10 9 16 10 11 11 10 11 15 13 9 8 12 15 9 14 14 6 13 15 14 11 8 11 14 10 10 6 15 10 13 9 10 11 14 13 16 13 14 11 19 16 9 12 15 8 17 9 13 9 13 6 14 7 12 11 11 12 13 17 7 8 17 12 14 13 13 12 15 10 10 11 13 14 11 11 18 14 13 11 18 9 11 14 16 9 14 7 13 15 7 11 14 10 15 12 11 12 8 12 15 15 13 14 12 10 16 11 17 17 17 9 11 10 8 6 9 14 8 13 9 15 11 11 17 8 11 16 9 6 11 9 15 12 12 9 10 11 16 15 11 10 11 15 11 13 11 4 14 12 12 11 9 13 14 8 7 11 14 9 14 10 15 10 9 15 14 12 14 11 12 8 14 16 14 14 17 11 12 13 13 8 9 9 17 11 13 15 11 12 13 15 14 11 7 15 16 9 13 6 15 9 11 14 9 9 16 20 11 12 17 11 13 11 16 13 10 13 14 12 12 14 10 13 17 15 12 8 10 7 13 7 12 9 13 11 14 6 12 13 7 9 10 11 13 9 10 9 12 14 11 11 13 14 9 9 12 10 11 12 8 7 10 12 7 17 7 5 15 12 13 16 10 9 14 11 11 15 14 10 15 10 10 14 9 9 14 11 9 16 7 9 9 17 6 6 10 11 13 11 10 7 13 11 19 12 7 14 10 15 9 13 14 8 13 12 13 12 9 10 8 10 6 7 9 15 9 10 15 13 9 11 9 18 10 17 9 20 12 14 12 11 15 11 21 13 10 12 16 21 12 5 15 9 19 9 13 12 12 10 15 14 7 11 13 12 7 12 12 11 12 10 8 11 10 10 11 11 17 11 12 11 12 12 10 11 17 12 18 14 11 16 12 13 10 9 13 21 6 13 6 15 13 10 11 13 10 13 5 16 6 12 10 14 9 6 11 16 11 13 10 12 14 11 9 11 10 8 7 9 9 11 6 13 5 12 12 6 9 9 11 16 11 14 11 7 13 13 14 17 15 10 8 12 15 9 12 12 11 8 13 12 8 13 15 17 10 9 13 9 15 17 12 11 13 7 11 9 12 12 13 13 9 10 13 14 10 11 11 8 16 10 11 18 16 11 16 9 9 12 9 8 11 13 12 15 15 13 12 12 8 11 14 11 13 12 9 14 16 14 14 10 12 13 16 9 11 12 9 7 14 13 13 17 14 11 10 10 14 8 12 8 15 11 11 9 10 11 13 7 9 7 8 13 13 8 10 
BTB PER SET COUNT: 9 16 1961 18 1444 14 9 7 1478 14 12 197 19 17 13 8 10 2359 11 13 16 13 190 12 10 13 15 11 14 1433 16 27 18 14 15 13 15 16 12 14 13 9 8 76 901 11 14 7 502 14 17 14 12 15 357 8 10 20 19 10 12 15 13 18 12 411 17 596 32 5 339 506 22 9 10 9 10 19 13 23 49 13 11 23 12 62 20 8 21 23 10 8 509 53 7 11 496 8 20 933 19 36 10 12 544 12 6 18 9 644 11 30 1476 12 23 10 14 17 1480 474 20 8 9 10 10 43 6 5 23 947 9 18 17 12 18 23 526 13 14 26 11 12 13 13 17 20 886 7 9 204 13 287 1611 16 10 20 62 26 8 23 21 10 15 24 12 15 24 8 16 221 19 14 18 11 15 14 13 19 19 21 9 259 7 21 62 9 8 26 9 1433 20 11 9 20 10 11 10 741 20 729 24 12 205 15 11 11 17 500 12 983 9 13 15 7 10 3442 16 9 2371 33 5 12 381 6 15 26 22 9 5 20 9 8 20 24 666 24 228 16 17 12 1239 9 24 15 15 956 10 11 9 12 15 23 16 10 9 114 13 455 15 7 17 11 6 25 18 9 9 17 58 9 13 443 9 9 190 9 10 13 17 13 14 15 7 15 17 8 15 22 26 21 16 12 10 474 6 13 15 14 20 28 11 10 514 28 15 19 15 198 25 8 9 20 17 17 1478 404 20 18 13 27 14 3676 13 14 16 17 11 10 12 10 13 22 10 14 7 31 20 11 12 159 11 792 7 19 22 10 12 20 6 21 25 592 27 21 18 20 14 21 8 16 27 14 11 15 20 1432 6 13 19 10 7 41 17 21 9 17 22 10 24 7 22 9 797 8 10 13 14 18 23 19 507 11 11 15 18 7 11 13 1488 1472 6 17 18 16 31 17 12 35 20 12 12 8 9 42 12 12 15 7 21 14 16 22 22 11 19 12 626 15 18 7 16 15 17 24 316 22 422 27 8 16 18 10 13 20 2479 8 13 17 14 14 912 22 15 13 23 14 25 19 8 21 15 233 17 20 18 13 2411 17 9 28 14 15 21 15 16 23 16 12 9 18 21 9 17 20 982 21 28 19 12 9 785 22 112 10 6 23 995 24 14 14 13 24 19 188 18 17 18 23 19 11 14 49 805 972 11 16 9 27 8 22 7 13 17 468 14 16 1452 9 8 28 13 30 255 19 21 26 436 990 18 426 17 13 12 24 20 18 12 32 13 1280 17 19 570 53 9 17 21 13 20 21 14 110 20 20 761 17 157 21 18 966 141 23 10 23 2461 20 39 1984 9 14 20 11 12 9 17 9 506 17 17 13 769 22 9 17 26 15 12 11 9 18 15 22 9 12 13 22 23 2732 10 16 15 531 24 12 4 14 384 16 19 15 15 17 12 984 13 17 11 306 11 28 16 11 17 19 18 324 14 995 8 20 24 20 18 30 11 15 993 20 430 12 9 22 13 15 2310 14 13 17 27 16 15 7 23 19 20807 20 6 781 1479 16 19 9 9 39 93 14 14 20 16 20 17 27 996 14 15 25 13 13 71 12 20 25 18 15 37 18 7 1069 9 19 985 27 1060 28 6 17 22 8 11 14 15 478 995 10 12 117 664 23 15 14 279 1043 10 35 1809 15 18 8 11 14 23 13257 30 12 5 113 998 17 26 13 11 17 13 15 21 17 15 20 14 17 178 9 14 1975 1127 9 22 11 10 9 18 7 7 78 2936 21 16 12 8 143 13 179 19 7 22 17 22 11 17 16 1440 17 245 14 13 9 13 10 12 7 7 992 25 12 13 30 123 13 20 11 126 16 19 43 31 16 15 13 14 54 11 7074 19 14 17 1872 123 1545 6 778 9 821 11 15 1142 20 16 25 21 9 15 14 14 9 20 1588 18 779 14 10 11 18 13 14 1358 19 22 18 16 15 16 606 24 29 1484 28 16 16 17 14 221 1016 984 17 77 7 21 6 17 19 52 40 15 11 14 5 25 7 21 12 19 10 11 13 789 992 17 15 17 19 16 12 1373 10 8 10 11 13 1229 6 15 5 21 288 9 17 9 14 156 13 24 502 9 17 24 24 1932 660 13 12 18 945 11 17 15 13 8 17 25 11 31 21 814 14 9 14 10 23 23 17 20 18 7 13 11 13 16 17 21 11 13 932 78 1485 12 14 8 18 13 14 448 21 501 25 10 11 18 11 45 12 95 189 28 29 848 22 16 13 14 20 19 26 15 989 22 1419 16 64 13 18 15 215 9 17 15 10 13 606 20 16 169 22 15 11 13 15 12 17 9 998 15 18 10 13 17 15 7 12 8 11 17 17 11 16 
To predecode: 0
Predecoding something: 0
Predecode request dropped: 0
sizeofblock_0 0
sizeofblock_1 45455
sizeofblock_2 29576
sizeofblock_3 41886
sizeofblock_4 22716
sizeofblock_5 0
sizeofblock_6 0
sizeofblock_7 0
sizeofblock_8 0
Variant_0 Correct: 1615026 Incorrect: 0 Accuracy: 1
Variant_1 Correct: 2090706 Incorrect: 0 Accuracy: 1
Variant_2 Correct: 3647101 Incorrect: 0 Accuracy: 1
Variant_3 Correct: 0 Incorrect: 0 Accuracy: -nan
