
*** ChampSim Multicore Out-of-Order Simulator ***

Warmup Instructions: 50000000
Simulation Instructions: 50000000
Number of CPUs: 1
LLC sets: 2048
LLC ways: 16
Off-chip DRAM Size: 4096 MB Channels: 1 Width: 64-bit Data Rate: 6400 MT/s
CPU 0 runs ./micro_traces/srv514.trace.gz
.gz
ITLB has LRU replacement policy
DTLB has LRU replacement policy
STLB has LRU replacement policy
FDIP Prefetcher at L1I
L1I has LRU replacement policy
L1D has LRU replacement policy
Initialize SRRIP state for L2C
Initialize DRRIP state for LLC
Heartbeat_Variant_0 : 984 0.320312 per_variant_size: 0 984 0 0 0 0 0 0 0 
Heartbeat_Variant_1 : 2075 0.675456 per_variant_size: 0 355 1720 0 0 0 0 0 0 
Heartbeat_Variant_2 : 0 0 per_variant_size: 0 0 0 0 0 0 0 0 0 
Heartbeat_Variant_3 : 0 0 per_variant_size: 0 0 0 0 0 0 0 0 0 
Heartbeat_Variant_0_evicts 0 : 17406 1 : 25096 2 : 0 3 : 0 
Heartbeat_Variant_1_evicts 0 : 25040 1 : 0 2 : 0 3 : 0 
Heartbeat_Variant_2_evicts 0 : 0 1 : 0 2 : 0 3 : 0 
Heartbeat_Variant_3_evicts 0 : 0 1 : 0 2 : 0 3 : 0 
Heartbeat CPU 0 instructions: 10000001 cycles: 2795732 heartbeat IPC: 3.57688 cumulative IPC: 3.57688 (Simulation time: 0 hr 2 min 8 sec) 
Heartbeat_Variant_0 : 984 0.320312 per_variant_size: 0 984 0 0 0 0 0 0 0 
Heartbeat_Variant_1 : 2080 0.677083 per_variant_size: 0 355 1725 0 0 0 0 0 0 
Heartbeat_Variant_2 : 0 0 per_variant_size: 0 0 0 0 0 0 0 0 0 
Heartbeat_Variant_3 : 0 0 per_variant_size: 0 0 0 0 0 0 0 0 0 
Heartbeat_Variant_0_evicts 0 : 18000 1 : 25450 2 : 0 3 : 0 
Heartbeat_Variant_1_evicts 0 : 25451 1 : 0 2 : 0 3 : 0 
Heartbeat_Variant_2_evicts 0 : 0 1 : 0 2 : 0 3 : 0 
Heartbeat_Variant_3_evicts 0 : 0 1 : 0 2 : 0 3 : 0 
Heartbeat CPU 0 instructions: 20000003 cycles: 5589068 heartbeat IPC: 3.57995 cumulative IPC: 3.57841 (Simulation time: 0 hr 3 min 55 sec) 
Heartbeat_Variant_0 : 1018 0.33138 per_variant_size: 0 1018 0 0 0 0 0 0 0 
Heartbeat_Variant_1 : 2046 0.666016 per_variant_size: 0 367 1679 0 0 0 0 0 0 
Heartbeat_Variant_2 : 0 0 per_variant_size: 0 0 0 0 0 0 0 0 0 
Heartbeat_Variant_3 : 0 0 per_variant_size: 0 0 0 0 0 0 0 0 0 
Heartbeat_Variant_0_evicts 0 : 17513 1 : 25637 2 : 0 3 : 0 
Heartbeat_Variant_1_evicts 0 : 25603 1 : 0 2 : 0 3 : 0 
Heartbeat_Variant_2_evicts 0 : 0 1 : 0 2 : 0 3 : 0 
Heartbeat_Variant_3_evicts 0 : 0 1 : 0 2 : 0 3 : 0 
Heartbeat CPU 0 instructions: 30000000 cycles: 8383929 heartbeat IPC: 3.57799 cumulative IPC: 3.57827 (Simulation time: 0 hr 5 min 37 sec) 
Heartbeat_Variant_0 : 1006 0.327474 per_variant_size: 0 1006 0 0 0 0 0 0 0 
Heartbeat_Variant_1 : 2059 0.670247 per_variant_size: 0 356 1703 0 0 0 0 0 0 
Heartbeat_Variant_2 : 0 0 per_variant_size: 0 0 0 0 0 0 0 0 0 
Heartbeat_Variant_3 : 0 0 per_variant_size: 0 0 0 0 0 0 0 0 0 
Heartbeat_Variant_0_evicts 0 : 17926 1 : 25579 2 : 0 3 : 0 
Heartbeat_Variant_1_evicts 0 : 25591 1 : 0 2 : 0 3 : 0 
Heartbeat_Variant_2_evicts 0 : 0 1 : 0 2 : 0 3 : 0 
Heartbeat_Variant_3_evicts 0 : 0 1 : 0 2 : 0 3 : 0 
Heartbeat CPU 0 instructions: 40000003 cycles: 11180181 heartbeat IPC: 3.57622 cumulative IPC: 3.57776 (Simulation time: 0 hr 7 min 19 sec) 
Heartbeat_Variant_0 : 970 0.315755 per_variant_size: 0 970 0 0 0 0 0 0 0 
Heartbeat_Variant_1 : 2095 0.681966 per_variant_size: 0 361 1734 0 0 0 0 0 0 
Heartbeat_Variant_2 : 0 0 per_variant_size: 0 0 0 0 0 0 0 0 0 
Heartbeat_Variant_3 : 0 0 per_variant_size: 0 0 0 0 0 0 0 0 0 
Heartbeat_Variant_0_evicts 0 : 17478 1 : 25434 2 : 0 3 : 0 
Heartbeat_Variant_1_evicts 0 : 25470 1 : 0 2 : 0 3 : 0 
Heartbeat_Variant_2_evicts 0 : 0 1 : 0 2 : 0 3 : 0 
Heartbeat_Variant_3_evicts 0 : 0 1 : 0 2 : 0 3 : 0 
Heartbeat CPU 0 instructions: 50000000 cycles: 13974795 heartbeat IPC: 3.57831 cumulative IPC: 3.57787 (Simulation time: 0 hr 9 min 10 sec) 

Warmup complete CPU 0 instructions: 50000004 cycles: 13974796 (Simulation time: 0 hr 9 min 10 sec) 

Cycle: 20000000 FTQ IN: 56546591 FTQ occupancy: 18.1264 DECODE IN: 56546522 DECODE occupancy: 46.2938 ROB IN: 56546462 ROB occupancy: 279.305 ROB OUT: 56546381
Heartbeat_Variant_0 : 1017 0.331055 per_variant_size: 0 1017 0 0 0 0 0 0 0 
Heartbeat_Variant_1 : 2048 0.666667 per_variant_size: 0 340 1708 0 0 0 0 0 0 
Heartbeat_Variant_2 : 0 0 per_variant_size: 0 0 0 0 0 0 0 0 0 
Heartbeat_Variant_3 : 0 0 per_variant_size: 0 0 0 0 0 0 0 0 0 
Heartbeat_Variant_0_evicts 0 : 17532 1 : 25491 2 : 0 3 : 0 
Heartbeat_Variant_1_evicts 0 : 25444 1 : 0 2 : 0 3 : 0 
Heartbeat_Variant_2_evicts 0 : 0 1 : 0 2 : 0 3 : 0 
Heartbeat_Variant_3_evicts 0 : 0 1 : 0 2 : 0 3 : 0 
Heartbeat CPU 0 instructions: 60000000 cycles: 23252341 heartbeat IPC: 1.07787 cumulative IPC: 1.07787 (Simulation time: 0 hr 10 min 38 sec) 
Cycle: 30000000 FTQ IN: 10738113 FTQ occupancy: 6.74947 DECODE IN: 10738081 DECODE occupancy: 14.1281 ROB IN: 10738141 ROB occupancy: 114.032 ROB OUT: 10738162
Heartbeat_Variant_0 : 1008 0.328125 per_variant_size: 0 1008 0 0 0 0 0 0 0 
Heartbeat_Variant_1 : 2057 0.669596 per_variant_size: 0 316 1741 0 0 0 0 0 0 
Heartbeat_Variant_2 : 0 0 per_variant_size: 0 0 0 0 0 0 0 0 0 
Heartbeat_Variant_3 : 0 0 per_variant_size: 0 0 0 0 0 0 0 0 0 
Heartbeat_Variant_0_evicts 0 : 17793 1 : 25488 2 : 0 3 : 0 
Heartbeat_Variant_1_evicts 0 : 25497 1 : 0 2 : 0 3 : 0 
Heartbeat_Variant_2_evicts 0 : 0 1 : 0 2 : 0 3 : 0 
Heartbeat_Variant_3_evicts 0 : 0 1 : 0 2 : 0 3 : 0 
Heartbeat CPU 0 instructions: 70000000 cycles: 32659009 heartbeat IPC: 1.06308 cumulative IPC: 1.07042 (Simulation time: 0 hr 12 min 6 sec) 
Cycle: 40000000 FTQ IN: 10666362 FTQ occupancy: 6.95673 DECODE IN: 10666320 DECODE occupancy: 14.455 ROB IN: 10666260 ROB occupancy: 114.537 ROB OUT: 10665968
Heartbeat_Variant_0 : 957 0.311523 per_variant_size: 0 957 0 0 0 0 0 0 0 
Heartbeat_Variant_1 : 2108 0.686198 per_variant_size: 0 365 1743 0 0 0 0 0 0 
Heartbeat_Variant_2 : 0 0 per_variant_size: 0 0 0 0 0 0 0 0 0 
Heartbeat_Variant_3 : 0 0 per_variant_size: 0 0 0 0 0 0 0 0 0 
Heartbeat_Variant_0_evicts 0 : 17660 1 : 25395 2 : 0 3 : 0 
Heartbeat_Variant_1_evicts 0 : 25446 1 : 0 2 : 0 3 : 0 
Heartbeat_Variant_2_evicts 0 : 0 1 : 0 2 : 0 3 : 0 
Heartbeat_Variant_3_evicts 0 : 0 1 : 0 2 : 0 3 : 0 
Heartbeat CPU 0 instructions: 80000000 cycles: 41876673 heartbeat IPC: 1.08487 cumulative IPC: 1.0752 (Simulation time: 0 hr 13 min 39 sec) 
Cycle: 50000000 FTQ IN: 10578637 FTQ occupancy: 6.89315 DECODE IN: 10578661 DECODE occupancy: 14.4394 ROB IN: 10578721 ROB occupancy: 114.379 ROB OUT: 10578894
Heartbeat_Variant_0 : 1002 0.326172 per_variant_size: 0 1002 0 0 0 0 0 0 0 
Heartbeat_Variant_1 : 2063 0.671549 per_variant_size: 0 320 1743 0 0 0 0 0 0 
Heartbeat_Variant_2 : 0 0 per_variant_size: 0 0 0 0 0 0 0 0 0 
Heartbeat_Variant_3 : 0 0 per_variant_size: 0 0 0 0 0 0 0 0 0 
Heartbeat_Variant_0_evicts 0 : 17987 1 : 26241 2 : 0 3 : 0 
Heartbeat_Variant_1_evicts 0 : 26196 1 : 0 2 : 0 3 : 0 
Heartbeat_Variant_2_evicts 0 : 0 1 : 0 2 : 0 3 : 0 
Heartbeat_Variant_3_evicts 0 : 0 1 : 0 2 : 0 3 : 0 
Heartbeat CPU 0 instructions: 90000000 cycles: 51388137 heartbeat IPC: 1.05136 cumulative IPC: 1.06914 (Simulation time: 0 hr 15 min 10 sec) 
Cycle: 60000000 FTQ IN: 10706545 FTQ occupancy: 6.77708 DECODE IN: 10706607 DECODE occupancy: 14.1613 ROB IN: 10706547 ROB occupancy: 113.183 ROB OUT: 10706377
*** Reached end of trace for Core: 0 Repeating trace: ./micro_traces/srv514.trace.gz
Heartbeat_Variant_0 : 977 0.318034 per_variant_size: 0 977 0 0 0 0 0 0 0 
Heartbeat_Variant_1 : 2088 0.679688 per_variant_size: 0 370 1718 0 0 0 0 0 0 
Heartbeat_Variant_2 : 0 0 per_variant_size: 0 0 0 0 0 0 0 0 0 
Heartbeat_Variant_3 : 0 0 per_variant_size: 0 0 0 0 0 0 0 0 0 
Heartbeat_Variant_0_evicts 0 : 17972 1 : 25758 2 : 0 3 : 0 
Heartbeat_Variant_1_evicts 0 : 25783 1 : 0 2 : 0 3 : 0 
Heartbeat_Variant_2_evicts 0 : 0 1 : 0 2 : 0 3 : 0 
Heartbeat_Variant_3_evicts 0 : 0 1 : 0 2 : 0 3 : 0 
Heartbeat CPU 0 instructions: 100000002 cycles: 60685873 heartbeat IPC: 1.07553 cumulative IPC: 1.07041 (Simulation time: 0 hr 16 min 47 sec) 
Finished CPU 0 instructions: 50000002 cycles: 46711078 cumulative IPC: 1.07041 (Simulation time: 0 hr 16 min 47 sec) 

ChampSim completed all CPUs

Region of Interest Statistics

CPU 0 cumulative IPC: 1.07041 instructions: 50000002 cycles: 46711078
 Fetch stage stalled: 71.019  Sim cycles: 46711078 fetch stall cycle: 33173731
 Empty decode stage: 58.0664  Sim cycles: 46711078 fetch stall cycle: 27123455
ITLB TOTAL     ACCESS:    5547151  HIT:    5057202  MISS:     489949  HIT %:    91.1676  MISS %:    8.83244   MPKI: 9.79898
ITLB LOAD TRANSLATION INSTRUCTION	ACCESS:    5438083  HIT:    4948134  MISS:     489949  HIT %:    90.9904  MISS %:    9.00959  MPKI: 9.79898
ITLB TRANSLATION FROM L1D PREFETCHER INSTRUCTION	ACCESS:     109068  HIT:     109068  MISS:          0  HIT %:        100  MISS %:          0  MPKI: 0

ITLB AVERAGE MISS LATENCY: 9.04291 cycles
ITLB RQ	ACCESS:    7310334	FORWARD:          0	MERGED:    1244768	TO_CACHE:    6065566

DTLB TOTAL     ACCESS:    9347879  HIT:    8874730  MISS:     473149  HIT %:    94.9384  MISS %:    5.06157   MPKI: 9.46298
DTLB LOAD TRANSLATION DATA	ACCESS:    9347879  HIT:    8874730  MISS:     473149  HIT %:    94.9384  MISS %:    5.06157  MPKI: 9.46298

DTLB AVERAGE MISS LATENCY: 9.31277 cycles
DTLB RQ	ACCESS:   13604028	FORWARD:          0	MERGED:    4222532	TO_CACHE:    9381496

STLB TOTAL     ACCESS:    1221892  HIT:    1219765  MISS:       2127  HIT %:    99.8259  MISS %:   0.174074   MPKI: 0.04254
STLB LOAD TRANSLATION INSTRUCTION	ACCESS:     489949  HIT:     489688  MISS:        261  HIT %:    99.9467  MISS %:  0.0532709  MPKI: 0.00522
STLB LOAD TRANSLATION DATA	ACCESS:     472984  HIT:     471127  MISS:       1857  HIT %:    99.6074  MISS %:   0.392614  MPKI: 0.03714
STLB TRANSLATION FROM L1D PREFETCHER DATA	ACCESS:     258959  HIT:     258950  MISS:          9  HIT %:    99.9965  MISS %: 0.00347545  MPKI: 0.00018

STLB AVERAGE MISS LATENCY: 67.5552 cycles
STLB RQ	ACCESS:    1368628	FORWARD:          0	MERGED:     146707	TO_CACHE:    1221921

STLB Hit, L1D data hit: 0
STLB Hit, L2C data hit: 0
STLB Hit, LLC data hit: 0
STLB Hit, LLC data miss: 0
STLB STLB hints to L2: 0
L1D TOTAL     ACCESS:   13385612  HIT:   12225947  MISS:    1159665  HIT %:    91.3365  MISS %:    8.66352   MPKI: 23.1933
L1D LOAD DATA	ACCESS:    6840583  HIT:    6076776  MISS:     763807  HIT %:    88.8342  MISS %:    11.1658  MPKI: 15.2761
L1D RFO DATA	ACCESS:    6203316  HIT:    5913790  MISS:     289526  HIT %:    95.3327  MISS %:    4.66728  MPKI: 5.79052
L1D PREFETCH DATA	ACCESS:     341713  HIT:     235381  MISS:     106332  HIT %:    68.8827  MISS %:    31.1173  MPKI: 2.12664

L1D PREFETCH  REQUESTED:     811368  ISSUED:     811368  USEFUL:      47763  USELESS:      71224
L1D USEFUL LOAD PREFETCHES:      47763 PREFETCH ISSUED TO LOWER LEVEL:     119071  ACCURACY: 40.113
 TIMELY PREFETCHES:      47763 LATE PREFETCHES: 12664 DROPPED PREFETCHES: 4
L1D AVERAGE MISS LATENCY: 412731 cycles
L1D RQ	ACCESS:   10904429	FORWARD:          0	MERGED:    3869274	TO_CACHE:    6870846
L1D WQ	ACCESS:    6901403	FORWARD:     164617	MERGED:     168221	TO_CACHE:    6733182
L1D PQ	ACCESS:     405838	FORWARD:          0	MERGED:          0	TO_CACHE:     405530

L1D UNIQUE REGIONS ACCESSED: 0
L1D REGIONS CONFLICTS: 0
L1D Cross Page Prefetch Requests: 5855
L1D Same Page Prefetch Requests: 821449
L1D ROI Sum of L1D PQ occupancy: 5147700
L1D PREFETCHES PUSHED FROM L2C: 0
L1I TOTAL     ACCESS:    6878527  HIT:    4135915  MISS:    2742612  HIT %:    60.1279  MISS %:    39.8721   MPKI: 54.8522
L1I LOAD INSTRUCTION	ACCESS:    6422631  HIT:    3680019  MISS:    2742612  HIT %:    57.2977  MISS %:    42.7023  MPKI: 54.8522
L1I PREFETCH INSTRUCTION	ACCESS:     455896  HIT:     455896  MISS:          0  HIT %:        100  MISS %:          0  MPKI: 0

L1I PREFETCH  REQUESTED:     992005  ISSUED:     992005  USEFUL:          0  USELESS:          0
L1I USEFUL LOAD PREFETCHES:          0 PREFETCH ISSUED TO LOWER LEVEL:          0  ACCURACY: -nan
 TIMELY PREFETCHES:          0 LATE PREFETCHES: 0 DROPPED PREFETCHES: 0
L1I AVERAGE MISS LATENCY: 17.7508 cycles
L1I RQ	ACCESS:    9473177	FORWARD:          0	MERGED:    2865330	TO_CACHE:    6607847
L1I PQ	ACCESS:     992005	FORWARD:          0	MERGED:     289518	TO_CACHE:     702487

L1BTB TOTAL     ACCESS:    5681109  HIT:    2078118  MISS:    3602991  HIT %:    36.5794  MISS %:    63.4206   MPKI: 72.0598
L1BTB BRANCH_DIRECT_JUMP	ACCESS:     545082 HIT:     144163 MISS:     400919 AVERAGE STALL: 35.9042 AVERAGE FETCH STALL: 19.8738 AVERAGE FETCH QUEUE STALL: 8.0908 AVERAGE DECODE STALL: 7.08859 AVERAGE EXECUTE STALL: 2.91607e+14
L1BTB BRANCH_INDIRECT	ACCESS:     181892 HIT:      65664 MISS:     116228 AVERAGE STALL: 89.3187 AVERAGE FETCH STALL: 14.8513 AVERAGE FETCH QUEUE STALL: 10.5708 AVERAGE DECODE STALL: 7.32566 AVERAGE EXECUTE STALL: 55.6355
L1BTB BRANCH_CONDITIONAL	ACCESS:    2737848 HIT:    1454201 MISS:    1283647 AVERAGE STALL: 36.4168 AVERAGE FETCH STALL: 21.927 AVERAGE FETCH QUEUE STALL: 7.06344 AVERAGE DECODE STALL: 6.68329 AVERAGE EXECUTE STALL: 1.01108e+14
L1BTB BRANCH_DIRECT_CALL	ACCESS:     937386 HIT:     104298 MISS:     833088 AVERAGE STALL: 38.1435 AVERAGE FETCH STALL: 22.8038 AVERAGE FETCH QUEUE STALL: 7.57006 AVERAGE DECODE STALL: 7.01601 AVERAGE EXECUTE STALL: 9.29897e+13
L1BTB BRANCH_INDIRECT_CALL	ACCESS:     170769 HIT:      21329 MISS:     149440 AVERAGE STALL: 116.128 AVERAGE FETCH STALL: 18.6294 AVERAGE FETCH QUEUE STALL: 7.22215 AVERAGE DECODE STALL: 6.69409 AVERAGE EXECUTE STALL: 83.0274
L1BTB BRANCH_RETURN	ACCESS:    1108132 HIT:     288463 MISS:     819669 AVERAGE STALL: 37.3786 AVERAGE FETCH STALL: 19.1252 AVERAGE FETCH QUEUE STALL: 6.47891 AVERAGE DECODE STALL: 6.41701 AVERAGE EXECUTE STALL: 1.49236e+14
L1BTB BRANCH_OTHER ACCESS:          0 HIT:          0 MISS:          0 AVERAGE STALL: -nan AVERAGE FETCH STALL: -nan AVERAGE FETCH QUEUE STALL: -nan AVERAGE DECODE STALL: -nan AVERAGE EXECUTE STALL: -nan
L1BTB TOTAL ROB OCCUPANCY AT BTB MISS: 15.8639

L2BTB TOTAL     ACCESS:    3577718  HIT:    2965118  MISS:     612600  HIT %:    82.8774  MISS %:    17.1226   MPKI: 12.252
L2BTB BRANCH_DIRECT_JUMP	ACCESS:     396759 HIT:     337651 MISS:      59108 AVERAGE STALL: 35.9042 AVERAGE FETCH STALL: 19.8738 AVERAGE FETCH QUEUE STALL: 8.0908 AVERAGE DECODE STALL: 7.08859 AVERAGE EXECUTE STALL: 2.91607e+14
L2BTB BRANCH_INDIRECT	ACCESS:     106020 HIT:      95548 MISS:      10472 AVERAGE STALL: 89.3187 AVERAGE FETCH STALL: 14.8513 AVERAGE FETCH QUEUE STALL: 10.5708 AVERAGE DECODE STALL: 7.32566 AVERAGE EXECUTE STALL: 55.6355
L2BTB BRANCH_CONDITIONAL	ACCESS:    1283647 HIT:    1100189 MISS:     183458 AVERAGE STALL: 36.4168 AVERAGE FETCH STALL: 21.927 AVERAGE FETCH QUEUE STALL: 7.06344 AVERAGE DECODE STALL: 6.68329 AVERAGE EXECUTE STALL: 1.01108e+14
L2BTB BRANCH_DIRECT_CALL	ACCESS:     833088 HIT:     634657 MISS:     198431 AVERAGE STALL: 38.1435 AVERAGE FETCH STALL: 22.8038 AVERAGE FETCH QUEUE STALL: 7.57006 AVERAGE DECODE STALL: 7.01601 AVERAGE EXECUTE STALL: 9.29897e+13
L2BTB BRANCH_INDIRECT_CALL	ACCESS:     139920 HIT:     101050 MISS:      38870 AVERAGE STALL: 116.128 AVERAGE FETCH STALL: 18.6294 AVERAGE FETCH QUEUE STALL: 7.22215 AVERAGE DECODE STALL: 6.69409 AVERAGE EXECUTE STALL: 83.0274
L2BTB BRANCH_RETURN	ACCESS:     818284 HIT:     696023 MISS:     122261 AVERAGE STALL: 37.3786 AVERAGE FETCH STALL: 19.1252 AVERAGE FETCH QUEUE STALL: 6.47891 AVERAGE DECODE STALL: 6.41701 AVERAGE EXECUTE STALL: 1.49236e+14
L2BTB BRANCH_OTHER ACCESS:          0 HIT:          0 MISS:          0 AVERAGE STALL: -nan AVERAGE FETCH STALL: -nan AVERAGE FETCH QUEUE STALL: -nan AVERAGE DECODE STALL: -nan AVERAGE EXECUTE STALL: -nan
L2BTB TOTAL ROB OCCUPANCY AT BTB MISS: 93.3029

L2C TOTAL     ACCESS:    4518103  HIT:    3986973  MISS:     531130  HIT %:    88.2444  MISS %:    11.7556   MPKI: 10.6226
L2C LOAD INSTRUCTION	ACCESS:    2742612  HIT:    2441971  MISS:     300641  HIT %:    89.0382  MISS %:    10.9618  MPKI: 6.01282
L2C LOAD TRANSLATION INSTRUCTION	ACCESS:        294  HIT:         74  MISS:        220  HIT %:    25.1701  MISS %:    74.8299  MPKI: 0.0044
L2C LOAD DATA	ACCESS:     751112  HIT:     670010  MISS:      81102  HIT %:    89.2024  MISS %:    10.7976  MPKI: 1.62204
L2C RFO DATA	ACCESS:     289437  HIT:     237380  MISS:      52057  HIT %:    82.0144  MISS %:    17.9856  MPKI: 1.04114
L2C PREFETCH DATA	ACCESS:     207196  HIT:     128056  MISS:      79140  HIT %:    61.8043  MISS %:    38.1957  MPKI: 1.5828
L2C WRITEBACK DATA	ACCESS:     525504  HIT:     508922  MISS:      16582  HIT %:    96.8446  MISS %:    3.15545  MPKI: 0.33164
L2C LOAD TRANSLATION DATA	ACCESS:       1927  HIT:        547  MISS:       1380  HIT %:    28.3861  MISS %:    71.6139  MPKI: 0.0276
L2C TRANSLATION FROM L1D PREFETCHER DATA	ACCESS:         21  HIT:         13  MISS:          8  HIT %:    61.9048  MISS %:    38.0952  MPKI: 0.00016

L2C PREFETCH  REQUESTED:      95937  ISSUED:      95937  USEFUL:       9957  USELESS:      69559
L2C USEFUL LOAD PREFETCHES:       9957 PREFETCH ISSUED TO LOWER LEVEL:      79569  ACCURACY: 12.5137
 TIMELY PREFETCHES:       9957 LATE PREFETCHES: 429 DROPPED PREFETCHES: 0
L2C AVERAGE MISS LATENCY: 37.3586 cycles
L2C RQ	ACCESS:    3785448	FORWARD:          0	MERGED:          0	TO_CACHE:    3785403
L2C WQ	ACCESS:     525504	FORWARD:         45	MERGED:          0	TO_CACHE:     525504
L2C PQ	ACCESS:     215008	FORWARD:          0	MERGED:       3494	TO_CACHE:     211514

L2C Dense regions hint from L2: 0
PSCL5 TOTAL     ACCESS:       4264  HIT:       2132  MISS:       2132  HIT %:         50  MISS %:         50   MPKI: 0.04264
PSCL5 LOAD TRANSLATION INSTRUCTION	ACCESS:       4222  HIT:       2111  MISS:       2111  HIT %:         50  MISS %:         50  MPKI: 0.04222
PSCL5 TRANSLATION FROM L1D PREFETCHER INSTRUCTION	ACCESS:         42  HIT:         21  MISS:         21  HIT %:         50  MISS %:         50  MPKI: 0.00042


PSCL4 TOTAL     ACCESS:       3877  HIT:       1936  MISS:       1941  HIT %:    49.9355  MISS %:    50.0645   MPKI: 0.03882
PSCL4 LOAD TRANSLATION INSTRUCTION	ACCESS:       3053  HIT:       1915  MISS:       1138  HIT %:    62.7252  MISS %:    37.2748  MPKI: 0.02276
PSCL4 TRANSLATION FROM L1D PREFETCHER INSTRUCTION	ACCESS:         35  HIT:         21  MISS:         14  HIT %:         60  MISS %:         40  MPKI: 0.00028
PSCL4 LOAD TRANSLATION DATA	ACCESS:        782  HIT:          0  MISS:        782  HIT %:          0  MISS %:        100  MPKI: 0.01564
PSCL4 TRANSLATION FROM L1D PREFETCHER DATA	ACCESS:          7  HIT:          0  MISS:          7  HIT %:          0  MISS %:        100  MPKI: 0.00014


PSCL3 TOTAL     ACCESS:       4138  HIT:       2064  MISS:       2074  HIT %:    49.8792  MISS %:    50.1208   MPKI: 0.04148
PSCL3 LOAD TRANSLATION INSTRUCTION	ACCESS:       2158  HIT:       2043  MISS:        115  HIT %:     94.671  MISS %:    5.32901  MPKI: 0.0023
PSCL3 TRANSLATION FROM L1D PREFETCHER INSTRUCTION	ACCESS:         21  HIT:         21  MISS:          0  HIT %:        100  MISS %:          0  MPKI: 0
PSCL3 LOAD TRANSLATION DATA	ACCESS:       1938  HIT:          0  MISS:       1938  HIT %:          0  MISS %:        100  MPKI: 0.03876
PSCL3 TRANSLATION FROM L1D PREFETCHER DATA	ACCESS:         21  HIT:          0  MISS:         21  HIT %:          0  MISS %:        100  MPKI: 0.00042


PSCL2 TOTAL     ACCESS:       4168  HIT:       2036  MISS:       2132  HIT %:    48.8484  MISS %:    51.1516   MPKI: 0.04264
PSCL2 LOAD TRANSLATION INSTRUCTION	ACCESS:       2275  HIT:       2015  MISS:        260  HIT %:    88.5714  MISS %:    11.4286  MPKI: 0.0052
PSCL2 TRANSLATION FROM L1D PREFETCHER INSTRUCTION	ACCESS:         21  HIT:         21  MISS:          0  HIT %:        100  MISS %:          0  MPKI: 0
PSCL2 LOAD TRANSLATION DATA	ACCESS:       1851  HIT:          0  MISS:       1851  HIT %:          0  MISS %:        100  MPKI: 0.03702
PSCL2 TRANSLATION FROM L1D PREFETCHER DATA	ACCESS:         21  HIT:          0  MISS:         21  HIT %:          0  MISS %:        100  MPKI: 0.00042


LLC TOTAL     ACCESS:     594014  HIT:     565989  MISS:      28025  HIT %:    95.2821  MISS %:     4.7179   MPKI: 0.5605
LLC LOAD INSTRUCTION	ACCESS:     300641  HIT:     299870  MISS:        771  HIT %:    99.7435  MISS %:   0.256452  MPKI: 0.01542
LLC LOAD TRANSLATION INSTRUCTION	ACCESS:        220  HIT:        185  MISS:         35  HIT %:    84.0909  MISS %:    15.9091  MPKI: 0.0007
LLC LOAD DATA	ACCESS:      80683  HIT:      77225  MISS:       3458  HIT %:    95.7141  MISS %:    4.28591  MPKI: 0.06916
LLC RFO DATA	ACCESS:      52019  HIT:      38678  MISS:      13341  HIT %:    74.3536  MISS %:    25.6464  MPKI: 0.26682
LLC PREFETCH DATA	ACCESS:      79569  HIT:      69508  MISS:      10061  HIT %:    87.3556  MISS %:    12.6444  MPKI: 0.20122
LLC WRITEBACK DATA	ACCESS:      79494  HIT:      79200  MISS:        294  HIT %:    99.6302  MISS %:   0.369839  MPKI: 0.00588
LLC LOAD TRANSLATION DATA	ACCESS:       1380  HIT:       1316  MISS:         64  HIT %:    95.3623  MISS %:    4.63768  MPKI: 0.00128
LLC TRANSLATION FROM L1D PREFETCHER DATA	ACCESS:          8  HIT:          7  MISS:          1  HIT %:       87.5  MISS %:       12.5  MPKI: 2e-05

LLC AVERAGE MISS LATENCY: 155.893 cycles
LLC RQ	ACCESS:     434979	FORWARD:          0	MERGED:          0	TO_CACHE:     434951
LLC WQ	ACCESS:      79494	FORWARD:         28	MERGED:          0	TO_CACHE:      79494
LLC PQ	ACCESS:      79569	FORWARD:          0	MERGED:          0	TO_CACHE:      79569

LLC Dense regions hint to LLC: 0

RAW hits: 1699659
Loads Generated: 12604088
Loads sent to L1D: 10904429
Stores Generated: 6901384
Stores sent to L1D: 6901403
Major fault: 0 Minor fault: 2600
Allocated PAGES: 2600

stream: 
stream:times selected: 1258339
stream:pref_filled: 127311
stream:pref_useful: 28896
stream:pref_late: 9442
stream:misses: 10833
stream:misses_by_poll: 0

CS: 
CS:times selected: 197830
CS:pref_filled: 75646
CS:pref_useful: 51569
CS:pref_late: 9011
CS:misses: 23578
CS:misses_by_poll: 1

CPLX: 
CPLX:times selected: 1059422
CPLX:pref_filled: 25166
CPLX:pref_useful: 7739
CPLX:pref_late: 4125
CPLX:misses: 131361
CPLX:misses_by_poll: 0

NL_L1: 
NL:times selected: 12855
NL:pref_filled: 1088
NL:pref_useful: 282
NL:pref_late: 462
NL:misses: 2049
NL:misses_by_poll: 0

total selections: 2528446
total_filled: 106332
total_useful: 47763
total_late: 25312
total_polluted: 1
total_misses_after_warmup: 794070
conflicts: 5619514

test: 119997

DRAM Statistics
 CHANNEL 0
 RQ ROW_BUFFER_HIT:      10122  ROW_BUFFER_MISS:      17600
 DBUS_CONGESTED:          9
 WQ ROW_BUFFER_HIT:       1333  ROW_BUFFER_MISS:      12453  FULL:          0

 AVG_CONGESTED_CYCLE: 4

CPU 0 Branch Prediction Accuracy: 99.8227% MPKI: 0.3247 Average ROB Occupancy at Mispredict: 138.215
Branch types
NOT_BRANCH: 40841829 81.6837%
BRANCH_DIRECT_JUMP: 545082 1.09016%
BRANCH_INDIRECT: 181892 0.363784%
BRANCH_CONDITIONAL: 6214573 12.4291%
BRANCH_DIRECT_CALL: 937386 1.87477%
BRANCH_INDIRECT_CALL: 170769 0.341538%
BRANCH_RETURN: 1108132 2.21626%
BRANCH_OTHER: 0 0%

DRAM PAGES: 1048576
Allocated PAGES: 2600
Average_ROB_Occupancy: 115.878
Average_Decode_Occupancy: 14.3394
Average_FTQ_Occupancy: 6.8505
Indirect max targets: 14 Average targets: 1.14478
Branch_type:  BRANCH_DIRECT_JUMP:  Count Percentage: 3.32706 6.00623 4.23781 7.90443 3.31512 6.01946 1.18464 68.0052 
Branch_type:  BRANCH_INDIRECT:  Count Percentage: 6.14169 3.48153 8.18425 9.67574 3.33826 2.80288 3.06906 63.3066 
Branch_type:  BRANCH_CONDITIONAL:  Count Percentage: 26.0832 2.72406 1.6215 4.56804 2.01566 3.53614 0.91964 58.5318 
Branch_type:  BRANCH_DIRECT_CALL:  Count Percentage: 0.847598 1.23517 0.745459 3.71021 3.21164 2.62085 0.834624 86.7945 
Branch_type:  BRANCH_INDIRECT_CALL:  Count Percentage: 9.5113 0 2.98331 0 1.28367 1.70462 3.28056 81.2365 
Branch_type:  BRANCH_RETURN:  Count Percentage: 8.21508 1.23955 1.20248 3.67015 4.41066 3.49655 1.25485 76.5107 
Branch_type:  BRANCH_DIRECT_JUMP:  Total Count: 36224 65394 46140 86061 36094 65538 12898 740420 
Branch_type:  BRANCH_INDIRECT:  Total Count: 22335 12661 29763 35187 12140 10193 11161 230222 
Branch_type:  BRANCH_CONDITIONAL:  Total Count: 3239237 338298 201372 567300 250322 439149 114209 7268997 
Branch_type:  BRANCH_DIRECT_CALL:  Total Count: 15875 23134 13962 69490 60152 49087 15632 1625608 
Branch_type:  BRANCH_INDIRECT_CALL:  Total Count: 32446 0 10177 0 4379 5815 11191 277123 
Branch_type:  BRANCH_RETURN:  Total Count: 181951 27454 26633 81288 97689 77443 27793 1694590 
Number of unique branch instructions: 10054
Upper 32 bits: 
aaaa
ffff
ffff0000
Unique upper 32 bits: 3
Unique upper 36 bits: 3
Unique upper 40 bits: 5
Unique upper 44 bits: 32
Unique upper 48 bits: 157
Variant_0 : 977 0.318034
Variant_1 : 2088 0.679688
Variant_2 : 0 0
Variant_3 : 0 0
Offset_3 4136
Offset_4 251
Offset_5 460
Offset_6 515
Offset_7 583
Offset_8 514
Offset_9 482
Offset_10 381
Offset_11 314
Offset_12 272
Offset_13 215
Offset_14 229
Offset_15 192
Offset_16 224
Offset_17 151
Offset_18 126
Offset_19 240
Offset_20 140
Offset_21 241
Offset_22 397
Offset_23 241
Offset_24 333
Offset_25 88
Offset_47 82
Offset_64 1
decode_dispatch_called: 19577256 41.9114
Dispatch_width: 0 9550120 48.7817 20.4451
Dispatch_width: 1 538467 2.75047 1.15276
Dispatch_width: 2 640915 3.27377 1.37208
Dispatch_width: 3 433772 2.21569 0.928628
Dispatch_width: 4 1646082 8.40813 3.52396
Dispatch_width: 5 313580 1.60176 0.671318
Dispatch_width: 6 6454320 32.9685 13.8175
Empty_decode_cycles: 27133822 58.0886
ROB_full_cycles: 2324684 4.97673
Starvation_cycles_per_kilo_instr: 379.321
Starvation_cycles_per_kilo_instr_3: 359.724
Starvation_cycles_per_kilo_instr_0: 343.593
Branch_type_1  (3,1)  (4,9)  (5,37)  (6,71)  (7,114)  (8,130)  (9,127)  (10,99)  (11,70)  (12,43)  (13,5)  (14,2)  (15,3)  (16,4)  (18,1)  (19,4)  (20,2)  (21,1)  (22,3)  (23,2)  (24,10)  (25,12) 
Branch_type_2  (3,1)  (5,1)  (8,3)  (9,3)  (12,1)  (13,1)  (14,1)  (16,3)  (17,2)  (20,2)  (21,2)  (23,5)  (24,1)  (47,38) 
Branch_type_3  (3,4134)  (4,242)  (5,418)  (6,429)  (7,440)  (8,320)  (9,267)  (10,156)  (11,127)  (12,50)  (13,4)  (64,1) 
Branch_type_4  (6,3)  (7,8)  (8,25)  (9,52)  (10,60)  (11,59)  (12,97)  (13,95)  (14,101)  (15,90)  (16,100)  (17,67)  (18,57)  (19,118)  (20,73)  (21,127)  (22,211)  (23,136)  (24,194)  (25,72) 
Branch_type_5  (8,2)  (9,1)  (10,3)  (11,5)  (12,3)  (13,14)  (14,16)  (15,11)  (16,20)  (17,12)  (18,16)  (19,12)  (20,10)  (21,13)  (22,42)  (23,26)  (24,37) 
Branch_type_6  (5,4)  (6,12)  (7,21)  (8,34)  (9,32)  (10,63)  (11,53)  (12,78)  (13,96)  (14,109)  (15,88)  (16,97)  (17,70)  (18,52)  (19,106)  (20,53)  (21,98)  (22,141)  (23,72)  (24,91)  (25,4)  (47,44) 
Unique trigger count: 
Variant_0_evicts_0 : 0
Variant_0_evicts_1 : 0
Variant_0_evicts_2 : 0
Variant_0_evicts_3 : 0
Variant_1_evicts_0 : 0
Variant_1_evicts_1 : 0
Variant_1_evicts_2 : 0
Variant_1_evicts_3 : 0
Variant_2_evicts_0 : 0
Variant_2_evicts_1 : 0
Variant_2_evicts_2 : 0
Variant_2_evicts_3 : 0
Variant_3_evicts_0 : 0
Variant_3_evicts_1 : 0
Variant_3_evicts_2 : 0
Variant_3_evicts_3 : 0
BTB PER SET UNIQUE ADDR: 14 20 10 20 20 20 15 17 9 20 10 22 24 19 17 14 15 12 19 16 17 18 16 16 16 19 17 18 18 16 13 17 20 8 15 13 15 15 9 14 16 16 18 19 17 13 16 12 22 15 23 13 15 15 14 8 14 13 13 17 14 23 21 15 17 19 16 15 24 20 13 16 25 13 10 8 11 18 11 22 21 8 19 21 20 14 14 15 14 29 13 11 20 15 9 21 15 13 22 19 27 24 19 17 20 13 16 20 10 17 14 24 20 13 14 12 18 20 15 19 21 13 17 9 14 13 8 16 24 12 13 22 19 17 14 20 11 20 13 25 16 24 18 15 19 16 17 14 11 16 17 18 14 15 15 28 22 22 20 15 14 18 15 19 14 17 18 15 20 12 13 19 17 20 16 15 14 13 15 20 13 15 11 18 22 24 9 19 15 14 18 14 11 15 14 12 15 19 14 18 24 16 13 17 12 18 19 17 16 18 15 20 18 21 14 20 14 19 12 24 13 15 11 15 18 13 20 21 12 21 14 10 15 19 19 23 19 16 16 10 17 16 19 17 12 15 16 19 17 15 23 15 14 14 22 16 13 12 13 12 15 13 8 14 16 12 12 13 15 14 13 21 11 14 11 13 17 15 15 17 8 17 11 15 18 13 14 25 22 23 13 10 16 20 10 18 17 15 15 19 14 16 11 26 15 26 17 18 20 18 18 17 14 30 13 11 22 13 17 23 18 16 11 16 13 22 14 8 17 12 14 19 17 16 17 19 18 18 13 31 16 17 12 20 22 17 12 11 12 15 15 14 14 19 15 20 17 18 11 14 16 20 10 23 15 19 8 19 12 17 19 13 21 20 10 24 18 22 14 16 16 16 10 13 12 14 19 21 16 13 23 11 20 24 13 13 14 11 18 17 15 19 18 17 16 17 18 17 21 19 11 12 13 20 13 18 16 19 23 21 15 18 14 17 19 20 19 16 18 14 21 16 12 19 23 20 21 12 17 17 17 17 16 22 28 12 15 18 23 21 20 28 20 14 20 29 20 19 16 28 12 15 11 20 21 10 16 19 24 18 16 16 18 13 20 26 15 24 12 16 22 22 15 20 14 19 21 26 23 17 14 21 15 13 10 17 23 23 15 18 15 24 15 23 15 16 17 29 22 21 17 27 14 17 12 21 15 23 12 13 12 17 17 11 19 20 24 11 13 20 23 21 19 15 17 22 14 16 19 18 17 13 17 17 20 20 8 16 14 18 15 21 19 13 12 18 18 15 17 19 17 26 17 11 18 18 10 26 18 22 20 20 23 24 16 21 19 20 15 12 15 22 11 16 18 18 13 15 25 16 12 17 17 12 22 15 12 18 18 14 18 15 15 10 16 17 25 11 13 19 23 21 13 12 8 25 12 21 14 18 21 15 13 14 13 23 14 22 14 21 8 21 22 17 16 21 18 24 11 17 19 13 18 24 19 19 16 18 27 14 11 16 13 16 16 13 14 22 16 17 14 9 22 20 13 19 13 15 11 16 21 17 15 18 28 14 20 16 20 21 20 18 15 18 19 15 18 18 22 22 16 21 17 12 10 16 13 21 17 20 11 14 22 20 11 16 11 16 13 12 16 19 14 15 14 15 21 14 14 21 17 15 17 15 15 14 18 14 16 14 22 16 18 14 12 14 20 19 28 15 16 12 15 14 20 19 16 16 17 10 18 16 16 12 13 16 21 16 10 9 14 10 11 18 17 21 13 19 13 23 17 20 14 16 15 10 20 16 18 21 13 19 21 13 15 18 12 20 11 11 11 8 20 21 18 25 15 11 24 16 23 18 25 21 24 16 18 12 18 13 19 24 25 24 16 21 24 23 10 24 18 16 11 16 21 14 11 15 17 20 19 17 18 19 9 23 18 19 21 15 21 16 14 13 16 20 16 21 16 18 17 15 13 17 18 23 22 19 22 19 17 17 13 14 22 12 19 15 21 13 16 17 21 16 19 6 17 13 14 18 21 7 17 20 16 18 20 16 19 17 21 13 16 12 15 17 22 16 12 15 17 16 15 18 11 19 16 19 13 24 17 17 16 16 14 16 29 18 17 17 21 19 12 17 16 14 9 18 17 14 21 23 21 12 13 21 17 12 20 15 11 21 17 16 16 19 18 20 12 15 13 19 15 19 15 15 19 19 18 14 23 17 19 20 25 17 19 20 11 15 17 20 20 15 18 16 20 21 23 26 17 23 22 17 17 21 29 15 19 18 19 21 22 16 17 14 15 16 17 16 22 22 14 19 18 20 9 24 17 19 17 17 18 13 13 14 11 15 10 12 19 27 12 12 
BTB PER SET COUNT: 1641 1173 2280 1034 1974 1446 2146 761 1754 1334 476 1215 1506 1323 1083 528 1047 3202 1337 845 1335 1424 891 1169 833 1787 715 1179 1660 1440 460 1025 1205 161 1078 1063 1021 913 628 1532 787 1074 1040 1728 2053 658 1003 932 1764 730 1682 982 880 1223 1325 299 497 931 766 1144 789 2661 1603 1011 1381 2106 742 1695 1777 1845 1359 1286 1907 1007 420 614 491 1612 750 1425 2027 185 1671 1407 1081 643 497 1486 1947 2659 598 661 1333 969 300 1378 694 543 1373 3314 2564 1798 1106 814 2650 413 1404 1212 2383 828 1004 1938 2314 954 1092 892 1278 1387 1468 1836 1702 939 1402 458 571 500 429 1719 2217 1363 933 2270 1296 1036 1256 1504 898 1183 584 1598 1068 1692 1345 866 1126 928 1274 646 468 1349 1173 1049 1511 782 600 2509 2184 1359 1196 1441 586 1374 1279 999 774 1763 825 601 1435 1990 450 988 1245 928 1427 681 606 665 1554 2226 1169 661 634 1257 1676 1971 259 1066 1332 1151 1410 693 377 1463 765 542 785 2076 757 788 1595 974 1773 918 683 1462 1090 1033 1079 2023 1259 1145 689 4665 1118 1555 839 1755 735 1648 583 980 654 813 989 1144 833 1616 680 1740 760 407 700 1235 1514 11832 1032 1104 1459 524 1077 1271 2090 1550 998 907 818 1493 961 1293 1348 560 542 541 1628 1331 716 935 856 661 1096 595 262 1403 985 330 656 930 1000 943 666 1133 279 571 675 886 1184 753 1060 1486 140 1427 961 1361 1258 1016 448 1512 1507 1225 961 379 467 1815 515 1019 1649 710 857 1456 481 818 353 1969 999 1721 1021 1668 1712 1088 1397 1022 620 2038 2333 1347 1474 893 1484 2081 1075 2768 447 840 405 1870 763 460 1189 329 760 1974 1350 533 895 1762 941 1367 789 2818 735 1809 925 1499 1662 1150 576 869 639 1411 816 1119 598 1576 555 1066 908 1484 607 678 896 1429 768 2045 705 1970 291 1180 757 1251 2225 752 1251 1965 193 1454 820 1476 847 1746 1597 1129 251 423 642 607 1529 1779 660 661 1942 375 1499 1720 446 540 850 897 1403 2058 1285 951 1744 1154 990 1367 877 1336 870 1933 557 300 627 1500 761 854 1045 4116 1913 1206 724 916 1320 1380 929 1301 1676 1106 1158 610 1972 590 339 1436 2038 1706 1312 705 1082 851 1643 1314 928 1853 2401 937 1559 1322 1935 1343 1557 2784 1427 940 1752 2314 1362 956 633 2019 827 1120 579 1190 1510 687 8950 1026 1675 1292 1162 1027 848 768 1205 1854 1011 2197 758 750 1970 1892 996 1060 1627 1112 1547 1941 2245 1069 1276 1564 4423 680 252 1233 2207 1613 1023 910 761 1624 927 1697 1295 603 837 2337 1958 1128 1365 3114 1525 1529 510 1684 664 1657 511 311 519 1087 880 454 1389 1965 1779 1006 958 3523 2210 1356 1274 806 1200 1774 700 2050 1471 1567 879 661 905 1125 1009 1609 94 1388 856 1666 719 1446 1185 644 930 478 1129 752 1074 1592 658 1856 705 816 1816 859 629 1919 1468 1749 1898 1633 1483 1606 1082 1464 1287 1495 880 673 726 1542 514 2529 972 1461 518 762 2430 817 763 1415 1047 571 1255 883 258 1417 1321 710 689 1100 1249 734 1047 1154 1995 2028 435 1034 1789 1966 759 445 210 1919 412 1559 1725 1050 2055 865 506 776 716 1597 880 2019 745 1632 230 1574 1905 1114 772 1371 1583 1129 687 1027 1557 778 1267 1579 1957 1601 812 1566 2634 735 606 1090 453 1066 2158 713 1083 1576 837 956 1297 277 1393 1448 7625 1048 980 1323 1303 1307 1190 838 1598 1396 2313 1855 1509 905 1209 2211 1347 1324 1357 1133 2282 882 1287 1174 1638 2141 659 1924 1195 656 319 929 989 2837 1180 1387 668 1002 2157 1541 711 1154 620 965 443 848 883 1323 1355 1035 972 936 2072 886 792 1875 1468 1331 726 1073 686 834 933 1136 949 1806 1773 1196 1066 1064 696 2627 1556 1499 2654 567 1340 198 995 827 1694 1494 1379 773 1465 709 1785 856 1528 799 741 956 1450 1651 730 318 1123 505 251 1466 1510 1837 633 1611 297 1580 964 1639 746 1189 1102 629 1530 1663 687 1781 2447 1332 1724 684 1035 1263 790 1237 515 386 628 943 1494 1394 1073 2131 937 483 1226 1334 2086 869 2206 1987 1588 876 1621 763 1376 1016 919 3413 1955 1862 1053 2240 1361 2893 617 2599 1159 1689 719 1080 2133 722 638 906 1066 2142 1204 1314 1189 1462 369 2394 1150 954 1325 612 1511 1057 834 743 761 1016 1152 1345 999 4600 1589 1035 433 896 1402 1925 1587 1550 1866 1140 1562 726 868 665 1965 354 1104 677 1345 810 1252 1179 1328 966 1044 6 1103 811 2521 1339 1766 107 992 1059 1138 1542 670 1076 1142 1477 1878 1277 2533 417 740 1187 2039 800 866 1026 1348 972 906 1912 712 1493 953 1908 894 1485 1265 1615 1009 1525 926 1395 3466 1579 1077 1047 1270 1609 237 1458 839 1127 60 1354 935 737 1742 1622 967 693 805 2402 1304 842 1403 1389 550 2250 1558 1145 1096 1448 1125 1716 787 897 754 1678 1670 2193 927 908 1208 1282 1426 668 1548 1245 1315 1109 1912 725 1971 1824 472 926 917 1914 1182 646 1154 1199 1538 1362 1599 2577 1198 1973 1779 1261 986 1629 2771 1035 1478 1693 1029 2903 1705 1578 1179 883 1005 2382 1002 1190 1498 2166 1273 1554 873 1311 357 1913 1415 805 1651 1764 1045 1019 719 820 838 1014 356 381 947 2833 474 753 
To predecode: 0
Predecoding something: 0
Predecode request dropped: 0
sizeofblock_0 0
sizeofblock_1 296710
sizeofblock_2 546862
sizeofblock_3 0
sizeofblock_4 0
sizeofblock_5 0
sizeofblock_6 0
sizeofblock_7 0
sizeofblock_8 0
Variant_0 Correct: 1219253 Incorrect: 0 Accuracy: 1
Variant_1 Correct: 4950269 Incorrect: 0 Accuracy: 1
Variant_2 Correct: 0 Incorrect: 0 Accuracy: -nan
Variant_3 Correct: 0 Incorrect: 0 Accuracy: -nan
