
*** ChampSim Multicore Out-of-Order Simulator ***

Warmup Instructions: 50000000
Simulation Instructions: 50000000
Number of CPUs: 1
LLC sets: 2048
LLC ways: 16
Off-chip DRAM Size: 4096 MB Channels: 1 Width: 64-bit Data Rate: 6400 MT/s
CPU 0 runs ./micro_traces/srv563.trace.gz
.gz
ITLB has LRU replacement policy
DTLB has LRU replacement policy
STLB has LRU replacement policy
FDIP Prefetcher at L1I
L1I has LRU replacement policy
L1D has LRU replacement policy
Initialize SRRIP state for L2C
Initialize DRRIP state for LLC
Heartbeat_Variant_0 : 1064 0.259766 per_variant_size: 0 1064 0 0 0 0 0 0 0 
Heartbeat_Variant_1 : 1235 0.301514 per_variant_size: 0 901 334 0 0 0 0 0 0 
Heartbeat_Variant_2 : 1467 0.358154 per_variant_size: 0 892 398 123 54 0 0 0 0 
Heartbeat_Variant_3 : 0 0 per_variant_size: 0 0 0 0 0 0 0 0 0 
Heartbeat_Variant_0_evicts 0 : 13701 1 : 10015 2 : 12141 3 : 0 
Heartbeat_Variant_1_evicts 0 : 9906 1 : 0 2 : 11836 3 : 0 
Heartbeat_Variant_2_evicts 0 : 12155 1 : 11716 2 : 0 3 : 0 
Heartbeat_Variant_3_evicts 0 : 0 1 : 0 2 : 0 3 : 0 
Heartbeat CPU 0 instructions: 10000000 cycles: 2797912 heartbeat IPC: 3.57409 cumulative IPC: 3.57409 (Simulation time: 0 hr 2 min 31 sec) 
Heartbeat_Variant_0 : 1063 0.259521 per_variant_size: 0 1063 0 0 0 0 0 0 0 
Heartbeat_Variant_1 : 1193 0.29126 per_variant_size: 0 844 349 0 0 0 0 0 0 
Heartbeat_Variant_2 : 1539 0.375732 per_variant_size: 0 912 445 126 56 0 0 0 0 
Heartbeat_Variant_3 : 0 0 per_variant_size: 0 0 0 0 0 0 0 0 0 
Heartbeat_Variant_0_evicts 0 : 13651 1 : 10071 2 : 12005 3 : 0 
Heartbeat_Variant_1_evicts 0 : 10060 1 : 0 2 : 11167 3 : 0 
Heartbeat_Variant_2_evicts 0 : 12019 1 : 11207 2 : 0 3 : 0 
Heartbeat_Variant_3_evicts 0 : 0 1 : 0 2 : 0 3 : 0 
Heartbeat CPU 0 instructions: 20000000 cycles: 5594870 heartbeat IPC: 3.57531 cumulative IPC: 3.5747 (Simulation time: 0 hr 4 min 36 sec) 
Heartbeat_Variant_0 : 1051 0.256592 per_variant_size: 0 1051 0 0 0 0 0 0 0 
Heartbeat_Variant_1 : 1247 0.304443 per_variant_size: 0 890 357 0 0 0 0 0 0 
Heartbeat_Variant_2 : 1542 0.376465 per_variant_size: 0 916 423 141 62 0 0 0 0 
Heartbeat_Variant_3 : 0 0 per_variant_size: 0 0 0 0 0 0 0 0 0 
Heartbeat_Variant_0_evicts 0 : 13483 1 : 9904 2 : 11893 3 : 0 
Heartbeat_Variant_1_evicts 0 : 9933 1 : 0 2 : 11679 3 : 0 
Heartbeat_Variant_2_evicts 0 : 11887 1 : 11670 2 : 0 3 : 0 
Heartbeat_Variant_3_evicts 0 : 0 1 : 0 2 : 0 3 : 0 
Heartbeat CPU 0 instructions: 30000002 cycles: 8391759 heartbeat IPC: 3.5754 cumulative IPC: 3.57494 (Simulation time: 0 hr 6 min 43 sec) 
Heartbeat_Variant_0 : 1059 0.258545 per_variant_size: 0 1059 0 0 0 0 0 0 0 
Heartbeat_Variant_1 : 1228 0.299805 per_variant_size: 0 856 372 0 0 0 0 0 0 
Heartbeat_Variant_2 : 1557 0.380127 per_variant_size: 0 921 438 140 58 0 0 0 0 
Heartbeat_Variant_3 : 0 0 per_variant_size: 0 0 0 0 0 0 0 0 0 
Heartbeat_Variant_0_evicts 0 : 13744 1 : 9868 2 : 11807 3 : 0 
Heartbeat_Variant_1_evicts 0 : 9849 1 : 0 2 : 11371 3 : 0 
Heartbeat_Variant_2_evicts 0 : 11818 1 : 11374 2 : 0 3 : 0 
Heartbeat_Variant_3_evicts 0 : 0 1 : 0 2 : 0 3 : 0 
Heartbeat CPU 0 instructions: 40000000 cycles: 11188048 heartbeat IPC: 3.57617 cumulative IPC: 3.57524 (Simulation time: 0 hr 8 min 44 sec) 
Heartbeat_Variant_0 : 1066 0.260254 per_variant_size: 0 1066 0 0 0 0 0 0 0 
Heartbeat_Variant_1 : 1230 0.300293 per_variant_size: 0 848 382 0 0 0 0 0 0 
Heartbeat_Variant_2 : 1552 0.378906 per_variant_size: 0 918 436 140 58 0 0 0 0 
Heartbeat_Variant_3 : 0 0 per_variant_size: 0 0 0 0 0 0 0 0 0 
Heartbeat_Variant_0_evicts 0 : 13709 1 : 10116 2 : 11763 3 : 0 
Heartbeat_Variant_1_evicts 0 : 10056 1 : 0 2 : 11453 3 : 0 
Heartbeat_Variant_2_evicts 0 : 11816 1 : 11392 2 : 0 3 : 0 
Heartbeat_Variant_3_evicts 0 : 0 1 : 0 2 : 0 3 : 0 
Heartbeat CPU 0 instructions: 50000003 cycles: 13984263 heartbeat IPC: 3.57626 cumulative IPC: 3.57545 (Simulation time: 0 hr 11 min 0 sec) 

Warmup complete CPU 0 instructions: 50000003 cycles: 13984263 (Simulation time: 0 hr 11 min 0 sec) 

Cycle: 20000000 FTQ IN: 56667462 FTQ occupancy: 17.9031 DECODE IN: 56667407 DECODE occupancy: 45.8315 ROB IN: 56667407 ROB occupancy: 278.021 ROB OUT: 56667275
Heartbeat_Variant_0 : 1072 0.261719 per_variant_size: 0 1072 0 0 0 0 0 0 0 
Heartbeat_Variant_1 : 1245 0.303955 per_variant_size: 0 866 379 0 0 0 0 0 0 
Heartbeat_Variant_2 : 1533 0.374268 per_variant_size: 0 904 426 143 60 0 0 0 0 
Heartbeat_Variant_3 : 0 0 per_variant_size: 0 0 0 0 0 0 0 0 0 
Heartbeat_Variant_0_evicts 0 : 13691 1 : 9839 2 : 11845 3 : 0 
Heartbeat_Variant_1_evicts 0 : 9774 1 : 0 2 : 11530 3 : 0 
Heartbeat_Variant_2_evicts 0 : 11904 1 : 11451 2 : 0 3 : 0 
Heartbeat_Variant_3_evicts 0 : 0 1 : 0 2 : 0 3 : 0 
Heartbeat CPU 0 instructions: 60000000 cycles: 23131437 heartbeat IPC: 1.09323 cumulative IPC: 1.09323 (Simulation time: 0 hr 12 min 44 sec) 
Cycle: 30000000 FTQ IN: 10918859 FTQ occupancy: 6.20454 DECODE IN: 10918900 DECODE occupancy: 12.9569 ROB IN: 10918900 ROB occupancy: 113.437 ROB OUT: 10919012
Heartbeat_Variant_0 : 1077 0.262939 per_variant_size: 0 1077 0 0 0 0 0 0 0 
Heartbeat_Variant_1 : 1236 0.301758 per_variant_size: 0 852 384 0 0 0 0 0 0 
Heartbeat_Variant_2 : 1543 0.376709 per_variant_size: 0 896 436 144 67 0 0 0 0 
Heartbeat_Variant_3 : 0 0 per_variant_size: 0 0 0 0 0 0 0 0 0 
Heartbeat_Variant_0_evicts 0 : 13808 1 : 9965 2 : 11608 3 : 0 
Heartbeat_Variant_1_evicts 0 : 9889 1 : 0 2 : 11393 3 : 0 
Heartbeat_Variant_2_evicts 0 : 11680 1 : 11328 2 : 0 3 : 0 
Heartbeat_Variant_3_evicts 0 : 0 1 : 0 2 : 0 3 : 0 
Heartbeat CPU 0 instructions: 70000003 cycles: 32191516 heartbeat IPC: 1.10374 cumulative IPC: 1.09846 (Simulation time: 0 hr 14 min 28 sec) 
Cycle: 40000000 FTQ IN: 11052916 FTQ occupancy: 6.03651 DECODE IN: 11052930 DECODE occupancy: 12.7211 ROB IN: 11052930 ROB occupancy: 113.309 ROB OUT: 11052650
Heartbeat_Variant_0 : 1059 0.258545 per_variant_size: 0 1059 0 0 0 0 0 0 0 
Heartbeat_Variant_1 : 1253 0.305908 per_variant_size: 0 861 392 0 0 0 0 0 0 
Heartbeat_Variant_2 : 1545 0.377197 per_variant_size: 0 902 429 151 63 0 0 0 0 
Heartbeat_Variant_3 : 0 0 per_variant_size: 0 0 0 0 0 0 0 0 0 
Heartbeat_Variant_0_evicts 0 : 13861 1 : 9779 2 : 12076 3 : 0 
Heartbeat_Variant_1_evicts 0 : 9800 1 : 0 2 : 11639 3 : 0 
Heartbeat_Variant_2_evicts 0 : 12073 1 : 11643 2 : 0 3 : 0 
Heartbeat_Variant_3_evicts 0 : 0 1 : 0 2 : 0 3 : 0 
Heartbeat CPU 0 instructions: 80000003 cycles: 41357383 heartbeat IPC: 1.091 cumulative IPC: 1.09597 (Simulation time: 0 hr 16 min 13 sec) 
Cycle: 50000000 FTQ IN: 10888045 FTQ occupancy: 6.15644 DECODE IN: 10888018 DECODE occupancy: 12.8961 ROB IN: 10888018 ROB occupancy: 113.15 ROB OUT: 10888301
Heartbeat_Variant_0 : 1051 0.256592 per_variant_size: 0 1051 0 0 0 0 0 0 0 
Heartbeat_Variant_1 : 1230 0.300293 per_variant_size: 0 855 375 0 0 0 0 0 0 
Heartbeat_Variant_2 : 1576 0.384766 per_variant_size: 0 945 422 146 63 0 0 0 0 
Heartbeat_Variant_3 : 0 0 per_variant_size: 0 0 0 0 0 0 0 0 0 
Heartbeat_Variant_0_evicts 0 : 14123 1 : 9830 2 : 12036 3 : 0 
Heartbeat_Variant_1_evicts 0 : 9761 1 : 0 2 : 11653 3 : 0 
Heartbeat_Variant_2_evicts 0 : 12113 1 : 11607 2 : 0 3 : 0 
Heartbeat_Variant_3_evicts 0 : 0 1 : 0 2 : 0 3 : 0 
Heartbeat CPU 0 instructions: 90000000 cycles: 50428531 heartbeat IPC: 1.1024 cumulative IPC: 1.09757 (Simulation time: 0 hr 17 min 49 sec) 
Heartbeat_Variant_0 : 1061 0.259033 per_variant_size: 0 1061 0 0 0 0 0 0 0 
Heartbeat_Variant_1 : 1233 0.301025 per_variant_size: 0 842 391 0 0 0 0 0 0 
Heartbeat_Variant_2 : 1577 0.38501 per_variant_size: 0 940 427 140 70 0 0 0 0 
Heartbeat_Variant_3 : 0 0 per_variant_size: 0 0 0 0 0 0 0 0 0 
Heartbeat_Variant_0_evicts 0 : 13760 1 : 9930 2 : 12204 3 : 0 
Heartbeat_Variant_1_evicts 0 : 9936 1 : 0 2 : 11570 3 : 0 
Heartbeat_Variant_2_evicts 0 : 12189 1 : 11580 2 : 0 3 : 0 
Heartbeat_Variant_3_evicts 0 : 0 1 : 0 2 : 0 3 : 0 
Heartbeat CPU 0 instructions: 100000000 cycles: 59523199 heartbeat IPC: 1.09955 cumulative IPC: 1.09796 (Simulation time: 0 hr 19 min 48 sec) 
Finished CPU 0 instructions: 50000001 cycles: 45538962 cumulative IPC: 1.09796 (Simulation time: 0 hr 19 min 48 sec) 

ChampSim completed all CPUs

Region of Interest Statistics

CPU 0 cumulative IPC: 1.09796 instructions: 50000001 cycles: 45538962
 Fetch stage stalled: 72.5206  Sim cycles: 45538962 fetch stall cycle: 33025133
 Empty decode stage: 64.5034  Sim cycles: 45538962 fetch stall cycle: 29374162
ITLB TOTAL     ACCESS:    5716746  HIT:    5222725  MISS:     494021  HIT %:    91.3584  MISS %:    8.64165   MPKI: 9.88042
ITLB LOAD TRANSLATION INSTRUCTION	ACCESS:    5611007  HIT:    5116986  MISS:     494021  HIT %:    91.1955  MISS %:     8.8045  MPKI: 9.88042
ITLB TRANSLATION FROM L1D PREFETCHER INSTRUCTION	ACCESS:     105739  HIT:     105739  MISS:          0  HIT %:        100  MISS %:          0  MPKI: 0

ITLB AVERAGE MISS LATENCY: 9.04157 cycles
ITLB RQ	ACCESS:    7514478	FORWARD:          0	MERGED:    1358457	TO_CACHE:    6156021

DTLB TOTAL     ACCESS:    9384376  HIT:    8910688  MISS:     473688  HIT %:    94.9524  MISS %:    5.04762   MPKI: 9.47376
DTLB LOAD TRANSLATION DATA	ACCESS:    9384376  HIT:    8910688  MISS:     473688  HIT %:    94.9524  MISS %:    5.04762  MPKI: 9.47376

DTLB AVERAGE MISS LATENCY: 9.31682 cycles
DTLB RQ	ACCESS:   13659511	FORWARD:          0	MERGED:    4241163	TO_CACHE:    9418348

STLB TOTAL     ACCESS:    1218017  HIT:    1215968  MISS:       2049  HIT %:    99.8318  MISS %:   0.168224   MPKI: 0.04098
STLB LOAD TRANSLATION INSTRUCTION	ACCESS:     494021  HIT:     493770  MISS:        251  HIT %:    99.9492  MISS %:  0.0508076  MPKI: 0.00502
STLB LOAD TRANSLATION DATA	ACCESS:     473399  HIT:     471632  MISS:       1767  HIT %:    99.6267  MISS %:   0.373258  MPKI: 0.03534
STLB TRANSLATION FROM L1D PREFETCHER DATA	ACCESS:     250597  HIT:     250566  MISS:         31  HIT %:    99.9876  MISS %:  0.0123705  MPKI: 0.00062

STLB AVERAGE MISS LATENCY: 71.2143 cycles
STLB RQ	ACCESS:    1338449	FORWARD:          0	MERGED:     120392	TO_CACHE:    1218057

STLB Hit, L1D data hit: 0
STLB Hit, L2C data hit: 0
STLB Hit, LLC data hit: 0
STLB Hit, LLC data miss: 0
STLB STLB hints to L2: 0
L1D TOTAL     ACCESS:   13429232  HIT:   12311579  MISS:    1117653  HIT %:    91.6775  MISS %:    8.32254   MPKI: 22.3531
L1D LOAD DATA	ACCESS:    6847974  HIT:    6113130  MISS:     734844  HIT %:    89.2692  MISS %:    10.7308  MPKI: 14.6969
L1D RFO DATA	ACCESS:    6252410  HIT:    5964426  MISS:     287984  HIT %:     95.394  MISS %:    4.60597  MPKI: 5.75968
L1D PREFETCH DATA	ACCESS:     328848  HIT:     234023  MISS:      94825  HIT %:    71.1645  MISS %:    28.8355  MPKI: 1.8965

L1D PREFETCH  REQUESTED:     741750  ISSUED:     741750  USEFUL:      35199  USELESS:      68093
L1D USEFUL LOAD PREFETCHES:      35199 PREFETCH ISSUED TO LOWER LEVEL:     103358  ACCURACY: 34.0554
 TIMELY PREFETCHES:      35199 LATE PREFETCHES: 8423 DROPPED PREFETCHES: 8
L1D AVERAGE MISS LATENCY: 282322 cycles
L1D RQ	ACCESS:   10923497	FORWARD:          0	MERGED:    3881035	TO_CACHE:    6878352
L1D WQ	ACCESS:    6950443	FORWARD:     164380	MERGED:     169284	TO_CACHE:    6781159
L1D PQ	ACCESS:     371010	FORWARD:          0	MERGED:          0	TO_CACHE:     370740

L1D UNIQUE REGIONS ACCESSED: 0
L1D REGIONS CONFLICTS: 0
L1D Cross Page Prefetch Requests: 6977
L1D Same Page Prefetch Requests: 750268
L1D ROI Sum of L1D PQ occupancy: 4707431
L1D PREFETCHES PUSHED FROM L2C: 0
L1I TOTAL     ACCESS:    7003085  HIT:    4238717  MISS:    2764368  HIT %:    60.5264  MISS %:    39.4736   MPKI: 55.2874
L1I LOAD INSTRUCTION	ACCESS:    6522209  HIT:    3757841  MISS:    2764368  HIT %:    57.6161  MISS %:    42.3839  MPKI: 55.2874
L1I PREFETCH INSTRUCTION	ACCESS:     480876  HIT:     480876  MISS:          0  HIT %:        100  MISS %:          0  MPKI: 0

L1I PREFETCH  REQUESTED:    1064858  ISSUED:    1064858  USEFUL:          0  USELESS:          0
L1I USEFUL LOAD PREFETCHES:          0 PREFETCH ISSUED TO LOWER LEVEL:          0  ACCURACY: -nan
 TIMELY PREFETCHES:          0 LATE PREFETCHES: 0 DROPPED PREFETCHES: 0
L1I AVERAGE MISS LATENCY: 16.995 cycles
L1I RQ	ACCESS:    9433675	FORWARD:          0	MERGED:    2676187	TO_CACHE:    6757488
L1I PQ	ACCESS:    1064858	FORWARD:          0	MERGED:     307868	TO_CACHE:     756990

L1BTB TOTAL     ACCESS:    5669638  HIT:    2040633  MISS:    3629005  HIT %:    35.9923  MISS %:    64.0077   MPKI: 72.5801
L1BTB BRANCH_DIRECT_JUMP	ACCESS:     548587  HIT:     144270  MISS:     404317	AVERAGE STALL: 34.5453
L1BTB BRANCH_INDIRECT	ACCESS:     182965  HIT:      66048  MISS:     116917	AVERAGE STALL: 85.4185
L1BTB BRANCH_CONDITIONAL	ACCESS:    2710143  HIT:    1416810  MISS:    1293333	AVERAGE STALL: 35.5416
L1BTB BRANCH_DIRECT_CALL	ACCESS:     942631  HIT:     104141  MISS:     838490	AVERAGE STALL: 36.0591
L1BTB BRANCH_INDIRECT_CALL	ACCESS:     171337  HIT:      20857  MISS:     150480	AVERAGE STALL: 109.72
L1BTB BRANCH_RETURN	ACCESS:    1113975  HIT:     288507  MISS:     825468	AVERAGE STALL: 36.0419
L1BTB BRANCH_OTHER ACCESS:          0  HIT:          0  MISS:          0	AVERAGE STALL: -nan
L1BTB TOTAL ROB OCCUPANCY AT BTB MISS: 12.9376

L2BTB TOTAL     ACCESS:    3603547  HIT:    3112848  MISS:     490699  HIT %:    86.3829  MISS %:    13.6171   MPKI: 9.81398
L2BTB BRANCH_DIRECT_JUMP	ACCESS:     400140  HIT:     349476  MISS:      50664	AVERAGE STALL: 34.5453
L2BTB BRANCH_INDIRECT	ACCESS:     106614  HIT:      97904  MISS:       8710	AVERAGE STALL: 85.4185
L2BTB BRANCH_CONDITIONAL	ACCESS:    1293333  HIT:    1152027  MISS:     141306	AVERAGE STALL: 35.5416
L2BTB BRANCH_DIRECT_CALL	ACCESS:     838490  HIT:     679686  MISS:     158804	AVERAGE STALL: 36.0591
L2BTB BRANCH_INDIRECT_CALL	ACCESS:     140918  HIT:     106911  MISS:      34007	AVERAGE STALL: 109.72
L2BTB BRANCH_RETURN	ACCESS:     824052  HIT:     726844  MISS:      97208	AVERAGE STALL: 36.0419
L2BTB BRANCH_OTHER ACCESS:          0  HIT:          0  MISS:          0	AVERAGE STALL: -nan
L2BTB TOTAL ROB OCCUPANCY AT BTB MISS: 95.6811

L2C TOTAL     ACCESS:    4487899  HIT:    4027766  MISS:     460133  HIT %:    89.7473  MISS %:    10.2527   MPKI: 9.20266
L2C LOAD INSTRUCTION	ACCESS:    2764368  HIT:    2521104  MISS:     243264  HIT %:       91.2  MISS %:    8.79999  MPKI: 4.86528
L2C LOAD TRANSLATION INSTRUCTION	ACCESS:        285  HIT:         73  MISS:        212  HIT %:     25.614  MISS %:     74.386  MPKI: 0.00424
L2C LOAD DATA	ACCESS:     726377  HIT:     650680  MISS:      75697  HIT %:    89.5788  MISS %:    10.4212  MPKI: 1.51394
L2C RFO DATA	ACCESS:     287855  HIT:     235465  MISS:      52390  HIT %:    81.7999  MISS %:    18.2001  MPKI: 1.0478
L2C PREFETCH DATA	ACCESS:     184907  HIT:     111158  MISS:      73749  HIT %:    60.1156  MISS %:    39.8844  MPKI: 1.47498
L2C WRITEBACK DATA	ACCESS:     522215  HIT:     508751  MISS:      13464  HIT %:    97.4218  MISS %:    2.57825  MPKI: 0.26928
L2C LOAD TRANSLATION DATA	ACCESS:       1834  HIT:        496  MISS:       1338  HIT %:    27.0447  MISS %:    72.9553  MPKI: 0.02676
L2C TRANSLATION FROM L1D PREFETCHER DATA	ACCESS:         58  HIT:         39  MISS:         19  HIT %:    67.2414  MISS %:    32.7586  MPKI: 0.00038

L2C PREFETCH  REQUESTED:      90113  ISSUED:      90113  USEFUL:       7872  USELESS:      65991
L2C USEFUL LOAD PREFETCHES:       7872 PREFETCH ISSUED TO LOWER LEVEL:      74285  ACCURACY: 10.597
 TIMELY PREFETCHES:       7872 LATE PREFETCHES: 536 DROPPED PREFETCHES: 0
L2C AVERAGE MISS LATENCY: 39.3654 cycles
L2C RQ	ACCESS:    3780841	FORWARD:          0	MERGED:          0	TO_CACHE:    3780778
L2C WQ	ACCESS:     522215	FORWARD:         64	MERGED:          0	TO_CACHE:     522215
L2C PQ	ACCESS:     193471	FORWARD:          0	MERGED:       3770	TO_CACHE:     189700

L2C Dense regions hint from L2: 0
PSCL5 TOTAL     ACCESS:       4126  HIT:       2063  MISS:       2063  HIT %:         50  MISS %:         50   MPKI: 0.04126
PSCL5 LOAD TRANSLATION INSTRUCTION	ACCESS:       4010  HIT:       2005  MISS:       2005  HIT %:         50  MISS %:         50  MPKI: 0.0401
PSCL5 TRANSLATION FROM L1D PREFETCHER INSTRUCTION	ACCESS:        116  HIT:         58  MISS:         58  HIT %:         50  MISS %:         50  MPKI: 0.00116


PSCL4 TOTAL     ACCESS:       3942  HIT:       1966  MISS:       1976  HIT %:    49.8732  MISS %:    50.1268   MPKI: 0.03952
PSCL4 LOAD TRANSLATION INSTRUCTION	ACCESS:       2355  HIT:       1915  MISS:        440  HIT %:    81.3163  MISS %:    18.6837  MPKI: 0.0088
PSCL4 TRANSLATION FROM L1D PREFETCHER INSTRUCTION	ACCESS:         56  HIT:         51  MISS:          5  HIT %:    91.0714  MISS %:    8.92857  MPKI: 0.0001
PSCL4 LOAD TRANSLATION DATA	ACCESS:       1485  HIT:          0  MISS:       1485  HIT %:          0  MISS %:        100  MPKI: 0.0297
PSCL4 TRANSLATION FROM L1D PREFETCHER DATA	ACCESS:         46  HIT:          0  MISS:         46  HIT %:          0  MISS %:        100  MPKI: 0.00092


PSCL3 TOTAL     ACCESS:       4012  HIT:       2001  MISS:       2011  HIT %:    49.8754  MISS %:    50.1246   MPKI: 0.04022
PSCL3 LOAD TRANSLATION INSTRUCTION	ACCESS:       2390  HIT:       1950  MISS:        440  HIT %:      81.59  MISS %:      18.41  MPKI: 0.0088
PSCL3 TRANSLATION FROM L1D PREFETCHER INSTRUCTION	ACCESS:         56  HIT:         51  MISS:          5  HIT %:    91.0714  MISS %:    8.92857  MPKI: 0.0001
PSCL3 LOAD TRANSLATION DATA	ACCESS:       1520  HIT:          0  MISS:       1520  HIT %:          0  MISS %:        100  MPKI: 0.0304
PSCL3 TRANSLATION FROM L1D PREFETCHER DATA	ACCESS:         46  HIT:          0  MISS:         46  HIT %:          0  MISS %:        100  MPKI: 0.00092


PSCL2 TOTAL     ACCESS:       4031  HIT:       1968  MISS:       2063  HIT %:    48.8216  MISS %:    51.1784   MPKI: 0.04126
PSCL2 LOAD TRANSLATION INSTRUCTION	ACCESS:       2161  HIT:       1910  MISS:        251  HIT %:     88.385  MISS %:     11.615  MPKI: 0.00502
PSCL2 TRANSLATION FROM L1D PREFETCHER INSTRUCTION	ACCESS:         58  HIT:         58  MISS:          0  HIT %:        100  MISS %:          0  MPKI: 0
PSCL2 LOAD TRANSLATION DATA	ACCESS:       1754  HIT:          0  MISS:       1754  HIT %:          0  MISS %:        100  MPKI: 0.03508
PSCL2 TRANSLATION FROM L1D PREFETCHER DATA	ACCESS:         58  HIT:          0  MISS:         58  HIT %:          0  MISS %:        100  MPKI: 0.00116


LLC TOTAL     ACCESS:     520763  HIT:     490977  MISS:      29786  HIT %:    94.2803  MISS %:    5.71968   MPKI: 0.59572
LLC LOAD INSTRUCTION	ACCESS:     243264  HIT:     242447  MISS:        817  HIT %:    99.6642  MISS %:   0.335849  MPKI: 0.01634
LLC LOAD TRANSLATION INSTRUCTION	ACCESS:        212  HIT:        187  MISS:         25  HIT %:    88.2075  MISS %:    11.7925  MPKI: 0.0005
LLC LOAD DATA	ACCESS:      75188  HIT:      71718  MISS:       3470  HIT %:    95.3849  MISS %:     4.6151  MPKI: 0.0694
LLC RFO DATA	ACCESS:      52360  HIT:      36941  MISS:      15419  HIT %:    70.5519  MISS %:    29.4481  MPKI: 0.30838
LLC PREFETCH DATA	ACCESS:      74285  HIT:      64701  MISS:       9584  HIT %:    87.0983  MISS %:    12.9017  MPKI: 0.19168
LLC WRITEBACK DATA	ACCESS:      74097  HIT:      73697  MISS:        400  HIT %:    99.4602  MISS %:   0.539833  MPKI: 0.008
LLC LOAD TRANSLATION DATA	ACCESS:       1338  HIT:       1267  MISS:         71  HIT %:    94.6936  MISS %:    5.30643  MPKI: 0.00142
LLC TRANSLATION FROM L1D PREFETCHER DATA	ACCESS:         19  HIT:         19  MISS:          0  HIT %:        100  MISS %:          0  MPKI: 0

LLC AVERAGE MISS LATENCY: 156.826 cycles
LLC RQ	ACCESS:     372384	FORWARD:          0	MERGED:          0	TO_CACHE:     372381
LLC WQ	ACCESS:      74097	FORWARD:          3	MERGED:          0	TO_CACHE:      74097
LLC PQ	ACCESS:      74285	FORWARD:          0	MERGED:          0	TO_CACHE:      74285

LLC Dense regions hint to LLC: 0

RAW hits: 1717052
Loads Generated: 12640547
Loads sent to L1D: 10923497
Stores Generated: 6950437
Stores sent to L1D: 6950443
Major fault: 0 Minor fault: 2546
Allocated PAGES: 2546

stream: 
stream:times selected: 1188197
stream:pref_filled: 121926
stream:pref_useful: 24587
stream:pref_late: 6868
stream:misses: 7986
stream:misses_by_poll: 0

CS: 
CS:times selected: 178965
CS:pref_filled: 59191
CS:pref_useful: 35963
CS:pref_late: 7528
CS:misses: 17208
CS:misses_by_poll: 3

CPLX: 
CPLX:times selected: 1008150
CPLX:pref_filled: 19814
CPLX:pref_useful: 4679
CPLX:pref_late: 3077
CPLX:misses: 93136
CPLX:misses_by_poll: 0

NL_L1: 
NL:times selected: 21173
NL:pref_filled: 694
NL:pref_useful: 353
NL:pref_late: 284
NL:misses: 1843
NL:misses_by_poll: 0

total selections: 2396485
total_filled: 94825
total_useful: 35199
total_late: 19111
total_polluted: 3
total_misses_after_warmup: 765224
conflicts: 5659251

test: 117583

DRAM Statistics
 CHANNEL 0
 RQ ROW_BUFFER_HIT:      11232  ROW_BUFFER_MISS:      18129
 DBUS_CONGESTED:         15
 WQ ROW_BUFFER_HIT:       1552  ROW_BUFFER_MISS:      12720  FULL:          0

 AVG_CONGESTED_CYCLE: 4

CPU 0 Branch Prediction Accuracy: 99.8245% MPKI: 0.32086 Average ROB Occupancy at Mispredict: 125.205
Branch types
NOT_BRANCH: 40858282 81.7166%
BRANCH_DIRECT_JUMP: 548587 1.09717%
BRANCH_INDIRECT: 182965 0.36593%
BRANCH_CONDITIONAL: 6181811 12.3636%
BRANCH_DIRECT_CALL: 942631 1.88526%
BRANCH_INDIRECT_CALL: 171337 0.342674%
BRANCH_RETURN: 1113975 2.22795%
BRANCH_OTHER: 0 0%

DRAM PAGES: 1048576
Allocated PAGES: 2546
Average_ROB_Occupancy: 114.494
Average_Decode_Occupancy: 12.8844
Average_FTQ_Occupancy: 6.13904
Indirect max targets: 14 Average targets: 1.14966
Branch_type:  BRANCH_DIRECT_JUMP:  Count Percentage: 2.90188 6.71545 4.01451 9.10763 1.69594 5.9748 1.21898 68.3708 
Branch_type:  BRANCH_INDIRECT:  Count Percentage: 11.769 3.45274 2.54579 0 1.33799 9.66651 5.88967 65.3383 
Branch_type:  BRANCH_CONDITIONAL:  Count Percentage: 21.0906 3.22782 1.77466 5.4371 1.17557 12.8984 1.2358 53.1601 
Branch_type:  BRANCH_DIRECT_CALL:  Count Percentage: 0.259583 1.77361 1.43084 4.70999 2.16542 2.99894 0.705795 85.9558 
Branch_type:  BRANCH_INDIRECT_CALL:  Count Percentage: 9.55558 0 2.99514 8.70266 0 2.6605 1.28405 74.8021 
Branch_type:  BRANCH_RETURN:  Count Percentage: 3.90657 1.38011 1.41195 6.33894 2.79834 12.8648 1.89923 69.4001 
Branch_type:  BRANCH_DIRECT_JUMP:  Total Count: 31814 73623 44012 99849 18593 65503 13364 749564 
Branch_type:  BRANCH_INDIRECT:  Total Count: 43030 12624 9308 0 4892 35343 21534 238892 
Branch_type:  BRANCH_CONDITIONAL:  Total Count: 2606333 398887 219309 671906 145275 1593953 152718 6569417 
Branch_type:  BRANCH_DIRECT_CALL:  Total Count: 4896 33452 26987 88835 40842 56563 13312 1621212 
Branch_type:  BRANCH_INDIRECT_CALL:  Total Count: 32781 0 10275 29855 0 9127 4405 256613 
Branch_type:  BRANCH_RETURN:  Total Count: 87115 30776 31486 141356 62402 286879 42352 1547595 
Number of unique branch instructions: 9917
Upper 32 bits: 
aaaa
ffff
ffff0000
Unique upper 32 bits: 3
Unique upper 36 bits: 3
Unique upper 40 bits: 5
Unique upper 44 bits: 32
Unique upper 48 bits: 154
Variant_0 : 1061 0.259033
Variant_1 : 1233 0.301025
Variant_2 : 1577 0.38501
Variant_3 : 0 0
Offset_3 4073
Offset_4 249
Offset_5 451
Offset_6 503
Offset_7 585
Offset_8 509
Offset_9 468
Offset_10 385
Offset_11 315
Offset_12 288
Offset_13 201
Offset_14 230
Offset_15 189
Offset_16 223
Offset_17 143
Offset_18 126
Offset_19 240
Offset_20 142
Offset_21 235
Offset_22 392
Offset_23 241
Offset_24 327
Offset_25 88
Offset_47 80
decode_dispatch_called: 20189867 44.3354
Dispatch_width: 0 10071683 49.8848 22.1166
Dispatch_width: 1 553433 2.74114 1.2153
Dispatch_width: 2 720975 3.57097 1.5832
Dispatch_width: 3 482542 2.39002 1.05962
Dispatch_width: 4 1621368 8.0306 3.5604
Dispatch_width: 5 367989 1.82264 0.808075
Dispatch_width: 6 6371877 31.5598 13.9921
Empty_decode_cycles: 25349095 55.6646
ROB_full_cycles: 1992936 4.37633
Starvation_cycles_per_kilo_instr: 371.741
Starvation_cycles_per_kilo_instr_3: 351.848
Starvation_cycles_per_kilo_instr_0: 334.278
Branch_type_1  (3,1)  (4,9)  (5,37)  (6,69)  (7,114)  (8,127)  (9,123)  (10,98)  (11,70)  (12,51)  (13,5)  (14,2)  (15,3)  (16,4)  (18,1)  (19,4)  (20,2)  (21,1)  (22,3)  (23,2)  (24,10)  (25,12) 
Branch_type_2  (3,1)  (5,1)  (8,3)  (9,3)  (12,1)  (13,1)  (14,1)  (16,3)  (17,2)  (20,2)  (21,2)  (23,5)  (24,1)  (47,36) 
Branch_type_3  (3,4071)  (4,240)  (5,409)  (6,418)  (7,439)  (8,317)  (9,256)  (10,156)  (11,130)  (12,58)  (13,4) 
Branch_type_4  (6,4)  (7,8)  (8,26)  (9,54)  (10,62)  (11,59)  (12,99)  (13,87)  (14,102)  (15,89)  (16,100)  (17,64)  (18,57)  (19,116)  (20,74)  (21,124)  (22,209)  (23,136)  (24,188)  (25,72) 
Branch_type_5  (8,2)  (9,1)  (10,3)  (11,5)  (12,3)  (13,14)  (14,16)  (15,11)  (16,20)  (17,11)  (18,16)  (19,12)  (20,10)  (21,13)  (22,42)  (23,26)  (24,37) 
Branch_type_6  (5,4)  (6,12)  (7,24)  (8,34)  (9,31)  (10,66)  (11,51)  (12,76)  (13,90)  (14,109)  (15,86)  (16,96)  (17,66)  (18,52)  (19,108)  (20,54)  (21,95)  (22,138)  (23,72)  (24,91)  (25,4)  (47,44) 
Unique trigger count: 
Variant_0_evicts_0 : 0
Variant_0_evicts_1 : 0
Variant_0_evicts_2 : 0
Variant_0_evicts_3 : 0
Variant_1_evicts_0 : 0
Variant_1_evicts_1 : 0
Variant_1_evicts_2 : 0
Variant_1_evicts_3 : 0
Variant_2_evicts_0 : 0
Variant_2_evicts_1 : 0
Variant_2_evicts_2 : 0
Variant_2_evicts_3 : 0
Variant_3_evicts_0 : 0
Variant_3_evicts_1 : 0
Variant_3_evicts_2 : 0
Variant_3_evicts_3 : 0
BTB PER SET UNIQUE ADDR: 2 8 3 7 5 6 7 5 2 6 5 4 2 5 12 8 4 5 4 2 5 8 7 8 4 6 4 4 5 7 7 5 3 7 3 8 5 3 5 9 4 9 4 3 7 6 3 4 6 7 10 4 7 2 2 7 5 3 8 4 4 7 4 8 7 1 5 4 3 8 7 6 5 7 7 9 3 5 5 7 10 7 5 10 8 4 6 4 5 7 6 8 7 7 4 2 4 2 4 7 5 2 4 7 4 5 4 6 5 8 6 2 3 8 2 6 4 7 5 12 6 5 5 4 10 6 2 5 5 2 4 5 3 5 7 6 5 2 7 6 3 5 9 8 4 9 5 5 5 8 3 2 3 11 2 4 5 3 7 4 2 6 4 7 8 2 1 3 9 9 4 6 4 4 3 5 3 6 5 5 5 5 4 9 5 6 4 5 5 6 4 3 6 6 3 5 6 6 6 3 5 8 3 5 1 9 3 4 7 3 2 2 7 6 4 5 6 4 3 6 4 8 5 8 6 10 8 5 7 9 3 6 5 12 3 6 3 7 6 7 6 6 5 6 6 4 4 5 5 5 3 7 3 4 5 5 3 5 7 1 7 6 7 5 4 4 5 5 8 6 7 8 7 6 5 5 6 2 6 9 9 2 5 7 2 5 10 5 8 4 5 3 10 7 7 5 4 3 6 5 13 2 5 10 3 3 6 7 6 2 7 2 7 5 5 5 6 8 6 3 9 8 3 5 9 5 3 5 2 7 4 9 3 6 6 4 7 7 5 6 3 5 7 3 5 4 4 7 1 3 6 7 5 2 7 4 3 6 5 4 10 6 6 7 5 8 6 7 3 2 8 6 9 4 5 4 7 5 5 1 5 5 4 4 8 4 3 6 4 5 5 2 4 6 4 3 5 2 5 3 7 7 5 4 3 10 11 5 9 3 5 4 1 5 6 2 4 4 4 6 6 1 5 5 7 4 7 8 6 5 8 3 4 5 7 1 3 2 2 4 9 5 3 3 3 1 3 5 7 5 9 2 5 4 5 2 8 2 13 5 5 6 6 11 2 9 4 4 2 7 6 7 2 6 4 8 3 2 4 8 4 2 6 5 4 5 4 5 4 7 6 5 6 6 6 5 5 6 3 8 2 3 4 4 5 6 7 4 2 4 6 3 5 3 6 5 9 6 7 6 6 6 9 3 6 12 3 3 5 3 9 7 5 3 3 5 7 9 4 5 3 7 10 12 5 4 7 10 5 3 3 8 2 4 4 7 7 1 6 5 3 4 6 8 6 3 4 4 10 5 4 4 1 6 2 7 9 2 6 4 1 9 2 9 3 4 3 2 4 8 8 6 7 7 3 6 11 8 5 6 8 3 4 2 5 10 8 2 4 4 4 4 6 5 1 6 10 4 9 8 4 5 6 1 6 6 3 5 4 4 4 8 4 5 6 5 3 9 5 12 4 6 5 2 3 6 6 4 5 4 5 5 5 7 5 6 6 3 3 5 4 5 6 7 4 5 4 10 9 6 8 5 8 5 8 4 4 7 3 7 7 9 3 7 8 8 6 7 7 3 7 2 4 6 4 9 4 7 3 9 7 6 4 3 11 4 4 6 8 8 5 2 2 7 5 5 7 6 5 3 5 6 3 9 6 8 9 7 4 8 3 5 9 5 4 2 7 5 3 8 4 10 5 6 5 3 6 3 5 5 6 4 7 5 9 9 8 1 2 7 7 6 6 6 8 7 8 12 5 5 7 5 1 6 5 6 5 7 4 7 8 4 4 4 8 5 4 7 5 9 6 4 5 5 8 5 8 3 5 5 6 6 7 4 4 2 5 3 6 5 7 2 0 5 8 6 11 4 7 4 8 4 4 4 5 6 6 5 9 5 7 6 3 7 5 4 6 4 3 5 1 9 6 4 5 4 4 5 3 4 3 7 4 3 5 3 10 7 3 5 1 6 4 8 5 7 7 5 5 5 4 6 5 3 1 4 4 7 1 6 6 5 5 5 5 5 7 10 4 0 10 3 4 1 4 6 4 8 6 2 8 3 8 5 5 2 4 4 7 11 7 5 5 6 6 8 5 10 10 6 7 1 6 7 3 2 5 7 5 4 3 6 7 6 5 5 4 3 2 7 7 5 4 2 5 3 3 3 5 4 8 7 6 2 14 5 8 3 5 2 6 3 8 4 4 3 6 4 2 4 5 1 2 6 2 4 2 10 6 5 4 6 8 4 9 3 3 4 6 3 3 6 7 9 6 4 5 5 4 2 7 4 8 3 3 4 5 9 5 6 3 9 9 5 6 4 4 7 3 4 5 3 7 8 9 4 6 7 3 4 6 3 6 5 5 7 9 5 2 4 7 5 4 7 7 6 4 6 3 2 5 5 6 4 3 7 11 8 4 3 3 7 5 5 4 8 9 6 9 6 1 5 2 8 8 4 5 6 7 3 8 3 4 5 5 6 4 3 3 9 7 9 4 6 6 4 4 2 6 3 5 11 7 9 3 6 3 6 2 2 6 6 3 5 9 2 5 7 5 6 5 4 3 7 4 7 6 7 4 3 6 6 7 2 5 4 4 6 3 4 7 10 7 3 5 4 2 5 4 5 6 5 2 5 2 3 5 9 7 5 4 2 8 5 2 4 6 8 8 6 10 5 6 4 4 10 3 7 5 6 11 2 10 4 4 4 8 3 7 8 11 10 5 2 8 4 8 6 4 2 6 3 4 3 7 6 5 1 8 3 5 4 6 7 2 6 8 3 8 6 9 2 6 4 5 6 7 5 6 5 6 3 4 1 8 5 3 6 3 3 6 5 6 4 7 5 7 4 3 7 5 7 3 3 5 2 3 2 2 5 3 4 5 4 5 3 6 6 4 9 5 4 9 3 4 5 5 9 7 4 8 4 8 8 5 4 5 6 12 9 7 5 7 10 4 5 6 4 4 7 2 5 4 8 7 5 7 7 8 7 12 6 4 5 12 5 4 4 4 4 3 6 3 6 6 3 5 4 10 11 5 7 4 7 8 4 6 6 6 6 5 5 7 6 8 11 4 5 9 5 5 3 6 5 5 2 8 3 3 6 4 9 7 7 6 2 4 5 5 7 3 6 5 13 8 9 4 4 2 5 2 5 3 6 4 4 6 4 6 2 3 5 8 8 1 5 7 5 4 4 7 4 10 3 2 4 9 7 5 6 3 5 9 3 9 7 3 2 2 7 7 7 6 10 7 9 6 4 3 7 8 3 6 5 10 6 7 11 7 3 9 6 6 3 5 6 8 3 8 4 2 5 2 5 6 3 5 7 8 5 7 4 5 6 10 6 4 5 4 9 4 5 8 1 4 2 8 5 6 11 4 7 4 7 7 4 5 4 7 5 6 5 5 8 5 9 6 4 6 2 7 4 9 8 8 7 10 4 8 3 5 7 10 4 3 6 6 8 6 11 9 1 5 7 5 4 13 6 6 2 5 6 5 2 5 6 6 6 1 6 5 3 6 6 5 5 4 7 4 1 5 6 5 5 3 6 4 7 5 4 4 9 4 5 4 4 3 6 6 6 7 3 5 4 1 6 5 7 5 2 4 5 3 6 3 7 7 5 4 8 6 5 3 5 7 3 4 6 4 6 5 5 6 6 4 5 9 7 8 7 4 7 7 3 3 6 5 4 8 3 3 10 8 8 4 6 3 2 3 3 4 6 8 4 8 5 8 4 6 5 5 6 7 2 7 7 7 5 5 10 8 4 4 4 5 4 3 4 6 4 3 7 3 5 7 4 6 4 2 2 5 4 3 2 5 5 1 5 5 3 7 4 7 2 1 5 6 6 13 3 3 7 2 3 5 4 1 5 4 4 3 5 4 2 3 8 9 4 4 4 1 2 6 5 4 3 4 8 4 6 2 4 3 9 8 5 8 4 4 3 5 3 3 5 4 6 4 4 6 7 4 4 7 5 3 6 5 9 5 5 7 3 3 4 5 6 1 1 3 4 8 8 3 8 5 7 5 5 7 4 2 4 7 10 0 5 4 9 6 9 4 10 1 6 9 6 6 6 2 6 3 7 3 6 4 7 7 4 5 6 4 5 3 4 2 1 4 2 7 2 6 4 7 2 6 3 3 9 3 6 3 4 6 7 6 8 6 4 7 3 5 8 3 3 6 5 4 4 4 8 5 4 3 3 7 6 4 6 3 7 3 4 5 8 6 3 4 8 5 6 2 3 7 3 4 7 2 6 4 3 3 8 3 7 5 4 4 8 3 10 4 5 2 4 6 10 5 6 3 3 4 3 2 5 2 11 1 6 2 4 4 4 3 5 5 5 2 1 3 8 2 4 5 4 3 7 5 3 3 6 6 7 6 2 4 8 2 5 10 4 1 1 9 11 2 8 7 9 5 6 7 4 8 6 7 6 3 0 5 3 5 8 5 7 8 9 4 4 2 7 3 8 5 6 7 8 6 4 7 9 7 4 4 6 6 4 5 6 3 11 3 8 6 11 7 3 5 9 3 5 5 4 3 2 8 8 4 6 3 6 3 5 6 7 3 4 1 3 6 4 0 3 6 10 3 4 5 8 7 8 5 10 7 5 3 8 4 6 8 3 2 11 4 3 6 5 5 14 4 8 3 7 4 6 3 5 6 7 
BTB PER SET COUNT: 2 1915 917 978 788 275 464 936 2 912 1018 354 2 774 1075 196 745 195 1335 4 476 1508 998 580 542 579 289 322 645 854 739 115 247 1165 752 882 796 156 437 1673 6 1633 4 4 1469 919 188 244 167 1009 1797 573 972 3 2 772 998 1148 686 32 1115 1010 203 319 218 1 260 278 4 1184 600 269 234 808 493 1727 5 899 1185 211 847 428 235 1598 849 154 1033 5 791 1797 809 1072 1016 1166 4 51 311 2 243 665 664 2 379 154 99 182 57 532 682 950 421 2 138 1288 5 251 391 13 453 2601 412 565 1822 336 414 1219 2 447 917 2 97 489 3 356 578 570 256 143 945 955 9 623 1664 563 4 384 5 485 373 789 285 490 3 923 2 849 181 697 613 324 2 460 4 499 753 83 1 3 345 814 179 736 304 189 390 380 108 250 98 844 57 697 302 574 611 535 5 18 7 190 58 3 977 730 3 405 175 713 1490 3 420 407 150 150 1 1043 7 591 688 4 5 5 967 700 287 500 927 292 296 233 154 957 369 1244 2015 1414 190 141 215 1570 441 161 261 5829 257 769 3 425 459 933 634 98 739 247 409 403 249 640 285 436 58 628 4 181 544 162 200 406 420 1 471 487 456 292 184 536 7 555 890 233 399 635 162 503 670 941 181 288 495 796 622 2 315 1072 2 552 1887 403 596 7 5 3 1332 725 839 221 8 71 545 246 1141 239 1476 757 194 6 633 16 483 6 200 2 897 305 5 405 13 800 315 6 622 493 218 375 1457 426 333 189 2 290 4 1705 190 760 233 215 995 310 322 689 4 365 384 4 747 308 4 798 1 259 363 186 408 2 695 10 328 578 861 187 1942 307 407 1153 280 3069 878 1326 3 2 613 553 3126 7 390 296 700 559 302 1 143 1212 125 477 910 298 3 502 76 257 380 2 627 303 125 3 1605 3 483 34 636 1043 370 276 384 1431 2503 727 819 3 268 338 1 512 859 320 422 413 298 749 546 1 5 620 878 845 644 711 1223 449 1563 46 5 438 857 1 438 4 2 163 2067 396 3 10 436 1 1470 39 811 594 1651 363 343 344 614 2 737 2 1742 221 1161 339 35 1087 5 973 331 131 2 609 440 695 2 411 980 181 134 2 325 652 86 2 228 535 6 439 171 412 234 957 381 478 74 605 795 973 1006 492 78 797 2 217 5 304 5 476 258 163 2 73 1051 341 1109 1045 9 497 930 1366 1050 605 366 570 1626 3 418 1892 64 3 326 6 2163 774 183 34 3 137 586 655 623 329 260 571 1363 1732 538 1184 1023 1599 830 78 3 1382 981 677 489 714 1235 1 182 140 850 7691 542 858 596 4 1123 158 2093 603 248 309 1 1352 2 1129 1298 2 454 142 2 764 2 898 4 256 227 2 5 2365 745 616 856 1342 225 1818 1130 843 347 279 849 11 600 82 161 881 1375 2 220 201 482 110 1146 299 1 270 1042 364 10760 835 267 296 466 2 729 300 515 229 554 375 510 1029 76 895 505 770 5 1036 538 2451 4 360 483 2 4 1098 233 190 198 834 787 341 166 891 171 344 409 277 3 55 455 559 380 114 270 834 4 1673 710 940 450 377 734 3393 1043 441 388 1473 312 849 1271 725 110 1416 487 1079 386 1136 127 189 657 2 397 924 259 1267 148 1790 360 1639 675 1400 6 3 1197 124 6 437 1545 711 334 3 244 850 109 988 481 404 356 202 371 550 745 891 449 1057 1076 930 1165 680 360 370 805 303 4 3 10 472 175 2547 4 2018 229 341 213 4 373 182 8 773 1494 276 249 315 248 920 788 1 2 937 547 305 301 161 267 251 671 2031 731 5 197 416 1 421 842 1071 286 681 366 567 731 96 150 193 806 6 683 592 334 1174 577 490 770 18 145 1037 183 205 289 192 208 20 612 914 305 2 139 3 303 176 381 2 0 190 1068 510 1848 452 868 81 979 334 126 184 432 1124 396 608 1690 455 758 490 128 863 32 112 1140 195 5 444 16 1910 516 637 444 12 194 869 4 892 3 524 44 232 680 10 934 186 236 10 1 417 148 300 494 269 1482 248 931 131 772 212 387 6 1 33 1342 1129 1 1026 471 1045 551 167 7 619 260 1626 38 0 1738 28 108 1 6 723 622 945 934 186 959 164 730 855 240 126 83 116 385 1092 740 286 580 644 889 1024 234 717 1446 932 1789 1 116 505 154 3 1473 338 331 370 4 881 1408 384 289 369 202 187 87 1047 898 27 7 2 1059 299 3 18 340 4 1278 1120 561 2 2442 467 1411 3 1854 243 597 152 777 375 325 39 597 498 2 283 7 1 262 1172 3 62 89 1167 376 449 440 272 914 12 828 143 3 935 10 162 4 447 986 1218 431 5 304 1724 4 2 502 315 661 1485 302 14 302 1317 925 544 3 750 1360 295 546 95 240 1189 4 40 402 364 513 168 599 180 900 1341 3 153 704 3 973 618 648 765 622 352 1468 137 411 666 5 484 392 786 489 59 102 2 320 270 268 104 442 10 1197 1890 268 3 3 624 471 820 540 583 885 752 545 569 1 444 2 1130 944 240 152 825 248 6 1151 3 194 364 322 336 13 49 39 742 1074 1072 628 7 393 538 189 2 264 3 300 2122 713 1879 370 877 6 175 2 165 180 707 99 1454 794 3 5 701 9 340 328 4 468 124 4 820 455 474 4 8 157 495 573 2 548 182 173 750 5 324 915 10627 1284 273 857 4 2 522 61 346 123 450 2 224 2 944 137 1329 1373 147 71 2 714 275 341 9 176 534 198 709 1003 8 430 401 80 1376 4 105 456 699 882 86 1468 360 292 283 229 260 1126 915 1239 664 203 2 1792 147 1064 429 632 157 589 57 8 4 820 682 1203 1 1039 370 847 4 314 1574 3 234 854 131 767 275 750 3 532 40 449 804 672 254 393 155 6 75 448 1 1270 259 5 544 160 3 446 472 70 250 356 288 24 125 78 363 294 425 3 277 526 2 3 88 2 11 3 229 5 5 721 3 534 242 224 664 460 287 1001 3 186 452 276 1196 655 349 1385 37 181 515 251 494 163 1521 1795 1390 79 867 255 1482 266 682 742 280 354 738 2 348 321 511 989 487 521 1153 839 986 959 132 32 430 920 822 84 142 542 181 4 373 5 448 53 4 120 1497 372 1855 383 443 4 749 534 146 263 1059 471 374 704 684 191 421 997 1094 145 424 1002 574 2471 3 273 178 8 2 740 3 3 358 479 646 914 662 59 2 295 177 216 706 3 219 259 1830 1243 582 419 146 2 705 2 705 280 301 200 266 13 252 319 228 4 158 532 434 1 397 587 40 14 4 1013 270 293 45 2 368 1008 226 171 482 4 432 999 67 1196 1044 201 241 103 1024 1370 458 467 754 311 1006 404 58 273 2005 1280 4 487 1775 1158 1131 1026 518 933 109 427 1243 98 107 373 11 547 3 407 8 2 311 2 796 387 3 5 709 875 325 419 4 46 282 1409 388 228 14 5 1625 184 241 941 1 4 2 481 340 586 1436 189 742 358 467 688 609 38 102 27 223 471 183 353 513 482 1980 722 168 329 3 865 448 530 271 1536 901 1085 139 844 107 378 584 2016 258 4 932 89 765 926 1916 1424 1 129 842 530 772 1410 571 1260 2 447 23 737 187 144 937 220 573 1 937 5 4 212 215 5 364 482 838 238 1 1008 322 268 12 121 353 4 435 122 980 716 874 307 442 371 204 3 837 419 490 950 5 56 333 1 639 375 1261 89 1452 364 295 62 534 3 420 961 33 189 512 161 316 3 577 462 106 163 585 121 502 212 423 369 578 663 473 959 131 1307 396 5 697 1168 252 236 214 5 658 724 3 230 764 694 1095 197 789 202 2 4 175 332 532 1407 140 732 668 1267 34 342 5 5 784 559 130 739 885 395 544 5 896 493 228 442 254 63 193 475 658 717 747 452 347 6 140 369 4 893 492 2 257 187 263 3 5 383 383 1 607 5 417 295 4 240 2 1 138 199 516 3145 85 426 817 2 231 408 6 1 288 507 169 53 459 102 2 3 1039 1151 138 4 40 1 226 509 517 385 227 4 365 473 386 7 318 5 1880 228 452 421 395 181 330 230 92 66 224 211 674 375 5 620 509 162 41 972 5 149 801 547 1242 230 402 810 4 3 4 138 558 1 1 4 666 573 1215 3 1073 363 539 752 669 1554 345 2 4 418 1216 0 337 49 778 189 1979 465 721 1 662 2734 551 274 293 2 988 3 909 3 379 357 596 621 85 5 561 304 338 3 4 3 1 248 2 759 2 709 532 408 4 185 3 8 358 125 973 136 359 535 904 232 794 1005 156 419 79 214 1261 5 754 149 5 323 770 507 1279 328 469 269 308 375 1221 795 596 4 1364 6 425 338 752 12 5 248 959 1935 350 2 94 889 283 386 784 2 893 11525 260 146 1403 233 1270 697 4 343 1312 636 1460 491 416 426 6 559 1506 641 575 61 224 5 3 2 810 7 1089 1 466 762 204 4 316 271 188 163 341 2 1 3 1280 2 99 541 551 62 1199 454 89 181 1197 150 369 936 2 388 1208 5 647 1160 87 2 1 590 718 3 443 563 1203 49 299 552 355 580 97 1258 520 191 0 451 328 314 1215 228 552 1216 318 228 101 2 917 194 623 801 399 491 1613 631 1301 1260 1294 968 244 180 575 3339 798 271 608 542 1716 3 725 352 1617 11 214 456 1379 234 614 486 189 64 2 1111 1677 390 576 78 498 3 286 72 545 3 282 1347 457 662 237 0 87 394 1379 198 166 5 1248 450 757 349 1651 345 793 3 1107 1529 159 634 3 2 1789 88 195 497 447 101 2738 214 1206 116 683 463 7 73 263 771 1099 
To predecode: 0
Predecoding something: 0
Predecode request dropped: 0
sizeofblock_0 0
sizeofblock_1 503596
sizeofblock_2 147690
sizeofblock_3 28940
sizeofblock_4 6727
sizeofblock_5 0
sizeofblock_6 0
sizeofblock_7 0
sizeofblock_8 0
Variant_0 Correct: 1310878 Incorrect: 0 Accuracy: 1
Variant_1 Correct: 1823808 Incorrect: 0 Accuracy: 1
Variant_2 Correct: 3347037 Incorrect: 0 Accuracy: 1
Variant_3 Correct: 0 Incorrect: 0 Accuracy: -nan
