
*** ChampSim Multicore Out-of-Order Simulator ***

Warmup Instructions: 50000000
Simulation Instructions: 50000000
Number of CPUs: 1
LLC sets: 2048
LLC ways: 16
Off-chip DRAM Size: 4096 MB Channels: 1 Width: 64-bit Data Rate: 6400 MT/s
CPU 0 runs ./micro_traces/srv531.trace.gz
.gz
ITLB has LRU replacement policy
DTLB has LRU replacement policy
STLB has LRU replacement policy
FDIP Prefetcher at L1I
L1I has LRU replacement policy
L1D has LRU replacement policy
Initialize SRRIP state for L2C
Initialize DRRIP state for LLC
Heartbeat_Variant_0 : 1341 0.218262 per_variant_size: 0 1341 0 0 0 0 0 0 0 
Heartbeat_Variant_1 : 2763 0.449707 per_variant_size: 0 989 1774 0 0 0 0 0 0 
Heartbeat_Variant_2 : 0 0 per_variant_size: 0 0 0 0 0 0 0 0 0 
Heartbeat_Variant_3 : 0 0 per_variant_size: 0 0 0 0 0 0 0 0 0 
Heartbeat_Variant_0_evicts 0 : 5432 1 : 33 2 : 0 3 : 0 
Heartbeat_Variant_1_evicts 0 : 22 1 : 0 2 : 0 3 : 0 
Heartbeat_Variant_2_evicts 0 : 0 1 : 0 2 : 0 3 : 0 
Heartbeat_Variant_3_evicts 0 : 0 1 : 0 2 : 0 3 : 0 
Heartbeat CPU 0 instructions: 10000003 cycles: 2796092 heartbeat IPC: 3.57642 cumulative IPC: 3.57642 (Simulation time: 0 hr 1 min 49 sec) 
Heartbeat_Variant_0 : 1377 0.224121 per_variant_size: 0 1377 0 0 0 0 0 0 0 
Heartbeat_Variant_1 : 2850 0.463867 per_variant_size: 0 982 1868 0 0 0 0 0 0 
Heartbeat_Variant_2 : 0 0 per_variant_size: 0 0 0 0 0 0 0 0 0 
Heartbeat_Variant_3 : 0 0 per_variant_size: 0 0 0 0 0 0 0 0 0 
Heartbeat_Variant_0_evicts 0 : 5593 1 : 7 2 : 0 3 : 0 
Heartbeat_Variant_1_evicts 0 : 6 1 : 0 2 : 0 3 : 0 
Heartbeat_Variant_2_evicts 0 : 0 1 : 0 2 : 0 3 : 0 
Heartbeat_Variant_3_evicts 0 : 0 1 : 0 2 : 0 3 : 0 
Heartbeat CPU 0 instructions: 20000003 cycles: 5592824 heartbeat IPC: 3.5756 cumulative IPC: 3.57601 (Simulation time: 0 hr 3 min 28 sec) 
Heartbeat_Variant_0 : 1377 0.224121 per_variant_size: 0 1377 0 0 0 0 0 0 0 
Heartbeat_Variant_1 : 2851 0.46403 per_variant_size: 0 981 1870 0 0 0 0 0 0 
Heartbeat_Variant_2 : 0 0 per_variant_size: 0 0 0 0 0 0 0 0 0 
Heartbeat_Variant_3 : 0 0 per_variant_size: 0 0 0 0 0 0 0 0 0 
Heartbeat_Variant_0_evicts 0 : 5608 1 : 0 2 : 0 3 : 0 
Heartbeat_Variant_1_evicts 0 : 0 1 : 0 2 : 0 3 : 0 
Heartbeat_Variant_2_evicts 0 : 0 1 : 0 2 : 0 3 : 0 
Heartbeat_Variant_3_evicts 0 : 0 1 : 0 2 : 0 3 : 0 
Heartbeat CPU 0 instructions: 30000003 cycles: 8389202 heartbeat IPC: 3.57605 cumulative IPC: 3.57603 (Simulation time: 0 hr 5 min 7 sec) 
Heartbeat_Variant_0 : 1404 0.228516 per_variant_size: 0 1404 0 0 0 0 0 0 0 
Heartbeat_Variant_1 : 2918 0.474935 per_variant_size: 0 977 1941 0 0 0 0 0 0 
Heartbeat_Variant_2 : 0 0 per_variant_size: 0 0 0 0 0 0 0 0 0 
Heartbeat_Variant_3 : 0 0 per_variant_size: 0 0 0 0 0 0 0 0 0 
Heartbeat_Variant_0_evicts 0 : 5492 1 : 9 2 : 0 3 : 0 
Heartbeat_Variant_1_evicts 0 : 7 1 : 0 2 : 0 3 : 0 
Heartbeat_Variant_2_evicts 0 : 0 1 : 0 2 : 0 3 : 0 
Heartbeat_Variant_3_evicts 0 : 0 1 : 0 2 : 0 3 : 0 
Heartbeat CPU 0 instructions: 40000002 cycles: 11184744 heartbeat IPC: 3.57712 cumulative IPC: 3.5763 (Simulation time: 0 hr 6 min 47 sec) 
Heartbeat_Variant_0 : 1404 0.228516 per_variant_size: 0 1404 0 0 0 0 0 0 0 
Heartbeat_Variant_1 : 2929 0.476725 per_variant_size: 0 981 1948 0 0 0 0 0 0 
Heartbeat_Variant_2 : 0 0 per_variant_size: 0 0 0 0 0 0 0 0 0 
Heartbeat_Variant_3 : 0 0 per_variant_size: 0 0 0 0 0 0 0 0 0 
Heartbeat_Variant_0_evicts 0 : 5443 1 : 0 2 : 0 3 : 0 
Heartbeat_Variant_1_evicts 0 : 1 1 : 0 2 : 0 3 : 0 
Heartbeat_Variant_2_evicts 0 : 0 1 : 0 2 : 0 3 : 0 
Heartbeat_Variant_3_evicts 0 : 0 1 : 0 2 : 0 3 : 0 
Heartbeat CPU 0 instructions: 50000000 cycles: 13979925 heartbeat IPC: 3.57759 cumulative IPC: 3.57656 (Simulation time: 0 hr 8 min 29 sec) 

Warmup complete CPU 0 instructions: 50000004 cycles: 13979926 (Simulation time: 0 hr 8 min 29 sec) 

Cycle: 20000000 FTQ IN: 58346577 FTQ occupancy: 20.6228 DECODE IN: 58346561 DECODE occupancy: 53.63 ROB IN: 58346501 ROB occupancy: 318.77 ROB OUT: 58346354
Heartbeat_Variant_0 : 1406 0.228841 per_variant_size: 0 1406 0 0 0 0 0 0 0 
Heartbeat_Variant_1 : 2930 0.476888 per_variant_size: 0 998 1932 0 0 0 0 0 0 
Heartbeat_Variant_2 : 0 0 per_variant_size: 0 0 0 0 0 0 0 0 0 
Heartbeat_Variant_3 : 0 0 per_variant_size: 0 0 0 0 0 0 0 0 0 
Heartbeat_Variant_0_evicts 0 : 5627 1 : 2 2 : 0 3 : 0 
Heartbeat_Variant_1_evicts 0 : 0 1 : 0 2 : 0 3 : 0 
Heartbeat_Variant_2_evicts 0 : 0 1 : 0 2 : 0 3 : 0 
Heartbeat_Variant_3_evicts 0 : 0 1 : 0 2 : 0 3 : 0 
Heartbeat CPU 0 instructions: 60000002 cycles: 21187911 heartbeat IPC: 1.38735 cumulative IPC: 1.38735 (Simulation time: 0 hr 10 min 32 sec) 
Heartbeat_Variant_0 : 1406 0.228841 per_variant_size: 0 1406 0 0 0 0 0 0 0 
Heartbeat_Variant_1 : 2931 0.477051 per_variant_size: 0 996 1935 0 0 0 0 0 0 
Heartbeat_Variant_2 : 0 0 per_variant_size: 0 0 0 0 0 0 0 0 0 
Heartbeat_Variant_3 : 0 0 per_variant_size: 0 0 0 0 0 0 0 0 0 
Heartbeat_Variant_0_evicts 0 : 5577 1 : 0 2 : 0 3 : 0 
Heartbeat_Variant_1_evicts 0 : 0 1 : 0 2 : 0 3 : 0 
Heartbeat_Variant_2_evicts 0 : 0 1 : 0 2 : 0 3 : 0 
Heartbeat_Variant_3_evicts 0 : 0 1 : 0 2 : 0 3 : 0 
Heartbeat CPU 0 instructions: 70000003 cycles: 28316367 heartbeat IPC: 1.40283 cumulative IPC: 1.39505 (Simulation time: 0 hr 12 min 27 sec) 
Cycle: 30000000 FTQ IN: 14022275 FTQ occupancy: 15.0201 DECODE IN: 14022208 DECODE occupancy: 38.9063 ROB IN: 14022208 ROB occupancy: 251.115 ROB OUT: 14022330
Heartbeat_Variant_0 : 1406 0.228841 per_variant_size: 0 1406 0 0 0 0 0 0 0 
Heartbeat_Variant_1 : 2931 0.477051 per_variant_size: 0 983 1948 0 0 0 0 0 0 
Heartbeat_Variant_2 : 0 0 per_variant_size: 0 0 0 0 0 0 0 0 0 
Heartbeat_Variant_3 : 0 0 per_variant_size: 0 0 0 0 0 0 0 0 0 
Heartbeat_Variant_0_evicts 0 : 5525 1 : 0 2 : 0 3 : 0 
Heartbeat_Variant_1_evicts 0 : 0 1 : 0 2 : 0 3 : 0 
Heartbeat_Variant_2_evicts 0 : 0 1 : 0 2 : 0 3 : 0 
Heartbeat_Variant_3_evicts 0 : 0 1 : 0 2 : 0 3 : 0 
Heartbeat CPU 0 instructions: 80000001 cycles: 35533879 heartbeat IPC: 1.38552 cumulative IPC: 1.39186 (Simulation time: 0 hr 14 min 26 sec) 
Cycle: 40000000 FTQ IN: 13913312 FTQ occupancy: 15.1154 DECODE IN: 13913260 DECODE occupancy: 38.8557 ROB IN: 13913260 ROB occupancy: 250.399 ROB OUT: 13912937
Heartbeat_Variant_0 : 1422 0.231445 per_variant_size: 0 1422 0 0 0 0 0 0 0 
Heartbeat_Variant_1 : 2983 0.485514 per_variant_size: 0 992 1991 0 0 0 0 0 0 
Heartbeat_Variant_2 : 0 0 per_variant_size: 0 0 0 0 0 0 0 0 0 
Heartbeat_Variant_3 : 0 0 per_variant_size: 0 0 0 0 0 0 0 0 0 
Heartbeat_Variant_0_evicts 0 : 5638 1 : 3 2 : 0 3 : 0 
Heartbeat_Variant_1_evicts 0 : 3 1 : 0 2 : 0 3 : 0 
Heartbeat_Variant_2_evicts 0 : 0 1 : 0 2 : 0 3 : 0 
Heartbeat_Variant_3_evicts 0 : 0 1 : 0 2 : 0 3 : 0 
Heartbeat CPU 0 instructions: 90000000 cycles: 42646182 heartbeat IPC: 1.40601 cumulative IPC: 1.39537 (Simulation time: 0 hr 16 min 28 sec) 
Heartbeat_Variant_0 : 1422 0.231445 per_variant_size: 0 1422 0 0 0 0 0 0 0 
Heartbeat_Variant_1 : 2983 0.485514 per_variant_size: 0 999 1984 0 0 0 0 0 0 
Heartbeat_Variant_2 : 0 0 per_variant_size: 0 0 0 0 0 0 0 0 0 
Heartbeat_Variant_3 : 0 0 per_variant_size: 0 0 0 0 0 0 0 0 0 
Heartbeat_Variant_0_evicts 0 : 5539 1 : 0 2 : 0 3 : 0 
Heartbeat_Variant_1_evicts 0 : 0 1 : 0 2 : 0 3 : 0 
Heartbeat_Variant_2_evicts 0 : 0 1 : 0 2 : 0 3 : 0 
Heartbeat_Variant_3_evicts 0 : 0 1 : 0 2 : 0 3 : 0 
Heartbeat CPU 0 instructions: 100000001 cycles: 49823636 heartbeat IPC: 1.39325 cumulative IPC: 1.39494 (Simulation time: 0 hr 18 min 31 sec) 
Finished CPU 0 instructions: 50000000 cycles: 35843713 cumulative IPC: 1.39494 (Simulation time: 0 hr 18 min 31 sec) 

ChampSim completed all CPUs

Region of Interest Statistics

CPU 0 cumulative IPC: 1.39494 instructions: 50000000 cycles: 35843713
 Fetch stage stalled: 45.2844  Sim cycles: 35843713 fetch stall cycle: 16231615
 Empty decode stage: 23.9482  Sim cycles: 35843713 fetch stall cycle: 8583940
ITLB TOTAL     ACCESS:    5851955  HIT:    5357031  MISS:     494924  HIT %:    91.5426  MISS %:    8.45741   MPKI: 9.89848
ITLB LOAD TRANSLATION INSTRUCTION	ACCESS:    5714833  HIT:    5219909  MISS:     494924  HIT %:    91.3397  MISS %:    8.66034  MPKI: 9.89848
ITLB TRANSLATION FROM L1D PREFETCHER INSTRUCTION	ACCESS:     137122  HIT:     137122  MISS:          0  HIT %:        100  MISS %:          0  MPKI: 0

ITLB AVERAGE MISS LATENCY: 9.05152 cycles
ITLB RQ	ACCESS:    7954015	FORWARD:          0	MERGED:    1622814	TO_CACHE:    6331201

DTLB TOTAL     ACCESS:    8964524  HIT:    8493723  MISS:     470801  HIT %:    94.7482  MISS %:    5.25182   MPKI: 9.41602
DTLB LOAD TRANSLATION DATA	ACCESS:    8964524  HIT:    8493723  MISS:     470801  HIT %:    94.7482  MISS %:    5.25182  MPKI: 9.41602

DTLB AVERAGE MISS LATENCY: 9.32963 cycles
DTLB RQ	ACCESS:   13333780	FORWARD:          0	MERGED:    4332658	TO_CACHE:    9001122

STLB TOTAL     ACCESS:    1213778  HIT:    1211816  MISS:       1962  HIT %:    99.8384  MISS %:   0.161644   MPKI: 0.03924
STLB LOAD TRANSLATION INSTRUCTION	ACCESS:     494924  HIT:     494682  MISS:        242  HIT %:    99.9511  MISS %:  0.0488964  MPKI: 0.00484
STLB LOAD TRANSLATION DATA	ACCESS:     470801  HIT:     469119  MISS:       1682  HIT %:    99.6427  MISS %:   0.357263  MPKI: 0.03364
STLB TRANSLATION FROM L1D PREFETCHER DATA	ACCESS:     248053  HIT:     248015  MISS:         38  HIT %:    99.9847  MISS %:  0.0153193  MPKI: 0.00076

STLB AVERAGE MISS LATENCY: 77.4918 cycles
STLB RQ	ACCESS:    1335572	FORWARD:          0	MERGED:     121750	TO_CACHE:    1213822

STLB Hit, L1D data hit: 0
STLB Hit, L2C data hit: 0
STLB Hit, LLC data hit: 0
STLB Hit, LLC data miss: 0
STLB STLB hints to L2: 0
L1D TOTAL     ACCESS:   13079408  HIT:   11955987  MISS:    1123421  HIT %:    91.4108  MISS %:    8.58923   MPKI: 22.4684
L1D LOAD DATA	ACCESS:    6542092  HIT:    5802018  MISS:     740074  HIT %:    88.6875  MISS %:    11.3125  MPKI: 14.8015
L1D RFO DATA	ACCESS:    6208973  HIT:    5921276  MISS:     287697  HIT %:    95.3664  MISS %:    4.63357  MPKI: 5.75394
L1D PREFETCH DATA	ACCESS:     328343  HIT:     232693  MISS:      95650  HIT %:    70.8689  MISS %:    29.1311  MPKI: 1.913

L1D PREFETCH  REQUESTED:     740079  ISSUED:     740079  USEFUL:      35049  USELESS:      68660
L1D USEFUL LOAD PREFETCHES:      35049 PREFETCH ISSUED TO LOWER LEVEL:     103791  ACCURACY: 33.7688
 TIMELY PREFETCHES:      35049 LATE PREFETCHES: 8053 DROPPED PREFETCHES: 8
L1D AVERAGE MISS LATENCY: 234614 cycles
L1D RQ	ACCESS:   10689052	FORWARD:          0	MERGED:    3945034	TO_CACHE:    6576815
L1D WQ	ACCESS:    6953810	FORWARD:     167588	MERGED:     196845	TO_CACHE:    6756965
L1D PQ	ACCESS:     370232	FORWARD:          0	MERGED:          0	TO_CACHE:     369847

L1D UNIQUE REGIONS ACCESSED: 0
L1D REGIONS CONFLICTS: 0
L1D Cross Page Prefetch Requests: 6884
L1D Same Page Prefetch Requests: 740938
L1D ROI Sum of L1D PQ occupancy: 4702338
L1D PREFETCHES PUSHED FROM L2C: 0
L1I TOTAL     ACCESS:    7130956  HIT:    4362485  MISS:    2768471  HIT %:    61.1767  MISS %:    38.8233   MPKI: 55.3694
L1I LOAD INSTRUCTION	ACCESS:    6462646  HIT:    3694175  MISS:    2768471  HIT %:     57.162  MISS %:     42.838  MPKI: 55.3694
L1I PREFETCH INSTRUCTION	ACCESS:     668310  HIT:     668310  MISS:          0  HIT %:        100  MISS %:          0  MPKI: 0

L1I PREFETCH  REQUESTED:    1620856  ISSUED:    1620856  USEFUL:          0  USELESS:          0
L1I USEFUL LOAD PREFETCHES:          0 PREFETCH ISSUED TO LOWER LEVEL:          0  ACCURACY: -nan
 TIMELY PREFETCHES:          0 LATE PREFETCHES: 0 DROPPED PREFETCHES: 0
L1I AVERAGE MISS LATENCY: 17.1289 cycles
L1I RQ	ACCESS:    9571122	FORWARD:          0	MERGED:    2807132	TO_CACHE:    6763990
L1I PQ	ACCESS:    1620856	FORWARD:          0	MERGED:     430831	TO_CACHE:    1190025

L1BTB TOTAL     ACCESS:    5669632  HIT:    2035244  MISS:    3634388  HIT %:    35.8973  MISS %:    64.1027   MPKI: 72.6878
L1BTB BRANCH_DIRECT_JUMP	ACCESS:     548069 HIT:     143781 MISS:     404288 AVERAGE STALL: 56.4539 AVERAGE FETCH STALL: 13.3457 AVERAGE FETCH QUEUE STALL: 19.6447 AVERAGE DECODE STALL: 22.5307 AVERAGE EXECUTE STALL: 2.5173e+15
L1BTB BRANCH_INDIRECT	ACCESS:     182603 HIT:      65740 MISS:     116863 AVERAGE STALL: 109.88 AVERAGE FETCH STALL: 10.895 AVERAGE FETCH QUEUE STALL: 16.7589 AVERAGE DECODE STALL: 13.092 AVERAGE EXECUTE STALL: 68.1713
L1BTB BRANCH_CONDITIONAL	ACCESS:    2705979 HIT:    1411268 MISS:    1294711 AVERAGE STALL: 87.1534 AVERAGE FETCH STALL: 19.7085 AVERAGE FETCH QUEUE STALL: 42.5259 AVERAGE DECODE STALL: 24.0604 AVERAGE EXECUTE STALL: 4.76291e+15
L1BTB BRANCH_DIRECT_CALL	ACCESS:     944984 HIT:     104366 MISS:     840618 AVERAGE STALL: 92.369 AVERAGE FETCH STALL: 46.8231 AVERAGE FETCH QUEUE STALL: 24.2249 AVERAGE DECODE STALL: 20.714 AVERAGE EXECUTE STALL: 4.02767e+16
L1BTB BRANCH_INDIRECT_CALL	ACCESS:     171511 HIT:      20886 MISS:     150625 AVERAGE STALL: 141.118 AVERAGE FETCH STALL: 12.1803 AVERAGE FETCH QUEUE STALL: 19.0734 AVERAGE DECODE STALL: 12.082 AVERAGE EXECUTE STALL: 97.2926
L1BTB BRANCH_RETURN	ACCESS:    1116486 HIT:     289203 MISS:     827283 AVERAGE STALL: 49.5516 AVERAGE FETCH STALL: 16.9071 AVERAGE FETCH QUEUE STALL: 4.94056 AVERAGE DECODE STALL: 6.07743 AVERAGE EXECUTE STALL: 4.36114e+14
L1BTB BRANCH_OTHER ACCESS:          0 HIT:          0 MISS:          0 AVERAGE STALL: -nan AVERAGE FETCH STALL: -nan AVERAGE FETCH QUEUE STALL: -nan AVERAGE DECODE STALL: -nan AVERAGE EXECUTE STALL: -nan
L1BTB TOTAL ROB OCCUPANCY AT BTB MISS: 2.54542

L2BTB TOTAL     ACCESS:    3609049  HIT:    3547905  MISS:      61144  HIT %:    98.3058  MISS %:    1.69419   MPKI: 1.22288
L2BTB BRANCH_DIRECT_JUMP	ACCESS:     400147 HIT:     396949 MISS:       3198 AVERAGE STALL: 56.4539 AVERAGE FETCH STALL: 13.3457 AVERAGE FETCH QUEUE STALL: 19.6447 AVERAGE DECODE STALL: 22.5307 AVERAGE EXECUTE STALL: 2.5173e+15
L2BTB BRANCH_INDIRECT	ACCESS:     106596 HIT:     103944 MISS:       2652 AVERAGE STALL: 109.88 AVERAGE FETCH STALL: 10.895 AVERAGE FETCH QUEUE STALL: 16.7589 AVERAGE DECODE STALL: 13.092 AVERAGE EXECUTE STALL: 68.1713
L2BTB BRANCH_CONDITIONAL	ACCESS:    1294711 HIT:    1290805 MISS:       3906 AVERAGE STALL: 87.1534 AVERAGE FETCH STALL: 19.7085 AVERAGE FETCH QUEUE STALL: 42.5259 AVERAGE DECODE STALL: 24.0604 AVERAGE EXECUTE STALL: 4.76291e+15
L2BTB BRANCH_DIRECT_CALL	ACCESS:     840618 HIT:     840150 MISS:        468 AVERAGE STALL: 92.369 AVERAGE FETCH STALL: 46.8231 AVERAGE FETCH QUEUE STALL: 24.2249 AVERAGE DECODE STALL: 20.714 AVERAGE EXECUTE STALL: 4.02767e+16
L2BTB BRANCH_INDIRECT_CALL	ACCESS:     141103 HIT:     131084 MISS:      10019 AVERAGE STALL: 141.118 AVERAGE FETCH STALL: 12.1803 AVERAGE FETCH QUEUE STALL: 19.0734 AVERAGE DECODE STALL: 12.082 AVERAGE EXECUTE STALL: 97.2926
L2BTB BRANCH_RETURN	ACCESS:     825874 HIT:     784973 MISS:      40901 AVERAGE STALL: 49.5516 AVERAGE FETCH STALL: 16.9071 AVERAGE FETCH QUEUE STALL: 4.94056 AVERAGE DECODE STALL: 6.07743 AVERAGE EXECUTE STALL: 4.36114e+14
L2BTB BRANCH_OTHER ACCESS:          0 HIT:          0 MISS:          0 AVERAGE STALL: -nan AVERAGE FETCH STALL: -nan AVERAGE FETCH QUEUE STALL: -nan AVERAGE DECODE STALL: -nan AVERAGE EXECUTE STALL: -nan
L2BTB TOTAL ROB OCCUPANCY AT BTB MISS: 151.299

L2C TOTAL     ACCESS:    4495841  HIT:    4044201  MISS:     451640  HIT %:    89.9543  MISS %:    10.0457   MPKI: 9.0328
L2C LOAD INSTRUCTION	ACCESS:    2768471  HIT:    2520417  MISS:     248054  HIT %:      91.04  MISS %:    8.95996  MPKI: 4.96108
L2C LOAD TRANSLATION INSTRUCTION	ACCESS:        269  HIT:         64  MISS:        205  HIT %:    23.7918  MISS %:    76.2082  MPKI: 0.0041
L2C LOAD DATA	ACCESS:     731991  HIT:     664568  MISS:      67423  HIT %:    90.7891  MISS %:    9.21091  MPKI: 1.34846
L2C RFO DATA	ACCESS:     287587  HIT:     237225  MISS:      50362  HIT %:    82.4881  MISS %:    17.5119  MPKI: 1.00724
L2C PREFETCH DATA	ACCESS:     180893  HIT:     110594  MISS:      70299  HIT %:    61.1378  MISS %:    38.8622  MPKI: 1.40598
L2C WRITEBACK DATA	ACCESS:     524816  HIT:     510741  MISS:      14075  HIT %:    97.3181  MISS %:    2.68189  MPKI: 0.2815
L2C LOAD TRANSLATION DATA	ACCESS:       1746  HIT:        549  MISS:       1197  HIT %:    31.4433  MISS %:    68.5567  MPKI: 0.02394
L2C TRANSLATION FROM L1D PREFETCHER DATA	ACCESS:         68  HIT:         43  MISS:         25  HIT %:    63.2353  MISS %:    36.7647  MPKI: 0.0005

L2C PREFETCH  REQUESTED:      84315  ISSUED:      84315  USEFUL:       8006  USELESS:      62976
L2C USEFUL LOAD PREFETCHES:       8006 PREFETCH ISSUED TO LOWER LEVEL:      70725  ACCURACY: 11.3199
 TIMELY PREFETCHES:       8006 LATE PREFETCHES: 426 DROPPED PREFETCHES: 0
L2C AVERAGE MISS LATENCY: 39.7771 cycles
L2C RQ	ACCESS:    3790184	FORWARD:          0	MERGED:          0	TO_CACHE:    3790132
L2C WQ	ACCESS:     524817	FORWARD:         54	MERGED:          0	TO_CACHE:     524817
L2C PQ	ACCESS:     188106	FORWARD:          0	MERGED:       3723	TO_CACHE:     184381

L2C Dense regions hint from L2: 0
PSCL5 TOTAL     ACCESS:       3948  HIT:       1974  MISS:       1974  HIT %:         50  MISS %:         50   MPKI: 0.03948
PSCL5 LOAD TRANSLATION INSTRUCTION	ACCESS:       3820  HIT:       1910  MISS:       1910  HIT %:         50  MISS %:         50  MPKI: 0.0382
PSCL5 TRANSLATION FROM L1D PREFETCHER INSTRUCTION	ACCESS:        128  HIT:         64  MISS:         64  HIT %:         50  MISS %:         50  MPKI: 0.00128


PSCL4 TOTAL     ACCESS:       3701  HIT:       1846  MISS:       1855  HIT %:    49.8784  MISS %:    50.1216   MPKI: 0.0371
PSCL4 LOAD TRANSLATION INSTRUCTION	ACCESS:       3274  HIT:       1787  MISS:       1487  HIT %:    54.5816  MISS %:    45.4184  MPKI: 0.02974
PSCL4 TRANSLATION FROM L1D PREFETCHER INSTRUCTION	ACCESS:        108  HIT:         59  MISS:         49  HIT %:    54.6296  MISS %:    45.3704  MPKI: 0.00098
PSCL4 LOAD TRANSLATION DATA	ACCESS:        309  HIT:          0  MISS:        309  HIT %:          0  MISS %:        100  MPKI: 0.00618
PSCL4 TRANSLATION FROM L1D PREFETCHER DATA	ACCESS:         10  HIT:          0  MISS:         10  HIT %:          0  MISS %:        100  MPKI: 0.0002


PSCL3 TOTAL     ACCESS:       3717  HIT:       1854  MISS:       1863  HIT %:    49.8789  MISS %:    50.1211   MPKI: 0.03726
PSCL3 LOAD TRANSLATION INSTRUCTION	ACCESS:       3282  HIT:       1795  MISS:       1487  HIT %:    54.6923  MISS %:    45.3077  MPKI: 0.02974
PSCL3 TRANSLATION FROM L1D PREFETCHER INSTRUCTION	ACCESS:        108  HIT:         59  MISS:         49  HIT %:    54.6296  MISS %:    45.3704  MPKI: 0.00098
PSCL3 LOAD TRANSLATION DATA	ACCESS:        317  HIT:          0  MISS:        317  HIT %:          0  MISS %:        100  MPKI: 0.00634
PSCL3 TRANSLATION FROM L1D PREFETCHER DATA	ACCESS:         10  HIT:          0  MISS:         10  HIT %:          0  MISS %:        100  MPKI: 0.0002


PSCL2 TOTAL     ACCESS:       3855  HIT:       1881  MISS:       1974  HIT %:    48.7938  MISS %:    51.2062   MPKI: 0.03948
PSCL2 LOAD TRANSLATION INSTRUCTION	ACCESS:       2061  HIT:       1819  MISS:        242  HIT %:    88.2581  MISS %:    11.7419  MPKI: 0.00484
PSCL2 TRANSLATION FROM L1D PREFETCHER INSTRUCTION	ACCESS:         62  HIT:         62  MISS:          0  HIT %:        100  MISS %:          0  MPKI: 0
PSCL2 LOAD TRANSLATION DATA	ACCESS:       1670  HIT:          0  MISS:       1670  HIT %:          0  MISS %:        100  MPKI: 0.0334
PSCL2 TRANSLATION FROM L1D PREFETCHER DATA	ACCESS:         62  HIT:          0  MISS:         62  HIT %:          0  MISS %:        100  MPKI: 0.00124


LLC TOTAL     ACCESS:     509243  HIT:     478900  MISS:      30343  HIT %:    94.0415  MISS %:    5.95845   MPKI: 0.60686
LLC LOAD INSTRUCTION	ACCESS:     248054  HIT:     247128  MISS:        926  HIT %:    99.6267  MISS %:   0.373306  MPKI: 0.01852
LLC LOAD TRANSLATION INSTRUCTION	ACCESS:        205  HIT:        182  MISS:         23  HIT %:    88.7805  MISS %:    11.2195  MPKI: 0.00046
LLC LOAD DATA	ACCESS:      66998  HIT:      63426  MISS:       3572  HIT %:    94.6685  MISS %:     5.3315  MPKI: 0.07144
LLC RFO DATA	ACCESS:      50344  HIT:      35192  MISS:      15152  HIT %:    69.9031  MISS %:    30.0969  MPKI: 0.30304
LLC PREFETCH DATA	ACCESS:      70722  HIT:      60552  MISS:      10170  HIT %:    85.6198  MISS %:    14.3802  MPKI: 0.2034
LLC WRITEBACK DATA	ACCESS:      71698  HIT:      71289  MISS:        409  HIT %:    99.4296  MISS %:   0.570448  MPKI: 0.00818
LLC LOAD TRANSLATION DATA	ACCESS:       1197  HIT:       1108  MISS:         89  HIT %:    92.5647  MISS %:    7.43525  MPKI: 0.00178
LLC TRANSLATION FROM L1D PREFETCHER DATA	ACCESS:         25  HIT:         23  MISS:          2  HIT %:         92  MISS %:          8  MPKI: 4e-05

LLC AVERAGE MISS LATENCY: 157.933 cycles
LLC RQ	ACCESS:     366839	FORWARD:          0	MERGED:          0	TO_CACHE:     366822
LLC WQ	ACCESS:      71698	FORWARD:         20	MERGED:          0	TO_CACHE:      71698
LLC PQ	ACCESS:      70725	FORWARD:          0	MERGED:          0	TO_CACHE:      70722

LLC Dense regions hint to LLC: 0

RAW hits: 1951886
Loads Generated: 12640934
Loads sent to L1D: 10689052
Stores Generated: 6953804
Stores sent to L1D: 6953810
Major fault: 0 Minor fault: 2550
Allocated PAGES: 2550

stream: 
stream:times selected: 1172481
stream:pref_filled: 121315
stream:pref_useful: 24252
stream:pref_late: 6923
stream:misses: 8015
stream:misses_by_poll: 0

CS: 
CS:times selected: 176430
CS:pref_filled: 59670
CS:pref_useful: 36519
CS:pref_late: 6930
CS:misses: 16837
CS:misses_by_poll: 6

CPLX: 
CPLX:times selected: 994907
CPLX:pref_filled: 20199
CPLX:pref_useful: 4865
CPLX:pref_late: 3229
CPLX:misses: 94477
CPLX:misses_by_poll: 4

NL_L1: 
NL:times selected: 20239
NL:pref_filled: 803
NL:pref_useful: 364
NL:pref_late: 311
NL:misses: 1841
NL:misses_by_poll: 0

total selections: 2364057
total_filled: 95650
total_useful: 35049
total_late: 18732
total_polluted: 10
total_misses_after_warmup: 774800
conflicts: 5526251

test: 114447

DRAM Statistics
 CHANNEL 0
 RQ ROW_BUFFER_HIT:      11286  ROW_BUFFER_MISS:      18635
 DBUS_CONGESTED:          9
 WQ ROW_BUFFER_HIT:       1478  ROW_BUFFER_MISS:      12696  FULL:          0

 AVG_CONGESTED_CYCLE: 6

CPU 0 Branch Prediction Accuracy: 99.8266% MPKI: 0.31708 Average ROB Occupancy at Mispredict: 194.987
Branch types
NOT_BRANCH: 40856057 81.7121%
BRANCH_DIRECT_JUMP: 548069 1.09614%
BRANCH_INDIRECT: 182603 0.365206%
BRANCH_CONDITIONAL: 6180251 12.3605%
BRANCH_DIRECT_CALL: 944984 1.88997%
BRANCH_INDIRECT_CALL: 171511 0.343022%
BRANCH_RETURN: 1116486 2.23297%
BRANCH_OTHER: 0 0%

DRAM PAGES: 1048576
Allocated PAGES: 2550
Average_ROB_Occupancy: 251.969
Average_Decode_Occupancy: 38.911
Average_FTQ_Occupancy: 15.1154
Indirect max targets: 14 Average targets: 1.14865
Branch_type:  BRANCH_DIRECT_JUMP:  Count Percentage: 3.6149 5.45149 4.64297 7.44579 3.29301 6.32205 1.23658 67.9932 
Branch_type:  BRANCH_INDIRECT:  Count Percentage: 6.06695 3.42372 8.1316 9.68984 3.35102 2.81689 0.938779 65.5812 
Branch_type:  BRANCH_CONDITIONAL:  Count Percentage: 20.7496 3.92994 1.58429 7.27481 2.43422 3.62531 0.550553 59.8513 
Branch_type:  BRANCH_DIRECT_CALL:  Count Percentage: 0.915468 1.29171 0.718411 3.82291 2.62365 2.86373 0.773779 86.9903 
Branch_type:  BRANCH_INDIRECT_CALL:  Count Percentage: 9.56332 0 3.00035 0 0.000290422 2.43432 0.993826 84.0079 
Branch_type:  BRANCH_RETURN:  Count Percentage: 4.76546 4.78763 1.1556 3.75521 3.5317 3.80897 0.511036 77.6844 
Branch_type:  BRANCH_DIRECT_JUMP:  Total Count: 39564 59665 50816 81492 36041 69193 13534 744166 
Branch_type:  BRANCH_INDIRECT:  Total Count: 22115 12480 29641 35321 12215 10268 3422 239054 
Branch_type:  BRANCH_CONDITIONAL:  Total Count: 2562973 485424 195691 898580 300674 447796 68004 7392801 
Branch_type:  BRANCH_DIRECT_CALL:  Total Count: 17361 24496 13624 72498 49755 54308 14674 1649691 
Branch_type:  BRANCH_INDIRECT_CALL:  Total Count: 32929 0 10331 0 1 8382 3422 289261 
Branch_type:  BRANCH_RETURN:  Total Count: 106819 107316 25903 84174 79164 85379 11455 1741316 
Number of unique branch instructions: 10011
Upper 32 bits: 
aaaa
ffff
ffff0000
Unique upper 32 bits: 3
Unique upper 36 bits: 3
Unique upper 40 bits: 5
Unique upper 44 bits: 32
Unique upper 48 bits: 154
Variant_0 : 1422 0.231445
Variant_1 : 2983 0.485514
Variant_2 : 0 0
Variant_3 : 0 0
Offset_3 4125
Offset_4 249
Offset_5 453
Offset_6 511
Offset_7 594
Offset_8 515
Offset_9 473
Offset_10 388
Offset_11 320
Offset_12 287
Offset_13 207
Offset_14 230
Offset_15 197
Offset_16 227
Offset_17 147
Offset_18 128
Offset_19 245
Offset_20 142
Offset_21 235
Offset_22 395
Offset_23 241
Offset_24 331
Offset_25 88
Offset_47 80
decode_dispatch_called: 26669961 74.4062
Dispatch_width: 0 14445431 54.1637 40.3012
Dispatch_width: 1 1049200 3.93401 2.92715
Dispatch_width: 2 860103 3.22499 2.39959
Dispatch_width: 3 498436 1.8689 1.39058
Dispatch_width: 4 6531166 24.4888 18.2212
Dispatch_width: 5 103128 0.386682 0.287716
Dispatch_width: 6 3182497 11.9329 8.87882
Empty_decode_cycles: 9173752 25.5938
ROB_full_cycles: 10403595 29.0249
Starvation_cycles_per_kilo_instr: 222.576
Starvation_cycles_per_kilo_instr_3: 156.233
Starvation_cycles_per_kilo_instr_0: 132.156
Branch_type_1  (3,1)  (4,9)  (5,37)  (6,71)  (7,116)  (8,127)  (9,125)  (10,99)  (11,72)  (12,51)  (13,8)  (14,2)  (15,3)  (16,4)  (18,1)  (19,4)  (20,2)  (21,1)  (22,3)  (23,2)  (24,10)  (25,12) 
Branch_type_2  (3,1)  (5,1)  (8,3)  (9,3)  (12,1)  (13,1)  (14,1)  (16,3)  (17,2)  (20,2)  (21,2)  (23,5)  (24,1)  (47,36) 
Branch_type_3  (3,4123)  (4,240)  (5,411)  (6,424)  (7,446)  (8,322)  (9,259)  (10,158)  (11,132)  (12,58)  (13,7) 
Branch_type_4  (6,4)  (7,8)  (8,26)  (9,54)  (10,62)  (11,60)  (12,98)  (13,87)  (14,102)  (15,94)  (16,103)  (17,64)  (18,58)  (19,119)  (20,74)  (21,124)  (22,210)  (23,136)  (24,191)  (25,72) 
Branch_type_5  (8,2)  (9,1)  (10,3)  (11,5)  (12,3)  (13,14)  (14,16)  (15,11)  (16,20)  (17,13)  (18,16)  (19,12)  (20,10)  (21,13)  (22,42)  (23,26)  (24,37) 
Branch_type_6  (5,4)  (6,12)  (7,24)  (8,35)  (9,31)  (10,66)  (11,51)  (12,76)  (13,90)  (14,109)  (15,89)  (16,97)  (17,68)  (18,53)  (19,110)  (20,54)  (21,95)  (22,140)  (23,72)  (24,92)  (25,4)  (47,44) 
Unique trigger count: 
Variant_0_evicts_0 : 0
Variant_0_evicts_1 : 0
Variant_0_evicts_2 : 0
Variant_0_evicts_3 : 0
Variant_1_evicts_0 : 0
Variant_1_evicts_1 : 0
Variant_1_evicts_2 : 0
Variant_1_evicts_3 : 0
Variant_2_evicts_0 : 0
Variant_2_evicts_1 : 0
Variant_2_evicts_2 : 0
Variant_2_evicts_3 : 0
Variant_3_evicts_0 : 0
Variant_3_evicts_1 : 0
Variant_3_evicts_2 : 0
Variant_3_evicts_3 : 0
BTB PER SET UNIQUE ADDR: 7 3 4 6 6 4 6 4 4 9 6 5 3 6 3 6 5 5 6 5 4 3 4 5 5 5 3 6 3 6 6 7 6 9 3 5 5 4 6 5 6 3 5 5 3 4 5 6 7 3 7 5 4 4 6 4 6 3 6 7 4 4 2 7 5 4 5 5 7 4 4 4 4 3 5 9 6 3 4 5 7 6 6 6 7 5 2 6 5 6 2 5 5 5 3 8 7 6 5 5 7 4 6 7 5 6 5 4 5 5 4 3 6 3 6 6 5 5 4 7 7 6 5 6 8 7 5 6 8 3 6 6 6 4 6 6 5 2 4 5 6 6 4 4 6 5 6 6 5 6 7 6 6 5 6 5 6 6 3 5 8 3 5 4 5 6 3 3 7 7 7 6 6 4 7 7 3 7 5 3 5 3 5 7 8 4 7 6 8 5 6 7 3 6 5 4 4 4 3 6 3 4 5 6 5 6 5 8 5 5 6 7 6 5 4 5 6 5 6 7 3 6 5 5 6 3 5 4 8 5 6 7 3 6 7 5 4 8 5 3 5 6 7 6 6 7 7 5 6 6 6 6 6 4 3 7 6 4 5 8 7 6 5 5 6 6 5 3 4 4 5 4 3 9 6 5 6 4 4 5 5 5 2 4 4 9 5 7 6 5 3 5 5 5 6 5 6 5 6 6 5 3 6 8 7 5 5 6 4 5 6 4 7 3 4 6 5 5 5 4 6 5 7 7 5 5 4 5 5 4 3 5 6 3 5 4 4 5 5 3 5 7 5 8 3 6 5 4 5 7 7 3 3 5 5 5 4 7 6 6 6 7 6 3 3 7 7 4 5 6 6 7 5 5 4 6 5 6 4 6 4 4 3 6 6 4 4 5 6 5 4 7 5 5 5 5 6 5 4 6 6 6 5 6 4 4 5 3 7 8 5 5 4 7 6 4 6 8 5 5 7 4 5 6 6 6 5 7 6 4 5 3 6 5 5 4 5 4 6 7 7 5 2 6 3 6 5 4 7 7 6 4 3 5 6 5 4 4 5 8 4 5 3 5 5 4 5 6 5 5 3 6 7 5 3 7 6 5 3 4 6 6 5 4 4 10 4 6 7 5 7 4 5 6 6 6 8 4 5 4 8 5 6 8 6 5 4 4 6 6 3 4 6 3 1 5 7 2 4 4 4 5 4 3 6 4 2 6 4 5 4 5 3 3 4 3 4 4 5 6 4 4 7 5 3 6 3 7 3 5 3 6 4 5 3 5 4 1 5 3 1 4 3 7 2 3 6 5 4 2 4 3 2 5 3 5 4 1 4 5 1 5 5 3 3 4 2 2 5 4 4 4 5 4 1 5 4 5 5 4 4 4 1 3 2 2 5 1 3 3 4 4 4 5 2 3 6 5 3 5 3 4 6 4 3 4 2 5 6 7 2 4 4 2 3 1 4 4 6 5 3 3 2 1 2 5 3 4 5 3 4 3 4 5 3 5 4 2 2 2 3 3 5 5 5 1 5 3 8 2 5 4 3 7 3 2 3 4 3 7 3 4 3 5 4 4 2 6 5 4 3 3 6 3 1 4 3 1 4 6 4 3 4 3 5 6 4 3 6 5 4 2 4 4 5 3 3 4 1 3 3 3 2 5 5 3 4 4 1 4 3 4 6 3 5 3 4 2 5 4 2 4 6 6 2 2 6 3 4 2 4 4 4 4 5 5 2 3 3 4 6 5 6 4 3 7 3 5 5 3 4 5 2 7 5 3 3 5 2 4 4 4 3 2 4 4 3 4 5 4 4 4 4 4 3 2 4 2 4 2 6 4 4 2 4 4 5 3 4 5 3 2 0 4 2 3 5 4 4 6 6 4 6 6 4 2 4 3 3 4 7 5 1 4 5 4 4 4 2 5 0 6 3 5 4 6 6 5 2 2 4 5 4 5 5 3 6 3 1 6 3 4 4 4 6 4 3 4 5 4 5 5 6 2 3 6 3 3 4 6 5 4 3 4 4 3 5 4 3 1 4 4 2 0 3 3 1 3 4 4 3 1 6 2 2 2 2 5 5 6 5 3 3 4 5 5 3 2 4 4 4 3 4 4 3 4 4 2 5 3 3 5 4 5 3 6 5 5 3 3 4 4 5 4 2 3 3 2 6 2 5 3 6 4 7 4 4 3 5 2 4 5 5 5 4 2 6 2 2 5 5 1 3 5 4 5 3 3 5 4 4 4 3 4 4 3 3 2 4 2 6 3 4 5 5 6 3 5 5 4 6 3 7 3 5 6 4 3 2 2 4 4 4 5 3 6 1 3 3 3 2 5 4 4 6 2 5 6 5 1 3 3 3 2 3 6 3 5 3 5 6 4 4 5 6 2 5 4 4 5 4 4 3 5 3 4 3 4 4 5 4 3 5 2 2 4 4 4 6 4 2 6 3 1 4 3 4 4 3 2 6 4 7 3 2 3 6 1 3 2 3 5 3 6 5 3 4 4 3 2 4 3 5 6 2 5 2 6 4 3 2 4 4 3 6 6 6 5 4 6 4 3 3 4 5 6 3 6 2 3 4 3 6 2 2 4 6 4 5 3 5 4 2 3 3 5 2 5 6 3 2 5 1 1 4 1 4 3 2 2 4 3 4 3 3 3 6 6 4 6 5 2 4 4 1 2 5 3 2 4 4 2 5 4 5 5 4 2 4 3 4 4 4 3 3 4 3 3 4 2 3 2 2 3 4 3 3 1 5 2 5 3 4 5 3 8 6 4 6 4 4 1 5 4 5 5 4 6 4 3 6 2 4 4 4 5 3 5 3 4 6 5 6 4 4 2 7 4 1 4 2 5 4 2 4 3 3 3 3 5 2 5 3 4 3 5 5 6 3 5 5 4 4 4 4 3 3 4 4 4 5 5 5 6 5 4 5 2 4 4 3 3 6 5 4 5 3 6 3 6 3 3 4 5 4 6 3 2 5 5 5 7 4 2 3 3 3 5 2 1 4 4 4 3 4 2 4 4 4 4 3 4 3 5 3 5 4 4 2 4 5 5 2 4 6 5 3 2 5 2 4 3 3 6 4 3 6 1 5 4 4 6 6 3 3 3 4 5 9 7 4 6 2 6 3 6 3 7 3 6 2 2 3 4 4 2 3 4 3 2 1 6 2 4 0 5 3 4 4 2 3 4 4 3 3 3 6 3 4 4 3 5 7 2 5 2 3 4 3 3 4 4 3 5 4 5 4 7 2 4 6 3 4 6 4 5 3 5 6 2 4 2 4 3 5 2 4 3 5 5 3 4 3 4 1 3 6 2 6 4 4 3 6 6 4 3 3 4 4 5 4 2 4 1 5 3 3 2 5 4 6 5 4 6 6 4 5 4 6 3 4 3 3 4 2 4 4 3 5 2 4 3 4 5 4 3 2 4 4 3 6 5 4 2 5 5 7 5 3 4 3 2 2 4 4 3 5 3 4 4 3 6 4 2 5 2 
BTB PER SET COUNT: 7 1478 1479 1478 6 6 6 4 4 3614 50 5 3 6 3 6 5 7 6 5 6 3 5 5 481 5 3 6 9 6 6 481 6 1152 5 5 9 4 6 5 6 3 5 5 3 4 479 6 7 3 7 5 4 4 6 4 953 4 6 1483 1005 6 2 7 5 4 6 5 11 4 4 4 4 949 5 10 7 3 1005 5 7 6 1423 8 7 6 2 6 954 10 2 23 5 6 3 8 7 6 5 5 8 4 8 8 362 6 5 4 5 5 4 3 492 3 6 732 5 5 10 1483 12 7 902 12 10 9 5 12 8 3 1007 11 8 4 6 9 5 2 4 951 1009 6 4 4 6 5 8 6 7 8 7 536 7 5 7 1008 6 6 3 5 8 3 5 4 5 8 3 4 8 1013 268 7 7 4 8 8 3 7 5 4 5 3 5 8 92 4 13 6 10 6 536 7 3 1011 7 5 4 4 1478 6 3 1479 9 7 5 6 6 10 5 5 8 9 6 362 4 5 6 478 364 7 3 6 5 5 6 3 7 4 662 5 6 8 3 6 952 5 4 9 6 3 5 6 7 479 6 8 7745 7 6 6 134 6 8 7 3 8 6 4 6 9 7 6 5 7 6 7 5 3 4 4 5 4 3 10 6 6 13 5 4 7 5 93 2 4 4 9 5 9 6 5 3 5 5 5 6 5 9 633 6 6 5 4 7 172 202 5 5 6 4 1480 1113 4 15 3 4 6 5 5 5 4 6 5 1622 7 5 5 4 5 5 4 3 7 22 3 6 4 4 5 5 3 7 1008 5 8 3 6 6 4 5 7 7 3 3 6 5 5 4 1427 11 17 8 8 1483 3 3 8 155 4 5 6 6 1425 2481 6 4 6 5 8 4 7 4 5 3 7 6 4 4 5 6 5 4 7 5 5 6 5 6 6 361 6 6 6 7 6 4 4 5 43 8 9 6 5 5 7 7 4 6 565 5 5 7 4 6 6 6 6 5 7 7 6 5 949 7 5 6 27 5 4 3788 7 8 6 475 6 574 7 1480 5 7 9 8 293 3 5 6 5 5 4 6 8 4 5 3 5 5 4 5 6 5 5 3 90 7 5 3 7 8 5 4 4 6 6 6 1479 76 288 4 1481 7 5 1008 4 48 6 6 11 12 4 5 4 8 5 6 8 1364 6 4 4 6 365 3 4 6 3 1 5 7 476 4 4 6 5 4 5 452 4 2 10 4 7 1479 5 4 7 30 4 4 4 6 6 4 5 7 5 3 1482 3 7 3 5 3 6 950 5 3 5 4 1 5 4 1 4 3 8 2 3 1896 5 4 2 4 4 2 5 3 5 5 1 4 5 2 5 1006 3 3 4 2 2 5 1066 4 6 5 4 1 5 1479 6 6 4 4 4 947 3 5 2 950 1 3 4 4 4 1011 5 2 3 18 5 14762 5 3 4 8 6 3 4 2 5 6 8 946 4 4 3 3 2 5 4 8 5 3 3 2 1 2 5 3 4 6 4 4 3 4 6 3 5 4 2 2 2 3 5 5 5 5 1 6 4 9 2 5 4 3 3590 3 2 3 4 3 9 1004 5 3 6 4 4 2 1481 5 4 3 3 6 4 1 4 3 1 4 6 4 3 4 3 5 6 4 3 7 6 6 2 5 4 5 476 3 5 1 3 3 4 2 5 5 3 5 4 1 4 3 4 9 4 5 4 4 2 5 96 2 4 7 8 2 3 6 3 4 2 4 5 4 4 5 5 2 3 23 4 10 5 6 72 3 8 3 3430 5 3 15 6 3 7 5 3 5 5 2 5 5 4 3 2 4 4 3 4 255 4 8 4 4 4 5 2 4 2 5 2 6 4 4 2 4 4 5 3 4 7 3 2 0 4 2 3 5 4 4 7 11 4 6 6 4 2 4 3 3 477 7 6 1 4 5 4 4 4 2 5 0 1008 949 5 4 7 6 6 3 2 4 5 4 97 5 4 6 4 1 8 3 6 4 4 479 4 3 4 6 4 5 5 7 2 3 6 3 3 4 6 5 4 37 4 4 3 7 5 3 1 1479 4 2 0 3 3 1 3 4 4 3 1 6 949 2 2 2 5 5 952 5 3 4 4 5 5 3 2 5 5 5 3 4 4 3 5 5 2 5 4 3 5 4 5 3 6 5 1006 3 3 4 4 5 5 2 3 3 2 9 2 5 3 6 5 954 4 4 4 1897 2 4 5 6 5 4 2 6 2 2 5 5 1 4 9 6 5 3 3 5 4 4 4 3 4 4 3 3 1039 4 2 6 4 4 5 5 7 4 1480 5 4 6 4 8 1893 6 6 4 3 2 2 4 4 4 5 3 6 1 3 4 3 2 7 4 4 8 2 5 535 7 1 3 3 3 2 3 479 3 5 3 5 6 477 8 5 6 6 952 4 4 7 4 4 3 6 3 4 3 190 6 5 6 3 7 2 2 5 4 4 9 4 2 445 3 1 6 3 4 4 4 7 10 5 7 4 2 3 13 1 3 2 3 5 3 6 5 3 25 4 111 2 5 3 7 2481 2 419 2 6 4 4 2 4 6 3 6 6 6 115 4 7 5 3 3 4 6 7 3 6 2 3 4 3 6 2 2 6 6 4 6 3 6 20660 2 3 3 5 2 951 6 4 2 5 1 1 5 1 4 4 2 2 4 3 4 3 3 3 6 6 9 8 1424 3 5 4 1 2 5 3 3 950 5 2 5 4 267 5 4 2 10 3 4 4 6 3 2019 4 3 3 4 3 3 3 2 5 4 3 3 1 6 2 1480 4 4 1480 1004 10 6 4 6 4 362 1 5 4 6 5 4 7 4 3 1321 2 7 4 4 17 3 5 3 4 9 13 6 5 4 3 1482 4 1 4 2 478 4 2 4 3 3 3 3 5 2 75 3 5 1004 6 5 8 3 5 5 4 4 4 6 3 3 4 4 4 5 116 5 1100 5 4 6 2 4 4 4 3 7 5 4 7 3 6 3 7 5 3 6 5 5 21 3 2 8 5 5 8 4 2 3 3 3 5 2 1 5 4 5 3 4 3 4 1480 4 1480 3 5 3 6 3 5 4 5 2 5 5 5 2 4 7 5 3 2 5 3 4 3 3 363 4 4 10 1 6 5 10 7 6 3 4 3 4 5 9 9 4 7 2 6 7 6 3 8 3 480 2 2 3 4 4 2 3 4 4 2 1 6 2 4 0 5 3 4 6 2 3 5 5 3 5 3 6 4 4 5 4 5 7 2 5 2 3 226 3 3 4 4 3 7 4 9 7 7 2 4 50 3 4 2339 4 5 3 5 6 2 5 2 4 3 6 2 5 476 5 5 3 96 3 4 1 3 6 2 6 4 4 3 6 6 4 1482 4 7 4 5 4 2 4 1 5 3 3 2 5 4 7 5 1005 6 6 4 5 4 6 3 4 3 3 4 2 7 4 3 5 2 4 3 4 5 4 3 2 5 5 3 8 5 4 2 5 5 11 7 3 4 3 2 2 4 4 4 5 3 1006 4 3 7 4 2 5 2 
To predecode: 0
Predecoding something: 0
Predecode request dropped: 0
sizeofblock_0 0
sizeofblock_1 41050
sizeofblock_2 87517
sizeofblock_3 0
sizeofblock_4 0
sizeofblock_5 0
sizeofblock_6 0
sizeofblock_7 0
sizeofblock_8 0
Variant_0 Correct: 1620332 Incorrect: 0 Accuracy: 1
Variant_1 Correct: 5764578 Incorrect: 0 Accuracy: 1
Variant_2 Correct: 0 Incorrect: 0 Accuracy: -nan
Variant_3 Correct: 0 Incorrect: 0 Accuracy: -nan
