
*** ChampSim Multicore Out-of-Order Simulator ***

Warmup Instructions: 50000000
Simulation Instructions: 50000000
Number of CPUs: 1
LLC sets: 2048
LLC ways: 16
Off-chip DRAM Size: 4096 MB Channels: 1 Width: 64-bit Data Rate: 6400 MT/s
CPU 0 runs ./micro_traces/srv514.trace.gz
.gz
ITLB has LRU replacement policy
DTLB has LRU replacement policy
STLB has LRU replacement policy
FDIP Prefetcher at L1I
L1I has LRU replacement policy
L1D has LRU replacement policy
Initialize SRRIP state for L2C
Initialize DRRIP state for LLC
Heartbeat_Variant_0 : 1117 0.272705 per_variant_size: 0 1117 0 0 0 0 0 0 0 
Heartbeat_Variant_1 : 2618 0.63916 per_variant_size: 0 1033 1585 0 0 0 0 0 0 
Heartbeat_Variant_2 : 0 0 per_variant_size: 0 0 0 0 0 0 0 0 0 
Heartbeat_Variant_3 : 0 0 per_variant_size: 0 0 0 0 0 0 0 0 0 
Heartbeat_Variant_0_evicts 0 : 12199 1 : 15173 2 : 0 3 : 0 
Heartbeat_Variant_1_evicts 0 : 15063 1 : 0 2 : 0 3 : 0 
Heartbeat_Variant_2_evicts 0 : 0 1 : 0 2 : 0 3 : 0 
Heartbeat_Variant_3_evicts 0 : 0 1 : 0 2 : 0 3 : 0 
Heartbeat CPU 0 instructions: 10000001 cycles: 2795733 heartbeat IPC: 3.57688 cumulative IPC: 3.57688 (Simulation time: 0 hr 1 min 43 sec) 
Heartbeat_Variant_0 : 1131 0.276123 per_variant_size: 0 1131 0 0 0 0 0 0 0 
Heartbeat_Variant_1 : 2662 0.649902 per_variant_size: 0 1009 1653 0 0 0 0 0 0 
Heartbeat_Variant_2 : 0 0 per_variant_size: 0 0 0 0 0 0 0 0 0 
Heartbeat_Variant_3 : 0 0 per_variant_size: 0 0 0 0 0 0 0 0 0 
Heartbeat_Variant_0_evicts 0 : 11972 1 : 15356 2 : 0 3 : 0 
Heartbeat_Variant_1_evicts 0 : 15354 1 : 0 2 : 0 3 : 0 
Heartbeat_Variant_2_evicts 0 : 0 1 : 0 2 : 0 3 : 0 
Heartbeat_Variant_3_evicts 0 : 0 1 : 0 2 : 0 3 : 0 
Heartbeat CPU 0 instructions: 20000001 cycles: 5589206 heartbeat IPC: 3.57977 cumulative IPC: 3.57833 (Simulation time: 0 hr 3 min 21 sec) 
Heartbeat_Variant_0 : 1140 0.27832 per_variant_size: 0 1140 0 0 0 0 0 0 0 
Heartbeat_Variant_1 : 2667 0.651123 per_variant_size: 0 984 1683 0 0 0 0 0 0 
Heartbeat_Variant_2 : 0 0 per_variant_size: 0 0 0 0 0 0 0 0 0 
Heartbeat_Variant_3 : 0 0 per_variant_size: 0 0 0 0 0 0 0 0 0 
Heartbeat_Variant_0_evicts 0 : 11747 1 : 15360 2 : 0 3 : 0 
Heartbeat_Variant_1_evicts 0 : 15354 1 : 0 2 : 0 3 : 0 
Heartbeat_Variant_2_evicts 0 : 0 1 : 0 2 : 0 3 : 0 
Heartbeat_Variant_3_evicts 0 : 0 1 : 0 2 : 0 3 : 0 
Heartbeat CPU 0 instructions: 30000000 cycles: 8384036 heartbeat IPC: 3.57803 cumulative IPC: 3.57823 (Simulation time: 0 hr 5 min 0 sec) 
Heartbeat_Variant_0 : 1150 0.280762 per_variant_size: 0 1150 0 0 0 0 0 0 0 
Heartbeat_Variant_1 : 2659 0.64917 per_variant_size: 0 964 1695 0 0 0 0 0 0 
Heartbeat_Variant_2 : 0 0 per_variant_size: 0 0 0 0 0 0 0 0 0 
Heartbeat_Variant_3 : 0 0 per_variant_size: 0 0 0 0 0 0 0 0 0 
Heartbeat_Variant_0_evicts 0 : 12123 1 : 15203 2 : 0 3 : 0 
Heartbeat_Variant_1_evicts 0 : 15193 1 : 0 2 : 0 3 : 0 
Heartbeat_Variant_2_evicts 0 : 0 1 : 0 2 : 0 3 : 0 
Heartbeat_Variant_3_evicts 0 : 0 1 : 0 2 : 0 3 : 0 
Heartbeat CPU 0 instructions: 40000003 cycles: 11180235 heartbeat IPC: 3.57628 cumulative IPC: 3.57774 (Simulation time: 0 hr 6 min 39 sec) 
Heartbeat_Variant_0 : 1132 0.276367 per_variant_size: 0 1132 0 0 0 0 0 0 0 
Heartbeat_Variant_1 : 2679 0.654053 per_variant_size: 0 1007 1672 0 0 0 0 0 0 
Heartbeat_Variant_2 : 0 0 per_variant_size: 0 0 0 0 0 0 0 0 0 
Heartbeat_Variant_3 : 0 0 per_variant_size: 0 0 0 0 0 0 0 0 0 
Heartbeat_Variant_0_evicts 0 : 11941 1 : 15075 2 : 0 3 : 0 
Heartbeat_Variant_1_evicts 0 : 15093 1 : 0 2 : 0 3 : 0 
Heartbeat_Variant_2_evicts 0 : 0 1 : 0 2 : 0 3 : 0 
Heartbeat_Variant_3_evicts 0 : 0 1 : 0 2 : 0 3 : 0 
Heartbeat CPU 0 instructions: 50000000 cycles: 13974828 heartbeat IPC: 3.57834 cumulative IPC: 3.57786 (Simulation time: 0 hr 8 min 18 sec) 

Warmup complete CPU 0 instructions: 50000004 cycles: 13974829 (Simulation time: 0 hr 8 min 18 sec) 

Cycle: 20000000 FTQ IN: 57435093 FTQ occupancy: 18.6945 DECODE IN: 57435093 DECODE occupancy: 47.9695 ROB IN: 57435090 ROB occupancy: 290.636 ROB OUT: 57435011
Heartbeat_Variant_0 : 1153 0.281494 per_variant_size: 0 1153 0 0 0 0 0 0 0 
Heartbeat_Variant_1 : 2660 0.649414 per_variant_size: 0 998 1662 0 0 0 0 0 0 
Heartbeat_Variant_2 : 0 0 per_variant_size: 0 0 0 0 0 0 0 0 0 
Heartbeat_Variant_3 : 0 0 per_variant_size: 0 0 0 0 0 0 0 0 0 
Heartbeat_Variant_0_evicts 0 : 12095 1 : 15002 2 : 0 3 : 0 
Heartbeat_Variant_1_evicts 0 : 14981 1 : 0 2 : 0 3 : 0 
Heartbeat_Variant_2_evicts 0 : 0 1 : 0 2 : 0 3 : 0 
Heartbeat_Variant_3_evicts 0 : 0 1 : 0 2 : 0 3 : 0 
Heartbeat CPU 0 instructions: 60000001 cycles: 22106399 heartbeat IPC: 1.22977 cumulative IPC: 1.22977 (Simulation time: 0 hr 9 min 51 sec) 
Cycle: 30000000 FTQ IN: 12146861 FTQ occupancy: 8.68912 DECODE IN: 12146843 DECODE occupancy: 19.6918 ROB IN: 12146786 ROB occupancy: 151.788 ROB OUT: 12146653
Heartbeat_Variant_0 : 1130 0.275879 per_variant_size: 0 1130 0 0 0 0 0 0 0 
Heartbeat_Variant_1 : 2685 0.655518 per_variant_size: 0 992 1693 0 0 0 0 0 0 
Heartbeat_Variant_2 : 0 0 per_variant_size: 0 0 0 0 0 0 0 0 0 
Heartbeat_Variant_3 : 0 0 per_variant_size: 0 0 0 0 0 0 0 0 0 
Heartbeat_Variant_0_evicts 0 : 12345 1 : 15366 2 : 0 3 : 0 
Heartbeat_Variant_1_evicts 0 : 15390 1 : 0 2 : 0 3 : 0 
Heartbeat_Variant_2_evicts 0 : 0 1 : 0 2 : 0 3 : 0 
Heartbeat_Variant_3_evicts 0 : 0 1 : 0 2 : 0 3 : 0 
Heartbeat CPU 0 instructions: 70000000 cycles: 30338226 heartbeat IPC: 1.2148 cumulative IPC: 1.22224 (Simulation time: 0 hr 11 min 25 sec) 
Heartbeat_Variant_0 : 1122 0.273926 per_variant_size: 0 1122 0 0 0 0 0 0 0 
Heartbeat_Variant_1 : 2693 0.657471 per_variant_size: 0 991 1702 0 0 0 0 0 0 
Heartbeat_Variant_2 : 0 0 per_variant_size: 0 0 0 0 0 0 0 0 0 
Heartbeat_Variant_3 : 0 0 per_variant_size: 0 0 0 0 0 0 0 0 0 
Heartbeat_Variant_0_evicts 0 : 12158 1 : 15158 2 : 0 3 : 0 
Heartbeat_Variant_1_evicts 0 : 15166 1 : 0 2 : 0 3 : 0 
Heartbeat_Variant_2_evicts 0 : 0 1 : 0 2 : 0 3 : 0 
Heartbeat_Variant_3_evicts 0 : 0 1 : 0 2 : 0 3 : 0 
Heartbeat CPU 0 instructions: 80000002 cycles: 38430445 heartbeat IPC: 1.23576 cumulative IPC: 1.22671 (Simulation time: 0 hr 12 min 58 sec) 
Cycle: 40000000 FTQ IN: 12378148 FTQ occupancy: 8.71052 DECODE IN: 12378140 DECODE occupancy: 19.9972 ROB IN: 12378147 ROB occupancy: 155.18 ROB OUT: 12378026
Heartbeat_Variant_0 : 1155 0.281982 per_variant_size: 0 1155 0 0 0 0 0 0 0 
Heartbeat_Variant_1 : 2669 0.651611 per_variant_size: 0 957 1712 0 0 0 0 0 0 
Heartbeat_Variant_2 : 0 0 per_variant_size: 0 0 0 0 0 0 0 0 0 
Heartbeat_Variant_3 : 0 0 per_variant_size: 0 0 0 0 0 0 0 0 0 
Heartbeat_Variant_0_evicts 0 : 12405 1 : 15759 2 : 0 3 : 0 
Heartbeat_Variant_1_evicts 0 : 15727 1 : 0 2 : 0 3 : 0 
Heartbeat_Variant_2_evicts 0 : 0 1 : 0 2 : 0 3 : 0 
Heartbeat_Variant_3_evicts 0 : 0 1 : 0 2 : 0 3 : 0 
Heartbeat CPU 0 instructions: 90000000 cycles: 46711824 heartbeat IPC: 1.20753 cumulative IPC: 1.22186 (Simulation time: 0 hr 14 min 31 sec) 
Cycle: 50000000 FTQ IN: 12062335 FTQ occupancy: 8.62607 DECODE IN: 12062359 DECODE occupancy: 19.4309 ROB IN: 12062412 ROB occupancy: 150.197 ROB OUT: 12062729
*** Reached end of trace for Core: 0 Repeating trace: ./micro_traces/srv514.trace.gz
Heartbeat_Variant_0 : 1138 0.277832 per_variant_size: 0 1138 0 0 0 0 0 0 0 
Heartbeat_Variant_1 : 2688 0.65625 per_variant_size: 0 988 1700 0 0 0 0 0 0 
Heartbeat_Variant_2 : 0 0 per_variant_size: 0 0 0 0 0 0 0 0 0 
Heartbeat_Variant_3 : 0 0 per_variant_size: 0 0 0 0 0 0 0 0 0 
Heartbeat_Variant_0_evicts 0 : 12207 1 : 15067 2 : 0 3 : 0 
Heartbeat_Variant_1_evicts 0 : 15084 1 : 0 2 : 0 3 : 0 
Heartbeat_Variant_2_evicts 0 : 0 1 : 0 2 : 0 3 : 0 
Heartbeat_Variant_3_evicts 0 : 0 1 : 0 2 : 0 3 : 0 
Heartbeat CPU 0 instructions: 100000002 cycles: 54827470 heartbeat IPC: 1.23219 cumulative IPC: 1.22391 (Simulation time: 0 hr 16 min 5 sec) 
Finished CPU 0 instructions: 50000002 cycles: 40852642 cumulative IPC: 1.22391 (Simulation time: 0 hr 16 min 5 sec) 

ChampSim completed all CPUs

Region of Interest Statistics

CPU 0 cumulative IPC: 1.22391 instructions: 50000002 cycles: 40852642
 Fetch stage stalled: 65.5869  Sim cycles: 40852642 fetch stall cycle: 26793982
 Empty decode stage: 52.4516  Sim cycles: 40852642 fetch stall cycle: 21427855
ITLB TOTAL     ACCESS:    5662745  HIT:    5172416  MISS:     490329  HIT %:    91.3411  MISS %:    8.65886   MPKI: 9.80658
ITLB LOAD TRANSLATION INSTRUCTION	ACCESS:    5543255  HIT:    5052926  MISS:     490329  HIT %:    91.1545  MISS %:    8.84551  MPKI: 9.80658
ITLB TRANSLATION FROM L1D PREFETCHER INSTRUCTION	ACCESS:     119490  HIT:     119490  MISS:          0  HIT %:        100  MISS %:          0  MPKI: 0

ITLB AVERAGE MISS LATENCY: 9.04433 cycles
ITLB RQ	ACCESS:    7580061	FORWARD:          0	MERGED:    1425884	TO_CACHE:    6154177

DTLB TOTAL     ACCESS:    9138159  HIT:    8665273  MISS:     472886  HIT %:    94.8252  MISS %:    5.17485   MPKI: 9.45772
DTLB LOAD TRANSLATION DATA	ACCESS:    9138159  HIT:    8665273  MISS:     472886  HIT %:    94.8252  MISS %:    5.17485  MPKI: 9.45772

DTLB AVERAGE MISS LATENCY: 9.31734 cycles
DTLB RQ	ACCESS:   13450916	FORWARD:          0	MERGED:    4277516	TO_CACHE:    9173400

STLB TOTAL     ACCESS:    1221049  HIT:    1218922  MISS:       2127  HIT %:    99.8258  MISS %:   0.174194   MPKI: 0.04254
STLB LOAD TRANSLATION INSTRUCTION	ACCESS:     490329  HIT:     490068  MISS:        261  HIT %:    99.9468  MISS %:  0.0532296  MPKI: 0.00522
STLB LOAD TRANSLATION DATA	ACCESS:     472759  HIT:     470904  MISS:       1855  HIT %:    99.6076  MISS %:   0.392378  MPKI: 0.0371
STLB TRANSLATION FROM L1D PREFETCHER DATA	ACCESS:     257961  HIT:     257950  MISS:         11  HIT %:    99.9957  MISS %: 0.00426421  MPKI: 0.00022

STLB AVERAGE MISS LATENCY: 67.859 cycles
STLB RQ	ACCESS:    1365451	FORWARD:          0	MERGED:     144370	TO_CACHE:    1221081

STLB Hit, L1D data hit: 0
STLB Hit, L2C data hit: 0
STLB Hit, LLC data hit: 0
STLB Hit, LLC data miss: 0
STLB STLB hints to L2: 0
L1D TOTAL     ACCESS:   13219292  HIT:   12060646  MISS:    1158646  HIT %:    91.2352  MISS %:    8.76481   MPKI: 23.1729
L1D LOAD DATA	ACCESS:    6698718  HIT:    5933649  MISS:     765069  HIT %:    88.5789  MISS %:    11.4211  MPKI: 15.3014
L1D RFO DATA	ACCESS:    6182376  HIT:    5893764  MISS:     288612  HIT %:    95.3317  MISS %:     4.6683  MPKI: 5.77224
L1D PREFETCH DATA	ACCESS:     338198  HIT:     233233  MISS:     104965  HIT %:    68.9634  MISS %:    31.0366  MPKI: 2.0993

L1D PREFETCH  REQUESTED:     804785  ISSUED:     804785  USEFUL:      47575  USELESS:      70294
L1D USEFUL LOAD PREFETCHES:      47575 PREFETCH ISSUED TO LOWER LEVEL:     117963  ACCURACY: 40.3304
 TIMELY PREFETCHES:      47575 LATE PREFETCHES: 12919 DROPPED PREFETCHES: 5
L1D AVERAGE MISS LATENCY: 388580 cycles
L1D RQ	ACCESS:   10783913	FORWARD:          0	MERGED:    3886749	TO_CACHE:    6731327
L1D WQ	ACCESS:    6901403	FORWARD:     166150	MERGED:     181814	TO_CACHE:    6719589
L1D PQ	ACCESS:     402549	FORWARD:          0	MERGED:          0	TO_CACHE:     402236

L1D UNIQUE REGIONS ACCESSED: 0
L1D REGIONS CONFLICTS: 0
L1D Cross Page Prefetch Requests: 5811
L1D Same Page Prefetch Requests: 818670
L1D ROI Sum of L1D PQ occupancy: 5096239
L1D PREFETCHES PUSHED FROM L2C: 0
L1I TOTAL     ACCESS:    6976889  HIT:    4234377  MISS:    2742512  HIT %:    60.6915  MISS %:    39.3085   MPKI: 54.8502
L1I LOAD INSTRUCTION	ACCESS:    6432861  HIT:    3690349  MISS:    2742512  HIT %:    57.3671  MISS %:    42.6329  MPKI: 54.8502
L1I PREFETCH INSTRUCTION	ACCESS:     544028  HIT:     544028  MISS:          0  HIT %:        100  MISS %:          0  MPKI: 0

L1I PREFETCH  REQUESTED:    1259962  ISSUED:    1259962  USEFUL:          0  USELESS:          0
L1I USEFUL LOAD PREFETCHES:          0 PREFETCH ISSUED TO LOWER LEVEL:          0  ACCURACY: -nan
 TIMELY PREFETCHES:          0 LATE PREFETCHES: 0 DROPPED PREFETCHES: 0
L1I AVERAGE MISS LATENCY: 17.5948 cycles
L1I RQ	ACCESS:    9481608	FORWARD:          0	MERGED:    2803230	TO_CACHE:    6678378
L1I PQ	ACCESS:    1259962	FORWARD:          0	MERGED:     358279	TO_CACHE:     901683

L1BTB TOTAL     ACCESS:    5681153  HIT:    2078171  MISS:    3602982  HIT %:    36.5801  MISS %:    63.4199   MPKI: 72.0596
L1BTB BRANCH_DIRECT_JUMP	ACCESS:     545085 HIT:     144163 MISS:     400922 AVERAGE STALL: 42.3688 AVERAGE FETCH STALL: 19.094 AVERAGE FETCH QUEUE STALL: 12.5905 AVERAGE DECODE STALL: 9.85746 AVERAGE EXECUTE STALL: 5.9544e+14
L1BTB BRANCH_INDIRECT	ACCESS:     181892 HIT:      65662 MISS:     116230 AVERAGE STALL: 98.3782 AVERAGE FETCH STALL: 13.2817 AVERAGE FETCH QUEUE STALL: 11.0493 AVERAGE DECODE STALL: 8.85806 AVERAGE EXECUTE STALL: 64.2349
L1BTB BRANCH_CONDITIONAL	ACCESS:    2737884 HIT:    1454253 MISS:    1283631 AVERAGE STALL: 42.2425 AVERAGE FETCH STALL: 22.8329 AVERAGE FETCH QUEUE STALL: 10.4265 AVERAGE DECODE STALL: 8.23935 AVERAGE EXECUTE STALL: 2.22529e+14
L1BTB BRANCH_DIRECT_CALL	ACCESS:     937389 HIT:     104299 MISS:     833090 AVERAGE STALL: 43.8725 AVERAGE FETCH STALL: 22.8012 AVERAGE FETCH QUEUE STALL: 11.2708 AVERAGE DECODE STALL: 9.03848 AVERAGE EXECUTE STALL: 1.73963e+14
L1BTB BRANCH_INDIRECT_CALL	ACCESS:     170769 HIT:      21330 MISS:     149439 AVERAGE STALL: 125.622 AVERAGE FETCH STALL: 16.4895 AVERAGE FETCH QUEUE STALL: 9.31195 AVERAGE DECODE STALL: 7.94673 AVERAGE EXECUTE STALL: 91.3445
L1BTB BRANCH_RETURN	ACCESS:    1108134 HIT:     288464 MISS:     819670 AVERAGE STALL: 41.6618 AVERAGE FETCH STALL: 18.3963 AVERAGE FETCH QUEUE STALL: 7.55833 AVERAGE DECODE STALL: 6.77128 AVERAGE EXECUTE STALL: 2.47724e+14
L1BTB BRANCH_OTHER ACCESS:          0 HIT:          0 MISS:          0 AVERAGE STALL: -nan AVERAGE FETCH STALL: -nan AVERAGE FETCH QUEUE STALL: -nan AVERAGE DECODE STALL: -nan AVERAGE EXECUTE STALL: -nan
L1BTB TOTAL ROB OCCUPANCY AT BTB MISS: 11.4059

L2BTB TOTAL     ACCESS:    3577706  HIT:    3256130  MISS:     321576  HIT %:    91.0117  MISS %:    8.98833   MPKI: 6.43152
L2BTB BRANCH_DIRECT_JUMP	ACCESS:     396761 HIT:     369936 MISS:      26825 AVERAGE STALL: 42.3688 AVERAGE FETCH STALL: 19.094 AVERAGE FETCH QUEUE STALL: 12.5905 AVERAGE DECODE STALL: 9.85746 AVERAGE EXECUTE STALL: 5.9544e+14
L2BTB BRANCH_INDIRECT	ACCESS:     106021 HIT:      99474 MISS:       6547 AVERAGE STALL: 98.3782 AVERAGE FETCH STALL: 13.2817 AVERAGE FETCH QUEUE STALL: 11.0493 AVERAGE DECODE STALL: 8.85806 AVERAGE EXECUTE STALL: 64.2349
L2BTB BRANCH_CONDITIONAL	ACCESS:    1283631 HIT:    1200323 MISS:      83308 AVERAGE STALL: 42.2425 AVERAGE FETCH STALL: 22.8329 AVERAGE FETCH QUEUE STALL: 10.4265 AVERAGE DECODE STALL: 8.23935 AVERAGE EXECUTE STALL: 2.22529e+14
L2BTB BRANCH_DIRECT_CALL	ACCESS:     833090 HIT:     727015 MISS:     106075 AVERAGE STALL: 43.8725 AVERAGE FETCH STALL: 22.8012 AVERAGE FETCH QUEUE STALL: 11.2708 AVERAGE DECODE STALL: 9.03848 AVERAGE EXECUTE STALL: 1.73963e+14
L2BTB BRANCH_INDIRECT_CALL	ACCESS:     139918 HIT:     114202 MISS:      25716 AVERAGE STALL: 125.622 AVERAGE FETCH STALL: 16.4895 AVERAGE FETCH QUEUE STALL: 9.31195 AVERAGE DECODE STALL: 7.94673 AVERAGE EXECUTE STALL: 91.3445
L2BTB BRANCH_RETURN	ACCESS:     818285 HIT:     745180 MISS:      73105 AVERAGE STALL: 41.6618 AVERAGE FETCH STALL: 18.3963 AVERAGE FETCH QUEUE STALL: 7.55833 AVERAGE DECODE STALL: 6.77128 AVERAGE EXECUTE STALL: 2.47724e+14
L2BTB BRANCH_OTHER ACCESS:          0 HIT:          0 MISS:          0 AVERAGE STALL: -nan AVERAGE FETCH STALL: -nan AVERAGE FETCH QUEUE STALL: -nan AVERAGE DECODE STALL: -nan AVERAGE EXECUTE STALL: -nan
L2BTB TOTAL ROB OCCUPANCY AT BTB MISS: 127.793

L2C TOTAL     ACCESS:    4513134  HIT:    4005515  MISS:     507619  HIT %:    88.7524  MISS %:    11.2476   MPKI: 10.1524
L2C LOAD INSTRUCTION	ACCESS:    2742512  HIT:    2453684  MISS:     288828  HIT %:    89.4685  MISS %:    10.5315  MPKI: 5.77656
L2C LOAD TRANSLATION INSTRUCTION	ACCESS:        294  HIT:         79  MISS:        215  HIT %:    26.8707  MISS %:    73.1293  MPKI: 0.0043
L2C LOAD DATA	ACCESS:     752117  HIT:     673986  MISS:      78131  HIT %:    89.6119  MISS %:    10.3881  MPKI: 1.56262
L2C RFO DATA	ACCESS:     288521  HIT:     238983  MISS:      49538  HIT %:    82.8304  MISS %:    17.1696  MPKI: 0.99076
L2C PREFETCH DATA	ACCESS:     202288  HIT:     128220  MISS:      74068  HIT %:    63.3849  MISS %:    36.6151  MPKI: 1.48136
L2C WRITEBACK DATA	ACCESS:     525454  HIT:     510033  MISS:      15421  HIT %:    97.0652  MISS %:     2.9348  MPKI: 0.30842
L2C LOAD TRANSLATION DATA	ACCESS:       1926  HIT:        516  MISS:       1410  HIT %:    26.7913  MISS %:    73.2087  MPKI: 0.0282
L2C TRANSLATION FROM L1D PREFETCHER DATA	ACCESS:         22  HIT:         14  MISS:          8  HIT %:    63.6364  MISS %:    36.3636  MPKI: 0.00016

L2C PREFETCH  REQUESTED:      91287  ISSUED:      91287  USEFUL:       8625  USELESS:      65822
L2C USEFUL LOAD PREFETCHES:       8625 PREFETCH ISSUED TO LOWER LEVEL:      74454  ACCURACY: 11.5843
 TIMELY PREFETCHES:       8625 LATE PREFETCHES: 386 DROPPED PREFETCHES: 0
L2C AVERAGE MISS LATENCY: 37.6218 cycles
L2C RQ	ACCESS:    3785438	FORWARD:          0	MERGED:          0	TO_CACHE:    3785393
L2C WQ	ACCESS:     525454	FORWARD:         45	MERGED:          0	TO_CACHE:     525454
L2C PQ	ACCESS:     209250	FORWARD:          0	MERGED:       3327	TO_CACHE:     205923

L2C Dense regions hint from L2: 0
PSCL5 TOTAL     ACCESS:       4264  HIT:       2132  MISS:       2132  HIT %:         50  MISS %:         50   MPKI: 0.04264
PSCL5 LOAD TRANSLATION INSTRUCTION	ACCESS:       4220  HIT:       2110  MISS:       2110  HIT %:         50  MISS %:         50  MPKI: 0.0422
PSCL5 TRANSLATION FROM L1D PREFETCHER INSTRUCTION	ACCESS:         44  HIT:         22  MISS:         22  HIT %:         50  MISS %:         50  MPKI: 0.00044


PSCL4 TOTAL     ACCESS:       3877  HIT:       1936  MISS:       1941  HIT %:    49.9355  MISS %:    50.0645   MPKI: 0.03882
PSCL4 LOAD TRANSLATION INSTRUCTION	ACCESS:       3053  HIT:       1915  MISS:       1138  HIT %:    62.7252  MISS %:    37.2748  MPKI: 0.02276
PSCL4 TRANSLATION FROM L1D PREFETCHER INSTRUCTION	ACCESS:         35  HIT:         21  MISS:         14  HIT %:         60  MISS %:         40  MPKI: 0.00028
PSCL4 LOAD TRANSLATION DATA	ACCESS:        782  HIT:          0  MISS:        782  HIT %:          0  MISS %:        100  MPKI: 0.01564
PSCL4 TRANSLATION FROM L1D PREFETCHER DATA	ACCESS:          7  HIT:          0  MISS:          7  HIT %:          0  MISS %:        100  MPKI: 0.00014


PSCL3 TOTAL     ACCESS:       4136  HIT:       2063  MISS:       2073  HIT %:    49.8791  MISS %:    50.1209   MPKI: 0.04146
PSCL3 LOAD TRANSLATION INSTRUCTION	ACCESS:       2157  HIT:       2042  MISS:        115  HIT %:    94.6685  MISS %:    5.33148  MPKI: 0.0023
PSCL3 TRANSLATION FROM L1D PREFETCHER INSTRUCTION	ACCESS:         21  HIT:         21  MISS:          0  HIT %:        100  MISS %:          0  MPKI: 0
PSCL3 LOAD TRANSLATION DATA	ACCESS:       1937  HIT:          0  MISS:       1937  HIT %:          0  MISS %:        100  MPKI: 0.03874
PSCL3 TRANSLATION FROM L1D PREFETCHER DATA	ACCESS:         21  HIT:          0  MISS:         21  HIT %:          0  MISS %:        100  MPKI: 0.00042


PSCL2 TOTAL     ACCESS:       4168  HIT:       2036  MISS:       2132  HIT %:    48.8484  MISS %:    51.1516   MPKI: 0.04264
PSCL2 LOAD TRANSLATION INSTRUCTION	ACCESS:       2274  HIT:       2014  MISS:        260  HIT %:    88.5664  MISS %:    11.4336  MPKI: 0.0052
PSCL2 TRANSLATION FROM L1D PREFETCHER INSTRUCTION	ACCESS:         22  HIT:         22  MISS:          0  HIT %:        100  MISS %:          0  MPKI: 0
PSCL2 LOAD TRANSLATION DATA	ACCESS:       1850  HIT:          0  MISS:       1850  HIT %:          0  MISS %:        100  MPKI: 0.037
PSCL2 TRANSLATION FROM L1D PREFETCHER DATA	ACCESS:         22  HIT:          0  MISS:         22  HIT %:          0  MISS %:        100  MPKI: 0.00044


LLC TOTAL     ACCESS:     565349  HIT:     537683  MISS:      27666  HIT %:    95.1064  MISS %:    4.89361   MPKI: 0.55332
LLC LOAD INSTRUCTION	ACCESS:     288828  HIT:     288069  MISS:        759  HIT %:    99.7372  MISS %:   0.262786  MPKI: 0.01518
LLC LOAD TRANSLATION INSTRUCTION	ACCESS:        215  HIT:        191  MISS:         24  HIT %:    88.8372  MISS %:    11.1628  MPKI: 0.00048
LLC LOAD DATA	ACCESS:      77793  HIT:      74407  MISS:       3386  HIT %:    95.6474  MISS %:    4.35258  MPKI: 0.06772
LLC RFO DATA	ACCESS:      49455  HIT:      36142  MISS:      13313  HIT %:    73.0806  MISS %:    26.9194  MPKI: 0.26626
LLC PREFETCH DATA	ACCESS:      74454  HIT:      64628  MISS:       9826  HIT %:    86.8026  MISS %:    13.1974  MPKI: 0.19652
LLC WRITEBACK DATA	ACCESS:      73186  HIT:      72896  MISS:        290  HIT %:    99.6037  MISS %:   0.396251  MPKI: 0.0058
LLC LOAD TRANSLATION DATA	ACCESS:       1410  HIT:       1342  MISS:         68  HIT %:    95.1773  MISS %:     4.8227  MPKI: 0.00136
LLC TRANSLATION FROM L1D PREFETCHER DATA	ACCESS:          8  HIT:          8  MISS:          0  HIT %:        100  MISS %:          0  MPKI: 0

LLC AVERAGE MISS LATENCY: 155.145 cycles
LLC RQ	ACCESS:     417744	FORWARD:          0	MERGED:          0	TO_CACHE:     417709
LLC WQ	ACCESS:      73186	FORWARD:         35	MERGED:          0	TO_CACHE:      73186
LLC PQ	ACCESS:      74454	FORWARD:          0	MERGED:          0	TO_CACHE:      74454

LLC Dense regions hint to LLC: 0

RAW hits: 1820175
Loads Generated: 12604088
Loads sent to L1D: 10783913
Stores Generated: 6901384
Stores sent to L1D: 6901403
Major fault: 0 Minor fault: 2600
Allocated PAGES: 2600

stream: 
stream:times selected: 1258514
stream:pref_filled: 127104
stream:pref_useful: 28750
stream:pref_late: 9469
stream:misses: 10854
stream:misses_by_poll: 0

CS: 
CS:times selected: 198071
CS:pref_filled: 74726
CS:pref_useful: 51069
CS:pref_late: 9265
CS:misses: 23805
CS:misses_by_poll: 1

CPLX: 
CPLX:times selected: 1059369
CPLX:pref_filled: 25312
CPLX:pref_useful: 7909
CPLX:pref_late: 4118
CPLX:misses: 131025
CPLX:misses_by_poll: 0

NL_L1: 
NL:times selected: 12725
NL:pref_filled: 1144
NL:pref_useful: 320
NL:pref_late: 473
NL:misses: 2058
NL:misses_by_poll: 0

total selections: 2528679
total_filled: 104965
total_useful: 47575
total_late: 25571
total_polluted: 1
total_misses_after_warmup: 797678
conflicts: 5549195

test: 119833

DRAM Statistics
 CHANNEL 0
 RQ ROW_BUFFER_HIT:      10168  ROW_BUFFER_MISS:      17204
 DBUS_CONGESTED:          9
 WQ ROW_BUFFER_HIT:       1439  ROW_BUFFER_MISS:      12039  FULL:          0

 AVG_CONGESTED_CYCLE: 4

CPU 0 Branch Prediction Accuracy: 99.8227% MPKI: 0.3247 Average ROB Occupancy at Mispredict: 154.169
Branch types
NOT_BRANCH: 40841955 81.6839%
BRANCH_DIRECT_JUMP: 545085 1.09017%
BRANCH_INDIRECT: 181892 0.363784%
BRANCH_CONDITIONAL: 6214596 12.4292%
BRANCH_DIRECT_CALL: 937389 1.87478%
BRANCH_INDIRECT_CALL: 170769 0.341538%
BRANCH_RETURN: 1108134 2.21627%
BRANCH_OTHER: 0 0%

DRAM PAGES: 1048576
Allocated PAGES: 2600
Average_ROB_Occupancy: 154.574
Average_Decode_Occupancy: 19.7853
Average_FTQ_Occupancy: 8.68899
Indirect max targets: 14 Average targets: 1.14478
Branch_type:  BRANCH_DIRECT_JUMP:  Count Percentage: 3.32705 6.00622 4.2378 7.90441 3.31511 6.01944 1.18464 68.0053 
Branch_type:  BRANCH_INDIRECT:  Count Percentage: 6.14169 3.48153 8.18425 9.67574 3.33826 2.80288 3.06906 63.3066 
Branch_type:  BRANCH_CONDITIONAL:  Count Percentage: 26.0831 2.72406 1.6215 4.56803 2.01565 3.53613 0.919638 58.5319 
Branch_type:  BRANCH_DIRECT_CALL:  Count Percentage: 0.847597 1.23517 0.745458 3.7102 3.21163 2.62085 0.834622 86.7945 
Branch_type:  BRANCH_INDIRECT_CALL:  Count Percentage: 9.5113 0 2.98331 0 1.28367 1.70462 3.28056 81.2365 
Branch_type:  BRANCH_RETURN:  Count Percentage: 8.21507 1.23955 1.20248 3.67015 4.41065 3.49655 1.25485 76.5107 
Branch_type:  BRANCH_DIRECT_JUMP:  Total Count: 36224 65394 46140 86061 36094 65538 12898 740423 
Branch_type:  BRANCH_INDIRECT:  Total Count: 22335 12661 29763 35187 12140 10193 11161 230222 
Branch_type:  BRANCH_CONDITIONAL:  Total Count: 3239237 338298 201372 567300 250322 439149 114209 7269020 
Branch_type:  BRANCH_DIRECT_CALL:  Total Count: 15875 23134 13962 69490 60152 49087 15632 1625611 
Branch_type:  BRANCH_INDIRECT_CALL:  Total Count: 32446 0 10177 0 4379 5815 11191 277123 
Branch_type:  BRANCH_RETURN:  Total Count: 181951 27454 26633 81288 97689 77443 27793 1694592 
Number of unique branch instructions: 10054
Upper 32 bits: 
aaaa
ffff
ffff0000
Unique upper 32 bits: 3
Unique upper 36 bits: 3
Unique upper 40 bits: 5
Unique upper 44 bits: 32
Unique upper 48 bits: 157
Variant_0 : 1138 0.277832
Variant_1 : 2688 0.65625
Variant_2 : 0 0
Variant_3 : 0 0
Offset_3 4136
Offset_4 251
Offset_5 460
Offset_6 515
Offset_7 583
Offset_8 514
Offset_9 482
Offset_10 381
Offset_11 314
Offset_12 272
Offset_13 215
Offset_14 229
Offset_15 192
Offset_16 224
Offset_17 151
Offset_18 126
Offset_19 240
Offset_20 140
Offset_21 241
Offset_22 397
Offset_23 241
Offset_24 333
Offset_25 88
Offset_47 82
Offset_64 1
decode_dispatch_called: 20943734 51.2665
Dispatch_width: 0 10751910 51.3371 26.3188
Dispatch_width: 1 585596 2.79604 1.43343
Dispatch_width: 2 610262 2.91382 1.49381
Dispatch_width: 3 400955 1.91444 0.981467
Dispatch_width: 4 2163289 10.3291 5.29535
Dispatch_width: 5 252542 1.20581 0.618178
Dispatch_width: 6 6179180 29.5037 15.1255
Empty_decode_cycles: 19908908 48.7335
ROB_full_cycles: 3334485 8.16223
Starvation_cycles_per_kilo_instr: 313.39
Starvation_cycles_per_kilo_instr_3: 289.231
Starvation_cycles_per_kilo_instr_0: 273.263
Branch_type_1  (3,1)  (4,9)  (5,37)  (6,71)  (7,114)  (8,130)  (9,127)  (10,99)  (11,70)  (12,43)  (13,5)  (14,2)  (15,3)  (16,4)  (18,1)  (19,4)  (20,2)  (21,1)  (22,3)  (23,2)  (24,10)  (25,12) 
Branch_type_2  (3,1)  (5,1)  (8,3)  (9,3)  (12,1)  (13,1)  (14,1)  (16,3)  (17,2)  (20,2)  (21,2)  (23,5)  (24,1)  (47,38) 
Branch_type_3  (3,4134)  (4,242)  (5,418)  (6,429)  (7,440)  (8,320)  (9,267)  (10,156)  (11,127)  (12,50)  (13,4)  (64,1) 
Branch_type_4  (6,3)  (7,8)  (8,25)  (9,52)  (10,60)  (11,59)  (12,97)  (13,95)  (14,101)  (15,90)  (16,100)  (17,67)  (18,57)  (19,118)  (20,73)  (21,127)  (22,211)  (23,136)  (24,194)  (25,72) 
Branch_type_5  (8,2)  (9,1)  (10,3)  (11,5)  (12,3)  (13,14)  (14,16)  (15,11)  (16,20)  (17,12)  (18,16)  (19,12)  (20,10)  (21,13)  (22,42)  (23,26)  (24,37) 
Branch_type_6  (5,4)  (6,12)  (7,21)  (8,34)  (9,32)  (10,63)  (11,53)  (12,78)  (13,96)  (14,109)  (15,88)  (16,97)  (17,70)  (18,52)  (19,106)  (20,53)  (21,98)  (22,141)  (23,72)  (24,91)  (25,4)  (47,44) 
Unique trigger count: 
Variant_0_evicts_0 : 0
Variant_0_evicts_1 : 0
Variant_0_evicts_2 : 0
Variant_0_evicts_3 : 0
Variant_1_evicts_0 : 0
Variant_1_evicts_1 : 0
Variant_1_evicts_2 : 0
Variant_1_evicts_3 : 0
Variant_2_evicts_0 : 0
Variant_2_evicts_1 : 0
Variant_2_evicts_2 : 0
Variant_2_evicts_3 : 0
Variant_3_evicts_0 : 0
Variant_3_evicts_1 : 0
Variant_3_evicts_2 : 0
Variant_3_evicts_3 : 0
BTB PER SET UNIQUE ADDR: 2 7 3 5 5 5 7 4 2 5 5 4 4 4 10 8 4 4 3 2 4 7 7 9 4 6 3 4 5 6 5 5 5 7 5 6 7 3 6 8 4 7 3 5 7 6 4 4 5 7 10 5 6 2 2 8 5 3 8 5 4 7 4 6 7 2 5 4 3 7 7 5 5 7 7 8 3 6 5 6 10 7 6 8 7 3 6 2 6 6 6 5 6 7 4 1 6 3 4 6 5 4 4 6 3 4 4 5 6 6 7 3 3 8 2 5 4 7 4 10 5 5 6 3 7 7 2 7 6 2 2 5 3 5 10 6 4 2 7 5 3 5 8 6 2 6 5 5 6 7 3 2 3 10 2 4 7 4 6 5 2 6 3 6 7 3 1 4 9 8 7 6 5 4 4 5 2 6 4 6 4 5 4 9 5 5 5 5 3 6 4 3 5 6 1 5 5 6 6 3 7 7 3 6 1 7 3 5 6 3 3 3 5 6 6 5 7 4 4 5 3 7 4 8 5 10 6 3 7 9 3 5 5 10 2 6 4 7 3 7 5 4 4 4 5 4 1 4 6 2 3 7 3 3 5 6 4 5 7 1 9 5 5 5 3 4 5 6 7 5 7 7 4 5 6 5 6 2 5 8 8 2 4 7 3 4 10 5 8 5 4 3 10 7 7 5 3 3 6 5 11 3 5 7 3 2 6 7 6 3 6 3 8 5 5 4 7 6 5 4 6 8 2 4 9 5 4 6 2 7 4 9 3 6 7 4 6 8 6 7 2 5 5 3 5 5 3 6 2 4 5 6 3 2 7 4 4 5 5 5 12 4 3 7 5 10 6 7 4 2 9 7 9 5 5 5 7 6 4 1 5 5 4 5 10 3 2 7 4 4 6 2 3 7 5 4 5 3 5 4 7 6 7 5 4 10 10 4 7 2 4 3 2 6 6 2 4 4 4 6 6 0 4 5 7 3 6 8 6 7 8 3 3 4 5 2 4 3 2 2 9 6 3 2 5 0 3 5 7 4 7 3 5 4 5 3 6 2 10 4 4 7 4 12 2 7 4 5 4 5 6 7 2 5 4 8 3 2 3 8 4 3 6 5 4 4 5 6 6 6 7 5 6 4 6 4 5 4 2 8 2 3 3 3 4 6 6 4 2 3 7 2 5 3 4 5 7 7 7 3 6 7 9 3 6 10 2 3 5 3 8 6 4 2 3 5 7 8 4 6 4 8 10 10 6 4 7 10 4 4 3 6 2 6 5 6 7 1 4 5 5 4 4 7 5 3 4 4 9 3 5 4 1 7 2 6 7 2 6 5 2 6 3 8 4 3 3 2 5 8 7 6 7 8 3 7 11 7 3 5 9 3 4 2 5 11 7 1 4 4 4 4 5 6 1 5 9 5 10 7 3 4 5 2 5 5 2 5 4 2 4 8 5 5 7 5 3 8 5 10 3 5 5 1 3 7 7 4 5 7 5 4 6 8 4 6 5 4 4 3 4 4 6 8 6 5 5 9 7 6 9 6 7 4 7 4 5 7 4 6 8 7 3 7 7 7 3 6 9 3 7 2 4 4 4 9 4 7 5 9 5 5 4 4 9 4 3 6 6 8 5 1 2 6 5 5 7 7 3 3 5 6 4 8 7 8 9 7 3 8 3 5 8 3 6 2 6 6 2 7 4 10 6 6 5 3 7 3 5 5 6 3 6 4 9 10 10 1 3 7 6 6 5 7 12 6 8 8 6 4 7 5 1 6 9 5 5 7 3 6 5 3 3 5 9 5 4 8 6 8 5 4 6 4 8 6 5 3 6 5 6 6 7 4 4 3 5 3 5 6 6 2 0 5 6 4 9 5 8 5 7 4 4 4 5 6 5 7 10 5 6 6 4 6 6 4 6 3 2 5 1 8 4 5 5 4 4 5 4 4 3 6 5 3 5 3 9 6 4 3 0 5 4 6 7 5 7 7 5 4 3 4 6 3 2 3 4 6 1 7 6 5 7 3 2 6 6 9 1 0 8 3 3 2 3 5 4 8 7 2 7 3 6 5 3 1 5 6 6 9 5 4 5 7 5 9 5 7 8 6 8 2 5 6 2 4 6 7 5 4 3 7 7 6 5 7 3 4 2 4 6 4 3 3 5 4 2 2 8 3 8 7 4 3 13 5 8 3 4 3 5 4 7 4 7 3 6 4 2 4 5 1 3 7 2 4 3 9 5 6 4 5 8 4 8 3 3 6 6 2 4 7 7 11 7 3 5 3 3 3 7 4 7 3 3 4 5 9 5 6 5 9 7 5 4 5 4 6 3 4 5 3 6 5 9 4 7 8 3 7 6 2 5 5 4 7 7 5 2 3 5 4 5 6 7 6 5 6 3 3 6 5 5 5 3 6 8 8 5 3 3 7 3 5 2 7 9 6 9 8 1 4 3 8 8 4 6 5 7 4 9 2 5 5 7 5 4 3 2 8 9 8 6 5 6 3 2 3 4 3 5 11 8 7 3 6 3 6 3 1 7 5 4 3 7 3 6 6 5 4 6 4 3 7 4 7 5 8 4 3 5 5 8 2 5 4 3 6 3 5 8 9 5 3 5 5 2 6 5 5 5 4 1 3 4 4 6 8 7 5 4 2 6 4 2 4 6 7 6 8 8 4 6 5 4 10 4 7 4 4 8 2 10 4 3 4 6 3 8 7 11 6 5 1 7 4 8 5 4 3 6 4 3 3 6 5 5 2 8 4 5 3 7 6 1 6 7 3 7 6 8 3 5 3 4 6 7 5 4 4 5 3 4 4 8 5 6 6 4 3 6 5 4 4 6 5 8 5 2 4 4 7 3 3 3 2 2 3 2 4 3 5 6 4 5 4 6 7 4 10 5 4 9 3 5 6 8 6 7 5 8 5 6 8 3 4 5 5 10 9 7 5 6 11 5 5 7 6 5 8 2 6 5 6 6 5 8 7 9 8 12 7 3 5 8 3 3 4 5 3 3 6 4 6 5 2 5 4 8 10 5 6 3 6 7 3 5 6 5 5 6 5 7 5 8 12 4 6 8 7 5 4 6 8 3 2 7 1 5 4 4 8 7 6 6 2 4 4 4 7 3 6 3 12 8 6 5 5 3 6 2 5 3 5 4 3 5 5 3 2 1 3 6 7 1 6 6 5 4 3 7 4 7 2 3 6 8 7 4 5 4 5 10 4 9 7 4 2 2 6 8 6 4 8 7 8 6 4 3 8 8 2 6 4 10 6 6 7 6 2 7 7 8 4 5 5 8 4 6 4 3 5 2 6 6 4 6 5 9 5 5 4 5 6 8 6 3 4 4 8 5 4 5 1 4 2 7 5 6 8 5 6 4 6 7 4 4 4 4 5 5 5 5 8 5 8 6 4 6 2 6 3 10 7 6 5 10 4 5 3 5 5 10 4 3 6 4 8 7 10 9 2 4 6 7 4 12 6 5 1 3 4 5 2 4 8 4 3 2 5 5 3 5 6 5 5 5 7 4 2 5 5 4 4 3 4 4 8 5 4 2 7 5 4 2 4 3 6 6 6 7 4 5 4 1 5 4 8 6 3 4 4 4 5 1 8 7 7 4 8 6 5 3 5 5 2 3 6 4 6 4 4 7 7 4 6 10 5 8 6 4 6 8 4 4 6 4 4 6 4 3 6 7 7 4 5 3 3 3 4 4 6 6 4 6 5 7 4 7 6 4 6 8 3 7 7 6 4 4 9 5 4 3 7 5 4 5 4 7 4 4 6 4 5 6 3 3 5 2 2 6 4 3 2 5 4 0 5 5 3 5 4 6 2 0 4 6 5 12 2 4 8 2 2 5 3 1 5 3 4 2 5 5 2 4 8 9 4 4 3 2 1 6 5 5 3 4 6 4 6 2 3 3 7 8 5 7 5 4 3 5 2 4 5 3 6 2 5 8 8 4 4 9 4 1 6 4 6 5 5 6 3 3 3 5 6 1 2 4 4 7 9 3 7 5 6 6 5 7 4 2 4 6 9 0 6 5 7 5 9 5 9 1 5 8 7 6 6 2 6 4 8 3 6 4 5 7 3 3 7 4 5 2 4 1 2 4 2 5 2 5 4 6 2 6 3 3 7 1 5 3 3 7 6 6 7 6 4 5 4 4 8 3 1 4 5 5 4 4 8 5 5 2 3 6 5 5 5 4 6 3 5 4 6 5 3 5 7 3 4 2 2 7 4 4 4 1 6 4 3 3 8 4 6 4 3 4 6 3 8 2 6 3 4 6 6 3 6 2 2 3 3 2 5 2 9 1 5 2 6 3 4 4 5 4 5 2 1 3 7 1 5 3 4 3 7 4 2 4 6 5 5 7 2 4 7 2 5 9 4 1 1 8 10 1 6 7 6 4 4 6 4 8 7 6 7 4 1 5 3 5 6 5 7 8 9 5 5 2 7 3 7 6 6 6 8 5 6 7 7 7 5 3 6 6 5 5 6 3 10 2 8 5 10 5 3 5 8 3 5 5 4 3 3 8 6 3 6 3 6 2 4 8 6 4 4 2 3 7 5 0 4 5 10 3 4 5 7 8 6 3 9 7 5 5 8 6 4 5 2 2 11 4 4 7 5 4 15 4 7 4 7 3 5 3 4 8 6 
BTB PER SET COUNT: 2 1754 196 692 262 111 333 498 2 800 812 347 5 1495 1077 160 519 199 3 2 247 719 527 477 394 913 118 212 431 477 324 166 217 801 500 222 711 3 257 1100 9 1773 4 15 704 569 4 95 5 569 571 5 704 2 2 467 545 1165 505 113 1139 679 183 11 389 5 134 403 3 780 1231 110 182 783 16 961 4 247 759 313 876 212 164 574 214 3 622 2 595 1639 418 646 326 348 7 1 195 3 117 415 356 88 136 12 4 5 144 171 528 657 191 3 3 1149 2 6 286 19 302 1853 337 344 1597 3 367 987 2 153 1160 2 2 119 4 200 239 424 182 2 436 669 4 780 990 303 2 391 8 8 129 384 179 471 3 865 3 498 243 940 397 287 2 123 3 377 798 132 1 11 258 304 301 423 235 119 313 107 2 291 4 753 93 227 181 475 173 146 55 12 3 59 42 3 149 372 1 476 19 735 1284 3 203 149 104 164 1 327 4 476 224 3 7 6 310 471 328 191 589 294 4 222 3 454 255 633 386 1209 264 54 290 1152 515 196 329 6099 2 316 6 249 220 537 486 189 335 140 211 182 1 7 18 232 136 791 3 176 418 72 1735 239 287 1 468 47 439 350 9 473 488 491 444 27 253 309 8 137 74 261 186 253 115 632 663 2 346 331 3 154 1001 331 424 36 4 3 1103 466 501 163 3 3 397 7 754 217 1404 340 3 2 82 96 149 9 168 3 248 257 14 165 41 321 127 4 521 119 215 174 1282 96 336 241 2 420 10 953 208 575 102 279 769 155 176 541 2 335 260 4 766 316 48 439 2 246 227 121 142 2 438 5 369 494 407 18 1207 408 12 693 116 2555 441 1173 4 2 845 581 1080 10 118 173 959 209 146 1 52 1074 15 709 895 8 2 253 4 10 138 2 3 84 169 4 377 3 298 119 1128 275 347 5 410 774 2083 436 95 6 4 76 3 317 698 7 348 425 286 140 364 0 4 310 227 503 360 459 1035 138 714 53 5 184 106 3 4 8 4 2 1127 256 3 2 714 0 2414 36 360 163 827 909 398 173 94 4 418 2 659 274 748 11 41 1071 2 518 217 5 9 371 170 1130 2 326 956 257 150 2 4 529 70 310 386 498 4 4 164 646 543 476 931 443 887 237 239 960 458 92 80 306 2 128 3 277 110 517 334 104 2 3 904 2 842 866 9 90 603 988 404 303 275 190 923 3 125 977 2 4 243 3 1300 515 4 5 3 197 804 456 6 8 139 401 1284 1238 309 1454 837 1057 377 152 3 1774 993 7 229 193 1124 1 4 63 728 7825 303 338 60 3 1660 113 1690 194 188 273 1 1090 2 570 660 2 180 5 5 73 3 412 4 139 205 2 8 1518 177 347 444 1033 215 1458 677 425 3 71 403 11 276 2 26 968 1235 1 65 122 4 4 966 461 1 146 861 420 9568 572 138 141 161 2 275 300 231 7 163 5 538 1138 259 450 499 625 3 425 7 1264 3 211 451 1 3 540 213 248 119 304 412 4 199 962 9 154 281 77 4 8 239 7 9 20 571 680 8 1241 128 965 429 425 234 4 496 65 172 985 128 664 682 271 127 1107 347 438 194 911 44 7 405 2 178 560 4 1034 6 974 8 842 216 689 9 7 715 5 8 183 577 563 158 1 280 270 38 915 299 325 3 5 313 376 821 498 691 523 762 334 359 460 267 267 458 167 15 3 8 122 2 2107 179 921 474 170 111 4 64 96 9 624 2215 3 230 274 35 418 588 1 4 596 186 20 84 182 432 148 240 3160 447 4 55 241 1 80 473 323 7 695 21 219 252 3 3 191 902 475 609 599 238 855 249 321 28 226 499 581 121 221 413 85 130 13 448 317 25 4 11 3 8 156 396 2 0 245 219 232 1026 247 290 5 422 307 5 140 143 1118 366 648 1422 349 660 238 98 760 7 112 1106 3 2 74 2 716 355 5 433 9 183 694 128 983 3 308 6 244 653 69 539 305 206 3 0 330 11 415 762 10 167 246 625 112 665 175 129 8 2 3 1182 822 1 311 368 907 274 3 2 669 222 1053 1 0 1451 220 110 2 3 423 366 721 650 243 207 110 462 1078 3 1 6 88 216 947 207 167 245 336 470 657 12 14 954 323 1334 2 234 150 2 6 1425 302 187 155 6 321 1226 242 77 340 3 789 2 423 560 91 4 3 696 91 2 2 505 3 607 1110 9 4 2404 277 830 3 1796 255 250 251 183 189 254 7 830 181 2 211 68 1 5 431 2 4 94 1174 188 120 343 11 497 29 443 3 3 1072 124 2 8 465 270 992 188 5 156 3 3 3 184 39 172 1477 3 11 361 1751 821 91 5 303 427 264 123 59 219 1143 4 74 317 383 322 47 484 295 667 814 6 105 243 2 241 255 88 431 291 120 1452 3 77 423 10 11 410 431 639 74 17 10 372 301 197 118 164 144 614 665 1599 8 6 405 126 570 213 150 572 668 216 413 1 140 5 637 566 4 13 83 289 6 944 2 108 301 510 341 11 186 2 386 740 873 177 164 214 222 2 3 96 3 254 1015 357 1460 357 508 43 79 3 1 128 517 415 397 369 3 156 249 10 11 185 135 389 26 4 545 204 46 11 4 10 462 170 9 166 207 3 523 3 344 756 15594 367 274 159 59 2 407 5 7 5 172 1 134 198 474 12 541 982 61 4 2 124 137 2 12 382 288 169 455 1063 5 402 5 62 613 11 13 5 4 497 2 831 53 3 5 122 333 489 429 697 244 209 1 1573 497 889 365 463 174 441 11 3 7 566 484 542 3 245 358 930 3 647 1695 1 248 535 3 271 197 232 23 329 3 7 89 396 136 11 88 307 3 78 5 822 202 13 367 120 3 493 638 4 12 10 155 52 6 21 278 338 115 3 181 136 2 2 3 2 120 3 219 491 4 304 6 176 171 226 899 148 4 470 3 169 449 113 287 583 11 214 5 9 354 3 493 268 438 2032 518 134 429 7 948 314 446 437 267 309 633 4 136 7 538 666 347 356 633 826 304 487 488 3 269 518 3 3 4 181 3 3 344 6 252 189 2 153 1459 318 1631 133 157 3 536 373 3 5 468 134 399 214 6 142 135 668 549 63 194 1173 525 625 5 177 306 4 2 641 1 8 4 421 641 799 230 13 3 173 4 67 633 3 77 152 1234 667 167 294 44 3 514 2 510 3 20 191 205 91 260 8 198 1 3 476 12 1 143 565 21 12 3 670 269 60 2 7 203 918 568 4 423 4 232 895 65 607 1135 8 2 2 592 661 460 58 180 55 515 444 6 138 2649 1443 2 388 2875 777 777 341 40 209 2 210 469 189 89 32 38 458 68 318 5 3 318 2 440 347 7 8 288 486 25 264 4 17 15 830 158 6 11 10 852 203 407 624 1 4 2 349 169 441 1035 185 632 960 270 262 215 29 157 4 331 181 140 210 372 210 949 469 166 185 3 1161 956 835 246 448 175 1100 474 177 3 337 393 1273 6 3 1265 6 287 679 1438 1056 2 4 1105 460 424 1064 355 968 1 120 5 341 2 143 521 4 9 3 599 100 3 174 10 10 304 449 668 121 2 680 170 152 13 118 19 57 625 219 520 427 729 441 277 2 155 2906 787 615 196 770 5 167 223 1 346 4 971 13 1455 455 12 36 330 1 678 1060 7 151 329 126 45 3 560 601 2 3 714 56 135 150 393 317 393 257 504 862 7 1085 195 246 484 682 125 159 11 5 232 469 4 3 369 584 711 340 159 228 3 3 4 95 88 416 6 67 262 810 4 490 172 30 467 748 148 830 418 363 237 6 569 5 204 185 224 117 150 266 173 736 648 203 195 5 103 404 3 537 289 2 117 194 82 4 2 368 163 0 118 5 372 234 4 197 2 0 141 7 253 1723 2 62 1342 2 2 308 4 1 175 681 324 91 178 87 2 11 832 389 6 4 3 2 1 562 99 135 189 4 379 151 230 3 3 18 550 334 155 325 253 13 261 6 2 37 221 3 565 2 9 309 197 233 4 425 10 1 440 182 531 176 346 384 3 3 23 13 387 1 2 6 310 272 910 3 1114 155 352 404 334 1014 350 2 4 227 710 0 216 253 266 358 1476 327 350 1 493 1438 307 364 252 2 1074 4 750 3 152 198 10 128 3 101 566 4 202 816 4 1 2 6 2 691 6 370 337 133 3 262 3 6 38 1 385 95 351 292 574 778 437 185 18 320 4 95 790 3 1 84 22 182 699 144 672 435 452 2 296 158 1366 804 262 5 722 3 30 86 395 551 12 241 161 163 314 2 2 470 312 155 308 1 656 5562 283 140 927 8 762 325 3 236 973 192 969 225 312 182 4 239 50 5 9 2 2 6 3 2 1635 7 535 1 81 310 346 3 225 318 16 14 277 2 1 3 524 1 47 1457 660 3 184 192 2 62 894 21 231 479 2 388 908 2 842 531 82 1 1 336 913 1 170 332 359 4 113 385 259 538 245 713 424 5 1 41 165 224 812 283 322 1202 426 124 102 2 593 103 323 262 394 239 1170 406 750 765 840 794 867 184 465 3084 715 10 261 118 464 2 866 306 1021 98 233 400 843 484 486 404 5 137 18 818 1330 4 797 66 244 2 112 767 504 141 167 1313 368 264 353 0 21 204 1168 3 209 204 828 694 565 172 955 340 1358 6 600 1841 6 1411 2 3 1702 1322 16 381 566 132 1798 251 274 5 576 197 6 6 312 579 28 
To predecode: 0
Predecoding something: 0
Predecode request dropped: 0
sizeofblock_0 0
sizeofblock_1 213665
sizeofblock_2 212865
sizeofblock_3 0
sizeofblock_4 0
sizeofblock_5 0
sizeofblock_6 0
sizeofblock_7 0
sizeofblock_8 0
Variant_0 Correct: 1380223 Incorrect: 0 Accuracy: 1
Variant_1 Correct: 5385996 Incorrect: 0 Accuracy: 1
Variant_2 Correct: 0 Incorrect: 0 Accuracy: -nan
Variant_3 Correct: 0 Incorrect: 0 Accuracy: -nan
