
*** ChampSim Multicore Out-of-Order Simulator ***

Warmup Instructions: 50000000
Simulation Instructions: 50000000
Number of CPUs: 1
LLC sets: 2048
LLC ways: 16
Off-chip DRAM Size: 4096 MB Channels: 1 Width: 64-bit Data Rate: 6400 MT/s
CPU 0 runs ./micro_traces/srv548.trace.gz
.gz
ITLB has LRU replacement policy
DTLB has LRU replacement policy
STLB has LRU replacement policy
L1I has LRU replacement policy
L1D has LRU replacement policy
Initialize SRRIP state for L2C
Initialize DRRIP state for LLC
Heartbeat_Variant_0 : 1321 0.32251 per_variant_size: 0 1321 0 0 0 0 0 0 0 
Heartbeat_Variant_1 : 1198 0.29248 per_variant_size: 0 573 625 0 0 0 0 0 0 
Heartbeat_Variant_2 : 1313 0.320557 per_variant_size: 0 544 366 217 186 0 0 0 0 
Heartbeat_Variant_3 : 0 0 per_variant_size: 0 0 0 0 0 0 0 0 0 
Heartbeat_Variant_0_evicts 0 : 5763 1 : 228 2 : 227 3 : 0 
Heartbeat_Variant_1_evicts 0 : 222 1 : 0 2 : 417 3 : 0 
Heartbeat_Variant_2_evicts 0 : 213 1 : 428 2 : 0 3 : 0 
Heartbeat_Variant_3_evicts 0 : 0 1 : 0 2 : 0 3 : 0 
Heartbeat CPU 0 instructions: 10000000 cycles: 2799045 heartbeat IPC: 3.57265 cumulative IPC: 3.57265 (Simulation time: 0 hr 1 min 23 sec) 
Heartbeat_Variant_0 : 1379 0.33667 per_variant_size: 0 1379 0 0 0 0 0 0 0 
Heartbeat_Variant_1 : 1281 0.312744 per_variant_size: 0 572 709 0 0 0 0 0 0 
Heartbeat_Variant_2 : 1338 0.32666 per_variant_size: 0 502 379 243 214 0 0 0 0 
Heartbeat_Variant_3 : 0 0 per_variant_size: 0 0 0 0 0 0 0 0 0 
Heartbeat_Variant_0_evicts 0 : 5951 1 : 259 2 : 292 3 : 0 
Heartbeat_Variant_1_evicts 0 : 273 1 : 0 2 : 466 3 : 0 
Heartbeat_Variant_2_evicts 0 : 268 1 : 454 2 : 0 3 : 0 
Heartbeat_Variant_3_evicts 0 : 0 1 : 0 2 : 0 3 : 0 
Heartbeat CPU 0 instructions: 20000002 cycles: 5596253 heartbeat IPC: 3.57499 cumulative IPC: 3.57382 (Simulation time: 0 hr 2 min 37 sec) 
Heartbeat_Variant_0 : 1396 0.34082 per_variant_size: 0 1396 0 0 0 0 0 0 0 
Heartbeat_Variant_1 : 1301 0.317627 per_variant_size: 0 558 743 0 0 0 0 0 0 
Heartbeat_Variant_2 : 1335 0.325928 per_variant_size: 0 470 385 257 223 0 0 0 0 
Heartbeat_Variant_3 : 0 0 per_variant_size: 0 0 0 0 0 0 0 0 0 
Heartbeat_Variant_0_evicts 0 : 5729 1 : 115 2 : 126 3 : 0 
Heartbeat_Variant_1_evicts 0 : 116 1 : 0 2 : 297 3 : 0 
Heartbeat_Variant_2_evicts 0 : 113 1 : 301 2 : 0 3 : 0 
Heartbeat_Variant_3_evicts 0 : 0 1 : 0 2 : 0 3 : 0 
Heartbeat CPU 0 instructions: 30000002 cycles: 8393216 heartbeat IPC: 3.57531 cumulative IPC: 3.57432 (Simulation time: 0 hr 3 min 55 sec) 
Heartbeat_Variant_0 : 1391 0.3396 per_variant_size: 0 1391 0 0 0 0 0 0 0 
Heartbeat_Variant_1 : 1315 0.321045 per_variant_size: 0 580 735 0 0 0 0 0 0 
Heartbeat_Variant_2 : 1336 0.326172 per_variant_size: 0 464 388 267 217 0 0 0 0 
Heartbeat_Variant_3 : 0 0 per_variant_size: 0 0 0 0 0 0 0 0 0 
Heartbeat_Variant_0_evicts 0 : 5685 1 : 97 2 : 86 3 : 0 
Heartbeat_Variant_1_evicts 0 : 104 1 : 0 2 : 298 3 : 0 
Heartbeat_Variant_2_evicts 0 : 84 1 : 298 2 : 0 3 : 0 
Heartbeat_Variant_3_evicts 0 : 0 1 : 0 2 : 0 3 : 0 
Heartbeat CPU 0 instructions: 40000001 cycles: 11189871 heartbeat IPC: 3.5757 cumulative IPC: 3.57466 (Simulation time: 0 hr 5 min 13 sec) 
Heartbeat_Variant_0 : 1401 0.342041 per_variant_size: 0 1401 0 0 0 0 0 0 0 
Heartbeat_Variant_1 : 1315 0.321045 per_variant_size: 0 568 747 0 0 0 0 0 0 
Heartbeat_Variant_2 : 1333 0.325439 per_variant_size: 0 446 390 273 224 0 0 0 0 
Heartbeat_Variant_3 : 0 0 per_variant_size: 0 0 0 0 0 0 0 0 0 
Heartbeat_Variant_0_evicts 0 : 5737 1 : 93 2 : 72 3 : 0 
Heartbeat_Variant_1_evicts 0 : 88 1 : 0 2 : 246 3 : 0 
Heartbeat_Variant_2_evicts 0 : 69 1 : 243 2 : 0 3 : 0 
Heartbeat_Variant_3_evicts 0 : 0 1 : 0 2 : 0 3 : 0 
Heartbeat CPU 0 instructions: 50000000 cycles: 13986357 heartbeat IPC: 3.57592 cumulative IPC: 3.57491 (Simulation time: 0 hr 6 min 20 sec) 

Warmup complete CPU 0 instructions: 50000004 cycles: 13986358 (Simulation time: 0 hr 6 min 20 sec) 

Cycle: 20000000 FTQ IN: 55288031 FTQ occupancy: 15.8949 DECODE IN: 55288013 DECODE occupancy: 9.50069 ROB IN: 55288013 ROB occupancy: 260.394 ROB OUT: 55287983
Heartbeat_Variant_0 : 1399 0.341553 per_variant_size: 0 1399 0 0 0 0 0 0 0 
Heartbeat_Variant_1 : 1303 0.318115 per_variant_size: 0 569 734 0 0 0 0 0 0 
Heartbeat_Variant_2 : 1352 0.330078 per_variant_size: 0 472 394 264 222 0 0 0 0 
Heartbeat_Variant_3 : 0 0 per_variant_size: 0 0 0 0 0 0 0 0 0 
Heartbeat_Variant_0_evicts 0 : 5696 1 : 100 2 : 144 3 : 0 
Heartbeat_Variant_1_evicts 0 : 99 1 : 0 2 : 317 3 : 0 
Heartbeat_Variant_2_evicts 0 : 147 1 : 329 2 : 0 3 : 0 
Heartbeat_Variant_3_evicts 0 : 0 1 : 0 2 : 0 3 : 0 
Heartbeat CPU 0 instructions: 60000002 cycles: 25235248 heartbeat IPC: 0.888977 cumulative IPC: 0.888976 (Simulation time: 0 hr 7 min 38 sec) 
Cycle: 30000000 FTQ IN: 9006315 FTQ occupancy: 14.9233 DECODE IN: 9006315 DECODE occupancy: 4.9513 ROB IN: 9006303 ROB occupancy: 53.9717 ROB OUT: 9006241
Heartbeat_Variant_0 : 1397 0.341064 per_variant_size: 0 1397 0 0 0 0 0 0 0 
Heartbeat_Variant_1 : 1305 0.318604 per_variant_size: 0 571 734 0 0 0 0 0 0 
Heartbeat_Variant_2 : 1352 0.330078 per_variant_size: 0 469 398 265 220 0 0 0 0 
Heartbeat_Variant_3 : 0 0 per_variant_size: 0 0 0 0 0 0 0 0 0 
Heartbeat_Variant_0_evicts 0 : 5530 1 : 7 2 : 6 3 : 0 
Heartbeat_Variant_1_evicts 0 : 7 1 : 0 2 : 207 3 : 0 
Heartbeat_Variant_2_evicts 0 : 8 1 : 205 2 : 0 3 : 0 
Heartbeat_Variant_3_evicts 0 : 0 1 : 0 2 : 0 3 : 0 
Heartbeat CPU 0 instructions: 70000002 cycles: 36330508 heartbeat IPC: 0.901286 cumulative IPC: 0.895089 (Simulation time: 0 hr 8 min 51 sec) 
Cycle: 40000000 FTQ IN: 8976345 FTQ occupancy: 14.9026 DECODE IN: 8976345 DECODE occupancy: 4.93872 ROB IN: 8976357 ROB occupancy: 53.4679 ROB OUT: 8976336
Heartbeat_Variant_0 : 1408 0.34375 per_variant_size: 0 1408 0 0 0 0 0 0 0 
Heartbeat_Variant_1 : 1307 0.319092 per_variant_size: 0 569 738 0 0 0 0 0 0 
Heartbeat_Variant_2 : 1350 0.32959 per_variant_size: 0 457 393 275 225 0 0 0 0 
Heartbeat_Variant_3 : 0 0 per_variant_size: 0 0 0 0 0 0 0 0 0 
Heartbeat_Variant_0_evicts 0 : 5741 1 : 193 2 : 170 3 : 0 
Heartbeat_Variant_1_evicts 0 : 187 1 : 0 2 : 348 3 : 0 
Heartbeat_Variant_2_evicts 0 : 167 1 : 342 2 : 0 3 : 0 
Heartbeat_Variant_3_evicts 0 : 0 1 : 0 2 : 0 3 : 0 
Heartbeat CPU 0 instructions: 80000002 cycles: 47627926 heartbeat IPC: 0.885158 cumulative IPC: 0.891754 (Simulation time: 0 hr 10 min 3 sec) 
Cycle: 50000000 FTQ IN: 8873901 FTQ occupancy: 14.9356 DECODE IN: 8873901 DECODE occupancy: 4.94366 ROB IN: 8873896 ROB occupancy: 55.643 ROB OUT: 8873924
Heartbeat_Variant_0 : 1407 0.343506 per_variant_size: 0 1407 0 0 0 0 0 0 0 
Heartbeat_Variant_1 : 1311 0.320068 per_variant_size: 0 574 737 0 0 0 0 0 0 
Heartbeat_Variant_2 : 1347 0.328857 per_variant_size: 0 452 397 273 225 0 0 0 0 
Heartbeat_Variant_3 : 0 0 per_variant_size: 0 0 0 0 0 0 0 0 0 
Heartbeat_Variant_0_evicts 0 : 5599 1 : 9 2 : 14 3 : 0 
Heartbeat_Variant_1_evicts 0 : 7 1 : 0 2 : 208 3 : 0 
Heartbeat_Variant_2_evicts 0 : 17 1 : 202 2 : 0 3 : 0 
Heartbeat_Variant_3_evicts 0 : 0 1 : 0 2 : 0 3 : 0 
Heartbeat CPU 0 instructions: 90000000 cycles: 58688160 heartbeat IPC: 0.90414 cumulative IPC: 0.894818 (Simulation time: 0 hr 11 min 14 sec) 
Cycle: 60000000 FTQ IN: 9059316 FTQ occupancy: 14.9329 DECODE IN: 9059316 DECODE occupancy: 4.96831 ROB IN: 9059309 ROB occupancy: 54.2761 ROB OUT: 9059311
Heartbeat_Variant_0 : 1403 0.342529 per_variant_size: 0 1403 0 0 0 0 0 0 0 
Heartbeat_Variant_1 : 1309 0.31958 per_variant_size: 0 583 726 0 0 0 0 0 0 
Heartbeat_Variant_2 : 1357 0.331299 per_variant_size: 0 472 395 263 227 0 0 0 0 
Heartbeat_Variant_3 : 0 0 per_variant_size: 0 0 0 0 0 0 0 0 0 
Heartbeat_Variant_0_evicts 0 : 5791 1 : 155 2 : 105 3 : 0 
Heartbeat_Variant_1_evicts 0 : 154 1 : 0 2 : 308 3 : 0 
Heartbeat_Variant_2_evicts 0 : 112 1 : 309 2 : 0 3 : 0 
Heartbeat_Variant_3_evicts 0 : 0 1 : 0 2 : 0 3 : 0 
Heartbeat CPU 0 instructions: 100000000 cycles: 69945669 heartbeat IPC: 0.888296 cumulative IPC: 0.893506 (Simulation time: 0 hr 12 min 25 sec) 
Finished CPU 0 instructions: 50000003 cycles: 55959322 cumulative IPC: 0.893506 (Simulation time: 0 hr 12 min 25 sec) 

ChampSim completed all CPUs

Region of Interest Statistics

CPU 0 cumulative IPC: 0.893506 instructions: 50000003 cycles: 55959322
 Fetch stage stalled: 27.3562  Sim cycles: 55959322 fetch stall cycle: 15308365
 Empty decode stage: 68.6135  Sim cycles: 55959322 fetch stall cycle: 38395655
ITLB TOTAL     ACCESS:    7362218  HIT:    6866654  MISS:     495564  HIT %:    93.2688  MISS %:    6.73118   MPKI: 9.91128
ITLB LOAD TRANSLATION INSTRUCTION	ACCESS:    7362218  HIT:    6866654  MISS:     495564  HIT %:    93.2688  MISS %:    6.73118  MPKI: 9.91128

ITLB AVERAGE MISS LATENCY: 9.04708 cycles
ITLB RQ	ACCESS:    8482950	FORWARD:          0	MERGED:     922563	TO_CACHE:    7560387

DTLB TOTAL     ACCESS:   10305373  HIT:    9832100  MISS:     473273  HIT %:    95.4075  MISS %:    4.59249   MPKI: 9.46546
DTLB LOAD TRANSLATION DATA	ACCESS:   10305373  HIT:    9832100  MISS:     473273  HIT %:    95.4075  MISS %:    4.59249  MPKI: 9.46546

DTLB AVERAGE MISS LATENCY: 9.31059 cycles
DTLB RQ	ACCESS:   14425627	FORWARD:          0	MERGED:    4090390	TO_CACHE:   10335237

STLB TOTAL     ACCESS:    1228009  HIT:    1225815  MISS:       2194  HIT %:    99.8213  MISS %:   0.178663   MPKI: 0.04388
STLB LOAD TRANSLATION INSTRUCTION	ACCESS:     495563  HIT:     495265  MISS:        298  HIT %:    99.9399  MISS %:  0.0601336  MPKI: 0.00596
STLB LOAD TRANSLATION DATA	ACCESS:     473264  HIT:     471399  MISS:       1865  HIT %:    99.6059  MISS %:   0.394072  MPKI: 0.0373
STLB TRANSLATION FROM L1D PREFETCHER DATA	ACCESS:     259182  HIT:     259151  MISS:         31  HIT %:     99.988  MISS %:  0.0119607  MPKI: 0.00062

STLB AVERAGE MISS LATENCY: 68.4116 cycles
STLB RQ	ACCESS:    1345716	FORWARD:          0	MERGED:     117666	TO_CACHE:    1228050

STLB Hit, L1D data hit: 0
STLB Hit, L2C data hit: 0
STLB Hit, LLC data hit: 0
STLB Hit, LLC data miss: 0
STLB STLB hints to L2: 0
L1D TOTAL     ACCESS:   14214450  HIT:   13091103  MISS:    1123347  HIT %:    92.0971  MISS %:    7.90285   MPKI: 22.4669
L1D LOAD DATA	ACCESS:    7560049  HIT:    6821712  MISS:     738337  HIT %:    90.2337  MISS %:     9.7663  MPKI: 14.7667
L1D RFO DATA	ACCESS:    6318844  HIT:    6029959  MISS:     288885  HIT %:    95.4282  MISS %:     4.5718  MPKI: 5.7777
L1D PREFETCH DATA	ACCESS:     335557  HIT:     239432  MISS:      96125  HIT %:    71.3536  MISS %:    28.6464  MPKI: 1.9225

L1D PREFETCH  REQUESTED:     753970  ISSUED:     753970  USEFUL:      36440  USELESS:      68053
L1D USEFUL LOAD PREFETCHES:      36440 PREFETCH ISSUED TO LOWER LEVEL:     104527  ACCURACY: 34.8618
 TIMELY PREFETCHES:      36440 LATE PREFETCHES: 8367 DROPPED PREFETCHES: 7
L1D AVERAGE MISS LATENCY: 312100 cycles
L1D RQ	ACCESS:   11398159	FORWARD:          0	MERGED:    3645346	TO_CACHE:    7595866
L1D WQ	ACCESS:    6950873	FORWARD:     157157	MERGED:     121112	TO_CACHE:    6829761
L1D PQ	ACCESS:     377090	FORWARD:          0	MERGED:          0	TO_CACHE:     376880

L1D UNIQUE REGIONS ACCESSED: 0
L1D REGIONS CONFLICTS: 0
L1D Cross Page Prefetch Requests: 6879
L1D Same Page Prefetch Requests: 761397
L1D ROI Sum of L1D PQ occupancy: 4788250
L1D PREFETCHES PUSHED FROM L2C: 0
L1I TOTAL     ACCESS:    7932681  HIT:    5165569  MISS:    2767112  HIT %:    65.1176  MISS %:    34.8824   MPKI: 55.3422
L1I LOAD INSTRUCTION	ACCESS:    7932681  HIT:    5165569  MISS:    2767112  HIT %:    65.1176  MISS %:    34.8824  MPKI: 55.3422

L1I AVERAGE MISS LATENCY: 17.1453 cycles
L1I RQ	ACCESS:   15553394	FORWARD:          0	MERGED:    7070444	TO_CACHE:    8482950

L1BTB TOTAL     ACCESS:    5669094  HIT:    2035935  MISS:    3633159  HIT %:    35.9129  MISS %:    64.0871   MPKI: 72.6632
L1BTB BRANCH_DIRECT_JUMP	ACCESS:     547505  HIT:     143865  MISS:     403640	AVERAGE STALL: 22.5723
L1BTB BRANCH_INDIRECT	ACCESS:     182331  HIT:      65641  MISS:     116690	AVERAGE STALL: 50.494
L1BTB BRANCH_CONDITIONAL	ACCESS:    2700408  HIT:    1406602  MISS:    1293806	AVERAGE STALL: 31.0589
L1BTB BRANCH_DIRECT_CALL	ACCESS:     946911  HIT:     106503  MISS:     840408	AVERAGE STALL: 30.5414
L1BTB BRANCH_INDIRECT_CALL	ACCESS:     172515  HIT:      21908  MISS:     150607	AVERAGE STALL: 64.7477
L1BTB BRANCH_RETURN	ACCESS:    1119424  HIT:     291416  MISS:     828008	AVERAGE STALL: 32.3607
L1BTB BRANCH_OTHER ACCESS:          0  HIT:          0  MISS:          0	AVERAGE STALL: -nan
L1BTB TOTAL ROB OCCUPANCY AT BTB MISS: 0.63338

L2BTB TOTAL     ACCESS:    3607822  HIT:    3541999  MISS:      65823  HIT %:    98.1755  MISS %:    1.82445   MPKI: 1.31646
L2BTB BRANCH_DIRECT_JUMP	ACCESS:     399519  HIT:     394617  MISS:       4902	AVERAGE STALL: 22.5723
L2BTB BRANCH_INDIRECT	ACCESS:     106386  HIT:     103657  MISS:       2729	AVERAGE STALL: 50.494
L2BTB BRANCH_CONDITIONAL	ACCESS:    1293806  HIT:    1289516  MISS:       4290	AVERAGE STALL: 31.0589
L2BTB BRANCH_DIRECT_CALL	ACCESS:     840408  HIT:     838377  MISS:       2031	AVERAGE STALL: 30.5414
L2BTB BRANCH_INDIRECT_CALL	ACCESS:     141114  HIT:     130895  MISS:      10219	AVERAGE STALL: 64.7477
L2BTB BRANCH_RETURN	ACCESS:     826589  HIT:     784937  MISS:      41652	AVERAGE STALL: 32.3607
L2BTB BRANCH_OTHER ACCESS:          0  HIT:          0  MISS:          0	AVERAGE STALL: -nan
L2BTB TOTAL ROB OCCUPANCY AT BTB MISS: 34.96

L2C TOTAL     ACCESS:    4514782  HIT:    4001590  MISS:     513192  HIT %:    88.6331  MISS %:    11.3669   MPKI: 10.2638
L2C LOAD INSTRUCTION	ACCESS:    2767113  HIT:    2493419  MISS:     273694  HIT %:     90.109  MISS %:    9.89096  MPKI: 5.47388
L2C LOAD TRANSLATION INSTRUCTION	ACCESS:        336  HIT:        116  MISS:        220  HIT %:    34.5238  MISS %:    65.4762  MPKI: 0.0044
L2C LOAD DATA	ACCESS:     729959  HIT:     638989  MISS:      90970  HIT %:    87.5377  MISS %:    12.4623  MPKI: 1.8194
L2C RFO DATA	ACCESS:     288839  HIT:     236439  MISS:      52400  HIT %:    81.8584  MISS %:    18.1416  MPKI: 1.048
L2C PREFETCH DATA	ACCESS:     202422  HIT:     122467  MISS:      79955  HIT %:    60.5008  MISS %:    39.4992  MPKI: 1.5991
L2C WRITEBACK DATA	ACCESS:     524114  HIT:     509467  MISS:      14647  HIT %:    97.2054  MISS %:    2.79462  MPKI: 0.29294
L2C LOAD TRANSLATION DATA	ACCESS:       1945  HIT:        656  MISS:       1289  HIT %:    33.7275  MISS %:    66.2725  MPKI: 0.02578
L2C TRANSLATION FROM L1D PREFETCHER DATA	ACCESS:         54  HIT:         37  MISS:         17  HIT %:    68.5185  MISS %:    31.4815  MPKI: 0.00034

L2C PREFETCH  REQUESTED:     106407  ISSUED:     106407  USEFUL:      10454  USELESS:      70274
L2C USEFUL LOAD PREFETCHES:      10454 PREFETCH ISSUED TO LOWER LEVEL:      80636  ACCURACY: 12.9644
 TIMELY PREFETCHES:      10454 LATE PREFETCHES: 681 DROPPED PREFETCHES: 0
L2C AVERAGE MISS LATENCY: 38.5913 cycles
L2C RQ	ACCESS:    3788268	FORWARD:          0	MERGED:          0	TO_CACHE:    3788246
L2C WQ	ACCESS:     524114	FORWARD:         22	MERGED:          0	TO_CACHE:     524114
L2C PQ	ACCESS:     210934	FORWARD:          0	MERGED:       3699	TO_CACHE:     207235

L2C Dense regions hint from L2: 0
PSCL5 TOTAL     ACCESS:       4410  HIT:       2205  MISS:       2205  HIT %:         50  MISS %:         50   MPKI: 0.0441
PSCL5 LOAD TRANSLATION INSTRUCTION	ACCESS:       4304  HIT:       2152  MISS:       2152  HIT %:         50  MISS %:         50  MPKI: 0.04304
PSCL5 TRANSLATION FROM L1D PREFETCHER INSTRUCTION	ACCESS:        106  HIT:         53  MISS:         53  HIT %:         50  MISS %:         50  MPKI: 0.00106


PSCL4 TOTAL     ACCESS:       4335  HIT:       2165  MISS:       2170  HIT %:    49.9423  MISS %:    50.0577   MPKI: 0.0434
PSCL4 LOAD TRANSLATION INSTRUCTION	ACCESS:       3829  HIT:       2117  MISS:       1712  HIT %:    55.2886  MISS %:    44.7114  MPKI: 0.03424
PSCL4 TRANSLATION FROM L1D PREFETCHER INSTRUCTION	ACCESS:         90  HIT:         48  MISS:         42  HIT %:    53.3333  MISS %:    46.6667  MPKI: 0.00084
PSCL4 LOAD TRANSLATION DATA	ACCESS:        410  HIT:          0  MISS:        410  HIT %:          0  MISS %:        100  MPKI: 0.0082
PSCL4 TRANSLATION FROM L1D PREFETCHER DATA	ACCESS:          6  HIT:          0  MISS:          6  HIT %:          0  MISS %:        100  MPKI: 0.00012


PSCL3 TOTAL     ACCESS:       4339  HIT:       2167  MISS:       2172  HIT %:    49.9424  MISS %:    50.0576   MPKI: 0.04344
PSCL3 LOAD TRANSLATION INSTRUCTION	ACCESS:       3831  HIT:       2119  MISS:       1712  HIT %:    55.3119  MISS %:    44.6881  MPKI: 0.03424
PSCL3 TRANSLATION FROM L1D PREFETCHER INSTRUCTION	ACCESS:         90  HIT:         48  MISS:         42  HIT %:    53.3333  MISS %:    46.6667  MPKI: 0.00084
PSCL3 LOAD TRANSLATION DATA	ACCESS:        412  HIT:          0  MISS:        412  HIT %:          0  MISS %:        100  MPKI: 0.00824
PSCL3 TRANSLATION FROM L1D PREFETCHER DATA	ACCESS:          6  HIT:          0  MISS:          6  HIT %:          0  MISS %:        100  MPKI: 0.00012


PSCL2 TOTAL     ACCESS:       4289  HIT:       2084  MISS:       2205  HIT %:    48.5894  MISS %:    51.4106   MPKI: 0.0441
PSCL2 LOAD TRANSLATION INSTRUCTION	ACCESS:       2327  HIT:       2032  MISS:        295  HIT %:    87.3227  MISS %:    12.6773  MPKI: 0.0059
PSCL2 TRANSLATION FROM L1D PREFETCHER INSTRUCTION	ACCESS:         52  HIT:         52  MISS:          0  HIT %:        100  MISS %:          0  MPKI: 0
PSCL2 LOAD TRANSLATION DATA	ACCESS:       1858  HIT:          0  MISS:       1858  HIT %:          0  MISS %:        100  MPKI: 0.03716
PSCL2 TRANSLATION FROM L1D PREFETCHER DATA	ACCESS:         52  HIT:          0  MISS:         52  HIT %:          0  MISS %:        100  MPKI: 0.00104


LLC TOTAL     ACCESS:     577299  HIT:     546654  MISS:      30645  HIT %:    94.6917  MISS %:    5.30834   MPKI: 0.6129
LLC LOAD INSTRUCTION	ACCESS:     273694  HIT:     272706  MISS:        988  HIT %:     99.639  MISS %:   0.360987  MPKI: 0.01976
LLC LOAD TRANSLATION INSTRUCTION	ACCESS:        220  HIT:        192  MISS:         28  HIT %:    87.2727  MISS %:    12.7273  MPKI: 0.00056
LLC LOAD DATA	ACCESS:      90330  HIT:      86588  MISS:       3742  HIT %:    95.8574  MISS %:    4.14259  MPKI: 0.07484
LLC RFO DATA	ACCESS:      52358  HIT:      37039  MISS:      15319  HIT %:    70.7418  MISS %:    29.2582  MPKI: 0.30638
LLC PREFETCH DATA	ACCESS:      80636  HIT:      70524  MISS:      10112  HIT %:    87.4597  MISS %:    12.5403  MPKI: 0.20224
LLC WRITEBACK DATA	ACCESS:      78755  HIT:      78369  MISS:        386  HIT %:    99.5099  MISS %:   0.490128  MPKI: 0.00772
LLC LOAD TRANSLATION DATA	ACCESS:       1289  HIT:       1220  MISS:         69  HIT %:     94.647  MISS %:    5.35299  MPKI: 0.00138
LLC TRANSLATION FROM L1D PREFETCHER DATA	ACCESS:         17  HIT:         16  MISS:          1  HIT %:    94.1176  MISS %:    5.88235  MPKI: 2e-05

LLC AVERAGE MISS LATENCY: 156.692 cycles
LLC RQ	ACCESS:     417909	FORWARD:          0	MERGED:          0	TO_CACHE:     417908
LLC WQ	ACCESS:      78755	FORWARD:          1	MERGED:          0	TO_CACHE:      78755
LLC PQ	ACCESS:      80636	FORWARD:          0	MERGED:          0	TO_CACHE:      80636

LLC Dense regions hint to LLC: 0

RAW hits: 1238735
Loads Generated: 12636894
Loads sent to L1D: 11398159
Stores Generated: 6950861
Stores sent to L1D: 6950873
Major fault: 0 Minor fault: 2661
Allocated PAGES: 2661

stream: 
stream:times selected: 1189516
stream:pref_filled: 120174
stream:pref_useful: 24711
stream:pref_late: 6244
stream:misses: 7589
stream:misses_by_poll: 0

CS: 
CS:times selected: 181509
CS:pref_filled: 60038
CS:pref_useful: 37152
CS:pref_late: 7419
CS:misses: 17394
CS:misses_by_poll: 4

CPLX: 
CPLX:times selected: 1006888
CPLX:pref_filled: 22436
CPLX:pref_useful: 5074
CPLX:pref_late: 3197
CPLX:misses: 92030
CPLX:misses_by_poll: 1

NL_L1: 
NL:times selected: 19796
NL:pref_filled: 656
NL:pref_useful: 358
NL:pref_late: 353
NL:misses: 1518
NL:misses_by_poll: 0

total selections: 2397709
total_filled: 96125
total_useful: 36440
total_late: 18356
total_polluted: 5
total_misses_after_warmup: 774154
conflicts: 5979335

test: 117291

DRAM Statistics
 CHANNEL 0
 RQ ROW_BUFFER_HIT:      11448  ROW_BUFFER_MISS:      18805
 DBUS_CONGESTED:          6
 WQ ROW_BUFFER_HIT:       1423  ROW_BUFFER_MISS:      13075  FULL:          0

 AVG_CONGESTED_CYCLE: 6

CPU 0 Branch Prediction Accuracy: 99.8222% MPKI: 0.32518 Average ROB Occupancy at Mispredict: 75.9503
Branch types
NOT_BRANCH: 40854094 81.7082%
BRANCH_DIRECT_JUMP: 547505 1.09501%
BRANCH_INDIRECT: 182331 0.364662%
BRANCH_CONDITIONAL: 6176877 12.3538%
BRANCH_DIRECT_CALL: 946911 1.89382%
BRANCH_INDIRECT_CALL: 172515 0.34503%
BRANCH_RETURN: 1119424 2.23885%
BRANCH_OTHER: 0 0%

DRAM PAGES: 1048576
Allocated PAGES: 2661
Average_ROB_Occupancy: 55.6048
Average_Decode_Occupancy: 4.94051
Average_FTQ_Occupancy: 14.9125
Indirect max targets: 14 Average targets: 1.17778
Branch_type:  BRANCH_DIRECT_JUMP:  Count Percentage: 3.31585 6.40468 4.09988 3.79399 9.94993 2.71886 1.60284 68.114 
Branch_type:  BRANCH_INDIRECT:  Count Percentage: 13.7711 3.44093 5.36714 3.7354 9.68519 1.20521 3.20251 59.5925 
Branch_type:  BRANCH_CONDITIONAL:  Count Percentage: 21.4794 3.03676 1.85295 3.15864 6.30754 9.54197 0.92737 53.6953 
Branch_type:  BRANCH_DIRECT_CALL:  Count Percentage: 0.752137 1.26427 1.02866 2.58891 5.1255 2.07211 0.618671 86.5497 
Branch_type:  BRANCH_INDIRECT_CALL:  Count Percentage: 9.52373 0 2.98403 4.26156 1.2589 2.9916 0.995938 77.9842 
Branch_type:  BRANCH_RETURN:  Count Percentage: 4.51994 1.37725 2.61165 3.27381 8.30368 10.5543 1.1845 68.1749 
Branch_type:  BRANCH_DIRECT_JUMP:  Total Count: 36325 70163 44914 41563 109001 29785 17559 746185 
Branch_type:  BRANCH_INDIRECT:  Total Count: 50367 12585 19630 13662 35423 4408 11713 217956 
Branch_type:  BRANCH_CONDITIONAL:  Total Count: 2653629 375170 228919 390228 779252 1178843 114570 6633678 
Branch_type:  BRANCH_DIRECT_CALL:  Total Count: 14190 23852 19407 48843 96699 39093 11672 1632868 
Branch_type:  BRANCH_INDIRECT_CALL:  Total Count: 32704 0 10247 14634 4323 10273 3420 267794 
Branch_type:  BRANCH_RETURN:  Total Count: 100835 30725 58263 73035 185246 235454 26425 1520907 
Number of unique branch instructions: 10810
Upper 32 bits: 
aaaa
ffff
ffff0000
Unique upper 32 bits: 3
Unique upper 36 bits: 3
Unique upper 40 bits: 5
Unique upper 44 bits: 32
Unique upper 48 bits: 158
Variant_0 : 1403 0.342529
Variant_1 : 1309 0.31958
Variant_2 : 1357 0.331299
Variant_3 : 0 0
Offset_3 4480
Offset_4 261
Offset_5 486
Offset_6 545
Offset_7 643
Offset_8 585
Offset_9 519
Offset_10 426
Offset_11 348
Offset_12 325
Offset_13 237
Offset_14 247
Offset_15 192
Offset_16 234
Offset_17 170
Offset_18 154
Offset_19 267
Offset_20 145
Offset_21 235
Offset_22 411
Offset_23 241
Offset_24 347
Offset_25 117
Offset_47 92
decode_dispatch_called: 30378769 54.2872
Dispatch_width: 0 18250607 60.0768 32.6141
Dispatch_width: 1 2339621 7.7015 4.18093
Dispatch_width: 2 1122241 3.69416 2.00546
Dispatch_width: 3 1076117 3.54233 1.92303
Dispatch_width: 4 1031897 3.39677 1.84401
Dispatch_width: 5 1290094 4.2467 2.30541
Dispatch_width: 6 5268192 17.3417 9.41432
Empty_decode_cycles: 25580553 45.7128
ROB_full_cycles: 552982 0.988186
Starvation_cycles_per_kilo_instr: 501.381
Starvation_cycles_per_kilo_instr_3: 478.162
Starvation_cycles_per_kilo_instr_0: 432.782
Branch_type_1  (3,1)  (4,9)  (5,39)  (6,75)  (7,126)  (8,152)  (9,137)  (10,110)  (11,77)  (12,55)  (13,11)  (14,2)  (15,3)  (16,4)  (18,1)  (19,5)  (20,2)  (21,1)  (22,3)  (23,2)  (24,10)  (25,12) 
Branch_type_2  (3,1)  (4,1)  (5,1)  (8,4)  (9,4)  (10,1)  (12,1)  (13,1)  (14,1)  (16,3)  (17,2)  (20,2)  (21,2)  (23,5)  (24,1)  (47,41) 
Branch_type_3  (3,4478)  (4,251)  (5,442)  (6,453)  (7,485)  (8,360)  (9,282)  (10,173)  (11,136)  (12,62)  (13,10) 
Branch_type_4  (6,4)  (7,8)  (8,26)  (9,58)  (10,68)  (11,69)  (12,116)  (13,100)  (14,112)  (15,91)  (16,105)  (17,77)  (18,66)  (19,129)  (20,74)  (21,124)  (22,216)  (23,136)  (24,202)  (25,101) 
Branch_type_5  (8,3)  (9,1)  (10,4)  (11,5)  (12,3)  (13,14)  (14,16)  (15,11)  (16,22)  (17,13)  (18,23)  (19,14)  (20,11)  (21,13)  (22,43)  (23,26)  (24,38) 
Branch_type_6  (5,4)  (6,13)  (7,24)  (8,40)  (9,37)  (10,70)  (11,61)  (12,88)  (13,101)  (14,116)  (15,87)  (16,100)  (17,78)  (18,64)  (19,119)  (20,56)  (21,95)  (22,149)  (23,72)  (24,96)  (25,4)  (47,51) 
Unique trigger count: 
Variant_0_evicts_0 : 0
Variant_0_evicts_1 : 0
Variant_0_evicts_2 : 0
Variant_0_evicts_3 : 0
Variant_1_evicts_0 : 0
Variant_1_evicts_1 : 0
Variant_1_evicts_2 : 0
Variant_1_evicts_3 : 0
Variant_2_evicts_0 : 0
Variant_2_evicts_1 : 0
Variant_2_evicts_2 : 0
Variant_2_evicts_3 : 0
Variant_3_evicts_0 : 0
Variant_3_evicts_1 : 0
Variant_3_evicts_2 : 0
Variant_3_evicts_3 : 0
BTB PER SET UNIQUE ADDR: 15 12 10 15 15 12 12 16 9 11 14 19 14 13 14 9 10 11 15 14 14 10 15 12 12 14 9 14 11 12 13 18 15 9 8 12 14 17 11 16 14 9 14 16 13 10 18 10 17 14 18 13 11 12 11 6 9 10 13 12 10 19 12 10 13 12 13 11 16 13 11 13 16 10 9 7 8 15 13 16 17 7 15 12 15 16 16 10 8 27 9 10 12 13 7 16 7 14 17 15 15 12 17 11 11 9 14 14 9 11 10 15 17 9 10 6 20 9 13 14 19 15 10 12 13 12 7 12 21 13 10 15 12 15 8 18 10 15 8 18 8 10 13 11 13 9 16 11 8 16 15 18 15 9 12 16 19 16 17 13 12 10 10 16 10 14 14 13 15 10 10 12 7 11 15 8 11 8 11 16 14 13 14 16 18 19 10 13 11 14 7 12 11 11 15 14 9 12 13 14 7 13 15 13 11 8 13 15 9 12 10 11 13 10 6 14 13 12 12 12 8 14 7 9 13 10 15 11 7 13 10 7 11 17 13 16 10 13 12 7 14 12 11 15 13 11 11 11 13 8 14 13 15 11 17 15 10 7 13 13 15 11 5 12 17 10 11 14 10 13 10 17 9 6 8 11 13 14 13 12 10 19 5 11 15 12 11 18 18 16 13 7 16 15 5 14 12 8 17 12 12 9 11 18 10 13 11 10 23 11 15 25 9 15 12 9 18 14 12 15 12 17 8 10 17 14 15 10 9 10 10 15 9 14 14 12 10 18 6 20 10 12 8 16 12 15 12 10 15 12 14 14 10 13 9 12 11 11 11 14 10 21 7 19 11 16 7 12 8 13 14 12 16 14 16 22 17 16 11 11 14 11 8 11 15 13 10 14 14 16 9 11 16 18 10 10 12 10 15 15 10 14 5 9 16 10 14 18 13 13 15 8 9 16 12 16 11 9 20 21 12 15 9 14 15 11 11 13 12 13 14 11 9 15 15 12 17 12 12 12 11 12 13 13 19 8 10 13 14 15 12 13 16 10 13 20 17 14 10 18 15 11 12 11 15 9 14 15 14 16 14 16 16 14 10 20 13 16 9 10 23 16 13 14 11 17 15 13 12 15 9 14 14 11 14 7 14 17 10 12 15 13 10 16 12 11 11 12 9 15 12 12 11 14 14 13 12 17 7 8 10 10 12 13 12 14 21 11 8 20 14 16 17 11 12 17 14 12 11 12 16 10 15 13 19 15 11 17 12 12 15 16 15 12 16 16 11 8 16 13 13 15 13 12 16 13 7 16 12 16 13 13 20 15 15 14 19 18 12 15 14 13 5 16 16 14 15 13 18 16 11 13 13 10 17 8 10 9 11 12 16 14 16 8 18 19 16 16 15 10 16 15 13 14 6 13 13 11 15 16 15 12 9 11 11 20 13 23 6 16 15 15 17 13 11 13 11 19 10 21 11 14 12 17 16 15 9 17 17 12 11 14 11 9 13 9 15 14 14 14 14 7 13 16 12 12 9 13 14 10 12 13 10 12 24 10 9 17 12 14 12 13 10 13 12 14 15 12 14 11 11 11 14 11 12 13 11 17 8 10 8 14 12 14 11 12 12 12 11 11 9 10 8 10 8 10 15 13 12 19 15 10 14 15 12 12 12 14 13 9 15 12 9 8 14 21 16 14 18 11 10 12 12 11 13 15 12 12 11 7 14 12 12 15 8 13 15 12 10 11 13 5 7 12 11 16 14 13 15 13 14 13 13 11 9 11 12 9 15 12 9 15 14 10 14 11 11 15 13 5 7 10 20 13 12 17 15 12 14 14 16 15 18 15 18 10 13 10 11 11 10 17 6 16 14 16 19 10 9 13 17 19 9 13 13 12 10 16 15 17 17 16 14 11 12 17 11 16 12 13 19 13 10 14 15 19 8 19 10 8 12 17 11 13 14 16 14 14 11 10 14 9 10 12 18 7 14 8 19 11 9 11 15 10 19 7 9 19 11 12 16 12 13 19 12 11 17 13 17 14 19 14 12 12 13 13 17 12 13 11 14 12 16 18 8 16 11 17 12 12 14 15 13 11 16 12 21 15 12 14 13 13 13 11 16 12 7 10 12 8 14 20 17 14 11 16 11 11 16 17 10 14 9 15 13 16 17 14 11 14 15 15 10 14 11 13 10 15 14 13 14 16 15 11 16 11 18 13 15 15 16 13 14 12 21 13 17 11 15 20 10 15 15 14 11 18 13 15 16 14 16 13 14 11 18 11 7 14 13 12 16 21 9 14 14 16 9 23 13 13 16 14 9 10 13 13 7 10 8 10 12 20 16 12 
BTB PER SET COUNT: 21 16 845 24 1108 20 984 554 1366 14 25 995 19384 17 17 11 1213 1616 18 24 32 11 722 18 16 19 13 16 390 19 20 1088 22 14 10 14 17 364 16 46 17 14 19 20 1479 10 26 11 873 78 29 323 13 18 338 6 14 12 120 18 11 27 186 13 16 15 17 14 31 18 1479 698 23 13 13 9 13 68 22 33 293 7 609 1003 17 397 19 17 1273 47 12 505 255 18 9 28 1486 22 28 18 23 22 17 13 528 11 27 24 1000 18 15 23 426 14 14 1316 29 12 1547 43 530 57 12 13 15 127 9 1432 35 640 14 2368 25 33 10 23 982 26 10 28 12 14 16 11 16 11 26 19 17 258 30 183 889 11 13 30 247 18 25 1172 16 228 13 27 1477 20 21 15 18 711 12 13 8 15 33 1005 12 10 21 339 21 14 2584 25 20 28 14 19 998 19 10 12 13 14 20 16 10 511 14 22 9 19 993 22 15 11 14 268 12 15 18 18 19 10913 8 49 19 20 2203 16 8 25 9 24 20 13 23 12 391 18 11 9 17 38 17 20 21 639 30 15 279 16 15 20 18 15 428 15 201 10 20 19 16 12 27 68 91 11 20 16 23 13 5 14 21 12 13 20 726 13 16 74 9 6 266 14 18 16 15 16 14 33 9 11 20 13 13 22 26 20 15 11 18 495 5 22 13 8 23 136 14 17 13 38 16 21 11 14 83 26 18 29 10 19 51 969 23 29 14 31 16 2910 8 13 21 189 177 15 9 19 12 20 41 21 18 15 13 431 11 25 10 1457 10 28 22 20 17 16 25 16 102 83 13 15 12 12 15 25 490 18 11 28 10 37 11 49 7 13 12 15 24 13 18 117 146 41 30 21 12 12 845 13 11 14 29 18 14 25 25 216 11 11 29 250 13 570 13 17 27 26 10 22 5 17 29 14 16 32 20 24 26 8 12 959 15 24 17 1150 53 34 16 20 10 21 30 14 576 19 23 452 24 16 15 31 452 18 19 296 14 14 13 22 19 20 25 8 12 19 21 19 18 2973 22 12 257 1462 27 21 11 34 28 12 16 20 22 12 3978 20 19 32 21 23 19 20 12 44 23 21 14 13 28 28 15 19 16 22 28 22 17 81 9 18 785 14 16 7 138 977 11 28 25 22 16 177 16 19 12 16 9 35 13 23 631 452 21 16 16 26 10 8 12 14 17 249 15 25 740 188 10 646 25 24 20 11 19 28 22 29 14 439 25 15 18 13 23 19 11 26 20 285 30 28 258 24 25 27 14 8 27 13 22 103 15 17 462 14 135 18 17 22 25 14 31 20 451 17 23 44 13 24 20 32 7 538 24 18 27 17 29 16 12 143 286 19 27 8 11 392 256 14 21 24 23 10 26 26 28 1204 16 12 23 1481 161 16 6 24 17 17 23 27 17 13 14 18 13 26 21 40 6 24 22 32 219 94 12 20 16 819 11 287 14 18 17 35 18 179 230 23 799 17 14 19 15 12 2576 508 21 143 18 326 70 12 13 18 1619 28 9 26 1486 17 14 16 980 15 33 506 11 25 18 21 13 15 1110 24 24 21 29 19 180 15 15 16 17 19 444 20 210 1692 15 11 10 16 1480 15 13 15 21 17 18 16 14 12 12 11 9 129 845 26 15 203 25 15 22 1202 14 22 19 20 997 1287 422 15 16 11 18 971 1010 16 33 15 24 20 521 24 35 19 975 14 18 9 223 12 18 646 9 17 19 1476 13 15 18 5 8 14 14 27 20 2456 20 338 46 269 18 12 15 18 12 9 18 14 1519 27 71 10 25 15 15 19 18 5 12 980 30 14 1203 138 67 20 25 680 21 21 158 18 52 12 18 13 11 46 11 1652 6 31 26 110 33 20 11 800 31 824 11 21 168 13 12 27 25 22 24 28 17 12 408 20 20 26 15 17 29 134 12 23 352 29 14 34 13 9 1480 631 19 16 132 20 16 27 14 14 41 9 13 16 1022 9 27 8 33 43 15 17 24 16 25 8 11 30 14 20 17 13 149 38 764 396 24 16 26 27 32 637 154 6143 24 16 30 19 19 13 23 20 19 111 12 20 14 27 18 19 20 512 16 12 24 2824 2375 263 20 24 18 18 27 11 26 18 9 16 17 30 26 36 22 18 56 25 14 14 721 25 11 782 14 20 18 27 23 21 15 15 376 60 332 2245 13 19 191 26 20 46 18 37 40 15 18 17 793 23 18 24 73 14 18 15 215 26 23 14 25 27 20 477 50 146 22 197 16 513 22 17 25 281 504 549 1134 18 7 192 24 609 20 405 13 19 17 27 12 35 21 986 577 48 15 16 20 16 11 10 9 10 15 368 23 12 
To predecode: 0
Predecoding something: 0
Predecode request dropped: 0
sizeofblock_0 0
sizeofblock_1 43482
sizeofblock_2 33203
sizeofblock_3 39152
sizeofblock_4 22933
sizeofblock_5 0
sizeofblock_6 0
sizeofblock_7 0
sizeofblock_8 0
Variant_0 Correct: 1609574 Incorrect: 0 Accuracy: 1
Variant_1 Correct: 2086317 Incorrect: 0 Accuracy: 1
Variant_2 Correct: 3638182 Incorrect: 0 Accuracy: 1
Variant_3 Correct: 0 Incorrect: 0 Accuracy: -nan
