
*** ChampSim Multicore Out-of-Order Simulator ***

Warmup Instructions: 50000000
Simulation Instructions: 50000000
Number of CPUs: 1
LLC sets: 2048
LLC ways: 16
Off-chip DRAM Size: 4096 MB Channels: 1 Width: 64-bit Data Rate: 6400 MT/s
CPU 0 runs ./micro_traces/srv595.trace.gz
.gz
ITLB has LRU replacement policy
DTLB has LRU replacement policy
STLB has LRU replacement policy
FDIP Prefetcher at L1I
L1I has LRU replacement policy
L1D has LRU replacement policy
Initialize SRRIP state for L2C
Initialize DRRIP state for LLC
Heartbeat_Variant_0 : 1277 0.311768 per_variant_size: 0 1277 0 0 0 0 0 0 0 
Heartbeat_Variant_1 : 1149 0.280518 per_variant_size: 0 542 607 0 0 0 0 0 0 
Heartbeat_Variant_2 : 922 0.225098 per_variant_size: 0 500 269 116 37 0 0 0 0 
Heartbeat_Variant_3 : 725 0.177002 per_variant_size: 0 480 192 42 10 1 0 0 0 
Heartbeat_Variant_0_evicts 0 : 7467 1 : 1850 2 : 1489 3 : 1174 
Heartbeat_Variant_1_evicts 0 : 1804 1 : 0 2 : 1399 3 : 1304 
Heartbeat_Variant_2_evicts 0 : 1468 1 : 1396 2 : 0 3 : 883 
Heartbeat_Variant_3_evicts 0 : 1179 1 : 1285 2 : 879 3 : 0 
Heartbeat CPU 0 instructions: 10000000 cycles: 2796835 heartbeat IPC: 3.57547 cumulative IPC: 3.57547 (Simulation time: 0 hr 2 min 8 sec) 
Heartbeat_Variant_0 : 1280 0.3125 per_variant_size: 0 1280 0 0 0 0 0 0 0 
Heartbeat_Variant_1 : 1168 0.285156 per_variant_size: 0 565 603 0 0 0 0 0 0 
Heartbeat_Variant_2 : 919 0.224365 per_variant_size: 0 504 260 107 48 0 0 0 0 
Heartbeat_Variant_3 : 715 0.174561 per_variant_size: 0 465 195 43 10 2 0 0 0 
Heartbeat_Variant_0_evicts 0 : 6622 1 : 1113 2 : 920 3 : 696 
Heartbeat_Variant_1_evicts 0 : 1119 1 : 0 2 : 791 3 : 833 
Heartbeat_Variant_2_evicts 0 : 901 1 : 783 2 : 0 3 : 497 
Heartbeat_Variant_3_evicts 0 : 706 1 : 830 2 : 478 3 : 0 
Heartbeat CPU 0 instructions: 20000000 cycles: 5592832 heartbeat IPC: 3.57654 cumulative IPC: 3.57601 (Simulation time: 0 hr 3 min 48 sec) 
Heartbeat_Variant_0 : 1268 0.30957 per_variant_size: 0 1268 0 0 0 0 0 0 0 
Heartbeat_Variant_1 : 1147 0.280029 per_variant_size: 0 537 610 0 0 0 0 0 0 
Heartbeat_Variant_2 : 964 0.235352 per_variant_size: 0 564 251 107 42 0 0 0 0 
Heartbeat_Variant_3 : 705 0.172119 per_variant_size: 0 440 205 53 6 1 0 0 0 
Heartbeat_Variant_0_evicts 0 : 7019 1 : 1333 2 : 1050 3 : 795 
Heartbeat_Variant_1_evicts 0 : 1326 1 : 0 2 : 981 3 : 841 
Heartbeat_Variant_2_evicts 0 : 1054 1 : 983 2 : 0 3 : 599 
Heartbeat_Variant_3_evicts 0 : 810 1 : 853 2 : 562 3 : 0 
Heartbeat CPU 0 instructions: 30000002 cycles: 8388433 heartbeat IPC: 3.57705 cumulative IPC: 3.57635 (Simulation time: 0 hr 5 min 26 sec) 
Heartbeat_Variant_0 : 1277 0.311768 per_variant_size: 0 1277 0 0 0 0 0 0 0 
Heartbeat_Variant_1 : 1163 0.283936 per_variant_size: 0 563 600 0 0 0 0 0 0 
Heartbeat_Variant_2 : 935 0.228271 per_variant_size: 0 508 269 116 42 0 0 0 0 
Heartbeat_Variant_3 : 710 0.17334 per_variant_size: 0 457 188 56 9 0 0 0 0 
Heartbeat_Variant_0_evicts 0 : 6855 1 : 1200 2 : 1039 3 : 741 
Heartbeat_Variant_1_evicts 0 : 1198 1 : 0 2 : 890 3 : 858 
Heartbeat_Variant_2_evicts 0 : 1002 1 : 880 2 : 0 3 : 578 
Heartbeat_Variant_3_evicts 0 : 771 1 : 850 2 : 561 3 : 0 
Heartbeat CPU 0 instructions: 40000000 cycles: 11184618 heartbeat IPC: 3.5763 cumulative IPC: 3.57634 (Simulation time: 0 hr 7 min 6 sec) 
Heartbeat_Variant_0 : 1278 0.312012 per_variant_size: 0 1278 0 0 0 0 0 0 0 
Heartbeat_Variant_1 : 1162 0.283691 per_variant_size: 0 554 608 0 0 0 0 0 0 
Heartbeat_Variant_2 : 934 0.228027 per_variant_size: 0 506 278 108 42 0 0 0 0 
Heartbeat_Variant_3 : 712 0.173828 per_variant_size: 0 467 182 51 12 0 0 0 0 
Heartbeat_Variant_0_evicts 0 : 6988 1 : 1326 2 : 1032 3 : 781 
Heartbeat_Variant_1_evicts 0 : 1331 1 : 0 2 : 927 3 : 838 
Heartbeat_Variant_2_evicts 0 : 1050 1 : 932 2 : 0 3 : 588 
Heartbeat_Variant_3_evicts 0 : 757 1 : 839 2 : 613 3 : 0 
Heartbeat CPU 0 instructions: 50000000 cycles: 13980807 heartbeat IPC: 3.5763 cumulative IPC: 3.57633 (Simulation time: 0 hr 8 min 47 sec) 

Warmup complete CPU 0 instructions: 50000004 cycles: 13980808 (Simulation time: 0 hr 8 min 47 sec) 

Cycle: 20000000 FTQ IN: 58123817 FTQ occupancy: 19.3942 DECODE IN: 58123715 DECODE occupancy: 50.4044 ROB IN: 58123655 ROB occupancy: 307.53 ROB OUT: 58123447
Heartbeat_Variant_0 : 1272 0.310547 per_variant_size: 0 1272 0 0 0 0 0 0 0 
Heartbeat_Variant_1 : 1153 0.281494 per_variant_size: 0 551 602 0 0 0 0 0 0 
Heartbeat_Variant_2 : 956 0.233398 per_variant_size: 0 537 283 104 32 0 0 0 0 
Heartbeat_Variant_3 : 705 0.172119 per_variant_size: 0 457 178 60 9 1 0 0 0 
Heartbeat_Variant_0_evicts 0 : 6628 1 : 1125 2 : 985 3 : 700 
Heartbeat_Variant_1_evicts 0 : 1133 1 : 0 2 : 784 3 : 807 
Heartbeat_Variant_2_evicts 0 : 968 1 : 809 2 : 0 3 : 529 
Heartbeat_Variant_3_evicts 0 : 715 1 : 799 2 : 515 3 : 0 
Heartbeat CPU 0 instructions: 60000001 cycles: 21403036 heartbeat IPC: 1.3473 cumulative IPC: 1.3473 (Simulation time: 0 hr 10 min 27 sec) 
Heartbeat_Variant_0 : 1266 0.309082 per_variant_size: 0 1266 0 0 0 0 0 0 0 
Heartbeat_Variant_1 : 1164 0.28418 per_variant_size: 0 570 594 0 0 0 0 0 0 
Heartbeat_Variant_2 : 944 0.230469 per_variant_size: 0 517 285 101 41 0 0 0 0 
Heartbeat_Variant_3 : 712 0.173828 per_variant_size: 0 458 194 51 7 2 0 0 0 
Heartbeat_Variant_0_evicts 0 : 7046 1 : 1456 2 : 1120 3 : 864 
Heartbeat_Variant_1_evicts 0 : 1485 1 : 0 2 : 1021 3 : 907 
Heartbeat_Variant_2_evicts 0 : 1101 1 : 1028 2 : 0 3 : 605 
Heartbeat_Variant_3_evicts 0 : 860 1 : 918 2 : 605 3 : 0 
Heartbeat CPU 0 instructions: 70000002 cycles: 28965924 heartbeat IPC: 1.32225 cumulative IPC: 1.33466 (Simulation time: 0 hr 12 min 10 sec) 
Cycle: 30000000 FTQ IN: 13264282 FTQ occupancy: 10.5963 DECODE IN: 13264293 DECODE occupancy: 26.229 ROB IN: 13264343 ROB occupancy: 198.145 ROB OUT: 13264465
Heartbeat_Variant_0 : 1275 0.311279 per_variant_size: 0 1275 0 0 0 0 0 0 0 
Heartbeat_Variant_1 : 1164 0.28418 per_variant_size: 0 525 639 0 0 0 0 0 0 
Heartbeat_Variant_2 : 931 0.227295 per_variant_size: 0 473 302 103 53 0 0 0 0 
Heartbeat_Variant_3 : 718 0.175293 per_variant_size: 0 455 189 65 8 1 0 0 0 
Heartbeat_Variant_0_evicts 0 : 6756 1 : 1113 2 : 795 3 : 668 
Heartbeat_Variant_1_evicts 0 : 1102 1 : 0 2 : 756 3 : 744 
Heartbeat_Variant_2_evicts 0 : 800 1 : 746 2 : 0 3 : 459 
Heartbeat_Variant_3_evicts 0 : 665 1 : 745 2 : 467 3 : 0 
Heartbeat CPU 0 instructions: 80000002 cycles: 36363917 heartbeat IPC: 1.35172 cumulative IPC: 1.3403 (Simulation time: 0 hr 13 min 52 sec) 
Cycle: 40000000 FTQ IN: 13481999 FTQ occupancy: 10.9333 DECODE IN: 13481993 DECODE occupancy: 27.5609 ROB IN: 13481943 ROB occupancy: 206.178 ROB OUT: 13481718
Heartbeat_Variant_0 : 1262 0.308105 per_variant_size: 0 1262 0 0 0 0 0 0 0 
Heartbeat_Variant_1 : 1159 0.282959 per_variant_size: 0 552 607 0 0 0 0 0 0 
Heartbeat_Variant_2 : 943 0.230225 per_variant_size: 0 531 271 95 46 0 0 0 0 
Heartbeat_Variant_3 : 724 0.176758 per_variant_size: 0 482 184 48 7 3 0 0 0 
Heartbeat_Variant_0_evicts 0 : 7239 1 : 1578 2 : 1171 3 : 909 
Heartbeat_Variant_1_evicts 0 : 1552 1 : 0 2 : 1194 3 : 935 
Heartbeat_Variant_2_evicts 0 : 1212 1 : 1159 2 : 0 3 : 728 
Heartbeat_Variant_3_evicts 0 : 907 1 : 949 2 : 722 3 : 0 
Heartbeat CPU 0 instructions: 90000003 cycles: 43932167 heartbeat IPC: 1.32131 cumulative IPC: 1.3355 (Simulation time: 0 hr 15 min 32 sec) 
Cycle: 50000000 FTQ IN: 13378030 FTQ occupancy: 11.0915 DECODE IN: 13378037 DECODE occupancy: 27.5799 ROB IN: 13378037 ROB occupancy: 205.159 ROB OUT: 13378000
Heartbeat_Variant_0 : 1283 0.313232 per_variant_size: 0 1283 0 0 0 0 0 0 0 
Heartbeat_Variant_1 : 1180 0.288086 per_variant_size: 0 559 621 0 0 0 0 0 0 
Heartbeat_Variant_2 : 934 0.228027 per_variant_size: 0 499 278 112 45 0 0 0 0 
Heartbeat_Variant_3 : 691 0.168701 per_variant_size: 0 433 192 55 8 3 0 0 0 
Heartbeat_Variant_0_evicts 0 : 6567 1 : 1229 2 : 1030 3 : 803 
Heartbeat_Variant_1_evicts 0 : 1233 1 : 0 2 : 976 3 : 846 
Heartbeat_Variant_2_evicts 0 : 1015 1 : 977 2 : 0 3 : 599 
Heartbeat_Variant_3_evicts 0 : 793 1 : 828 2 : 594 3 : 0 
Heartbeat CPU 0 instructions: 100000002 cycles: 51315819 heartbeat IPC: 1.35434 cumulative IPC: 1.33923 (Simulation time: 0 hr 17 min 11 sec) 
Finished CPU 0 instructions: 50000002 cycles: 37335012 cumulative IPC: 1.33923 (Simulation time: 0 hr 17 min 11 sec) 

ChampSim completed all CPUs

Region of Interest Statistics

CPU 0 cumulative IPC: 1.33923 instructions: 50000002 cycles: 37335012
 Fetch stage stalled: 59.444  Sim cycles: 37335012 fetch stall cycle: 22193408
 Empty decode stage: 44.6492  Sim cycles: 37335012 fetch stall cycle: 16669768
ITLB TOTAL     ACCESS:    5835488  HIT:    5348751  MISS:     486737  HIT %:     91.659  MISS %:    8.34098   MPKI: 9.73474
ITLB LOAD TRANSLATION INSTRUCTION	ACCESS:    5715759  HIT:    5229022  MISS:     486737  HIT %:    91.4843  MISS %:     8.5157  MPKI: 9.73474
ITLB TRANSLATION FROM L1D PREFETCHER INSTRUCTION	ACCESS:     119729  HIT:     119729  MISS:          0  HIT %:        100  MISS %:          0  MPKI: 0

ITLB AVERAGE MISS LATENCY: 9.04833 cycles
ITLB RQ	ACCESS:    7923868	FORWARD:          0	MERGED:    1645277	TO_CACHE:    6278591

DTLB TOTAL     ACCESS:    9021082  HIT:    8556172  MISS:     464910  HIT %:    94.8464  MISS %:    5.15359   MPKI: 9.2982
DTLB LOAD TRANSLATION DATA	ACCESS:    9021082  HIT:    8556172  MISS:     464910  HIT %:    94.8464  MISS %:    5.15359  MPKI: 9.2982

DTLB AVERAGE MISS LATENCY: 9.31057 cycles
DTLB RQ	ACCESS:   13377185	FORWARD:          0	MERGED:    4320239	TO_CACHE:    9056946

STLB TOTAL     ACCESS:    1198057  HIT:    1196129  MISS:       1928  HIT %:    99.8391  MISS %:   0.160927   MPKI: 0.03856
STLB LOAD TRANSLATION INSTRUCTION	ACCESS:     486737  HIT:     486517  MISS:        220  HIT %:    99.9548  MISS %:  0.0451989  MPKI: 0.0044
STLB LOAD TRANSLATION DATA	ACCESS:     464846  HIT:     463164  MISS:       1682  HIT %:    99.6382  MISS %:    0.36184  MPKI: 0.03364
STLB TRANSLATION FROM L1D PREFETCHER DATA	ACCESS:     246474  HIT:     246448  MISS:         26  HIT %:    99.9895  MISS %:  0.0105488  MPKI: 0.00052

STLB AVERAGE MISS LATENCY: 71.7827 cycles
STLB RQ	ACCESS:    1324941	FORWARD:          0	MERGED:     126848	TO_CACHE:    1198093

STLB Hit, L1D data hit: 0
STLB Hit, L2C data hit: 0
STLB Hit, LLC data hit: 0
STLB Hit, LLC data miss: 0
STLB STLB hints to L2: 0
L1D TOTAL     ACCESS:   13134742  HIT:   12018766  MISS:    1115976  HIT %:    91.5036  MISS %:    8.49637   MPKI: 22.3195
L1D LOAD DATA	ACCESS:    6603962  HIT:    5867789  MISS:     736173  HIT %:    88.8526  MISS %:    11.1474  MPKI: 14.7235
L1D RFO DATA	ACCESS:    6205431  HIT:    5923493  MISS:     281938  HIT %:    95.4566  MISS %:    4.54341  MPKI: 5.63876
L1D PREFETCH DATA	ACCESS:     325349  HIT:     227484  MISS:      97865  HIT %:      69.92  MISS %:      30.08  MPKI: 1.9573

L1D PREFETCH  REQUESTED:     746918  ISSUED:     746918  USEFUL:      37779  USELESS:      69602
L1D USEFUL LOAD PREFETCHES:      37779 PREFETCH ISSUED TO LOWER LEVEL:     107446  ACCURACY: 35.1609
 TIMELY PREFETCHES:      37779 LATE PREFETCHES: 9520 DROPPED PREFETCHES: 5
L1D AVERAGE MISS LATENCY: 275853 cycles
L1D RQ	ACCESS:   10717716	FORWARD:          0	MERGED:    3914448	TO_CACHE:    6637215
L1D WQ	ACCESS:    6938863	FORWARD:     166383	MERGED:     198893	TO_CACHE:    6739970
L1D PQ	ACCESS:     373624	FORWARD:          0	MERGED:          0	TO_CACHE:     373294

L1D UNIQUE REGIONS ACCESSED: 0
L1D REGIONS CONFLICTS: 0
L1D Cross Page Prefetch Requests: 7008
L1D Same Page Prefetch Requests: 765725
L1D ROI Sum of L1D PQ occupancy: 4741342
L1D PREFETCHES PUSHED FROM L2C: 0
L1I TOTAL     ACCESS:    7166450  HIT:    4443824  MISS:    2722626  HIT %:    62.0087  MISS %:    37.9913   MPKI: 54.4525
L1I LOAD INSTRUCTION	ACCESS:    6522190  HIT:    3799564  MISS:    2722626  HIT %:     58.256  MISS %:     41.744  MPKI: 54.4525
L1I PREFETCH INSTRUCTION	ACCESS:     644260  HIT:     644260  MISS:          0  HIT %:        100  MISS %:          0  MPKI: 0

L1I PREFETCH  REQUESTED:    1511653  ISSUED:    1511653  USEFUL:          0  USELESS:          0
L1I USEFUL LOAD PREFETCHES:          0 PREFETCH ISSUED TO LOWER LEVEL:          0  ACCURACY: -nan
 TIMELY PREFETCHES:          0 LATE PREFETCHES: 0 DROPPED PREFETCHES: 0
L1I AVERAGE MISS LATENCY: 17.1948 cycles
L1I RQ	ACCESS:    9499549	FORWARD:          0	MERGED:    2675758	TO_CACHE:    6823791
L1I PQ	ACCESS:    1511653	FORWARD:          0	MERGED:     411576	TO_CACHE:    1100077

L1BTB TOTAL     ACCESS:    5689444  HIT:    2098726  MISS:    3590718  HIT %:    36.8881  MISS %:    63.1119   MPKI: 71.8144
L1BTB BRANCH_DIRECT_JUMP	ACCESS:     544988 HIT:     146578 MISS:     398410 AVERAGE STALL: 44.6191 AVERAGE FETCH STALL: 17.8586 AVERAGE FETCH QUEUE STALL: 13.5579 AVERAGE DECODE STALL: 12.3234 AVERAGE EXECUTE STALL: 1.2078e+15
L1BTB BRANCH_INDIRECT	ACCESS:     180639 HIT:      64636 MISS:     116003 AVERAGE STALL: 98.5971 AVERAGE FETCH STALL: 11.5871 AVERAGE FETCH QUEUE STALL: 12.1289 AVERAGE DECODE STALL: 10.5607 AVERAGE EXECUTE STALL: 63.3642
L1BTB BRANCH_CONDITIONAL	ACCESS:    2716054 HIT:    1439771 MISS:    1276283 AVERAGE STALL: 48.9426 AVERAGE FETCH STALL: 21.9088 AVERAGE FETCH QUEUE STALL: 14.3383 AVERAGE DECODE STALL: 11.9526 AVERAGE EXECUTE STALL: 7.14353e+14
L1BTB BRANCH_DIRECT_CALL	ACCESS:     952384 HIT:     118968 MISS:     833416 AVERAGE STALL: 50.523 AVERAGE FETCH STALL: 23.4369 AVERAGE FETCH QUEUE STALL: 14.0824 AVERAGE DECODE STALL: 12.2463 AVERAGE EXECUTE STALL: 7.62735e+14
L1BTB BRANCH_INDIRECT_CALL	ACCESS:     171493 HIT:      23421 MISS:     148072 AVERAGE STALL: 131.894 AVERAGE FETCH STALL: 14.3265 AVERAGE FETCH QUEUE STALL: 11.3029 AVERAGE DECODE STALL: 9.53222 AVERAGE EXECUTE STALL: 96.2226
L1BTB BRANCH_RETURN	ACCESS:    1123886 HIT:     305352 MISS:     818534 AVERAGE STALL: 44.5702 AVERAGE FETCH STALL: 17.5383 AVERAGE FETCH QUEUE STALL: 6.215 AVERAGE DECODE STALL: 6.81107 AVERAGE EXECUTE STALL: 3.49987e+14
L1BTB BRANCH_OTHER ACCESS:          0 HIT:          0 MISS:          0 AVERAGE STALL: -nan AVERAGE FETCH STALL: -nan AVERAGE FETCH QUEUE STALL: -nan AVERAGE DECODE STALL: -nan AVERAGE EXECUTE STALL: -nan
L1BTB TOTAL ROB OCCUPANCY AT BTB MISS: 5.56573

L2BTB TOTAL     ACCESS:    3565780  HIT:    3435827  MISS:     129953  HIT %:    96.3556  MISS %:    3.64445   MPKI: 2.59906
L2BTB BRANCH_DIRECT_JUMP	ACCESS:     394346 HIT:     383112 MISS:      11234 AVERAGE STALL: 44.6191 AVERAGE FETCH STALL: 17.8586 AVERAGE FETCH QUEUE STALL: 13.5579 AVERAGE DECODE STALL: 12.3234 AVERAGE EXECUTE STALL: 1.2078e+15
L2BTB BRANCH_INDIRECT	ACCESS:     105885 HIT:     102350 MISS:       3535 AVERAGE STALL: 98.5971 AVERAGE FETCH STALL: 11.5871 AVERAGE FETCH QUEUE STALL: 12.1289 AVERAGE DECODE STALL: 10.5607 AVERAGE EXECUTE STALL: 63.3642
L2BTB BRANCH_CONDITIONAL	ACCESS:    1276283 HIT:    1250129 MISS:      26154 AVERAGE STALL: 48.9426 AVERAGE FETCH STALL: 21.9088 AVERAGE FETCH QUEUE STALL: 14.3383 AVERAGE DECODE STALL: 11.9526 AVERAGE EXECUTE STALL: 7.14353e+14
L2BTB BRANCH_DIRECT_CALL	ACCESS:     833416 HIT:     809140 MISS:      24276 AVERAGE STALL: 50.523 AVERAGE FETCH STALL: 23.4369 AVERAGE FETCH QUEUE STALL: 14.0824 AVERAGE DECODE STALL: 12.2463 AVERAGE EXECUTE STALL: 7.62735e+14
L2BTB BRANCH_INDIRECT_CALL	ACCESS:     138719 HIT:     125349 MISS:      13370 AVERAGE STALL: 131.894 AVERAGE FETCH STALL: 14.3265 AVERAGE FETCH QUEUE STALL: 11.3029 AVERAGE DECODE STALL: 9.53222 AVERAGE EXECUTE STALL: 96.2226
L2BTB BRANCH_RETURN	ACCESS:     817131 HIT:     765747 MISS:      51384 AVERAGE STALL: 44.5702 AVERAGE FETCH STALL: 17.5383 AVERAGE FETCH QUEUE STALL: 6.215 AVERAGE DECODE STALL: 6.81107 AVERAGE EXECUTE STALL: 3.49987e+14
L2BTB BRANCH_OTHER ACCESS:          0 HIT:          0 MISS:          0 AVERAGE STALL: -nan AVERAGE FETCH STALL: -nan AVERAGE FETCH QUEUE STALL: -nan AVERAGE DECODE STALL: -nan AVERAGE EXECUTE STALL: -nan
L2BTB TOTAL ROB OCCUPANCY AT BTB MISS: 153.786

L2C TOTAL     ACCESS:    4442108  HIT:    3976114  MISS:     465994  HIT %:    89.5096  MISS %:    10.4904   MPKI: 9.31988
L2C LOAD INSTRUCTION	ACCESS:    2722627  HIT:    2467658  MISS:     254969  HIT %:    90.6352  MISS %:    9.36482  MPKI: 5.09938
L2C LOAD TRANSLATION INSTRUCTION	ACCESS:        259  HIT:         75  MISS:        184  HIT %:    28.9575  MISS %:    71.0425  MPKI: 0.00368
L2C LOAD DATA	ACCESS:     726614  HIT:     652311  MISS:      74303  HIT %:    89.7741  MISS %:    10.2259  MPKI: 1.48606
L2C RFO DATA	ACCESS:     281841  HIT:     231490  MISS:      50351  HIT %:     82.135  MISS %:     17.865  MPKI: 1.00702
L2C PREFETCH DATA	ACCESS:     193760  HIT:     123695  MISS:      70065  HIT %:    63.8393  MISS %:    36.1607  MPKI: 1.4013
L2C WRITEBACK DATA	ACCESS:     515196  HIT:     500365  MISS:      14831  HIT %:    97.1213  MISS %:    2.87871  MPKI: 0.29662
L2C LOAD TRANSLATION DATA	ACCESS:       1772  HIT:        491  MISS:       1281  HIT %:    27.7088  MISS %:    72.2912  MPKI: 0.02562
L2C TRANSLATION FROM L1D PREFETCHER DATA	ACCESS:         39  HIT:         29  MISS:         10  HIT %:     74.359  MISS %:     25.641  MPKI: 0.0002

L2C PREFETCH  REQUESTED:      93224  ISSUED:      93224  USEFUL:       8368  USELESS:      62133
L2C USEFUL LOAD PREFETCHES:       8368 PREFETCH ISSUED TO LOWER LEVEL:      70432  ACCURACY: 11.881
 TIMELY PREFETCHES:       8368 LATE PREFETCHES: 367 DROPPED PREFETCHES: 0
L2C AVERAGE MISS LATENCY: 38.573 cycles
L2C RQ	ACCESS:    3733227	FORWARD:          0	MERGED:          0	TO_CACHE:    3733152
L2C WQ	ACCESS:     515196	FORWARD:         75	MERGED:          0	TO_CACHE:     515196
L2C PQ	ACCESS:     200670	FORWARD:          0	MERGED:       3641	TO_CACHE:     197029

L2C Dense regions hint from L2: 0
PSCL5 TOTAL     ACCESS:       3874  HIT:       1937  MISS:       1937  HIT %:         50  MISS %:         50   MPKI: 0.03874
PSCL5 LOAD TRANSLATION INSTRUCTION	ACCESS:       3796  HIT:       1898  MISS:       1898  HIT %:         50  MISS %:         50  MPKI: 0.03796
PSCL5 TRANSLATION FROM L1D PREFETCHER INSTRUCTION	ACCESS:         78  HIT:         39  MISS:         39  HIT %:         50  MISS %:         50  MPKI: 0.00078


PSCL4 TOTAL     ACCESS:       3059  HIT:       1523  MISS:       1536  HIT %:    49.7875  MISS %:    50.2125   MPKI: 0.03072
PSCL4 LOAD TRANSLATION INSTRUCTION	ACCESS:       2714  HIT:       1493  MISS:       1221  HIT %:    55.0111  MISS %:    44.9889  MPKI: 0.02442
PSCL4 TRANSLATION FROM L1D PREFETCHER INSTRUCTION	ACCESS:         60  HIT:         30  MISS:         30  HIT %:         50  MISS %:         50  MPKI: 0.0006
PSCL4 LOAD TRANSLATION DATA	ACCESS:        285  HIT:          0  MISS:        285  HIT %:          0  MISS %:        100  MPKI: 0.0057


PSCL3 TOTAL     ACCESS:       3091  HIT:       1539  MISS:       1552  HIT %:    49.7897  MISS %:    50.2103   MPKI: 0.03104
PSCL3 LOAD TRANSLATION INSTRUCTION	ACCESS:       2730  HIT:       1509  MISS:       1221  HIT %:    55.2747  MISS %:    44.7253  MPKI: 0.02442
PSCL3 TRANSLATION FROM L1D PREFETCHER INSTRUCTION	ACCESS:         60  HIT:         30  MISS:         30  HIT %:         50  MISS %:         50  MPKI: 0.0006
PSCL3 LOAD TRANSLATION DATA	ACCESS:        301  HIT:          0  MISS:        301  HIT %:          0  MISS %:        100  MPKI: 0.00602


PSCL2 TOTAL     ACCESS:       3763  HIT:       1826  MISS:       1937  HIT %:    48.5251  MISS %:    51.4749   MPKI: 0.03874
PSCL2 LOAD TRANSLATION INSTRUCTION	ACCESS:       2008  HIT:       1787  MISS:        221  HIT %:     88.994  MISS %:     11.006  MPKI: 0.00442
PSCL2 TRANSLATION FROM L1D PREFETCHER INSTRUCTION	ACCESS:         39  HIT:         39  MISS:          0  HIT %:        100  MISS %:          0  MPKI: 0
PSCL2 LOAD TRANSLATION DATA	ACCESS:       1677  HIT:          0  MISS:       1677  HIT %:          0  MISS %:        100  MPKI: 0.03354
PSCL2 TRANSLATION FROM L1D PREFETCHER DATA	ACCESS:         39  HIT:          0  MISS:         39  HIT %:          0  MISS %:        100  MPKI: 0.00078


LLC TOTAL     ACCESS:     524935  HIT:     496972  MISS:      27963  HIT %:    94.6731  MISS %:    5.32695   MPKI: 0.55926
LLC LOAD INSTRUCTION	ACCESS:     254969  HIT:     254021  MISS:        948  HIT %:    99.6282  MISS %:    0.37181  MPKI: 0.01896
LLC LOAD TRANSLATION INSTRUCTION	ACCESS:        184  HIT:        158  MISS:         26  HIT %:    85.8696  MISS %:    14.1304  MPKI: 0.00052
LLC LOAD DATA	ACCESS:      73949  HIT:      70364  MISS:       3585  HIT %:    95.1521  MISS %:    4.84794  MPKI: 0.0717
LLC RFO DATA	ACCESS:      50323  HIT:      37342  MISS:      12981  HIT %:    74.2046  MISS %:    25.7954  MPKI: 0.25962
LLC PREFETCH DATA	ACCESS:      70430  HIT:      60403  MISS:      10027  HIT %:    85.7632  MISS %:    14.2368  MPKI: 0.20054
LLC WRITEBACK DATA	ACCESS:      73789  HIT:      73458  MISS:        331  HIT %:    99.5514  MISS %:   0.448576  MPKI: 0.00662
LLC LOAD TRANSLATION DATA	ACCESS:       1281  HIT:       1216  MISS:         65  HIT %:    94.9258  MISS %:    5.07416  MPKI: 0.0013
LLC TRANSLATION FROM L1D PREFETCHER DATA	ACCESS:         10  HIT:         10  MISS:          0  HIT %:        100  MISS %:          0  MPKI: 0

LLC AVERAGE MISS LATENCY: 157.572 cycles
LLC RQ	ACCESS:     380731	FORWARD:          0	MERGED:          0	TO_CACHE:     380716
LLC WQ	ACCESS:      73789	FORWARD:         17	MERGED:          0	TO_CACHE:      73789
LLC PQ	ACCESS:      70432	FORWARD:          0	MERGED:          0	TO_CACHE:      70430

LLC Dense regions hint to LLC: 0

RAW hits: 1921346
Loads Generated: 12639062
Loads sent to L1D: 10717716
Stores Generated: 6938851
Stores sent to L1D: 6938863
Major fault: 0 Minor fault: 2579
Allocated PAGES: 2579

stream: 
stream:times selected: 1203963
stream:pref_filled: 124832
stream:pref_useful: 26035
stream:pref_late: 7482
stream:misses: 9051
stream:misses_by_poll: 0

CS: 
CS:times selected: 184588
CS:pref_filled: 65643
CS:pref_useful: 41688
CS:pref_late: 7386
CS:misses: 18654
CS:misses_by_poll: 2

CPLX: 
CPLX:times selected: 1018230
CPLX:pref_filled: 22019
CPLX:pref_useful: 6395
CPLX:pref_late: 3096
CPLX:misses: 104302
CPLX:misses_by_poll: 4

NL_L1: 
NL:times selected: 19433
NL:pref_filled: 1104
NL:pref_useful: 365
NL:pref_late: 270
NL:misses: 1761
NL:misses_by_poll: 0

total selections: 2426214
total_filled: 97865
total_useful: 37779
total_late: 19858
total_polluted: 6
total_misses_after_warmup: 769431
conflicts: 5535813

test: 118071

DRAM Statistics
 CHANNEL 0
 RQ ROW_BUFFER_HIT:       9970  ROW_BUFFER_MISS:      17658
 DBUS_CONGESTED:         15
 WQ ROW_BUFFER_HIT:       1457  ROW_BUFFER_MISS:      12062  FULL:          0

 AVG_CONGESTED_CYCLE: 4

CPU 0 Branch Prediction Accuracy: 99.8174% MPKI: 0.33478 Average ROB Occupancy at Mispredict: 165.876
Branch types
NOT_BRANCH: 40832800 81.6656%
BRANCH_DIRECT_JUMP: 544988 1.08998%
BRANCH_INDIRECT: 180639 0.361278%
BRANCH_CONDITIONAL: 6193800 12.3876%
BRANCH_DIRECT_CALL: 952384 1.90477%
BRANCH_INDIRECT_CALL: 171493 0.342986%
BRANCH_RETURN: 1123886 2.24777%
BRANCH_OTHER: 0 0%

DRAM PAGES: 1048576
Allocated PAGES: 2579
Average_ROB_Occupancy: 205.35
Average_Decode_Occupancy: 27.1568
Average_FTQ_Occupancy: 10.8602
Indirect max targets: 14 Average targets: 1.15615
Branch_type:  BRANCH_DIRECT_JUMP:  Count Percentage: 3.63377 5.26104 4.18364 8.70798 7.4933 6.56363 2.32083 61.8358 
Branch_type:  BRANCH_INDIRECT:  Count Percentage: 11.7221 3.41806 2.52583 17.3204 10.9964 3.07697 1.73463 49.2056 
Branch_type:  BRANCH_CONDITIONAL:  Count Percentage: 21.055 9.94395 2.50012 5.6056 3.49616 3.87657 2.82148 50.7011 
Branch_type:  BRANCH_DIRECT_CALL:  Count Percentage: 0.384364 1.75648 0.729811 3.64858 2.9726 3.35173 4.30368 82.8528 
Branch_type:  BRANCH_INDIRECT_CALL:  Count Percentage: 9.49371 0 2.9759 4.53047 0.000292213 2.84177 4.11933 76.0385 
Branch_type:  BRANCH_RETURN:  Count Percentage: 3.90643 7.96821 1.77848 5.53765 5.01062 3.57942 3.8759 68.3433 
Branch_type:  BRANCH_DIRECT_JUMP:  Total Count: 39677 57445 45681 95082 81819 71668 25341 675182 
Branch_type:  BRANCH_INDIRECT:  Total Count: 42580 12416 9175 62916 39944 11177 6301 178738 
Branch_type:  BRANCH_CONDITIONAL:  Total Count: 2606986 1231241 309560 694075 432888 479990 349350 6277717 
Branch_type:  BRANCH_DIRECT_CALL:  Total Count: 7269 33218 13802 69001 56217 63387 81390 1566890 
Branch_type:  BRANCH_INDIRECT_CALL:  Total Count: 32489 0 10184 15504 1 9725 14097 260216 
Branch_type:  BRANCH_RETURN:  Total Count: 87278 178027 39735 123723 111948 79972 86596 1526936 
Number of unique branch instructions: 10196
Upper 32 bits: 
aaaa
ffff
ffff0000
Unique upper 32 bits: 3
Unique upper 36 bits: 3
Unique upper 40 bits: 5
Unique upper 44 bits: 32
Unique upper 48 bits: 155
Variant_0 : 1283 0.313232
Variant_1 : 1180 0.288086
Variant_2 : 934 0.228027
Variant_3 : 691 0.168701
Offset_3 4207
Offset_4 253
Offset_5 460
Offset_6 521
Offset_7 606
Offset_8 535
Offset_9 482
Offset_10 398
Offset_11 322
Offset_12 283
Offset_13 220
Offset_14 241
Offset_15 193
Offset_16 224
Offset_17 157
Offset_18 124
Offset_19 252
Offset_20 139
Offset_21 235
Offset_22 402
Offset_23 241
Offset_24 341
Offset_25 95
Offset_47 86
Offset_64 1
decode_dispatch_called: 23311294 62.4382
Dispatch_width: 0 12339109 52.9319 33.0497
Dispatch_width: 1 762026 3.26891 2.04105
Dispatch_width: 2 703803 3.01915 1.8851
Dispatch_width: 3 448962 1.92594 1.20252
Dispatch_width: 4 3826457 16.4146 10.249
Dispatch_width: 5 207966 0.892126 0.557027
Dispatch_width: 6 5022971 21.5474 13.4538
Empty_decode_cycles: 14023718 37.5618
ROB_full_cycles: 6061120 16.2344
Starvation_cycles_per_kilo_instr: 262.509
Starvation_cycles_per_kilo_instr_3: 222.165
Starvation_cycles_per_kilo_instr_0: 203.017
Branch_type_1  (3,1)  (4,9)  (5,38)  (6,74)  (7,119)  (8,130)  (9,127)  (10,100)  (11,69)  (12,43)  (13,9)  (14,2)  (15,3)  (16,4)  (18,1)  (19,4)  (20,2)  (21,1)  (22,3)  (23,2)  (24,10)  (25,13) 
Branch_type_2  (3,1)  (4,1)  (5,1)  (8,3)  (9,3)  (12,1)  (13,1)  (14,1)  (16,3)  (17,2)  (20,2)  (21,2)  (23,5)  (24,1)  (47,40) 
Branch_type_3  (3,4205)  (4,243)  (5,417)  (6,432)  (7,457)  (8,340)  (9,261)  (10,162)  (11,125)  (12,50)  (13,7) 
Branch_type_4  (6,3)  (7,8)  (8,25)  (9,54)  (10,64)  (11,65)  (12,105)  (13,93)  (14,106)  (15,92)  (16,101)  (17,70)  (18,56)  (19,123)  (20,72)  (21,124)  (22,211)  (23,136)  (24,201)  (25,78) 
Branch_type_5  (8,2)  (9,1)  (10,4)  (11,5)  (12,3)  (13,14)  (14,17)  (15,11)  (16,20)  (17,13)  (18,16)  (19,13)  (20,11)  (21,13)  (22,42)  (23,26)  (24,37) 
Branch_type_6  (5,4)  (6,12)  (7,22)  (8,35)  (9,36)  (10,68)  (11,58)  (12,81)  (13,96)  (14,115)  (15,87)  (16,96)  (17,72)  (18,51)  (19,112)  (20,52)  (21,95)  (22,146)  (23,72)  (24,92)  (25,4)  (47,46)  (64,1) 
Unique trigger count: 
Variant_0_evicts_0 : 0
Variant_0_evicts_1 : 0
Variant_0_evicts_2 : 0
Variant_0_evicts_3 : 0
Variant_1_evicts_0 : 0
Variant_1_evicts_1 : 0
Variant_1_evicts_2 : 0
Variant_1_evicts_3 : 0
Variant_2_evicts_0 : 0
Variant_2_evicts_1 : 0
Variant_2_evicts_2 : 0
Variant_2_evicts_3 : 0
Variant_3_evicts_0 : 0
Variant_3_evicts_1 : 0
Variant_3_evicts_2 : 0
Variant_3_evicts_3 : 0
BTB PER SET UNIQUE ADDR: 23 27 19 27 25 24 16 24 14 24 19 25 25 19 20 16 19 21 21 25 20 19 23 24 19 24 23 25 23 22 22 23 27 14 17 22 22 26 16 19 19 18 24 27 20 14 25 16 23 22 28 20 22 27 19 10 20 19 17 25 21 29 24 23 23 25 23 17 26 22 22 20 26 19 18 13 15 23 19 30 25 15 21 25 24 21 26 21 15 39 20 14 23 22 12 28 18 19 26 28 35 34 22 19 22 18 21 25 12 18 19 32 23 18 21 13 24 27 19 24 26 18 21 17 22 21 11 22 32 19 19 27 21 29 20 29 14 27 21 29 19 27 21 21 25 21 25 19 15 21 20 27 16 21 15 31 27 25 26 24 25 23 26 30 21 21 25 18 28 20 20 26 24 21 23 22 22 22 21 26 18 19 21 26 33 30 14 24 27 20 23 17 16 29 23 17 16 20 22 21 28 24 18 19 17 22 21 23 22 23 19 28 20 19 22 23 20 25 18 37 13 23 16 20 20 24 29 24 15 28 22 13 21 26 20 27 28 18 22 16 24 23 29 26 20 19 21 22 23 20 26 25 24 17 27 25 18 18 15 19 24 18 10 24 21 15 21 17 19 20 22 23 16 13 13 15 22 27 20 22 14 24 16 17 24 18 20 33 33 25 24 19 21 26 15 28 22 25 25 22 20 18 20 35 22 28 26 21 30 21 20 27 20 30 24 11 26 21 22 29 19 26 18 21 24 25 23 18 22 16 21 29 18 21 19 24 17 20 16 37 23 23 15 25 24 27 18 23 21 21 23 21 25 21 21 26 23 25 18 16 18 27 18 30 26 26 11 23 26 22 25 17 24 25 16 31 24 30 19 22 23 22 17 15 15 22 26 28 24 23 27 13 25 28 18 18 18 19 28 24 18 22 20 20 28 25 24 24 20 23 24 19 18 28 20 21 20 29 37 28 18 24 25 23 27 19 25 18 26 20 27 23 23 21 27 24 24 19 19 24 27 19 15 30 33 18 15 22 27 25 27 34 21 17 27 30 26 27 18 30 17 22 18 27 32 21 20 22 25 26 23 27 27 22 23 34 25 32 17 24 31 27 20 26 16 26 33 27 26 22 16 27 18 17 18 21 26 24 21 25 20 28 17 33 18 19 17 31 27 26 25 32 22 21 21 28 21 30 17 16 17 21 24 14 22 31 35 16 16 29 27 24 23 22 25 29 18 24 26 23 29 19 26 25 25 28 16 24 17 24 22 29 23 23 19 24 21 24 31 26 20 32 23 22 22 30 22 27 22 27 28 24 28 34 23 28 28 28 21 21 24 25 15 23 26 26 20 23 33 27 19 21 24 16 28 17 16 20 21 20 21 21 19 13 22 22 33 20 19 23 31 27 21 15 10 29 15 25 20 25 29 26 17 19 20 30 20 28 18 23 20 27 30 24 24 19 25 25 17 25 22 26 25 33 25 27 20 24 35 20 15 27 19 20 29 24 20 21 25 21 21 12 25 30 22 26 15 21 17 20 21 21 16 23 33 18 25 26 27 30 20 29 19 25 27 20 21 24 23 25 21 25 20 13 16 20 17 25 18 27 14 27 27 30 12 24 20 19 17 14 20 19 16 23 17 18 31 22 16 27 26 25 20 20 20 20 24 22 18 19 26 21 22 17 21 25 24 29 36 20 20 19 20 23 29 27 22 21 20 18 23 21 25 21 17 22 32 23 17 17 23 13 14 23 22 28 16 25 21 23 23 27 19 16 22 18 30 17 24 28 14 23 21 19 25 20 17 27 19 14 14 14 24 26 22 31 19 20 27 23 34 26 31 28 33 18 22 21 22 19 20 33 29 30 18 26 34 30 13 27 25 30 16 26 25 22 17 23 24 25 21 30 27 22 19 27 23 21 23 21 26 22 22 23 26 27 19 35 19 26 23 20 16 24 30 30 28 27 25 28 25 22 19 24 29 15 21 18 30 17 19 26 27 19 22 14 21 23 18 22 28 12 21 26 23 23 30 19 23 20 23 18 20 18 19 25 31 21 18 19 23 18 21 25 12 26 20 27 19 30 18 21 22 25 24 23 37 22 22 25 24 24 18 24 17 16 13 29 18 17 28 34 28 22 20 32 21 21 24 25 15 31 23 20 21 25 20 26 23 24 22 22 17 24 20 25 24 22 25 23 25 22 21 32 29 20 27 25 19 25 23 26 26 20 26 18 32 29 30 32 20 29 24 22 23 32 36 18 27 21 27 26 26 22 24 20 20 26 32 21 33 30 20 20 27 25 18 29 19 26 27 26 22 17 18 20 12 19 10 13 19 33 20 14 
BTB PER SET COUNT: 785 221 1661 214 727 194 515 192 1461 171 120 1021 12766 1025 128 83 806 1197 414 178 145 221 227 175 107 125 135 198 371 292 328 210 186 105 94 363 162 463 89 1387 90 91 161 559 211 122 369 100 567 292 241 185 174 180 155 365 124 140 144 164 100 344 272 160 183 308 134 852 174 196 692 401 224 154 119 116 98 397 149 198 353 113 188 396 140 313 172 167 294 317 207 569 459 182 71 174 100 100 255 1624 292 383 130 444 1331 95 153 204 864 2148 96 222 516 108 168 532 192 218 872 195 401 90 129 111 118 201 54 415 316 316 130 444 130 187 223 224 1043 240 152 221 127 296 116 132 152 174 418 353 104 227 154 224 1078 147 60 265 350 211 252 237 143 258 353 197 381 515 139 81 218 824 172 190 140 170 168 858 170 151 250 593 211 275 1360 161 269 397 73 114 241 1168 172 115 113 187 151 188 109 234 131 162 238 130 1076 124 78 131 150 410 1019 683 103 192 125 6663 139 575 117 159 742 331 83 193 156 143 162 172 219 196 391 258 117 38 121 231 740 4746 231 142 346 71 204 184 274 512 221 541 91 120 124 150 168 154 176 89 187 295 135 179 105 124 155 110 34 311 134 71 129 122 1109 132 107 324 137 75 482 73 170 168 120 336 76 195 80 616 142 104 118 270 222 165 183 85 136 582 67 220 301 168 134 258 121 102 122 255 108 268 234 149 390 581 408 236 137 276 1159 556 228 180 159 256 112 1142 116 128 644 276 301 158 107 76 136 300 107 83 115 159 69 550 64 382 173 957 52 271 301 201 111 194 160 204 310 268 193 156 162 184 174 212 158 150 98 218 102 237 155 771 61 158 145 157 232 68 186 226 119 299 171 166 254 870 449 144 819 94 92 128 1016 179 264 559 331 73 243 537 102 90 99 183 566 933 122 151 113 124 217 202 211 378 124 229 184 79 119 454 119 123 120 1924 513 217 116 148 234 194 153 140 432 98 173 589 234 166 132 113 352 221 223 327 114 186 311 95 99 198 1432 1005 457 170 201 206 827 1067 198 113 313 339 230 204 104 221 126 76 128 359 223 150 2885 134 163 216 229 210 194 150 144 276 140 382 72 176 194 242 121 200 213 272 214 214 455 227 223 215 2575 91 101 319 872 1084 161 135 110 294 94 252 129 125 91 306 210 191 177 651 542 520 177 201 100 229 110 222 90 122 124 236 157 249 470 1357 124 875 230 192 296 177 195 277 1136 811 156 372 203 139 193 174 121 319 71 174 83 572 112 231 971 232 143 114 152 129 239 194 86 263 139 220 344 150 189 190 146 388 587 135 202 482 675 196 271 279 141 183 185 201 100 1215 193 157 433 154 321 158 188 149 128 96 219 118 830 407 225 76 115 176 173 74 222 132 280 1175 72 147 253 623 422 75 39 179 72 193 576 505 218 140 86 361 129 198 85 368 1148 163 98 253 405 244 133 434 170 646 91 246 149 140 200 204 277 251 491 170 348 90 86 195 94 163 464 302 125 148 424 599 131 60 329 219 1773 211 112 1040 682 154 169 123 827 173 516 433 133 231 208 245 164 202 338 239 762 178 112 204 231 216 107 195 194 79 1098 176 152 836 103 193 860 220 528 215 40 195 132 125 63 70 293 379 576 156 278 90 409 248 80 568 313 439 117 305 321 98 164 140 566 469 161 3942 191 109 150 180 291 262 253 135 396 93 557 163 636 274 769 130 152 143 1279 140 172 250 338 138 218 682 143 86 159 101 73 328 611 255 89 197 129 145 144 252 429 78 154 132 180 255 137 333 761 197 743 103 167 215 100 179 75 87 162 1014 132 154 630 392 106 140 181 475 270 193 316 523 396 110 155 124 119 148 120 2895 275 262 229 739 310 320 80 664 148 455 89 197 361 121 129 162 185 749 156 226 228 167 303 289 170 105 245 300 203 143 170 146 518 159 149 173 105 1952 445 680 242 153 227 212 364 204 271 212 584 199 390 128 647 132 155 97 237 100 131 234 171 109 145 67 143 114 548 149 219 32 191 264 446 178 186 150 153 157 185 111 545 2199 107 209 311 107 132 154 175 94 174 546 61 234 119 211 179 297 172 249 165 195 207 474 528 919 195 177 144 441 106 212 101 447 52 221 98 89 244 217 498 138 143 1425 159 138 628 195 85 725 186 102 145 348 202 233 167 227 263 1058 1214 2701 128 201 271 137 213 228 177 181 204 149 257 110 708 209 98 169 225 434 203 156 332 121 483 194 457 242 189 168 986 543 127 966 615 376 215 156 181 610 250 346 911 133 97 1598 217 442 227 909 138 181 216 144 93 270 144 230 491 175 163 144 120 140 86 477 47 65 406 411 178 79 
To predecode: 0
Predecoding something: 0
Predecode request dropped: 0
sizeofblock_0 0
sizeofblock_1 139296
sizeofblock_2 67221
sizeofblock_3 16935
sizeofblock_4 2617
sizeofblock_5 121
sizeofblock_6 0
sizeofblock_7 0
sizeofblock_8 0
Variant_0 Correct: 1559863 Incorrect: 0 Accuracy: 1
Variant_1 Correct: 2034457 Incorrect: 0 Accuracy: 1
Variant_2 Correct: 1874484 Incorrect: 0 Accuracy: 1
Variant_3 Correct: 1686953 Incorrect: 8318 Accuracy: 0.995093
