
*** ChampSim Multicore Out-of-Order Simulator ***

Warmup Instructions: 50000000
Simulation Instructions: 50000000
Number of CPUs: 1
LLC sets: 2048
LLC ways: 16
Off-chip DRAM Size: 4096 MB Channels: 1 Width: 64-bit Data Rate: 6400 MT/s
CPU 0 runs ./micro_traces/srv603.trace.gz
.gz
ITLB has LRU replacement policy
DTLB has LRU replacement policy
STLB has LRU replacement policy
FDIP Prefetcher at L1I
L1I has LRU replacement policy
L1D has LRU replacement policy
Initialize SRRIP state for L2C
Initialize DRRIP state for LLC
Heartbeat_Variant_0 : 1320 0.322266 per_variant_size: 0 1320 0 0 0 0 0 0 0 
Heartbeat_Variant_1 : 1204 0.293945 per_variant_size: 0 581 623 0 0 0 0 0 0 
Heartbeat_Variant_2 : 1292 0.31543 per_variant_size: 0 515 368 224 185 0 0 0 0 
Heartbeat_Variant_3 : 0 0 per_variant_size: 0 0 0 0 0 0 0 0 0 
Heartbeat_Variant_0_evicts 0 : 5777 1 : 219 2 : 249 3 : 0 
Heartbeat_Variant_1_evicts 0 : 215 1 : 0 2 : 436 3 : 0 
Heartbeat_Variant_2_evicts 0 : 231 1 : 424 2 : 0 3 : 0 
Heartbeat_Variant_3_evicts 0 : 0 1 : 0 2 : 0 3 : 0 
Heartbeat CPU 0 instructions: 10000000 cycles: 2795391 heartbeat IPC: 3.57732 cumulative IPC: 3.57732 (Simulation time: 0 hr 1 min 41 sec) 
Heartbeat_Variant_0 : 1324 0.323242 per_variant_size: 0 1324 0 0 0 0 0 0 0 
Heartbeat_Variant_1 : 1208 0.294922 per_variant_size: 0 581 627 0 0 0 0 0 0 
Heartbeat_Variant_2 : 1293 0.315674 per_variant_size: 0 512 372 218 191 0 0 0 0 
Heartbeat_Variant_3 : 0 0 per_variant_size: 0 0 0 0 0 0 0 0 0 
Heartbeat_Variant_0_evicts 0 : 5595 1 : 22 2 : 25 3 : 0 
Heartbeat_Variant_1_evicts 0 : 19 1 : 0 2 : 212 3 : 0 
Heartbeat_Variant_2_evicts 0 : 27 1 : 209 2 : 0 3 : 0 
Heartbeat_Variant_3_evicts 0 : 0 1 : 0 2 : 0 3 : 0 
Heartbeat CPU 0 instructions: 20000003 cycles: 5590639 heartbeat IPC: 3.5775 cumulative IPC: 3.57741 (Simulation time: 0 hr 3 min 12 sec) 
Heartbeat_Variant_0 : 1360 0.332031 per_variant_size: 0 1360 0 0 0 0 0 0 0 
Heartbeat_Variant_1 : 1260 0.307617 per_variant_size: 0 578 682 0 0 0 0 0 0 
Heartbeat_Variant_2 : 1341 0.327393 per_variant_size: 0 518 372 233 218 0 0 0 0 
Heartbeat_Variant_3 : 0 0 per_variant_size: 0 0 0 0 0 0 0 0 0 
Heartbeat_Variant_0_evicts 0 : 5715 1 : 200 2 : 188 3 : 0 
Heartbeat_Variant_1_evicts 0 : 204 1 : 0 2 : 389 3 : 0 
Heartbeat_Variant_2_evicts 0 : 189 1 : 384 2 : 0 3 : 0 
Heartbeat_Variant_3_evicts 0 : 0 1 : 0 2 : 0 3 : 0 
Heartbeat CPU 0 instructions: 30000003 cycles: 8385168 heartbeat IPC: 3.57842 cumulative IPC: 3.57775 (Simulation time: 0 hr 4 min 49 sec) 
Heartbeat_Variant_0 : 1360 0.332031 per_variant_size: 0 1360 0 0 0 0 0 0 0 
Heartbeat_Variant_1 : 1266 0.309082 per_variant_size: 0 584 682 0 0 0 0 0 0 
Heartbeat_Variant_2 : 1347 0.328857 per_variant_size: 0 514 391 229 213 0 0 0 0 
Heartbeat_Variant_3 : 0 0 per_variant_size: 0 0 0 0 0 0 0 0 0 
Heartbeat_Variant_0_evicts 0 : 5615 1 : 66 2 : 50 3 : 0 
Heartbeat_Variant_1_evicts 0 : 63 1 : 0 2 : 271 3 : 0 
Heartbeat_Variant_2_evicts 0 : 54 1 : 268 2 : 0 3 : 0 
Heartbeat_Variant_3_evicts 0 : 0 1 : 0 2 : 0 3 : 0 
Heartbeat CPU 0 instructions: 40000002 cycles: 11180249 heartbeat IPC: 3.57771 cumulative IPC: 3.57774 (Simulation time: 0 hr 6 min 26 sec) 
Heartbeat_Variant_0 : 1366 0.333496 per_variant_size: 0 1366 0 0 0 0 0 0 0 
Heartbeat_Variant_1 : 1271 0.310303 per_variant_size: 0 588 683 0 0 0 0 0 0 
Heartbeat_Variant_2 : 1348 0.329102 per_variant_size: 0 511 385 235 217 0 0 0 0 
Heartbeat_Variant_3 : 0 0 per_variant_size: 0 0 0 0 0 0 0 0 0 
Heartbeat_Variant_0_evicts 0 : 5687 1 : 62 2 : 77 3 : 0 
Heartbeat_Variant_1_evicts 0 : 63 1 : 0 2 : 257 3 : 0 
Heartbeat_Variant_2_evicts 0 : 74 1 : 257 2 : 0 3 : 0 
Heartbeat_Variant_3_evicts 0 : 0 1 : 0 2 : 0 3 : 0 
Heartbeat CPU 0 instructions: 50000001 cycles: 13974785 heartbeat IPC: 3.57841 cumulative IPC: 3.57787 (Simulation time: 0 hr 8 min 3 sec) 

Warmup complete CPU 0 instructions: 50000001 cycles: 13974785 (Simulation time: 0 hr 8 min 3 sec) 

Cycle: 20000000 FTQ IN: 58232098 FTQ occupancy: 20.0334 DECODE IN: 58231982 DECODE occupancy: 52.1316 ROB IN: 58231922 ROB occupancy: 314.598 ROB OUT: 58231702
Heartbeat_Variant_0 : 1375 0.335693 per_variant_size: 0 1375 0 0 0 0 0 0 0 
Heartbeat_Variant_1 : 1263 0.30835 per_variant_size: 0 580 683 0 0 0 0 0 0 
Heartbeat_Variant_2 : 1356 0.331055 per_variant_size: 0 524 380 241 211 0 0 0 0 
Heartbeat_Variant_3 : 0 0 per_variant_size: 0 0 0 0 0 0 0 0 0 
Heartbeat_Variant_0_evicts 0 : 5652 1 : 54 2 : 67 3 : 0 
Heartbeat_Variant_1_evicts 0 : 49 1 : 0 2 : 239 3 : 0 
Heartbeat_Variant_2_evicts 0 : 65 1 : 244 2 : 0 3 : 0 
Heartbeat_Variant_3_evicts 0 : 0 1 : 0 2 : 0 3 : 0 
Heartbeat CPU 0 instructions: 60000000 cycles: 21283309 heartbeat IPC: 1.36827 cumulative IPC: 1.36827 (Simulation time: 0 hr 9 min 56 sec) 
Heartbeat_Variant_0 : 1374 0.335449 per_variant_size: 0 1374 0 0 0 0 0 0 0 
Heartbeat_Variant_1 : 1269 0.309814 per_variant_size: 0 587 682 0 0 0 0 0 0 
Heartbeat_Variant_2 : 1352 0.330078 per_variant_size: 0 515 386 238 213 0 0 0 0 
Heartbeat_Variant_3 : 0 0 per_variant_size: 0 0 0 0 0 0 0 0 0 
Heartbeat_Variant_0_evicts 0 : 5492 1 : 14 2 : 10 3 : 0 
Heartbeat_Variant_1_evicts 0 : 16 1 : 0 2 : 201 3 : 0 
Heartbeat_Variant_2_evicts 0 : 9 1 : 198 2 : 0 3 : 0 
Heartbeat_Variant_3_evicts 0 : 0 1 : 0 2 : 0 3 : 0 
Heartbeat CPU 0 instructions: 70000000 cycles: 28523405 heartbeat IPC: 1.3812 cumulative IPC: 1.3747 (Simulation time: 0 hr 11 min 46 sec) 
Cycle: 30000000 FTQ IN: 13819806 FTQ occupancy: 13.0995 DECODE IN: 13819815 DECODE occupancy: 34.0951 ROB IN: 13819815 ROB occupancy: 236.884 ROB OUT: 13819912
Heartbeat_Variant_0 : 1376 0.335938 per_variant_size: 0 1376 0 0 0 0 0 0 0 
Heartbeat_Variant_1 : 1275 0.311279 per_variant_size: 0 607 668 0 0 0 0 0 0 
Heartbeat_Variant_2 : 1361 0.332275 per_variant_size: 0 525 396 223 217 0 0 0 0 
Heartbeat_Variant_3 : 0 0 per_variant_size: 0 0 0 0 0 0 0 0 0 
Heartbeat_Variant_0_evicts 0 : 5766 1 : 107 2 : 106 3 : 0 
Heartbeat_Variant_1_evicts 0 : 106 1 : 0 2 : 299 3 : 0 
Heartbeat_Variant_2_evicts 0 : 108 1 : 298 2 : 0 3 : 0 
Heartbeat_Variant_3_evicts 0 : 0 1 : 0 2 : 0 3 : 0 
Heartbeat CPU 0 instructions: 80000003 cycles: 35836564 heartbeat IPC: 1.3674 cumulative IPC: 1.37226 (Simulation time: 0 hr 13 min 39 sec) 
Cycle: 40000000 FTQ IN: 13743571 FTQ occupancy: 13.1437 DECODE IN: 13743564 DECODE occupancy: 33.8746 ROB IN: 13743564 ROB occupancy: 235.542 ROB OUT: 13743335
Heartbeat_Variant_0 : 1372 0.334961 per_variant_size: 0 1372 0 0 0 0 0 0 0 
Heartbeat_Variant_1 : 1284 0.313477 per_variant_size: 0 608 676 0 0 0 0 0 0 
Heartbeat_Variant_2 : 1359 0.331787 per_variant_size: 0 526 385 223 225 0 0 0 0 
Heartbeat_Variant_3 : 0 0 per_variant_size: 0 0 0 0 0 0 0 0 0 
Heartbeat_Variant_0_evicts 0 : 5641 1 : 48 2 : 61 3 : 0 
Heartbeat_Variant_1_evicts 0 : 58 1 : 0 2 : 240 3 : 0 
Heartbeat_Variant_2_evicts 0 : 56 1 : 241 2 : 0 3 : 0 
Heartbeat_Variant_3_evicts 0 : 0 1 : 0 2 : 0 3 : 0 
Heartbeat CPU 0 instructions: 90000000 cycles: 43064411 heartbeat IPC: 1.38354 cumulative IPC: 1.37506 (Simulation time: 0 hr 15 min 32 sec) 
Cycle: 50000000 FTQ IN: 13668102 FTQ occupancy: 13.1143 DECODE IN: 13668097 DECODE occupancy: 33.745 ROB IN: 13668097 ROB occupancy: 235.091 ROB OUT: 13668099
Heartbeat_Variant_0 : 1382 0.337402 per_variant_size: 0 1382 0 0 0 0 0 0 0 
Heartbeat_Variant_1 : 1289 0.314697 per_variant_size: 0 598 691 0 0 0 0 0 0 
Heartbeat_Variant_2 : 1354 0.330566 per_variant_size: 0 506 395 222 231 0 0 0 0 
Heartbeat_Variant_3 : 0 0 per_variant_size: 0 0 0 0 0 0 0 0 0 
Heartbeat_Variant_0_evicts 0 : 5627 1 : 88 2 : 84 3 : 0 
Heartbeat_Variant_1_evicts 0 : 87 1 : 0 2 : 269 3 : 0 
Heartbeat_Variant_2_evicts 0 : 76 1 : 267 2 : 0 3 : 0 
Heartbeat_Variant_3_evicts 0 : 0 1 : 0 2 : 0 3 : 0 
Heartbeat CPU 0 instructions: 100000001 cycles: 50387921 heartbeat IPC: 1.36547 cumulative IPC: 1.37313 (Simulation time: 0 hr 17 min 23 sec) 
Finished CPU 0 instructions: 50000000 cycles: 36413136 cumulative IPC: 1.37313 (Simulation time: 0 hr 17 min 23 sec) 

ChampSim completed all CPUs

Region of Interest Statistics

CPU 0 cumulative IPC: 1.37313 instructions: 50000000 cycles: 36413136
 Fetch stage stalled: 53.6412  Sim cycles: 36413136 fetch stall cycle: 19532445
 Empty decode stage: 34.2848  Sim cycles: 36413136 fetch stall cycle: 12484153
ITLB TOTAL     ACCESS:    5861794  HIT:    5371829  MISS:     489965  HIT %:    91.6414  MISS %:    8.35862   MPKI: 9.7993
ITLB LOAD TRANSLATION INSTRUCTION	ACCESS:    5732380  HIT:    5242415  MISS:     489965  HIT %:    91.4527  MISS %:    8.54732  MPKI: 9.7993
ITLB TRANSLATION FROM L1D PREFETCHER INSTRUCTION	ACCESS:     129414  HIT:     129414  MISS:          0  HIT %:        100  MISS %:          0  MPKI: 0

ITLB AVERAGE MISS LATENCY: 9.04938 cycles
ITLB RQ	ACCESS:    7988116	FORWARD:          0	MERGED:    1686651	TO_CACHE:    6301465

DTLB TOTAL     ACCESS:    8943119  HIT:    8468026  MISS:     475093  HIT %:    94.6876  MISS %:    5.31239   MPKI: 9.50186
DTLB LOAD TRANSLATION DATA	ACCESS:    8943119  HIT:    8468026  MISS:     475093  HIT %:    94.6876  MISS %:    5.31239  MPKI: 9.50186

DTLB AVERAGE MISS LATENCY: 9.3329 cycles
DTLB RQ	ACCESS:   13303959	FORWARD:          0	MERGED:    4324117	TO_CACHE:    8979842

STLB TOTAL     ACCESS:    1221483  HIT:    1219319  MISS:       2164  HIT %:    99.8228  MISS %:   0.177162   MPKI: 0.04328
STLB LOAD TRANSLATION INSTRUCTION	ACCESS:     489965  HIT:     489708  MISS:        257  HIT %:    99.9475  MISS %:  0.0524527  MPKI: 0.00514
STLB LOAD TRANSLATION DATA	ACCESS:     475091  HIT:     473200  MISS:       1891  HIT %:     99.602  MISS %:   0.398029  MPKI: 0.03782
STLB TRANSLATION FROM L1D PREFETCHER DATA	ACCESS:     256427  HIT:     256411  MISS:         16  HIT %:    99.9938  MISS %: 0.00623959  MPKI: 0.00032

STLB AVERAGE MISS LATENCY: 69.0772 cycles
STLB RQ	ACCESS:    1361506	FORWARD:          0	MERGED:     139985	TO_CACHE:    1221521

STLB Hit, L1D data hit: 0
STLB Hit, L2C data hit: 0
STLB Hit, LLC data hit: 0
STLB Hit, LLC data miss: 0
STLB STLB hints to L2: 0
L1D TOTAL     ACCESS:   13054970  HIT:   11900234  MISS:    1154736  HIT %:    91.1548  MISS %:    8.84518   MPKI: 23.0947
L1D LOAD DATA	ACCESS:    6553564  HIT:    5794037  MISS:     759527  HIT %:    88.4105  MISS %:    11.5895  MPKI: 15.1905
L1D RFO DATA	ACCESS:    6165067  HIT:    5875199  MISS:     289868  HIT %:    95.2982  MISS %:    4.70178  MPKI: 5.79736
L1D PREFETCH DATA	ACCESS:     336339  HIT:     230998  MISS:     105341  HIT %:    68.6801  MISS %:    31.3199  MPKI: 2.10682

L1D PREFETCH  REQUESTED:     793221  ISSUED:     793221  USEFUL:      47433  USELESS:      70185
L1D USEFUL LOAD PREFETCHES:      47433 PREFETCH ISSUED TO LOWER LEVEL:     117654  ACCURACY: 40.3157
 TIMELY PREFETCHES:      47433 LATE PREFETCHES: 12288 DROPPED PREFETCHES: 2
L1D AVERAGE MISS LATENCY: 341280 cycles
L1D RQ	ACCESS:   10692495	FORWARD:          0	MERGED:    3941897	TO_CACHE:    6588577
L1D WQ	ACCESS:    6909865	FORWARD:     162346	MERGED:     194483	TO_CACHE:    6715382
L1D PQ	ACCESS:     396773	FORWARD:          0	MERGED:          0	TO_CACHE:     396448

L1D UNIQUE REGIONS ACCESSED: 0
L1D REGIONS CONFLICTS: 0
L1D Cross Page Prefetch Requests: 5916
L1D Same Page Prefetch Requests: 801192
L1D ROI Sum of L1D PQ occupancy: 5031778
L1D PREFETCHES PUSHED FROM L2C: 0
L1I TOTAL     ACCESS:    7150472  HIT:    4409234  MISS:    2741238  HIT %:    61.6635  MISS %:    38.3365   MPKI: 54.8248
L1I LOAD INSTRUCTION	ACCESS:    6482230  HIT:    3740992  MISS:    2741238  HIT %:    57.7115  MISS %:    42.2885  MPKI: 54.8248
L1I PREFETCH INSTRUCTION	ACCESS:     668242  HIT:     668242  MISS:          0  HIT %:        100  MISS %:          0  MPKI: 0

L1I PREFETCH  REQUESTED:    1612684  ISSUED:    1612684  USEFUL:          0  USELESS:          0
L1I USEFUL LOAD PREFETCHES:          0 PREFETCH ISSUED TO LOWER LEVEL:          0  ACCURACY: -nan
 TIMELY PREFETCHES:          0 LATE PREFETCHES: 0 DROPPED PREFETCHES: 0
L1I AVERAGE MISS LATENCY: 17.4397 cycles
L1I RQ	ACCESS:    9518322	FORWARD:          0	MERGED:    2710873	TO_CACHE:    6807449
L1I PQ	ACCESS:    1612684	FORWARD:          0	MERGED:     432017	TO_CACHE:    1180667

L1BTB TOTAL     ACCESS:    5679836  HIT:    2077446  MISS:    3602390  HIT %:    36.5758  MISS %:    63.4242   MPKI: 72.0478
L1BTB BRANCH_DIRECT_JUMP	ACCESS:     546313  HIT:     145240  MISS:     401073	AVERAGE STALL: 49.1972
L1BTB BRANCH_INDIRECT	ACCESS:     182124  HIT:      65851  MISS:     116273	AVERAGE STALL: 108.191
L1BTB BRANCH_CONDITIONAL	ACCESS:    2733643  HIT:    1449492  MISS:    1284151	AVERAGE STALL: 61.4765
L1BTB BRANCH_DIRECT_CALL	ACCESS:     938049  HIT:     105864  MISS:     832185	AVERAGE STALL: 71.0329
L1BTB BRANCH_INDIRECT_CALL	ACCESS:     170825  HIT:      21563  MISS:     149262	AVERAGE STALL: 135.613
L1BTB BRANCH_RETURN	ACCESS:    1108882  HIT:     289436  MISS:     819446	AVERAGE STALL: 48.6495
L1BTB BRANCH_OTHER ACCESS:          0  HIT:          0  MISS:          0	AVERAGE STALL: -nan
L1BTB TOTAL ROB OCCUPANCY AT BTB MISS: 2.57304

L2BTB TOTAL     ACCESS:    3577113  HIT:    3511011  MISS:      66102  HIT %:    98.1521  MISS %:    1.84791   MPKI: 1.32204
L2BTB BRANCH_DIRECT_JUMP	ACCESS:     396898  HIT:     392095  MISS:       4803	AVERAGE STALL: 49.1972
L2BTB BRANCH_INDIRECT	ACCESS:     106084  HIT:     103460  MISS:       2624	AVERAGE STALL: 108.191
L2BTB BRANCH_CONDITIONAL	ACCESS:    1284150  HIT:    1280004  MISS:       4146	AVERAGE STALL: 61.4765
L2BTB BRANCH_DIRECT_CALL	ACCESS:     832185  HIT:     831011  MISS:       1174	AVERAGE STALL: 71.0329
L2BTB BRANCH_INDIRECT_CALL	ACCESS:     139749  HIT:     129436  MISS:      10313	AVERAGE STALL: 135.613
L2BTB BRANCH_RETURN	ACCESS:     818047  HIT:     775005  MISS:      43042	AVERAGE STALL: 48.6495
L2BTB BRANCH_OTHER ACCESS:          0  HIT:          0  MISS:          0	AVERAGE STALL: -nan
L2BTB TOTAL ROB OCCUPANCY AT BTB MISS: 140.224

L2C TOTAL     ACCESS:    4514138  HIT:    3994275  MISS:     519863  HIT %:    88.4837  MISS %:    11.5163   MPKI: 10.3973
L2C LOAD INSTRUCTION	ACCESS:    2741239  HIT:    2462973  MISS:     278266  HIT %:    89.8489  MISS %:    10.1511  MPKI: 5.56532
L2C LOAD TRANSLATION INSTRUCTION	ACCESS:        290  HIT:         68  MISS:        222  HIT %:    23.4483  MISS %:    76.5517  MPKI: 0.00444
L2C LOAD DATA	ACCESS:     747201  HIT:     655885  MISS:      91316  HIT %:    87.7789  MISS %:    12.2211  MPKI: 1.82632
L2C RFO DATA	ACCESS:     289827  HIT:     235259  MISS:      54568  HIT %:    81.1722  MISS %:    18.8278  MPKI: 1.09136
L2C PREFETCH DATA	ACCESS:     206533  HIT:     126080  MISS:      80453  HIT %:    61.0459  MISS %:    38.9541  MPKI: 1.60906
L2C WRITEBACK DATA	ACCESS:     527051  HIT:     513410  MISS:      13641  HIT %:    97.4118  MISS %:    2.58817  MPKI: 0.27282
L2C LOAD TRANSLATION DATA	ACCESS:       1970  HIT:        581  MISS:       1389  HIT %:    29.4924  MISS %:    70.5076  MPKI: 0.02778
L2C TRANSLATION FROM L1D PREFETCHER DATA	ACCESS:         27  HIT:         19  MISS:          8  HIT %:    70.3704  MISS %:    29.6296  MPKI: 0.00016

L2C PREFETCH  REQUESTED:      97787  ISSUED:      97787  USEFUL:       8850  USELESS:      72176
L2C USEFUL LOAD PREFETCHES:       8850 PREFETCH ISSUED TO LOWER LEVEL:      80937  ACCURACY: 10.9344
 TIMELY PREFETCHES:       8850 LATE PREFETCHES: 484 DROPPED PREFETCHES: 0
L2C AVERAGE MISS LATENCY: 38.5208 cycles
L2C RQ	ACCESS:    3780612	FORWARD:          0	MERGED:          0	TO_CACHE:    3780558
L2C WQ	ACCESS:     527051	FORWARD:         54	MERGED:          0	TO_CACHE:     527051
L2C PQ	ACCESS:     215441	FORWARD:          0	MERGED:       3630	TO_CACHE:     211811

L2C Dense regions hint from L2: 0
PSCL5 TOTAL     ACCESS:       4336  HIT:       2168  MISS:       2168  HIT %:         50  MISS %:         50   MPKI: 0.04336
PSCL5 LOAD TRANSLATION INSTRUCTION	ACCESS:       4282  HIT:       2141  MISS:       2141  HIT %:         50  MISS %:         50  MPKI: 0.04282
PSCL5 TRANSLATION FROM L1D PREFETCHER INSTRUCTION	ACCESS:         54  HIT:         27  MISS:         27  HIT %:         50  MISS %:         50  MPKI: 0.00054


PSCL4 TOTAL     ACCESS:       4249  HIT:       2121  MISS:       2128  HIT %:    49.9176  MISS %:    50.0824   MPKI: 0.04256
PSCL4 LOAD TRANSLATION INSTRUCTION	ACCESS:       2096  HIT:       2096  MISS:          0  HIT %:        100  MISS %:          0  MPKI: 0
PSCL4 TRANSLATION FROM L1D PREFETCHER INSTRUCTION	ACCESS:         25  HIT:         25  MISS:          0  HIT %:        100  MISS %:          0  MPKI: 0
PSCL4 LOAD TRANSLATION DATA	ACCESS:       2103  HIT:          0  MISS:       2103  HIT %:          0  MISS %:        100  MPKI: 0.04206
PSCL4 TRANSLATION FROM L1D PREFETCHER DATA	ACCESS:         25  HIT:          0  MISS:         25  HIT %:          0  MISS %:        100  MPKI: 0.0005


PSCL3 TOTAL     ACCESS:       4275  HIT:       2134  MISS:       2141  HIT %:    49.9181  MISS %:    50.0819   MPKI: 0.04282
PSCL3 LOAD TRANSLATION INSTRUCTION	ACCESS:       2109  HIT:       2109  MISS:          0  HIT %:        100  MISS %:          0  MPKI: 0
PSCL3 TRANSLATION FROM L1D PREFETCHER INSTRUCTION	ACCESS:         25  HIT:         25  MISS:          0  HIT %:        100  MISS %:          0  MPKI: 0
PSCL3 LOAD TRANSLATION DATA	ACCESS:       2116  HIT:          0  MISS:       2116  HIT %:          0  MISS %:        100  MPKI: 0.04232
PSCL3 TRANSLATION FROM L1D PREFETCHER DATA	ACCESS:         25  HIT:          0  MISS:         25  HIT %:          0  MISS %:        100  MPKI: 0.0005


PSCL2 TOTAL     ACCESS:       4230  HIT:       2062  MISS:       2168  HIT %:     48.747  MISS %:     51.253   MPKI: 0.04336
PSCL2 LOAD TRANSLATION INSTRUCTION	ACCESS:       2293  HIT:       2035  MISS:        258  HIT %:    88.7484  MISS %:    11.2516  MPKI: 0.00516
PSCL2 TRANSLATION FROM L1D PREFETCHER INSTRUCTION	ACCESS:         27  HIT:         27  MISS:          0  HIT %:        100  MISS %:          0  MPKI: 0
PSCL2 LOAD TRANSLATION DATA	ACCESS:       1883  HIT:          0  MISS:       1883  HIT %:          0  MISS %:        100  MPKI: 0.03766
PSCL2 TRANSLATION FROM L1D PREFETCHER DATA	ACCESS:         27  HIT:          0  MISS:         27  HIT %:          0  MISS %:        100  MPKI: 0.00054


LLC TOTAL     ACCESS:     583241  HIT:     552959  MISS:      30282  HIT %:     94.808  MISS %:    5.19202   MPKI: 0.60564
LLC LOAD INSTRUCTION	ACCESS:     278266  HIT:     277180  MISS:       1086  HIT %:    99.6097  MISS %:   0.390274  MPKI: 0.02172
LLC LOAD TRANSLATION INSTRUCTION	ACCESS:        222  HIT:        204  MISS:         18  HIT %:    91.8919  MISS %:    8.10811  MPKI: 0.00036
LLC LOAD DATA	ACCESS:      90836  HIT:      87400  MISS:       3436  HIT %:    96.2174  MISS %:    3.78264  MPKI: 0.06872
LLC RFO DATA	ACCESS:      54553  HIT:      39006  MISS:      15547  HIT %:    71.5011  MISS %:    28.4989  MPKI: 0.31094
LLC PREFETCH DATA	ACCESS:      80934  HIT:      71193  MISS:       9741  HIT %:    87.9643  MISS %:    12.0357  MPKI: 0.19482
LLC WRITEBACK DATA	ACCESS:      77033  HIT:      76654  MISS:        379  HIT %:     99.508  MISS %:   0.491997  MPKI: 0.00758
LLC LOAD TRANSLATION DATA	ACCESS:       1389  HIT:       1314  MISS:         75  HIT %:    94.6004  MISS %:    5.39957  MPKI: 0.0015
LLC TRANSLATION FROM L1D PREFETCHER DATA	ACCESS:          8  HIT:          8  MISS:          0  HIT %:        100  MISS %:          0  MPKI: 0

LLC AVERAGE MISS LATENCY: 158.346 cycles
LLC RQ	ACCESS:     425287	FORWARD:          0	MERGED:          0	TO_CACHE:     425276
LLC WQ	ACCESS:      77033	FORWARD:         14	MERGED:          0	TO_CACHE:      77033
LLC PQ	ACCESS:      80937	FORWARD:          0	MERGED:          0	TO_CACHE:      80934

LLC Dense regions hint to LLC: 0

RAW hits: 1924327
Loads Generated: 12616822
Loads sent to L1D: 10692495
Stores Generated: 6909853
Stores sent to L1D: 6909865
Major fault: 0 Minor fault: 2553
Allocated PAGES: 2553

stream: 
stream:times selected: 1239610
stream:pref_filled: 126636
stream:pref_useful: 28058
stream:pref_late: 9578
stream:misses: 9009
stream:misses_by_poll: 0

CS: 
CS:times selected: 192298
CS:pref_filled: 71324
CS:pref_useful: 48125
CS:pref_late: 9704
CS:misses: 23386
CS:misses_by_poll: 6

CPLX: 
CPLX:times selected: 1046191
CPLX:pref_filled: 23880
CPLX:pref_useful: 7152
CPLX:pref_late: 4065
CPLX:misses: 124780
CPLX:misses_by_poll: 2

NL_L1: 
NL:times selected: 12292
NL:pref_filled: 1498
NL:pref_useful: 243
NL:pref_late: 202
NL:misses: 1596
NL:misses_by_poll: 0

total selections: 2490391
total_filled: 105341
total_useful: 47433
total_late: 25545
total_polluted: 8
total_misses_after_warmup: 794542
conflicts: 5493002

test: 118707

DRAM Statistics
 CHANNEL 0
 RQ ROW_BUFFER_HIT:      11345  ROW_BUFFER_MISS:      18536
 DBUS_CONGESTED:         17
 WQ ROW_BUFFER_HIT:       1445  ROW_BUFFER_MISS:      12967  FULL:          0

 AVG_CONGESTED_CYCLE: 5

CPU 0 Branch Prediction Accuracy: 99.8177% MPKI: 0.33382 Average ROB Occupancy at Mispredict: 186.138
Branch types
NOT_BRANCH: 40844697 81.6894%
BRANCH_DIRECT_JUMP: 546313 1.09263%
BRANCH_INDIRECT: 182124 0.364248%
BRANCH_CONDITIONAL: 6209035 12.4181%
BRANCH_DIRECT_CALL: 938049 1.8761%
BRANCH_INDIRECT_CALL: 170825 0.34165%
BRANCH_RETURN: 1108882 2.21776%
BRANCH_OTHER: 0 0%

DRAM PAGES: 1048576
Allocated PAGES: 2553
Average_ROB_Occupancy: 237.028
Average_Decode_Occupancy: 33.8639
Average_FTQ_Occupancy: 13.1173
Indirect max targets: 14 Average targets: 1.15254
Branch_type:  BRANCH_DIRECT_JUMP:  Count Percentage: 3.41018 5.869 4.27276 8.11918 1.69767 5.96676 3.30298 67.3615 
Branch_type:  BRANCH_INDIRECT:  Count Percentage: 11.7302 3.46845 2.56259 15.3201 3.34206 14.5494 1.06548 47.9618 
Branch_type:  BRANCH_CONDITIONAL:  Count Percentage: 22.2348 2.59899 2.20922 5.16084 1.26186 4.52817 1.56253 60.4436 
Branch_type:  BRANCH_DIRECT_CALL:  Count Percentage: 0.260461 1.26389 1.44727 2.28182 2.16616 2.66401 0.796673 89.1197 
Branch_type:  BRANCH_INDIRECT_CALL:  Count Percentage: 9.50917 0.574373 2.97885 4.83146 0 3.81717 0 78.289 
Branch_type:  BRANCH_RETURN:  Count Percentage: 3.72668 0.572983 3.37848 5.15991 2.4209 5.4455 1.00556 78.29 
Branch_type:  BRANCH_DIRECT_JUMP:  Total Count: 37218 64053 46632 88611 18528 65120 36048 735169 
Branch_type:  BRANCH_INDIRECT:  Total Count: 42694 12624 9327 55760 12164 52955 3878 174565 
Branch_type:  BRANCH_CONDITIONAL:  Total Count: 2759546 322559 274184 640508 156608 561988 193924 7501601 
Branch_type:  BRANCH_DIRECT_CALL:  Total Count: 4889 23724 27166 42831 40660 50005 14954 1672827 
Branch_type:  BRANCH_INDIRECT_CALL:  Total Count: 32532 1965 10191 16529 0 13059 0 267836 
Branch_type:  BRANCH_RETURN:  Total Count: 82731 12720 75001 114548 53743 120888 22323 1738009 
Number of unique branch instructions: 9992
Upper 32 bits: 
aaaa
ffff
ffff0000
Unique upper 32 bits: 3
Unique upper 36 bits: 3
Unique upper 40 bits: 5
Unique upper 44 bits: 32
Unique upper 48 bits: 153
Variant_0 : 1382 0.337402
Variant_1 : 1289 0.314697
Variant_2 : 1354 0.330566
Variant_3 : 0 0
Offset_3 4154
Offset_4 249
Offset_5 453
Offset_6 509
Offset_7 590
Offset_8 516
Offset_9 467
Offset_10 383
Offset_11 326
Offset_12 277
Offset_13 206
Offset_14 225
Offset_15 188
Offset_16 221
Offset_17 152
Offset_18 121
Offset_19 239
Offset_20 138
Offset_21 235
Offset_22 397
Offset_23 245
Offset_24 331
Offset_25 88
Offset_47 82
Offset_64 4
decode_dispatch_called: 25374217 69.6842
Dispatch_width: 0 13622123 53.6849 37.4099
Dispatch_width: 1 934368 3.68235 2.56602
Dispatch_width: 2 810328 3.19351 2.22537
Dispatch_width: 3 490252 1.93209 1.34636
Dispatch_width: 4 5490974 21.64 15.0797
Dispatch_width: 5 146713 0.578197 0.402912
Dispatch_width: 6 3879459 15.289 10.654
Empty_decode_cycles: 11038919 30.3158
ROB_full_cycles: 8702448 23.8992
Starvation_cycles_per_kilo_instr: 238.312
Starvation_cycles_per_kilo_instr_3: 181.935
Starvation_cycles_per_kilo_instr_0: 159.586
Branch_type_1  (3,1)  (4,7)  (5,36)  (6,68)  (7,115)  (8,131)  (9,124)  (10,99)  (11,72)  (12,44)  (13,5)  (14,2)  (15,3)  (16,4)  (18,1)  (19,4)  (20,2)  (21,1)  (22,3)  (23,2)  (24,10)  (25,12)  (64,1) 
Branch_type_2  (3,1)  (5,1)  (8,3)  (9,3)  (12,1)  (13,1)  (14,1)  (16,3)  (17,2)  (20,2)  (21,2)  (23,5)  (24,1)  (47,37) 
Branch_type_3  (3,4152)  (4,242)  (5,412)  (6,425)  (7,444)  (8,320)  (9,256)  (10,156)  (11,134)  (12,51)  (13,4)  (24,1)  (64,2) 
Branch_type_4  (6,3)  (7,8)  (8,28)  (9,50)  (10,60)  (11,61)  (12,100)  (13,90)  (14,98)  (15,89)  (16,99)  (17,70)  (18,55)  (19,117)  (20,71)  (21,124)  (22,210)  (23,138)  (24,190)  (25,72) 
Branch_type_5  (8,2)  (9,1)  (10,3)  (11,5)  (12,3)  (13,14)  (14,16)  (15,11)  (16,20)  (17,11)  (18,16)  (19,12)  (20,11)  (21,13)  (22,42)  (23,26)  (24,37) 
Branch_type_6  (5,4)  (6,13)  (7,23)  (8,32)  (9,33)  (10,65)  (11,54)  (12,78)  (13,92)  (14,108)  (15,85)  (16,95)  (17,69)  (18,49)  (19,106)  (20,52)  (21,95)  (22,142)  (23,74)  (24,92)  (25,4)  (47,45)  (64,1) 
Unique trigger count: 
Variant_0_evicts_0 : 0
Variant_0_evicts_1 : 0
Variant_0_evicts_2 : 0
Variant_0_evicts_3 : 0
Variant_1_evicts_0 : 0
Variant_1_evicts_1 : 0
Variant_1_evicts_2 : 0
Variant_1_evicts_3 : 0
Variant_2_evicts_0 : 0
Variant_2_evicts_1 : 0
Variant_2_evicts_2 : 0
Variant_2_evicts_3 : 0
Variant_3_evicts_0 : 0
Variant_3_evicts_1 : 0
Variant_3_evicts_2 : 0
Variant_3_evicts_3 : 0
BTB PER SET UNIQUE ADDR: 12 6 5 15 12 17 13 11 6 12 10 14 17 13 5 12 9 16 11 14 14 9 12 12 8 8 7 15 10 9 16 14 14 7 10 11 15 10 7 14 11 8 10 17 6 10 10 8 10 10 10 10 7 12 11 4 7 8 10 8 12 17 6 11 7 19 14 7 18 11 12 9 15 9 8 9 5 16 9 16 13 3 11 17 11 17 16 7 9 14 7 5 11 6 6 17 11 7 9 15 12 14 16 6 10 13 9 11 10 7 7 19 9 7 11 7 11 7 8 12 11 8 6 12 13 12 5 8 11 9 8 12 12 14 7 15 10 9 9 14 7 12 14 10 12 10 6 6 8 12 13 13 12 9 7 10 18 9 9 11 12 7 11 17 8 17 15 10 8 11 11 8 14 8 8 10 12 8 16 8 9 11 10 14 18 12 6 13 8 10 11 12 10 10 9 13 4 14 9 8 11 11 14 10 11 7 10 13 7 12 10 12 19 8 7 16 14 10 10 19 6 14 7 8 10 12 18 8 9 13 9 6 9 13 9 15 9 12 12 7 11 10 9 11 6 13 7 7 9 9 11 10 12 8 12 13 9 11 13 11 15 9 6 12 18 11 8 10 8 14 10 14 11 8 7 9 11 15 11 11 9 16 8 8 11 6 9 13 15 8 12 10 7 13 10 14 8 13 13 9 13 11 9 15 11 16 11 9 14 10 11 13 10 7 5 6 14 15 11 12 12 11 9 9 11 12 10 7 11 8 11 11 12 12 12 9 5 14 6 12 14 9 9 13 13 11 10 15 15 10 13 8 6 15 16 12 14 11 9 11 11 11 5 19 10 14 11 11 14 13 12 11 13 11 11 11 10 12 14 11 16 8 9 5 8 11 10 15 10 11 11 9 13 11 12 8 12 9 12 6 10 12 10 14 16 6 9 17 12 10 8 7 9 18 12 7 9 15 14 12 12 9 5 13 16 9 10 14 10 13 14 8 8 14 11 12 13 11 10 7 11 7 11 12 22 7 6 11 6 14 15 14 14 10 8 14 17 13 8 12 13 9 11 7 17 7 7 13 13 13 14 8 8 15 12 12 13 14 8 11 10 14 14 14 8 19 14 12 12 11 11 12 11 6 10 9 10 17 10 11 13 12 10 13 6 10 10 14 16 10 13 13 9 15 15 12 13 13 6 9 6 6 10 12 10 15 19 7 7 17 11 12 12 10 14 16 12 15 12 13 18 8 12 15 16 14 6 14 5 8 15 11 14 9 13 11 12 8 17 12 11 17 11 13 7 9 7 12 14 14 12 9 12 14 12 11 17 11 10 11 12 14 7 10 10 13 15 10 14 17 10 14 10 9 16 10 7 10 9 10 19 9 8 10 9 15 18 10 12 12 16 11 6 8 4 14 7 14 7 10 14 12 5 8 11 10 10 21 9 15 9 10 12 12 9 9 13 10 8 16 13 14 12 14 5 14 12 10 12 10 9 12 11 8 8 15 8 10 12 12 12 7 6 14 14 15 11 11 9 9 15 9 9 15 20 9 15 14 15 15 14 10 13 16 17 18 9 13 13 10 11 13 13 10 10 8 8 15 9 12 7 9 12 13 4 12 13 7 13 8 8 13 8 12 8 8 12 15 13 9 12 7 9 15 7 12 14 9 6 11 14 9 11 7 11 16 14 12 11 11 10 9 10 8 12 15 13 13 14 8 17 12 9 16 10 11 17 9 6 9 12 5 4 13 12 9 10 10 12 10 12 14 8 8 10 8 9 12 18 11 9 8 12 9 11 12 11 9 5 9 5 8 18 10 13 18 10 12 17 8 16 17 8 13 17 12 13 11 13 11 10 15 7 17 13 9 17 12 7 18 12 16 9 8 9 10 10 11 12 11 11 13 12 10 10 15 8 9 10 12 14 8 6 11 11 19 14 13 12 13 10 13 7 13 16 14 12 14 9 9 13 8 7 11 19 4 10 8 10 10 12 14 8 10 11 4 10 11 10 15 7 7 14 10 12 8 13 10 16 10 14 12 10 11 13 9 9 12 10 6 17 10 10 13 8 9 7 14 9 17 8 10 9 11 14 13 11 16 13 10 11 13 11 5 12 6 8 13 12 11 16 16 12 13 13 12 10 13 12 15 8 17 8 13 10 13 9 14 10 11 10 16 11 8 9 17 8 15 15 7 16 11 8 16 12 10 18 10 9 12 11 14 17 11 13 10 11 11 14 10 12 6 13 14 11 18 15 12 14 11 13 6 9 7 12 9 10 7 10 11 18 13 6 13 16 10 10 11 6 14 8 14 7 9 10 13 4 5 9 10 7 7 12 7 
BTB PER SET COUNT: 15 6 1970 39 14 28 985 18 382 23 10 771 14365 30 5 15 976 322 16 22 16 400 737 69 8 11 7 18 385 357 80 1482 21 10 17 22 19 15 9 23 16 8 13 30 1461 11 16 9 54 12 14 13 7 21 29 5 7 10 15 9 18 1547 7 13 9 129 20 7 24 14 1476 12 22 12 11 15 9 713 13 19 13 3 17 25 12 269 32 9 1124 24 8 5 14 7 10 23 411 9 11 28 12 19 19 6 1464 32 12 11 990 9 10 31 143 7 17 759 16 10 1463 17 482 8 8 20 17 40 7 9 12 887 13 2840 20 19 7 21 980 12 12 30 11 19 22 14 27 17 7 710 9 215 19 299 628 12 8 14 305 9 13 15 25 370 15 23 1463 25 22 10 12 80 17 9 22 10 11 327 13 9 521 8 9 14 3434 19 19 30 6 14 1093 717 15 13 14 12 10 18 4 520 10 9 26 22 981 10 14 9 10 154 7 12 11 15 24 1357 8 870 17 12 2483 24 6 15 8 12 12 30 24 140 14 15 15 7 10 15 13 6137 38 17 15 7 16 15 17 62 7 1001 7 7 14 10 16 13 12 8 14 15 12 15 14 13 21 9 8 495 24 14 10 11 821 22 12 17 482 8 11 11 13 17 21 11 18 19 12 8 14 7 9 23 18 8 16 15 8 448 15 22 8 17 13 502 18 17 975 22 19 31 94 11 163 741 13 20 16 10 1829 105 19 20 13 21 23 2935 24 14 1466 19 16 8 11 17 16 12 21 21 15 15 5 297 6 13 24 1891 13 23 27 12 18 20 20 13 743 9 6 16 20 12 19 16 10 16 17 13 5 23 14 56 11 13 21 18 14 276 14 16 262 16 12 14 22 1469 1075 9 10 5 9 13 14 15 13 15 19 12 16 395 18 22 13 17 254 9 10 12 14 20 39 7 9 95 16 10 9 9 12 306 16 10 9 72 77 18 16 11 6 18 24 10 1049 17 18 912 31 8 19 20 506 27 16 690 11 8 12 13 15 18 2453 7 6 19 7 27 20 16 28 11 12 1470 24 17 8 18 35 13 13 7 23 8 9 19 17 19 23 12 9 20 21 14 23 135 9 15 24 19 21 25 11 31 29 19 18 11 141 14 4952 8 14 10 903 23 23 20 21 23 11 146 9 16 10 21 30 11 288 22 21 433 26 15 26 19 8 702 9 7 22 68 15 20 2031 11 7 291 13 16 133 10 17 27 15 28 16 468 41 9 14 22 19 25 6 23 5 1579 24 11 226 14 22 18 14 10 31 15 13 73 17 21 8 14 9 14 22 16 1131 12 12 23 2447 12 21 15 10 23 14 27 9 4255 11 20 24 11 18 19 14 23 14 9 43 12 7 391 10 10 25 9 8 12 15 23 30 972 23 19 26 11 8 12 5 21 185 23 7 17 15 22 9 10 12 10 16 31 9 15 10 19 22 13 15 11 24 991 8 441 13 21 17 19 5 172 998 13 850 13 16 19 23 10 11 508 10 80 15 106 113 9 6 17 944 21 15 13 1467 19 21 10 980 33 35 502 28 23 19 20 17 10 138 32 1364 32 11 18 94 13 16 18 18 10 1846 12 11 1567 14 19 8 27 1097 16 4 14 19 7 18 9 8 17 1026 14 11 156 132 18 24 10 23 871 15 575 8 15 36 9 993 19 265 13221 15 125 14 20 518 14 14 17 346 14 10 36 12 28 385 14 17 19 366 15 390 1208 14 15 25 353 6 9 17 5 4 13 18 12 10 2577 19 12 46 17 13 16 20 10 11 18 28 12 1520 11 862 13 13 19 17 9 5 10 7 972 30 12 1357 29 10 20 26 8 21 23 13 19 174 18 17 13 16 15 14 2898 9 21 19 699 35 460 19 29 15 793 11 10 16 11 12 14 17 16 19 19 20 14 489 121 11 12 13 24 24 972 6 13 15 34 269 17 18 15 13 1721 15 32 66 16 266 20 15 12 879 12 960 13 1010 4 13 10 14 13 19 28 8 10 15 4 12 13 16 25 9 9 139 10 36 9 18 12 20 13 16 439 21 15 21 12 11 17 10 6 29 14 35 23 12 15 9 22 13 364 385 494 18 13 18 981 13 740 21 60 13 19 11 5 14 9 8 25 19 31 22 24 13 17 56 2954 10 28 22 27 10 2311 8 14 12 18 10 16 10 16 55 1965 14 1474 9 22 249 23 35 7 17 17 9 19 14 13 1138 10 55 36 14 280 20 11 1093 13 12 17 1017 24 17 6 16 945 14 22 19 127 17 13 15 7 505 990 16 10 14 1466 10 267 30 22 10 17 18 12 14 19 7 979 11 447 7 14 16 14 4 5 13 11 9 9 15 9 
To predecode: 0
Predecoding something: 0
Predecode request dropped: 0
sizeofblock_0 0
sizeofblock_1 37104
sizeofblock_2 39211
sizeofblock_3 39472
sizeofblock_4 25355
sizeofblock_5 0
sizeofblock_6 0
sizeofblock_7 0
sizeofblock_8 0
Variant_0 Correct: 1603365 Incorrect: 0 Accuracy: 1
Variant_1 Correct: 2077628 Incorrect: 0 Accuracy: 1
Variant_2 Correct: 3617867 Incorrect: 0 Accuracy: 1
Variant_3 Correct: 0 Incorrect: 0 Accuracy: -nan
