
*** ChampSim Multicore Out-of-Order Simulator ***

Warmup Instructions: 50000000
Simulation Instructions: 50000000
Number of CPUs: 1
LLC sets: 2048
LLC ways: 16
Off-chip DRAM Size: 4096 MB Channels: 1 Width: 64-bit Data Rate: 6400 MT/s
CPU 0 runs ./micro_traces/srv615.trace.gz
.gz
ITLB has LRU replacement policy
DTLB has LRU replacement policy
STLB has LRU replacement policy
FDIP Prefetcher at L1I
L1I has LRU replacement policy
L1D has LRU replacement policy
Initialize SRRIP state for L2C
Initialize DRRIP state for LLC
Heartbeat_Variant_0 : 1058 0.258301 per_variant_size: 0 1058 0 0 0 0 0 0 0 
Heartbeat_Variant_1 : 1191 0.290771 per_variant_size: 0 843 348 0 0 0 0 0 0 
Heartbeat_Variant_2 : 1521 0.371338 per_variant_size: 0 929 405 131 56 0 0 0 0 
Heartbeat_Variant_3 : 0 0 per_variant_size: 0 0 0 0 0 0 0 0 0 
Heartbeat_Variant_0_evicts 0 : 13662 1 : 9656 2 : 11562 3 : 0 
Heartbeat_Variant_1_evicts 0 : 9583 1 : 0 2 : 11017 3 : 0 
Heartbeat_Variant_2_evicts 0 : 11568 1 : 10938 2 : 0 3 : 0 
Heartbeat_Variant_3_evicts 0 : 0 1 : 0 2 : 0 3 : 0 
Heartbeat CPU 0 instructions: 10000001 cycles: 2795321 heartbeat IPC: 3.57741 cumulative IPC: 3.57741 (Simulation time: 0 hr 2 min 20 sec) 
Heartbeat_Variant_0 : 1071 0.261475 per_variant_size: 0 1071 0 0 0 0 0 0 0 
Heartbeat_Variant_1 : 1194 0.291504 per_variant_size: 0 816 378 0 0 0 0 0 0 
Heartbeat_Variant_2 : 1561 0.381104 per_variant_size: 0 925 430 139 67 0 0 0 0 
Heartbeat_Variant_3 : 0 0 per_variant_size: 0 0 0 0 0 0 0 0 0 
Heartbeat_Variant_0_evicts 0 : 13756 1 : 9687 2 : 11738 3 : 0 
Heartbeat_Variant_1_evicts 0 : 9695 1 : 0 2 : 11206 3 : 0 
Heartbeat_Variant_2_evicts 0 : 11729 1 : 11232 2 : 0 3 : 0 
Heartbeat_Variant_3_evicts 0 : 0 1 : 0 2 : 0 3 : 0 
Heartbeat CPU 0 instructions: 20000001 cycles: 5592285 heartbeat IPC: 3.57531 cumulative IPC: 3.57636 (Simulation time: 0 hr 4 min 23 sec) 
Heartbeat_Variant_0 : 1060 0.258789 per_variant_size: 0 1060 0 0 0 0 0 0 0 
Heartbeat_Variant_1 : 1214 0.296387 per_variant_size: 0 836 378 0 0 0 0 0 0 
Heartbeat_Variant_2 : 1553 0.37915 per_variant_size: 0 926 432 134 61 0 0 0 0 
Heartbeat_Variant_3 : 0 0 per_variant_size: 0 0 0 0 0 0 0 0 0 
Heartbeat_Variant_0_evicts 0 : 14036 1 : 9922 2 : 12079 3 : 0 
Heartbeat_Variant_1_evicts 0 : 9860 1 : 0 2 : 11854 3 : 0 
Heartbeat_Variant_2_evicts 0 : 12152 1 : 11773 2 : 0 3 : 0 
Heartbeat_Variant_3_evicts 0 : 0 1 : 0 2 : 0 3 : 0 
Heartbeat CPU 0 instructions: 30000001 cycles: 8388468 heartbeat IPC: 3.5763 cumulative IPC: 3.57634 (Simulation time: 0 hr 6 min 29 sec) 
Heartbeat_Variant_0 : 1075 0.262451 per_variant_size: 0 1075 0 0 0 0 0 0 0 
Heartbeat_Variant_1 : 1228 0.299805 per_variant_size: 0 857 371 0 0 0 0 0 0 
Heartbeat_Variant_2 : 1528 0.373047 per_variant_size: 0 887 423 150 68 0 0 0 0 
Heartbeat_Variant_3 : 0 0 per_variant_size: 0 0 0 0 0 0 0 0 0 
Heartbeat_Variant_0_evicts 0 : 14033 1 : 9946 2 : 12312 3 : 0 
Heartbeat_Variant_1_evicts 0 : 9875 1 : 0 2 : 11435 3 : 0 
Heartbeat_Variant_2_evicts 0 : 12368 1 : 11350 2 : 0 3 : 0 
Heartbeat_Variant_3_evicts 0 : 0 1 : 0 2 : 0 3 : 0 
Heartbeat CPU 0 instructions: 40000002 cycles: 11183887 heartbeat IPC: 3.57728 cumulative IPC: 3.57657 (Simulation time: 0 hr 8 min 25 sec) 
Heartbeat_Variant_0 : 1070 0.26123 per_variant_size: 0 1070 0 0 0 0 0 0 0 
Heartbeat_Variant_1 : 1227 0.299561 per_variant_size: 0 851 376 0 0 0 0 0 0 
Heartbeat_Variant_2 : 1543 0.376709 per_variant_size: 0 912 427 140 64 0 0 0 0 
Heartbeat_Variant_3 : 0 0 per_variant_size: 0 0 0 0 0 0 0 0 0 
Heartbeat_Variant_0_evicts 0 : 13994 1 : 10255 2 : 12393 3 : 0 
Heartbeat_Variant_1_evicts 0 : 10228 1 : 0 2 : 11742 3 : 0 
Heartbeat_Variant_2_evicts 0 : 12426 1 : 11720 2 : 0 3 : 0 
Heartbeat_Variant_3_evicts 0 : 0 1 : 0 2 : 0 3 : 0 
Heartbeat CPU 0 instructions: 50000001 cycles: 13979233 heartbeat IPC: 3.57737 cumulative IPC: 3.57673 (Simulation time: 0 hr 10 min 29 sec) 

Warmup complete CPU 0 instructions: 50000001 cycles: 13979233 (Simulation time: 0 hr 10 min 29 sec) 

Cycle: 20000000 FTQ IN: 56667055 FTQ occupancy: 17.8972 DECODE IN: 56667055 DECODE occupancy: 45.8056 ROB IN: 56667055 ROB occupancy: 277.765 ROB OUT: 56667043
Heartbeat_Variant_0 : 1066 0.260254 per_variant_size: 0 1066 0 0 0 0 0 0 0 
Heartbeat_Variant_1 : 1246 0.304199 per_variant_size: 0 861 385 0 0 0 0 0 0 
Heartbeat_Variant_2 : 1529 0.373291 per_variant_size: 0 904 424 136 65 0 0 0 0 
Heartbeat_Variant_3 : 0 0 per_variant_size: 0 0 0 0 0 0 0 0 0 
Heartbeat_Variant_0_evicts 0 : 13630 1 : 9550 2 : 11679 3 : 0 
Heartbeat_Variant_1_evicts 0 : 9497 1 : 0 2 : 10988 3 : 0 
Heartbeat_Variant_2_evicts 0 : 11736 1 : 10916 2 : 0 3 : 0 
Heartbeat_Variant_3_evicts 0 : 0 1 : 0 2 : 0 3 : 0 
Heartbeat CPU 0 instructions: 60000000 cycles: 22954131 heartbeat IPC: 1.11422 cumulative IPC: 1.11422 (Simulation time: 0 hr 12 min 21 sec) 
Cycle: 30000000 FTQ IN: 10928392 FTQ occupancy: 6.26706 DECODE IN: 10928392 DECODE occupancy: 13.1748 ROB IN: 10928392 ROB occupancy: 114.669 ROB OUT: 10928292
Heartbeat_Variant_0 : 1051 0.256592 per_variant_size: 0 1051 0 0 0 0 0 0 0 
Heartbeat_Variant_1 : 1219 0.297607 per_variant_size: 0 845 374 0 0 0 0 0 0 
Heartbeat_Variant_2 : 1584 0.386719 per_variant_size: 0 934 442 145 63 0 0 0 0 
Heartbeat_Variant_3 : 0 0 per_variant_size: 0 0 0 0 0 0 0 0 0 
Heartbeat_Variant_0_evicts 0 : 13885 1 : 9949 2 : 12194 3 : 0 
Heartbeat_Variant_1_evicts 0 : 9864 1 : 0 2 : 11496 3 : 0 
Heartbeat_Variant_2_evicts 0 : 12294 1 : 11443 2 : 0 3 : 0 
Heartbeat_Variant_3_evicts 0 : 0 1 : 0 2 : 0 3 : 0 
Heartbeat CPU 0 instructions: 70000001 cycles: 32206820 heartbeat IPC: 1.08077 cumulative IPC: 1.09724 (Simulation time: 0 hr 14 min 18 sec) 
Cycle: 40000000 FTQ IN: 11044393 FTQ occupancy: 6.06098 DECODE IN: 11044393 DECODE occupancy: 12.7622 ROB IN: 11044393 ROB occupancy: 112.329 ROB OUT: 11044497
Heartbeat_Variant_0 : 1060 0.258789 per_variant_size: 0 1060 0 0 0 0 0 0 0 
Heartbeat_Variant_1 : 1241 0.302979 per_variant_size: 0 861 380 0 0 0 0 0 0 
Heartbeat_Variant_2 : 1553 0.37915 per_variant_size: 0 912 440 141 60 0 0 0 0 
Heartbeat_Variant_3 : 0 0 per_variant_size: 0 0 0 0 0 0 0 0 0 
Heartbeat_Variant_0_evicts 0 : 13662 1 : 9917 2 : 12052 3 : 0 
Heartbeat_Variant_1_evicts 0 : 9905 1 : 0 2 : 11499 3 : 0 
Heartbeat_Variant_2_evicts 0 : 12055 1 : 11465 2 : 0 3 : 0 
Heartbeat_Variant_3_evicts 0 : 0 1 : 0 2 : 0 3 : 0 
Heartbeat CPU 0 instructions: 80000003 cycles: 41244569 heartbeat IPC: 1.10647 cumulative IPC: 1.1003 (Simulation time: 0 hr 16 min 4 sec) 
Cycle: 50000000 FTQ IN: 10908334 FTQ occupancy: 6.24196 DECODE IN: 10908334 DECODE occupancy: 13.0748 ROB IN: 10908328 ROB occupancy: 114.018 ROB OUT: 10908266
Heartbeat_Variant_0 : 1084 0.264648 per_variant_size: 0 1084 0 0 0 0 0 0 0 
Heartbeat_Variant_1 : 1221 0.298096 per_variant_size: 0 832 389 0 0 0 0 0 0 
Heartbeat_Variant_2 : 1555 0.379639 per_variant_size: 0 913 435 145 62 0 0 0 0 
Heartbeat_Variant_3 : 0 0 per_variant_size: 0 0 0 0 0 0 0 0 0 
Heartbeat_Variant_0_evicts 0 : 13911 1 : 9672 2 : 11879 3 : 0 
Heartbeat_Variant_1_evicts 0 : 9608 1 : 0 2 : 11408 3 : 0 
Heartbeat_Variant_2_evicts 0 : 11920 1 : 11366 2 : 0 3 : 0 
Heartbeat_Variant_3_evicts 0 : 0 1 : 0 2 : 0 3 : 0 
Heartbeat CPU 0 instructions: 90000001 cycles: 50422901 heartbeat IPC: 1.08952 cumulative IPC: 1.09758 (Simulation time: 0 hr 17 min 44 sec) 
Heartbeat_Variant_0 : 1061 0.259033 per_variant_size: 0 1061 0 0 0 0 0 0 0 
Heartbeat_Variant_1 : 1235 0.301514 per_variant_size: 0 862 373 0 0 0 0 0 0 
Heartbeat_Variant_2 : 1564 0.381836 per_variant_size: 0 921 435 147 61 0 0 0 0 
Heartbeat_Variant_3 : 0 0 per_variant_size: 0 0 0 0 0 0 0 0 0 
Heartbeat_Variant_0_evicts 0 : 13525 1 : 9491 2 : 11680 3 : 0 
Heartbeat_Variant_1_evicts 0 : 9467 1 : 0 2 : 11057 3 : 0 
Heartbeat_Variant_2_evicts 0 : 11727 1 : 11019 2 : 0 3 : 0 
Heartbeat_Variant_3_evicts 0 : 0 1 : 0 2 : 0 3 : 0 
Heartbeat CPU 0 instructions: 100000002 cycles: 59389277 heartbeat IPC: 1.11528 cumulative IPC: 1.10108 (Simulation time: 0 hr 19 min 21 sec) 
Finished CPU 0 instructions: 50000001 cycles: 45410044 cumulative IPC: 1.10108 (Simulation time: 0 hr 19 min 21 sec) 

ChampSim completed all CPUs

Region of Interest Statistics

CPU 0 cumulative IPC: 1.10108 instructions: 50000001 cycles: 45410044
 Fetch stage stalled: 72.5505  Sim cycles: 45410044 fetch stall cycle: 32945197
 Empty decode stage: 64.4597  Sim cycles: 45410044 fetch stall cycle: 29271167
ITLB TOTAL     ACCESS:    5728520  HIT:    5230712  MISS:     497808  HIT %:      91.31  MISS %:    8.68999   MPKI: 9.95616
ITLB LOAD TRANSLATION INSTRUCTION	ACCESS:    5625251  HIT:    5127443  MISS:     497808  HIT %:    91.1505  MISS %:    8.84953  MPKI: 9.95616
ITLB TRANSLATION FROM L1D PREFETCHER INSTRUCTION	ACCESS:     103269  HIT:     103269  MISS:          0  HIT %:        100  MISS %:          0  MPKI: 0

ITLB AVERAGE MISS LATENCY: 9.03412 cycles
ITLB RQ	ACCESS:    7543697	FORWARD:          0	MERGED:    1371157	TO_CACHE:    6172540

DTLB TOTAL     ACCESS:    9380689  HIT:    8905647  MISS:     475042  HIT %:     94.936  MISS %:    5.06404   MPKI: 9.50084
DTLB LOAD TRANSLATION DATA	ACCESS:    9380689  HIT:    8905647  MISS:     475042  HIT %:     94.936  MISS %:    5.06404  MPKI: 9.50084

DTLB AVERAGE MISS LATENCY: 9.28318 cycles
DTLB RQ	ACCESS:   13660340	FORWARD:          0	MERGED:    4246514	TO_CACHE:    9413826

STLB TOTAL     ACCESS:    1219109  HIT:    1217298  MISS:       1811  HIT %:    99.8514  MISS %:   0.148551   MPKI: 0.03622
STLB LOAD TRANSLATION INSTRUCTION	ACCESS:     497808  HIT:     497609  MISS:        199  HIT %:      99.96  MISS %:  0.0399753  MPKI: 0.00398
STLB LOAD TRANSLATION DATA	ACCESS:     474741  HIT:     473153  MISS:       1588  HIT %:    99.6655  MISS %:   0.334498  MPKI: 0.03176
STLB TRANSLATION FROM L1D PREFETCHER DATA	ACCESS:     246560  HIT:     246536  MISS:         24  HIT %:    99.9903  MISS %: 0.00973394  MPKI: 0.00048

STLB AVERAGE MISS LATENCY: 70.3142 cycles
STLB RQ	ACCESS:    1338331	FORWARD:          0	MERGED:     119178	TO_CACHE:    1219153

STLB Hit, L1D data hit: 0
STLB Hit, L2C data hit: 0
STLB Hit, LLC data hit: 0
STLB Hit, LLC data miss: 0
STLB STLB hints to L2: 0
L1D TOTAL     ACCESS:   13424610  HIT:   12300326  MISS:    1124284  HIT %:    91.6252  MISS %:     8.3748   MPKI: 22.4857
L1D LOAD DATA	ACCESS:    6844622  HIT:    6101509  MISS:     743113  HIT %:    89.1431  MISS %:    10.8569  MPKI: 14.8623
L1D RFO DATA	ACCESS:    6255322  HIT:    5968601  MISS:     286721  HIT %:    95.4164  MISS %:    4.58363  MPKI: 5.73442
L1D PREFETCH DATA	ACCESS:     324666  HIT:     230216  MISS:      94450  HIT %:    70.9086  MISS %:    29.0914  MPKI: 1.889

L1D PREFETCH  REQUESTED:     731268  ISSUED:     731268  USEFUL:      34053  USELESS:      67982
L1D USEFUL LOAD PREFETCHES:      34053 PREFETCH ISSUED TO LOWER LEVEL:     102075  ACCURACY: 33.3608
 TIMELY PREFETCHES:      34053 LATE PREFETCHES: 7571 DROPPED PREFETCHES: 10
L1D AVERAGE MISS LATENCY: 246748 cycles
L1D RQ	ACCESS:   10901859	FORWARD:          0	MERGED:    3863232	TO_CACHE:    6874859
L1D WQ	ACCESS:    6956185	FORWARD:     164074	MERGED:     170704	TO_CACHE:    6785481
L1D PQ	ACCESS:     365787	FORWARD:          0	MERGED:          0	TO_CACHE:     365481

L1D UNIQUE REGIONS ACCESSED: 0
L1D REGIONS CONFLICTS: 0
L1D Cross Page Prefetch Requests: 6899
L1D Same Page Prefetch Requests: 743105
L1D ROI Sum of L1D PQ occupancy: 4632585
L1D PREFETCHES PUSHED FROM L2C: 0
L1I TOTAL     ACCESS:    7025068  HIT:    4244343  MISS:    2780725  HIT %:    60.4171  MISS %:    39.5829   MPKI: 55.6145
L1I LOAD INSTRUCTION	ACCESS:    6541852  HIT:    3761127  MISS:    2780725  HIT %:    57.4933  MISS %:    42.5067  MPKI: 55.6145
L1I PREFETCH INSTRUCTION	ACCESS:     483216  HIT:     483216  MISS:          0  HIT %:        100  MISS %:          0  MPKI: 0

L1I PREFETCH  REQUESTED:    1072113  ISSUED:    1072113  USEFUL:          0  USELESS:          0
L1I USEFUL LOAD PREFETCHES:          0 PREFETCH ISSUED TO LOWER LEVEL:          0  ACCURACY: -nan
 TIMELY PREFETCHES:          0 LATE PREFETCHES: 0 DROPPED PREFETCHES: 0
L1I AVERAGE MISS LATENCY: 17.0807 cycles
L1I RQ	ACCESS:    9440530	FORWARD:          0	MERGED:    2661412	TO_CACHE:    6779118
L1I PQ	ACCESS:    1072113	FORWARD:          0	MERGED:     307534	TO_CACHE:     764579

L1BTB TOTAL     ACCESS:    5670809  HIT:    2023733  MISS:    3647076  HIT %:    35.6868  MISS %:    64.3132   MPKI: 72.9415
L1BTB BRANCH_DIRECT_JUMP	ACCESS:     547751  HIT:     142936  MISS:     404815	AVERAGE STALL: 35.8306
L1BTB BRANCH_INDIRECT	ACCESS:     182288  HIT:      65402  MISS:     116886	AVERAGE STALL: 84.7362
L1BTB BRANCH_CONDITIONAL	ACCESS:    2697454  HIT:    1398945  MISS:    1298509	AVERAGE STALL: 35.6776
L1BTB BRANCH_DIRECT_CALL	ACCESS:     949110  HIT:     105113  MISS:     843997	AVERAGE STALL: 36.4854
L1BTB BRANCH_INDIRECT_CALL	ACCESS:     172546  HIT:      21333  MISS:     151213	AVERAGE STALL: 108.924
L1BTB BRANCH_RETURN	ACCESS:    1121660  HIT:     290004  MISS:     831656	AVERAGE STALL: 36.3981
L1BTB BRANCH_OTHER ACCESS:          0  HIT:          0  MISS:          0	AVERAGE STALL: -nan
L1BTB TOTAL ROB OCCUPANCY AT BTB MISS: 12.7428

L2BTB TOTAL     ACCESS:    3621810  HIT:    3137621  MISS:     484189  HIT %:    86.6313  MISS %:    13.3687   MPKI: 9.68378
L2BTB BRANCH_DIRECT_JUMP	ACCESS:     400748  HIT:     351546  MISS:      49202	AVERAGE STALL: 35.8306
L2BTB BRANCH_INDIRECT	ACCESS:     106563  HIT:      97874  MISS:       8689	AVERAGE STALL: 84.7362
L2BTB BRANCH_CONDITIONAL	ACCESS:    1298509  HIT:    1159796  MISS:     138713	AVERAGE STALL: 35.6776
L2BTB BRANCH_DIRECT_CALL	ACCESS:     843997  HIT:     686352  MISS:     157645	AVERAGE STALL: 36.4854
L2BTB BRANCH_INDIRECT_CALL	ACCESS:     141757  HIT:     108561  MISS:      33196	AVERAGE STALL: 108.924
L2BTB BRANCH_RETURN	ACCESS:     830236  HIT:     733492  MISS:      96744	AVERAGE STALL: 36.3981
L2BTB BRANCH_OTHER ACCESS:          0  HIT:          0  MISS:          0	AVERAGE STALL: -nan
L2BTB TOTAL ROB OCCUPANCY AT BTB MISS: 95.9834

L2C TOTAL     ACCESS:    4510572  HIT:    4045779  MISS:     464793  HIT %:    89.6955  MISS %:    10.3045   MPKI: 9.29586
L2C LOAD INSTRUCTION	ACCESS:    2780725  HIT:    2528361  MISS:     252364  HIT %:    90.9245  MISS %:    9.07547  MPKI: 5.04728
L2C LOAD TRANSLATION INSTRUCTION	ACCESS:        223  HIT:         48  MISS:        175  HIT %:    21.5247  MISS %:    78.4753  MPKI: 0.0035
L2C LOAD DATA	ACCESS:     735509  HIT:     665122  MISS:      70387  HIT %:    90.4302  MISS %:    9.56984  MPKI: 1.40774
L2C RFO DATA	ACCESS:     286644  HIT:     232305  MISS:      54339  HIT %:     81.043  MISS %:     18.957  MPKI: 1.08678
L2C PREFETCH DATA	ACCESS:     181025  HIT:     109263  MISS:      71762  HIT %:     60.358  MISS %:     39.642  MPKI: 1.43524
L2C WRITEBACK DATA	ACCESS:     524772  HIT:     510170  MISS:      14602  HIT %:    97.2175  MISS %:    2.78254  MPKI: 0.29204
L2C LOAD TRANSLATION DATA	ACCESS:       1624  HIT:        476  MISS:       1148  HIT %:    29.3103  MISS %:    70.6897  MPKI: 0.02296
L2C TRANSLATION FROM L1D PREFETCHER DATA	ACCESS:         50  HIT:         34  MISS:         16  HIT %:         68  MISS %:         32  MPKI: 0.00032

L2C PREFETCH  REQUESTED:      85987  ISSUED:      85987  USEFUL:       8345  USELESS:      63767
L2C USEFUL LOAD PREFETCHES:       8345 PREFETCH ISSUED TO LOWER LEVEL:      72078  ACCURACY: 11.5777
 TIMELY PREFETCHES:       8345 LATE PREFETCHES: 315 DROPPED PREFETCHES: 0
L2C AVERAGE MISS LATENCY: 38.1266 cycles
L2C RQ	ACCESS:    3804834	FORWARD:          0	MERGED:          0	TO_CACHE:    3804777
L2C WQ	ACCESS:     524772	FORWARD:         57	MERGED:          0	TO_CACHE:     524772
L2C PQ	ACCESS:     188062	FORWARD:          0	MERGED:       3459	TO_CACHE:     184603

L2C Dense regions hint from L2: 0
PSCL5 TOTAL     ACCESS:       3648  HIT:       1824  MISS:       1824  HIT %:         50  MISS %:         50   MPKI: 0.03648
PSCL5 LOAD TRANSLATION INSTRUCTION	ACCESS:       3548  HIT:       1774  MISS:       1774  HIT %:         50  MISS %:         50  MPKI: 0.03548
PSCL5 TRANSLATION FROM L1D PREFETCHER INSTRUCTION	ACCESS:        100  HIT:         50  MISS:         50  HIT %:         50  MISS %:         50  MPKI: 0.001


PSCL4 TOTAL     ACCESS:       3568  HIT:       1782  MISS:       1786  HIT %:    49.9439  MISS %:    50.0561   MPKI: 0.03572
PSCL4 LOAD TRANSLATION INSTRUCTION	ACCESS:       1851  HIT:       1737  MISS:        114  HIT %:    93.8412  MISS %:    6.15883  MPKI: 0.00228
PSCL4 TRANSLATION FROM L1D PREFETCHER INSTRUCTION	ACCESS:         45  HIT:         45  MISS:          0  HIT %:        100  MISS %:          0  MPKI: 0
PSCL4 LOAD TRANSLATION DATA	ACCESS:       1627  HIT:          0  MISS:       1627  HIT %:          0  MISS %:        100  MPKI: 0.03254
PSCL4 TRANSLATION FROM L1D PREFETCHER DATA	ACCESS:         45  HIT:          0  MISS:         45  HIT %:          0  MISS %:        100  MPKI: 0.0009


PSCL3 TOTAL     ACCESS:       3584  HIT:       1790  MISS:       1794  HIT %:    49.9442  MISS %:    50.0558   MPKI: 0.03588
PSCL3 LOAD TRANSLATION INSTRUCTION	ACCESS:       1859  HIT:       1745  MISS:        114  HIT %:    93.8677  MISS %:    6.13233  MPKI: 0.00228
PSCL3 TRANSLATION FROM L1D PREFETCHER INSTRUCTION	ACCESS:         45  HIT:         45  MISS:          0  HIT %:        100  MISS %:          0  MPKI: 0
PSCL3 LOAD TRANSLATION DATA	ACCESS:       1635  HIT:          0  MISS:       1635  HIT %:          0  MISS %:        100  MPKI: 0.0327
PSCL3 TRANSLATION FROM L1D PREFETCHER DATA	ACCESS:         45  HIT:          0  MISS:         45  HIT %:          0  MISS %:        100  MPKI: 0.0009


PSCL2 TOTAL     ACCESS:       3583  HIT:       1759  MISS:       1824  HIT %:    49.0929  MISS %:    50.9071   MPKI: 0.03648
PSCL2 LOAD TRANSLATION INSTRUCTION	ACCESS:       1907  HIT:       1709  MISS:        198  HIT %:    89.6172  MISS %:    10.3828  MPKI: 0.00396
PSCL2 TRANSLATION FROM L1D PREFETCHER INSTRUCTION	ACCESS:         50  HIT:         50  MISS:          0  HIT %:        100  MISS %:          0  MPKI: 0
PSCL2 LOAD TRANSLATION DATA	ACCESS:       1576  HIT:          0  MISS:       1576  HIT %:          0  MISS %:        100  MPKI: 0.03152
PSCL2 TRANSLATION FROM L1D PREFETCHER DATA	ACCESS:         50  HIT:          0  MISS:         50  HIT %:          0  MISS %:        100  MPKI: 0.001


LLC TOTAL     ACCESS:     526099  HIT:     498952  MISS:      27147  HIT %:    94.8399  MISS %:    5.16006   MPKI: 0.54294
LLC LOAD INSTRUCTION	ACCESS:     252364  HIT:     251533  MISS:        831  HIT %:    99.6707  MISS %:   0.329286  MPKI: 0.01662
LLC LOAD TRANSLATION INSTRUCTION	ACCESS:        175  HIT:        150  MISS:         25  HIT %:    85.7143  MISS %:    14.2857  MPKI: 0.0005
LLC LOAD DATA	ACCESS:      70116  HIT:      66758  MISS:       3358  HIT %:    95.2108  MISS %:    4.78921  MPKI: 0.06716
LLC RFO DATA	ACCESS:      54291  HIT:      41455  MISS:      12836  HIT %:     76.357  MISS %:     23.643  MPKI: 0.25672
LLC PREFETCH DATA	ACCESS:      72078  HIT:      62380  MISS:       9698  HIT %:    86.5451  MISS %:    13.4549  MPKI: 0.19396
LLC WRITEBACK DATA	ACCESS:      75911  HIT:      75588  MISS:        323  HIT %:    99.5745  MISS %:   0.425498  MPKI: 0.00646
LLC LOAD TRANSLATION DATA	ACCESS:       1148  HIT:       1074  MISS:         74  HIT %:     93.554  MISS %:    6.44599  MPKI: 0.00148
LLC TRANSLATION FROM L1D PREFETCHER DATA	ACCESS:         16  HIT:         14  MISS:          2  HIT %:       87.5  MISS %:       12.5  MPKI: 4e-05

LLC AVERAGE MISS LATENCY: 153.822 cycles
LLC RQ	ACCESS:     378115	FORWARD:          0	MERGED:          0	TO_CACHE:     378111
LLC WQ	ACCESS:      75912	FORWARD:          4	MERGED:          0	TO_CACHE:      75912
LLC PQ	ACCESS:      72078	FORWARD:          0	MERGED:          0	TO_CACHE:      72078

LLC Dense regions hint to LLC: 0

RAW hits: 1730691
Loads Generated: 12632550
Loads sent to L1D: 10901859
Stores Generated: 6956176
Stores sent to L1D: 6956185
Major fault: 0 Minor fault: 2481
Allocated PAGES: 2481

stream: 
stream:times selected: 1176535
stream:pref_filled: 120717
stream:pref_useful: 24046
stream:pref_late: 6790
stream:misses: 7904
stream:misses_by_poll: 0

CS: 
CS:times selected: 175676
CS:pref_filled: 59150
CS:pref_useful: 35838
CS:pref_late: 6691
CS:misses: 15629
CS:misses_by_poll: 2

CPLX: 
CPLX:times selected: 999790
CPLX:pref_filled: 19659
CPLX:pref_useful: 4711
CPLX:pref_late: 3046
CPLX:misses: 93616
CPLX:misses_by_poll: 2

NL_L1: 
NL:times selected: 20841
NL:pref_filled: 705
NL:pref_useful: 330
NL:pref_late: 287
NL:misses: 1759
NL:misses_by_poll: 0

total selections: 2372842
total_filled: 94450
total_useful: 34053
total_late: 18179
total_polluted: 4
total_misses_after_warmup: 773352
conflicts: 5663904

test: 114420

DRAM Statistics
 CHANNEL 0
 RQ ROW_BUFFER_HIT:       9855  ROW_BUFFER_MISS:      16965
 DBUS_CONGESTED:         12
 WQ ROW_BUFFER_HIT:       1308  ROW_BUFFER_MISS:      11513  FULL:          0

 AVG_CONGESTED_CYCLE: 5

CPU 0 Branch Prediction Accuracy: 99.8257% MPKI: 0.31912 Average ROB Occupancy at Mispredict: 126.894
Branch types
NOT_BRANCH: 40846870 81.6937%
BRANCH_DIRECT_JUMP: 547751 1.0955%
BRANCH_INDIRECT: 182288 0.364576%
BRANCH_CONDITIONAL: 6179443 12.3589%
BRANCH_DIRECT_CALL: 949110 1.89822%
BRANCH_INDIRECT_CALL: 172546 0.345092%
BRANCH_RETURN: 1121660 2.24332%
BRANCH_OTHER: 0 0%

DRAM PAGES: 1048576
Allocated PAGES: 2481
Average_ROB_Occupancy: 114.803
Average_Decode_Occupancy: 12.9413
Average_FTQ_Occupancy: 6.15597
Indirect max targets: 14 Average targets: 1.14576
Branch_type:  BRANCH_DIRECT_JUMP:  Count Percentage: 3.28165 5.97631 3.65442 7.17978 2.92367 6.32151 1.29156 69.3711 
Branch_type:  BRANCH_INDIRECT:  Count Percentage: 6.12122 0.788748 8.14555 9.6825 3.34841 2.8139 0.937785 68.1619 
Branch_type:  BRANCH_CONDITIONAL:  Count Percentage: 20.8927 3.48023 1.53093 7.18912 3.07247 3.54878 0.573501 59.7123 
Branch_type:  BRANCH_DIRECT_CALL:  Count Percentage: 0.901909 1.28065 0.724845 3.62232 2.78686 2.60827 0.885745 87.1894 
Branch_type:  BRANCH_INDIRECT_CALL:  Count Percentage: 9.54037 0 2.99243 0 0.000290245 1.70984 0.99351 84.7636 
Branch_type:  BRANCH_RETURN:  Count Percentage: 4.74589 4.79182 1.02068 4.82809 4.10445 3.40967 0.580772 76.5186 
Branch_type:  BRANCH_DIRECT_JUMP:  Total Count: 35953 65475 40037 78660 32031 69257 14150 760013 
Branch_type:  BRANCH_INDIRECT:  Total Count: 22343 2879 29732 35342 12222 10271 3423 248797 
Branch_type:  BRANCH_CONDITIONAL:  Total Count: 2581475 430012 189160 888278 379630 438482 70861 7377963 
Branch_type:  BRANCH_DIRECT_CALL:  Total Count: 17074 24244 13722 68574 52758 49377 16768 1650578 
Branch_type:  BRANCH_INDIRECT_CALL:  Total Count: 32870 0 10310 0 1 5891 3423 292041 
Branch_type:  BRANCH_RETURN:  Total Count: 106232 107260 22847 108072 91874 76322 13000 1712792 
Number of unique branch instructions: 9763
Upper 32 bits: 
aaaa
ffff
ffff0000
Unique upper 32 bits: 3
Unique upper 36 bits: 3
Unique upper 40 bits: 5
Unique upper 44 bits: 32
Unique upper 48 bits: 154
Variant_0 : 1061 0.259033
Variant_1 : 1235 0.301514
Variant_2 : 1564 0.381836
Variant_3 : 0 0
Offset_3 4036
Offset_4 241
Offset_5 442
Offset_6 503
Offset_7 572
Offset_8 499
Offset_9 459
Offset_10 377
Offset_11 303
Offset_12 265
Offset_13 201
Offset_14 223
Offset_15 190
Offset_16 218
Offset_17 145
Offset_18 120
Offset_19 235
Offset_20 135
Offset_21 235
Offset_22 391
Offset_23 241
Offset_24 325
Offset_25 88
Offset_47 80
decode_dispatch_called: 20133567 44.3373
Dispatch_width: 0 10064613 49.9892 22.1638
Dispatch_width: 1 548382 2.72372 1.20762
Dispatch_width: 2 698099 3.46734 1.53732
Dispatch_width: 3 478796 2.3781 1.05438
Dispatch_width: 4 1539660 7.64723 3.39057
Dispatch_width: 5 363885 1.80735 0.801332
Dispatch_width: 6 6440132 31.987 14.1822
Empty_decode_cycles: 25276477 55.6627
ROB_full_cycles: 1905439 4.19607
Starvation_cycles_per_kilo_instr: 370.645
Starvation_cycles_per_kilo_instr_3: 351.609
Starvation_cycles_per_kilo_instr_0: 334.357
Branch_type_1  (3,1)  (4,7)  (5,36)  (6,71)  (7,115)  (8,125)  (9,124)  (10,98)  (11,67)  (12,43)  (13,8)  (14,2)  (15,3)  (16,4)  (18,1)  (19,4)  (20,2)  (21,1)  (22,3)  (23,2)  (24,10)  (25,12) 
Branch_type_2  (3,1)  (5,1)  (8,3)  (9,3)  (12,1)  (13,1)  (14,1)  (16,3)  (17,2)  (20,2)  (21,2)  (23,5)  (24,1)  (47,36) 
Branch_type_3  (3,4034)  (4,234)  (5,401)  (6,417)  (7,428)  (8,312)  (9,251)  (10,154)  (11,122)  (12,50)  (13,7) 
Branch_type_4  (6,3)  (7,8)  (8,24)  (9,50)  (10,59)  (11,58)  (12,93)  (13,84)  (14,98)  (15,90)  (16,98)  (17,63)  (18,54)  (19,115)  (20,71)  (21,124)  (22,207)  (23,136)  (24,186)  (25,72) 
Branch_type_5  (8,2)  (9,1)  (10,3)  (11,5)  (12,3)  (13,14)  (14,16)  (15,11)  (16,20)  (17,13)  (18,16)  (19,12)  (20,10)  (21,13)  (22,42)  (23,26)  (24,36) 
Branch_type_6  (5,4)  (6,12)  (7,21)  (8,33)  (9,30)  (10,63)  (11,51)  (12,75)  (13,87)  (14,106)  (15,86)  (16,93)  (17,67)  (18,49)  (19,104)  (20,50)  (21,95)  (22,139)  (23,72)  (24,92)  (25,4)  (47,44) 
Unique trigger count: 
Variant_0_evicts_0 : 0
Variant_0_evicts_1 : 0
Variant_0_evicts_2 : 0
Variant_0_evicts_3 : 0
Variant_1_evicts_0 : 0
Variant_1_evicts_1 : 0
Variant_1_evicts_2 : 0
Variant_1_evicts_3 : 0
Variant_2_evicts_0 : 0
Variant_2_evicts_1 : 0
Variant_2_evicts_2 : 0
Variant_2_evicts_3 : 0
Variant_3_evicts_0 : 0
Variant_3_evicts_1 : 0
Variant_3_evicts_2 : 0
Variant_3_evicts_3 : 0
BTB PER SET UNIQUE ADDR: 2 7 3 6 5 5 7 6 2 6 5 4 2 5 11 8 4 4 4 2 5 9 7 9 4 6 4 3 5 9 6 5 3 6 5 8 5 3 5 9 4 8 4 3 7 6 4 5 7 7 10 5 6 2 2 7 5 3 7 5 5 7 4 6 7 2 5 4 4 8 7 6 5 7 6 9 3 5 5 7 8 7 5 10 6 3 6 3 5 7 6 8 7 7 4 2 4 3 4 7 5 2 4 6 5 4 4 6 6 8 7 1 3 8 2 5 5 7 4 10 5 4 5 3 9 7 3 5 5 2 3 6 3 5 7 6 6 2 7 6 3 4 9 7 4 8 5 4 6 8 3 2 3 10 2 4 6 3 6 4 2 6 4 7 8 2 1 3 9 10 6 6 5 4 4 5 3 6 6 5 5 5 4 9 5 6 4 4 5 5 5 3 5 7 3 5 5 6 5 3 7 7 3 4 1 9 2 4 7 3 2 2 7 6 5 5 6 4 5 5 4 8 5 8 6 10 7 4 7 9 3 5 5 11 3 6 3 6 5 6 4 6 6 6 6 4 4 5 5 6 3 7 4 3 5 5 3 5 7 1 9 6 6 4 4 4 6 5 7 5 7 8 6 6 6 5 5 2 6 9 8 2 5 7 3 5 11 4 8 4 3 2 10 7 7 5 4 3 7 3 13 3 5 8 4 3 6 7 7 3 7 3 6 6 5 4 3 7 6 3 8 8 3 5 9 5 3 5 2 8 4 10 3 5 4 4 8 7 6 5 2 5 5 3 5 4 4 7 2 3 6 7 5 2 6 3 4 6 5 4 11 6 5 7 5 9 6 8 3 3 8 6 9 4 5 5 7 5 4 1 4 5 5 4 7 3 3 7 3 5 5 2 4 6 3 3 6 2 5 2 7 7 6 4 4 9 11 5 9 2 5 4 1 6 6 2 4 4 4 6 6 1 5 6 7 5 6 8 6 6 8 3 3 4 7 1 4 2 2 4 9 5 3 2 3 1 3 5 7 4 9 2 5 4 5 2 7 2 13 5 5 6 4 10 2 9 4 6 3 6 5 7 2 6 4 8 3 2 4 7 4 2 6 4 4 5 2 6 6 7 7 4 6 6 7 3 7 6 3 8 3 3 3 4 5 6 6 4 2 4 6 3 6 3 5 5 9 6 7 4 6 6 9 3 6 11 3 3 5 3 9 7 5 3 3 5 9 9 4 6 4 9 11 12 5 4 7 10 4 3 3 8 2 6 6 8 7 1 7 4 4 3 5 9 5 3 4 4 10 5 4 5 2 7 3 7 10 2 6 4 1 8 2 9 3 3 2 1 5 9 8 7 7 7 3 6 13 8 5 4 9 3 4 2 4 10 8 1 4 4 4 4 5 6 1 4 10 3 8 8 4 5 5 1 6 6 3 5 5 4 5 6 4 5 6 6 3 9 5 11 2 5 4 3 3 6 6 4 3 6 5 5 5 8 5 6 6 3 3 5 4 5 5 8 4 5 3 9 8 6 8 5 7 5 8 4 4 7 4 6 7 9 3 7 7 9 4 9 8 4 6 2 4 7 4 9 4 8 4 10 6 6 4 3 10 3 2 6 7 8 5 2 3 7 5 4 7 6 5 3 5 6 3 8 7 8 8 7 4 8 3 5 9 5 5 2 6 6 3 7 4 11 5 6 5 2 6 4 5 5 7 4 5 5 10 8 9 1 2 8 7 6 5 6 7 6 8 13 5 5 6 5 1 5 5 6 5 6 4 7 6 4 4 5 7 6 4 6 5 8 7 4 4 6 8 6 8 3 5 5 7 6 7 4 6 2 5 4 6 5 6 2 1 5 8 5 12 3 7 5 8 5 4 4 5 6 6 6 10 4 7 6 3 6 5 5 6 4 2 5 1 9 5 4 5 3 4 5 3 4 4 7 5 4 6 3 10 7 4 4 1 6 3 9 6 7 8 6 5 5 4 3 5 3 3 4 4 7 0 6 6 5 6 4 4 5 7 10 3 0 9 3 3 1 4 7 4 8 6 2 7 2 7 5 5 2 4 4 6 10 7 3 5 8 7 8 6 9 9 6 8 1 7 8 2 2 6 6 7 3 3 8 7 6 5 7 3 3 2 7 7 3 4 2 5 3 3 3 7 4 8 8 5 2 11 5 8 3 5 2 4 3 8 4 5 2 7 5 2 4 5 1 3 7 2 4 2 10 5 6 4 5 8 5 9 3 3 5 6 2 3 5 7 10 7 4 5 5 2 3 8 5 9 4 3 4 5 7 4 3 4 7 10 5 5 3 5 7 3 4 5 3 6 7 7 4 7 7 3 3 6 3 5 5 5 7 8 5 2 4 6 5 5 7 7 5 6 6 3 3 6 5 6 4 3 6 10 7 4 2 3 7 4 5 4 7 9 6 9 6 1 5 3 8 8 4 6 6 7 3 8 1 4 4 5 6 4 3 3 9 8 9 6 5 6 3 4 4 5 3 5 12 6 9 3 6 2 4 2 2 6 7 4 5 9 3 6 6 5 6 5 4 4 7 2 7 6 7 3 2 5 5 7 3 4 4 4 5 3 6 9 9 7 3 6 5 3 6 5 5 5 6 1 5 3 3 5 9 7 5 4 2 7 4 3 3 6 8 6 7 9 6 6 3 4 9 4 7 4 6 9 2 11 4 4 4 6 4 6 8 11 10 4 2 7 4 8 5 5 2 6 3 4 3 7 6 5 2 8 4 4 3 6 7 1 6 6 3 8 6 9 2 5 5 5 7 8 5 6 5 3 3 4 2 8 6 3 6 3 3 5 5 6 5 9 5 7 4 2 6 5 7 3 3 5 2 3 3 2 4 3 4 5 3 5 2 7 6 4 9 6 4 10 3 4 7 6 7 7 3 9 4 7 7 5 5 5 6 10 9 6 5 7 10 4 5 6 5 5 6 3 5 5 9 7 6 8 7 8 7 13 7 4 5 11 5 3 4 4 4 3 5 4 6 6 2 5 4 8 11 5 5 4 7 8 4 5 6 5 6 5 5 6 5 8 11 4 5 8 4 5 3 4 7 4 2 8 1 4 6 4 8 7 7 7 2 4 4 5 7 3 5 5 13 8 7 4 4 2 5 2 5 3 7 4 4 6 6 6 2 2 5 9 7 1 5 6 4 5 4 7 5 10 2 2 4 9 7 5 6 2 4 8 3 8 6 3 3 2 5 8 7 6 8 7 7 6 4 3 7 7 4 6 7 10 6 7 9 7 3 7 7 6 4 5 5 8 5 6 4 4 6 2 6 6 3 5 5 9 5 5 3 4 6 11 5 5 4 3 9 4 4 7 1 4 3 7 4 6 10 4 7 4 7 7 4 3 4 5 5 7 5 5 8 5 10 6 4 7 1 6 3 10 7 8 7 9 3 8 3 6 7 10 3 3 6 7 8 6 11 9 1 5 6 5 4 12 6 6 3 4 5 5 2 4 7 7 5 3 6 4 3 6 6 5 7 4 7 3 2 5 6 4 5 2 5 4 7 5 4 3 8 6 5 4 4 3 6 6 6 8 3 2 4 1 6 5 7 6 2 4 5 3 6 3 7 8 5 4 7 5 5 3 5 6 3 3 6 4 5 6 5 6 6 4 5 10 5 9 7 4 6 7 4 3 6 4 4 8 4 3 10 7 8 5 7 3 2 3 4 4 7 8 4 7 6 8 4 5 6 5 6 8 2 7 6 7 5 4 8 8 5 3 3 5 4 3 4 5 5 3 6 3 6 7 4 4 4 1 2 6 4 3 2 6 6 1 5 4 4 5 5 6 2 1 5 5 9 13 3 4 7 4 3 5 4 1 5 4 3 3 5 4 2 4 8 8 3 4 5 1 2 6 7 5 3 4 6 4 6 2 4 3 9 6 5 8 4 4 3 5 3 4 5 4 6 3 5 7 8 7 4 7 4 3 7 5 7 5 5 7 3 4 4 4 6 1 1 3 4 6 8 3 7 6 7 6 5 7 4 2 4 7 10 0 7 4 9 5 10 5 10 1 7 11 7 7 6 2 6 3 7 3 6 4 6 6 5 4 6 4 5 3 4 2 1 4 2 6 2 6 4 7 2 5 3 3 5 2 6 3 4 7 7 6 7 6 4 6 4 5 8 2 3 5 5 4 4 5 8 4 4 3 3 6 5 4 6 4 7 3 5 5 7 5 3 4 8 6 6 2 3 7 4 5 6 2 7 4 4 3 8 3 7 5 4 4 9 4 10 4 5 3 5 6 10 5 6 3 3 3 3 2 5 3 11 1 6 2 4 3 4 3 6 4 5 2 1 3 8 2 6 5 4 3 7 5 3 4 6 6 7 8 3 5 8 1 5 11 4 1 1 9 9 2 6 7 9 5 5 7 5 8 6 7 7 4 2 5 3 5 8 4 9 8 9 4 4 2 7 3 8 6 6 8 8 6 5 7 8 7 5 5 6 6 5 5 6 3 11 3 8 5 10 5 3 5 8 3 4 4 4 3 2 8 8 3 6 2 6 2 4 6 7 3 4 1 3 6 4 0 3 7 9 3 4 5 8 8 6 4 10 7 5 3 8 5 5 8 4 3 11 4 3 4 5 4 14 4 9 3 7 4 4 3 4 7 6 
BTB PER SET COUNT: 2 1883 861 1036 862 230 433 914 2 809 959 361 2 754 1020 204 670 211 1232 5 481 1448 894 651 534 542 250 316 717 1093 733 113 234 1232 675 790 746 138 446 1642 6 1640 4 8 1452 894 138 248 220 1038 1718 560 973 2 2 785 964 1124 653 71 1084 1018 178 308 195 3 206 241 4 1223 735 330 277 630 381 1690 4 901 1193 229 706 423 232 1574 690 138 1015 3 685 1712 748 1146 1257 1298 4 63 214 4 189 662 669 2 352 143 61 158 46 588 675 1026 378 1 166 1372 3 263 433 17 443 2600 405 571 1900 280 15 1234 8 450 932 2 83 583 3 301 645 566 228 161 1092 1022 8 548 1501 586 4 344 9 480 417 844 254 514 3 887 2 813 201 598 563 305 2 471 5 415 819 60 1 3 317 726 164 816 320 242 347 370 107 251 56 827 87 721 293 572 510 462 4 6 10 164 53 3 1074 676 3 514 219 763 1285 4 451 457 140 166 1 990 2 551 677 3 4 4 983 755 346 443 937 305 332 212 178 932 322 1206 2000 1354 226 138 235 1671 270 165 238 5638 268 826 3 376 435 953 715 80 751 239 387 394 205 712 302 541 3 702 7 221 505 96 222 412 338 1 490 474 532 301 126 575 17 581 744 222 452 510 172 633 570 941 199 334 461 750 539 2 362 1020 3 612 1750 337 568 7 4 2 1409 647 878 200 10 73 500 191 1079 201 1472 667 205 8 667 20 498 5 190 3 796 344 6 374 4 749 297 4 600 437 232 333 1369 394 384 209 2 455 4 1803 151 812 179 226 886 348 261 675 2 321 363 4 703 257 4 742 2 326 333 202 376 2 683 5 425 620 803 182 1893 317 369 1156 384 3170 884 1324 3 4 739 485 3028 6 477 282 642 539 413 1 134 1220 102 474 945 251 16 510 95 244 328 2 733 334 102 5 1472 3 509 65 624 1002 316 283 415 1422 2588 774 792 2 132 331 1 575 907 222 407 411 272 649 500 1 5 614 988 860 653 661 1201 436 1559 56 4 461 874 3 366 2 2 116 2117 436 3 6 472 1 1477 30 753 489 1702 364 299 341 610 2 713 2 1591 201 1136 307 40 917 8 1012 295 315 4 562 446 624 2 389 982 211 146 4 290 709 101 2 245 407 4 392 150 359 234 924 537 449 119 635 735 996 901 574 78 771 3 268 3 263 5 490 259 116 2 76 1017 378 1124 1019 5 552 1022 1461 965 680 432 538 1563 3 426 1966 74 3 275 6 2137 789 167 24 3 136 531 611 556 270 252 556 1317 1717 480 1060 1146 1639 791 88 3 1303 962 642 434 689 1223 1 141 158 872 7718 405 873 570 4 1197 174 2165 568 222 335 2 1357 4 1083 1267 2 414 173 2 742 2 983 3 315 243 1 7 2295 746 605 791 1227 258 1766 1129 753 368 292 787 3 650 124 186 1054 1399 1 215 199 441 133 1168 310 1 264 1098 319 10828 859 297 283 472 1 708 309 562 217 464 432 422 1118 63 872 607 737 3 955 570 2428 2 341 435 6 4 1138 262 205 220 746 792 289 203 965 135 394 450 302 3 60 449 756 338 158 222 825 4 1849 702 910 467 394 755 3402 1080 377 383 1387 256 838 1085 739 110 1549 602 1056 404 1131 153 51 563 2 358 973 225 1382 119 1868 365 1589 624 1396 6 3 1352 132 3 417 1546 619 307 2 273 841 92 965 479 410 388 140 381 501 803 817 461 1101 828 818 1022 717 317 276 758 356 11 3 6 469 146 2443 4 2141 220 369 234 2 369 174 6 715 1506 280 297 335 243 711 790 1 2 829 622 350 284 148 196 275 651 2214 625 5 173 393 1 325 785 1054 354 692 339 645 715 94 165 245 730 9 683 703 294 1118 492 489 817 6 89 1045 185 206 284 189 197 31 608 824 307 2 133 4 273 173 428 2 2 192 912 526 1999 353 851 88 850 313 137 143 403 1217 388 544 1718 487 775 428 177 860 20 119 1357 189 2 491 12 1796 495 653 309 3 164 858 5 929 5 545 58 308 721 23 907 208 237 9 1 477 4 467 486 314 1470 290 869 169 754 233 462 8 3 35 1329 999 0 984 393 1024 504 158 9 634 192 1688 20 0 1796 50 77 1 4 733 583 997 927 235 1020 231 685 907 140 124 28 130 374 1130 728 264 589 756 853 1186 227 756 1673 964 1804 1 122 524 176 2 1456 399 381 322 5 806 1471 396 233 480 234 107 90 1044 866 4 5 2 1100 313 3 18 311 4 1247 995 507 3 2303 376 1502 3 1675 257 610 149 738 359 345 5 601 520 2 339 10 1 269 1138 2 73 80 1247 357 424 362 264 942 24 821 134 3 1013 19 180 5 414 1005 1016 455 11 327 1740 2 6 583 385 622 1323 272 5 287 1371 1029 483 4 739 1224 349 537 86 258 1203 4 49 401 316 502 240 579 158 901 1245 3 95 832 3 959 564 653 788 571 394 1468 151 451 500 8 507 409 809 968 64 105 3 334 207 247 121 436 11 1137 1801 265 2 3 630 456 873 529 556 986 711 576 599 1 447 4 1172 885 263 172 726 203 6 1158 1 228 304 281 309 7 69 60 635 1009 1088 593 7 420 500 233 8 294 3 368 2041 719 1654 367 919 7 171 2 210 135 779 387 1272 738 3 7 689 8 304 398 4 466 113 2 855 422 400 3 2 148 538 484 8 512 210 196 740 3 348 963 8248 1254 268 804 13 6 580 50 377 112 401 1 165 4 922 73 1276 1319 146 56 2 705 257 360 3 259 517 135 698 968 8 399 401 78 1174 8 142 470 667 971 79 1391 409 293 273 204 236 1094 726 1139 656 217 2 1867 179 1023 402 497 139 621 63 7 4 803 706 1205 2 1004 368 749 3 265 1350 1 238 877 142 670 257 789 3 548 45 533 824 676 210 330 141 3 71 445 2 1259 229 5 562 126 3 389 448 84 278 355 278 13 130 63 397 315 534 3 270 548 2 3 103 2 5 3 235 5 3 718 2 571 209 238 682 413 252 1097 3 188 497 273 997 744 346 1431 41 203 571 216 515 126 1473 1866 1267 70 802 220 1423 260 648 737 305 304 747 5 290 331 488 1008 515 490 1118 869 921 853 156 21 414 911 884 82 94 556 195 3 375 6 441 92 2 127 1499 331 1814 396 308 4 673 520 152 257 1004 506 371 623 655 192 482 963 1110 180 432 1066 608 2178 3 229 180 5 2 822 1 200 364 463 444 823 550 117 2 286 225 226 702 3 186 324 1973 1297 567 503 114 2 710 2 642 308 275 174 239 11 283 256 215 2 133 512 378 1 408 598 33 13 4 1047 281 305 71 2 330 995 164 171 484 2 413 932 51 1295 1092 267 233 129 936 1353 461 472 647 325 939 399 86 292 2157 1494 7 495 2010 1173 1082 846 568 891 76 389 1284 116 99 336 6 820 11 481 11 4 327 2 765 420 4 5 523 863 266 455 3 39 277 1342 358 222 8 3 1616 134 213 985 1 4 14 422 363 555 1394 197 792 413 484 747 629 12 202 10 220 484 154 376 524 403 1906 698 206 314 1 897 667 713 283 1562 977 960 116 961 92 430 553 2047 280 3 1006 108 706 868 1941 1334 1 80 1003 536 712 1242 513 1250 3 447 43 752 139 116 978 211 567 4 771 4 3 181 206 5 466 470 828 230 2 1014 390 248 13 2 343 4 457 89 1088 750 835 333 369 445 194 3 878 371 511 938 3 64 321 1 596 304 1254 91 1471 490 239 113 531 3 420 1010 17 167 482 171 280 3 505 469 138 144 654 95 491 189 406 418 614 595 523 1052 206 1496 372 7 730 1117 252 203 162 6 695 832 4 233 766 692 984 133 798 188 2 3 201 302 582 1457 113 655 617 1321 35 315 10 5 769 548 120 777 874 353 520 4 875 576 254 509 230 59 193 518 676 720 721 448 402 4 127 316 4 1005 447 1 307 163 196 3 12 348 423 1 577 4 369 276 7 273 3 1 220 200 496 2846 134 430 858 4 260 383 5 1 258 579 154 32 317 121 2 7 986 1003 130 4 68 1 196 579 559 403 235 4 293 404 420 3 292 8 2003 221 437 475 315 196 278 99 71 57 297 202 604 262 6 649 561 169 17 877 10 149 802 449 1277 251 476 853 3 4 6 137 572 1 1 8 631 541 1132 3 1040 308 478 759 666 1451 390 2 4 406 1337 0 377 63 840 182 1962 415 753 1 773 2719 532 245 238 2 1109 3 888 3 416 399 514 498 99 4 585 255 286 3 4 9 1 287 2 798 2 700 542 411 3 175 3 4 372 110 902 152 328 591 1126 226 823 1047 153 509 109 223 1343 2 665 215 5 342 794 551 1296 336 495 293 291 299 1191 834 635 4 1312 3 353 348 668 6 6 233 974 1795 480 2 80 902 268 429 777 2 853 13962 263 125 1323 248 1260 697 4 388 1201 591 1549 593 441 466 10 600 1349 557 556 65 233 6 3 2 832 6 1048 1 434 728 226 3 321 289 192 138 362 2 1 3 1272 2 119 683 567 73 1219 462 72 195 1335 155 408 769 3 443 1171 1 706 1190 94 2 1 641 705 2 432 609 1194 58 177 610 368 538 63 1234 425 192 2 427 327 322 1226 254 624 1272 313 246 87 2 830 162 601 803 380 492 1766 584 1342 1296 1339 900 236 189 504 3145 823 307 685 492 1530 3 666 394 1517 5 245 586 1384 245 607 455 185 60 2 1150 1599 428 611 70 569 2 287 78 531 3 239 1357 462 679 294 0 59 407 1284 174 177 5 1132 486 698 331 1843 358 736 3 1037 1516 153 661 5 8 1899 104 140 455 489 126 2735 188 1195 110 589 499 4 98 258 812 1116 
To predecode: 0
Predecoding something: 0
Predecode request dropped: 0
sizeofblock_0 0
sizeofblock_1 500434
sizeofblock_2 143849
sizeofblock_3 28557
sizeofblock_4 7137
sizeofblock_5 0
sizeofblock_6 0
sizeofblock_7 0
sizeofblock_8 0
Variant_0 Correct: 1313757 Incorrect: 0 Accuracy: 1
Variant_1 Correct: 1829402 Incorrect: 0 Accuracy: 1
Variant_2 Correct: 3357093 Incorrect: 0 Accuracy: 1
Variant_3 Correct: 0 Incorrect: 0 Accuracy: -nan
