
*** ChampSim Multicore Out-of-Order Simulator ***

Warmup Instructions: 50000000
Simulation Instructions: 50000000
Number of CPUs: 1
LLC sets: 2048
LLC ways: 16
Off-chip DRAM Size: 4096 MB Channels: 1 Width: 64-bit Data Rate: 6400 MT/s
CPU 0 runs ./micro_traces/srv660.trace.gz
.gz
ITLB has LRU replacement policy
DTLB has LRU replacement policy
STLB has LRU replacement policy
FDIP Prefetcher at L1I
L1I has LRU replacement policy
L1D has LRU replacement policy
Initialize SRRIP state for L2C
Initialize DRRIP state for LLC
Heartbeat_Variant_0 : 1325 0.323486 per_variant_size: 0 1325 0 0 0 0 0 0 0 
Heartbeat_Variant_1 : 1208 0.294922 per_variant_size: 0 580 628 0 0 0 0 0 0 
Heartbeat_Variant_2 : 1277 0.311768 per_variant_size: 0 491 370 211 205 0 0 0 0 
Heartbeat_Variant_3 : 0 0 per_variant_size: 0 0 0 0 0 0 0 0 0 
Heartbeat_Variant_0_evicts 0 : 5806 1 : 227 2 : 224 3 : 0 
Heartbeat_Variant_1_evicts 0 : 209 1 : 0 2 : 378 3 : 0 
Heartbeat_Variant_2_evicts 0 : 207 1 : 367 2 : 0 3 : 0 
Heartbeat_Variant_3_evicts 0 : 0 1 : 0 2 : 0 3 : 0 
Heartbeat CPU 0 instructions: 10000001 cycles: 2795828 heartbeat IPC: 3.57676 cumulative IPC: 3.57676 (Simulation time: 0 hr 1 min 40 sec) 
Heartbeat_Variant_0 : 1355 0.330811 per_variant_size: 0 1355 0 0 0 0 0 0 0 
Heartbeat_Variant_1 : 1237 0.302002 per_variant_size: 0 581 656 0 0 0 0 0 0 
Heartbeat_Variant_2 : 1308 0.319336 per_variant_size: 0 512 352 228 216 0 0 0 0 
Heartbeat_Variant_3 : 0 0 per_variant_size: 0 0 0 0 0 0 0 0 0 
Heartbeat_Variant_0_evicts 0 : 5661 1 : 81 2 : 93 3 : 0 
Heartbeat_Variant_1_evicts 0 : 93 1 : 0 2 : 281 3 : 0 
Heartbeat_Variant_2_evicts 0 : 80 1 : 290 2 : 0 3 : 0 
Heartbeat_Variant_3_evicts 0 : 0 1 : 0 2 : 0 3 : 0 
Heartbeat CPU 0 instructions: 20000002 cycles: 5591604 heartbeat IPC: 3.57682 cumulative IPC: 3.57679 (Simulation time: 0 hr 3 min 18 sec) 
Heartbeat_Variant_0 : 1377 0.336182 per_variant_size: 0 1377 0 0 0 0 0 0 0 
Heartbeat_Variant_1 : 1272 0.310547 per_variant_size: 0 600 672 0 0 0 0 0 0 
Heartbeat_Variant_2 : 1320 0.322266 per_variant_size: 0 517 338 227 238 0 0 0 0 
Heartbeat_Variant_3 : 0 0 per_variant_size: 0 0 0 0 0 0 0 0 0 
Heartbeat_Variant_0_evicts 0 : 5588 1 : 166 2 : 154 3 : 0 
Heartbeat_Variant_1_evicts 0 : 169 1 : 0 2 : 347 3 : 0 
Heartbeat_Variant_2_evicts 0 : 152 1 : 338 2 : 0 3 : 0 
Heartbeat_Variant_3_evicts 0 : 0 1 : 0 2 : 0 3 : 0 
Heartbeat CPU 0 instructions: 30000002 cycles: 8386509 heartbeat IPC: 3.57794 cumulative IPC: 3.57717 (Simulation time: 0 hr 4 min 58 sec) 
Heartbeat_Variant_0 : 1389 0.339111 per_variant_size: 0 1389 0 0 0 0 0 0 0 
Heartbeat_Variant_1 : 1280 0.3125 per_variant_size: 0 599 681 0 0 0 0 0 0 
Heartbeat_Variant_2 : 1325 0.323486 per_variant_size: 0 515 326 242 242 0 0 0 0 
Heartbeat_Variant_3 : 0 0 per_variant_size: 0 0 0 0 0 0 0 0 0 
Heartbeat_Variant_0_evicts 0 : 5781 1 : 105 2 : 108 3 : 0 
Heartbeat_Variant_1_evicts 0 : 104 1 : 0 2 : 304 3 : 0 
Heartbeat_Variant_2_evicts 0 : 104 1 : 306 2 : 0 3 : 0 
Heartbeat_Variant_3_evicts 0 : 0 1 : 0 2 : 0 3 : 0 
Heartbeat CPU 0 instructions: 40000002 cycles: 11182734 heartbeat IPC: 3.57625 cumulative IPC: 3.57694 (Simulation time: 0 hr 6 min 36 sec) 
Heartbeat_Variant_0 : 1389 0.339111 per_variant_size: 0 1389 0 0 0 0 0 0 0 
Heartbeat_Variant_1 : 1275 0.311279 per_variant_size: 0 582 693 0 0 0 0 0 0 
Heartbeat_Variant_2 : 1337 0.326416 per_variant_size: 0 522 344 226 245 0 0 0 0 
Heartbeat_Variant_3 : 0 0 per_variant_size: 0 0 0 0 0 0 0 0 0 
Heartbeat_Variant_0_evicts 0 : 5660 1 : 65 2 : 72 3 : 0 
Heartbeat_Variant_1_evicts 0 : 62 1 : 0 2 : 267 3 : 0 
Heartbeat_Variant_2_evicts 0 : 76 1 : 272 2 : 0 3 : 0 
Heartbeat_Variant_3_evicts 0 : 0 1 : 0 2 : 0 3 : 0 
Heartbeat CPU 0 instructions: 50000000 cycles: 13980354 heartbeat IPC: 3.57447 cumulative IPC: 3.57645 (Simulation time: 0 hr 8 min 15 sec) 

Warmup complete CPU 0 instructions: 50000004 cycles: 13980355 (Simulation time: 0 hr 8 min 15 sec) 

Cycle: 20000000 FTQ IN: 57662511 FTQ occupancy: 18.6696 DECODE IN: 57662486 DECODE occupancy: 48.035 ROB IN: 57662448 ROB occupancy: 292.964 ROB OUT: 57662333
Heartbeat_Variant_0 : 1395 0.340576 per_variant_size: 0 1395 0 0 0 0 0 0 0 
Heartbeat_Variant_1 : 1291 0.315186 per_variant_size: 0 560 731 0 0 0 0 0 0 
Heartbeat_Variant_2 : 1355 0.330811 per_variant_size: 0 506 374 237 238 0 0 0 0 
Heartbeat_Variant_3 : 0 0 per_variant_size: 0 0 0 0 0 0 0 0 0 
Heartbeat_Variant_0_evicts 0 : 5906 1 : 353 2 : 360 3 : 0 
Heartbeat_Variant_1_evicts 0 : 365 1 : 0 2 : 474 3 : 0 
Heartbeat_Variant_2_evicts 0 : 353 1 : 483 2 : 0 3 : 0 
Heartbeat_Variant_3_evicts 0 : 0 1 : 0 2 : 0 3 : 0 
Heartbeat CPU 0 instructions: 60000001 cycles: 21828592 heartbeat IPC: 1.27417 cumulative IPC: 1.27417 (Simulation time: 0 hr 9 min 43 sec) 
Heartbeat_Variant_0 : 1399 0.341553 per_variant_size: 0 1399 0 0 0 0 0 0 0 
Heartbeat_Variant_1 : 1290 0.314941 per_variant_size: 0 554 736 0 0 0 0 0 0 
Heartbeat_Variant_2 : 1352 0.330078 per_variant_size: 0 502 377 236 237 0 0 0 0 
Heartbeat_Variant_3 : 0 0 per_variant_size: 0 0 0 0 0 0 0 0 0 
Heartbeat_Variant_0_evicts 0 : 5690 1 : 36 2 : 29 3 : 0 
Heartbeat_Variant_1_evicts 0 : 31 1 : 0 2 : 240 3 : 0 
Heartbeat_Variant_2_evicts 0 : 30 1 : 236 2 : 0 3 : 0 
Heartbeat_Variant_3_evicts 0 : 0 1 : 0 2 : 0 3 : 0 
Heartbeat CPU 0 instructions: 70000001 cycles: 29397794 heartbeat IPC: 1.32114 cumulative IPC: 1.29723 (Simulation time: 0 hr 11 min 19 sec) 
Cycle: 30000000 FTQ IN: 13136234 FTQ occupancy: 8.87316 DECODE IN: 13136259 DECODE occupancy: 21.1056 ROB IN: 13136266 ROB occupancy: 170.614 ROB OUT: 13136363
Heartbeat_Variant_0 : 1392 0.339844 per_variant_size: 0 1392 0 0 0 0 0 0 0 
Heartbeat_Variant_1 : 1284 0.313477 per_variant_size: 0 556 728 0 0 0 0 0 0 
Heartbeat_Variant_2 : 1366 0.333496 per_variant_size: 0 530 370 237 229 0 0 0 0 
Heartbeat_Variant_3 : 0 0 per_variant_size: 0 0 0 0 0 0 0 0 0 
Heartbeat_Variant_0_evicts 0 : 5656 1 : 86 2 : 84 3 : 0 
Heartbeat_Variant_1_evicts 0 : 89 1 : 0 2 : 286 3 : 0 
Heartbeat_Variant_2_evicts 0 : 88 1 : 295 2 : 0 3 : 0 
Heartbeat_Variant_3_evicts 0 : 0 1 : 0 2 : 0 3 : 0 
Heartbeat CPU 0 instructions: 80000000 cycles: 37072698 heartbeat IPC: 1.30295 cumulative IPC: 1.29913 (Simulation time: 0 hr 12 min 54 sec) 
Cycle: 40000000 FTQ IN: 13021624 FTQ occupancy: 9.01119 DECODE IN: 13021541 DECODE occupancy: 21.1912 ROB IN: 13021565 ROB occupancy: 170.795 ROB OUT: 13021583
Heartbeat_Variant_0 : 1393 0.340088 per_variant_size: 0 1393 0 0 0 0 0 0 0 
Heartbeat_Variant_1 : 1277 0.311768 per_variant_size: 0 556 721 0 0 0 0 0 0 
Heartbeat_Variant_2 : 1376 0.335938 per_variant_size: 0 541 384 223 228 0 0 0 0 
Heartbeat_Variant_3 : 0 0 per_variant_size: 0 0 0 0 0 0 0 0 0 
Heartbeat_Variant_0_evicts 0 : 5706 1 : 149 2 : 156 3 : 0 
Heartbeat_Variant_1_evicts 0 : 138 1 : 0 2 : 304 3 : 0 
Heartbeat_Variant_2_evicts 0 : 167 1 : 300 2 : 0 3 : 0 
Heartbeat_Variant_3_evicts 0 : 0 1 : 0 2 : 0 3 : 0 
Heartbeat CPU 0 instructions: 90000003 cycles: 44700418 heartbeat IPC: 1.31101 cumulative IPC: 1.30208 (Simulation time: 0 hr 14 min 25 sec) 
Cycle: 50000000 FTQ IN: 13197205 FTQ occupancy: 8.8872 DECODE IN: 13197272 DECODE occupancy: 21.1325 ROB IN: 13197279 ROB occupancy: 171.416 ROB OUT: 13197072
Heartbeat_Variant_0 : 1384 0.337891 per_variant_size: 0 1384 0 0 0 0 0 0 0 
Heartbeat_Variant_1 : 1286 0.313965 per_variant_size: 0 581 705 0 0 0 0 0 0 
Heartbeat_Variant_2 : 1379 0.33667 per_variant_size: 0 548 377 228 226 0 0 0 0 
Heartbeat_Variant_3 : 0 0 per_variant_size: 0 0 0 0 0 0 0 0 0 
Heartbeat_Variant_0_evicts 0 : 5716 1 : 85 2 : 96 3 : 0 
Heartbeat_Variant_1_evicts 0 : 82 1 : 0 2 : 265 3 : 0 
Heartbeat_Variant_2_evicts 0 : 109 1 : 255 2 : 0 3 : 0 
Heartbeat_Variant_3_evicts 0 : 0 1 : 0 2 : 0 3 : 0 
Heartbeat CPU 0 instructions: 100000002 cycles: 52361239 heartbeat IPC: 1.30534 cumulative IPC: 1.30273 (Simulation time: 0 hr 15 min 50 sec) 
Finished CPU 0 instructions: 50000002 cycles: 38380885 cumulative IPC: 1.30273 (Simulation time: 0 hr 15 min 50 sec) 

ChampSim completed all CPUs

Region of Interest Statistics

CPU 0 cumulative IPC: 1.30273 instructions: 50000002 cycles: 38380885
 Fetch stage stalled: 64.4764  Sim cycles: 38380885 fetch stall cycle: 24746629
 Empty decode stage: 61.6922  Sim cycles: 38380885 fetch stall cycle: 23678016
ITLB TOTAL     ACCESS:    5880108  HIT:    5387091  MISS:     493017  HIT %:    91.6155  MISS %:    8.38449   MPKI: 9.86034
ITLB LOAD TRANSLATION INSTRUCTION	ACCESS:    5765905  HIT:    5272888  MISS:     493017  HIT %:    91.4494  MISS %:    8.55056  MPKI: 9.86034
ITLB TRANSLATION FROM L1D PREFETCHER INSTRUCTION	ACCESS:     114203  HIT:     114203  MISS:          0  HIT %:        100  MISS %:          0  MPKI: 0

ITLB AVERAGE MISS LATENCY: 9.06525 cycles
ITLB RQ	ACCESS:    7998197	FORWARD:          0	MERGED:    1710204	TO_CACHE:    6287993

DTLB TOTAL     ACCESS:    9096757  HIT:    8620138  MISS:     476619  HIT %:    94.7606  MISS %:    5.23944   MPKI: 9.53238
DTLB LOAD TRANSLATION DATA	ACCESS:    9096757  HIT:    8620138  MISS:     476619  HIT %:    94.7606  MISS %:    5.23944  MPKI: 9.53238

DTLB AVERAGE MISS LATENCY: 9.3404 cycles
DTLB RQ	ACCESS:   13426001	FORWARD:          0	MERGED:    4292358	TO_CACHE:    9133643

STLB TOTAL     ACCESS:    1220601  HIT:    1218541  MISS:       2060  HIT %:    99.8312  MISS %:   0.168769   MPKI: 0.0412
STLB LOAD TRANSLATION INSTRUCTION	ACCESS:     493017  HIT:     492741  MISS:        276  HIT %:     99.944  MISS %:  0.0559818  MPKI: 0.00552
STLB LOAD TRANSLATION DATA	ACCESS:     476585  HIT:     474817  MISS:       1768  HIT %:     99.629  MISS %:   0.370973  MPKI: 0.03536
STLB TRANSLATION FROM L1D PREFETCHER DATA	ACCESS:     250999  HIT:     250983  MISS:         16  HIT %:    99.9936  MISS %: 0.00637453  MPKI: 0.00032

STLB AVERAGE MISS LATENCY: 79.0311 cycles
STLB RQ	ACCESS:    1356300	FORWARD:          0	MERGED:     135674	TO_CACHE:    1220626

STLB Hit, L1D data hit: 0
STLB Hit, L2C data hit: 0
STLB Hit, LLC data hit: 0
STLB Hit, LLC data miss: 0
STLB STLB hints to L2: 0
L1D TOTAL     ACCESS:   13174592  HIT:   12026755  MISS:    1147837  HIT %:    91.2875  MISS %:    8.71251   MPKI: 22.9567
L1D LOAD DATA	ACCESS:    6656323  HIT:    5899117  MISS:     757206  HIT %:    88.6243  MISS %:    11.3757  MPKI: 15.1441
L1D RFO DATA	ACCESS:    6187059  HIT:    5899103  MISS:     287956  HIT %:    95.3458  MISS %:    4.65417  MPKI: 5.75912
L1D PREFETCH DATA	ACCESS:     331210  HIT:     228535  MISS:     102675  HIT %:         69  MISS %:         31  MPKI: 2.0535

L1D PREFETCH  REQUESTED:     773637  ISSUED:     773637  USEFUL:      44153  USELESS:      69837
L1D USEFUL LOAD PREFETCHES:      44153 PREFETCH ISSUED TO LOWER LEVEL:     114018  ACCURACY: 38.7246
 TIMELY PREFETCHES:      44153 LATE PREFETCHES: 11294 DROPPED PREFETCHES: 3
L1D AVERAGE MISS LATENCY: 332945 cycles
L1D RQ	ACCESS:   10751554	FORWARD:          0	MERGED:    3898880	TO_CACHE:    6691639
L1D WQ	ACCESS:    6921301	FORWARD:     161344	MERGED:     186939	TO_CACHE:    6734362
L1D PQ	ACCESS:     386973	FORWARD:          0	MERGED:          0	TO_CACHE:     386664

L1D UNIQUE REGIONS ACCESSED: 0
L1D REGIONS CONFLICTS: 0
L1D Cross Page Prefetch Requests: 5896
L1D Same Page Prefetch Requests: 785279
L1D ROI Sum of L1D PQ occupancy: 4915946
L1D PREFETCHES PUSHED FROM L2C: 0
L1I TOTAL     ACCESS:    7241097  HIT:    4486349  MISS:    2754748  HIT %:    61.9568  MISS %:    38.0432   MPKI: 55.095
L1I LOAD INSTRUCTION	ACCESS:    6601141  HIT:    3846393  MISS:    2754748  HIT %:    58.2686  MISS %:    41.7314  MPKI: 55.095
L1I PREFETCH INSTRUCTION	ACCESS:     639956  HIT:     639956  MISS:          0  HIT %:        100  MISS %:          0  MPKI: 0

L1I PREFETCH  REQUESTED:    1530828  ISSUED:    1530828  USEFUL:          0  USELESS:          0
L1I USEFUL LOAD PREFETCHES:          0 PREFETCH ISSUED TO LOWER LEVEL:          0  ACCURACY: -nan
 TIMELY PREFETCHES:          0 LATE PREFETCHES: 0 DROPPED PREFETCHES: 0
L1I AVERAGE MISS LATENCY: 17.6409 cycles
L1I RQ	ACCESS:    9457196	FORWARD:          0	MERGED:    2569273	TO_CACHE:    6887923
L1I PQ	ACCESS:    1530828	FORWARD:          0	MERGED:     420554	TO_CACHE:    1110274

L1BTB TOTAL     ACCESS:    5676396  HIT:    2059291  MISS:    3617105  HIT %:    36.2781  MISS %:    63.7219   MPKI: 72.3421
L1BTB BRANCH_DIRECT_JUMP	ACCESS:     546038  HIT:     143445  MISS:     402593	AVERAGE STALL: 37.5711
L1BTB BRANCH_INDIRECT	ACCESS:     181869  HIT:      65537  MISS:     116332	AVERAGE STALL: 77.067
L1BTB BRANCH_CONDITIONAL	ACCESS:    2723068  HIT:    1434477  MISS:    1288591	AVERAGE STALL: 44.918
L1BTB BRANCH_DIRECT_CALL	ACCESS:     941169  HIT:     105059  MISS:     836110	AVERAGE STALL: 52.8988
L1BTB BRANCH_INDIRECT_CALL	ACCESS:     171552  HIT:      21589  MISS:     149963	AVERAGE STALL: 103.414
L1BTB BRANCH_RETURN	ACCESS:    1112700  HIT:     289184  MISS:     823516	AVERAGE STALL: 39.7239
L1BTB BRANCH_OTHER ACCESS:          0  HIT:          0  MISS:          0	AVERAGE STALL: -nan
L1BTB TOTAL ROB OCCUPANCY AT BTB MISS: 1.92009

L2BTB TOTAL     ACCESS:    3591763  HIT:    3523133  MISS:      68630  HIT %:    98.0892  MISS %:    1.91076   MPKI: 1.3726
L2BTB BRANCH_DIRECT_JUMP	ACCESS:     398444  HIT:     393797  MISS:       4647	AVERAGE STALL: 37.5711
L2BTB BRANCH_INDIRECT	ACCESS:     106056  HIT:     103394  MISS:       2662	AVERAGE STALL: 77.067
L2BTB BRANCH_CONDITIONAL	ACCESS:    1288591  HIT:    1283131  MISS:       5460	AVERAGE STALL: 44.918
L2BTB BRANCH_DIRECT_CALL	ACCESS:     836110  HIT:     833083  MISS:       3027	AVERAGE STALL: 52.8988
L2BTB BRANCH_INDIRECT_CALL	ACCESS:     140451  HIT:     130084  MISS:      10367	AVERAGE STALL: 103.414
L2BTB BRANCH_RETURN	ACCESS:     822111  HIT:     779644  MISS:      42467	AVERAGE STALL: 39.7239
L2BTB BRANCH_OTHER ACCESS:          0  HIT:          0  MISS:          0	AVERAGE STALL: -nan
L2BTB TOTAL ROB OCCUPANCY AT BTB MISS: 101.197

L2C TOTAL     ACCESS:    4515675  HIT:    3986254  MISS:     529421  HIT %:    88.2759  MISS %:    11.7241   MPKI: 10.5884
L2C LOAD INSTRUCTION	ACCESS:    2754748  HIT:    2452326  MISS:     302422  HIT %:    89.0218  MISS %:    10.9782  MPKI: 6.04844
L2C LOAD TRANSLATION INSTRUCTION	ACCESS:        322  HIT:         90  MISS:        232  HIT %:    27.9503  MISS %:    72.0497  MPKI: 0.00464
L2C LOAD DATA	ACCESS:     745879  HIT:     670903  MISS:      74976  HIT %:     89.948  MISS %:     10.052  MPKI: 1.49952
L2C RFO DATA	ACCESS:     287885  HIT:     230165  MISS:      57720  HIT %:    79.9503  MISS %:    20.0497  MPKI: 1.1544
L2C PREFETCH DATA	ACCESS:     200115  HIT:     125451  MISS:      74664  HIT %:    62.6895  MISS %:    37.3105  MPKI: 1.49328
L2C WRITEBACK DATA	ACCESS:     524821  HIT:     506812  MISS:      18009  HIT %:    96.5685  MISS %:    3.43146  MPKI: 0.36018
L2C LOAD TRANSLATION DATA	ACCESS:       1882  HIT:        488  MISS:       1394  HIT %:    25.9299  MISS %:    74.0701  MPKI: 0.02788
L2C TRANSLATION FROM L1D PREFETCHER DATA	ACCESS:         23  HIT:         19  MISS:          4  HIT %:    82.6087  MISS %:    17.3913  MPKI: 8e-05

L2C PREFETCH  REQUESTED:      93231  ISSUED:      93231  USEFUL:       8070  USELESS:      66995
L2C USEFUL LOAD PREFETCHES:       8070 PREFETCH ISSUED TO LOWER LEVEL:      74920  ACCURACY: 10.7715
 TIMELY PREFETCHES:       8070 LATE PREFETCHES: 256 DROPPED PREFETCHES: 0
L2C AVERAGE MISS LATENCY: 37.7279 cycles
L2C RQ	ACCESS:    3790792	FORWARD:          0	MERGED:          0	TO_CACHE:    3790738
L2C WQ	ACCESS:     524821	FORWARD:         54	MERGED:          0	TO_CACHE:     524821
L2C PQ	ACCESS:     207249	FORWARD:          0	MERGED:       3299	TO_CACHE:     203950

L2C Dense regions hint from L2: 0
PSCL5 TOTAL     ACCESS:       4126  HIT:       2063  MISS:       2063  HIT %:         50  MISS %:         50   MPKI: 0.04126
PSCL5 LOAD TRANSLATION INSTRUCTION	ACCESS:       4080  HIT:       2040  MISS:       2040  HIT %:         50  MISS %:         50  MPKI: 0.0408
PSCL5 TRANSLATION FROM L1D PREFETCHER INSTRUCTION	ACCESS:         46  HIT:         23  MISS:         23  HIT %:         50  MISS %:         50  MPKI: 0.00046


PSCL4 TOTAL     ACCESS:       3907  HIT:       1946  MISS:       1961  HIT %:     49.808  MISS %:     50.192   MPKI: 0.03922
PSCL4 LOAD TRANSLATION INSTRUCTION	ACCESS:       2830  HIT:       1923  MISS:        907  HIT %:    67.9505  MISS %:    32.0495  MPKI: 0.01814
PSCL4 TRANSLATION FROM L1D PREFETCHER INSTRUCTION	ACCESS:         39  HIT:         23  MISS:         16  HIT %:    58.9744  MISS %:    41.0256  MPKI: 0.00032
PSCL4 LOAD TRANSLATION DATA	ACCESS:       1031  HIT:          0  MISS:       1031  HIT %:          0  MISS %:        100  MPKI: 0.02062
PSCL4 TRANSLATION FROM L1D PREFETCHER DATA	ACCESS:          7  HIT:          0  MISS:          7  HIT %:          0  MISS %:        100  MPKI: 0.00014


PSCL3 TOTAL     ACCESS:       4023  HIT:       2004  MISS:       2019  HIT %:    49.8136  MISS %:    50.1864   MPKI: 0.04038
PSCL3 LOAD TRANSLATION INSTRUCTION	ACCESS:       2888  HIT:       1981  MISS:        907  HIT %:    68.5942  MISS %:    31.4058  MPKI: 0.01814
PSCL3 TRANSLATION FROM L1D PREFETCHER INSTRUCTION	ACCESS:         39  HIT:         23  MISS:         16  HIT %:    58.9744  MISS %:    41.0256  MPKI: 0.00032
PSCL3 LOAD TRANSLATION DATA	ACCESS:       1089  HIT:          0  MISS:       1089  HIT %:          0  MISS %:        100  MPKI: 0.02178
PSCL3 TRANSLATION FROM L1D PREFETCHER DATA	ACCESS:          7  HIT:          0  MISS:          7  HIT %:          0  MISS %:        100  MPKI: 0.00014


PSCL2 TOTAL     ACCESS:       3991  HIT:       1928  MISS:       2063  HIT %:    48.3087  MISS %:    51.6913   MPKI: 0.04126
PSCL2 LOAD TRANSLATION INSTRUCTION	ACCESS:       2198  HIT:       1905  MISS:        293  HIT %:    86.6697  MISS %:    13.3303  MPKI: 0.00586
PSCL2 TRANSLATION FROM L1D PREFETCHER INSTRUCTION	ACCESS:         23  HIT:         23  MISS:          0  HIT %:        100  MISS %:          0  MPKI: 0
PSCL2 LOAD TRANSLATION DATA	ACCESS:       1747  HIT:          0  MISS:       1747  HIT %:          0  MISS %:        100  MPKI: 0.03494
PSCL2 TRANSLATION FROM L1D PREFETCHER DATA	ACCESS:         23  HIT:          0  MISS:         23  HIT %:          0  MISS %:        100  MPKI: 0.00046


LLC TOTAL     ACCESS:     593450  HIT:     564178  MISS:      29272  HIT %:    95.0675  MISS %:    4.93251   MPKI: 0.58544
LLC LOAD INSTRUCTION	ACCESS:     302422  HIT:     301301  MISS:       1121  HIT %:    99.6293  MISS %:   0.370674  MPKI: 0.02242
LLC LOAD TRANSLATION INSTRUCTION	ACCESS:        232  HIT:        197  MISS:         35  HIT %:    84.9138  MISS %:    15.0862  MPKI: 0.0007
LLC LOAD DATA	ACCESS:      74727  HIT:      71190  MISS:       3537  HIT %:    95.2668  MISS %:    4.73323  MPKI: 0.07074
LLC RFO DATA	ACCESS:      57711  HIT:      43577  MISS:      14134  HIT %:     75.509  MISS %:     24.491  MPKI: 0.28268
LLC PREFETCH DATA	ACCESS:      74919  HIT:      64921  MISS:       9998  HIT %:    86.6549  MISS %:    13.3451  MPKI: 0.19996
LLC WRITEBACK DATA	ACCESS:      82041  HIT:      81691  MISS:        350  HIT %:    99.5734  MISS %:   0.426616  MPKI: 0.007
LLC LOAD TRANSLATION DATA	ACCESS:       1394  HIT:       1297  MISS:         97  HIT %:    93.0416  MISS %:    6.95839  MPKI: 0.00194
LLC TRANSLATION FROM L1D PREFETCHER DATA	ACCESS:          4  HIT:          4  MISS:          0  HIT %:        100  MISS %:          0  MPKI: 0

LLC AVERAGE MISS LATENCY: 156.696 cycles
LLC RQ	ACCESS:     436492	FORWARD:          0	MERGED:          0	TO_CACHE:     436490
LLC WQ	ACCESS:      82041	FORWARD:          3	MERGED:          0	TO_CACHE:      82041
LLC PQ	ACCESS:      74920	FORWARD:          0	MERGED:          0	TO_CACHE:      74919

LLC Dense regions hint to LLC: 0

RAW hits: 1863089
Loads Generated: 12614643
Loads sent to L1D: 10751554
Stores Generated: 6921287
Stores sent to L1D: 6921301
Major fault: 0 Minor fault: 2641
Allocated PAGES: 2641

stream: 
stream:times selected: 1230184
stream:pref_filled: 126759
stream:pref_useful: 28275
stream:pref_late: 8247
stream:misses: 8623
stream:misses_by_poll: 0

CS: 
CS:times selected: 193390
CS:pref_filled: 71211
CS:pref_useful: 47168
CS:pref_late: 8617
CS:misses: 21520
CS:misses_by_poll: 19

CPLX: 
CPLX:times selected: 1035742
CPLX:pref_filled: 23784
CPLX:pref_useful: 6960
CPLX:pref_late: 3715
CPLX:misses: 118386
CPLX:misses_by_poll: 2

NL_L1: 
NL:times selected: 12554
NL:pref_filled: 1466
NL:pref_useful: 248
NL:pref_late: 180
NL:misses: 1547
NL:misses_by_poll: 0

total selections: 2471870
total_filled: 102675
total_useful: 44153
total_late: 22815
total_polluted: 21
total_misses_after_warmup: 792523
conflicts: 5550770

test: 116623

DRAM Statistics
 CHANNEL 0
 RQ ROW_BUFFER_HIT:      10791  ROW_BUFFER_MISS:      18109
 DBUS_CONGESTED:         14
 WQ ROW_BUFFER_HIT:       1484  ROW_BUFFER_MISS:      12618  FULL:          0

 AVG_CONGESTED_CYCLE: 6

CPU 0 Branch Prediction Accuracy: 99.8213% MPKI: 0.32708 Average ROB Occupancy at Mispredict: 144.414
Branch types
NOT_BRANCH: 40846374 81.6927%
BRANCH_DIRECT_JUMP: 546038 1.09208%
BRANCH_INDIRECT: 181869 0.363738%
BRANCH_CONDITIONAL: 6199834 12.3997%
BRANCH_DIRECT_CALL: 941169 1.88234%
BRANCH_INDIRECT_CALL: 171552 0.343104%
BRANCH_RETURN: 1112700 2.2254%
BRANCH_OTHER: 0 0%

DRAM PAGES: 1048576
Allocated PAGES: 2641
Average_ROB_Occupancy: 171.16
Average_Decode_Occupancy: 21.0268
Average_FTQ_Occupancy: 8.90742
Indirect max targets: 14 Average targets: 1.17445
Branch_type:  BRANCH_DIRECT_JUMP:  Count Percentage: 3.30547 6.32295 3.66619 7.38011 3.46412 6.02122 1.59466 68.2453 
Branch_type:  BRANCH_INDIRECT:  Count Percentage: 6.14916 3.48055 8.1631 9.6621 3.34687 2.81024 3.88213 62.5058 
Branch_type:  BRANCH_CONDITIONAL:  Count Percentage: 25.4888 3.08377 1.42264 4.45946 2.484 3.94463 2.27458 56.8421 
Branch_type:  BRANCH_DIRECT_CALL:  Count Percentage: 0.388825 1.27653 0.72773 3.53498 3.54818 2.62092 3.16808 84.7348 
Branch_type:  BRANCH_INDIRECT_CALL:  Count Percentage: 9.5639 0 2.99891 0.00263396 0.901107 1.71646 4.99516 79.8218 
Branch_type:  BRANCH_RETURN:  Count Percentage: 8.27086 1.10028 1.0315 3.52479 4.50714 4.19307 2.7826 74.5898 
Branch_type:  BRANCH_DIRECT_JUMP:  Total Count: 36086 69028 40024 80569 37818 65734 17409 745037 
Branch_type:  BRANCH_INDIRECT:  Total Count: 22402 12680 29739 35200 12193 10238 14143 227715 
Branch_type:  BRANCH_CONDITIONAL:  Total Count: 3159611 382266 176351 552797 307918 488979 281958 7046184 
Branch_type:  BRANCH_DIRECT_CALL:  Total Count: 7306 23986 13674 66422 66670 49247 59528 1592161 
Branch_type:  BRANCH_INDIRECT_CALL:  Total Count: 32679 0 10247 9 3079 5865 17068 272744 
Branch_type:  BRANCH_RETURN:  Total Count: 183739 24443 22915 78304 100127 93150 61816 1657027 
Number of unique branch instructions: 10640
Upper 32 bits: 
aaaa
ffff
ffff0000
Unique upper 32 bits: 3
Unique upper 36 bits: 3
Unique upper 40 bits: 5
Unique upper 44 bits: 32
Unique upper 48 bits: 160
Variant_0 : 1384 0.337891
Variant_1 : 1286 0.313965
Variant_2 : 1379 0.33667
Variant_3 : 0 0
Offset_3 4390
Offset_4 270
Offset_5 480
Offset_6 533
Offset_7 625
Offset_8 567
Offset_9 515
Offset_10 419
Offset_11 332
Offset_12 303
Offset_13 227
Offset_14 234
Offset_15 194
Offset_16 226
Offset_17 163
Offset_18 144
Offset_19 256
Offset_20 143
Offset_21 261
Offset_22 400
Offset_23 241
Offset_24 362
Offset_25 114
Offset_47 96
Offset_64 1
decode_dispatch_called: 21759569 56.6938
Dispatch_width: 0 11313351 51.9925 29.4765
Dispatch_width: 1 652843 3.00026 1.70096
Dispatch_width: 2 659995 3.03313 1.71959
Dispatch_width: 3 434050 1.99475 1.1309
Dispatch_width: 4 2601042 11.9536 6.77692
Dispatch_width: 5 269173 1.23703 0.70132
Dispatch_width: 6 5829115 26.7887 15.1875
Empty_decode_cycles: 16621316 43.3062
ROB_full_cycles: 3960141 10.318
Starvation_cycles_per_kilo_instr: 285.916
Starvation_cycles_per_kilo_instr_3: 257.214
Starvation_cycles_per_kilo_instr_0: 239.745
Branch_type_1  (3,1)  (4,10)  (5,41)  (6,73)  (7,124)  (8,146)  (9,138)  (10,109)  (11,74)  (12,47)  (13,11)  (14,2)  (15,3)  (16,4)  (18,1)  (19,5)  (20,2)  (21,1)  (22,3)  (23,2)  (24,11)  (25,12) 
Branch_type_2  (3,1)  (4,1)  (5,1)  (8,4)  (9,4)  (10,1)  (12,1)  (13,1)  (14,1)  (16,3)  (17,2)  (20,2)  (21,2)  (23,5)  (24,1)  (47,44) 
Branch_type_3  (3,4388)  (4,259)  (5,434)  (6,444)  (7,470)  (8,351)  (9,282)  (10,169)  (11,128)  (12,54)  (13,10)  (64,1) 
Branch_type_4  (6,3)  (7,8)  (8,25)  (9,57)  (10,66)  (11,68)  (12,110)  (13,96)  (14,105)  (15,92)  (16,99)  (17,76)  (18,61)  (19,123)  (20,73)  (21,141)  (22,209)  (23,136)  (24,208)  (25,98) 
Branch_type_5  (8,3)  (9,1)  (10,4)  (11,5)  (12,3)  (13,14)  (14,16)  (15,11)  (16,22)  (17,11)  (18,23)  (19,15)  (20,12)  (21,13)  (22,43)  (23,26)  (24,42) 
Branch_type_6  (5,4)  (6,13)  (7,23)  (8,38)  (9,33)  (10,70)  (11,57)  (12,88)  (13,95)  (14,110)  (15,88)  (16,98)  (17,74)  (18,59)  (19,113)  (20,54)  (21,104)  (22,145)  (23,72)  (24,100)  (25,4)  (47,52) 
Unique trigger count: 
Variant_0_evicts_0 : 0
Variant_0_evicts_1 : 0
Variant_0_evicts_2 : 0
Variant_0_evicts_3 : 0
Variant_1_evicts_0 : 0
Variant_1_evicts_1 : 0
Variant_1_evicts_2 : 0
Variant_1_evicts_3 : 0
Variant_2_evicts_0 : 0
Variant_2_evicts_1 : 0
Variant_2_evicts_2 : 0
Variant_2_evicts_3 : 0
Variant_3_evicts_0 : 0
Variant_3_evicts_1 : 0
Variant_3_evicts_2 : 0
Variant_3_evicts_3 : 0
BTB PER SET UNIQUE ADDR: 14 16 10 15 14 12 9 15 13 16 11 16 16 11 14 12 13 14 11 14 12 14 12 12 15 12 13 11 15 12 17 13 14 8 10 13 14 16 7 15 12 12 10 11 11 12 16 8 14 9 13 15 8 14 13 4 11 14 12 10 8 14 12 17 9 19 10 10 16 12 12 16 19 12 9 12 8 14 13 17 15 7 11 17 15 18 14 14 10 19 9 9 16 9 7 10 13 9 16 16 18 18 13 14 16 9 13 12 7 13 12 21 17 13 12 7 11 10 14 9 15 11 9 10 15 17 5 13 17 13 14 16 11 14 9 16 9 12 13 18 13 15 15 12 15 9 17 10 7 11 18 14 13 12 10 17 17 14 11 10 14 11 12 13 9 16 14 7 19 11 13 14 12 14 9 14 16 12 12 14 10 15 12 14 21 10 8 10 10 12 15 12 12 16 20 13 5 12 12 15 15 10 13 12 9 11 11 16 8 14 9 14 11 12 9 11 15 9 13 19 10 18 8 14 7 11 16 13 7 16 8 9 9 14 11 15 11 15 16 8 17 10 23 17 10 13 15 5 11 14 21 14 13 15 19 14 14 10 7 15 13 10 7 14 12 9 8 12 6 12 11 15 12 8 12 9 13 16 15 12 12 12 8 10 14 10 11 20 23 15 11 11 11 14 5 18 13 12 15 14 13 11 10 21 16 14 12 14 17 8 14 20 8 19 15 10 23 16 17 17 7 15 9 15 19 18 15 11 8 11 13 12 9 14 10 12 9 10 11 15 12 14 10 13 12 14 9 12 11 14 13 13 16 15 17 12 11 12 11 11 13 15 9 17 12 11 10 15 17 14 10 12 10 14 10 10 14 16 12 13 14 9 11 9 15 16 14 15 12 18 14 9 14 20 10 12 10 7 15 12 11 13 13 15 19 16 13 13 16 14 15 11 7 14 14 11 13 20 17 20 7 14 11 10 18 9 17 12 13 12 18 12 6 17 15 16 13 11 12 15 13 14 11 15 19 10 9 16 17 12 17 20 16 6 14 14 19 12 9 16 9 12 14 17 18 14 11 12 14 15 11 15 17 10 16 19 15 17 7 15 24 11 14 18 10 17 12 15 18 13 11 16 14 12 9 12 17 17 8 12 13 19 15 18 13 9 8 17 16 15 14 24 12 10 15 13 14 16 9 12 12 13 14 9 10 20 18 11 12 19 14 16 12 9 14 12 7 11 18 14 17 14 11 12 17 15 12 12 11 17 17 16 15 15 14 11 15 14 16 16 13 15 15 10 13 18 11 17 16 13 19 14 14 12 12 15 15 16 11 14 11 17 9 12 18 12 16 12 18 18 6 13 11 9 19 9 7 10 12 14 12 12 13 11 10 16 21 11 10 11 15 20 10 14 6 18 14 15 15 17 22 11 8 13 10 15 8 12 12 12 11 14 16 13 13 12 12 14 9 17 12 13 12 15 12 10 13 15 17 10 9 14 13 14 16 11 15 11 14 15 11 7 14 14 15 12 9 13 10 13 12 10 10 20 24 11 15 17 13 15 11 20 14 15 16 16 12 16 19 18 13 17 14 9 9 12 13 13 11 10 8 14 20 19 7 13 10 7 12 9 10 15 9 10 13 13 17 15 9 12 13 12 15 14 15 12 13 11 10 14 16 9 14 5 11 13 16 18 17 11 10 11 15 11 15 15 14 11 15 10 15 15 15 15 13 14 17 9 9 8 11 8 10 13 12 14 12 13 9 14 13 20 10 7 13 13 14 10 17 15 7 13 14 11 13 14 11 11 10 7 7 8 15 14 16 14 12 12 20 11 24 16 20 11 17 15 10 14 11 13 17 17 14 13 10 15 14 9 8 17 15 20 11 13 17 12 13 12 19 12 9 21 16 12 13 15 17 13 11 13 14 15 11 12 11 21 12 14 10 10 14 10 14 12 10 18 22 10 19 17 12 13 12 16 21 10 11 11 19 9 11 16 11 14 14 8 16 11 11 14 10 10 12 13 15 14 18 12 15 14 13 12 13 11 11 18 16 12 12 11 18 10 15 15 10 12 11 13 12 18 15 18 14 18 12 10 18 15 14 10 10 18 8 6 8 13 8 12 12 13 16 19 19 19 12 14 12 12 16 10 10 19 11 14 10 14 16 13 14 11 12 14 11 19 13 13 13 12 12 9 14 16 13 15 16 13 20 15 12 16 14 15 14 10 19 14 17 15 15 17 11 13 16 13 14 14 16 14 14 9 10 16 17 18 13 12 11 12 15 14 16 11 10 12 17 17 8 16 8 13 12 16 13 9 9 17 6 10 9 8 11 13 14 9 
BTB PER SET COUNT: 23 19 1964 19 16 22 9 307 837 26 13 452 20493 24 18 15 326 18 13 19 16 75 768 19 26 17 17 15 180 595 28 13 21 17 17 543 25 46 10 1081 15 17 16 18 15 15 28 8 163 210 18 89 9 14 15 4 14 20 16 12 9 18 16 23 13 30 10 1252 23 21 15 597 34 22 9 18 10 29 18 22 25 7 16 44 22 33 24 22 12 34 10 734 510 13 8 14 481 10 25 23 25 1046 13 18 1120 16 20 13 10 20 21 47 214 22 17 7 13 11 1918 999 29 15 12 15 16 26 7 18 28 938 21 20 17 17 12 29 20 21 14 38 14 28 29 28 22 208 28 11 8 201 36 174 1340 22 11 21 1251 21 24 12 19 178 19 20 12 186 21 7 31 26 15 23 18 19 15 20 32 15 15 755 71 141 23 25 116 13 13 16 14 1074 19 15 15 19 27 21 6 133 14 89 17 20 443 12 12 16 11 29 8 22 14 24 16 537 10 3394 20 9 2897 38 14 24 11 19 8 28 20 267 9 43 13 12 12 28 1028 24 18 224 1172 13 421 13 108 33 13 25 21 5 13 19 38 19 25 19 25 21 47 26 7 18 52 19 7 31 16 11 11 17 8 17 17 20 16 11 511 10 18 30 17 14 14 16 8 12 17 11 12 30 45 27 15 15 14 875 6 21 13 16 26 23 25 14 10 31 22 19 36 29 139 18 871 39 10 38 1574 79 40 25 21 33 12 1876 14 28 445 66 284 19 19 18 17 15 14 23 12 19 13 147 11 20 18 19 10 16 17 23 10 18 13 141 21 19 39 25 22 18 13 18 505 14 30 20 11 23 16 16 12 21 22 14 12 637 17 240 727 13 23 23 17 1484 546 10 986 16 19 23 310 18 20 618 498 11 19 415 15 306 13 7 22 19 16 20 19 20 27 22 19 506 29 18 1124 11 7 830 22 13 15 30 24 33 12 20 14 16 31 15 521 19 31 15 31 14 7 21 22 26 21 34 14 17 1362 18 12 18 2450 17 10 27 20 13 1004 679 25 6 254 21 33 14 11 35 26 15 20 18 32 21 17 17 17 27 18 29 27 20 28 32 27 27 7 17 40 13 18 30 16 873 18 19 38 21 56 21 1212 16 11 16 1173 28 15 13 27 31 21 51 21 12 10 23 19 21 18 636 24 953 23 21 19 24 15 21 21 19 19 371 10 37 370 263 19 269 21 44 14 9 19 260 333 592 25 426 24 21 18 14 29 22 15 19 24 740 20 31 754 980 25 15 31 18 31 19 17 99 19 15 269 29 133 25 28 18 45 18 18 22 2089 21 30 23 15 27 15 24 12 1500 22 15 387 14 29 29 9 18 15 15 33 12 7 381 14 20 15 26 17 16 13 22 39 384 14 19 15 378 19 22 8 27 35 25 27 75 30 17 14 991 14 19 15 708 16 18 16 19 35 18 21 18 18 985 17 30 19 18 17 17 19 133 997 24 145 14 13 28 21 20 1612 502 23 13 86 749 15 7 20 21 47 13 22 993 1478 27 17 18 464 25 420 171 30 36 16 24 14 35 676 26 25 25 20 22 101 20 19 25 18 16 2022 22 24 95 16 15 10 27 512 35 9 19 12 11 17 11 16 223 596 12 25 102 115 17 14 17 17 80 21 266 2580 16 18 15 745 34 18 13 18 111 18 997 997 27 24 11 1354 18 998 14 161 18 986 16 20 15 839 16 1129 848 1776 24 30 1096 9 13 23 9 13 20 679 24 16 863 10 263 82 38 10 12 25 13 29 537 22 19 947 18 610 15 19 61 15 17 11 7 7 953 18 18 36 19 21 24 41 13 160 25 23 16 27 20 16 19 13 62 23 6627 21 16 20 629 22 1923 8 1374 28 124 16 16 29 14 20 20 27 15 14 34 25 20 26 200 23 698 262 210 14 34 17 20 55 28 20 22 12 14135 20 302 29 17 1473 32 255 10 44 21 456 15 13 29 99 17 14 14 28 39 14 39 13 17 15 9 23 11 12 26 10 15 15 24 447 482 25 15 26 378 17 26 663 19 12 33 22 21 1002 18 23 17 19 35 15 22 11 16 18 395 17 513 26 32 16 12 1984 39 22 13 23 31 10 6 10 18 11 17 13 21 26 31 770 36 43 1636 16 19 55 19 13 1296 14 23 16 18 26 19 19 15 12 42 1780 4932 18 23 21 18 17 11 21 28 579 27 22 20 876 22 45 35 46 2021 16 13 167 28 20 19 23 329 158 24 21 472 23 17 894 512 14 11 15 22 220 29 16 15 13 1484 17 1234 191 1474 15 28 33 28 17 26 8 995 500 475 22 12 10 25 6 39 12 8 694 20 23 10 
To predecode: 0
Predecoding something: 0
Predecode request dropped: 0
sizeofblock_0 0
sizeofblock_1 35859
sizeofblock_2 40760
sizeofblock_3 41957
sizeofblock_4 23022
sizeofblock_5 0
sizeofblock_6 0
sizeofblock_7 0
sizeofblock_8 0
Variant_0 Correct: 1605442 Incorrect: 0 Accuracy: 1
Variant_1 Correct: 2082117 Incorrect: 0 Accuracy: 1
Variant_2 Correct: 3626870 Incorrect: 0 Accuracy: 1
Variant_3 Correct: 0 Incorrect: 0 Accuracy: -nan
