
*** ChampSim Multicore Out-of-Order Simulator ***

Warmup Instructions: 50000000
Simulation Instructions: 50000000
Number of CPUs: 1
LLC sets: 2048
LLC ways: 16
Off-chip DRAM Size: 4096 MB Channels: 1 Width: 64-bit Data Rate: 6400 MT/s
CPU 0 runs ./micro_traces/srv640.trace.gz
.gz
ITLB has LRU replacement policy
DTLB has LRU replacement policy
STLB has LRU replacement policy
FDIP Prefetcher at L1I
L1I has LRU replacement policy
L1D has LRU replacement policy
Initialize SRRIP state for L2C
Initialize DRRIP state for LLC
Heartbeat_Variant_0 : 1318 0.321777 per_variant_size: 0 1318 0 0 0 0 0 0 0 
Heartbeat_Variant_1 : 2545 0.621338 per_variant_size: 0 582 1963 0 0 0 0 0 0 
Heartbeat_Variant_2 : 0 0 per_variant_size: 0 0 0 0 0 0 0 0 0 
Heartbeat_Variant_3 : 0 0 per_variant_size: 0 0 0 0 0 0 0 0 0 
Heartbeat_Variant_0_evicts 0 : 5757 1 : 462 2 : 0 3 : 0 
Heartbeat_Variant_1_evicts 0 : 421 1 : 0 2 : 0 3 : 0 
Heartbeat_Variant_2_evicts 0 : 0 1 : 0 2 : 0 3 : 0 
Heartbeat_Variant_3_evicts 0 : 0 1 : 0 2 : 0 3 : 0 
Heartbeat CPU 0 instructions: 10000000 cycles: 2797825 heartbeat IPC: 3.5742 cumulative IPC: 3.5742 (Simulation time: 0 hr 1 min 51 sec) 
Heartbeat_Variant_0 : 1319 0.322021 per_variant_size: 0 1319 0 0 0 0 0 0 0 
Heartbeat_Variant_1 : 2558 0.624512 per_variant_size: 0 574 1984 0 0 0 0 0 0 
Heartbeat_Variant_2 : 0 0 per_variant_size: 0 0 0 0 0 0 0 0 0 
Heartbeat_Variant_3 : 0 0 per_variant_size: 0 0 0 0 0 0 0 0 0 
Heartbeat_Variant_0_evicts 0 : 5714 1 : 27 2 : 0 3 : 0 
Heartbeat_Variant_1_evicts 0 : 29 1 : 0 2 : 0 3 : 0 
Heartbeat_Variant_2_evicts 0 : 0 1 : 0 2 : 0 3 : 0 
Heartbeat_Variant_3_evicts 0 : 0 1 : 0 2 : 0 3 : 0 
Heartbeat CPU 0 instructions: 20000001 cycles: 5594861 heartbeat IPC: 3.57521 cumulative IPC: 3.57471 (Simulation time: 0 hr 3 min 28 sec) 
Heartbeat_Variant_0 : 1350 0.32959 per_variant_size: 0 1350 0 0 0 0 0 0 0 
Heartbeat_Variant_1 : 2625 0.640869 per_variant_size: 0 514 2111 0 0 0 0 0 0 
Heartbeat_Variant_2 : 0 0 per_variant_size: 0 0 0 0 0 0 0 0 0 
Heartbeat_Variant_3 : 0 0 per_variant_size: 0 0 0 0 0 0 0 0 0 
Heartbeat_Variant_0_evicts 0 : 5916 1 : 411 2 : 0 3 : 0 
Heartbeat_Variant_1_evicts 0 : 408 1 : 0 2 : 0 3 : 0 
Heartbeat_Variant_2_evicts 0 : 0 1 : 0 2 : 0 3 : 0 
Heartbeat_Variant_3_evicts 0 : 0 1 : 0 2 : 0 3 : 0 
Heartbeat CPU 0 instructions: 30000003 cycles: 8391972 heartbeat IPC: 3.57512 cumulative IPC: 3.57485 (Simulation time: 0 hr 5 min 6 sec) 
Heartbeat_Variant_0 : 1350 0.32959 per_variant_size: 0 1350 0 0 0 0 0 0 0 
Heartbeat_Variant_1 : 2627 0.641357 per_variant_size: 0 509 2118 0 0 0 0 0 0 
Heartbeat_Variant_2 : 0 0 per_variant_size: 0 0 0 0 0 0 0 0 0 
Heartbeat_Variant_3 : 0 0 per_variant_size: 0 0 0 0 0 0 0 0 0 
Heartbeat_Variant_0_evicts 0 : 5625 1 : 8 2 : 0 3 : 0 
Heartbeat_Variant_1_evicts 0 : 8 1 : 0 2 : 0 3 : 0 
Heartbeat_Variant_2_evicts 0 : 0 1 : 0 2 : 0 3 : 0 
Heartbeat_Variant_3_evicts 0 : 0 1 : 0 2 : 0 3 : 0 
Heartbeat CPU 0 instructions: 40000001 cycles: 11186362 heartbeat IPC: 3.5786 cumulative IPC: 3.57578 (Simulation time: 0 hr 6 min 47 sec) 
Heartbeat_Variant_0 : 1358 0.331543 per_variant_size: 0 1358 0 0 0 0 0 0 0 
Heartbeat_Variant_1 : 2642 0.64502 per_variant_size: 0 502 2140 0 0 0 0 0 0 
Heartbeat_Variant_2 : 0 0 per_variant_size: 0 0 0 0 0 0 0 0 0 
Heartbeat_Variant_3 : 0 0 per_variant_size: 0 0 0 0 0 0 0 0 0 
Heartbeat_Variant_0_evicts 0 : 5807 1 : 202 2 : 0 3 : 0 
Heartbeat_Variant_1_evicts 0 : 201 1 : 0 2 : 0 3 : 0 
Heartbeat_Variant_2_evicts 0 : 0 1 : 0 2 : 0 3 : 0 
Heartbeat_Variant_3_evicts 0 : 0 1 : 0 2 : 0 3 : 0 
Heartbeat CPU 0 instructions: 50000003 cycles: 13981542 heartbeat IPC: 3.57759 cumulative IPC: 3.57614 (Simulation time: 0 hr 8 min 26 sec) 

Warmup complete CPU 0 instructions: 50000003 cycles: 13981542 (Simulation time: 0 hr 8 min 26 sec) 

Cycle: 20000000 FTQ IN: 58193974 FTQ occupancy: 20.2328 DECODE IN: 58193974 DECODE occupancy: 52.4142 ROB IN: 58193974 ROB occupancy: 313.321 ROB OUT: 58193846
Heartbeat_Variant_0 : 1376 0.335938 per_variant_size: 0 1376 0 0 0 0 0 0 0 
Heartbeat_Variant_1 : 2687 0.656006 per_variant_size: 0 468 2219 0 0 0 0 0 0 
Heartbeat_Variant_2 : 0 0 per_variant_size: 0 0 0 0 0 0 0 0 0 
Heartbeat_Variant_3 : 0 0 per_variant_size: 0 0 0 0 0 0 0 0 0 
Heartbeat_Variant_0_evicts 0 : 6046 1 : 871 2 : 0 3 : 0 
Heartbeat_Variant_1_evicts 0 : 870 1 : 0 2 : 0 3 : 0 
Heartbeat_Variant_2_evicts 0 : 0 1 : 0 2 : 0 3 : 0 
Heartbeat_Variant_3_evicts 0 : 0 1 : 0 2 : 0 3 : 0 
Heartbeat CPU 0 instructions: 60000002 cycles: 21281632 heartbeat IPC: 1.36985 cumulative IPC: 1.36985 (Simulation time: 0 hr 10 min 19 sec) 
Heartbeat_Variant_0 : 1378 0.336426 per_variant_size: 0 1378 0 0 0 0 0 0 0 
Heartbeat_Variant_1 : 2686 0.655762 per_variant_size: 0 460 2226 0 0 0 0 0 0 
Heartbeat_Variant_2 : 0 0 per_variant_size: 0 0 0 0 0 0 0 0 0 
Heartbeat_Variant_3 : 0 0 per_variant_size: 0 0 0 0 0 0 0 0 0 
Heartbeat_Variant_0_evicts 0 : 5665 1 : 227 2 : 0 3 : 0 
Heartbeat_Variant_1_evicts 0 : 225 1 : 0 2 : 0 3 : 0 
Heartbeat_Variant_2_evicts 0 : 0 1 : 0 2 : 0 3 : 0 
Heartbeat_Variant_3_evicts 0 : 0 1 : 0 2 : 0 3 : 0 
Heartbeat CPU 0 instructions: 70000000 cycles: 28406855 heartbeat IPC: 1.40346 cumulative IPC: 1.38645 (Simulation time: 0 hr 12 min 13 sec) 
Cycle: 30000000 FTQ IN: 14025356 FTQ occupancy: 14.469 DECODE IN: 14025226 DECODE occupancy: 36.8108 ROB IN: 14025166 ROB occupancy: 243.023 ROB OUT: 14024946
Heartbeat_Variant_0 : 1380 0.336914 per_variant_size: 0 1380 0 0 0 0 0 0 0 
Heartbeat_Variant_1 : 2690 0.656738 per_variant_size: 0 455 2235 0 0 0 0 0 0 
Heartbeat_Variant_2 : 0 0 per_variant_size: 0 0 0 0 0 0 0 0 0 
Heartbeat_Variant_3 : 0 0 per_variant_size: 0 0 0 0 0 0 0 0 0 
Heartbeat_Variant_0_evicts 0 : 5921 1 : 516 2 : 0 3 : 0 
Heartbeat_Variant_1_evicts 0 : 515 1 : 0 2 : 0 3 : 0 
Heartbeat_Variant_2_evicts 0 : 0 1 : 0 2 : 0 3 : 0 
Heartbeat_Variant_3_evicts 0 : 0 1 : 0 2 : 0 3 : 0 
Heartbeat CPU 0 instructions: 80000000 cycles: 35617540 heartbeat IPC: 1.38683 cumulative IPC: 1.38658 (Simulation time: 0 hr 14 min 6 sec) 
Cycle: 40000000 FTQ IN: 13980416 FTQ occupancy: 14.7028 DECODE IN: 13980444 DECODE occupancy: 37.2769 ROB IN: 13980444 ROB occupancy: 246.334 ROB OUT: 13980444
Heartbeat_Variant_0 : 1379 0.33667 per_variant_size: 0 1379 0 0 0 0 0 0 0 
Heartbeat_Variant_1 : 2691 0.656982 per_variant_size: 0 458 2233 0 0 0 0 0 0 
Heartbeat_Variant_2 : 0 0 per_variant_size: 0 0 0 0 0 0 0 0 0 
Heartbeat_Variant_3 : 0 0 per_variant_size: 0 0 0 0 0 0 0 0 0 
Heartbeat_Variant_0_evicts 0 : 5612 1 : 18 2 : 0 3 : 0 
Heartbeat_Variant_1_evicts 0 : 19 1 : 0 2 : 0 3 : 0 
Heartbeat_Variant_2_evicts 0 : 0 1 : 0 2 : 0 3 : 0 
Heartbeat_Variant_3_evicts 0 : 0 1 : 0 2 : 0 3 : 0 
Heartbeat CPU 0 instructions: 90000003 cycles: 42665025 heartbeat IPC: 1.41895 cumulative IPC: 1.39453 (Simulation time: 0 hr 16 min 1 sec) 
Heartbeat_Variant_0 : 1368 0.333984 per_variant_size: 0 1368 0 0 0 0 0 0 0 
Heartbeat_Variant_1 : 2709 0.661377 per_variant_size: 0 468 2241 0 0 0 0 0 0 
Heartbeat_Variant_2 : 0 0 per_variant_size: 0 0 0 0 0 0 0 0 0 
Heartbeat_Variant_3 : 0 0 per_variant_size: 0 0 0 0 0 0 0 0 0 
Heartbeat_Variant_0_evicts 0 : 5806 1 : 367 2 : 0 3 : 0 
Heartbeat_Variant_1_evicts 0 : 379 1 : 0 2 : 0 3 : 0 
Heartbeat_Variant_2_evicts 0 : 0 1 : 0 2 : 0 3 : 0 
Heartbeat_Variant_3_evicts 0 : 0 1 : 0 2 : 0 3 : 0 
Heartbeat CPU 0 instructions: 100000002 cycles: 49870953 heartbeat IPC: 1.38775 cumulative IPC: 1.39317 (Simulation time: 0 hr 18 min 10 sec) 
Finished CPU 0 instructions: 50000003 cycles: 35889412 cumulative IPC: 1.39317 (Simulation time: 0 hr 18 min 10 sec) 

ChampSim completed all CPUs

Region of Interest Statistics

CPU 0 cumulative IPC: 1.39317 instructions: 50000003 cycles: 35889412
 Fetch stage stalled: 47.3003  Sim cycles: 35889412 fetch stall cycle: 16975790
 Empty decode stage: 27.5184  Sim cycles: 35889412 fetch stall cycle: 9876206
ITLB TOTAL     ACCESS:    5829586  HIT:    5335612  MISS:     493974  HIT %:    91.5264  MISS %:    8.47357   MPKI: 9.87948
ITLB LOAD TRANSLATION INSTRUCTION	ACCESS:    5689629  HIT:    5195655  MISS:     493974  HIT %:     91.318  MISS %:    8.68201  MPKI: 9.87948
ITLB TRANSLATION FROM L1D PREFETCHER INSTRUCTION	ACCESS:     139957  HIT:     139957  MISS:          0  HIT %:        100  MISS %:          0  MPKI: 0

ITLB AVERAGE MISS LATENCY: 9.07272 cycles
ITLB RQ	ACCESS:    7923900	FORWARD:          0	MERGED:    1611143	TO_CACHE:    6312757

DTLB TOTAL     ACCESS:    8962805  HIT:    8490920  MISS:     471885  HIT %:    94.7351  MISS %:    5.26493   MPKI: 9.4377
DTLB LOAD TRANSLATION DATA	ACCESS:    8962805  HIT:    8490920  MISS:     471885  HIT %:    94.7351  MISS %:    5.26493  MPKI: 9.4377

DTLB AVERAGE MISS LATENCY: 9.34967 cycles
DTLB RQ	ACCESS:   13333934	FORWARD:          0	MERGED:    4334415	TO_CACHE:    8999519

STLB TOTAL     ACCESS:    1215294  HIT:    1213013  MISS:       2281  HIT %:    99.8123  MISS %:   0.187691   MPKI: 0.04562
STLB LOAD TRANSLATION INSTRUCTION	ACCESS:     493974  HIT:     493624  MISS:        350  HIT %:    99.9291  MISS %:  0.0708539  MPKI: 0.007
STLB LOAD TRANSLATION DATA	ACCESS:     471882  HIT:     469973  MISS:       1909  HIT %:    99.5954  MISS %:    0.40455  MPKI: 0.03818
STLB TRANSLATION FROM L1D PREFETCHER DATA	ACCESS:     249438  HIT:     249416  MISS:         22  HIT %:    99.9912  MISS %: 0.00881983  MPKI: 0.00044

STLB AVERAGE MISS LATENCY: 74.6256 cycles
STLB RQ	ACCESS:    1336688	FORWARD:          0	MERGED:     121356	TO_CACHE:    1215332

STLB Hit, L1D data hit: 0
STLB Hit, L2C data hit: 0
STLB Hit, LLC data hit: 0
STLB Hit, LLC data miss: 0
STLB STLB hints to L2: 0
L1D TOTAL     ACCESS:   13145552  HIT:   12174942  MISS:     970610  HIT %:    92.6164  MISS %:    7.38356   MPKI: 19.4122
L1D LOAD DATA	ACCESS:    6550200  HIT:    5918922  MISS:     631278  HIT %:    90.3625  MISS %:    9.63754  MPKI: 12.6256
L1D RFO DATA	ACCESS:    6260846  HIT:    6009814  MISS:     251032  HIT %:    95.9904  MISS %:    4.00955  MPKI: 5.02064
L1D PREFETCH DATA	ACCESS:     334506  HIT:     246206  MISS:      88300  HIT %:    73.6029  MISS %:    26.3971  MPKI: 1.766

L1D PREFETCH  REQUESTED:     741983  ISSUED:     741983  USEFUL:      31079  USELESS:      64725
L1D USEFUL LOAD PREFETCHES:      31079 PREFETCH ISSUED TO LOWER LEVEL:      95811  ACCURACY: 32.4378
 TIMELY PREFETCHES:      31079 LATE PREFETCHES: 7472 DROPPED PREFETCHES: 5
L1D AVERAGE MISS LATENCY: 249195 cycles
L1D RQ	ACCESS:   10696752	FORWARD:          0	MERGED:    3945534	TO_CACHE:    6583397
L1D WQ	ACCESS:    6946346	FORWARD:     168146	MERGED:     195809	TO_CACHE:    6750537
L1D PQ	ACCESS:     371154	FORWARD:          0	MERGED:          0	TO_CACHE:     370829

L1D UNIQUE REGIONS ACCESSED: 0
L1D REGIONS CONFLICTS: 0
L1D Cross Page Prefetch Requests: 6995
L1D Same Page Prefetch Requests: 759099
L1D ROI Sum of L1D PQ occupancy: 4734499
L1D PREFETCHES PUSHED FROM L2C: 0
L1I TOTAL     ACCESS:    7108332  HIT:    4343633  MISS:    2764699  HIT %:    61.1062  MISS %:    38.8938   MPKI: 55.294
L1I LOAD INSTRUCTION	ACCESS:    6441439  HIT:    3676740  MISS:    2764699  HIT %:    57.0795  MISS %:    42.9205  MPKI: 55.294
L1I PREFETCH INSTRUCTION	ACCESS:     666893  HIT:     666893  MISS:          0  HIT %:        100  MISS %:          0  MPKI: 0

L1I PREFETCH  REQUESTED:    1602249  ISSUED:    1602249  USEFUL:          0  USELESS:          0
L1I USEFUL LOAD PREFETCHES:          0 PREFETCH ISSUED TO LOWER LEVEL:          0  ACCURACY: -nan
 TIMELY PREFETCHES:          0 LATE PREFETCHES: 0 DROPPED PREFETCHES: 0
L1I AVERAGE MISS LATENCY: 17.5563 cycles
L1I RQ	ACCESS:    9556468	FORWARD:          0	MERGED:    2810807	TO_CACHE:    6745661
L1I PQ	ACCESS:    1602249	FORWARD:          0	MERGED:     424010	TO_CACHE:    1178239

L1BTB TOTAL     ACCESS:    5671032  HIT:    2044127  MISS:    3626905  HIT %:    36.0451  MISS %:    63.9549   MPKI: 72.5381
L1BTB BRANCH_DIRECT_JUMP	ACCESS:     549176 HIT:     144567 MISS:     404609 AVERAGE STALL: 52.8141 AVERAGE FETCH STALL: 14.8859 AVERAGE FETCH QUEUE STALL: 17.6509 AVERAGE DECODE STALL: 19.3558 AVERAGE EXECUTE STALL: 2.13677e+15
L1BTB BRANCH_INDIRECT	ACCESS:     183034 HIT:      66077 MISS:     116957 AVERAGE STALL: 110.812 AVERAGE FETCH STALL: 11.1869 AVERAGE FETCH QUEUE STALL: 16.0586 AVERAGE DECODE STALL: 13.6278 AVERAGE EXECUTE STALL: 68.9773
L1BTB BRANCH_CONDITIONAL	ACCESS:    2712016 HIT:    1419555 MISS:    1292461 AVERAGE STALL: 66.4753 AVERAGE FETCH STALL: 23.9875 AVERAGE FETCH QUEUE STALL: 24.2841 AVERAGE DECODE STALL: 17.5236 AVERAGE EXECUTE STALL: 2.33681e+15
L1BTB BRANCH_DIRECT_CALL	ACCESS:     942396 HIT:     104586 MISS:     837810 AVERAGE STALL: 67.2245 AVERAGE FETCH STALL: 25.4915 AVERAGE FETCH QUEUE STALL: 22.0488 AVERAGE DECODE STALL: 18.865 AVERAGE EXECUTE STALL: 4.18388e+15
L1BTB BRANCH_INDIRECT_CALL	ACCESS:     171004 HIT:      20781 MISS:     150223 AVERAGE STALL: 138.148 AVERAGE FETCH STALL: 12.5539 AVERAGE FETCH QUEUE STALL: 16.824 AVERAGE DECODE STALL: 11.8554 AVERAGE EXECUTE STALL: 96.4252
L1BTB BRANCH_RETURN	ACCESS:    1113406 HIT:     288561 MISS:     824845 AVERAGE STALL: 50.075 AVERAGE FETCH STALL: 17.209 AVERAGE FETCH QUEUE STALL: 6.23043 AVERAGE DECODE STALL: 6.23139 AVERAGE EXECUTE STALL: 4.10183e+14
L1BTB BRANCH_OTHER ACCESS:          0 HIT:          0 MISS:          0 AVERAGE STALL: -nan AVERAGE FETCH STALL: -nan AVERAGE FETCH QUEUE STALL: -nan AVERAGE DECODE STALL: -nan AVERAGE EXECUTE STALL: -nan
L1BTB TOTAL ROB OCCUPANCY AT BTB MISS: 3.12018

L2BTB TOTAL     ACCESS:    3601447  HIT:    3527509  MISS:      73938  HIT %:     97.947  MISS %:    2.05301   MPKI: 1.47876
L2BTB BRANCH_DIRECT_JUMP	ACCESS:     400415 HIT:     395927 MISS:       4488 AVERAGE STALL: 52.8141 AVERAGE FETCH STALL: 14.8859 AVERAGE FETCH QUEUE STALL: 17.6509 AVERAGE DECODE STALL: 19.3558 AVERAGE EXECUTE STALL: 2.13677e+15
L2BTB BRANCH_INDIRECT	ACCESS:     106666 HIT:     103841 MISS:       2825 AVERAGE STALL: 110.812 AVERAGE FETCH STALL: 11.1869 AVERAGE FETCH QUEUE STALL: 16.0586 AVERAGE DECODE STALL: 13.6278 AVERAGE EXECUTE STALL: 68.9773
L2BTB BRANCH_CONDITIONAL	ACCESS:    1292460 HIT:    1284397 MISS:       8063 AVERAGE STALL: 66.4753 AVERAGE FETCH STALL: 23.9875 AVERAGE FETCH QUEUE STALL: 24.2841 AVERAGE DECODE STALL: 17.5236 AVERAGE EXECUTE STALL: 2.33681e+15
L2BTB BRANCH_DIRECT_CALL	ACCESS:     837810 HIT:     833320 MISS:       4490 AVERAGE STALL: 67.2245 AVERAGE FETCH STALL: 25.4915 AVERAGE FETCH QUEUE STALL: 22.0488 AVERAGE DECODE STALL: 18.865 AVERAGE EXECUTE STALL: 4.18388e+15
L2BTB BRANCH_INDIRECT_CALL	ACCESS:     140662 HIT:     130213 MISS:      10449 AVERAGE STALL: 138.148 AVERAGE FETCH STALL: 12.5539 AVERAGE FETCH QUEUE STALL: 16.824 AVERAGE DECODE STALL: 11.8554 AVERAGE EXECUTE STALL: 96.4252
L2BTB BRANCH_RETURN	ACCESS:     823434 HIT:     779811 MISS:      43623 AVERAGE STALL: 50.075 AVERAGE FETCH STALL: 17.209 AVERAGE FETCH QUEUE STALL: 6.23043 AVERAGE DECODE STALL: 6.23139 AVERAGE EXECUTE STALL: 4.10183e+14
L2BTB BRANCH_OTHER ACCESS:          0 HIT:          0 MISS:          0 AVERAGE STALL: -nan AVERAGE FETCH STALL: -nan AVERAGE FETCH QUEUE STALL: -nan AVERAGE DECODE STALL: -nan AVERAGE EXECUTE STALL: -nan
L2BTB TOTAL ROB OCCUPANCY AT BTB MISS: 153.055

L2C TOTAL     ACCESS:    4276820  HIT:    3747994  MISS:     528826  HIT %:    87.6351  MISS %:    12.3649   MPKI: 10.5765
L2C LOAD INSTRUCTION	ACCESS:    2764699  HIT:    2479365  MISS:     285334  HIT %:    89.6794  MISS %:    10.3206  MPKI: 5.70668
L2C LOAD TRANSLATION INSTRUCTION	ACCESS:        408  HIT:        108  MISS:        300  HIT %:    26.4706  MISS %:    73.5294  MPKI: 0.006
L2C LOAD DATA	ACCESS:     623789  HIT:     547142  MISS:      76647  HIT %:    87.7127  MISS %:    12.2873  MPKI: 1.53294
L2C RFO DATA	ACCESS:     250960  HIT:     190826  MISS:      60134  HIT %:    76.0384  MISS %:    23.9616  MPKI: 1.20268
L2C PREFETCH DATA	ACCESS:     181706  HIT:     108749  MISS:      72957  HIT %:    59.8489  MISS %:    40.1511  MPKI: 1.45914
L2C WRITEBACK DATA	ACCESS:     453199  HIT:     421066  MISS:      32133  HIT %:    92.9097  MISS %:    7.09026  MPKI: 0.64266
L2C LOAD TRANSLATION DATA	ACCESS:       2020  HIT:        713  MISS:       1307  HIT %:     35.297  MISS %:     64.703  MPKI: 0.02614
L2C TRANSLATION FROM L1D PREFETCHER DATA	ACCESS:         39  HIT:         25  MISS:         14  HIT %:    64.1026  MISS %:    35.8974  MPKI: 0.00028

L2C PREFETCH  REQUESTED:      94066  ISSUED:      94066  USEFUL:       7464  USELESS:      65895
L2C USEFUL LOAD PREFETCHES:       7464 PREFETCH ISSUED TO LOWER LEVEL:      73366  ACCURACY: 10.1736
 TIMELY PREFETCHES:       7464 LATE PREFETCHES: 409 DROPPED PREFETCHES: 0
L2C AVERAGE MISS LATENCY: 37.5422 cycles
L2C RQ	ACCESS:    3641966	FORWARD:          0	MERGED:          0	TO_CACHE:    3641916
L2C WQ	ACCESS:     453199	FORWARD:         50	MERGED:          0	TO_CACHE:     453199
L2C PQ	ACCESS:     189877	FORWARD:          0	MERGED:       3445	TO_CACHE:     186432

L2C Dense regions hint from L2: 0
PSCL5 TOTAL     ACCESS:       4580  HIT:       2290  MISS:       2290  HIT %:         50  MISS %:         50   MPKI: 0.0458
PSCL5 LOAD TRANSLATION INSTRUCTION	ACCESS:       4502  HIT:       2251  MISS:       2251  HIT %:         50  MISS %:         50  MPKI: 0.04502
PSCL5 TRANSLATION FROM L1D PREFETCHER INSTRUCTION	ACCESS:         78  HIT:         39  MISS:         39  HIT %:         50  MISS %:         50  MPKI: 0.00078


PSCL4 TOTAL     ACCESS:       4251  HIT:       2118  MISS:       2133  HIT %:    49.8236  MISS %:    50.1764   MPKI: 0.04266
PSCL4 LOAD TRANSLATION INSTRUCTION	ACCESS:       2923  HIT:       2081  MISS:        842  HIT %:     71.194  MISS %:     28.806  MPKI: 0.01684
PSCL4 TRANSLATION FROM L1D PREFETCHER INSTRUCTION	ACCESS:         51  HIT:         37  MISS:         14  HIT %:     72.549  MISS %:     27.451  MPKI: 0.00028
PSCL4 LOAD TRANSLATION DATA	ACCESS:       1254  HIT:          0  MISS:       1254  HIT %:          0  MISS %:        100  MPKI: 0.02508
PSCL4 TRANSLATION FROM L1D PREFETCHER DATA	ACCESS:         23  HIT:          0  MISS:         23  HIT %:          0  MISS %:        100  MPKI: 0.00046


PSCL3 TOTAL     ACCESS:       4359  HIT:       2172  MISS:       2187  HIT %:    49.8279  MISS %:    50.1721   MPKI: 0.04374
PSCL3 LOAD TRANSLATION INSTRUCTION	ACCESS:       2977  HIT:       2135  MISS:        842  HIT %:    71.7165  MISS %:    28.2835  MPKI: 0.01684
PSCL3 TRANSLATION FROM L1D PREFETCHER INSTRUCTION	ACCESS:         51  HIT:         37  MISS:         14  HIT %:     72.549  MISS %:     27.451  MPKI: 0.00028
PSCL3 LOAD TRANSLATION DATA	ACCESS:       1308  HIT:          0  MISS:       1308  HIT %:          0  MISS %:        100  MPKI: 0.02616
PSCL3 TRANSLATION FROM L1D PREFETCHER DATA	ACCESS:         23  HIT:          0  MISS:         23  HIT %:          0  MISS %:        100  MPKI: 0.00046


PSCL2 TOTAL     ACCESS:       4428  HIT:       2138  MISS:       2290  HIT %:    48.2836  MISS %:    51.7164   MPKI: 0.0458
PSCL2 LOAD TRANSLATION INSTRUCTION	ACCESS:       2468  HIT:       2099  MISS:        369  HIT %:    85.0486  MISS %:    14.9514  MPKI: 0.00738
PSCL2 TRANSLATION FROM L1D PREFETCHER INSTRUCTION	ACCESS:         39  HIT:         39  MISS:          0  HIT %:        100  MISS %:          0  MPKI: 0
PSCL2 LOAD TRANSLATION DATA	ACCESS:       1882  HIT:          0  MISS:       1882  HIT %:          0  MISS %:        100  MPKI: 0.03764
PSCL2 TRANSLATION FROM L1D PREFETCHER DATA	ACCESS:         39  HIT:          0  MISS:         39  HIT %:          0  MISS %:        100  MPKI: 0.00078


LLC TOTAL     ACCESS:     581976  HIT:     551240  MISS:      30736  HIT %:    94.7187  MISS %:    5.28132   MPKI: 0.61472
LLC LOAD INSTRUCTION	ACCESS:     285334  HIT:     284048  MISS:       1286  HIT %:    99.5493  MISS %:     0.4507  MPKI: 0.02572
LLC LOAD TRANSLATION INSTRUCTION	ACCESS:        300  HIT:        252  MISS:         48  HIT %:         84  MISS %:         16  MPKI: 0.00096
LLC LOAD DATA	ACCESS:      76264  HIT:      72341  MISS:       3923  HIT %:     94.856  MISS %:    5.14397  MPKI: 0.07846
LLC RFO DATA	ACCESS:      60102  HIT:      45633  MISS:      14469  HIT %:    75.9259  MISS %:    24.0741  MPKI: 0.28938
LLC PREFETCH DATA	ACCESS:      73361  HIT:      62957  MISS:      10404  HIT %:    85.8181  MISS %:    14.1819  MPKI: 0.20808
LLC WRITEBACK DATA	ACCESS:      85294  HIT:      84780  MISS:        514  HIT %:    99.3974  MISS %:   0.602622  MPKI: 0.01028
LLC LOAD TRANSLATION DATA	ACCESS:       1307  HIT:       1215  MISS:         92  HIT %:     92.961  MISS %:    7.03902  MPKI: 0.00184
LLC TRANSLATION FROM L1D PREFETCHER DATA	ACCESS:         14  HIT:         14  MISS:          0  HIT %:        100  MISS %:          0  MPKI: 0

LLC AVERAGE MISS LATENCY: 159.783 cycles
LLC RQ	ACCESS:     423327	FORWARD:          0	MERGED:          0	TO_CACHE:     423321
LLC WQ	ACCESS:      85294	FORWARD:         11	MERGED:          0	TO_CACHE:      85294
LLC PQ	ACCESS:      73366	FORWARD:          0	MERGED:          0	TO_CACHE:      73361

LLC Dense regions hint to LLC: 0

RAW hits: 1939443
Loads Generated: 12636195
Loads sent to L1D: 10696752
Stores Generated: 6946326
Stores sent to L1D: 6946346
Major fault: 0 Minor fault: 2667
Allocated PAGES: 2667

stream: 
stream:times selected: 1204224
stream:pref_filled: 111779
stream:pref_useful: 20847
stream:pref_late: 5997
stream:misses: 6908
stream:misses_by_poll: 0

CS: 
CS:times selected: 180723
CS:pref_filled: 56906
CS:pref_useful: 33999
CS:pref_late: 6311
CS:misses: 14334
CS:misses_by_poll: 3

CPLX: 
CPLX:times selected: 1022274
CPLX:pref_filled: 18392
CPLX:pref_useful: 4085
CPLX:pref_late: 2828
CPLX:misses: 81933
CPLX:misses_by_poll: 0

NL_L1: 
NL:times selected: 21447
NL:pref_filled: 719
NL:pref_useful: 312
NL:pref_late: 303
NL:misses: 1421
NL:misses_by_poll: 0

total selections: 2428668
total_filled: 88300
total_useful: 31079
total_late: 16668
total_polluted: 3
total_misses_after_warmup: 664475
conflicts: 5498684

test: 120410

DRAM Statistics
 CHANNEL 0
 RQ ROW_BUFFER_HIT:      10828  ROW_BUFFER_MISS:      19368
 DBUS_CONGESTED:          7
 WQ ROW_BUFFER_HIT:       1635  ROW_BUFFER_MISS:      13548  FULL:          0

 AVG_CONGESTED_CYCLE: 5

CPU 0 Branch Prediction Accuracy: 99.805% MPKI: 0.35662 Average ROB Occupancy at Mispredict: 180.962
Branch types
NOT_BRANCH: 40855730 81.7115%
BRANCH_DIRECT_JUMP: 549176 1.09835%
BRANCH_INDIRECT: 183034 0.366068%
BRANCH_CONDITIONAL: 6185129 12.3703%
BRANCH_DIRECT_CALL: 942396 1.88479%
BRANCH_INDIRECT_CALL: 171004 0.342008%
BRANCH_RETURN: 1113406 2.22681%
BRANCH_OTHER: 0 0%

DRAM PAGES: 1048576
Allocated PAGES: 2667
Average_ROB_Occupancy: 243.744
Average_Decode_Occupancy: 36.6688
Average_FTQ_Occupancy: 14.4699
Indirect max targets: 14 Average targets: 1.17516
Branch_type:  BRANCH_DIRECT_JUMP:  Count Percentage: 3.35056 5.84878 5.02866 2.13298 8.64461 6.00869 1.68047 67.3052 
Branch_type:  BRANCH_INDIRECT:  Count Percentage: 11.7222 3.48802 2.64166 13.42 3.32718 2.79107 2.1167 60.4932 
Branch_type:  BRANCH_CONDITIONAL:  Count Percentage: 25.9647 2.44913 2.20223 3.66505 2.87947 4.62201 4.12549 54.0919 
Branch_type:  BRANCH_DIRECT_CALL:  Count Percentage: 0.857934 1.24836 0.787885 2.12694 4.44647 2.63484 1.49473 86.4029 
Branch_type:  BRANCH_INDIRECT_CALL:  Count Percentage: 9.54907 0 2.99064 0.000881588 0 1.71175 1.00442 84.7432 
Branch_type:  BRANCH_RETURN:  Count Percentage: 8.28345 1.69832 2.19604 2.99828 2.83687 5.08964 4.01131 72.8861 
Branch_type:  BRANCH_DIRECT_JUMP:  Total Count: 36814 64263 55252 23436 94982 66020 18464 739511 
Branch_type:  BRANCH_INDIRECT:  Total Count: 43074 12817 9707 49313 12226 10256 7778 222287 
Branch_type:  BRANCH_CONDITIONAL:  Total Count: 3211793 302954 272412 453361 356186 571735 510316 6691080 
Branch_type:  BRANCH_DIRECT_CALL:  Total Count: 16081 23399 14768 39867 83344 49387 28017 1619523 
Branch_type:  BRANCH_INDIRECT_CALL:  Total Count: 32495 0 10177 3 0 5825 3418 288377 
Branch_type:  BRANCH_RETURN:  Total Count: 183523 37627 48654 66428 62852 112763 88872 1614819 
Number of unique branch instructions: 10706
Upper 32 bits: 
aaaa
ffff
ffff0000
Unique upper 32 bits: 3
Unique upper 36 bits: 3
Unique upper 40 bits: 5
Unique upper 44 bits: 32
Unique upper 48 bits: 158
Variant_0 : 1368 0.333984
Variant_1 : 2709 0.661377
Variant_2 : 0 0
Variant_3 : 0 0
Offset_3 4437
Offset_4 263
Offset_5 481
Offset_6 539
Offset_7 634
Offset_8 582
Offset_9 509
Offset_10 419
Offset_11 347
Offset_12 310
Offset_13 238
Offset_14 246
Offset_15 194
Offset_16 226
Offset_17 166
Offset_18 144
Offset_19 260
Offset_20 141
Offset_21 235
Offset_22 409
Offset_23 245
Offset_24 344
Offset_25 117
Offset_47 94
Offset_64 5
decode_dispatch_called: 25719556 71.6634
Dispatch_width: 0 13761263 53.5051 38.3435
Dispatch_width: 1 982348 3.81946 2.73715
Dispatch_width: 2 821280 3.19321 2.28836
Dispatch_width: 3 487855 1.89683 1.35933
Dispatch_width: 4 5987101 23.2784 16.6821
Dispatch_width: 5 115293 0.44827 0.321245
Dispatch_width: 6 3564416 13.8588 9.93166
Empty_decode_cycles: 10169856 28.3366
ROB_full_cycles: 9391933 26.1691
Starvation_cycles_per_kilo_instr: 229.331
Starvation_cycles_per_kilo_instr_3: 168.307
Starvation_cycles_per_kilo_instr_0: 145.392
Branch_type_1  (3,1)  (4,9)  (5,39)  (6,71)  (7,123)  (8,154)  (9,136)  (10,110)  (11,78)  (12,47)  (13,11)  (14,2)  (15,3)  (16,4)  (18,1)  (19,5)  (20,2)  (21,1)  (22,3)  (23,2)  (24,10)  (25,12)  (64,1) 
Branch_type_2  (3,1)  (4,1)  (5,1)  (8,4)  (9,4)  (10,1)  (12,1)  (13,1)  (14,1)  (16,3)  (17,2)  (20,2)  (21,2)  (23,5)  (24,1)  (47,42) 
Branch_type_3  (3,4435)  (4,253)  (5,437)  (6,451)  (7,480)  (8,355)  (9,275)  (10,170)  (11,133)  (12,54)  (13,10)  (64,2) 
Branch_type_4  (6,3)  (7,8)  (8,29)  (9,55)  (10,66)  (11,70)  (12,116)  (13,101)  (14,110)  (15,92)  (16,99)  (17,77)  (18,61)  (19,127)  (20,72)  (21,124)  (22,215)  (23,138)  (24,199)  (25,101)  (64,1) 
Branch_type_5  (8,3)  (9,1)  (10,4)  (11,5)  (12,3)  (13,14)  (14,16)  (15,11)  (16,22)  (17,11)  (18,23)  (19,14)  (20,11)  (21,13)  (22,43)  (23,26)  (24,38) 
Branch_type_6  (5,4)  (6,14)  (7,23)  (8,37)  (9,38)  (10,68)  (11,61)  (12,89)  (13,101)  (14,117)  (15,88)  (16,98)  (17,76)  (18,59)  (19,114)  (20,54)  (21,95)  (22,148)  (23,74)  (24,96)  (25,4)  (47,52)  (64,1) 
Unique trigger count: 
Variant_0_evicts_0 : 0
Variant_0_evicts_1 : 0
Variant_0_evicts_2 : 0
Variant_0_evicts_3 : 0
Variant_1_evicts_0 : 0
Variant_1_evicts_1 : 0
Variant_1_evicts_2 : 0
Variant_1_evicts_3 : 0
Variant_2_evicts_0 : 0
Variant_2_evicts_1 : 0
Variant_2_evicts_2 : 0
Variant_2_evicts_3 : 0
Variant_3_evicts_0 : 0
Variant_3_evicts_1 : 0
Variant_3_evicts_2 : 0
Variant_3_evicts_3 : 0
BTB PER SET UNIQUE ADDR: 13 15 10 16 13 12 10 8 12 16 11 16 14 13 13 11 15 15 14 15 10 12 20 17 12 14 13 15 12 12 15 14 14 12 12 14 12 15 13 10 13 14 10 19 12 15 11 11 12 11 19 13 15 12 10 6 13 15 13 16 11 23 13 13 12 12 15 14 18 12 17 15 15 10 14 11 11 17 14 15 16 11 14 16 15 14 16 10 14 21 14 9 13 17 8 14 9 9 12 17 17 14 15 11 14 11 13 10 8 10 8 16 16 10 10 9 15 14 15 12 13 12 9 12 13 13 7 13 19 13 7 11 11 15 9 14 11 15 13 20 10 18 14 11 13 13 17 11 9 14 20 15 12 14 12 14 16 12 15 17 17 11 15 16 12 15 16 9 16 10 10 9 13 12 8 13 14 15 15 12 12 10 13 22 9 16 7 10 16 12 18 15 14 16 14 11 12 12 11 12 16 17 10 11 11 12 13 10 12 14 11 14 13 11 11 11 9 19 13 20 8 15 11 10 15 15 16 16 14 15 15 8 13 15 10 14 15 14 12 14 9 11 17 15 9 12 13 15 12 10 20 16 12 12 12 17 13 13 9 15 17 13 5 13 13 7 11 9 15 17 12 14 11 7 8 8 11 9 12 17 13 15 13 8 13 9 14 17 16 16 9 11 15 18 10 14 12 13 16 13 9 14 12 22 14 18 11 12 19 14 12 17 9 15 16 12 14 17 14 17 12 18 11 15 12 15 14 12 14 10 13 22 10 13 9 20 12 13 7 19 11 14 8 20 12 13 10 12 12 15 19 12 12 15 16 15 14 14 8 11 11 21 9 21 13 15 9 12 24 18 11 11 15 12 12 12 11 18 12 10 13 11 9 13 10 13 15 18 15 12 14 11 14 13 10 9 12 14 15 9 7 14 11 12 15 14 14 15 13 12 16 12 13 16 11 13 15 16 21 17 13 11 13 16 15 11 17 11 14 13 18 14 11 14 16 15 15 13 6 15 13 15 8 13 18 10 11 18 17 13 18 19 18 11 16 13 19 15 10 21 8 14 10 17 18 12 17 14 15 18 16 15 13 13 10 18 12 21 11 11 15 10 11 10 8 15 12 16 17 13 10 15 12 12 9 10 14 18 10 12 10 10 12 21 10 11 9 20 13 15 14 12 13 9 13 17 16 19 12 12 10 14 13 12 14 15 17 11 13 13 17 18 17 14 13 15 12 19 12 13 13 11 12 9 22 15 9 13 14 17 13 19 14 13 12 17 12 11 13 19 14 18 12 14 14 15 13 20 12 21 13 10 17 18 11 9 17 20 13 13 10 14 11 11 12 12 12 12 24 17 12 12 10 10 13 9 11 12 13 10 12 11 11 11 13 12 15 13 13 14 21 17 10 11 6 17 11 13 13 12 14 13 7 9 14 15 12 21 11 14 12 16 15 16 13 14 14 18 11 16 13 15 15 16 10 12 13 13 22 12 12 15 14 15 12 10 13 14 22 12 13 9 16 18 9 11 13 10 11 10 14 16 13 13 18 14 15 12 13 19 12 15 12 16 19 13 12 16 13 16 13 15 15 12 10 11 10 15 10 15 15 12 8 19 10 17 13 11 12 6 12 12 8 11 9 10 15 13 15 15 15 17 9 13 13 9 14 7 11 19 18 9 14 11 10 18 12 14 15 12 10 12 10 15 18 16 16 14 13 12 12 11 10 12 11 13 16 12 9 15 12 11 12 13 15 12 8 15 11 12 12 15 13 9 14 9 14 10 10 15 10 12 14 12 15 14 9 12 7 10 14 7 15 12 14 16 12 10 14 11 14 14 16 17 17 12 17 12 12 12 14 18 15 11 14 18 16 16 11 16 15 13 11 16 16 13 15 15 16 16 16 14 15 13 11 13 12 16 13 12 13 16 11 10 16 13 13 22 11 17 13 13 10 11 12 15 12 12 14 16 15 11 13 10 18 11 8 10 19 11 11 19 13 13 15 11 16 10 12 15 16 8 15 14 12 17 11 11 12 13 22 15 14 11 10 18 19 19 15 11 15 14 12 16 10 14 12 15 16 16 12 16 14 16 14 18 17 13 18 14 11 10 11 13 12 10 9 11 11 11 10 17 14 14 11 13 11 15 18 21 9 22 15 16 10 12 14 16 13 14 11 14 13 11 8 14 7 11 15 16 10 12 10 14 14 12 11 15 13 11 14 18 15 10 13 13 16 17 17 14 15 19 13 18 10 24 20 15 14 16 15 12 14 17 15 15 13 18 17 12 19 15 14 15 8 13 11 22 12 14 15 14 9 11 12 15 8 10 8 11 13 22 10 10 
BTB PER SET COUNT: 45 23 1733 26 22 18 13 14 424 25 16 437 37 19 20 13 2007 22 75 45 45 24 135 22 26 22 24 23 24 513 374 458 20 21 14 672 24 26 15 19 21 19 11 1395 350 51 28 23 107 13 30 22 23 23 11 386 29 21 455 22 12 43 297 21 16 18 25 2945 40 22 1462 17 23 15 24 16 18 841 25 25 22 13 18 34 18 57 19 13 308 41 795 351 14 478 15 15 12 952 19 20 44 16 20 189 3050 16 22 15 944 14 8 30 784 14 22 1303 18 19 1475 27 487 18 10 18 15 56 7 699 27 1044 8 21 18 27 217 22 955 35 22 32 13 22 23 15 58 224 737 16 15 34 29 20 96 18 18 29 580 12 27 22 25 16 21 24 224 292 24 10 21 1794 13 12 25 18 11 26 20 25 64 307 631 244 41 33 329 24 8 13 31 1226 27 23 17 21 16 21 14 21 12 15 26 31 15 13 16 22 18 22 21 26 14 17 21 16 16 454 10 36 957 33 8 23 378 15 20 28 20 268 153 26 20 9 18 19 54 18 27 54 17 17 12 14 892 100 14 744 589 20 17 11 28 30 23 19 18 31 87 95 12 26 705 22 6 532 21 8 16 12 1985 25 12 22 355 10 462 9 19 10 23 655 33 26 459 10 16 14 23 24 22 23 9 14 19 29 16 23 713 20 18 31 14 21 54 32 22 118 19 64 24 54 17 20 12 23 1135 293 17 25 22 28 29 1881 15 35 15 1703 452 13 19 14 15 35 11 18 9 35 22 33 8 25 14 197 11 41 17 27 18 22 19 211 108 18 23 20 23 23 23 21 11 13 15 28 12 35 18 1911 10 15 36 24 38 201 22 24 720 296 13 23 14 344 18 15 357 23 11 13 286 34 33 1147 28 20 22 15 13 12 17 16 381 13 8 17 772 17 21 18 18 23 18 15 24 17 13 399 19 20 21 46 32 31 22 15 27 25 23 20 1314 19 15 19 33 19 16 29 474 25 111 58 6 20 21 22 11 24 30 19 819 31 27 19 739 34 27 17 125 23 26 20 15 35 43 16 10 25 27 25 1073 17 36 24 24 32 17 21 12 27 15 56 14 19 31 61 16 13 9 27 659 22 594 37 66 22 71 19 17 11 1478 361 20 13 29 13 15 34 10 15 10 36 16 28 19 18 24 1464 15 30 23 26 18 21 12 17 18 472 20 31 433 411 27 1923 25 26 28 25 19 26 1136 1061 16 21 16 13 13 9 31 417 11 15 21 646 27 29 188 328 24 43 24 13 30 30 18 26 15 17 19 24 172 40 14 31 23 14 22 27 1139 9 23 58 20 17 14 24 21 2934 16 17 381 15 39 30 19 20 17 17 16 18 2861 307 26 33 17 15 18 21 26 25 31 2780 15 22 33 32 14 13 7 29 425 15 541 17 25 17 10 1011 22 16 20 36 1127 630 24 39 50 49 15 145 26 395 21 525 21 18 22 407 15 18 19 20 304 13 17 26 26 24 14 526 19 23 303 416 21 14 53 27 20582 19 25 278 1380 14 31 19 229 22 52 48 30 14 24 35 15 23 358 68 39 17 23 22 385 25 18 26 20 20 2367 17 254 1792 12 25 19 25 10 32 14 1030 29 13 13 6 37 17 1032 16 17 144 236 17 22 342 26 521 12 34 13 10 14 7 1027 40 242 13950 55 13 14 1899 54 19 150 15 19 18 14 33 317 26 295 15 21 21 1188 17 345 1471 1458 16 23 66 10 28 16 14 16 18 2230 19 8 26 14 16 15 18 19 11 31 15 19 428 10 25 1806 14 568 20 18 17 11 18 7 15 407 265 24 17 1340 21 225 14 19 1555 22 22 42 29 32 16 33 28 26 122 19 7962 21 485 18 776 30 2254 26 1457 28 1109 14 30 26 18 27 15 28 28 27 23 28 24 16 1887 19 20 21 16 15 655 17 15 242 20 431 38 15 28 91 703 11 13 17 25 18 15 23 30 20 13 489 10 34 13 11 14 25 23 646 46 17 26 23 14 23 16 867 22 21 10 22 17 274 27 20 16 15 23 31 63 20 40 12 25 32 35 19 22 26 23 23 758 15 26 16 21 162 74 19 382 34 25 19 29 93 136 27 23 17 766 133 18 17 14 11 16 12 41 12 26 859 22 18 14 35 28 68 36 14 854 29 22 15 23 110 27 19 21 37 43 483 1972 14 19 8 16 22 47 31 14 245 21 22 15 18 21 19 15 58 44 37 17 1210 26 110 21 210 26 457 86 20 129 14 49 34 19 21 20 30 21 421 28 349 21 23 765 35 1525 100 81 23 23 10 21 15 48 14 20 291 285 12 13 17 21 15 213 12 12 21 41 15 14 
To predecode: 0
Predecoding something: 0
Predecode request dropped: 0
sizeofblock_0 0
sizeofblock_1 53389
sizeofblock_2 91090
sizeofblock_3 0
sizeofblock_4 0
sizeofblock_5 0
sizeofblock_6 0
sizeofblock_7 0
sizeofblock_8 0
Variant_0 Correct: 1603112 Incorrect: 0 Accuracy: 1
Variant_1 Correct: 5696626 Incorrect: 0 Accuracy: 1
Variant_2 Correct: 0 Incorrect: 0 Accuracy: -nan
Variant_3 Correct: 0 Incorrect: 0 Accuracy: -nan
