
*** ChampSim Multicore Out-of-Order Simulator ***

Warmup Instructions: 50000000
Simulation Instructions: 50000000
Number of CPUs: 1
LLC sets: 2048
LLC ways: 16
Off-chip DRAM Size: 4096 MB Channels: 1 Width: 64-bit Data Rate: 6400 MT/s
CPU 0 runs ./micro_traces/srv696.trace.gz
.gz
ITLB has LRU replacement policy
DTLB has LRU replacement policy
STLB has LRU replacement policy
FDIP Prefetcher at L1I
L1I has LRU replacement policy
L1D has LRU replacement policy
Initialize SRRIP state for L2C
Initialize DRRIP state for LLC
Heartbeat_Variant_0 : 1297 0.31665 per_variant_size: 0 1297 0 0 0 0 0 0 0 
Heartbeat_Variant_1 : 2475 0.604248 per_variant_size: 0 582 1893 0 0 0 0 0 0 
Heartbeat_Variant_2 : 0 0 per_variant_size: 0 0 0 0 0 0 0 0 0 
Heartbeat_Variant_3 : 0 0 per_variant_size: 0 0 0 0 0 0 0 0 0 
Heartbeat_Variant_0_evicts 0 : 5756 1 : 356 2 : 0 3 : 0 
Heartbeat_Variant_1_evicts 0 : 310 1 : 0 2 : 0 3 : 0 
Heartbeat_Variant_2_evicts 0 : 0 1 : 0 2 : 0 3 : 0 
Heartbeat_Variant_3_evicts 0 : 0 1 : 0 2 : 0 3 : 0 
Heartbeat CPU 0 instructions: 10000001 cycles: 2797350 heartbeat IPC: 3.57481 cumulative IPC: 3.57481 (Simulation time: 0 hr 1 min 42 sec) 
Heartbeat_Variant_0 : 1355 0.330811 per_variant_size: 0 1355 0 0 0 0 0 0 0 
Heartbeat_Variant_1 : 2579 0.629639 per_variant_size: 0 485 2094 0 0 0 0 0 0 
Heartbeat_Variant_2 : 0 0 per_variant_size: 0 0 0 0 0 0 0 0 0 
Heartbeat_Variant_3 : 0 0 per_variant_size: 0 0 0 0 0 0 0 0 0 
Heartbeat_Variant_0_evicts 0 : 5676 1 : 306 2 : 0 3 : 0 
Heartbeat_Variant_1_evicts 0 : 288 1 : 0 2 : 0 3 : 0 
Heartbeat_Variant_2_evicts 0 : 0 1 : 0 2 : 0 3 : 0 
Heartbeat_Variant_3_evicts 0 : 0 1 : 0 2 : 0 3 : 0 
Heartbeat CPU 0 instructions: 20000000 cycles: 5594838 heartbeat IPC: 3.57464 cumulative IPC: 3.57472 (Simulation time: 0 hr 3 min 18 sec) 
Heartbeat_Variant_0 : 1356 0.331055 per_variant_size: 0 1356 0 0 0 0 0 0 0 
Heartbeat_Variant_1 : 2585 0.631104 per_variant_size: 0 484 2101 0 0 0 0 0 0 
Heartbeat_Variant_2 : 0 0 per_variant_size: 0 0 0 0 0 0 0 0 0 
Heartbeat_Variant_3 : 0 0 per_variant_size: 0 0 0 0 0 0 0 0 0 
Heartbeat_Variant_0_evicts 0 : 5602 1 : 20 2 : 0 3 : 0 
Heartbeat_Variant_1_evicts 0 : 19 1 : 0 2 : 0 3 : 0 
Heartbeat_Variant_2_evicts 0 : 0 1 : 0 2 : 0 3 : 0 
Heartbeat_Variant_3_evicts 0 : 0 1 : 0 2 : 0 3 : 0 
Heartbeat CPU 0 instructions: 30000002 cycles: 8392006 heartbeat IPC: 3.57505 cumulative IPC: 3.57483 (Simulation time: 0 hr 4 min 55 sec) 
Heartbeat_Variant_0 : 1358 0.331543 per_variant_size: 0 1358 0 0 0 0 0 0 0 
Heartbeat_Variant_1 : 2602 0.635254 per_variant_size: 0 494 2108 0 0 0 0 0 0 
Heartbeat_Variant_2 : 0 0 per_variant_size: 0 0 0 0 0 0 0 0 0 
Heartbeat_Variant_3 : 0 0 per_variant_size: 0 0 0 0 0 0 0 0 0 
Heartbeat_Variant_0_evicts 0 : 5606 1 : 98 2 : 0 3 : 0 
Heartbeat_Variant_1_evicts 0 : 99 1 : 0 2 : 0 3 : 0 
Heartbeat_Variant_2_evicts 0 : 0 1 : 0 2 : 0 3 : 0 
Heartbeat_Variant_3_evicts 0 : 0 1 : 0 2 : 0 3 : 0 
Heartbeat CPU 0 instructions: 40000003 cycles: 11189863 heartbeat IPC: 3.57416 cumulative IPC: 3.57466 (Simulation time: 0 hr 6 min 34 sec) 
Heartbeat_Variant_0 : 1363 0.332764 per_variant_size: 0 1363 0 0 0 0 0 0 0 
Heartbeat_Variant_1 : 2605 0.635986 per_variant_size: 0 487 2118 0 0 0 0 0 0 
Heartbeat_Variant_2 : 0 0 per_variant_size: 0 0 0 0 0 0 0 0 0 
Heartbeat_Variant_3 : 0 0 per_variant_size: 0 0 0 0 0 0 0 0 0 
Heartbeat_Variant_0_evicts 0 : 5539 1 : 73 2 : 0 3 : 0 
Heartbeat_Variant_1_evicts 0 : 72 1 : 0 2 : 0 3 : 0 
Heartbeat_Variant_2_evicts 0 : 0 1 : 0 2 : 0 3 : 0 
Heartbeat_Variant_3_evicts 0 : 0 1 : 0 2 : 0 3 : 0 
Heartbeat CPU 0 instructions: 50000003 cycles: 13985012 heartbeat IPC: 3.57763 cumulative IPC: 3.57526 (Simulation time: 0 hr 8 min 13 sec) 

Warmup complete CPU 0 instructions: 50000003 cycles: 13985012 (Simulation time: 0 hr 8 min 13 sec) 

Cycle: 20000000 FTQ IN: 58344370 FTQ occupancy: 20.5321 DECODE IN: 58344362 DECODE occupancy: 53.329 ROB IN: 58344338 ROB occupancy: 318.735 ROB OUT: 58344187
Heartbeat_Variant_0 : 1372 0.334961 per_variant_size: 0 1372 0 0 0 0 0 0 0 
Heartbeat_Variant_1 : 2607 0.636475 per_variant_size: 0 494 2113 0 0 0 0 0 0 
Heartbeat_Variant_2 : 0 0 per_variant_size: 0 0 0 0 0 0 0 0 0 
Heartbeat_Variant_3 : 0 0 per_variant_size: 0 0 0 0 0 0 0 0 0 
Heartbeat_Variant_0_evicts 0 : 5618 1 : 145 2 : 0 3 : 0 
Heartbeat_Variant_1_evicts 0 : 138 1 : 0 2 : 0 3 : 0 
Heartbeat_Variant_2_evicts 0 : 0 1 : 0 2 : 0 3 : 0 
Heartbeat_Variant_3_evicts 0 : 0 1 : 0 2 : 0 3 : 0 
Heartbeat CPU 0 instructions: 60000000 cycles: 21181815 heartbeat IPC: 1.38951 cumulative IPC: 1.38951 (Simulation time: 0 hr 10 min 9 sec) 
Heartbeat_Variant_0 : 1376 0.335938 per_variant_size: 0 1376 0 0 0 0 0 0 0 
Heartbeat_Variant_1 : 2625 0.640869 per_variant_size: 0 475 2150 0 0 0 0 0 0 
Heartbeat_Variant_2 : 0 0 per_variant_size: 0 0 0 0 0 0 0 0 0 
Heartbeat_Variant_3 : 0 0 per_variant_size: 0 0 0 0 0 0 0 0 0 
Heartbeat_Variant_0_evicts 0 : 5707 1 : 153 2 : 0 3 : 0 
Heartbeat_Variant_1_evicts 0 : 160 1 : 0 2 : 0 3 : 0 
Heartbeat_Variant_2_evicts 0 : 0 1 : 0 2 : 0 3 : 0 
Heartbeat_Variant_3_evicts 0 : 0 1 : 0 2 : 0 3 : 0 
Heartbeat CPU 0 instructions: 70000000 cycles: 28295095 heartbeat IPC: 1.40582 cumulative IPC: 1.39762 (Simulation time: 0 hr 12 min 6 sec) 
Cycle: 30000000 FTQ IN: 14073812 FTQ occupancy: 14.738 DECODE IN: 14073714 DECODE occupancy: 37.894 ROB IN: 14073678 ROB occupancy: 249.532 ROB OUT: 14073477
Heartbeat_Variant_0 : 1377 0.336182 per_variant_size: 0 1377 0 0 0 0 0 0 0 
Heartbeat_Variant_1 : 2628 0.641602 per_variant_size: 0 479 2149 0 0 0 0 0 0 
Heartbeat_Variant_2 : 0 0 per_variant_size: 0 0 0 0 0 0 0 0 0 
Heartbeat_Variant_3 : 0 0 per_variant_size: 0 0 0 0 0 0 0 0 0 
Heartbeat_Variant_0_evicts 0 : 5567 1 : 60 2 : 0 3 : 0 
Heartbeat_Variant_1_evicts 0 : 62 1 : 0 2 : 0 3 : 0 
Heartbeat_Variant_2_evicts 0 : 0 1 : 0 2 : 0 3 : 0 
Heartbeat_Variant_3_evicts 0 : 0 1 : 0 2 : 0 3 : 0 
Heartbeat CPU 0 instructions: 80000001 cycles: 35472194 heartbeat IPC: 1.39332 cumulative IPC: 1.39618 (Simulation time: 0 hr 14 min 1 sec) 
Cycle: 40000000 FTQ IN: 13953002 FTQ occupancy: 14.9219 DECODE IN: 13953006 DECODE occupancy: 38.1057 ROB IN: 13953006 ROB occupancy: 249.467 ROB OUT: 13953009
Heartbeat_Variant_0 : 1375 0.335693 per_variant_size: 0 1375 0 0 0 0 0 0 0 
Heartbeat_Variant_1 : 2634 0.643066 per_variant_size: 0 472 2162 0 0 0 0 0 0 
Heartbeat_Variant_2 : 0 0 per_variant_size: 0 0 0 0 0 0 0 0 0 
Heartbeat_Variant_3 : 0 0 per_variant_size: 0 0 0 0 0 0 0 0 0 
Heartbeat_Variant_0_evicts 0 : 5627 1 : 27 2 : 0 3 : 0 
Heartbeat_Variant_1_evicts 0 : 29 1 : 0 2 : 0 3 : 0 
Heartbeat_Variant_2_evicts 0 : 0 1 : 0 2 : 0 3 : 0 
Heartbeat_Variant_3_evicts 0 : 0 1 : 0 2 : 0 3 : 0 
Heartbeat CPU 0 instructions: 90000001 cycles: 42593845 heartbeat IPC: 1.40417 cumulative IPC: 1.39817 (Simulation time: 0 hr 15 min 56 sec) 
Heartbeat_Variant_0 : 1378 0.336426 per_variant_size: 0 1378 0 0 0 0 0 0 0 
Heartbeat_Variant_1 : 2637 0.643799 per_variant_size: 0 474 2163 0 0 0 0 0 0 
Heartbeat_Variant_2 : 0 0 per_variant_size: 0 0 0 0 0 0 0 0 0 
Heartbeat_Variant_3 : 0 0 per_variant_size: 0 0 0 0 0 0 0 0 0 
Heartbeat_Variant_0_evicts 0 : 5627 1 : 23 2 : 0 3 : 0 
Heartbeat_Variant_1_evicts 0 : 20 1 : 0 2 : 0 3 : 0 
Heartbeat_Variant_2_evicts 0 : 0 1 : 0 2 : 0 3 : 0 
Heartbeat_Variant_3_evicts 0 : 0 1 : 0 2 : 0 3 : 0 
Heartbeat CPU 0 instructions: 100000001 cycles: 49789995 heartbeat IPC: 1.38963 cumulative IPC: 1.39645 (Simulation time: 0 hr 17 min 52 sec) 
Finished CPU 0 instructions: 50000002 cycles: 35804984 cumulative IPC: 1.39645 (Simulation time: 0 hr 17 min 52 sec) 

ChampSim completed all CPUs

Region of Interest Statistics

CPU 0 cumulative IPC: 1.39645 instructions: 50000002 cycles: 35804984
 Fetch stage stalled: 45.8599  Sim cycles: 35804984 fetch stall cycle: 16420138
 Empty decode stage: 25.5858  Sim cycles: 35804984 fetch stall cycle: 9161009
ITLB TOTAL     ACCESS:    5829765  HIT:    5335590  MISS:     494175  HIT %:    91.5232  MISS %:    8.47676   MPKI: 9.8835
ITLB LOAD TRANSLATION INSTRUCTION	ACCESS:    5695990  HIT:    5201815  MISS:     494175  HIT %:    91.3242  MISS %:    8.67584  MPKI: 9.8835
ITLB TRANSLATION FROM L1D PREFETCHER INSTRUCTION	ACCESS:     133775  HIT:     133775  MISS:          0  HIT %:        100  MISS %:          0  MPKI: 0

ITLB AVERAGE MISS LATENCY: 9.04584 cycles
ITLB RQ	ACCESS:    7935644	FORWARD:          0	MERGED:    1622321	TO_CACHE:    6313323

DTLB TOTAL     ACCESS:    8955882  HIT:    8483652  MISS:     472230  HIT %:    94.7272  MISS %:    5.27285   MPKI: 9.4446
DTLB LOAD TRANSLATION DATA	ACCESS:    8955882  HIT:    8483652  MISS:     472230  HIT %:    94.7272  MISS %:    5.27285  MPKI: 9.4446

DTLB AVERAGE MISS LATENCY: 9.33613 cycles
DTLB RQ	ACCESS:   13326496	FORWARD:          0	MERGED:    4334083	TO_CACHE:    8992413

STLB TOTAL     ACCESS:    1216057  HIT:    1214005  MISS:       2052  HIT %:    99.8313  MISS %:   0.168742   MPKI: 0.04104
STLB LOAD TRANSLATION INSTRUCTION	ACCESS:     494175  HIT:     493928  MISS:        247  HIT %:      99.95  MISS %:  0.0499823  MPKI: 0.00494
STLB LOAD TRANSLATION DATA	ACCESS:     472229  HIT:     470450  MISS:       1779  HIT %:    99.6233  MISS %:   0.376724  MPKI: 0.03558
STLB TRANSLATION FROM L1D PREFETCHER DATA	ACCESS:     249653  HIT:     249627  MISS:         26  HIT %:    99.9896  MISS %:  0.0104145  MPKI: 0.00052

STLB AVERAGE MISS LATENCY: 74.4868 cycles
STLB RQ	ACCESS:    1337549	FORWARD:          0	MERGED:     121446	TO_CACHE:    1216103

STLB Hit, L1D data hit: 0
STLB Hit, L2C data hit: 0
STLB Hit, LLC data hit: 0
STLB Hit, LLC data miss: 0
STLB STLB hints to L2: 0
L1D TOTAL     ACCESS:   13073381  HIT:   11953317  MISS:    1120064  HIT %:    91.4325  MISS %:    8.56752   MPKI: 22.4013
L1D LOAD DATA	ACCESS:    6540052  HIT:    5802974  MISS:     737078  HIT %:    88.7298  MISS %:    11.2702  MPKI: 14.7416
L1D RFO DATA	ACCESS:    6203614  HIT:    5916808  MISS:     286806  HIT %:    95.3768  MISS %:    4.62321  MPKI: 5.73612
L1D PREFETCH DATA	ACCESS:     329715  HIT:     233535  MISS:      96180  HIT %:    70.8294  MISS %:    29.1706  MPKI: 1.9236

L1D PREFETCH  REQUESTED:     742659  ISSUED:     742659  USEFUL:      35020  USELESS:      69201
L1D USEFUL LOAD PREFETCHES:      35020 PREFETCH ISSUED TO LOWER LEVEL:     104278  ACCURACY: 33.5833
 TIMELY PREFETCHES:      35020 LATE PREFETCHES: 8017 DROPPED PREFETCHES: 12
L1D AVERAGE MISS LATENCY: 230883 cycles
L1D RQ	ACCESS:   10690247	FORWARD:          0	MERGED:    3949370	TO_CACHE:    6575034
L1D WQ	ACCESS:    6949900	FORWARD:     166214	MERGED:     198438	TO_CACHE:    6751462
L1D PQ	ACCESS:     371515	FORWARD:          0	MERGED:          0	TO_CACHE:     371144

L1D UNIQUE REGIONS ACCESSED: 0
L1D REGIONS CONFLICTS: 0
L1D Cross Page Prefetch Requests: 7001
L1D Same Page Prefetch Requests: 744690
L1D ROI Sum of L1D PQ occupancy: 4715194
L1D PREFETCHES PUSHED FROM L2C: 0
L1I TOTAL     ACCESS:    7132444  HIT:    4368736  MISS:    2763708  HIT %:    61.2516  MISS %:    38.7484   MPKI: 55.2742
L1I LOAD INSTRUCTION	ACCESS:    6462315  HIT:    3698607  MISS:    2763708  HIT %:    57.2335  MISS %:    42.7665  MPKI: 55.2742
L1I PREFETCH INSTRUCTION	ACCESS:     670129  HIT:     670129  MISS:          0  HIT %:        100  MISS %:          0  MPKI: 0

L1I PREFETCH  REQUESTED:    1609189  ISSUED:    1609189  USEFUL:          0  USELESS:          0
L1I USEFUL LOAD PREFETCHES:          0 PREFETCH ISSUED TO LOWER LEVEL:          0  ACCURACY: -nan
 TIMELY PREFETCHES:          0 LATE PREFETCHES: 0 DROPPED PREFETCHES: 0
L1I AVERAGE MISS LATENCY: 16.9526 cycles
L1I RQ	ACCESS:    9557060	FORWARD:          0	MERGED:    2805953	TO_CACHE:    6751107
L1I PQ	ACCESS:    1609189	FORWARD:          0	MERGED:     424652	TO_CACHE:    1184537

L1BTB TOTAL     ACCESS:    5669012  HIT:    2041755  MISS:    3627257  HIT %:    36.0161  MISS %:    63.9839   MPKI: 72.5451
L1BTB BRANCH_DIRECT_JUMP	ACCESS:     546686 HIT:     144127 MISS:     402559 AVERAGE STALL: 55.5463 AVERAGE FETCH STALL: 15.6144 AVERAGE FETCH QUEUE STALL: 19.2466 AVERAGE DECODE STALL: 19.7703 AVERAGE EXECUTE STALL: 2.31336e+15
L1BTB BRANCH_INDIRECT	ACCESS:     182830 HIT:      65902 MISS:     116928 AVERAGE STALL: 112.134 AVERAGE FETCH STALL: 11.4291 AVERAGE FETCH QUEUE STALL: 17.4457 AVERAGE DECODE STALL: 13.5357 AVERAGE EXECUTE STALL: 68.7614
L1BTB BRANCH_CONDITIONAL	ACCESS:    2708707 HIT:    1417333 MISS:    1291374 AVERAGE STALL: 64.3938 AVERAGE FETCH STALL: 23.6 AVERAGE FETCH QUEUE STALL: 22.1477 AVERAGE DECODE STALL: 18.0394 AVERAGE EXECUTE STALL: 3.69156e+15
L1BTB BRANCH_DIRECT_CALL	ACCESS:     944188 HIT:     104115 MISS:     840073 AVERAGE STALL: 71.2146 AVERAGE FETCH STALL: 21.6543 AVERAGE FETCH QUEUE STALL: 29.4091 AVERAGE DECODE STALL: 19.5675 AVERAGE EXECUTE STALL: 1.02539e+16
L1BTB BRANCH_INDIRECT_CALL	ACCESS:     171217 HIT:      20768 MISS:     150449 AVERAGE STALL: 141.308 AVERAGE FETCH STALL: 12.4174 AVERAGE FETCH QUEUE STALL: 16.0949 AVERAGE DECODE STALL: 11.5241 AVERAGE EXECUTE STALL: 100.78
L1BTB BRANCH_RETURN	ACCESS:    1115384 HIT:     289510 MISS:     825874 AVERAGE STALL: 49.6359 AVERAGE FETCH STALL: 16.9921 AVERAGE FETCH QUEUE STALL: 6.13482 AVERAGE DECODE STALL: 6.25668 AVERAGE EXECUTE STALL: 4.16358e+14
L1BTB BRANCH_OTHER ACCESS:          0 HIT:          0 MISS:          0 AVERAGE STALL: -nan AVERAGE FETCH STALL: -nan AVERAGE FETCH QUEUE STALL: -nan AVERAGE DECODE STALL: -nan AVERAGE EXECUTE STALL: -nan
L1BTB TOTAL ROB OCCUPANCY AT BTB MISS: 2.80084

L2BTB TOTAL     ACCESS:    3601891  HIT:    3535440  MISS:      66451  HIT %:    98.1551  MISS %:    1.84489   MPKI: 1.32902
L2BTB BRANCH_DIRECT_JUMP	ACCESS:     398406 HIT:     394582 MISS:       3824 AVERAGE STALL: 55.5463 AVERAGE FETCH STALL: 15.6144 AVERAGE FETCH QUEUE STALL: 19.2466 AVERAGE DECODE STALL: 19.7703 AVERAGE EXECUTE STALL: 2.31336e+15
L2BTB BRANCH_INDIRECT	ACCESS:     106665 HIT:     103986 MISS:       2679 AVERAGE STALL: 112.134 AVERAGE FETCH STALL: 11.4291 AVERAGE FETCH QUEUE STALL: 17.4457 AVERAGE DECODE STALL: 13.5357 AVERAGE EXECUTE STALL: 68.7614
L2BTB BRANCH_CONDITIONAL	ACCESS:    1291374 HIT:    1286325 MISS:       5049 AVERAGE STALL: 64.3938 AVERAGE FETCH STALL: 23.6 AVERAGE FETCH QUEUE STALL: 22.1477 AVERAGE DECODE STALL: 18.0394 AVERAGE EXECUTE STALL: 3.69156e+15
L2BTB BRANCH_DIRECT_CALL	ACCESS:     840073 HIT:     838255 MISS:       1818 AVERAGE STALL: 71.2146 AVERAGE FETCH STALL: 21.6543 AVERAGE FETCH QUEUE STALL: 29.4091 AVERAGE DECODE STALL: 19.5675 AVERAGE EXECUTE STALL: 1.02539e+16
L2BTB BRANCH_INDIRECT_CALL	ACCESS:     140902 HIT:     130739 MISS:      10163 AVERAGE STALL: 141.308 AVERAGE FETCH STALL: 12.4174 AVERAGE FETCH QUEUE STALL: 16.0949 AVERAGE DECODE STALL: 11.5241 AVERAGE EXECUTE STALL: 100.78
L2BTB BRANCH_RETURN	ACCESS:     824471 HIT:     781553 MISS:      42918 AVERAGE STALL: 49.6359 AVERAGE FETCH STALL: 16.9921 AVERAGE FETCH QUEUE STALL: 6.13482 AVERAGE DECODE STALL: 6.25668 AVERAGE EXECUTE STALL: 4.16358e+14
L2BTB BRANCH_OTHER ACCESS:          0 HIT:          0 MISS:          0 AVERAGE STALL: -nan AVERAGE FETCH STALL: -nan AVERAGE FETCH QUEUE STALL: -nan AVERAGE DECODE STALL: -nan AVERAGE EXECUTE STALL: -nan
L2BTB TOTAL ROB OCCUPANCY AT BTB MISS: 152.885

L2C TOTAL     ACCESS:    4488731  HIT:    4058122  MISS:     430609  HIT %:    90.4069  MISS %:    9.59311   MPKI: 8.61218
L2C LOAD INSTRUCTION	ACCESS:    2763708  HIT:    2533512  MISS:     230196  HIT %:    91.6708  MISS %:    8.32924  MPKI: 4.60392
L2C LOAD TRANSLATION INSTRUCTION	ACCESS:        279  HIT:         74  MISS:        205  HIT %:    26.5233  MISS %:    73.4767  MPKI: 0.0041
L2C LOAD DATA	ACCESS:     729047  HIT:     661280  MISS:      67767  HIT %:    90.7047  MISS %:    9.29529  MPKI: 1.35534
L2C RFO DATA	ACCESS:     286685  HIT:     238841  MISS:      47844  HIT %:    83.3113  MISS %:    16.6887  MPKI: 0.95688
L2C PREFETCH DATA	ACCESS:     184043  HIT:     114742  MISS:      69301  HIT %:    62.3452  MISS %:    37.6548  MPKI: 1.38602
L2C WRITEBACK DATA	ACCESS:     523064  HIT:     509045  MISS:      14019  HIT %:    97.3198  MISS %:    2.68017  MPKI: 0.28038
L2C LOAD TRANSLATION DATA	ACCESS:       1854  HIT:        590  MISS:       1264  HIT %:    31.8231  MISS %:    68.1769  MPKI: 0.02528
L2C TRANSLATION FROM L1D PREFETCHER DATA	ACCESS:         51  HIT:         38  MISS:         13  HIT %:    74.5098  MISS %:    25.4902  MPKI: 0.00026

L2C PREFETCH  REQUESTED:      87259  ISSUED:      87259  USEFUL:       7790  USELESS:      62157
L2C USEFUL LOAD PREFETCHES:       7790 PREFETCH ISSUED TO LOWER LEVEL:      69857  ACCURACY: 11.1514
 TIMELY PREFETCHES:       7790 LATE PREFETCHES: 556 DROPPED PREFETCHES: 0
L2C AVERAGE MISS LATENCY: 39.9935 cycles
L2C RQ	ACCESS:    3781678	FORWARD:          0	MERGED:          0	TO_CACHE:    3781624
L2C WQ	ACCESS:     523064	FORWARD:         54	MERGED:          0	TO_CACHE:     523064
L2C PQ	ACCESS:     191537	FORWARD:          0	MERGED:       3323	TO_CACHE:     188214

L2C Dense regions hint from L2: 0
PSCL5 TOTAL     ACCESS:       4132  HIT:       2066  MISS:       2066  HIT %:         50  MISS %:         50   MPKI: 0.04132
PSCL5 LOAD TRANSLATION INSTRUCTION	ACCESS:       4030  HIT:       2015  MISS:       2015  HIT %:         50  MISS %:         50  MPKI: 0.0403
PSCL5 TRANSLATION FROM L1D PREFETCHER INSTRUCTION	ACCESS:        102  HIT:         51  MISS:         51  HIT %:         50  MISS %:         50  MPKI: 0.00102


PSCL4 TOTAL     ACCESS:       3673  HIT:       1831  MISS:       1842  HIT %:    49.8503  MISS %:    50.1497   MPKI: 0.03684
PSCL4 LOAD TRANSLATION INSTRUCTION	ACCESS:       1878  HIT:       1781  MISS:         97  HIT %:    94.8349  MISS %:    5.16507  MPKI: 0.00194
PSCL4 TRANSLATION FROM L1D PREFETCHER INSTRUCTION	ACCESS:         50  HIT:         50  MISS:          0  HIT %:        100  MISS %:          0  MPKI: 0
PSCL4 LOAD TRANSLATION DATA	ACCESS:       1695  HIT:          0  MISS:       1695  HIT %:          0  MISS %:        100  MPKI: 0.0339
PSCL4 TRANSLATION FROM L1D PREFETCHER DATA	ACCESS:         50  HIT:          0  MISS:         50  HIT %:          0  MISS %:        100  MPKI: 0.001


PSCL3 TOTAL     ACCESS:       3717  HIT:       1853  MISS:       1864  HIT %:     49.852  MISS %:     50.148   MPKI: 0.03728
PSCL3 LOAD TRANSLATION INSTRUCTION	ACCESS:       1900  HIT:       1803  MISS:         97  HIT %:    94.8947  MISS %:    5.10526  MPKI: 0.00194
PSCL3 TRANSLATION FROM L1D PREFETCHER INSTRUCTION	ACCESS:         50  HIT:         50  MISS:          0  HIT %:        100  MISS %:          0  MPKI: 0
PSCL3 LOAD TRANSLATION DATA	ACCESS:       1717  HIT:          0  MISS:       1717  HIT %:          0  MISS %:        100  MPKI: 0.03434
PSCL3 TRANSLATION FROM L1D PREFETCHER DATA	ACCESS:         50  HIT:          0  MISS:         50  HIT %:          0  MISS %:        100  MPKI: 0.001


PSCL2 TOTAL     ACCESS:       4033  HIT:       1967  MISS:       2066  HIT %:    48.7726  MISS %:    51.2274   MPKI: 0.04132
PSCL2 LOAD TRANSLATION INSTRUCTION	ACCESS:       2160  HIT:       1916  MISS:        244  HIT %:    88.7037  MISS %:    11.2963  MPKI: 0.00488
PSCL2 TRANSLATION FROM L1D PREFETCHER INSTRUCTION	ACCESS:         51  HIT:         51  MISS:          0  HIT %:        100  MISS %:          0  MPKI: 0
PSCL2 LOAD TRANSLATION DATA	ACCESS:       1771  HIT:          0  MISS:       1771  HIT %:          0  MISS %:        100  MPKI: 0.03542
PSCL2 TRANSLATION FROM L1D PREFETCHER DATA	ACCESS:         51  HIT:          0  MISS:         51  HIT %:          0  MISS %:        100  MPKI: 0.00102


LLC TOTAL     ACCESS:     486605  HIT:     456731  MISS:      29874  HIT %:    93.8607  MISS %:    6.13927   MPKI: 0.59748
LLC LOAD INSTRUCTION	ACCESS:     230196  HIT:     229179  MISS:       1017  HIT %:    99.5582  MISS %:   0.441797  MPKI: 0.02034
LLC LOAD TRANSLATION INSTRUCTION	ACCESS:        205  HIT:        180  MISS:         25  HIT %:    87.8049  MISS %:    12.1951  MPKI: 0.0005
LLC LOAD DATA	ACCESS:      67246  HIT:      63831  MISS:       3415  HIT %:    94.9216  MISS %:    5.07837  MPKI: 0.0683
LLC RFO DATA	ACCESS:      47799  HIT:      32414  MISS:      15385  HIT %:    67.8131  MISS %:    32.1869  MPKI: 0.3077
LLC PREFETCH DATA	ACCESS:      69857  HIT:      60323  MISS:       9534  HIT %:    86.3521  MISS %:    13.6479  MPKI: 0.19068
LLC WRITEBACK DATA	ACCESS:      70025  HIT:      69633  MISS:        392  HIT %:    99.4402  MISS %:     0.5598  MPKI: 0.00784
LLC LOAD TRANSLATION DATA	ACCESS:       1264  HIT:       1159  MISS:        105  HIT %:     91.693  MISS %:    8.30696  MPKI: 0.0021
LLC TRANSLATION FROM L1D PREFETCHER DATA	ACCESS:         13  HIT:         12  MISS:          1  HIT %:    92.3077  MISS %:    7.69231  MPKI: 2e-05

LLC AVERAGE MISS LATENCY: 156.322 cycles
LLC RQ	ACCESS:     346733	FORWARD:          0	MERGED:          0	TO_CACHE:     346723
LLC WQ	ACCESS:      70025	FORWARD:         10	MERGED:          0	TO_CACHE:      70025
LLC PQ	ACCESS:      69857	FORWARD:          0	MERGED:          0	TO_CACHE:      69857

LLC Dense regions hint to LLC: 0

RAW hits: 1949264
Loads Generated: 12639511
Loads sent to L1D: 10690247
Stores Generated: 6949900
Stores sent to L1D: 6949900
Major fault: 0 Minor fault: 2551
Allocated PAGES: 2551

stream: 
stream:times selected: 1182682
stream:pref_filled: 123643
stream:pref_useful: 24295
stream:pref_late: 6614
stream:misses: 7995
stream:misses_by_poll: 0

CS: 
CS:times selected: 177694
CS:pref_filled: 59789
CS:pref_useful: 36552
CS:pref_late: 7017
CS:misses: 16836
CS:misses_by_poll: 1

CPLX: 
CPLX:times selected: 1003752
CPLX:pref_filled: 20086
CPLX:pref_useful: 4814
CPLX:pref_late: 3121
CPLX:misses: 93903
CPLX:misses_by_poll: 0

NL_L1: 
NL:times selected: 21154
NL:pref_filled: 856
NL:pref_useful: 399
NL:pref_late: 291
NL:misses: 1880
NL:misses_by_poll: 0

total selections: 2385282
total_filled: 96180
total_useful: 35020
total_late: 18392
total_polluted: 1
total_misses_after_warmup: 772060
conflicts: 5520354

test: 118881

DRAM Statistics
 CHANNEL 0
 RQ ROW_BUFFER_HIT:      11267  ROW_BUFFER_MISS:      18199
 DBUS_CONGESTED:          7
 WQ ROW_BUFFER_HIT:       1426  ROW_BUFFER_MISS:      12463  FULL:          0

 AVG_CONGESTED_CYCLE: 4

CPU 0 Branch Prediction Accuracy: 99.8224% MPKI: 0.3247 Average ROB Occupancy at Mispredict: 195.489
Branch types
NOT_BRANCH: 40859959 81.7199%
BRANCH_DIRECT_JUMP: 546686 1.09337%
BRANCH_INDIRECT: 182830 0.36566%
BRANCH_CONDITIONAL: 6179284 12.3586%
BRANCH_DIRECT_CALL: 944188 1.88838%
BRANCH_INDIRECT_CALL: 171217 0.342434%
BRANCH_RETURN: 1115384 2.23077%
BRANCH_OTHER: 0 0%

DRAM PAGES: 1048576
Allocated PAGES: 2551
Average_ROB_Occupancy: 250.476
Average_Decode_Occupancy: 37.8975
Average_FTQ_Occupancy: 14.8236
Indirect max targets: 14 Average targets: 1.14915
Branch_type:  BRANCH_DIRECT_JUMP:  Count Percentage: 3.63652 6.64181 3.55445 8.24334 1.87287 6.34168 1.66038 68.0489 
Branch_type:  BRANCH_INDIRECT:  Count Percentage: 6.10941 3.41666 8.1456 9.68486 3.34739 2.81294 3.89059 62.5925 
Branch_type:  BRANCH_CONDITIONAL:  Count Percentage: 25.1231 3.49214 0.870614 4.98018 2.0006 4.0397 2.35348 57.1402 
Branch_type:  BRANCH_DIRECT_CALL:  Count Percentage: 0.90379 1.30861 0.419143 4.0103 2.34684 2.61171 3.39465 85.005 
Branch_type:  BRANCH_INDIRECT_CALL:  Count Percentage: 5.2889 0 7.29899 0 0 1.71739 5.00058 80.6941 
Branch_type:  BRANCH_RETURN:  Count Percentage: 8.32406 1.22665 1.18992 4.45199 3.27473 4.31622 2.89822 74.3182 
Branch_type:  BRANCH_DIRECT_JUMP:  Total Count: 39791 72675 38893 90199 20493 69391 18168 744595 
Branch_type:  BRANCH_INDIRECT:  Total Count: 22314 12479 29751 35373 12226 10274 14210 228613 
Branch_type:  BRANCH_CONDITIONAL:  Total Count: 3103920 431448 107563 615293 247171 499099 290769 7059575 
Branch_type:  BRANCH_DIRECT_CALL:  Total Count: 17095 24752 7928 75854 44390 49400 64209 1607851 
Branch_type:  BRANCH_INDIRECT_CALL:  Total Count: 18142 0 25037 0 0 5891 17153 276797 
Branch_type:  BRANCH_RETURN:  Total Count: 186065 27419 26598 99514 73199 96479 64783 1661211 
Number of unique branch instructions: 9855
Upper 32 bits: 
aaaa
ffff
ffff0000
Unique upper 32 bits: 3
Unique upper 36 bits: 3
Unique upper 40 bits: 5
Unique upper 44 bits: 32
Unique upper 48 bits: 153
Variant_0 : 1378 0.336426
Variant_1 : 2637 0.643799
Variant_2 : 0 0
Variant_3 : 0 0
Offset_3 4064
Offset_4 244
Offset_5 448
Offset_6 500
Offset_7 578
Offset_8 514
Offset_9 464
Offset_10 375
Offset_11 313
Offset_12 269
Offset_13 203
Offset_14 225
Offset_15 189
Offset_16 219
Offset_17 144
Offset_18 126
Offset_19 235
Offset_20 139
Offset_21 235
Offset_22 389
Offset_23 241
Offset_24 331
Offset_25 88
Offset_47 82
decode_dispatch_called: 26195271 73.161
Dispatch_width: 0 14060620 53.6762 39.27
Dispatch_width: 1 1024026 3.9092 2.86001
Dispatch_width: 2 851472 3.25048 2.37808
Dispatch_width: 3 500368 1.91015 1.39748
Dispatch_width: 4 6335277 24.1848 17.6938
Dispatch_width: 5 110526 0.421931 0.308689
Dispatch_width: 6 3312982 12.6473 9.25285
Empty_decode_cycles: 9609713 26.839
ROB_full_cycles: 10047801 28.0626
Starvation_cycles_per_kilo_instr: 224.442
Starvation_cycles_per_kilo_instr_3: 159.984
Starvation_cycles_per_kilo_instr_0: 136.225
Branch_type_1  (3,1)  (4,7)  (5,36)  (6,69)  (7,114)  (8,127)  (9,123)  (10,98)  (11,70)  (12,44)  (13,5)  (14,2)  (15,3)  (16,4)  (18,1)  (19,4)  (20,2)  (21,1)  (22,3)  (23,2)  (24,10)  (25,12) 
Branch_type_2  (3,1)  (5,1)  (8,3)  (9,3)  (12,1)  (13,1)  (14,1)  (16,3)  (17,2)  (20,2)  (21,2)  (23,5)  (24,1)  (47,38) 
Branch_type_3  (3,4062)  (4,237)  (5,407)  (6,415)  (7,433)  (8,323)  (9,255)  (10,150)  (11,128)  (12,51)  (13,4) 
Branch_type_4  (6,4)  (7,8)  (8,26)  (9,51)  (10,60)  (11,59)  (12,95)  (13,88)  (14,99)  (15,89)  (16,98)  (17,64)  (18,57)  (19,114)  (20,72)  (21,124)  (22,207)  (23,136)  (24,193)  (25,72) 
Branch_type_5  (8,2)  (9,1)  (10,3)  (11,5)  (12,3)  (13,14)  (14,16)  (15,11)  (16,20)  (17,11)  (18,16)  (19,12)  (20,10)  (21,13)  (22,42)  (23,26)  (24,36) 
Branch_type_6  (5,4)  (6,12)  (7,23)  (8,33)  (9,31)  (10,64)  (11,51)  (12,75)  (13,91)  (14,107)  (15,86)  (16,94)  (17,67)  (18,52)  (19,105)  (20,53)  (21,95)  (22,137)  (23,72)  (24,91)  (25,4)  (47,44) 
Unique trigger count: 
Variant_0_evicts_0 : 0
Variant_0_evicts_1 : 0
Variant_0_evicts_2 : 0
Variant_0_evicts_3 : 0
Variant_1_evicts_0 : 0
Variant_1_evicts_1 : 0
Variant_1_evicts_2 : 0
Variant_1_evicts_3 : 0
Variant_2_evicts_0 : 0
Variant_2_evicts_1 : 0
Variant_2_evicts_2 : 0
Variant_2_evicts_3 : 0
Variant_3_evicts_0 : 0
Variant_3_evicts_1 : 0
Variant_3_evicts_2 : 0
Variant_3_evicts_3 : 0
BTB PER SET UNIQUE ADDR: 6 9 7 9 8 8 7 11 8 12 10 13 11 8 10 7 6 11 9 15 7 8 11 12 11 10 14 12 11 10 9 9 12 9 9 9 9 12 7 7 13 8 10 12 8 9 11 9 8 9 10 12 6 9 7 7 8 9 8 11 8 12 10 11 13 9 11 7 12 6 10 11 9 9 11 5 9 11 9 13 9 9 9 10 10 13 11 9 7 16 10 9 10 9 6 12 10 9 7 8 12 12 8 10 9 12 7 10 6 6 6 11 11 10 10 6 9 12 10 9 11 7 10 9 10 8 4 8 16 8 9 13 9 11 8 9 9 13 8 11 7 12 9 11 10 12 12 10 10 13 12 11 5 9 7 8 10 8 10 8 12 6 9 8 10 6 12 6 12 11 8 9 10 11 7 9 13 6 8 11 7 7 9 15 8 11 5 10 9 8 9 9 11 11 9 7 8 9 8 11 13 13 8 11 9 8 10 8 10 7 5 12 10 13 7 7 7 10 8 14 6 15 5 9 11 9 11 13 8 14 9 4 9 8 9 9 12 9 10 7 10 9 9 13 10 7 8 9 10 11 11 13 8 7 10 12 9 9 8 8 10 5 4 11 8 6 9 7 7 8 7 9 11 6 5 5 7 10 9 8 8 8 10 6 8 7 8 8 11 12 11 7 10 9 6 10 7 7 6 11 7 8 6 13 9 10 7 8 12 9 7 14 6 15 10 9 10 8 10 11 6 10 9 10 12 14 11 8 8 8 8 11 6 13 7 11 11 12 7 13 7 9 5 10 8 8 11 8 12 11 9 10 11 9 10 9 9 11 10 9 9 16 8 11 7 9 9 9 8 12 10 5 10 8 9 14 9 10 8 12 9 8 7 9 8 7 11 10 7 9 13 8 8 13 9 10 6 9 11 10 7 8 8 8 9 10 11 11 8 9 12 9 5 10 9 8 10 10 15 14 7 11 8 11 15 6 14 7 13 7 13 11 8 12 9 14 12 7 9 11 11 5 7 8 13 6 7 10 8 8 10 14 12 7 6 9 9 13 5 12 12 11 12 13 15 6 9 11 8 16 8 10 11 11 11 13 10 16 6 13 9 7 10 11 8 13 13 10 13 10 6 10 12 9 10 9 11 8 6 11 14 12 9 16 5 6 6 10 10 10 8 9 10 10 9 12 9 12 9 9 7 11 9 9 10 12 9 5 7 11 17 7 12 7 8 11 7 16 12 9 11 7 9 6 10 11 7 9 11 7 9 10 10 10 9 11 7 10 14 10 7 15 10 12 12 11 7 10 8 13 10 14 10 11 11 11 10 14 10 6 11 9 8 9 10 12 9 10 13 8 5 7 10 8 11 11 9 12 11 8 10 8 6 7 9 9 13 7 11 12 9 14 5 10 5 12 10 7 7 10 14 6 7 6 10 10 7 12 7 9 10 11 9 10 6 7 13 10 7 13 10 8 12 11 9 8 7 8 12 7 8 12 8 10 10 7 13 9 9 10 9 9 11 9 8 8 11 11 9 8 9 7 8 12 14 11 7 8 9 11 9 10 9 10 9 10 5 10 11 9 8 10 6 7 10 10 10 11 8 10 6 11 7 15 7 13 12 9 8 6 9 11 7 8 7 7 12 11 7 10 9 12 12 11 9 10 8 6 11 12 10 8 9 7 8 10 10 10 11 9 10 9 9 9 11 13 7 9 11 9 10 8 8 11 8 9 12 14 7 9 10 4 8 9 7 10 6 7 10 11 11 12 11 7 11 10 9 8 9 9 5 11 12 9 10 9 9 10 7 7 8 7 11 9 8 10 5 11 11 11 12 8 14 14 11 8 7 9 9 9 14 10 10 7 10 14 12 13 6 11 6 12 7 10 11 8 8 7 7 11 10 6 11 7 8 14 9 9 12 8 10 12 10 10 8 12 9 15 10 8 6 9 9 9 9 10 13 11 9 11 6 6 9 7 10 10 9 6 10 11 11 13 11 10 10 8 9 7 8 11 9 6 9 11 12 10 13 7 11 8 13 8 10 8 9 12 17 9 7 10 7 8 10 9 7 10 6 10 11 12 8 14 6 14 14 10 12 10 8 13 9 11 9 8 6 11 6 7 13 9 15 14 9 10 12 11 10 8 8 10 6 8 10 11 10 12 7 11 9 9 10 5 7 9 8 12 8 8 12 11 7 12 10 11 9 12 9 9 8 14 10 9 10 10 7 7 12 10 13 12 10 16 11 8 8 10 10 11 8 9 10 12 8 9 10 6 3 11 12 9 13 13 7 10 10 9 7 8 12 10 8 13 10 7 8 7 7 10 7 8 5 11 9 7 
BTB PER SET COUNT: 970 10 1481 9 1247 8 7 440 9 12 14 319 135 11 10 7 1987 2043 14 19 11 415 730 14 22 11 15 12 13 12 10 1033 14 10 12 839 11 16 7 8 19 15 14 2371 1479 28 11 9 10 10 11 99 6 11 7 365 20 11 8 11 8 12 499 13 18 9 13 2949 19 6 16 413 14 10 15 5 14 11 12 16 13 14 449 10 15 19 13 17 8 22 11 809 22 691 6 13 150 1004 7 8 17 16 8 10 2162 12 8 12 966 1212 6 38 761 17 16 6 9 23 600 15 16 47 16 10 12 150 4 13 23 970 10 15 10 15 15 12 994 13 13 13 8 14 10 13 16 204 243 12 10 29 14 13 5 10 7 8 1002 8 13 8 13 6 17 8 63 6 14 6 14 1528 12 9 13 23 10 13 16 7 8 667 17 285 15 20 13 15 5 15 10 1479 9 10 13 14 9 177 8 9 8 168 16 90 9 16 13 8 12 10 13 1855 5 23 11 15 12 998 8 12 2001 17 11 19 7 12 13 12 15 131 13 21 9 4 9 10 9 9 20 491 12 7 14 11 490 16 15 8 10 13 12 11 19 15 8 7 12 15 69 384 8 9 1001 5 4 496 9 6 9 7 1918 11 8 10 487 8 5 5 7 10 10 9 13 8 10 6 8 8 8 12 11 14 17 10 10 11 6 18 7 7 6 525 7 8 6 17 10 168 10 491 13 503 7 18 7 19 13 85 13 8 12 23 13 3145 14 10 13 186 359 9 9 11 9 13 6 15 8 11 12 445 8 14 9 189 5 20 8 10 16 10 16 142 12 10 12 9 13 9 12 13 234 9 9 20 12 15 7 870 11 9 8 13 11 363 12 447 9 322 10 12 10 1493 11 8 12 9 10 7 12 10 10 981 528 8 8 116 11 10 6 12 11 12 7 8 622 9 10 14 19 613 8 13 20 11 6 15 11 8 10 12 19 18 8 16 9 15 19 6 798 7 15 8 23 12 8 13 13 26 17 586 9 14 15 7 10 9 15 7 465 10 11 9 12 16 14 7 7 14 12 14 5 17 19 14 30 22 22 6 9603 13 9 24 8 13 11 12 13 15 15 21 6 13 11 8 10 12 14 19 494 11 219 11 116 15 13 9 13 11 1661 8 7 15 16 20 11 80 5 8 6 11 12 11 8 12 450 394 10 14 9 18 10 11 7 13 10 522 15 13 10 6 11 138 18 10 16 8 9 12 876 410 17 9 12 7 31 6 12 17 8 10 14 1522 9 10 11 26 11 14 9 10 17 12 7 25 12 14 347 16 118 10 8 26 13 20 11 20 1483 15 15 178 11 6 14 11 11 1749 11 14 10 10 19 14 5 395 11 10 14 18 1708 372 72 8 12 8 7 7 15 11 19 2440 12 16 9 17 6 13 5 16 448 7 10 11 16 9 9 969 10 14 7 16 8 9 16 13 975 12 6 11 14 10 7 25 11 9 12 16 9 13 9 12 16 7 9 18 9 11 19 489 18 15 861 11 12 13 12 10 20628 8 15 1004 1481 10 14 8 16 16 668 360 8 9 9 16 12 13 1481 44 10 12 5 15 355 10 8 10 6 8 427 12 1000 285 12 11 9 23 7 21 7 161 12 11 10 7 207 14 971 9 10 7 13 16 19 12 9 1154 16 22 12 12 11 6 12 1063 226 5225 159 7 13 1989 13 10 12 9 40 10 349 16 15 16 858 12 20 10 1482 9 613 1486 1483 13 13 371 7 11 13 5 11 446 2895 13 6 8 14 15 13 17 17 7 13 14 11 857 13 11 1447 30 378 9 10 11 12 13 7 7 8 8 12 10 1357 14 178 14 14 19 14 10 314 18 12 10 8 19 11 62 22 7793 21 8 14 684 13 2579 9 2780 6 952 7 16 1269 8 9 7 8 11 11 8 16 9 30 1999 11 13 373 9 13 738 12 12 9 16 490 19 14 11 8 955 9 9 1001 16 14 17 17 12 7 6 9 9 13 12 12 7 12 19 175 22 17 13 14 8 9 10 9 16 10 6 9 13 14 11 16 12 14 12 18 8 13 8 10 19 24 10 8 11 8 8 14 9 7 16 6 12 11 330 10 189 6 24 21 16 28 1177 13 20 12 128 491 1472 6 612 6 7 15 23 19 14 1119 14 17 17 11 10 11 18 6 1361 12 11 10 14 12 14 11 10 390 45 8 81 8 15 8 10 13 11 7 12 538 12 14 13 9 10 12 16 66 2350 18 12 1480 8 20 11 14 898 2227 677 1732 409 10 16 15 13 10 10 12 13 267 13 11 6 3 1489 15 1949 14 247 7 14 12 10 7 8 14 13 8 111 15 8 11 7 10 14 8 11 6 16 9 8 
To predecode: 0
Predecoding something: 0
Predecode request dropped: 0
sizeofblock_0 0
sizeofblock_1 46543
sizeofblock_2 92484
sizeofblock_3 0
sizeofblock_4 0
sizeofblock_5 0
sizeofblock_6 0
sizeofblock_7 0
sizeofblock_8 0
Variant_0 Correct: 1616420 Incorrect: 0 Accuracy: 1
Variant_1 Correct: 5743749 Incorrect: 0 Accuracy: 1
Variant_2 Correct: 0 Incorrect: 0 Accuracy: -nan
Variant_3 Correct: 0 Incorrect: 0 Accuracy: -nan
