
*** ChampSim Multicore Out-of-Order Simulator ***

Warmup Instructions: 50000000
Simulation Instructions: 50000000
Number of CPUs: 1
LLC sets: 2048
LLC ways: 16
Off-chip DRAM Size: 4096 MB Channels: 1 Width: 64-bit Data Rate: 6400 MT/s
CPU 0 runs ./micro_traces/srv660.trace.gz
.gz
ITLB has LRU replacement policy
DTLB has LRU replacement policy
STLB has LRU replacement policy
FDIP Prefetcher at L1I
L1I has LRU replacement policy
L1D has LRU replacement policy
Initialize SRRIP state for L2C
Initialize DRRIP state for LLC
Heartbeat_Variant_0 : 1334 0.325684 per_variant_size: 0 1334 0 0 0 0 0 0 0 
Heartbeat_Variant_1 : 998 0.243652 per_variant_size: 0 149 849 0 0 0 0 0 0 
Heartbeat_Variant_2 : 842 0.205566 per_variant_size: 0 129 92 109 512 0 0 0 0 
Heartbeat_Variant_3 : 0 0 per_variant_size: 0 0 0 0 0 0 0 0 0 
Heartbeat_Variant_0_evicts 0 : 5579 1 : 0 2 : 2 3 : 0 
Heartbeat_Variant_1_evicts 0 : 0 1 : 0 2 : 195 3 : 0 
Heartbeat_Variant_2_evicts 0 : 0 1 : 195 2 : 0 3 : 0 
Heartbeat_Variant_3_evicts 0 : 0 1 : 0 2 : 0 3 : 0 
Heartbeat CPU 0 instructions: 10000001 cycles: 2795760 heartbeat IPC: 3.57685 cumulative IPC: 3.57685 (Simulation time: 0 hr 2 min 0 sec) 
Heartbeat_Variant_0 : 1379 0.33667 per_variant_size: 0 1379 0 0 0 0 0 0 0 
Heartbeat_Variant_1 : 1042 0.254395 per_variant_size: 0 155 887 0 0 0 0 0 0 
Heartbeat_Variant_2 : 873 0.213135 per_variant_size: 0 135 88 130 520 0 0 0 0 
Heartbeat_Variant_3 : 0 0 per_variant_size: 0 0 0 0 0 0 0 0 0 
Heartbeat_Variant_0_evicts 0 : 5572 1 : 0 2 : 0 3 : 0 
Heartbeat_Variant_1_evicts 0 : 0 1 : 0 2 : 194 3 : 0 
Heartbeat_Variant_2_evicts 0 : 0 1 : 195 2 : 0 3 : 0 
Heartbeat_Variant_3_evicts 0 : 0 1 : 0 2 : 0 3 : 0 
Heartbeat CPU 0 instructions: 20000002 cycles: 5591423 heartbeat IPC: 3.57697 cumulative IPC: 3.57691 (Simulation time: 0 hr 4 min 7 sec) 
Heartbeat_Variant_0 : 1420 0.34668 per_variant_size: 0 1420 0 0 0 0 0 0 0 
Heartbeat_Variant_1 : 1077 0.262939 per_variant_size: 0 157 920 0 0 0 0 0 0 
Heartbeat_Variant_2 : 891 0.217529 per_variant_size: 0 131 88 115 557 0 0 0 0 
Heartbeat_Variant_3 : 0 0 per_variant_size: 0 0 0 0 0 0 0 0 0 
Heartbeat_Variant_0_evicts 0 : 5427 1 : 0 2 : 0 3 : 0 
Heartbeat_Variant_1_evicts 0 : 1 1 : 0 2 : 195 3 : 0 
Heartbeat_Variant_2_evicts 0 : 0 1 : 192 2 : 0 3 : 0 
Heartbeat_Variant_3_evicts 0 : 0 1 : 0 2 : 0 3 : 0 
Heartbeat CPU 0 instructions: 30000002 cycles: 8386312 heartbeat IPC: 3.57796 cumulative IPC: 3.57726 (Simulation time: 0 hr 6 min 13 sec) 
Heartbeat_Variant_0 : 1434 0.350098 per_variant_size: 0 1434 0 0 0 0 0 0 0 
Heartbeat_Variant_1 : 1094 0.26709 per_variant_size: 0 154 940 0 0 0 0 0 0 
Heartbeat_Variant_2 : 904 0.220703 per_variant_size: 0 126 97 116 565 0 0 0 0 
Heartbeat_Variant_3 : 0 0 per_variant_size: 0 0 0 0 0 0 0 0 0 
Heartbeat_Variant_0_evicts 0 : 5637 1 : 2 2 : 0 3 : 0 
Heartbeat_Variant_1_evicts 0 : 1 1 : 0 2 : 196 3 : 0 
Heartbeat_Variant_2_evicts 0 : 0 1 : 197 2 : 0 3 : 0 
Heartbeat_Variant_3_evicts 0 : 0 1 : 0 2 : 0 3 : 0 
Heartbeat CPU 0 instructions: 40000002 cycles: 11182562 heartbeat IPC: 3.57622 cumulative IPC: 3.577 (Simulation time: 0 hr 8 min 20 sec) 
Heartbeat_Variant_0 : 1434 0.350098 per_variant_size: 0 1434 0 0 0 0 0 0 0 
Heartbeat_Variant_1 : 1094 0.26709 per_variant_size: 0 154 940 0 0 0 0 0 0 
Heartbeat_Variant_2 : 904 0.220703 per_variant_size: 0 127 96 107 574 0 0 0 0 
Heartbeat_Variant_3 : 0 0 per_variant_size: 0 0 0 0 0 0 0 0 0 
Heartbeat_Variant_0_evicts 0 : 5587 1 : 0 2 : 0 3 : 0 
Heartbeat_Variant_1_evicts 0 : 0 1 : 0 2 : 196 3 : 0 
Heartbeat_Variant_2_evicts 0 : 0 1 : 196 2 : 0 3 : 0 
Heartbeat_Variant_3_evicts 0 : 0 1 : 0 2 : 0 3 : 0 
Heartbeat CPU 0 instructions: 50000000 cycles: 13980076 heartbeat IPC: 3.5746 cumulative IPC: 3.57652 (Simulation time: 0 hr 10 min 21 sec) 

Warmup complete CPU 0 instructions: 50000004 cycles: 13980077 (Simulation time: 0 hr 10 min 21 sec) 

Cycle: 20000000 FTQ IN: 58157160 FTQ occupancy: 19.9691 DECODE IN: 58157048 DECODE occupancy: 51.9705 ROB IN: 58156988 ROB occupancy: 312.953 ROB OUT: 58156640
Heartbeat_Variant_0 : 1519 0.37085 per_variant_size: 0 1519 0 0 0 0 0 0 0 
Heartbeat_Variant_1 : 1174 0.286621 per_variant_size: 0 165 1009 0 0 0 0 0 0 
Heartbeat_Variant_2 : 943 0.230225 per_variant_size: 0 131 96 124 592 0 0 0 0 
Heartbeat_Variant_3 : 0 0 per_variant_size: 0 0 0 0 0 0 0 0 0 
Heartbeat_Variant_0_evicts 0 : 5521 1 : 1 2 : 0 3 : 0 
Heartbeat_Variant_1_evicts 0 : 1 1 : 0 2 : 193 3 : 0 
Heartbeat_Variant_2_evicts 0 : 2 1 : 193 2 : 0 3 : 0 
Heartbeat_Variant_3_evicts 0 : 0 1 : 0 2 : 0 3 : 0 
Heartbeat CPU 0 instructions: 60000001 cycles: 21364107 heartbeat IPC: 1.35427 cumulative IPC: 1.35427 (Simulation time: 0 hr 12 min 30 sec) 
Heartbeat_Variant_0 : 1519 0.37085 per_variant_size: 0 1519 0 0 0 0 0 0 0 
Heartbeat_Variant_1 : 1174 0.286621 per_variant_size: 0 166 1008 0 0 0 0 0 0 
Heartbeat_Variant_2 : 943 0.230225 per_variant_size: 0 130 97 118 598 0 0 0 0 
Heartbeat_Variant_3 : 0 0 per_variant_size: 0 0 0 0 0 0 0 0 0 
Heartbeat_Variant_0_evicts 0 : 5638 1 : 0 2 : 0 3 : 0 
Heartbeat_Variant_1_evicts 0 : 0 1 : 0 2 : 196 3 : 0 
Heartbeat_Variant_2_evicts 0 : 0 1 : 196 2 : 0 3 : 0 
Heartbeat_Variant_3_evicts 0 : 0 1 : 0 2 : 0 3 : 0 
Heartbeat CPU 0 instructions: 70000001 cycles: 28562710 heartbeat IPC: 1.38916 cumulative IPC: 1.37149 (Simulation time: 0 hr 15 min 0 sec) 
Cycle: 30000000 FTQ IN: 13838598 FTQ occupancy: 13.1759 DECODE IN: 13838682 DECODE occupancy: 33.9936 ROB IN: 13838682 ROB occupancy: 232.592 ROB OUT: 13838949
Heartbeat_Variant_0 : 1519 0.37085 per_variant_size: 0 1519 0 0 0 0 0 0 0 
Heartbeat_Variant_1 : 1174 0.286621 per_variant_size: 0 167 1007 0 0 0 0 0 0 
Heartbeat_Variant_2 : 943 0.230225 per_variant_size: 0 131 96 118 598 0 0 0 0 
Heartbeat_Variant_3 : 0 0 per_variant_size: 0 0 0 0 0 0 0 0 0 
Heartbeat_Variant_0_evicts 0 : 5567 1 : 0 2 : 0 3 : 0 
Heartbeat_Variant_1_evicts 0 : 0 1 : 0 2 : 196 3 : 0 
Heartbeat_Variant_2_evicts 0 : 0 1 : 196 2 : 0 3 : 0 
Heartbeat_Variant_3_evicts 0 : 0 1 : 0 2 : 0 3 : 0 
Heartbeat CPU 0 instructions: 80000000 cycles: 35845859 heartbeat IPC: 1.37303 cumulative IPC: 1.37201 (Simulation time: 0 hr 17 min 28 sec) 
Cycle: 40000000 FTQ IN: 13742307 FTQ occupancy: 13.3224 DECODE IN: 13742335 DECODE occupancy: 34.1562 ROB IN: 13742395 ROB occupancy: 233.479 ROB OUT: 13742473
Heartbeat_Variant_0 : 1519 0.37085 per_variant_size: 0 1519 0 0 0 0 0 0 0 
Heartbeat_Variant_1 : 1174 0.286621 per_variant_size: 0 163 1011 0 0 0 0 0 0 
Heartbeat_Variant_2 : 944 0.230469 per_variant_size: 0 130 98 116 600 0 0 0 0 
Heartbeat_Variant_3 : 0 0 per_variant_size: 0 0 0 0 0 0 0 0 0 
Heartbeat_Variant_0_evicts 0 : 5532 1 : 0 2 : 0 3 : 0 
Heartbeat_Variant_1_evicts 0 : 0 1 : 0 2 : 194 3 : 0 
Heartbeat_Variant_2_evicts 0 : 0 1 : 194 2 : 0 3 : 0 
Heartbeat_Variant_3_evicts 0 : 0 1 : 0 2 : 0 3 : 0 
Heartbeat CPU 0 instructions: 90000003 cycles: 43072441 heartbeat IPC: 1.38378 cumulative IPC: 1.37493 (Simulation time: 0 hr 19 min 44 sec) 
Cycle: 50000000 FTQ IN: 13765137 FTQ occupancy: 13.3379 DECODE IN: 13765078 DECODE occupancy: 34.1836 ROB IN: 13765059 ROB occupancy: 233.259 ROB OUT: 13764857
Heartbeat_Variant_0 : 1519 0.37085 per_variant_size: 0 1519 0 0 0 0 0 0 0 
Heartbeat_Variant_1 : 1174 0.286621 per_variant_size: 0 165 1009 0 0 0 0 0 0 
Heartbeat_Variant_2 : 944 0.230469 per_variant_size: 0 129 99 122 594 0 0 0 0 
Heartbeat_Variant_3 : 0 0 per_variant_size: 0 0 0 0 0 0 0 0 0 
Heartbeat_Variant_0_evicts 0 : 5630 1 : 0 2 : 0 3 : 0 
Heartbeat_Variant_1_evicts 0 : 0 1 : 0 2 : 196 3 : 0 
Heartbeat_Variant_2_evicts 0 : 0 1 : 196 2 : 0 3 : 0 
Heartbeat_Variant_3_evicts 0 : 0 1 : 0 2 : 0 3 : 0 
Heartbeat CPU 0 instructions: 100000003 cycles: 50351477 heartbeat IPC: 1.37381 cumulative IPC: 1.37471 (Simulation time: 0 hr 21 min 44 sec) 
Finished CPU 0 instructions: 50000003 cycles: 36371401 cumulative IPC: 1.37471 (Simulation time: 0 hr 21 min 44 sec) 

ChampSim completed all CPUs

Region of Interest Statistics

CPU 0 cumulative IPC: 1.37471 instructions: 50000003 cycles: 36371401
 Fetch stage stalled: 53.6767  Sim cycles: 36371401 fetch stall cycle: 19522973
 Empty decode stage: 34.7539  Sim cycles: 36371401 fetch stall cycle: 12640493
ITLB TOTAL     ACCESS:    5867633  HIT:    5375254  MISS:     492379  HIT %:    91.6086  MISS %:    8.39144   MPKI: 9.84758
ITLB LOAD TRANSLATION INSTRUCTION	ACCESS:    5738811  HIT:    5246432  MISS:     492379  HIT %:    91.4202  MISS %:    8.57981  MPKI: 9.84758
ITLB TRANSLATION FROM L1D PREFETCHER INSTRUCTION	ACCESS:     128822  HIT:     128822  MISS:          0  HIT %:        100  MISS %:          0  MPKI: 0

ITLB AVERAGE MISS LATENCY: 9.06627 cycles
ITLB RQ	ACCESS:    7998945	FORWARD:          0	MERGED:    1686715	TO_CACHE:    6312230

DTLB TOTAL     ACCESS:    8958991  HIT:    8483165  MISS:     475826  HIT %:    94.6888  MISS %:    5.31116   MPKI: 9.51652
DTLB LOAD TRANSLATION DATA	ACCESS:    8958991  HIT:    8483165  MISS:     475826  HIT %:    94.6888  MISS %:    5.31116  MPKI: 9.51652

DTLB AVERAGE MISS LATENCY: 9.34239 cycles
DTLB RQ	ACCESS:   13318684	FORWARD:          0	MERGED:    4322482	TO_CACHE:    8996202

STLB TOTAL     ACCESS:    1218704  HIT:    1216646  MISS:       2058  HIT %:    99.8311  MISS %:   0.168868   MPKI: 0.04116
STLB LOAD TRANSLATION INSTRUCTION	ACCESS:     492379  HIT:     492103  MISS:        276  HIT %:    99.9439  MISS %:  0.0560544  MPKI: 0.00552
STLB LOAD TRANSLATION DATA	ACCESS:     475823  HIT:     474058  MISS:       1765  HIT %:    99.6291  MISS %:   0.370936  MPKI: 0.0353
STLB TRANSLATION FROM L1D PREFETCHER DATA	ACCESS:     250502  HIT:     250485  MISS:         17  HIT %:    99.9932  MISS %: 0.00678637  MPKI: 0.00034

STLB AVERAGE MISS LATENCY: 79.8965 cycles
STLB RQ	ACCESS:    1355115	FORWARD:          0	MERGED:     136383	TO_CACHE:    1218732

STLB Hit, L1D data hit: 0
STLB Hit, L2C data hit: 0
STLB Hit, LLC data hit: 0
STLB Hit, LLC data miss: 0
STLB STLB hints to L2: 0
L1D TOTAL     ACCESS:   13063378  HIT:   11914977  MISS:    1148401  HIT %:     91.209  MISS %:      8.791   MPKI: 22.968
L1D LOAD DATA	ACCESS:    6556422  HIT:    5799178  MISS:     757244  HIT %:    88.4503  MISS %:    11.5497  MPKI: 15.1449
L1D RFO DATA	ACCESS:    6175086  HIT:    5887164  MISS:     287922  HIT %:    95.3374  MISS %:    4.66264  MPKI: 5.75844
L1D PREFETCH DATA	ACCESS:     331870  HIT:     228635  MISS:     103235  HIT %:    68.8929  MISS %:    31.1071  MPKI: 2.0647

L1D PREFETCH  REQUESTED:     774115  ISSUED:     774115  USEFUL:      43882  USELESS:      70386
L1D USEFUL LOAD PREFETCHES:      43882 PREFETCH ISSUED TO LOWER LEVEL:     114318  ACCURACY: 38.3859
 TIMELY PREFETCHES:      43882 LATE PREFETCHES: 11011 DROPPED PREFETCHES: 4
L1D AVERAGE MISS LATENCY: 315114 cycles
L1D RQ	ACCESS:   10687568	FORWARD:          0	MERGED:    3932472	TO_CACHE:    6591724
L1D WQ	ACCESS:    6921301	FORWARD:     163667	MERGED:     194341	TO_CACHE:    6726960
L1D PQ	ACCESS:     387205	FORWARD:          0	MERGED:          0	TO_CACHE:     386910

L1D UNIQUE REGIONS ACCESSED: 0
L1D REGIONS CONFLICTS: 0
L1D Cross Page Prefetch Requests: 5835
L1D Same Page Prefetch Requests: 785300
L1D ROI Sum of L1D PQ occupancy: 4923180
L1D PREFETCHES PUSHED FROM L2C: 0
L1I TOTAL     ACCESS:    7169353  HIT:    4415442  MISS:    2753911  HIT %:    61.5877  MISS %:    38.4123   MPKI: 55.0782
L1I LOAD INSTRUCTION	ACCESS:    6493996  HIT:    3740085  MISS:    2753911  HIT %:     57.593  MISS %:     42.407  MPKI: 55.0782
L1I PREFETCH INSTRUCTION	ACCESS:     675357  HIT:     675357  MISS:          0  HIT %:        100  MISS %:          0  MPKI: 0

L1I PREFETCH  REQUESTED:    1602436  ISSUED:    1602436  USEFUL:          0  USELESS:          0
L1I USEFUL LOAD PREFETCHES:          0 PREFETCH ISSUED TO LOWER LEVEL:          0  ACCURACY: -nan
 TIMELY PREFETCHES:          0 LATE PREFETCHES: 0 DROPPED PREFETCHES: 0
L1I AVERAGE MISS LATENCY: 17.6559 cycles
L1I RQ	ACCESS:    9520343	FORWARD:          0	MERGED:    2699004	TO_CACHE:    6821339
L1I PQ	ACCESS:    1602436	FORWARD:          0	MERGED:     424830	TO_CACHE:    1177606

L1BTB TOTAL     ACCESS:    5676395  HIT:    2059296  MISS:    3617099  HIT %:    36.2782  MISS %:    63.7218   MPKI: 72.342
L1BTB BRANCH_DIRECT_JUMP	ACCESS:     546037  HIT:     143447  MISS:     402590	AVERAGE STALL: 45.8142
L1BTB BRANCH_INDIRECT	ACCESS:     181869  HIT:      65538  MISS:     116331	AVERAGE STALL: 99.8745
L1BTB BRANCH_CONDITIONAL	ACCESS:    2723068  HIT:    1434478  MISS:    1288590	AVERAGE STALL: 58.7689
L1BTB BRANCH_DIRECT_CALL	ACCESS:     941169  HIT:     105060  MISS:     836109	AVERAGE STALL: 74.9105
L1BTB BRANCH_INDIRECT_CALL	ACCESS:     171552  HIT:      21589  MISS:     149963	AVERAGE STALL: 131.687
L1BTB BRANCH_RETURN	ACCESS:    1112700  HIT:     289184  MISS:     823516	AVERAGE STALL: 49.3645
L1BTB BRANCH_OTHER ACCESS:          0  HIT:          0  MISS:          0	AVERAGE STALL: -nan
L1BTB TOTAL ROB OCCUPANCY AT BTB MISS: 2.79038

L2BTB TOTAL     ACCESS:    3591767  HIT:    3521285  MISS:      70482  HIT %:    98.0377  MISS %:    1.96232   MPKI: 1.40964
L2BTB BRANCH_DIRECT_JUMP	ACCESS:     398441  HIT:     394668  MISS:       3773	AVERAGE STALL: 45.8142
L2BTB BRANCH_INDIRECT	ACCESS:     106065  HIT:     103464  MISS:       2601	AVERAGE STALL: 99.8745
L2BTB BRANCH_CONDITIONAL	ACCESS:    1288590  HIT:    1281672  MISS:       6918	AVERAGE STALL: 58.7689
L2BTB BRANCH_DIRECT_CALL	ACCESS:     836109  HIT:     835323  MISS:        786	AVERAGE STALL: 74.9105
L2BTB BRANCH_INDIRECT_CALL	ACCESS:     140451  HIT:     130423  MISS:      10028	AVERAGE STALL: 131.687
L2BTB BRANCH_RETURN	ACCESS:     822111  HIT:     775735  MISS:      46376	AVERAGE STALL: 49.3645
L2BTB BRANCH_OTHER ACCESS:          0  HIT:          0  MISS:          0	AVERAGE STALL: -nan
L2BTB TOTAL ROB OCCUPANCY AT BTB MISS: 143.201

L2C TOTAL     ACCESS:    4515072  HIT:    3989014  MISS:     526058  HIT %:    88.3488  MISS %:    11.6512   MPKI: 10.5212
L2C LOAD INSTRUCTION	ACCESS:    2753910  HIT:    2454361  MISS:     299549  HIT %:    89.1228  MISS %:    10.8772  MPKI: 5.99098
L2C LOAD TRANSLATION INSTRUCTION	ACCESS:        322  HIT:         84  MISS:        238  HIT %:     26.087  MISS %:     73.913  MPKI: 0.00476
L2C LOAD DATA	ACCESS:     746201  HIT:     671648  MISS:      74553  HIT %:     90.009  MISS %:    9.99101  MPKI: 1.49106
L2C RFO DATA	ACCESS:     287826  HIT:     229959  MISS:      57867  HIT %:    79.8951  MISS %:    20.1049  MPKI: 1.15734
L2C PREFETCH DATA	ACCESS:     199928  HIT:     125471  MISS:      74457  HIT %:    62.7581  MISS %:    37.2419  MPKI: 1.48914
L2C WRITEBACK DATA	ACCESS:     524980  HIT:     506972  MISS:      18008  HIT %:    96.5698  MISS %:    3.43023  MPKI: 0.36016
L2C LOAD TRANSLATION DATA	ACCESS:       1877  HIT:        498  MISS:       1379  HIT %:    26.5317  MISS %:    73.4683  MPKI: 0.02758
L2C TRANSLATION FROM L1D PREFETCHER DATA	ACCESS:         28  HIT:         21  MISS:          7  HIT %:         75  MISS %:         25  MPKI: 0.00014

L2C PREFETCH  REQUESTED:      92650  ISSUED:      92650  USEFUL:       8004  USELESS:      66892
L2C USEFUL LOAD PREFETCHES:       8004 PREFETCH ISSUED TO LOWER LEVEL:      74747  ACCURACY: 10.7081
 TIMELY PREFETCHES:       8004 LATE PREFETCHES: 290 DROPPED PREFETCHES: 0
L2C AVERAGE MISS LATENCY: 37.7064 cycles
L2C RQ	ACCESS:    3790218	FORWARD:          0	MERGED:          0	TO_CACHE:    3790162
L2C WQ	ACCESS:     524980	FORWARD:         56	MERGED:          0	TO_CACHE:     524980
L2C PQ	ACCESS:     206968	FORWARD:          0	MERGED:       3257	TO_CACHE:     203711

L2C Dense regions hint from L2: 0
PSCL5 TOTAL     ACCESS:       4126  HIT:       2063  MISS:       2063  HIT %:         50  MISS %:         50   MPKI: 0.04126
PSCL5 LOAD TRANSLATION INSTRUCTION	ACCESS:       4070  HIT:       2035  MISS:       2035  HIT %:         50  MISS %:         50  MPKI: 0.0407
PSCL5 TRANSLATION FROM L1D PREFETCHER INSTRUCTION	ACCESS:         56  HIT:         28  MISS:         28  HIT %:         50  MISS %:         50  MPKI: 0.00056


PSCL4 TOTAL     ACCESS:       3905  HIT:       1945  MISS:       1960  HIT %:    49.8079  MISS %:    50.1921   MPKI: 0.0392
PSCL4 LOAD TRANSLATION INSTRUCTION	ACCESS:       2822  HIT:       1917  MISS:        905  HIT %:    67.9305  MISS %:    32.0695  MPKI: 0.0181
PSCL4 TRANSLATION FROM L1D PREFETCHER INSTRUCTION	ACCESS:         46  HIT:         28  MISS:         18  HIT %:    60.8696  MISS %:    39.1304  MPKI: 0.00036
PSCL4 LOAD TRANSLATION DATA	ACCESS:       1027  HIT:          0  MISS:       1027  HIT %:          0  MISS %:        100  MPKI: 0.02054
PSCL4 TRANSLATION FROM L1D PREFETCHER DATA	ACCESS:         10  HIT:          0  MISS:         10  HIT %:          0  MISS %:        100  MPKI: 0.0002


PSCL3 TOTAL     ACCESS:       4021  HIT:       2003  MISS:       2018  HIT %:    49.8135  MISS %:    50.1865   MPKI: 0.04036
PSCL3 LOAD TRANSLATION INSTRUCTION	ACCESS:       2880  HIT:       1975  MISS:        905  HIT %:    68.5764  MISS %:    31.4236  MPKI: 0.0181
PSCL3 TRANSLATION FROM L1D PREFETCHER INSTRUCTION	ACCESS:         46  HIT:         28  MISS:         18  HIT %:    60.8696  MISS %:    39.1304  MPKI: 0.00036
PSCL3 LOAD TRANSLATION DATA	ACCESS:       1085  HIT:          0  MISS:       1085  HIT %:          0  MISS %:        100  MPKI: 0.0217
PSCL3 TRANSLATION FROM L1D PREFETCHER DATA	ACCESS:         10  HIT:          0  MISS:         10  HIT %:          0  MISS %:        100  MPKI: 0.0002


PSCL2 TOTAL     ACCESS:       3991  HIT:       1928  MISS:       2063  HIT %:    48.3087  MISS %:    51.6913   MPKI: 0.04126
PSCL2 LOAD TRANSLATION INSTRUCTION	ACCESS:       2193  HIT:       1900  MISS:        293  HIT %:    86.6393  MISS %:    13.3607  MPKI: 0.00586
PSCL2 TRANSLATION FROM L1D PREFETCHER INSTRUCTION	ACCESS:         28  HIT:         28  MISS:          0  HIT %:        100  MISS %:          0  MPKI: 0
PSCL2 LOAD TRANSLATION DATA	ACCESS:       1742  HIT:          0  MISS:       1742  HIT %:          0  MISS %:        100  MPKI: 0.03484
PSCL2 TRANSLATION FROM L1D PREFETCHER DATA	ACCESS:         28  HIT:          0  MISS:         28  HIT %:          0  MISS %:        100  MPKI: 0.00056


LLC TOTAL     ACCESS:     590180  HIT:     561199  MISS:      28981  HIT %:    95.0895  MISS %:    4.91054   MPKI: 0.57962
LLC LOAD INSTRUCTION	ACCESS:     299549  HIT:     298543  MISS:       1006  HIT %:    99.6642  MISS %:   0.335838  MPKI: 0.02012
LLC LOAD TRANSLATION INSTRUCTION	ACCESS:        238  HIT:        204  MISS:         34  HIT %:    85.7143  MISS %:    14.2857  MPKI: 0.00068
LLC LOAD DATA	ACCESS:      74278  HIT:      70723  MISS:       3555  HIT %:    95.2139  MISS %:    4.78607  MPKI: 0.0711
LLC RFO DATA	ACCESS:      57850  HIT:      43723  MISS:      14127  HIT %:    75.5799  MISS %:    24.4201  MPKI: 0.28254
LLC PREFETCH DATA	ACCESS:      74747  HIT:      64923  MISS:       9824  HIT %:     86.857  MISS %:     13.143  MPKI: 0.19648
LLC WRITEBACK DATA	ACCESS:      82132  HIT:      81795  MISS:        337  HIT %:    99.5897  MISS %:   0.410315  MPKI: 0.00674
LLC LOAD TRANSLATION DATA	ACCESS:       1379  HIT:       1281  MISS:         98  HIT %:    92.8934  MISS %:     7.1066  MPKI: 0.00196
LLC TRANSLATION FROM L1D PREFETCHER DATA	ACCESS:          7  HIT:          7  MISS:          0  HIT %:        100  MISS %:          0  MPKI: 0

LLC AVERAGE MISS LATENCY: 156.739 cycles
LLC RQ	ACCESS:     433303	FORWARD:          0	MERGED:          0	TO_CACHE:     433301
LLC WQ	ACCESS:      82132	FORWARD:          2	MERGED:          0	TO_CACHE:      82132
LLC PQ	ACCESS:      74747	FORWARD:          0	MERGED:          0	TO_CACHE:      74747

LLC Dense regions hint to LLC: 0

RAW hits: 1927075
Loads Generated: 12614643
Loads sent to L1D: 10687568
Stores Generated: 6921287
Stores sent to L1D: 6921301
Major fault: 0 Minor fault: 2641
Allocated PAGES: 2641

stream: 
stream:times selected: 1228652
stream:pref_filled: 127460
stream:pref_useful: 28343
stream:pref_late: 8326
stream:misses: 8652
stream:misses_by_poll: 0

CS: 
CS:times selected: 190654
CS:pref_filled: 71318
CS:pref_useful: 47164
CS:pref_late: 8476
CS:misses: 21494
CS:misses_by_poll: 9

CPLX: 
CPLX:times selected: 1036929
CPLX:pref_filled: 23630
CPLX:pref_useful: 7003
CPLX:pref_late: 3534
CPLX:misses: 118293
CPLX:misses_by_poll: 1

NL_L1: 
NL:times selected: 12522
NL:pref_filled: 1475
NL:pref_useful: 248
NL:pref_late: 187
NL:misses: 1524
NL:misses_by_poll: 0

total selections: 2468757
total_filled: 103235
total_useful: 43882
total_late: 22524
total_polluted: 10
total_misses_after_warmup: 792547
conflicts: 5505047

test: 116918

DRAM Statistics
 CHANNEL 0
 RQ ROW_BUFFER_HIT:      10640  ROW_BUFFER_MISS:      18000
 DBUS_CONGESTED:         18
 WQ ROW_BUFFER_HIT:       1515  ROW_BUFFER_MISS:      12447  FULL:          0

 AVG_CONGESTED_CYCLE: 5

CPU 0 Branch Prediction Accuracy: 99.8213% MPKI: 0.32708 Average ROB Occupancy at Mispredict: 176.869
Branch types
NOT_BRANCH: 40846374 81.6927%
BRANCH_DIRECT_JUMP: 546037 1.09207%
BRANCH_INDIRECT: 181869 0.363738%
BRANCH_CONDITIONAL: 6199834 12.3997%
BRANCH_DIRECT_CALL: 941169 1.88234%
BRANCH_INDIRECT_CALL: 171552 0.343104%
BRANCH_RETURN: 1112700 2.2254%
BRANCH_OTHER: 0 0%

DRAM PAGES: 1048576
Allocated PAGES: 2641
Average_ROB_Occupancy: 233.802
Average_Decode_Occupancy: 33.9393
Average_FTQ_Occupancy: 13.2124
Indirect max targets: 14 Average targets: 1.17445
Branch_type:  BRANCH_DIRECT_JUMP:  Count Percentage: 3.30547 6.32296 3.6662 7.38011 3.46413 6.02123 1.59466 68.2452 
Branch_type:  BRANCH_INDIRECT:  Count Percentage: 6.14916 3.48055 8.1631 9.6621 3.34687 2.81024 3.88213 62.5058 
Branch_type:  BRANCH_CONDITIONAL:  Count Percentage: 25.4888 3.08377 1.42264 4.45946 2.484 3.94463 2.27458 56.8421 
Branch_type:  BRANCH_DIRECT_CALL:  Count Percentage: 0.388825 1.27653 0.72773 3.53498 3.54818 2.62092 3.16808 84.7348 
Branch_type:  BRANCH_INDIRECT_CALL:  Count Percentage: 9.5639 0 2.99891 0.00263396 0.901107 1.71646 4.99516 79.8218 
Branch_type:  BRANCH_RETURN:  Count Percentage: 8.27086 1.10028 1.0315 3.52479 4.50714 4.19307 2.7826 74.5898 
Branch_type:  BRANCH_DIRECT_JUMP:  Total Count: 36086 69028 40024 80569 37818 65734 17409 745036 
Branch_type:  BRANCH_INDIRECT:  Total Count: 22402 12680 29739 35200 12193 10238 14143 227715 
Branch_type:  BRANCH_CONDITIONAL:  Total Count: 3159611 382266 176351 552797 307918 488979 281958 7046184 
Branch_type:  BRANCH_DIRECT_CALL:  Total Count: 7306 23986 13674 66422 66670 49247 59528 1592161 
Branch_type:  BRANCH_INDIRECT_CALL:  Total Count: 32679 0 10247 9 3079 5865 17068 272744 
Branch_type:  BRANCH_RETURN:  Total Count: 183739 24443 22915 78304 100127 93150 61816 1657027 
Number of unique branch instructions: 10640
Upper 32 bits: 
aaaa
ffff
ffff0000
Unique upper 32 bits: 3
Unique upper 36 bits: 3
Unique upper 40 bits: 5
Unique upper 44 bits: 32
Unique upper 48 bits: 160
Variant_0 : 1519 0.37085
Variant_1 : 1174 0.286621
Variant_2 : 944 0.230469
Variant_3 : 0 0
Offset_3 4390
Offset_4 270
Offset_5 480
Offset_6 533
Offset_7 625
Offset_8 567
Offset_9 515
Offset_10 419
Offset_11 332
Offset_12 303
Offset_13 227
Offset_14 234
Offset_15 194
Offset_16 226
Offset_17 163
Offset_18 144
Offset_19 256
Offset_20 143
Offset_21 261
Offset_22 400
Offset_23 241
Offset_24 362
Offset_25 114
Offset_47 96
Offset_64 1
decode_dispatch_called: 25354486 69.71
Dispatch_width: 0 13675005 53.9352 37.5982
Dispatch_width: 1 925981 3.65214 2.5459
Dispatch_width: 2 790099 3.11621 2.17231
Dispatch_width: 3 474952 1.87325 1.30584
Dispatch_width: 4 5358294 21.1335 14.7322
Dispatch_width: 5 145435 0.573607 0.399861
Dispatch_width: 6 3984720 15.716 10.9556
Empty_decode_cycles: 11016915 30.29
ROB_full_cycles: 8559604 23.5339
Starvation_cycles_per_kilo_instr: 238.271
Starvation_cycles_per_kilo_instr_3: 183.233
Starvation_cycles_per_kilo_instr_0: 161.323
Branch_type_1  (3,1)  (4,10)  (5,41)  (6,73)  (7,124)  (8,146)  (9,138)  (10,109)  (11,74)  (12,47)  (13,11)  (14,2)  (15,3)  (16,4)  (18,1)  (19,5)  (20,2)  (21,1)  (22,3)  (23,2)  (24,11)  (25,12) 
Branch_type_2  (3,1)  (4,1)  (5,1)  (8,4)  (9,4)  (10,1)  (12,1)  (13,1)  (14,1)  (16,3)  (17,2)  (20,2)  (21,2)  (23,5)  (24,1)  (47,44) 
Branch_type_3  (3,4388)  (4,259)  (5,434)  (6,444)  (7,470)  (8,351)  (9,282)  (10,169)  (11,128)  (12,54)  (13,10)  (64,1) 
Branch_type_4  (6,3)  (7,8)  (8,25)  (9,57)  (10,66)  (11,68)  (12,110)  (13,96)  (14,105)  (15,92)  (16,99)  (17,76)  (18,61)  (19,123)  (20,73)  (21,141)  (22,209)  (23,136)  (24,208)  (25,98) 
Branch_type_5  (8,3)  (9,1)  (10,4)  (11,5)  (12,3)  (13,14)  (14,16)  (15,11)  (16,22)  (17,11)  (18,23)  (19,15)  (20,12)  (21,13)  (22,43)  (23,26)  (24,42) 
Branch_type_6  (5,4)  (6,13)  (7,23)  (8,38)  (9,33)  (10,70)  (11,57)  (12,88)  (13,95)  (14,110)  (15,88)  (16,98)  (17,74)  (18,59)  (19,113)  (20,54)  (21,104)  (22,145)  (23,72)  (24,100)  (25,4)  (47,52) 
Unique trigger count: 
Variant_0_evicts_0 : 0
Variant_0_evicts_1 : 0
Variant_0_evicts_2 : 0
Variant_0_evicts_3 : 0
Variant_1_evicts_0 : 0
Variant_1_evicts_1 : 0
Variant_1_evicts_2 : 0
Variant_1_evicts_3 : 0
Variant_2_evicts_0 : 0
Variant_2_evicts_1 : 0
Variant_2_evicts_2 : 0
Variant_2_evicts_3 : 0
Variant_3_evicts_0 : 0
Variant_3_evicts_1 : 0
Variant_3_evicts_2 : 0
Variant_3_evicts_3 : 0
BTB PER SET UNIQUE ADDR: 32 28 28 26 29 19 26 21 29 24 35 26 26 22 27 31 31 19 24 34 28 30 24 20 27 20 22 23 28 22 28 28 25 22 31 28 32 26 33 20 25 20 30 29 31 21 27 23 26 24 21 30 23 21 30 27 26 26 30 21 20 34 29 31 24 25 24 32 25 32 29 28 25 25 19 32 28 23 29 40 31 25 29 27 27 33 25 18 26 28 27 22 30 32 20 30 28 31 35 36 24 23 24 32 28 30 29 23 27 20 31 23 29 22 23 26 29 22 22 23 37 22 32 26 32 26 22 32 26 34 25 29 28 28 27 30 32 31 23 26 24 22 31 17 37 21 34 28 30 29 26 24 23 25 29 29 31 28 30 29 34 33 34 23 32 27 28 28 29 26 22 22 31 23 18 26 22 21 19 27 26 23 21 30 27 30 23 31 25 28 32 31 29 25 21 32 25 21 25 30 30 26 34 28 29 29 24 33 25 28 25 30 33 21 25 25 28 28 26 32 24 26 24 29 32 25 28 33 28 27 21 30 27 25 27 18 30 31 22 25 28 35 20 31 20 29 26 26 31 31 31 21 25 27 26 33 
BTB PER SET COUNT: 33 1500 41 31 1286 21 28 24 34 24 535 276 30 22 4540 37 36 1001 28 2472 28 1011 24 1482 32 21 30 24 2966 28 2955 28 92 25 7831 149 34 28 1379 22 25 20 517 501 40 24 2420 24 29 62 28 783 31 21 34 36 35 515 30 24 22 45 32 1025 29 1006 14664 402 31 34 1010 31 25 30 22 919 182 756 44 2025 164 26 1011 1046 30 1525 27 20 1006 28 29 23 1005 1739 21 1509 35 20522 45 45 37 1731 262 39 1982 36 378 1488 277 1974 1495 27 4551 22 25 27 34 26 22 1489 2408 1003 2020 1026 2354 1009 23 5393 30 40 1491 30 1009 57 34 33 633 505 24 32 1497 25 32 994 39 1972 2027 2473 32 2471 1485 393 28 30 34 39 530 521 32 689 2960 2737 1514 1992 34 31 1002 32 46 1038 23 999 36 168 18 37 23 27 19 29 1818 844 22 1052 28 522 23 31 27 31 33 522 35 25 23 347 40 27 29 34 1983 32 1015 441 29 1982 29 2024 1006 1005 29 40 36 27 27 756 1531 33 1979 483 1972 423 1977 33 2962 1055 1379 1037 1758 1490 2948 31 27 637 2952 18 2235 37 1266 999 31 42 22 219 21 79 1009 160 32 2474 1983 21 1276 29 29 53 
To predecode: 0
Predecoding something: 0
Predecode request dropped: 0
sizeofblock_0 0
sizeofblock_1 12804
sizeofblock_2 21762
sizeofblock_3 53771
sizeofblock_4 57926
sizeofblock_5 0
sizeofblock_6 0
sizeofblock_7 0
sizeofblock_8 0
Variant_0 Correct: 1609596 Incorrect: 0 Accuracy: 1
Variant_1 Correct: 2085927 Incorrect: 0 Accuracy: 1
Variant_2 Correct: 3615925 Incorrect: 502 Accuracy: 0.999861
Variant_3 Correct: 0 Incorrect: 0 Accuracy: -nan
