
*** ChampSim Multicore Out-of-Order Simulator ***

Warmup Instructions: 50000000
Simulation Instructions: 50000000
Number of CPUs: 1
LLC sets: 2048
LLC ways: 16
Off-chip DRAM Size: 4096 MB Channels: 1 Width: 64-bit Data Rate: 6400 MT/s
CPU 0 runs ./micro_traces/srv615.trace.gz
.gz
ITLB has LRU replacement policy
DTLB has LRU replacement policy
STLB has LRU replacement policy
FDIP Prefetcher at L1I
L1I has LRU replacement policy
L1D has LRU replacement policy
Initialize SRRIP state for L2C
Initialize DRRIP state for LLC
Heartbeat CPU 0 instructions: 10000001 cycles: 2795310 heartbeat IPC: 3.57742 cumulative IPC: 3.57742 (Simulation time: 0 hr 2 min 24 sec) 
Heartbeat CPU 0 instructions: 20000001 cycles: 5592226 heartbeat IPC: 3.57537 cumulative IPC: 3.57639 (Simulation time: 0 hr 4 min 26 sec) 
Heartbeat CPU 0 instructions: 30000001 cycles: 8388337 heartbeat IPC: 3.5764 cumulative IPC: 3.57639 (Simulation time: 0 hr 6 min 32 sec) 
Heartbeat CPU 0 instructions: 40000002 cycles: 11183737 heartbeat IPC: 3.57731 cumulative IPC: 3.57662 (Simulation time: 0 hr 8 min 35 sec) 
Heartbeat CPU 0 instructions: 50000001 cycles: 13979137 heartbeat IPC: 3.57731 cumulative IPC: 3.57676 (Simulation time: 0 hr 10 min 30 sec) 

Warmup complete CPU 0 instructions: 50000001 cycles: 13979137 (Simulation time: 0 hr 10 min 30 sec) 

Cycle: 20000000 FTQ IN: 58464434 FTQ occupancy: 20.5993 DECODE IN: 58464331 DECODE occupancy: 53.6482 ROB IN: 58464271 ROB occupancy: 319.951 ROB OUT: 58463920
Heartbeat CPU 0 instructions: 60000000 cycles: 21087782 heartbeat IPC: 1.40674 cumulative IPC: 1.40674 (Simulation time: 0 hr 12 min 50 sec) 
Heartbeat CPU 0 instructions: 70000001 cycles: 28297699 heartbeat IPC: 1.38698 cumulative IPC: 1.39679 (Simulation time: 0 hr 15 min 10 sec) 
Cycle: 30000000 FTQ IN: 13929721 FTQ occupancy: 15.129 DECODE IN: 13929676 DECODE occupancy: 38.6631 ROB IN: 13929676 ROB occupancy: 251.449 ROB OUT: 13929677
Heartbeat CPU 0 instructions: 80000003 cycles: 35369259 heartbeat IPC: 1.41412 cumulative IPC: 1.40252 (Simulation time: 0 hr 17 min 35 sec) 
Cycle: 40000000 FTQ IN: 13994622 FTQ occupancy: 15.1409 DECODE IN: 13994770 DECODE occupancy: 38.6795 ROB IN: 13994793 ROB occupancy: 252.026 ROB OUT: 13994910
Heartbeat CPU 0 instructions: 90000001 cycles: 42584086 heartbeat IPC: 1.38603 cumulative IPC: 1.39836 (Simulation time: 0 hr 19 min 56 sec) 
Heartbeat CPU 0 instructions: 100000000 cycles: 49672684 heartbeat IPC: 1.41072 cumulative IPC: 1.40081 (Simulation time: 0 hr 22 min 3 sec) 
Finished CPU 0 instructions: 50000003 cycles: 35693548 cumulative IPC: 1.40081 (Simulation time: 0 hr 22 min 3 sec) 

ChampSim completed all CPUs

Region of Interest Statistics

CPU 0 cumulative IPC: 1.40081 instructions: 50000003 cycles: 35693548
 Fetch stage stalled: 45.064  Sim cycles: 35693548 fetch stall cycle: 16084934
 Empty decode stage: 24.185  Sim cycles: 35693548 fetch stall cycle: 8632490
ITLB TOTAL     ACCESS:    5835870  HIT:    5338196  MISS:     497674  HIT %:    91.4722  MISS %:    8.52785   MPKI: 9.95348
ITLB LOAD TRANSLATION INSTRUCTION	ACCESS:    5702095  HIT:    5204421  MISS:     497674  HIT %:    91.2721  MISS %:    8.72791  MPKI: 9.95348
ITLB TRANSLATION FROM L1D PREFETCHER INSTRUCTION	ACCESS:     133775  HIT:     133775  MISS:          0  HIT %:        100  MISS %:          0  MPKI: 0

ITLB AVERAGE MISS LATENCY: 9.04352 cycles
ITLB RQ	ACCESS:    7961611	FORWARD:          0	MERGED:    1641442	TO_CACHE:    6320169

DTLB TOTAL     ACCESS:    8955251  HIT:    8482054  MISS:     473197  HIT %:     94.716  MISS %:    5.28402   MPKI: 9.46394
DTLB LOAD TRANSLATION DATA	ACCESS:    8955251  HIT:    8482054  MISS:     473197  HIT %:     94.716  MISS %:    5.28402  MPKI: 9.46394

DTLB AVERAGE MISS LATENCY: 9.29804 cycles
DTLB RQ	ACCESS:   13329897	FORWARD:          0	MERGED:    4338298	TO_CACHE:    8991599

STLB TOTAL     ACCESS:    1216122  HIT:    1214309  MISS:       1813  HIT %:    99.8509  MISS %:    0.14908   MPKI: 0.03626
STLB LOAD TRANSLATION INSTRUCTION	ACCESS:     497674  HIT:     497476  MISS:        198  HIT %:    99.9602  MISS %:  0.0397851  MPKI: 0.00396
STLB LOAD TRANSLATION DATA	ACCESS:     473196  HIT:     471609  MISS:       1587  HIT %:    99.6646  MISS %:   0.335379  MPKI: 0.03174
STLB TRANSLATION FROM L1D PREFETCHER DATA	ACCESS:     245252  HIT:     245224  MISS:         28  HIT %:    99.9886  MISS %:  0.0114168  MPKI: 0.00056

STLB AVERAGE MISS LATENCY: 72.6117 cycles
STLB RQ	ACCESS:    1336110	FORWARD:          0	MERGED:     119943	TO_CACHE:    1216167

STLB Hit, L1D data hit: 0
STLB Hit, L2C data hit: 0
STLB Hit, LLC data hit: 0
STLB Hit, LLC data miss: 0
STLB STLB hints to L2: 0
L1D TOTAL     ACCESS:   13075319  HIT:   11949984  MISS:    1125335  HIT %:    91.3934  MISS %:    8.60656   MPKI: 22.5067
L1D LOAD DATA	ACCESS:    6538506  HIT:    5793521  MISS:     744985  HIT %:    88.6062  MISS %:    11.3938  MPKI: 14.8997
L1D RFO DATA	ACCESS:    6212914  HIT:    5927231  MISS:     285683  HIT %:    95.4018  MISS %:    4.59821  MPKI: 5.71366
L1D PREFETCH DATA	ACCESS:     323899  HIT:     229232  MISS:      94667  HIT %:    70.7727  MISS %:    29.2273  MPKI: 1.89334

L1D PREFETCH  REQUESTED:     730839  ISSUED:     730839  USEFUL:      33881  USELESS:      68614
L1D USEFUL LOAD PREFETCHES:      33881 PREFETCH ISSUED TO LOWER LEVEL:     102518  ACCURACY: 33.0488
 TIMELY PREFETCHES:      33881 LATE PREFETCHES: 7816 DROPPED PREFETCHES: 10
L1D AVERAGE MISS LATENCY: 220196 cycles
L1D RQ	ACCESS:   10674524	FORWARD:          0	MERGED:    3933100	TO_CACHE:    6573156
L1D WQ	ACCESS:    6956185	FORWARD:     168631	MERGED:     199444	TO_CACHE:    6756741
L1D PQ	ACCESS:     365601	FORWARD:          0	MERGED:          0	TO_CACHE:     365238

L1D UNIQUE REGIONS ACCESSED: 0
L1D REGIONS CONFLICTS: 0
L1D Cross Page Prefetch Requests: 6888
L1D Same Page Prefetch Requests: 743089
L1D ROI Sum of L1D PQ occupancy: 4633839
L1D PREFETCHES PUSHED FROM L2C: 0
L1I TOTAL     ACCESS:    7129983  HIT:    4349644  MISS:    2780339  HIT %:     61.005  MISS %:     38.995   MPKI: 55.6068
L1I LOAD INSTRUCTION	ACCESS:    6459773  HIT:    3679434  MISS:    2780339  HIT %:    56.9592  MISS %:    43.0408  MPKI: 55.6068
L1I PREFETCH INSTRUCTION	ACCESS:     670210  HIT:     670210  MISS:          0  HIT %:        100  MISS %:          0  MPKI: 0

L1I PREFETCH  REQUESTED:    1628110  ISSUED:    1628110  USEFUL:          0  USELESS:          0
L1I USEFUL LOAD PREFETCHES:          0 PREFETCH ISSUED TO LOWER LEVEL:          0  ACCURACY: -nan
 TIMELY PREFETCHES:          0 LATE PREFETCHES: 0 DROPPED PREFETCHES: 0
L1I AVERAGE MISS LATENCY: 17.1399 cycles
L1I RQ	ACCESS:    9572134	FORWARD:          0	MERGED:    2810619	TO_CACHE:    6761515
L1I PQ	ACCESS:    1628110	FORWARD:          0	MERGED:     428014	TO_CACHE:    1200096

L1BTB TOTAL     ACCESS:    5670801  HIT:    2023721  MISS:    3647080  HIT %:    35.6867  MISS %:    64.3133   MPKI: 72.9416
L1BTB BRANCH_DIRECT_JUMP	ACCESS:     547751  HIT:     142926  MISS:     404825	AVERAGE STALL: 62.718
L1BTB BRANCH_INDIRECT	ACCESS:     182288  HIT:      65401  MISS:     116887	AVERAGE STALL: 114.118
L1BTB BRANCH_CONDITIONAL	ACCESS:    2697444  HIT:    1398941  MISS:    1298503	AVERAGE STALL: 91.2092
L1BTB BRANCH_DIRECT_CALL	ACCESS:     949112  HIT:     105114  MISS:     843998	AVERAGE STALL: 74.9115
L1BTB BRANCH_INDIRECT_CALL	ACCESS:     172546  HIT:      21336  MISS:     151210	AVERAGE STALL: 144.133
L1BTB BRANCH_RETURN	ACCESS:    1121660  HIT:     290003  MISS:     831657	AVERAGE STALL: 49.0411
L1BTB BRANCH_OTHER ACCESS:          0  HIT:          0  MISS:          0	AVERAGE STALL: -nan
L1BTB TOTAL ROB OCCUPANCY AT BTB MISS: 2.3755

L2BTB TOTAL     ACCESS:    3621829  HIT:    3562985  MISS:      58844  HIT %:    98.3753  MISS %:     1.6247   MPKI: 1.17688
L2BTB BRANCH_DIRECT_JUMP	ACCESS:     400751  HIT:     396875  MISS:       3876	AVERAGE STALL: 62.718
L2BTB BRANCH_INDIRECT	ACCESS:     106583  HIT:     103905  MISS:       2678	AVERAGE STALL: 114.118
L2BTB BRANCH_CONDITIONAL	ACCESS:    1298503  HIT:    1297295  MISS:       1208	AVERAGE STALL: 91.2092
L2BTB BRANCH_DIRECT_CALL	ACCESS:     843998  HIT:     842665  MISS:       1333	AVERAGE STALL: 74.9115
L2BTB BRANCH_INDIRECT_CALL	ACCESS:     141757  HIT:     131816  MISS:       9941	AVERAGE STALL: 144.133
L2BTB BRANCH_RETURN	ACCESS:     830237  HIT:     790429  MISS:      39808	AVERAGE STALL: 49.0411
L2BTB BRANCH_OTHER ACCESS:          0  HIT:          0  MISS:          0	AVERAGE STALL: -nan
L2BTB TOTAL ROB OCCUPANCY AT BTB MISS: 147.231

L2C TOTAL     ACCESS:    4511520  HIT:    4050289  MISS:     461231  HIT %:    89.7766  MISS %:    10.2234   MPKI: 9.22462
L2C LOAD INSTRUCTION	ACCESS:    2780339  HIT:    2528935  MISS:     251404  HIT %:    90.9578  MISS %:    9.04221  MPKI: 5.02808
L2C LOAD TRANSLATION INSTRUCTION	ACCESS:        222  HIT:         56  MISS:        166  HIT %:    25.2252  MISS %:    74.7748  MPKI: 0.00332
L2C LOAD DATA	ACCESS:     737142  HIT:     666017  MISS:      71125  HIT %:    90.3512  MISS %:    9.64875  MPKI: 1.4225
L2C RFO DATA	ACCESS:     285620  HIT:     234121  MISS:      51499  HIT %:    81.9694  MISS %:    18.0306  MPKI: 1.02998
L2C PREFETCH DATA	ACCESS:     181498  HIT:     111099  MISS:      70399  HIT %:    61.2122  MISS %:    38.7878  MPKI: 1.40798
L2C WRITEBACK DATA	ACCESS:     525022  HIT:     509582  MISS:      15440  HIT %:    97.0592  MISS %:    2.94083  MPKI: 0.3088
L2C LOAD TRANSLATION DATA	ACCESS:       1623  HIT:        443  MISS:       1180  HIT %:    27.2951  MISS %:    72.7049  MPKI: 0.0236
L2C TRANSLATION FROM L1D PREFETCHER DATA	ACCESS:         54  HIT:         36  MISS:         18  HIT %:    66.6667  MISS %:    33.3333  MPKI: 0.00036

L2C PREFETCH  REQUESTED:      86526  ISSUED:      86526  USEFUL:       8242  USELESS:      62653
L2C USEFUL LOAD PREFETCHES:       8242 PREFETCH ISSUED TO LOWER LEVEL:      70826  ACCURACY: 11.637
 TIMELY PREFETCHES:       8242 LATE PREFETCHES: 427 DROPPED PREFETCHES: 0
L2C AVERAGE MISS LATENCY: 38.1219 cycles
L2C RQ	ACCESS:    3805058	FORWARD:          0	MERGED:          0	TO_CACHE:    3805003
L2C WQ	ACCESS:     525022	FORWARD:         55	MERGED:          0	TO_CACHE:     525022
L2C PQ	ACCESS:     189044	FORWARD:          0	MERGED:       3679	TO_CACHE:     185365

L2C Dense regions hint from L2: 0
PSCL5 TOTAL     ACCESS:       3652  HIT:       1826  MISS:       1826  HIT %:         50  MISS %:         50   MPKI: 0.03652
PSCL5 LOAD TRANSLATION INSTRUCTION	ACCESS:       3544  HIT:       1772  MISS:       1772  HIT %:         50  MISS %:         50  MPKI: 0.03544
PSCL5 TRANSLATION FROM L1D PREFETCHER INSTRUCTION	ACCESS:        108  HIT:         54  MISS:         54  HIT %:         50  MISS %:         50  MPKI: 0.00108


PSCL4 TOTAL     ACCESS:       3568  HIT:       1782  MISS:       1786  HIT %:    49.9439  MISS %:    50.0561   MPKI: 0.03572
PSCL4 LOAD TRANSLATION INSTRUCTION	ACCESS:       1848  HIT:       1734  MISS:        114  HIT %:    93.8312  MISS %:    6.16883  MPKI: 0.00228
PSCL4 TRANSLATION FROM L1D PREFETCHER INSTRUCTION	ACCESS:         48  HIT:         48  MISS:          0  HIT %:        100  MISS %:          0  MPKI: 0
PSCL4 LOAD TRANSLATION DATA	ACCESS:       1624  HIT:          0  MISS:       1624  HIT %:          0  MISS %:        100  MPKI: 0.03248
PSCL4 TRANSLATION FROM L1D PREFETCHER DATA	ACCESS:         48  HIT:          0  MISS:         48  HIT %:          0  MISS %:        100  MPKI: 0.00096


PSCL3 TOTAL     ACCESS:       3586  HIT:       1791  MISS:       1795  HIT %:    49.9442  MISS %:    50.0558   MPKI: 0.0359
PSCL3 LOAD TRANSLATION INSTRUCTION	ACCESS:       1857  HIT:       1743  MISS:        114  HIT %:    93.8611  MISS %:    6.13893  MPKI: 0.00228
PSCL3 TRANSLATION FROM L1D PREFETCHER INSTRUCTION	ACCESS:         48  HIT:         48  MISS:          0  HIT %:        100  MISS %:          0  MPKI: 0
PSCL3 LOAD TRANSLATION DATA	ACCESS:       1633  HIT:          0  MISS:       1633  HIT %:          0  MISS %:        100  MPKI: 0.03266
PSCL3 TRANSLATION FROM L1D PREFETCHER DATA	ACCESS:         48  HIT:          0  MISS:         48  HIT %:          0  MISS %:        100  MPKI: 0.00096


PSCL2 TOTAL     ACCESS:       3587  HIT:       1761  MISS:       1826  HIT %:     49.094  MISS %:     50.906   MPKI: 0.03652
PSCL2 LOAD TRANSLATION INSTRUCTION	ACCESS:       1904  HIT:       1707  MISS:        197  HIT %:    89.6534  MISS %:    10.3466  MPKI: 0.00394
PSCL2 TRANSLATION FROM L1D PREFETCHER INSTRUCTION	ACCESS:         54  HIT:         54  MISS:          0  HIT %:        100  MISS %:          0  MPKI: 0
PSCL2 LOAD TRANSLATION DATA	ACCESS:       1575  HIT:          0  MISS:       1575  HIT %:          0  MISS %:        100  MPKI: 0.0315
PSCL2 TRANSLATION FROM L1D PREFETCHER DATA	ACCESS:         54  HIT:          0  MISS:         54  HIT %:          0  MISS %:        100  MPKI: 0.00108


LLC TOTAL     ACCESS:     517342  HIT:     490423  MISS:      26919  HIT %:    94.7967  MISS %:    5.20333   MPKI: 0.53838
LLC LOAD INSTRUCTION	ACCESS:     251404  HIT:     250724  MISS:        680  HIT %:    99.7295  MISS %:   0.270481  MPKI: 0.0136
LLC LOAD TRANSLATION INSTRUCTION	ACCESS:        166  HIT:        146  MISS:         20  HIT %:    87.9518  MISS %:    12.0482  MPKI: 0.0004
LLC LOAD DATA	ACCESS:      70718  HIT:      67423  MISS:       3295  HIT %:    95.3406  MISS %:    4.65935  MPKI: 0.0659
LLC RFO DATA	ACCESS:      51461  HIT:      38652  MISS:      12809  HIT %:    75.1093  MISS %:    24.8907  MPKI: 0.25618
LLC PREFETCH DATA	ACCESS:      70826  HIT:      61131  MISS:       9695  HIT %:    86.3115  MISS %:    13.6885  MPKI: 0.1939
LLC WRITEBACK DATA	ACCESS:      71569  HIT:      71224  MISS:        345  HIT %:    99.5179  MISS %:   0.482052  MPKI: 0.0069
LLC LOAD TRANSLATION DATA	ACCESS:       1180  HIT:       1106  MISS:         74  HIT %:    93.7288  MISS %:    6.27119  MPKI: 0.00148
LLC TRANSLATION FROM L1D PREFETCHER DATA	ACCESS:         18  HIT:         17  MISS:          1  HIT %:    94.4444  MISS %:    5.55556  MPKI: 2e-05

LLC AVERAGE MISS LATENCY: 155.004 cycles
LLC RQ	ACCESS:     374966	FORWARD:          0	MERGED:          0	TO_CACHE:     374948
LLC WQ	ACCESS:      71569	FORWARD:         18	MERGED:          0	TO_CACHE:      71569
LLC PQ	ACCESS:      70826	FORWARD:          0	MERGED:          0	TO_CACHE:      70826

LLC Dense regions hint to LLC: 0

RAW hits: 1958026
Loads Generated: 12632550
Loads sent to L1D: 10674524
Stores Generated: 6956176
Stores sent to L1D: 6956185
Major fault: 0 Minor fault: 2481
Allocated PAGES: 2481

stream: 
stream:times selected: 1175988
stream:pref_filled: 121359
stream:pref_useful: 24252
stream:pref_late: 6822
stream:misses: 7852
stream:misses_by_poll: 0

CS: 
CS:times selected: 174897
CS:pref_filled: 58632
CS:pref_useful: 35314
CS:pref_late: 6968
CS:misses: 15832
CS:misses_by_poll: 1

CPLX: 
CPLX:times selected: 999977
CPLX:pref_filled: 19563
CPLX:pref_useful: 4659
CPLX:pref_late: 3124
CPLX:misses: 94341
CPLX:misses_by_poll: 2

NL_L1: 
NL:times selected: 20706
NL:pref_filled: 727
NL:pref_useful: 329
NL:pref_late: 285
NL:misses: 1714
NL:misses_by_poll: 0

total selections: 2371568
total_filled: 94667
total_useful: 33881
total_late: 18495
total_polluted: 3
total_misses_after_warmup: 779637
conflicts: 5521345

test: 115364

DRAM Statistics
 CHANNEL 0
 RQ ROW_BUFFER_HIT:       9740  ROW_BUFFER_MISS:      16832
 DBUS_CONGESTED:         14
 WQ ROW_BUFFER_HIT:       1233  ROW_BUFFER_MISS:      11698  FULL:          0

 AVG_CONGESTED_CYCLE: 6

CPU 0 Branch Prediction Accuracy: 99.8257% MPKI: 0.31912 Average ROB Occupancy at Mispredict: 196.67
Branch types
NOT_BRANCH: 40846897 81.6938%
BRANCH_DIRECT_JUMP: 547751 1.0955%
BRANCH_INDIRECT: 182288 0.364576%
BRANCH_CONDITIONAL: 6179445 12.3589%
BRANCH_DIRECT_CALL: 949112 1.89822%
BRANCH_INDIRECT_CALL: 172546 0.345092%
BRANCH_RETURN: 1121660 2.24332%
BRANCH_OTHER: 0 0%

DRAM PAGES: 1048576
Allocated PAGES: 2481
Average_ROB_Occupancy: 253.935
Average_Decode_Occupancy: 38.7531
Average_FTQ_Occupancy: 15.1086
Indirect max targets: 14 Average targets: 1.14576
Branch_type:  BRANCH_DIRECT_JUMP:  Count Percentage: 3.28165 5.97631 3.65442 7.17978 2.92367 6.32151 1.29156 69.3711 
Branch_type:  BRANCH_INDIRECT:  Count Percentage: 6.12122 0.788748 8.14555 9.6825 3.34841 2.8139 0.937785 68.1619 
Branch_type:  BRANCH_CONDITIONAL:  Count Percentage: 20.8927 3.48023 1.53093 7.18912 3.07247 3.54878 0.573501 59.7123 
Branch_type:  BRANCH_DIRECT_CALL:  Count Percentage: 0.901908 1.28065 0.724844 3.62232 2.78686 2.60827 0.885744 87.1894 
Branch_type:  BRANCH_INDIRECT_CALL:  Count Percentage: 9.54037 0 2.99243 0 0.000290245 1.70984 0.99351 84.7636 
Branch_type:  BRANCH_RETURN:  Count Percentage: 4.74589 4.79182 1.02068 4.82809 4.10445 3.40967 0.580772 76.5186 
Branch_type:  BRANCH_DIRECT_JUMP:  Total Count: 35953 65475 40037 78660 32031 69257 14150 760013 
Branch_type:  BRANCH_INDIRECT:  Total Count: 22343 2879 29732 35342 12222 10271 3423 248797 
Branch_type:  BRANCH_CONDITIONAL:  Total Count: 2581475 430012 189160 888278 379630 438482 70861 7377965 
Branch_type:  BRANCH_DIRECT_CALL:  Total Count: 17074 24244 13722 68574 52758 49377 16768 1650580 
Branch_type:  BRANCH_INDIRECT_CALL:  Total Count: 32870 0 10310 0 1 5891 3423 292041 
Branch_type:  BRANCH_RETURN:  Total Count: 106232 107260 22847 108072 91874 76322 13000 1712792 
Number of unique branch instructions: 9763
Upper 32 bits: 
aaaa
ffff
ffff0000
Unique upper 32 bits: 3
Unique upper 36 bits: 3
Unique upper 40 bits: 5
Unique upper 44 bits: 32
Unique upper 48 bits: 154
Offset_3 4036
Offset_4 241
Offset_5 442
Offset_6 503
Offset_7 572
Offset_8 499
Offset_9 459
Offset_10 377
Offset_11 303
Offset_12 265
Offset_13 201
Offset_14 223
Offset_15 190
Offset_16 218
Offset_17 145
Offset_18 120
Offset_19 235
Offset_20 135
Offset_21 235
Offset_22 391
Offset_23 241
Offset_24 325
Offset_25 88
Offset_47 80
decode_dispatch_called: 26497844 74.2371
Dispatch_width: 0 14303102 53.9784 40.072
Dispatch_width: 1 1051647 3.9688 2.94632
Dispatch_width: 2 853703 3.22178 2.39176
Dispatch_width: 3 497431 1.87725 1.39362
Dispatch_width: 4 6448317 24.3353 18.0658
Dispatch_width: 5 106776 0.402961 0.299147
Dispatch_width: 6 3236868 12.2156 9.0685
Empty_decode_cycles: 9195704 25.7629
ROB_full_cycles: 10362478 29.0318
Starvation_cycles_per_kilo_instr: 220.942
Starvation_cycles_per_kilo_instr_3: 155.391
Starvation_cycles_per_kilo_instr_0: 131.363
Branch_type_1  (3,1)  (4,7)  (5,36)  (6,71)  (7,115)  (8,125)  (9,124)  (10,98)  (11,67)  (12,43)  (13,8)  (14,2)  (15,3)  (16,4)  (18,1)  (19,4)  (20,2)  (21,1)  (22,3)  (23,2)  (24,10)  (25,12) 
Branch_type_2  (3,1)  (5,1)  (8,3)  (9,3)  (12,1)  (13,1)  (14,1)  (16,3)  (17,2)  (20,2)  (21,2)  (23,5)  (24,1)  (47,36) 
Branch_type_3  (3,4034)  (4,234)  (5,401)  (6,417)  (7,428)  (8,312)  (9,251)  (10,154)  (11,122)  (12,50)  (13,7) 
Branch_type_4  (6,3)  (7,8)  (8,24)  (9,50)  (10,59)  (11,58)  (12,93)  (13,84)  (14,98)  (15,90)  (16,98)  (17,63)  (18,54)  (19,115)  (20,71)  (21,124)  (22,207)  (23,136)  (24,186)  (25,72) 
Branch_type_5  (8,2)  (9,1)  (10,3)  (11,5)  (12,3)  (13,14)  (14,16)  (15,11)  (16,20)  (17,13)  (18,16)  (19,12)  (20,10)  (21,13)  (22,42)  (23,26)  (24,36) 
Branch_type_6  (5,4)  (6,12)  (7,21)  (8,33)  (9,30)  (10,63)  (11,51)  (12,75)  (13,87)  (14,106)  (15,86)  (16,93)  (17,67)  (18,49)  (19,104)  (20,50)  (21,95)  (22,139)  (23,72)  (24,92)  (25,4)  (47,44) 
aaaaab1fc620: 2ac9e77e 2aca717c 2aca8eff 2acaf6bc 2acaf9aa 2acaf9f1 2acb1abc 2acb1b7f 2acd4e22 2acdb712 2acf5f9e 2ad0ef44 2ad3f15c 2ad414e6 2ad60e42 2ad8609c 2ad99830 2ada35cc 2ada4676 2ada6612 2adf183e 2adf30e5 2adf5602 2adf785c 2ae11572 2aeb2dcf 2aee101b 2aee1ae1 2b156a8c 2b156b61 2b156bea 2b167f35 2b177656 2b17feec 2b1a3e5a 
aaaaac68f310: 2ac9ec8c 2ac9fb44 2ac9fbd2 2aca59ab 2acac04c 2acaf6e0 2acaf6ec 2acaf6f9 2acaf700 2acaf708 2acf2d90 2ad3cfbd 2ad3cfc4 2ad3d000 2ad3f35f 2ad4955d 2ad49571 2ad4f3f2 2ad4f400 2ad5f240 2ad5f37c 2ad5f86a 2ad5f86f 2ad5f880 2ad5fc0d 2ad5fc14 2ad5fc21 2ad5fe1b 2ad873bb 2ad873e3 2ad8a6b2 2ad9086e 2ad93096 2ad9bbb2 2ada152c 2ada1554 2ada3332 2ada5522 2adf3130 2adf313c 2adf3a3f 2adf3bd9 2adf5788 2adf7a8d 2ae07f6b 2ae0857a 2ae0857e 2ae08630 2ae08634 2ae08637 2ae08642 2ae0866f 2ae086e4 2ae086ec 2ae08717 2ae0871b 2aee0170 2aee1d38 2aee75f4 2aee7662 2aee85ca 2aee85e4 2aee8eef 2af70b84 2af74e8f 2b17d843 
aaaaac690ef0: 2aca598b 2acb111b 2acb175f 2acb1772 2acbfaf4 2acbfb00 2acf374f 2acf6d43 2acfa5c8 2ad3baf1 2ad3d4ac 2ad3d4b8 2ad3f1cf 2ad486b2 2ad5a59b 2ad5fc64 2ad5fcf9 2ad6121c 2ad906e9 2ad907bf 2ad9bada 2ada16ce 2ada1ad5 2ada43df 2ada64c0 2ada72ee 2adeb71a 2adf3bcb 2adf7a38 2adf7c6a 2adf8872 2adf8880 2adf9959 2adf9abe 2ae07f78 2ae08503 2ae08754 2ae12e80 2aea3bea 2aecb509 2aee00b0 2aee2bdd 2aee5467 2aee5601 2aee8f20 2af703fd 2af7048b 2af74e74 
Unique trigger count: 
1 9311
2 485
3 90
4 30
5 10
6 6
7 8
8 1
9 2
10 1
11 2
12 1
13 3
16 2
17 2
19 3
35 1
48 1
66 1
BTB PER SET UNIQUE ADDR: 0 1 1 1 0 0 0 0 0 0 1 0 1 0 0 1 1 0 0 1 0 1 1 1 0 1 1 1 1 1 1 1 1 0 0 0 0 1 4 0 1 0 1 2 1 0 1 0 1 1 0 0 1 0 0 1 1 2 0 0 0 0 0 1 0 1 0 0 0 1 1 0 1 0 0 0 1 2 1 1 1 0 1 1 1 2 0 1 3 1 1 2 1 1 1 0 0 0 0 0 0 2 1 1 0 1 0 0 0 0 1 0 0 1 0 1 0 0 0 0 0 0 0 0 0 0 0 0 2 0 1 0 0 0 1 0 0 0 0 1 0 0 1 0 0 0 0 1 1 1 0 3 1 0 0 0 0 0 0 0 0 0 0 1 0 0 0 0 2 1 0 0 1 0 0 0 0 1 0 0 0 0 1 0 0 1 0 0 0 0 2 0 1 2 0 1 1 0 0 1 0 1 0 0 0 0 0 0 0 0 0 1 1 1 1 0 0 1 0 0 0 0 1 1 1 0 0 0 0 1 1 0 0 0 0 2 1 0 0 0 1 0 1 0 3 1 0 0 1 0 1 0 0 1 0 2 1 0 0 0 2 1 1 0 2 3 1 0 1 0 0 0 0 1 0 1 0 0 0 1 1 0 0 0 1 1 0 0 0 0 0 0 0 0 0 0 1 2 0 0 1 0 1 0 1 0 2 0 0 0 1 0 0 0 2 0 1 1 0 1 0 0 0 0 0 0 1 1 0 0 0 0 1 0 1 0 0 0 2 0 2 0 0 0 0 0 1 0 0 0 0 1 0 2 1 0 1 0 2 0 0 2 1 0 1 1 0 0 0 0 1 0 0 0 0 1 0 0 1 0 0 0 0 1 0 0 1 0 0 0 0 0 1 0 0 0 0 0 0 1 1 1 0 0 0 0 1 1 0 0 0 0 0 0 1 0 2 0 0 1 1 0 1 2 0 2 0 0 0 0 0 0 1 1 1 0 0 0 0 0 0 2 0 1 0 0 0 0 0 0 0 0 0 0 1 0 1 0 2 0 2 0 1 1 0 0 0 0 1 2 0 0 1 1 2 0 0 1 0 0 0 0 0 2 0 0 1 0 0 1 1 0 0 1 0 2 0 1 0 0 1 0 0 0 0 0 0 0 0 1 1 1 0 0 2 0 0 1 1 3 1 0 1 1 3 0 0 0 1 1 1 1 0 2 1 1 0 0 3 0 0 2 1 0 0 1 2 1 0 1 0 0 1 1 0 1 1 0 0 0 2 0 0 0 0 0 0 0 1 3 1 0 1 1 0 0 0 0 0 0 0 0 0 0 0 0 0 0 0 0 0 0 0 0 0 0 1 0 0 0 0 0 0 1 0 1 0 1 0 0 1 0 0 0 0 0 0 0 0 0 0 0 1 0 1 1 0 0 0 0 2 0 0 1 0 0 0 0 0 0 0 0 1 1 0 0 0 0 0 1 0 0 0 0 0 0 0 0 0 1 0 1 0 1 1 1 1 0 0 0 1 0 1 0 1 1 0 1 1 0 1 0 1 0 0 0 1 1 1 0 0 0 0 1 0 1 1 1 0 0 0 1 0 1 0 0 0 0 0 0 1 1 0 0 1 0 1 1 0 0 0 0 0 0 0 0 0 0 0 1 0 1 0 0 0 0 2 1 1 0 1 1 1 0 1 0 0 0 0 1 0 0 1 0 0 1 1 2 0 0 1 0 0 0 0 0 1 0 0 0 2 0 0 0 0 1 3 0 1 1 1 0 0 0 1 1 1 1 0 0 1 0 0 0 1 1 1 0 0 0 0 0 0 0 0 0 0 0 0 1 0 1 0 0 0 0 1 0 0 0 2 0 1 0 0 0 0 1 0 0 0 1 1 0 0 0 0 0 1 0 0 0 0 0 0 2 0 2 1 0 1 0 1 0 0 0 0 0 0 1 0 0 0 0 0 0 0 0 1 0 0 0 0 0 0 0 0 0 2 1 1 1 0 0 0 0 0 1 0 0 0 0 0 0 0 0 2 0 1 0 0 0 0 1 0 1 0 0 0 1 0 1 0 0 0 0 0 0 0 0 0 1 1 0 1 0 0 0 1 0 0 0 2 0 1 0 0 1 0 0 0 0 0 1 0 0 1 0 0 1 0 0 0 0 0 0 0 2 0 0 2 0 1 1 0 1 4 1 0 1 0 0 0 0 1 0 1 3 0 0 2 1 1 2 1 0 0 1 2 0 2 1 0 0 1 0 0 1 0 2 0 0 1 0 1 1 2 0 0 1 0 0 1 0 0 0 1 1 0 1 1 1 4 2 0 0 0 1 1 1 3 2 1 1 1 0 0 1 1 0 0 0 0 2 0 1 2 0 2 3 0 1 0 2 1 1 2 1 1 0 0 0 0 0 2 0 1 1 2 0 1 3 0 2 0 0 3 0 0 1 0 0 0 1 1 2 1 2 0 2 0 2 1 2 1 0 2 0 0 1 0 2 1 0 1 1 1 1 0 1 0 2 1 1 1 1 1 0 1 2 1 1 1 0 0 1 1 2 1 1 1 1 1 0 2 1 0 0 1 0 0 0 1 0 1 0 0 1 1 2 0 2 1 0 1 0 1 1 0 0 0 0 0 3 0 1 1 1 0 1 0 0 1 0 3 0 0 1 2 4 2 1 0 3 4 0 2 0 0 0 0 1 1 0 1 0 2 3 1 0 0 0 2 1 0 1 0 0 0 2 1 3 0 2 0 1 0 0 2 3 3 0 4 0 0 0 1 1 2 0 2 1 1 1 0 0 0 1 1 1 0 1 1 2 2 0 2 1 0 2 2 2 1 1 0 1 0 0 1 3 4 1 1 1 0 1 2 1 2 0 0 1 1 0 5 2 1 0 0 0 1 1 0 0 1 0 0 1 2 2 0 0 2 0 0 0 0 1 1 0 1 0 0 1 1 0 2 1 3 1 1 1 1 0 1 1 0 2 1 0 0 2 0 1 2 0 0 0 0 1 0 1 0 1 0 1 1 0 0 0 0 0 0 0 0 1 0 0 0 0 1 2 1 0 1 0 0 0 1 2 1 1 1 1 0 2 0 2 2 0 1 0 0 1 1 2 1 1 1 0 1 1 0 0 1 2 0 1 1 0 1 0 0 1 1 1 1 1 1 0 4 1 1 1 0 0 1 3 0 1 0 2 0 1 2 0 0 0 0 1 0 0 0 0 0 1 1 1 0 1 0 0 1 0 1 0 0 0 0 1 1 0 0 0 0 1 1 1 3 1 1 0 1 1 1 0 1 0 0 3 0 0 0 0 0 1 1 0 0 0 0 0 0 0 0 0 1 0 2 0 1 0 2 0 1 0 0 2 0 0 2 1 1 1 1 0 0 1 0 0 1 0 1 1 1 1 0 0 1 0 2 1 0 0 2 1 0 1 0 2 1 1 1 1 0 1 1 1 0 1 1 0 1 0 2 0 1 0 0 0 0 0 0 1 1 0 1 2 1 1 0 0 1 0 0 1 0 0 0 1 1 0 0 1 1 1 1 0 0 1 1 3 1 0 0 1 2 0 0 0 3 1 2 0 2 0 2 1 0 1 1 2 3 0 1 0 2 1 0 5 2 2 1 2 3 0 0 2 0 1 1 0 1 0 1 0 0 1 0 1 2 0 0 0 1 1 2 1 3 0 0 0 3 0 0 2 1 0 0 0 0 3 0 1 0 2 1 0 1 2 1 1 1 1 1 1 1 0 1 0 0 0 1 1 1 2 0 0 1 1 0 1 1 0 0 1 2 0 0 1 0 0 0 2 1 0 0 2 1 0 0 0 0 1 0 0 1 1 2 1 1 1 4 0 1 3 3 2 2 1 0 2 0 0 1 1 0 0 0 0 1 1 2 0 0 1 1 1 1 0 0 0 0 1 2 1 1 1 0 0 1 1 0 0 0 0 1 0 0 0 0 1 0 1 0 0 2 0 2 1 0 0 0 0 0 2 0 0 0 0 0 0 1 0 3 0 1 1 0 0 1 1 0 0 0 0 0 0 0 0 2 1 1 0 1 0 0 1 1 0 0 4 0 0 0 0 1 1 0 0 2 1 3 0 0 1 0 2 1 1 2 0 1 0 3 0 2 0 1 0 1 0 1 1 0 0 1 1 0 0 0 0 1 1 1 0 1 1 1 0 1 0 0 0 0 1 1 0 0 0 0 0 0 2 2 2 0 0 0 1 0 0 0 0 0 1 1 0 0 1 0 0 1 1 0 1 2 0 0 0 0 1 1 1 0 0 0 0 1 0 0 0 0 0 0 0 0 0 1 0 0 1 1 1 0 0 0 0 0 0 0 0 0 1 0 0 1 0 1 0 0 0 0 0 0 0 0 0 0 0 0 0 0 0 2 0 1 2 1 0 0 1 0 0 0 0 0 1 0 2 0 2 0 1 2 4 0 0 0 0 1 1 1 0 0 0 1 1 0 0 0 0 1 3 1 0 1 0 0 0 0 0 2 0 0 1 0 0 0 1 0 0 0 1 2 0 0 0 2 0 0 0 1 1 0 0 0 2 0 1 0 2 0 0 0 0 0 0 1 0 1 0 1 0 1 0 1 1 1 0 0 0 0 0 1 1 0 0 1 1 1 0 1 0 1 1 1 0 0 0 1 2 1 1 0 1 0 1 1 1 0 0 1 2 0 0 1 0 1 3 0 1 0 0 1 0 1 1 1 1 0 1 2 1 1 0 2 1 1 0 0 1 0 0 0 0 0 1 0 1 0 0 0 0 1 0 0 0 0 0 0 0 1 0 1 0 0 0 0 1 0 0 0 0 1 0 0 0 1 0 1 1 0 0 0 0 1 1 0 0 0 0 0 0 0 0 0 0 1 0 0 0 0 1 1 0 2 1 0 1 0 0 0 0 0 0 3 1 1 0 1 1 1 0 2 0 0 0 2 0 1 1 0 1 1 0 1 0 1 1 1 1 1 0 2 0 2 0 2 2 1 2 1 1 2 0 2 0 0 0 1 0 0 0 1 0 2 0 1 1 1 0 1 0 0 0 1 1 0 2 2 1 1 2 1 1 1 1 1 1 1 0 3 1 0 2 2 0 2 2 2 1 0 1 3 2 2 0 0 0 0 0 0 1 0 0 0 0 0 0 0 0 0 0 1 0 0 0 0 0 1 1 2 2 0 0 1 1 0 1 0 0 0 1 0 1 1 0 1 0 0 0 1 1 0 0 0 0 0 0 1 0 0 0 0 0 0 0 1 0 1 0 2 0 1 0 0 0 0 2 0 1 1 0 1 0 0 0 0 0 0 0 1 0 1 0 1 1 1 0 1 0 1 1 1 3 0 0 0 3 1 1 1 0 0 2 0 0 1 0 0 1 0 0 0 0 1 0 0 0 1 1 3 0 0 0 1 0 2 3 1 1 2 0 0 0 1 0 1 2 1 2 3 2 0 1 0 1 0 0 0 1 3 1 1 1 1 0 2 1 0 1 2 1 1 0 1 0 3 1 1 0 0 1 2 0 1 2 0 0 0 0 0 2 1 0 0 0 0 1 0 2 1 0 2 2 0 1 0 0 1 1 1 0 1 0 1 1 0 1 2 0 2 1 0 0 0 0 0 0 1 1 0 2 0 0 1 0 1 0 1 0 2 1 0 1 2 1 0 2 1 1 1 1 2 1 2 0 0 2 2 0 0 0 2 3 0 1 2 0 1 0 0 1 1 0 1 0 2 1 0 2 1 2 1 1 0 1 1 0 0 0 2 0 1 1 1 1 1 0 0 3 0 1 0 1 0 1 0 3 0 0 0 3 0 2 1 1 0 0 0 1 0 0 1 1 1 1 0 1 0 0 0 1 1 0 0 1 0 0 1 1 0 0 0 1 1 0 0 0 1 0 0 0 1 0 0 1 0 0 0 0 0 0 2 2 0 1 1 1 0 0 0 0 0 2 2 1 1 2 0 0 1 0 1 1 3 1 3 3 2 4 2 2 1 0 0 2 0 0 0 0 0 2 0 0 0 0 0 2 2 0 0 2 1 1 1 0 1 2 2 1 2 1 2 3 0 1 1 0 0 0 0 0 0 1 1 1 1 0 1 1 0 0 0 0 1 0 1 0 0 1 0 1 3 2 0 2 0 0 1 4 0 0 1 2 0 0 1 1 3 0 0 2 1 0 0 1 1 1 0 0 0 0 3 0 3 0 0 2 0 1 0 0 2 0 1 0 1 1 3 0 0 1 4 0 0 0 1 0 0 0 1 0 0 1 1 0 2 1 0 0 0 2 0 2 1 0 0 1 1 1 1 1 1 0 1 0 0 2 0 1 1 0 0 2 0 0 0 1 0 3 1 1 3 1 1 1 0 1 0 1 2 0 2 1 0 0 0 1 0 0 3 3 0 0 0 1 0 1 0 1 1 1 2 0 0 0 2 1 2 1 1 0 1 1 0 0 1 0 1 0 1 1 0 1 0 0 0 1 1 1 0 0 1 1 2 0 2 0 1 1 0 0 0 0 0 0 1 0 1 1 0 2 0 1 0 1 2 0 0 2 0 0 0 1 1 3 0 4 0 0 1 2 2 3 0 1 0 2 2 1 0 0 0 0 3 2 0 2 3 0 2 2 1 0 1 2 2 0 0 1 0 0 0 0 0 0 3 1 1 1 1 2 1 2 1 0 2 1 0 2 0 1 0 0 1 0 1 0 1 1 1 0 0 1 2 2 1 0 2 3 1 1 1 2 1 1 2 1 0 0 0 1 2 1 1 0 3 0 0 2 1 1 0 1 2 1 0 0 1 0 0 2 1 0 1 1 0 1 0 0 1 0 2 1 0 0 3 1 1 0 1 0 1 0 1 0 1 1 0 0 1 2 0 1 2 0 0 0 0 1 0 1 0 1 1 1 2 1 1 2 0 0 0 0 0 0 0 1 2 1 1 1 0 0 1 1 1 3 2 0 0 0 2 0 0 1 1 1 1 1 0 1 0 1 0 2 0 1 0 1 0 0 0 0 0 0 1 0 0 0 0 0 0 0 0 1 0 3 1 0 1 0 3 0 0 2 0 0 3 1 1 0 0 1 0 1 1 0 0 0 0 0 1 0 1 1 1 0 2 0 2 0 4 1 1 1 1 1 1 3 1 0 3 0 1 1 1 1 1 1 1 0 1 1 2 1 3 1 0 1 0 0 1 0 0 1 1 1 1 1 1 1 1 1 2 0 1 0 1 1 2 0 2 0 1 0 1 1 1 0 0 0 1 1 1 1 0 1 0 2 1 0 0 2 0 1 1 0 1 1 2 0 3 0 3 1 1 1 1 2 0 0 1 0 1 0 1 0 1 0 1 0 1 2 1 1 1 0 1 2 0 2 1 0 0 1 1 0 1 0 0 0 1 0 1 0 1 0 1 0 0 1 2 1 1 0 1 1 0 1 0 0 2 0 2 2 4 0 0 1 0 1 1 1 0 0 0 0 0 0 1 0 1 1 0 0 0 1 0 0 1 1 0 1 1 0 0 1 1 1 1 1 1 0 2 0 0 0 0 1 2 0 1 1 1 1 1 0 1 0 1 2 1 1 0 0 1 1 3 1 0 1 0 1 3 0 1 0 1 0 0 1 2 0 2 0 0 0 0 2 1 0 2 0 0 0 2 4 1 1 1 0 1 1 0 1 0 0 0 0 0 1 0 1 0 0 0 2 0 0 0 0 0 1 0 0 0 0 1 0 0 1 2 1 0 0 2 0 2 0 0 0 0 1 0 0 2 1 0 0 0 0 0 0 0 0 0 1 1 1 0 2 0 1 2 1 1 0 0 0 2 0 3 1 2 1 0 2 0 0 0 0 1 0 2 0 2 0 1 0 1 0 2 1 0 0 1 0 0 1 1 0 0 0 2 1 0 0 0 1 1 1 2 1 3 0 0 3 1 3 1 1 1 0 2 2 2 1 1 1 2 0 2 0 1 0 2 1 0 1 1 1 2 0 2 1 4 0 0 1 1 1 3 1 1 0 3 0 0 1 2 0 0 0 1 3 1 0 0 0 2 2 1 1 1 4 0 1 1 1 4 0 0 0 1 1 2 1 0 1 1 1 1 1 1 1 0 1 0 1 1 0 1 0 2 0 1 0 1 1 0 2 0 0 1 1 0 0 1 1 0 1 1 0 3 1 1 2 1 0 1 0 0 0 0 2 1 0 0 0 1 1 0 0 1 1 1 1 0 0 2 0 3 1 1 0 0 1 0 1 2 1 0 1 1 1 1 1 0 0 0 0 0 0 1 0 0 2 0 0 0 1 2 0 1 0 1 1 1 1 1 0 0 2 1 1 1 1 1 1 0 0 0 0 1 1 1 2 0 1 1 0 0 1 1 0 2 1 1 0 0 2 0 2 0 1 1 1 0 2 1 0 0 0 0 0 0 1 0 2 4 0 0 0 0 2 1 0 1 2 1 1 0 0 0 0 0 0 0 1 0 1 0 1 1 0 1 1 1 0 1 0 0 1 0 0 0 1 0 0 2 1 0 0 1 3 0 2 1 1 1 0 1 0 1 1 1 2 0 0 1 0 0 0 1 0 0 2 0 1 0 2 0 0 0 1 0 0 0 0 0 1 1 1 1 0 0 0 2 0 0 0 0 1 0 0 0 2 1 0 1 1 1 0 1 0 1 0 0 0 1 1 0 0 2 0 0 1 1 0 0 0 0 0 1 1 1 1 0 1 1 2 1 1 0 0 0 1 0 0 1 1 0 0 0 0 1 0 1 0 1 1 1 1 0 0 0 1 0 0 0 1 0 0 0 0 0 0 0 1 0 0 1 0 1 0 0 0 0 0 0 0 1 1 1 1 0 1 1 0 1 2 0 1 0 1 1 0 0 0 0 0 0 1 0 1 2 0 1 1 1 0 0 1 0 2 0 1 1 0 0 0 0 0 0 1 2 1 1 1 2 0 0 1 1 1 1 2 0 1 2 3 0 0 2 0 1 2 0 0 1 0 1 0 0 1 1 0 1 0 1 1 0 1 0 3 1 0 0 1 1 0 0 1 0 0 1 1 0 1 1 1 1 0 0 0 0 0 2 0 1 0 1 1 1 2 1 3 1 1 1 1 2 0 0 1 0 2 0 0 0 0 3 1 2 0 0 0 3 0 0 0 1 0 0 2 1 1 0 0 0 1 1 0 0 1 1 0 0 1 1 0 0 1 0 0 1 1 0 0 0 0 0 1 2 0 1 1 1 0 0 2 0 0 1 1 1 1 0 0 1 1 3 0 1 0 0 1 0 0 1 1 1 1 0 0 0 1 1 1 1 1 0 1 1 1 1 0 2 0 0 2 0 0 0 2 1 1 0 0 1 1 3 0 1 1 1 0 0 1 2 1 1 1 1 2 2 1 0 3 4 0 2 1 4 1 0 2 1 1 1 4 0 0 0 1 0 3 2 0 1 3 0 1 2 1 1 2 1 0 1 3 0 1 3 0 1 2 1 1 1 1 3 0 0 1 3 1 1 2 1 2 1 0 2 2 2 0 1 1 1 1 0 2 2 0 1 0 1 1 0 0 1 1 2 2 1 0 0 0 1 2 2 1 1 2 0 2 1 0 0 2 1 1 0 0 0 0 2 2 0 1 3 0 1 2 1 1 1 0 1 0 3 1 1 2 4 2 2 1 2 0 1 1 2 1 0 0 1 0 0 1 0 0 2 0 1 0 0 0 1 0 0 0 0 1 1 0 1 1 0 1 1 0 0 0 0 1 1 0 2 2 0 1 4 2 1 1 1 0 1 0 1 1 0 0 0 1 2 1 1 1 1 1 0 1 1 0 0 2 1 2 2 2 1 2 1 2 0 1 2 0 1 1 2 2 1 1 2 1 1 0 3 1 1 2 1 1 1 2 2 1 1 1 0 0 1 2 0 1 2 0 0 1 1 2 0 1 1 2 1 2 3 3 1 1 2 2 1 0 1 1 1 0 1 1 2 2 0 2 0 2 0 0 3 0 1 2 2 1 1 2 2 0 0 0 0 1 1 2 0 1 0 2 1 1 2 0 1 2 0 0 1 0 0 0 0 2 2 1 1 0 0 0 2 1 2 0 1 1 2 1 1 3 0 0 1 2 0 0 1 1 2 1 1 2 1 2 2 0 3 0 0 1 2 0 2 1 1 0 0 1 0 1 0 0 0 1 0 0 1 1 1 1 0 1 1 0 1 1 0 0 1 3 0 0 3 1 2 3 2 1 0 0 0 2 3 1 2 1 1 2 1 1 3 0 0 0 2 0 0 2 0 1 1 0 2 1 0 0 1 0 0 1 0 1 0 0 0 1 0 0 0 0 0 1 1 0 0 2 1 0 2 0 1 1 1 1 0 0 1 0 2 0 2 0 0 1 0 2 1 0 0 1 2 1 2 2 0 0 1 2 0 1 0 0 2 0 0 2 0 2 2 0 3 0 2 0 0 3 0 0 0 0 0 2 2 0 5 0 3 2 4 3 1 3 2 2 0 0 0 0 0 1 4 0 1 2 1 0 0 1 1 1 2 0 0 3 1 0 0 1 0 0 0 1 0 0 1 0 0 4 1 1 2 2 0 1 1 2 1 0 0 1 0 0 1 2 0 0 1 0 2 0 1 1 2 1 2 0 2 0 2 1 3 1 2 0 1 0 1 2 1 0 1 1 0 0 2 1 0 0 1 1 4 1 2 2 0 0 1 0 2 0 1 1 3 1 1 0 3 0 1 2 2 1 3 2 1 0 0 1 0 0 3 1 0 0 3 1 0 0 2 2 0 0 1 2 2 1 0 1 1 1 0 2 1 0 1 2 2 2 2 2 0 1 0 1 1 1 0 1 0 0 0 1 0 1 1 0 0 0 0 2 1 0 1 1 0 1 1 1 0 2 2 1 1 0 1 1 2 0 0 0 0 1 0 2 0 0 2 1 1 1 0 0 0 2 0 0 1 1 1 0 0 1 0 2 0 1 2 1 0 1 0 2 0 0 1 1 0 1 0 0 1 1 0 0 2 2 2 2 0 0 0 3 0 0 1 2 2 1 1 0 2 2 1 2 1 1 1 4 0 1 0 1 1 0 2 1 0 0 0 3 1 0 0 0 2 1 1 0 1 4 1 0 1 1 3 0 1 0 2 2 0 1 0 1 0 0 3 0 2 0 1 0 2 1 2 2 0 0 1 0 0 0 0 1 4 1 1 0 1 0 1 1 1 2 1 0 2 2 1 0 1 0 1 0 0 0 1 1 0 0 2 0 1 2 1 1 2 0 0 1 1 0 0 0 1 2 0 1 0 3 3 2 0 0 1 2 0 0 1 2 3 0 2 1 1 0 3 0 1 1 3 1 2 2 1 1 1 0 0 1 1 1 0 2 2 2 0 2 1 0 1 0 4 1 1 0 4 0 2 1 0 1 1 1 2 3 4 1 2 1 1 1 0 2 1 1 2 1 1 2 1 1 0 1 0 1 1 0 0 1 1 0 1 2 1 1 2 1 1 2 0 1 1 1 1 2 1 2 0 1 2 0 2 0 1 2 2 1 1 2 2 0 3 2 0 2 2 0 0 0 0 2 1 0 2 0 0 0 0 0 2 0 1 1 0 1 1 1 1 0 0 0 3 0 0 2 0 0 0 1 0 1 0 0 0 0 0 1 1 2 0 1 3 0 0 1 4 0 1 0 1 1 2 1 0 2 1 1 2 1 1 2 1 0 0 0 2 0 1 1 1 3 0 0 2 0 0 0 2 0 1 0 2 2 1 1 1 1 0 1 3 1 0 1 1 0 2 0 0 3 0 1 1 1 0 2 0 1 2 1 0 2 0 0 0 2 1 0 0 0 1 1 1 0 0 1 2 1 1 0 2 0 0 0 2 0 1 1 1 3 0 1 3 0 0 1 1 1 0 0 0 3 0 3 0 0 0 1 2 0 0 0 2 0 0 1 0 1 0 0 0 1 1 0 1 0 0 0 1 2 0 1 2 0 0 1 0 0 0 1 2 0 0 0 0 1 0 0 2 0 0 2 1 0 1 1 0 3 0 2 0 0 0 3 1 1 0 1 0 0 1 1 0 2 2 1 0 0 2 0 0 0 1 1 0 0 1 1 1 1 0 0 0 1 0 1 3 0 0 1 0 0 2 1 2 0 0 0 0 1 1 0 1 1 1 0 1 0 4 0 0 1 0 3 1 0 0 0 0 1 0 0 1 1 1 1 0 1 1 0 0 1 1 0 0 2 1 1 0 1 1 0 1 1 0 1 2 1 1 2 0 0 2 0 2 1 0 1 1 1 1 0 0 0 1 0 1 1 1 0 0 0 0 0 1 2 1 1 0 1 1 0 1 0 0 1 0 1 0 1 0 1 0 1 2 0 3 0 3 2 0 0 1 1 2 0 0 0 2 0 1 1 0 2 1 0 2 0 1 0 1 1 0 1 0 1 1 1 2 0 0 1 1 3 2 0 1 0 0 1 1 0 0 2 0 1 1 0 0 1 0 0 1 1 0 1 0 2 1 0 0 0 0 0 0 0 0 0 0 0 1 0 1 0 0 0 0 0 0 0 0 0 0 0 0 0 1 0 0 0 1 0 0 0 0 0 0 2 1 0 0 0 2 0 0 0 1 1 1 0 1 0 0 0 0 0 1 0 1 0 1 0 0 1 1 0 0 0 0 1 0 1 0 0 2 1 1 1 0 0 0 0 0 0 1 0 0 1 0 0 0 1 0 0 0 0 0 0 1 0 1 1 1 2 0 0 1 0 0 0 0 0 0 0 1 0 1 1 0 0 0 0 2 0 0 0 0 1 0 0 0 0 1 0 0 1 0 1 1 1 2 0 2 0 0 0 0 1 1 0 1 1 1 1 1 0 0 0 2 0 0 1 0 1 1 0 2 0 0 0 0 0 1 1 2 0 0 1 0 1 0 1 0 0 2 1 1 1 2 1 3 0 1 0 1 0 1 1 0 3 1 0 0 0 0 2 2 1 0 0 1 0 1 0 1 1 0 0 0 0 0 1 2 1 0 1 1 0 1 1 1 1 1 0 0 0 0 1 1 1 0 0 0 1 1 0 1 1 2 1 1 0 0 1 1 3 0 0 1 1 0 1 2 1 0 0 0 0 0 2 2 0 0 0 0 1 2 1 1 2 0 0 1 1 0 1 1 0 2 2 0 0 0 2 0 1 1 1 0 0 0 0 0 0 2 0 1 0 1 0 2 0 3 2 1 2 0 3 0 0 0 1 0 1 2 0 0 0 0 1 1 0 1 1 0 1 1 1 1 1 0 1 2 0 2 0 0 0 1 1 1 2 1 0 2 1 2 1 1 2 3 0 0 3 0 1 0 1 1 3 2 0 1 1 2 0 2 0 2 2 1 2 0 0 1 0 0 1 0 2 0 1 1 2 1 1 3 1 1 1 2 0 1 0 3 0 2 2 2 2 2 1 0 0 1 0 0 0 1 1 0 0 0 1 0 0 0 2 0 1 2 1 2 0 2 0 0 2 2 0 1 1 1 0 0 2 2 1 1 0 0 1 0 0 0 0 0 1 0 1 2 0 0 1 0 0 0 1 1 1 1 0 1 0 2 2 1 0 1 1 0 1 1 2 1 2 1 0 1 0 2 1 0 1 0 1 1 0 1 2 0 1 0 1 0 0 2 1 0 2 2 2 0 1 0 1 1 0 0 1 3 0 1 0 1 0 2 0 0 0 2 3 0 3 1 0 2 0 1 1 1 1 0 1 0 1 0 1 2 1 1 0 0 2 2 1 0 0 0 3 1 0 2 2 1 0 3 1 0 0 1 2 0 0 0 2 1 0 2 0 0 0 1 2 1 0 1 0 1 1 2 1 0 2 3 1 3 0 0 1 0 0 0 0 1 0 0 0 0 0 3 0 0 1 1 0 2 1 2 2 1 1 2 1 0 2 1 1 3 1 2 1 2 2 0 2 1 1 1 1 1 2 3 1 1 2 0 1 1 1 1 0 0 1 1 0 2 1 0 1 0 1 1 0 0 2 1 3 0 0 0 2 0 2 0 0 0 2 1 0 0 0 0 2 0 1 0 1 2 1 0 1 0 0 2 0 0 1 1 0 1 0 1 0 0 1 0 2 0 0 0 4 1 2 0 2 1 0 2 1 0 0 0 1 1 0 1 1 1 2 2 0 2 2 0 1 2 1 1 1 0 1 1 3 0 2 0 1 1 2 1 2 0 0 1 1 0 1 1 3 3 1 1 0 0 1 1 0 1 0 1 1 0 1 1 3 0 0 1 0 0 1 1 3 1 1 0 1 1 0 0 1 2 1 0 1 2 3 0 0 2 1 0 2 1 2 0 1 0 0 1 2 1 0 0 1 1 0 1 1 1 1 1 1 1 1 0 1 3 1 2 0 2 1 0 2 0 1 0 0 3 1 2 3 0 0 0 1 1 0 0 2 2 1 1 1 1 1 0 1 2 0 0 1 0 1 2 1 1 0 0 1 1 0 0 1 0 1 1 0 3 1 1 2 0 2 0 0 0 1 0 2 0 0 0 1 1 1 1 1 0 1 0 0 0 0 1 1 0 0 0 0 1 0 2 1 1 0 2 2 0 1 1 0 0 1 1 0 0 0 0 2 2 0 1 0 0 0 1 0 0 2 0 0 0 1 2 1 0 0 1 0 1 1 1 0 0 1 1 1 0 0 0 1 0 0 2 0 0 1 0 3 0 1 0 1 0 1 3 2 0 1 1 1 2 1 1 0 1 1 1 0 1 0 0 0 0 0 1 1 1 1 1 2 1 0 1 0 1 1 4 0 0 2 0 0 0 0 0 0 0 1 1 0 1 0 0 0 1 1 2 1 0 1 1 2 3 0 2 0 1 0 2 3 1 1 1 1 0 3 0 1 0 0 0 0 3 0 0 1 0 3 0 2 1 1 0 0 0 1 1 1 0 0 2 1 1 0 0 0 0 0 0 1 0 0 2 0 0 0 2 0 0 1 1 1 0 0 1 1 1 0 0 0 0 1 1 0 0 0 0 1 0 0 1 1 3 0 2 1 1 1 3 0 0 1 2 1 0 2 1 3 2 0 0 0 0 0 2 0 3 2 0 0 1 0 2 4 2 3 0 2 1 2 2 0 1 2 1 2 3 0 1 1 3 1 0 2 0 2 2 3 1 2 1 0 1 4 3 0 1 0 0 0 0 3 1 0 2 2 1 0 0 1 1 2 0 0 1 0 1 0 0 1 2 3 0 0 3 1 0 1 0 0 0 0 1 0 1 1 1 2 0 0 0 2 0 3 1 1 2 0 1 0 0 0 1 0 2 0 1 1 0 0 2 2 0 2 2 1 1 0 2 0 1 3 0 0 2 0 2 0 3 1 1 0 1 1 1 2 2 0 1 4 2 0 0 1 1 1 0 0 3 0 3 1 2 1 0 1 1 1 1 0 0 1 0 2 0 2 0 0 2 1 1 0 2 1 1 0 0 0 0 0 2 1 0 1 0 0 0 0 0 0 0 2 1 1 1 1 1 1 1 1 0 0 0 2 0 0 0 1 0 0 0 1 0 0 0 0 0 0 1 1 0 1 3 1 2 1 1 0 3 2 2 0 1 1 1 0 0 2 0 1 0 0 0 2 1 2 0 3 2 0 0 0 0 1 1 0 2 0 1 2 2 1 1 2 1 0 2 0 2 2 1 0 2 1 0 1 2 0 1 1 0 1 0 1 1 1 2 1 0 0 0 0 1 0 0 0 0 0 2 2 1 1 2 0 1 0 2 1 1 1 3 1 2 1 2 2 2 1 2 2 3 1 2 1 2 2 2 0 3 0 0 1 3 2 1 0 0 3 3 0 0 1 0 1 1 2 0 4 3 1 0 0 1 2 0 2 2 1 1 0 2 3 0 0 1 1 0 1 2 0 2 2 2 0 0 0 0 1 0 2 0 0 3 0 1 3 1 1 1 1 0 1 1 3 0 3 2 2 2 2 4 1 0 3 1 0 0 1 2 2 2 2 1 1 2 0 1 1 0 2 2 2 0 0 0 1 1 3 0 0 0 2 3 0 1 1 0 2 2 0 1 0 0 1 0 2 1 1 0 0 0 1 0 1 1 2 1 5 1 1 2 2 0 1 1 1 2 0 0 1 1 0 2 0 1 2 0 1 4 0 2 0 1 1 2 0 0 0 1 0 1 1 0 1 0 0 2 1 0 2 1 1 2 0 0 1 2 0 1 1 1 3 1 1 0 1 0 0 2 1 0 0 1 1 2 0 0 1 2 1 1 1 0 1 0 1 1 1 1 0 0 1 1 1 0 1 0 2 1 2 0 1 2 1 0 1 0 0 0 1 0 0 2 1 1 2 1 1 1 3 1 0 0 2 3 0 1 1 1 2 1 0 2 0 2 1 1 0 2 2 2 3 0 1 2 3 2 1 2 0 0 1 0 3 0 0 0 0 1 1 0 0 2 0 0 2 1 0 2 0 2 1 1 2 0 0 2 2 1 3 0 1 0 1 2 1 2 1 0 2 2 1 0 3 0 1 2 1 0 1 1 0 0 1 0 0 0 2 2 0 0 0 0 1 1 0 0 2 1 1 2 1 0 0 0 1 1 1 0 1 2 2 0 1 1 0 2 0 1 3 2 1 0 1 0 0 1 0 0 0 2 0 1 1 0 2 2 0 2 0 0 1 1 2 2 1 1 2 3 2 0 0 0 2 2 2 0 0 2 2 0 1 2 2 0 2 1 1 0 4 1 2 2 4 0 0 2 0 0 0 2 1 2 5 1 3 0 1 1 4 0 3 0 4 2 1 0 1 0 0 1 1 1 2 1 2 2 1 3 1 3 1 0 2 0 4 2 3 1 0 0 1 1 0 1 1 4 0 1 0 0 0 0 1 1 3 1 0 0 2 1 1 2 1 2 1 1 0 1 1 2 0 2 1 3 1 1 0 1 2 0 0 0 3 0 3 3 0 0 0 1 0 2 2 2 0 1 3 1 3 1 2 0 1 0 1 1 1 2 1 3 0 0 0 3 0 0 2 3 2 2 3 0 0 1 0 1 0 0 0 0 0 0 0 0 2 0 1 0 1 0 2 1 0 1 2 1 0 1 0 2 0 0 1 2 1 0 1 0 2 1 0 0 1 0 2 1 1 0 1 3 1 0 2 2 0 1 0 1 0 1 0 0 0 0 2 1 0 0 0 0 0 1 2 0 2 1 2 0 0 0 0 1 1 1 0 0 1 0 1 0 2 0 2 0 0 0 0 0 0 0 2 0 0 1 2 1 0 1 0 0 2 0 0 0 1 0 1 0 0 0 0 0 1 0 0 0 2 0 1 1 1 0 1 0 3 1 1 1 0 1 0 1 2 2 2 0 1 0 0 0 2 0 0 2 0 1 1 0 1 0 0 0 1 0 4 2 2 1 1 2 0 1 1 1 1 0 0 0 0 1 0 1 1 1 2 2 0 1 1 1 1 2 0 0 3 0 0 2 2 0 3 0 1 1 2 2 2 0 1 0 3 1 1 0 1 1 2 2 1 1 1 2 0 0 3 1 2 0 1 2 0 3 0 1 1 0 4 2 1 1 0 1 1 2 0 1 1 1 0 0 2 0 2 0 0 0 0 1 2 0 0 1 1 2 0 2 0 3 0 3 1 1 0 4 0 3 1 2 1 1 4 0 1 1 3 3 2 0 2 0 2 3 0 2 2 1 1 2 1 1 1 0 3 0 1 0 2 0 2 0 1 2 1 1 1 0 3 1 1 1 1 1 3 0 1 0 1 1 2 0 3 0 3 0 1 1 3 1 2 2 1 2 0 2 2 0 5 0 3 2 1 1 1 1 0 2 1 2 1 2 2 1 2 2 0 0 3 2 1 2 1 0 2 0 1 4 2 0 2 3 1 1 1 3 1 1 1 1 2 0 1 0 0 0 1 0 0 2 0 1 1 0 0 0 1 0 2 0 1 2 1 0 1 0 1 1 1 1 0 0 0 0 1 1 2 1 2 0 0 0 0 0 1 0 1 2 3 0 0 1 0 1 1 0 1 1 1 1 1 0 0 2 1 0 2 1 0 0 1 1 1 1 0 2 0 0 1 1 2 0 1 1 2 1 1 0 0 2 0 0 0 2 1 0 2 1 3 2 1 1 1 1 0 0 1 1 0 0 1 2 1 3 0 1 0 0 0 2 1 1 1 1 0 0 4 1 0 3 0 1 2 0 0 1 2 2 1 2 0 2 0 0 1 1 2 1 3 0 0 1 0 2 2 2 0 0 2 0 0 0 0 0 0 1 1 1 0 1 0 2 0 2 1 0 0 0 1 1 1 4 1 0 0 0 1 0 0 0 3 1 0 0 1 0 1 0 0 0 0 0 2 1 2 0 0 0 1 1 0 1 1 1 1 0 0 2 1 2 2 1 1 0 4 0 2 2 0 1 0 0 1 1 1 1 0 1 0 1 1 3 0 1 1 1 0 0 1 1 0 1 0 
BTB PER SET COUNT: 0 1 1 1 0 0 0 0 0 0 1 0 1 0 0 1 1 0 0 1 0 1 1 1 0 1 1 1 1473 1 1 1 1 0 0 0 0 1 4 0 1 0 3 2 1 0 1 0 1 1 0 0 1 0 0 1 2 2 0 0 0 0 0 1 0 2 0 0 0 1 1 0 1 0 0 0 482 2 1 1 1 0 1 1 1 2 0 1 3 1 1 512 1 1 1 0 0 0 0 0 0 2 2 1 0 1 0 0 0 0 1 0 0 1 0 1 0 0 0 0 0 0 0 0 0 0 0 0 2 0 1 0 0 0 1 0 0 0 0 1 0 0 1 0 0 0 0 1 1 1 0 53 1 0 0 0 0 0 0 0 0 0 0 1 0 0 0 0 1985 1 0 0 1 0 0 0 0 1 0 0 0 0 1 0 0 1 0 0 0 0 2 0 1 2 0 4 1 0 0 1 0 1 0 0 0 0 0 0 0 0 0 3 1 1 1 0 0 1 0 0 0 0 1 1 1 0 0 0 0 1 1 0 0 0 0 2 1 0 0 0 1 0 1 0 3 1 0 0 1 0 1 0 0 1 0 2 1 0 0 0 2 1 1 0 2 3 1 0 1 0 0 0 0 1 0 1 0 0 0 1 1 0 0 0 1 1 0 0 0 0 0 0 0 0 0 0 2 2 0 0 1 0 1 0 1 0 2 0 0 0 1 0 0 0 2 0 1 1 0 1 0 0 0 0 0 0 1 1 0 0 0 0 1 0 1 0 0 0 2 0 2 0 0 0 0 0 1 0 0 0 0 1 0 2 1 0 1 0 2 0 0 2 1 0 1 1 0 0 0 0 1 0 0 0 0 1 0 0 1 0 0 0 0 1 0 0 1 0 0 0 0 0 1 0 0 0 0 0 0 1 1 1 0 0 0 0 1473 1 0 0 0 0 0 0 1 0 2 0 0 85 1 0 1 2 0 3 0 0 0 0 0 0 1 2 1 0 0 0 0 0 0 2 0 1 0 0 0 0 0 0 0 0 0 0 1 0 1 0 2 0 2 0 1 1 0 0 0 0 1 2 0 0 1 481 2 0 0 1 0 0 0 0 0 482 0 0 1 0 0 1 1 0 0 1 0 2 0 1 0 0 1 0 0 0 0 0 0 0 0 1 1 1 0 0 3 0 0 1 1 484 1 0 1 1 4 0 0 0 1 1 1 1 0 3 1 1 0 0 5 0 0 2 1 0 0 1 2 1 0 1 0 0 1 1 0 1 2 0 0 0 2 0 0 0 0 0 0 0 1 3 1 0 1 1 0 0 0 0 0 0 0 0 0 0 0 0 0 0 0 0 0 0 0 0 0 0 1 0 0 0 0 0 0 1 0 1 0 1 0 0 1 0 0 0 0 0 0 0 0 0 0 0 1 0 1 1 0 0 0 0 482 0 0 4 0 0 0 0 0 0 0 0 1 1 0 0 0 0 0 1 0 0 0 0 0 0 0 0 0 1 0 1 0 1 1 1 1 0 0 0 1 0 1 0 1 1 0 1 1 0 1 0 1 0 0 0 1 1473 1 0 0 0 0 1 0 1 1 1 0 0 0 1 0 1 0 0 0 0 0 0 1 1 0 0 1 0 1473 1 0 0 0 0 0 0 0 0 0 0 0 1 0 1 0 0 0 0 2 1 1 0 1 1 1 0 1 0 0 0 0 1 0 0 1 0 0 1 1 2 0 0 1 0 0 0 0 0 1 0 0 0 2 0 0 0 0 1 3 0 1 1 1 0 0 0 1 1 1 1 0 0 2 0 0 0 1 1 1 0 0 0 0 0 0 0 0 0 0 0 0 1 0 1 0 0 0 0 2 0 0 0 2 0 1 0 0 0 0 1 0 0 0 1 1 0 0 0 0 0 1 0 0 0 0 0 0 2 0 2 1 0 1 0 1 0 0 0 0 0 0 1 0 0 0 0 0 0 0 0 1 0 0 0 0 0 0 0 0 0 2 1 1 1 0 0 0 0 0 1 0 0 0 0 0 0 0 0 2 0 1 0 0 0 0 3 0 1 0 0 0 1 0 1 0 0 0 0 0 0 0 0 0 1 1 0 1 0 0 0 1 0 0 0 2 0 1 0 0 4 0 0 0 0 0 1 0 0 1 0 0 1 0 0 0 0 0 0 0 2 0 0 2 0 1 1 0 1 4 1 0 4 0 0 0 0 1 0 1 3 0 0 2 2 1 3 1 0 0 3 2 0 2 1 0 0 1 0 0 1 0 4 0 0 1 0 1 1 2 0 0 1 0 0 2465 0 0 0 1 1 0 1 1 1 4 2 0 0 0 1 1 1 3 2 1 1 1 0 0 1 1 0 0 0 0 2 0 1 2 0 2 3 0 1 0 2 1 1 2 2 1 0 0 0 0 0 2 0 1 1 2 0 1 3 0 2 0 0 3 0 0 1 0 0 0 1 1 2 1 2 0 2 0 2 1 2 1 0 2 0 0 1 0 2 1 0 1 1 1 1 0 1 0 2 1 1 1 1 1 0 2 4 1 1 1 0 0 1 1 2 1 1 1 1 1 0 2 1 0 0 1 0 0 0 1 0 1 0 0 1 2 3 0 2 1 0 1 0 1 1 0 0 0 0 0 3 0 1 1 1 0 1 0 0 1 0 3 0 0 1 2 4 2 1 0 3 4 0 2 0 0 0 0 1 1 0 1 0 3 160 1 0 0 0 2 1 0 1 0 0 0 2 1 3 0 2 0 1 0 0 2 5 996 0 4 0 0 0 1 1 2 0 2 1 1 1 0 0 0 2 1 1 0 1 1 2 2 0 2 1 0 2 2 1994 1 1 0 1 0 0 1 3 4 1 1 1 0 1 2 1 2 0 0 1 1 0 3459 2 1 0 0 0 1 1 0 0 1 0 0 1 2 2 0 0 2 0 0 0 0 1 1 0 1 0 0 1 1 0 2 1 3 1 1 1 1 0 1 1 0 2 1 0 0 2 0 1 2 0 0 0 0 1 0 1 0 1 0 1 1 0 0 0 0 0 0 0 0 1 0 0 0 0 1 2 3 0 1 0 0 0 1 2 3 1 1 1 0 2 0 2 2 0 1 0 0 1 1 2 1 1 1 0 1 2 0 0 1 2 0 1 1 0 1 0 0 1 1 1 1 1 1 0 4 1 2 1 0 0 1 135 0 1 0 2 0 1 2 0 0 0 0 3 0 0 0 0 0 1 1 1 0 1 0 0 1 0 1 0 0 0 0 1 1 0 0 0 0 1 1 1 3 1 1 0 1 1 1 0 1 0 0 3 0 0 0 0 0 1 1 0 0 0 0 0 0 0 0 0 1 0 2 0 1 0 2 0 1 0 0 2 0 0 2 1 1 1 1 0 0 1 0 0 1 0 1 1 1 1 0 0 1 0 2 365 0 0 2 1 0 1 0 2 1 1 1 1 0 1 1 1 0 1 1 0 1 0 2 0 1 0 0 0 0 0 0 1 1 0 1 464 1 1 0 0 1 0 0 1 0 0 0 1 1 0 0 1 1 1 10 0 0 1 1 5 1 0 0 1 2 0 0 0 3 1 2 0 2 0 2 1 0 1 1 2 3 0 1 0 2 1 0 21 2 2 1 2 3 0 0 2 0 1 1 0 1 0 1 0 0 992 0 1 2 0 0 0 1 1 2 1 4 0 0 0 3 0 0 2 1 0 0 0 0 4 0 1 0 258 1 0 1 2 1 1 5 1 1 1 1 0 1 0 0 0 1 1 1 2 0 0 1 1 0 1 1 0 0 1 2 0 0 1 0 0 0 2 1 0 0 2 1 0 0 0 0 1 0 0 1 1 2 1 1 1 623 0 1 3 3 2 3 1 0 2 0 0 1 1 0 0 0 0 1 1 2 0 0 1 1 1 147 0 0 0 0 1473 119 1 1 1 0 0 1 793 0 0 0 0 1 0 0 0 0 668 0 1 0 0 3 0 4 1 0 0 0 0 0 2 0 0 0 0 0 0 1 0 3 0 1 543 0 0 1 1 0 0 0 0 0 0 0 0 3 1 2 0 2 0 0 1 1 0 0 8 0 0 0 0 1 1 0 0 2 1 445 0 0 1 0 2 220 1 80 0 1 0 3 0 240 0 1 0 1 0 1 1 0 0 1 1 0 0 0 0 2 2 1 0 1 383 1 0 1 0 0 0 0 1 1 0 0 0 0 0 0 2 240 2 0 0 0 1 0 0 0 0 0 1 1 0 0 1 0 0 1 7 0 1 2 0 0 0 0 1 1 1 0 0 0 0 1 0 0 0 0 0 0 0 0 0 1 0 0 1 1 1 0 0 0 0 0 0 0 0 0 1 0 0 123 0 1 0 0 0 0 0 0 0 0 0 0 0 0 0 0 0 2 0 1 2 1 0 0 1 0 0 0 0 0 1 0 2 0 2 0 1 2 6 0 0 0 0 1 1 1 0 0 0 1 1 0 0 0 0 3 3 1 0 1 0 0 0 0 0 2 0 0 1 0 0 0 1 0 0 0 1 2 0 0 0 2 0 0 0 1 1 0 0 0 2 0 1 0 2 0 0 0 0 0 0 1 0 1 0 1 0 1 0 1 1 225 0 0 0 0 0 8 1 0 0 1 1 1 0 1 0 1 1 1 0 0 0 1 2 1 1 0 1 0 1473 1 1 0 0 1 2 0 0 1 0 1 3 0 1 0 0 2944 0 1 1 1 1 0 1 2 1 1 0 2 1 1 0 0 1 0 0 0 0 0 1 0 1 0 0 0 0 1 0 0 0 0 0 0 0 1 0 1 0 0 0 0 1 0 0 0 0 1 0 0 0 1 0 1 1 0 0 0 0 1 1 0 0 0 0 0 0 0 0 0 0 1 0 0 0 0 1 1 0 2 1 0 1 0 0 0 0 0 0 3 3 1 0 1 2 1 0 2 0 0 0 2 0 1 1 0 1 1 0 1 0 2 1 1 1 1 0 2 0 2 0 2 2 1 2 1 1985 2 0 2 0 0 0 1 0 0 0 1 0 2 0 1 1 1 0 3 0 0 0 1 1 0 2 2 1 1 3 1 1 1 1 1 1 1 0 5 1 0 1474 2 0 3 2 2 1 0 1 3 2 2 0 0 0 0 0 0 1 0 0 0 0 0 0 0 0 0 0 1 0 0 0 0 0 1 1 2 2 0 0 1 1 0 1 0 0 0 1 0 1 1 0 1 0 0 0 1473 1 0 0 0 0 0 0 1 0 0 0 0 0 0 0 1 0 1 0 3 0 1 0 0 0 0 2 0 1 1 0 1 0 0 0 0 0 0 0 1 0 1 0 1 3 1 0 1 0 1 5 1 4 0 0 0 3 1 1 1 0 0 2 0 0 1 0 0 1 0 0 0 0 1 0 0 0 1 1 3 0 0 0 2 0 2 5 1 1 2 0 0 0 1 0 1 2 1 2 4 4 0 1 0 1 0 0 0 1 3 1 1 1 1 0 2 1 0 2 2 1 1 0 2 0 3 1 1 0 0 1 1474 0 1 2 0 0 0 0 0 2 1 0 0 0 0 1 0 2 992 0 130 2 0 1 0 0 1 2 1 0 1 0 1 3 0 1 4 0 2 1 0 0 0 0 0 0 1 1 0 2 0 0 1 0 1 0 1 0 2 1 0 1 482 1 0 2 1 1 1 1 2 1 2 0 0 4 18 0 0 0 2 3 0 1 2 0 1 0 0 1 1 0 1 0 2 1 0 2 1 3 1 2 0 1 1 0 0 0 2 0 1 1 1 1 1 0 0 3 0 1 0 1 0 1 0 1475 0 0 0 3 0 2 1 1 0 0 0 1 0 0 1 1 1 1 0 1 0 0 0 1 1 0 0 1 0 0 1 1 0 0 0 1 1 0 0 0 1 0 0 0 1 0 0 1 0 0 0 0 0 0 2 2 0 1 1 42 0 0 0 0 0 2 2 1 1 2 0 0 1 0 1 1 3 1 3 3 4 4 2 2 1 0 0 2 0 0 0 0 0 3 0 0 0 0 0 483 2 0 0 2 1 1 1 0 1 1474 2 1 2 1 2 3 0 1 2 0 0 0 0 0 0 1 2 1 1 0 1 1 0 0 0 0 1 0 1 0 0 1 0 1 2949 2 0 2 0 0 1 4 0 0 1 2 0 0 1 1 3 0 0 2 1 0 0 1 1 2 0 0 0 0 3 0 3 0 0 2 0 1 0 0 2 0 1 0 1 1 5 0 0 1 4 0 0 0 1 0 0 0 1 0 0 1 1 0 2 1 0 0 0 2 0 2 1 0 0 1 1 1 1 1 481 0 1 0 0 2 0 1 1 0 0 2 0 0 0 2 0 3 1 1 3 1 1 1 0 1 0 1 2 0 2 1 0 0 0 1 0 0 3 4 0 0 0 1 0 1 0 1 1 1 2 0 0 0 2 1 2 3 1 0 1 1 0 0 1 0 1 0 1 2 0 1 0 0 0 1 1 1 0 0 1 1 2 0 2 0 1 1 0 0 0 0 0 0 1 0 1 1478 0 2 0 1 0 1 2 0 0 3 0 0 0 1 1 3 0 4 0 0 3 993 2 3 0 1 0 2 2 1 0 0 0 0 3 2 0 2 3 0 4 2 1 0 1 2 2 0 0 1 0 0 0 0 0 0 3 1 1 1 1 2 1 2 1 0 2 1 0 2 0 1 0 0 1 0 2 0 1 1 1 0 0 1 2 2 1 0 2 3 1 1 1 2 2 1 2 1 0 0 0 1 2 238 1 0 3 0 0 3 1 1 0 1 2 2 0 0 1 0 0 2 2 0 1 1 0 1 0 0 1 0 993 1 0 0 4 1 1 0 1 0 1 0 1 0 1 1 0 0 1 2 0 1 2 0 0 0 0 1 0 1 0 1 1 1 2 1 1 2 0 0 0 0 0 0 0 1 2 1 1 1 0 0 1 1 1 3 3 0 0 0 2 0 0 2 1 1 1 1 0 1 0 1 0 2 0 1 0 1 0 0 0 0 0 0 1 0 0 0 0 0 0 0 0 1 0 3 1 0 1 0 3 0 0 2 0 0 3 1 1 0 0 1 0 1 1 0 0 0 0 0 1 0 2 1 1 0 2 0 2 0 4 1 1 1 1 1 1 3 1 0 3 0 1 1 1 1 1 1 1 0 1 1 2 1 3 1 0 1 0 0 1 0 0 1 1 2 1 1 1 1 1 1 483 0 1 0 1 1 2 0 2 0 1 0 1 1 1 0 0 0 2 1 1 1 0 1 0 2 1 0 0 2 0 1 1 0 1 1 2 0 994 0 5 1 1 1 1 2 0 0 1 0 1 0 2 0 1 0 1 0 1 2 1 1 1 0 1 3 0 2 1 0 0 1 1 0 1 0 0 0 1 0 1 0 1 0 1 0 0 1 2 1 1 0 1 1 0 1 0 0 2 0 2 2 4 0 0 1 0 1 1 1 0 0 0 0 0 0 1 0 1 1 0 0 0 1 0 0 1 1 0 1 1 0 0 1 1 1 1 1 1 0 2 0 0 0 0 1 2 0 1 1 1 1 1 0 1 0 1 2 1 1 0 0 1 1 3 1 0 1 0 1 3 0 1 0 1 0 0 1 2 0 2 0 0 0 0 2 1 0 2 0 0 0 2 4 1 1 1 0 1 1 0 1 0 0 0 0 0 1 0 1 0 0 0 2 0 0 0 0 0 1 0 0 0 0 1 0 0 1 2 992 0 0 3 0 2 0 0 0 0 1 0 0 2 1 0 0 0 0 0 0 0 0 0 1 1 1 0 2 0 1 2 1 1 0 0 0 4 0 3 1 2 1 0 2 0 0 0 0 1 0 3 0 2 0 1 0 1 0 512 1 0 0 1 0 0 1 1 0 0 0 2 1 0 0 0 1 1 1 2 1 3 0 0 3 1 3 1 1 1 0 4 2 2 1 1 1 2 0 3 0 1 0 2 1 0 1 962 1 13 0 2 1 4 0 0 1 1 1 5 3 1 0 20617 0 0 1 2 0 0 0 1 4 1 0 0 0 2 2 1 1 1 4 0 1 1 1 4 0 0 0 1 1 2 1 0 1 1 1 1 1 1 1 0 1 0 1 1 0 1 0 2 0 1 0 1 1 0 2 0 0 1 1 0 0 1 1 0 1 1 0 3 1 1 2 1 0 1 0 0 0 0 2 992 0 0 0 1 1 0 0 1 1 1 3 0 0 2 0 3 1 1 0 0 1 0 1 13 1 0 1 1 1 1 1 0 0 0 0 0 0 1 0 0 2 0 0 0 3 2 0 5 0 1 1 1 1 1 0 0 2 1 1 1 1 1 1 0 0 0 0 1 1 1 181 0 1 1 0 0 1 1 0 2 1 1 0 0 3 0 2 0 1 1 1 0 2 1 0 0 0 0 0 0 1 0 2 4 0 0 0 0 2 1 0 1 2 1 1 0 0 0 0 0 0 0 1 0 1 0 1 1 0 1 1 1473 0 1 0 0 1 0 0 0 1 0 0 2 1 0 0 1 3 0 1475 1 1 1 0 1 0 2 1 1 2 0 0 1 0 0 0 1 0 0 2 0 1 0 3 0 0 0 1 0 0 0 0 0 1 1 1 1 0 0 0 2 0 0 0 0 1 0 0 0 2 1 0 1 1 1 0 1 0 1 0 0 0 1 1 0 0 2 0 0 1 1 0 0 0 0 0 1 1 1 1 0 1 1 2 1 1 0 0 0 1 0 0 1 1 0 0 0 0 1 0 1 0 1 2 1 511 0 0 0 1 0 0 0 1 0 0 0 0 0 0 0 1 0 0 1 0 1 0 0 0 0 0 0 0 1 1 1 1 0 1 1 0 1 2 0 1 0 1 1 0 0 0 0 0 0 1 0 1 2 0 1 1 1 0 0 1 0 2 0 1 1 0 0 0 0 0 0 1 2 1 1 1 2 0 0 1 1 1 1 2 0 1 3 3 0 0 2 0 1 2 0 0 1 0 1 0 0 1 1 0 1 0 1 1 0 1 0 3 1 0 0 1 1 0 0 1 0 0 1 1 0 1 1 1 1 0 0 0 0 0 2 0 1 0 1 1 1 2 1 3 1 1 1 1 2 0 0 1 0 2 0 0 0 0 3 1 2 0 0 0 3 0 0 0 1 0 0 2 1 1 0 0 0 1 1 0 0 1 1 0 0 1 1 0 0 1 0 0 1 1 0 0 0 0 0 1 5 0 1 1 1 0 0 2 0 0 1 1 2 1 0 0 1 1 3 0 1 0 0 1 0 0 1 1 1 1 0 0 0 1 1 1 1 1 0 1 1 1 1 0 2 0 0 2 0 0 0 2 1 1 0 0 1 1 3 0 1 1 1 0 0 1 3 1 1 1 1 2 2 1 0 367 4 0 2 1 4 1 0 2 1 1 1 4 0 0 0 1 0 3 2 0 1 3 0 1 5 1 1 3 1 0 1 3 0 1 3 0 1 2 1 1 1 1 3 0 0 1 4 1 1 3 1 2 1 0 2 3 2 0 1 1 1 1 0 2 483 0 1 0 1 1 0 0 1 1 2 3 1 0 0 0 1 2 2 1 1 2 0 2 1 0 0 2 1 1 0 0 0 0 2 2 0 1 3 0 1 2 1 1 1 0 1 0 994 1 1 2 4 2 2 1 2 0 1 1 3 1 0 0 1 0 0 1 0 0 3 0 1 0 0 0 1 0 0 0 0 1 1 0 1 1 0 1 1 0 0 0 0 1 1 0 2 35 0 1 185 2 1 1 1 0 1 0 1 1 0 0 0 1 2 1 1 1 1 1 0 1 1 0 0 2 1 2 3 2 1 2 1 2 0 1 2 0 1 1 3 2 1 1 2 2 1 0 4 1 1 2 1 1 1 961 2 1 1 1 0 0 1 2 0 1 2 0 0 1 1 2 0 1 1 2 1 2 3 3 1 1 2 2 1 0 1 1 1 0 1 1 2 2 0 3 0 2 0 0 962 0 1 2 993 1 961 2 2 0 0 0 0 961 961 2 0 1 0 3 1 1 2 0 1 3 0 0 1 0 0 0 0 3 2 1 1 0 0 0 2 1 2 0 1 1 2 1 1 3 0 0 1 4 0 0 1 1 2 1 1 3 1 2 2 0 3 0 0 1 2 0 2 1 1 0 0 1 0 992 0 0 0 1 0 0 1 1 1 1 0 1 1 0 1 1 0 0 1 3 0 0 3 1 2 3 2 1 0 0 0 2 3 1 2 1 1 2 1 1 3 0 0 0 2 0 0 2 0 1 1 0 2 1 0 0 1 0 0 1 0 1 0 0 0 1 0 0 0 0 0 1 1 0 0 2 1 0 2 0 1 1 1 1 0 0 1 0 2 0 2 0 0 1 0 2 1 0 0 1 2 1 2 2 0 0 1 2 0 1 0 0 2 0 0 2 0 2 2 0 3 0 2 0 0 484 0 0 0 0 0 2 2 0 16 0 3 2 4 3 1 3 4 2 0 0 0 0 0 1 4 0 1 2 1 0 0 1 1 1 2 0 0 3 1 0 0 1 0 0 0 1 0 0 1 0 0 4 1 1 2 2 0 1 992 2 1 0 0 1 0 0 1 2 0 0 1 0 2 0 1 1 2 1 2 0 1025 0 2 1 3 1 2 0 1 0 1 2 1 0 1 1 0 0 2 1 0 0 1 1 5 1 2 2 0 0 1 0 2 0 1 1 3 1 1 0 3 0 1 2 7779 1 3 2 1 0 0 961 0 0 3 1 0 0 3 961 0 0 2 2 0 0 1 962 2 1 0 1 1 1 0 962 1 0 1 2 2 2 2 2 0 1 0 1 1 961 0 1 0 0 0 1 0 1 961 0 0 0 0 2 1 0 1 1 0 1 1 1 0 2 2 1 992 0 1 1 2 0 0 0 0 1 0 2 0 0 2 1 1 961 0 0 0 4 0 0 1 1 1 0 0 1 0 2 0 1 2 1 0 1 0 2 0 0 1 1 0 2 0 0 1 3 0 0 2 2 5 2 0 0 0 30 0 0 1 2 3 1 1 0 2 2 1 3 1 1 1 4 0 4 0 1 1 0 3 1 0 0 0 3 3 0 0 0 3 1 1 0 1 62 1 0 1 1 3 0 1 0 2 2 0 1 0 1 0 0 3 0 2 0 1 0 2 1 2 2 0 0 1 0 0 0 0 1 4 1 1 0 1 0 1 1 1 3 1 0 2 2 1 0 1 0 2 0 0 0 1 1 0 0 2 0 1 2 1 1 2 0 0 1 1 0 0 0 1 2 0 1 0 3 3 2 0 0 1 2 0 0 1 2 3 0 2 1 1 0 4 0 1 1 3 1 2 512 1 1 46 0 0 1 1 1 0 993 2 2 0 2 1 0 1 0 4 1 1 0 7 0 2 1 0 482 1 1 5 3 7 1 2 1 1 1 0 366 1 1 2 2 1 2 1 1 0 1 0 3 1 0 0 1 1 0 1 2 2 1 2 1 1 2 0 2 1 1 1 2 1 2 0 1 1923 0 2 0 2 4 2 3 1 2 2 0 3 2 0 2 3 0 0 0 0 2 1 0 2 0 0 0 0 0 2 0 2 1 0 1 2 1 1 0 0 0 3 0 0 367 0 0 0 3 0 1 0 0 0 0 0 1 1 2 0 1 3 0 0 2 4 0 1 0 1 1 2 3 0 2 1 1 2 1 1 2 1 0 0 0 2 0 1 1 1 3 0 0 2 0 0 0 483 0 1 0 2 2 1 1 1 1 0 1 3 2 0 1 1 0 2 0 0 3 0 1 1 1 0 4 0 1 2 1 0 2 0 0 0 3 1 0 0 0 1 1 1 0 0 1 2 1 1 0 2 0 0 0 2 0 1 1 1 3 0 1 3 0 0 1 1 1 0 0 0 3 0 3 0 0 0 1 2 0 0 0 482 0 0 1 0 1 0 0 0 481 1 0 1 0 0 0 1 2 0 1 2 0 0 1 0 0 0 1 2 0 0 0 0 1 0 0 2 0 0 963 1 0 1 1 0 3 0 2 0 0 0 3 1 1 0 1 0 0 1 1 0 2 2 1 0 0 3 0 0 0 1 1 0 0 1 1 1 1 0 0 0 1 0 1 3 0 0 1 0 0 2 1 2 0 0 0 0 1473 1 0 1 1 1 0 1 0 4 0 0 1 0 3 1 0 0 0 0 1 0 0 1 1 1 1 0 1 1 0 0 1 1 0 0 2 1 1 0 1 1 0 1 1 0 1 2 1 1 2 0 0 4 0 2 1 0 1 1 1 1 0 0 0 1 0 1 1 1 0 0 0 0 0 1 2 1 1 0 1 1 0 1 0 0 1 0 1 0 1 0 1 0 1 3 0 6 0 3 2 0 0 1 2 2 0 0 0 2 0 1 1 0 2 1 0 2 0 1 0 1 1 0 1 0 2 1 3 2 0 0 1 1 3 2 0 1 0 0 1 1473 0 0 1358 0 1 1 0 0 1 0 0 1 1357 0 1 0 2 1 0 0 0 0 0 0 0 0 0 0 0 1 0 1 0 0 0 0 0 0 0 0 0 0 0 0 0 1 0 0 0 1 0 0 0 0 0 0 2 19 0 0 0 2 0 0 0 1 3 151 0 4 0 0 0 0 0 1 0 2 0 1 0 0 1 1 0 0 0 0 1 0 1 0 0 22 1 1 1 0 0 0 0 0 0 1 0 0 1 0 0 0 1 0 0 0 0 0 0 1 0 1 1 1 2 0 0 1 0 0 0 0 0 0 0 1 0 1 1 0 0 0 0 2 0 0 0 0 1 0 0 0 0 1 0 0 1 0 1 1 1 2 0 2 0 0 0 0 1 1 0 1 1 1 1 1474 0 0 0 1474 0 0 1 0 1 1 0 2 0 0 0 0 0 1 1 2 0 0 1 0 2878 0 1 0 0 5 3 1 1 2 1 3 0 1 0 1 0 1 1 0 3 1 0 0 0 0 2 2 1 0 0 1 0 1 0 1 1 0 0 0 0 0 1 2 1 0 1 1 0 1 1 1 1 961 0 0 0 0 1 1 961 0 0 0 1 482 0 1 1 2 1 1 0 0 1 1 484 0 0 14730 960 0 1 2 1 0 0 0 0 0 2 2 0 0 0 0 1 2 1 1 2 0 0 1 1 0 1 1 0 2 2 0 0 0 2 0 1 1 1 0 0 0 0 0 0 2 0 1 0 1 0 2 0 3 2 1 2 0 3 0 0 0 1 0 1 2 0 0 0 0 1 1 0 1 1 0 1 993 1 1 1 0 1 2 0 2 0 0 0 1 1473 1 2 1 0 2 1 3 1 1 2 3 0 0 3 0 1 0 1 1 3 2 0 1 1 2 0 2 0 2 1474 1 2 0 0 1 0 0 1 0 2 0 1 1 2 1 1 3 1 1 1 993 0 1 0 4 0 2 2 2 2 2 1 0 0 1 0 0 0 1 1 0 0 0 1 0 0 0 2 0 1 2 1 2 0 2 0 0 2 2 0 1 2 1 0 0 2 2 1 1 0 0 1 0 0 0 0 0 1 0 1 2 0 0 1 0 0 0 1 1 1 1 0 1 0 2 2 1 0 1 2 0 1 1 2 1 2 1 0 1 0 2 1 0 1 0 1 1 0 1 2 0 1 0 1 0 0 2 1 0 2 1475 2 0 1 0 1 1 0 0 1 5 0 1 0 1 0 2 0 0 0 2 3 0 3 1 0 2 0 1 1 1 1 0 1 0 1 0 1 2 1 1 0 0 2 2 1 0 0 0 3 1 0 2 2 1 0 3 1 0 0 1 2 0 0 0 2 1 0 2 0 0 0 1 2 1 0 1 0 1 1 2 1 0 2 1478 1 4 0 0 1 0 0 0 0 1 0 0 0 0 0 3 0 0 1 1 0 2 1 2 2 2 1 2 1 0 3 1 1 6 2 2 1 2 2 0 2 1 1 1 1 1 2 994 1 1 2 0 1 1 1 1 0 0 1 1 0 2 1 0 1 0 1 1 0 0 2 1 3 0 0 0 2 0 2 0 0 0 2 1 0 0 0 0 3 0 1 0 1 2 1 0 1 0 0 2 0 0 1 1 0 3 0 1 0 0 1 0 2 0 0 0 4 1 2 0 2 1 0 2 1 0 0 0 1 1 0 1 2 1 2 2 0 2 2 0 1 2 1 1 1 0 1 1 7 0 2 0 2 1 2 1 2 0 0 1 1 0 1 1 3 3 1 1 0 0 1 1 0 1 0 1 1 0 1 1 5 0 0 1 0 0 1 1 3 1 1 0 1 1 0 0 1 2 2 0 1 3 3 0 0 2 1 0 2 1 2 0 1 0 0 2 2 1 0 0 1 1 0 1 1 1 1 1 1 1 1 0 1 3 1 2 0 2 1 0 2 0 1 0 0 3 1 2 3 0 0 0 1 1 0 0 2 2 1 1 1 1 1 0 1 2 0 0 1 0 1 2 1 1 0 0 1 1 0 0 1 0 1 1 0 3 1 1 2 0 2 0 0 0 1 0 2 0 0 0 1 1 1 1 1 0 1 0 0 0 0 1 1 0 0 0 0 1 0 2 2 1 0 2 2 0 1 1 0 0 1 1 0 0 0 0 2 2 0 1 0 0 0 1 0 0 2 0 0 0 1 2 1 0 0 1 0 1 2 1 0 0 1 1 1 0 0 0 1 0 0 2 0 0 1 0 3 0 1 0 1 0 1 3 2 0 1 3 1 2 1 1 0 1 1 1 0 1 0 0 0 0 0 1 1 1 1 1 3 1 0 1 0 1 1 4 0 0 2 0 0 0 0 0 0 0 1 1 0 3 0 0 0 141 1 3 1 0 1 2 2 3 0 2 0 1 0 3 3 1 1 1 1 0 3 0 1 0 0 0 0 4 0 0 1 0 4 0 2 1 1 0 0 0 1 1 1 0 0 2 1 1 0 0 0 0 0 0 1 0 0 2 0 0 0 2 0 0 1 1 1 0 0 1 12 1 0 0 0 0 1 1 0 0 0 0 1 0 0 1 1 3 0 2 1 1 1 4 0 0 1 2 1 0 2 1 6 2 0 0 0 0 0 2 0 3 4 0 0 1 0 2 4 2 3 0 2 1 2 3 0 1 2 1 2 3 0 1 1 3 1 0 2 0 4 2 5 1 2 1 0 1 4 3 0 1 0 0 0 0 9 1 0 2 2 1 0 0 1 1 2 0 0 1 0 1 0 0 1 2 3 0 0 3 1 0 1 0 0 0 0 1 0 1 1 1 2 0 0 0 2 0 3 1 1 2 0 1 0 0 0 1 0 2 0 1 1 0 0 2 2 0 2 2 1 1 0 2 0 1 3 0 0 3 0 2 0 3 1 1 0 2 1 1 2 3 0 1 5 2 0 0 2 1 1 0 0 3 0 3 1 2 1 0 1 1 1 1 0 0 1 0 32 0 2 0 0 3 1 1 0 2 1 1 0 0 0 0 0 2 1 0 1 0 0 0 0 0 0 0 2 1 1 1 1 1 1 2 1 0 0 0 2 0 0 0 1 0 0 0 1 0 0 0 0 0 0 1 1 0 1 3 1 2 1 1 0 3 2 5 0 1 1 1 0 0 94 0 1 0 0 0 2 1 2 0 3 2 0 0 0 0 1 1 0 3 0 1 2 2 1 1 2 1 0 2 0 1922 2 1 0 2 2 0 1 2 0 1 1 0 1 0 1 1 1 2 1 0 0 0 0 1 0 0 0 0 0 2 5 1 1 2 0 1 0 4 1 1 2 4 1 2 2 2 3 2 1 2 2 3 1 2 1 2 2 2 0 3 0 0 1 3 2 1 0 0 3 3 0 0 1 0 1 1 2 0 4 3 1 0 0 1 2 0 2 2 1 1 0 2 3 0 0 1 1 0 49 2 0 2 2 2 0 0 0 0 1 0 3 0 0 3 0 1 3 1 1 2 1 0 1 1 3 0 483 2 2 2 2 4 1 0 3 1 0 0 1 2 2 2 2 1 1 2 0 1 1 0 2 2 2 0 0 0 1 1 3 0 0 0 2 3 0 1 1 0 2 2 0 1 0 0 1 0 2 481 1 0 0 0 1 0 1 2 2 1 1922 1 1 2 2 0 1 1 1 2 0 0 1 1 0 2 0 1 2 0 365 964 0 2 0 1 1 2 0 0 0 1 0 1 1 0 1 0 0 2 2 0 2 1 1 2 0 0 2 2 0 2 1 1 3 1 1 0 1 0 0 1474 1 0 0 1 1 2 0 0 1 2 1 1 1 0 1 0 1 1 1 1 0 0 1 1 1 0 1 0 98 1 2 0 1 2 1 0 1 0 0 0 1 0 0 2 1 1 2 1 1 1 3 1 0 0 2 3 0 1 1 1 2 1 0 2 0 2 1 1 0 2 2 2 3 0 1 2 3 2 1 2 0 0 2 0 4 0 0 0 0 1 1 0 0 2 0 0 2 1 0 2 0 2 1 1 2 0 0 2 2 1 3 0 1 0 1 2 1 3 1 0 2 2 1 0 3 0 1 2 1 0 1 1 0 0 1 0 0 0 2 2 0 0 0 0 1 1 0 0 2 1 1 2 1 0 0 0 1 1 1 0 1 2 2 0 1 1 0 2 0 1 3 2 1 0 1 0 0 1 0 0 0 2 0 1 1 0 2 2 0 2 0 0 1 1 2 2 1 1 1474 3 2 0 0 0 2 3 2 0 0 2 2 0 1 2 2 0 2 1 1 0 4 1 2 3 4 0 0 2 0 0 0 2 1 2 1202 992 4 0 1 1 4 0 3 0 4 2 1 0 1 0 0 2 1 1 2 1 2 2 1 3 1 483 1 0 5 0 106 2 3 1 0 0 1 1 0 1 1 4 0 1 0 0 0 0 1 1 4 1 0 0 2 1 1 2 1 2 1 1 0 1 1 2 0 2 1 3 1 1 0 1 3 0 0 0 3 0 4 3 0 0 0 1 0 2 3 2 0 1 46 1 3 2 3 0 1 0 1 2 1 2 3 3 0 0 0 3 0 0 3 3 2 2 11 0 0 1 0 1 0 0 0 0 0 0 0 0 2 0 1 0 1 0 2 1 0 1 2 1 0 1 0 2 0 0 1 2 1 0 2 0 2 1 0 0 1 0 2 1 1 0 1 3 1 0 6 2 0 1 0 1 0 1 0 0 0 0 993 1 0 0 0 0 0 1 2 0 2 1 2 0 0 0 0 1 1 1 0 0 1 0 1 0 2 0 2 0 0 0 0 0 0 0 2 0 0 254 2 1 0 1 0 0 2 0 0 0 1 0 1 0 0 0 0 0 1 0 0 0 2 0 1 1 1 0 1 0 3 1 1 1 0 1 0 1 2 2 2 0 1 0 0 0 2 0 0 2 0 1 1 0 1 0 0 0 1 0 4 2 2 1 1 2 0 1 1 1 1 0 0 0 0 1 0 1 2 1 2 2 0 1 1 1 1 2 0 0 3 0 0 2 2 0 3 0 1 1 2 2 2 0 1 0 3 1 1 0 1 1 2 2 1 1 1 2 0 0 3 1 2 0 1 2 0 3 0 1 1 0 4 2 1 365 0 1473 1 3 0 1 1 2 0 0 2 0 2 0 0 0 0 1 2 0 0 1 1 2 0 483 0 3 0 3 1 1 0 4 0 484 1 2 1 1 4 0 1 1 3 4 3 0 2 0 2 3 0 483 2 1 1 2 1 1 1 0 5 0 366 0 2 0 2 0 1 2 1 1 1 0 3 1 1 1 1 1 3 0 1 0 1 1 2 0 3 0 3 0 1 1 4 1 3 2 1 2 0 2 2 0 1444 0 3 3 1 1 1 1 0 2 1 3 1 2 2 1 2 3 0 0 3 2 1 2 1 0 2 0 1 4 993 0 2 3 1 1 1 3 1 1 1 1 2 0 1 0 0 0 1 0 0 2 0 1 1 0 0 0 1 0 2 0 1 2 1 0 1 0 1 1 1 1 0 0 0 0 1 1 2 1 3 0 0 0 0 0 1 0 1 2 3 0 0 1 0 1 1 0 1 1 1 1 1 0 0 21 1 0 2 1 0 0 1 1 1 1 0 2 0 0 1 1 2 0 1 1 2 1 1 0 0 2 0 0 0 2 1 0 963 1 3 2 1 1 1 1 0 0 1 2 0 0 1 2 1 3 0 1 0 0 0 2 1 1 1 1 0 0 4 1 0 3 0 1 2 0 0 1 2 2 1 2 0 2 0 0 1 1 963 1 3 0 0 1 0 2 2 2 0 0 2 0 0 0 0 0 0 1 1 1 0 1 0 2 0 2 1 0 0 0 1 1 1 4 1 0 0 0 482 0 0 0 3 1 0 0 1 0 1 0 0 0 0 0 2 1 2 0 0 0 2 1 0 1 1 1 1 0 0 2 1 2 4 1 1 0 4 0 2 2 0 1 0 0 1 1 1 1 0 1 0 1 1 3 0 1 1 1 0 0 1 7 0 1 0 
