
*** ChampSim Multicore Out-of-Order Simulator ***

Warmup Instructions: 50000000
Simulation Instructions: 50000000
Number of CPUs: 1
LLC sets: 2048
LLC ways: 16
Off-chip DRAM Size: 4096 MB Channels: 1 Width: 64-bit Data Rate: 6400 MT/s
CPU 0 runs ./micro_traces/srv67.trace.gz
.gz
ITLB has LRU replacement policy
DTLB has LRU replacement policy
STLB has LRU replacement policy
L1I has LRU replacement policy
L1D has LRU replacement policy
Initialize SRRIP state for L2C
Initialize DRRIP state for LLC
Heartbeat_Variant_0 : 1296 0.316406 per_variant_size: 0 1296 0 0 0 0 0 0 0 
Heartbeat_Variant_1 : 1173 0.286377 per_variant_size: 0 570 603 0 0 0 0 0 0 
Heartbeat_Variant_2 : 1271 0.310303 per_variant_size: 0 537 345 212 177 0 0 0 0 
Heartbeat_Variant_3 : 0 0 per_variant_size: 0 0 0 0 0 0 0 0 0 
Heartbeat_Variant_0_evicts 0 : 5651 1 : 136 2 : 177 3 : 0 
Heartbeat_Variant_1_evicts 0 : 138 1 : 0 2 : 372 3 : 0 
Heartbeat_Variant_2_evicts 0 : 152 1 : 380 2 : 0 3 : 0 
Heartbeat_Variant_3_evicts 0 : 0 1 : 0 2 : 0 3 : 0 
Heartbeat CPU 0 instructions: 10000000 cycles: 2796058 heartbeat IPC: 3.57646 cumulative IPC: 3.57646 (Simulation time: 0 hr 1 min 17 sec) 
Heartbeat_Variant_0 : 1354 0.330566 per_variant_size: 0 1354 0 0 0 0 0 0 0 
Heartbeat_Variant_1 : 1229 0.300049 per_variant_size: 0 577 652 0 0 0 0 0 0 
Heartbeat_Variant_2 : 1327 0.323975 per_variant_size: 0 532 364 216 215 0 0 0 0 
Heartbeat_Variant_3 : 0 0 per_variant_size: 0 0 0 0 0 0 0 0 0 
Heartbeat_Variant_0_evicts 0 : 5793 1 : 152 2 : 156 3 : 0 
Heartbeat_Variant_1_evicts 0 : 162 1 : 0 2 : 341 3 : 0 
Heartbeat_Variant_2_evicts 0 : 138 1 : 352 2 : 0 3 : 0 
Heartbeat_Variant_3_evicts 0 : 0 1 : 0 2 : 0 3 : 0 
Heartbeat CPU 0 instructions: 20000003 cycles: 5591445 heartbeat IPC: 3.57732 cumulative IPC: 3.57689 (Simulation time: 0 hr 2 min 29 sec) 
Heartbeat_Variant_0 : 1352 0.330078 per_variant_size: 0 1352 0 0 0 0 0 0 0 
Heartbeat_Variant_1 : 1235 0.301514 per_variant_size: 0 587 648 0 0 0 0 0 0 
Heartbeat_Variant_2 : 1326 0.32373 per_variant_size: 0 533 361 213 219 0 0 0 0 
Heartbeat_Variant_3 : 0 0 per_variant_size: 0 0 0 0 0 0 0 0 0 
Heartbeat_Variant_0_evicts 0 : 5512 1 : 11 2 : 19 3 : 0 
Heartbeat_Variant_1_evicts 0 : 14 1 : 0 2 : 208 3 : 0 
Heartbeat_Variant_2_evicts 0 : 18 1 : 207 2 : 0 3 : 0 
Heartbeat_Variant_3_evicts 0 : 0 1 : 0 2 : 0 3 : 0 
Heartbeat CPU 0 instructions: 30000000 cycles: 8387635 heartbeat IPC: 3.57629 cumulative IPC: 3.57669 (Simulation time: 0 hr 3 min 45 sec) 
Heartbeat_Variant_0 : 1360 0.332031 per_variant_size: 0 1360 0 0 0 0 0 0 0 
Heartbeat_Variant_1 : 1249 0.304932 per_variant_size: 0 588 661 0 0 0 0 0 0 
Heartbeat_Variant_2 : 1340 0.327148 per_variant_size: 0 527 381 214 218 0 0 0 0 
Heartbeat_Variant_3 : 0 0 per_variant_size: 0 0 0 0 0 0 0 0 0 
Heartbeat_Variant_0_evicts 0 : 5706 1 : 107 2 : 106 3 : 0 
Heartbeat_Variant_1_evicts 0 : 105 1 : 0 2 : 303 3 : 0 
Heartbeat_Variant_2_evicts 0 : 111 1 : 298 2 : 0 3 : 0 
Heartbeat_Variant_3_evicts 0 : 0 1 : 0 2 : 0 3 : 0 
Heartbeat CPU 0 instructions: 40000001 cycles: 11183157 heartbeat IPC: 3.57715 cumulative IPC: 3.57681 (Simulation time: 0 hr 5 min 1 sec) 
Heartbeat_Variant_0 : 1362 0.33252 per_variant_size: 0 1362 0 0 0 0 0 0 0 
Heartbeat_Variant_1 : 1251 0.30542 per_variant_size: 0 588 663 0 0 0 0 0 0 
Heartbeat_Variant_2 : 1339 0.326904 per_variant_size: 0 526 377 219 217 0 0 0 0 
Heartbeat_Variant_3 : 0 0 per_variant_size: 0 0 0 0 0 0 0 0 0 
Heartbeat_Variant_0_evicts 0 : 5517 1 : 10 2 : 11 3 : 0 
Heartbeat_Variant_1_evicts 0 : 11 1 : 0 2 : 195 3 : 0 
Heartbeat_Variant_2_evicts 0 : 8 1 : 196 2 : 0 3 : 0 
Heartbeat_Variant_3_evicts 0 : 0 1 : 0 2 : 0 3 : 0 
Heartbeat CPU 0 instructions: 50000000 cycles: 13978546 heartbeat IPC: 3.57732 cumulative IPC: 3.57691 (Simulation time: 0 hr 6 min 15 sec) 

Warmup complete CPU 0 instructions: 50000004 cycles: 13978547 (Simulation time: 0 hr 6 min 15 sec) 

Cycle: 20000000 FTQ IN: 55332611 FTQ occupancy: 15.9039 DECODE IN: 55332593 DECODE occupancy: 9.52101 ROB IN: 55332593 ROB occupancy: 260.354 ROB OUT: 55332587
Heartbeat_Variant_0 : 1368 0.333984 per_variant_size: 0 1368 0 0 0 0 0 0 0 
Heartbeat_Variant_1 : 1254 0.306152 per_variant_size: 0 586 668 0 0 0 0 0 0 
Heartbeat_Variant_2 : 1343 0.327881 per_variant_size: 0 531 373 229 210 0 0 0 0 
Heartbeat_Variant_3 : 0 0 per_variant_size: 0 0 0 0 0 0 0 0 0 
Heartbeat_Variant_0_evicts 0 : 5700 1 : 53 2 : 53 3 : 0 
Heartbeat_Variant_1_evicts 0 : 53 1 : 0 2 : 237 3 : 0 
Heartbeat_Variant_2_evicts 0 : 49 1 : 238 2 : 0 3 : 0 
Heartbeat_Variant_3_evicts 0 : 0 1 : 0 2 : 0 3 : 0 
Heartbeat CPU 0 instructions: 60000003 cycles: 25176948 heartbeat IPC: 0.892985 cumulative IPC: 0.892985 (Simulation time: 0 hr 7 min 27 sec) 
Cycle: 30000000 FTQ IN: 8999517 FTQ occupancy: 14.89 DECODE IN: 8999523 DECODE occupancy: 4.93475 ROB IN: 8999511 ROB occupancy: 54.2821 ROB OUT: 8999478
Heartbeat_Variant_0 : 1369 0.334229 per_variant_size: 0 1369 0 0 0 0 0 0 0 
Heartbeat_Variant_1 : 1256 0.306641 per_variant_size: 0 579 677 0 0 0 0 0 0 
Heartbeat_Variant_2 : 1352 0.330078 per_variant_size: 0 531 377 241 203 0 0 0 0 
Heartbeat_Variant_3 : 0 0 per_variant_size: 0 0 0 0 0 0 0 0 0 
Heartbeat_Variant_0_evicts 0 : 5672 1 : 44 2 : 45 3 : 0 
Heartbeat_Variant_1_evicts 0 : 51 1 : 0 2 : 226 3 : 0 
Heartbeat_Variant_2_evicts 0 : 37 1 : 236 2 : 0 3 : 0 
Heartbeat_Variant_3_evicts 0 : 0 1 : 0 2 : 0 3 : 0 
Heartbeat CPU 0 instructions: 70000000 cycles: 36304578 heartbeat IPC: 0.898664 cumulative IPC: 0.895815 (Simulation time: 0 hr 8 min 39 sec) 
Cycle: 40000000 FTQ IN: 9020451 FTQ occupancy: 14.9411 DECODE IN: 9020445 DECODE occupancy: 4.96095 ROB IN: 9020445 ROB occupancy: 54.0995 ROB OUT: 9020429
Heartbeat_Variant_0 : 1371 0.334717 per_variant_size: 0 1371 0 0 0 0 0 0 0 
Heartbeat_Variant_1 : 1259 0.307373 per_variant_size: 0 584 675 0 0 0 0 0 0 
Heartbeat_Variant_2 : 1352 0.330078 per_variant_size: 0 534 372 238 208 0 0 0 0 
Heartbeat_Variant_3 : 0 0 per_variant_size: 0 0 0 0 0 0 0 0 0 
Heartbeat_Variant_0_evicts 0 : 5647 1 : 35 2 : 42 3 : 0 
Heartbeat_Variant_1_evicts 0 : 30 1 : 0 2 : 228 3 : 0 
Heartbeat_Variant_2_evicts 0 : 45 1 : 224 2 : 0 3 : 0 
Heartbeat_Variant_3_evicts 0 : 0 1 : 0 2 : 0 3 : 0 
Heartbeat CPU 0 instructions: 80000000 cycles: 47512548 heartbeat IPC: 0.892222 cumulative IPC: 0.894614 (Simulation time: 0 hr 9 min 53 sec) 
Cycle: 50000000 FTQ IN: 8877449 FTQ occupancy: 14.9679 DECODE IN: 8877449 DECODE occupancy: 4.95571 ROB IN: 8877459 ROB occupancy: 55.8906 ROB OUT: 8877434
Heartbeat_Variant_0 : 1370 0.334473 per_variant_size: 0 1370 0 0 0 0 0 0 0 
Heartbeat_Variant_1 : 1264 0.308594 per_variant_size: 0 593 671 0 0 0 0 0 0 
Heartbeat_Variant_2 : 1364 0.333008 per_variant_size: 0 544 371 243 206 0 0 0 0 
Heartbeat_Variant_3 : 0 0 per_variant_size: 0 0 0 0 0 0 0 0 0 
Heartbeat_Variant_0_evicts 0 : 5651 1 : 58 2 : 59 3 : 0 
Heartbeat_Variant_1_evicts 0 : 59 1 : 0 2 : 240 3 : 0 
Heartbeat_Variant_2_evicts 0 : 61 1 : 240 2 : 0 3 : 0 
Heartbeat_Variant_3_evicts 0 : 0 1 : 0 2 : 0 3 : 0 
Heartbeat CPU 0 instructions: 90000003 cycles: 58660421 heartbeat IPC: 0.897032 cumulative IPC: 0.895218 (Simulation time: 0 hr 11 min 10 sec) 
Cycle: 60000000 FTQ IN: 8983936 FTQ occupancy: 14.8973 DECODE IN: 8983947 DECODE occupancy: 4.93735 ROB IN: 8983937 ROB occupancy: 53.3818 ROB OUT: 8983984
Heartbeat_Variant_0 : 1371 0.334717 per_variant_size: 0 1371 0 0 0 0 0 0 0 
Heartbeat_Variant_1 : 1258 0.307129 per_variant_size: 0 583 675 0 0 0 0 0 0 
Heartbeat_Variant_2 : 1374 0.335449 per_variant_size: 0 554 377 237 206 0 0 0 0 
Heartbeat_Variant_3 : 0 0 per_variant_size: 0 0 0 0 0 0 0 0 0 
Heartbeat_Variant_0_evicts 0 : 5705 1 : 52 2 : 57 3 : 0 
Heartbeat_Variant_1_evicts 0 : 47 1 : 0 2 : 251 3 : 0 
Heartbeat_Variant_2_evicts 0 : 61 1 : 252 2 : 0 3 : 0 
Heartbeat_Variant_3_evicts 0 : 0 1 : 0 2 : 0 3 : 0 
Heartbeat CPU 0 instructions: 100000003 cycles: 69842292 heartbeat IPC: 0.894305 cumulative IPC: 0.895035 (Simulation time: 0 hr 12 min 22 sec) 
Finished CPU 0 instructions: 50000001 cycles: 55863746 cumulative IPC: 0.895035 (Simulation time: 0 hr 12 min 22 sec) 

ChampSim completed all CPUs

Region of Interest Statistics

CPU 0 cumulative IPC: 0.895035 instructions: 50000001 cycles: 55863746
 Fetch stage stalled: 27.2957  Sim cycles: 55863746 fetch stall cycle: 15248386
 Empty decode stage: 68.6732  Sim cycles: 55863746 fetch stall cycle: 38363434
ITLB TOTAL     ACCESS:    7345621  HIT:    6855000  MISS:     490621  HIT %:    93.3209  MISS %:    6.67909   MPKI: 9.81242
ITLB LOAD TRANSLATION INSTRUCTION	ACCESS:    7345621  HIT:    6855000  MISS:     490621  HIT %:    93.3209  MISS %:    6.67909  MPKI: 9.81242

ITLB AVERAGE MISS LATENCY: 9.04392 cycles
ITLB RQ	ACCESS:    8462031	FORWARD:          0	MERGED:     921049	TO_CACHE:    7540982

DTLB TOTAL     ACCESS:   10290437  HIT:    9822520  MISS:     467917  HIT %:    95.4529  MISS %:    4.54711   MPKI: 9.35834
DTLB LOAD TRANSLATION DATA	ACCESS:   10290437  HIT:    9822520  MISS:     467917  HIT %:    95.4529  MISS %:    4.54711  MPKI: 9.35834

DTLB AVERAGE MISS LATENCY: 9.31108 cycles
DTLB RQ	ACCESS:   14407036	FORWARD:          0	MERGED:    4089404	TO_CACHE:   10317632

STLB TOTAL     ACCESS:    1223292  HIT:    1221259  MISS:       2033  HIT %:    99.8338  MISS %:   0.166191   MPKI: 0.04066
STLB LOAD TRANSLATION INSTRUCTION	ACCESS:     490621  HIT:     490359  MISS:        262  HIT %:    99.9466  MISS %:  0.0534017  MPKI: 0.00524
STLB LOAD TRANSLATION DATA	ACCESS:     467911  HIT:     466154  MISS:       1757  HIT %:    99.6245  MISS %:   0.375499  MPKI: 0.03514
STLB TRANSLATION FROM L1D PREFETCHER DATA	ACCESS:     264760  HIT:     264746  MISS:         14  HIT %:    99.9947  MISS %: 0.00528781  MPKI: 0.00028

STLB AVERAGE MISS LATENCY: 72.607 cycles
STLB RQ	ACCESS:    1349688	FORWARD:          0	MERGED:     126352	TO_CACHE:    1223336

STLB Hit, L1D data hit: 0
STLB Hit, L2C data hit: 0
STLB Hit, LLC data hit: 0
STLB Hit, LLC data miss: 0
STLB STLB hints to L2: 0
L1D TOTAL     ACCESS:   14205293  HIT:   13081143  MISS:    1124150  HIT %:    92.0864  MISS %:     7.9136   MPKI: 22.483
L1D LOAD DATA	ACCESS:    7569034  HIT:    6832057  MISS:     736977  HIT %:    90.2633  MISS %:    9.73674  MPKI: 14.7395
L1D RFO DATA	ACCESS:    6294346  HIT:    6006218  MISS:     288128  HIT %:    95.4224  MISS %:    4.57757  MPKI: 5.76256
L1D PREFETCH DATA	ACCESS:     341913  HIT:     242868  MISS:      99045  HIT %:    71.0321  MISS %:    28.9679  MPKI: 1.9809

L1D PREFETCH  REQUESTED:     782413  ISSUED:     782413  USEFUL:      40727  USELESS:      69333
L1D USEFUL LOAD PREFETCHES:      40727 PREFETCH ISSUED TO LOWER LEVEL:     110156  ACCURACY: 36.9721
 TIMELY PREFETCHES:      40727 LATE PREFETCHES: 11023 DROPPED PREFETCHES: 0
L1D AVERAGE MISS LATENCY: 415906 cycles
L1D RQ	ACCESS:   11412572	FORWARD:          0	MERGED:    3658997	TO_CACHE:    7601338
L1D WQ	ACCESS:    6927607	FORWARD:     152350	MERGED:     121909	TO_CACHE:    6805698
L1D PQ	ACCESS:     391263	FORWARD:          0	MERGED:          0	TO_CACHE:     391150

L1D UNIQUE REGIONS ACCESSED: 0
L1D REGIONS CONFLICTS: 0
L1D Cross Page Prefetch Requests: 5727
L1D Same Page Prefetch Requests: 782828
L1D ROI Sum of L1D PQ occupancy: 4971553
L1D PREFETCHES PUSHED FROM L2C: 0
L1I TOTAL     ACCESS:    7910828  HIT:    5165415  MISS:    2745413  HIT %:    65.2955  MISS %:    34.7045   MPKI: 54.9083
L1I LOAD INSTRUCTION	ACCESS:    7910828  HIT:    5165415  MISS:    2745413  HIT %:    65.2955  MISS %:    34.7045  MPKI: 54.9083

L1I AVERAGE MISS LATENCY: 17.271 cycles
L1I RQ	ACCESS:   15519212	FORWARD:          0	MERGED:    7057181	TO_CACHE:    8462031

L1BTB TOTAL     ACCESS:    5673203  HIT:    2066002  MISS:    3607201  HIT %:    36.4169  MISS %:    63.5831   MPKI: 72.144
L1BTB BRANCH_DIRECT_JUMP	ACCESS:     548418  HIT:     145415  MISS:     403003	AVERAGE STALL: 19.1643
L1BTB BRANCH_INDIRECT	ACCESS:     183049  HIT:      66401  MISS:     116648	AVERAGE STALL: 48.6541
L1BTB BRANCH_CONDITIONAL	ACCESS:    2727620  HIT:    1440825  MISS:    1286795	AVERAGE STALL: 31.1182
L1BTB BRANCH_DIRECT_CALL	ACCESS:     936627  HIT:     104446  MISS:     832181	AVERAGE STALL: 34.4433
L1BTB BRANCH_INDIRECT_CALL	ACCESS:     170430  HIT:      20876  MISS:     149554	AVERAGE STALL: 67.7385
L1BTB BRANCH_RETURN	ACCESS:    1107059  HIT:     288039  MISS:     819020	AVERAGE STALL: 32.945
L1BTB BRANCH_OTHER ACCESS:          0  HIT:          0  MISS:          0	AVERAGE STALL: -nan
L1BTB TOTAL ROB OCCUPANCY AT BTB MISS: 0.636738

L2BTB TOTAL     ACCESS:    3581744  HIT:    3515817  MISS:      65927  HIT %:    98.1594  MISS %:    1.84064   MPKI: 1.31854
L2BTB BRANCH_DIRECT_JUMP	ACCESS:     398766  HIT:     394021  MISS:       4745	AVERAGE STALL: 19.1643
L2BTB BRANCH_INDIRECT	ACCESS:     106437  HIT:     103790  MISS:       2647	AVERAGE STALL: 48.6541
L2BTB BRANCH_CONDITIONAL	ACCESS:    1286795  HIT:    1281452  MISS:       5343	AVERAGE STALL: 31.1182
L2BTB BRANCH_DIRECT_CALL	ACCESS:     832181  HIT:     831304  MISS:        877	AVERAGE STALL: 34.4433
L2BTB BRANCH_INDIRECT_CALL	ACCESS:     139939  HIT:     129698  MISS:      10241	AVERAGE STALL: 67.7385
L2BTB BRANCH_RETURN	ACCESS:     817626  HIT:     775552  MISS:      42074	AVERAGE STALL: 32.945
L2BTB BRANCH_OTHER ACCESS:          0  HIT:          0  MISS:          0	AVERAGE STALL: -nan
L2BTB TOTAL ROB OCCUPANCY AT BTB MISS: 34.8392

L2C TOTAL     ACCESS:    4479390  HIT:    3975366  MISS:     504024  HIT %:    88.7479  MISS %:    11.2521   MPKI: 10.0805
L2C LOAD INSTRUCTION	ACCESS:    2745413  HIT:    2462445  MISS:     282968  HIT %:    89.6931  MISS %:    10.3069  MPKI: 5.65936
L2C LOAD TRANSLATION INSTRUCTION	ACCESS:        310  HIT:         80  MISS:        230  HIT %:    25.8065  MISS %:    74.1935  MPKI: 0.0046
L2C LOAD DATA	ACCESS:     725943  HIT:     647815  MISS:      78128  HIT %:    89.2377  MISS %:    10.7623  MPKI: 1.56256
L2C RFO DATA	ACCESS:     288030  HIT:     233783  MISS:      54247  HIT %:    81.1662  MISS %:    18.8338  MPKI: 1.08494
L2C PREFETCH DATA	ACCESS:     197424  HIT:     125335  MISS:      72089  HIT %:    63.4852  MISS %:    36.5148  MPKI: 1.44178
L2C WRITEBACK DATA	ACCESS:     520402  HIT:     505324  MISS:      15078  HIT %:    97.1026  MISS %:    2.89738  MPKI: 0.30156
L2C LOAD TRANSLATION DATA	ACCESS:       1841  HIT:        571  MISS:       1270  HIT %:    31.0158  MISS %:    68.9842  MPKI: 0.0254
L2C TRANSLATION FROM L1D PREFETCHER DATA	ACCESS:         27  HIT:         13  MISS:         14  HIT %:    48.1481  MISS %:    51.8519  MPKI: 0.00028

L2C PREFETCH  REQUESTED:      95839  ISSUED:      95839  USEFUL:       9024  USELESS:      63636
L2C USEFUL LOAD PREFETCHES:       9024 PREFETCH ISSUED TO LOWER LEVEL:      72503  ACCURACY: 12.4464
 TIMELY PREFETCHES:       9024 LATE PREFETCHES: 414 DROPPED PREFETCHES: 0
L2C AVERAGE MISS LATENCY: 38.6313 cycles
L2C RQ	ACCESS:    3761585	FORWARD:          0	MERGED:          0	TO_CACHE:    3761564
L2C WQ	ACCESS:     520402	FORWARD:         21	MERGED:          0	TO_CACHE:     520402
L2C PQ	ACCESS:     205995	FORWARD:          0	MERGED:       4108	TO_CACHE:     201887

L2C Dense regions hint from L2: 0
PSCL5 TOTAL     ACCESS:       4072  HIT:       2036  MISS:       2036  HIT %:         50  MISS %:         50   MPKI: 0.04072
PSCL5 LOAD TRANSLATION INSTRUCTION	ACCESS:       4018  HIT:       2009  MISS:       2009  HIT %:         50  MISS %:         50  MPKI: 0.04018
PSCL5 TRANSLATION FROM L1D PREFETCHER INSTRUCTION	ACCESS:         54  HIT:         27  MISS:         27  HIT %:         50  MISS %:         50  MPKI: 0.00054


PSCL4 TOTAL     ACCESS:       3981  HIT:       1985  MISS:       1996  HIT %:    49.8618  MISS %:    50.1382   MPKI: 0.03992
PSCL4 LOAD TRANSLATION INSTRUCTION	ACCESS:       3636  HIT:       1968  MISS:       1668  HIT %:    54.1254  MISS %:    45.8746  MPKI: 0.03336
PSCL4 TRANSLATION FROM L1D PREFETCHER INSTRUCTION	ACCESS:         34  HIT:         17  MISS:         17  HIT %:         50  MISS %:         50  MPKI: 0.00034
PSCL4 LOAD TRANSLATION DATA	ACCESS:        311  HIT:          0  MISS:        311  HIT %:          0  MISS %:        100  MPKI: 0.00622


PSCL3 TOTAL     ACCESS:       3987  HIT:       1988  MISS:       1999  HIT %:    49.8621  MISS %:    50.1379   MPKI: 0.03998
PSCL3 LOAD TRANSLATION INSTRUCTION	ACCESS:       3639  HIT:       1971  MISS:       1668  HIT %:    54.1632  MISS %:    45.8368  MPKI: 0.03336
PSCL3 TRANSLATION FROM L1D PREFETCHER INSTRUCTION	ACCESS:         34  HIT:         17  MISS:         17  HIT %:         50  MISS %:         50  MPKI: 0.00034
PSCL3 LOAD TRANSLATION DATA	ACCESS:        314  HIT:          0  MISS:        314  HIT %:          0  MISS %:        100  MPKI: 0.00628


PSCL2 TOTAL     ACCESS:       3952  HIT:       1916  MISS:       2036  HIT %:    48.4818  MISS %:    51.5182   MPKI: 0.04072
PSCL2 LOAD TRANSLATION INSTRUCTION	ACCESS:       2149  HIT:       1889  MISS:        260  HIT %:    87.9013  MISS %:    12.0987  MPKI: 0.0052
PSCL2 TRANSLATION FROM L1D PREFETCHER INSTRUCTION	ACCESS:         27  HIT:         27  MISS:          0  HIT %:        100  MISS %:          0  MPKI: 0
PSCL2 LOAD TRANSLATION DATA	ACCESS:       1749  HIT:          0  MISS:       1749  HIT %:          0  MISS %:        100  MPKI: 0.03498
PSCL2 TRANSLATION FROM L1D PREFETCHER DATA	ACCESS:         27  HIT:          0  MISS:         27  HIT %:          0  MISS %:        100  MPKI: 0.00054


LLC TOTAL     ACCESS:     567495  HIT:     537106  MISS:      30389  HIT %:    94.6451  MISS %:    5.35494   MPKI: 0.60778
LLC LOAD INSTRUCTION	ACCESS:     282968  HIT:     281973  MISS:        995  HIT %:    99.6484  MISS %:    0.35163  MPKI: 0.0199
LLC LOAD TRANSLATION INSTRUCTION	ACCESS:        230  HIT:        202  MISS:         28  HIT %:    87.8261  MISS %:    12.1739  MPKI: 0.00056
LLC LOAD DATA	ACCESS:      77719  HIT:      74111  MISS:       3608  HIT %:    95.3576  MISS %:    4.64237  MPKI: 0.07216
LLC RFO DATA	ACCESS:      54241  HIT:      38714  MISS:      15527  HIT %:    71.3741  MISS %:    28.6259  MPKI: 0.31054
LLC PREFETCH DATA	ACCESS:      72503  HIT:      62763  MISS:       9740  HIT %:    86.5661  MISS %:    13.4339  MPKI: 0.1948
LLC WRITEBACK DATA	ACCESS:      78550  HIT:      78146  MISS:        404  HIT %:    99.4857  MISS %:   0.514322  MPKI: 0.00808
LLC LOAD TRANSLATION DATA	ACCESS:       1270  HIT:       1184  MISS:         86  HIT %:    93.2283  MISS %:    6.77165  MPKI: 0.00172
LLC TRANSLATION FROM L1D PREFETCHER DATA	ACCESS:         14  HIT:         13  MISS:          1  HIT %:    92.8571  MISS %:    7.14286  MPKI: 2e-05

LLC AVERAGE MISS LATENCY: 156.754 cycles
LLC RQ	ACCESS:     416443	FORWARD:          0	MERGED:          0	TO_CACHE:     416442
LLC WQ	ACCESS:      78550	FORWARD:          1	MERGED:          0	TO_CACHE:      78550
LLC PQ	ACCESS:      72503	FORWARD:          0	MERGED:          0	TO_CACHE:      72503

LLC Dense regions hint to LLC: 0

RAW hits: 1219055
Loads Generated: 12631629
Loads sent to L1D: 11412572
Stores Generated: 6927584
Stores sent to L1D: 6927607
Major fault: 0 Minor fault: 2540
Allocated PAGES: 2540

stream: 
stream:times selected: 1214670
stream:pref_filled: 123214
stream:pref_useful: 27169
stream:pref_late: 7209
stream:misses: 8584
stream:misses_by_poll: 0

CS: 
CS:times selected: 186934
CS:pref_filled: 64264
CS:pref_useful: 40436
CS:pref_late: 8196
CS:misses: 20051
CS:misses_by_poll: 11

CPLX: 
CPLX:times selected: 1026718
CPLX:pref_filled: 24610
CPLX:pref_useful: 6663
CPLX:pref_late: 3339
CPLX:misses: 103867
CPLX:misses_by_poll: 0

NL_L1: 
NL:times selected: 14997
NL:pref_filled: 760
NL:pref_useful: 250
NL:pref_late: 332
NL:misses: 1224
NL:misses_by_poll: 0

total selections: 2443319
total_filled: 99045
total_useful: 40727
total_late: 20631
total_polluted: 11
total_misses_after_warmup: 769284
conflicts: 5965722

test: 118177

DRAM Statistics
 CHANNEL 0
 RQ ROW_BUFFER_HIT:      11462  ROW_BUFFER_MISS:      18511
 DBUS_CONGESTED:          6
 WQ ROW_BUFFER_HIT:       1478  ROW_BUFFER_MISS:      13164  FULL:          0

 AVG_CONGESTED_CYCLE: 6

CPU 0 Branch Prediction Accuracy: 99.8196% MPKI: 0.32972 Average ROB Occupancy at Mispredict: 75.1807
Branch types
NOT_BRANCH: 40858612 81.7172%
BRANCH_DIRECT_JUMP: 548418 1.09684%
BRANCH_INDIRECT: 183049 0.366098%
BRANCH_CONDITIONAL: 6195461 12.3909%
BRANCH_DIRECT_CALL: 936627 1.87325%
BRANCH_INDIRECT_CALL: 170430 0.34086%
BRANCH_RETURN: 1107059 2.21412%
BRANCH_OTHER: 0 0%

DRAM PAGES: 1048576
Allocated PAGES: 2540
Average_ROB_Occupancy: 55.718
Average_Decode_Occupancy: 4.94772
Average_FTQ_Occupancy: 14.9256
Indirect max targets: 14 Average targets: 1.14626
Branch_type:  BRANCH_DIRECT_JUMP:  Count Percentage: 2.91457 6.24774 4.36172 8.78922 2.61495 6.18616 2.02437 66.8613 
Branch_type:  BRANCH_INDIRECT:  Count Percentage: 11.7421 3.4413 2.56447 3.72855 3.3408 4.0106 3.19923 67.973 
Branch_type:  BRANCH_CONDITIONAL:  Count Percentage: 20.8858 3.31184 5.57627 4.07036 1.72276 4.74575 0.898458 58.7888 
Branch_type:  BRANCH_DIRECT_CALL:  Count Percentage: 0.260141 1.75857 1.45318 3.89568 2.55866 3.42187 0.773564 85.8783 
Branch_type:  BRANCH_INDIRECT_CALL:  Count Percentage: 9.53138 0 2.98575 5.40263 0 4.04255 0.99749 77.0402 
Branch_type:  BRANCH_RETURN:  Count Percentage: 2.27738 1.82926 5.99765 3.11508 3.38244 6.84627 1.43177 75.1201 
Branch_type:  BRANCH_DIRECT_JUMP:  Total Count: 31896 68373 47733 96186 28617 67699 22154 731705 
Branch_type:  BRANCH_INDIRECT:  Total Count: 42880 12567 9365 13616 12200 14646 11683 248225 
Branch_type:  BRANCH_CONDITIONAL:  Total Count: 2585868 410039 690397 503951 213295 587571 111238 7278630 
Branch_type:  BRANCH_DIRECT_CALL:  Total Count: 4893 33077 27333 73274 48126 64362 14550 1615289 
Branch_type:  BRANCH_INDIRECT_CALL:  Total Count: 32622 0 10219 18491 0 13836 3414 263677 
Branch_type:  BRANCH_RETURN:  Total Count: 50648 40682 133385 69278 75224 152258 31842 1670638 
Number of unique branch instructions: 9822
Upper 32 bits: 
aaaa
ffff
ffff0000
Unique upper 32 bits: 3
Unique upper 36 bits: 3
Unique upper 40 bits: 5
Unique upper 44 bits: 32
Unique upper 48 bits: 154
Variant_0 : 1371 0.334717
Variant_1 : 1258 0.307129
Variant_2 : 1374 0.335449
Variant_3 : 0 0
Offset_3 4059
Offset_4 250
Offset_5 446
Offset_6 502
Offset_7 578
Offset_8 496
Offset_9 465
Offset_10 379
Offset_11 305
Offset_12 270
Offset_13 197
Offset_14 227
Offset_15 184
Offset_16 221
Offset_17 141
Offset_18 118
Offset_19 234
Offset_20 137
Offset_21 235
Offset_22 392
Offset_23 243
Offset_24 324
Offset_25 88
Offset_47 80
decode_dispatch_called: 30314209 54.2645
Dispatch_width: 0 18212055 60.0776 32.6008
Dispatch_width: 1 2308597 7.61556 4.13255
Dispatch_width: 2 1116885 3.68436 1.9993
Dispatch_width: 3 1091261 3.59983 1.95343
Dispatch_width: 4 1030590 3.39969 1.84483
Dispatch_width: 5 1267779 4.18213 2.26941
Dispatch_width: 6 5287042 17.4408 9.46417
Empty_decode_cycles: 25549537 45.7355
ROB_full_cycles: 556834 0.996772
Starvation_cycles_per_kilo_instr: 500.199
Starvation_cycles_per_kilo_instr_3: 477.215
Starvation_cycles_per_kilo_instr_0: 432.048
Branch_type_1  (3,1)  (4,9)  (5,37)  (6,70)  (7,115)  (8,126)  (9,124)  (10,97)  (11,67)  (12,43)  (13,5)  (14,2)  (15,3)  (16,4)  (18,1)  (19,4)  (20,2)  (21,1)  (22,3)  (23,2)  (24,10)  (25,12) 
Branch_type_2  (3,1)  (5,1)  (8,3)  (9,3)  (12,1)  (13,1)  (14,1)  (16,3)  (17,2)  (20,2)  (21,2)  (23,5)  (24,1)  (47,36) 
Branch_type_3  (3,4057)  (4,241)  (5,404)  (6,417)  (7,433)  (8,307)  (9,254)  (10,152)  (11,122)  (12,50)  (13,4) 
Branch_type_4  (6,3)  (7,8)  (8,25)  (9,52)  (10,62)  (11,59)  (12,97)  (13,85)  (14,100)  (15,86)  (16,99)  (17,63)  (18,53)  (19,114)  (20,72)  (21,124)  (22,208)  (23,137)  (24,185)  (25,72) 
Branch_type_5  (8,2)  (9,1)  (10,3)  (11,5)  (12,3)  (13,14)  (14,16)  (15,11)  (16,20)  (17,11)  (18,16)  (19,12)  (20,10)  (21,13)  (22,42)  (23,26)  (24,37) 
Branch_type_6  (5,4)  (6,12)  (7,22)  (8,33)  (9,31)  (10,65)  (11,52)  (12,76)  (13,88)  (14,108)  (15,84)  (16,95)  (17,65)  (18,48)  (19,104)  (20,51)  (21,95)  (22,139)  (23,73)  (24,91)  (25,4)  (47,44) 
Unique trigger count: 
Variant_0_evicts_0 : 0
Variant_0_evicts_1 : 0
Variant_0_evicts_2 : 0
Variant_0_evicts_3 : 0
Variant_1_evicts_0 : 0
Variant_1_evicts_1 : 0
Variant_1_evicts_2 : 0
Variant_1_evicts_3 : 0
Variant_2_evicts_0 : 0
Variant_2_evicts_1 : 0
Variant_2_evicts_2 : 0
Variant_2_evicts_3 : 0
Variant_3_evicts_0 : 0
Variant_3_evicts_1 : 0
Variant_3_evicts_2 : 0
Variant_3_evicts_3 : 0
BTB PER SET UNIQUE ADDR: 12 15 5 9 12 16 9 12 11 11 9 10 13 14 9 9 7 7 10 13 11 9 14 8 9 12 10 12 13 8 11 12 11 8 4 11 10 13 7 9 11 7 11 10 5 12 10 7 10 12 8 10 9 8 12 5 8 15 5 11 9 12 8 6 9 10 11 10 14 8 13 8 15 9 7 4 8 14 8 12 9 4 10 9 10 10 7 6 8 13 6 5 10 8 8 14 7 12 6 13 13 17 11 6 11 9 7 14 7 6 9 14 12 7 11 7 12 6 8 7 8 10 7 5 10 13 7 7 12 9 9 15 10 11 9 13 7 13 11 15 8 13 13 10 10 11 7 7 8 12 12 14 14 8 5 15 12 9 9 9 10 11 13 10 12 13 14 7 8 9 7 10 10 8 15 6 9 9 10 12 11 12 7 11 17 13 3 12 8 12 8 11 9 8 10 12 7 10 8 9 12 10 8 8 8 6 11 7 10 14 9 9 9 6 8 14 10 8 13 13 8 15 9 7 6 9 11 9 5 13 5 8 11 11 9 10 8 10 9 9 11 7 4 11 8 12 7 8 12 9 10 12 15 8 11 6 6 10 8 10 12 8 5 11 14 10 10 9 8 12 8 12 8 5 6 9 9 15 12 10 11 16 5 10 8 9 10 11 12 13 13 5 11 11 5 15 8 12 11 8 10 12 9 10 9 8 10 8 13 8 14 11 8 14 10 5 14 9 10 11 8 12 8 8 13 11 9 8 10 8 10 6 10 9 11 8 9 8 7 12 9 9 7 9 5 12 11 7 10 7 6 7 9 11 13 12 9 13 10 13 9 15 3 13 6 11 6 8 9 10 10 8 8 14 6 11 10 11 10 9 12 9 5 7 9 9 11 10 11 7 12 9 14 15 8 4 13 9 16 7 8 8 10 13 13 8 12 14 8 11 11 5 11 12 9 11 9 14 16 14 11 13 6 10 9 7 10 8 8 8 13 11 6 11 13 8 17 6 10 8 10 8 8 13 14 8 6 7 13 13 10 12 12 8 13 16 13 13 8 14 6 7 12 10 12 7 9 10 12 15 7 10 12 11 11 14 8 14 9 7 8 11 12 14 6 9 12 14 10 12 5 9 9 6 12 7 13 16 9 9 11 11 11 11 6 10 8 13 11 11 11 7 9 9 10 13 10 17 8 9 9 6 10 8 13 11 10 7 10 13 11 10 10 10 11 15 8 8 8 9 12 9 10 12 12 11 8 7 9 7 12 13 13 12 12 11 10 9 16 16 13 14 12 13 9 14 6 9 13 13 12 9 15 13 11 10 11 10 8 7 12 10 5 11 11 10 12 13 11 18 9 10 10 11 9 10 10 11 8 7 8 8 10 7 7 12 10 6 14 10 8 9 8 10 6 13 8 13 11 10 13 7 7 8 9 11 10 12 8 13 8 13 17 11 8 8 8 14 6 8 7 8 10 10 6 10 9 12 11 14 6 9 7 7 11 11 11 8 10 12 15 5 12 9 8 14 8 7 7 10 9 8 8 12 21 9 14 16 11 13 11 13 13 11 10 11 9 15 8 9 11 9 13 7 10 11 6 13 8 11 11 9 13 11 6 10 11 6 7 8 12 12 10 11 7 9 9 12 9 12 10 8 13 15 13 5 11 10 8 11 11 7 14 6 8 9 10 11 17 10 14 8 9 8 15 12 10 12 7 6 8 8 15 14 6 11 16 5 7 7 12 8 6 11 15 8 6 11 12 12 9 11 5 5 6 8 17 7 16 10 7 9 12 10 9 9 8 9 8 8 7 6 17 8 15 17 10 11 14 9 15 7 18 16 17 11 10 8 10 11 6 13 9 10 10 13 17 12 7 9 9 15 7 12 12 10 9 11 8 10 10 7 11 8 8 13 9 11 11 8 10 8 7 9 10 13 5 12 8 10 11 13 10 8 8 15 9 10 7 11 12 8 9 10 16 8 13 5 10 9 9 10 15 9 10 6 6 11 8 8 10 7 14 13 10 7 15 8 15 11 14 6 11 9 7 10 11 13 10 10 14 9 11 10 7 10 9 9 9 9 8 11 5 12 10 16 11 11 8 11 12 12 9 7 9 10 7 9 10 9 16 12 10 13 7 12 7 12 12 11 7 14 8 9 10 10 8 10 13 12 10 12 8 10 10 12 7 11 8 15 10 16 11 13 11 9 12 10 7 13 12 13 12 11 12 9 18 12 13 13 10 10 10 12 11 14 16 8 11 12 8 7 8 7 9 9 7 10 11 12 16 13 7 10 12 10 7 16 6 10 10 11 6 5 7 10 8 7 6 6 8 13 11 5 
BTB PER SET COUNT: 16 21 1979 10 1426 18 975 23 942 17 15 13 15 942 13 9 1202 9 15 16 15 12 711 68 10 13 14 12 397 1467 11 516 11 12 4 14 11 16 12 1289 15 11 15 20 1464 118 14 7 12 17 8 10 14 8 148 5 12 18 8 13 15 15 9 6 10 259 11 10 16 10 558 27 20 14 8 4 15 306 9 17 376 4 12 995 12 10 10 6 11 21 24 5 13 9 13 15 1421 16 7 19 16 20 17 7 1583 11 8 20 863 6 11 22 59 7 17 1038 13 6 1467 9 14 10 13 5 12 13 10 7 16 819 11 5624 16 12 9 15 976 21 18 22 14 749 22 10 11 19 7 7 11 13 17 271 1235 9 5 23 14 13 11 13 15 199 20 11 202 712 19 8 16 87 7 10 13 9 24 6 11 15 11 948 13 240 1906 15 18 26 3 16 995 15 10 18 12 8 18 12 7 277 10 9 14 12 976 10 8 6 17 9 12 17 13 15 11 1965 9 3222 16 10 2745 14 11 22 372 9 6 24 13 10 5 14 5 10 12 11 11 12 10 298 10 11 17 10 4 630 13 14 7 8 489 12 10 16 21 8 13 7 87 232 11 19 363 8 7 504 17 12 18 10 224 15 9 48 8 5 637 13 13 17 19 984 14 21 5 15 8 11 11 12 16 15 17 5 14 694 7 16 8 14 13 376 11 17 629 14 12 168 73 308 102 20 258 15 10 18 1748 992 18 12 15 22 11 2936 9 13 1475 12 540 10 13 9 10 7 13 11 15 14 10 976 8 16 9 1697 7 11 5 13 12 8 12 137 6 8 9 13 18 23 10 24 175 29 15 20 4 21 6 1556 6 8 11 14 16 242 12 87 972 12 13 12 15 1469 1260 13 7 14 11 10 15 13 16 10 13 10 16 22 9 989 15 16 21 8 10 11 15 14 18 9 15 17 10 12 12 5 21 12 9 16 14 2588 24 18 21 16 7 13 13 12 28 8 9 13 13 13 7 16 212 25 19 19 13 8 11 11 8 19 902 1064 6 8 14 15 15 16 12 8 229 17 16 17 8 18 39 9 15 628 12 221 11 11 14 19 12 17 14 17 11 17 8 20 10 7 9 18 13 16 7 14 23 17 12 20 6 13 11 6 15 7 547 16 12 12 11 14 12 12 9 10 12 14 14 12 13 9 14 443 13 19 12 18 12 15 13 9 16 11 23 12 1703 193 10 24 14 18 12 10 15 20 10 13 10 442 12 10 12 17 18 16 9 10 9 8 14 23 430 16 14 13 16 10 27 23 14 42 19 14 9 18 9 9 15 13 17 9 20 15 2437 10 64 12 9 7 15 12 6 4339 13 13 17 14 21 23 16 12 453 22 14 15 1559 383 262 7 12 10 149 8 8 14 12 6 16 11 10 10 8 12 8 15 467 15 19 15 22 7 11 10 15 15 12 13 8 18 12 21 29 13 9 9 10 24 6 501 8 8 12 11 8 11 1002 24 566 17 6 13 11 8 15 506 12 16 10 986 24 7 236 14 18268 19 15 613 1467 16 12 11 983 24 28 74 25 23 14 16 17 18 17 29 20 12 11 23 37 17 16 13 19 7 2205 14 7 191 8 13 977 24 1282 12 6 13 11 8 7 8 21 20 765 13 9 159 505 15 11 18 13 11 15 1480 819 5 14 10 994 13 42 12647 16 6 10 12 997 13 34 11 50 10 10 11 21 15 999 13 9 8 1468 8 339 1971 6 15 20 1464 7 7 13 9 6 17 1228 10 6 1055 14 20 79 16 7 5 7 9 21 533 22 12 993 11 388 10 13 10 13 9 9 10 10 622 30 10 62 24 10 16 19 12 18 13 82 65 496 13 13 9 10 12 9 7858 11 11 14 37 160 17 8 55 14 18 8 17 16 30 10 14 8 10 14 8 11 9 482 1344 12 17 12 9 16 974 8 19 690 14 5 16 10 12 22 1386 15 11 13 22 11 14 9 18 15 10 9 14 1009 12 16 6 10 11 10 45 18 10 17 6 8 16 11 10 10 7 161 16 502 9 22 10 20 398 21 1166 279 10 11 11 16 18 16 10 17 21 21 128 7 15 19 13 16 307 14 498 10 12 13 293 1715 20 8 15 16 18 11 8 10 11 9 10 12 20 107 21 14 17 7 1768 12 25 15 17 9 523 10 11 13 14 11 11 17 15 16 2894 10 1470 10 13 153 17 8 737 372 24 11 14 15 13 15 11 9 58 20 18 13 15 545 10 27 19 225 21 17 15 15 1008 12 1355 99 501 16 20 10 56 509 995 14 13 9 1475 18 13 27 17 7 10 20 10 9 19 8 981 664 250 7 5 10 15 12 9 8 6 10 250 14 5 
To predecode: 0
Predecoding something: 0
Predecode request dropped: 0
sizeofblock_0 0
sizeofblock_1 33758
sizeofblock_2 43508
sizeofblock_3 40608
sizeofblock_4 21709
sizeofblock_5 0
sizeofblock_6 0
sizeofblock_7 0
sizeofblock_8 0
Variant_0 Correct: 1607547 Incorrect: 0 Accuracy: 1
Variant_1 Correct: 2083425 Incorrect: 0 Accuracy: 1
Variant_2 Correct: 3625445 Incorrect: 0 Accuracy: 1
Variant_3 Correct: 0 Incorrect: 0 Accuracy: -nan
