
*** ChampSim Multicore Out-of-Order Simulator ***

Warmup Instructions: 50000000
Simulation Instructions: 50000000
Number of CPUs: 1
LLC sets: 2048
LLC ways: 16
Off-chip DRAM Size: 4096 MB Channels: 1 Width: 64-bit Data Rate: 6400 MT/s
CPU 0 runs ./micro_traces/srv660.trace.gz
.gz
ITLB has LRU replacement policy
DTLB has LRU replacement policy
STLB has LRU replacement policy
CPU 0 L1I next line prefetcher
L1I has LRU replacement policy
L1D has LRU replacement policy
Initialize SRRIP state for L2C
Initialize DRRIP state for LLC
Heartbeat CPU 0 instructions: 10000001 cycles: 2795564 heartbeat IPC: 3.5771 cumulative IPC: 3.5771 (Simulation time: 0 hr 1 min 43 sec) 
Heartbeat CPU 0 instructions: 20000002 cycles: 5591265 heartbeat IPC: 3.57692 cumulative IPC: 3.57701 (Simulation time: 0 hr 3 min 22 sec) 
Heartbeat CPU 0 instructions: 30000002 cycles: 8386242 heartbeat IPC: 3.57785 cumulative IPC: 3.57729 (Simulation time: 0 hr 4 min 59 sec) 
Heartbeat CPU 0 instructions: 40000002 cycles: 11182782 heartbeat IPC: 3.57585 cumulative IPC: 3.57693 (Simulation time: 0 hr 6 min 37 sec) 
Heartbeat CPU 0 instructions: 50000000 cycles: 13980820 heartbeat IPC: 3.57393 cumulative IPC: 3.57633 (Simulation time: 0 hr 8 min 18 sec) 

Warmup complete CPU 0 instructions: 50000004 cycles: 13980821 (Simulation time: 0 hr 8 min 18 sec) 

Cycle: 20000000 FTQ IN: 56584488 FTQ occupancy: 17.2188 DECODE IN: 56584488 DECODE occupancy: 45.1287 ROB IN: 56584488 ROB occupancy: 281.757 ROB OUT: 56584458
Heartbeat CPU 0 instructions: 60000001 cycles: 23081884 heartbeat IPC: 1.09877 cumulative IPC: 1.09877 (Simulation time: 0 hr 9 min 38 sec) 
Cycle: 30000000 FTQ IN: 11096249 FTQ occupancy: 3.74081 DECODE IN: 11096249 DECODE occupancy: 10.1596 ROB IN: 11096248 ROB occupancy: 123.876 ROB OUT: 11096080
Heartbeat CPU 0 instructions: 70000001 cycles: 32098019 heartbeat IPC: 1.10912 cumulative IPC: 1.10392 (Simulation time: 0 hr 10 min 53 sec) 
Cycle: 40000000 FTQ IN: 11032535 FTQ occupancy: 3.93181 DECODE IN: 11032513 DECODE occupancy: 10.5161 ROB IN: 11032497 ROB occupancy: 124.256 ROB OUT: 11032646
Heartbeat CPU 0 instructions: 80000000 cycles: 41137953 heartbeat IPC: 1.1062 cumulative IPC: 1.10468 (Simulation time: 0 hr 12 min 13 sec) 
Cycle: 50000000 FTQ IN: 11153557 FTQ occupancy: 3.669 DECODE IN: 11153569 DECODE occupancy: 10.0498 ROB IN: 11153586 ROB occupancy: 124.854 ROB OUT: 11153599
Heartbeat CPU 0 instructions: 90000003 cycles: 50125002 heartbeat IPC: 1.11271 cumulative IPC: 1.10668 (Simulation time: 0 hr 13 min 33 sec) 
Heartbeat CPU 0 instructions: 100000000 cycles: 59222848 heartbeat IPC: 1.09916 cumulative IPC: 1.10517 (Simulation time: 0 hr 14 min 54 sec) 
Finished CPU 0 instructions: 50000000 cycles: 45242028 cumulative IPC: 1.10517 (Simulation time: 0 hr 14 min 54 sec) 

ChampSim completed all CPUs

Region of Interest Statistics

CPU 0 cumulative IPC: 1.10517 instructions: 50000000 cycles: 45242028
 Fetch stage stalled: 73.2589  Sim cycles: 45242028 fetch stall cycle: 33143834
 Empty decode stage: 57.8206  Sim cycles: 45242028 fetch stall cycle: 26159227
ITLB TOTAL     ACCESS:    7630057  HIT:    7022861  MISS:     607196  HIT %:    92.0421  MISS %:    7.95795   MPKI: 12.1439
ITLB LOAD TRANSLATION INSTRUCTION	ACCESS:    5865162  HIT:    5738970  MISS:     126192  HIT %:    97.8484  MISS %:    2.15155  MPKI: 2.52384
ITLB TRANSLATION FROM L1D PREFETCHER INSTRUCTION	ACCESS:    1764895  HIT:    1283891  MISS:     481004  HIT %:     72.746  MISS %:     27.254  MPKI: 9.62008

ITLB AVERAGE MISS LATENCY: 94500.6 cycles
ITLB RQ	ACCESS:   11538254	FORWARD:          0	MERGED:    3772275	TO_CACHE:    7765979

DTLB TOTAL     ACCESS:    9350345  HIT:    8873186  MISS:     477159  HIT %:    94.8969  MISS %:    5.10312   MPKI: 9.54318
DTLB LOAD TRANSLATION DATA	ACCESS:    9350345  HIT:    8873186  MISS:     477159  HIT %:    94.8969  MISS %:    5.10312  MPKI: 9.54318

DTLB AVERAGE MISS LATENCY: 9.34192 cycles
DTLB RQ	ACCESS:   13621433	FORWARD:          0	MERGED:    4237157	TO_CACHE:    9384276

STLB TOTAL     ACCESS:    1335498  HIT:    1333451  MISS:       2047  HIT %:    99.8467  MISS %:   0.153276   MPKI: 0.04094
STLB LOAD TRANSLATION INSTRUCTION	ACCESS:     124605  HIT:     124448  MISS:        157  HIT %:     99.874  MISS %:   0.125998  MPKI: 0.00314
STLB TRANSLATION FROM L1D PREFETCHER INSTRUCTION	ACCESS:     482591  HIT:     482492  MISS:         99  HIT %:    99.9795  MISS %:  0.0205143  MPKI: 0.00198
STLB LOAD TRANSLATION DATA	ACCESS:     477159  HIT:     475381  MISS:       1778  HIT %:    99.6274  MISS %:   0.372622  MPKI: 0.03556
STLB TRANSLATION FROM L1D PREFETCHER DATA	ACCESS:     251143  HIT:     251130  MISS:         13  HIT %:    99.9948  MISS %: 0.00517633  MPKI: 0.00026

STLB AVERAGE MISS LATENCY: 79.3947 cycles
STLB RQ	ACCESS:    1475999	FORWARD:          0	MERGED:     136570	TO_CACHE:    1339429

STLB Hit, L1D data hit: 0
STLB Hit, L2C data hit: 0
STLB Hit, LLC data hit: 0
STLB Hit, LLC data miss: 0
STLB STLB hints to L2: 0
L1D TOTAL     ACCESS:   13367687  HIT:   12220364  MISS:    1147323  HIT %:    91.4172  MISS %:    8.58281   MPKI: 22.9465
L1D LOAD DATA	ACCESS:    6833469  HIT:    6074620  MISS:     758849  HIT %:    88.8951  MISS %:    11.1049  MPKI: 15.177
L1D RFO DATA	ACCESS:    6205216  HIT:    5916939  MISS:     288277  HIT %:    95.3543  MISS %:    4.64572  MPKI: 5.76554
L1D PREFETCH DATA	ACCESS:     329002  HIT:     228805  MISS:     100197  HIT %:    69.5452  MISS %:    30.4548  MPKI: 2.00394

L1D PREFETCH  REQUESTED:     775746  ISSUED:     775746  USEFUL:      44256  USELESS:      69502
L1D USEFUL LOAD PREFETCHES:      44256 PREFETCH ISSUED TO LOWER LEVEL:     113853  ACCURACY: 38.8712
 TIMELY PREFETCHES:      44256 LATE PREFETCHES: 13540 DROPPED PREFETCHES: 3
L1D AVERAGE MISS LATENCY: 441703 cycles
L1D RQ	ACCESS:   10902085	FORWARD:          0	MERGED:    3865663	TO_CACHE:    6871399
L1D WQ	ACCESS:    6921301	FORWARD:     165287	MERGED:     171267	TO_CACHE:    6750034
L1D PQ	ACCESS:     388005	FORWARD:          0	MERGED:          0	TO_CACHE:     387741

L1D UNIQUE REGIONS ACCESSED: 0
L1D REGIONS CONFLICTS: 0
L1D Cross Page Prefetch Requests: 5805
L1D Same Page Prefetch Requests: 784974
L1D ROI Sum of L1D PQ occupancy: 4940389
L1D PREFETCHES PUSHED FROM L2C: 0
L1I TOTAL     ACCESS:   11256645  HIT:    7633020  MISS:    3623625  HIT %:     67.809  MISS %:     32.191   MPKI: 72.4725
L1I LOAD INSTRUCTION	ACCESS:    6672918  HIT:    6183265  MISS:     489653  HIT %:    92.6621  MISS %:    7.33791  MPKI: 9.79306
L1I PREFETCH INSTRUCTION	ACCESS:    4583727  HIT:    1449755  MISS:    3133972  HIT %:    31.6283  MISS %:    68.3717  MPKI: 62.6794

L1I PREFETCH  REQUESTED:    5130651  ISSUED:    5130585  USEFUL:    2390695  USELESS:     782446
L1I USEFUL LOAD PREFETCHES:    2390695 PREFETCH ISSUED TO LOWER LEVEL:    3173057  ACCURACY: 75.3436
 TIMELY PREFETCHES:    2390695 LATE PREFETCHES: 39091 DROPPED PREFETCHES: 10466
L1I AVERAGE MISS LATENCY: 388831 cycles
L1I RQ	ACCESS:    9436603	FORWARD:          0	MERGED:    2743211	TO_CACHE:    6693392
L1I PQ	ACCESS:    5130585	FORWARD:          0	MERGED:     285723	TO_CACHE:    4844862

L1BTB TOTAL     ACCESS:    5676371  HIT:    2059243  MISS:    3617128  HIT %:    36.2775  MISS %:    63.7225   MPKI: 72.3426
L1BTB BRANCH_DIRECT_JUMP	ACCESS:     546037  HIT:     143447  MISS:     402590	AVERAGE STALL: 19.5003
L1BTB BRANCH_INDIRECT	ACCESS:     181869  HIT:      65539  MISS:     116330	AVERAGE STALL: 78.0151
L1BTB BRANCH_CONDITIONAL	ACCESS:    2723045  HIT:    1434432  MISS:    1288613	AVERAGE STALL: 19.6289
L1BTB BRANCH_DIRECT_CALL	ACCESS:     941169  HIT:     105059  MISS:     836110	AVERAGE STALL: 20.2383
L1BTB BRANCH_INDIRECT_CALL	ACCESS:     171552  HIT:      21583  MISS:     149969	AVERAGE STALL: 102.817
L1BTB BRANCH_RETURN	ACCESS:    1112699  HIT:     289183  MISS:     823516	AVERAGE STALL: 21.7422
L1BTB BRANCH_OTHER ACCESS:          0  HIT:          0  MISS:          0	AVERAGE STALL: -nan
L1BTB TOTAL ROB OCCUPANCY AT BTB MISS: 29.6165

L2BTB TOTAL     ACCESS:    3591785  HIT:    2571450  MISS:    1020335  HIT %:    71.5925  MISS %:    28.4075   MPKI: 20.4067
L2BTB BRANCH_DIRECT_JUMP	ACCESS:     398442  HIT:     283461  MISS:     114981	AVERAGE STALL: 19.5003
L2BTB BRANCH_INDIRECT	ACCESS:     106056  HIT:      93093  MISS:      12963	AVERAGE STALL: 78.0151
L2BTB BRANCH_CONDITIONAL	ACCESS:    1288613  HIT:     920623  MISS:     367990	AVERAGE STALL: 19.6289
L2BTB BRANCH_DIRECT_CALL	ACCESS:     836110  HIT:     572664  MISS:     263446	AVERAGE STALL: 20.2383
L2BTB BRANCH_INDIRECT_CALL	ACCESS:     140453  HIT:      92646  MISS:      47807	AVERAGE STALL: 102.817
L2BTB BRANCH_RETURN	ACCESS:     822111  HIT:     608963  MISS:     213148	AVERAGE STALL: 21.7422
L2BTB BRANCH_OTHER ACCESS:          0  HIT:          0  MISS:          0	AVERAGE STALL: -nan
L2BTB TOTAL ROB OCCUPANCY AT BTB MISS: 104.992

L2C TOTAL     ACCESS:    6633752  HIT:    5645814  MISS:     987938  HIT %:    85.1074  MISS %:    14.8926   MPKI: 19.7588
L2C LOAD INSTRUCTION	ACCESS:     450560  HIT:     370847  MISS:      79713  HIT %:     82.308  MISS %:     17.692  MPKI: 1.59426
L2C PREFETCH INSTRUCTION	ACCESS:    3173064  HIT:    2793586  MISS:     379478  HIT %:    88.0406  MISS %:    11.9594  MPKI: 7.58956
L2C LOAD TRANSLATION INSTRUCTION	ACCESS:        183  HIT:         62  MISS:        121  HIT %:    33.8798  MISS %:    66.1202  MPKI: 0.00242
L2C TRANSLATION FROM L1D PREFETCHER INSTRUCTION	ACCESS:       4615  HIT:       4377  MISS:        238  HIT %:    94.8429  MISS %:     5.1571  MPKI: 0.00476
L2C LOAD DATA	ACCESS:     745270  HIT:     600416  MISS:     144854  HIT %:    80.5636  MISS %:    19.4364  MPKI: 2.89708
L2C RFO DATA	ACCESS:     288144  HIT:     203054  MISS:      85090  HIT %:    70.4696  MISS %:    29.5304  MPKI: 1.7018
L2C PREFETCH DATA	ACCESS:    1445292  HIT:    1184664  MISS:     260628  HIT %:    81.9671  MISS %:    18.0329  MPKI: 5.21256
L2C WRITEBACK DATA	ACCESS:     524713  HIT:     488407  MISS:      36306  HIT %:    93.0808  MISS %:    6.91921  MPKI: 0.72612
L2C LOAD TRANSLATION DATA	ACCESS:       1887  HIT:        383  MISS:       1504  HIT %:    20.2968  MISS %:    79.7032  MPKI: 0.03008
L2C TRANSLATION FROM L1D PREFETCHER DATA	ACCESS:         24  HIT:         18  MISS:          6  HIT %:         75  MISS %:         25  MPKI: 0.00012

L2C PREFETCH  REQUESTED:    3286087  ISSUED:    3286087  USEFUL:      32116  USELESS:     609916
L2C USEFUL LOAD PREFETCHES:      32116 PREFETCH ISSUED TO LOWER LEVEL:     641284  ACCURACY: 5.00808
 TIMELY PREFETCHES:      32116 LATE PREFETCHES: 1178 DROPPED PREFETCHES: 0
L2C AVERAGE MISS LATENCY: 33.858 cycles
L2C RQ	ACCESS:    1490738	FORWARD:          0	MERGED:          0	TO_CACHE:    1490683
L2C WQ	ACCESS:     524713	FORWARD:         55	MERGED:          0	TO_CACHE:     524713
L2C PQ	ACCESS:    6572997	FORWARD:          0	MERGED:    1937970	TO_CACHE:    4635027

L2C Dense regions hint from L2: 0
PSCL5 TOTAL     ACCESS:      11908  HIT:       5954  MISS:       5954  HIT %:         50  MISS %:         50   MPKI: 0.11908
PSCL5 LOAD TRANSLATION INSTRUCTION	ACCESS:       3856  HIT:       1928  MISS:       1928  HIT %:         50  MISS %:         50  MPKI: 0.03856
PSCL5 TRANSLATION FROM L1D PREFETCHER INSTRUCTION	ACCESS:       8052  HIT:       4026  MISS:       4026  HIT %:         50  MISS %:         50  MPKI: 0.08052


PSCL4 TOTAL     ACCESS:      11641  HIT:       5813  MISS:       5828  HIT %:    49.9356  MISS %:    50.0644   MPKI: 0.11656
PSCL4 LOAD TRANSLATION INSTRUCTION	ACCESS:       2560  HIT:       1829  MISS:        731  HIT %:    71.4453  MISS %:    28.5547  MPKI: 0.01462
PSCL4 TRANSLATION FROM L1D PREFETCHER INSTRUCTION	ACCESS:       5875  HIT:       3984  MISS:       1891  HIT %:    67.8128  MISS %:    32.1872  MPKI: 0.03782
PSCL4 LOAD TRANSLATION DATA	ACCESS:       1113  HIT:          0  MISS:       1113  HIT %:          0  MISS %:        100  MPKI: 0.02226
PSCL4 TRANSLATION FROM L1D PREFETCHER DATA	ACCESS:       2093  HIT:          0  MISS:       2093  HIT %:          0  MISS %:        100  MPKI: 0.04186


PSCL3 TOTAL     ACCESS:      11757  HIT:       5871  MISS:       5886  HIT %:    49.9362  MISS %:    50.0638   MPKI: 0.11772
PSCL3 LOAD TRANSLATION INSTRUCTION	ACCESS:       2618  HIT:       1887  MISS:        731  HIT %:    72.0779  MISS %:    27.9221  MPKI: 0.01462
PSCL3 TRANSLATION FROM L1D PREFETCHER INSTRUCTION	ACCESS:       5875  HIT:       3984  MISS:       1891  HIT %:    67.8128  MISS %:    32.1872  MPKI: 0.03782
PSCL3 LOAD TRANSLATION DATA	ACCESS:       1171  HIT:          0  MISS:       1171  HIT %:          0  MISS %:        100  MPKI: 0.02342
PSCL3 TRANSLATION FROM L1D PREFETCHER DATA	ACCESS:       2093  HIT:          0  MISS:       2093  HIT %:          0  MISS %:        100  MPKI: 0.04186


PSCL2 TOTAL     ACCESS:      10664  HIT:       5266  MISS:       5398  HIT %:    49.3811  MISS %:    50.6189   MPKI: 0.10796
PSCL2 LOAD TRANSLATION INSTRUCTION	ACCESS:       2009  HIT:       1815  MISS:        194  HIT %:    90.3435  MISS %:    9.65655  MPKI: 0.00388
PSCL2 TRANSLATION FROM L1D PREFETCHER INSTRUCTION	ACCESS:       6877  HIT:       3451  MISS:       3426  HIT %:    50.1818  MISS %:    49.8182  MPKI: 0.06852
PSCL2 LOAD TRANSLATION DATA	ACCESS:       1753  HIT:          0  MISS:       1753  HIT %:          0  MISS %:        100  MPKI: 0.03506
PSCL2 TRANSLATION FROM L1D PREFETCHER DATA	ACCESS:         25  HIT:          0  MISS:         25  HIT %:          0  MISS %:        100  MPKI: 0.0005


LLC TOTAL     ACCESS:    1078161  HIT:    1047703  MISS:      30458  HIT %:     97.175  MISS %:      2.825   MPKI: 0.60916
LLC LOAD INSTRUCTION	ACCESS:      79449  HIT:      78958  MISS:        491  HIT %:     99.382  MISS %:   0.618007  MPKI: 0.00982
LLC PREFETCH INSTRUCTION	ACCESS:     377764  HIT:     377189  MISS:        575  HIT %:    99.8478  MISS %:   0.152211  MPKI: 0.0115
LLC LOAD TRANSLATION INSTRUCTION	ACCESS:        121  HIT:         89  MISS:         32  HIT %:    73.5537  MISS %:    26.4463  MPKI: 0.00064
LLC TRANSLATION FROM L1D PREFETCHER INSTRUCTION	ACCESS:        238  HIT:        221  MISS:         17  HIT %:    92.8571  MISS %:    7.14286  MPKI: 0.00034
LLC LOAD DATA	ACCESS:     144008  HIT:     140136  MISS:       3872  HIT %:    97.3113  MISS %:    2.68874  MPKI: 0.07744
LLC RFO DATA	ACCESS:      84970  HIT:      70657  MISS:      14313  HIT %:    83.1552  MISS %:    16.8448  MPKI: 0.28626
LLC PREFETCH DATA	ACCESS:     263520  HIT:     252758  MISS:      10762  HIT %:    95.9161  MISS %:    4.08394  MPKI: 0.21524
LLC WRITEBACK DATA	ACCESS:     126581  HIT:     126288  MISS:        293  HIT %:    99.7685  MISS %:   0.231472  MPKI: 0.00586
LLC LOAD TRANSLATION DATA	ACCESS:       1504  HIT:       1401  MISS:        103  HIT %:    93.1516  MISS %:     6.8484  MPKI: 0.00206
LLC TRANSLATION FROM L1D PREFETCHER DATA	ACCESS:          6  HIT:          6  MISS:          0  HIT %:        100  MISS %:          0  MPKI: 0

LLC AVERAGE MISS LATENCY: 159.559 cycles
LLC RQ	ACCESS:     310348	FORWARD:          0	MERGED:          0	TO_CACHE:     310296
LLC WQ	ACCESS:     126581	FORWARD:         52	MERGED:          0	TO_CACHE:     126581
LLC PQ	ACCESS:     641284	FORWARD:          0	MERGED:          0	TO_CACHE:     641284

LLC Dense regions hint to LLC: 0

RAW hits: 1712557
Loads Generated: 12614642
Loads sent to L1D: 10902085
Stores Generated: 6921287
Stores sent to L1D: 6921301
Major fault: 0 Minor fault: 2641
Allocated PAGES: 2641
I-Shadow cache 408 bytes
Touched + WorthPF tables 12288 bytes 
MMA filter 174 bytes 
FNL filter 272 bytes 
TOTAL PREFETCHER STORAGE SIZE: 31318 bytes
CPU 0 L1I next line prefetcher final stats

stream: 
stream:times selected: 1229230
stream:pref_filled: 122598
stream:pref_useful: 26153
stream:pref_late: 9306
stream:misses: 8901
stream:misses_by_poll: 0

CS: 
CS:times selected: 189924
CS:pref_filled: 64929
CS:pref_useful: 40478
CS:pref_late: 15990
CS:misses: 28779
CS:misses_by_poll: 5

CPLX: 
CPLX:times selected: 1038192
CPLX:pref_filled: 22648
CPLX:pref_useful: 6111
CPLX:pref_late: 4198
CPLX:misses: 119676
CPLX:misses_by_poll: 0

NL_L1: 
NL:times selected: 12634
NL:pref_filled: 1446
NL:pref_useful: 203
NL:pref_late: 205
NL:misses: 1577
NL:misses_by_poll: 0

total selections: 2469980
total_filled: 100197
total_useful: 44256
total_late: 31879
total_polluted: 5
total_misses_after_warmup: 796780
conflicts: 5640777

test: 117156

DRAM Statistics
 CHANNEL 0
 RQ ROW_BUFFER_HIT:      10854  ROW_BUFFER_MISS:      19307
 DBUS_CONGESTED:         11
 WQ ROW_BUFFER_HIT:       1545  ROW_BUFFER_MISS:      13257  FULL:          0

 AVG_CONGESTED_CYCLE: 5

CPU 0 Branch Prediction Accuracy: 99.8213% MPKI: 0.32708 Average ROB Occupancy at Mispredict: 127.053
Branch types
NOT_BRANCH: 40846359 81.6927%
BRANCH_DIRECT_JUMP: 546037 1.09207%
BRANCH_INDIRECT: 181869 0.363738%
BRANCH_CONDITIONAL: 6199831 12.3997%
BRANCH_DIRECT_CALL: 941169 1.88234%
BRANCH_INDIRECT_CALL: 171552 0.343104%
BRANCH_RETURN: 1112699 2.2254%
BRANCH_OTHER: 0 0%

DRAM PAGES: 1048576
Allocated PAGES: 2641
Average_ROB_Occupancy: 125.006
Average_Decode_Occupancy: 10.2744
Average_FTQ_Occupancy: 3.80083
Indirect max targets: 14 Average targets: 1.17445
Branch_type:  BRANCH_DIRECT_JUMP:  Count Percentage: 3.30547 6.32296 3.6662 7.38011 3.46413 6.02123 1.59466 68.2452 
Branch_type:  BRANCH_INDIRECT:  Count Percentage: 6.14916 3.48055 8.1631 9.6621 3.34687 2.81024 3.88213 62.5058 
Branch_type:  BRANCH_CONDITIONAL:  Count Percentage: 25.4888 3.08377 1.42264 4.45946 2.484 3.94463 2.27458 56.8421 
Branch_type:  BRANCH_DIRECT_CALL:  Count Percentage: 0.388825 1.27653 0.72773 3.53498 3.54818 2.62092 3.16808 84.7348 
Branch_type:  BRANCH_INDIRECT_CALL:  Count Percentage: 9.5639 0 2.99891 0.00263396 0.901107 1.71646 4.99516 79.8218 
Branch_type:  BRANCH_RETURN:  Count Percentage: 8.27087 1.10028 1.0315 3.52479 4.50714 4.19308 2.7826 74.5897 
Branch_type:  BRANCH_DIRECT_JUMP:  Total Count: 36086 69028 40024 80569 37818 65734 17409 745036 
Branch_type:  BRANCH_INDIRECT:  Total Count: 22402 12680 29739 35200 12193 10238 14143 227715 
Branch_type:  BRANCH_CONDITIONAL:  Total Count: 3159611 382266 176351 552797 307918 488979 281958 7046181 
Branch_type:  BRANCH_DIRECT_CALL:  Total Count: 7306 23986 13674 66422 66670 49247 59528 1592161 
Branch_type:  BRANCH_INDIRECT_CALL:  Total Count: 32679 0 10247 9 3079 5865 17068 272744 
Branch_type:  BRANCH_RETURN:  Total Count: 183739 24443 22915 78304 100127 93150 61816 1657026 
Number of unique branch instructions: 10640
Upper 32 bits: 
aaaa
ffff
ffff0000
Unique upper 32 bits: 3
Unique upper 36 bits: 3
Unique upper 40 bits: 5
Unique upper 44 bits: 32
Unique upper 48 bits: 160
Offset_3 4390
Offset_4 270
Offset_5 480
Offset_6 533
Offset_7 625
Offset_8 567
Offset_9 515
Offset_10 419
Offset_11 332
Offset_12 303
Offset_13 227
Offset_14 234
Offset_15 194
Offset_16 226
Offset_17 163
Offset_18 144
Offset_19 256
Offset_20 143
Offset_21 261
Offset_22 400
Offset_23 241
Offset_24 362
Offset_25 114
Offset_47 96
Offset_64 1
decode_dispatch_called: 20934582 46.2724
Dispatch_width: 0 10191666 48.6834 22.527
Dispatch_width: 1 710064 3.39182 1.56948
Dispatch_width: 2 993316 4.74486 2.19556
Dispatch_width: 3 697337 3.33103 1.54135
Dispatch_width: 4 2162902 10.3317 4.78074
Dispatch_width: 5 516416 2.46681 1.14145
Dispatch_width: 6 5662881 27.0504 12.5169
Empty_decode_cycles: 24307446 53.7276
ROB_full_cycles: 2576659 5.69528
Starvation_cycles_per_kilo_instr: 370.025
Starvation_cycles_per_kilo_instr_3: 343.232
Starvation_cycles_per_kilo_instr_0: 319.225
Branch_type_1  (3,1)  (4,10)  (5,41)  (6,73)  (7,124)  (8,146)  (9,138)  (10,109)  (11,74)  (12,47)  (13,11)  (14,2)  (15,3)  (16,4)  (18,1)  (19,5)  (20,2)  (21,1)  (22,3)  (23,2)  (24,11)  (25,12) 
Branch_type_2  (3,1)  (4,1)  (5,1)  (8,4)  (9,4)  (10,1)  (12,1)  (13,1)  (14,1)  (16,3)  (17,2)  (20,2)  (21,2)  (23,5)  (24,1)  (47,44) 
Branch_type_3  (3,4388)  (4,259)  (5,434)  (6,444)  (7,470)  (8,351)  (9,282)  (10,169)  (11,128)  (12,54)  (13,10)  (64,1) 
Branch_type_4  (6,3)  (7,8)  (8,25)  (9,57)  (10,66)  (11,68)  (12,110)  (13,96)  (14,105)  (15,92)  (16,99)  (17,76)  (18,61)  (19,123)  (20,73)  (21,141)  (22,209)  (23,136)  (24,208)  (25,98) 
Branch_type_5  (8,3)  (9,1)  (10,4)  (11,5)  (12,3)  (13,14)  (14,16)  (15,11)  (16,22)  (17,11)  (18,23)  (19,15)  (20,12)  (21,13)  (22,43)  (23,26)  (24,42) 
Branch_type_6  (5,4)  (6,13)  (7,23)  (8,38)  (9,33)  (10,70)  (11,57)  (12,88)  (13,95)  (14,110)  (15,88)  (16,98)  (17,74)  (18,59)  (19,113)  (20,54)  (21,104)  (22,145)  (23,72)  (24,100)  (25,4)  (47,52) 
Unique trigger count: 
BTB PER SET UNIQUE ADDR: 23 28 20 27 26 28 17 23 14 26 20 28 26 20 26 17 21 21 22 27 21 21 23 26 20 25 27 27 26 23 22 24 27 16 17 24 23 26 16 19 20 24 25 29 20 15 28 16 26 23 28 20 22 27 22 11 21 18 18 27 24 33 24 23 24 26 25 17 29 25 22 22 29 20 20 14 16 24 19 32 26 15 20 29 27 25 27 21 18 40 22 15 25 20 13 27 20 20 28 29 35 31 24 21 23 20 23 26 14 19 20 34 24 22 21 13 27 27 25 24 26 17 22 18 22 23 12 24 32 19 18 30 22 30 19 31 15 28 22 33 21 29 22 24 23 24 27 20 15 22 24 26 16 24 17 31 25 28 28 25 26 23 29 29 22 24 25 18 28 20 23 27 25 23 25 21 23 22 21 26 19 22 21 30 35 30 17 26 28 20 23 18 17 32 25 18 17 25 22 24 28 26 20 20 18 23 22 25 21 24 20 27 22 22 24 25 21 26 19 38 13 28 17 22 19 25 29 26 16 30 21 15 24 29 24 27 29 20 22 18 25 23 29 27 23 22 22 24 25 23 30 28 25 19 27 26 20 18 18 20 25 19 8 23 22 16 19 21 21 21 19 25 20 15 16 17 23 28 21 22 15 25 19 18 25 20 19 34 32 26 23 17 26 27 18 29 24 27 26 25 21 20 21 38 25 29 26 22 32 24 22 32 20 37 27 14 30 23 21 29 22 27 19 22 27 29 23 18 21 17 24 30 21 22 22 28 20 21 19 38 24 24 15 26 30 28 18 23 22 22 25 23 27 24 23 29 24 27 19 17 19 31 20 31 24 27 14 24 28 21 23 17 24 26 19 31 23 28 21 25 23 23 20 18 21 22 29 28 25 25 31 15 29 31 18 17 19 20 31 25 21 27 22 28 29 29 26 26 23 23 27 18 18 30 22 22 23 31 38 30 19 28 25 24 29 19 27 19 23 22 29 25 19 22 30 28 27 19 21 25 26 19 17 29 32 20 15 26 28 25 29 38 27 18 28 37 25 28 19 31 17 22 19 28 34 20 24 23 29 26 24 28 27 24 25 36 25 36 17 25 35 26 22 26 16 28 37 33 27 23 21 26 19 18 18 20 28 27 22 27 20 30 20 34 20 19 19 31 29 28 23 33 25 23 24 26 24 32 17 18 17 23 26 17 24 32 36 16 15 32 27 25 24 24 27 30 20 25 27 25 29 19 27 24 28 30 15 25 19 24 23 30 23 24 20 24 23 25 29 27 20 34 23 23 25 32 23 30 24 29 30 25 30 37 23 29 30 30 21 24 26 26 17 24 26 28 22 25 35 29 22 22 24 15 26 19 16 23 24 22 26 22 24 14 24 25 31 20 22 25 31 26 21 16 10 32 18 28 23 28 29 25 19 19 21 34 22 30 20 25 21 28 33 24 23 25 25 30 23 28 22 28 26 33 26 27 23 25 35 21 17 25 20 22 30 26 23 25 29 21 23 13 26 31 22 26 19 24 19 20 25 22 21 28 34 21 27 26 29 31 22 29 22 30 26 23 23 26 27 30 23 25 22 15 15 24 17 27 20 26 15 28 28 34 13 28 22 19 20 14 21 23 18 24 21 20 32 24 21 30 27 24 23 22 21 23 25 23 21 20 26 21 24 19 25 25 27 32 36 20 21 22 24 25 36 29 24 24 22 19 24 24 26 24 18 24 34 22 20 19 23 15 15 23 24 27 16 26 24 25 24 27 19 17 26 19 29 23 28 29 15 27 20 21 26 23 19 27 23 14 17 14 29 27 25 32 21 18 28 24 34 26 32 30 36 22 26 23 24 22 21 35 29 30 19 27 36 32 14 28 24 34 19 28 25 22 21 26 26 28 23 30 26 22 19 26 23 24 25 24 27 24 22 25 24 27 19 37 19 28 24 20 19 21 30 31 32 29 27 28 25 24 19 26 30 17 25 18 32 19 20 29 28 22 23 12 22 22 19 24 28 17 20 29 25 26 32 21 25 20 25 19 22 21 23 30 31 24 19 19 22 22 23 27 16 28 22 28 23 31 19 23 23 27 25 28 34 22 23 28 25 24 18 25 21 18 14 29 19 17 29 31 28 22 23 31 22 21 25 30 19 32 24 23 23 25 27 28 23 27 23 26 19 25 21 25 27 22 29 25 24 24 21 35 30 26 28 24 20 28 24 28 28 23 27 20 36 32 29 35 21 30 26 25 22 33 37 20 29 24 28 27 27 23 23 19 22 24 31 23 31 29 20 23 29 28 18 31 20 26 28 25 26 18 17 22 13 19 12 14 19 30 24 17 
BTB PER SET COUNT: 2226 2386 2910 2121 2692 2124 1980 1752 1524 2163 1247 2620 12820 1684 1922 1098 2125 2187 1711 2225 1758 1727 2195 2240 1127 1891 2114 2075 2258 1853 1830 2529 2027 889 1227 1822 1900 2348 1119 2173 1517 1660 2460 2391 1810 677 2170 1524 2117 1749 2471 1431 1949 2122 1756 939 1595 1648 1368 2078 1782 3113 1917 1897 2419 2324 1718 1652 2241 1998 2598 2016 2595 1531 1210 810 870 2200 1590 2625 2445 1011 2035 2574 2099 1877 2254 2097 1817 3864 1490 1441 2191 1899 898 2108 1467 1499 2332 3837 3687 2587 2272 1796 3567 1308 1697 2258 1573 3140 1822 2850 2215 1619 1632 1181 2111 2398 2354 1941 2284 1436 1670 1116 1793 1532 699 2618 3210 1652 1436 3087 1553 2500 1657 2292 1481 2117 1590 2902 1757 2174 1750 1784 1947 1617 2692 1384 1112 1764 1779 2062 1596 1584 969 3074 2638 2249 2204 2435 1989 1907 2618 2177 1627 2282 1980 1538 2261 1691 1704 2478 1934 1855 2034 1910 1817 1600 1802 2423 1575 1995 1793 2193 2957 3140 1064 1933 2456 2198 1803 1334 1220 2635 2228 1223 1205 1862 1663 1608 2090 2072 1989 1453 1128 1852 1743 1880 2035 2445 1513 2286 1276 3784 2001 2346 1669 2334 1663 3491 1115 2102 1371 1787 1519 2188 2715 2234 1404 3228 1641 559 1766 2279 1441 6549 2326 1698 2223 1176 1818 1920 2977 2773 1808 2007 1380 1854 2037 1618 1926 2194 2025 1567 2114 2526 1533 1392 1385 1617 2263 1482 301 1865 2054 875 1729 1415 2168 1884 1634 1855 1129 967 1582 1233 2168 2370 1847 1938 941 2216 1498 1904 2062 1520 1299 3030 3091 2455 1982 1121 1901 2441 1153 2796 2281 2041 1769 2125 1579 1429 1851 2950 1988 2746 1916 1765 3042 2269 2481 2204 1471 3090 2942 1407 2539 1730 1664 2722 1555 3147 1123 1647 2656 2443 2325 1326 1648 1028 1732 2784 1281 1393 1859 1765 1318 1825 1222 3541 1913 2904 1217 2057 2381 1874 1351 1775 1880 2114 2332 1919 2344 1665 1649 2582 2084 2628 1572 1355 1263 2812 1497 2694 1858 3017 808 1658 1802 1465 2100 1261 2193 2327 1197 2675 1886 2511 1699 2465 2383 2012 1491 972 1094 1677 3080 2476 2193 2279 2166 965 2276 2367 1299 1226 1466 1538 2882 2181 1617 2117 2089 1604 2171 2232 2128 2114 1430 2038 1887 1365 1458 2597 1556 1937 1840 4208 3304 2644 1436 2210 2381 1886 2563 1779 2662 1473 1637 1914 2610 2059 1435 1640 2640 2331 1859 1500 1769 1945 2735 1454 1288 2811 2880 1902 1406 1956 2420 1938 2290 3769 1769 1711 2667 3197 1969 2709 1221 2234 1301 1887 1480 2443 2753 1826 6797 1807 2479 2115 2012 2015 1864 1813 1962 2998 1905 3280 1379 1881 2697 2369 1550 2209 1419 1999 3222 2500 2639 1858 1750 2233 4100 1125 1027 1804 2789 2667 1617 2238 1499 2852 1443 3435 1422 1254 1251 2832 2666 1979 1807 3380 2593 2392 1709 2620 1451 2876 1289 1251 869 1922 2225 1157 1856 2926 3445 2174 1082 4145 2977 2060 2004 1804 2499 2532 2266 2352 2038 1990 2297 1757 2424 2013 2217 2798 971 2199 1273 2306 1741 2726 2069 2094 1367 1345 1821 1861 2219 2177 1318 2933 1611 1903 2303 2685 1757 2207 1768 2574 2706 2168 3018 2893 2060 2577 2611 2604 1740 1915 2393 2176 1045 3111 2088 2306 1821 2280 3029 2723 1929 1805 2251 988 1901 1280 1840 2327 1881 1539 1374 1850 1812 1019 2042 2167 2750 2139 1379 1728 2916 2561 2146 1072 695 2636 1057 2352 2199 2408 2889 1742 1053 1396 1533 2852 1522 2798 2111 1939 1682 3082 3069 1781 1939 1676 2265 2717 1607 2386 2211 2199 2545 2787 3059 2267 1465 2503 3660 1283 1083 2126 1257 1766 3193 1996 1669 1774 2339 1890 2176 723 2253 2608 5856 2559 1401 1946 2155 1818 1622 1750 1461 2244 2973 2011 2080 2656 2346 3046 1849 2615 2028 2410 2803 2039 1775 1950 2256 2446 1612 2519 2165 928 1511 1705 1686 2518 1627 1923 1280 2439 2416 2802 845 2369 1898 1430 1168 1084 1929 2208 1215 1795 1603 1536 3200 2228 1571 2637 2204 2359 1618 1932 1705 1669 1728 2301 1791 2001 2136 5560 1650 1824 1770 2089 2309 3040 3736 1646 1930 1436 1894 2262 2970 2601 2150 1838 1973 1652 2570 1581 2540 2092 1280 1899 2724 2197 1699 1142 2294 1078 754 1851 2875 2750 1263 2079 1172 2209 1843 2451 1719 1389 2185 1375 2258 1862 1520 2593 1755 2286 1941 1630 2071 1885 1387 2182 1468 1134 1323 1324 2134 2347 1723 2779 1656 1226 1703 2179 3286 1932 2534 2376 2888 1548 1809 1936 1773 1535 1445 5561 2730 2366 1650 2984 2857 3021 1063 2902 1834 2700 1187 2364 2548 1918 1437 2044 2135 2684 2120 3016 2160 2046 1278 2736 1861 1907 2392 1892 2290 2074 2084 1818 2123 2187 1705 3229 1497 5411 2631 1963 1455 1725 2676 2625 2860 2336 2635 2090 2417 1998 1677 1980 2758 1119 1895 1002 2743 1526 1605 2757 2271 1659 1859 892 1648 2014 2513 1965 2144 924 1546 2832 2360 2327 2440 1945 1832 1964 2366 1155 2911 2572 1467 2411 2771 1747 1583 1628 2085 1599 1869 2234 798 2224 1601 2637 1775 2731 1762 1877 1974 2386 2440 2483 3526 2046 2028 1978 2014 2122 1442 2370 1332 1496 625 2514 1263 1174 2161 2713 3020 1509 1801 3079 1967 1610 2400 2293 1299 3296 2028 1566 1901 1975 1819 2349 2242 2203 2188 2338 1977 3509 1617 2113 2448 1741 1982 2233 2153 2124 1663 2605 2500 1468 2788 2094 1406 2048 1948 2897 2442 1717 2685 1522 3264 2286 2633 3257 1820 2279 2430 2171 1527 3375 4147 1396 2511 2074 2180 2688 1883 1846 2354 1866 1433 3146 2314 2123 2526 3009 1642 1804 2339 2099 1453 3057 1689 2299 2505 2270 2283 1334 1407 1795 931 1728 481 1236 1505 3071 2104 1004 
