
*** ChampSim Multicore Out-of-Order Simulator ***

Warmup Instructions: 50000000
Simulation Instructions: 50000000
Number of CPUs: 1
LLC sets: 2048
LLC ways: 16
Off-chip DRAM Size: 4096 MB Channels: 1 Width: 64-bit Data Rate: 6400 MT/s
CPU 0 runs ./micro_traces/srv615.trace.gz
.gz
ITLB has LRU replacement policy
DTLB has LRU replacement policy
STLB has LRU replacement policy
FDIP Prefetcher at L1I
L1I has LRU replacement policy
L1D has LRU replacement policy
Initialize SRRIP state for L2C
Initialize DRRIP state for LLC
Heartbeat CPU 0 instructions: 10000001 cycles: 2795310 heartbeat IPC: 3.57742 cumulative IPC: 3.57742 (Simulation time: 0 hr 2 min 3 sec) 
Heartbeat CPU 0 instructions: 20000001 cycles: 5592226 heartbeat IPC: 3.57537 cumulative IPC: 3.57639 (Simulation time: 0 hr 3 min 58 sec) 
Heartbeat CPU 0 instructions: 30000001 cycles: 8388337 heartbeat IPC: 3.5764 cumulative IPC: 3.57639 (Simulation time: 0 hr 5 min 47 sec) 
Heartbeat CPU 0 instructions: 40000002 cycles: 11183737 heartbeat IPC: 3.57731 cumulative IPC: 3.57662 (Simulation time: 0 hr 7 min 31 sec) 
Heartbeat CPU 0 instructions: 50000001 cycles: 13979137 heartbeat IPC: 3.57731 cumulative IPC: 3.57676 (Simulation time: 0 hr 9 min 21 sec) 

Warmup complete CPU 0 instructions: 50000001 cycles: 13979137 (Simulation time: 0 hr 9 min 21 sec) 

Cycle: 20000000 FTQ IN: 54533474 FTQ occupancy: 17.1177 DECODE IN: 54533474 DECODE occupancy: 43.9342 ROB IN: 54533463 ROB occupancy: 260.602 ROB OUT: 54533447
Heartbeat CPU 0 instructions: 60000000 cycles: 27251308 heartbeat IPC: 0.753456 cumulative IPC: 0.753456 (Simulation time: 0 hr 10 min 51 sec) 
Cycle: 30000000 FTQ IN: 7426193 FTQ occupancy: 3.65877 DECODE IN: 7426188 DECODE occupancy: 6.93909 ROB IN: 7426199 ROB occupancy: 57.9304 ROB OUT: 7426179
Cycle: 40000000 FTQ IN: 7483344 FTQ occupancy: 3.49094 DECODE IN: 7483349 DECODE occupancy: 6.56788 ROB IN: 7483349 ROB occupancy: 56.1336 ROB OUT: 7483330
Heartbeat CPU 0 instructions: 70000000 cycles: 40745456 heartbeat IPC: 0.741062 cumulative IPC: 0.747208 (Simulation time: 0 hr 12 min 16 sec) 
Cycle: 50000000 FTQ IN: 7500744 FTQ occupancy: 3.48283 DECODE IN: 7500733 DECODE occupancy: 6.53267 ROB IN: 7500733 ROB occupancy: 55.4961 ROB OUT: 7500768
Heartbeat CPU 0 instructions: 80000003 cycles: 54060725 heartbeat IPC: 0.751018 cumulative IPC: 0.748473 (Simulation time: 0 hr 13 min 44 sec) 
Cycle: 60000000 FTQ IN: 7405194 FTQ occupancy: 3.64179 DECODE IN: 7405205 DECODE occupancy: 6.91783 ROB IN: 7405205 ROB occupancy: 57.4438 ROB OUT: 7405179
Heartbeat CPU 0 instructions: 90000001 cycles: 67570865 heartbeat IPC: 0.740185 cumulative IPC: 0.746384 (Simulation time: 0 hr 15 min 8 sec) 
Cycle: 70000000 FTQ IN: 7475773 FTQ occupancy: 3.48934 DECODE IN: 7475771 DECODE occupancy: 6.59118 ROB IN: 7475771 ROB occupancy: 56.0379 ROB OUT: 7475640
Cycle: 80000000 FTQ IN: 7543301 FTQ occupancy: 3.48735 DECODE IN: 7543303 DECODE occupancy: 6.52084 ROB IN: 7543303 ROB occupancy: 55.7719 ROB OUT: 7543441
Heartbeat CPU 0 instructions: 100000002 cycles: 80840869 heartbeat IPC: 0.753579 cumulative IPC: 0.747812 (Simulation time: 0 hr 16 min 31 sec) 
Finished CPU 0 instructions: 50000001 cycles: 66861732 cumulative IPC: 0.747812 (Simulation time: 0 hr 16 min 31 sec) 

ChampSim completed all CPUs

Region of Interest Statistics

CPU 0 cumulative IPC: 0.747812 instructions: 50000001 cycles: 66861732
 Fetch stage stalled: 82.0272  Sim cycles: 66861732 fetch stall cycle: 54844812
 Empty decode stage: 69.5782  Sim cycles: 66861732 fetch stall cycle: 46521210
ITLB TOTAL     ACCESS:    5741425  HIT:    5243552  MISS:     497873  HIT %:    91.3284  MISS %:    8.67159   MPKI: 9.95746
ITLB LOAD TRANSLATION INSTRUCTION	ACCESS:    5662622  HIT:    5164749  MISS:     497873  HIT %:    91.2077  MISS %:    8.79227  MPKI: 9.95746
ITLB TRANSLATION FROM L1D PREFETCHER INSTRUCTION	ACCESS:      78803  HIT:      78803  MISS:          0  HIT %:        100  MISS %:          0  MPKI: 0

ITLB AVERAGE MISS LATENCY: 9.03134 cycles
ITLB RQ	ACCESS:    7217236	FORWARD:          0	MERGED:    1066715	TO_CACHE:    6150521

DTLB TOTAL     ACCESS:   10107713  HIT:    9630623  MISS:     477090  HIT %:    95.2799  MISS %:    4.72006   MPKI: 9.5418
DTLB LOAD TRANSLATION DATA	ACCESS:   10107713  HIT:    9630623  MISS:     477090  HIT %:    95.2799  MISS %:    4.72006  MPKI: 9.5418

DTLB AVERAGE MISS LATENCY: 9.27425 cycles
DTLB RQ	ACCESS:   14178072	FORWARD:          0	MERGED:    4041128	TO_CACHE:   10136944

STLB TOTAL     ACCESS:    1220872  HIT:    1219058  MISS:       1814  HIT %:    99.8514  MISS %:   0.148582   MPKI: 0.03628
STLB LOAD TRANSLATION INSTRUCTION	ACCESS:     497873  HIT:     497673  MISS:        200  HIT %:    99.9598  MISS %:  0.0401709  MPKI: 0.004
STLB LOAD TRANSLATION DATA	ACCESS:     476993  HIT:     475397  MISS:       1596  HIT %:    99.6654  MISS %:   0.334596  MPKI: 0.03192
STLB TRANSLATION FROM L1D PREFETCHER DATA	ACCESS:     246006  HIT:     245988  MISS:         18  HIT %:    99.9927  MISS %: 0.00731689  MPKI: 0.00036

STLB AVERAGE MISS LATENCY: 70.2707 cycles
STLB RQ	ACCESS:    1343583	FORWARD:          0	MERGED:     122662	TO_CACHE:    1220921

STLB Hit, L1D data hit: 0
STLB Hit, L2C data hit: 0
STLB Hit, LLC data hit: 0
STLB Hit, LLC data miss: 0
STLB STLB hints to L2: 0
L1D TOTAL     ACCESS:   13969071  HIT:   12845583  MISS:    1123488  HIT %:    91.9573  MISS %:    8.04268   MPKI: 22.4698
L1D LOAD DATA	ACCESS:    7326760  HIT:    6584623  MISS:     742137  HIT %:    89.8709  MISS %:    10.1291  MPKI: 14.8427
L1D RFO DATA	ACCESS:    6315122  HIT:    6027213  MISS:     287909  HIT %:     95.441  MISS %:    4.55904  MPKI: 5.75818
L1D PREFETCH DATA	ACCESS:     327189  HIT:     233747  MISS:      93442  HIT %:     71.441  MISS %:     28.559  MPKI: 1.86884

L1D PREFETCH  REQUESTED:     737474  ISSUED:     737474  USEFUL:      33108  USELESS:      67647
L1D USEFUL LOAD PREFETCHES:      33108 PREFETCH ISSUED TO LOWER LEVEL:     100798  ACCURACY: 32.8459
 TIMELY PREFETCHES:      33108 LATE PREFETCHES: 7297 DROPPED PREFETCHES: 2
L1D AVERAGE MISS LATENCY: 305165 cycles
L1D RQ	ACCESS:   11264400	FORWARD:          0	MERGED:    3744623	TO_CACHE:    7352544
L1D WQ	ACCESS:    6956185	FORWARD:     167467	MERGED:     130657	TO_CACHE:    6825528
L1D PQ	ACCESS:     368854	FORWARD:          0	MERGED:          0	TO_CACHE:     368620

L1D UNIQUE REGIONS ACCESSED: 0
L1D REGIONS CONFLICTS: 0
L1D Cross Page Prefetch Requests: 6903
L1D Same Page Prefetch Requests: 746327
L1D ROI Sum of L1D PQ occupancy: 4672455
L1D PREFETCHES PUSHED FROM L2C: 0
L1I TOTAL     ACCESS:    7062712  HIT:    4281632  MISS:    2781080  HIT %:    60.6231  MISS %:    39.3769   MPKI: 55.6216
L1I LOAD INSTRUCTION	ACCESS:    6731069  HIT:    3949989  MISS:    2781080  HIT %:    58.6829  MISS %:    41.3171  MPKI: 55.6216
L1I PREFETCH INSTRUCTION	ACCESS:     331643  HIT:     331643  MISS:          0  HIT %:        100  MISS %:          0  MPKI: 0

L1I PREFETCH  REQUESTED:     582013  ISSUED:     582013  USEFUL:          0  USELESS:          0
L1I USEFUL LOAD PREFETCHES:          0 PREFETCH ISSUED TO LOWER LEVEL:          0  ACCURACY: -nan
 TIMELY PREFETCHES:          0 LATE PREFETCHES: 0 DROPPED PREFETCHES: 0
L1I AVERAGE MISS LATENCY: 17.0375 cycles
L1I RQ	ACCESS:    9469367	FORWARD:          0	MERGED:    2651525	TO_CACHE:    6817842
L1I PQ	ACCESS:     582013	FORWARD:          0	MERGED:     182619	TO_CACHE:     399394

L1BTB TOTAL     ACCESS:    5670489  HIT:    2023404  MISS:    3647085  HIT %:    35.6831  MISS %:    64.3169   MPKI: 72.9417
L1BTB BRANCH_DIRECT_JUMP	ACCESS:     547750  HIT:     142933  MISS:     404817	AVERAGE STALL: 27.9886
L1BTB BRANCH_INDIRECT	ACCESS:     182288  HIT:      65405  MISS:     116883	AVERAGE STALL: 67.3007
L1BTB BRANCH_CONDITIONAL	ACCESS:    2697135  HIT:    1398620  MISS:    1298515	AVERAGE STALL: 29.5401
L1BTB BRANCH_DIRECT_CALL	ACCESS:     949110  HIT:     105113  MISS:     843997	AVERAGE STALL: 30.1508
L1BTB BRANCH_INDIRECT_CALL	ACCESS:     172546  HIT:      21330  MISS:     151216	AVERAGE STALL: 87.4532
L1BTB BRANCH_RETURN	ACCESS:    1121660  HIT:     290003  MISS:     831657	AVERAGE STALL: 29.5352
L1BTB BRANCH_OTHER ACCESS:          0  HIT:          0  MISS:          0	AVERAGE STALL: -nan
L1BTB TOTAL ROB OCCUPANCY AT BTB MISS: 20.131

L2BTB TOTAL     ACCESS:    3621818  HIT:    2105735  MISS:    1516083  HIT %:    58.1403  MISS %:    41.8597   MPKI: 30.3217
L2BTB BRANCH_DIRECT_JUMP	ACCESS:     400752  HIT:     222590  MISS:     178162	AVERAGE STALL: 27.9886
L2BTB BRANCH_INDIRECT	ACCESS:     106560  HIT:      89728  MISS:      16832	AVERAGE STALL: 67.3007
L2BTB BRANCH_CONDITIONAL	ACCESS:    1298515  HIT:     759786  MISS:     538729	AVERAGE STALL: 29.5401
L2BTB BRANCH_DIRECT_CALL	ACCESS:     843997  HIT:     438944  MISS:     405053	AVERAGE STALL: 30.1508
L2BTB BRANCH_INDIRECT_CALL	ACCESS:     141757  HIT:      77027  MISS:      64730	AVERAGE STALL: 87.4532
L2BTB BRANCH_RETURN	ACCESS:     830237  HIT:     517660  MISS:     312577	AVERAGE STALL: 29.5352
L2BTB BRANCH_OTHER ACCESS:          0  HIT:          0  MISS:          0	AVERAGE STALL: -nan
L2BTB TOTAL ROB OCCUPANCY AT BTB MISS: 48.4271

L2C TOTAL     ACCESS:    4510597  HIT:    4049650  MISS:     460947  HIT %:    89.7808  MISS %:    10.2192   MPKI: 9.21894
L2C LOAD INSTRUCTION	ACCESS:    2781080  HIT:    2528773  MISS:     252307  HIT %:    90.9277  MISS %:    9.07227  MPKI: 5.04614
L2C LOAD TRANSLATION INSTRUCTION	ACCESS:        225  HIT:         53  MISS:        172  HIT %:    23.5556  MISS %:    76.4444  MPKI: 0.00344
L2C LOAD DATA	ACCESS:     734832  HIT:     664086  MISS:      70746  HIT %:    90.3725  MISS %:    9.62751  MPKI: 1.41492
L2C RFO DATA	ACCESS:     287849  HIT:     236598  MISS:      51251  HIT %:    82.1952  MISS %:    17.8048  MPKI: 1.02502
L2C PREFETCH DATA	ACCESS:     180365  HIT:     110651  MISS:      69714  HIT %:    61.3484  MISS %:    38.6516  MPKI: 1.39428
L2C WRITEBACK DATA	ACCESS:     524580  HIT:     509021  MISS:      15559  HIT %:     97.034  MISS %:    2.96599  MPKI: 0.31118
L2C LOAD TRANSLATION DATA	ACCESS:       1638  HIT:        449  MISS:       1189  HIT %:    27.4115  MISS %:    72.5885  MPKI: 0.02378
L2C TRANSLATION FROM L1D PREFETCHER DATA	ACCESS:         28  HIT:         19  MISS:          9  HIT %:    67.8571  MISS %:    32.1429  MPKI: 0.00018

L2C PREFETCH  REQUESTED:      86485  ISSUED:      86485  USEFUL:       8488  USELESS:      61780
L2C USEFUL LOAD PREFETCHES:       8488 PREFETCH ISSUED TO LOWER LEVEL:      70214  ACCURACY: 12.0888
 TIMELY PREFETCHES:       8488 LATE PREFETCHES: 499 DROPPED PREFETCHES: 0
L2C AVERAGE MISS LATENCY: 38.0758 cycles
L2C RQ	ACCESS:    3805662	FORWARD:          0	MERGED:          0	TO_CACHE:    3805653
L2C WQ	ACCESS:     524580	FORWARD:         10	MERGED:          0	TO_CACHE:     524580
L2C PQ	ACCESS:     187283	FORWARD:          0	MERGED:       3589	TO_CACHE:     183693

L2C Dense regions hint from L2: 0
PSCL5 TOTAL     ACCESS:       3634  HIT:       1817  MISS:       1817  HIT %:         50  MISS %:         50   MPKI: 0.03634
PSCL5 LOAD TRANSLATION INSTRUCTION	ACCESS:       3578  HIT:       1789  MISS:       1789  HIT %:         50  MISS %:         50  MPKI: 0.03578
PSCL5 TRANSLATION FROM L1D PREFETCHER INSTRUCTION	ACCESS:         56  HIT:         28  MISS:         28  HIT %:         50  MISS %:         50  MPKI: 0.00056


PSCL4 TOTAL     ACCESS:       3554  HIT:       1775  MISS:       1779  HIT %:    49.9437  MISS %:    50.0563   MPKI: 0.03558
PSCL4 LOAD TRANSLATION INSTRUCTION	ACCESS:       1866  HIT:       1752  MISS:        114  HIT %:    93.8907  MISS %:    6.10932  MPKI: 0.00228
PSCL4 TRANSLATION FROM L1D PREFETCHER INSTRUCTION	ACCESS:         23  HIT:         23  MISS:          0  HIT %:        100  MISS %:          0  MPKI: 0
PSCL4 LOAD TRANSLATION DATA	ACCESS:       1642  HIT:          0  MISS:       1642  HIT %:          0  MISS %:        100  MPKI: 0.03284
PSCL4 TRANSLATION FROM L1D PREFETCHER DATA	ACCESS:         23  HIT:          0  MISS:         23  HIT %:          0  MISS %:        100  MPKI: 0.00046


PSCL3 TOTAL     ACCESS:       3570  HIT:       1783  MISS:       1787  HIT %:     49.944  MISS %:     50.056   MPKI: 0.03574
PSCL3 LOAD TRANSLATION INSTRUCTION	ACCESS:       1874  HIT:       1760  MISS:        114  HIT %:    93.9168  MISS %:    6.08324  MPKI: 0.00228
PSCL3 TRANSLATION FROM L1D PREFETCHER INSTRUCTION	ACCESS:         23  HIT:         23  MISS:          0  HIT %:        100  MISS %:          0  MPKI: 0
PSCL3 LOAD TRANSLATION DATA	ACCESS:       1650  HIT:          0  MISS:       1650  HIT %:          0  MISS %:        100  MPKI: 0.033
PSCL3 TRANSLATION FROM L1D PREFETCHER DATA	ACCESS:         23  HIT:          0  MISS:         23  HIT %:          0  MISS %:        100  MPKI: 0.00046


PSCL2 TOTAL     ACCESS:       3568  HIT:       1751  MISS:       1817  HIT %:    49.0751  MISS %:    50.9249   MPKI: 0.03634
PSCL2 LOAD TRANSLATION INSTRUCTION	ACCESS:       1922  HIT:       1723  MISS:        199  HIT %:    89.6462  MISS %:    10.3538  MPKI: 0.00398
PSCL2 TRANSLATION FROM L1D PREFETCHER INSTRUCTION	ACCESS:         28  HIT:         28  MISS:          0  HIT %:        100  MISS %:          0  MPKI: 0
PSCL2 LOAD TRANSLATION DATA	ACCESS:       1590  HIT:          0  MISS:       1590  HIT %:          0  MISS %:        100  MPKI: 0.0318
PSCL2 TRANSLATION FROM L1D PREFETCHER DATA	ACCESS:         28  HIT:          0  MISS:         28  HIT %:          0  MISS %:        100  MPKI: 0.00056


LLC TOTAL     ACCESS:     516727  HIT:     489833  MISS:      26894  HIT %:    94.7953  MISS %:    5.20468   MPKI: 0.53788
LLC LOAD INSTRUCTION	ACCESS:     252307  HIT:     251617  MISS:        690  HIT %:    99.7265  MISS %:   0.273476  MPKI: 0.0138
LLC LOAD TRANSLATION INSTRUCTION	ACCESS:        172  HIT:        152  MISS:         20  HIT %:    88.3721  MISS %:    11.6279  MPKI: 0.0004
LLC LOAD DATA	ACCESS:      70261  HIT:      66934  MISS:       3327  HIT %:    95.2648  MISS %:     4.7352  MPKI: 0.06654
LLC RFO DATA	ACCESS:      51235  HIT:      38410  MISS:      12825  HIT %:    74.9683  MISS %:    25.0317  MPKI: 0.2565
LLC PREFETCH DATA	ACCESS:      70214  HIT:      60607  MISS:       9607  HIT %:    86.3175  MISS %:    13.6825  MPKI: 0.19214
LLC WRITEBACK DATA	ACCESS:      71340  HIT:      70991  MISS:        349  HIT %:    99.5108  MISS %:   0.489207  MPKI: 0.00698
LLC LOAD TRANSLATION DATA	ACCESS:       1189  HIT:       1113  MISS:         76  HIT %:    93.6081  MISS %:    6.39193  MPKI: 0.00152
LLC TRANSLATION FROM L1D PREFETCHER DATA	ACCESS:          9  HIT:          9  MISS:          0  HIT %:        100  MISS %:          0  MPKI: 0

LLC AVERAGE MISS LATENCY: 154.762 cycles
LLC RQ	ACCESS:     375175	FORWARD:          0	MERGED:          0	TO_CACHE:     375173
LLC WQ	ACCESS:      71340	FORWARD:          2	MERGED:          0	TO_CACHE:      71340
LLC PQ	ACCESS:      70214	FORWARD:          0	MERGED:          0	TO_CACHE:      70214

LLC Dense regions hint to LLC: 0

RAW hits: 1368150
Loads Generated: 12632550
Loads sent to L1D: 11264400
Stores Generated: 6956176
Stores sent to L1D: 6956185
Major fault: 0 Minor fault: 2481
Allocated PAGES: 2481

stream: 
stream:times selected: 1173519
stream:pref_filled: 119267
stream:pref_useful: 23741
stream:pref_late: 6641
stream:misses: 7675
stream:misses_by_poll: 0

CS: 
CS:times selected: 173738
CS:pref_filled: 59044
CS:pref_useful: 35683
CS:pref_late: 6696
CS:misses: 15802
CS:misses_by_poll: 3

CPLX: 
CPLX:times selected: 998750
CPLX:pref_filled: 20402
CPLX:pref_useful: 4537
CPLX:pref_late: 3083
CPLX:misses: 93763
CPLX:misses_by_poll: 1

NL_L1: 
NL:times selected: 20417
NL:pref_filled: 725
NL:pref_useful: 346
NL:pref_late: 287
NL:misses: 1577
NL:misses_by_poll: 0

total selections: 2366424
total_filled: 93442
total_useful: 33108
total_late: 17976
total_polluted: 4
total_misses_after_warmup: 767923
conflicts: 5901090

test: 114700

DRAM Statistics
 CHANNEL 0
 RQ ROW_BUFFER_HIT:       9717  ROW_BUFFER_MISS:      16828
 DBUS_CONGESTED:          3
 WQ ROW_BUFFER_HIT:       1158  ROW_BUFFER_MISS:      11839  FULL:          0

 AVG_CONGESTED_CYCLE: 7

CPU 0 Branch Prediction Accuracy: 99.8257% MPKI: 0.31912 Average ROB Occupancy at Mispredict: 94.0949
Branch types
NOT_BRANCH: 40846853 81.6937%
BRANCH_DIRECT_JUMP: 547750 1.0955%
BRANCH_INDIRECT: 182288 0.364576%
BRANCH_CONDITIONAL: 6179439 12.3589%
BRANCH_DIRECT_CALL: 949110 1.89822%
BRANCH_INDIRECT_CALL: 172546 0.345092%
BRANCH_RETURN: 1121660 2.24332%
BRANCH_OTHER: 0 0%

DRAM PAGES: 1048576
Allocated PAGES: 2481
Average_ROB_Occupancy: 57.1773
Average_Decode_Occupancy: 6.66639
Average_FTQ_Occupancy: 3.53648
Indirect max targets: 14 Average targets: 1.14576
Branch_type:  BRANCH_DIRECT_JUMP:  Count Percentage: 3.28166 5.97631 3.65443 7.17979 2.92367 6.32152 1.29156 69.3711 
Branch_type:  BRANCH_INDIRECT:  Count Percentage: 6.12122 0.788748 8.14555 9.6825 3.34841 2.8139 0.937785 68.1619 
Branch_type:  BRANCH_CONDITIONAL:  Count Percentage: 20.8927 3.48023 1.53093 7.18912 3.07247 3.54878 0.573501 59.7122 
Branch_type:  BRANCH_DIRECT_CALL:  Count Percentage: 0.901909 1.28065 0.724845 3.62232 2.78686 2.60827 0.885745 87.1894 
Branch_type:  BRANCH_INDIRECT_CALL:  Count Percentage: 9.54037 0 2.99243 0 0.000290245 1.70984 0.99351 84.7636 
Branch_type:  BRANCH_RETURN:  Count Percentage: 4.74589 4.79182 1.02068 4.82809 4.10445 3.40967 0.580772 76.5186 
Branch_type:  BRANCH_DIRECT_JUMP:  Total Count: 35953 65475 40037 78660 32031 69257 14150 760012 
Branch_type:  BRANCH_INDIRECT:  Total Count: 22343 2879 29732 35342 12222 10271 3423 248797 
Branch_type:  BRANCH_CONDITIONAL:  Total Count: 2581475 430012 189160 888278 379630 438482 70861 7377959 
Branch_type:  BRANCH_DIRECT_CALL:  Total Count: 17074 24244 13722 68574 52758 49377 16768 1650578 
Branch_type:  BRANCH_INDIRECT_CALL:  Total Count: 32870 0 10310 0 1 5891 3423 292041 
Branch_type:  BRANCH_RETURN:  Total Count: 106232 107260 22847 108072 91874 76322 13000 1712792 
Number of unique branch instructions: 9763
Upper 32 bits: 
aaaa
ffff
ffff0000
Unique upper 32 bits: 3
Unique upper 36 bits: 3
Unique upper 40 bits: 5
Unique upper 44 bits: 32
Unique upper 48 bits: 154
Offset_3 4036
Offset_4 241
Offset_5 442
Offset_6 503
Offset_7 572
Offset_8 499
Offset_9 459
Offset_10 377
Offset_11 303
Offset_12 265
Offset_13 201
Offset_14 223
Offset_15 190
Offset_16 218
Offset_17 145
Offset_18 120
Offset_19 235
Offset_20 135
Offset_21 235
Offset_22 391
Offset_23 241
Offset_24 325
Offset_25 88
Offset_47 80
decode_dispatch_called: 21053081 31.4875
Dispatch_width: 0 10623526 50.4607 15.8888
Dispatch_width: 1 666873 3.16758 0.997391
Dispatch_width: 2 934714 4.4398 1.39798
Dispatch_width: 3 641096 3.04514 0.958838
Dispatch_width: 4 1545453 7.34075 2.31142
Dispatch_width: 5 490099 2.32792 0.733004
Dispatch_width: 6 6151320 29.2181 9.20006
Empty_decode_cycles: 45808651 68.5125
ROB_full_cycles: 1266242 1.89382
Starvation_cycles_per_kilo_instr: 594.442
Starvation_cycles_per_kilo_instr_3: 574.086
Starvation_cycles_per_kilo_instr_0: 551.659
Branch_type_1  (3,1)  (4,7)  (5,36)  (6,71)  (7,115)  (8,125)  (9,124)  (10,98)  (11,67)  (12,43)  (13,8)  (14,2)  (15,3)  (16,4)  (18,1)  (19,4)  (20,2)  (21,1)  (22,3)  (23,2)  (24,10)  (25,12) 
Branch_type_2  (3,1)  (5,1)  (8,3)  (9,3)  (12,1)  (13,1)  (14,1)  (16,3)  (17,2)  (20,2)  (21,2)  (23,5)  (24,1)  (47,36) 
Branch_type_3  (3,4034)  (4,234)  (5,401)  (6,417)  (7,428)  (8,312)  (9,251)  (10,154)  (11,122)  (12,50)  (13,7) 
Branch_type_4  (6,3)  (7,8)  (8,24)  (9,50)  (10,59)  (11,58)  (12,93)  (13,84)  (14,98)  (15,90)  (16,98)  (17,63)  (18,54)  (19,115)  (20,71)  (21,124)  (22,207)  (23,136)  (24,186)  (25,72) 
Branch_type_5  (8,2)  (9,1)  (10,3)  (11,5)  (12,3)  (13,14)  (14,16)  (15,11)  (16,20)  (17,13)  (18,16)  (19,12)  (20,10)  (21,13)  (22,42)  (23,26)  (24,36) 
Branch_type_6  (5,4)  (6,12)  (7,21)  (8,33)  (9,30)  (10,63)  (11,51)  (12,75)  (13,87)  (14,106)  (15,86)  (16,93)  (17,67)  (18,49)  (19,104)  (20,50)  (21,95)  (22,139)  (23,72)  (24,92)  (25,4)  (47,44) 
aaaaab1fc620: 2ac9e77e 2aca717c 2aca8eff 2acaf6bc 2acaf9aa 2acaf9f1 2acb1abc 2acb1b7f 2acd4e22 2acdb712 2acf5f9e 2ad0ef44 2ad3f15c 2ad414e6 2ad60e42 2ad8609c 2ad99830 2ada35cc 2ada4676 2ada6612 2adf183e 2adf30e5 2adf5602 2adf785c 2ae11572 2aeb2dcf 2aee101b 2aee1ae1 2b156a8c 2b156b61 2b156bea 2b167f35 2b177656 2b17feec 2b1a3e5a 
aaaaac68f310: 2ac9ec8c 2ac9fb44 2ac9fbd2 2aca59ab 2acac04c 2acaf6e0 2acaf6ec 2acaf6f9 2acaf700 2acaf708 2acf2d90 2ad3cfbd 2ad3cfc4 2ad3d000 2ad3f35f 2ad4955d 2ad49571 2ad4f3f2 2ad4f400 2ad5f240 2ad5f37c 2ad5f86a 2ad5f86f 2ad5f880 2ad5fc0d 2ad5fc14 2ad5fc21 2ad5fe1b 2ad873bb 2ad873e3 2ad8a6b2 2ad9086e 2ad93096 2ad9bbb2 2ada152c 2ada1554 2ada3332 2ada5522 2adf3130 2adf313c 2adf3a3f 2adf3bd9 2adf5788 2adf7a8d 2ae07f6b 2ae0857a 2ae0857e 2ae08630 2ae08634 2ae08637 2ae08642 2ae0866f 2ae086e4 2ae086ec 2ae08717 2ae0871b 2aee0170 2aee1d38 2aee75f4 2aee7662 2aee85ca 2aee85e4 2aee8eef 2af70b84 2af74e8f 2b17d843 
aaaaac690ef0: 2aca598b 2acb111b 2acb175f 2acb1772 2acbfaf4 2acbfb00 2acf374f 2acf6d43 2acfa5c8 2ad3baf1 2ad3d4ac 2ad3d4b8 2ad3f1cf 2ad486b2 2ad5a59b 2ad5fc64 2ad5fcf9 2ad6121c 2ad906e9 2ad907bf 2ad9bada 2ada16ce 2ada1ad5 2ada43df 2ada64c0 2ada72ee 2adeb71a 2adf3bcb 2adf7a38 2adf7c6a 2adf8872 2adf8880 2adf9959 2adf9abe 2ae07f78 2ae08503 2ae08754 2ae12e80 2aea3bea 2aecb509 2aee00b0 2aee2bdd 2aee5467 2aee5601 2aee8f20 2af703fd 2af7048b 2af74e74 
Unique trigger count: 
1 9311
2 485
3 90
4 30
5 10
6 6
7 8
8 1
9 2
10 1
11 2
12 1
13 3
16 2
17 2
19 3
35 1
48 1
66 1
BTB PER SET UNIQUE ADDR: 4 7 6 4 3 3 7 9 10 2 5 2 8 5 4 4 6 4 7 8 4 8 6 8 8 11 2 7 6 6 9 10 6 3 6 4 4 6 6 3 7 5 5 9 9 6 5 11 11 6 5 3 13 2 2 7 5 5 8 8 4 10 4 8 5 9 7 7 5 7 6 2 6 4 6 7 6 13 5 4 8 6 7 6 6 8 7 8 8 10 10 8 9 6 6 4 10 7 4 5 8 5 9 9 5 8 7 8 7 5 6 4 4 8 5 11 3 7 6 2 7 8 4 2 6 4 4 6 10 5 10 3 11 4 8 5 5 2 6 8 8 7 6 6 3 10 4 8 10 6 7 11 6 10 4 8 6 8 6 10 9 6 10 5 9 5 3 4 12 5 5 3 7 6 3 2 5 5 9 4 6 5 9 6 6 10 5 6 6 8 5 8 6 6 6 10 9 3 10 5 4 6 8 3 8 4 5 7 6 2 3 6 9 9 6 6 4 9 7 6 6 2 6 6 6 8 12 7 2 9 13 8 4 2 6 8 9 5 3 4 4 3 9 7 14 10 1 5 5 5 8 10 6 6 5 11 4 6 9 5 8 5 7 4 9 14 5 4 7 5 7 6 4 8 9 7 5 3 4 8 7 4 9 5 9 9 6 7 8 4 5 7 4 10 6 3 5 10 5 6 6 6 4 4 6 4 6 4 10 9 5 3 8 3 6 4 8 13 6 2 6 10 5 7 5 5 5 9 3 0 7 2 5 7 9 4 6 6 7 1 5 6 2 8 6 6 3 5 8 4 4 9 8 6 8 6 7 2 7 5 6 10 6 8 10 8 4 3 4 4 8 4 6 5 7 4 11 6 5 10 9 7 6 12 6 4 8 5 5 3 9 5 8 4 7 3 5 5 2 8 6 4 6 5 5 6 7 4 4 3 4 3 9 4 2 5 9 4 2 6 2 5 5 7 9 6 3 2 4 7 3 4 14 5 8 10 6 6 6 3 4 6 8 3 6 8 4 6 5 3 6 3 5 1 9 3 5 6 10 5 5 4 6 10 5 5 11 3 6 6 2 6 8 7 4 3 9 5 2 3 5 2 3 4 3 7 8 3 6 2 10 5 4 8 2 12 4 7 4 4 11 3 3 3 3 5 5 3 3 6 8 4 5 9 3 3 2 10 5 8 6 4 7 4 11 8 4 8 9 7 4 6 4 8 4 6 4 1 6 4 4 8 9 3 8 5 9 12 12 11 5 8 8 7 2 6 8 3 5 3 10 4 8 4 5 5 9 7 9 7 7 3 9 11 6 7 6 10 3 9 12 5 1 6 4 3 3 13 7 5 7 7 3 5 4 5 6 6 5 5 9 6 9 10 8 5 5 9 7 5 8 6 6 5 8 4 7 5 5 7 7 7 9 3 5 10 7 8 4 6 8 7 7 6 7 4 5 4 5 3 10 8 4 6 2 3 6 6 8 7 8 4 11 3 5 2 9 5 6 8 12 3 6 11 7 7 7 6 5 9 7 6 6 8 12 8 7 6 8 6 7 10 9 6 9 8 6 8 7 6 3 7 2 4 4 6 10 7 7 7 3 10 4 6 7 10 3 4 5 5 7 7 6 5 5 7 9 6 1 8 4 3 5 3 4 1 3 9 2 11 7 9 7 2 6 7 7 3 7 5 4 9 5 10 4 3 5 3 5 6 7 3 4 6 2 5 4 10 10 4 4 7 6 7 7 6 14 5 6 4 8 6 0 5 7 4 6 10 3 3 7 5 4 6 10 9 9 6 3 8 3 9 5 6 6 11 11 4 5 4 12 4 9 3 7 6 7 9 5 6 3 4 6 3 4 6 1 5 4 10 6 4 9 4 5 3 5 3 6 6 7 3 7 4 10 5 4 4 6 4 5 4 5 5 4 8 8 5 6 4 8 7 6 8 5 9 7 4 7 6 6 7 4 4 12 5 6 8 9 8 5 6 6 9 7 2 2 6 8 4 3 6 6 6 9 5 7 4 4 7 8 3 4 7 5 3 8 9 3 3 12 7 4 5 8 6 5 10 6 7 9 6 4 3 2 7 4 3 7 6 8 6 8 6 8 8 6 4 5 10 5 4 10 10 5 8 10 10 2 8 8 8 4 4 6 7 9 6 7 3 9 1 13 7 3 5 9 12 6 9 5 6 10 5 3 9 10 8 8 4 2 5 3 8 10 5 7 5 4 7 11 6 5 5 5 7 4 3 8 6 8 7 7 11 4 10 6 11 5 6 3 4 5 4 6 6 7 4 6 5 8 4 9 5 10 4 9 4 3 7 10 6 13 5 
BTB PER SET COUNT: 4 6879 6885 4 3 3 2650 6885 8357 3 1444 2 3367 1444 4 5 1932 5 2046 6521 5 3288 983 3381 7884 9835 2 750 3041 24 9795 7034 5438 4 2884 6 2947 2410 739 3 2412 736 30 3612 10818 743 2404 7841 9034 3233 604 4 14248 2 2 3363 980 7364 6398 5697 4 8955 4 3368 20 7406 2050 1932 1444 2687 3506 2 27 4 1328 2884 737 9203 978 4 3076 5440 2651 2646 1911 4223 1938 2908 9316 4794 7712 3999 3849 4480 1928 6 6858 2888 4 964 2438 1084 3378 5272 7 6408 1929 3845 3364 1443 2404 6 5 5089 12 10686 3 1935 1563 2 3363 5965 4 2 3264 5 4 5412 10425 1926 4832 3 10517 5 8836 1924 1443 2 26 8356 6553 7995 1453 4969 3 4229 4 6878 7722 2404 1287 10846 2884 11778 4 5896 7843 8354 2164 8478 11782 2553 10008 2554 7854 3908 3 4 13760 1922 5 3 1109 185 3 2 19 1923 6552 4 128 1444 9827 372 1454 10308 4000 15 6401 6769 45 7060 1449 2884 2884 2879 9853 3 1942 6 5 560 6374 3 5450 4 1443 4480 743 2 4 3505 2307 6467 5343 5439 4 4503 1212 7362 491 2 2050 6883 6396 6402 12319 5378 2 11302 11761 6922 4 2 25 7872 3845 6 3 4 4 3 10789 2334 13735 7245 1 3970 964 8 8839 9463 6913 1927 17 7978 4 3239 3860 1443 3722 977 2832 4 5603 13027 1483 5 2408 2402 2893 2403 4 7360 3855 2893 1920 3 5 3368 3274 4 2922 979 9343 8801 2882 3751 1952 4 1923 3364 484 7876 2882 6 13 7884 2401 4449 2884 1927 4 4 2165 4 984 4 7629 5153 1222 3 3103 3 1222 8 3844 9314 2883 2 3506 5097 980 7351 29 2404 24 3427 5 0 4938 2 1168 2186 10205 4 3841 2403 2413 1 14 986 2 4134 1144 1126 3 980 3219 5 4 7427 6398 4279 2952 27 9313 3 6401 1966 2404 4687 36 3135 4026 7087 4 3 5 5 2888 6 2167 734 2636 4 8478 36 1445 4091 3372 3364 2882 11005 28 4 1947 979 736 3 4601 17 3844 6 5442 5 3512 4016 2 1935 2767 4 2784 1443 731 22 4632 4 4 2350 4 3 4358 4 993 964 1785 4 2 1848 2 964 735 1961 5927 988 5 2 4 2407 143 4 8870 1804 6700 9339 1459 5960 2884 3 4 980 3026 3 1931 3131 4 3394 17 3 2884 3 7 1 9437 3 7 1466 7370 16 974 4 2156 7365 982 20 8115 3 24 1456 2 1235 7328 832 154 3 26465 979 2 3 24 2 3 484 4 2474 2621 367 1820 2 6579 9 4 6942 2 10403 4 2413 4 4 11550 14 3 3 3 1443 18 3 3 43 2498 4 242 6861 4 3 2 12291 20 2904 2404 1476 2412 466 4526 6850 4 5889 7876 5863 4 2544 4 529 4 2885 4 1 984 4 4 6369 6950 5 5212 19 2085 4584 10756 10715 1444 7878 1486 6866 2 1915 4832 3 2401 3 10369 4 6399 4 3484 965 6404 2769 7872 2908 7425 5 8354 11302 5438 2893 4710 9826 3 7191 11911 364 1 2885 1476 3 3 10754 2909 17 4702 3364 3 1956 995 1923 40 1924 6 8 6822 2405 9344 4471 5899 2890 8 8208 7875 1443 3844 1799 2404 3489 7869 5 4520 1925 24 5444 2776 2190 7841 3 1492 4329 2414 6408 8 2405 6398 10307 1925 31 8354 4 978 4 964 3 10791 3971 4 26 2 3 1452 2407 8364 22 5895 4 12772 3 964 2 9857 1443 8292 3843 16067 3 1927 12051 6374 3845 5362 974 21 4331 4415 7840 2408 2888 10242 4078 2886 2404 7535 2403 8353 10820 2531 6849 21103 3611 2423 6881 2957 2404 3 2979 2 4 4 2403 8356 2407 1457 1478 3 9800 4 2404 5589 7360 3 1477 1924 2436 5920 2412 3982 964 3268 3258 9325 3620 1 7360 4 4 4418 3 4 1 3 8296 2 10311 6880 9682 8834 2 1928 4774 4467 3 1927 8 5 5958 18 12805 4 3 2404 3 1444 3366 7361 3 4 576 2 1443 4 9798 10337 995 4 7363 5891 2175 3980 2167 12778 735 2414 4 2888 765 0 1976 48 1476 4961 4289 3 3 4896 13 5 5952 5553 7395 3337 103 445 3844 4 4208 12 1935 2587 10308 7888 4 1924 4 9893 4 7366 6 2919 3771 4961 9343 12 26 3 5 1386 513 5 22 2 59 5 7287 696 4 5887 386 1446 3 1726 3 2404 2403 4199 3 7391 4 10862 2177 4 4 2884 4 2160 4 1926 5956 4 3131 6378 1444 1469 5 8801 3201 2883 5412 2402 12290 2886 4 6876 4051 1750 7360 4 4 10845 1011 737 9796 10274 8304 9 5954 2883 6946 5439 2 2 1447 48 4 3 8353 35 3809 6944 1073 3364 4 4 3378 6881 3 4 2791 1552 3 3768 7155 3 3 5391 4701 126 62 2772 2564 11 5684 196 3987 3333 1457 4 3 2 3364 4 964 7840 2789 6742 1924 8352 4958 6919 3213 2407 4 1923 3923 17 484 8105 5664 1444 3843 7243 8811 3 3367 3143 3817 4 995 1351 3363 2423 2375 5345 3 6467 1 10334 3858 3 1681 8181 11242 3555 5061 1924 1928 9795 4962 6 3489 5331 2767 3368 7 2 1443 3 8208 5772 1723 7398 17 4 2412 9797 29 485 492 1923 2408 4 5 3636 2404 6393 1934 3364 9278 5 3372 2404 5786 6 1454 3 5 1378 4 1923 36 5885 4 1923 6 7848 4 10340 1828 6337 6 2780 6 3 33 4846 2166 6631 20 
