
*** ChampSim Multicore Out-of-Order Simulator ***

Warmup Instructions: 50000000
Simulation Instructions: 50000000
Number of CPUs: 1
LLC sets: 2048
LLC ways: 16
Off-chip DRAM Size: 4096 MB Channels: 1 Width: 64-bit Data Rate: 6400 MT/s
CPU 0 runs ./micro_traces/srv640.trace.gz
.gz
ITLB has LRU replacement policy
DTLB has LRU replacement policy
STLB has LRU replacement policy
FDIP Prefetcher at L1I
L1I has LRU replacement policy
L1D has LRU replacement policy
Initialize SRRIP state for L2C
Initialize DRRIP state for LLC
Heartbeat_Variant_0 : 1034 0.252441 per_variant_size: 0 1034 0 0 0 0 0 0 0 
Heartbeat_Variant_1 : 1201 0.293213 per_variant_size: 0 842 359 0 0 0 0 0 0 
Heartbeat_Variant_2 : 1564 0.381836 per_variant_size: 0 962 430 119 53 0 0 0 0 
Heartbeat_Variant_3 : 0 0 per_variant_size: 0 0 0 0 0 0 0 0 0 
Heartbeat_Variant_0_evicts 0 : 13931 1 : 10256 2 : 12088 3 : 0 
Heartbeat_Variant_1_evicts 0 : 10152 1 : 0 2 : 11962 3 : 0 
Heartbeat_Variant_2_evicts 0 : 12108 1 : 11885 2 : 0 3 : 0 
Heartbeat_Variant_3_evicts 0 : 0 1 : 0 2 : 0 3 : 0 
Heartbeat CPU 0 instructions: 10000000 cycles: 2799086 heartbeat IPC: 3.57259 cumulative IPC: 3.57259 (Simulation time: 0 hr 2 min 11 sec) 
Heartbeat_Variant_0 : 1049 0.256104 per_variant_size: 0 1049 0 0 0 0 0 0 0 
Heartbeat_Variant_1 : 1229 0.300049 per_variant_size: 0 864 365 0 0 0 0 0 0 
Heartbeat_Variant_2 : 1528 0.373047 per_variant_size: 0 915 426 135 52 0 0 0 0 
Heartbeat_Variant_3 : 0 0 per_variant_size: 0 0 0 0 0 0 0 0 0 
Heartbeat_Variant_0_evicts 0 : 14016 1 : 10091 2 : 12176 3 : 0 
Heartbeat_Variant_1_evicts 0 : 10089 1 : 0 2 : 11715 3 : 0 
Heartbeat_Variant_2_evicts 0 : 12164 1 : 11687 2 : 0 3 : 0 
Heartbeat_Variant_3_evicts 0 : 0 1 : 0 2 : 0 3 : 0 
Heartbeat CPU 0 instructions: 20000001 cycles: 5597460 heartbeat IPC: 3.5735 cumulative IPC: 3.57305 (Simulation time: 0 hr 4 min 9 sec) 
Heartbeat_Variant_0 : 1095 0.267334 per_variant_size: 0 1095 0 0 0 0 0 0 0 
Heartbeat_Variant_1 : 1208 0.294922 per_variant_size: 0 829 379 0 0 0 0 0 0 
Heartbeat_Variant_2 : 1546 0.377441 per_variant_size: 0 906 440 140 60 0 0 0 0 
Heartbeat_Variant_3 : 0 0 per_variant_size: 0 0 0 0 0 0 0 0 0 
Heartbeat_Variant_0_evicts 0 : 14185 1 : 10550 2 : 12336 3 : 0 
Heartbeat_Variant_1_evicts 0 : 10481 1 : 0 2 : 12158 3 : 0 
Heartbeat_Variant_2_evicts 0 : 12370 1 : 12129 2 : 0 3 : 0 
Heartbeat_Variant_3_evicts 0 : 0 1 : 0 2 : 0 3 : 0 
Heartbeat CPU 0 instructions: 30000003 cycles: 8395738 heartbeat IPC: 3.57363 cumulative IPC: 3.57324 (Simulation time: 0 hr 6 min 4 sec) 
Heartbeat_Variant_0 : 1042 0.254395 per_variant_size: 0 1042 0 0 0 0 0 0 0 
Heartbeat_Variant_1 : 1239 0.30249 per_variant_size: 0 863 376 0 0 0 0 0 0 
Heartbeat_Variant_2 : 1568 0.382812 per_variant_size: 0 923 445 135 65 0 0 0 0 
Heartbeat_Variant_3 : 0 0 per_variant_size: 0 0 0 0 0 0 0 0 0 
Heartbeat_Variant_0_evicts 0 : 13907 1 : 9946 2 : 12277 3 : 0 
Heartbeat_Variant_1_evicts 0 : 9985 1 : 0 2 : 11854 3 : 0 
Heartbeat_Variant_2_evicts 0 : 12291 1 : 11862 2 : 0 3 : 0 
Heartbeat_Variant_3_evicts 0 : 0 1 : 0 2 : 0 3 : 0 
Heartbeat CPU 0 instructions: 40000001 cycles: 11191378 heartbeat IPC: 3.577 cumulative IPC: 3.57418 (Simulation time: 0 hr 8 min 0 sec) 
Heartbeat_Variant_0 : 1084 0.264648 per_variant_size: 0 1084 0 0 0 0 0 0 0 
Heartbeat_Variant_1 : 1223 0.298584 per_variant_size: 0 836 387 0 0 0 0 0 0 
Heartbeat_Variant_2 : 1547 0.377686 per_variant_size: 0 898 451 134 64 0 0 0 0 
Heartbeat_Variant_3 : 0 0 per_variant_size: 0 0 0 0 0 0 0 0 0 
Heartbeat_Variant_0_evicts 0 : 14168 1 : 10004 2 : 12328 3 : 0 
Heartbeat_Variant_1_evicts 0 : 9975 1 : 0 2 : 11916 3 : 0 
Heartbeat_Variant_2_evicts 0 : 12315 1 : 11906 2 : 0 3 : 0 
Heartbeat_Variant_3_evicts 0 : 0 1 : 0 2 : 0 3 : 0 
Heartbeat CPU 0 instructions: 50000003 cycles: 13987772 heartbeat IPC: 3.57603 cumulative IPC: 3.57455 (Simulation time: 0 hr 9 min 57 sec) 

Warmup complete CPU 0 instructions: 50000003 cycles: 13987772 (Simulation time: 0 hr 9 min 57 sec) 

Cycle: 20000000 FTQ IN: 56294297 FTQ occupancy: 17.9327 DECODE IN: 56294290 DECODE occupancy: 45.7853 ROB IN: 56294290 ROB occupancy: 275.404 ROB OUT: 56294251
Heartbeat_Variant_0 : 1080 0.263672 per_variant_size: 0 1080 0 0 0 0 0 0 0 
Heartbeat_Variant_1 : 1263 0.30835 per_variant_size: 0 848 415 0 0 0 0 0 0 
Heartbeat_Variant_2 : 1555 0.379639 per_variant_size: 0 862 464 160 69 0 0 0 0 
Heartbeat_Variant_3 : 0 0 per_variant_size: 0 0 0 0 0 0 0 0 0 
Heartbeat_Variant_0_evicts 0 : 13881 1 : 10175 2 : 12294 3 : 0 
Heartbeat_Variant_1_evicts 0 : 10121 1 : 0 2 : 11795 3 : 0 
Heartbeat_Variant_2_evicts 0 : 12359 1 : 11717 2 : 0 3 : 0 
Heartbeat_Variant_3_evicts 0 : 0 1 : 0 2 : 0 3 : 0 
Heartbeat CPU 0 instructions: 60000002 cycles: 23414900 heartbeat IPC: 1.06077 cumulative IPC: 1.06077 (Simulation time: 0 hr 11 min 49 sec) 
Cycle: 30000000 FTQ IN: 10870286 FTQ occupancy: 6.24767 DECODE IN: 10870201 DECODE occupancy: 13.0441 ROB IN: 10870141 ROB occupancy: 108.86 ROB OUT: 10870098
Heartbeat_Variant_0 : 1098 0.268066 per_variant_size: 0 1098 0 0 0 0 0 0 0 
Heartbeat_Variant_1 : 1272 0.310547 per_variant_size: 0 855 417 0 0 0 0 0 0 
Heartbeat_Variant_2 : 1531 0.373779 per_variant_size: 0 831 468 163 69 0 0 0 0 
Heartbeat_Variant_3 : 0 0 per_variant_size: 0 0 0 0 0 0 0 0 0 
Heartbeat_Variant_0_evicts 0 : 13783 1 : 9748 2 : 12006 3 : 0 
Heartbeat_Variant_1_evicts 0 : 9738 1 : 0 2 : 11331 3 : 0 
Heartbeat_Variant_2_evicts 0 : 11998 1 : 11314 2 : 0 3 : 0 
Heartbeat_Variant_3_evicts 0 : 0 1 : 0 2 : 0 3 : 0 
Heartbeat CPU 0 instructions: 70000000 cycles: 32610063 heartbeat IPC: 1.08753 cumulative IPC: 1.07398 (Simulation time: 0 hr 13 min 36 sec) 
Cycle: 40000000 FTQ IN: 10670783 FTQ occupancy: 6.28717 DECODE IN: 10670850 DECODE occupancy: 12.9523 ROB IN: 10670885 ROB occupancy: 107.284 ROB OUT: 10670878
Heartbeat_Variant_0 : 1060 0.258789 per_variant_size: 0 1060 0 0 0 0 0 0 0 
Heartbeat_Variant_1 : 1274 0.311035 per_variant_size: 0 868 406 0 0 0 0 0 0 
Heartbeat_Variant_2 : 1572 0.383789 per_variant_size: 0 896 441 167 68 0 0 0 0 
Heartbeat_Variant_3 : 0 0 per_variant_size: 0 0 0 0 0 0 0 0 0 
Heartbeat_Variant_0_evicts 0 : 14039 1 : 10230 2 : 12492 3 : 0 
Heartbeat_Variant_1_evicts 0 : 10262 1 : 0 2 : 11717 3 : 0 
Heartbeat_Variant_2_evicts 0 : 12498 1 : 11749 2 : 0 3 : 0 
Heartbeat_Variant_3_evicts 0 : 0 1 : 0 2 : 0 3 : 0 
Heartbeat CPU 0 instructions: 80000000 cycles: 41996216 heartbeat IPC: 1.0654 cumulative IPC: 1.07111 (Simulation time: 0 hr 15 min 25 sec) 
Cycle: 50000000 FTQ IN: 10881909 FTQ occupancy: 6.2274 DECODE IN: 10881922 DECODE occupancy: 12.9546 ROB IN: 10881907 ROB occupancy: 107.583 ROB OUT: 10881743
Heartbeat_Variant_0 : 1081 0.263916 per_variant_size: 0 1081 0 0 0 0 0 0 0 
Heartbeat_Variant_1 : 1250 0.305176 per_variant_size: 0 835 415 0 0 0 0 0 0 
Heartbeat_Variant_2 : 1575 0.384521 per_variant_size: 0 893 455 161 66 0 0 0 0 
Heartbeat_Variant_3 : 0 0 per_variant_size: 0 0 0 0 0 0 0 0 0 
Heartbeat_Variant_0_evicts 0 : 13700 1 : 10002 2 : 12221 3 : 0 
Heartbeat_Variant_1_evicts 0 : 9909 1 : 0 2 : 12185 3 : 0 
Heartbeat_Variant_2_evicts 0 : 12293 1 : 12116 2 : 0 3 : 0 
Heartbeat_Variant_3_evicts 0 : 0 1 : 0 2 : 0 3 : 0 
Heartbeat CPU 0 instructions: 90000003 cycles: 51192929 heartbeat IPC: 1.08735 cumulative IPC: 1.07512 (Simulation time: 0 hr 17 min 2 sec) 
Cycle: 60000000 FTQ IN: 10701399 FTQ occupancy: 6.37628 DECODE IN: 10701411 DECODE occupancy: 13.2469 ROB IN: 10701451 ROB occupancy: 108.153 ROB OUT: 10701704
Heartbeat_Variant_0 : 1074 0.262207 per_variant_size: 0 1074 0 0 0 0 0 0 0 
Heartbeat_Variant_1 : 1243 0.303467 per_variant_size: 0 842 401 0 0 0 0 0 0 
Heartbeat_Variant_2 : 1591 0.388428 per_variant_size: 0 904 465 158 64 0 0 0 0 
Heartbeat_Variant_3 : 0 0 per_variant_size: 0 0 0 0 0 0 0 0 0 
Heartbeat_Variant_0_evicts 0 : 14148 1 : 9923 2 : 12027 3 : 0 
Heartbeat_Variant_1_evicts 0 : 9897 1 : 0 2 : 11462 3 : 0 
Heartbeat_Variant_2_evicts 0 : 12060 1 : 11445 2 : 0 3 : 0 
Heartbeat_Variant_3_evicts 0 : 0 1 : 0 2 : 0 3 : 0 
Heartbeat CPU 0 instructions: 100000002 cycles: 60537656 heartbeat IPC: 1.07012 cumulative IPC: 1.07412 (Simulation time: 0 hr 18 min 39 sec) 
Finished CPU 0 instructions: 50000003 cycles: 46549885 cumulative IPC: 1.07412 (Simulation time: 0 hr 18 min 39 sec) 

ChampSim completed all CPUs

Region of Interest Statistics

CPU 0 cumulative IPC: 1.07412 instructions: 50000003 cycles: 46549885
 Fetch stage stalled: 72.8943  Sim cycles: 46549885 fetch stall cycle: 33932229
 Empty decode stage: 64.2185  Sim cycles: 46549885 fetch stall cycle: 29893643
ITLB TOTAL     ACCESS:    5739191  HIT:    5245134  MISS:     494057  HIT %:    91.3915  MISS %:    8.60848   MPKI: 9.88114
ITLB LOAD TRANSLATION INSTRUCTION	ACCESS:    5637011  HIT:    5142954  MISS:     494057  HIT %:    91.2355  MISS %:    8.76452  MPKI: 9.88114
ITLB TRANSLATION FROM L1D PREFETCHER INSTRUCTION	ACCESS:     102180  HIT:     102180  MISS:          0  HIT %:        100  MISS %:          0  MPKI: 0

ITLB AVERAGE MISS LATENCY: 9.06394 cycles
ITLB RQ	ACCESS:    7534892	FORWARD:          0	MERGED:    1356101	TO_CACHE:    6178791

DTLB TOTAL     ACCESS:    9415509  HIT:    8941939  MISS:     473570  HIT %:    94.9703  MISS %:    5.02968   MPKI: 9.4714
DTLB LOAD TRANSLATION DATA	ACCESS:    9415509  HIT:    8941939  MISS:     473570  HIT %:    94.9703  MISS %:    5.02968  MPKI: 9.4714

DTLB AVERAGE MISS LATENCY: 9.34708 cycles
DTLB RQ	ACCESS:   13682926	FORWARD:          0	MERGED:    4233691	TO_CACHE:    9449235

STLB TOTAL     ACCESS:    1218385  HIT:    1216104  MISS:       2281  HIT %:    99.8128  MISS %:   0.187215   MPKI: 0.04562
STLB LOAD TRANSLATION INSTRUCTION	ACCESS:     494057  HIT:     493705  MISS:        352  HIT %:    99.9288  MISS %:  0.0712468  MPKI: 0.00704
STLB LOAD TRANSLATION DATA	ACCESS:     473264  HIT:     471358  MISS:       1906  HIT %:    99.5973  MISS %:   0.402735  MPKI: 0.03812
STLB TRANSLATION FROM L1D PREFETCHER DATA	ACCESS:     251064  HIT:     251041  MISS:         23  HIT %:    99.9908  MISS %: 0.00916101  MPKI: 0.00046

STLB AVERAGE MISS LATENCY: 75.3661 cycles
STLB RQ	ACCESS:    1338619	FORWARD:          0	MERGED:     120200	TO_CACHE:    1218419

STLB Hit, L1D data hit: 0
STLB Hit, L2C data hit: 0
STLB Hit, LLC data hit: 0
STLB Hit, LLC data miss: 0
STLB STLB hints to L2: 0
L1D TOTAL     ACCESS:   13450312  HIT:   12333645  MISS:    1116667  HIT %:    91.6978  MISS %:    8.30216   MPKI: 22.3333
L1D LOAD DATA	ACCESS:    6871632  HIT:    6136931  MISS:     734701  HIT %:    89.3082  MISS %:    10.6918  MPKI: 14.694
L1D RFO DATA	ACCESS:    6248320  HIT:    5961029  MISS:     287291  HIT %:    95.4021  MISS %:    4.59789  MPKI: 5.74582
L1D PREFETCH DATA	ACCESS:     330360  HIT:     235685  MISS:      94675  HIT %:    71.3419  MISS %:    28.6581  MPKI: 1.8935

L1D PREFETCH  REQUESTED:     742279  ISSUED:     742279  USEFUL:      34446  USELESS:      68175
L1D USEFUL LOAD PREFETCHES:      34446 PREFETCH ISSUED TO LOWER LEVEL:     102692  ACCURACY: 33.543
 TIMELY PREFETCHES:      34446 LATE PREFETCHES: 7934 DROPPED PREFETCHES: 7
L1D AVERAGE MISS LATENCY: 268416 cycles
L1D RQ	ACCESS:   10932288	FORWARD:          0	MERGED:    3865737	TO_CACHE:    6903196
L1D WQ	ACCESS:    6946346	FORWARD:     163650	MERGED:     166616	TO_CACHE:    6779730
L1D PQ	ACCESS:     371287	FORWARD:          0	MERGED:          0	TO_CACHE:     370992

L1D UNIQUE REGIONS ACCESSED: 0
L1D REGIONS CONFLICTS: 0
L1D Cross Page Prefetch Requests: 7065
L1D Same Page Prefetch Requests: 758708
L1D ROI Sum of L1D PQ occupancy: 4725180
L1D PREFETCHES PUSHED FROM L2C: 0
L1I TOTAL     ACCESS:    7022310  HIT:    4256977  MISS:    2765333  HIT %:    60.6208  MISS %:    39.3792   MPKI: 55.3067
L1I LOAD INSTRUCTION	ACCESS:    6542098  HIT:    3776765  MISS:    2765333  HIT %:    57.7302  MISS %:    42.2698  MPKI: 55.3067
L1I PREFETCH INSTRUCTION	ACCESS:     480212  HIT:     480212  MISS:          0  HIT %:        100  MISS %:          0  MPKI: 0

L1I PREFETCH  REQUESTED:    1056543  ISSUED:    1056543  USEFUL:          0  USELESS:          0
L1I USEFUL LOAD PREFETCHES:          0 PREFETCH ISSUED TO LOWER LEVEL:          0  ACCURACY: -nan
 TIMELY PREFETCHES:          0 LATE PREFETCHES: 0 DROPPED PREFETCHES: 0
L1I AVERAGE MISS LATENCY: 17.7155 cycles
L1I RQ	ACCESS:    9437001	FORWARD:          0	MERGED:    2654992	TO_CACHE:    6782009
L1I PQ	ACCESS:    1056543	FORWARD:          0	MERGED:     303660	TO_CACHE:     752883

L1BTB TOTAL     ACCESS:    5671161  HIT:    2044267  MISS:    3626894  HIT %:    36.0467  MISS %:    63.9533   MPKI: 72.5379
L1BTB BRANCH_DIRECT_JUMP	ACCESS:     549175  HIT:     144570  MISS:     404605	AVERAGE STALL: 36.4825
L1BTB BRANCH_INDIRECT	ACCESS:     183034  HIT:      66080  MISS:     116954	AVERAGE STALL: 82.4991
L1BTB BRANCH_CONDITIONAL	ACCESS:    2712158  HIT:    1419694  MISS:    1292464	AVERAGE STALL: 36.5385
L1BTB BRANCH_DIRECT_CALL	ACCESS:     942391  HIT:     104587  MISS:     837804	AVERAGE STALL: 37.3586
L1BTB BRANCH_INDIRECT_CALL	ACCESS:     171001  HIT:      20776  MISS:     150225	AVERAGE STALL: 108.461
L1BTB BRANCH_RETURN	ACCESS:    1113402  HIT:     288560  MISS:     824842	AVERAGE STALL: 37.3139
L1BTB BRANCH_OTHER ACCESS:          0  HIT:          0  MISS:          0	AVERAGE STALL: -nan
L1BTB TOTAL ROB OCCUPANCY AT BTB MISS: 12.5951

L2BTB TOTAL     ACCESS:    3601418  HIT:    3101405  MISS:     500013  HIT %:    86.1162  MISS %:    13.8838   MPKI: 10.0003
L2BTB BRANCH_DIRECT_JUMP	ACCESS:     400416  HIT:     348784  MISS:      51632	AVERAGE STALL: 36.4825
L2BTB BRANCH_INDIRECT	ACCESS:     106646  HIT:      97767  MISS:       8879	AVERAGE STALL: 82.4991
L2BTB BRANCH_CONDITIONAL	ACCESS:    1292463  HIT:    1148282  MISS:     144181	AVERAGE STALL: 36.5385
L2BTB BRANCH_DIRECT_CALL	ACCESS:     837804  HIT:     676248  MISS:     161556	AVERAGE STALL: 37.3586
L2BTB BRANCH_INDIRECT_CALL	ACCESS:     140658  HIT:     106205  MISS:      34453	AVERAGE STALL: 108.461
L2BTB BRANCH_RETURN	ACCESS:     823431  HIT:     724119  MISS:      99312	AVERAGE STALL: 37.3139
L2BTB BRANCH_OTHER ACCESS:          0  HIT:          0  MISS:          0	AVERAGE STALL: -nan
L2BTB TOTAL ROB OCCUPANCY AT BTB MISS: 91.36

L2C TOTAL     ACCESS:    4494845  HIT:    3944285  MISS:     550560  HIT %:    87.7513  MISS %:    12.2487   MPKI: 11.0112
L2C LOAD INSTRUCTION	ACCESS:    2765333  HIT:    2457879  MISS:     307454  HIT %:    88.8818  MISS %:    11.1182  MPKI: 6.14908
L2C LOAD TRANSLATION INSTRUCTION	ACCESS:        411  HIT:        111  MISS:        300  HIT %:    27.0073  MISS %:    72.9927  MPKI: 0.006
L2C LOAD DATA	ACCESS:     726730  HIT:     645387  MISS:      81343  HIT %:     88.807  MISS %:     11.193  MPKI: 1.62686
L2C RFO DATA	ACCESS:     287182  HIT:     223690  MISS:      63492  HIT %:    77.8914  MISS %:    22.1086  MPKI: 1.26984
L2C PREFETCH DATA	ACCESS:     190039  HIT:     113042  MISS:      76997  HIT %:    59.4836  MISS %:    40.5164  MPKI: 1.53994
L2C WRITEBACK DATA	ACCESS:     523092  HIT:     503504  MISS:      19588  HIT %:    96.2553  MISS %:    3.74466  MPKI: 0.39176
L2C LOAD TRANSLATION DATA	ACCESS:       2018  HIT:        646  MISS:       1372  HIT %:    32.0119  MISS %:    67.9881  MPKI: 0.02744
L2C TRANSLATION FROM L1D PREFETCHER DATA	ACCESS:         40  HIT:         26  MISS:         14  HIT %:         65  MISS %:         35  MPKI: 0.00028

L2C PREFETCH  REQUESTED:      95902  ISSUED:      95902  USEFUL:       9171  USELESS:      68476
L2C USEFUL LOAD PREFETCHES:       9171 PREFETCH ISSUED TO LOWER LEVEL:      77677  ACCURACY: 11.8066
 TIMELY PREFETCHES:       9171 LATE PREFETCHES: 680 DROPPED PREFETCHES: 0
L2C AVERAGE MISS LATENCY: 37.8785 cycles
L2C RQ	ACCESS:    3781778	FORWARD:          0	MERGED:          0	TO_CACHE:    3781715
L2C WQ	ACCESS:     523092	FORWARD:         63	MERGED:          0	TO_CACHE:     523092
L2C PQ	ACCESS:     198594	FORWARD:          0	MERGED:       3703	TO_CACHE:     194891

L2C Dense regions hint from L2: 0
PSCL5 TOTAL     ACCESS:       4582  HIT:       2291  MISS:       2291  HIT %:         50  MISS %:         50   MPKI: 0.04582
PSCL5 LOAD TRANSLATION INSTRUCTION	ACCESS:       4502  HIT:       2251  MISS:       2251  HIT %:         50  MISS %:         50  MPKI: 0.04502
PSCL5 TRANSLATION FROM L1D PREFETCHER INSTRUCTION	ACCESS:         80  HIT:         40  MISS:         40  HIT %:         50  MISS %:         50  MPKI: 0.0008


PSCL4 TOTAL     ACCESS:       4251  HIT:       2118  MISS:       2133  HIT %:    49.8236  MISS %:    50.1764   MPKI: 0.04266
PSCL4 LOAD TRANSLATION INSTRUCTION	ACCESS:       2921  HIT:       2080  MISS:        841  HIT %:    71.2085  MISS %:    28.7915  MPKI: 0.01682
PSCL4 TRANSLATION FROM L1D PREFETCHER INSTRUCTION	ACCESS:         52  HIT:         38  MISS:         14  HIT %:    73.0769  MISS %:    26.9231  MPKI: 0.00028
PSCL4 LOAD TRANSLATION DATA	ACCESS:       1254  HIT:          0  MISS:       1254  HIT %:          0  MISS %:        100  MPKI: 0.02508
PSCL4 TRANSLATION FROM L1D PREFETCHER DATA	ACCESS:         24  HIT:          0  MISS:         24  HIT %:          0  MISS %:        100  MPKI: 0.00048


PSCL3 TOTAL     ACCESS:       4359  HIT:       2172  MISS:       2187  HIT %:    49.8279  MISS %:    50.1721   MPKI: 0.04374
PSCL3 LOAD TRANSLATION INSTRUCTION	ACCESS:       2975  HIT:       2134  MISS:        841  HIT %:    71.7311  MISS %:    28.2689  MPKI: 0.01682
PSCL3 TRANSLATION FROM L1D PREFETCHER INSTRUCTION	ACCESS:         52  HIT:         38  MISS:         14  HIT %:    73.0769  MISS %:    26.9231  MPKI: 0.00028
PSCL3 LOAD TRANSLATION DATA	ACCESS:       1308  HIT:          0  MISS:       1308  HIT %:          0  MISS %:        100  MPKI: 0.02616
PSCL3 TRANSLATION FROM L1D PREFETCHER DATA	ACCESS:         24  HIT:          0  MISS:         24  HIT %:          0  MISS %:        100  MPKI: 0.00048


PSCL2 TOTAL     ACCESS:       4429  HIT:       2138  MISS:       2291  HIT %:    48.2727  MISS %:    51.7273   MPKI: 0.04582
PSCL2 LOAD TRANSLATION INSTRUCTION	ACCESS:       2469  HIT:       2098  MISS:        371  HIT %:    84.9737  MISS %:    15.0263  MPKI: 0.00742
PSCL2 TRANSLATION FROM L1D PREFETCHER INSTRUCTION	ACCESS:         40  HIT:         40  MISS:          0  HIT %:        100  MISS %:          0  MPKI: 0
PSCL2 LOAD TRANSLATION DATA	ACCESS:       1880  HIT:          0  MISS:       1880  HIT %:          0  MISS %:        100  MPKI: 0.0376
PSCL2 TRANSLATION FROM L1D PREFETCHER DATA	ACCESS:         40  HIT:          0  MISS:         40  HIT %:          0  MISS %:        100  MPKI: 0.0008


LLC TOTAL     ACCESS:     619918  HIT:     589323  MISS:      30595  HIT %:    95.0647  MISS %:    4.93533   MPKI: 0.6119
LLC LOAD INSTRUCTION	ACCESS:     307454  HIT:     306235  MISS:       1219  HIT %:    99.6035  MISS %:   0.396482  MPKI: 0.02438
LLC LOAD TRANSLATION INSTRUCTION	ACCESS:        300  HIT:        248  MISS:         52  HIT %:    82.6667  MISS %:    17.3333  MPKI: 0.00104
LLC LOAD DATA	ACCESS:      80676  HIT:      76802  MISS:       3874  HIT %:    95.1981  MISS %:    4.80192  MPKI: 0.07748
LLC RFO DATA	ACCESS:      63470  HIT:      48954  MISS:      14516  HIT %:    77.1294  MISS %:    22.8706  MPKI: 0.29032
LLC PREFETCH DATA	ACCESS:      77675  HIT:      67201  MISS:      10474  HIT %:    86.5156  MISS %:    13.4844  MPKI: 0.20948
LLC WRITEBACK DATA	ACCESS:      88957  HIT:      88602  MISS:        355  HIT %:    99.6009  MISS %:   0.399069  MPKI: 0.0071
LLC LOAD TRANSLATION DATA	ACCESS:       1372  HIT:       1267  MISS:        105  HIT %:    92.3469  MISS %:    7.65306  MPKI: 0.0021
LLC TRANSLATION FROM L1D PREFETCHER DATA	ACCESS:         14  HIT:         14  MISS:          0  HIT %:        100  MISS %:          0  MPKI: 0

LLC AVERAGE MISS LATENCY: 159.6 cycles
LLC RQ	ACCESS:     453295	FORWARD:          0	MERGED:          0	TO_CACHE:     453286
LLC WQ	ACCESS:      88957	FORWARD:         11	MERGED:          0	TO_CACHE:      88957
LLC PQ	ACCESS:      77677	FORWARD:          0	MERGED:          0	TO_CACHE:      77675

LLC Dense regions hint to LLC: 0

RAW hits: 1703907
Loads Generated: 12636195
Loads sent to L1D: 10932288
Stores Generated: 6946326
Stores sent to L1D: 6946346
Major fault: 0 Minor fault: 2667
Allocated PAGES: 2667

stream: 
stream:times selected: 1205602
stream:pref_filled: 120659
stream:pref_useful: 24137
stream:pref_late: 6829
stream:misses: 8149
stream:misses_by_poll: 0

CS: 
CS:times selected: 182158
CS:pref_filled: 61222
CS:pref_useful: 37698
CS:pref_late: 6737
CS:misses: 15773
CS:misses_by_poll: 8

CPLX: 
CPLX:times selected: 1022237
CPLX:pref_filled: 19563
CPLX:pref_useful: 4513
CPLX:pref_late: 3101
CPLX:misses: 92463
CPLX:misses_by_poll: 0

NL_L1: 
NL:times selected: 21725
NL:pref_filled: 776
NL:pref_useful: 363
NL:pref_late: 254
NL:misses: 1691
NL:misses_by_poll: 0

total selections: 2431722
total_filled: 94675
total_useful: 34446
total_late: 18228
total_polluted: 8
total_misses_after_warmup: 766265
conflicts: 5651447

test: 119918

DRAM Statistics
 CHANNEL 0
 RQ ROW_BUFFER_HIT:      10938  ROW_BUFFER_MISS:      19278
 DBUS_CONGESTED:         11
 WQ ROW_BUFFER_HIT:       1614  ROW_BUFFER_MISS:      13572  FULL:          0

 AVG_CONGESTED_CYCLE: 3

CPU 0 Branch Prediction Accuracy: 99.805% MPKI: 0.35662 Average ROB Occupancy at Mispredict: 114.144
Branch types
NOT_BRANCH: 40855533 81.7111%
BRANCH_DIRECT_JUMP: 549175 1.09835%
BRANCH_INDIRECT: 183034 0.366068%
BRANCH_CONDITIONAL: 6185114 12.3702%
BRANCH_DIRECT_CALL: 942391 1.88478%
BRANCH_INDIRECT_CALL: 171001 0.342002%
BRANCH_RETURN: 1113402 2.2268%
BRANCH_OTHER: 0 0%

DRAM PAGES: 1048576
Allocated PAGES: 2667
Average_ROB_Occupancy: 108.533
Average_Decode_Occupancy: 12.9786
Average_FTQ_Occupancy: 6.26032
Indirect max targets: 14 Average targets: 1.17516
Branch_type:  BRANCH_DIRECT_JUMP:  Count Percentage: 3.35056 5.84879 5.02866 2.13299 8.64462 6.0087 1.68047 67.3052 
Branch_type:  BRANCH_INDIRECT:  Count Percentage: 11.7222 3.48802 2.64166 13.42 3.32718 2.79107 2.1167 60.4932 
Branch_type:  BRANCH_CONDITIONAL:  Count Percentage: 25.9647 2.44914 2.20223 3.66506 2.87948 4.62201 0.982262 57.2351 
Branch_type:  BRANCH_DIRECT_CALL:  Count Percentage: 0.857937 1.24836 0.787887 2.12694 4.44648 2.63484 1.49473 86.4028 
Branch_type:  BRANCH_INDIRECT_CALL:  Count Percentage: 9.54915 0 2.99067 0.000881596 0 1.71177 1.00443 84.7431 
Branch_type:  BRANCH_RETURN:  Count Percentage: 8.28347 1.25487 2.19604 2.99828 2.83688 5.08965 1.08642 76.2544 
Branch_type:  BRANCH_DIRECT_JUMP:  Total Count: 36814 64263 55252 23436 94982 66020 18464 739510 
Branch_type:  BRANCH_INDIRECT:  Total Count: 43074 12817 9707 49313 12226 10256 7778 222287 
Branch_type:  BRANCH_CONDITIONAL:  Total Count: 3211793 302954 272412 453361 356186 571735 121504 7079877 
Branch_type:  BRANCH_DIRECT_CALL:  Total Count: 16081 23399 14768 39867 83344 49387 28017 1619518 
Branch_type:  BRANCH_INDIRECT_CALL:  Total Count: 32495 0 10177 3 0 5825 3418 288374 
Branch_type:  BRANCH_RETURN:  Total Count: 183523 27802 48654 66428 62852 112763 24070 1689442 
Number of unique branch instructions: 10706
Upper 32 bits: 
aaaa
ffff
ffff0000
Unique upper 32 bits: 3
Unique upper 36 bits: 3
Unique upper 40 bits: 5
Unique upper 44 bits: 32
Unique upper 48 bits: 158
Variant_0 : 1074 0.262207
Variant_1 : 1243 0.303467
Variant_2 : 1591 0.388428
Variant_3 : 0 0
Offset_3 4437
Offset_4 263
Offset_5 481
Offset_6 539
Offset_7 634
Offset_8 582
Offset_9 509
Offset_10 419
Offset_11 347
Offset_12 310
Offset_13 238
Offset_14 246
Offset_15 194
Offset_16 226
Offset_17 166
Offset_18 144
Offset_19 260
Offset_20 141
Offset_21 235
Offset_22 409
Offset_23 245
Offset_24 344
Offset_25 117
Offset_47 94
Offset_64 5
decode_dispatch_called: 20240623 43.4816
Dispatch_width: 0 10238393 50.5834 21.9945
Dispatch_width: 1 535420 2.64527 1.15021
Dispatch_width: 2 681118 3.3651 1.4632
Dispatch_width: 3 459404 2.26971 0.986907
Dispatch_width: 4 1440378 7.11627 3.09427
Dispatch_width: 5 353080 1.74441 0.758498
Dispatch_width: 6 6532830 32.2758 14.034
Empty_decode_cycles: 26309262 56.5184
ROB_full_cycles: 1825562 3.92173
Starvation_cycles_per_kilo_instr: 381.915
Starvation_cycles_per_kilo_instr_3: 363.98
Starvation_cycles_per_kilo_instr_0: 347.221
Branch_type_1  (3,1)  (4,9)  (5,39)  (6,71)  (7,123)  (8,154)  (9,136)  (10,110)  (11,78)  (12,47)  (13,11)  (14,2)  (15,3)  (16,4)  (18,1)  (19,5)  (20,2)  (21,1)  (22,3)  (23,2)  (24,10)  (25,12)  (64,1) 
Branch_type_2  (3,1)  (4,1)  (5,1)  (8,4)  (9,4)  (10,1)  (12,1)  (13,1)  (14,1)  (16,3)  (17,2)  (20,2)  (21,2)  (23,5)  (24,1)  (47,42) 
Branch_type_3  (3,4435)  (4,253)  (5,437)  (6,451)  (7,480)  (8,355)  (9,275)  (10,170)  (11,133)  (12,54)  (13,10)  (64,2) 
Branch_type_4  (6,3)  (7,8)  (8,29)  (9,55)  (10,66)  (11,70)  (12,116)  (13,101)  (14,110)  (15,92)  (16,99)  (17,77)  (18,61)  (19,127)  (20,72)  (21,124)  (22,215)  (23,138)  (24,199)  (25,101)  (64,1) 
Branch_type_5  (8,3)  (9,1)  (10,4)  (11,5)  (12,3)  (13,14)  (14,16)  (15,11)  (16,22)  (17,11)  (18,23)  (19,14)  (20,11)  (21,13)  (22,43)  (23,26)  (24,38) 
Branch_type_6  (5,4)  (6,14)  (7,23)  (8,37)  (9,38)  (10,68)  (11,61)  (12,89)  (13,101)  (14,117)  (15,88)  (16,98)  (17,76)  (18,59)  (19,114)  (20,54)  (21,95)  (22,148)  (23,74)  (24,96)  (25,4)  (47,52)  (64,1) 
Unique trigger count: 
Variant_0_evicts_0 : 0
Variant_0_evicts_1 : 0
Variant_0_evicts_2 : 0
Variant_0_evicts_3 : 0
Variant_1_evicts_0 : 0
Variant_1_evicts_1 : 0
Variant_1_evicts_2 : 0
Variant_1_evicts_3 : 0
Variant_2_evicts_0 : 0
Variant_2_evicts_1 : 0
Variant_2_evicts_2 : 0
Variant_2_evicts_3 : 0
Variant_3_evicts_0 : 0
Variant_3_evicts_1 : 0
Variant_3_evicts_2 : 0
Variant_3_evicts_3 : 0
BTB PER SET UNIQUE ADDR: 2 7 3 8 5 6 7 6 2 6 5 4 2 5 9 8 4 4 5 2 4 9 7 9 4 6 4 3 6 9 7 5 3 6 5 9 5 3 5 9 6 8 4 4 7 6 5 4 7 8 9 5 6 6 2 8 5 3 7 6 6 8 4 8 8 3 5 4 4 8 7 5 5 6 7 9 4 5 6 7 9 7 6 11 7 5 6 3 5 8 7 10 7 8 4 2 5 3 4 6 5 4 4 6 4 6 4 6 6 10 8 1 3 9 2 7 5 7 4 11 5 4 5 4 9 8 4 6 6 2 3 7 4 5 7 6 5 2 7 7 3 5 10 7 5 9 5 5 6 8 3 1 3 10 2 6 6 3 7 6 2 6 4 6 9 2 1 4 9 9 6 6 5 4 4 6 5 7 6 7 5 5 5 9 5 5 4 4 5 5 6 3 7 5 3 8 6 6 6 4 6 7 3 5 1 9 4 4 7 5 2 2 8 6 5 5 8 5 4 5 5 8 6 7 6 10 8 5 9 9 3 6 6 12 4 7 5 7 6 6 6 7 6 5 6 4 4 4 5 7 4 9 4 3 5 6 3 5 8 1 10 8 7 4 3 4 6 5 8 6 7 8 8 5 6 5 6 2 6 10 10 4 4 9 4 5 12 5 9 4 3 2 10 7 8 5 5 3 8 4 13 3 5 10 4 3 8 8 6 2 7 3 8 8 5 5 4 7 6 3 11 9 3 5 9 7 3 5 3 9 4 10 3 5 4 5 7 9 5 6 2 6 6 3 5 6 4 8 1 4 6 8 5 2 7 4 4 6 5 4 11 6 5 7 7 10 6 7 4 3 9 6 9 5 6 5 7 5 5 2 5 6 5 4 8 4 4 6 3 5 5 2 4 6 3 4 6 3 5 3 7 7 6 4 4 10 11 5 10 1 6 4 1 5 6 2 8 4 4 6 8 2 4 4 7 4 6 8 6 7 9 3 3 4 8 1 4 2 2 4 9 5 3 2 4 1 3 5 6 4 9 2 6 4 5 2 6 4 12 5 5 6 4 12 3 9 4 6 2 6 5 8 2 6 4 8 5 2 4 8 5 2 6 5 5 5 4 5 7 7 9 4 6 6 7 4 7 6 3 8 3 3 3 4 5 6 6 6 2 5 6 3 5 3 5 5 10 6 7 5 7 6 9 5 5 12 2 4 6 3 10 7 4 5 1 6 9 10 4 6 3 9 14 12 6 4 7 10 6 3 4 8 3 5 6 7 7 1 7 4 3 2 5 8 7 3 4 4 10 4 5 4 1 7 2 7 11 2 6 4 2 9 2 9 4 4 3 1 6 8 8 6 6 8 3 7 14 9 5 5 11 2 4 2 6 11 8 2 4 4 5 3 5 6 1 6 9 4 9 8 5 5 6 1 7 6 3 6 4 5 6 7 4 5 6 6 3 9 6 12 3 5 4 2 3 6 7 6 4 5 5 4 5 9 5 7 6 4 3 5 4 6 6 10 4 5 3 9 8 5 8 6 7 5 9 4 4 7 5 8 7 9 3 9 9 9 5 7 9 3 7 3 4 7 5 11 5 8 4 10 6 6 4 4 11 4 2 8 7 8 5 3 2 8 4 5 7 7 5 3 7 6 3 8 6 10 9 8 5 8 4 5 9 6 5 3 6 6 4 11 5 10 6 6 5 3 7 4 6 5 6 4 5 5 8 9 10 1 4 8 7 5 5 6 11 8 8 13 6 8 6 5 1 6 9 6 5 8 5 7 7 6 4 6 10 5 5 7 6 10 6 4 4 7 8 6 8 3 5 4 5 6 7 4 7 3 7 3 6 4 6 3 0 6 9 6 10 4 8 4 8 5 5 4 5 6 6 6 11 4 7 6 4 7 5 6 7 5 2 5 1 10 5 5 5 4 4 6 3 5 4 7 5 4 6 6 11 7 4 4 2 6 4 8 6 8 8 6 5 6 4 3 5 3 2 4 5 7 1 6 6 6 6 6 6 7 9 10 3 0 11 3 4 3 7 8 4 8 6 2 8 4 8 5 5 2 6 5 6 12 9 3 5 7 9 10 5 9 9 5 8 1 5 9 3 5 6 7 7 4 4 6 8 5 6 8 3 5 2 8 7 4 4 3 5 5 3 3 5 6 9 8 6 2 11 5 10 6 4 3 4 3 7 4 5 4 7 6 3 3 5 3 5 6 2 4 3 10 7 7 4 6 7 6 9 4 3 5 7 3 3 5 7 11 7 3 5 5 4 3 7 5 7 4 3 4 6 10 4 4 4 9 10 5 7 3 7 7 3 4 5 3 5 8 7 4 6 6 4 5 6 4 6 5 5 7 8 6 2 4 6 5 6 7 7 5 4 7 3 4 5 6 6 4 4 7 11 8 4 3 3 7 4 5 4 8 9 6 10 8 2 5 2 8 9 4 7 7 6 3 8 1 4 5 6 6 4 3 3 10 8 9 6 5 6 4 5 3 4 3 5 12 7 10 3 6 3 6 3 2 6 7 4 5 9 4 7 7 6 6 6 6 3 8 3 8 6 7 4 3 6 6 8 3 6 4 6 6 3 5 8 11 7 3 5 7 3 6 5 5 5 6 1 5 3 3 6 8 7 6 4 2 9 4 2 4 6 8 6 8 10 6 6 4 4 10 4 6 4 6 10 3 12 4 4 4 8 3 6 8 10 9 5 2 8 4 8 5 4 4 6 3 3 3 7 8 5 3 9 5 5 4 6 7 1 6 9 3 8 6 9 2 6 5 5 8 7 5 6 6 3 3 5 3 8 5 4 6 3 3 6 5 6 5 7 6 7 6 2 6 5 9 3 4 6 2 3 3 2 6 3 4 5 4 5 3 7 7 4 9 6 4 10 3 4 7 6 9 7 4 8 4 8 8 6 4 5 7 12 9 7 5 7 11 5 5 7 4 5 6 2 5 5 9 8 6 8 8 8 9 14 6 5 7 11 7 5 5 5 4 3 6 6 7 6 4 5 4 9 12 5 5 4 7 8 4 7 7 6 7 5 7 7 6 9 11 4 6 9 5 5 4 4 7 5 2 8 3 4 6 4 9 8 9 6 3 4 6 6 7 3 5 5 14 10 8 5 5 2 5 2 5 3 6 4 4 6 6 6 2 2 6 9 8 2 6 6 6 5 4 7 5 9 3 3 4 9 7 5 6 2 6 8 10 10 8 4 3 3 6 8 6 5 9 8 10 7 4 3 6 8 3 6 5 10 6 6 8 6 3 7 7 6 4 4 5 9 4 7 4 3 6 3 6 6 6 4 5 10 6 7 4 4 7 11 7 5 6 4 9 7 4 7 1 5 4 7 5 5 11 4 9 5 7 7 4 6 5 7 5 6 5 5 9 5 10 6 5 7 2 7 5 9 8 8 8 10 5 9 3 5 6 9 4 5 6 8 8 7 11 9 2 7 7 7 4 12 6 6 4 4 5 5 5 5 8 6 6 1 7 4 4 7 7 7 7 4 8 3 2 5 6 5 5 3 7 3 7 5 4 4 8 6 5 4 4 5 7 6 8 8 5 5 4 3 6 5 8 8 2 5 7 4 6 4 6 8 5 4 7 6 5 5 5 6 3 3 6 4 6 6 5 6 6 4 5 11 7 9 7 4 7 8 5 3 7 4 5 9 4 3 11 9 8 5 8 3 2 3 4 4 7 8 5 8 5 8 4 5 5 5 7 12 2 7 7 8 5 4 7 12 5 4 7 6 4 5 4 6 4 4 6 4 6 7 4 4 4 3 2 6 4 3 3 7 6 1 5 5 3 7 4 6 2 1 5 6 8 13 3 3 8 3 4 4 4 3 6 4 4 2 5 5 2 4 8 9 4 4 5 2 2 8 6 5 3 4 6 4 6 2 4 3 9 8 5 8 4 4 3 5 5 5 6 4 7 4 5 6 8 5 4 8 4 4 6 4 9 6 5 8 3 3 3 5 6 1 2 4 4 8 9 3 9 5 7 6 6 7 4 3 4 8 10 1 8 4 9 6 10 5 9 3 6 10 7 6 6 3 5 3 7 3 6 4 6 9 5 4 7 5 5 3 4 3 3 6 2 7 3 8 5 7 2 5 4 4 7 3 6 4 4 6 7 7 7 7 4 6 3 6 8 4 3 6 5 6 4 7 8 4 4 3 3 6 6 6 6 5 7 3 4 5 9 6 3 3 8 7 5 1 4 6 4 6 7 2 6 4 3 3 8 3 7 5 4 4 9 5 10 4 5 3 5 6 9 6 7 3 3 3 3 3 5 4 10 1 5 2 5 3 4 3 6 4 6 3 1 3 8 3 6 6 4 4 7 7 4 4 6 7 7 7 3 5 11 2 5 13 5 1 1 9 11 2 7 8 9 6 6 6 4 11 7 7 8 5 1 5 3 5 9 4 8 8 9 4 4 3 7 3 8 5 7 9 9 6 6 8 9 7 4 5 7 6 6 5 7 3 11 5 7 5 12 9 3 5 9 3 5 5 4 4 3 8 8 3 6 4 6 2 4 6 7 4 4 2 3 6 5 1 4 6 9 4 4 5 8 8 8 4 10 7 4 4 10 5 5 8 3 3 12 4 4 7 5 4 15 5 10 3 7 4 5 3 5 6 7 
BTB PER SET COUNT: 2 1841 851 1054 880 312 515 998 2 911 935 378 2 792 1123 204 772 227 1267 5 496 1579 1123 544 549 585 348 324 621 775 787 89 176 1146 451 783 742 188 405 1651 99 1583 16 10 1611 866 202 209 200 1012 1791 550 1109 12 2 872 1028 1223 720 55 1096 936 265 351 169 5 271 283 6 1230 690 290 237 616 548 1530 5 1074 1247 240 748 463 247 1600 794 171 1063 3 758 1762 991 989 1119 1289 6 71 254 4 291 644 651 4 374 173 75 219 45 561 735 924 403 1 197 1389 4 263 456 29 533 2889 357 535 1833 290 165 1136 11 480 873 2 33 504 4 360 570 660 314 129 1004 1082 8 687 1633 589 8 437 7 485 404 991 279 458 4 893 2 1789 219 779 554 305 2 496 5 505 811 77 1 4 282 809 191 775 348 213 378 392 113 243 54 852 105 738 230 710 604 458 5 12 13 151 42 3 963 695 3 414 186 690 1354 5 485 508 147 228 1 1005 4 565 683 6 6 4 962 781 294 472 1002 267 320 214 172 981 305 1287 2051 1347 222 164 379 1660 355 160 266 5625 293 682 9 434 521 940 713 119 676 239 418 410 168 691 312 452 4 692 5 235 517 122 228 389 424 1 448 521 485 288 155 600 33 567 846 245 472 603 135 628 638 903 189 310 673 670 591 6 427 1117 7 621 2066 427 646 11 6 2 1401 634 897 248 15 41 469 248 1106 201 1409 801 229 4 676 34 489 3 226 4 831 287 5 400 7 807 355 8 654 462 244 356 1373 425 361 210 4 415 4 1843 137 837 209 245 858 326 243 716 3 410 386 3 741 265 4 891 1 282 371 262 439 2 739 8 300 530 823 193 1826 333 463 1116 413 3081 920 1390 4 3 677 545 3111 11 457 305 646 530 351 2 163 1061 77 542 1038 272 23 486 117 209 345 2 710 333 111 5 1678 5 525 71 626 681 333 279 388 1406 2628 762 937 1 289 387 1 603 940 205 444 420 295 760 440 2 4 618 964 775 510 742 1253 572 1665 34 3 445 939 1 402 4 2 121 2044 385 3 15 457 1 1459 25 756 458 1824 331 391 317 571 2 687 8 1622 227 1251 389 34 1067 10 1184 345 114 2 595 497 1060 2 439 937 204 162 3 360 640 107 2 235 511 12 477 141 377 238 903 505 444 133 642 867 945 906 495 88 808 3 204 3 356 6 452 237 124 2 42 1095 265 1141 1125 5 490 932 1490 1142 674 429 618 1492 12 587 2058 58 7 314 4 2345 817 177 50 2 139 553 648 625 288 256 596 1399 1753 545 1095 1158 1744 706 105 7 1331 1025 656 478 647 1177 1 268 106 953 7921 513 823 531 4 1145 166 2103 526 243 389 1 1300 3 1108 1409 5 490 232 3 685 2 950 4 286 208 1 8 2193 739 600 827 1230 250 1750 1108 879 362 297 928 2 564 128 218 898 1338 2 202 244 415 126 1113 273 1 246 1206 366 10730 892 320 322 470 3 770 306 530 217 448 399 618 1019 114 816 595 755 6 1115 531 2456 3 388 459 3 4 1144 253 216 171 837 675 358 169 852 156 406 422 306 3 46 440 536 465 136 257 815 3 1860 925 1040 524 448 761 253 1067 441 442 1483 321 999 1138 770 108 1512 612 1124 345 1208 156 177 590 3 359 990 216 1411 147 1804 305 1680 648 1424 9 9 1288 151 4 523 1461 688 319 3 213 848 115 1029 519 531 400 181 414 635 733 903 451 1270 991 846 1091 804 328 383 831 361 15 5 6 588 227 2506 9 2277 214 373 215 15 353 167 11 664 561 309 256 346 276 706 715 1 5 723 556 326 285 187 182 380 715 2228 639 17 214 408 3 314 788 1215 392 730 367 627 843 124 160 244 830 7 749 633 251 1235 625 492 874 14 120 915 243 223 240 165 226 35 615 793 347 3 141 3 292 149 395 3 0 194 1180 590 2047 413 903 72 848 369 251 279 490 1156 437 565 1750 390 697 476 156 807 28 98 1393 176 2 432 9 1669 525 671 502 9 175 877 8 900 6 432 36 229 746 45 890 186 187 10 49 508 87 497 517 281 1547 271 855 143 783 272 407 4 2 49 1328 1105 1 1070 481 1108 568 173 17 698 283 1751 22 0 1778 32 87 4 24 738 671 1023 883 216 970 190 701 915 177 118 114 131 463 1163 753 264 538 745 795 1105 254 699 1699 946 1735 1 89 561 228 9 1463 386 297 380 8 935 1428 396 294 494 212 208 71 1115 916 34 5 4 1124 235 3 41 292 10 1385 1107 496 3 2476 523 1436 9 1889 243 610 153 777 456 289 23 602 498 3 263 6 5 266 1136 4 79 66 1281 625 439 385 222 927 16 862 137 3 912 12 207 5 453 868 1099 445 10 265 1713 4 8 569 344 681 1446 287 9 416 1326 1080 515 23 749 1195 320 573 129 197 1204 5 37 405 313 522 189 636 260 854 710 8 204 839 4 1004 596 679 898 604 408 1453 149 461 695 36 493 416 888 531 63 116 4 420 257 292 114 363 18 1025 1847 290 3 4 700 483 805 537 611 905 699 586 629 2 463 2 1244 974 257 260 808 198 7 1208 1 250 335 337 333 17 43 61 664 1001 1096 608 7 463 535 239 4 279 3 437 2040 644 1652 381 980 10 215 8 172 184 771 351 1301 836 7 64 683 15 290 440 9 471 77 3 874 501 467 5 6 167 588 547 6 480 209 241 766 4 324 1005 11334 1324 257 793 32 11 667 48 435 65 486 1 221 3 943 147 1249 1416 179 54 2 765 250 399 17 213 590 161 787 946 51 434 402 64 1499 12 90 502 702 971 50 1403 413 303 263 257 293 1026 771 1245 622 220 2 1852 195 1055 473 689 216 584 62 11 6 739 763 1166 3 1047 381 668 4 313 1586 1 227 921 112 772 270 771 5 583 37 435 821 675 198 447 161 3 74 469 3 1297 257 13 516 148 3 403 415 40 262 296 280 29 162 86 395 327 785 3 267 541 2 3 121 2 14 3 232 5 4 694 3 528 230 239 713 444 259 1131 4 194 458 275 1231 711 321 1331 33 212 639 264 459 133 1410 2014 1387 51 783 254 1488 361 631 874 332 331 819 3 322 322 502 1003 438 604 1135 871 1074 875 165 28 417 843 838 66 142 472 207 5 391 13 496 51 14 127 1497 414 1942 438 437 5 674 532 148 317 1057 533 421 635 690 224 423 989 1101 113 445 1181 614 2383 7 314 215 16 2 880 5 6 390 448 665 906 593 60 5 324 244 229 711 3 193 287 1906 1281 522 436 189 2 709 2 649 316 244 233 259 7 283 343 230 2 171 488 432 2 324 608 29 11 4 949 261 438 91 5 376 1015 242 171 538 2 469 935 64 1319 1093 276 236 114 960 1489 497 449 681 357 997 386 55 252 1976 1572 14 514 1786 1179 1038 1014 618 831 56 464 1377 93 110 341 6 878 5 443 7 3 309 5 788 369 9 4 597 909 313 427 7 65 372 1329 429 235 13 5 1659 150 227 1112 1 7 14 335 284 688 1554 158 754 509 528 647 804 28 180 10 253 508 248 306 572 415 1894 752 201 454 2 968 606 517 267 1562 812 1101 136 851 103 379 529 2012 299 9 950 91 736 943 1882 1331 3 98 1010 495 718 1308 573 1203 21 474 65 767 163 150 894 241 638 1 887 5 6 155 191 11 332 480 829 157 118 1003 412 257 26 131 369 5 407 86 1169 784 859 347 418 426 177 3932 910 456 448 939 9 68 320 3 660 387 1222 235 1414 472 418 81 631 5 393 962 17 181 443 218 288 5 525 468 110 186 673 156 477 232 406 386 654 660 503 993 167 1375 457 7 704 1133 277 210 244 7 694 824 4 257 795 717 965 148 810 146 2 3 193 366 550 1532 144 763 667 1264 29 338 5 7 837 505 127 778 805 496 499 6 810 634 264 585 214 61 199 564 668 693 812 494 392 9 171 440 4 768 482 3 284 215 231 3 23 361 449 1 577 5 330 306 6 263 2 1 145 241 495 3022 122 541 898 3 253 327 7 5 357 571 190 57 395 147 2 14 1070 998 179 9 39 2 150 623 486 454 234 4 351 396 446 5 322 15 1979 271 443 449 478 193 364 288 92 61 195 228 643 385 5 651 559 213 48 882 8 136 746 562 1207 284 513 712 4 3 11 82 616 1 3 9 695 597 1151 3 1030 294 556 829 713 1568 332 5 4 374 1425 1 364 75 890 190 2000 449 744 4 706 2590 577 268 276 3 1098 3 890 5 400 406 529 468 51 10 570 326 353 3 4 9 4 360 2 811 5 681 542 449 3 220 4 12 379 159 1042 129 400 491 962 245 783 972 158 490 78 281 1348 9 732 220 6 376 739 532 1320 338 450 266 342 426 1195 843 657 18 1389 9 417 357 737 14 10 242 870 1821 484 1 97 850 285 352 725 2 912 10738 259 133 1395 265 1260 632 5 368 1392 740 1617 594 495 381 13 590 1363 599 631 54 285 13 3 4 988 11 1126 1 470 704 253 3 308 328 160 217 426 5 1 3 1197 4 94 655 615 78 1228 454 78 186 1197 196 346 904 3 437 1171 2 694 1377 84 1 1 670 763 4 428 666 1334 75 329 537 378 566 50 1215 448 163 1 520 324 362 1106 260 681 1378 276 291 107 5 886 246 683 833 366 525 1515 622 1355 1269 1219 923 237 174 598 3464 825 311 685 542 1668 5 852 408 1710 21 230 487 1371 209 556 493 178 67 16 1131 1671 558 632 61 496 3 306 81 550 4 302 1323 466 724 260 1 91 469 1277 178 170 8 1242 469 752 319 1709 426 904 4 1080 1586 109 509 4 9 1902 91 221 462 476 112 2900 196 1185 115 620 493 5 49 252 823 972 
To predecode: 0
Predecoding something: 0
Predecode request dropped: 0
sizeofblock_0 0
sizeofblock_1 515286
sizeofblock_2 150893
sizeofblock_3 28521
sizeofblock_4 7588
sizeofblock_5 0
sizeofblock_6 0
sizeofblock_7 0
sizeofblock_8 0
Variant_0 Correct: 1295807 Incorrect: 0 Accuracy: 1
Variant_1 Correct: 1808344 Incorrect: 0 Accuracy: 1
Variant_2 Correct: 3313706 Incorrect: 0 Accuracy: 1
Variant_3 Correct: 0 Incorrect: 0 Accuracy: -nan
