
*** ChampSim Multicore Out-of-Order Simulator ***

Warmup Instructions: 50000000
Simulation Instructions: 50000000
Number of CPUs: 1
LLC sets: 2048
LLC ways: 16
Off-chip DRAM Size: 4096 MB Channels: 1 Width: 64-bit Data Rate: 6400 MT/s
CPU 0 runs ./micro_traces/srv640.trace.gz
.gz
ITLB has LRU replacement policy
DTLB has LRU replacement policy
STLB has LRU replacement policy
CPU 0 L1I next line prefetcher
./conditional/srv640.cond
L1I has LRU replacement policy
L1D has LRU replacement policy
Initialize SRRIP state for L2C
Initialize DRRIP state for LLC
Heartbeat_Variant_0 : 1325 0.323486 per_variant_size: 0 1325 0 0 0 0 0 0 0 
Heartbeat_Variant_1 : 1208 0.294922 per_variant_size: 0 579 629 0 0 0 0 0 0 
Heartbeat_Variant_2 : 1293 0.315674 per_variant_size: 0 516 343 355 79 0 0 0 0 
Heartbeat_Variant_3 : 0 0 per_variant_size: 0 0 0 0 0 0 0 0 0 
Heartbeat_Variant_0_evicts 0 : 5773 1 : 229 2 : 252 3 : 0 
Heartbeat_Variant_1_evicts 0 : 212 1 : 0 2 : 375 3 : 0 
Heartbeat_Variant_2_evicts 0 : 228 1 : 372 2 : 0 3 : 0 
Heartbeat_Variant_3_evicts 0 : 0 1 : 0 2 : 0 3 : 0 
Heartbeat CPU 0 instructions: 10000000 cycles: 2799400 heartbeat IPC: 3.57219 cumulative IPC: 3.57219 (Simulation time: 0 hr 1 min 48 sec) 
Heartbeat_Variant_0 : 1325 0.323486 per_variant_size: 0 1325 0 0 0 0 0 0 0 
Heartbeat_Variant_1 : 1220 0.297852 per_variant_size: 0 582 638 0 0 0 0 0 0 
Heartbeat_Variant_2 : 1296 0.316406 per_variant_size: 0 515 345 346 90 0 0 0 0 
Heartbeat_Variant_3 : 0 0 per_variant_size: 0 0 0 0 0 0 0 0 0 
Heartbeat_Variant_0_evicts 0 : 5730 1 : 21 2 : 17 3 : 0 
Heartbeat_Variant_1_evicts 0 : 20 1 : 0 2 : 219 3 : 0 
Heartbeat_Variant_2_evicts 0 : 20 1 : 211 2 : 0 3 : 0 
Heartbeat_Variant_3_evicts 0 : 0 1 : 0 2 : 0 3 : 0 
Heartbeat CPU 0 instructions: 20000001 cycles: 5598052 heartbeat IPC: 3.57315 cumulative IPC: 3.57267 (Simulation time: 0 hr 3 min 26 sec) 
Heartbeat_Variant_0 : 1366 0.333496 per_variant_size: 0 1366 0 0 0 0 0 0 0 
Heartbeat_Variant_1 : 1253 0.305908 per_variant_size: 0 571 682 0 0 0 0 0 0 
Heartbeat_Variant_2 : 1320 0.322266 per_variant_size: 0 486 362 391 81 0 0 0 0 
Heartbeat_Variant_3 : 0 0 per_variant_size: 0 0 0 0 0 0 0 0 0 
Heartbeat_Variant_0_evicts 0 : 5866 1 : 188 2 : 172 3 : 0 
Heartbeat_Variant_1_evicts 0 : 174 1 : 0 2 : 341 3 : 0 
Heartbeat_Variant_2_evicts 0 : 173 1 : 332 2 : 0 3 : 0 
Heartbeat_Variant_3_evicts 0 : 0 1 : 0 2 : 0 3 : 0 
Heartbeat CPU 0 instructions: 30000003 cycles: 8396650 heartbeat IPC: 3.57322 cumulative IPC: 3.57285 (Simulation time: 0 hr 5 min 5 sec) 
Heartbeat_Variant_0 : 1364 0.333008 per_variant_size: 0 1364 0 0 0 0 0 0 0 
Heartbeat_Variant_1 : 1257 0.306885 per_variant_size: 0 577 680 0 0 0 0 0 0 
Heartbeat_Variant_2 : 1326 0.32373 per_variant_size: 0 495 358 388 85 0 0 0 0 
Heartbeat_Variant_3 : 0 0 per_variant_size: 0 0 0 0 0 0 0 0 0 
Heartbeat_Variant_0_evicts 0 : 5634 1 : 18 2 : 10 3 : 0 
Heartbeat_Variant_1_evicts 0 : 20 1 : 0 2 : 217 3 : 0 
Heartbeat_Variant_2_evicts 0 : 12 1 : 218 2 : 0 3 : 0 
Heartbeat_Variant_3_evicts 0 : 0 1 : 0 2 : 0 3 : 0 
Heartbeat CPU 0 instructions: 40000001 cycles: 11192692 heartbeat IPC: 3.57648 cumulative IPC: 3.57376 (Simulation time: 0 hr 6 min 45 sec) 
Heartbeat_Variant_0 : 1372 0.334961 per_variant_size: 0 1372 0 0 0 0 0 0 0 
Heartbeat_Variant_1 : 1274 0.311035 per_variant_size: 0 600 674 0 0 0 0 0 0 
Heartbeat_Variant_2 : 1322 0.322754 per_variant_size: 0 477 370 378 97 0 0 0 0 
Heartbeat_Variant_3 : 0 0 per_variant_size: 0 0 0 0 0 0 0 0 0 
Heartbeat_Variant_0_evicts 0 : 5758 1 : 78 2 : 77 3 : 0 
Heartbeat_Variant_1_evicts 0 : 82 1 : 0 2 : 270 3 : 0 
Heartbeat_Variant_2_evicts 0 : 71 1 : 264 2 : 0 3 : 0 
Heartbeat_Variant_3_evicts 0 : 0 1 : 0 2 : 0 3 : 0 
Heartbeat CPU 0 instructions: 50000003 cycles: 13989189 heartbeat IPC: 3.5759 cumulative IPC: 3.57419 (Simulation time: 0 hr 8 min 26 sec) 

Warmup complete CPU 0 instructions: 50000003 cycles: 13989189 (Simulation time: 0 hr 8 min 26 sec) 

Cycle: 20000000 FTQ IN: 57911626 FTQ occupancy: 19.2949 DECODE IN: 57911602 DECODE occupancy: 50.2723 ROB IN: 57911553 ROB occupancy: 307.508 ROB OUT: 57911205
Heartbeat_Variant_0 : 1381 0.337158 per_variant_size: 0 1381 0 0 0 0 0 0 0 
Heartbeat_Variant_1 : 1317 0.321533 per_variant_size: 0 606 711 0 0 0 0 0 0 
Heartbeat_Variant_2 : 1355 0.330811 per_variant_size: 0 497 374 384 100 0 0 0 0 
Heartbeat_Variant_3 : 0 0 per_variant_size: 0 0 0 0 0 0 0 0 0 
Heartbeat_Variant_0_evicts 0 : 6072 1 : 449 2 : 404 3 : 0 
Heartbeat_Variant_1_evicts 0 : 445 1 : 0 2 : 606 3 : 0 
Heartbeat_Variant_2_evicts 0 : 422 1 : 591 2 : 0 3 : 0 
Heartbeat_Variant_3_evicts 0 : 0 1 : 0 2 : 0 3 : 0 
Heartbeat CPU 0 instructions: 60000002 cycles: 21525191 heartbeat IPC: 1.32696 cumulative IPC: 1.32696 (Simulation time: 0 hr 10 min 16 sec) 
Heartbeat_Variant_0 : 1382 0.337402 per_variant_size: 0 1382 0 0 0 0 0 0 0 
Heartbeat_Variant_1 : 1318 0.321777 per_variant_size: 0 604 714 0 0 0 0 0 0 
Heartbeat_Variant_2 : 1359 0.331787 per_variant_size: 0 500 361 382 116 0 0 0 0 
Heartbeat_Variant_3 : 0 0 per_variant_size: 0 0 0 0 0 0 0 0 0 
Heartbeat_Variant_0_evicts 0 : 5628 1 : 53 2 : 79 3 : 0 
Heartbeat_Variant_1_evicts 0 : 57 1 : 0 2 : 264 3 : 0 
Heartbeat_Variant_2_evicts 0 : 75 1 : 269 2 : 0 3 : 0 
Heartbeat_Variant_3_evicts 0 : 0 1 : 0 2 : 0 3 : 0 
Heartbeat CPU 0 instructions: 70000000 cycles: 28870724 heartbeat IPC: 1.36137 cumulative IPC: 1.34395 (Simulation time: 0 hr 12 min 7 sec) 
Cycle: 30000000 FTQ IN: 13610103 FTQ occupancy: 11.3782 DECODE IN: 13609986 DECODE occupancy: 29.9283 ROB IN: 13609975 ROB occupancy: 226.067 ROB OUT: 13609975
Heartbeat_Variant_0 : 1401 0.342041 per_variant_size: 0 1401 0 0 0 0 0 0 0 
Heartbeat_Variant_1 : 1309 0.31958 per_variant_size: 0 574 735 0 0 0 0 0 0 
Heartbeat_Variant_2 : 1357 0.331299 per_variant_size: 0 477 364 393 123 0 0 0 0 
Heartbeat_Variant_3 : 0 0 per_variant_size: 0 0 0 0 0 0 0 0 0 
Heartbeat_Variant_0_evicts 0 : 5792 1 : 158 2 : 168 3 : 0 
Heartbeat_Variant_1_evicts 0 : 156 1 : 0 2 : 336 3 : 0 
Heartbeat_Variant_2_evicts 0 : 155 1 : 346 2 : 0 3 : 0 
Heartbeat_Variant_3_evicts 0 : 0 1 : 0 2 : 0 3 : 0 
Heartbeat CPU 0 instructions: 80000000 cycles: 36302353 heartbeat IPC: 1.3456 cumulative IPC: 1.3445 (Simulation time: 0 hr 13 min 56 sec) 
Cycle: 40000000 FTQ IN: 13557962 FTQ occupancy: 11.627 DECODE IN: 13558103 DECODE occupancy: 30.3279 ROB IN: 13558163 ROB occupancy: 227.021 ROB OUT: 13558499
Heartbeat_Variant_0 : 1401 0.342041 per_variant_size: 0 1401 0 0 0 0 0 0 0 
Heartbeat_Variant_1 : 1309 0.31958 per_variant_size: 0 577 732 0 0 0 0 0 0 
Heartbeat_Variant_2 : 1357 0.331299 per_variant_size: 0 479 365 400 113 0 0 0 0 
Heartbeat_Variant_3 : 0 0 per_variant_size: 0 0 0 0 0 0 0 0 0 
Heartbeat_Variant_0_evicts 0 : 5613 1 : 19 2 : 11 3 : 0 
Heartbeat_Variant_1_evicts 0 : 14 1 : 0 2 : 207 3 : 0 
Heartbeat_Variant_2_evicts 0 : 16 1 : 202 2 : 0 3 : 0 
Heartbeat_Variant_3_evicts 0 : 0 1 : 0 2 : 0 3 : 0 
Heartbeat CPU 0 instructions: 90000001 cycles: 43577535 heartbeat IPC: 1.37454 cumulative IPC: 1.35188 (Simulation time: 0 hr 15 min 45 sec) 
Cycle: 50000000 FTQ IN: 13538456 FTQ occupancy: 11.5747 DECODE IN: 13538325 DECODE occupancy: 30.1215 ROB IN: 13538305 ROB occupancy: 225.979 ROB OUT: 13537965
Heartbeat_Variant_0 : 1389 0.339111 per_variant_size: 0 1389 0 0 0 0 0 0 0 
Heartbeat_Variant_1 : 1321 0.32251 per_variant_size: 0 599 722 0 0 0 0 0 0 
Heartbeat_Variant_2 : 1359 0.331787 per_variant_size: 0 484 360 404 111 0 0 0 0 
Heartbeat_Variant_3 : 0 0 per_variant_size: 0 0 0 0 0 0 0 0 0 
Heartbeat_Variant_0_evicts 0 : 5805 1 : 144 2 : 170 3 : 0 
Heartbeat_Variant_1_evicts 0 : 163 1 : 0 2 : 341 3 : 0 
Heartbeat_Variant_2_evicts 0 : 163 1 : 348 2 : 0 3 : 0 
Heartbeat_Variant_3_evicts 0 : 0 1 : 0 2 : 0 3 : 0 
Heartbeat CPU 0 instructions: 100000002 cycles: 51008553 heartbeat IPC: 1.34571 cumulative IPC: 1.35064 (Simulation time: 0 hr 17 min 37 sec) 
Finished CPU 0 instructions: 50000003 cycles: 37019365 cumulative IPC: 1.35064 (Simulation time: 0 hr 17 min 37 sec) 

ChampSim completed all CPUs

Region of Interest Statistics

CPU 0 cumulative IPC: 1.35064 instructions: 50000003 cycles: 37019365
 Fetch stage stalled: 57.5025  Sim cycles: 37019365 fetch stall cycle: 21287043
 Empty decode stage: 40.7747  Sim cycles: 37019365 fetch stall cycle: 15094552
ITLB TOTAL     ACCESS:    6886658  HIT:    6381188  MISS:     505470  HIT %:    92.6602  MISS %:    7.33984   MPKI: 10.1094
ITLB LOAD TRANSLATION INSTRUCTION	ACCESS:    5662155  HIT:    5176451  MISS:     485704  HIT %:    91.4219  MISS %:    8.57808  MPKI: 9.71408
ITLB TRANSLATION FROM L1D PREFETCHER INSTRUCTION	ACCESS:    1224503  HIT:    1204737  MISS:      19766  HIT %:    98.3858  MISS %:    1.61421  MPKI: 0.39532

ITLB AVERAGE MISS LATENCY: 65056.2 cycles
ITLB RQ	ACCESS:   10141235	FORWARD:          0	MERGED:    2778464	TO_CACHE:    7362771

DTLB TOTAL     ACCESS:    8983435  HIT:    8511493  MISS:     471942  HIT %:    94.7465  MISS %:    5.25347   MPKI: 9.43884
DTLB LOAD TRANSLATION DATA	ACCESS:    8983435  HIT:    8511493  MISS:     471942  HIT %:    94.7465  MISS %:    5.25347  MPKI: 9.43884

DTLB AVERAGE MISS LATENCY: 9.37917 cycles
DTLB RQ	ACCESS:   13349303	FORWARD:          0	MERGED:    4328854	TO_CACHE:    9020449

STLB TOTAL     ACCESS:    1228408  HIT:    1225991  MISS:       2417  HIT %:    99.8032  MISS %:   0.196759   MPKI: 0.04834
STLB LOAD TRANSLATION INSTRUCTION	ACCESS:     484675  HIT:     484321  MISS:        354  HIT %:     99.927  MISS %:  0.0730386  MPKI: 0.00708
STLB TRANSLATION FROM L1D PREFETCHER INSTRUCTION	ACCESS:      20795  HIT:      20710  MISS:         85  HIT %:    99.5912  MISS %:   0.408752  MPKI: 0.0017
STLB LOAD TRANSLATION DATA	ACCESS:     471942  HIT:     469985  MISS:       1957  HIT %:    99.5853  MISS %:    0.41467  MPKI: 0.03914
STLB TRANSLATION FROM L1D PREFETCHER DATA	ACCESS:     250996  HIT:     250975  MISS:         21  HIT %:    99.9916  MISS %: 0.00836667  MPKI: 0.00042

STLB AVERAGE MISS LATENCY: 74.5859 cycles
STLB RQ	ACCESS:    1376661	FORWARD:          0	MERGED:     121681	TO_CACHE:    1254980

STLB Hit, L1D data hit: 0
STLB Hit, L2C data hit: 0
STLB Hit, LLC data hit: 0
STLB Hit, LLC data miss: 0
STLB STLB hints to L2: 0
L1D TOTAL     ACCESS:   13082092  HIT:   11963595  MISS:    1118497  HIT %:    91.4502  MISS %:    8.54983   MPKI: 22.3699
L1D LOAD DATA	ACCESS:    6557276  HIT:    5821266  MISS:     736010  HIT %:    88.7757  MISS %:    11.2243  MPKI: 14.7202
L1D RFO DATA	ACCESS:    6193821  HIT:    5906940  MISS:     286881  HIT %:    95.3683  MISS %:    4.63173  MPKI: 5.73762
L1D PREFETCH DATA	ACCESS:     330995  HIT:     235389  MISS:      95606  HIT %:    71.1156  MISS %:    28.8844  MPKI: 1.91212

L1D PREFETCH  REQUESTED:     745838  ISSUED:     745838  USEFUL:      34384  USELESS:      69664
L1D USEFUL LOAD PREFETCHES:      34384 PREFETCH ISSUED TO LOWER LEVEL:     104106  ACCURACY: 33.0279
 TIMELY PREFETCHES:      34384 LATE PREFETCHES: 8431 DROPPED PREFETCHES: 4
L1D AVERAGE MISS LATENCY: 248343 cycles
L1D RQ	ACCESS:   10704108	FORWARD:          0	MERGED:    3939848	TO_CACHE:    6598965
L1D WQ	ACCESS:    6946346	FORWARD:     165703	MERGED:     196008	TO_CACHE:    6750338
L1D PQ	ACCESS:     373123	FORWARD:          0	MERGED:          0	TO_CACHE:     372715

L1D UNIQUE REGIONS ACCESSED: 0
L1D REGIONS CONFLICTS: 0
L1D Cross Page Prefetch Requests: 7069
L1D Same Page Prefetch Requests: 759963
L1D ROI Sum of L1D PQ occupancy: 4757608
L1D PREFETCHES PUSHED FROM L2C: 0
L1I TOTAL     ACCESS:    8750977  HIT:    5432312  MISS:    3318665  HIT %:    62.0766  MISS %:    37.9234   MPKI: 66.3733
L1I LOAD INSTRUCTION	ACCESS:    6553431  HIT:    4429861  MISS:    2123570  HIT %:    67.5961  MISS %:    32.4039  MPKI: 42.4714
L1I PREFETCH INSTRUCTION	ACCESS:    2197546  HIT:    1002451  MISS:    1195095  HIT %:    45.6168  MISS %:    54.3832  MPKI: 23.9019

L1I PREFETCH  REQUESTED:    3921213  ISSUED:    3918097  USEFUL:     939256  USELESS:     492049
L1I USEFUL LOAD PREFETCHES:     939256 PREFETCH ISSUED TO LOWER LEVEL:    1431289  ACCURACY: 65.6231
 TIMELY PREFETCHES:     939256 LATE PREFETCHES: 236194 DROPPED PREFETCHES: 61474
L1I AVERAGE MISS LATENCY: 2.31851e+06 cycles
L1I RQ	ACCESS:    9494596	FORWARD:          0	MERGED:    2733169	TO_CACHE:    6761427
L1I PQ	ACCESS:    3918097	FORWARD:          0	MERGED:     538289	TO_CACHE:    3379808

L1BTB TOTAL     ACCESS:    5671083  HIT:    2044175  MISS:    3626908  HIT %:    36.0456  MISS %:    63.9544   MPKI: 72.5382
L1BTB BRANCH_DIRECT_JUMP	ACCESS:     549178  HIT:     144567  MISS:     404611	AVERAGE STALL: 43.0193
L1BTB BRANCH_INDIRECT	ACCESS:     183036  HIT:      66079  MISS:     116957	AVERAGE STALL: 101.04
L1BTB BRANCH_CONDITIONAL	ACCESS:    2712056  HIT:    1419595  MISS:    1292461	AVERAGE STALL: 62.4554
L1BTB BRANCH_DIRECT_CALL	ACCESS:     942402  HIT:     104590  MISS:     837812	AVERAGE STALL: 57.1702
L1BTB BRANCH_INDIRECT_CALL	ACCESS:     171004  HIT:      20783  MISS:     150221	AVERAGE STALL: 127.33
L1BTB BRANCH_RETURN	ACCESS:    1113407  HIT:     288561  MISS:     824846	AVERAGE STALL: 48.5668
L1BTB BRANCH_OTHER ACCESS:          0  HIT:          0  MISS:          0	AVERAGE STALL: -nan
L1BTB TOTAL ROB OCCUPANCY AT BTB MISS: 4.89379

L2BTB TOTAL     ACCESS:    3601442  HIT:    3497571  MISS:     103871  HIT %:    97.1158  MISS %:    2.88415   MPKI: 2.07742
L2BTB BRANCH_DIRECT_JUMP	ACCESS:     400417  HIT:     394086  MISS:       6331	AVERAGE STALL: 43.0193
L2BTB BRANCH_INDIRECT	ACCESS:     106658  HIT:     103879  MISS:       2779	AVERAGE STALL: 101.04
L2BTB BRANCH_CONDITIONAL	ACCESS:    1292460  HIT:    1269321  MISS:      23139	AVERAGE STALL: 62.4554
L2BTB BRANCH_DIRECT_CALL	ACCESS:     837812  HIT:     834716  MISS:       3096	AVERAGE STALL: 57.1702
L2BTB BRANCH_INDIRECT_CALL	ACCESS:     140661  HIT:     130273  MISS:      10388	AVERAGE STALL: 127.33
L2BTB BRANCH_RETURN	ACCESS:     823434  HIT:     765296  MISS:      58138	AVERAGE STALL: 48.5668
L2BTB BRANCH_OTHER ACCESS:          0  HIT:          0  MISS:          0	AVERAGE STALL: -nan
L2BTB TOTAL ROB OCCUPANCY AT BTB MISS: 170.879

L2C TOTAL     ACCESS:    5704292  HIT:    4827108  MISS:     877184  HIT %:    84.6224  MISS %:    15.3776   MPKI: 17.5437
L2C LOAD INSTRUCTION	ACCESS:    1887375  HIT:    1636158  MISS:     251217  HIT %:    86.6896  MISS %:    13.3104  MPKI: 5.02434
L2C PREFETCH INSTRUCTION	ACCESS:    1431289  HIT:    1240832  MISS:     190457  HIT %:    86.6933  MISS %:    13.3067  MPKI: 3.80914
L2C LOAD TRANSLATION INSTRUCTION	ACCESS:        401  HIT:        163  MISS:        238  HIT %:    40.6484  MISS %:    59.3516  MPKI: 0.00476
L2C TRANSLATION FROM L1D PREFETCHER INSTRUCTION	ACCESS:      36116  HIT:      23327  MISS:      12789  HIT %:    64.5891  MISS %:    35.4109  MPKI: 0.25578
L2C LOAD DATA	ACCESS:     727558  HIT:     606089  MISS:     121469  HIT %:    83.3046  MISS %:    16.6954  MPKI: 2.42938
L2C RFO DATA	ACCESS:     286786  HIT:     202786  MISS:      84000  HIT %:    70.7099  MISS %:    29.2901  MPKI: 1.68
L2C PREFETCH DATA	ACCESS:     809299  HIT:     628070  MISS:     181229  HIT %:    77.6067  MISS %:    22.3933  MPKI: 3.62458
L2C WRITEBACK DATA	ACCESS:     523360  HIT:     489095  MISS:      34265  HIT %:    93.4529  MISS %:    6.54712  MPKI: 0.6853
L2C LOAD TRANSLATION DATA	ACCESS:       2066  HIT:        562  MISS:       1504  HIT %:    27.2023  MISS %:    72.7977  MPKI: 0.03008
L2C TRANSLATION FROM L1D PREFETCHER DATA	ACCESS:         42  HIT:         26  MISS:         16  HIT %:    61.9048  MISS %:    38.0952  MPKI: 0.00032

L2C PREFETCH  REQUESTED:    1507491  ISSUED:    1507491  USEFUL:      29139  USELESS:     357315
L2C USEFUL LOAD PREFETCHES:      29139 PREFETCH ISSUED TO LOWER LEVEL:     372877  ACCURACY: 7.81464
 TIMELY PREFETCHES:      29139 LATE PREFETCHES: 1190 DROPPED PREFETCHES: 0
L2C AVERAGE MISS LATENCY: 35.2012 cycles
L2C RQ	ACCESS:    2940392	FORWARD:          0	MERGED:          0	TO_CACHE:    2940345
L2C WQ	ACCESS:     523360	FORWARD:         48	MERGED:          0	TO_CACHE:     523360
L2C PQ	ACCESS:    3042886	FORWARD:          0	MERGED:     784138	TO_CACHE:    2258747

L2C Dense regions hint from L2: 0
PSCL5 TOTAL     ACCESS:      57918  HIT:      28959  MISS:      28959  HIT %:         50  MISS %:         50   MPKI: 0.57918
PSCL5 LOAD TRANSLATION INSTRUCTION	ACCESS:       4596  HIT:       2298  MISS:       2298  HIT %:         50  MISS %:         50  MPKI: 0.04596
PSCL5 TRANSLATION FROM L1D PREFETCHER INSTRUCTION	ACCESS:      53322  HIT:      26661  MISS:      26661  HIT %:         50  MISS %:         50  MPKI: 0.53322


PSCL4 TOTAL     ACCESS:      54242  HIT:      27115  MISS:      27127  HIT %:    49.9889  MISS %:    50.0111   MPKI: 0.54254
PSCL4 LOAD TRANSLATION INSTRUCTION	ACCESS:       2991  HIT:       2135  MISS:        856  HIT %:    71.3808  MISS %:    28.6192  MPKI: 0.01712
PSCL4 TRANSLATION FROM L1D PREFETCHER INSTRUCTION	ACCESS:      36636  HIT:      24980  MISS:      11656  HIT %:    68.1843  MISS %:    31.8157  MPKI: 0.23312
PSCL4 LOAD TRANSLATION DATA	ACCESS:       1291  HIT:          0  MISS:       1291  HIT %:          0  MISS %:        100  MPKI: 0.02582
PSCL4 TRANSLATION FROM L1D PREFETCHER DATA	ACCESS:      13324  HIT:          0  MISS:      13324  HIT %:          0  MISS %:        100  MPKI: 0.26648


PSCL3 TOTAL     ACCESS:      54360  HIT:      27174  MISS:      27186  HIT %:     49.989  MISS %:     50.011   MPKI: 0.54372
PSCL3 LOAD TRANSLATION INSTRUCTION	ACCESS:       3050  HIT:       2194  MISS:        856  HIT %:    71.9344  MISS %:    28.0656  MPKI: 0.01712
PSCL3 TRANSLATION FROM L1D PREFETCHER INSTRUCTION	ACCESS:      36636  HIT:      24980  MISS:      11656  HIT %:    68.1843  MISS %:    31.8157  MPKI: 0.23312
PSCL3 LOAD TRANSLATION DATA	ACCESS:       1350  HIT:          0  MISS:       1350  HIT %:          0  MISS %:        100  MPKI: 0.027
PSCL3 TRANSLATION FROM L1D PREFETCHER DATA	ACCESS:      13324  HIT:          0  MISS:      13324  HIT %:          0  MISS %:        100  MPKI: 0.26648


PSCL2 TOTAL     ACCESS:      41533  HIT:      20682  MISS:      20851  HIT %:    49.7965  MISS %:    50.2035   MPKI: 0.41702
PSCL2 LOAD TRANSLATION INSTRUCTION	ACCESS:       2533  HIT:       2144  MISS:        389  HIT %:    84.6427  MISS %:    15.3573  MPKI: 0.00778
PSCL2 TRANSLATION FROM L1D PREFETCHER INSTRUCTION	ACCESS:      36516  HIT:      18538  MISS:      17978  HIT %:    50.7668  MISS %:    49.2332  MPKI: 0.35956
PSCL2 LOAD TRANSLATION DATA	ACCESS:       1924  HIT:          0  MISS:       1924  HIT %:          0  MISS %:        100  MPKI: 0.03848
PSCL2 TRANSLATION FROM L1D PREFETCHER DATA	ACCESS:        560  HIT:          0  MISS:        560  HIT %:          0  MISS %:        100  MPKI: 0.0112


LLC TOTAL     ACCESS:     965632  HIT:     931114  MISS:      34518  HIT %:    96.4253  MISS %:    3.57465   MPKI: 0.69036
LLC LOAD INSTRUCTION	ACCESS:     250514  HIT:     249534  MISS:        980  HIT %:    99.6088  MISS %:   0.391196  MPKI: 0.0196
LLC PREFETCH INSTRUCTION	ACCESS:     188780  HIT:     187340  MISS:       1440  HIT %:    99.2372  MISS %:   0.762793  MPKI: 0.0288
LLC LOAD TRANSLATION INSTRUCTION	ACCESS:        238  HIT:        226  MISS:         12  HIT %:     94.958  MISS %:    5.04202  MPKI: 0.00024
LLC TRANSLATION FROM L1D PREFETCHER INSTRUCTION	ACCESS:      12789  HIT:      12604  MISS:        185  HIT %:    98.5534  MISS %:    1.44656  MPKI: 0.0037
LLC LOAD DATA	ACCESS:     121013  HIT:     116556  MISS:       4457  HIT %:    96.3169  MISS %:    3.68308  MPKI: 0.08914
LLC RFO DATA	ACCESS:      83961  HIT:      69299  MISS:      14662  HIT %:    82.5371  MISS %:    17.4629  MPKI: 0.29324
LLC PREFETCH DATA	ACCESS:     184095  HIT:     171814  MISS:      12281  HIT %:     93.329  MISS %:    6.67101  MPKI: 0.24562
LLC WRITEBACK DATA	ACCESS:     122722  HIT:     122349  MISS:        373  HIT %:    99.6961  MISS %:   0.303939  MPKI: 0.00746
LLC LOAD TRANSLATION DATA	ACCESS:       1504  HIT:       1377  MISS:        127  HIT %:    91.5559  MISS %:    8.44415  MPKI: 0.00254
LLC TRANSLATION FROM L1D PREFETCHER DATA	ACCESS:         16  HIT:         15  MISS:          1  HIT %:      93.75  MISS %:       6.25  MPKI: 2e-05

LLC AVERAGE MISS LATENCY: 160.613 cycles
LLC RQ	ACCESS:     470044	FORWARD:          0	MERGED:          0	TO_CACHE:     470035
LLC WQ	ACCESS:     122722	FORWARD:         10	MERGED:          0	TO_CACHE:     122722
LLC PQ	ACCESS:     372877	FORWARD:          0	MERGED:          0	TO_CACHE:     372876

LLC Dense regions hint to LLC: 0

RAW hits: 1932087
Loads Generated: 12636195
Loads sent to L1D: 10704108
Stores Generated: 6946326
Stores sent to L1D: 6946346
Major fault: 0 Minor fault: 2667
Allocated PAGES: 2667
I-Shadow cache 408 bytes
Touched + WorthPF tables 12288 bytes 
MMA filter 42 bytes 
FNL filter 272 bytes 
TOTAL PREFETCHER STORAGE SIZE: 19922 bytes
CPU 0 L1I next line prefetcher final stats

stream: 
stream:times selected: 1207220
stream:pref_filled: 119773
stream:pref_useful: 22900
stream:pref_late: 7733
stream:misses: 8404
stream:misses_by_poll: 0

CS: 
CS:times selected: 183064
CS:pref_filled: 57862
CS:pref_useful: 34285
CS:pref_late: 10235
CS:misses: 19527
CS:misses_by_poll: 4

CPLX: 
CPLX:times selected: 1022877
CPLX:pref_filled: 18816
CPLX:pref_useful: 3712
CPLX:pref_late: 3740
CPLX:misses: 93988
CPLX:misses_by_poll: 0

NL_L1: 
NL:times selected: 21604
NL:pref_filled: 620
NL:pref_useful: 240
NL:pref_late: 386
NL:misses: 1819
NL:misses_by_poll: 0

total selections: 2434765
total_filled: 95606
total_useful: 34384
total_late: 23538
total_polluted: 4
total_misses_after_warmup: 777699
conflicts: 5505937

test: 121494

DRAM Statistics
 CHANNEL 0
 RQ ROW_BUFFER_HIT:      11452  ROW_BUFFER_MISS:      22678
 DBUS_CONGESTED:         14
 WQ ROW_BUFFER_HIT:       1760  ROW_BUFFER_MISS:      14459  FULL:          0

 AVG_CONGESTED_CYCLE: 5

CPU 0 Branch Prediction Accuracy: 99.805% MPKI: 0.35662 Average ROB Occupancy at Mispredict: 174.184
Branch types
NOT_BRANCH: 40855847 81.7117%
BRANCH_DIRECT_JUMP: 549178 1.09836%
BRANCH_INDIRECT: 183036 0.366072%
BRANCH_CONDITIONAL: 6185145 12.3703%
BRANCH_DIRECT_CALL: 942402 1.8848%
BRANCH_INDIRECT_CALL: 171004 0.342008%
BRANCH_RETURN: 1113407 2.22681%
BRANCH_OTHER: 0 0%

DRAM PAGES: 1048576
Allocated PAGES: 2667
Average_ROB_Occupancy: 225.063
Average_Decode_Occupancy: 29.6704
Average_FTQ_Occupancy: 11.3759
Indirect max targets: 14 Average targets: 1.17516
Branch_type:  BRANCH_DIRECT_JUMP:  Count Percentage: 3.35055 5.84877 5.02865 2.13298 8.6446 6.00868 1.68046 67.3053 
Branch_type:  BRANCH_INDIRECT:  Count Percentage: 11.7221 3.488 2.64165 13.42 3.32716 2.79105 2.11669 60.4934 
Branch_type:  BRANCH_CONDITIONAL:  Count Percentage: 25.9647 2.44913 2.20223 3.66505 2.87947 4.622 4.12548 54.092 
Branch_type:  BRANCH_DIRECT_CALL:  Count Percentage: 0.857932 1.24835 0.787882 2.12693 4.44646 2.63483 1.49472 86.4029 
Branch_type:  BRANCH_INDIRECT_CALL:  Count Percentage: 9.54907 0 2.99064 0.000881588 0 1.71175 1.00442 84.7432 
Branch_type:  BRANCH_RETURN:  Count Percentage: 8.28345 1.69832 2.19603 2.99828 2.83687 5.08964 4.0113 72.8861 
Branch_type:  BRANCH_DIRECT_JUMP:  Total Count: 36814 64263 55252 23436 94982 66020 18464 739513 
Branch_type:  BRANCH_INDIRECT:  Total Count: 43074 12817 9707 49313 12226 10256 7778 222289 
Branch_type:  BRANCH_CONDITIONAL:  Total Count: 3211793 302954 272412 453361 356186 571735 510316 6691096 
Branch_type:  BRANCH_DIRECT_CALL:  Total Count: 16081 23399 14768 39867 83344 49387 28017 1619529 
Branch_type:  BRANCH_INDIRECT_CALL:  Total Count: 32495 0 10177 3 0 5825 3418 288377 
Branch_type:  BRANCH_RETURN:  Total Count: 183523 37627 48654 66428 62852 112763 88872 1614820 
Number of unique branch instructions: 10706
Upper 32 bits: 
aaaa
ffff
ffff0000
Unique upper 32 bits: 3
Unique upper 36 bits: 3
Unique upper 40 bits: 5
Unique upper 44 bits: 32
Unique upper 48 bits: 158
Variant_0 : 1389 0.339111
Variant_1 : 1321 0.32251
Variant_2 : 1359 0.331787
Variant_3 : 0 0
Offset_3 4437
Offset_4 263
Offset_5 481
Offset_6 539
Offset_7 634
Offset_8 582
Offset_9 509
Offset_10 419
Offset_11 347
Offset_12 310
Offset_13 238
Offset_14 246
Offset_15 194
Offset_16 226
Offset_17 166
Offset_18 144
Offset_19 260
Offset_20 141
Offset_21 235
Offset_22 409
Offset_23 245
Offset_24 344
Offset_25 117
Offset_47 94
Offset_64 5
decode_dispatch_called: 24272392 65.5667
Dispatch_width: 0 12985967 53.501 35.0788
Dispatch_width: 1 813175 3.35021 2.19662
Dispatch_width: 2 781382 3.21922 2.11074
Dispatch_width: 3 467672 1.92677 1.26332
Dispatch_width: 4 4465557 18.3977 12.0628
Dispatch_width: 5 193014 0.7952 0.521387
Dispatch_width: 6 4565625 18.81 12.3331
Empty_decode_cycles: 12746973 34.4333
ROB_full_cycles: 7310791 19.7486
Starvation_cycles_per_kilo_instr: 251.429
Starvation_cycles_per_kilo_instr_3: 204.844
Starvation_cycles_per_kilo_instr_0: 184.221
Branch_type_1  (3,1)  (4,9)  (5,39)  (6,71)  (7,123)  (8,154)  (9,136)  (10,110)  (11,78)  (12,47)  (13,11)  (14,2)  (15,3)  (16,4)  (18,1)  (19,5)  (20,2)  (21,1)  (22,3)  (23,2)  (24,10)  (25,12)  (64,1) 
Branch_type_2  (3,1)  (4,1)  (5,1)  (8,4)  (9,4)  (10,1)  (12,1)  (13,1)  (14,1)  (16,3)  (17,2)  (20,2)  (21,2)  (23,5)  (24,1)  (47,42) 
Branch_type_3  (3,4435)  (4,253)  (5,437)  (6,451)  (7,480)  (8,355)  (9,275)  (10,170)  (11,133)  (12,54)  (13,10)  (64,2) 
Branch_type_4  (6,3)  (7,8)  (8,29)  (9,55)  (10,66)  (11,70)  (12,116)  (13,101)  (14,110)  (15,92)  (16,99)  (17,77)  (18,61)  (19,127)  (20,72)  (21,124)  (22,215)  (23,138)  (24,199)  (25,101)  (64,1) 
Branch_type_5  (8,3)  (9,1)  (10,4)  (11,5)  (12,3)  (13,14)  (14,16)  (15,11)  (16,22)  (17,11)  (18,23)  (19,14)  (20,11)  (21,13)  (22,43)  (23,26)  (24,38) 
Branch_type_6  (5,4)  (6,14)  (7,23)  (8,37)  (9,38)  (10,68)  (11,61)  (12,89)  (13,101)  (14,117)  (15,88)  (16,98)  (17,76)  (18,59)  (19,114)  (20,54)  (21,95)  (22,148)  (23,74)  (24,96)  (25,4)  (47,52)  (64,1) 
Unique trigger count: 
Variant_0_evicts_0 : 0
Variant_0_evicts_1 : 0
Variant_0_evicts_2 : 0
Variant_0_evicts_3 : 0
Variant_1_evicts_0 : 0
Variant_1_evicts_1 : 0
Variant_1_evicts_2 : 0
Variant_1_evicts_3 : 0
Variant_2_evicts_0 : 0
Variant_2_evicts_1 : 0
Variant_2_evicts_2 : 0
Variant_2_evicts_3 : 0
Variant_3_evicts_0 : 0
Variant_3_evicts_1 : 0
Variant_3_evicts_2 : 0
Variant_3_evicts_3 : 0
BTB PER SET UNIQUE ADDR: 14 13 8 15 14 18 12 14 14 15 12 18 11 13 9 11 8 11 12 10 12 14 14 17 10 14 13 18 11 12 17 17 13 10 8 13 14 14 9 10 16 12 11 18 10 11 11 9 17 10 20 10 10 14 12 5 15 13 11 16 15 15 11 15 11 10 13 10 21 14 12 14 13 9 12 10 8 18 10 19 15 10 13 15 13 14 17 11 13 27 11 7 16 12 8 18 10 8 8 15 23 20 13 12 12 15 12 16 8 9 11 25 14 10 12 10 14 10 13 11 13 9 10 9 11 14 7 14 19 14 10 13 17 15 9 18 7 13 13 17 8 18 11 7 17 16 15 9 8 12 12 16 12 14 10 19 15 15 13 12 11 9 18 14 10 15 14 11 14 11 18 13 17 14 14 15 15 16 12 13 9 10 12 19 20 17 7 15 14 12 18 11 14 15 15 14 9 20 13 16 17 11 13 12 10 11 11 15 7 14 8 13 14 11 14 15 15 14 11 18 11 22 12 10 10 18 19 11 12 18 12 10 13 22 12 16 12 13 17 11 17 13 14 17 9 13 10 8 14 11 18 14 13 14 16 12 14 10 12 10 16 10 6 13 11 6 12 11 14 15 9 10 13 6 9 10 13 15 10 12 14 16 12 9 11 13 12 24 23 14 11 13 14 17 7 15 15 16 18 13 9 11 13 17 14 19 16 10 15 12 13 20 8 21 16 7 17 12 10 17 14 23 13 15 14 19 14 9 7 8 17 14 11 8 10 17 14 13 11 17 14 9 7 20 15 10 10 13 13 16 12 7 16 14 17 16 12 17 10 12 15 12 10 17 17 14 10 16 18 13 14 10 15 19 11 13 17 13 12 12 14 13 10 12 10 17 17 13 12 16 17 10 13 15 11 8 13 12 16 9 12 10 17 11 19 18 15 10 12 11 13 10 11 17 12 10 15 17 19 18 11 14 11 8 20 15 11 12 15 15 20 12 13 13 14 12 18 14 12 14 12 10 12 12 18 10 11 18 13 10 18 16 16 9 15 13 18 16 8 13 10 13 17 20 17 10 14 17 11 13 17 10 16 16 11 17 14 18 7 15 22 15 12 14 12 17 18 11 18 14 9 17 12 6 10 14 17 20 11 10 14 22 12 20 12 11 11 19 18 13 14 22 12 12 15 9 12 16 10 9 12 12 8 11 14 17 17 7 9 15 16 14 11 14 15 19 11 18 17 14 15 9 10 14 23 17 11 12 7 16 19 19 11 12 12 16 16 11 17 15 15 18 13 15 10 10 10 21 12 18 12 13 15 21 15 19 19 13 11 14 15 16 10 12 16 14 16 16 15 14 10 12 14 15 17 10 9 13 15 17 14 9 8 10 15 15 18 11 14 18 21 15 10 12 5 21 11 16 9 16 22 15 10 9 12 15 15 18 11 22 11 13 13 14 9 16 17 9 10 26 13 14 17 16 12 10 14 21 20 15 10 15 11 15 17 15 13 13 10 12 10 9 16 17 13 14 9 17 13 12 14 15 10 20 20 10 18 23 17 17 13 19 9 13 20 16 12 19 20 12 11 17 15 8 9 13 9 10 13 19 12 14 16 14 7 17 11 13 16 11 10 16 10 8 17 13 14 16 15 18 11 8 13 13 14 11 13 14 10 12 15 10 17 9 13 16 13 15 18 15 10 11 13 11 14 17 12 14 11 16 11 12 13 11 9 12 15 9 10 8 13 9 8 15 14 15 11 11 9 13 11 20 12 9 13 12 12 12 14 15 9 22 13 15 9 13 8 17 13 7 8 8 19 15 19 18 13 13 16 12 21 15 25 15 28 11 15 12 16 14 14 20 13 12 14 20 17 10 7 20 16 23 6 15 14 10 11 10 15 16 15 18 14 11 15 16 15 12 10 15 19 14 11 16 12 16 10 19 14 9 13 14 16 13 19 19 14 12 17 13 13 12 8 11 22 9 11 8 15 15 9 15 18 17 16 7 14 13 13 11 12 9 16 12 11 14 20 12 13 16 20 16 14 12 14 19 18 13 12 9 22 8 16 14 7 17 9 12 14 15 12 7 13 13 16 16 15 13 12 12 12 16 11 15 10 10 8 15 10 12 10 17 19 14 15 16 14 15 17 16 9 16 13 10 13 13 16 15 13 18 15 14 17 9 13 14 14 16 19 12 19 12 14 15 13 16 13 15 10 17 15 14 12 17 16 12 18 23 14 20 15 14 12 15 8 24 20 14 14 10 19 13 12 16 16 10 11 13 19 14 22 18 10 13 11 17 14 15 12 12 11 17 15 11 12 6 5 14 7 14 10 16 8 10 
BTB PER SET COUNT: 153 1830 2056 746 2860 1561 1378 891 3445 3142 222 5240 760 3114 5790 177 1353 986 28 692 22 118 1783 247 3420 1410 106 2425 512 358 7578 1056 122 823 258 2040 983 18 917 1459 3118 1578 682 3833 2494 799 271 256 281 1535 1956 1088 15 676 2198 510 3314 2261 1973 35 707 4803 823 832 1459 16 1684 4153 786 358 763 5080 145 1245 420 243 288 1323 403 1784 1259 1774 2114 204 1283 3604 46 16 238 2145 228 7 1462 353 315 4397 18 3413 1960 15510 519 4104 3618 162 2362 1227 195 1128 2775 57 1698 71 6198 2205 1606 1025 2264 1067 2960 1256 405 4152 1569 1039 602 2461 608 467 1669 5680 1240 1608 42 26 13 3015 1866 1552 734 762 8 614 1091 9 4116 1596 6176 524 12 2282 4907 2347 3944 2069 2534 3376 1837 1422 33 4635 1508 1862 43 2635 3451 1006 1070 1597 809 3840 576 929 145 641 2487 1288 2568 3973 4414 3153 2132 574 5854 64 2078 4284 3692 740 986 4976 24 3060 822 3123 4001 7210 33 3236 40 3223 2455 125 663 1589 2109 723 1945 34 7 2022 4425 1040 4355 2803 51 167 4427 52 3480 43 2644 852 68 2665 672 493 224 1546 2046 3257 283 34 2488 1437 159 7289 3618 4910 2316 21 562 1395 320 3449 1438 1330 2107 2534 1921 20 2348 595 2743 7726 148 82 5031 458 677 19 3962 500 466 438 1644 296 1890 969 553 2538 1467 685 2183 1725 774 1949 653 4781 2501 28 56 156 3282 153 2644 473 2763 2768 3262 226 543 2872 1467 1936 10 722 3058 3942 3169 2003 183 1072 2304 138 3999 1195 43 56 788 529 101 984 22 1596 2583 1376 1580 19 171 3339 485 7157 133 67 5007 2889 4266 13 601 4871 828 979 18 4743 36 1181 3003 3389 1721 1334 2874 2941 2397 635 455 1894 3905 851 490 158 30 3375 2599 26 4445 2816 23 1305 1376 2179 76 1017 692 1813 1558 1327 4880 3222 1160 1634 992 1490 2328 1777 17 1900 4435 2440 2519 2913 1979 824 645 1918 1458 32 1117 537 231 1247 391 4343 538 1204 381 1468 2646 1220 3612 276 1230 13 2203 17 926 1908 1000 62 1962 2675 3103 283 983 1478 1031 134 1592 1501 5444 4957 1424 189 21 20 696 3486 516 18 1337 1547 768 1172 264 1789 755 3836 1552 1462 388 914 3327 2321 4098 664 2507 18 1155 25 45 1943 1001 1431 854 4187 847 617 3761 3410 1248 3949 43 1276 2625 4046 40 839 9345 1639 1548 805 2016 118 4104 1072 25 2341 1767 1285 616 740 270 5532 2421 1052 447 562 1981 871 4537 1959 1232 2025 796 1521 70 8674 3337 6287 13 284 440 3675 2387 964 832 1106 1299 1070 6146 423 1169 5173 1262 3301 4274 1875 1149 4091 456 2292 1823 2284 17 694 1282 2177 1964 1226 512 1027 1402 306 867 189 18 850 1138 805 1006 35 428 3190 2552 313 1444 2370 1155 22 26 8379 4124 2808 2123 5324 1394 541 1509 6182 1530 5680 2826 279 1321 2292 268 218 167 1120 269 3132 210 5996 7123 1636 3183 6847 496 347 818 1757 1501 30 23 3076 899 161 4911 526 2332 2170 226 4883 2971 1177 2057 83 622 2876 1223 3087 3865 11 13 1404 2290 6614 591 3150 286 606 2073 1343 497 1995 625 3856 2645 1895 730 4437 3943 724 139 5264 2095 858 2888 2730 11186 6372 2044 54 1836 6487 2268 405 6501 1134 17 1917 1338 2504 3375 1411 5790 483 2557 3467 2455 1953 1123 659 1295 3385 2978 674 194 2633 2076 7410 16 134 158 1478 18031 2285 9 2706 4719 25 1579 1232 2422 2420 4171 851 981 6793 706 683 3806 1282 136 2348 4081 4301 48 93 3507 1553 3697 1117 2842 1286 1907 16 26 16 297 931 1932 344 928 2157 9 26 1746 1331 1910 1146 1275 23 562 1042 774 162 224 890 124 1401 12 8 5217 3716 2883 2324 526 194 14 1326 894 5649 512 458 2965 1761 4700 286 3842 6547 1702 818 342 1353 43 4285 251 1532 3135 42 4057 15 2654 4084 4293 43 259 15 263 30 3293 2903 1502 338 37 92 2397 4318 145 2184 1417 1679 229 654 359 230 20 3177 436 304 805 2338 4992 2375 5111 122 790 768 2615 7 481 956 927 627 2303 2319 661 1354 285 749 3913 586 1197 68 1948 2895 1220 2365 3517 2427 2753 1693 2269 3921 382 4137 6284 4865 9 2119 1331 3804 108 2410 1881 14 987 153 342 1559 1233 1601 533 1625 2006 4191 749 1243 1044 3746 2214 5053 1707 1303 17 594 24 1378 1680 289 653 2802 9164 259 3977 2144 2306 23 1082 2142 2497 101 1836 523 1300 311 2925 2072 2358 278 11 1956 4563 4660 4958 995 5176 4479 1309 345 2200 2257 1937 1696 637 3118 1554 26 3414 2511 3589 1250 1716 1317 798 607 2382 287 4339 15 2440 9 1842 912 9 625 2550 70 2271 1645 1384 1343 272 7642 2355 421 2278 1404 1253 807 4687 2601 1979 3771 20 442 3458 1677 278 1968 14 1301 9485 1778 740 3411 5310 1024 974 949 3292 5591 2255 1540 1613 18 374 1482 4992 2306 1023 1142 7844 16 2990 291 1899 751 1058 951 1093 19 3239 703 2254 1682 1668 975 18 1459 1198 3271 32 1739 4374 3807 223 741 478 1373 481 2540 1236 849 8 6299 1887 4154 2404 1523 2508 2853 155 32 2067 2439 855 1000 646 1164 3725 6987 718 57 2614 1157 40 3981 865 2403 34 3552 878 254 680 31 10 43 1279 1242 358 3178 12 862 
To predecode: 1195095
Predecoding something: 754819
Predecode request dropped: 0
sizeofblock_0 0
sizeofblock_1 297843
sizeofblock_2 428002
sizeofblock_3 849157
sizeofblock_4 207867
sizeofblock_5 0
sizeofblock_6 0
sizeofblock_7 0
sizeofblock_8 0
Variant_0 Correct: 1603699 Incorrect: 0 Accuracy: 1
Variant_1 Correct: 2082005 Incorrect: 0 Accuracy: 1
Variant_2 Correct: 5036115 Incorrect: 0 Accuracy: 1
Variant_3 Correct: 0 Incorrect: 0 Accuracy: -nan
