
*** ChampSim Multicore Out-of-Order Simulator ***

Warmup Instructions: 50000000
Simulation Instructions: 50000000
Number of CPUs: 1
LLC sets: 2048
LLC ways: 16
Off-chip DRAM Size: 4096 MB Channels: 1 Width: 64-bit Data Rate: 6400 MT/s
CPU 0 runs ./micro_traces/srv684.trace.gz
.gz
ITLB has LRU replacement policy
DTLB has LRU replacement policy
STLB has LRU replacement policy
FDIP Prefetcher at L1I
L1I has LRU replacement policy
L1D has LRU replacement policy
Initialize SRRIP state for L2C
Initialize DRRIP state for LLC
Heartbeat_Variant_0 : 1298 0.316895 per_variant_size: 0 1298 0 0 0 0 0 0 0 
Heartbeat_Variant_1 : 2484 0.606445 per_variant_size: 0 607 1877 0 0 0 0 0 0 
Heartbeat_Variant_2 : 0 0 per_variant_size: 0 0 0 0 0 0 0 0 0 
Heartbeat_Variant_3 : 0 0 per_variant_size: 0 0 0 0 0 0 0 0 0 
Heartbeat_Variant_0_evicts 0 : 5653 1 : 297 2 : 0 3 : 0 
Heartbeat_Variant_1_evicts 0 : 238 1 : 0 2 : 0 3 : 0 
Heartbeat_Variant_2_evicts 0 : 0 1 : 0 2 : 0 3 : 0 
Heartbeat_Variant_3_evicts 0 : 0 1 : 0 2 : 0 3 : 0 
Heartbeat CPU 0 instructions: 10000002 cycles: 2802591 heartbeat IPC: 3.56813 cumulative IPC: 3.56813 (Simulation time: 0 hr 2 min 9 sec) 
Heartbeat_Variant_0 : 1352 0.330078 per_variant_size: 0 1352 0 0 0 0 0 0 0 
Heartbeat_Variant_1 : 2588 0.631836 per_variant_size: 0 511 2077 0 0 0 0 0 0 
Heartbeat_Variant_2 : 0 0 per_variant_size: 0 0 0 0 0 0 0 0 0 
Heartbeat_Variant_3 : 0 0 per_variant_size: 0 0 0 0 0 0 0 0 0 
Heartbeat_Variant_0_evicts 0 : 5772 1 : 307 2 : 0 3 : 0 
Heartbeat_Variant_1_evicts 0 : 311 1 : 0 2 : 0 3 : 0 
Heartbeat_Variant_2_evicts 0 : 0 1 : 0 2 : 0 3 : 0 
Heartbeat_Variant_3_evicts 0 : 0 1 : 0 2 : 0 3 : 0 
Heartbeat CPU 0 instructions: 20000002 cycles: 5603877 heartbeat IPC: 3.56979 cumulative IPC: 3.56896 (Simulation time: 0 hr 4 min 11 sec) 
Heartbeat_Variant_0 : 1349 0.329346 per_variant_size: 0 1349 0 0 0 0 0 0 0 
Heartbeat_Variant_1 : 2591 0.632568 per_variant_size: 0 512 2079 0 0 0 0 0 0 
Heartbeat_Variant_2 : 0 0 per_variant_size: 0 0 0 0 0 0 0 0 0 
Heartbeat_Variant_3 : 0 0 per_variant_size: 0 0 0 0 0 0 0 0 0 
Heartbeat_Variant_0_evicts 0 : 5436 1 : 5 2 : 0 3 : 0 
Heartbeat_Variant_1_evicts 0 : 8 1 : 0 2 : 0 3 : 0 
Heartbeat_Variant_2_evicts 0 : 0 1 : 0 2 : 0 3 : 0 
Heartbeat_Variant_3_evicts 0 : 0 1 : 0 2 : 0 3 : 0 
Heartbeat CPU 0 instructions: 30000003 cycles: 8403961 heartbeat IPC: 3.57132 cumulative IPC: 3.56975 (Simulation time: 0 hr 6 min 14 sec) 
Heartbeat_Variant_0 : 1362 0.33252 per_variant_size: 0 1362 0 0 0 0 0 0 0 
Heartbeat_Variant_1 : 2599 0.634521 per_variant_size: 0 499 2100 0 0 0 0 0 0 
Heartbeat_Variant_2 : 0 0 per_variant_size: 0 0 0 0 0 0 0 0 0 
Heartbeat_Variant_3 : 0 0 per_variant_size: 0 0 0 0 0 0 0 0 0 
Heartbeat_Variant_0_evicts 0 : 5645 1 : 187 2 : 0 3 : 0 
Heartbeat_Variant_1_evicts 0 : 181 1 : 0 2 : 0 3 : 0 
Heartbeat_Variant_2_evicts 0 : 0 1 : 0 2 : 0 3 : 0 
Heartbeat_Variant_3_evicts 0 : 0 1 : 0 2 : 0 3 : 0 
Heartbeat CPU 0 instructions: 40000003 cycles: 11203982 heartbeat IPC: 3.5714 cumulative IPC: 3.57016 (Simulation time: 0 hr 8 min 29 sec) 
Heartbeat_Variant_0 : 1362 0.33252 per_variant_size: 0 1362 0 0 0 0 0 0 0 
Heartbeat_Variant_1 : 2599 0.634521 per_variant_size: 0 495 2104 0 0 0 0 0 0 
Heartbeat_Variant_2 : 0 0 per_variant_size: 0 0 0 0 0 0 0 0 0 
Heartbeat_Variant_3 : 0 0 per_variant_size: 0 0 0 0 0 0 0 0 0 
Heartbeat_Variant_0_evicts 0 : 5579 1 : 1 2 : 0 3 : 0 
Heartbeat_Variant_1_evicts 0 : 1 1 : 0 2 : 0 3 : 0 
Heartbeat_Variant_2_evicts 0 : 0 1 : 0 2 : 0 3 : 0 
Heartbeat_Variant_3_evicts 0 : 0 1 : 0 2 : 0 3 : 0 
Heartbeat CPU 0 instructions: 50000001 cycles: 14004965 heartbeat IPC: 3.57017 cumulative IPC: 3.57016 (Simulation time: 0 hr 10 min 57 sec) 

Warmup complete CPU 0 instructions: 50000001 cycles: 14004965 (Simulation time: 0 hr 10 min 57 sec) 

Cycle: 20000000 FTQ IN: 58202752 FTQ occupancy: 20.5945 DECODE IN: 58202752 DECODE occupancy: 53.1184 ROB IN: 58202752 ROB occupancy: 318.399 ROB OUT: 58202720
Heartbeat_Variant_0 : 1372 0.334961 per_variant_size: 0 1372 0 0 0 0 0 0 0 
Heartbeat_Variant_1 : 2623 0.640381 per_variant_size: 0 488 2135 0 0 0 0 0 0 
Heartbeat_Variant_2 : 0 0 per_variant_size: 0 0 0 0 0 0 0 0 0 
Heartbeat_Variant_3 : 0 0 per_variant_size: 0 0 0 0 0 0 0 0 0 
Heartbeat_Variant_0_evicts 0 : 5656 1 : 202 2 : 0 3 : 0 
Heartbeat_Variant_1_evicts 0 : 204 1 : 0 2 : 0 3 : 0 
Heartbeat_Variant_2_evicts 0 : 0 1 : 0 2 : 0 3 : 0 
Heartbeat_Variant_3_evicts 0 : 0 1 : 0 2 : 0 3 : 0 
Heartbeat CPU 0 instructions: 60000000 cycles: 21325842 heartbeat IPC: 1.36596 cumulative IPC: 1.36596 (Simulation time: 0 hr 13 min 25 sec) 
Heartbeat_Variant_0 : 1375 0.335693 per_variant_size: 0 1375 0 0 0 0 0 0 0 
Heartbeat_Variant_1 : 2623 0.640381 per_variant_size: 0 486 2137 0 0 0 0 0 0 
Heartbeat_Variant_2 : 0 0 per_variant_size: 0 0 0 0 0 0 0 0 0 
Heartbeat_Variant_3 : 0 0 per_variant_size: 0 0 0 0 0 0 0 0 0 
Heartbeat_Variant_0_evicts 0 : 5609 1 : 38 2 : 0 3 : 0 
Heartbeat_Variant_1_evicts 0 : 36 1 : 0 2 : 0 3 : 0 
Heartbeat_Variant_2_evicts 0 : 0 1 : 0 2 : 0 3 : 0 
Heartbeat_Variant_3_evicts 0 : 0 1 : 0 2 : 0 3 : 0 
Heartbeat CPU 0 instructions: 70000000 cycles: 28507081 heartbeat IPC: 1.39252 cumulative IPC: 1.37911 (Simulation time: 0 hr 15 min 53 sec) 
Cycle: 30000000 FTQ IN: 13870744 FTQ occupancy: 14.9144 DECODE IN: 13870667 DECODE occupancy: 37.0202 ROB IN: 13870638 ROB occupancy: 248.482 ROB OUT: 13870322
Heartbeat_Variant_0 : 1379 0.33667 per_variant_size: 0 1379 0 0 0 0 0 0 0 
Heartbeat_Variant_1 : 2627 0.641357 per_variant_size: 0 482 2145 0 0 0 0 0 0 
Heartbeat_Variant_2 : 0 0 per_variant_size: 0 0 0 0 0 0 0 0 0 
Heartbeat_Variant_3 : 0 0 per_variant_size: 0 0 0 0 0 0 0 0 0 
Heartbeat_Variant_0_evicts 0 : 5636 1 : 88 2 : 0 3 : 0 
Heartbeat_Variant_1_evicts 0 : 86 1 : 0 2 : 0 3 : 0 
Heartbeat_Variant_2_evicts 0 : 0 1 : 0 2 : 0 3 : 0 
Heartbeat_Variant_3_evicts 0 : 0 1 : 0 2 : 0 3 : 0 
Heartbeat CPU 0 instructions: 80000002 cycles: 35782258 heartbeat IPC: 1.37454 cumulative IPC: 1.37758 (Simulation time: 0 hr 18 min 36 sec) 
Cycle: 40000000 FTQ IN: 13770630 FTQ occupancy: 15.0439 DECODE IN: 13770707 DECODE occupancy: 37.0696 ROB IN: 13770736 ROB occupancy: 248.631 ROB OUT: 13770889
Heartbeat_Variant_0 : 1379 0.33667 per_variant_size: 0 1379 0 0 0 0 0 0 0 
Heartbeat_Variant_1 : 2635 0.643311 per_variant_size: 0 478 2157 0 0 0 0 0 0 
Heartbeat_Variant_2 : 0 0 per_variant_size: 0 0 0 0 0 0 0 0 0 
Heartbeat_Variant_3 : 0 0 per_variant_size: 0 0 0 0 0 0 0 0 0 
Heartbeat_Variant_0_evicts 0 : 5730 1 : 126 2 : 0 3 : 0 
Heartbeat_Variant_1_evicts 0 : 127 1 : 0 2 : 0 3 : 0 
Heartbeat_Variant_2_evicts 0 : 0 1 : 0 2 : 0 3 : 0 
Heartbeat_Variant_3_evicts 0 : 0 1 : 0 2 : 0 3 : 0 
Heartbeat CPU 0 instructions: 90000002 cycles: 42985941 heartbeat IPC: 1.38818 cumulative IPC: 1.38022 (Simulation time: 0 hr 21 min 12 sec) 
Cycle: 50000000 FTQ IN: 13827728 FTQ occupancy: 15.1186 DECODE IN: 13827602 DECODE occupancy: 37.3183 ROB IN: 13827542 ROB occupancy: 250.171 ROB OUT: 13827385
Heartbeat_Variant_0 : 1377 0.336182 per_variant_size: 0 1377 0 0 0 0 0 0 0 
Heartbeat_Variant_1 : 2640 0.644531 per_variant_size: 0 483 2157 0 0 0 0 0 0 
Heartbeat_Variant_2 : 0 0 per_variant_size: 0 0 0 0 0 0 0 0 0 
Heartbeat_Variant_3 : 0 0 per_variant_size: 0 0 0 0 0 0 0 0 0 
Heartbeat_Variant_0_evicts 0 : 5623 1 : 27 2 : 0 3 : 0 
Heartbeat_Variant_1_evicts 0 : 31 1 : 0 2 : 0 3 : 0 
Heartbeat_Variant_2_evicts 0 : 0 1 : 0 2 : 0 3 : 0 
Heartbeat_Variant_3_evicts 0 : 0 1 : 0 2 : 0 3 : 0 
Heartbeat CPU 0 instructions: 100000001 cycles: 50234641 heartbeat IPC: 1.37956 cumulative IPC: 1.38008 (Simulation time: 0 hr 24 min 11 sec) 
Finished CPU 0 instructions: 50000000 cycles: 36229676 cumulative IPC: 1.38008 (Simulation time: 0 hr 24 min 11 sec) 

ChampSim completed all CPUs

Region of Interest Statistics

CPU 0 cumulative IPC: 1.38008 instructions: 50000000 cycles: 36229676
 Fetch stage stalled: 46.1982  Sim cycles: 36229676 fetch stall cycle: 16737472
 Empty decode stage: 27.6039  Sim cycles: 36229676 fetch stall cycle: 10000817
ITLB TOTAL     ACCESS:    5835040  HIT:    5342153  MISS:     492887  HIT %:     91.553  MISS %:    8.44702   MPKI: 9.85774
ITLB LOAD TRANSLATION INSTRUCTION	ACCESS:    5699856  HIT:    5206969  MISS:     492887  HIT %:    91.3526  MISS %:    8.64736  MPKI: 9.85774
ITLB TRANSLATION FROM L1D PREFETCHER INSTRUCTION	ACCESS:     135184  HIT:     135184  MISS:          0  HIT %:        100  MISS %:          0  MPKI: 0

ITLB AVERAGE MISS LATENCY: 9.05497 cycles
ITLB RQ	ACCESS:    7939854	FORWARD:          0	MERGED:    1623059	TO_CACHE:    6316795

DTLB TOTAL     ACCESS:    8952310  HIT:    8483097  MISS:     469213  HIT %:    94.7587  MISS %:    5.24125   MPKI: 9.38426
DTLB LOAD TRANSLATION DATA	ACCESS:    8952310  HIT:    8483097  MISS:     469213  HIT %:    94.7587  MISS %:    5.24125  MPKI: 9.38426

DTLB AVERAGE MISS LATENCY: 9.33212 cycles
DTLB RQ	ACCESS:   13323935	FORWARD:          0	MERGED:    4335459	TO_CACHE:    8988476

STLB TOTAL     ACCESS:    1211856  HIT:    1209759  MISS:       2097  HIT %:     99.827  MISS %:    0.17304   MPKI: 0.04194
STLB LOAD TRANSLATION INSTRUCTION	ACCESS:     492887  HIT:     492599  MISS:        288  HIT %:    99.9416  MISS %:  0.0584312  MPKI: 0.00576
STLB LOAD TRANSLATION DATA	ACCESS:     469212  HIT:     467417  MISS:       1795  HIT %:    99.6174  MISS %:   0.382556  MPKI: 0.0359
STLB TRANSLATION FROM L1D PREFETCHER DATA	ACCESS:     249757  HIT:     249743  MISS:         14  HIT %:    99.9944  MISS %: 0.00560545  MPKI: 0.00028

STLB AVERAGE MISS LATENCY: 73.0663 cycles
STLB RQ	ACCESS:    1333054	FORWARD:          0	MERGED:     121160	TO_CACHE:    1211894

STLB Hit, L1D data hit: 0
STLB Hit, L2C data hit: 0
STLB Hit, LLC data hit: 0
STLB Hit, LLC data miss: 0
STLB STLB hints to L2: 0
L1D TOTAL     ACCESS:   13066246  HIT:   11948041  MISS:    1118205  HIT %:     91.442  MISS %:    8.55797   MPKI: 22.3641
L1D LOAD DATA	ACCESS:    6537957  HIT:    5802839  MISS:     735118  HIT %:    88.7562  MISS %:    11.2438  MPKI: 14.7024
L1D RFO DATA	ACCESS:    6198231  HIT:    5911340  MISS:     286891  HIT %:    95.3714  MISS %:    4.62859  MPKI: 5.73782
L1D PREFETCH DATA	ACCESS:     330058  HIT:     233862  MISS:      96196  HIT %:    70.8548  MISS %:    29.1452  MPKI: 1.92392

L1D PREFETCH  REQUESTED:     742327  ISSUED:     742327  USEFUL:      34926  USELESS:      69013
L1D USEFUL LOAD PREFETCHES:      34926 PREFETCH ISSUED TO LOWER LEVEL:     103957  ACCURACY: 33.5966
 TIMELY PREFETCHES:      34926 LATE PREFETCHES: 7723 DROPPED PREFETCHES: 5
L1D AVERAGE MISS LATENCY: 224094 cycles
L1D RQ	ACCESS:   10689809	FORWARD:          0	MERGED:    3951628	TO_CACHE:    6574217
L1D WQ	ACCESS:    6948049	FORWARD:     164381	MERGED:     198331	TO_CACHE:    6749718
L1D PQ	ACCESS:     371372	FORWARD:          0	MERGED:          0	TO_CACHE:     370955

L1D UNIQUE REGIONS ACCESSED: 0
L1D REGIONS CONFLICTS: 0
L1D Cross Page Prefetch Requests: 6232
L1D Same Page Prefetch Requests: 744228
L1D ROI Sum of L1D PQ occupancy: 4717508
L1D PREFETCHES PUSHED FROM L2C: 0
L1I TOTAL     ACCESS:    6408516  HIT:    1423486  MISS:    4985030  HIT %:    22.2124  MISS %:    77.7876   MPKI: 99.7006
L1I LOAD INSTRUCTION	ACCESS:    6172362  HIT:    1206466  MISS:    4965896  HIT %:    19.5463  MISS %:    80.4537  MPKI: 99.3179
L1I PREFETCH INSTRUCTION	ACCESS:     236154  HIT:     217020  MISS:      19134  HIT %:    91.8977  MISS %:    8.10234  MPKI: 0.38268

L1I PREFETCH  REQUESTED:    1616555  ISSUED:    1616555  USEFUL:       9597  USELESS:      19129
L1I USEFUL LOAD PREFETCHES:       9597 PREFETCH ISSUED TO LOWER LEVEL:      28731  ACCURACY: 33.4029
 TIMELY PREFETCHES:       9597 LATE PREFETCHES: 9597 DROPPED PREFETCHES: 0
L1I AVERAGE MISS LATENCY: 62502.6 cycles
L1I RQ	ACCESS:    9554622	FORWARD:          0	MERGED:    2804789	TO_CACHE:    6749833
L1I PQ	ACCESS:    1616555	FORWARD:          0	MERGED:     426534	TO_CACHE:    1190021

L1BTB TOTAL     ACCESS:    5669406  HIT:    2046352  MISS:    3623054  HIT %:    36.0946  MISS %:    63.9054   MPKI: 72.4611
L1BTB BRANCH_DIRECT_JUMP	ACCESS:     548086 HIT:     144932 MISS:     403154 AVERAGE STALL: 58.1303 AVERAGE FETCH STALL: 19.9791 AVERAGE FETCH QUEUE STALL: 17.1659 AVERAGE DECODE STALL: 20.0503 AVERAGE EXECUTE STALL: 2.28019e+15
L1BTB BRANCH_INDIRECT	ACCESS:     182935 HIT:      65981 MISS:     116954 AVERAGE STALL: 114.552 AVERAGE FETCH STALL: 21.6977 AVERAGE FETCH QUEUE STALL: 10.4277 AVERAGE DECODE STALL: 11.8803 AVERAGE EXECUTE STALL: 69.5842
L1BTB BRANCH_CONDITIONAL	ACCESS:    2709734 HIT:    1419157 MISS:    1290577 AVERAGE STALL: 67.6848 AVERAGE FETCH STALL: 23.6563 AVERAGE FETCH QUEUE STALL: 24.9455 AVERAGE DECODE STALL: 18.5568 AVERAGE EXECUTE STALL: 3.22158e+15
L1BTB BRANCH_DIRECT_CALL	ACCESS:     943102 HIT:     105168 MISS:     837934 AVERAGE STALL: 68.5885 AVERAGE FETCH STALL: 29.6624 AVERAGE FETCH QUEUE STALL: 22.511 AVERAGE DECODE STALL: 15.5293 AVERAGE EXECUTE STALL: 1.12617e+16
L1BTB BRANCH_INDIRECT_CALL	ACCESS:     171220 HIT:      21021 MISS:     150199 AVERAGE STALL: 145.793 AVERAGE FETCH STALL: 20.2776 AVERAGE FETCH QUEUE STALL: 14.084 AVERAGE DECODE STALL: 12.1409 AVERAGE EXECUTE STALL: 98.802
L1BTB BRANCH_RETURN	ACCESS:    1114329 HIT:     290093 MISS:     824236 AVERAGE STALL: 51.4084 AVERAGE FETCH STALL: 19.8027 AVERAGE FETCH QUEUE STALL: 5.12369 AVERAGE DECODE STALL: 6.34446 AVERAGE EXECUTE STALL: 4.27453e+14
L1BTB BRANCH_OTHER ACCESS:          0 HIT:          0 MISS:          0 AVERAGE STALL: -nan AVERAGE FETCH STALL: -nan AVERAGE FETCH QUEUE STALL: -nan AVERAGE DECODE STALL: -nan AVERAGE EXECUTE STALL: -nan
L1BTB TOTAL ROB OCCUPANCY AT BTB MISS: 2.76268

L2BTB TOTAL     ACCESS:    3597668  HIT:    3531672  MISS:      65996  HIT %:    98.1656  MISS %:    1.83441   MPKI: 1.31992
L2BTB BRANCH_DIRECT_JUMP	ACCESS:     398972 HIT:     395058 MISS:       3914 AVERAGE STALL: 58.1303 AVERAGE FETCH STALL: 19.9791 AVERAGE FETCH QUEUE STALL: 17.1659 AVERAGE DECODE STALL: 20.0503 AVERAGE EXECUTE STALL: 2.28019e+15
L2BTB BRANCH_INDIRECT	ACCESS:     106711 HIT:     104047 MISS:       2664 AVERAGE STALL: 114.552 AVERAGE FETCH STALL: 21.6977 AVERAGE FETCH QUEUE STALL: 10.4277 AVERAGE DECODE STALL: 11.8803 AVERAGE EXECUTE STALL: 69.5842
L2BTB BRANCH_CONDITIONAL	ACCESS:    1290577 HIT:    1284797 MISS:       5780 AVERAGE STALL: 67.6848 AVERAGE FETCH STALL: 23.6563 AVERAGE FETCH QUEUE STALL: 24.9455 AVERAGE DECODE STALL: 18.5568 AVERAGE EXECUTE STALL: 3.22158e+15
L2BTB BRANCH_DIRECT_CALL	ACCESS:     837934 HIT:     836278 MISS:       1656 AVERAGE STALL: 68.5885 AVERAGE FETCH STALL: 29.6624 AVERAGE FETCH QUEUE STALL: 22.511 AVERAGE DECODE STALL: 15.5293 AVERAGE EXECUTE STALL: 1.12617e+16
L2BTB BRANCH_INDIRECT_CALL	ACCESS:     140646 HIT:     130444 MISS:      10202 AVERAGE STALL: 145.793 AVERAGE FETCH STALL: 20.2776 AVERAGE FETCH QUEUE STALL: 14.084 AVERAGE DECODE STALL: 12.1409 AVERAGE EXECUTE STALL: 98.802
L2BTB BRANCH_RETURN	ACCESS:     822828 HIT:     781048 MISS:      41780 AVERAGE STALL: 51.4084 AVERAGE FETCH STALL: 19.8027 AVERAGE FETCH QUEUE STALL: 5.12369 AVERAGE DECODE STALL: 6.34446 AVERAGE EXECUTE STALL: 4.27453e+14
L2BTB BRANCH_OTHER ACCESS:          0 HIT:          0 MISS:          0 AVERAGE STALL: -nan AVERAGE FETCH STALL: -nan AVERAGE FETCH QUEUE STALL: -nan AVERAGE DECODE STALL: -nan AVERAGE EXECUTE STALL: -nan
L2BTB TOTAL ROB OCCUPANCY AT BTB MISS: 151.666

L2C TOTAL     ACCESS:    6740722  HIT:    6259119  MISS:     481603  HIT %:    92.8553  MISS %:    7.14468   MPKI: 9.63206
L2C LOAD INSTRUCTION	ACCESS:    4956300  HIT:    4714692  MISS:     241608  HIT %:    95.1252  MISS %:    4.87477  MPKI: 4.83216
L2C PREFETCH INSTRUCTION	ACCESS:      28731  HIT:      28731  MISS:          0  HIT %:        100  MISS %:          0  MPKI: 0
L2C LOAD TRANSLATION INSTRUCTION	ACCESS:        325  HIT:         76  MISS:        249  HIT %:    23.3846  MISS %:    76.6154  MPKI: 0.00498
L2C LOAD DATA	ACCESS:     726787  HIT:     642695  MISS:      84092  HIT %:    88.4296  MISS %:    11.5704  MPKI: 1.68184
L2C RFO DATA	ACCESS:     286822  HIT:     231105  MISS:      55717  HIT %:    80.5744  MISS %:    19.4256  MPKI: 1.11434
L2C PREFETCH DATA	ACCESS:     217566  HIT:     136354  MISS:      81212  HIT %:    62.6725  MISS %:    37.3275  MPKI: 1.62424
L2C WRITEBACK DATA	ACCESS:     522288  HIT:     504880  MISS:      17408  HIT %:     96.667  MISS %:    3.33303  MPKI: 0.34816
L2C LOAD TRANSLATION DATA	ACCESS:       1873  HIT:        568  MISS:       1305  HIT %:    30.3257  MISS %:    69.6743  MPKI: 0.0261
L2C TRANSLATION FROM L1D PREFETCHER DATA	ACCESS:         30  HIT:         18  MISS:         12  HIT %:         60  MISS %:         40  MPKI: 0.00024

L2C PREFETCH  REQUESTED:     123015  ISSUED:     123015  USEFUL:       9021  USELESS:      72981
L2C USEFUL LOAD PREFETCHES:       9021 PREFETCH ISSUED TO LOWER LEVEL:      81729  ACCURACY: 11.0377
 TIMELY PREFETCHES:       9021 LATE PREFETCHES: 517 DROPPED PREFETCHES: 0
L2C AVERAGE MISS LATENCY: 38.8399 cycles
L2C RQ	ACCESS:    5972778	FORWARD:          0	MERGED:        586	TO_CACHE:    5972140
L2C WQ	ACCESS:     522288	FORWARD:         52	MERGED:          0	TO_CACHE:     522288
L2C PQ	ACCESS:     255703	FORWARD:          0	MERGED:       4940	TO_CACHE:     250763

L2C Dense regions hint from L2: 0
PSCL5 TOTAL     ACCESS:       4210  HIT:       2105  MISS:       2105  HIT %:         50  MISS %:         50   MPKI: 0.0421
PSCL5 LOAD TRANSLATION INSTRUCTION	ACCESS:       4152  HIT:       2076  MISS:       2076  HIT %:         50  MISS %:         50  MPKI: 0.04152
PSCL5 TRANSLATION FROM L1D PREFETCHER INSTRUCTION	ACCESS:         58  HIT:         29  MISS:         29  HIT %:         50  MISS %:         50  MPKI: 0.00058


PSCL4 TOTAL     ACCESS:       3868  HIT:       1929  MISS:       1939  HIT %:    49.8707  MISS %:    50.1293   MPKI: 0.03878
PSCL4 LOAD TRANSLATION INSTRUCTION	ACCESS:       2415  HIT:       1903  MISS:        512  HIT %:    78.7992  MISS %:    21.2008  MPKI: 0.01024
PSCL4 TRANSLATION FROM L1D PREFETCHER INSTRUCTION	ACCESS:         42  HIT:         26  MISS:         16  HIT %:    61.9048  MISS %:    38.0952  MPKI: 0.00032
PSCL4 LOAD TRANSLATION DATA	ACCESS:       1401  HIT:          0  MISS:       1401  HIT %:          0  MISS %:        100  MPKI: 0.02802
PSCL4 TRANSLATION FROM L1D PREFETCHER DATA	ACCESS:         10  HIT:          0  MISS:         10  HIT %:          0  MISS %:        100  MPKI: 0.0002


PSCL3 TOTAL     ACCESS:       3902  HIT:       1946  MISS:       1956  HIT %:    49.8719  MISS %:    50.1281   MPKI: 0.03912
PSCL3 LOAD TRANSLATION INSTRUCTION	ACCESS:       2432  HIT:       1920  MISS:        512  HIT %:    78.9474  MISS %:    21.0526  MPKI: 0.01024
PSCL3 TRANSLATION FROM L1D PREFETCHER INSTRUCTION	ACCESS:         42  HIT:         26  MISS:         16  HIT %:    61.9048  MISS %:    38.0952  MPKI: 0.00032
PSCL3 LOAD TRANSLATION DATA	ACCESS:       1418  HIT:          0  MISS:       1418  HIT %:          0  MISS %:        100  MPKI: 0.02836
PSCL3 TRANSLATION FROM L1D PREFETCHER DATA	ACCESS:         10  HIT:          0  MISS:         10  HIT %:          0  MISS %:        100  MPKI: 0.0002


PSCL2 TOTAL     ACCESS:       4106  HIT:       2001  MISS:       2105  HIT %:    48.7336  MISS %:    51.2664   MPKI: 0.0421
PSCL2 LOAD TRANSLATION INSTRUCTION	ACCESS:       2259  HIT:       1973  MISS:        286  HIT %:    87.3395  MISS %:    12.6605  MPKI: 0.00572
PSCL2 TRANSLATION FROM L1D PREFETCHER INSTRUCTION	ACCESS:         28  HIT:         28  MISS:          0  HIT %:        100  MISS %:          0  MPKI: 0
PSCL2 LOAD TRANSLATION DATA	ACCESS:       1791  HIT:          0  MISS:       1791  HIT %:          0  MISS %:        100  MPKI: 0.03582
PSCL2 TRANSLATION FROM L1D PREFETCHER DATA	ACCESS:         28  HIT:          0  MISS:         28  HIT %:          0  MISS %:        100  MPKI: 0.00056


LLC TOTAL     ACCESS:     546276  HIT:     516519  MISS:      29757  HIT %:    94.5528  MISS %:    5.44725   MPKI: 0.59514
LLC LOAD INSTRUCTION	ACCESS:     241572  HIT:     240439  MISS:       1133  HIT %:     99.531  MISS %:   0.469011  MPKI: 0.02266
LLC LOAD TRANSLATION INSTRUCTION	ACCESS:        249  HIT:        219  MISS:         30  HIT %:    87.9518  MISS %:    12.0482  MPKI: 0.0006
LLC LOAD DATA	ACCESS:      83626  HIT:      80264  MISS:       3362  HIT %:    95.9797  MISS %:    4.02028  MPKI: 0.06724
LLC RFO DATA	ACCESS:      55693  HIT:      40406  MISS:      15287  HIT %:    72.5513  MISS %:    27.4487  MPKI: 0.30574
LLC PREFETCH DATA	ACCESS:      81729  HIT:      72269  MISS:       9460  HIT %:    88.4252  MISS %:    11.5748  MPKI: 0.1892
LLC WRITEBACK DATA	ACCESS:      82090  HIT:      81690  MISS:        400  HIT %:    99.5127  MISS %:    0.48727  MPKI: 0.008
LLC LOAD TRANSLATION DATA	ACCESS:       1305  HIT:       1220  MISS:         85  HIT %:    93.4866  MISS %:    6.51341  MPKI: 0.0017
LLC TRANSLATION FROM L1D PREFETCHER DATA	ACCESS:         12  HIT:         12  MISS:          0  HIT %:        100  MISS %:          0  MPKI: 0

LLC AVERAGE MISS LATENCY: 159.371 cycles
LLC RQ	ACCESS:     382466	FORWARD:          0	MERGED:          0	TO_CACHE:     382457
LLC WQ	ACCESS:      82090	FORWARD:          9	MERGED:          0	TO_CACHE:      82090
LLC PQ	ACCESS:      81729	FORWARD:          0	MERGED:          0	TO_CACHE:      81729

LLC Dense regions hint to LLC: 0

RAW hits: 1951116
Loads Generated: 12640928
Loads sent to L1D: 10689809
Stores Generated: 6948049
Stores sent to L1D: 6948049
Major fault: 0 Minor fault: 2534
Allocated PAGES: 2534

stream: 
stream:times selected: 1177311
stream:pref_filled: 120327
stream:pref_useful: 21062
stream:pref_late: 10390
stream:misses: 8741
stream:misses_by_poll: 0

CS: 
CS:times selected: 176531
CS:pref_filled: 54392
CS:pref_useful: 31138
CS:pref_late: 12680
CS:misses: 21908
CS:misses_by_poll: 3

CPLX: 
CPLX:times selected: 999618
CPLX:pref_filled: 19304
CPLX:pref_useful: 3675
CPLX:pref_late: 4253
CPLX:misses: 98562
CPLX:misses_by_poll: 3

NL_L1: 
NL:times selected: 17850
NL:pref_filled: 628
NL:pref_useful: 209
NL:pref_late: 426
NL:misses: 1576
NL:misses_by_poll: 0

total selections: 2371310
total_filled: 96196
total_useful: 34926
total_late: 28991
total_polluted: 6
total_misses_after_warmup: 771390
conflicts: 5523858

test: 117510

DRAM Statistics
 CHANNEL 0
 RQ ROW_BUFFER_HIT:      10946  ROW_BUFFER_MISS:      18397
 DBUS_CONGESTED:         11
 WQ ROW_BUFFER_HIT:       1551  ROW_BUFFER_MISS:      12691  FULL:          0

 AVG_CONGESTED_CYCLE: 6

CPU 0 Branch Prediction Accuracy: 99.8221% MPKI: 0.32524 Average ROB Occupancy at Mispredict: 191.342
Branch types
NOT_BRANCH: 40858589 81.7172%
BRANCH_DIRECT_JUMP: 548086 1.09617%
BRANCH_INDIRECT: 182935 0.36587%
BRANCH_CONDITIONAL: 6181752 12.3635%
BRANCH_DIRECT_CALL: 943102 1.8862%
BRANCH_INDIRECT_CALL: 171220 0.34244%
BRANCH_RETURN: 1114329 2.22866%
BRANCH_OTHER: 0 0%

DRAM PAGES: 1048576
Allocated PAGES: 2534
Average_ROB_Occupancy: 250.034
Average_Decode_Occupancy: 37.0748
Average_FTQ_Occupancy: 15.0087
Indirect max targets: 14 Average targets: 1.14576
Branch_type:  BRANCH_DIRECT_JUMP:  Count Percentage: 4.13225 5.71711 3.64591 3.32479 10.5588 2.55251 2.64106 67.4276 
Branch_type:  BRANCH_INDIRECT:  Count Percentage: 11.7662 3.38803 2.50537 0 13.0306 2.81714 2.95616 63.5365 
Branch_type:  BRANCH_CONDITIONAL:  Count Percentage: 24.9967 3.18408 5.33891 2.69917 5.26437 2.43864 3.81636 52.2617 
Branch_type:  BRANCH_DIRECT_CALL:  Count Percentage: 0.386909 1.79198 1.13215 2.51958 4.89492 2.33899 4.43136 82.5041 
Branch_type:  BRANCH_INDIRECT_CALL:  Count Percentage: 9.54075 0 2.99134 6.37666 0 2.80813 3.84638 74.4367 
Branch_type:  BRANCH_RETURN:  Count Percentage: 7.87375 2.14446 5.80006 2.84991 5.18646 3.63425 4.2739 68.2372 
Branch_type:  BRANCH_DIRECT_JUMP:  Total Count: 45219 62562 39897 36383 115544 27932 28901 737856 
Branch_type:  BRANCH_INDIRECT:  Total Count: 42911 12356 9137 0 47522 10274 10781 231715 
Branch_type:  BRANCH_CONDITIONAL:  Total Count: 3087214 393249 659380 333360 650175 301184 471338 6454570 
Branch_type:  BRANCH_DIRECT_CALL:  Total Count: 7325 33926 21434 47701 92671 44282 83895 1561975 
Branch_type:  BRANCH_INDIRECT_CALL:  Total Count: 32861 0 10303 21963 0 9672 13248 256381 
Branch_type:  BRANCH_RETURN:  Total Count: 176248 48002 129830 63793 116095 81350 95668 1527438 
Number of unique branch instructions: 9822
Upper 32 bits: 
aaaa
ffff
ffff0000
Unique upper 32 bits: 3
Unique upper 36 bits: 3
Unique upper 40 bits: 5
Unique upper 44 bits: 32
Unique upper 48 bits: 154
Variant_0 : 1377 0.336182
Variant_1 : 2640 0.644531
Variant_2 : 0 0
Variant_3 : 0 0
Offset_3 4037
Offset_4 250
Offset_5 448
Offset_6 501
Offset_7 577
Offset_8 502
Offset_9 469
Offset_10 378
Offset_11 303
Offset_12 272
Offset_13 199
Offset_14 228
Offset_15 184
Offset_16 223
Offset_17 143
Offset_18 118
Offset_19 238
Offset_20 137
Offset_21 235
Offset_22 392
Offset_23 243
Offset_24 325
Offset_25 88
Offset_47 80
decode_dispatch_called: 26377531 72.8064
Dispatch_width: 0 14197197 53.8231 39.1867
Dispatch_width: 1 1031530 3.91064 2.8472
Dispatch_width: 2 871609 3.30436 2.40579
Dispatch_width: 3 520845 1.97458 1.43762
Dispatch_width: 4 6378030 24.1798 17.6044
Dispatch_width: 5 119323 0.452366 0.329352
Dispatch_width: 6 3258997 12.3552 8.99538
Empty_decode_cycles: 9852145 27.1936
ROB_full_cycles: 10205709 28.1695
Starvation_cycles_per_kilo_instr: 227.65
Starvation_cycles_per_kilo_instr_3: 162.676
Starvation_cycles_per_kilo_instr_0: 138.436
Branch_type_1  (3,1)  (4,9)  (5,37)  (6,69)  (7,112)  (8,129)  (9,122)  (10,97)  (11,67)  (12,43)  (13,5)  (14,2)  (15,3)  (16,4)  (18,1)  (19,4)  (20,2)  (21,1)  (22,3)  (23,2)  (24,10)  (25,12) 
Branch_type_2  (3,1)  (5,1)  (8,3)  (9,3)  (12,1)  (13,1)  (14,1)  (16,3)  (17,2)  (20,2)  (21,2)  (23,5)  (24,1)  (47,36) 
Branch_type_3  (3,4035)  (4,241)  (5,406)  (6,417)  (7,435)  (8,309)  (9,258)  (10,152)  (11,122)  (12,50)  (13,4) 
Branch_type_4  (6,3)  (7,8)  (8,25)  (9,53)  (10,62)  (11,58)  (12,98)  (13,86)  (14,100)  (15,86)  (16,100)  (17,64)  (18,53)  (19,116)  (20,72)  (21,124)  (22,208)  (23,137)  (24,185)  (25,72) 
Branch_type_5  (8,2)  (9,1)  (10,3)  (11,5)  (12,3)  (13,14)  (14,16)  (15,11)  (16,20)  (17,11)  (18,16)  (19,12)  (20,10)  (21,13)  (22,42)  (23,26)  (24,38) 
Branch_type_6  (5,4)  (6,12)  (7,22)  (8,34)  (9,32)  (10,64)  (11,51)  (12,77)  (13,89)  (14,109)  (15,84)  (16,96)  (17,66)  (18,48)  (19,106)  (20,51)  (21,95)  (22,139)  (23,73)  (24,91)  (25,4)  (47,44) 
Unique trigger count: 
Variant_0_evicts_0 : 0
Variant_0_evicts_1 : 0
Variant_0_evicts_2 : 0
Variant_0_evicts_3 : 0
Variant_1_evicts_0 : 0
Variant_1_evicts_1 : 0
Variant_1_evicts_2 : 0
Variant_1_evicts_3 : 0
Variant_2_evicts_0 : 0
Variant_2_evicts_1 : 0
Variant_2_evicts_2 : 0
Variant_2_evicts_3 : 0
Variant_3_evicts_0 : 0
Variant_3_evicts_1 : 0
Variant_3_evicts_2 : 0
Variant_3_evicts_3 : 0
BTB PER SET UNIQUE ADDR: 12 7 8 11 9 12 6 8 10 12 12 14 9 9 9 9 9 10 10 13 6 7 10 9 7 10 9 10 7 7 11 13 12 7 7 8 7 13 10 9 10 9 11 6 10 6 7 9 9 10 13 13 8 8 6 5 9 9 7 9 10 10 10 7 9 13 7 9 10 11 9 9 9 7 10 8 6 8 7 13 12 7 7 9 10 11 13 7 8 11 7 8 9 8 9 7 9 8 9 12 9 13 9 7 9 12 9 12 8 7 5 9 9 8 8 8 7 12 12 10 11 10 5 5 7 9 6 10 17 9 5 10 10 11 9 8 9 11 8 15 8 6 10 11 7 10 13 10 7 8 10 10 7 8 10 11 8 11 13 9 8 7 7 10 8 9 8 11 12 9 9 13 11 7 11 9 7 10 10 6 8 8 11 12 10 14 5 9 11 7 8 7 9 10 12 8 7 11 9 12 14 7 9 10 6 7 9 8 10 15 8 11 10 5 8 8 6 10 10 13 8 11 7 7 10 10 9 11 9 9 10 6 12 15 9 10 11 12 9 5 7 10 12 11 12 7 11 8 15 7 10 12 12 11 6 12 11 7 8 10 9 9 4 12 11 8 8 13 11 8 10 10 7 6 10 7 8 10 9 7 9 9 8 8 10 7 6 11 10 10 6 8 13 10 9 12 10 8 11 7 7 8 8 10 14 10 11 8 9 6 7 11 7 15 6 8 14 9 11 10 8 10 6 12 11 11 6 9 11 8 10 12 8 11 9 7 10 9 7 14 8 10 7 7 8 7 8 11 8 8 9 9 8 10 7 10 10 11 7 5 8 10 7 13 10 10 6 10 11 10 12 6 8 9 11 12 11 11 10 8 11 9 8 9 9 11 10 9 13 8 8 9 10 14 7 6 8 8 10 11 12 13 9 13 7 13 9 12 11 10 10 7 8 9 12 10 11 9 14 10 8 10 8 8 9 6 11 12 9 10 19 8 10 10 10 10 11 6 7 10 11 8 9 13 17 8 8 11 8 8 12 16 12 12 9 10 10 11 7 7 8 7 10 10 10 9 8 10 8 11 9 9 9 11 8 14 8 14 8 11 14 12 10 10 9 12 12 13 13 13 12 14 7 10 9 9 12 9 7 7 11 10 8 10 9 9 4 8 10 9 6 15 11 7 12 13 10 14 10 8 9 9 11 8 10 10 15 8 8 13 10 7 8 11 7 9 8 11 11 8 9 6 13 8 14 13 10 11 10 9 9 15 8 12 13 9 11 9 8 8 13 11 7 9 10 10 11 10 11 8 10 9 10 15 6 12 14 11 8 9 9 9 6 8 11 7 8 7 12 10 9 12 10 8 11 8 7 6 8 10 10 10 9 7 9 10 11 6 11 9 14 16 7 6 6 10 9 10 10 14 14 6 7 7 8 9 10 12 8 10 7 13 13 9 11 11 8 8 9 8 9 8 10 7 7 11 8 9 13 7 8 11 10 12 13 10 15 9 12 10 7 8 11 14 7 10 10 8 10 7 12 8 10 13 11 9 11 12 10 9 8 12 12 11 12 10 6 10 10 13 11 10 8 10 9 8 9 10 8 15 7 16 14 9 7 11 9 10 11 6 13 10 9 10 7 10 12 9 10 10 8 10 9 10 6 9 9 8 9 8 10 8 8 14 9 11 14 8 13 9 12 8 11 10 11 14 11 10 10 7 10 10 10 9 7 12 13 14 7 6 8 8 7 11 7 8 6 11 12 7 9 8 8 7 11 8 9 7 12 12 8 9 11 10 10 10 6 11 10 7 6 7 13 9 12 15 7 7 10 8 16 10 13 11 12 10 10 7 7 7 9 11 10 11 7 11 9 11 7 15 10 11 8 7 8 11 7 8 9 11 12 9 11 12 11 9 7 11 8 8 14 11 8 8 10 12 8 15 9 8 9 9 8 11 8 11 14 6 14 13 11 14 11 8 9 6 11 8 9 10 9 11 9 7 8 7 10 9 10 7 11 7 9 11 9 12 10 10 8 6 9 8 11 9 10 10 11 6 7 9 10 11 12 12 7 8 11 13 10 13 9 11 7 7 13 9 12 10 11 8 8 9 8 12 8 9 6 9 8 6 12 9 11 9 7 10 8 8 11 13 9 13 10 6 8 10 7 12 11 9 11 6 9 13 6 9 8 11 9 9 10 11 10 11 10 9 11 5 9 10 11 13 12 8 7 10 9 10 8 11 8 9 9 10 8 15 13 6 11 10 8 11 8 8 8 8 8 7 11 6 11 12 10 6 12 13 11 12 8 13 12 9 8 7 10 11 6 7 5 11 6 17 8 7 
BTB PER SET COUNT: 19 7 1936 14 11 12 6 10 538 14 20 21 8779 9 9 9 2474 10 288 15 6 513 491 10 7 13 9 11 369 7 475 13 13 7 7 13 8 19 12 9 11 13 14 6 14 92 7 10 612 13 15 46 8 9 7 5 10 9 511 12 13 1737 16 7 11 436 8 11 14 11 618 285 10 10 12 13 7 9 7 16 39 7 7 9 12 47 14 9 8 16 7 799 74 520 15 7 560 15 10 17 10 26 12 8 1056 17 10 16 1913 7 13 13 562 10 14 8 9 21 1283 25 17 13 5 5 8 110 6 14 21 496 5 12 16 11 167 9 993 12 11 19 8 7 14 17 10 13 19 22 9 37 10 184 1384 8 11 17 997 14 355 9 9 235 8 14 11 11 9 13 16 949 11 13 14 10 18 1304 7 13 376 6 12 8 978 15 12 15 5 16 12 969 11 7 9 11 14 145 7 259 14 12 16 9 1003 14 6 8 10 8 15 1467 8 15 12 5 10 542 7 20 1674 18 10 12 144 10 10 16 16 216 741 12 13 6 15 20 11 10 18 19 13 5 7 14 15 13 13 848 17 12 22 14 11 18 12 13 6 22 12 10 13 13 998 10 4 496 11 10 9 15 101 8 12 119 7 7 450 8 8 13 10 7 11 12 12 9 13 11 6 11 10 12 6 8 15 10 11 14 12 10 13 119 7 9 8 11 16 11 12 9 312 866 7 15 10 22 1471 844 16 10 14 14 8 186 10 14 13 12 268 9 14 10 13 16 49 13 17 11 11 996 7 218 8 776 7 7 10 8 9 25 8 11 10 395 15 12 7 10 12 17 103 7 11 13 9 18 13 14 7 10 14 11 13 365 10 15 364 19 17 11 16 1482 11 10 11 11 10 12 13 18 17 1213 13 11 12 259 9 7 8 10 223 14 23 17 1480 17 8 18 15 492 13 12 10 7 8 10 12 11 11 73 14 11 8 11 13 9 11 8 1325 20 13 12 30 9 14 11 10 20 13 16 8 13 19 11 48 23 311 10 84 11 9 9 22 24 16 15 766 12 10 11 8 10 9 10 11 655 11 12 11 12 11 14 11 12 12 18 8 17 11 22 13 11 18 18 11 12 422 976 13 14 16 56 312 19 629 14 11 1482 1485 9 7 7 15 10 9 156 14 9 4 8 29 10 10 171 327 943 13 16 10 20 12 11 13 9 16 8 10 11 17 10 8 2102 13 7 10 11 8 10 11 966 13 10 11 8 41 11 24 20 12 13 10 134 10 16 997 164 20 9 15 11 9 8 15 70 7 10 21 13 15 10 15 8 74 12 11 18 1477 13 17 19 9 12 9 11 8 2827 11 8 12 10 14 11 13 285 14 11 16 11 2610 367 9 10 10 14 12 8 11 17 12 995 14 10 14 19 13 6 6 11 9 12 12 26 16 6 9 972 11 11 11 17 1312 11 10 14 19 13 12 11 8 975 11 9 10 8 12 7 8 170 217 9 18 7 9 11 12 12 1438 496 19 10 14 389 7 12 13 16 11843 14 14 997 1819 7 15 8 1000 17 22 16 12 17 16 12 8 16 20 332 25 16 7 10 16 23 19 12 9 12 2476 8 10 438 8 25 7 22 184 10 7 15 10 11 13 7 17 14 119 12 8 11 20 17 10 13 9 1215 9 1493 6 11 10 15 560 8 13 10 9 17 10 1907 20 9 20 15 1089 8 11 10 13 18 215 11 13 9 1481 13 1313 189 9 15 17 1421 8 10 11 8 7 72 7 10 6 14 16 7 45 368 13 7 14 9 10 9 15 21 2006 12 429 11 11 10 8 11 11 9 6 8 15 12 17 977 7 9 12 370 25 14 25 15 521 13 11 7 8 7 10 5998 12 18 9 18 12 2749 9 3753 15 1101 8 8 10 12 9 9 9 20 13 14 16 13 13 1993 7 14 12 11 18 1510 8 13 281 13 11 16 13 14728 14 1000 22 20 8 12 2021 6 19 14 13 352 19 9 13 6 12 13 10 12 213 12 15 9 13 7 12 11 1200 9 14 8 119 166 491 194 10 12 9 6 10 8 12 1842 12 11 18 8 8 12 11 13 15 860 8 8 11 16 143 16 9 974 13 7 23 16 1848 646 14 64 12 11 490 18 12 10 8 14 10 12 17 10 12 11 10 1699 10 10 16 15 10 2108 14 7 8 11 7 19 15 9 113 1000 10 2816 7 10 8 16 13 1458 16 13 767 11 13 10 1484 5 42 11 65 547 12 8 7 12 9 10 491 207 10 11 17 399 8 715 969 970 12 11 9 13 11 9 8 10 11 1481 14 6 21 880 11 7 15 18 11 16 11 624 498 9 8 9 12 13 9 13 7 15 12 22 9 7 
To predecode: 0
Predecoding something: 0
Predecode request dropped: 0
sizeofblock_0 0
sizeofblock_1 49876
sizeofblock_2 87659
sizeofblock_3 0
sizeofblock_4 0
sizeofblock_5 0
sizeofblock_6 0
sizeofblock_7 0
sizeofblock_8 0
Variant_0 Correct: 1616557 Incorrect: 0 Accuracy: 1
Variant_1 Correct: 5745550 Incorrect: 0 Accuracy: 1
Variant_2 Correct: 0 Incorrect: 0 Accuracy: -nan
Variant_3 Correct: 0 Incorrect: 0 Accuracy: -nan
