
*** ChampSim Multicore Out-of-Order Simulator ***

Warmup Instructions: 50000000
Simulation Instructions: 50000000
Number of CPUs: 1
LLC sets: 2048
LLC ways: 16
Off-chip DRAM Size: 4096 MB Channels: 1 Width: 64-bit Data Rate: 6400 MT/s
CPU 0 runs ./micro_traces/srv684.trace.gz
.gz
ITLB has LRU replacement policy
DTLB has LRU replacement policy
STLB has LRU replacement policy
FDIP Prefetcher at L1I
L1I has LRU replacement policy
L1D has LRU replacement policy
Initialize SRRIP state for L2C
Initialize DRRIP state for LLC
Heartbeat_Variant_0 : 1284 0.156738 per_variant_size: 0 1284 0 0 0 0 0 0 0 
Heartbeat_Variant_1 : 1363 0.166382 per_variant_size: 0 930 433 0 0 0 0 0 0 
Heartbeat_Variant_2 : 1481 0.180786 per_variant_size: 0 824 442 187 28 0 0 0 0 
Heartbeat_Variant_3 : 0 0 per_variant_size: 0 0 0 0 0 0 0 0 0 
Heartbeat_Variant_0_evicts 0 : 7190 1 : 642 2 : 1531 3 : 0 
Heartbeat_Variant_1_evicts 0 : 705 1 : 0 2 : 673 3 : 0 
Heartbeat_Variant_2_evicts 0 : 1371 1 : 578 2 : 0 3 : 0 
Heartbeat_Variant_3_evicts 0 : 0 1 : 0 2 : 0 3 : 0 
Heartbeat CPU 0 instructions: 10000002 cycles: 2798072 heartbeat IPC: 3.57389 cumulative IPC: 3.57389 (Simulation time: 0 hr 1 min 56 sec) 
Heartbeat_Variant_0 : 1366 0.166748 per_variant_size: 0 1366 0 0 0 0 0 0 0 
Heartbeat_Variant_1 : 1450 0.177002 per_variant_size: 0 966 484 0 0 0 0 0 0 
Heartbeat_Variant_2 : 1538 0.187744 per_variant_size: 0 805 478 218 37 0 0 0 0 
Heartbeat_Variant_3 : 0 0 per_variant_size: 0 0 0 0 0 0 0 0 0 
Heartbeat_Variant_0_evicts 0 : 7355 1 : 725 2 : 1519 3 : 0 
Heartbeat_Variant_1_evicts 0 : 771 1 : 0 2 : 564 3 : 0 
Heartbeat_Variant_2_evicts 0 : 1451 1 : 591 2 : 0 3 : 0 
Heartbeat_Variant_3_evicts 0 : 0 1 : 0 2 : 0 3 : 0 
Heartbeat CPU 0 instructions: 20000002 cycles: 5595223 heartbeat IPC: 3.57507 cumulative IPC: 3.57448 (Simulation time: 0 hr 3 min 30 sec) 
Heartbeat_Variant_0 : 1364 0.166504 per_variant_size: 0 1364 0 0 0 0 0 0 0 
Heartbeat_Variant_1 : 1451 0.177124 per_variant_size: 0 965 486 0 0 0 0 0 0 
Heartbeat_Variant_2 : 1541 0.18811 per_variant_size: 0 809 477 218 37 0 0 0 0 
Heartbeat_Variant_3 : 0 0 per_variant_size: 0 0 0 0 0 0 0 0 0 
Heartbeat_Variant_0_evicts 0 : 7089 1 : 657 2 : 1430 3 : 0 
Heartbeat_Variant_1_evicts 0 : 736 1 : 0 2 : 486 3 : 0 
Heartbeat_Variant_2_evicts 0 : 1353 1 : 564 2 : 0 3 : 0 
Heartbeat_Variant_3_evicts 0 : 0 1 : 0 2 : 0 3 : 0 
Heartbeat CPU 0 instructions: 30000003 cycles: 8390740 heartbeat IPC: 3.57716 cumulative IPC: 3.57537 (Simulation time: 0 hr 5 min 4 sec) 
Heartbeat_Variant_0 : 1371 0.167358 per_variant_size: 0 1371 0 0 0 0 0 0 0 
Heartbeat_Variant_1 : 1462 0.178467 per_variant_size: 0 975 487 0 0 0 0 0 0 
Heartbeat_Variant_2 : 1535 0.187378 per_variant_size: 0 795 480 222 38 0 0 0 0 
Heartbeat_Variant_3 : 0 0 per_variant_size: 0 0 0 0 0 0 0 0 0 
Heartbeat_Variant_0_evicts 0 : 7297 1 : 700 2 : 1514 3 : 0 
Heartbeat_Variant_1_evicts 0 : 769 1 : 0 2 : 528 3 : 0 
Heartbeat_Variant_2_evicts 0 : 1440 1 : 593 2 : 0 3 : 0 
Heartbeat_Variant_3_evicts 0 : 0 1 : 0 2 : 0 3 : 0 
Heartbeat CPU 0 instructions: 40000003 cycles: 11186528 heartbeat IPC: 3.57681 cumulative IPC: 3.57573 (Simulation time: 0 hr 6 min 40 sec) 
Heartbeat_Variant_0 : 1369 0.167114 per_variant_size: 0 1369 0 0 0 0 0 0 0 
Heartbeat_Variant_1 : 1459 0.178101 per_variant_size: 0 970 489 0 0 0 0 0 0 
Heartbeat_Variant_2 : 1540 0.187988 per_variant_size: 0 798 480 225 37 0 0 0 0 
Heartbeat_Variant_3 : 0 0 per_variant_size: 0 0 0 0 0 0 0 0 0 
Heartbeat_Variant_0_evicts 0 : 7320 1 : 694 2 : 1496 3 : 0 
Heartbeat_Variant_1_evicts 0 : 756 1 : 0 2 : 522 3 : 0 
Heartbeat_Variant_2_evicts 0 : 1436 1 : 587 2 : 0 3 : 0 
Heartbeat_Variant_3_evicts 0 : 0 1 : 0 2 : 0 3 : 0 
Heartbeat CPU 0 instructions: 50000001 cycles: 13983182 heartbeat IPC: 3.5757 cumulative IPC: 3.57572 (Simulation time: 0 hr 8 min 14 sec) 

Warmup complete CPU 0 instructions: 50000001 cycles: 13983182 (Simulation time: 0 hr 8 min 14 sec) 

Cycle: 20000000 FTQ IN: 58013755 FTQ occupancy: 19.1901 DECODE IN: 58013609 DECODE occupancy: 49.6628 ROB IN: 58013549 ROB occupancy: 304.509 ROB OUT: 58013197
Heartbeat_Variant_0 : 1381 0.168579 per_variant_size: 0 1381 0 0 0 0 0 0 0 
Heartbeat_Variant_1 : 1485 0.181274 per_variant_size: 0 983 502 0 0 0 0 0 0 
Heartbeat_Variant_2 : 1556 0.189941 per_variant_size: 0 799 488 229 40 0 0 0 0 
Heartbeat_Variant_3 : 0 0 per_variant_size: 0 0 0 0 0 0 0 0 0 
Heartbeat_Variant_0_evicts 0 : 7324 1 : 699 2 : 1529 3 : 0 
Heartbeat_Variant_1_evicts 0 : 754 1 : 0 2 : 548 3 : 0 
Heartbeat_Variant_2_evicts 0 : 1474 1 : 595 2 : 0 3 : 0 
Heartbeat_Variant_3_evicts 0 : 0 1 : 0 2 : 0 3 : 0 
Heartbeat CPU 0 instructions: 60000000 cycles: 21498374 heartbeat IPC: 1.33064 cumulative IPC: 1.33064 (Simulation time: 0 hr 9 min 56 sec) 
Heartbeat_Variant_0 : 1381 0.168579 per_variant_size: 0 1381 0 0 0 0 0 0 0 
Heartbeat_Variant_1 : 1483 0.18103 per_variant_size: 0 984 499 0 0 0 0 0 0 
Heartbeat_Variant_2 : 1558 0.190186 per_variant_size: 0 803 486 228 41 0 0 0 0 
Heartbeat_Variant_3 : 0 0 per_variant_size: 0 0 0 0 0 0 0 0 0 
Heartbeat_Variant_0_evicts 0 : 7371 1 : 735 2 : 1418 3 : 0 
Heartbeat_Variant_1_evicts 0 : 674 1 : 0 2 : 624 3 : 0 
Heartbeat_Variant_2_evicts 0 : 1479 1 : 565 2 : 0 3 : 0 
Heartbeat_Variant_3_evicts 0 : 0 1 : 0 2 : 0 3 : 0 
Heartbeat CPU 0 instructions: 70000000 cycles: 28886861 heartbeat IPC: 1.35346 cumulative IPC: 1.34195 (Simulation time: 0 hr 11 min 35 sec) 
Cycle: 30000000 FTQ IN: 13494211 FTQ occupancy: 10.2583 DECODE IN: 13494357 DECODE occupancy: 25.5937 ROB IN: 13494402 ROB occupancy: 200.985 ROB OUT: 13494406
Heartbeat_Variant_0 : 1383 0.168823 per_variant_size: 0 1383 0 0 0 0 0 0 0 
Heartbeat_Variant_1 : 1491 0.182007 per_variant_size: 0 988 503 0 0 0 0 0 0 
Heartbeat_Variant_2 : 1562 0.190674 per_variant_size: 0 802 491 228 41 0 0 0 0 
Heartbeat_Variant_3 : 0 0 per_variant_size: 0 0 0 0 0 0 0 0 0 
Heartbeat_Variant_0_evicts 0 : 7410 1 : 737 2 : 1436 3 : 0 
Heartbeat_Variant_1_evicts 0 : 671 1 : 0 2 : 634 3 : 0 
Heartbeat_Variant_2_evicts 0 : 1501 1 : 568 2 : 0 3 : 0 
Heartbeat_Variant_3_evicts 0 : 0 1 : 0 2 : 0 3 : 0 
Heartbeat CPU 0 instructions: 80000002 cycles: 36373012 heartbeat IPC: 1.3358 cumulative IPC: 1.33989 (Simulation time: 0 hr 13 min 14 sec) 
Cycle: 40000000 FTQ IN: 13377901 FTQ occupancy: 10.4112 DECODE IN: 13377901 DECODE occupancy: 25.7611 ROB IN: 13377916 ROB occupancy: 200.572 ROB OUT: 13378253
Heartbeat_Variant_0 : 1389 0.169556 per_variant_size: 0 1389 0 0 0 0 0 0 0 
Heartbeat_Variant_1 : 1492 0.182129 per_variant_size: 0 991 501 0 0 0 0 0 0 
Heartbeat_Variant_2 : 1556 0.189941 per_variant_size: 0 792 493 230 41 0 0 0 0 
Heartbeat_Variant_3 : 0 0 per_variant_size: 0 0 0 0 0 0 0 0 0 
Heartbeat_Variant_0_evicts 0 : 7495 1 : 755 2 : 1514 3 : 0 
Heartbeat_Variant_1_evicts 0 : 720 1 : 0 2 : 650 3 : 0 
Heartbeat_Variant_2_evicts 0 : 1543 1 : 614 2 : 0 3 : 0 
Heartbeat_Variant_3_evicts 0 : 0 1 : 0 2 : 0 3 : 0 
Heartbeat CPU 0 instructions: 90000001 cycles: 43788729 heartbeat IPC: 1.34849 cumulative IPC: 1.34203 (Simulation time: 0 hr 14 min 50 sec) 
Cycle: 50000000 FTQ IN: 13524540 FTQ occupancy: 10.2422 DECODE IN: 13524401 DECODE occupancy: 25.4854 ROB IN: 13524341 ROB occupancy: 199.109 ROB OUT: 13524000
Heartbeat_Variant_0 : 1388 0.169434 per_variant_size: 0 1388 0 0 0 0 0 0 0 
Heartbeat_Variant_1 : 1492 0.182129 per_variant_size: 0 990 502 0 0 0 0 0 0 
Heartbeat_Variant_2 : 1557 0.190063 per_variant_size: 0 791 495 230 41 0 0 0 0 
Heartbeat_Variant_3 : 0 0 per_variant_size: 0 0 0 0 0 0 0 0 0 
Heartbeat_Variant_0_evicts 0 : 7409 1 : 738 2 : 1497 3 : 0 
Heartbeat_Variant_1_evicts 0 : 720 1 : 0 2 : 632 3 : 0 
Heartbeat_Variant_2_evicts 0 : 1516 1 : 614 2 : 0 3 : 0 
Heartbeat_Variant_3_evicts 0 : 0 1 : 0 2 : 0 3 : 0 
Heartbeat CPU 0 instructions: 100000001 cycles: 51257246 heartbeat IPC: 1.33895 cumulative IPC: 1.34142 (Simulation time: 0 hr 16 min 33 sec) 
Finished CPU 0 instructions: 50000000 cycles: 37274064 cumulative IPC: 1.34142 (Simulation time: 0 hr 16 min 33 sec) 

ChampSim completed all CPUs

Region of Interest Statistics

CPU 0 cumulative IPC: 1.34142 instructions: 50000000 cycles: 37274064
 Fetch stage stalled: 60.6419  Sim cycles: 37274064 fetch stall cycle: 22603700
 Empty decode stage: 48.0205  Sim cycles: 37274064 fetch stall cycle: 17899195
ITLB TOTAL     ACCESS:    5802350  HIT:    5309508  MISS:     492842  HIT %:    91.5062  MISS %:    8.49383   MPKI: 9.85684
ITLB LOAD TRANSLATION INSTRUCTION	ACCESS:    5683625  HIT:    5190783  MISS:     492842  HIT %:    91.3287  MISS %:    8.67126  MPKI: 9.85684
ITLB TRANSLATION FROM L1D PREFETCHER INSTRUCTION	ACCESS:     118725  HIT:     118725  MISS:          0  HIT %:        100  MISS %:          0  MPKI: 0

ITLB AVERAGE MISS LATENCY: 9.05796 cycles
ITLB RQ	ACCESS:    7882841	FORWARD:          0	MERGED:    1633210	TO_CACHE:    6249631

DTLB TOTAL     ACCESS:    9038255  HIT:    8568709  MISS:     469546  HIT %:    94.8049  MISS %:     5.1951   MPKI: 9.39092
DTLB LOAD TRANSLATION DATA	ACCESS:    9038255  HIT:    8568709  MISS:     469546  HIT %:    94.8049  MISS %:     5.1951  MPKI: 9.39092

DTLB AVERAGE MISS LATENCY: 9.3296 cycles
DTLB RQ	ACCESS:   13392579	FORWARD:          0	MERGED:    4317080	TO_CACHE:    9075499

STLB TOTAL     ACCESS:    1212695  HIT:    1210592  MISS:       2103  HIT %:    99.8266  MISS %:   0.173415   MPKI: 0.04206
STLB LOAD TRANSLATION INSTRUCTION	ACCESS:     492842  HIT:     492553  MISS:        289  HIT %:    99.9414  MISS %:  0.0586395  MPKI: 0.00578
STLB LOAD TRANSLATION DATA	ACCESS:     469512  HIT:     467727  MISS:       1785  HIT %:    99.6198  MISS %:   0.380182  MPKI: 0.0357
STLB TRANSLATION FROM L1D PREFETCHER DATA	ACCESS:     250341  HIT:     250312  MISS:         29  HIT %:    99.9884  MISS %:  0.0115842  MPKI: 0.00058

STLB AVERAGE MISS LATENCY: 72.9482 cycles
STLB RQ	ACCESS:    1333437	FORWARD:          0	MERGED:     120703	TO_CACHE:    1212734

STLB Hit, L1D data hit: 0
STLB Hit, L2C data hit: 0
STLB Hit, LLC data hit: 0
STLB Hit, LLC data miss: 0
STLB STLB hints to L2: 0
L1D TOTAL     ACCESS:   13142533  HIT:   12024221  MISS:    1118312  HIT %:    91.4909  MISS %:    8.50911   MPKI: 22.3662
L1D LOAD DATA	ACCESS:    6602278  HIT:    5867859  MISS:     734419  HIT %:    88.8763  MISS %:    11.1237  MPKI: 14.6884
L1D RFO DATA	ACCESS:    6210090  HIT:    5922549  MISS:     287541  HIT %:    95.3698  MISS %:    4.63022  MPKI: 5.75082
L1D PREFETCH DATA	ACCESS:     330165  HIT:     233813  MISS:      96352  HIT %:     70.817  MISS %:     29.183  MPKI: 1.92704

L1D PREFETCH  REQUESTED:     742443  ISSUED:     742443  USEFUL:      35110  USELESS:      69004
L1D USEFUL LOAD PREFETCHES:      35110 PREFETCH ISSUED TO LOWER LEVEL:     104116  ACCURACY: 33.722
 TIMELY PREFETCHES:      35110 LATE PREFETCHES: 7746 DROPPED PREFETCHES: 8
L1D AVERAGE MISS LATENCY: 227939 cycles
L1D RQ	ACCESS:   10732358	FORWARD:          0	MERGED:    3934375	TO_CACHE:    6636999
L1D WQ	ACCESS:    6948049	FORWARD:     161327	MERGED:     192469	TO_CACHE:    6755580
L1D PQ	ACCESS:     371393	FORWARD:          0	MERGED:          0	TO_CACHE:     371050

L1D UNIQUE REGIONS ACCESSED: 0
L1D REGIONS CONFLICTS: 0
L1D Cross Page Prefetch Requests: 6852
L1D Same Page Prefetch Requests: 742263
L1D ROI Sum of L1D PQ occupancy: 4714573
L1D PREFETCHES PUSHED FROM L2C: 0
L1I TOTAL     ACCESS:    7123856  HIT:    4365736  MISS:    2758120  HIT %:    61.2833  MISS %:    38.7167   MPKI: 55.1624
L1I LOAD INSTRUCTION	ACCESS:    6492815  HIT:    3734695  MISS:    2758120  HIT %:    57.5204  MISS %:    42.4796  MPKI: 55.1624
L1I PREFETCH INSTRUCTION	ACCESS:     631041  HIT:     631041  MISS:          0  HIT %:        100  MISS %:          0  MPKI: 0

L1I PREFETCH  REQUESTED:    1482891  ISSUED:    1482891  USEFUL:          0  USELESS:          0
L1I USEFUL LOAD PREFETCHES:          0 PREFETCH ISSUED TO LOWER LEVEL:          0  ACCURACY: -nan
 TIMELY PREFETCHES:          0 LATE PREFETCHES: 0 DROPPED PREFETCHES: 0
L1I AVERAGE MISS LATENCY: 17.1076 cycles
L1I RQ	ACCESS:    9472832	FORWARD:          0	MERGED:    2671741	TO_CACHE:    6801091
L1I PQ	ACCESS:    1482891	FORWARD:          0	MERGED:     401141	TO_CACHE:    1081750

L1BTB TOTAL     ACCESS:    5669284  HIT:    2046227  MISS:    3623057  HIT %:    36.0932  MISS %:    63.9068   MPKI: 72.4611
L1BTB BRANCH_DIRECT_JUMP	ACCESS:     548085  HIT:     144931  MISS:     403154	AVERAGE STALL: 46.3937
L1BTB BRANCH_INDIRECT	ACCESS:     182935  HIT:      65983  MISS:     116952	AVERAGE STALL: 97.1113
L1BTB BRANCH_CONDITIONAL	ACCESS:    2709626  HIT:    1419049  MISS:    1290577	AVERAGE STALL: 47.8952
L1BTB BRANCH_DIRECT_CALL	ACCESS:     943097  HIT:     105166  MISS:     837931	AVERAGE STALL: 52.2037
L1BTB BRANCH_INDIRECT_CALL	ACCESS:     171217  HIT:      21005  MISS:     150212	AVERAGE STALL: 121.586
L1BTB BRANCH_RETURN	ACCESS:    1114324  HIT:     290093  MISS:     824231	AVERAGE STALL: 44.0454
L1BTB BRANCH_OTHER ACCESS:          0  HIT:          0  MISS:          0	AVERAGE STALL: -nan
L1BTB TOTAL ROB OCCUPANCY AT BTB MISS: 6.63364

L2BTB TOTAL     ACCESS:    3597643  HIT:    3447993  MISS:     149650  HIT %:    95.8403  MISS %:    4.15967   MPKI: 2.993
L2BTB BRANCH_DIRECT_JUMP	ACCESS:     398972  HIT:     384237  MISS:      14735	AVERAGE STALL: 46.3937
L2BTB BRANCH_INDIRECT	ACCESS:     106697  HIT:     103543  MISS:       3154	AVERAGE STALL: 97.1113
L2BTB BRANCH_CONDITIONAL	ACCESS:    1290577  HIT:    1235898  MISS:      54679	AVERAGE STALL: 47.8952
L2BTB BRANCH_DIRECT_CALL	ACCESS:     837931  HIT:     817978  MISS:      19953	AVERAGE STALL: 52.2037
L2BTB BRANCH_INDIRECT_CALL	ACCESS:     140643  HIT:     128442  MISS:      12201	AVERAGE STALL: 121.586
L2BTB BRANCH_RETURN	ACCESS:     822823  HIT:     777895  MISS:      44928	AVERAGE STALL: 44.0454
L2BTB BRANCH_OTHER ACCESS:          0  HIT:          0  MISS:          0	AVERAGE STALL: -nan
L2BTB TOTAL ROB OCCUPANCY AT BTB MISS: 160.602

L2C TOTAL     ACCESS:    4487217  HIT:    4020103  MISS:     467114  HIT %:    89.5901  MISS %:    10.4099   MPKI: 9.34228
L2C LOAD INSTRUCTION	ACCESS:    2758119  HIT:    2508948  MISS:     249171  HIT %:    90.9659  MISS %:    9.03409  MPKI: 4.98342
L2C LOAD TRANSLATION INSTRUCTION	ACCESS:        326  HIT:         68  MISS:        258  HIT %:    20.8589  MISS %:    79.1411  MPKI: 0.00516
L2C LOAD DATA	ACCESS:     726654  HIT:     648628  MISS:      78026  HIT %:    89.2623  MISS %:    10.7377  MPKI: 1.56052
L2C RFO DATA	ACCESS:     287492  HIT:     238302  MISS:      49190  HIT %:      82.89  MISS %:      17.11  MPKI: 0.9838
L2C PREFETCH DATA	ACCESS:     190410  HIT:     114757  MISS:      75653  HIT %:    60.2684  MISS %:    39.7316  MPKI: 1.51306
L2C WRITEBACK DATA	ACCESS:     522303  HIT:     508853  MISS:      13450  HIT %:    97.4249  MISS %:    2.57513  MPKI: 0.269
L2C LOAD TRANSLATION DATA	ACCESS:       1855  HIT:        512  MISS:       1343  HIT %:    27.6011  MISS %:    72.3989  MPKI: 0.02686
L2C TRANSLATION FROM L1D PREFETCHER DATA	ACCESS:         58  HIT:         35  MISS:         23  HIT %:    60.3448  MISS %:    39.6552  MPKI: 0.00046

L2C PREFETCH  REQUESTED:      93807  ISSUED:      93807  USEFUL:       8445  USELESS:      67827
L2C USEFUL LOAD PREFETCHES:       8445 PREFETCH ISSUED TO LOWER LEVEL:      76052  ACCURACY: 11.1042
 TIMELY PREFETCHES:       8445 LATE PREFETCHES: 399 DROPPED PREFETCHES: 0
L2C AVERAGE MISS LATENCY: 39.392 cycles
L2C RQ	ACCESS:    3774556	FORWARD:          0	MERGED:          0	TO_CACHE:    3774507
L2C WQ	ACCESS:     522303	FORWARD:         49	MERGED:          0	TO_CACHE:     522303
L2C PQ	ACCESS:     197923	FORWARD:          0	MERGED:       3678	TO_CACHE:     194245

L2C Dense regions hint from L2: 0
PSCL5 TOTAL     ACCESS:       4232  HIT:       2116  MISS:       2116  HIT %:         50  MISS %:         50   MPKI: 0.04232
PSCL5 LOAD TRANSLATION INSTRUCTION	ACCESS:       4120  HIT:       2060  MISS:       2060  HIT %:         50  MISS %:         50  MPKI: 0.0412
PSCL5 TRANSLATION FROM L1D PREFETCHER INSTRUCTION	ACCESS:        112  HIT:         56  MISS:         56  HIT %:         50  MISS %:         50  MPKI: 0.00112


PSCL4 TOTAL     ACCESS:       3888  HIT:       1939  MISS:       1949  HIT %:    49.8714  MISS %:    50.1286   MPKI: 0.03898
PSCL4 LOAD TRANSLATION INSTRUCTION	ACCESS:       2397  HIT:       1887  MISS:        510  HIT %:    78.7234  MISS %:    21.2766  MPKI: 0.0102
PSCL4 TRANSLATION FROM L1D PREFETCHER INSTRUCTION	ACCESS:         70  HIT:         52  MISS:         18  HIT %:    74.2857  MISS %:    25.7143  MPKI: 0.00036
PSCL4 LOAD TRANSLATION DATA	ACCESS:       1387  HIT:          0  MISS:       1387  HIT %:          0  MISS %:        100  MPKI: 0.02774
PSCL4 TRANSLATION FROM L1D PREFETCHER DATA	ACCESS:         34  HIT:          0  MISS:         34  HIT %:          0  MISS %:        100  MPKI: 0.00068


PSCL3 TOTAL     ACCESS:       3922  HIT:       1956  MISS:       1966  HIT %:    49.8725  MISS %:    50.1275   MPKI: 0.03932
PSCL3 LOAD TRANSLATION INSTRUCTION	ACCESS:       2414  HIT:       1904  MISS:        510  HIT %:    78.8732  MISS %:    21.1268  MPKI: 0.0102
PSCL3 TRANSLATION FROM L1D PREFETCHER INSTRUCTION	ACCESS:         70  HIT:         52  MISS:         18  HIT %:    74.2857  MISS %:    25.7143  MPKI: 0.00036
PSCL3 LOAD TRANSLATION DATA	ACCESS:       1404  HIT:          0  MISS:       1404  HIT %:          0  MISS %:        100  MPKI: 0.02808
PSCL3 TRANSLATION FROM L1D PREFETCHER DATA	ACCESS:         34  HIT:          0  MISS:         34  HIT %:          0  MISS %:        100  MPKI: 0.00068


PSCL2 TOTAL     ACCESS:       4128  HIT:       2012  MISS:       2116  HIT %:    48.7403  MISS %:    51.2597   MPKI: 0.04232
PSCL2 LOAD TRANSLATION INSTRUCTION	ACCESS:       2245  HIT:       1958  MISS:        287  HIT %:     87.216  MISS %:     12.784  MPKI: 0.00574
PSCL2 TRANSLATION FROM L1D PREFETCHER INSTRUCTION	ACCESS:         54  HIT:         54  MISS:          0  HIT %:        100  MISS %:          0  MPKI: 0
PSCL2 LOAD TRANSLATION DATA	ACCESS:       1775  HIT:          0  MISS:       1775  HIT %:          0  MISS %:        100  MPKI: 0.0355
PSCL2 TRANSLATION FROM L1D PREFETCHER DATA	ACCESS:         54  HIT:          0  MISS:         54  HIT %:          0  MISS %:        100  MPKI: 0.00108


LLC TOTAL     ACCESS:     526123  HIT:     496373  MISS:      29750  HIT %:    94.3454  MISS %:    5.65457   MPKI: 0.595
LLC LOAD INSTRUCTION	ACCESS:     249171  HIT:     248037  MISS:       1134  HIT %:    99.5449  MISS %:   0.455109  MPKI: 0.02268
LLC LOAD TRANSLATION INSTRUCTION	ACCESS:        258  HIT:        226  MISS:         32  HIT %:    87.5969  MISS %:    12.4031  MPKI: 0.00064
LLC LOAD DATA	ACCESS:      77661  HIT:      74310  MISS:       3351  HIT %:    95.6851  MISS %:    4.31491  MPKI: 0.06702
LLC RFO DATA	ACCESS:      49142  HIT:      33863  MISS:      15279  HIT %:    68.9085  MISS %:    31.0915  MPKI: 0.30558
LLC PREFETCH DATA	ACCESS:      76052  HIT:      66587  MISS:       9465  HIT %:    87.5546  MISS %:    12.4454  MPKI: 0.1893
LLC WRITEBACK DATA	ACCESS:      72473  HIT:      72060  MISS:        413  HIT %:    99.4301  MISS %:   0.569867  MPKI: 0.00826
LLC LOAD TRANSLATION DATA	ACCESS:       1343  HIT:       1268  MISS:         75  HIT %:    94.4155  MISS %:    5.58451  MPKI: 0.0015
LLC TRANSLATION FROM L1D PREFETCHER DATA	ACCESS:         23  HIT:         22  MISS:          1  HIT %:    95.6522  MISS %:    4.34783  MPKI: 2e-05

LLC AVERAGE MISS LATENCY: 159.49 cycles
LLC RQ	ACCESS:     377612	FORWARD:          0	MERGED:          0	TO_CACHE:     377598
LLC WQ	ACCESS:      72473	FORWARD:         14	MERGED:          0	TO_CACHE:      72473
LLC PQ	ACCESS:      76052	FORWARD:          0	MERGED:          0	TO_CACHE:      76052

LLC Dense regions hint to LLC: 0

RAW hits: 1908567
Loads Generated: 12640928
Loads sent to L1D: 10732358
Stores Generated: 6948049
Stores sent to L1D: 6948049
Major fault: 0 Minor fault: 2534
Allocated PAGES: 2534

stream: 
stream:times selected: 1179010
stream:pref_filled: 122619
stream:pref_useful: 24395
stream:pref_late: 6947
stream:misses: 8075
stream:misses_by_poll: 0

CS: 
CS:times selected: 177618
CS:pref_filled: 60003
CS:pref_useful: 36927
CS:pref_late: 7009
CS:misses: 16660
CS:misses_by_poll: 11

CPLX: 
CPLX:times selected: 1000273
CPLX:pref_filled: 19370
CPLX:pref_useful: 4467
CPLX:pref_late: 3186
CPLX:misses: 93666
CPLX:misses_by_poll: 5

NL_L1: 
NL:times selected: 21118
NL:pref_filled: 772
NL:pref_useful: 361
NL:pref_late: 290
NL:misses: 1882
NL:misses_by_poll: 0

total selections: 2378019
total_filled: 96352
total_useful: 35110
total_late: 18642
total_polluted: 16
total_misses_after_warmup: 769152
conflicts: 5549423

test: 117362

DRAM Statistics
 CHANNEL 0
 RQ ROW_BUFFER_HIT:      11050  ROW_BUFFER_MISS:      18265
 DBUS_CONGESTED:          6
 WQ ROW_BUFFER_HIT:       1545  ROW_BUFFER_MISS:      12722  FULL:          0

 AVG_CONGESTED_CYCLE: 5

CPU 0 Branch Prediction Accuracy: 99.8221% MPKI: 0.32524 Average ROB Occupancy at Mispredict: 172.331
Branch types
NOT_BRANCH: 40858443 81.7169%
BRANCH_DIRECT_JUMP: 548085 1.09617%
BRANCH_INDIRECT: 182935 0.36587%
BRANCH_CONDITIONAL: 6181728 12.3635%
BRANCH_DIRECT_CALL: 943097 1.88619%
BRANCH_INDIRECT_CALL: 171217 0.342434%
BRANCH_RETURN: 1114324 2.22865%
BRANCH_OTHER: 0 0%

DRAM PAGES: 1048576
Allocated PAGES: 2534
Average_ROB_Occupancy: 201.529
Average_Decode_Occupancy: 25.6107
Average_FTQ_Occupancy: 10.3395
Indirect max targets: 14 Average targets: 1.14576
Branch_type:  BRANCH_DIRECT_JUMP:  Count Percentage: 4.13226 5.71712 3.64592 3.3248 10.5588 2.55252 2.64107 67.4276 
Branch_type:  BRANCH_INDIRECT:  Count Percentage: 11.7662 3.38803 2.50537 0 13.0306 2.81714 2.95616 63.5365 
Branch_type:  BRANCH_CONDITIONAL:  Count Percentage: 24.9968 3.18409 5.33892 2.69917 5.26438 2.43865 3.81636 52.2616 
Branch_type:  BRANCH_DIRECT_CALL:  Count Percentage: 0.38691 1.79199 1.13215 2.51959 4.89493 2.339 4.43138 82.5041 
Branch_type:  BRANCH_INDIRECT_CALL:  Count Percentage: 9.54083 0 2.99136 6.37671 0 2.80816 3.84641 74.4365 
Branch_type:  BRANCH_RETURN:  Count Percentage: 7.87377 2.14446 5.80008 2.84991 5.18647 3.63426 4.27391 68.2371 
Branch_type:  BRANCH_DIRECT_JUMP:  Total Count: 45219 62562 39897 36383 115544 27932 28901 737855 
Branch_type:  BRANCH_INDIRECT:  Total Count: 42911 12356 9137 0 47522 10274 10781 231715 
Branch_type:  BRANCH_CONDITIONAL:  Total Count: 3087214 393249 659380 333360 650175 301184 471338 6454546 
Branch_type:  BRANCH_DIRECT_CALL:  Total Count: 7325 33926 21434 47701 92671 44282 83895 1561970 
Branch_type:  BRANCH_INDIRECT_CALL:  Total Count: 32861 0 10303 21963 0 9672 13248 256378 
Branch_type:  BRANCH_RETURN:  Total Count: 176248 48002 129830 63793 116095 81350 95668 1527433 
Number of unique branch instructions: 9822
Upper 32 bits: 
aaaa
ffff
ffff0000
Unique upper 32 bits: 3
Unique upper 36 bits: 3
Unique upper 40 bits: 5
Unique upper 44 bits: 32
Unique upper 48 bits: 154
Variant_0 : 1388 0.169434
Variant_1 : 1492 0.182129
Variant_2 : 1557 0.190063
Variant_3 : 0 0
Offset_3 4037
Offset_4 250
Offset_5 448
Offset_6 501
Offset_7 577
Offset_8 502
Offset_9 469
Offset_10 378
Offset_11 303
Offset_12 272
Offset_13 199
Offset_14 228
Offset_15 184
Offset_16 223
Offset_17 143
Offset_18 118
Offset_19 238
Offset_20 137
Offset_21 235
Offset_22 392
Offset_23 243
Offset_24 325
Offset_25 88
Offset_47 80
decode_dispatch_called: 22929914 61.5171
Dispatch_width: 0 12116728 52.8424 32.5071
Dispatch_width: 1 727688 3.17353 1.95226
Dispatch_width: 2 699216 3.04936 1.87588
Dispatch_width: 3 445735 1.9439 1.19583
Dispatch_width: 4 3440011 15.0023 9.22897
Dispatch_width: 5 226640 0.988403 0.608037
Dispatch_width: 6 5273896 23.0001 14.149
Empty_decode_cycles: 14344150 38.4829
ROB_full_cycles: 5526969 14.8279
Starvation_cycles_per_kilo_instr: 264.732
Starvation_cycles_per_kilo_instr_3: 228.065
Starvation_cycles_per_kilo_instr_0: 209.339
Branch_type_1  (3,1)  (4,9)  (5,37)  (6,69)  (7,112)  (8,129)  (9,122)  (10,97)  (11,67)  (12,43)  (13,5)  (14,2)  (15,3)  (16,4)  (18,1)  (19,4)  (20,2)  (21,1)  (22,3)  (23,2)  (24,10)  (25,12) 
Branch_type_2  (3,1)  (5,1)  (8,3)  (9,3)  (12,1)  (13,1)  (14,1)  (16,3)  (17,2)  (20,2)  (21,2)  (23,5)  (24,1)  (47,36) 
Branch_type_3  (3,4035)  (4,241)  (5,406)  (6,417)  (7,435)  (8,309)  (9,258)  (10,152)  (11,122)  (12,50)  (13,4) 
Branch_type_4  (6,3)  (7,8)  (8,25)  (9,53)  (10,62)  (11,58)  (12,98)  (13,86)  (14,100)  (15,86)  (16,100)  (17,64)  (18,53)  (19,116)  (20,72)  (21,124)  (22,208)  (23,137)  (24,185)  (25,72) 
Branch_type_5  (8,2)  (9,1)  (10,3)  (11,5)  (12,3)  (13,14)  (14,16)  (15,11)  (16,20)  (17,11)  (18,16)  (19,12)  (20,10)  (21,13)  (22,42)  (23,26)  (24,38) 
Branch_type_6  (5,4)  (6,12)  (7,22)  (8,34)  (9,32)  (10,64)  (11,51)  (12,77)  (13,89)  (14,109)  (15,84)  (16,96)  (17,66)  (18,48)  (19,106)  (20,51)  (21,95)  (22,139)  (23,73)  (24,91)  (25,4)  (47,44) 
Unique trigger count: 
Variant_0_evicts_0 : 0
Variant_0_evicts_1 : 0
Variant_0_evicts_2 : 0
Variant_0_evicts_3 : 0
Variant_1_evicts_0 : 0
Variant_1_evicts_1 : 0
Variant_1_evicts_2 : 0
Variant_1_evicts_3 : 0
Variant_2_evicts_0 : 0
Variant_2_evicts_1 : 0
Variant_2_evicts_2 : 0
Variant_2_evicts_3 : 0
Variant_3_evicts_0 : 0
Variant_3_evicts_1 : 0
Variant_3_evicts_2 : 0
Variant_3_evicts_3 : 0
BTB PER SET UNIQUE ADDR: 2 4 3 2 2 0 3 2 4 0 2 1 5 3 1 3 3 2 3 4 3 4 2 4 4 5 1 4 3 2 6 6 4 2 4 2 1 5 5 2 3 4 3 6 6 2 4 4 6 3 3 2 3 1 0 4 4 3 3 3 1 4 2 3 1 4 5 2 3 5 5 1 1 4 2 3 3 6 1 3 2 3 1 4 3 3 2 5 3 3 6 4 3 5 2 0 3 3 1 3 3 2 3 3 2 2 1 3 3 2 2 1 3 6 2 6 2 4 4 1 4 4 2 0 1 2 2 1 6 4 5 2 4 1 5 3 2 1 3 3 4 3 3 2 1 4 2 5 3 3 3 8 3 5 2 0 3 3 3 2 3 5 3 4 4 3 2 2 8 1 2 2 4 2 1 1 3 3 5 1 3 3 6 3 4 5 3 1 2 3 5 3 3 4 4 4 2 3 2 5 3 2 4 1 3 3 2 4 2 1 2 4 5 4 3 2 3 5 4 0 1 1 2 3 3 2 3 3 0 3 7 3 3 1 3 3 3 2 1 2 1 0 5 3 9 6 1 1 3 3 2 2 1 3 2 6 3 4 4 3 4 4 4 2 3 6 3 1 4 2 3 2 2 3 4 2 1 1 2 3 4 2 6 2 5 5 3 3 1 1 0 3 1 5 1 1 5 3 1 2 3 3 1 2 3 2 4 2 6 5 3 1 3 2 5 1 6 6 2 2 3 7 3 4 2 3 1 6 1 1 4 0 2 4 5 2 2 2 5 0 3 0 1 4 4 2 1 2 3 3 3 5 4 3 5 3 2 0 4 1 3 4 2 4 6 5 1 1 2 1 2 2 2 5 4 4 3 3 3 4 5 3 2 5 3 2 5 2 4 1 5 4 4 2 3 1 5 0 1 3 4 2 3 2 2 4 3 2 1 1 2 2 4 3 2 2 5 3 1 3 1 1 3 4 3 3 2 0 2 4 1 2 8 4 5 5 3 3 3 0 2 5 5 3 4 6 2 3 3 2 4 3 1 2 5 1 1 3 7 2 3 4 4 6 1 3 4 2 2 3 0 4 4 2 2 1 4 5 1 1 2 1 3 2 1 4 3 1 5 1 4 2 4 4 0 5 4 4 2 1 5 2 1 1 1 2 2 2 2 3 3 2 2 6 2 1 2 5 4 4 3 5 4 2 5 5 0 5 6 3 4 3 3 6 3 4 1 1 4 1 2 5 6 2 5 2 7 3 5 9 3 6 3 5 1 3 3 1 2 3 7 2 5 2 2 1 4 2 2 7 4 2 3 8 3 2 3 3 1 5 4 2 1 0 1 0 0 9 3 2 5 6 1 1 2 3 5 2 2 1 4 2 4 6 1 4 3 4 2 2 5 2 2 2 2 1 2 0 3 1 5 3 6 2 2 3 2 5 2 3 5 4 3 2 4 2 2 3 2 2 7 1 4 3 0 0 3 3 3 3 3 2 4 2 3 0 4 3 2 3 5 2 5 4 5 4 5 2 1 4 5 3 4 3 5 5 3 3 3 2 3 2 4 2 5 3 5 3 4 3 1 4 2 2 2 3 6 4 5 3 0 6 0 3 3 2 3 1 3 1 3 3 3 1 2 1 7 2 0 3 2 0 1 1 1 1 1 4 2 4 5 4 2 1 2 4 4 3 3 2 1 3 2 4 2 1 3 2 2 2 0 2 1 3 2 2 2 6 4 1 3 3 1 5 4 4 8 2 2 2 4 3 0 3 3 4 4 2 1 3 3 4 0 3 9 6 3 3 0 2 2 4 1 1 4 7 7 3 2 2 5 3 5 3 4 3 3 3 1 2 1 3 4 0 4 3 1 2 0 4 4 2 4 2 2 1 2 2 4 4 3 1 3 2 5 2 2 1 5 2 2 1 3 3 1 4 6 4 4 2 6 2 5 4 4 5 3 2 5 4 3 6 2 1 9 3 2 4 5 3 1 3 3 6 4 0 2 2 5 4 3 4 3 3 5 3 2 2 2 4 4 2 3 3 3 1 6 3 1 1 5 2 1 3 4 5 3 5 3 4 5 4 0 3 1 5 0 0 5 2 5 3 5 3 4 1 3 2 5 6 4 4 8 7 5 4 6 4 1 6 4 2 0 4 4 5 5 5 3 2 6 0 5 5 2 3 6 5 4 2 2 2 4 5 2 5 9 4 6 3 2 3 0 4 5 1 6 5 1 3 6 5 3 5 2 1 2 2 3 2 5 4 2 7 4 3 4 5 3 5 1 2 4 2 2 5 4 3 2 3 5 2 4 3 5 2 5 2 2 3 5 2 9 5 2 3 3 2 2 3 3 7 6 2 3 2 3 2 2 1 3 2 4 4 1 4 5 5 4 6 0 3 3 3 3 4 2 1 3 2 3 1 2 1 4 1 3 3 3 5 2 8 5 3 2 1 9 1 2 4 1 2 5 5 3 6 3 4 5 5 2 5 2 1 1 1 5 0 4 4 3 7 4 1 7 4 6 2 4 4 5 3 5 7 4 4 6 1 4 4 7 4 3 3 4 3 6 6 2 5 5 6 4 3 5 3 1 2 3 5 1 3 2 1 3 4 2 2 5 2 2 5 4 1 5 1 6 3 3 2 3 1 3 4 3 4 3 4 2 6 1 3 6 3 3 3 3 5 2 8 3 5 3 8 6 1 6 1 5 2 1 2 4 3 2 1 3 4 2 1 2 1 4 3 3 3 2 3 2 5 2 4 4 5 0 5 3 2 2 6 8 0 6 0 1 4 5 2 5 1 3 3 4 1 1 2 4 5 3 4 1 4 4 6 5 1 4 3 3 6 10 4 2 6 6 6 1 1 3 5 6 3 2 2 4 3 4 4 5 3 1 4 2 2 6 8 5 3 3 6 1 2 5 2 4 1 3 2 6 8 3 3 3 3 4 4 2 5 5 5 4 2 1 5 3 2 4 3 4 3 4 4 6 3 5 4 3 5 5 3 1 7 4 4 3 3 3 2 3 3 2 2 5 4 3 2 5 1 1 3 3 8 5 1 3 4 2 3 3 3 4 3 2 1 3 2 4 2 5 3 3 4 2 1 2 6 1 4 2 4 3 4 5 1 1 4 4 3 3 3 5 2 3 4 4 5 4 4 4 3 3 2 2 3 5 2 4 2 3 0 7 3 2 6 4 4 5 7 3 2 3 3 1 2 4 1 4 2 4 2 0 6 1 5 1 2 3 3 3 2 4 2 3 2 3 1 5 1 0 3 4 1 1 3 1 4 2 3 6 3 1 2 2 3 2 2 6 2 3 5 3 3 3 3 2 2 3 0 2 2 2 3 2 1 2 0 4 0 4 2 3 3 3 3 2 1 2 4 4 2 7 1 3 3 2 2 4 5 2 2 5 0 1 2 3 1 1 2 3 3 5 3 1 1 5 3 1 4 1 6 1 4 2 3 6 2 2 2 1 3 3 1 1 3 4 1 3 3 1 2 0 5 1 3 3 0 3 2 5 3 4 3 3 4 1 3 1 1 1 3 2 0 2 3 2 3 3 1 3 3 2 9 6 2 2 2 4 1 1 3 4 2 3 0 3 2 3 2 3 4 5 5 7 0 4 1 6 4 4 5 3 7 2 4 8 3 0 6 3 3 3 4 3 3 2 1 1 4 2 2 2 3 2 3 5 3 5 3 6 1 1 5 4 3 3 4 4 3 5 2 5 5 2 6 3 3 3 1 3 7 5 3 2 3 3 3 3 4 2 2 3 1 3 1 3 7 0 2 2 3 3 3 5 3 3 2 6 1 2 2 5 2 4 5 6 1 1 7 2 4 2 3 4 6 2 3 2 3 6 3 3 3 5 3 4 8 3 3 3 5 2 5 4 3 2 3 0 2 2 3 4 3 2 3 3 4 4 2 3 7 0 3 2 4 4 3 3 4 3 6 2 4 1 5 2 3 4 2 3 0 3 5 0 7 2 5 4 1 4 3 2 0 4 2 3 5 3 6 2 2 2 1 3 4 6 1 4 3 0 3 2 4 5 3 1 3 5 2 3 2 6 3 3 1 4 3 0 2 4 1 1 8 2 0 4 1 4 3 2 3 6 3 2 6 1 5 3 5 2 5 4 2 3 2 7 1 4 0 3 3 4 4 3 3 2 1 2 3 0 3 0 3 4 6 2 2 5 2 3 3 3 1 2 2 4 2 4 2 5 3 2 3 1 1 3 2 3 2 3 4 2 1 1 2 2 5 1 4 1 5 4 2 3 1 4 1 2 3 5 2 2 4 4 5 3 3 3 4 3 2 0 3 2 0 2 1 2 2 4 2 5 2 2 3 4 1 2 4 3 2 3 7 3 2 7 6 3 2 3 1 2 5 3 4 4 2 4 0 1 2 4 3 2 4 3 2 5 2 4 7 3 2 0 4 1 0 2 3 0 4 4 6 1 3 3 6 4 0 2 2 4 1 4 1 4 2 8 3 1 2 3 6 2 7 3 4 6 0 1 3 1 4 2 1 0 2 2 4 5 4 1 0 3 4 5 1 1 1 3 5 2 1 5 4 3 3 4 4 0 6 2 6 2 1 2 2 1 2 4 1 3 1 3 2 3 1 4 2 5 2 4 2 1 3 5 4 3 0 
BTB PER SET COUNT: 2 4 3 2 3 0 3 2 5 0 2 1 8 3 1 3 3 2 3 1475 3 5 2 4 5 6 1 5 1474 2 9 7 4 2 4 2 2944 5 9 2 3 4 4 1211 4926 2 4 5 7 3 3 2 3 1 0 4 4 3 3 3 1 4 2 3 1 364 471 2 3 7 889 1 1 4 3 4 483 737 1 3 2 3 1 5 4 4 2 8 3 3 14 512 3 5 3 0 3 5 1 3 3 2 7 3 2 2 1 3 3 2 2 1 4 10 2 6 2 5 4 1 4 4 2 0 1 2 2 1 9 6 967 2 4 2 7 3 2 1 3 3 4 10 3 2 1 948 2 5 3 3 3 65 3 5 2 0 3 5 963 2 3 8 965 4 4 1983 2 2 3434 1 2 2 4 2 1 1 3 4 996 1 3 3 9 3 4 7 3 1 2 3 6 4 5 4 4 5 4 3 2 5 3 4 5 1 4 3 2 1478 2 1 2 5 5 4 3 2 4 5 4 0 1 1 2 3 3 2 5 41 0 3 1166 3 3 1 3 3 3 2 1 2 1 0 6 3 12 8 1 1 3 3 2 2 1 4 2 6 3 4 4 3 4 4 4 2 1474 9 5 1 4 2 3 2 2 3 5 2 1 1 2 4 5 962 7 2 6 1447 3 3 1 1 0 1982 1 5 1 1 9 3 1 2 3 3 1 2 3 2 4 2 1929 5 3 1 3 2 5 1 6 11 2 3 4 8 4 4 2 4 1 8 1 1 965 0 2 4 1985 2 964 2 5 0 3 0 1 967 968 2 1 2 4 5 3 6 4 3 6 6 2 0 5 1 3 4 2 4 8 7 1 1 3 1 2 2 2 5 6 5 3 4 3 5 24 3 2 7 5 2 11 2 5 1 5 4 4 2 4 1 1477 0 1 3 5 2 3 2 2 4 1475 2 1 990 2 2 4 3 991 2 224 3 1 92 1 1 3 4 3 3 5 0 2 4 144 4 2662 7 9 5 4 3 3 0 2 7 8 3 5 22 3 3 3 2 5 3 1 2 5 1 1 3 978 3 3 4 4 8 1 3 4 2 2 3 0 5 2970 483 2 1 4 6 1 2 3 1 3 483 1 7 3 1 5 1 4 2 4 5 0 9 4 4 2 1 5 7 1 1 1 2 3 2 2 3 3 2 2 7 2 1 2 5 5 965 3 1477 6 2 8 7 0 5 6 4 4 3 3 9 3 967 3 1 7 1 3 5 10 7 969 3 8 4 7 2900 5 12 5 7 2 3 7 1 2 4 10 1983 6 2 2 1 6 2 2 972 4 4 3 1933 3 2 3 3 1 6 4 35 1 0 2 0 0 2292 3 2 9 12 1 1 991 4 6 2 3 1 7 4 6 6 1 4 3 6 3 2 6 2 2 2 2 1 1020 0 3 2 9 484 6 3 2 3 2 7 2 4 486 1475 3 9 4 2 2 3 2 2 1943 1 4 3 0 0 4 4 3 4 3 2 7 2 5 0 4 4 2 3 7796 2 14 4 7 5 2951 965 2 4 1022 3 4 6 5 970 3 3 9 2 3 2 8 965 9 4 5 1474 4 3 1 967 2 2 2 3 6 6 12 35 0 6 0 3 3 965 5 1 3 1 3 3 4 1 965 1 1486 2 0 3 2 0 1 1 1 1 1 961 3 4 1984 4 991 1 3 4 5 4 3 2 1 3 2 4 2 2 484 2 2 964 0 3 1 4 2 2 2 6 4 2 3 3 1 5 4 4 17 2 4 2 4 18 0 122 4 5 6 3 1 3 3 30 0 1984 732 10 3 4 0 2 2 1323 1 1 5 7 1085 3 3 2 5 3 8 964 1929 3 3 4 1 4 1 3 4 0 5 4 2 2 0 4 7 2 4 2 3 1 2 2 6 70 3 1 3 2 9 964 2 1 5 2 2 1 3 1476 1 10 2956 4 7 3 9 2 5 5 5 8 3 2 7 7 3 8 3 1 3173 992 2 5 7 6 1 3 3 14 9 0 2 2 5 4 3 5 5 4 10 3 2 2 2 5 5 2 3 5 3 2 9 4 1 1 5 2 1 51 5 5 3 5 3 7 5 4 0 3 1 5 0 0 7 3 10 3 5 3 6 1 3 2 5 966 7 486 2880 1534 5 4 63 8 1 8 5 2 0 994 4 5 5 253 3 2 6 0 7 5 3 3 9 10 6 2 2 484 4 9 4 8 27 8 6 5 2 3 0 363 5 1 995 5 1 3 968 9 484 8 2 3 3 2 3 2 5 964 2 968 5 3 4 1925 3 7 1 2 5 2 2 5 4 3 2 3 1931 2 2464 361 1692 5 9 4 2 3 724 2 1330 9 2 964 3 2 2 3 3 26 6 5 3 1981 3 2 2 4 964 2 4 5 1 4 7 5 4 6 0 3 4 3 1474 365 2 2 5 3 4 1 7 1 4 1 4 4 3 8 2 13 8 3 2 1 1989 1 2 4 1 2 6 93 3 11 3 4 5 6 2 5 2 1 1 1 8 0 965 4 3 10 4 1 7 4 15 2 487 4 7 4 5 633 4 5 6 1 5 4 10 4 3 3 4 3 6 951 2 5 5 1345 4 3 12 8 1 2 6 5 1 5 2 1 4 5 3 2 1748 2 2 6 6 1 5 1 7 3 3 2 3 1 4 5 3 9 3 4 2 9 1 3 6 3 3 3 4 7 2 13 5 966 3 972 9 1 996 1 14 2 1 2 485 967 2 1 4 144 3 1 2 481 4 3 3 3 2 3 2 1450 2 4 4 5 0 9 3 2 2 8 1010 0 10 0 1 7 5 3 8 1 3 1445 4 1 1 2 6 4899 4 4 1 5 5 6 5 1 4 3 3 9 16 1994 3 1482 6 10 1 1 4 5 8 4 2 2 5 3 4 4 5 3 1 4 2 2 11 360 7 3 4 9 1 2 5 2 4 1 3 2 7 1491 992 3 3 3 5 9 2 5 5 6 4 2 1 20 3 2 5 3 2944 3 7 4 8 3 5 5 964 5 2407 966 1 2089 4 4 3 4 3 2 3 3 2 2 6 4 4 2 5 1 1 3 4 1937 10 1 3 4 2 3 3 3 5 3 2 2 3 2 5 2 6 4 966 4 2 1 2 6 1 4 2 4 3 5 5 1 1 4 4 992 3 3 9 2 3 42 5 6 6 4 4 3 4 2 2 3 8 4 6 2 4 0 9 3 2 9 4 7 6 2701 3 2 3 3 1 3 6 2 5 3 965 2 0 11 2 6 1 2 4 3 3 2 1475 2 3 1351 3 1 514 1 0 3 4 1 3 1352 1 965 2 3 6 3 1 2 2 3 2 2 3372 4 4 11 5 3 3 5 2 2 4 0 4 963 2 992 2 1 2 0 6 0 4 2 3 3 3 3 964 1 7 12 30 2 2412 1 4 4 2 2 6 970 157 2 20613 0 1 2 3 1 1 2 3 3 267 389 1 1 6 4 1 4 1 425 1 4 2 4 39 3 2 2 1 3 3 1 1 3 4 1 3 3 1 2 0 3992 1 3 5 0 3 411 7 3 4 3 3 5 1 5 1 1 1 5 2 0 2 3 2 3 13 1 1020 3 2 64 6 2 2 2 4 1 1 6 996 3 3 0 3 2 3 2 3 4 5 8 7 0 1021 1 8 4 4 5 3 2411 2 7 4887 3 0 968 1474 3 3 4 5 5 2 1 1 994 3 2 2 3 2 4 6 4 5 3 2947 2887 1 6 4 3 11 7 5 3 7 2 967 8 2 7 3 1188 361 1 1474 15 5 174 4 3 3 3 3 4 2 11 4 1 3 1 3 7 0 3 2 4 3 3 487 3 3 2 14 1 2 2 8 2 1452 8 7 1 1 8 2 966 2 4 4 8 484 3 2 966 6 3 486 5 924 3 1927 6606 3 3 14723 972 3 1926 1478 3 2 964 0 2 2 3 4 3 3 4 3 4 5 2 160 11 0 2464 2 1475 162 3 3 4 3 6 2 728 1 5 2 3 5 2 1982 0 965 646 0 2420 2 8 4 1 4 3 2 0 4 2 6 5 3 8 2 2 3 1 3 5 9 1 5 543 0 3 2 4 965 1982 1 3 996 2 3 2 1046 4 4 1 5 3 0 2 15 1472 1 2655 2 0 4 1 4 4 2 5 6 4 451 8 1 5 3 5 230 965 114 2 3 2 1025 2 427 0 3 2943 4 7 3 5 2 1 2 512 0 4 0 3 6 10 2 2 1988 354 3 5 993 1 2 2 5 2 4 2 31 5 964 3 1 1 435 2 3 2 3 8 2 1 1 2 2 5 1 7 1 3992 4 2 3 4 4 2 2 3 5 2 2 966 4 5 3 4 3 5 4 3 0 3 3 0 2 1 2 2 4 8 5 2 2 3 4 1 2 4 3 2 3 19 5 2 1461 16 109 3 4 2 2 8 3 5 4 3 7 0 1 2 4 965 2 6 3 2 6 2 4 16 3 2 0 1983 1 0 2 3 0 4 2944 869 1 3 3 932 4 0 3 2 5 1 4 1 4 2 4158 3 1 3 3 498 8 970 3 5 5193 0 1 3 1 5 2 1 0 2 2 2946 5 4 2 0 3 4 7 1 1 1 3 7 2 1 7 4 3 5 4 5 0 25 2 6 8 1 2 2 1 2 8 1 3 1 3 2 4 1 4 2 386 2 4 2 1 3 1496 4 5 0 
To predecode: 0
Predecoding something: 0
Predecode request dropped: 0
sizeofblock_0 0
sizeofblock_1 115623
sizeofblock_2 82643
sizeofblock_3 61451
sizeofblock_4 5631
sizeofblock_5 0
sizeofblock_6 0
sizeofblock_7 0
sizeofblock_8 0
