
*** ChampSim Multicore Out-of-Order Simulator ***

Warmup Instructions: 50000000
Simulation Instructions: 50000000
Number of CPUs: 1
LLC sets: 2048
LLC ways: 16
Off-chip DRAM Size: 4096 MB Channels: 1 Width: 64-bit Data Rate: 6400 MT/s
CPU 0 runs ./micro_traces/srv67.trace.gz
.gz
ITLB has LRU replacement policy
DTLB has LRU replacement policy
STLB has LRU replacement policy
FDIP Prefetcher at L1I
L1I has LRU replacement policy
L1D has LRU replacement policy
Initialize SRRIP state for L2C
Initialize DRRIP state for LLC
Heartbeat_Variant_0 : 1295 0.316162 per_variant_size: 0 1295 0 0 0 0 0 0 0 
Heartbeat_Variant_1 : 2473 0.60376 per_variant_size: 0 598 1875 0 0 0 0 0 0 
Heartbeat_Variant_2 : 0 0 per_variant_size: 0 0 0 0 0 0 0 0 0 
Heartbeat_Variant_3 : 0 0 per_variant_size: 0 0 0 0 0 0 0 0 0 
Heartbeat_Variant_0_evicts 0 : 5697 1 : 377 2 : 0 3 : 0 
Heartbeat_Variant_1_evicts 0 : 353 1 : 0 2 : 0 3 : 0 
Heartbeat_Variant_2_evicts 0 : 0 1 : 0 2 : 0 3 : 0 
Heartbeat_Variant_3_evicts 0 : 0 1 : 0 2 : 0 3 : 0 
Heartbeat CPU 0 instructions: 10000000 cycles: 2794363 heartbeat IPC: 3.57863 cumulative IPC: 3.57863 (Simulation time: 0 hr 1 min 54 sec) 
Heartbeat_Variant_0 : 1353 0.330322 per_variant_size: 0 1353 0 0 0 0 0 0 0 
Heartbeat_Variant_1 : 2584 0.630859 per_variant_size: 0 519 2065 0 0 0 0 0 0 
Heartbeat_Variant_2 : 0 0 per_variant_size: 0 0 0 0 0 0 0 0 0 
Heartbeat_Variant_3 : 0 0 per_variant_size: 0 0 0 0 0 0 0 0 0 
Heartbeat_Variant_0_evicts 0 : 5792 1 : 350 2 : 0 3 : 0 
Heartbeat_Variant_1_evicts 0 : 347 1 : 0 2 : 0 3 : 0 
Heartbeat_Variant_2_evicts 0 : 0 1 : 0 2 : 0 3 : 0 
Heartbeat_Variant_3_evicts 0 : 0 1 : 0 2 : 0 3 : 0 
Heartbeat CPU 0 instructions: 20000003 cycles: 5588531 heartbeat IPC: 3.57888 cumulative IPC: 3.57876 (Simulation time: 0 hr 3 min 32 sec) 
Heartbeat_Variant_0 : 1353 0.330322 per_variant_size: 0 1353 0 0 0 0 0 0 0 
Heartbeat_Variant_1 : 2586 0.631348 per_variant_size: 0 510 2076 0 0 0 0 0 0 
Heartbeat_Variant_2 : 0 0 per_variant_size: 0 0 0 0 0 0 0 0 0 
Heartbeat_Variant_3 : 0 0 per_variant_size: 0 0 0 0 0 0 0 0 0 
Heartbeat_Variant_0_evicts 0 : 5498 1 : 11 2 : 0 3 : 0 
Heartbeat_Variant_1_evicts 0 : 11 1 : 0 2 : 0 3 : 0 
Heartbeat_Variant_2_evicts 0 : 0 1 : 0 2 : 0 3 : 0 
Heartbeat_Variant_3_evicts 0 : 0 1 : 0 2 : 0 3 : 0 
Heartbeat CPU 0 instructions: 30000000 cycles: 8383125 heartbeat IPC: 3.57834 cumulative IPC: 3.57862 (Simulation time: 0 hr 5 min 12 sec) 
Heartbeat_Variant_0 : 1361 0.332275 per_variant_size: 0 1361 0 0 0 0 0 0 0 
Heartbeat_Variant_1 : 2602 0.635254 per_variant_size: 0 492 2110 0 0 0 0 0 0 
Heartbeat_Variant_2 : 0 0 per_variant_size: 0 0 0 0 0 0 0 0 0 
Heartbeat_Variant_3 : 0 0 per_variant_size: 0 0 0 0 0 0 0 0 0 
Heartbeat_Variant_0_evicts 0 : 5693 1 : 191 2 : 0 3 : 0 
Heartbeat_Variant_1_evicts 0 : 190 1 : 0 2 : 0 3 : 0 
Heartbeat_Variant_2_evicts 0 : 0 1 : 0 2 : 0 3 : 0 
Heartbeat_Variant_3_evicts 0 : 0 1 : 0 2 : 0 3 : 0 
Heartbeat CPU 0 instructions: 40000001 cycles: 11177526 heartbeat IPC: 3.57858 cumulative IPC: 3.57861 (Simulation time: 0 hr 6 min 49 sec) 
Heartbeat_Variant_0 : 1359 0.331787 per_variant_size: 0 1359 0 0 0 0 0 0 0 
Heartbeat_Variant_1 : 2604 0.635742 per_variant_size: 0 483 2121 0 0 0 0 0 0 
Heartbeat_Variant_2 : 0 0 per_variant_size: 0 0 0 0 0 0 0 0 0 
Heartbeat_Variant_3 : 0 0 per_variant_size: 0 0 0 0 0 0 0 0 0 
Heartbeat_Variant_0_evicts 0 : 5518 1 : 20 2 : 0 3 : 0 
Heartbeat_Variant_1_evicts 0 : 22 1 : 0 2 : 0 3 : 0 
Heartbeat_Variant_2_evicts 0 : 0 1 : 0 2 : 0 3 : 0 
Heartbeat_Variant_3_evicts 0 : 0 1 : 0 2 : 0 3 : 0 
Heartbeat CPU 0 instructions: 50000000 cycles: 13971833 heartbeat IPC: 3.5787 cumulative IPC: 3.57863 (Simulation time: 0 hr 8 min 27 sec) 

Warmup complete CPU 0 instructions: 50000004 cycles: 13971834 (Simulation time: 0 hr 8 min 27 sec) 

Cycle: 20000000 FTQ IN: 58412943 FTQ occupancy: 20.4874 DECODE IN: 58412840 DECODE occupancy: 53.2385 ROB IN: 58412780 ROB occupancy: 317.58 ROB OUT: 58412431
Heartbeat_Variant_0 : 1360 0.332031 per_variant_size: 0 1360 0 0 0 0 0 0 0 
Heartbeat_Variant_1 : 2613 0.637939 per_variant_size: 0 495 2118 0 0 0 0 0 0 
Heartbeat_Variant_2 : 0 0 per_variant_size: 0 0 0 0 0 0 0 0 0 
Heartbeat_Variant_3 : 0 0 per_variant_size: 0 0 0 0 0 0 0 0 0 
Heartbeat_Variant_0_evicts 0 : 5702 1 : 71 2 : 0 3 : 0 
Heartbeat_Variant_1_evicts 0 : 74 1 : 0 2 : 0 3 : 0 
Heartbeat_Variant_2_evicts 0 : 0 1 : 0 2 : 0 3 : 0 
Heartbeat_Variant_3_evicts 0 : 0 1 : 0 2 : 0 3 : 0 
Heartbeat CPU 0 instructions: 60000003 cycles: 21138938 heartbeat IPC: 1.39526 cumulative IPC: 1.39526 (Simulation time: 0 hr 10 min 20 sec) 
Heartbeat_Variant_0 : 1369 0.334229 per_variant_size: 0 1369 0 0 0 0 0 0 0 
Heartbeat_Variant_1 : 2615 0.638428 per_variant_size: 0 482 2133 0 0 0 0 0 0 
Heartbeat_Variant_2 : 0 0 per_variant_size: 0 0 0 0 0 0 0 0 0 
Heartbeat_Variant_3 : 0 0 per_variant_size: 0 0 0 0 0 0 0 0 0 
Heartbeat_Variant_0_evicts 0 : 5683 1 : 105 2 : 0 3 : 0 
Heartbeat_Variant_1_evicts 0 : 99 1 : 0 2 : 0 3 : 0 
Heartbeat_Variant_2_evicts 0 : 0 1 : 0 2 : 0 3 : 0 
Heartbeat_Variant_3_evicts 0 : 0 1 : 0 2 : 0 3 : 0 
Heartbeat CPU 0 instructions: 70000001 cycles: 28253593 heartbeat IPC: 1.40555 cumulative IPC: 1.40039 (Simulation time: 0 hr 12 min 13 sec) 
Cycle: 30000000 FTQ IN: 14077329 FTQ occupancy: 14.692 DECODE IN: 14077309 DECODE occupancy: 37.8442 ROB IN: 14077309 ROB occupancy: 248.708 ROB OUT: 14077306
Heartbeat_Variant_0 : 1370 0.334473 per_variant_size: 0 1370 0 0 0 0 0 0 0 
Heartbeat_Variant_1 : 2615 0.638428 per_variant_size: 0 474 2141 0 0 0 0 0 0 
Heartbeat_Variant_2 : 0 0 per_variant_size: 0 0 0 0 0 0 0 0 0 
Heartbeat_Variant_3 : 0 0 per_variant_size: 0 0 0 0 0 0 0 0 0 
Heartbeat_Variant_0_evicts 0 : 5625 1 : 43 2 : 0 3 : 0 
Heartbeat_Variant_1_evicts 0 : 43 1 : 0 2 : 0 3 : 0 
Heartbeat_Variant_2_evicts 0 : 0 1 : 0 2 : 0 3 : 0 
Heartbeat_Variant_3_evicts 0 : 0 1 : 0 2 : 0 3 : 0 
Heartbeat CPU 0 instructions: 80000000 cycles: 35390356 heartbeat IPC: 1.4012 cumulative IPC: 1.40066 (Simulation time: 0 hr 14 min 5 sec) 
Cycle: 40000000 FTQ IN: 13960602 FTQ occupancy: 14.7903 DECODE IN: 13960672 DECODE occupancy: 37.8718 ROB IN: 13960732 ROB occupancy: 249.145 ROB OUT: 13961076
Heartbeat_Variant_0 : 1371 0.334717 per_variant_size: 0 1371 0 0 0 0 0 0 0 
Heartbeat_Variant_1 : 2630 0.64209 per_variant_size: 0 500 2130 0 0 0 0 0 0 
Heartbeat_Variant_2 : 0 0 per_variant_size: 0 0 0 0 0 0 0 0 0 
Heartbeat_Variant_3 : 0 0 per_variant_size: 0 0 0 0 0 0 0 0 0 
Heartbeat_Variant_0_evicts 0 : 5656 1 : 127 2 : 0 3 : 0 
Heartbeat_Variant_1_evicts 0 : 128 1 : 0 2 : 0 3 : 0 
Heartbeat_Variant_2_evicts 0 : 0 1 : 0 2 : 0 3 : 0 
Heartbeat_Variant_3_evicts 0 : 0 1 : 0 2 : 0 3 : 0 
Heartbeat CPU 0 instructions: 90000002 cycles: 42504985 heartbeat IPC: 1.40555 cumulative IPC: 1.40188 (Simulation time: 0 hr 15 min 56 sec) 
Heartbeat_Variant_0 : 1376 0.335938 per_variant_size: 0 1376 0 0 0 0 0 0 0 
Heartbeat_Variant_1 : 2628 0.641602 per_variant_size: 0 488 2140 0 0 0 0 0 0 
Heartbeat_Variant_2 : 0 0 per_variant_size: 0 0 0 0 0 0 0 0 0 
Heartbeat_Variant_3 : 0 0 per_variant_size: 0 0 0 0 0 0 0 0 0 
Heartbeat_Variant_0_evicts 0 : 5690 1 : 67 2 : 0 3 : 0 
Heartbeat_Variant_1_evicts 0 : 63 1 : 0 2 : 0 3 : 0 
Heartbeat_Variant_2_evicts 0 : 0 1 : 0 2 : 0 3 : 0 
Heartbeat_Variant_3_evicts 0 : 0 1 : 0 2 : 0 3 : 0 
Heartbeat CPU 0 instructions: 100000000 cycles: 49641751 heartbeat IPC: 1.40119 cumulative IPC: 1.40174 (Simulation time: 0 hr 18 min 2 sec) 
Finished CPU 0 instructions: 50000000 cycles: 35669918 cumulative IPC: 1.40174 (Simulation time: 0 hr 18 min 2 sec) 

ChampSim completed all CPUs

Region of Interest Statistics

CPU 0 cumulative IPC: 1.40174 instructions: 50000000 cycles: 35669918
 Fetch stage stalled: 46.1824  Sim cycles: 35669918 fetch stall cycle: 16473232
 Empty decode stage: 25.5483  Sim cycles: 35669918 fetch stall cycle: 9113059
ITLB TOTAL     ACCESS:    5822676  HIT:    5332673  MISS:     490003  HIT %:    91.5846  MISS %:    8.41543   MPKI: 9.80006
ITLB LOAD TRANSLATION INSTRUCTION	ACCESS:    5683706  HIT:    5193703  MISS:     490003  HIT %:    91.3788  MISS %:    8.62119  MPKI: 9.80006
ITLB TRANSLATION FROM L1D PREFETCHER INSTRUCTION	ACCESS:     138970  HIT:     138970  MISS:          0  HIT %:        100  MISS %:          0  MPKI: 0

ITLB AVERAGE MISS LATENCY: 9.05812 cycles
ITLB RQ	ACCESS:    7915918	FORWARD:          0	MERGED:    1610424	TO_CACHE:    6305494

DTLB TOTAL     ACCESS:    8944948  HIT:    8480093  MISS:     464855  HIT %:    94.8032  MISS %:    5.19684   MPKI: 9.2971
DTLB LOAD TRANSLATION DATA	ACCESS:    8944948  HIT:    8480093  MISS:     464855  HIT %:    94.8032  MISS %:    5.19684  MPKI: 9.2971

DTLB AVERAGE MISS LATENCY: 9.34795 cycles
DTLB RQ	ACCESS:   13311988	FORWARD:          0	MERGED:    4330137	TO_CACHE:    8981851

STLB TOTAL     ACCESS:    1209246  HIT:    1207213  MISS:       2033  HIT %:    99.8319  MISS %:   0.168121   MPKI: 0.04066
STLB LOAD TRANSLATION INSTRUCTION	ACCESS:     490003  HIT:     489741  MISS:        262  HIT %:    99.9465  MISS %:  0.0534691  MPKI: 0.00524
STLB LOAD TRANSLATION DATA	ACCESS:     464854  HIT:     463106  MISS:       1748  HIT %:     99.624  MISS %:   0.376032  MPKI: 0.03496
STLB TRANSLATION FROM L1D PREFETCHER DATA	ACCESS:     254389  HIT:     254366  MISS:         23  HIT %:     99.991  MISS %: 0.00904127  MPKI: 0.00046

STLB AVERAGE MISS LATENCY: 78.7678 cycles
STLB RQ	ACCESS:    1341016	FORWARD:          0	MERGED:     131723	TO_CACHE:    1209293

STLB Hit, L1D data hit: 0
STLB Hit, L2C data hit: 0
STLB Hit, LLC data hit: 0
STLB Hit, LLC data miss: 0
STLB STLB hints to L2: 0
L1D TOTAL     ACCESS:   13133711  HIT:   12151801  MISS:     981910  HIT %:    92.5237  MISS %:    7.47626   MPKI: 19.6382
L1D LOAD DATA	ACCESS:    6547595  HIT:    5908538  MISS:     639057  HIT %:    90.2398  MISS %:    9.76018  MPKI: 12.7811
L1D RFO DATA	ACCESS:    6244632  HIT:    5994133  MISS:     250499  HIT %:    95.9886  MISS %:    4.01143  MPKI: 5.00998
L1D PREFETCH DATA	ACCESS:     341484  HIT:     249130  MISS:      92354  HIT %:    72.9551  MISS %:    27.0449  MPKI: 1.84708

L1D PREFETCH  REQUESTED:     772652  ISSUED:     772652  USEFUL:      36297  USELESS:      65272
L1D USEFUL LOAD PREFETCHES:      36297 PREFETCH ISSUED TO LOWER LEVEL:     101602  ACCURACY: 35.7247
 TIMELY PREFETCHES:      36297 LATE PREFETCHES: 9215 DROPPED PREFETCHES: 6
L1D AVERAGE MISS LATENCY: 299536 cycles
L1D RQ	ACCESS:   10696759	FORWARD:          0	MERGED:    3952504	TO_CACHE:    6578659
L1D WQ	ACCESS:    6927607	FORWARD:     165934	MERGED:     194278	TO_CACHE:    6733329
L1D PQ	ACCESS:     386495	FORWARD:          0	MERGED:          0	TO_CACHE:     386157

L1D UNIQUE REGIONS ACCESSED: 0
L1D REGIONS CONFLICTS: 0
L1D Cross Page Prefetch Requests: 6988
L1D Same Page Prefetch Requests: 775788
L1D ROI Sum of L1D PQ occupancy: 4926898
L1D PREFETCHES PUSHED FROM L2C: 0
L1I TOTAL     ACCESS:    7108161  HIT:    4363627  MISS:    2744534  HIT %:     61.389  MISS %:     38.611   MPKI: 54.8907
L1I LOAD INSTRUCTION	ACCESS:    6436872  HIT:    3692338  MISS:    2744534  HIT %:    57.3623  MISS %:    42.6377  MPKI: 54.8907
L1I PREFETCH INSTRUCTION	ACCESS:     671289  HIT:     671289  MISS:          0  HIT %:        100  MISS %:          0  MPKI: 0

L1I PREFETCH  REQUESTED:    1614805  ISSUED:    1614805  USEFUL:          0  USELESS:          0
L1I USEFUL LOAD PREFETCHES:          0 PREFETCH ISSUED TO LOWER LEVEL:          0  ACCURACY: -nan
 TIMELY PREFETCHES:          0 LATE PREFETCHES: 0 DROPPED PREFETCHES: 0
L1I AVERAGE MISS LATENCY: 16.8705 cycles
L1I RQ	ACCESS:    9561593	FORWARD:          0	MERGED:    2828548	TO_CACHE:    6733045
L1I PQ	ACCESS:    1614805	FORWARD:          0	MERGED:     431932	TO_CACHE:    1182873

L1BTB TOTAL     ACCESS:    5673245  HIT:    2065982  MISS:    3607263  HIT %:    36.4162  MISS %:    63.5838   MPKI: 72.1453
L1BTB BRANCH_DIRECT_JUMP	ACCESS:     548416 HIT:     145413 MISS:     403003 AVERAGE STALL: 54.5732 AVERAGE FETCH STALL: 13.1969 AVERAGE FETCH QUEUE STALL: 18.6216 AVERAGE DECODE STALL: 21.8421 AVERAGE EXECUTE STALL: 2.23218e+15
L1BTB BRANCH_INDIRECT	ACCESS:     183049 HIT:      66357 MISS:     116692 AVERAGE STALL: 109.64 AVERAGE FETCH STALL: 10.906 AVERAGE FETCH QUEUE STALL: 18.0897 AVERAGE DECODE STALL: 13.4247 AVERAGE EXECUTE STALL: 66.2589
L1BTB BRANCH_CONDITIONAL	ACCESS:    2727653 HIT:    1440842 MISS:    1286811 AVERAGE STALL: 71.2735 AVERAGE FETCH STALL: 20.5442 AVERAGE FETCH QUEUE STALL: 27.8068 AVERAGE DECODE STALL: 22.1305 AVERAGE EXECUTE STALL: 3.39469e+15
L1BTB BRANCH_DIRECT_CALL	ACCESS:     936627 HIT:     104446 MISS:     832181 AVERAGE STALL: 84.4431 AVERAGE FETCH STALL: 32.2913 AVERAGE FETCH QUEUE STALL: 31.1713 AVERAGE DECODE STALL: 20.439 AVERAGE EXECUTE STALL: 1.27925e+16
L1BTB BRANCH_INDIRECT_CALL	ACCESS:     170435 HIT:      20878 MISS:     149557 AVERAGE STALL: 142.412 AVERAGE FETCH STALL: 12.2865 AVERAGE FETCH QUEUE STALL: 18.6321 AVERAGE DECODE STALL: 12.2397 AVERAGE EXECUTE STALL: 98.7632
L1BTB BRANCH_RETURN	ACCESS:    1107065 HIT:     288046 MISS:     819019 AVERAGE STALL: 49.4124 AVERAGE FETCH STALL: 17.3441 AVERAGE FETCH QUEUE STALL: 5.59169 AVERAGE DECODE STALL: 6.08551 AVERAGE EXECUTE STALL: 4.27463e+14
L1BTB BRANCH_OTHER ACCESS:          0 HIT:          0 MISS:          0 AVERAGE STALL: -nan AVERAGE FETCH STALL: -nan AVERAGE FETCH QUEUE STALL: -nan AVERAGE DECODE STALL: -nan AVERAGE EXECUTE STALL: -nan
L1BTB TOTAL ROB OCCUPANCY AT BTB MISS: 2.83175

L2BTB TOTAL     ACCESS:    3581828  HIT:    3515954  MISS:      65874  HIT %:    98.1609  MISS %:    1.83912   MPKI: 1.31748
L2BTB BRANCH_DIRECT_JUMP	ACCESS:     398766 HIT:     394734 MISS:       4032 AVERAGE STALL: 54.5732 AVERAGE FETCH STALL: 13.1969 AVERAGE FETCH QUEUE STALL: 18.6216 AVERAGE DECODE STALL: 21.8421 AVERAGE EXECUTE STALL: 2.23218e+15
L2BTB BRANCH_INDIRECT	ACCESS:     106500 HIT:     103842 MISS:       2658 AVERAGE STALL: 109.64 AVERAGE FETCH STALL: 10.906 AVERAGE FETCH QUEUE STALL: 18.0897 AVERAGE DECODE STALL: 13.4247 AVERAGE EXECUTE STALL: 66.2589
L2BTB BRANCH_CONDITIONAL	ACCESS:    1286811 HIT:    1281296 MISS:       5515 AVERAGE STALL: 71.2735 AVERAGE FETCH STALL: 20.5442 AVERAGE FETCH QUEUE STALL: 27.8068 AVERAGE DECODE STALL: 22.1305 AVERAGE EXECUTE STALL: 3.39469e+15
L2BTB BRANCH_DIRECT_CALL	ACCESS:     832181 HIT:     830728 MISS:       1453 AVERAGE STALL: 84.4431 AVERAGE FETCH STALL: 32.2913 AVERAGE FETCH QUEUE STALL: 31.1713 AVERAGE DECODE STALL: 20.439 AVERAGE EXECUTE STALL: 1.27925e+16
L2BTB BRANCH_INDIRECT_CALL	ACCESS:     139945 HIT:     129507 MISS:      10438 AVERAGE STALL: 142.412 AVERAGE FETCH STALL: 12.2865 AVERAGE FETCH QUEUE STALL: 18.6321 AVERAGE DECODE STALL: 12.2397 AVERAGE EXECUTE STALL: 98.7632
L2BTB BRANCH_RETURN	ACCESS:     817625 HIT:     775847 MISS:      41778 AVERAGE STALL: 49.4124 AVERAGE FETCH STALL: 17.3441 AVERAGE FETCH QUEUE STALL: 5.59169 AVERAGE DECODE STALL: 6.08551 AVERAGE EXECUTE STALL: 4.27463e+14
L2BTB BRANCH_OTHER ACCESS:          0 HIT:          0 MISS:          0 AVERAGE STALL: -nan AVERAGE FETCH STALL: -nan AVERAGE FETCH QUEUE STALL: -nan AVERAGE DECODE STALL: -nan AVERAGE EXECUTE STALL: -nan
L2BTB TOTAL ROB OCCUPANCY AT BTB MISS: 155.067

L2C TOTAL     ACCESS:    4260140  HIT:    3795642  MISS:     464498  HIT %:    89.0966  MISS %:    10.9034   MPKI: 9.28996
L2C LOAD INSTRUCTION	ACCESS:    2744534  HIT:    2522615  MISS:     221919  HIT %:    91.9141  MISS %:    8.08585  MPKI: 4.43838
L2C LOAD TRANSLATION INSTRUCTION	ACCESS:        309  HIT:         85  MISS:        224  HIT %:    27.5081  MISS %:    72.4919  MPKI: 0.00448
L2C LOAD DATA	ACCESS:     629801  HIT:     554025  MISS:      75776  HIT %:    87.9683  MISS %:    12.0317  MPKI: 1.51552
L2C RFO DATA	ACCESS:     250416  HIT:     189753  MISS:      60663  HIT %:    75.7751  MISS %:    24.2249  MPKI: 1.21326
L2C PREFETCH DATA	ACCESS:     183416  HIT:     108869  MISS:      74547  HIT %:    59.3563  MISS %:    40.6437  MPKI: 1.49094
L2C WRITEBACK DATA	ACCESS:     449792  HIT:     419809  MISS:      29983  HIT %:     93.334  MISS %:    6.66597  MPKI: 0.59966
L2C LOAD TRANSLATION DATA	ACCESS:       1827  HIT:        455  MISS:       1372  HIT %:    24.9042  MISS %:    75.0958  MPKI: 0.02744
L2C TRANSLATION FROM L1D PREFETCHER DATA	ACCESS:         45  HIT:         31  MISS:         14  HIT %:    68.8889  MISS %:    31.1111  MPKI: 0.00028

L2C PREFETCH  REQUESTED:      89949  ISSUED:      89949  USEFUL:       7429  USELESS:      67705
L2C USEFUL LOAD PREFETCHES:       7429 PREFETCH ISSUED TO LOWER LEVEL:      75006  ACCURACY: 9.90454
 TIMELY PREFETCHES:       7429 LATE PREFETCHES: 459 DROPPED PREFETCHES: 0
L2C AVERAGE MISS LATENCY: 38.7037 cycles
L2C RQ	ACCESS:    3627024	FORWARD:          0	MERGED:          0	TO_CACHE:    3626934
L2C WQ	ACCESS:     449793	FORWARD:         90	MERGED:          0	TO_CACHE:     449793
L2C PQ	ACCESS:     191551	FORWARD:          0	MERGED:       3749	TO_CACHE:     187802

L2C Dense regions hint from L2: 0
PSCL5 TOTAL     ACCESS:       4084  HIT:       2042  MISS:       2042  HIT %:         50  MISS %:         50   MPKI: 0.04084
PSCL5 LOAD TRANSLATION INSTRUCTION	ACCESS:       3994  HIT:       1997  MISS:       1997  HIT %:         50  MISS %:         50  MPKI: 0.03994
PSCL5 TRANSLATION FROM L1D PREFETCHER INSTRUCTION	ACCESS:         90  HIT:         45  MISS:         45  HIT %:         50  MISS %:         50  MPKI: 0.0009


PSCL4 TOTAL     ACCESS:       3924  HIT:       1957  MISS:       1967  HIT %:    49.8726  MISS %:    50.1274   MPKI: 0.03934
PSCL4 LOAD TRANSLATION INSTRUCTION	ACCESS:       2722  HIT:       1924  MISS:        798  HIT %:    70.6833  MISS %:    29.3167  MPKI: 0.01596
PSCL4 TRANSLATION FROM L1D PREFETCHER INSTRUCTION	ACCESS:         45  HIT:         33  MISS:         12  HIT %:    73.3333  MISS %:    26.6667  MPKI: 0.00024
PSCL4 LOAD TRANSLATION DATA	ACCESS:       1136  HIT:          0  MISS:       1136  HIT %:          0  MISS %:        100  MPKI: 0.02272
PSCL4 TRANSLATION FROM L1D PREFETCHER DATA	ACCESS:         21  HIT:          0  MISS:         21  HIT %:          0  MISS %:        100  MPKI: 0.00042


PSCL3 TOTAL     ACCESS:       4000  HIT:       1995  MISS:       2005  HIT %:     49.875  MISS %:     50.125   MPKI: 0.0401
PSCL3 LOAD TRANSLATION INSTRUCTION	ACCESS:       2760  HIT:       1962  MISS:        798  HIT %:     71.087  MISS %:     28.913  MPKI: 0.01596
PSCL3 TRANSLATION FROM L1D PREFETCHER INSTRUCTION	ACCESS:         45  HIT:         33  MISS:         12  HIT %:    73.3333  MISS %:    26.6667  MPKI: 0.00024
PSCL3 LOAD TRANSLATION DATA	ACCESS:       1174  HIT:          0  MISS:       1174  HIT %:          0  MISS %:        100  MPKI: 0.02348
PSCL3 TRANSLATION FROM L1D PREFETCHER DATA	ACCESS:         21  HIT:          0  MISS:         21  HIT %:          0  MISS %:        100  MPKI: 0.00042


PSCL2 TOTAL     ACCESS:       3965  HIT:       1923  MISS:       2042  HIT %:    48.4994  MISS %:    51.5006   MPKI: 0.04084
PSCL2 LOAD TRANSLATION INSTRUCTION	ACCESS:       2141  HIT:       1878  MISS:        263  HIT %:     87.716  MISS %:     12.284  MPKI: 0.00526
PSCL2 TRANSLATION FROM L1D PREFETCHER INSTRUCTION	ACCESS:         45  HIT:         45  MISS:          0  HIT %:        100  MISS %:          0  MPKI: 0
PSCL2 LOAD TRANSLATION DATA	ACCESS:       1734  HIT:          0  MISS:       1734  HIT %:          0  MISS %:        100  MPKI: 0.03468
PSCL2 TRANSLATION FROM L1D PREFETCHER DATA	ACCESS:         45  HIT:          0  MISS:         45  HIT %:          0  MISS %:        100  MPKI: 0.0009


LLC TOTAL     ACCESS:     519338  HIT:     488848  MISS:      30490  HIT %:    94.1291  MISS %:    5.87094   MPKI: 0.6098
LLC LOAD INSTRUCTION	ACCESS:     221919  HIT:     220967  MISS:        952  HIT %:     99.571  MISS %:   0.428985  MPKI: 0.01904
LLC LOAD TRANSLATION INSTRUCTION	ACCESS:        224  HIT:        186  MISS:         38  HIT %:    83.0357  MISS %:    16.9643  MPKI: 0.00076
LLC LOAD DATA	ACCESS:      75327  HIT:      71841  MISS:       3486  HIT %:    95.3722  MISS %:    4.62782  MPKI: 0.06972
LLC RFO DATA	ACCESS:      60634  HIT:      45118  MISS:      15516  HIT %:    74.4104  MISS %:    25.5896  MPKI: 0.31032
LLC PREFETCH DATA	ACCESS:      75006  HIT:      65077  MISS:       9929  HIT %:    86.7624  MISS %:    13.2376  MPKI: 0.19858
LLC WRITEBACK DATA	ACCESS:      84842  HIT:      84368  MISS:        474  HIT %:    99.4413  MISS %:   0.558686  MPKI: 0.00948
LLC LOAD TRANSLATION DATA	ACCESS:       1372  HIT:       1277  MISS:         95  HIT %:    93.0758  MISS %:     6.9242  MPKI: 0.0019
LLC TRANSLATION FROM L1D PREFETCHER DATA	ACCESS:         14  HIT:         14  MISS:          0  HIT %:        100  MISS %:          0  MPKI: 0

LLC AVERAGE MISS LATENCY: 160.504 cycles
LLC RQ	ACCESS:     359509	FORWARD:          0	MERGED:          0	TO_CACHE:     359490
LLC WQ	ACCESS:      84842	FORWARD:         19	MERGED:          0	TO_CACHE:      84842
LLC PQ	ACCESS:      75006	FORWARD:          0	MERGED:          0	TO_CACHE:      75006

LLC Dense regions hint to LLC: 0

RAW hits: 1934873
Loads Generated: 12631632
Loads sent to L1D: 10696759
Stores Generated: 6927584
Stores sent to L1D: 6927607
Major fault: 0 Minor fault: 2540
Allocated PAGES: 2540

stream: 
stream:times selected: 1212797
stream:pref_filled: 113459
stream:pref_useful: 22829
stream:pref_late: 6972
stream:misses: 7861
stream:misses_by_poll: 0

CS: 
CS:times selected: 185376
CS:pref_filled: 61345
CS:pref_useful: 37727
CS:pref_late: 7081
CS:misses: 17931
CS:misses_by_poll: 8

CPLX: 
CPLX:times selected: 1026335
CPLX:pref_filled: 20991
CPLX:pref_useful: 5753
CPLX:pref_late: 2800
CPLX:misses: 94024
CPLX:misses_by_poll: 18

NL_L1: 
NL:times selected: 20262
NL:pref_filled: 1065
NL:pref_useful: 363
NL:pref_late: 307
NL:misses: 1696
NL:misses_by_poll: 0

total selections: 2444770
total_filled: 92354
total_useful: 36297
total_late: 18547
total_polluted: 26
total_misses_after_warmup: 670124
conflicts: 5498524

test: 116821

DRAM Statistics
 CHANNEL 0
 RQ ROW_BUFFER_HIT:      11482  ROW_BUFFER_MISS:      18524
 DBUS_CONGESTED:         17
 WQ ROW_BUFFER_HIT:       1452  ROW_BUFFER_MISS:      13191  FULL:          0

 AVG_CONGESTED_CYCLE: 5

CPU 0 Branch Prediction Accuracy: 99.8196% MPKI: 0.32972 Average ROB Occupancy at Mispredict: 197.501
Branch types
NOT_BRANCH: 40858578 81.7172%
BRANCH_DIRECT_JUMP: 548416 1.09683%
BRANCH_INDIRECT: 183049 0.366098%
BRANCH_CONDITIONAL: 6195470 12.3909%
BRANCH_DIRECT_CALL: 936627 1.87325%
BRANCH_INDIRECT_CALL: 170435 0.34087%
BRANCH_RETURN: 1107065 2.21413%
BRANCH_OTHER: 0 0%

DRAM PAGES: 1048576
Allocated PAGES: 2540
Average_ROB_Occupancy: 249.449
Average_Decode_Occupancy: 37.8178
Average_FTQ_Occupancy: 14.7518
Indirect max targets: 14 Average targets: 1.14626
Branch_type:  BRANCH_DIRECT_JUMP:  Count Percentage: 2.91457 6.24774 4.36172 8.78922 2.61495 6.18616 2.02437 66.8613 
Branch_type:  BRANCH_INDIRECT:  Count Percentage: 11.7421 3.44129 2.56447 3.72854 3.34079 4.01059 3.19922 67.973 
Branch_type:  BRANCH_CONDITIONAL:  Count Percentage: 20.8858 3.31184 5.57626 4.81141 1.72276 4.74575 0.898457 58.0478 
Branch_type:  BRANCH_DIRECT_CALL:  Count Percentage: 0.26014 1.75857 1.45318 3.89567 2.55866 3.42186 0.773563 85.8784 
Branch_type:  BRANCH_INDIRECT_CALL:  Count Percentage: 9.53118 0 2.98569 5.40252 0 4.04247 0.99747 77.0407 
Branch_type:  BRANCH_RETURN:  Count Percentage: 3.48077 1.56671 5.99763 3.11507 3.38243 5.64312 1.43177 75.3825 
Branch_type:  BRANCH_DIRECT_JUMP:  Total Count: 31896 68373 47733 96186 28617 67699 22154 731705 
Branch_type:  BRANCH_INDIRECT:  Total Count: 42880 12567 9365 13616 12200 14646 11683 248226 
Branch_type:  BRANCH_CONDITIONAL:  Total Count: 2585868 410039 690397 595701 213295 587571 111238 7186896 
Branch_type:  BRANCH_DIRECT_CALL:  Total Count: 4893 33077 27333 73274 48126 64362 14550 1615292 
Branch_type:  BRANCH_INDIRECT_CALL:  Total Count: 32622 0 10219 18491 0 13836 3414 263684 
Branch_type:  BRANCH_RETURN:  Total Count: 77411 34843 133385 69278 75224 125501 31842 1676479 
Number of unique branch instructions: 9822
Upper 32 bits: 
aaaa
ffff
ffff0000
Unique upper 32 bits: 3
Unique upper 36 bits: 3
Unique upper 40 bits: 5
Unique upper 44 bits: 32
Unique upper 48 bits: 154
Variant_0 : 1376 0.335938
Variant_1 : 2628 0.641602
Variant_2 : 0 0
Variant_3 : 0 0
Offset_3 4059
Offset_4 250
Offset_5 446
Offset_6 502
Offset_7 578
Offset_8 496
Offset_9 465
Offset_10 379
Offset_11 305
Offset_12 270
Offset_13 197
Offset_14 227
Offset_15 184
Offset_16 221
Offset_17 141
Offset_18 118
Offset_19 234
Offset_20 137
Offset_21 235
Offset_22 392
Offset_23 243
Offset_24 324
Offset_25 88
Offset_47 80
decode_dispatch_called: 26109457 73.1974
Dispatch_width: 0 14027958 53.7275 39.3271
Dispatch_width: 1 1004617 3.84771 2.81643
Dispatch_width: 2 855705 3.27738 2.39895
Dispatch_width: 3 494046 1.89221 1.38505
Dispatch_width: 4 6225010 23.842 17.4517
Dispatch_width: 5 111163 0.425758 0.311644
Dispatch_width: 6 3390958 12.9875 9.50649
Empty_decode_cycles: 9560461 26.8026
ROB_full_cycles: 9776158 27.4073
Starvation_cycles_per_kilo_instr: 225.028
Starvation_cycles_per_kilo_instr_3: 161.666
Starvation_cycles_per_kilo_instr_0: 138.123
Branch_type_1  (3,1)  (4,9)  (5,37)  (6,70)  (7,115)  (8,126)  (9,124)  (10,97)  (11,67)  (12,43)  (13,5)  (14,2)  (15,3)  (16,4)  (18,1)  (19,4)  (20,2)  (21,1)  (22,3)  (23,2)  (24,10)  (25,12) 
Branch_type_2  (3,1)  (5,1)  (8,3)  (9,3)  (12,1)  (13,1)  (14,1)  (16,3)  (17,2)  (20,2)  (21,2)  (23,5)  (24,1)  (47,36) 
Branch_type_3  (3,4057)  (4,241)  (5,404)  (6,417)  (7,433)  (8,307)  (9,254)  (10,152)  (11,122)  (12,50)  (13,4) 
Branch_type_4  (6,3)  (7,8)  (8,25)  (9,52)  (10,62)  (11,59)  (12,97)  (13,85)  (14,100)  (15,86)  (16,99)  (17,63)  (18,53)  (19,114)  (20,72)  (21,124)  (22,208)  (23,137)  (24,185)  (25,72) 
Branch_type_5  (8,2)  (9,1)  (10,3)  (11,5)  (12,3)  (13,14)  (14,16)  (15,11)  (16,20)  (17,11)  (18,16)  (19,12)  (20,10)  (21,13)  (22,42)  (23,26)  (24,37) 
Branch_type_6  (5,4)  (6,12)  (7,22)  (8,33)  (9,31)  (10,65)  (11,52)  (12,76)  (13,88)  (14,108)  (15,84)  (16,95)  (17,65)  (18,48)  (19,104)  (20,51)  (21,95)  (22,139)  (23,73)  (24,91)  (25,4)  (47,44) 
Unique trigger count: 
Variant_0_evicts_0 : 0
Variant_0_evicts_1 : 0
Variant_0_evicts_2 : 0
Variant_0_evicts_3 : 0
Variant_1_evicts_0 : 0
Variant_1_evicts_1 : 0
Variant_1_evicts_2 : 0
Variant_1_evicts_3 : 0
Variant_2_evicts_0 : 0
Variant_2_evicts_1 : 0
Variant_2_evicts_2 : 0
Variant_2_evicts_3 : 0
Variant_3_evicts_0 : 0
Variant_3_evicts_1 : 0
Variant_3_evicts_2 : 0
Variant_3_evicts_3 : 0
BTB PER SET UNIQUE ADDR: 7 14 8 10 9 11 10 11 8 14 8 13 11 9 9 7 8 13 11 12 9 11 10 14 7 11 10 11 7 7 10 11 11 7 7 11 10 13 8 10 9 7 11 12 10 8 12 10 5 7 13 9 11 12 12 6 8 8 7 8 10 10 11 10 12 9 12 7 15 8 9 8 10 7 7 5 6 11 9 12 8 5 13 15 8 9 14 8 9 13 8 6 11 8 6 10 7 12 12 9 17 7 10 9 11 8 5 10 7 9 10 9 13 9 7 8 9 9 8 9 14 7 7 8 12 9 4 10 10 9 6 9 7 12 7 11 8 9 8 14 6 8 7 8 8 9 8 5 5 7 10 7 9 10 9 11 14 12 12 8 9 10 11 10 8 5 10 7 10 11 8 9 10 7 5 7 12 7 11 11 7 9 10 13 13 13 5 13 8 13 9 12 7 11 14 9 8 12 7 10 7 9 12 10 7 11 10 8 9 11 9 13 12 12 7 9 6 14 11 13 6 9 6 9 10 11 10 12 9 10 10 7 10 10 12 12 10 9 10 6 12 9 14 10 8 7 7 5 12 8 11 12 12 8 12 8 5 7 9 9 10 9 6 9 12 8 8 8 13 11 10 12 10 7 7 7 8 13 7 9 10 12 8 6 12 5 10 13 12 10 9 6 13 9 6 11 9 12 12 13 7 12 8 9 10 11 10 9 13 10 7 14 9 13 10 5 13 12 12 9 6 12 10 10 11 11 13 8 6 8 10 11 8 8 9 11 4 7 5 11 9 10 7 12 10 9 7 11 8 12 13 8 11 10 10 10 7 8 7 8 8 14 6 13 11 13 7 7 8 7 10 7 11 7 9 13 9 13 12 8 11 9 8 12 7 11 12 15 10 12 10 7 13 13 7 8 10 7 10 7 9 14 8 11 11 10 13 11 11 9 13 7 9 9 10 10 9 8 13 8 10 11 12 15 8 8 9 13 13 10 14 10 11 10 10 8 10 7 11 8 11 11 10 10 12 9 10 10 13 13 9 10 12 11 12 16 12 10 8 9 10 12 7 11 15 9 10 9 8 12 13 9 12 7 12 13 10 11 7 10 11 12 9 10 6 12 15 14 13 11 10 9 8 5 11 11 13 11 11 11 9 8 10 14 12 8 7 10 11 9 11 13 6 11 9 8 11 12 8 8 5 8 8 8 9 9 14 9 6 12 11 13 11 10 10 11 8 13 11 7 11 8 12 11 14 12 8 13 8 8 11 10 8 12 9 8 12 9 12 12 12 9 6 10 7 11 7 11 10 15 11 8 13 12 10 9 10 11 7 8 9 10 9 10 13 12 7 11 11 13 11 12 11 9 14 8 8 9 9 9 12 8 7 4 7 12 11 9 11 12 9 13 9 11 6 12 7 9 10 15 10 9 5 10 11 13 8 15 6 12 8 10 12 8 10 10 8 12 10 9 9 9 7 8 7 9 8 9 11 7 8 6 7 6 12 11 6 8 13 9 11 5 12 11 8 8 8 11 7 9 8 10 9 11 13 8 13 8 11 11 8 12 11 8 12 9 9 11 10 10 7 10 10 7 8 12 8 13 6 9 9 9 9 6 8 14 13 8 9 7 9 14 10 9 10 9 8 11 10 10 9 10 7 9 7 13 8 10 8 9 9 7 15 9 7 13 10 14 10 8 7 9 10 11 9 10 10 10 8 6 11 8 10 8 7 8 15 10 8 9 10 4 5 11 14 13 9 12 10 13 7 10 7 8 8 7 11 8 9 8 8 11 9 8 9 9 8 13 10 5 7 8 14 10 11 13 10 8 16 8 12 9 8 12 14 11 12 12 11 9 8 15 10 8 10 10 9 11 8 17 9 20 5 9 13 9 7 10 8 10 7 11 10 9 9 12 7 11 8 10 15 14 9 7 13 11 9 11 8 9 7 8 7 9 11 13 8 10 9 11 9 7 8 8 12 4 9 6 14 6 11 7 10 7 12 5 8 7 6 11 12 6 11 10 9 10 10 12 8 9 12 9 12 10 7 11 17 10 8 11 9 10 11 11 5 13 8 11 13 12 10 10 5 8 10 9 13 13 8 8 12 11 12 9 8 8 6 8 10 10 8 15 10 7 9 10 9 11 13 9 7 11 7 7 9 7 9 9 9 7 12 12 9 12 7 11 6 10 12 10 13 7 11 10 6 7 10 9 10 12 11 10 8 9 8 10 11 8 10 10 9 15 9 8 8 14 12 13 7 12 8 8 8 10 7 7 8 11 14 7 8 11 9 11 12 13 8 11 8 14 8 10 8 7 6 8 2 9 6 9 7 9 9 8 
BTB PER SET COUNT: 740 19 1982 15 10 16 1463 12 1468 20 13 15 8413 10 11 7 436 17 11 16 13 32 502 256 14 14 10 12 7 8 13 12 14 9 9 511 13 14 10 16 9 7 18 18 13 81 21 16 7 9 19 9 11 16 14 376 12 10 7 10 10 15 12 14 15 12 17 9 19 9 1471 8 12 8 8 5 8 1490 11 17 11 5 253 29 8 42 21 9 292 30 11 6 12 10 8 11 1490 15 18 11 22 74 11 10 540 9 5 12 7 10 11 17 885 10 9 1054 9 13 1781 140 24 9 8 10 12 10 4 15 15 1000 10 4388 467 14 152 18 207 11 12 22 6 8 11 10 8 13 8 5 6 16 11 262 959 17 12 14 217 12 133 9 10 230 892 18 1469 5 10 7 12 1616 9 12 14 12 5 9 14 13 21 12 146 12 15 26 94 634 5 21 10 18 11 15 9 12 36 9 11 1006 7 10 7 11 849 10 8 14 10 9 129 1470 9 22 17 60 9 9 6 16 2934 17 8 12 6 9 17 12 12 270 9 17 10 7 11 12 13 17 12 9 18 6 20 12 22 995 13 7 7 5 12 14 14 13 14 9 16 10 85 14 9 15 10 11 6 503 13 11 9 10 484 18 15 16 732 9 7 9 12 16 7 10 11 16 599 993 16 5 11 24 12 12 12 6 20 610 8 11 11 14 18 29 7 16 10 14 12 14 13 9 15 17 975 21 9 14 1962 993 17 16 12 12 8 2932 15 11 17 778 116 10 7 15 10 21 14 9 9 22 4 10 6 14 10 1693 7 16 15 11 7 15 9 26 19 1470 15 16 12 10 7 11 235 24 10 19 9 19 14 2430 7 7 9 9 10 377 13 7 9 46 11 18 14 9 999 9 13 22 9 11 16 19 14 1461 13 11 15 411 8 996 15 8 1287 7 10 17 8 14 25 11 17 1000 13 9 958 9 10 9 11 14 11 12206 845 12 10 18 13 22 8 12 16 15 25 12 26 17 16 11 504 15 10 48 11 9 680 17 40 10 2440 17 626 21 16 17 456 12 12 15 12 57 15 10 9 12 43 476 11 13 18 119 11 12 12 15 18 14 13 8 12 13 11 11 8 12 14 18 10 12 7 872 20 17 21 11 14 11 7840 6 11 15 1597 973 11 12 14 12 10 70 19 10 7 14 13 13 15 2878 15 13 11 9 11 14 10 14 5 14 10 8 12 10 2888 1476 6 1600 13 46 17 11 13 14 11 14 17 690 11 10 51 13 20 16 9 18 8 9 15 11 10 273 11 8 15 17 22 44 14 104 7 14 8 18 8 12 11 17 15 8 15 15 12 11 58 13 8 8 11 17 12 841 14 14 10 12 12 22 17 322 15 9 17 8 9 262 9 9 15 8 10 8 7 18 22 17 18 14 9 20 14 18 10 13 13 9 14 985 14 13 5 13 15 15 8 19 6 21 9 14 122 8 11 14 14 15 11 9 13 10 9 861 2064 168 68 12 15 7 9 6 9 8 13 74 7 235 29 1814 15 5 15 15 9 8 11 1548 1466 15 8 15 977 11 15 372 18 8 11 12 9 12 553 9 45 9 9 15 69 19 7 10 12 11 2203 20 8 20 6 13 125 11 9 7 8 16 18 18 13 9 381 22 1050 10 506 142 994 21 13 377 18 154 8 1469 8 15 9 19 994 10 335 14565 24 148 7 14 509 18 14 10 7 13 377 17 975 17 641 10 10 8 15 10 10 10 10 9 24 1470 8 9 14 4 5 14 638 16 11 18 12 368 8 17 15 8 8 10 15 204 11 9 1894 14 994 8 10 217 10 16 34 5 7 8 17 11 729 400 10 10 20 26 17 12 9 19 299 15 15 17 15 15 11 997 13 9 471 255 1570 449 12 25 9 955 6 17 20 30 8 14 8 14 11 14 16 11 484 15 7 14 9 12 20 1042 9 7 1797 12 14 21 12 11 194 135 7 14 16 13 8 12 14 14 368 7 125 10 132 4 9 7 16 8 14 8 13 9 21 6 10 9 524 15 13 6 17 14 72 514 10 17 9 9 14 962 1943 14 9 17 24 10 11 16 16 13 17 131 8 17 9 11 119 18 68 12 5 8 13 14 1562 346 10 11 17 17 17 13 14 10 8 11 13 21 10 16 10 7 14 1840 9 19 1472 14 7 963 9 11 11 883 11 12 10 9 21 983 12 26 8 12 7 13 83 16 27 9 11 10 6 9 17 11 13 12 21 11 9 9 10 12 14 8 429 11 14 1495 9 978 8 24 37 330 8 15 11 9 9 23 1467 8 11 1477 17 8 11 943 11 13 14 537 8 12 10 20 10 10 8 9 6 16 2 14 8 11 7 1091 12 11 
To predecode: 0
Predecoding something: 0
Predecode request dropped: 0
sizeofblock_0 0
sizeofblock_1 49293
sizeofblock_2 89545
sizeofblock_3 0
sizeofblock_4 0
sizeofblock_5 0
sizeofblock_6 0
sizeofblock_7 0
sizeofblock_8 0
Variant_0 Correct: 1607628 Incorrect: 0 Accuracy: 1
Variant_1 Correct: 5709585 Incorrect: 0 Accuracy: 1
Variant_2 Correct: 0 Incorrect: 0 Accuracy: -nan
Variant_3 Correct: 0 Incorrect: 0 Accuracy: -nan
