
*** ChampSim Multicore Out-of-Order Simulator ***

Warmup Instructions: 50000000
Simulation Instructions: 50000000
Number of CPUs: 1
LLC sets: 2048
LLC ways: 16
Off-chip DRAM Size: 4096 MB Channels: 1 Width: 64-bit Data Rate: 6400 MT/s
CPU 0 runs ./micro_traces/srv633.trace.gz
.gz
ITLB has LRU replacement policy
DTLB has LRU replacement policy
STLB has LRU replacement policy
FDIP Prefetcher at L1I
L1I has LRU replacement policy
L1D has LRU replacement policy
Initialize SRRIP state for L2C
Initialize DRRIP state for LLC
Heartbeat_Variant_0 : 1296 0.316406 per_variant_size: 0 1296 0 0 0 0 0 0 0 
Heartbeat_Variant_1 : 2483 0.606201 per_variant_size: 0 587 1896 0 0 0 0 0 0 
Heartbeat_Variant_2 : 0 0 per_variant_size: 0 0 0 0 0 0 0 0 0 
Heartbeat_Variant_3 : 0 0 per_variant_size: 0 0 0 0 0 0 0 0 0 
Heartbeat_Variant_0_evicts 0 : 5717 1 : 324 2 : 0 3 : 0 
Heartbeat_Variant_1_evicts 0 : 273 1 : 0 2 : 0 3 : 0 
Heartbeat_Variant_2_evicts 0 : 0 1 : 0 2 : 0 3 : 0 
Heartbeat_Variant_3_evicts 0 : 0 1 : 0 2 : 0 3 : 0 
Heartbeat CPU 0 instructions: 10000003 cycles: 2797094 heartbeat IPC: 3.57514 cumulative IPC: 3.57514 (Simulation time: 0 hr 1 min 46 sec) 
Heartbeat_Variant_0 : 1376 0.335938 per_variant_size: 0 1376 0 0 0 0 0 0 0 
Heartbeat_Variant_1 : 2666 0.650879 per_variant_size: 0 455 2211 0 0 0 0 0 0 
Heartbeat_Variant_2 : 0 0 per_variant_size: 0 0 0 0 0 0 0 0 0 
Heartbeat_Variant_3 : 0 0 per_variant_size: 0 0 0 0 0 0 0 0 0 
Heartbeat_Variant_0_evicts 0 : 6127 1 : 1083 2 : 0 3 : 0 
Heartbeat_Variant_1_evicts 0 : 1062 1 : 0 2 : 0 3 : 0 
Heartbeat_Variant_2_evicts 0 : 0 1 : 0 2 : 0 3 : 0 
Heartbeat_Variant_3_evicts 0 : 0 1 : 0 2 : 0 3 : 0 
Heartbeat CPU 0 instructions: 20000000 cycles: 5594577 heartbeat IPC: 3.57464 cumulative IPC: 3.57489 (Simulation time: 0 hr 3 min 28 sec) 
Heartbeat_Variant_0 : 1376 0.335938 per_variant_size: 0 1376 0 0 0 0 0 0 0 
Heartbeat_Variant_1 : 2669 0.651611 per_variant_size: 0 439 2230 0 0 0 0 0 0 
Heartbeat_Variant_2 : 0 0 per_variant_size: 0 0 0 0 0 0 0 0 0 
Heartbeat_Variant_3 : 0 0 per_variant_size: 0 0 0 0 0 0 0 0 0 
Heartbeat_Variant_0_evicts 0 : 5573 1 : 93 2 : 0 3 : 0 
Heartbeat_Variant_1_evicts 0 : 94 1 : 0 2 : 0 3 : 0 
Heartbeat_Variant_2_evicts 0 : 0 1 : 0 2 : 0 3 : 0 
Heartbeat_Variant_3_evicts 0 : 0 1 : 0 2 : 0 3 : 0 
Heartbeat CPU 0 instructions: 30000001 cycles: 8392406 heartbeat IPC: 3.5742 cumulative IPC: 3.57466 (Simulation time: 0 hr 5 min 6 sec) 
Heartbeat_Variant_0 : 1371 0.334717 per_variant_size: 0 1371 0 0 0 0 0 0 0 
Heartbeat_Variant_1 : 2690 0.656738 per_variant_size: 0 443 2247 0 0 0 0 0 0 
Heartbeat_Variant_2 : 0 0 per_variant_size: 0 0 0 0 0 0 0 0 0 
Heartbeat_Variant_3 : 0 0 per_variant_size: 0 0 0 0 0 0 0 0 0 
Heartbeat_Variant_0_evicts 0 : 5786 1 : 416 2 : 0 3 : 0 
Heartbeat_Variant_1_evicts 0 : 424 1 : 0 2 : 0 3 : 0 
Heartbeat_Variant_2_evicts 0 : 0 1 : 0 2 : 0 3 : 0 
Heartbeat_Variant_3_evicts 0 : 0 1 : 0 2 : 0 3 : 0 
Heartbeat CPU 0 instructions: 40000000 cycles: 11187773 heartbeat IPC: 3.57735 cumulative IPC: 3.57533 (Simulation time: 0 hr 6 min 47 sec) 
Heartbeat_Variant_0 : 1375 0.335693 per_variant_size: 0 1375 0 0 0 0 0 0 0 
Heartbeat_Variant_1 : 2688 0.65625 per_variant_size: 0 440 2248 0 0 0 0 0 0 
Heartbeat_Variant_2 : 0 0 per_variant_size: 0 0 0 0 0 0 0 0 0 
Heartbeat_Variant_3 : 0 0 per_variant_size: 0 0 0 0 0 0 0 0 0 
Heartbeat_Variant_0_evicts 0 : 5782 1 : 209 2 : 0 3 : 0 
Heartbeat_Variant_1_evicts 0 : 205 1 : 0 2 : 0 3 : 0 
Heartbeat_Variant_2_evicts 0 : 0 1 : 0 2 : 0 3 : 0 
Heartbeat_Variant_3_evicts 0 : 0 1 : 0 2 : 0 3 : 0 
Heartbeat CPU 0 instructions: 50000003 cycles: 13983699 heartbeat IPC: 3.57663 cumulative IPC: 3.57559 (Simulation time: 0 hr 8 min 25 sec) 

Warmup complete CPU 0 instructions: 50000003 cycles: 13983699 (Simulation time: 0 hr 8 min 25 sec) 

Cycle: 20000000 FTQ IN: 58415870 FTQ occupancy: 20.5846 DECODE IN: 58415756 DECODE occupancy: 53.5653 ROB IN: 58415756 ROB occupancy: 318.77 ROB OUT: 58415458
Heartbeat_Variant_0 : 1377 0.336182 per_variant_size: 0 1377 0 0 0 0 0 0 0 
Heartbeat_Variant_1 : 2686 0.655762 per_variant_size: 0 436 2250 0 0 0 0 0 0 
Heartbeat_Variant_2 : 0 0 per_variant_size: 0 0 0 0 0 0 0 0 0 
Heartbeat_Variant_3 : 0 0 per_variant_size: 0 0 0 0 0 0 0 0 0 
Heartbeat_Variant_0_evicts 0 : 5575 1 : 91 2 : 0 3 : 0 
Heartbeat_Variant_1_evicts 0 : 89 1 : 0 2 : 0 3 : 0 
Heartbeat_Variant_2_evicts 0 : 0 1 : 0 2 : 0 3 : 0 
Heartbeat_Variant_3_evicts 0 : 0 1 : 0 2 : 0 3 : 0 
Heartbeat CPU 0 instructions: 60000002 cycles: 21220214 heartbeat IPC: 1.38188 cumulative IPC: 1.38188 (Simulation time: 0 hr 10 min 25 sec) 
Heartbeat_Variant_0 : 1389 0.339111 per_variant_size: 0 1389 0 0 0 0 0 0 0 
Heartbeat_Variant_1 : 2678 0.653809 per_variant_size: 0 431 2247 0 0 0 0 0 0 
Heartbeat_Variant_2 : 0 0 per_variant_size: 0 0 0 0 0 0 0 0 0 
Heartbeat_Variant_3 : 0 0 per_variant_size: 0 0 0 0 0 0 0 0 0 
Heartbeat_Variant_0_evicts 0 : 5806 1 : 278 2 : 0 3 : 0 
Heartbeat_Variant_1_evicts 0 : 266 1 : 0 2 : 0 3 : 0 
Heartbeat_Variant_2_evicts 0 : 0 1 : 0 2 : 0 3 : 0 
Heartbeat_Variant_3_evicts 0 : 0 1 : 0 2 : 0 3 : 0 
Heartbeat CPU 0 instructions: 70000001 cycles: 28423633 heartbeat IPC: 1.38823 cumulative IPC: 1.38505 (Simulation time: 0 hr 12 min 24 sec) 
Cycle: 30000000 FTQ IN: 13782801 FTQ occupancy: 14.9057 DECODE IN: 13782798 DECODE occupancy: 37.8785 ROB IN: 13782738 ROB occupancy: 246.519 ROB OUT: 13782688
Heartbeat_Variant_0 : 1392 0.339844 per_variant_size: 0 1392 0 0 0 0 0 0 0 
Heartbeat_Variant_1 : 2676 0.65332 per_variant_size: 0 429 2247 0 0 0 0 0 0 
Heartbeat_Variant_2 : 0 0 per_variant_size: 0 0 0 0 0 0 0 0 0 
Heartbeat_Variant_3 : 0 0 per_variant_size: 0 0 0 0 0 0 0 0 0 
Heartbeat_Variant_0_evicts 0 : 5564 1 : 53 2 : 0 3 : 0 
Heartbeat_Variant_1_evicts 0 : 51 1 : 0 2 : 0 3 : 0 
Heartbeat_Variant_2_evicts 0 : 0 1 : 0 2 : 0 3 : 0 
Heartbeat_Variant_3_evicts 0 : 0 1 : 0 2 : 0 3 : 0 
Heartbeat CPU 0 instructions: 80000001 cycles: 35588301 heartbeat IPC: 1.39574 cumulative IPC: 1.38859 (Simulation time: 0 hr 14 min 22 sec) 
Cycle: 40000000 FTQ IN: 13824497 FTQ occupancy: 14.9866 DECODE IN: 13824614 DECODE occupancy: 37.9707 ROB IN: 13824662 ROB occupancy: 246.949 ROB OUT: 13824985
Heartbeat_Variant_0 : 1384 0.337891 per_variant_size: 0 1384 0 0 0 0 0 0 0 
Heartbeat_Variant_1 : 2686 0.655762 per_variant_size: 0 425 2261 0 0 0 0 0 0 
Heartbeat_Variant_2 : 0 0 per_variant_size: 0 0 0 0 0 0 0 0 0 
Heartbeat_Variant_3 : 0 0 per_variant_size: 0 0 0 0 0 0 0 0 0 
Heartbeat_Variant_0_evicts 0 : 5763 1 : 311 2 : 0 3 : 0 
Heartbeat_Variant_1_evicts 0 : 319 1 : 0 2 : 0 3 : 0 
Heartbeat_Variant_2_evicts 0 : 0 1 : 0 2 : 0 3 : 0 
Heartbeat_Variant_3_evicts 0 : 0 1 : 0 2 : 0 3 : 0 
Heartbeat CPU 0 instructions: 90000003 cycles: 42859248 heartbeat IPC: 1.37534 cumulative IPC: 1.38526 (Simulation time: 0 hr 16 min 12 sec) 
Cycle: 50000000 FTQ IN: 13814772 FTQ occupancy: 14.7144 DECODE IN: 13814656 DECODE occupancy: 37.2751 ROB IN: 13814608 ROB occupancy: 244.794 ROB OUT: 13814282
Heartbeat_Variant_0 : 1386 0.338379 per_variant_size: 0 1386 0 0 0 0 0 0 0 
Heartbeat_Variant_1 : 2688 0.65625 per_variant_size: 0 411 2277 0 0 0 0 0 0 
Heartbeat_Variant_2 : 0 0 per_variant_size: 0 0 0 0 0 0 0 0 0 
Heartbeat_Variant_3 : 0 0 per_variant_size: 0 0 0 0 0 0 0 0 0 
Heartbeat_Variant_0_evicts 0 : 5689 1 : 366 2 : 0 3 : 0 
Heartbeat_Variant_1_evicts 0 : 364 1 : 0 2 : 0 3 : 0 
Heartbeat_Variant_2_evicts 0 : 0 1 : 0 2 : 0 3 : 0 
Heartbeat_Variant_3_evicts 0 : 0 1 : 0 2 : 0 3 : 0 
Heartbeat CPU 0 instructions: 100000001 cycles: 50121780 heartbeat IPC: 1.37693 cumulative IPC: 1.38358 (Simulation time: 0 hr 18 min 14 sec) 
Finished CPU 0 instructions: 50000002 cycles: 36138082 cumulative IPC: 1.38358 (Simulation time: 0 hr 18 min 14 sec) 

ChampSim completed all CPUs

Region of Interest Statistics

CPU 0 cumulative IPC: 1.38358 instructions: 50000002 cycles: 36138082
 Fetch stage stalled: 46.2233  Sim cycles: 36138082 fetch stall cycle: 16704203
 Empty decode stage: 25.7436  Sim cycles: 36138082 fetch stall cycle: 9303242
ITLB TOTAL     ACCESS:    5845755  HIT:    5348078  MISS:     497677  HIT %:    91.4865  MISS %:    8.51348   MPKI: 9.95354
ITLB LOAD TRANSLATION INSTRUCTION	ACCESS:    5710910  HIT:    5213233  MISS:     497677  HIT %:    91.2855  MISS %:     8.7145  MPKI: 9.95354
ITLB TRANSLATION FROM L1D PREFETCHER INSTRUCTION	ACCESS:     134845  HIT:     134845  MISS:          0  HIT %:        100  MISS %:          0  MPKI: 0

ITLB AVERAGE MISS LATENCY: 9.06105 cycles
ITLB RQ	ACCESS:    7948274	FORWARD:          0	MERGED:    1617119	TO_CACHE:    6331155

DTLB TOTAL     ACCESS:    8965487  HIT:    8489532  MISS:     475955  HIT %:    94.6913  MISS %:    5.30875   MPKI: 9.5191
DTLB LOAD TRANSLATION DATA	ACCESS:    8965487  HIT:    8489532  MISS:     475955  HIT %:    94.6913  MISS %:    5.30875  MPKI: 9.5191

DTLB AVERAGE MISS LATENCY: 9.32411 cycles
DTLB RQ	ACCESS:   13344656	FORWARD:          0	MERGED:    4341969	TO_CACHE:    9002687

STLB TOTAL     ACCESS:    1217754  HIT:    1215538  MISS:       2216  HIT %:     99.818  MISS %:   0.181974   MPKI: 0.04432
STLB LOAD TRANSLATION INSTRUCTION	ACCESS:     497677  HIT:     497260  MISS:        417  HIT %:    99.9162  MISS %:  0.0837893  MPKI: 0.00834
STLB LOAD TRANSLATION DATA	ACCESS:     475951  HIT:     474180  MISS:       1771  HIT %:    99.6279  MISS %:   0.372097  MPKI: 0.03542
STLB TRANSLATION FROM L1D PREFETCHER DATA	ACCESS:     244126  HIT:     244098  MISS:         28  HIT %:    99.9885  MISS %:  0.0114695  MPKI: 0.00056

STLB AVERAGE MISS LATENCY: 70.1241 cycles
STLB RQ	ACCESS:    1334208	FORWARD:          0	MERGED:     116399	TO_CACHE:    1217809

STLB Hit, L1D data hit: 0
STLB Hit, L2C data hit: 0
STLB Hit, LLC data hit: 0
STLB Hit, LLC data miss: 0
STLB STLB hints to L2: 0
L1D TOTAL     ACCESS:   13079743  HIT:   11959607  MISS:    1120136  HIT %:    91.4361  MISS %:     8.5639   MPKI: 22.4027
L1D LOAD DATA	ACCESS:    6545050  HIT:    5806127  MISS:     738923  HIT %:    88.7102  MISS %:    11.2898  MPKI: 14.7785
L1D RFO DATA	ACCESS:    6213415  HIT:    5925803  MISS:     287612  HIT %:    95.3711  MISS %:    4.62889  MPKI: 5.75224
L1D PREFETCH DATA	ACCESS:     321278  HIT:     227677  MISS:      93601  HIT %:     70.866  MISS %:     29.134  MPKI: 1.87202

L1D PREFETCH  REQUESTED:     721534  ISSUED:     721534  USEFUL:      34047  USELESS:      67763
L1D USEFUL LOAD PREFETCHES:      34047 PREFETCH ISSUED TO LOWER LEVEL:     101851  ACCURACY: 33.4282
 TIMELY PREFETCHES:      34047 LATE PREFETCHES: 8214 DROPPED PREFETCHES: 16
L1D AVERAGE MISS LATENCY: 237275 cycles
L1D RQ	ACCESS:   10690471	FORWARD:          0	MERGED:    3940471	TO_CACHE:    6581171
L1D WQ	ACCESS:    6962760	FORWARD:     169211	MERGED:     199275	TO_CACHE:    6763485
L1D PQ	ACCESS:     360958	FORWARD:          0	MERGED:          0	TO_CACHE:     360576

L1D UNIQUE REGIONS ACCESSED: 0
L1D REGIONS CONFLICTS: 0
L1D Cross Page Prefetch Requests: 5930
L1D Same Page Prefetch Requests: 735337
L1D ROI Sum of L1D PQ occupancy: 4586232
L1D PREFETCHES PUSHED FROM L2C: 0
L1I TOTAL     ACCESS:    7128140  HIT:    4349375  MISS:    2778765  HIT %:     61.017  MISS %:     38.983   MPKI: 55.5753
L1I LOAD INSTRUCTION	ACCESS:    6466302  HIT:    3687537  MISS:    2778765  HIT %:     57.027  MISS %:     42.973  MPKI: 55.5753
L1I PREFETCH INSTRUCTION	ACCESS:     661838  HIT:     661838  MISS:          0  HIT %:        100  MISS %:          0  MPKI: 0

L1I PREFETCH  REQUESTED:    1606159  ISSUED:    1606159  USEFUL:          0  USELESS:          0
L1I USEFUL LOAD PREFETCHES:          0 PREFETCH ISSUED TO LOWER LEVEL:          0  ACCURACY: -nan
 TIMELY PREFETCHES:          0 LATE PREFETCHES: 0 DROPPED PREFETCHES: 0
L1I AVERAGE MISS LATENCY: 17.5023 cycles
L1I RQ	ACCESS:    9568028	FORWARD:          0	MERGED:    2801226	TO_CACHE:    6766802
L1I PQ	ACCESS:    1606159	FORWARD:          0	MERGED:     424687	TO_CACHE:    1181472

L1BTB TOTAL     ACCESS:    5667945  HIT:    2022342  MISS:    3645603  HIT %:    35.6803  MISS %:    64.3197   MPKI: 72.9121
L1BTB BRANCH_DIRECT_JUMP	ACCESS:     547875 HIT:     143865 MISS:     404010 AVERAGE STALL: 55.1355 AVERAGE FETCH STALL: 15.3155 AVERAGE FETCH QUEUE STALL: 18.8937 AVERAGE DECODE STALL: 19.9925 AVERAGE EXECUTE STALL: 2.08815e+15
L1BTB BRANCH_INDIRECT	ACCESS:     182503 HIT:      65488 MISS:     117015 AVERAGE STALL: 112.266 AVERAGE FETCH STALL: 11.3261 AVERAGE FETCH QUEUE STALL: 19.1344 AVERAGE DECODE STALL: 13.7281 AVERAGE EXECUTE STALL: 67.114
L1BTB BRANCH_CONDITIONAL	ACCESS:    2694430 HIT:    1397414 MISS:    1297016 AVERAGE STALL: 61.8698 AVERAGE FETCH STALL: 22.3039 AVERAGE FETCH QUEUE STALL: 24.1952 AVERAGE DECODE STALL: 14.7113 AVERAGE EXECUTE STALL: 2.52039e+15
L1BTB BRANCH_DIRECT_CALL	ACCESS:     949387 HIT:     104764 MISS:     844623 AVERAGE STALL: 67.5641 AVERAGE FETCH STALL: 27.4581 AVERAGE FETCH QUEUE STALL: 22.9412 AVERAGE DECODE STALL: 16.3527 AVERAGE EXECUTE STALL: 6.31089e+15
L1BTB BRANCH_INDIRECT_CALL	ACCESS:     172184 HIT:      21016 MISS:     151168 AVERAGE STALL: 140.785 AVERAGE FETCH STALL: 12.1841 AVERAGE FETCH QUEUE STALL: 18.372 AVERAGE DECODE STALL: 11.8492 AVERAGE EXECUTE STALL: 97.8871
L1BTB BRANCH_RETURN	ACCESS:    1121566 HIT:     289795 MISS:     831771 AVERAGE STALL: 50.1967 AVERAGE FETCH STALL: 16.0616 AVERAGE FETCH QUEUE STALL: 6.42509 AVERAGE DECODE STALL: 6.0895 AVERAGE EXECUTE STALL: 4.28615e+14
L1BTB BRANCH_OTHER ACCESS:          0 HIT:          0 MISS:          0 AVERAGE STALL: -nan AVERAGE FETCH STALL: -nan AVERAGE FETCH QUEUE STALL: -nan AVERAGE DECODE STALL: -nan AVERAGE EXECUTE STALL: -nan
L1BTB TOTAL ROB OCCUPANCY AT BTB MISS: 2.87049

L2BTB TOTAL     ACCESS:    3620298  HIT:    3550545  MISS:      69753  HIT %:    98.0733  MISS %:    1.92672   MPKI: 1.39506
L2BTB BRANCH_DIRECT_JUMP	ACCESS:     399926 HIT:     395172 MISS:       4754 AVERAGE STALL: 55.1355 AVERAGE FETCH STALL: 15.3155 AVERAGE FETCH QUEUE STALL: 18.8937 AVERAGE DECODE STALL: 19.9925 AVERAGE EXECUTE STALL: 2.08815e+15
L2BTB BRANCH_INDIRECT	ACCESS:     106680 HIT:     103901 MISS:       2779 AVERAGE STALL: 112.266 AVERAGE FETCH STALL: 11.3261 AVERAGE FETCH QUEUE STALL: 19.1344 AVERAGE DECODE STALL: 13.7281 AVERAGE EXECUTE STALL: 67.114
L2BTB BRANCH_CONDITIONAL	ACCESS:    1297016 HIT:    1289611 MISS:       7405 AVERAGE STALL: 61.8698 AVERAGE FETCH STALL: 22.3039 AVERAGE FETCH QUEUE STALL: 24.1952 AVERAGE DECODE STALL: 14.7113 AVERAGE EXECUTE STALL: 2.52039e+15
L2BTB BRANCH_DIRECT_CALL	ACCESS:     844623 HIT:     841667 MISS:       2956 AVERAGE STALL: 67.5641 AVERAGE FETCH STALL: 27.4581 AVERAGE FETCH QUEUE STALL: 22.9412 AVERAGE DECODE STALL: 16.3527 AVERAGE EXECUTE STALL: 6.31089e+15
L2BTB BRANCH_INDIRECT_CALL	ACCESS:     141701 HIT:     131485 MISS:      10216 AVERAGE STALL: 140.785 AVERAGE FETCH STALL: 12.1841 AVERAGE FETCH QUEUE STALL: 18.372 AVERAGE DECODE STALL: 11.8492 AVERAGE EXECUTE STALL: 97.8871
L2BTB BRANCH_RETURN	ACCESS:     830352 HIT:     788709 MISS:      41643 AVERAGE STALL: 50.1967 AVERAGE FETCH STALL: 16.0616 AVERAGE FETCH QUEUE STALL: 6.42509 AVERAGE DECODE STALL: 6.0895 AVERAGE EXECUTE STALL: 4.28615e+14
L2BTB BRANCH_OTHER ACCESS:          0 HIT:          0 MISS:          0 AVERAGE STALL: -nan AVERAGE FETCH STALL: -nan AVERAGE FETCH QUEUE STALL: -nan AVERAGE DECODE STALL: -nan AVERAGE EXECUTE STALL: -nan
L2BTB TOTAL ROB OCCUPANCY AT BTB MISS: 150.025

L2C TOTAL     ACCESS:    4516701  HIT:    3991884  MISS:     524817  HIT %:    88.3805  MISS %:    11.6195   MPKI: 10.4963
L2C LOAD INSTRUCTION	ACCESS:    2778765  HIT:    2495606  MISS:     283159  HIT %:    89.8099  MISS %:    10.1901  MPKI: 5.66318
L2C LOAD TRANSLATION INSTRUCTION	ACCESS:        467  HIT:        156  MISS:        311  HIT %:    33.4047  MISS %:    66.5953  MPKI: 0.00622
L2C LOAD DATA	ACCESS:     730671  HIT:     645510  MISS:      85161  HIT %:    88.3448  MISS %:    11.6552  MPKI: 1.70322
L2C RFO DATA	ACCESS:     287550  HIT:     229237  MISS:      58313  HIT %:    79.7207  MISS %:    20.2793  MPKI: 1.16626
L2C PREFETCH DATA	ACCESS:     190869  HIT:     113619  MISS:      77250  HIT %:    59.5272  MISS %:    40.4728  MPKI: 1.545
L2C WRITEBACK DATA	ACCESS:     526448  HIT:     507212  MISS:      19236  HIT %:    96.3461  MISS %:    3.65392  MPKI: 0.38472
L2C LOAD TRANSLATION DATA	ACCESS:       1870  HIT:        503  MISS:       1367  HIT %:    26.8984  MISS %:    73.1016  MPKI: 0.02734
L2C TRANSLATION FROM L1D PREFETCHER DATA	ACCESS:         61  HIT:         41  MISS:         20  HIT %:    67.2131  MISS %:    32.7869  MPKI: 0.0004

L2C PREFETCH  REQUESTED:      97863  ISSUED:      97863  USEFUL:       8462  USELESS:      69354
L2C USEFUL LOAD PREFETCHES:       8462 PREFETCH ISSUED TO LOWER LEVEL:      77751  ACCURACY: 10.8835
 TIMELY PREFETCHES:       8462 LATE PREFETCHES: 501 DROPPED PREFETCHES: 0
L2C AVERAGE MISS LATENCY: 37.5363 cycles
L2C RQ	ACCESS:    3799448	FORWARD:          0	MERGED:          0	TO_CACHE:    3799384
L2C WQ	ACCESS:     526448	FORWARD:         64	MERGED:          0	TO_CACHE:     526448
L2C PQ	ACCESS:     199714	FORWARD:          0	MERGED:       4194	TO_CACHE:     195520

L2C Dense regions hint from L2: 0
PSCL5 TOTAL     ACCESS:       4472  HIT:       2236  MISS:       2236  HIT %:         50  MISS %:         50   MPKI: 0.04472
PSCL5 LOAD TRANSLATION INSTRUCTION	ACCESS:       4350  HIT:       2175  MISS:       2175  HIT %:         50  MISS %:         50  MPKI: 0.0435
PSCL5 TRANSLATION FROM L1D PREFETCHER INSTRUCTION	ACCESS:        122  HIT:         61  MISS:         61  HIT %:         50  MISS %:         50  MPKI: 0.00122


PSCL4 TOTAL     ACCESS:       3006  HIT:       1500  MISS:       1506  HIT %:    49.9002  MISS %:    50.0998   MPKI: 0.03012
PSCL4 LOAD TRANSLATION INSTRUCTION	ACCESS:       2538  HIT:       1466  MISS:       1072  HIT %:     57.762  MISS %:     42.238  MPKI: 0.02144
PSCL4 TRANSLATION FROM L1D PREFETCHER INSTRUCTION	ACCESS:         68  HIT:         34  MISS:         34  HIT %:         50  MISS %:         50  MPKI: 0.00068
PSCL4 LOAD TRANSLATION DATA	ACCESS:        400  HIT:          0  MISS:        400  HIT %:          0  MISS %:        100  MPKI: 0.008


PSCL3 TOTAL     ACCESS:       4295  HIT:       2139  MISS:       2156  HIT %:    49.8021  MISS %:    50.1979   MPKI: 0.04312
PSCL3 LOAD TRANSLATION INSTRUCTION	ACCESS:       3788  HIT:       2093  MISS:       1695  HIT %:    55.2534  MISS %:    44.7466  MPKI: 0.0339
PSCL3 TRANSLATION FROM L1D PREFETCHER INSTRUCTION	ACCESS:         92  HIT:         46  MISS:         46  HIT %:         50  MISS %:         50  MPKI: 0.00092
PSCL3 LOAD TRANSLATION DATA	ACCESS:        415  HIT:          0  MISS:        415  HIT %:          0  MISS %:        100  MPKI: 0.0083


PSCL2 TOTAL     ACCESS:       4331  HIT:       2095  MISS:       2236  HIT %:    48.3722  MISS %:    51.6278   MPKI: 0.04472
PSCL2 LOAD TRANSLATION INSTRUCTION	ACCESS:       2451  HIT:       2034  MISS:        417  HIT %:    82.9865  MISS %:    17.0135  MPKI: 0.00834
PSCL2 TRANSLATION FROM L1D PREFETCHER INSTRUCTION	ACCESS:         61  HIT:         61  MISS:          0  HIT %:        100  MISS %:          0  MPKI: 0
PSCL2 LOAD TRANSLATION DATA	ACCESS:       1758  HIT:          0  MISS:       1758  HIT %:          0  MISS %:        100  MPKI: 0.03516
PSCL2 TRANSLATION FROM L1D PREFETCHER DATA	ACCESS:         61  HIT:          0  MISS:         61  HIT %:          0  MISS %:        100  MPKI: 0.00122


LLC TOTAL     ACCESS:     589327  HIT:     560604  MISS:      28723  HIT %:    95.1261  MISS %:    4.87386   MPKI: 0.57446
LLC LOAD INSTRUCTION	ACCESS:     283159  HIT:     282259  MISS:        900  HIT %:    99.6822  MISS %:   0.317843  MPKI: 0.018
LLC LOAD TRANSLATION INSTRUCTION	ACCESS:        311  HIT:        289  MISS:         22  HIT %:     92.926  MISS %:    7.07395  MPKI: 0.00044
LLC LOAD DATA	ACCESS:      84666  HIT:      81153  MISS:       3513  HIT %:    95.8508  MISS %:    4.14925  MPKI: 0.07026
LLC RFO DATA	ACCESS:      58292  HIT:      44353  MISS:      13939  HIT %:    76.0876  MISS %:    23.9124  MPKI: 0.27878
LLC PREFETCH DATA	ACCESS:      77750  HIT:      67831  MISS:       9919  HIT %:    87.2424  MISS %:    12.7576  MPKI: 0.19838
LLC WRITEBACK DATA	ACCESS:      83762  HIT:      83412  MISS:        350  HIT %:    99.5821  MISS %:   0.417851  MPKI: 0.007
LLC LOAD TRANSLATION DATA	ACCESS:       1367  HIT:       1287  MISS:         80  HIT %:    94.1478  MISS %:    5.85223  MPKI: 0.0016
LLC TRANSLATION FROM L1D PREFETCHER DATA	ACCESS:         20  HIT:         20  MISS:          0  HIT %:        100  MISS %:          0  MPKI: 0

LLC AVERAGE MISS LATENCY: 156.4 cycles
LLC RQ	ACCESS:     427830	FORWARD:          0	MERGED:          0	TO_CACHE:     427815
LLC WQ	ACCESS:      83762	FORWARD:         16	MERGED:          0	TO_CACHE:      83762
LLC PQ	ACCESS:      77751	FORWARD:          0	MERGED:          0	TO_CACHE:      77750

LLC Dense regions hint to LLC: 0

RAW hits: 1951415
Loads Generated: 12641886
Loads sent to L1D: 10690471
Stores Generated: 6962748
Stores sent to L1D: 6962760
Major fault: 0 Minor fault: 2609
Allocated PAGES: 2609

stream: 
stream:times selected: 1168724
stream:pref_filled: 119826
stream:pref_useful: 23676
stream:pref_late: 6745
stream:misses: 6645
stream:misses_by_poll: 0

CS: 
CS:times selected: 175765
CS:pref_filled: 59005
CS:pref_useful: 35281
CS:pref_late: 7027
CS:misses: 15965
CS:misses_by_poll: 4

CPLX: 
CPLX:times selected: 991812
CPLX:pref_filled: 19493
CPLX:pref_useful: 4347
CPLX:pref_late: 3084
CPLX:misses: 90622
CPLX:misses_by_poll: 1

NL_L1: 
NL:times selected: 19311
NL:pref_filled: 550
NL:pref_useful: 235
NL:pref_late: 211
NL:misses: 1059
NL:misses_by_poll: 0

total selections: 2355612
total_filled: 93601
total_useful: 34047
total_late: 18294
total_polluted: 5
total_misses_after_warmup: 775045
conflicts: 5529644

test: 112770

DRAM Statistics
 CHANNEL 0
 RQ ROW_BUFFER_HIT:      10554  ROW_BUFFER_MISS:      17814
 DBUS_CONGESTED:         20
 WQ ROW_BUFFER_HIT:       1432  ROW_BUFFER_MISS:      12085  FULL:          0

 AVG_CONGESTED_CYCLE: 5

CPU 0 Branch Prediction Accuracy: 99.821% MPKI: 0.3275 Average ROB Occupancy at Mispredict: 192.727
Branch types
NOT_BRANCH: 40852492 81.705%
BRANCH_DIRECT_JUMP: 547875 1.09575%
BRANCH_INDIRECT: 182503 0.365006%
BRANCH_CONDITIONAL: 6173867 12.3477%
BRANCH_DIRECT_CALL: 949387 1.89877%
BRANCH_INDIRECT_CALL: 172184 0.344368%
BRANCH_RETURN: 1121566 2.24313%
BRANCH_OTHER: 0 0%

DRAM PAGES: 1048576
Allocated PAGES: 2609
Average_ROB_Occupancy: 247.842
Average_Decode_Occupancy: 37.8163
Average_FTQ_Occupancy: 14.8786
Indirect max targets: 14 Average targets: 1.1746
Branch_type:  BRANCH_DIRECT_JUMP:  Count Percentage: 3.28651 5.30834 4.94889 7.4641 2.31645 6.51678 1.58569 68.5732 
Branch_type:  BRANCH_INDIRECT:  Count Percentage: 19.7443 13.0942 5.30972 3.77514 2.00879 1.20101 3.22704 51.6398 
Branch_type:  BRANCH_CONDITIONAL:  Count Percentage: 22.0459 6.18827 2.57121 4.05516 2.42599 7.98923 0.953545 53.7706 
Branch_type:  BRANCH_DIRECT_CALL:  Count Percentage: 0.777437 1.31549 1.00463 4.69667 3.12596 2.73808 0.696991 85.6448 
Branch_type:  BRANCH_INDIRECT_CALL:  Count Percentage: 9.57958 0 3.00415 4.30282 0.86103 2.99658 0.997212 78.2586 
Branch_type:  BRANCH_RETURN:  Count Percentage: 5.12397 5.91904 2.59448 3.98772 4.76711 8.08586 1.18359 68.3382 
Branch_type:  BRANCH_DIRECT_JUMP:  Total Count: 35997 58142 54205 81754 25372 71378 17368 751080 
Branch_type:  BRANCH_INDIRECT:  Total Count: 72154 47852 19404 13796 7341 4389 11793 188714 
Branch_type:  BRANCH_CONDITIONAL:  Total Count: 2721477 763915 317405 500592 299478 986236 117711 6637753 
Branch_type:  BRANCH_DIRECT_CALL:  Total Count: 14728 24921 19032 88975 59219 51871 13204 1622479 
Branch_type:  BRANCH_INDIRECT_CALL:  Total Count: 32921 0 10324 14787 2959 10298 3427 268942 
Branch_type:  BRANCH_RETURN:  Total Count: 114723 132524 58089 89283 106733 181038 26500 1530056 
Number of unique branch instructions: 10676
Upper 32 bits: 
aaaa
ffff
ffff0000
Unique upper 32 bits: 3
Unique upper 36 bits: 3
Unique upper 40 bits: 5
Unique upper 44 bits: 32
Unique upper 48 bits: 158
Variant_0 : 1386 0.338379
Variant_1 : 2688 0.65625
Variant_2 : 0 0
Variant_3 : 0 0
Offset_3 4428
Offset_4 258
Offset_5 477
Offset_6 535
Offset_7 634
Offset_8 572
Offset_9 511
Offset_10 415
Offset_11 340
Offset_12 307
Offset_13 240
Offset_14 245
Offset_15 194
Offset_16 227
Offset_17 165
Offset_18 148
Offset_19 261
Offset_20 141
Offset_21 235
Offset_22 411
Offset_23 241
Offset_24 349
Offset_25 117
Offset_47 94
Offset_64 1
decode_dispatch_called: 26310278 72.8049
Dispatch_width: 0 14237590 54.1142 39.3977
Dispatch_width: 1 1007780 3.83037 2.78869
Dispatch_width: 2 844276 3.20892 2.33625
Dispatch_width: 3 490340 1.86368 1.35685
Dispatch_width: 4 6219397 23.6387 17.2101
Dispatch_width: 5 110308 0.419258 0.30524
Dispatch_width: 6 3400587 12.9249 9.40998
Empty_decode_cycles: 9827804 27.1951
ROB_full_cycles: 9938172 27.5006
Starvation_cycles_per_kilo_instr: 227.993
Starvation_cycles_per_kilo_instr_3: 164.696
Starvation_cycles_per_kilo_instr_0: 141.272
Branch_type_1  (3,1)  (4,9)  (5,39)  (6,72)  (7,124)  (8,148)  (9,133)  (10,109)  (11,76)  (12,47)  (13,11)  (14,2)  (15,3)  (16,4)  (18,1)  (19,5)  (20,2)  (21,1)  (22,3)  (23,2)  (24,10)  (25,12) 
Branch_type_2  (3,1)  (4,1)  (5,1)  (8,4)  (9,4)  (10,1)  (12,1)  (13,1)  (14,1)  (16,3)  (17,2)  (20,2)  (21,2)  (23,5)  (24,1)  (47,43) 
Branch_type_3  (3,4426)  (4,248)  (5,433)  (6,447)  (7,481)  (8,354)  (9,280)  (10,167)  (11,129)  (12,54)  (13,10)  (64,1) 
Branch_type_4  (6,3)  (7,8)  (8,25)  (9,56)  (10,66)  (11,69)  (12,114)  (13,102)  (14,110)  (15,92)  (16,99)  (17,76)  (18,63)  (19,128)  (20,72)  (21,124)  (22,217)  (23,136)  (24,204)  (25,101) 
Branch_type_5  (8,3)  (9,1)  (10,4)  (11,5)  (12,3)  (13,14)  (14,16)  (15,11)  (16,22)  (17,11)  (18,23)  (19,14)  (20,11)  (21,13)  (22,43)  (23,26)  (24,38) 
Branch_type_6  (5,4)  (6,13)  (7,21)  (8,38)  (9,37)  (10,68)  (11,61)  (12,88)  (13,102)  (14,116)  (15,88)  (16,99)  (17,76)  (18,61)  (19,114)  (20,54)  (21,95)  (22,148)  (23,72)  (24,96)  (25,4)  (47,51) 
Unique trigger count: 
Variant_0_evicts_0 : 0
Variant_0_evicts_1 : 0
Variant_0_evicts_2 : 0
Variant_0_evicts_3 : 0
Variant_1_evicts_0 : 0
Variant_1_evicts_1 : 0
Variant_1_evicts_2 : 0
Variant_1_evicts_3 : 0
Variant_2_evicts_0 : 0
Variant_2_evicts_1 : 0
Variant_2_evicts_2 : 0
Variant_2_evicts_3 : 0
Variant_3_evicts_0 : 0
Variant_3_evicts_1 : 0
Variant_3_evicts_2 : 0
Variant_3_evicts_3 : 0
BTB PER SET UNIQUE ADDR: 17 16 9 15 17 11 6 15 11 13 12 15 19 12 15 9 12 13 12 15 12 14 16 17 11 15 9 14 13 16 12 16 12 8 10 9 10 12 11 10 11 14 14 14 13 11 19 12 17 11 14 13 13 12 11 9 11 10 15 11 14 13 15 14 11 18 12 10 17 14 11 13 15 14 10 8 8 17 13 17 18 9 12 18 18 13 10 16 10 18 11 9 8 10 12 11 13 8 17 17 18 17 15 9 13 16 9 14 8 11 13 22 17 10 10 6 8 11 9 11 15 11 12 14 13 14 8 15 19 14 8 13 10 14 11 17 11 18 12 20 14 12 16 8 15 12 14 10 7 18 13 15 14 9 12 17 13 12 18 15 10 9 15 12 9 15 15 10 14 11 13 14 12 14 14 14 15 12 12 17 11 13 14 20 17 16 5 14 17 10 13 11 9 13 13 11 10 13 9 13 15 15 10 9 9 14 11 13 14 18 13 14 15 15 14 13 13 11 9 18 7 15 7 13 16 13 11 15 9 18 14 9 10 18 12 14 13 13 9 9 14 17 13 18 12 13 11 11 13 15 16 11 11 11 16 18 10 12 10 11 14 10 5 16 14 7 11 10 12 10 13 12 8 6 9 10 14 13 12 14 12 12 11 10 20 16 12 16 18 11 10 12 12 16 11 16 12 15 16 17 10 11 13 27 17 18 12 12 12 11 13 21 12 15 16 7 20 12 10 20 12 13 10 13 11 18 14 10 15 8 12 17 11 12 10 16 12 11 11 20 11 17 11 12 12 12 12 15 17 12 18 12 7 17 13 12 12 17 9 12 10 14 7 18 15 18 9 15 15 13 9 9 13 11 15 20 15 13 14 14 15 10 8 11 10 13 16 18 14 14 15 14 15 17 9 9 15 14 21 12 14 10 11 17 16 13 15 17 10 8 12 9 9 21 13 12 13 18 20 11 12 14 11 13 17 12 17 10 16 12 16 14 11 12 12 16 16 12 12 16 16 9 9 17 21 10 12 14 21 13 17 26 19 10 17 19 13 15 12 18 13 15 12 11 18 12 9 11 16 16 16 17 14 12 10 18 12 15 10 12 16 16 10 10 10 16 11 17 12 12 11 13 13 11 11 11 11 14 10 21 10 15 13 23 18 6 12 19 16 11 13 14 14 10 14 17 11 18 10 12 12 8 14 11 15 19 18 10 12 16 17 17 14 10 11 15 10 13 17 15 16 12 12 11 15 17 8 14 12 16 12 17 12 11 13 17 13 13 18 17 16 14 15 17 14 16 19 16 16 15 15 13 17 19 10 16 19 15 15 14 9 13 10 12 17 12 13 15 21 13 9 15 12 11 14 9 11 13 12 12 15 14 11 8 6 12 23 16 13 13 17 14 12 14 6 20 11 15 15 15 18 10 10 12 17 15 10 19 11 17 11 17 15 13 12 16 17 15 9 14 15 11 14 17 13 13 13 17 16 12 16 12 11 9 14 11 16 14 11 14 12 8 17 18 13 14 10 12 12 15 19 16 14 14 16 10 14 18 14 15 13 12 11 17 19 10 11 11 14 19 11 15 14 9 11 14 12 19 14 19 10 16 14 20 11 15 15 10 12 12 12 17 9 12 7 10 20 8 9 14 11 11 17 14 12 14 10 15 9 13 19 11 15 14 11 18 12 17 15 14 14 14 16 17 18 20 11 12 11 12 11 14 11 16 13 11 13 13 11 12 13 13 12 15 13 16 12 17 9 14 15 13 16 14 14 6 16 17 14 15 8 16 15 10 15 18 14 17 13 8 11 8 19 17 14 18 11 10 13 17 20 14 18 20 21 10 15 13 14 11 13 17 9 13 13 12 16 17 9 17 13 17 8 17 12 18 13 9 12 18 18 17 14 12 14 15 14 14 13 13 14 18 11 14 10 16 18 21 13 16 12 11 11 9 10 16 17 11 18 14 15 11 10 12 17 11 12 10 16 10 14 15 17 10 12 11 15 12 9 15 20 8 18 11 13 11 16 13 17 14 15 12 16 12 9 19 17 16 10 10 13 12 18 15 7 15 13 18 15 17 12 10 10 15 17 14 20 11 13 15 15 14 11 16 11 12 10 13 11 14 18 14 14 11 11 18 9 10 18 18 7 19 14 12 11 15 15 21 10 12 9 11 9 14 12 9 9 14 14 13 11 15 8 11 9 12 14 10 9 14 12 18 11 9 16 13 20 16 14 18 14 17 14 14 8 12 18 10 12 16 12 13 15 15 14 9 12 15 15 14 18 19 10 10 16 16 12 12 14 15 13 14 10 11 15 13 8 10 6 8 14 22 16 11 
BTB PER SET COUNT: 812 21 1572 23 925 13 11 111 1214 19 29 406 14138 15 17 10 2001 14 134 27 17 346 213 19 22 18 14 18 386 32 13 179 23 17 14 202 13 13 20 11 14 36 19 1500 56 17 24 13 27 14 19 49 21 16 63 383 16 11 211 16 16 19 86 21 14 329 18 14 23 29 1489 133 21 28 13 12 15 36 19 27 818 16 221 28 35 17 12 34 14 33 15 13 496 393 16 12 208 1006 24 7826 32 1181 18 12 2288 20 11 22 1672 13 19 47 268 11 14 9 8 16 1292 69 19 16 34 17 21 22 11 25 31 981 12 17 13 20 250 29 867 30 19 40 16 26 30 11 25 212 218 17 12 126 30 298 861 15 16 34 1136 16 23 1277 14 181 23 14 14 25 19 11 26 1275 19 22 21 29 29 21 32 14 145 24 17 19 202 36 28 710 5 21 78 10 20 13 9 20 13 21 15 977 12 20 25 20 986 16 10 20 17 308 16 150 17 17 23 22 22 256 14 14 2878 35 7 29 200 22 21 31 19 71 676 24 27 12 17 34 16 19 18 395 19 13 26 22 24 81 18 20 14 17 572 24 24 20 19 17 26 38 90 20 19 24 160 12 7 376 18 7 12 15 32 12 17 15 8 8 576 13 22 18 21 18 21 25 14 12 28 25 15 29 28 12 14 15 15 849 18 25 178 24 19 105 14 15 19 48 32 33 19 14 15 572 15 35 15 29 1391 596 34 27 15 43 20 4198 10 18 13 170 17 15 27 12 15 32 26 18 13 27 20 19 14 39 16 1381 18 21 338 16 16 28 23 47 1760 1446 7 23 21 19 14 31 108 18 18 18 13 27 20 1609 10 22 29 22 15 78 16 563 402 33 19 15 265 276 22 12 625 13 14 22 322 31 18 20 20 17 18 160 12 16 24 19 796 18 19 16 574 32 24 16 19 214 14 9 17 10 11 865 17 13 20 3744 168 17 17 16 14 17 25 17 27 10 19 90 55 25 14 19 276 36 20 38 12 26 440 11 11 26 466 15 801 18 33 20 992 225 29 15 35 30 17 17 16 31 16 20 15 21 40 120 14668 14 25 26 20 23 23 22 12 24 19 23 15 18 25 31 14 21 739 148 314 25 1573 16 803 17 828 13 17 22 1488 21 14 35 15 21 17 151 39 8 12 24 19 16 514 122 351 177 19 28 13 28 13 15 20 13 19 83 15 885 29 1227 19 1918 42 33 34 18 19 22 16 986 24 26 28 18 36 11 33 23 8 19 18 1104 13 23 185 191 18 30 25 18 29 23 21 26 15 26 47 26 36 22 24 22 1216 14 19 26 933 28 29 562 25 27 9 19 13 3211 24 27 17 22 44 30 16 122 18 23 27 12 781 902 176 16 21 32 15 9 6 16 47 2199 16 18 28 23 24 24 6 29 376 17 19 31 39 14 27 226 21 22 14 326 11 26 18 248 238 20 13 23 29 756 12 18 21 27 17 25 615 154 22 24 57 17 33 21 12 13 20 495 24 16 13 54 19 9 916 25 2911 18 17 1012 2401 37 38 23 334 16 65 111 18 32 20 26 20 12 944 34 29 15 15 15 20 27 11 23 27 13 2492 20 970 1234 26 31 11 26 22 27 16 374 26 11 13 15 16 31 177 24 7 15 959 10 13 23 17 1027 22 362 18 20 14 20 10 24 34 104 143 141 17 2017 20 25 96 20 1264 17 28 24 26 23 14 12 16 14 1491 23 1083 1504 1500 16 18 94 15 23 18 17 12 392 368 26 22 265 9 17 51 332 19 22 21 6 16 997 15 34 1447 23 20 11 21 28 22 24 15 8 305 9 27 28 268 33 17 16 15 388 25 20 24 36 109 11 23 19 17 26 16 455 22 25 20 45 17 1175 14 1833 15 965 14 34 19 40 20 17 20 40 24 36 17 16 42 2012 15 23 15 20 21 197 20 15 305 27 449 36 23 27 330 1215 17 12 1015 23 91 11 42 14 184 16 1037 16 29 11 17 17 28 44 144 19 31 14 25 15 22 16 140 19 28 8 34 13 278 974 24 14 21 19 31 944 1655 26 9 24 35 27 16 14 22 23 28 298 10 24 19 34 162 36 17 880 18 25 21 29 306 880 19 40 20 854 13 25 11 252 13 22 13 28 27 20 20 21 13 2258 9 15 30 25 8 39 18 19 16 26 69 33 11 16 12 19 9 327 15 14 10 21 24 32 17 21 431 16 10 14 22 20 42 181 63 25 11 9 298 15 31 25 120 227 956 103 18 557 9 17 29 975 17 30 17 18 29 413 23 10 20 283 28 79 44 663 11 12 24 371 12 21 19 21 1432 18 11 14 22 21 9 267 6 10 18 150 22 14 
To predecode: 0
Predecoding something: 0
Predecode request dropped: 0
sizeofblock_0 0
sizeofblock_1 50803
sizeofblock_2 94886
sizeofblock_3 0
sizeofblock_4 0
sizeofblock_5 0
sizeofblock_6 0
sizeofblock_7 0
sizeofblock_8 0
Variant_0 Correct: 1615919 Incorrect: 0 Accuracy: 1
Variant_1 Correct: 5746122 Incorrect: 0 Accuracy: 1
Variant_2 Correct: 0 Incorrect: 0 Accuracy: -nan
Variant_3 Correct: 0 Incorrect: 0 Accuracy: -nan
