
*** ChampSim Multicore Out-of-Order Simulator ***

Warmup Instructions: 50000000
Simulation Instructions: 50000000
Number of CPUs: 1
LLC sets: 2048
LLC ways: 16
Off-chip DRAM Size: 4096 MB Channels: 1 Width: 64-bit Data Rate: 6400 MT/s
CPU 0 runs ./micro_traces/srv640.trace.gz
.gz
ITLB has LRU replacement policy
DTLB has LRU replacement policy
STLB has LRU replacement policy
FDIP Prefetcher at L1I
L1I has LRU replacement policy
L1D has LRU replacement policy
Initialize SRRIP state for L2C
Initialize DRRIP state for LLC
Heartbeat CPU 0 instructions: 10000000 cycles: 2799114 heartbeat IPC: 3.57256 cumulative IPC: 3.57256 (Simulation time: 0 hr 1 min 50 sec) 
Heartbeat CPU 0 instructions: 20000001 cycles: 5597444 heartbeat IPC: 3.57356 cumulative IPC: 3.57306 (Simulation time: 0 hr 3 min 26 sec) 
Heartbeat CPU 0 instructions: 30000003 cycles: 8395686 heartbeat IPC: 3.57367 cumulative IPC: 3.57326 (Simulation time: 0 hr 5 min 1 sec) 
Heartbeat CPU 0 instructions: 40000001 cycles: 11191270 heartbeat IPC: 3.57707 cumulative IPC: 3.57421 (Simulation time: 0 hr 6 min 34 sec) 
Heartbeat CPU 0 instructions: 50000003 cycles: 13987528 heartbeat IPC: 3.57621 cumulative IPC: 3.57461 (Simulation time: 0 hr 8 min 11 sec) 

Warmup complete CPU 0 instructions: 50000003 cycles: 13987528 (Simulation time: 0 hr 8 min 11 sec) 

Cycle: 20000000 FTQ IN: 58127835 FTQ occupancy: 20.0079 DECODE IN: 58127776 DECODE occupancy: 52.1683 ROB IN: 58127716 ROB occupancy: 313.765 ROB OUT: 58127364
Heartbeat CPU 0 instructions: 60000002 cycles: 21342077 heartbeat IPC: 1.3597 cumulative IPC: 1.3597 (Simulation time: 0 hr 10 min 0 sec) 
Heartbeat CPU 0 instructions: 70000000 cycles: 28557631 heartbeat IPC: 1.38589 cumulative IPC: 1.37267 (Simulation time: 0 hr 11 min 48 sec) 
Cycle: 30000000 FTQ IN: 13868801 FTQ occupancy: 13.2693 DECODE IN: 13868842 DECODE occupancy: 34.8169 ROB IN: 13868898 ROB occupancy: 239.503 ROB OUT: 13868978
Heartbeat CPU 0 instructions: 80000000 cycles: 35832475 heartbeat IPC: 1.3746 cumulative IPC: 1.37332 (Simulation time: 0 hr 13 min 42 sec) 
Cycle: 40000000 FTQ IN: 13821799 FTQ occupancy: 13.5043 DECODE IN: 13821685 DECODE occupancy: 35.2651 ROB IN: 13821629 ROB occupancy: 242.074 ROB OUT: 13821549
Heartbeat CPU 0 instructions: 90000003 cycles: 42981201 heartbeat IPC: 1.39885 cumulative IPC: 1.37961 (Simulation time: 0 hr 15 min 29 sec) 
Cycle: 50000000 FTQ IN: 13809483 FTQ occupancy: 13.4953 DECODE IN: 13809562 DECODE occupancy: 35.1705 ROB IN: 13809610 ROB occupancy: 242.244 ROB OUT: 13809669
Heartbeat CPU 0 instructions: 100000002 cycles: 50265024 heartbeat IPC: 1.37291 cumulative IPC: 1.37826 (Simulation time: 0 hr 17 min 20 sec) 
Finished CPU 0 instructions: 50000003 cycles: 36277497 cumulative IPC: 1.37827 (Simulation time: 0 hr 17 min 20 sec) 

ChampSim completed all CPUs

Region of Interest Statistics

CPU 0 cumulative IPC: 1.37827 instructions: 50000003 cycles: 36277497
 Fetch stage stalled: 52.8207  Sim cycles: 36277497 fetch stall cycle: 19162034
 Empty decode stage: 33.2014  Sim cycles: 36277497 fetch stall cycle: 12044639
ITLB TOTAL     ACCESS:    5872598  HIT:    5378645  MISS:     493953  HIT %:    91.5889  MISS %:    8.41115   MPKI: 9.87906
ITLB LOAD TRANSLATION INSTRUCTION	ACCESS:    5749865  HIT:    5255912  MISS:     493953  HIT %:    91.4093  MISS %:    8.59069  MPKI: 9.87906
ITLB TRANSLATION FROM L1D PREFETCHER INSTRUCTION	ACCESS:     122733  HIT:     122733  MISS:          0  HIT %:        100  MISS %:          0  MPKI: 0

ITLB AVERAGE MISS LATENCY: 9.08574 cycles
ITLB RQ	ACCESS:    8025627	FORWARD:          0	MERGED:    1709649	TO_CACHE:    6315978

DTLB TOTAL     ACCESS:    8970606  HIT:    8498668  MISS:     471938  HIT %:    94.7391  MISS %:    5.26094   MPKI: 9.43876
DTLB LOAD TRANSLATION DATA	ACCESS:    8970606  HIT:    8498668  MISS:     471938  HIT %:    94.7391  MISS %:    5.26094  MPKI: 9.43876

DTLB AVERAGE MISS LATENCY: 9.35518 cycles
DTLB RQ	ACCESS:   13342248	FORWARD:          0	MERGED:    4335026	TO_CACHE:    9007222

STLB TOTAL     ACCESS:    1216148  HIT:    1213869  MISS:       2279  HIT %:    99.8126  MISS %:   0.187395   MPKI: 0.04558
STLB LOAD TRANSLATION INSTRUCTION	ACCESS:     493953  HIT:     493603  MISS:        350  HIT %:    99.9291  MISS %:  0.0708569  MPKI: 0.007
STLB LOAD TRANSLATION DATA	ACCESS:     471938  HIT:     470030  MISS:       1908  HIT %:    99.5957  MISS %:    0.40429  MPKI: 0.03816
STLB TRANSLATION FROM L1D PREFETCHER DATA	ACCESS:     250257  HIT:     250236  MISS:         21  HIT %:    99.9916  MISS %: 0.00839137  MPKI: 0.00042

STLB AVERAGE MISS LATENCY: 78.1101 cycles
STLB RQ	ACCESS:    1337847	FORWARD:          0	MERGED:     121664	TO_CACHE:    1216183

STLB Hit, L1D data hit: 0
STLB Hit, L2C data hit: 0
STLB Hit, LLC data hit: 0
STLB Hit, LLC data miss: 0
STLB STLB hints to L2: 0
L1D TOTAL     ACCESS:   13084339  HIT:   11966675  MISS:    1117664  HIT %:     91.458  MISS %:      8.542   MPKI: 22.3533
L1D LOAD DATA	ACCESS:    6553513  HIT:    5818248  MISS:     735265  HIT %:    88.7806  MISS %:    11.2194  MPKI: 14.7053
L1D RFO DATA	ACCESS:    6199522  HIT:    5912908  MISS:     286614  HIT %:    95.3768  MISS %:    4.62316  MPKI: 5.73228
L1D PREFETCH DATA	ACCESS:     331304  HIT:     235519  MISS:      95785  HIT %:    71.0885  MISS %:    28.9115  MPKI: 1.9157

L1D PREFETCH  REQUESTED:     744229  ISSUED:     744229  USEFUL:      34175  USELESS:      69214
L1D USEFUL LOAD PREFETCHES:      34175 PREFETCH ISSUED TO LOWER LEVEL:     103404  ACCURACY: 33.05
 TIMELY PREFETCHES:      34175 LATE PREFETCHES: 7587 DROPPED PREFETCHES: 5
L1D AVERAGE MISS LATENCY: 219278 cycles
L1D RQ	ACCESS:   10696900	FORWARD:          0	MERGED:    3941811	TO_CACHE:    6590915
L1D WQ	ACCESS:    6946346	FORWARD:     164491	MERGED:     195013	TO_CACHE:    6751333
L1D PQ	ACCESS:     372273	FORWARD:          0	MERGED:          0	TO_CACHE:     371956

L1D UNIQUE REGIONS ACCESSED: 0
L1D REGIONS CONFLICTS: 0
L1D Cross Page Prefetch Requests: 6996
L1D Same Page Prefetch Requests: 759399
L1D ROI Sum of L1D PQ occupancy: 4743060
L1D PREFETCHES PUSHED FROM L2C: 0
L1I TOTAL     ACCESS:    7175966  HIT:    4411291  MISS:    2764675  HIT %:    61.4731  MISS %:    38.5269   MPKI: 55.2935
L1I LOAD INSTRUCTION	ACCESS:    6504178  HIT:    3739503  MISS:    2764675  HIT %:    57.4939  MISS %:    42.5061  MPKI: 55.2935
L1I PREFETCH INSTRUCTION	ACCESS:     671788  HIT:     671788  MISS:          0  HIT %:        100  MISS %:          0  MPKI: 0

L1I PREFETCH  REQUESTED:    1626811  ISSUED:    1626811  USEFUL:          0  USELESS:          0
L1I USEFUL LOAD PREFETCHES:          0 PREFETCH ISSUED TO LOWER LEVEL:          0  ACCURACY: -nan
 TIMELY PREFETCHES:          0 LATE PREFETCHES: 0 DROPPED PREFETCHES: 0
L1I AVERAGE MISS LATENCY: 17.62 cycles
L1I RQ	ACCESS:    9511119	FORWARD:          0	MERGED:    2677674	TO_CACHE:    6833445
L1I PQ	ACCESS:    1626811	FORWARD:          0	MERGED:     434629	TO_CACHE:    1192182

L1BTB TOTAL     ACCESS:    5671053  HIT:    2044138  MISS:    3626915  HIT %:    36.0451  MISS %:    63.9549   MPKI: 72.5383
L1BTB BRANCH_DIRECT_JUMP	ACCESS:     549178  HIT:     144567  MISS:     404611	AVERAGE STALL: 50.1659
L1BTB BRANCH_INDIRECT	ACCESS:     183036  HIT:      66079  MISS:     116957	AVERAGE STALL: 105.189
L1BTB BRANCH_CONDITIONAL	ACCESS:    2712026  HIT:    1419566  MISS:    1292460	AVERAGE STALL: 90.5449
L1BTB BRANCH_DIRECT_CALL	ACCESS:     942402  HIT:     104586  MISS:     837816	AVERAGE STALL: 105.914
L1BTB BRANCH_INDIRECT_CALL	ACCESS:     171004  HIT:      20779  MISS:     150225	AVERAGE STALL: 134.742
L1BTB BRANCH_RETURN	ACCESS:    1113407  HIT:     288561  MISS:     824846	AVERAGE STALL: 49.0869
L1BTB BRANCH_OTHER ACCESS:          0  HIT:          0  MISS:          0	AVERAGE STALL: -nan
L1BTB TOTAL ROB OCCUPANCY AT BTB MISS: 2.01354

L2BTB TOTAL     ACCESS:    3601447  HIT:    3545311  MISS:      56136  HIT %:    98.4413  MISS %:    1.55871   MPKI: 1.12272
L2BTB BRANCH_DIRECT_JUMP	ACCESS:     400417  HIT:     397578  MISS:       2839	AVERAGE STALL: 50.1659
L2BTB BRANCH_INDIRECT	ACCESS:     106659  HIT:     103965  MISS:       2694	AVERAGE STALL: 105.189
L2BTB BRANCH_CONDITIONAL	ACCESS:    1292459  HIT:    1292039  MISS:        420	AVERAGE STALL: 90.5449
L2BTB BRANCH_DIRECT_CALL	ACCESS:     837816  HIT:     837498  MISS:        318	AVERAGE STALL: 105.914
L2BTB BRANCH_INDIRECT_CALL	ACCESS:     140661  HIT:     130619  MISS:      10042	AVERAGE STALL: 134.742
L2BTB BRANCH_RETURN	ACCESS:     823435  HIT:     783612  MISS:      39823	AVERAGE STALL: 49.0869
L2BTB BRANCH_OTHER ACCESS:          0  HIT:          0  MISS:          0	AVERAGE STALL: -nan
L2BTB TOTAL ROB OCCUPANCY AT BTB MISS: 130.093

L2C TOTAL     ACCESS:    4495407  HIT:    3971673  MISS:     523734  HIT %:    88.3496  MISS %:    11.6504   MPKI: 10.4747
L2C LOAD INSTRUCTION	ACCESS:    2764673  HIT:    2468268  MISS:     296405  HIT %:    89.2788  MISS %:    10.7212  MPKI: 5.9281
L2C LOAD TRANSLATION INSTRUCTION	ACCESS:        408  HIT:        113  MISS:        295  HIT %:    27.6961  MISS %:    72.3039  MPKI: 0.0059
L2C LOAD DATA	ACCESS:     727658  HIT:     651884  MISS:      75774  HIT %:    89.5866  MISS %:    10.4134  MPKI: 1.51548
L2C RFO DATA	ACCESS:     286540  HIT:     226896  MISS:      59644  HIT %:    79.1848  MISS %:    20.8152  MPKI: 1.19288
L2C PREFETCH DATA	ACCESS:     190944  HIT:     120121  MISS:      70823  HIT %:     62.909  MISS %:     37.091  MPKI: 1.41646
L2C WRITEBACK DATA	ACCESS:     523128  HIT:     503690  MISS:      19438  HIT %:    96.2843  MISS %:    3.71573  MPKI: 0.38876
L2C LOAD TRANSLATION DATA	ACCESS:       2018  HIT:        675  MISS:       1343  HIT %:     33.449  MISS %:     66.551  MPKI: 0.02686
L2C TRANSLATION FROM L1D PREFETCHER DATA	ACCESS:         38  HIT:         26  MISS:         12  HIT %:    68.4211  MISS %:    31.5789  MPKI: 0.00024

L2C PREFETCH  REQUESTED:      95477  ISSUED:      95477  USEFUL:       7890  USELESS:      63213
L2C USEFUL LOAD PREFETCHES:       7890 PREFETCH ISSUED TO LOWER LEVEL:      71099  ACCURACY: 11.0972
 TIMELY PREFETCHES:       7890 LATE PREFETCHES: 276 DROPPED PREFETCHES: 0
L2C AVERAGE MISS LATENCY: 38.3809 cycles
L2C RQ	ACCESS:    3781397	FORWARD:          0	MERGED:          0	TO_CACHE:    3781336
L2C WQ	ACCESS:     523128	FORWARD:         61	MERGED:          0	TO_CACHE:     523128
L2C PQ	ACCESS:     198881	FORWARD:          0	MERGED:       3403	TO_CACHE:     195478

L2C Dense regions hint from L2: 0
PSCL5 TOTAL     ACCESS:       4574  HIT:       2287  MISS:       2287  HIT %:         50  MISS %:         50   MPKI: 0.04574
PSCL5 LOAD TRANSLATION INSTRUCTION	ACCESS:       4498  HIT:       2249  MISS:       2249  HIT %:         50  MISS %:         50  MPKI: 0.04498
PSCL5 TRANSLATION FROM L1D PREFETCHER INSTRUCTION	ACCESS:         76  HIT:         38  MISS:         38  HIT %:         50  MISS %:         50  MPKI: 0.00076


PSCL4 TOTAL     ACCESS:       4245  HIT:       2115  MISS:       2130  HIT %:    49.8233  MISS %:    50.1767   MPKI: 0.0426
PSCL4 LOAD TRANSLATION INSTRUCTION	ACCESS:       2920  HIT:       2079  MISS:        841  HIT %:    71.1986  MISS %:    28.8014  MPKI: 0.01682
PSCL4 TRANSLATION FROM L1D PREFETCHER INSTRUCTION	ACCESS:         49  HIT:         36  MISS:         13  HIT %:    73.4694  MISS %:    26.5306  MPKI: 0.00026
PSCL4 LOAD TRANSLATION DATA	ACCESS:       1253  HIT:          0  MISS:       1253  HIT %:          0  MISS %:        100  MPKI: 0.02506
PSCL4 TRANSLATION FROM L1D PREFETCHER DATA	ACCESS:         23  HIT:          0  MISS:         23  HIT %:          0  MISS %:        100  MPKI: 0.00046


PSCL3 TOTAL     ACCESS:       4353  HIT:       2169  MISS:       2184  HIT %:    49.8277  MISS %:    50.1723   MPKI: 0.04368
PSCL3 LOAD TRANSLATION INSTRUCTION	ACCESS:       2974  HIT:       2133  MISS:        841  HIT %:    71.7216  MISS %:    28.2784  MPKI: 0.01682
PSCL3 TRANSLATION FROM L1D PREFETCHER INSTRUCTION	ACCESS:         49  HIT:         36  MISS:         13  HIT %:    73.4694  MISS %:    26.5306  MPKI: 0.00026
PSCL3 LOAD TRANSLATION DATA	ACCESS:       1307  HIT:          0  MISS:       1307  HIT %:          0  MISS %:        100  MPKI: 0.02614
PSCL3 TRANSLATION FROM L1D PREFETCHER DATA	ACCESS:         23  HIT:          0  MISS:         23  HIT %:          0  MISS %:        100  MPKI: 0.00046


PSCL2 TOTAL     ACCESS:       4422  HIT:       2135  MISS:       2287  HIT %:    48.2813  MISS %:    51.7187   MPKI: 0.04574
PSCL2 LOAD TRANSLATION INSTRUCTION	ACCESS:       2466  HIT:       2097  MISS:        369  HIT %:    85.0365  MISS %:    14.9635  MPKI: 0.00738
PSCL2 TRANSLATION FROM L1D PREFETCHER INSTRUCTION	ACCESS:         38  HIT:         38  MISS:          0  HIT %:        100  MISS %:          0  MPKI: 0
PSCL2 LOAD TRANSLATION DATA	ACCESS:       1880  HIT:          0  MISS:       1880  HIT %:          0  MISS %:        100  MPKI: 0.0376
PSCL2 TRANSLATION FROM L1D PREFETCHER DATA	ACCESS:         38  HIT:          0  MISS:         38  HIT %:          0  MISS %:        100  MPKI: 0.00076


LLC TOTAL     ACCESS:     586856  HIT:     556257  MISS:      30599  HIT %:    94.7859  MISS %:    5.21406   MPKI: 0.61198
LLC LOAD INSTRUCTION	ACCESS:     296405  HIT:     295147  MISS:       1258  HIT %:    99.5756  MISS %:   0.424419  MPKI: 0.02516
LLC LOAD TRANSLATION INSTRUCTION	ACCESS:        295  HIT:        236  MISS:         59  HIT %:         80  MISS %:         20  MPKI: 0.00118
LLC LOAD DATA	ACCESS:      75515  HIT:      71625  MISS:       3890  HIT %:    94.8487  MISS %:    5.15129  MPKI: 0.0778
LLC RFO DATA	ACCESS:      59626  HIT:      45082  MISS:      14544  HIT %:     75.608  MISS %:     24.392  MPKI: 0.29088
LLC PREFETCH DATA	ACCESS:      71099  HIT:      60758  MISS:      10341  HIT %:    85.4555  MISS %:    14.5445  MPKI: 0.20682
LLC WRITEBACK DATA	ACCESS:      82561  HIT:      82150  MISS:        411  HIT %:    99.5022  MISS %:   0.497814  MPKI: 0.00822
LLC LOAD TRANSLATION DATA	ACCESS:       1343  HIT:       1247  MISS:         96  HIT %:    92.8518  MISS %:    7.14818  MPKI: 0.00192
LLC TRANSLATION FROM L1D PREFETCHER DATA	ACCESS:         12  HIT:         12  MISS:          0  HIT %:        100  MISS %:          0  MPKI: 0

LLC AVERAGE MISS LATENCY: 161.055 cycles
LLC RQ	ACCESS:     433197	FORWARD:          0	MERGED:          0	TO_CACHE:     433196
LLC WQ	ACCESS:      82561	FORWARD:          1	MERGED:          0	TO_CACHE:      82561
LLC PQ	ACCESS:      71099	FORWARD:          0	MERGED:          0	TO_CACHE:      71099

LLC Dense regions hint to LLC: 0

RAW hits: 1939295
Loads Generated: 12636195
Loads sent to L1D: 10696900
Stores Generated: 6946326
Stores sent to L1D: 6946346
Major fault: 0 Minor fault: 2667
Allocated PAGES: 2667

stream: 
stream:times selected: 1205904
stream:pref_filled: 123008
stream:pref_useful: 24625
stream:pref_late: 6552
stream:misses: 8136
stream:misses_by_poll: 0

CS: 
CS:times selected: 181860
CS:pref_filled: 61074
CS:pref_useful: 37510
CS:pref_late: 6643
CS:misses: 15742
CS:misses_by_poll: 3

CPLX: 
CPLX:times selected: 1022811
CPLX:pref_filled: 19338
CPLX:pref_useful: 4555
CPLX:pref_late: 3003
CPLX:misses: 92550
CPLX:misses_by_poll: 1

NL_L1: 
NL:times selected: 21759
NL:pref_filled: 740
NL:pref_useful: 292
NL:pref_late: 315
NL:misses: 1746
NL:misses_by_poll: 0

total selections: 2432334
total_filled: 95785
total_useful: 34175
total_late: 17793
total_polluted: 4
total_misses_after_warmup: 772667
conflicts: 5503018

test: 120572

DRAM Statistics
 CHANNEL 0
 RQ ROW_BUFFER_HIT:      10864  ROW_BUFFER_MISS:      19313
 DBUS_CONGESTED:         13
 WQ ROW_BUFFER_HIT:       1688  ROW_BUFFER_MISS:      13619  FULL:          0

 AVG_CONGESTED_CYCLE: 5

CPU 0 Branch Prediction Accuracy: 99.805% MPKI: 0.35662 Average ROB Occupancy at Mispredict: 182.04
Branch types
NOT_BRANCH: 40855847 81.7117%
BRANCH_DIRECT_JUMP: 549178 1.09836%
BRANCH_INDIRECT: 183036 0.366072%
BRANCH_CONDITIONAL: 6185145 12.3703%
BRANCH_DIRECT_CALL: 942402 1.8848%
BRANCH_INDIRECT_CALL: 171004 0.342008%
BRANCH_RETURN: 1113407 2.22681%
BRANCH_OTHER: 0 0%

DRAM PAGES: 1048576
Allocated PAGES: 2667
Average_ROB_Occupancy: 240.973
Average_Decode_Occupancy: 34.8431
Average_FTQ_Occupancy: 13.3466
Indirect max targets: 14 Average targets: 1.17516
Branch_type:  BRANCH_DIRECT_JUMP:  Count Percentage: 3.35055 5.84877 5.02865 2.13298 8.6446 6.00868 1.68046 67.3053 
Branch_type:  BRANCH_INDIRECT:  Count Percentage: 11.7221 3.488 2.64165 13.42 3.32716 2.79105 2.11669 60.4934 
Branch_type:  BRANCH_CONDITIONAL:  Count Percentage: 25.9647 2.44913 2.20223 3.66505 2.87947 4.622 4.12548 54.092 
Branch_type:  BRANCH_DIRECT_CALL:  Count Percentage: 0.857932 1.24835 0.787882 2.12693 4.44646 2.63483 1.49472 86.4029 
Branch_type:  BRANCH_INDIRECT_CALL:  Count Percentage: 9.54907 0 2.99064 0.000881588 0 1.71175 1.00442 84.7432 
Branch_type:  BRANCH_RETURN:  Count Percentage: 8.28345 1.69832 2.19603 2.99828 2.83687 5.08964 4.0113 72.8861 
Branch_type:  BRANCH_DIRECT_JUMP:  Total Count: 36814 64263 55252 23436 94982 66020 18464 739513 
Branch_type:  BRANCH_INDIRECT:  Total Count: 43074 12817 9707 49313 12226 10256 7778 222289 
Branch_type:  BRANCH_CONDITIONAL:  Total Count: 3211793 302954 272412 453361 356186 571735 510316 6691096 
Branch_type:  BRANCH_DIRECT_CALL:  Total Count: 16081 23399 14768 39867 83344 49387 28017 1619529 
Branch_type:  BRANCH_INDIRECT_CALL:  Total Count: 32495 0 10177 3 0 5825 3418 288377 
Branch_type:  BRANCH_RETURN:  Total Count: 183523 37627 48654 66428 62852 112763 88872 1614820 
Number of unique branch instructions: 10706
Upper 32 bits: 
aaaa
ffff
ffff0000
Unique upper 32 bits: 3
Unique upper 36 bits: 3
Unique upper 40 bits: 5
Unique upper 44 bits: 32
Unique upper 48 bits: 158
Offset_3 4437
Offset_4 263
Offset_5 481
Offset_6 539
Offset_7 634
Offset_8 582
Offset_9 509
Offset_10 419
Offset_11 347
Offset_12 310
Offset_13 238
Offset_14 246
Offset_15 194
Offset_16 226
Offset_17 166
Offset_18 144
Offset_19 260
Offset_20 141
Offset_21 235
Offset_22 409
Offset_23 245
Offset_24 344
Offset_25 117
Offset_47 94
Offset_64 5
decode_dispatch_called: 25715730 70.8862
Dispatch_width: 0 13807144 53.6914 38.0598
Dispatch_width: 1 976841 3.79861 2.69269
Dispatch_width: 2 831918 3.23505 2.29321
Dispatch_width: 3 499991 1.9443 1.37824
Dispatch_width: 4 5799468 22.5522 15.9864
Dispatch_width: 5 140727 0.547241 0.387918
Dispatch_width: 6 3659641 14.2311 10.0879
Empty_decode_cycles: 10561767 29.1138
ROB_full_cycles: 9179840 25.3045
Starvation_cycles_per_kilo_instr: 234.38
Starvation_cycles_per_kilo_instr_3: 174.978
Starvation_cycles_per_kilo_instr_0: 151.891
Branch_type_1  (3,1)  (4,9)  (5,39)  (6,71)  (7,123)  (8,154)  (9,136)  (10,110)  (11,78)  (12,47)  (13,11)  (14,2)  (15,3)  (16,4)  (18,1)  (19,5)  (20,2)  (21,1)  (22,3)  (23,2)  (24,10)  (25,12)  (64,1) 
Branch_type_2  (3,1)  (4,1)  (5,1)  (8,4)  (9,4)  (10,1)  (12,1)  (13,1)  (14,1)  (16,3)  (17,2)  (20,2)  (21,2)  (23,5)  (24,1)  (47,42) 
Branch_type_3  (3,4435)  (4,253)  (5,437)  (6,451)  (7,480)  (8,355)  (9,275)  (10,170)  (11,133)  (12,54)  (13,10)  (64,2) 
Branch_type_4  (6,3)  (7,8)  (8,29)  (9,55)  (10,66)  (11,70)  (12,116)  (13,101)  (14,110)  (15,92)  (16,99)  (17,77)  (18,61)  (19,127)  (20,72)  (21,124)  (22,215)  (23,138)  (24,199)  (25,101)  (64,1) 
Branch_type_5  (8,3)  (9,1)  (10,4)  (11,5)  (12,3)  (13,14)  (14,16)  (15,11)  (16,22)  (17,11)  (18,23)  (19,14)  (20,11)  (21,13)  (22,43)  (23,26)  (24,38) 
Branch_type_6  (5,4)  (6,14)  (7,23)  (8,37)  (9,38)  (10,68)  (11,61)  (12,89)  (13,101)  (14,117)  (15,88)  (16,98)  (17,76)  (18,59)  (19,114)  (20,54)  (21,95)  (22,148)  (23,74)  (24,96)  (25,4)  (47,52)  (64,1) 
Unique trigger count: 
BTB PER SET UNIQUE ADDR: 3 2 4 5 3 3 3 3 2 5 3 3 3 4 5 5 2 3 3 3 2 3 5 4 5 4 3 2 2 4 3 2 3 3 2 3 3 2 5 3 4 4 3 5 4 3 4 4 6 2 3 4 2 3 3 3 4 3 6 5 6 4 4 3 5 1 3 4 4 4 3 6 4 4 3 5 6 2 5 5 5 3 6 3 5 3 5 3 5 2 3 4 4 3 3 3 5 4 4 4 4 3 3 5 4 6 4 4 5 3 4 3 4 3 5 2 3 3 3 5 4 6 3 4 4 4 4 4 6 3 4 4 4 3 3 4 3 2 3 4 4 4 3 5 5 5 3 4 3 4 5 3 3 3 5 4 5 3 5 5 4 2 2 3 2 1 2 5 6 4 4 5 4 3 3 5 4 4 2 2 3 3 4 3 3 2 3 6 6 4 5 5 4 3 4 3 5 3 3 4 4 4 4 4 2 4 2 4 3 5 4 3 4 4 3 5 4 5 4 4 4 3 4 3 4 5 4 2 5 5 3 4 5 4 3 4 3 5 4 3 4 5 4 5 4 4 4 3 3 3 3 5 4 3 6 4 5 4 2 2 4 4 3 3 3 4 4 6 2 3 4 4 5 4 4 4 5 2 3 5 5 4 2 4 4 4 4 6 4 4 4 5 3 5 4 5 4 4 4 3 7 3 3 3 4 5 4 4 4 4 6 3 4 2 5 4 4 3 4 3 7 5 3 2 5 5 3 5 4 4 1 6 4 4 2 4 5 4 8 5 3 3 3 3 4 4 3 4 4 5 2 3 6 3 3 5 4 3 4 4 4 4 3 6 4 5 7 5 4 1 6 6 4 4 4 4 4 2 4 3 4 4 4 4 5 4 3 3 5 4 3 3 4 3 4 4 4 4 4 5 4 3 4 2 2 6 3 4 5 5 4 3 3 3 6 3 4 2 3 2 3 4 3 5 4 3 3 5 3 3 4 4 5 3 4 3 4 3 3 4 4 3 3 3 3 2 6 3 4 4 3 2 4 4 3 5 3 5 4 2 3 4 3 5 5 4 4 2 4 3 4 4 5 5 3 4 4 2 4 3 5 6 3 3 2 4 3 5 5 6 4 5 5 4 4 5 6 5 3 4 3 6 4 4 6 3 2 4 3 5 4 4 4 4 2 4 3 3 3 6 5 5 3 3 6 4 3 4 3 5 2 4 6 5 3 5 5 4 4 3 5 4 7 5 5 3 3 4 4 4 4 5 3 6 4 3 4 2 6 3 4 4 3 5 5 4 4 4 3 4 4 4 3 2 1 4 5 4 3 2 4 4 5 3 5 3 3 4 4 4 3 3 4 3 5 5 5 5 6 4 2 3 1 2 3 2 6 6 4 3 3 3 3 3 2 4 3 3 4 6 5 2 5 4 4 4 1 6 1 5 3 5 3 4 4 3 5 4 4 4 4 4 1 4 4 3 3 4 3 4 3 5 2 5 3 5 4 4 4 3 3 3 3 4 3 4 4 3 3 3 5 5 3 3 3 2 4 5 5 4 4 3 2 7 3 4 2 3 3 4 3 5 3 4 3 4 3 4 3 5 3 3 3 2 4 4 5 3 3 4 3 4 3 3 3 4 4 2 3 3 5 5 3 4 4 4 4 4 3 5 4 4 4 4 4 6 4 3 2 8 4 4 5 4 3 3 3 3 3 4 7 5 5 4 2 5 2 3 2 2 4 3 3 6 5 4 4 5 3 4 3 3 3 4 5 4 3 4 2 5 4 4 4 4 6 3 4 5 4 4 4 5 4 4 7 3 3 3 5 4 4 3 3 3 4 4 3 3 5 4 3 3 3 5 3 5 5 4 5 4 4 4 4 4 3 5 5 2 3 3 4 4 3 5 5 3 5 4 3 2 5 3 3 3 5 3 3 4 3 4 4 3 3 4 5 4 3 2 4 5 4 4 6 4 6 2 3 2 3 5 4 2 6 4 5 4 3 4 3 4 4 4 5 3 4 5 5 7 3 1 5 4 2 2 2 4 4 4 5 4 3 3 3 3 4 3 6 5 4 5 4 4 5 3 5 5 4 5 4 4 3 5 5 3 4 5 5 5 4 5 4 5 5 4 3 3 5 3 4 5 3 3 4 4 4 3 3 4 6 6 5 3 3 3 4 3 2 3 4 4 4 4 4 3 3 2 3 4 4 6 3 4 2 5 3 5 3 3 4 3 4 4 2 3 2 3 5 3 5 4 4 4 5 4 3 4 3 4 3 4 3 4 3 3 3 5 4 4 4 3 4 3 4 3 4 5 5 3 4 3 7 3 5 4 5 4 3 5 4 2 5 8 4 4 5 6 4 5 3 4 8 4 3 4 5 3 6 4 3 4 3 5 5 4 4 2 4 5 4 3 4 4 4 3 3 3 4 4 4 4 4 4 4 3 5 3 5 3 3 2 6 3 3 3 5 2 4 4 3 4 2 3 2 6 4 4 4 4 3 3 5 4 5 4 4 3 4 4 3 4 6 5 3 2 5 4 4 5 5 3 2 3 3 3 4 4 4 5 4 2 2 5 4 3 3 4 5 4 3 3 4 4 3 4 3 4 2 4 4 4 4 4 3 4 3 3 5 6 4 4 3 3 2 3 2 4 4 3 3 3 3 4 4 5 2 2 4 4 3 7 2 4 4 4 5 6 5 3 4 3 7 3 4 2 3 4 4 4 6 3 3 5 2 4 6 2 4 4 3 4 4 4 3 4 4 5 5 3 4 4 4 1 2 5 3 3 3 5 4 2 4 3 3 4 5 4 4 4 4 4 4 5 4 4 2 4 5 5 2 3 4 4 3 5 4 3 5 5 3 4 4 5 4 3 2 3 5 5 3 3 4 5 2 3 4 3 4 5 5 4 4 4 6 2 4 5 3 5 4 4 4 5 5 4 4 7 4 4 4 6 3 3 3 6 4 3 5 4 3 4 2 5 4 2 5 4 5 4 3 4 3 3 3 4 4 2 5 4 3 3 4 5 3 6 3 4 2 5 4 4 4 4 4 5 5 3 4 3 7 6 5 4 4 5 4 4 4 1 6 3 4 4 5 5 3 4 4 4 4 5 2 4 2 3 3 4 3 3 4 4 5 3 4 2 4 5 3 2 4 3 4 6 3 2 1 3 4 6 4 3 5 3 5 2 3 6 5 4 3 5 2 5 5 4 4 3 4 6 3 4 3 3 5 4 4 6 3 3 4 5 4 3 2 3 4 4 3 4 4 5 3 4 2 2 6 3 5 4 4 3 4 3 3 4 3 4 4 4 4 5 5 3 4 4 3 4 4 4 3 4 5 2 3 4 5 4 4 3 4 5 5 5 3 4 5 3 4 3 4 4 3 3 2 4 4 5 4 4 4 5 3 5 2 2 4 5 5 6 3 2 3 4 4 4 3 4 5 4 3 4 4 3 3 5 4 3 3 3 3 5 3 3 5 3 4 4 3 4 2 6 2 3 5 4 3 4 2 3 2 3 3 4 5 5 2 3 4 4 4 2 5 4 3 4 4 4 4 3 4 4 3 5 5 3 4 3 3 3 3 5 2 3 3 4 2 5 4 5 4 2 5 4 5 3 4 5 3 2 2 6 3 4 3 4 4 3 4 3 3 3 3 4 3 3 5 3 6 4 5 5 3 4 3 2 3 4 3 3 2 3 5 4 3 5 3 4 2 3 4 3 2 3 3 3 4 5 5 3 3 4 5 4 3 4 3 3 5 4 3 4 4 3 4 4 4 4 3 5 4 2 6 2 3 4 5 4 2 3 4 3 5 2 3 3 3 3 5 5 4 5 3 3 4 2 3 4 4 4 4 4 4 4 3 4 2 4 3 4 5 5 4 3 4 5 4 4 3 2 3 5 3 3 4 3 3 5 4 3 4 2 3 4 4 4 4 3 4 4 3 4 5 5 4 6 4 5 5 4 4 4 4 3 5 4 4 4 3 3 4 5 4 4 4 3 3 3 4 3 3 3 3 3 4 4 1 4 5 7 3 3 3 4 5 5 2 6 4 4 2 4 3 4 3 4 4 4 5 2 5 5 3 5 5 3 3 4 4 2 6 4 3 5 4 3 4 2 4 4 3 3 3 4 4 4 3 3 3 4 3 2 3 2 3 3 4 5 4 4 3 4 3 5 5 4 4 4 3 1 3 6 4 5 4 4 4 5 4 4 5 3 4 4 5 4 3 4 4 4 4 3 3 4 5 5 3 4 6 7 4 5 5 5 4 3 3 4 2 3 3 3 2 5 4 5 4 7 3 5 3 4 3 3 4 3 4 4 3 1 4 3 4 4 4 4 3 3 5 3 3 4 5 4 3 3 2 3 4 5 5 3 3 3 4 3 4 3 4 4 2 3 5 3 4 3 4 2 4 2 5 2 3 4 5 5 4 4 4 4 3 4 4 3 4 4 4 4 6 4 3 3 3 4 5 4 3 3 5 3 1 4 4 3 3 4 5 4 3 5 3 3 4 3 4 5 6 5 5 4 2 3 4 4 5 4 2 4 4 3 4 4 3 4 5 5 3 3 4 3 3 3 5 5 4 4 5 2 4 4 4 5 4 4 4 5 2 3 3 5 5 4 5 5 2 4 5 3 2 4 
BTB PER SET COUNT: 3 1468 1457 7 4 3 3 3 2 6 36 3 3 4 5 6 2 3 3 4 2 3 6 5 6 4 3 2 2 4 3 2 3 946 2 3 3 2 8 3 4 1026 15 6 4 3 4 4 6 2 3 4 2 3 3 3 532 1025 6 6 949 4 4 2047 5 1 3 5 4 4 4 9 6 4 3 162 6 2 948 6 11 3 9 3 6 4 6 3 517 2 3 11 658 4 5 4 5 5 4 4 5 3 4 5 5 7 4 5 5 3 5 4 4 3 11 2 3 3 4 1985 5 7 1543 4 4 4 5 5 430 3 4 5 4 3 3 4 3 2 3 4 6 4 3 5 7 5 3 4 3 15 5 460 4 3 8 946 5 4 6 5 4 2 2 3 2 1 2 5 10 5 4 5 6 3 3 5 4 5 2 2 3 3 5 5 3 2 3 6 8 4 5 5 6 3 4 444 7 4 1472 5 7 1460 6 4 2 4 2 4 29 9 8 5 4 6 3 5 4 7 4 4 5 4 5 3 6 6 4 2 8 426 132 4 7 14543 3 4 4 9 4 5 4 5 5 5 12 4 4 3 3 3 3 383 6 3 8 5 1458 4 3 2 6 4 4 4 4 4 15 6 2 3 4 4 7 4 4 4 6 2 4 7 6 4 2 4 5 5 4 8 4 4 4 6 4 6 531 5 5 4 4 3 8 4 1460 3 22 6 5 5 4 8 1032 3 8 2 6 5 5 3 9 3 9 7 4 2 7 7 33 8 6 4 1 83 4 4 2 4 5 4 8 9 3 3 3 4 4 5 3 4 4 6 2 3 6 3 3 383 4 5 7 13 4 5 3 9 4 7 133 5 906 1 7 6 947 4 6 4 4 2 4 3 7 235 5 4 6 4 4 3 9 4 3 3 4 3 4 4 1326 5 4 5 4 197 4 3 7 6 5 9 7 8 5 3 4 3 7 4 6 2 5 2 3 4 4 7 4 219 3 6 3 3 4 4 6 3 33 3 5 5 3 5 4 3 6 3 375 6 1462 3 6 5 3 220 4 4 6 5 3 5 1025 2 1025 5 1026 6 13 5 4 2 4 4 6 4 7 5 945 4 4 2 4 3 6 6 3 3 2 4 3 5 5 7 948 5 7 4 4 948 7 6 3 4 3 7 4 4 6 3 2 4 3 181 4 4 5 7 2 4 6 530 5 9 5 5 4 4 7 4 4 4 3 5 2 4 8 6 28 5 5 4 5 3 18 4 8 6 6 5 3 4 4 4 11 8 1026 8 5 3 5 2 31 3 1026 7943 5 5 5 1420 5 4 1025 4 4 4 3 3 1 4 6 10 3 2 4 5 6 3 5 3 6 4 4 5 3 3 5 1025 6 5 5 7 11 4 2 3 1023 2 8 2 1008 6 4 3 3 4 945 3 2 4 3 4 4 6 5 2 26 8 4 5 1 6 1 6 1005 5 3 4 5 3 7 5 4 4 4 6 1 5 4 3 3 4 4 515 3 5 3 6 3 6 4 4 4 3 3 3 3 5 3 514 4 3 3 3 5 5 3 5 3 2 21 6 5 515 228 3 2 7 3 5 2 3 3 6 3 5 3 4 3 4 3 4 4 5 3 3 3 2 5 5 8 3 3 289 5 4 3 4 4 515 5 2 3 4 7 7 3 4 4 4 6 4 3 6 4 4 5 5 5 7 4 4 2 142 4 4 5 4 3 3 3 5 3 4 8 6 5 4 2 6 2 11 3 944 5 4 3 43 6 7 5 2008 4 6 3 3 6 4 6 4 6 5 2 6 4 5 5 5 6 4 4 5 126 6 4 6 4 6 892 4 3 3 6 4 4 3 4 4 4 5 4 3 548 12 3 5 5 5 3 6 6 6 9 5 4 4 4 5 3 5 8 2 3 515 4 7 3 5 5 3 5 6 3 3 5 3 3 3 5 3 5 5 6 4 4 3 4 531 2049 4 3 2 4 7 4 4 7 4 7 3 3 2 4 9 4 2 6 4 5 227 4 4 21 4 5 5 6 3 4 5 6 8 3 1 1458 6 2 3059 2 6 383 9 5 5 3 13 3 1005 5 3 8 9 5 6 4 4 7 4 5 68 6 5 4 6 1516 472 6 5 4 8 337 5 6 8 8 16 947 4 3 4 6 3 4 5 5 4 4 4 4 3 3 4 8 6 6 9 3 5 6 5 2 3 4 4 5 4 5 7 3 2 514 4 5 11 3 4 2 9 6 5 5 3 21 3 4 5 3 3 2 5 6 945 5 4 2907 4 5 5 3 4 3 7 3 5 3 5 3 3 3 12 4 4 1457 3 4 7 7 3 4 7 7 3 8 3 9 5 5 5 5 4 3 448 6 2 17 8 5 4 6 6 5 6 1452 4 10 515 3 4 6 3 533 5 3 4 5 6 5 4 5 2 6 6 1457 15 5 4 5 3 3 3 4 4 6 6 4 5 5 3 6 3 6 4 3 2 8 4 3 6 7 2 10 4 3 7 2 4 2 13 4 4 6 4 101 3 12 6 7 4 4 3 49 4 3 4 386 5 3 2 6 4 4 5 6 4 2 3 12 4 4 4 4 6 5 3 2 5 4 3 3 5 6 4 4 3 4 13034 3 4 530 17 3 5 6 4 4 5 4 4 3 3 6 8 4 4 3 3 2 4 2 11 4 3 3 3 514 4 5 10 3 3 5 5 4 7 1455 4 4 5 255 6 7 3 5 3 7 4 4 2 1909 4 4 5 7 4 6 7 3 6 6 2 4 4 3 206 4 4 3 1459 5 5 5 3 4 4 8 1 4 5 3 3 3 6 4 3 5 3 3 4 5 5 1126 9 4 4 7 5 4 5 3 4 1460 7 2 3 4 517 3 399 4 3 6 5 3 6 4 5 4 3 944 3 7 5 3 3 4 5 2 4 4 3 4 5 5 4 5 4 6 2 7 7 3 6 4 4 4 6 5 4 4 7 4 4 4 6 4 3 3 7 93 3 5 4 3 4 2 6 5 30 5 4 10 5 3 4 5 7 5 5 5 2 5 1473 4 1456 4 6 3 9 3 4 1455 7 4 14 5 4 5 12 5 3 1782 3 7 14 5 6 5 5 923 4 4 1 9 4 4 4 5 6 4 5 4 4 5 6 2 5 3 4 13 4 4 3 4 5 7 3 5 2 6 5 4 2 4 5 8 7 3 4 1 3 4 6 4 3 5 3 5 2 3 6 6 4 4 7 2 6 6 5 4 3 6 6 3 4 3 7 6 5 6 7 5 4 7 82 58 3 2 1888 4 248 3 4 5 5 4 4 2 2 6 3 7 4 4 3 5 4 3 4 3 4 5 5 6 7 7 5 5 4 4 4 4 4 3 5 7 2 3 4 5 5 4 3 12 5 5 5 946 4 7 3 4 5 4 4 8 4 2 4 5 6 7 5 4 5 5 722 2 3 5 44 6 7 3 2 12 4 4 4 3 5 5 5 3 9 5 4 4 5 4 3 3 3 945 6 3 4 5 4 4 5 3 4 5 7 2 3 8 5 4 5 4 3 2 3 3 4 6 7 2 3 7 4 6 3 5 4 22 5 7 5 9 3 4 4 4 6 5 3 4 5 3 3 3 1459 2 3 39 5 2 6 4 7 4 2 7 4 5 3 4 7 3 4 2 8 3 4 3 211 6 3 5 3 3 3 3 4 4 3 5 4 7 4 121 6 4 4 4 2 3 5 3 3 2 4 5 4 3 9 15 4 3 3 515 4 3 3 3 3 4 5 7 3 3 4 5 4 4 4 3 3 5 4 3 7 5 3 4 4 8 4 477 10 6 2 7 2 4 5 6 5 2 3 6 3 5 4 3 3 3 3 5 5 4 6 4 3 6 2 7 6 7 4 4 4 5 5 4 4 2 1026 209 4 10 5 4 3 4 5 5 4 3 2 4 5 3 3 6 4 5 5 5 3 4 1024 3 5 4 4 4 3 4 5 3 6 5 9 4 8 5 5 156 4 11 4 6 3 6 5 385 4 3 4 4 7 5 4 7353 3 3 4 4 3 4 3 9 3 4 4 1 4 6 8 4 514 4 4 7 201 2 6 155 4 2 4 3 4 5 4 5 4 6 4 7 6 3 5 950 3 3 5 4 2 8 6 4 5 4 4 8 2 4 4 6 4 3 6 4 4 4 4 1475 5 3 2 515 4 4 622 5 6 4 13 3 4 3 11 7 16 4 1035 3 1 4 8 6 362 4 4 4 5 4 6 1461 3 5 4 5 4 3 4 4 5 7 5 3 4 7 6 3 4 6 951 4 7 6 7 4 3 99 4 4 3 3 6 2 5 4 6 10 13 3 5 1456 5 3 3 112 3 4 4 5 1 4 3 4 5 5 4 3 3 5 3 4 5 5 6 3 3 2 3 4 6 5 3 4 3 5 4 6 3 6 4 2 6 5 3 4 3 5 2 4 2 5 2 4 4 8 26 1861 5 4 4 3 4 457 3 5 4 4 5 6 740 4 4 5 4 6 4 3 3 5 3 1 5 4 4 3 4 5 4 5 5 3 3 137 3 4 6 6 6 5 531 3 5 5 4 5 4 2 4 1325 3 5 4 3 4 6 5 3 3 6 3 3 6 7 9 5 1968 6 4 4 4 4 7 4 6 8 5 2 3 4 5 5 4 5 5 2 4 8 4 3 726 
