
*** ChampSim Multicore Out-of-Order Simulator ***

Warmup Instructions: 50000000
Simulation Instructions: 50000000
Number of CPUs: 1
LLC sets: 2048
LLC ways: 16
Off-chip DRAM Size: 4096 MB Channels: 1 Width: 64-bit Data Rate: 6400 MT/s
CPU 0 runs ./micro_traces/srv657.trace.gz
.gz
ITLB has LRU replacement policy
DTLB has LRU replacement policy
STLB has LRU replacement policy
FDIP Prefetcher at L1I
L1I has LRU replacement policy
L1D has LRU replacement policy
Initialize SRRIP state for L2C
Initialize DRRIP state for LLC
Heartbeat_Variant_0 : 1370 0.334473 per_variant_size: 0 1370 0 0 0 0 0 0 0 
Heartbeat_Variant_1 : 2505 0.611572 per_variant_size: 0 327 2178 0 0 0 0 0 0 
Heartbeat_Variant_2 : 0 0 per_variant_size: 0 0 0 0 0 0 0 0 0 
Heartbeat_Variant_3 : 0 0 per_variant_size: 0 0 0 0 0 0 0 0 0 
Heartbeat_Variant_0_evicts 0 : 5657 1 : 80 2 : 0 3 : 0 
Heartbeat_Variant_1_evicts 0 : 75 1 : 0 2 : 0 3 : 0 
Heartbeat_Variant_2_evicts 0 : 0 1 : 0 2 : 0 3 : 0 
Heartbeat_Variant_3_evicts 0 : 0 1 : 0 2 : 0 3 : 0 
Heartbeat CPU 0 instructions: 10000000 cycles: 2797296 heartbeat IPC: 3.57488 cumulative IPC: 3.57488 (Simulation time: 0 hr 1 min 45 sec) 
Heartbeat_Variant_0 : 1398 0.341309 per_variant_size: 0 1398 0 0 0 0 0 0 0 
Heartbeat_Variant_1 : 2571 0.627686 per_variant_size: 0 293 2278 0 0 0 0 0 0 
Heartbeat_Variant_2 : 0 0 per_variant_size: 0 0 0 0 0 0 0 0 0 
Heartbeat_Variant_3 : 0 0 per_variant_size: 0 0 0 0 0 0 0 0 0 
Heartbeat_Variant_0_evicts 0 : 5447 1 : 67 2 : 0 3 : 0 
Heartbeat_Variant_1_evicts 0 : 61 1 : 0 2 : 0 3 : 0 
Heartbeat_Variant_2_evicts 0 : 0 1 : 0 2 : 0 3 : 0 
Heartbeat_Variant_3_evicts 0 : 0 1 : 0 2 : 0 3 : 0 
Heartbeat CPU 0 instructions: 20000001 cycles: 5592608 heartbeat IPC: 3.57742 cumulative IPC: 3.57615 (Simulation time: 0 hr 3 min 26 sec) 
Heartbeat_Variant_0 : 1405 0.343018 per_variant_size: 0 1405 0 0 0 0 0 0 0 
Heartbeat_Variant_1 : 2573 0.628174 per_variant_size: 0 280 2293 0 0 0 0 0 0 
Heartbeat_Variant_2 : 0 0 per_variant_size: 0 0 0 0 0 0 0 0 0 
Heartbeat_Variant_3 : 0 0 per_variant_size: 0 0 0 0 0 0 0 0 0 
Heartbeat_Variant_0_evicts 0 : 5610 1 : 19 2 : 0 3 : 0 
Heartbeat_Variant_1_evicts 0 : 14 1 : 0 2 : 0 3 : 0 
Heartbeat_Variant_2_evicts 0 : 0 1 : 0 2 : 0 3 : 0 
Heartbeat_Variant_3_evicts 0 : 0 1 : 0 2 : 0 3 : 0 
Heartbeat CPU 0 instructions: 30000000 cycles: 8388691 heartbeat IPC: 3.57643 cumulative IPC: 3.57624 (Simulation time: 0 hr 5 min 6 sec) 
Heartbeat_Variant_0 : 1407 0.343506 per_variant_size: 0 1407 0 0 0 0 0 0 0 
Heartbeat_Variant_1 : 2580 0.629883 per_variant_size: 0 279 2301 0 0 0 0 0 0 
Heartbeat_Variant_2 : 0 0 per_variant_size: 0 0 0 0 0 0 0 0 0 
Heartbeat_Variant_3 : 0 0 per_variant_size: 0 0 0 0 0 0 0 0 0 
Heartbeat_Variant_0_evicts 0 : 5687 1 : 14 2 : 0 3 : 0 
Heartbeat_Variant_1_evicts 0 : 16 1 : 0 2 : 0 3 : 0 
Heartbeat_Variant_2_evicts 0 : 0 1 : 0 2 : 0 3 : 0 
Heartbeat_Variant_3_evicts 0 : 0 1 : 0 2 : 0 3 : 0 
Heartbeat CPU 0 instructions: 40000001 cycles: 11186887 heartbeat IPC: 3.57373 cumulative IPC: 3.57561 (Simulation time: 0 hr 6 min 47 sec) 
Heartbeat_Variant_0 : 1407 0.343506 per_variant_size: 0 1407 0 0 0 0 0 0 0 
Heartbeat_Variant_1 : 2581 0.630127 per_variant_size: 0 278 2303 0 0 0 0 0 0 
Heartbeat_Variant_2 : 0 0 per_variant_size: 0 0 0 0 0 0 0 0 0 
Heartbeat_Variant_3 : 0 0 per_variant_size: 0 0 0 0 0 0 0 0 0 
Heartbeat_Variant_0_evicts 0 : 5505 1 : 1 2 : 0 3 : 0 
Heartbeat_Variant_1_evicts 0 : 1 1 : 0 2 : 0 3 : 0 
Heartbeat_Variant_2_evicts 0 : 0 1 : 0 2 : 0 3 : 0 
Heartbeat_Variant_3_evicts 0 : 0 1 : 0 2 : 0 3 : 0 
Heartbeat CPU 0 instructions: 50000001 cycles: 13982312 heartbeat IPC: 3.57727 cumulative IPC: 3.57595 (Simulation time: 0 hr 8 min 25 sec) 

Warmup complete CPU 0 instructions: 50000001 cycles: 13982312 (Simulation time: 0 hr 8 min 25 sec) 

Cycle: 20000000 FTQ IN: 58270800 FTQ occupancy: 20.5503 DECODE IN: 58270800 DECODE occupancy: 53.2661 ROB IN: 58270800 ROB occupancy: 318.043 ROB OUT: 58270798
Heartbeat_Variant_0 : 1409 0.343994 per_variant_size: 0 1409 0 0 0 0 0 0 0 
Heartbeat_Variant_1 : 2590 0.632324 per_variant_size: 0 298 2292 0 0 0 0 0 0 
Heartbeat_Variant_2 : 0 0 per_variant_size: 0 0 0 0 0 0 0 0 0 
Heartbeat_Variant_3 : 0 0 per_variant_size: 0 0 0 0 0 0 0 0 0 
Heartbeat_Variant_0_evicts 0 : 5647 1 : 26 2 : 0 3 : 0 
Heartbeat_Variant_1_evicts 0 : 27 1 : 0 2 : 0 3 : 0 
Heartbeat_Variant_2_evicts 0 : 0 1 : 0 2 : 0 3 : 0 
Heartbeat_Variant_3_evicts 0 : 0 1 : 0 2 : 0 3 : 0 
Heartbeat CPU 0 instructions: 60000001 cycles: 21229698 heartbeat IPC: 1.37981 cumulative IPC: 1.37981 (Simulation time: 0 hr 10 min 24 sec) 
Heartbeat_Variant_0 : 1409 0.343994 per_variant_size: 0 1409 0 0 0 0 0 0 0 
Heartbeat_Variant_1 : 2590 0.632324 per_variant_size: 0 298 2292 0 0 0 0 0 0 
Heartbeat_Variant_2 : 0 0 per_variant_size: 0 0 0 0 0 0 0 0 0 
Heartbeat_Variant_3 : 0 0 per_variant_size: 0 0 0 0 0 0 0 0 0 
Heartbeat_Variant_0_evicts 0 : 5632 1 : 0 2 : 0 3 : 0 
Heartbeat_Variant_1_evicts 0 : 0 1 : 0 2 : 0 3 : 0 
Heartbeat_Variant_2_evicts 0 : 0 1 : 0 2 : 0 3 : 0 
Heartbeat_Variant_3_evicts 0 : 0 1 : 0 2 : 0 3 : 0 
Heartbeat CPU 0 instructions: 70000000 cycles: 28384642 heartbeat IPC: 1.39763 cumulative IPC: 1.38866 (Simulation time: 0 hr 12 min 24 sec) 
Cycle: 30000000 FTQ IN: 13988419 FTQ occupancy: 14.9021 DECODE IN: 13988353 DECODE occupancy: 38.0505 ROB IN: 13988293 ROB occupancy: 249.88 ROB OUT: 13988252
Heartbeat_Variant_0 : 1411 0.344482 per_variant_size: 0 1411 0 0 0 0 0 0 0 
Heartbeat_Variant_1 : 2592 0.632812 per_variant_size: 0 297 2295 0 0 0 0 0 0 
Heartbeat_Variant_2 : 0 0 per_variant_size: 0 0 0 0 0 0 0 0 0 
Heartbeat_Variant_3 : 0 0 per_variant_size: 0 0 0 0 0 0 0 0 0 
Heartbeat_Variant_0_evicts 0 : 5561 1 : 6 2 : 0 3 : 0 
Heartbeat_Variant_1_evicts 0 : 6 1 : 0 2 : 0 3 : 0 
Heartbeat_Variant_2_evicts 0 : 0 1 : 0 2 : 0 3 : 0 
Heartbeat_Variant_3_evicts 0 : 0 1 : 0 2 : 0 3 : 0 
Heartbeat CPU 0 instructions: 80000001 cycles: 35632322 heartbeat IPC: 1.37975 cumulative IPC: 1.38568 (Simulation time: 0 hr 14 min 24 sec) 
Cycle: 40000000 FTQ IN: 13810433 FTQ occupancy: 15.016 DECODE IN: 13810383 DECODE occupancy: 38.1086 ROB IN: 13810383 ROB occupancy: 250.863 ROB OUT: 13810074
Heartbeat_Variant_0 : 1412 0.344727 per_variant_size: 0 1412 0 0 0 0 0 0 0 
Heartbeat_Variant_1 : 2594 0.633301 per_variant_size: 0 305 2289 0 0 0 0 0 0 
Heartbeat_Variant_2 : 0 0 per_variant_size: 0 0 0 0 0 0 0 0 0 
Heartbeat_Variant_3 : 0 0 per_variant_size: 0 0 0 0 0 0 0 0 0 
Heartbeat_Variant_0_evicts 0 : 5632 1 : 3 2 : 0 3 : 0 
Heartbeat_Variant_1_evicts 0 : 4 1 : 0 2 : 0 3 : 0 
Heartbeat_Variant_2_evicts 0 : 0 1 : 0 2 : 0 3 : 0 
Heartbeat_Variant_3_evicts 0 : 0 1 : 0 2 : 0 3 : 0 
Heartbeat CPU 0 instructions: 90000000 cycles: 42794762 heartbeat IPC: 1.39617 cumulative IPC: 1.38829 (Simulation time: 0 hr 16 min 23 sec) 
Cycle: 50000000 FTQ IN: 13843929 FTQ occupancy: 14.9858 DECODE IN: 13844045 DECODE occupancy: 37.9542 ROB IN: 13844105 ROB occupancy: 250.601 ROB OUT: 13844430
Heartbeat_Variant_0 : 1420 0.34668 per_variant_size: 0 1420 0 0 0 0 0 0 0 
Heartbeat_Variant_1 : 2592 0.632812 per_variant_size: 0 286 2306 0 0 0 0 0 0 
Heartbeat_Variant_2 : 0 0 per_variant_size: 0 0 0 0 0 0 0 0 0 
Heartbeat_Variant_3 : 0 0 per_variant_size: 0 0 0 0 0 0 0 0 0 
Heartbeat_Variant_0_evicts 0 : 5561 1 : 19 2 : 0 3 : 0 
Heartbeat_Variant_1_evicts 0 : 14 1 : 0 2 : 0 3 : 0 
Heartbeat_Variant_2_evicts 0 : 0 1 : 0 2 : 0 3 : 0 
Heartbeat_Variant_3_evicts 0 : 0 1 : 0 2 : 0 3 : 0 
Heartbeat CPU 0 instructions: 100000000 cycles: 50057458 heartbeat IPC: 1.3769 cumulative IPC: 1.386 (Simulation time: 0 hr 18 min 23 sec) 
Finished CPU 0 instructions: 50000000 cycles: 36075147 cumulative IPC: 1.386 (Simulation time: 0 hr 18 min 23 sec) 

ChampSim completed all CPUs

Region of Interest Statistics

CPU 0 cumulative IPC: 1.386 instructions: 50000000 cycles: 36075147
 Fetch stage stalled: 45.9498  Sim cycles: 36075147 fetch stall cycle: 16576468
 Empty decode stage: 25.8338  Sim cycles: 36075147 fetch stall cycle: 9319590
ITLB TOTAL     ACCESS:    5832900  HIT:    5339354  MISS:     493546  HIT %:    91.5386  MISS %:    8.46142   MPKI: 9.87092
ITLB LOAD TRANSLATION INSTRUCTION	ACCESS:    5695485  HIT:    5201939  MISS:     493546  HIT %:    91.3344  MISS %:    8.66557  MPKI: 9.87092
ITLB TRANSLATION FROM L1D PREFETCHER INSTRUCTION	ACCESS:     137415  HIT:     137415  MISS:          0  HIT %:        100  MISS %:          0  MPKI: 0

ITLB AVERAGE MISS LATENCY: 9.06146 cycles
ITLB RQ	ACCESS:    7937876	FORWARD:          0	MERGED:    1624108	TO_CACHE:    6313768

DTLB TOTAL     ACCESS:    8960057  HIT:    8490685  MISS:     469372  HIT %:    94.7615  MISS %:    5.23849   MPKI: 9.38744
DTLB LOAD TRANSLATION DATA	ACCESS:    8960057  HIT:    8490685  MISS:     469372  HIT %:    94.7615  MISS %:    5.23849  MPKI: 9.38744

DTLB AVERAGE MISS LATENCY: 9.33787 cycles
DTLB RQ	ACCESS:   13329851	FORWARD:          0	MERGED:    4332372	TO_CACHE:    8997479

STLB TOTAL     ACCESS:    1212442  HIT:    1210325  MISS:       2117  HIT %:    99.8254  MISS %:   0.174606   MPKI: 0.04234
STLB LOAD TRANSLATION INSTRUCTION	ACCESS:     493546  HIT:     493278  MISS:        268  HIT %:    99.9457  MISS %:  0.0543009  MPKI: 0.00536
STLB LOAD TRANSLATION DATA	ACCESS:     469372  HIT:     467556  MISS:       1816  HIT %:    99.6131  MISS %:     0.3869  MPKI: 0.03632
STLB TRANSLATION FROM L1D PREFETCHER DATA	ACCESS:     249524  HIT:     249491  MISS:         33  HIT %:    99.9868  MISS %:  0.0132252  MPKI: 0.00066

STLB AVERAGE MISS LATENCY: 74.5602 cycles
STLB RQ	ACCESS:    1334116	FORWARD:          0	MERGED:     121631	TO_CACHE:    1212485

STLB Hit, L1D data hit: 0
STLB Hit, L2C data hit: 0
STLB Hit, LLC data hit: 0
STLB Hit, LLC data miss: 0
STLB STLB hints to L2: 0
L1D TOTAL     ACCESS:   13077456  HIT:   11960205  MISS:    1117251  HIT %:    91.4567  MISS %:    8.54334   MPKI: 22.345
L1D LOAD DATA	ACCESS:    6544649  HIT:    5809585  MISS:     735064  HIT %:    88.7685  MISS %:    11.2315  MPKI: 14.7013
L1D RFO DATA	ACCESS:    6202895  HIT:    5915969  MISS:     286926  HIT %:    95.3743  MISS %:    4.62568  MPKI: 5.73852
L1D PREFETCH DATA	ACCESS:     329912  HIT:     234651  MISS:      95261  HIT %:    71.1253  MISS %:    28.8747  MPKI: 1.90522

L1D PREFETCH  REQUESTED:     742756  ISSUED:     742756  USEFUL:      34967  USELESS:      68165
L1D USEFUL LOAD PREFETCHES:      34967 PREFETCH ISSUED TO LOWER LEVEL:     103231  ACCURACY: 33.8726
 TIMELY PREFETCHES:      34967 LATE PREFETCHES: 7860 DROPPED PREFETCHES: 7
L1D AVERAGE MISS LATENCY: 228089 cycles
L1D RQ	ACCESS:   10687913	FORWARD:          0	MERGED:    3944432	TO_CACHE:    6580554
L1D WQ	ACCESS:    6947190	FORWARD:     163287	MERGED:     197893	TO_CACHE:    6749297
L1D PQ	ACCESS:     371558	FORWARD:          0	MERGED:          0	TO_CACHE:     371198

L1D UNIQUE REGIONS ACCESSED: 0
L1D REGIONS CONFLICTS: 0
L1D Cross Page Prefetch Requests: 6989
L1D Same Page Prefetch Requests: 751115
L1D ROI Sum of L1D PQ occupancy: 4723480
L1D PREFETCHES PUSHED FROM L2C: 0
L1I TOTAL     ACCESS:    7095774  HIT:    4336597  MISS:    2759177  HIT %:    61.1152  MISS %:    38.8848   MPKI: 55.1835
L1I LOAD INSTRUCTION	ACCESS:    6438927  HIT:    3679750  MISS:    2759177  HIT %:    57.1485  MISS %:    42.8515  MPKI: 55.1835
L1I PREFETCH INSTRUCTION	ACCESS:     656847  HIT:     656847  MISS:          0  HIT %:        100  MISS %:          0  MPKI: 0

L1I PREFETCH  REQUESTED:    1614090  ISSUED:    1614090  USEFUL:          0  USELESS:          0
L1I USEFUL LOAD PREFETCHES:          0 PREFETCH ISSUED TO LOWER LEVEL:          0  ACCURACY: -nan
 TIMELY PREFETCHES:          0 LATE PREFETCHES: 0 DROPPED PREFETCHES: 0
L1I AVERAGE MISS LATENCY: 17.7349 cycles
L1I RQ	ACCESS:    9566163	FORWARD:          0	MERGED:    2818924	TO_CACHE:    6747239
L1I PQ	ACCESS:    1614090	FORWARD:          0	MERGED:     423453	TO_CACHE:    1190637

L1BTB TOTAL     ACCESS:    5667926  HIT:    2042162  MISS:    3625764  HIT %:    36.0301  MISS %:    63.9699   MPKI: 72.5153
L1BTB BRANCH_DIRECT_JUMP	ACCESS:     547448 HIT:     143854 MISS:     403594 AVERAGE STALL: 61.6393 AVERAGE FETCH STALL: 16.9543 AVERAGE FETCH QUEUE STALL: 20.9905 AVERAGE DECODE STALL: 22.8324 AVERAGE EXECUTE STALL: 2.04714e+15
L1BTB BRANCH_INDIRECT	ACCESS:     182448 HIT:      65642 MISS:     116806 AVERAGE STALL: 119.082 AVERAGE FETCH STALL: 11.488 AVERAGE FETCH QUEUE STALL: 24.6042 AVERAGE DECODE STALL: 13.8211 AVERAGE EXECUTE STALL: 68.2071
L1BTB BRANCH_CONDITIONAL	ACCESS:    2706433 HIT:    1414363 MISS:    1292070 AVERAGE STALL: 85.9844 AVERAGE FETCH STALL: 25.3844 AVERAGE FETCH QUEUE STALL: 36.1513 AVERAGE DECODE STALL: 24.0003 AVERAGE EXECUTE STALL: 5.23758e+15
L1BTB BRANCH_DIRECT_CALL	ACCESS:     943625 HIT:     105826 MISS:     837799 AVERAGE STALL: 89.28 AVERAGE FETCH STALL: 20.6936 AVERAGE FETCH QUEUE STALL: 35.0352 AVERAGE DECODE STALL: 32.9552 AVERAGE EXECUTE STALL: 1.47574e+16
L1BTB BRANCH_INDIRECT_CALL	ACCESS:     172168 HIT:      21802 MISS:     150366 AVERAGE STALL: 141.888 AVERAGE FETCH STALL: 12.1005 AVERAGE FETCH QUEUE STALL: 18.1922 AVERAGE DECODE STALL: 13.0314 AVERAGE EXECUTE STALL: 98.0731
L1BTB BRANCH_RETURN	ACCESS:    1115804 HIT:     290675 MISS:     825129 AVERAGE STALL: 49.7442 AVERAGE FETCH STALL: 16.675 AVERAGE FETCH QUEUE STALL: 6.31255 AVERAGE DECODE STALL: 6.45137 AVERAGE EXECUTE STALL: 4.21091e+14
L1BTB BRANCH_OTHER ACCESS:          0 HIT:          0 MISS:          0 AVERAGE STALL: -nan AVERAGE FETCH STALL: -nan AVERAGE FETCH QUEUE STALL: -nan AVERAGE DECODE STALL: -nan AVERAGE EXECUTE STALL: -nan
L1BTB TOTAL ROB OCCUPANCY AT BTB MISS: 2.7041

L2BTB TOTAL     ACCESS:    3600321  HIT:    3535511  MISS:      64810  HIT %:    98.1999  MISS %:    1.80012   MPKI: 1.2962
L2BTB BRANCH_DIRECT_JUMP	ACCESS:     399407 HIT:     394581 MISS:       4826 AVERAGE STALL: 61.6393 AVERAGE FETCH STALL: 16.9543 AVERAGE FETCH QUEUE STALL: 20.9905 AVERAGE DECODE STALL: 22.8324 AVERAGE EXECUTE STALL: 2.04714e+15
L2BTB BRANCH_INDIRECT	ACCESS:     106526 HIT:     103832 MISS:       2694 AVERAGE STALL: 119.082 AVERAGE FETCH STALL: 11.488 AVERAGE FETCH QUEUE STALL: 24.6042 AVERAGE DECODE STALL: 13.8211 AVERAGE EXECUTE STALL: 68.2071
L2BTB BRANCH_CONDITIONAL	ACCESS:    1292070 HIT:    1288536 MISS:       3534 AVERAGE STALL: 85.9844 AVERAGE FETCH STALL: 25.3844 AVERAGE FETCH QUEUE STALL: 36.1513 AVERAGE DECODE STALL: 24.0003 AVERAGE EXECUTE STALL: 5.23758e+15
L2BTB BRANCH_DIRECT_CALL	ACCESS:     837799 HIT:     836544 MISS:       1255 AVERAGE STALL: 89.28 AVERAGE FETCH STALL: 20.6936 AVERAGE FETCH QUEUE STALL: 35.0352 AVERAGE DECODE STALL: 32.9552 AVERAGE EXECUTE STALL: 1.47574e+16
L2BTB BRANCH_INDIRECT_CALL	ACCESS:     140800 HIT:     130703 MISS:      10097 AVERAGE STALL: 141.888 AVERAGE FETCH STALL: 12.1005 AVERAGE FETCH QUEUE STALL: 18.1922 AVERAGE DECODE STALL: 13.0314 AVERAGE EXECUTE STALL: 98.0731
L2BTB BRANCH_RETURN	ACCESS:     823719 HIT:     781315 MISS:      42404 AVERAGE STALL: 49.7442 AVERAGE FETCH STALL: 16.675 AVERAGE FETCH QUEUE STALL: 6.31255 AVERAGE DECODE STALL: 6.45137 AVERAGE EXECUTE STALL: 4.21091e+14
L2BTB BRANCH_OTHER ACCESS:          0 HIT:          0 MISS:          0 AVERAGE STALL: -nan AVERAGE FETCH STALL: -nan AVERAGE FETCH QUEUE STALL: -nan AVERAGE DECODE STALL: -nan AVERAGE EXECUTE STALL: -nan
L2BTB TOTAL ROB OCCUPANCY AT BTB MISS: 151.279

L2C TOTAL     ACCESS:    4496406  HIT:    3945953  MISS:     550453  HIT %:    87.7579  MISS %:    12.2421   MPKI: 11.0091
L2C LOAD INSTRUCTION	ACCESS:    2759177  HIT:    2456813  MISS:     302364  HIT %:    89.0415  MISS %:    10.9585  MPKI: 6.04728
L2C LOAD TRANSLATION INSTRUCTION	ACCESS:        308  HIT:         72  MISS:        236  HIT %:    23.3766  MISS %:    76.6234  MPKI: 0.00472
L2C LOAD DATA	ACCESS:     727173  HIT:     637708  MISS:      89465  HIT %:    87.6969  MISS %:    12.3031  MPKI: 1.7893
L2C RFO DATA	ACCESS:     286782  HIT:     229713  MISS:      57069  HIT %:    80.1002  MISS %:    19.8998  MPKI: 1.14138
L2C PREFETCH DATA	ACCESS:     199093  HIT:     117643  MISS:      81450  HIT %:    59.0895  MISS %:    40.9105  MPKI: 1.629
L2C WRITEBACK DATA	ACCESS:     521935  HIT:     503438  MISS:      18497  HIT %:    96.4561  MISS %:    3.54393  MPKI: 0.36994
L2C LOAD TRANSLATION DATA	ACCESS:       1879  HIT:        526  MISS:       1353  HIT %:    27.9936  MISS %:    72.0064  MPKI: 0.02706
L2C TRANSLATION FROM L1D PREFETCHER DATA	ACCESS:         59  HIT:         40  MISS:         19  HIT %:    67.7966  MISS %:    32.2034  MPKI: 0.00038

L2C PREFETCH  REQUESTED:     104601  ISSUED:     104601  USEFUL:       9536  USELESS:      72600
L2C USEFUL LOAD PREFETCHES:       9536 PREFETCH ISSUED TO LOWER LEVEL:      81977  ACCURACY: 11.6325
 TIMELY PREFETCHES:       9536 LATE PREFETCHES: 527 DROPPED PREFETCHES: 0
L2C AVERAGE MISS LATENCY: 37.9134 cycles
L2C RQ	ACCESS:    3775443	FORWARD:          0	MERGED:          0	TO_CACHE:    3775378
L2C WQ	ACCESS:     521935	FORWARD:         65	MERGED:          0	TO_CACHE:     521935
L2C PQ	ACCESS:     207832	FORWARD:          0	MERGED:       3768	TO_CACHE:     204064

L2C Dense regions hint from L2: 0
PSCL5 TOTAL     ACCESS:       4256  HIT:       2128  MISS:       2128  HIT %:         50  MISS %:         50   MPKI: 0.04256
PSCL5 LOAD TRANSLATION INSTRUCTION	ACCESS:       4138  HIT:       2069  MISS:       2069  HIT %:         50  MISS %:         50  MPKI: 0.04138
PSCL5 TRANSLATION FROM L1D PREFETCHER INSTRUCTION	ACCESS:        118  HIT:         59  MISS:         59  HIT %:         50  MISS %:         50  MPKI: 0.00118


PSCL4 TOTAL     ACCESS:       4145  HIT:       2068  MISS:       2077  HIT %:    49.8914  MISS %:    50.1086   MPKI: 0.04154
PSCL4 LOAD TRANSLATION INSTRUCTION	ACCESS:       3486  HIT:       2015  MISS:       1471  HIT %:    57.8026  MISS %:    42.1974  MPKI: 0.02942
PSCL4 TRANSLATION FROM L1D PREFETCHER INSTRUCTION	ACCESS:         88  HIT:         53  MISS:         35  HIT %:    60.2273  MISS %:    39.7727  MPKI: 0.0007
PSCL4 LOAD TRANSLATION DATA	ACCESS:        553  HIT:          0  MISS:        553  HIT %:          0  MISS %:        100  MPKI: 0.01106
PSCL4 TRANSLATION FROM L1D PREFETCHER DATA	ACCESS:         18  HIT:          0  MISS:         18  HIT %:          0  MISS %:        100  MPKI: 0.00036


PSCL3 TOTAL     ACCESS:       4167  HIT:       2079  MISS:       2088  HIT %:     49.892  MISS %:     50.108   MPKI: 0.04176
PSCL3 LOAD TRANSLATION INSTRUCTION	ACCESS:       3497  HIT:       2026  MISS:       1471  HIT %:    57.9354  MISS %:    42.0646  MPKI: 0.02942
PSCL3 TRANSLATION FROM L1D PREFETCHER INSTRUCTION	ACCESS:         88  HIT:         53  MISS:         35  HIT %:    60.2273  MISS %:    39.7727  MPKI: 0.0007
PSCL3 LOAD TRANSLATION DATA	ACCESS:        564  HIT:          0  MISS:        564  HIT %:          0  MISS %:        100  MPKI: 0.01128
PSCL3 TRANSLATION FROM L1D PREFETCHER DATA	ACCESS:         18  HIT:          0  MISS:         18  HIT %:          0  MISS %:        100  MPKI: 0.00036


PSCL2 TOTAL     ACCESS:       4156  HIT:       2028  MISS:       2128  HIT %:    48.7969  MISS %:    51.2031   MPKI: 0.04256
PSCL2 LOAD TRANSLATION INSTRUCTION	ACCESS:       2236  HIT:       1969  MISS:        267  HIT %:     88.059  MISS %:     11.941  MPKI: 0.00534
PSCL2 TRANSLATION FROM L1D PREFETCHER INSTRUCTION	ACCESS:         59  HIT:         59  MISS:          0  HIT %:        100  MISS %:          0  MPKI: 0
PSCL2 LOAD TRANSLATION DATA	ACCESS:       1802  HIT:          0  MISS:       1802  HIT %:          0  MISS %:        100  MPKI: 0.03604
PSCL2 TRANSLATION FROM L1D PREFETCHER DATA	ACCESS:         59  HIT:          0  MISS:         59  HIT %:          0  MISS %:        100  MPKI: 0.00118


LLC TOTAL     ACCESS:     617710  HIT:     587344  MISS:      30366  HIT %:    95.0841  MISS %:     4.9159   MPKI: 0.60732
LLC LOAD INSTRUCTION	ACCESS:     302364  HIT:     301426  MISS:        938  HIT %:    99.6898  MISS %:   0.310222  MPKI: 0.01876
LLC LOAD TRANSLATION INSTRUCTION	ACCESS:        236  HIT:        206  MISS:         30  HIT %:    87.2881  MISS %:    12.7119  MPKI: 0.0006
LLC LOAD DATA	ACCESS:      88975  HIT:      85543  MISS:       3432  HIT %:    96.1427  MISS %:    3.85726  MPKI: 0.06864
LLC RFO DATA	ACCESS:      57023  HIT:      41455  MISS:      15568  HIT %:    72.6987  MISS %:    27.3013  MPKI: 0.31136
LLC PREFETCH DATA	ACCESS:      81976  HIT:      72074  MISS:       9902  HIT %:    87.9209  MISS %:    12.0791  MPKI: 0.19804
LLC WRITEBACK DATA	ACCESS:      85764  HIT:      85346  MISS:        418  HIT %:    99.5126  MISS %:   0.487384  MPKI: 0.00836
LLC LOAD TRANSLATION DATA	ACCESS:       1353  HIT:       1277  MISS:         76  HIT %:    94.3829  MISS %:    5.61715  MPKI: 0.00152
LLC TRANSLATION FROM L1D PREFETCHER DATA	ACCESS:         19  HIT:         17  MISS:          2  HIT %:    89.4737  MISS %:    10.5263  MPKI: 4e-05

LLC AVERAGE MISS LATENCY: 160.178 cycles
LLC RQ	ACCESS:     449979	FORWARD:          0	MERGED:          0	TO_CACHE:     449970
LLC WQ	ACCESS:      85764	FORWARD:         10	MERGED:          0	TO_CACHE:      85764
LLC PQ	ACCESS:      81977	FORWARD:          0	MERGED:          0	TO_CACHE:      81976

LLC Dense regions hint to LLC: 0

RAW hits: 1949968
Loads Generated: 12637884
Loads sent to L1D: 10687913
Stores Generated: 6947172
Stores sent to L1D: 6947190
Major fault: 0 Minor fault: 2554
Allocated PAGES: 2554

stream: 
stream:times selected: 1185386
stream:pref_filled: 120694
stream:pref_useful: 23966
stream:pref_late: 6853
stream:misses: 8073
stream:misses_by_poll: 0

CS: 
CS:times selected: 178068
CS:pref_filled: 60007
CS:pref_useful: 36775
CS:pref_late: 6849
CS:misses: 16615
CS:misses_by_poll: 2

CPLX: 
CPLX:times selected: 1006178
CPLX:pref_filled: 19857
CPLX:pref_useful: 4733
CPLX:pref_late: 3183
CPLX:misses: 93212
CPLX:misses_by_poll: 1

NL_L1: 
NL:times selected: 20923
NL:pref_filled: 778
NL:pref_useful: 362
NL:pref_late: 325
NL:misses: 1778
NL:misses_by_poll: 0

total selections: 2390555
total_filled: 95261
total_useful: 34967
total_late: 18511
total_polluted: 3
total_misses_after_warmup: 770971
conflicts: 5518857

test: 117330

DRAM Statistics
 CHANNEL 0
 RQ ROW_BUFFER_HIT:      11257  ROW_BUFFER_MISS:      18671
 DBUS_CONGESTED:         10
 WQ ROW_BUFFER_HIT:       1503  ROW_BUFFER_MISS:      13149  FULL:          0

 AVG_CONGESTED_CYCLE: 5

CPU 0 Branch Prediction Accuracy: 99.8245% MPKI: 0.32072 Average ROB Occupancy at Mispredict: 201.341
Branch types
NOT_BRANCH: 40860498 81.721%
BRANCH_DIRECT_JUMP: 547448 1.0949%
BRANCH_INDIRECT: 182448 0.364896%
BRANCH_CONDITIONAL: 6177505 12.355%
BRANCH_DIRECT_CALL: 943625 1.88725%
BRANCH_INDIRECT_CALL: 172168 0.344336%
BRANCH_RETURN: 1115804 2.23161%
BRANCH_OTHER: 0 0%

DRAM PAGES: 1048576
Allocated PAGES: 2554
Average_ROB_Occupancy: 251.091
Average_Decode_Occupancy: 37.9294
Average_FTQ_Occupancy: 14.9442
Indirect max targets: 14 Average targets: 1.15488
Branch_type:  BRANCH_DIRECT_JUMP:  Count Percentage: 1.94565 5.77749 5.0648 8.74916 2.23204 5.97073 5.98471 64.2754 
Branch_type:  BRANCH_INDIRECT:  Count Percentage: 11.7409 5.55601 2.54931 0 1.33929 9.67495 17.6494 51.4902 
Branch_type:  BRANCH_CONDITIONAL:  Count Percentage: 24.6534 6.86449 1.56425 5.00453 1.52164 4.76238 2.95787 52.6714 
Branch_type:  BRANCH_DIRECT_CALL:  Count Percentage: 0.259071 1.47569 1.27402 4.19591 2.48863 2.22707 0.704199 87.3754 
Branch_type:  BRANCH_INDIRECT_CALL:  Count Percentage: 9.51291 2.27206 2.98052 8.66386 1.3931 1.70419 1.27894 72.1944 
Branch_type:  BRANCH_RETURN:  Count Percentage: 7.30194 5.10079 1.16083 5.88087 3.30359 6.11259 3.73891 67.4005 
Branch_type:  BRANCH_DIRECT_JUMP:  Total Count: 21305 63264 55460 95804 24441 65380 65533 703821 
Branch_type:  BRANCH_INDIRECT:  Total Count: 42868 20286 9308 0 4890 35325 64441 188000 
Branch_type:  BRANCH_CONDITIONAL:  Total Count: 3045316 847937 193224 618185 187961 588274 365372 6506249 
Branch_type:  BRANCH_DIRECT_CALL:  Total Count: 4893 27871 24062 79247 47002 42062 13300 1650235 
Branch_type:  BRANCH_INDIRECT_CALL:  Total Count: 32750 7822 10261 29827 4796 5867 4403 248543 
Branch_type:  BRANCH_RETURN:  Total Count: 163107 113939 25930 131364 73794 136540 83518 1505558 
Number of unique branch instructions: 9960
Upper 32 bits: 
aaaa
ffff
ffff0000
Unique upper 32 bits: 3
Unique upper 36 bits: 3
Unique upper 40 bits: 5
Unique upper 44 bits: 32
Unique upper 48 bits: 153
Variant_0 : 1420 0.34668
Variant_1 : 2592 0.632812
Variant_2 : 0 0
Variant_3 : 0 0
Offset_3 4111
Offset_4 243
Offset_5 453
Offset_6 504
Offset_7 587
Offset_8 515
Offset_9 462
Offset_10 380
Offset_11 318
Offset_12 278
Offset_13 216
Offset_14 232
Offset_15 179
Offset_16 219
Offset_17 152
Offset_18 120
Offset_19 234
Offset_20 136
Offset_21 239
Offset_22 399
Offset_23 241
Offset_24 333
Offset_25 94
Offset_47 84
decode_dispatch_called: 26397792 73.1745
Dispatch_width: 0 14242844 53.9547 39.481
Dispatch_width: 1 1032427 3.91104 2.86188
Dispatch_width: 2 851729 3.22652 2.36099
Dispatch_width: 3 499573 1.89248 1.38481
Dispatch_width: 4 6377196 24.1581 17.6775
Dispatch_width: 5 107849 0.408553 0.298957
Dispatch_width: 6 3286174 12.4487 9.10925
Empty_decode_cycles: 9677355 26.8255
ROB_full_cycles: 10210312 28.3029
Starvation_cycles_per_kilo_instr: 225.787
Starvation_cycles_per_kilo_instr_3: 160.936
Starvation_cycles_per_kilo_instr_0: 137.099
Branch_type_1  (3,1)  (4,7)  (5,37)  (6,70)  (7,116)  (8,129)  (9,124)  (10,98)  (11,71)  (12,43)  (13,8)  (14,2)  (15,3)  (16,4)  (18,1)  (19,4)  (20,2)  (21,1)  (22,3)  (23,2)  (24,10)  (25,12) 
Branch_type_2  (3,1)  (4,1)  (5,1)  (8,3)  (9,3)  (12,1)  (13,1)  (14,1)  (16,3)  (17,2)  (20,2)  (21,2)  (23,5)  (24,1)  (47,39) 
Branch_type_3  (3,4109)  (4,235)  (5,411)  (6,419)  (7,442)  (8,325)  (9,249)  (10,154)  (11,127)  (12,50)  (13,7) 
Branch_type_4  (6,3)  (7,8)  (8,24)  (9,51)  (10,60)  (11,60)  (12,101)  (13,91)  (14,104)  (15,84)  (16,97)  (17,69)  (18,54)  (19,115)  (20,69)  (21,127)  (22,211)  (23,136)  (24,194)  (25,78) 
Branch_type_5  (8,2)  (9,1)  (10,4)  (11,5)  (12,3)  (13,14)  (14,16)  (15,11)  (16,20)  (17,11)  (18,16)  (19,12)  (20,12)  (21,13)  (22,42)  (23,26)  (24,36) 
Branch_type_6  (5,4)  (6,12)  (7,21)  (8,32)  (9,34)  (10,64)  (11,55)  (12,80)  (13,95)  (14,109)  (15,81)  (16,95)  (17,70)  (18,49)  (19,103)  (20,51)  (21,96)  (22,143)  (23,72)  (24,92)  (25,4)  (47,45) 
Unique trigger count: 
Variant_0_evicts_0 : 0
Variant_0_evicts_1 : 0
Variant_0_evicts_2 : 0
Variant_0_evicts_3 : 0
Variant_1_evicts_0 : 0
Variant_1_evicts_1 : 0
Variant_1_evicts_2 : 0
Variant_1_evicts_3 : 0
Variant_2_evicts_0 : 0
Variant_2_evicts_1 : 0
Variant_2_evicts_2 : 0
Variant_2_evicts_3 : 0
Variant_3_evicts_0 : 0
Variant_3_evicts_1 : 0
Variant_3_evicts_2 : 0
Variant_3_evicts_3 : 0
BTB PER SET UNIQUE ADDR: 13 15 16 14 13 17 13 15 14 17 14 13 16 13 10 15 12 19 16 9 16 10 13 13 14 13 15 14 12 14 15 12 12 14 11 13 16 15 13 14 15 14 15 14 14 16 11 14 13 13 11 15 12 16 16 16 11 16 14 14 12 15 18 13 16 14 15 10 16 12 15 15 14 12 16 14 12 11 16 15 15 15 16 17 14 15 13 13 14 17 18 16 15 14 11 17 14 11 10 13 13 14 15 12 14 18 18 15 16 11 16 15 12 20 15 12 16 11 13 18 14 11 14 13 17 14 14 14 14 13 17 13 13 14 17 13 11 14 13 16 15 14 17 13 14 13 13 13 13 17 12 13 10 13 14 15 15 11 11 17 13 13 15 19 11 14 15 15 17 14 19 17 14 12 12 13 12 13 16 13 14 17 11 13 14 10 14 13 11 16 13 13 16 16 11 16 13 14 15 16 13 14 17 13 14 14 15 15 15 15 16 13 13 20 16 14 14 13 15 12 12 12 11 14 12 13 15 13 10 15 16 17 15 17 12 13 10 13 15 12 14 15 15 16 13 16 13 12 11 14 16 14 14 17 17 16 12 14 14 18 17 13 16 12 18 16 17 15 11 14 12 11 16 13 16 15 15 18 16 15 13 16 19 13 16 13 13 17 17 14 12 15 15 13 15 14 13 16 16 14 16 13 15 14 16 14 15 12 16 17 15 18 14 15 16 13 13 19 11 12 19 14 13 13 13 17 18 17 16 14 14 10 19 15 17 10 13 16 17 12 17 14 13 17 19 15 13 15 14 15 16 14 11 13 17 16 10 13 13 15 14 13 12 13 15 15 16 15 12 11 15 18 12 17 17 15 10 18 18 14 12 13 12 12 18 16 12 14 13 14 15 14 14 14 16 14 18 14 16 15 13 16 16 13 15 13 11 13 10 12 14 13 13 12 16 11 15 12 17 15 17 12 11 16 15 18 18 15 17 14 13 12 17 14 13 13 15 17 15 13 14 11 17 12 14 15 10 16 18 16 13 13 14 17 16 17 20 14 12 14 15 15 14 16 14 14 17 11 13 18 17 12 15 16 14 12 16 13 16 15 14 13 13 12 10 20 18 16 16 12 15 15 18 13 12 12 16 17 17 11 14 11 11 15 14 13 12 15 11 20 17 13 
BTB PER SET COUNT: 39 19 16 16 13 30 14 15 14 17 14 13 1975 15 12 15 16 1490 20 493 16 12 13 1139 14 1368 4060 503 660 123 15 12 12 14 14 15 16 15 172 16 17 14 16 14 61 17 11 14 15 17 11 15 14 26 17 17 16 16 1974 14 13 15 22 1965 17 15 991 13 446 12 18 17 16 988 18 392 38 11 2950 15 16 16 20 48 16 15 13 13 17 1510 1757 16 15 16 12 626 930 1483 10 13 13 14 16 12 168 1445 18 1167 17 11 507 16 13 1971 996 12 17 498 13 21 503 11 14 20544 21 665 15 14 994 13 19 15 15 14 1483 15 500 14 14 16 22 1485 19 15 14 9196 1481 14 16 66 13 15 10 14 17 26 16 11 11 996 13 991 16 23 13 14 218 357 17 15 1489 19 15 12 14 502 12 504 16 14 1480 17 13 16 1305 10 16 960 11 1603 13 13 1481 520 13 18 13 14 15 16 14 15 18 14 14 262 504 31 1981 1370 18 1480 13 521 32 14 14 13 20 12 390 12 12 16 12 13 1481 27 992 17 5926 1482 15 19 12 15 10 1517 25 12 964 3961 15 644 1485 16 13 12 1970 14 19 14 105 520 17 17 111 14 15 528 20 457 4415 12 3262 19 48 18 11 1479 12 418 131 14 18 16 1882 18 16 16 14 536 24 13 16 13 13 17 21 22 12 996 503 13 17 1467 13 18 16 1953 51 18 16 560 19 14 15 12 16 18 3925 1002 16 1369 24 507 14 2012 12 12 79 17 15 13 13 23 1004 506 504 26 992 499 20 2511 17 12 13 16 2232 13 23 15 14 18 506 16 13 192 14 992 18 15 12 15 83 16 10 13 13 15 14 13 12 13 17 63 18 15 16 11 18 395 990 19 1483 15 13 21 21 15 15 13 14 13 2468 16 14 15 17 990 144 14 18 17 42 16 19 17 393 16 14 18 16 40 1481 1479 13 787 14669 12 14 16 14 12 17 11 15 13 18 17 18 18 11 16 15 19 18 15 20 15 18 16 20 1121 19 693 15 19 16 13 14 12 17 12 993 49 10 20 1050 28 13 13 431 1092 16 19 23 15 13 14 15 513 14 16 14 15 17 13 17 997 134 1477 23 17 15 13 18 21 17 16 15 13 15 991 10 74 19 457 16 13 19 15 22 990 12 14 18 17 179 12 991 11 11 16 21 222 14 16 11 20 21 390 
To predecode: 0
Predecoding something: 0
Predecode request dropped: 0
sizeofblock_0 0
sizeofblock_1 44372
sizeofblock_2 91601
sizeofblock_3 0
sizeofblock_4 0
sizeofblock_5 0
sizeofblock_6 0
sizeofblock_7 0
sizeofblock_8 0
Variant_0 Correct: 1615210 Incorrect: 0 Accuracy: 1
Variant_1 Correct: 5733729 Incorrect: 0 Accuracy: 1
Variant_2 Correct: 0 Incorrect: 0 Accuracy: -nan
Variant_3 Correct: 0 Incorrect: 0 Accuracy: -nan
