
*** ChampSim Multicore Out-of-Order Simulator ***

Warmup Instructions: 50000000
Simulation Instructions: 50000000
Number of CPUs: 1
LLC sets: 2048
LLC ways: 16
Off-chip DRAM Size: 4096 MB Channels: 1 Width: 64-bit Data Rate: 6400 MT/s
CPU 0 runs ./micro_traces/srv674.trace.gz
.gz
ITLB has LRU replacement policy
DTLB has LRU replacement policy
STLB has LRU replacement policy
FDIP Prefetcher at L1I
L1I has LRU replacement policy
L1D has LRU replacement policy
Initialize SRRIP state for L2C
Initialize DRRIP state for LLC
Heartbeat CPU 0 instructions: 10000003 cycles: 2797539 heartbeat IPC: 3.57457 cumulative IPC: 3.57457 (Simulation time: 0 hr 2 min 23 sec) 
Heartbeat CPU 0 instructions: 20000000 cycles: 5594713 heartbeat IPC: 3.57504 cumulative IPC: 3.5748 (Simulation time: 0 hr 4 min 17 sec) 
Heartbeat CPU 0 instructions: 30000001 cycles: 8391354 heartbeat IPC: 3.57572 cumulative IPC: 3.57511 (Simulation time: 0 hr 6 min 3 sec) 
Heartbeat CPU 0 instructions: 40000000 cycles: 11187737 heartbeat IPC: 3.57605 cumulative IPC: 3.57534 (Simulation time: 0 hr 7 min 54 sec) 
Heartbeat CPU 0 instructions: 50000000 cycles: 13984882 heartbeat IPC: 3.57507 cumulative IPC: 3.57529 (Simulation time: 0 hr 9 min 51 sec) 

Warmup complete CPU 0 instructions: 50000004 cycles: 13984883 (Simulation time: 0 hr 9 min 51 sec) 

Cycle: 20000000 FTQ IN: 58512416 FTQ occupancy: 21.5193 DECODE IN: 58512279 DECODE occupancy: 55.2495 ROB IN: 58512219 ROB occupancy: 324.919 ROB OUT: 58511871
Heartbeat CPU 0 instructions: 60000001 cycles: 21035935 heartbeat IPC: 1.41823 cumulative IPC: 1.41823 (Simulation time: 0 hr 12 min 24 sec) 
Heartbeat CPU 0 instructions: 70000002 cycles: 28204838 heartbeat IPC: 1.39491 cumulative IPC: 1.40647 (Simulation time: 0 hr 15 min 3 sec) 
Cycle: 30000000 FTQ IN: 14073771 FTQ occupancy: 17.6241 DECODE IN: 14073821 DECODE occupancy: 42.9856 ROB IN: 14073821 ROB occupancy: 263.57 ROB OUT: 14073818
Heartbeat CPU 0 instructions: 80000003 cycles: 35162784 heartbeat IPC: 1.43721 cumulative IPC: 1.41657 (Simulation time: 0 hr 17 min 37 sec) 
Cycle: 40000000 FTQ IN: 14241050 FTQ occupancy: 18.0826 DECODE IN: 14240989 DECODE occupancy: 44.141 ROB IN: 14240989 ROB occupancy: 270.471 ROB OUT: 14240988
Heartbeat CPU 0 instructions: 90000000 cycles: 42244345 heartbeat IPC: 1.41212 cumulative IPC: 1.41545 (Simulation time: 0 hr 19 min 54 sec) 
Heartbeat CPU 0 instructions: 100000003 cycles: 49178808 heartbeat IPC: 1.44207 cumulative IPC: 1.4207 (Simulation time: 0 hr 22 min 26 sec) 
Finished CPU 0 instructions: 50000003 cycles: 35193926 cumulative IPC: 1.4207 (Simulation time: 0 hr 22 min 26 sec) 

ChampSim completed all CPUs

Region of Interest Statistics

CPU 0 cumulative IPC: 1.4207 instructions: 50000003 cycles: 35193926
 Fetch stage stalled: 24.0944  Sim cycles: 35193926 fetch stall cycle: 8479777
 Empty decode stage: 12.9174  Sim cycles: 35193926 fetch stall cycle: 4546148
ITLB TOTAL     ACCESS:    5938328  HIT:    5449353  MISS:     488975  HIT %:    91.7658  MISS %:    8.23422   MPKI: 9.7795
ITLB LOAD TRANSLATION INSTRUCTION	ACCESS:    5782662  HIT:    5293687  MISS:     488975  HIT %:    91.5441  MISS %:    8.45588  MPKI: 9.7795
ITLB TRANSLATION FROM L1D PREFETCHER INSTRUCTION	ACCESS:     155666  HIT:     155666  MISS:          0  HIT %:        100  MISS %:          0  MPKI: 0

ITLB AVERAGE MISS LATENCY: 9.0637 cycles
ITLB RQ	ACCESS:    7916452	FORWARD:          0	MERGED:    1438402	TO_CACHE:    6478050

DTLB TOTAL     ACCESS:    8949623  HIT:    8478462  MISS:     471161  HIT %:    94.7354  MISS %:    5.26459   MPKI: 9.42322
DTLB LOAD TRANSLATION DATA	ACCESS:    8949623  HIT:    8478462  MISS:     471161  HIT %:    94.7354  MISS %:    5.26459  MPKI: 9.42322

DTLB AVERAGE MISS LATENCY: 9.34319 cycles
DTLB RQ	ACCESS:   13317954	FORWARD:          0	MERGED:    4331072	TO_CACHE:    8986882

STLB TOTAL     ACCESS:    1212846  HIT:    1210804  MISS:       2042  HIT %:    99.8316  MISS %:   0.168364   MPKI: 0.04084
STLB LOAD TRANSLATION INSTRUCTION	ACCESS:     488975  HIT:     488746  MISS:        229  HIT %:    99.9532  MISS %:  0.0468327  MPKI: 0.00458
STLB LOAD TRANSLATION DATA	ACCESS:     471161  HIT:     469368  MISS:       1793  HIT %:    99.6195  MISS %:   0.380549  MPKI: 0.03586
STLB TRANSLATION FROM L1D PREFETCHER DATA	ACCESS:     252710  HIT:     252690  MISS:         20  HIT %:    99.9921  MISS %: 0.00791421  MPKI: 0.0004

STLB AVERAGE MISS LATENCY: 80.1523 cycles
STLB RQ	ACCESS:    1334926	FORWARD:          0	MERGED:     122034	TO_CACHE:    1212892

STLB Hit, L1D data hit: 0
STLB Hit, L2C data hit: 0
STLB Hit, LLC data hit: 0
STLB Hit, LLC data miss: 0
STLB STLB hints to L2: 0
L1D TOTAL     ACCESS:   13075548  HIT:   11967843  MISS:    1107705  HIT %:    91.5284  MISS %:    8.47158   MPKI: 22.1541
L1D LOAD DATA	ACCESS:    6544136  HIT:    5815880  MISS:     728256  HIT %:    88.8716  MISS %:    11.1284  MPKI: 14.5651
L1D RFO DATA	ACCESS:    6197343  HIT:    5912774  MISS:     284569  HIT %:    95.4082  MISS %:    4.59179  MPKI: 5.69138
L1D PREFETCH DATA	ACCESS:     334069  HIT:     239189  MISS:      94880  HIT %:    71.5987  MISS %:    28.4013  MPKI: 1.8976

L1D PREFETCH  REQUESTED:     749943  ISSUED:     749943  USEFUL:      33770  USELESS:      69052
L1D USEFUL LOAD PREFETCHES:      33770 PREFETCH ISSUED TO LOWER LEVEL:     102920  ACCURACY: 32.8119
 TIMELY PREFETCHES:      33770 LATE PREFETCHES: 7972 DROPPED PREFETCHES: 5
L1D AVERAGE MISS LATENCY: 225107 cycles
L1D RQ	ACCESS:   10692882	FORWARD:          0	MERGED:    3952573	TO_CACHE:    6578053
L1D WQ	ACCESS:    6936973	FORWARD:     162619	MERGED:     197072	TO_CACHE:    6739901
L1D PQ	ACCESS:     375153	FORWARD:          0	MERGED:          0	TO_CACHE:     374790

L1D UNIQUE REGIONS ACCESSED: 0
L1D REGIONS CONFLICTS: 0
L1D Cross Page Prefetch Requests: 7007
L1D Same Page Prefetch Requests: 755992
L1D ROI Sum of L1D PQ occupancy: 4770096
L1D PREFETCHES PUSHED FROM L2C: 0
L1I TOTAL     ACCESS:    7107209  HIT:    4363210  MISS:    2743999  HIT %:    61.3913  MISS %:    38.6087   MPKI: 54.88
L1I LOAD INSTRUCTION	ACCESS:    6423700  HIT:    3679701  MISS:    2743999  HIT %:    57.2832  MISS %:    42.7168  MPKI: 54.88
L1I PREFETCH INSTRUCTION	ACCESS:     683509  HIT:     683509  MISS:          0  HIT %:        100  MISS %:          0  MPKI: 0

L1I PREFETCH  REQUESTED:    1674363  ISSUED:    1674363  USEFUL:          0  USELESS:          0
L1I USEFUL LOAD PREFETCHES:          0 PREFETCH ISSUED TO LOWER LEVEL:          0  ACCURACY: -nan
 TIMELY PREFETCHES:          0 LATE PREFETCHES: 0 DROPPED PREFETCHES: 0
L1I AVERAGE MISS LATENCY: 17.4682 cycles
L1I RQ	ACCESS:    9828345	FORWARD:          0	MERGED:    3152041	TO_CACHE:    6676304
L1I PQ	ACCESS:    1674363	FORWARD:          0	MERGED:     434215	TO_CACHE:    1240148

L1BTB TOTAL     ACCESS:    5363381  HIT:    5330647  MISS:      32734  HIT %:    99.3897  MISS %:   0.610324   MPKI: 0.65468
L1BTB BRANCH_DIRECT_JUMP	ACCESS:     549503  HIT:     549503  MISS:          0	AVERAGE STALL: -nan
L1BTB BRANCH_INDIRECT	ACCESS:     183944  HIT:     171048  MISS:      12896	AVERAGE STALL: 130.368
L1BTB BRANCH_CONDITIONAL	ACCESS:    2412961  HIT:    2412961  MISS:          0	AVERAGE STALL: -nan
L1BTB BRANCH_DIRECT_CALL	ACCESS:     938188  HIT:     938188  MISS:          0	AVERAGE STALL: -nan
L1BTB BRANCH_INDIRECT_CALL	ACCESS:     170287  HIT:     150449  MISS:      19838	AVERAGE STALL: 163.962
L1BTB BRANCH_RETURN	ACCESS:    1108498  HIT:    1108498  MISS:          0	AVERAGE STALL: -nan
L1BTB BRANCH_OTHER ACCESS:          0  HIT:          0  MISS:          0	AVERAGE STALL: -nan
L1BTB TOTAL ROB OCCUPANCY AT BTB MISS: 127.86

L2BTB BRANCH_DIRECT_JUMP	ACCESS:          0  HIT:          0  MISS:          0	AVERAGE STALL: -nan
L2BTB BRANCH_INDIRECT	ACCESS:          0  HIT:          0  MISS:          0	AVERAGE STALL: 130.368
L2BTB BRANCH_CONDITIONAL	ACCESS:          0  HIT:          0  MISS:          0	AVERAGE STALL: -nan
L2BTB BRANCH_DIRECT_CALL	ACCESS:          0  HIT:          0  MISS:          0	AVERAGE STALL: -nan
L2BTB BRANCH_INDIRECT_CALL	ACCESS:          0  HIT:          0  MISS:          0	AVERAGE STALL: 163.962
L2BTB BRANCH_RETURN	ACCESS:          0  HIT:          0  MISS:          0	AVERAGE STALL: -nan
L2BTB BRANCH_OTHER ACCESS:          0  HIT:          0  MISS:          0	AVERAGE STALL: -nan
L2BTB TOTAL ROB OCCUPANCY AT BTB MISS: inf

L2C TOTAL     ACCESS:    4452516  HIT:    3960871  MISS:     491645  HIT %:     88.958  MISS %:     11.042   MPKI: 9.8329
L2C LOAD INSTRUCTION	ACCESS:    2743999  HIT:    2477142  MISS:     266857  HIT %:    90.2749  MISS %:    9.72511  MPKI: 5.33714
L2C LOAD TRANSLATION INSTRUCTION	ACCESS:        273  HIT:         77  MISS:        196  HIT %:    28.2051  MISS %:    71.7949  MPKI: 0.00392
L2C LOAD DATA	ACCESS:     720232  HIT:     640134  MISS:      80098  HIT %:    88.8789  MISS %:    11.1211  MPKI: 1.60196
L2C RFO DATA	ACCESS:     284467  HIT:     233793  MISS:      50674  HIT %:    82.1863  MISS %:    17.8137  MPKI: 1.01348
L2C PREFETCH DATA	ACCESS:     184483  HIT:     107548  MISS:      76935  HIT %:     58.297  MISS %:     41.703  MPKI: 1.5387
L2C WRITEBACK DATA	ACCESS:     517131  HIT:     501538  MISS:      15593  HIT %:    96.9847  MISS %:    3.01529  MPKI: 0.31186
L2C LOAD TRANSLATION DATA	ACCESS:       1887  HIT:        615  MISS:       1272  HIT %:    32.5914  MISS %:    67.4086  MPKI: 0.02544
L2C TRANSLATION FROM L1D PREFETCHER DATA	ACCESS:         44  HIT:         24  MISS:         20  HIT %:    54.5455  MISS %:    45.4545  MPKI: 0.0004

L2C PREFETCH  REQUESTED:      89928  ISSUED:      89928  USEFUL:       8200  USELESS:      69358
L2C USEFUL LOAD PREFETCHES:       8200 PREFETCH ISSUED TO LOWER LEVEL:      77524  ACCURACY: 10.5774
 TIMELY PREFETCHES:       8200 LATE PREFETCHES: 589 DROPPED PREFETCHES: 0
L2C AVERAGE MISS LATENCY: 38.7672 cycles
L2C RQ	ACCESS:    3750988	FORWARD:          0	MERGED:          0	TO_CACHE:    3750902
L2C WQ	ACCESS:     517131	FORWARD:         86	MERGED:          0	TO_CACHE:     517131
L2C PQ	ACCESS:     192848	FORWARD:          0	MERGED:       3227	TO_CACHE:     189621

L2C Dense regions hint from L2: 0
PSCL5 TOTAL     ACCESS:       4104  HIT:       2052  MISS:       2052  HIT %:         50  MISS %:         50   MPKI: 0.04104
PSCL5 LOAD TRANSLATION INSTRUCTION	ACCESS:       4018  HIT:       2009  MISS:       2009  HIT %:         50  MISS %:         50  MPKI: 0.04018
PSCL5 TRANSLATION FROM L1D PREFETCHER INSTRUCTION	ACCESS:         86  HIT:         43  MISS:         43  HIT %:         50  MISS %:         50  MPKI: 0.00086


PSCL4 TOTAL     ACCESS:       3963  HIT:       1975  MISS:       1988  HIT %:     49.836  MISS %:     50.164   MPKI: 0.03976
PSCL4 LOAD TRANSLATION INSTRUCTION	ACCESS:       2051  HIT:       1932  MISS:        119  HIT %:     94.198  MISS %:    5.80205  MPKI: 0.00238
PSCL4 TRANSLATION FROM L1D PREFETCHER INSTRUCTION	ACCESS:         44  HIT:         43  MISS:          1  HIT %:    97.7273  MISS %:    2.27273  MPKI: 2e-05
PSCL4 LOAD TRANSLATION DATA	ACCESS:       1826  HIT:          0  MISS:       1826  HIT %:          0  MISS %:        100  MPKI: 0.03652
PSCL4 TRANSLATION FROM L1D PREFETCHER DATA	ACCESS:         42  HIT:          0  MISS:         42  HIT %:          0  MISS %:        100  MPKI: 0.00084


PSCL3 TOTAL     ACCESS:       4053  HIT:       2020  MISS:       2033  HIT %:    49.8396  MISS %:    50.1604   MPKI: 0.04066
PSCL3 LOAD TRANSLATION INSTRUCTION	ACCESS:       2096  HIT:       1977  MISS:        119  HIT %:    94.3225  MISS %:    5.67748  MPKI: 0.00238
PSCL3 TRANSLATION FROM L1D PREFETCHER INSTRUCTION	ACCESS:         44  HIT:         43  MISS:          1  HIT %:    97.7273  MISS %:    2.27273  MPKI: 2e-05
PSCL3 LOAD TRANSLATION DATA	ACCESS:       1871  HIT:          0  MISS:       1871  HIT %:          0  MISS %:        100  MPKI: 0.03742
PSCL3 TRANSLATION FROM L1D PREFETCHER DATA	ACCESS:         42  HIT:          0  MISS:         42  HIT %:          0  MISS %:        100  MPKI: 0.00084


PSCL2 TOTAL     ACCESS:       3972  HIT:       1921  MISS:       2051  HIT %:    48.3635  MISS %:    51.6365   MPKI: 0.04102
PSCL2 LOAD TRANSLATION INSTRUCTION	ACCESS:       2123  HIT:       1879  MISS:        244  HIT %:    88.5068  MISS %:    11.4932  MPKI: 0.00488
PSCL2 TRANSLATION FROM L1D PREFETCHER INSTRUCTION	ACCESS:         42  HIT:         42  MISS:          0  HIT %:        100  MISS %:          0  MPKI: 0
PSCL2 LOAD TRANSLATION DATA	ACCESS:       1765  HIT:          0  MISS:       1765  HIT %:          0  MISS %:        100  MPKI: 0.0353
PSCL2 TRANSLATION FROM L1D PREFETCHER DATA	ACCESS:         42  HIT:          0  MISS:         42  HIT %:          0  MISS %:        100  MPKI: 0.00084


LLC TOTAL     ACCESS:     550376  HIT:     519892  MISS:      30484  HIT %:    94.4612  MISS %:    5.53876   MPKI: 0.60968
LLC LOAD INSTRUCTION	ACCESS:     266857  HIT:     265565  MISS:       1292  HIT %:    99.5158  MISS %:   0.484154  MPKI: 0.02584
LLC LOAD TRANSLATION INSTRUCTION	ACCESS:        196  HIT:        154  MISS:         42  HIT %:    78.5714  MISS %:    21.4286  MPKI: 0.00084
LLC LOAD DATA	ACCESS:      79540  HIT:      75786  MISS:       3754  HIT %:    95.2804  MISS %:    4.71964  MPKI: 0.07508
LLC RFO DATA	ACCESS:      50637  HIT:      35850  MISS:      14787  HIT %:     70.798  MISS %:     29.202  MPKI: 0.29574
LLC PREFETCH DATA	ACCESS:      77523  HIT:      67399  MISS:      10124  HIT %:    86.9406  MISS %:    13.0594  MPKI: 0.20248
LLC WRITEBACK DATA	ACCESS:      74331  HIT:      73970  MISS:        361  HIT %:    99.5143  MISS %:   0.485665  MPKI: 0.00722
LLC LOAD TRANSLATION DATA	ACCESS:       1272  HIT:       1148  MISS:        124  HIT %:    90.2516  MISS %:    9.74843  MPKI: 0.00248
LLC TRANSLATION FROM L1D PREFETCHER DATA	ACCESS:         20  HIT:         20  MISS:          0  HIT %:        100  MISS %:          0  MPKI: 0

LLC AVERAGE MISS LATENCY: 155.242 cycles
LLC RQ	ACCESS:     398528	FORWARD:          0	MERGED:          0	TO_CACHE:     398522
LLC WQ	ACCESS:      74331	FORWARD:          7	MERGED:          0	TO_CACHE:      74331
LLC PQ	ACCESS:      77524	FORWARD:          0	MERGED:          0	TO_CACHE:      77523

LLC Dense regions hint to LLC: 0

RAW hits: 1944284
Loads Generated: 12637166
Loads sent to L1D: 10692882
Stores Generated: 6936960
Stores sent to L1D: 6936973
Major fault: 0 Minor fault: 2611
Allocated PAGES: 2611

stream: 
stream:times selected: 1199557
stream:pref_filled: 122599
stream:pref_useful: 23805
stream:pref_late: 7351
stream:misses: 7976
stream:misses_by_poll: 0

CS: 
CS:times selected: 178236
CS:pref_filled: 59572
CS:pref_useful: 36109
CS:pref_late: 6885
CS:misses: 15763
CS:misses_by_poll: 12

CPLX: 
CPLX:times selected: 1020196
CPLX:pref_filled: 19443
CPLX:pref_useful: 4399
CPLX:pref_late: 3257
CPLX:misses: 92587
CPLX:misses_by_poll: 0

NL_L1: 
NL:times selected: 21362
NL:pref_filled: 610
NL:pref_useful: 243
NL:pref_late: 403
NL:misses: 1801
NL:misses_by_poll: 0

total selections: 2419351
total_filled: 94880
total_useful: 33770
total_late: 19061
total_polluted: 12
total_misses_after_warmup: 762175
conflicts: 5504963

test: 120971

DRAM Statistics
 CHANNEL 0
 RQ ROW_BUFFER_HIT:      11230  ROW_BUFFER_MISS:      18889
 DBUS_CONGESTED:         10
 WQ ROW_BUFFER_HIT:       1603  ROW_BUFFER_MISS:      12914  FULL:          0

 AVG_CONGESTED_CYCLE: 6

CPU 0 Branch Prediction Accuracy: 99.8083% MPKI: 0.35044 Average ROB Occupancy at Mispredict: 176.803
Branch types
NOT_BRANCH: 40861461 81.7229%
BRANCH_DIRECT_JUMP: 549503 1.09901%
BRANCH_INDIRECT: 183944 0.367888%
BRANCH_CONDITIONAL: 6187665 12.3753%
BRANCH_DIRECT_CALL: 938188 1.87638%
BRANCH_INDIRECT_CALL: 170287 0.340574%
BRANCH_RETURN: 1108498 2.217%
BRANCH_OTHER: 0 0%

DRAM PAGES: 1048576
Allocated PAGES: 2611
Average_ROB_Occupancy: 269.298
Average_Decode_Occupancy: 43.7976
Average_FTQ_Occupancy: 17.9249
Indirect max targets: 14 Average targets: 1.17834
Branch_type:  BRANCH_DIRECT_JUMP:  Count Percentage: 3.29439 5.64831 2.73342 9.73642 1.9817 6.296 1.31561 68.9941 
Branch_type:  BRANCH_INDIRECT:  Count Percentage: 11.7436 3.4653 1.22654 8.11874 3.2646 1.20802 10.7445 60.2287 
Branch_type:  BRANCH_CONDITIONAL:  Count Percentage: 22.3296 2.24288 2.18205 5.50569 1.27634 4.55391 1.43455 60.475 
Branch_type:  BRANCH_DIRECT_CALL:  Count Percentage: 0.264666 1.71636 1.29068 5.19648 2.18486 2.9754 0.864252 85.5073 
Branch_type:  BRANCH_INDIRECT_CALL:  Count Percentage: 9.55137 0.594835 2.99176 4.86862 0 3.85485 0 78.1386 
Branch_type:  BRANCH_RETURN:  Count Percentage: 3.66404 1.25068 1.05806 6.75108 3.18054 5.45093 2.95152 75.6931 
Branch_type:  BRANCH_DIRECT_JUMP:  Total Count: 36164 62004 30006 106881 21754 69114 14442 757379 
Branch_type:  BRANCH_INDIRECT:  Total Count: 43124 12725 4504 29813 11988 4436 39455 221167 
Branch_type:  BRANCH_CONDITIONAL:  Total Count: 2761413 277368 269845 680866 157840 563163 177405 7478691 
Branch_type:  BRANCH_DIRECT_CALL:  Total Count: 4969 32224 24232 97562 41020 55862 16226 1605367 
Branch_type:  BRANCH_INDIRECT_CALL:  Total Count: 32580 2029 10205 16607 0 13149 0 266533 
Branch_type:  BRANCH_RETURN:  Total Count: 81321 27758 23483 149836 70590 120980 65507 1679961 
Number of unique branch instructions: 10838
Upper 32 bits: 
aaaa
ffff
ffff0000
Unique upper 32 bits: 3
Unique upper 36 bits: 3
Unique upper 40 bits: 5
Unique upper 44 bits: 32
Unique upper 48 bits: 157
Offset_3 4494
Offset_4 258
Offset_5 484
Offset_6 547
Offset_7 640
Offset_8 587
Offset_9 517
Offset_10 431
Offset_11 355
Offset_12 324
Offset_13 242
Offset_14 245
Offset_15 201
Offset_16 227
Offset_17 172
Offset_18 154
Offset_19 257
Offset_20 144
Offset_21 235
Offset_22 416
Offset_23 241
Offset_24 350
Offset_25 117
Offset_47 93
Offset_64 1
decode_dispatch_called: 27402701 77.862
Dispatch_width: 0 14936328 54.5068 42.4401
Dispatch_width: 1 1086085 3.96342 3.086
Dispatch_width: 2 858242 3.13196 2.43861
Dispatch_width: 3 497244 1.81458 1.41287
Dispatch_width: 4 7194870 26.2561 20.4435
Dispatch_width: 5 53660 0.19582 0.152469
Dispatch_width: 6 2776272 10.1314 7.8885
Empty_decode_cycles: 7791225 22.138
ROB_full_cycles: 11717829 33.295
Starvation_cycles_per_kilo_instr: 206.998
Starvation_cycles_per_kilo_instr_3: 134.513
Starvation_cycles_per_kilo_instr_0: 110.097
Branch_type_1  (3,1)  (4,7)  (5,38)  (6,75)  (7,125)  (8,150)  (9,136)  (10,113)  (11,80)  (12,55)  (13,11)  (14,2)  (15,3)  (16,4)  (18,1)  (19,5)  (20,2)  (21,1)  (22,3)  (23,2)  (24,10)  (25,12) 
Branch_type_2  (3,1)  (4,1)  (5,1)  (8,4)  (9,4)  (10,1)  (12,1)  (13,1)  (14,1)  (16,3)  (17,2)  (20,2)  (21,2)  (23,5)  (24,1)  (47,43) 
Branch_type_3  (3,4492)  (4,250)  (5,441)  (6,455)  (7,484)  (8,368)  (9,283)  (10,175)  (11,139)  (12,62)  (13,10)  (64,1) 
Branch_type_4  (6,4)  (7,8)  (8,26)  (9,55)  (10,67)  (11,70)  (12,115)  (13,103)  (14,111)  (15,96)  (16,100)  (17,81)  (18,67)  (19,124)  (20,73)  (21,124)  (22,222)  (23,136)  (24,206)  (25,101) 
Branch_type_5  (8,3)  (9,1)  (10,4)  (11,5)  (12,3)  (13,14)  (14,16)  (15,11)  (16,22)  (17,11)  (18,23)  (19,14)  (20,11)  (21,13)  (22,43)  (23,26)  (24,37) 
Branch_type_6  (5,4)  (6,13)  (7,23)  (8,36)  (9,38)  (10,71)  (11,61)  (12,88)  (13,103)  (14,115)  (15,91)  (16,98)  (17,78)  (18,63)  (19,114)  (20,56)  (21,95)  (22,148)  (23,72)  (24,96)  (25,4)  (47,50) 
Unique trigger count: 
BTB PER SET UNIQUE ADDR: 0 0 0 0 0 0 0 0 0 0 0 0 0 0 0 0 0 0 0 0 0 0 0 0 0 0 0 0 0 0 0 0 0 0 0 0 0 0 0 0 0 0 0 0 0 0 0 0 0 0 0 0 0 0 0 0 0 0 0 0 0 0 0 0 0 0 0 0 0 0 0 0 0 0 0 0 0 0 0 0 0 0 0 0 0 0 0 0 0 0 0 0 0 0 0 0 0 0 0 0 0 0 0 0 0 0 0 0 0 0 0 0 0 0 0 0 0 0 0 0 0 0 0 0 0 0 0 0 0 0 0 0 0 0 0 0 0 0 0 0 0 0 0 0 0 0 0 0 0 0 0 0 0 0 0 0 0 0 0 0 0 0 0 0 0 0 0 0 0 0 0 0 0 0 0 0 0 0 0 0 0 0 0 0 0 0 0 0 0 0 0 0 0 0 0 0 0 0 0 0 0 0 0 0 0 0 0 0 0 0 0 0 0 0 0 0 0 0 0 0 0 0 0 0 0 0 0 0 0 0 0 0 0 0 0 0 0 0 0 0 0 0 0 0 0 0 0 0 0 0 0 0 0 0 0 0 0 0 0 0 0 0 0 0 0 0 0 0 0 0 0 0 0 0 0 0 0 0 0 0 0 0 0 0 0 0 0 0 0 0 0 0 0 0 0 0 0 0 0 0 0 0 0 0 0 0 0 0 0 0 0 0 0 0 0 0 0 0 0 0 0 0 0 0 0 0 0 0 0 0 0 0 0 0 0 0 0 0 0 0 0 0 0 0 0 0 0 0 0 0 0 0 0 0 0 0 0 0 0 0 0 0 0 0 0 0 0 0 0 0 0 0 0 0 0 0 0 0 0 0 0 0 0 0 0 0 0 0 0 0 0 0 0 0 0 0 0 0 0 0 0 0 0 0 0 0 0 0 0 0 0 0 0 0 0 0 0 0 0 0 0 0 0 0 0 0 0 0 0 0 0 0 0 0 0 0 0 0 0 0 0 0 0 0 0 0 0 0 0 0 0 0 0 0 0 0 0 0 0 0 0 0 0 0 0 0 0 0 0 0 0 0 0 0 0 0 0 0 0 0 0 0 0 0 0 0 0 0 0 0 0 0 0 0 0 0 0 0 0 0 0 0 0 0 0 0 0 0 0 0 0 0 0 0 0 0 0 0 0 0 0 0 0 0 0 0 0 0 0 0 0 0 0 0 0 0 0 0 0 0 0 0 0 0 0 0 0 0 0 0 0 0 0 0 0 0 0 0 0 0 0 0 0 0 0 0 0 0 0 0 0 0 0 0 0 0 0 0 0 0 0 0 0 0 0 0 0 0 0 0 0 0 0 0 0 0 0 0 0 0 0 0 0 0 0 0 0 0 0 0 0 0 0 0 0 0 0 0 0 0 0 0 0 0 0 0 0 0 0 0 0 0 0 0 0 0 0 0 0 0 0 0 0 0 0 0 0 0 0 0 0 0 0 0 0 0 0 0 0 0 0 0 0 0 0 0 0 0 0 0 0 0 0 0 0 0 0 0 0 0 0 0 0 0 0 0 0 0 0 0 0 0 0 0 0 0 0 0 0 0 0 0 0 0 0 0 0 0 0 0 0 0 0 0 0 0 0 0 0 0 0 0 0 0 0 0 0 0 0 0 0 0 0 0 0 0 0 0 0 0 0 0 0 0 0 0 0 0 0 0 0 0 0 0 0 0 0 0 0 0 0 0 0 0 0 0 0 0 0 0 0 0 0 0 0 0 0 0 0 0 0 0 0 0 0 0 0 0 0 0 0 0 0 0 0 0 0 0 0 0 0 0 0 0 0 0 0 0 0 0 0 0 0 0 0 0 0 0 0 0 0 0 0 0 0 0 0 0 0 0 0 0 0 0 0 0 0 0 0 0 0 0 0 0 0 0 0 0 0 0 0 0 0 0 0 0 0 0 0 0 0 0 0 0 0 0 0 0 0 0 0 0 0 0 0 0 0 0 0 0 0 0 0 0 0 0 0 0 0 0 0 0 0 0 0 0 0 0 0 0 0 0 0 0 0 0 0 0 0 0 0 0 0 0 0 0 0 0 0 0 0 0 0 0 0 0 0 0 0 0 0 0 0 0 0 0 0 0 0 0 0 0 0 0 0 0 0 0 0 0 0 0 0 0 0 0 0 0 0 0 0 0 0 0 0 0 0 0 0 0 0 0 0 0 0 0 0 0 0 0 0 0 0 0 0 0 0 0 0 0 0 0 0 0 0 0 0 0 0 0 0 0 0 0 0 0 0 0 0 0 0 0 0 0 0 0 0 0 0 0 0 0 0 0 0 0 0 0 0 0 0 0 0 0 0 0 0 0 0 0 0 0 0 0 0 0 0 0 0 0 0 0 0 0 0 0 0 0 0 0 0 0 0 0 0 0 0 0 0 0 0 0 0 0 0 0 0 0 0 0 0 0 0 0 0 0 0 0 0 0 0 0 0 0 0 0 0 0 0 0 0 0 0 0 0 0 0 0 0 0 0 0 0 0 0 0 0 0 0 0 0 0 0 0 0 0 0 0 0 0 0 0 0 0 0 0 0 0 0 0 0 0 0 0 0 0 0 0 0 0 0 0 0 0 0 0 0 0 0 0 0 0 0 0 0 0 0 0 0 0 0 0 0 0 0 0 0 0 0 0 0 0 0 0 0 0 0 0 0 0 0 0 0 0 0 0 0 0 0 0 0 0 0 0 0 0 0 0 0 0 0 0 0 0 0 0 0 0 0 0 0 0 0 0 0 0 0 0 0 0 0 0 0 0 0 0 0 0 0 0 0 0 0 0 0 0 0 0 0 0 0 0 0 0 0 0 0 0 0 0 0 0 0 0 0 0 0 0 0 0 0 0 0 0 0 0 0 0 0 0 0 0 0 0 0 0 0 0 0 0 0 0 0 0 0 0 0 0 0 0 0 0 0 0 0 0 0 0 0 0 0 0 0 0 0 0 0 0 0 0 0 0 0 0 0 0 0 0 0 0 0 0 0 0 0 0 0 0 0 0 0 0 0 0 0 0 0 0 0 0 0 0 0 0 0 0 0 0 0 0 0 0 0 0 0 0 0 0 0 0 0 0 0 0 0 0 0 0 0 0 0 0 0 0 0 0 0 0 0 0 0 0 0 0 0 0 0 0 0 0 0 0 0 0 0 0 0 0 0 0 0 0 0 0 0 0 0 0 0 0 0 0 0 0 0 0 0 0 0 0 0 0 0 0 0 0 0 0 0 0 0 0 0 0 0 0 0 0 0 0 0 0 0 0 0 0 0 0 0 0 0 0 0 0 0 0 0 0 0 0 0 0 0 0 0 0 0 0 0 0 0 0 0 0 0 0 0 0 0 0 0 0 0 0 0 0 0 0 0 0 0 0 0 0 0 0 0 0 0 0 0 0 0 0 0 0 0 0 0 0 0 0 0 0 0 0 0 0 0 0 0 0 0 0 0 0 0 0 0 0 0 0 0 0 0 0 0 0 0 0 0 0 0 0 0 0 0 0 0 0 0 0 0 0 0 0 0 0 0 0 0 0 0 0 0 0 0 0 0 0 0 0 0 0 0 0 0 0 0 0 0 0 0 0 0 0 0 0 0 0 0 0 0 0 0 0 0 0 0 0 0 0 0 0 0 0 0 0 0 0 0 0 0 0 0 0 0 0 0 0 0 0 0 0 0 0 0 0 0 0 0 0 0 0 0 0 0 0 0 0 0 0 0 0 0 0 0 0 0 0 0 0 0 0 0 0 0 0 0 0 0 0 0 0 0 0 0 0 0 0 0 0 0 0 0 0 0 0 0 0 0 0 0 0 0 0 0 0 0 0 0 0 0 0 0 0 0 0 0 0 0 0 0 0 0 0 0 0 0 0 0 0 0 0 0 0 0 0 0 0 0 0 0 0 0 0 0 0 0 0 0 0 0 0 0 0 0 0 0 0 0 0 0 0 0 0 0 0 0 0 0 0 0 0 0 0 0 0 0 0 0 0 0 0 0 0 0 0 0 0 0 0 0 0 0 0 0 0 0 0 0 0 0 0 0 0 0 0 0 0 0 0 0 0 0 0 0 0 0 0 0 0 0 0 0 0 0 0 0 0 0 0 0 0 0 0 0 0 0 0 0 0 0 0 0 0 0 0 0 0 0 0 0 0 0 0 0 0 0 0 0 0 0 0 0 0 0 0 0 0 0 0 0 0 0 0 0 0 0 0 0 0 0 0 0 0 0 0 0 0 0 0 0 0 0 0 0 0 0 0 0 0 0 0 0 0 0 0 0 0 0 0 0 0 0 0 0 0 0 0 0 0 0 0 0 0 0 0 0 0 0 0 0 0 0 0 0 0 0 0 0 0 0 0 0 0 0 0 0 0 0 0 0 0 0 0 0 0 0 0 0 0 0 0 0 0 0 0 0 0 0 0 0 0 0 0 0 0 0 0 0 0 0 0 0 0 0 0 0 0 0 0 0 0 0 0 0 0 0 0 0 0 0 0 0 0 0 0 0 0 0 0 0 0 0 0 0 0 0 0 0 0 0 0 0 0 0 0 0 0 0 0 0 0 0 0 0 0 0 0 0 0 0 0 0 0 0 0 0 0 0 0 0 0 0 0 0 0 
BTB PER SET COUNT: 0 0 0 0 0 0 0 0 0 0 0 0 0 0 0 0 0 0 0 0 0 0 0 0 0 0 0 0 0 0 0 0 0 0 0 0 0 0 0 0 0 0 0 0 0 0 0 0 0 0 0 0 0 0 0 0 0 0 0 0 0 0 0 0 0 0 0 0 0 0 0 0 0 0 0 0 0 0 0 0 0 0 0 0 0 0 0 0 0 0 0 0 0 0 0 0 0 0 0 0 0 0 0 0 0 0 0 0 0 0 0 0 0 0 0 0 0 0 0 0 0 0 0 0 0 0 0 0 0 0 0 0 0 0 0 0 0 0 0 0 0 0 0 0 0 0 0 0 0 0 0 0 0 0 0 0 0 0 0 0 0 0 0 0 0 0 0 0 0 0 0 0 0 0 0 0 0 0 0 0 0 0 0 0 0 0 0 0 0 0 0 0 0 0 0 0 0 0 0 0 0 0 0 0 0 0 0 0 0 0 0 0 0 0 0 0 0 0 0 0 0 0 0 0 0 0 0 0 0 0 0 0 0 0 0 0 0 0 0 0 0 0 0 0 0 0 0 0 0 0 0 0 0 0 0 0 0 0 0 0 0 0 0 0 0 0 0 0 0 0 0 0 0 0 0 0 0 0 0 0 0 0 0 0 0 0 0 0 0 0 0 0 0 0 0 0 0 0 0 0 0 0 0 0 0 0 0 0 0 0 0 0 0 0 0 0 0 0 0 0 0 0 0 0 0 0 0 0 0 0 0 0 0 0 0 0 0 0 0 0 0 0 0 0 0 0 0 0 0 0 0 0 0 0 0 0 0 0 0 0 0 0 0 0 0 0 0 0 0 0 0 0 0 0 0 0 0 0 0 0 0 0 0 0 0 0 0 0 0 0 0 0 0 0 0 0 0 0 0 0 0 0 0 0 0 0 0 0 0 0 0 0 0 0 0 0 0 0 0 0 0 0 0 0 0 0 0 0 0 0 0 0 0 0 0 0 0 0 0 0 0 0 0 0 0 0 0 0 0 0 0 0 0 0 0 0 0 0 0 0 0 0 0 0 0 0 0 0 0 0 0 0 0 0 0 0 0 0 0 0 0 0 0 0 0 0 0 0 0 0 0 0 0 0 0 0 0 0 0 0 0 0 0 0 0 0 0 0 0 0 0 0 0 0 0 0 0 0 0 0 0 0 0 0 0 0 0 0 0 0 0 0 0 0 0 0 0 0 0 0 0 0 0 0 0 0 0 0 0 0 0 0 0 0 0 0 0 0 0 0 0 0 0 0 0 0 0 0 0 0 0 0 0 0 0 0 0 0 0 0 0 0 0 0 0 0 0 0 0 0 0 0 0 0 0 0 0 0 0 0 0 0 0 0 0 0 0 0 0 0 0 0 0 0 0 0 0 0 0 0 0 0 0 0 0 0 0 0 0 0 0 0 0 0 0 0 0 0 0 0 0 0 0 0 0 0 0 0 0 0 0 0 0 0 0 0 0 0 0 0 0 0 0 0 0 0 0 0 0 0 0 0 0 0 0 0 0 0 0 0 0 0 0 0 0 0 0 0 0 0 0 0 0 0 0 0 0 0 0 0 0 0 0 0 0 0 0 0 0 0 0 0 0 0 0 0 0 0 0 0 0 0 0 0 0 0 0 0 0 0 0 0 0 0 0 0 0 0 0 0 0 0 0 0 0 0 0 0 0 0 0 0 0 0 0 0 0 0 0 0 0 0 0 0 0 0 0 0 0 0 0 0 0 0 0 0 0 0 0 0 0 0 0 0 0 0 0 0 0 0 0 0 0 0 0 0 0 0 0 0 0 0 0 0 0 0 0 0 0 0 0 0 0 0 0 0 0 0 0 0 0 0 0 0 0 0 0 0 0 0 0 0 0 0 0 0 0 0 0 0 0 0 0 0 0 0 0 0 0 0 0 0 0 0 0 0 0 0 0 0 0 0 0 0 0 0 0 0 0 0 0 0 0 0 0 0 0 0 0 0 0 0 0 0 0 0 0 0 0 0 0 0 0 0 0 0 0 0 0 0 0 0 0 0 0 0 0 0 0 0 0 0 0 0 0 0 0 0 0 0 0 0 0 0 0 0 0 0 0 0 0 0 0 0 0 0 0 0 0 0 0 0 0 0 0 0 0 0 0 0 0 0 0 0 0 0 0 0 0 0 0 0 0 0 0 0 0 0 0 0 0 0 0 0 0 0 0 0 0 0 0 0 0 0 0 0 0 0 0 0 0 0 0 0 0 0 0 0 0 0 0 0 0 0 0 0 0 0 0 0 0 0 0 0 0 0 0 0 0 0 0 0 0 0 0 0 0 0 0 0 0 0 0 0 0 0 0 0 0 0 0 0 0 0 0 0 0 0 0 0 0 0 0 0 0 0 0 0 0 0 0 0 0 0 0 0 0 0 0 0 0 0 0 0 0 0 0 0 0 0 0 0 0 0 0 0 0 0 0 0 0 0 0 0 0 0 0 0 0 0 0 0 0 0 0 0 0 0 0 0 0 0 0 0 0 0 0 0 0 0 0 0 0 0 0 0 0 0 0 0 0 0 0 0 0 0 0 0 0 0 0 0 0 0 0 0 0 0 0 0 0 0 0 0 0 0 0 0 0 0 0 0 0 0 0 0 0 0 0 0 0 0 0 0 0 0 0 0 0 0 0 0 0 0 0 0 0 0 0 0 0 0 0 0 0 0 0 0 0 0 0 0 0 0 0 0 0 0 0 0 0 0 0 0 0 0 0 0 0 0 0 0 0 0 0 0 0 0 0 0 0 0 0 0 0 0 0 0 0 0 0 0 0 0 0 0 0 0 0 0 0 0 0 0 0 0 0 0 0 0 0 0 0 0 0 0 0 0 0 0 0 0 0 0 0 0 0 0 0 0 0 0 0 0 0 0 0 0 0 0 0 0 0 0 0 0 0 0 0 0 0 0 0 0 0 0 0 0 0 0 0 0 0 0 0 0 0 0 0 0 0 0 0 0 0 0 0 0 0 0 0 0 0 0 0 0 0 0 0 0 0 0 0 0 0 0 0 0 0 0 0 0 0 0 0 0 0 0 0 0 0 0 0 0 0 0 0 0 0 0 0 0 0 0 0 0 0 0 0 0 0 0 0 0 0 0 0 0 0 0 0 0 0 0 0 0 0 0 0 0 0 0 0 0 0 0 0 0 0 0 0 0 0 0 0 0 0 0 0 0 0 0 0 0 0 0 0 0 0 0 0 0 0 0 0 0 0 0 0 0 0 0 0 0 0 0 0 0 0 0 0 0 0 0 0 0 0 0 0 0 0 0 0 0 0 0 0 0 0 0 0 0 0 0 0 0 0 0 0 0 0 0 0 0 0 0 0 0 0 0 0 0 0 0 0 0 0 0 0 0 0 0 0 0 0 0 0 0 0 0 0 0 0 0 0 0 0 0 0 0 0 0 0 0 0 0 0 0 0 0 0 0 0 0 0 0 0 0 0 0 0 0 0 0 0 0 0 0 0 0 0 0 0 0 0 0 0 0 0 0 0 0 0 0 0 0 0 0 0 0 0 0 0 0 0 0 0 0 0 0 0 0 0 0 0 0 0 0 0 0 0 0 0 0 0 0 0 0 0 0 0 0 0 0 0 0 0 0 0 0 0 0 0 0 0 0 0 0 0 0 0 0 0 0 0 0 0 0 0 0 0 0 0 0 0 0 0 0 0 0 0 0 0 0 0 0 0 0 0 0 0 0 0 0 0 0 0 0 0 0 0 0 0 0 0 0 0 0 0 0 0 0 0 0 0 0 0 0 0 0 0 0 0 0 0 0 0 0 0 0 0 0 0 0 0 0 0 0 0 0 0 0 0 0 0 0 0 0 0 0 0 0 0 0 0 0 0 0 0 0 0 0 0 0 0 0 0 0 0 0 0 0 0 0 0 0 0 0 0 0 0 0 0 0 0 0 0 0 0 0 0 0 0 0 0 0 0 0 0 0 0 0 0 0 0 0 0 0 0 0 0 0 0 0 0 0 0 0 0 0 0 0 0 0 0 0 0 0 0 0 0 0 0 0 0 0 0 0 0 0 0 0 0 0 0 0 0 0 0 0 0 0 0 0 0 0 0 0 0 0 0 0 0 0 0 0 0 0 0 0 0 0 0 0 0 0 0 0 0 0 0 0 0 0 0 0 0 0 0 0 0 0 0 0 0 0 0 0 0 0 0 0 0 0 0 0 0 0 0 0 0 0 0 0 0 0 0 0 0 0 0 0 0 0 0 0 0 0 0 0 0 0 0 0 0 0 0 0 0 0 0 0 0 0 0 0 0 0 0 0 0 0 0 0 0 0 0 0 0 0 0 0 0 0 0 0 0 0 0 0 0 0 0 0 0 0 0 0 0 0 0 0 0 0 0 0 0 0 0 0 0 0 0 0 0 0 0 0 0 0 0 0 0 0 0 0 0 0 0 0 0 0 0 0 0 0 0 0 0 0 0 0 0 0 0 0 0 0 0 0 0 0 0 0 0 0 0 0 0 0 0 0 0 0 0 0 0 0 0 0 0 0 0 0 0 0 0 0 0 0 0 0 0 0 0 0 0 0 0 0 0 0 0 0 0 0 0 0 0 0 0 0 0 0 0 0 0 0 
