
*** ChampSim Multicore Out-of-Order Simulator ***

Warmup Instructions: 50000000
Simulation Instructions: 50000000
Number of CPUs: 1
LLC sets: 2048
LLC ways: 16
Off-chip DRAM Size: 4096 MB Channels: 1 Width: 64-bit Data Rate: 6400 MT/s
CPU 0 runs ./micro_traces/srv603.trace.gz
.gz
ITLB has LRU replacement policy
DTLB has LRU replacement policy
STLB has LRU replacement policy
L1I has LRU replacement policy
L1D has LRU replacement policy
Initialize SRRIP state for L2C
Initialize DRRIP state for LLC
Heartbeat_Variant_0 : 1320 0.322266 per_variant_size: 0 1320 0 0 0 0 0 0 0 
Heartbeat_Variant_1 : 1204 0.293945 per_variant_size: 0 581 623 0 0 0 0 0 0 
Heartbeat_Variant_2 : 1292 0.31543 per_variant_size: 0 515 368 224 185 0 0 0 0 
Heartbeat_Variant_3 : 0 0 per_variant_size: 0 0 0 0 0 0 0 0 0 
Heartbeat_Variant_0_evicts 0 : 5777 1 : 219 2 : 249 3 : 0 
Heartbeat_Variant_1_evicts 0 : 215 1 : 0 2 : 436 3 : 0 
Heartbeat_Variant_2_evicts 0 : 231 1 : 424 2 : 0 3 : 0 
Heartbeat_Variant_3_evicts 0 : 0 1 : 0 2 : 0 3 : 0 
Heartbeat CPU 0 instructions: 10000000 cycles: 2796031 heartbeat IPC: 3.5765 cumulative IPC: 3.5765 (Simulation time: 0 hr 1 min 13 sec) 
Heartbeat_Variant_0 : 1324 0.323242 per_variant_size: 0 1324 0 0 0 0 0 0 0 
Heartbeat_Variant_1 : 1208 0.294922 per_variant_size: 0 581 627 0 0 0 0 0 0 
Heartbeat_Variant_2 : 1293 0.315674 per_variant_size: 0 512 372 217 192 0 0 0 0 
Heartbeat_Variant_3 : 0 0 per_variant_size: 0 0 0 0 0 0 0 0 0 
Heartbeat_Variant_0_evicts 0 : 5595 1 : 22 2 : 25 3 : 0 
Heartbeat_Variant_1_evicts 0 : 19 1 : 0 2 : 212 3 : 0 
Heartbeat_Variant_2_evicts 0 : 27 1 : 209 2 : 0 3 : 0 
Heartbeat_Variant_3_evicts 0 : 0 1 : 0 2 : 0 3 : 0 
Heartbeat CPU 0 instructions: 20000003 cycles: 5591734 heartbeat IPC: 3.57692 cumulative IPC: 3.57671 (Simulation time: 0 hr 2 min 28 sec) 
Heartbeat_Variant_0 : 1360 0.332031 per_variant_size: 0 1360 0 0 0 0 0 0 0 
Heartbeat_Variant_1 : 1260 0.307617 per_variant_size: 0 578 682 0 0 0 0 0 0 
Heartbeat_Variant_2 : 1341 0.327393 per_variant_size: 0 518 372 233 218 0 0 0 0 
Heartbeat_Variant_3 : 0 0 per_variant_size: 0 0 0 0 0 0 0 0 0 
Heartbeat_Variant_0_evicts 0 : 5715 1 : 200 2 : 188 3 : 0 
Heartbeat_Variant_1_evicts 0 : 204 1 : 0 2 : 389 3 : 0 
Heartbeat_Variant_2_evicts 0 : 189 1 : 384 2 : 0 3 : 0 
Heartbeat_Variant_3_evicts 0 : 0 1 : 0 2 : 0 3 : 0 
Heartbeat CPU 0 instructions: 30000003 cycles: 8386721 heartbeat IPC: 3.57783 cumulative IPC: 3.57708 (Simulation time: 0 hr 3 min 41 sec) 
Heartbeat_Variant_0 : 1360 0.332031 per_variant_size: 0 1360 0 0 0 0 0 0 0 
Heartbeat_Variant_1 : 1266 0.309082 per_variant_size: 0 584 682 0 0 0 0 0 0 
Heartbeat_Variant_2 : 1347 0.328857 per_variant_size: 0 514 391 229 213 0 0 0 0 
Heartbeat_Variant_3 : 0 0 per_variant_size: 0 0 0 0 0 0 0 0 0 
Heartbeat_Variant_0_evicts 0 : 5615 1 : 66 2 : 50 3 : 0 
Heartbeat_Variant_1_evicts 0 : 63 1 : 0 2 : 271 3 : 0 
Heartbeat_Variant_2_evicts 0 : 54 1 : 268 2 : 0 3 : 0 
Heartbeat_Variant_3_evicts 0 : 0 1 : 0 2 : 0 3 : 0 
Heartbeat CPU 0 instructions: 40000002 cycles: 11182133 heartbeat IPC: 3.57729 cumulative IPC: 3.57714 (Simulation time: 0 hr 4 min 56 sec) 
Heartbeat_Variant_0 : 1366 0.333496 per_variant_size: 0 1366 0 0 0 0 0 0 0 
Heartbeat_Variant_1 : 1271 0.310303 per_variant_size: 0 588 683 0 0 0 0 0 0 
Heartbeat_Variant_2 : 1348 0.329102 per_variant_size: 0 511 385 235 217 0 0 0 0 
Heartbeat_Variant_3 : 0 0 per_variant_size: 0 0 0 0 0 0 0 0 0 
Heartbeat_Variant_0_evicts 0 : 5685 1 : 62 2 : 77 3 : 0 
Heartbeat_Variant_1_evicts 0 : 63 1 : 0 2 : 257 3 : 0 
Heartbeat_Variant_2_evicts 0 : 74 1 : 257 2 : 0 3 : 0 
Heartbeat_Variant_3_evicts 0 : 0 1 : 0 2 : 0 3 : 0 
Heartbeat CPU 0 instructions: 50000001 cycles: 13977044 heartbeat IPC: 3.57793 cumulative IPC: 3.57729 (Simulation time: 0 hr 6 min 13 sec) 

Warmup complete CPU 0 instructions: 50000001 cycles: 13977044 (Simulation time: 0 hr 6 min 13 sec) 

Cycle: 20000000 FTQ IN: 55348940 FTQ occupancy: 15.8943 DECODE IN: 55348922 DECODE occupancy: 9.52419 ROB IN: 55348910 ROB occupancy: 260.603 ROB OUT: 55348909
Heartbeat_Variant_0 : 1375 0.335693 per_variant_size: 0 1375 0 0 0 0 0 0 0 
Heartbeat_Variant_1 : 1263 0.30835 per_variant_size: 0 580 683 0 0 0 0 0 0 
Heartbeat_Variant_2 : 1356 0.331055 per_variant_size: 0 524 380 241 211 0 0 0 0 
Heartbeat_Variant_3 : 0 0 per_variant_size: 0 0 0 0 0 0 0 0 0 
Heartbeat_Variant_0_evicts 0 : 5653 1 : 54 2 : 67 3 : 0 
Heartbeat_Variant_1_evicts 0 : 49 1 : 0 2 : 239 3 : 0 
Heartbeat_Variant_2_evicts 0 : 65 1 : 244 2 : 0 3 : 0 
Heartbeat_Variant_3_evicts 0 : 0 1 : 0 2 : 0 3 : 0 
Heartbeat CPU 0 instructions: 60000001 cycles: 25087396 heartbeat IPC: 0.900061 cumulative IPC: 0.900061 (Simulation time: 0 hr 7 min 24 sec) 
Cycle: 30000000 FTQ IN: 9120025 FTQ occupancy: 14.8883 DECODE IN: 9120036 DECODE occupancy: 5.00067 ROB IN: 9120036 ROB occupancy: 54.6798 ROB OUT: 9120008
Heartbeat_Variant_0 : 1374 0.335449 per_variant_size: 0 1374 0 0 0 0 0 0 0 
Heartbeat_Variant_1 : 1269 0.309814 per_variant_size: 0 587 682 0 0 0 0 0 0 
Heartbeat_Variant_2 : 1352 0.330078 per_variant_size: 0 515 386 238 213 0 0 0 0 
Heartbeat_Variant_3 : 0 0 per_variant_size: 0 0 0 0 0 0 0 0 0 
Heartbeat_Variant_0_evicts 0 : 5496 1 : 14 2 : 10 3 : 0 
Heartbeat_Variant_1_evicts 0 : 16 1 : 0 2 : 201 3 : 0 
Heartbeat_Variant_2_evicts 0 : 9 1 : 198 2 : 0 3 : 0 
Heartbeat_Variant_3_evicts 0 : 0 1 : 0 2 : 0 3 : 0 
Heartbeat CPU 0 instructions: 70000003 cycles: 36094177 heartbeat IPC: 0.908531 cumulative IPC: 0.904276 (Simulation time: 0 hr 8 min 34 sec) 
Cycle: 40000000 FTQ IN: 8957866 FTQ occupancy: 14.9063 DECODE IN: 8957864 DECODE occupancy: 4.97582 ROB IN: 8957864 ROB occupancy: 56.42 ROB OUT: 8957862
Heartbeat_Variant_0 : 1375 0.335693 per_variant_size: 0 1375 0 0 0 0 0 0 0 
Heartbeat_Variant_1 : 1266 0.309082 per_variant_size: 0 581 685 0 0 0 0 0 0 
Heartbeat_Variant_2 : 1362 0.33252 per_variant_size: 0 530 388 229 215 0 0 0 0 
Heartbeat_Variant_3 : 0 0 per_variant_size: 0 0 0 0 0 0 0 0 0 
Heartbeat_Variant_0_evicts 0 : 5776 1 : 87 2 : 88 3 : 0 
Heartbeat_Variant_1_evicts 0 : 84 1 : 0 2 : 277 3 : 0 
Heartbeat_Variant_2_evicts 0 : 90 1 : 279 2 : 0 3 : 0 
Heartbeat_Variant_3_evicts 0 : 0 1 : 0 2 : 0 3 : 0 
Heartbeat CPU 0 instructions: 80000003 cycles: 47224591 heartbeat IPC: 0.898439 cumulative IPC: 0.902322 (Simulation time: 0 hr 9 min 47 sec) 
Cycle: 50000000 FTQ IN: 9113425 FTQ occupancy: 14.8887 DECODE IN: 9113426 DECODE occupancy: 4.99235 ROB IN: 9113426 ROB occupancy: 55.3158 ROB OUT: 9113429
Heartbeat_Variant_0 : 1380 0.336914 per_variant_size: 0 1380 0 0 0 0 0 0 0 
Heartbeat_Variant_1 : 1267 0.309326 per_variant_size: 0 578 689 0 0 0 0 0 0 
Heartbeat_Variant_2 : 1360 0.332031 per_variant_size: 0 528 381 232 219 0 0 0 0 
Heartbeat_Variant_3 : 0 0 per_variant_size: 0 0 0 0 0 0 0 0 0 
Heartbeat_Variant_0_evicts 0 : 5644 1 : 42 2 : 65 3 : 0 
Heartbeat_Variant_1_evicts 0 : 45 1 : 0 2 : 247 3 : 0 
Heartbeat_Variant_2_evicts 0 : 57 1 : 251 2 : 0 3 : 0 
Heartbeat_Variant_3_evicts 0 : 0 1 : 0 2 : 0 3 : 0 
Heartbeat CPU 0 instructions: 90000000 cycles: 58222481 heartbeat IPC: 0.909265 cumulative IPC: 0.904048 (Simulation time: 0 hr 10 min 59 sec) 
Cycle: 60000000 FTQ IN: 9097595 FTQ occupancy: 14.8641 DECODE IN: 9097585 DECODE occupancy: 4.99065 ROB IN: 9097591 ROB occupancy: 54.6555 ROB OUT: 9097603
Heartbeat_Variant_0 : 1380 0.336914 per_variant_size: 0 1380 0 0 0 0 0 0 0 
Heartbeat_Variant_1 : 1273 0.310791 per_variant_size: 0 571 702 0 0 0 0 0 0 
Heartbeat_Variant_2 : 1367 0.33374 per_variant_size: 0 542 368 242 215 0 0 0 0 
Heartbeat_Variant_3 : 0 0 per_variant_size: 0 0 0 0 0 0 0 0 0 
Heartbeat_Variant_0_evicts 0 : 5673 1 : 108 2 : 103 3 : 0 
Heartbeat_Variant_1_evicts 0 : 106 1 : 0 2 : 317 3 : 0 
Heartbeat_Variant_2_evicts 0 : 107 1 : 314 2 : 0 3 : 0 
Heartbeat_Variant_3_evicts 0 : 0 1 : 0 2 : 0 3 : 0 
Heartbeat CPU 0 instructions: 100000000 cycles: 69361396 heartbeat IPC: 0.897753 cumulative IPC: 0.902782 (Simulation time: 0 hr 12 min 8 sec) 
Finished CPU 0 instructions: 50000000 cycles: 55384354 cumulative IPC: 0.902782 (Simulation time: 0 hr 12 min 8 sec) 

ChampSim completed all CPUs

Region of Interest Statistics

CPU 0 cumulative IPC: 0.902782 instructions: 50000000 cycles: 55384354
 Fetch stage stalled: 27.5839  Sim cycles: 55384354 fetch stall cycle: 15277161
 Empty decode stage: 68.3754  Sim cycles: 55384354 fetch stall cycle: 37869270
ITLB TOTAL     ACCESS:    7335142  HIT:    6844541  MISS:     490601  HIT %:    93.3116  MISS %:    6.68836   MPKI: 9.81202
ITLB LOAD TRANSLATION INSTRUCTION	ACCESS:    7335142  HIT:    6844541  MISS:     490601  HIT %:    93.3116  MISS %:    6.68836  MPKI: 9.81202

ITLB AVERAGE MISS LATENCY: 9.03633 cycles
ITLB RQ	ACCESS:    8455390	FORWARD:          0	MERGED:     922417	TO_CACHE:    7532973

DTLB TOTAL     ACCESS:   10244397  HIT:    9766397  MISS:     478000  HIT %:     95.334  MISS %:    4.66597   MPKI: 9.56
DTLB LOAD TRANSLATION DATA	ACCESS:   10244397  HIT:    9766397  MISS:     478000  HIT %:     95.334  MISS %:    4.66597  MPKI: 9.56

DTLB AVERAGE MISS LATENCY: 9.30801 cycles
DTLB RQ	ACCESS:   14363049	FORWARD:          0	MERGED:    4088961	TO_CACHE:   10274088

STLB TOTAL     ACCESS:    1234732  HIT:    1232568  MISS:       2164  HIT %:    99.8247  MISS %:   0.175261   MPKI: 0.04328
STLB LOAD TRANSLATION INSTRUCTION	ACCESS:     490600  HIT:     490343  MISS:        257  HIT %:    99.9476  MISS %:  0.0523848  MPKI: 0.00514
STLB LOAD TRANSLATION DATA	ACCESS:     477983  HIT:     476091  MISS:       1892  HIT %:    99.6042  MISS %:    0.39583  MPKI: 0.03784
STLB TRANSLATION FROM L1D PREFETCHER DATA	ACCESS:     266149  HIT:     266134  MISS:         15  HIT %:    99.9944  MISS %: 0.00563594  MPKI: 0.0003

STLB AVERAGE MISS LATENCY: 67.5018 cycles
STLB RQ	ACCESS:    1370573	FORWARD:          0	MERGED:     135799	TO_CACHE:    1234774

STLB Hit, L1D data hit: 0
STLB Hit, L2C data hit: 0
STLB Hit, LLC data hit: 0
STLB Hit, LLC data miss: 0
STLB STLB hints to L2: 0
L1D TOTAL     ACCESS:   14152741  HIT:   12999144  MISS:    1153597  HIT %:    91.8489  MISS %:    8.15105   MPKI: 23.0719
L1D LOAD DATA	ACCESS:    7539110  HIT:    6781250  MISS:     757860  HIT %:    89.9476  MISS %:    10.0524  MPKI: 15.1572
L1D RFO DATA	ACCESS:    6270969  HIT:    5979169  MISS:     291800  HIT %:    95.3468  MISS %:    4.65319  MPKI: 5.836
L1D PREFETCH DATA	ACCESS:     342662  HIT:     238725  MISS:     103937  HIT %:    69.6678  MISS %:    30.3322  MPKI: 2.07874

L1D PREFETCH  REQUESTED:     804050  ISSUED:     804050  USEFUL:      47782  USELESS:      68899
L1D USEFUL LOAD PREFETCHES:      47782 PREFETCH ISSUED TO LOWER LEVEL:     116798  ACCURACY: 40.9099
 TIMELY PREFETCHES:      47782 LATE PREFETCHES: 12759 DROPPED PREFETCHES: 1
L1D AVERAGE MISS LATENCY: 461448 cycles
L1D RQ	ACCESS:   11388769	FORWARD:          0	MERGED:    3658865	TO_CACHE:    7574584
L1D WQ	ACCESS:    6909865	FORWARD:     155426	MERGED:     121400	TO_CACHE:    6788465
L1D PQ	ACCESS:     402078	FORWARD:          0	MERGED:          0	TO_CACHE:     401972

L1D UNIQUE REGIONS ACCESSED: 0
L1D REGIONS CONFLICTS: 0
L1D Cross Page Prefetch Requests: 5855
L1D Same Page Prefetch Requests: 805370
L1D ROI Sum of L1D PQ occupancy: 5106878
L1D PREFETCHES PUSHED FROM L2C: 0
L1I TOTAL     ACCESS:    7910280  HIT:    5167884  MISS:    2742396  HIT %:    65.3312  MISS %:    34.6688   MPKI: 54.8479
L1I LOAD INSTRUCTION	ACCESS:    7910280  HIT:    5167884  MISS:    2742396  HIT %:    65.3312  MISS %:    34.6688  MPKI: 54.8479

L1I AVERAGE MISS LATENCY: 16.9975 cycles
L1I RQ	ACCESS:   15532403	FORWARD:          0	MERGED:    7077013	TO_CACHE:    8455390

L1BTB TOTAL     ACCESS:    5679789  HIT:    2077475  MISS:    3602314  HIT %:    36.5766  MISS %:    63.4234   MPKI: 72.0463
L1BTB BRANCH_DIRECT_JUMP	ACCESS:     546311  HIT:     145241  MISS:     401070	AVERAGE STALL: 18.9103
L1BTB BRANCH_INDIRECT	ACCESS:     182122  HIT:      65887  MISS:     116235	AVERAGE STALL: 50.4283
L1BTB BRANCH_CONDITIONAL	ACCESS:    2733611  HIT:    1449490  MISS:    1284121	AVERAGE STALL: 32.9521
L1BTB BRANCH_DIRECT_CALL	ACCESS:     938045  HIT:     105863  MISS:     832182	AVERAGE STALL: 34.1558
L1BTB BRANCH_INDIRECT_CALL	ACCESS:     170824  HIT:      21558  MISS:     149266	AVERAGE STALL: 66.7819
L1BTB BRANCH_RETURN	ACCESS:    1108876  HIT:     289436  MISS:     819440	AVERAGE STALL: 33.0552
L1BTB BRANCH_OTHER ACCESS:          0  HIT:          0  MISS:          0	AVERAGE STALL: -nan
L1BTB TOTAL ROB OCCUPANCY AT BTB MISS: 0.628452

L2BTB TOTAL     ACCESS:    3577016  HIT:    3510605  MISS:      66411  HIT %:    98.1434  MISS %:     1.8566   MPKI: 1.32822
L2BTB BRANCH_DIRECT_JUMP	ACCESS:     396893  HIT:     392129  MISS:       4764	AVERAGE STALL: 18.9103
L2BTB BRANCH_INDIRECT	ACCESS:     106035  HIT:     103418  MISS:       2617	AVERAGE STALL: 50.4283
L2BTB BRANCH_CONDITIONAL	ACCESS:    1284120  HIT:    1279870  MISS:       4250	AVERAGE STALL: 32.9521
L2BTB BRANCH_DIRECT_CALL	ACCESS:     832182  HIT:     830810  MISS:       1372	AVERAGE STALL: 34.1558
L2BTB BRANCH_INDIRECT_CALL	ACCESS:     139745  HIT:     129465  MISS:      10280	AVERAGE STALL: 66.7819
L2BTB BRANCH_RETURN	ACCESS:     818041  HIT:     774913  MISS:      43128	AVERAGE STALL: 33.0552
L2BTB BRANCH_OTHER ACCESS:          0  HIT:          0  MISS:          0	AVERAGE STALL: -nan
L2BTB TOTAL ROB OCCUPANCY AT BTB MISS: 34.0889

L2C TOTAL     ACCESS:    4514693  HIT:    4022172  MISS:     492521  HIT %:    89.0907  MISS %:    10.9093   MPKI: 9.85042
L2C LOAD INSTRUCTION	ACCESS:    2742396  HIT:    2485281  MISS:     257115  HIT %:    90.6244  MISS %:    9.37556  MPKI: 5.1423
L2C LOAD TRANSLATION INSTRUCTION	ACCESS:        290  HIT:         68  MISS:        222  HIT %:    23.4483  MISS %:    76.5517  MPKI: 0.00444
L2C LOAD DATA	ACCESS:     745065  HIT:     659235  MISS:      85830  HIT %:    88.4802  MISS %:    11.5198  MPKI: 1.7166
L2C RFO DATA	ACCESS:     291674  HIT:     238650  MISS:      53024  HIT %:    81.8208  MISS %:    18.1792  MPKI: 1.06048
L2C PREFETCH DATA	ACCESS:     206475  HIT:     129415  MISS:      77060  HIT %:    62.6783  MISS %:    37.3217  MPKI: 1.5412
L2C WRITEBACK DATA	ACCESS:     526797  HIT:     509004  MISS:      17793  HIT %:    96.6224  MISS %:    3.37758  MPKI: 0.35586
L2C LOAD TRANSLATION DATA	ACCESS:       1969  HIT:        505  MISS:       1464  HIT %:    25.6475  MISS %:    74.3525  MPKI: 0.02928
L2C TRANSLATION FROM L1D PREFETCHER DATA	ACCESS:         27  HIT:         14  MISS:         13  HIT %:    51.8519  MISS %:    48.1481  MPKI: 0.00026

L2C PREFETCH  REQUESTED:      98139  ISSUED:      98139  USEFUL:      10672  USELESS:      67248
L2C USEFUL LOAD PREFETCHES:      10672 PREFETCH ISSUED TO LOWER LEVEL:      77783  ACCURACY: 13.7202
 TIMELY PREFETCHES:      10672 LATE PREFETCHES: 723 DROPPED PREFETCHES: 0
L2C AVERAGE MISS LATENCY: 38.682 cycles
L2C RQ	ACCESS:    3781483	FORWARD:          0	MERGED:          0	TO_CACHE:    3781423
L2C WQ	ACCESS:     526797	FORWARD:         60	MERGED:          0	TO_CACHE:     526797
L2C PQ	ACCESS:     214937	FORWARD:          0	MERGED:       3447	TO_CACHE:     211490

L2C Dense regions hint from L2: 0
PSCL5 TOTAL     ACCESS:       4334  HIT:       2167  MISS:       2167  HIT %:         50  MISS %:         50   MPKI: 0.04334
PSCL5 LOAD TRANSLATION INSTRUCTION	ACCESS:       4286  HIT:       2143  MISS:       2143  HIT %:         50  MISS %:         50  MPKI: 0.04286
PSCL5 TRANSLATION FROM L1D PREFETCHER INSTRUCTION	ACCESS:         48  HIT:         24  MISS:         24  HIT %:         50  MISS %:         50  MPKI: 0.00048


PSCL4 TOTAL     ACCESS:       4247  HIT:       2120  MISS:       2127  HIT %:    49.9176  MISS %:    50.0824   MPKI: 0.04254
PSCL4 LOAD TRANSLATION INSTRUCTION	ACCESS:       2101  HIT:       2101  MISS:          0  HIT %:        100  MISS %:          0  MPKI: 0
PSCL4 TRANSLATION FROM L1D PREFETCHER INSTRUCTION	ACCESS:         19  HIT:         19  MISS:          0  HIT %:        100  MISS %:          0  MPKI: 0
PSCL4 LOAD TRANSLATION DATA	ACCESS:       2108  HIT:          0  MISS:       2108  HIT %:          0  MISS %:        100  MPKI: 0.04216
PSCL4 TRANSLATION FROM L1D PREFETCHER DATA	ACCESS:         19  HIT:          0  MISS:         19  HIT %:          0  MISS %:        100  MPKI: 0.00038


PSCL3 TOTAL     ACCESS:       4273  HIT:       2133  MISS:       2140  HIT %:    49.9181  MISS %:    50.0819   MPKI: 0.0428
PSCL3 LOAD TRANSLATION INSTRUCTION	ACCESS:       2114  HIT:       2114  MISS:          0  HIT %:        100  MISS %:          0  MPKI: 0
PSCL3 TRANSLATION FROM L1D PREFETCHER INSTRUCTION	ACCESS:         19  HIT:         19  MISS:          0  HIT %:        100  MISS %:          0  MPKI: 0
PSCL3 LOAD TRANSLATION DATA	ACCESS:       2121  HIT:          0  MISS:       2121  HIT %:          0  MISS %:        100  MPKI: 0.04242
PSCL3 TRANSLATION FROM L1D PREFETCHER DATA	ACCESS:         19  HIT:          0  MISS:         19  HIT %:          0  MISS %:        100  MPKI: 0.00038


PSCL2 TOTAL     ACCESS:       4228  HIT:       2061  MISS:       2167  HIT %:    48.7465  MISS %:    51.2535   MPKI: 0.04334
PSCL2 LOAD TRANSLATION INSTRUCTION	ACCESS:       2297  HIT:       2038  MISS:        259  HIT %:    88.7244  MISS %:    11.2756  MPKI: 0.00518
PSCL2 TRANSLATION FROM L1D PREFETCHER INSTRUCTION	ACCESS:         23  HIT:         23  MISS:          0  HIT %:        100  MISS %:          0  MPKI: 0
PSCL2 LOAD TRANSLATION DATA	ACCESS:       1885  HIT:          0  MISS:       1885  HIT %:          0  MISS %:        100  MPKI: 0.0377
PSCL2 TRANSLATION FROM L1D PREFETCHER DATA	ACCESS:         23  HIT:          0  MISS:         23  HIT %:          0  MISS %:        100  MPKI: 0.00046


LLC TOTAL     ACCESS:     554995  HIT:     524587  MISS:      30408  HIT %:     94.521  MISS %:    5.47897   MPKI: 0.60816
LLC LOAD INSTRUCTION	ACCESS:     257115  HIT:     256005  MISS:       1110  HIT %:    99.5683  MISS %:   0.431713  MPKI: 0.0222
LLC LOAD TRANSLATION INSTRUCTION	ACCESS:        222  HIT:        207  MISS:         15  HIT %:    93.2432  MISS %:    6.75676  MPKI: 0.0003
LLC LOAD DATA	ACCESS:      85119  HIT:      81499  MISS:       3620  HIT %:    95.7471  MISS %:    4.25287  MPKI: 0.0724
LLC RFO DATA	ACCESS:      53011  HIT:      37489  MISS:      15522  HIT %:    70.7193  MISS %:    29.2807  MPKI: 0.31044
LLC PREFETCH DATA	ACCESS:      77783  HIT:      68110  MISS:       9673  HIT %:    87.5641  MISS %:    12.4359  MPKI: 0.19346
LLC WRITEBACK DATA	ACCESS:      80268  HIT:      79865  MISS:        403  HIT %:    99.4979  MISS %:   0.502068  MPKI: 0.00806
LLC LOAD TRANSLATION DATA	ACCESS:       1464  HIT:       1399  MISS:         65  HIT %:    95.5601  MISS %:    4.43989  MPKI: 0.0013
LLC TRANSLATION FROM L1D PREFETCHER DATA	ACCESS:         13  HIT:         13  MISS:          0  HIT %:        100  MISS %:          0  MPKI: 0

LLC AVERAGE MISS LATENCY: 156.708 cycles
LLC RQ	ACCESS:     396945	FORWARD:          0	MERGED:          0	TO_CACHE:     396944
LLC WQ	ACCESS:      80268	FORWARD:          1	MERGED:          0	TO_CACHE:      80268
LLC PQ	ACCESS:      77783	FORWARD:          0	MERGED:          0	TO_CACHE:      77783

LLC Dense regions hint to LLC: 0

RAW hits: 1228053
Loads Generated: 12616823
Loads sent to L1D: 11388769
Stores Generated: 6909853
Stores sent to L1D: 6909865
Major fault: 0 Minor fault: 2553
Allocated PAGES: 2553

stream: 
stream:times selected: 1240993
stream:pref_filled: 125510
stream:pref_useful: 28623
stream:pref_late: 8720
stream:misses: 8350
stream:misses_by_poll: 0

CS: 
CS:times selected: 194658
CS:pref_filled: 71737
CS:pref_useful: 49155
CS:pref_late: 8691
CS:misses: 23210
CS:misses_by_poll: 1

CPLX: 
CPLX:times selected: 1045321
CPLX:pref_filled: 25108
CPLX:pref_useful: 6979
CPLX:pref_late: 4542
CPLX:misses: 122998
CPLX:misses_by_poll: 0

NL_L1: 
NL:times selected: 11912
NL:pref_filled: 1531
NL:pref_useful: 267
NL:pref_late: 186
NL:misses: 1403
NL:misses_by_poll: 0

total selections: 2492884
total_filled: 103937
total_useful: 47782
total_late: 24306
total_polluted: 1
total_misses_after_warmup: 793335
conflicts: 5943794

test: 120287

DRAM Statistics
 CHANNEL 0
 RQ ROW_BUFFER_HIT:      11346  ROW_BUFFER_MISS:      18635
 DBUS_CONGESTED:          5
 WQ ROW_BUFFER_HIT:       1482  ROW_BUFFER_MISS:      12824  FULL:          0

 AVG_CONGESTED_CYCLE: 5

CPU 0 Branch Prediction Accuracy: 99.8177% MPKI: 0.33382 Average ROB Occupancy at Mispredict: 75.4579
Branch types
NOT_BRANCH: 40844497 81.689%
BRANCH_DIRECT_JUMP: 546311 1.09262%
BRANCH_INDIRECT: 182122 0.364244%
BRANCH_CONDITIONAL: 6209005 12.418%
BRANCH_DIRECT_CALL: 938045 1.87609%
BRANCH_INDIRECT_CALL: 170824 0.341648%
BRANCH_RETURN: 1108876 2.21775%
BRANCH_OTHER: 0 0%

DRAM PAGES: 1048576
Allocated PAGES: 2553
Average_ROB_Occupancy: 56.5668
Average_Decode_Occupancy: 4.98389
Average_FTQ_Occupancy: 14.8851
Indirect max targets: 14 Average targets: 1.15254
Branch_type:  BRANCH_DIRECT_JUMP:  Count Percentage: 3.41019 5.86901 4.27277 8.1192 1.69767 5.96678 3.61489 67.0495 
Branch_type:  BRANCH_INDIRECT:  Count Percentage: 11.7302 3.46847 15.9067 15.3202 3.34208 1.20506 2.00074 47.0265 
Branch_type:  BRANCH_CONDITIONAL:  Count Percentage: 22.2349 2.599 2.58053 4.73823 1.26186 4.23011 1.98176 60.3736 
Branch_type:  BRANCH_DIRECT_CALL:  Count Percentage: 0.260462 1.2639 1.44727 2.28183 2.16617 2.66402 0.796676 89.1197 
Branch_type:  BRANCH_INDIRECT_CALL:  Count Percentage: 9.50925 0.574378 2.97888 4.8315 0 3.8172 0.995005 77.2938 
Branch_type:  BRANCH_RETURN:  Count Percentage: 3.7267 0.572985 1.95473 5.33615 2.42091 5.09268 2.58262 78.3132 
Branch_type:  BRANCH_DIRECT_JUMP:  Total Count: 37218 64053 46632 88611 18528 65120 39452 731762 
Branch_type:  BRANCH_INDIRECT:  Total Count: 42694 12624 57895 55760 12164 4386 7282 171160 
Branch_type:  BRANCH_CONDITIONAL:  Total Count: 2759546 322559 320266 588056 156608 524994 245954 7492891 
Branch_type:  BRANCH_DIRECT_CALL:  Total Count: 4889 23724 27166 42831 40660 50005 14954 1672820 
Branch_type:  BRANCH_INDIRECT_CALL:  Total Count: 32532 1965 10191 16529 0 13059 3404 264429 
Branch_type:  BRANCH_RETURN:  Total Count: 82731 12720 43394 118460 53743 113055 57333 1738517 
Number of unique branch instructions: 9992
Upper 32 bits: 
aaaa
ffff
ffff0000
Unique upper 32 bits: 3
Unique upper 36 bits: 3
Unique upper 40 bits: 5
Unique upper 44 bits: 32
Unique upper 48 bits: 153
Variant_0 : 1380 0.336914
Variant_1 : 1273 0.310791
Variant_2 : 1367 0.33374
Variant_3 : 0 0
Offset_3 4154
Offset_4 249
Offset_5 453
Offset_6 509
Offset_7 590
Offset_8 516
Offset_9 467
Offset_10 383
Offset_11 326
Offset_12 277
Offset_13 206
Offset_14 225
Offset_15 188
Offset_16 221
Offset_17 152
Offset_18 121
Offset_19 239
Offset_20 138
Offset_21 235
Offset_22 397
Offset_23 245
Offset_24 331
Offset_25 88
Offset_47 82
Offset_64 4
decode_dispatch_called: 30312228 54.7307
Dispatch_width: 0 18202753 60.0509 32.8662
Dispatch_width: 1 2309917 7.62041 4.1707
Dispatch_width: 2 1124787 3.71067 2.03088
Dispatch_width: 3 1091489 3.60082 1.97075
Dispatch_width: 4 1029940 3.39777 1.85962
Dispatch_width: 5 1274081 4.20319 2.30043
Dispatch_width: 6 5279261 17.4163 9.53204
Empty_decode_cycles: 25072126 45.2693
ROB_full_cycles: 555674 1.00331
Starvation_cycles_per_kilo_instr: 495.494
Starvation_cycles_per_kilo_instr_3: 472.454
Starvation_cycles_per_kilo_instr_0: 427.192
Branch_type_1  (3,1)  (4,7)  (5,36)  (6,68)  (7,115)  (8,131)  (9,124)  (10,99)  (11,72)  (12,44)  (13,5)  (14,2)  (15,3)  (16,4)  (18,1)  (19,4)  (20,2)  (21,1)  (22,3)  (23,2)  (24,10)  (25,12)  (64,1) 
Branch_type_2  (3,1)  (5,1)  (8,3)  (9,3)  (12,1)  (13,1)  (14,1)  (16,3)  (17,2)  (20,2)  (21,2)  (23,5)  (24,1)  (47,37) 
Branch_type_3  (3,4152)  (4,242)  (5,412)  (6,425)  (7,444)  (8,320)  (9,256)  (10,156)  (11,134)  (12,51)  (13,4)  (24,1)  (64,2) 
Branch_type_4  (6,3)  (7,8)  (8,28)  (9,50)  (10,60)  (11,61)  (12,100)  (13,90)  (14,98)  (15,89)  (16,99)  (17,70)  (18,55)  (19,117)  (20,71)  (21,124)  (22,210)  (23,138)  (24,190)  (25,72) 
Branch_type_5  (8,2)  (9,1)  (10,3)  (11,5)  (12,3)  (13,14)  (14,16)  (15,11)  (16,20)  (17,11)  (18,16)  (19,12)  (20,11)  (21,13)  (22,42)  (23,26)  (24,37) 
Branch_type_6  (5,4)  (6,13)  (7,23)  (8,32)  (9,33)  (10,65)  (11,54)  (12,78)  (13,92)  (14,108)  (15,85)  (16,95)  (17,69)  (18,49)  (19,106)  (20,52)  (21,95)  (22,142)  (23,74)  (24,92)  (25,4)  (47,45)  (64,1) 
Unique trigger count: 
Variant_0_evicts_0 : 0
Variant_0_evicts_1 : 0
Variant_0_evicts_2 : 0
Variant_0_evicts_3 : 0
Variant_1_evicts_0 : 0
Variant_1_evicts_1 : 0
Variant_1_evicts_2 : 0
Variant_1_evicts_3 : 0
Variant_2_evicts_0 : 0
Variant_2_evicts_1 : 0
Variant_2_evicts_2 : 0
Variant_2_evicts_3 : 0
Variant_3_evicts_0 : 0
Variant_3_evicts_1 : 0
Variant_3_evicts_2 : 0
Variant_3_evicts_3 : 0
BTB PER SET UNIQUE ADDR: 13 6 8 17 12 17 13 10 6 12 11 15 18 12 6 11 10 15 11 14 13 9 13 13 8 9 8 15 11 8 15 18 13 7 10 7 16 11 8 13 11 8 12 17 6 10 11 6 10 11 9 10 9 13 12 6 8 10 9 10 11 16 6 14 6 13 14 9 18 10 14 11 15 8 9 9 6 17 10 15 11 2 11 19 12 13 14 6 9 14 8 6 14 7 6 17 10 7 10 17 11 12 16 8 10 13 9 12 10 7 7 20 7 9 10 7 10 5 7 13 11 8 6 10 14 8 5 7 12 10 8 13 12 16 8 14 10 8 10 16 7 12 14 10 12 8 7 6 8 11 13 12 13 8 6 11 15 9 9 10 11 7 12 16 10 17 15 11 9 10 13 8 14 10 10 11 12 9 14 10 10 12 9 12 19 10 6 12 7 11 10 12 10 9 9 13 5 14 9 9 10 12 11 10 12 8 10 10 8 13 10 12 20 7 7 14 15 11 10 18 5 14 6 6 11 11 17 7 10 15 10 6 10 14 8 15 9 14 13 9 13 10 10 13 8 13 8 9 9 10 12 13 13 8 12 15 9 10 11 11 16 8 6 12 16 11 8 9 7 12 10 14 10 8 8 8 12 14 11 10 9 14 8 8 10 6 9 19 14 8 13 9 8 13 13 14 10 15 12 9 13 10 10 17 12 16 11 7 13 9 11 15 11 9 6 6 14 15 10 13 11 13 9 9 13 14 10 8 10 8 12 12 11 12 10 9 5 13 5 16 15 8 8 14 11 12 13 14 14 9 15 7 7 12 14 12 14 12 9 12 13 15 5 16 11 14 13 11 12 13 12 11 13 12 11 11 10 11 14 12 16 7 8 5 7 9 11 14 10 10 11 8 13 11 11 7 13 10 12 7 10 12 11 14 15 6 9 16 11 9 8 9 9 19 12 8 9 15 12 14 10 11 5 12 16 9 8 11 10 11 15 9 8 13 10 15 13 10 13 7 13 7 13 10 20 6 7 13 6 13 14 15 15 10 9 15 14 14 8 11 14 11 10 7 18 8 7 12 12 13 14 7 8 16 12 13 12 15 7 9 10 13 12 14 6 19 13 11 12 12 12 14 9 5 10 8 10 17 10 12 14 9 9 14 7 9 9 14 13 9 15 13 9 15 18 13 15 12 7 10 6 7 10 8 9 14 18 7 11 19 13 13 12 11 14 18 11 15 13 12 18 8 11 14 15 12 7 12 5 10 13 12 13 10 13 12 12 8 17 12 12 17 12 12 7 10 7 12 16 11 12 8 12 14 13 11 17 11 9 13 13 14 8 11 13 14 13 9 13 18 10 16 11 10 16 9 7 11 7 12 17 11 8 11 8 15 17 11 13 13 17 11 7 9 4 15 8 14 8 13 15 12 5 7 14 9 9 21 9 14 10 14 13 11 13 9 13 12 8 17 15 15 14 15 6 14 12 10 14 11 9 12 10 8 10 16 9 10 11 10 12 6 8 15 12 14 10 10 9 10 14 8 9 15 21 9 16 14 14 11 11 10 13 14 13 16 9 13 15 11 11 13 13 10 8 7 7 13 8 12 7 10 9 12 5 10 13 8 13 9 8 13 7 11 7 8 10 13 11 11 14 7 11 15 7 13 14 10 5 11 14 10 13 7 10 16 14 14 11 11 10 9 10 8 12 18 13 13 15 9 14 14 10 16 10 11 16 9 6 10 12 6 4 12 12 8 11 10 9 10 12 16 8 9 8 8 8 11 16 12 10 8 12 9 11 12 8 7 6 8 5 7 17 10 13 14 10 12 18 7 15 14 6 13 17 11 14 11 12 11 12 18 7 16 15 8 16 13 6 21 13 15 10 7 10 10 11 11 11 10 12 14 11 13 10 14 9 8 10 10 12 9 7 12 13 19 12 11 13 11 12 13 7 14 15 16 10 14 10 9 14 7 7 13 18 4 11 9 12 13 10 15 9 11 10 4 8 9 11 15 9 8 13 12 13 8 13 14 17 13 13 13 10 9 11 10 10 14 7 6 15 7 10 11 8 7 8 15 11 19 9 9 9 11 13 14 13 16 11 9 10 14 11 6 11 7 8 12 12 7 18 16 12 16 12 11 9 12 13 14 8 17 6 11 10 13 9 12 12 10 10 16 11 7 11 17 7 14 16 8 15 8 8 16 12 12 18 10 10 11 11 17 17 10 11 12 11 10 12 12 11 6 14 14 11 18 14 12 14 12 13 6 9 9 14 9 10 6 11 10 20 13 6 14 16 10 9 12 7 13 8 14 6 9 12 11 3 8 9 7 9 7 10 7 
BTB PER SET COUNT: 16 7 1975 46 14 36 984 15 6 22 12 902 14371 27 6 14 860 21 15 22 14 400 740 71 11 12 9 18 386 356 80 1474 19 9 18 8 20 12 11 21 16 8 16 20 1461 11 17 7 54 14 12 13 9 21 28 7 9 13 17 12 13 1524 7 18 14 80 19 12 23 11 1479 17 17 12 13 13 10 736 23 17 17 2 15 27 13 74 30 8 1121 22 8 6 161 8 12 22 409 8 13 26 11 20 20 8 1464 35 11 13 988 9 11 28 10 11 16 759 18 7 1462 15 365 8 7 16 23 11 5 8 13 888 11 2840 17 22 10 21 980 13 13 37 11 19 21 14 26 9 9 710 8 229 23 298 629 11 7 20 352 9 12 12 24 353 17 25 1465 30 20 12 11 80 19 9 25 13 13 328 14 9 607 12 10 13 3433 17 24 22 6 12 1091 726 12 13 16 10 11 14 5 520 11 10 18 16 976 10 15 11 10 143 10 18 12 15 27 1769 8 892 20 13 2483 21 5 16 8 6 11 31 24 7 15 17 17 10 13 15 10 6136 38 19 16 13 21 13 18 185 13 999 8 9 13 11 17 16 20 8 14 29 12 13 13 16 25 8 8 507 22 13 11 10 769 22 14 17 496 11 12 10 14 15 20 77 18 16 12 8 14 6 9 25 19 8 14 13 9 507 20 27 407 22 12 501 17 13 976 27 21 29 184 8 160 997 13 21 18 13 1830 105 22 22 12 19 20 2938 25 19 1468 22 43 11 10 15 18 13 19 19 13 14 5 251 5 19 24 1951 12 25 28 13 22 20 19 13 957 7 8 13 17 12 18 15 13 18 20 19 5 18 17 49 17 14 18 18 14 338 16 18 262 16 14 13 25 1077 1208 7 8 5 8 13 16 17 13 11 18 11 15 396 17 20 15 18 254 16 10 18 12 20 38 7 9 95 17 11 9 11 12 282 17 11 11 69 18 18 13 14 6 16 20 10 1036 14 15 1054 32 9 19 20 504 28 17 825 17 8 18 13 18 10 2448 6 7 26 6 24 19 19 27 11 14 1475 22 18 8 19 37 24 15 9 24 10 9 18 17 22 22 12 9 22 27 15 20 19 9 13 17 17 24 25 6 26 30 14 16 12 45 16 4950 6 14 9 903 27 16 23 22 19 10 144 10 11 10 23 24 10 262 20 22 19 25 15 28 24 11 703 10 8 25 12 17 20 2029 12 16 148 17 16 266 11 22 30 12 47 16 473 34 9 13 23 18 24 7 20 5 1378 21 14 223 15 23 21 14 8 33 15 17 23 19 20 8 19 9 14 23 19 1128 10 12 27 2447 11 20 15 9 31 16 30 10 4261 17 22 17 9 17 22 14 24 15 13 43 13 7 392 7 12 25 12 9 14 10 24 24 974 24 21 26 11 38 13 5 26 136 24 8 275 18 20 9 12 16 9 14 34 10 14 14 17 23 11 16 16 22 925 8 453 18 27 18 273 6 174 999 13 854 15 16 20 14 10 12 508 11 13 14 103 113 6 10 18 985 17 14 11 1467 20 22 9 979 27 37 502 31 23 17 14 14 10 136 17 1381 27 11 18 97 14 17 20 18 10 2079 10 9 1399 12 20 10 28 1473 17 5 12 13 8 16 10 8 16 1025 13 8 155 128 15 18 13 26 871 17 618 10 15 31 10 987 16 223 12809 17 125 13 19 512 16 12 15 701 12 10 35 12 32 410 14 20 20 362 20 15 1208 14 15 23 353 6 10 16 6 4 15 20 12 11 2628 12 12 46 16 13 15 13 10 10 16 22 14 1521 11 863 13 11 18 12 7 7 9 7 970 34 13 1353 24 11 18 28 7 20 24 12 16 176 12 18 14 14 14 15 2902 9 22 22 637 31 465 19 31 15 792 14 9 15 11 14 15 16 16 19 19 19 15 488 120 13 10 13 10 24 975 7 16 17 32 272 14 19 12 17 1722 15 29 21 16 528 22 20 10 977 10 960 16 1012 4 14 11 18 17 15 28 9 11 10 4 10 11 17 25 11 10 135 12 23 9 17 16 23 24 15 439 14 12 15 13 13 19 7 6 24 8 35 16 12 13 11 25 15 402 386 493 19 13 17 729 55 742 14 59 12 21 11 8 13 10 8 21 16 26 23 23 14 26 52 2952 9 23 415 29 10 2311 7 12 12 20 10 12 19 12 55 2025 14 1472 14 25 246 20 31 8 23 10 9 19 14 14 744 10 56 53 14 54 20 10 1469 15 12 14 1015 25 12 6 17 947 13 24 20 130 18 13 15 7 505 993 24 10 12 1465 14 10 38 22 9 19 18 13 13 22 8 978 14 449 6 14 19 12 3 14 13 8 10 12 12 9 
To predecode: 0
Predecoding something: 0
Predecode request dropped: 0
sizeofblock_0 0
sizeofblock_1 36779
sizeofblock_2 39160
sizeofblock_3 38832
sizeofblock_4 26657
sizeofblock_5 0
sizeofblock_6 0
sizeofblock_7 0
sizeofblock_8 0
Variant_0 Correct: 1603263 Incorrect: 0 Accuracy: 1
Variant_1 Correct: 2077738 Incorrect: 0 Accuracy: 1
Variant_2 Correct: 3617470 Incorrect: 0 Accuracy: 1
Variant_3 Correct: 0 Incorrect: 0 Accuracy: -nan
