
*** ChampSim Multicore Out-of-Order Simulator ***

Warmup Instructions: 50000000
Simulation Instructions: 50000000
Number of CPUs: 1
LLC sets: 2048
LLC ways: 16
Off-chip DRAM Size: 4096 MB Channels: 1 Width: 64-bit Data Rate: 6400 MT/s
CPU 0 runs ./micro_traces/srv649.trace.gz
.gz
ITLB has LRU replacement policy
DTLB has LRU replacement policy
STLB has LRU replacement policy
FDIP Prefetcher at L1I
L1I has LRU replacement policy
L1D has LRU replacement policy
Initialize SRRIP state for L2C
Initialize DRRIP state for LLC
Heartbeat CPU 0 instructions: 10000001 cycles: 2797469 heartbeat IPC: 3.57466 cumulative IPC: 3.57466 (Simulation time: 0 hr 1 min 55 sec) 
Heartbeat CPU 0 instructions: 20000003 cycles: 5593245 heartbeat IPC: 3.57683 cumulative IPC: 3.57574 (Simulation time: 0 hr 4 min 7 sec) 
Heartbeat CPU 0 instructions: 30000003 cycles: 8389652 heartbeat IPC: 3.57602 cumulative IPC: 3.57583 (Simulation time: 0 hr 6 min 18 sec) 
Heartbeat CPU 0 instructions: 40000003 cycles: 11185721 heartbeat IPC: 3.57645 cumulative IPC: 3.57599 (Simulation time: 0 hr 8 min 26 sec) 
Heartbeat CPU 0 instructions: 50000000 cycles: 13981993 heartbeat IPC: 3.57619 cumulative IPC: 3.57603 (Simulation time: 0 hr 10 min 28 sec) 

Warmup complete CPU 0 instructions: 50000004 cycles: 13981994 (Simulation time: 0 hr 10 min 28 sec) 

Cycle: 20000000 FTQ IN: 54490215 FTQ occupancy: 17.1126 DECODE IN: 54490213 DECODE occupancy: 43.9022 ROB IN: 54490213 ROB occupancy: 260.261 ROB OUT: 54490213
Heartbeat CPU 0 instructions: 60000001 cycles: 27413199 heartbeat IPC: 0.744535 cumulative IPC: 0.744535 (Simulation time: 0 hr 12 min 5 sec) 
Cycle: 30000000 FTQ IN: 7449920 FTQ occupancy: 3.55162 DECODE IN: 7449903 DECODE occupancy: 6.71316 ROB IN: 7449903 ROB occupancy: 56.4286 ROB OUT: 7449891
Cycle: 40000000 FTQ IN: 7402534 FTQ occupancy: 3.6847 DECODE IN: 7402553 DECODE occupancy: 6.96827 ROB IN: 7402553 ROB occupancy: 58.1788 ROB OUT: 7402492
Heartbeat CPU 0 instructions: 70000000 cycles: 40873354 heartbeat IPC: 0.742933 cumulative IPC: 0.743733 (Simulation time: 0 hr 13 min 48 sec) 
Cycle: 50000000 FTQ IN: 7467955 FTQ occupancy: 3.54895 DECODE IN: 7467901 DECODE occupancy: 6.68304 ROB IN: 7467901 ROB occupancy: 56.687 ROB OUT: 7467941
Heartbeat CPU 0 instructions: 80000000 cycles: 54231017 heartbeat IPC: 0.748634 cumulative IPC: 0.74536 (Simulation time: 0 hr 15 min 33 sec) 
Cycle: 60000000 FTQ IN: 7506258 FTQ occupancy: 3.53661 DECODE IN: 7506312 DECODE occupancy: 6.64668 ROB IN: 7506312 ROB occupancy: 56.4312 ROB OUT: 7506217
Heartbeat CPU 0 instructions: 90000000 cycles: 67724585 heartbeat IPC: 0.741094 cumulative IPC: 0.744289 (Simulation time: 0 hr 16 min 58 sec) 
Cycle: 70000000 FTQ IN: 7384839 FTQ occupancy: 3.70564 DECODE IN: 7384837 DECODE occupancy: 7.02509 ROB IN: 7384837 ROB occupancy: 58.3889 ROB OUT: 7384928
Cycle: 80000000 FTQ IN: 7513152 FTQ occupancy: 3.5378 DECODE IN: 7513154 DECODE occupancy: 6.66689 ROB IN: 7513154 ROB occupancy: 57.1256 ROB OUT: 7513147
Heartbeat CPU 0 instructions: 100000001 cycles: 81045287 heartbeat IPC: 0.750711 cumulative IPC: 0.745564 (Simulation time: 0 hr 18 min 12 sec) 
Finished CPU 0 instructions: 50000001 cycles: 67063299 cumulative IPC: 0.745564 (Simulation time: 0 hr 18 min 12 sec) 

ChampSim completed all CPUs

Region of Interest Statistics

CPU 0 cumulative IPC: 0.745564 instructions: 50000001 cycles: 67063299
 Fetch stage stalled: 81.996  Sim cycles: 67063299 fetch stall cycle: 54989252
 Empty decode stage: 69.4732  Sim cycles: 67063299 fetch stall cycle: 46591034
ITLB TOTAL     ACCESS:    5734450  HIT:    5239195  MISS:     495255  HIT %:    91.3635  MISS %:    8.63649   MPKI: 9.9051
ITLB LOAD TRANSLATION INSTRUCTION	ACCESS:    5654853  HIT:    5159598  MISS:     495255  HIT %:    91.2419  MISS %:    8.75805  MPKI: 9.9051
ITLB TRANSLATION FROM L1D PREFETCHER INSTRUCTION	ACCESS:      79597  HIT:      79597  MISS:          0  HIT %:        100  MISS %:          0  MPKI: 0

ITLB AVERAGE MISS LATENCY: 9.04328 cycles
ITLB RQ	ACCESS:    7204990	FORWARD:          0	MERGED:    1064228	TO_CACHE:    6140762

DTLB TOTAL     ACCESS:   10082215  HIT:    9599964  MISS:     482251  HIT %:    95.2168  MISS %:    4.78319   MPKI: 9.64502
DTLB LOAD TRANSLATION DATA	ACCESS:   10082215  HIT:    9599964  MISS:     482251  HIT %:    95.2168  MISS %:    4.78319  MPKI: 9.64502

DTLB AVERAGE MISS LATENCY: 9.30548 cycles
DTLB RQ	ACCESS:   14147241	FORWARD:          0	MERGED:    4035845	TO_CACHE:   10111396

STLB TOTAL     ACCESS:    1226864  HIT:    1224840  MISS:       2024  HIT %:     99.835  MISS %:   0.164973   MPKI: 0.04048
STLB LOAD TRANSLATION INSTRUCTION	ACCESS:     495255  HIT:     494987  MISS:        268  HIT %:    99.9459  MISS %:  0.0541135  MPKI: 0.00536
STLB LOAD TRANSLATION DATA	ACCESS:     482167  HIT:     480420  MISS:       1747  HIT %:    99.6377  MISS %:   0.362323  MPKI: 0.03494
STLB TRANSLATION FROM L1D PREFETCHER DATA	ACCESS:     249442  HIT:     249433  MISS:          9  HIT %:    99.9964  MISS %: 0.00360805  MPKI: 0.00018

STLB AVERAGE MISS LATENCY: 73.7559 cycles
STLB RQ	ACCESS:    1364067	FORWARD:          0	MERGED:     137167	TO_CACHE:    1226900

STLB Hit, L1D data hit: 0
STLB Hit, L2C data hit: 0
STLB Hit, LLC data hit: 0
STLB Hit, LLC data miss: 0
STLB STLB hints to L2: 0
L1D TOTAL     ACCESS:   13942622  HIT:   12789787  MISS:    1152835  HIT %:    91.7316  MISS %:    8.26842   MPKI: 23.0567
L1D LOAD DATA	ACCESS:    7322274  HIT:    6560789  MISS:     761485  HIT %:    89.6004  MISS %:    10.3996  MPKI: 15.2297
L1D RFO DATA	ACCESS:    6290524  HIT:    6000438  MISS:     290086  HIT %:    95.3885  MISS %:    4.61148  MPKI: 5.80172
L1D PREFETCH DATA	ACCESS:     329824  HIT:     228560  MISS:     101264  HIT %:    69.2976  MISS %:    30.7024  MPKI: 2.02528

L1D PREFETCH  REQUESTED:     773268  ISSUED:     773268  USEFUL:      42981  USELESS:      69355
L1D USEFUL LOAD PREFETCHES:      42981 PREFETCH ISSUED TO LOWER LEVEL:     112400  ACCURACY: 38.2393
 TIMELY PREFETCHES:      42981 LATE PREFETCHES: 11075 DROPPED PREFETCHES: 5
L1D AVERAGE MISS LATENCY: 461008 cycles
L1D RQ	ACCESS:   11253698	FORWARD:          0	MERGED:    3743618	TO_CACHE:    7347725
L1D WQ	ACCESS:    6928288	FORWARD:     162501	MERGED:     128772	TO_CACHE:    6799516
L1D PQ	ACCESS:     386707	FORWARD:          0	MERGED:          0	TO_CACHE:     386561

L1D UNIQUE REGIONS ACCESSED: 0
L1D REGIONS CONFLICTS: 0
L1D Cross Page Prefetch Requests: 5665
L1D Same Page Prefetch Requests: 788151
L1D ROI Sum of L1D PQ occupancy: 4892596
L1D PREFETCHES PUSHED FROM L2C: 0
L1I TOTAL     ACCESS:    7048921  HIT:    4281943  MISS:    2766978  HIT %:    60.7461  MISS %:    39.2539   MPKI: 55.3396
L1I LOAD INSTRUCTION	ACCESS:    6715474  HIT:    3948496  MISS:    2766978  HIT %:     58.797  MISS %:     41.203  MPKI: 55.3396
L1I PREFETCH INSTRUCTION	ACCESS:     333447  HIT:     333447  MISS:          0  HIT %:        100  MISS %:          0  MPKI: 0

L1I PREFETCH  REQUESTED:     585601  ISSUED:     585601  USEFUL:          0  USELESS:          0
L1I USEFUL LOAD PREFETCHES:          0 PREFETCH ISSUED TO LOWER LEVEL:          0  ACCURACY: -nan
 TIMELY PREFETCHES:          0 LATE PREFETCHES: 0 DROPPED PREFETCHES: 0
L1I AVERAGE MISS LATENCY: 17.2045 cycles
L1I RQ	ACCESS:    9476819	FORWARD:          0	MERGED:    2673167	TO_CACHE:    6803652
L1I PQ	ACCESS:     585601	FORWARD:          0	MERGED:     184263	TO_CACHE:     401338

L1BTB TOTAL     ACCESS:    5677044  HIT:    2046376  MISS:    3630668  HIT %:    36.0465  MISS %:    63.9535   MPKI: 72.6134
L1BTB BRANCH_DIRECT_JUMP	ACCESS:     545245  HIT:     142492  MISS:     402753	AVERAGE STALL: 27.9006
L1BTB BRANCH_INDIRECT	ACCESS:     181516  HIT:      65141  MISS:     116375	AVERAGE STALL: 67.4916
L1BTB BRANCH_CONDITIONAL	ACCESS:    2716517  HIT:    1424522  MISS:    1291995	AVERAGE STALL: 29.6993
L1BTB BRANCH_DIRECT_CALL	ACCESS:     945044  HIT:     103912  MISS:     841132	AVERAGE STALL: 30.82
L1BTB BRANCH_INDIRECT_CALL	ACCESS:     171836  HIT:      21378  MISS:     150458	AVERAGE STALL: 87.8683
L1BTB BRANCH_RETURN	ACCESS:    1116886  HIT:     288931  MISS:     827955	AVERAGE STALL: 29.5917
L1BTB BRANCH_OTHER ACCESS:          0  HIT:          0  MISS:          0	AVERAGE STALL: -nan
L1BTB TOTAL ROB OCCUPANCY AT BTB MISS: 20.3024

L2BTB TOTAL     ACCESS:    3605436  HIT:    2097097  MISS:    1508339  HIT %:    58.1649  MISS %:    41.8351   MPKI: 30.1668
L2BTB BRANCH_DIRECT_JUMP	ACCESS:     398670  HIT:     221189  MISS:     177481	AVERAGE STALL: 27.9006
L2BTB BRANCH_INDIRECT	ACCESS:     106085  HIT:      89361  MISS:      16724	AVERAGE STALL: 67.4916
L2BTB BRANCH_CONDITIONAL	ACCESS:    1291995  HIT:     756253  MISS:     535742	AVERAGE STALL: 29.6993
L2BTB BRANCH_DIRECT_CALL	ACCESS:     841132  HIT:     437983  MISS:     403149	AVERAGE STALL: 30.82
L2BTB BRANCH_INDIRECT_CALL	ACCESS:     141014  HIT:      76578  MISS:      64436	AVERAGE STALL: 87.8683
L2BTB BRANCH_RETURN	ACCESS:     826540  HIT:     515733  MISS:     310807	AVERAGE STALL: 29.5917
L2BTB BRANCH_OTHER ACCESS:          0  HIT:          0  MISS:          0	AVERAGE STALL: -nan
L2BTB TOTAL ROB OCCUPANCY AT BTB MISS: 48.8692

L2C TOTAL     ACCESS:    4534574  HIT:    4048469  MISS:     486105  HIT %:      89.28  MISS %:      10.72   MPKI: 9.7221
L2C LOAD INSTRUCTION	ACCESS:    2766977  HIT:    2501918  MISS:     265059  HIT %:    90.4206  MISS %:    9.57937  MPKI: 5.30118
L2C LOAD TRANSLATION INSTRUCTION	ACCESS:        307  HIT:         73  MISS:        234  HIT %:    23.7785  MISS %:    76.2215  MPKI: 0.00468
L2C LOAD DATA	ACCESS:     750381  HIT:     673208  MISS:      77173  HIT %:    89.7155  MISS %:    10.2845  MPKI: 1.54346
L2C RFO DATA	ACCESS:     290024  HIT:     235308  MISS:      54716  HIT %:     81.134  MISS %:     18.866  MPKI: 1.09432
L2C PREFETCH DATA	ACCESS:     197988  HIT:     124018  MISS:      73970  HIT %:    62.6391  MISS %:    37.3609  MPKI: 1.4794
L2C WRITEBACK DATA	ACCESS:     527029  HIT:     513464  MISS:      13565  HIT %:    97.4261  MISS %:    2.57386  MPKI: 0.2713
L2C LOAD TRANSLATION DATA	ACCESS:       1850  HIT:        466  MISS:       1384  HIT %:    25.1892  MISS %:    74.8108  MPKI: 0.02768
L2C TRANSLATION FROM L1D PREFETCHER DATA	ACCESS:         18  HIT:         14  MISS:          4  HIT %:    77.7778  MISS %:    22.2222  MPKI: 8e-05

L2C PREFETCH  REQUESTED:      92763  ISSUED:      92763  USEFUL:       8915  USELESS:      65648
L2C USEFUL LOAD PREFETCHES:       8915 PREFETCH ISSUED TO LOWER LEVEL:      74601  ACCURACY: 11.9502
 TIMELY PREFETCHES:       8915 LATE PREFETCHES: 631 DROPPED PREFETCHES: 0
L2C AVERAGE MISS LATENCY: 38.2212 cycles
L2C RQ	ACCESS:    3809585	FORWARD:          0	MERGED:          0	TO_CACHE:    3809555
L2C WQ	ACCESS:     527029	FORWARD:         30	MERGED:          0	TO_CACHE:     527029
L2C PQ	ACCESS:     205163	FORWARD:          0	MERGED:       3687	TO_CACHE:     201476

L2C Dense regions hint from L2: 0
PSCL5 TOTAL     ACCESS:       4064  HIT:       2032  MISS:       2032  HIT %:         50  MISS %:         50   MPKI: 0.04064
PSCL5 LOAD TRANSLATION INSTRUCTION	ACCESS:       4028  HIT:       2014  MISS:       2014  HIT %:         50  MISS %:         50  MPKI: 0.04028
PSCL5 TRANSLATION FROM L1D PREFETCHER INSTRUCTION	ACCESS:         36  HIT:         18  MISS:         18  HIT %:         50  MISS %:         50  MPKI: 0.00036


PSCL4 TOTAL     ACCESS:       2269  HIT:       1131  MISS:       1138  HIT %:    49.8457  MISS %:    50.1543   MPKI: 0.02276
PSCL4 LOAD TRANSLATION INSTRUCTION	ACCESS:       1393  HIT:       1126  MISS:        267  HIT %:    80.8327  MISS %:    19.1673  MPKI: 0.00534
PSCL4 TRANSLATION FROM L1D PREFETCHER INSTRUCTION	ACCESS:          6  HIT:          5  MISS:          1  HIT %:    83.3333  MISS %:    16.6667  MPKI: 2e-05
PSCL4 LOAD TRANSLATION DATA	ACCESS:        866  HIT:          0  MISS:        866  HIT %:          0  MISS %:        100  MPKI: 0.01732
PSCL4 TRANSLATION FROM L1D PREFETCHER DATA	ACCESS:          4  HIT:          0  MISS:          4  HIT %:          0  MISS %:        100  MPKI: 8e-05


PSCL3 TOTAL     ACCESS:       3306  HIT:       1645  MISS:       1661  HIT %:     49.758  MISS %:     50.242   MPKI: 0.03322
PSCL3 LOAD TRANSLATION INSTRUCTION	ACCESS:       2295  HIT:       1631  MISS:        664  HIT %:    71.0675  MISS %:    28.9325  MPKI: 0.01328
PSCL3 TRANSLATION FROM L1D PREFETCHER INSTRUCTION	ACCESS:         19  HIT:         14  MISS:          5  HIT %:    73.6842  MISS %:    26.3158  MPKI: 0.0001
PSCL3 LOAD TRANSLATION DATA	ACCESS:        983  HIT:          0  MISS:        983  HIT %:          0  MISS %:        100  MPKI: 0.01966
PSCL3 TRANSLATION FROM L1D PREFETCHER DATA	ACCESS:          9  HIT:          0  MISS:          9  HIT %:          0  MISS %:        100  MPKI: 0.00018


PSCL2 TOTAL     ACCESS:       3941  HIT:       1909  MISS:       2032  HIT %:    48.4395  MISS %:    51.5605   MPKI: 0.04064
PSCL2 LOAD TRANSLATION INSTRUCTION	ACCESS:       2159  HIT:       1891  MISS:        268  HIT %:    87.5868  MISS %:    12.4132  MPKI: 0.00536
PSCL2 TRANSLATION FROM L1D PREFETCHER INSTRUCTION	ACCESS:         18  HIT:         18  MISS:          0  HIT %:        100  MISS %:          0  MPKI: 0
PSCL2 LOAD TRANSLATION DATA	ACCESS:       1746  HIT:          0  MISS:       1746  HIT %:          0  MISS %:        100  MPKI: 0.03492
PSCL2 TRANSLATION FROM L1D PREFETCHER DATA	ACCESS:         18  HIT:          0  MISS:         18  HIT %:          0  MISS %:        100  MPKI: 0.00036


LLC TOTAL     ACCESS:     545891  HIT:     517648  MISS:      28243  HIT %:    94.8263  MISS %:    5.17374   MPKI: 0.56486
LLC LOAD INSTRUCTION	ACCESS:     265059  HIT:     264127  MISS:        932  HIT %:    99.6484  MISS %:    0.35162  MPKI: 0.01864
LLC LOAD TRANSLATION INSTRUCTION	ACCESS:        234  HIT:        208  MISS:         26  HIT %:    88.8889  MISS %:    11.1111  MPKI: 0.00052
LLC LOAD DATA	ACCESS:      76551  HIT:      72965  MISS:       3586  HIT %:    95.3155  MISS %:    4.68446  MPKI: 0.07172
LLC RFO DATA	ACCESS:      54702  HIT:      41679  MISS:      13023  HIT %:    76.1928  MISS %:    23.8072  MPKI: 0.26046
LLC PREFETCH DATA	ACCESS:      74601  HIT:      64322  MISS:      10279  HIT %:    86.2214  MISS %:    13.7786  MPKI: 0.20558
LLC WRITEBACK DATA	ACCESS:      73356  HIT:      73046  MISS:        310  HIT %:    99.5774  MISS %:   0.422597  MPKI: 0.0062
LLC LOAD TRANSLATION DATA	ACCESS:       1384  HIT:       1298  MISS:         86  HIT %:    93.7861  MISS %:    6.21387  MPKI: 0.00172
LLC TRANSLATION FROM L1D PREFETCHER DATA	ACCESS:          4  HIT:          3  MISS:          1  HIT %:         75  MISS %:         25  MPKI: 2e-05

LLC AVERAGE MISS LATENCY: 154.801 cycles
LLC RQ	ACCESS:     397938	FORWARD:          0	MERGED:          0	TO_CACHE:     397933
LLC WQ	ACCESS:      73356	FORWARD:          5	MERGED:          0	TO_CACHE:      73356
LLC PQ	ACCESS:      74601	FORWARD:          0	MERGED:          0	TO_CACHE:      74601

LLC Dense regions hint to LLC: 0

RAW hits: 1358918
Loads Generated: 12612616
Loads sent to L1D: 11253698
Stores Generated: 6928273
Stores sent to L1D: 6928288
Major fault: 0 Minor fault: 2567
Allocated PAGES: 2567

stream: 
stream:times selected: 1225425
stream:pref_filled: 124335
stream:pref_useful: 27714
stream:pref_late: 8475
stream:misses: 8538
stream:misses_by_poll: 0

CS: 
CS:times selected: 188153
CS:pref_filled: 70202
CS:pref_useful: 45874
CS:pref_late: 9304
CS:misses: 21873
CS:misses_by_poll: 3

CPLX: 
CPLX:times selected: 1036211
CPLX:pref_filled: 23945
CPLX:pref_useful: 6725
CPLX:pref_late: 3259
CPLX:misses: 118010
CPLX:misses_by_poll: 0

NL_L1: 
NL:times selected: 12037
NL:pref_filled: 1429
NL:pref_useful: 242
NL:pref_late: 204
NL:misses: 1457
NL:misses_by_poll: 0

total selections: 2461826
total_filled: 101264
total_useful: 42981
total_late: 23059
total_polluted: 3
total_misses_after_warmup: 786936
conflicts: 5874511

test: 116466

DRAM Statistics
 CHANNEL 0
 RQ ROW_BUFFER_HIT:       9993  ROW_BUFFER_MISS:      17933
 DBUS_CONGESTED:         10
 WQ ROW_BUFFER_HIT:       1276  ROW_BUFFER_MISS:      12257  FULL:          0

 AVG_CONGESTED_CYCLE: 5

CPU 0 Branch Prediction Accuracy: 99.8139% MPKI: 0.34088 Average ROB Occupancy at Mispredict: 87.9631
Branch types
NOT_BRANCH: 40841232 81.6825%
BRANCH_DIRECT_JUMP: 545245 1.09049%
BRANCH_INDIRECT: 181516 0.363032%
BRANCH_CONDITIONAL: 6197918 12.3958%
BRANCH_DIRECT_CALL: 945044 1.89009%
BRANCH_INDIRECT_CALL: 171836 0.343672%
BRANCH_RETURN: 1116886 2.23377%
BRANCH_OTHER: 0 0%

DRAM PAGES: 1048576
Allocated PAGES: 2567
Average_ROB_Occupancy: 57.7161
Average_Decode_Occupancy: 6.74761
Average_FTQ_Occupancy: 3.57891
Indirect max targets: 14 Average targets: 1.15182
Branch_type:  BRANCH_DIRECT_JUMP:  Count Percentage: 2.90115 7.61232 3.32714 7.29825 1.87395 3.03863 0.9803 72.9683 
Branch_type:  BRANCH_INDIRECT:  Count Percentage: 11.7623 3.42909 2.53583 9.67335 3.34915 4.018 2.00982 63.2225 
Branch_type:  BRANCH_CONDITIONAL:  Count Percentage: 21.1288 6.70916 1.7912 4.5187 5.90283 2.8199 0.64694 56.4825 
Branch_type:  BRANCH_DIRECT_CALL:  Count Percentage: 0.73498 1.24578 1.12771 3.7675 2.50496 2.07336 0.439743 88.106 
Branch_type:  BRANCH_INDIRECT_CALL:  Count Percentage: 9.55962 0.568938 2.99533 4.85133 0.969974 2.99416 0.998347 77.0623 
Branch_type:  BRANCH_RETURN:  Count Percentage: 4.2115 3.79209 2.05901 5.53925 7.80682 4.40886 1.0666 71.1159 
Branch_type:  BRANCH_DIRECT_JUMP:  Total Count: 31675 83112 36326 79683 20460 33176 10703 796674 
Branch_type:  BRANCH_INDIRECT:  Total Count: 42822 12484 9232 35217 12193 14628 7317 230169 
Branch_type:  BRANCH_CONDITIONAL:  Total Count: 2618975 831619 222024 560106 731672 349534 80190 7001159 
Branch_type:  BRANCH_DIRECT_CALL:  Total Count: 13819 23423 21203 70836 47098 38983 8268 1656557 
Branch_type:  BRANCH_INDIRECT_CALL:  Total Count: 32681 1945 10240 16585 3316 10236 3413 263449 
Branch_type:  BRANCH_RETURN:  Total Count: 93616 84293 45769 123130 173535 98003 23709 1580809 
Number of unique branch instructions: 10075
Upper 32 bits: 
aaaa
ffff
ffff0000
Unique upper 32 bits: 3
Unique upper 36 bits: 3
Unique upper 40 bits: 5
Unique upper 44 bits: 32
Unique upper 48 bits: 157
Offset_3 4143
Offset_4 261
Offset_5 465
Offset_6 510
Offset_7 588
Offset_8 520
Offset_9 483
Offset_10 388
Offset_11 310
Offset_12 277
Offset_13 210
Offset_14 228
Offset_15 188
Offset_16 225
Offset_17 154
Offset_18 118
Offset_19 239
Offset_20 138
Offset_21 261
Offset_22 395
Offset_23 241
Offset_24 350
Offset_25 88
Offset_47 86
decode_dispatch_called: 21128125 31.5048
Dispatch_width: 0 10680565 50.5514 15.9261
Dispatch_width: 1 673159 3.18608 1.00377
Dispatch_width: 2 935522 4.42785 1.39498
Dispatch_width: 3 643958 3.04787 0.960224
Dispatch_width: 4 1580484 7.48047 2.3567
Dispatch_width: 5 484845 2.29478 0.722966
Dispatch_width: 6 6129592 29.0115 9.14001
Empty_decode_cycles: 45935174 68.4952
ROB_full_cycles: 1355603 2.02138
Starvation_cycles_per_kilo_instr: 595.781
Starvation_cycles_per_kilo_instr_3: 575.128
Starvation_cycles_per_kilo_instr_0: 552.601
Branch_type_1  (3,1)  (4,10)  (5,39)  (6,70)  (7,115)  (8,132)  (9,128)  (10,100)  (11,69)  (12,43)  (13,8)  (14,2)  (15,3)  (16,4)  (18,1)  (19,4)  (20,2)  (21,1)  (22,3)  (23,2)  (24,10)  (25,12) 
Branch_type_2  (3,1)  (5,1)  (8,3)  (9,3)  (12,1)  (13,1)  (14,1)  (16,3)  (17,2)  (20,2)  (21,2)  (23,5)  (24,1)  (47,40) 
Branch_type_3  (3,4141)  (4,251)  (5,421)  (6,425)  (7,443)  (8,325)  (9,268)  (10,157)  (11,123)  (12,50)  (13,7) 
Branch_type_4  (6,3)  (7,8)  (8,25)  (9,52)  (10,61)  (11,61)  (12,99)  (13,89)  (14,101)  (15,89)  (16,100)  (17,69)  (18,53)  (19,117)  (20,71)  (21,141)  (22,210)  (23,136)  (24,200)  (25,72) 
Branch_type_5  (8,2)  (9,1)  (10,4)  (11,5)  (12,3)  (13,14)  (14,16)  (15,11)  (16,20)  (17,11)  (18,16)  (19,13)  (20,11)  (21,13)  (22,42)  (23,26)  (24,41) 
Branch_type_6  (5,4)  (6,12)  (7,22)  (8,33)  (9,31)  (10,66)  (11,52)  (12,81)  (13,91)  (14,108)  (15,85)  (16,98)  (17,72)  (18,48)  (19,105)  (20,52)  (21,104)  (22,140)  (23,72)  (24,98)  (25,4)  (47,46) 
aaaaab1fc620: 2ac9e77e 2aca717c 2aca8eff 2acaf6bc 2acaf9aa 2acaf9f1 2acb1abc 2acb1b7f 2acd4e22 2acdb712 2acf5f9e 2ad0ef44 2ad3f15c 2ad414e6 2ad60e42 2ad8609c 2ad99830 2ada35cc 2ada4676 2ada6612 2adf183e 2adf30e5 2adf5602 2adf785c 2ae11572 2aeb2dcf 2aee101b 2aee1ae1 2aee9456 2b156a8c 2b156b61 2b156bea 2b167f35 2b177656 2b17feec 2b1a3e5a 
aaaaab1fc740: 2aca1fb0 2aca45b3 2aca5aa1 2aca5c69 2aca66f9 2aca9426 2acaeecb 2acf3d2d 2acf3d64 2acf6089 2ad017ea 2ad5e7ef 2ad61064 2ad87373 2ad9bf84 2ad9c093 2ae9b606 2aea9ffa 2aee99f5 2aee9a2c 2aeece4b 
aaaaac68f310: 2ac9ec8c 2ac9fb44 2ac9fbd2 2aca59ab 2acac04c 2acaf6e0 2acaf6ec 2acaf6f9 2acaf700 2acaf708 2acf2d90 2ad3cfbd 2ad3cfc4 2ad3d000 2ad3f35f 2ad4955d 2ad49571 2ad4f3f2 2ad4f400 2ad5f240 2ad5f37c 2ad5f86a 2ad5f86f 2ad5f880 2ad5fc0d 2ad5fc14 2ad5fc21 2ad5fe1b 2ad873bb 2ad873e3 2ad8a6b2 2ad9086e 2ad93096 2ad9bbb2 2ada152c 2ada1554 2ada3332 2ada5522 2adf3130 2adf313c 2adf3a3f 2adf3bd9 2adf5788 2adf7a8d 2ae07f6b 2ae0857a 2ae0857e 2ae08630 2ae08634 2ae08637 2ae08642 2ae0866f 2ae086e4 2ae086ec 2ae08717 2ae0871b 2aee0170 2aee1d38 2aee75f4 2aee7662 2aee85ca 2aee85e4 2aee8eef 2aee9a0a 2af70b84 2af74e8f 2b17d843 
aaaaac690ef0: 2aca598b 2acb111b 2acb175f 2acb1772 2acbfaf4 2acbfb00 2acf374f 2acf6d43 2acfa5c8 2ad3baf1 2ad3d4ac 2ad3d4b8 2ad3f1cf 2ad486b2 2ad5a59b 2ad5fc64 2ad5fcf9 2ad6121c 2ad906e9 2ad907bf 2ad9bada 2ada16ce 2ada1ad5 2ada43df 2ada64c0 2ada72ee 2adeb71a 2adf3bcb 2adf7a38 2adf7c6a 2adf8872 2adf8880 2adf9959 2adf9abe 2ae07f78 2ae08503 2ae08754 2ae12e80 2aea3bea 2aecb509 2aee00b0 2aee2bdd 2aee5467 2aee5601 2aee8f20 2af703fd 2af7048b 2af74e74 2dfba627 
Unique trigger count: 
1 9599
2 511
3 87
4 34
5 11
6 7
7 7
8 1
9 3
10 1
11 2
12 1
13 3
16 2
18 2
19 2
21 1
36 1
49 1
67 1
BTB PER SET UNIQUE ADDR: 4 7 7 4 3 4 8 10 10 2 6 2 8 5 5 4 6 4 7 8 4 8 7 8 8 11 1 7 6 5 10 10 6 3 8 4 4 7 8 4 8 5 6 10 9 7 6 11 11 7 6 3 13 3 4 8 5 5 8 9 4 11 5 8 6 11 8 7 5 7 6 2 6 4 6 7 6 14 5 4 9 7 8 6 7 7 7 9 8 10 10 8 9 6 6 4 10 8 4 7 8 6 9 9 5 8 7 8 7 5 7 4 4 8 7 11 3 7 6 2 7 9 4 2 6 4 5 6 10 5 10 3 11 4 8 6 5 2 6 8 8 7 6 6 3 10 4 8 10 6 6 11 6 10 5 8 6 8 6 10 10 6 10 5 9 5 3 4 14 5 5 3 7 6 3 2 5 6 9 4 6 6 9 7 6 10 5 6 7 9 5 8 6 6 6 10 10 3 10 5 4 6 9 3 8 4 5 7 6 2 3 6 9 9 6 6 4 9 9 6 6 2 6 6 6 8 13 7 2 9 14 8 4 3 6 8 9 5 3 4 5 3 9 8 14 10 2 5 5 5 8 10 6 7 5 12 4 6 9 5 8 5 7 4 9 14 6 4 7 5 7 6 4 8 10 9 5 3 4 8 7 5 10 5 9 9 7 7 9 4 6 7 4 10 6 5 6 10 6 6 6 6 4 4 6 5 6 4 11 9 6 3 8 3 6 4 9 14 7 4 6 11 5 7 5 5 6 9 4 2 7 2 6 7 10 5 6 6 7 1 5 6 2 8 6 6 3 6 8 5 5 9 8 6 8 6 7 3 7 5 6 10 6 8 11 8 4 3 4 4 8 4 6 5 7 4 11 6 5 10 9 7 7 12 6 4 8 5 5 3 10 5 8 4 7 3 7 6 2 8 6 4 7 5 5 6 8 5 5 3 4 4 10 4 2 5 8 4 2 6 2 5 5 7 10 6 3 2 4 7 4 4 15 5 8 10 6 6 6 4 4 6 8 4 6 8 4 7 6 3 6 4 5 3 9 4 4 8 9 5 5 4 6 10 5 5 10 3 6 7 2 6 9 7 5 3 10 5 2 3 5 3 3 4 3 7 10 3 6 2 10 4 5 9 1 12 4 7 5 4 11 3 3 3 2 5 5 3 2 7 7 4 5 9 3 3 2 11 6 9 6 5 7 4 11 10 4 9 9 7 6 6 4 9 4 7 4 1 6 4 4 8 9 3 8 5 10 12 12 11 5 8 7 8 2 6 8 3 6 3 11 4 8 5 5 5 9 7 9 7 9 3 9 12 8 7 6 11 3 9 13 5 1 6 4 3 3 13 8 6 7 9 3 5 4 5 6 6 5 5 9 5 9 9 8 6 5 9 8 5 9 6 7 5 8 5 7 6 5 7 8 6 9 3 5 9 7 8 4 6 8 7 6 6 7 4 5 4 5 3 10 8 5 6 2 3 6 6 9 7 8 4 10 4 6 2 9 5 6 8 11 3 6 11 8 8 7 6 5 10 7 6 6 6 11 9 7 6 8 6 7 11 9 7 8 8 7 8 8 6 3 7 2 4 4 8 10 8 7 8 3 11 4 5 7 10 4 4 5 5 7 7 6 5 5 7 9 6 1 8 4 3 6 3 4 1 3 10 2 12 7 9 7 2 6 7 6 3 6 4 4 8 5 10 4 3 5 3 5 6 6 3 4 6 2 5 4 10 9 4 5 6 6 7 7 6 14 5 6 3 9 6 0 6 8 5 6 10 3 4 8 5 4 6 10 9 9 6 4 8 3 10 5 6 6 12 11 4 5 4 12 4 8 3 7 6 7 9 5 6 4 4 6 3 4 6 1 5 5 10 6 4 10 4 5 4 5 3 6 6 8 3 7 4 10 5 4 4 6 4 5 4 7 5 4 9 8 5 7 4 8 7 7 9 6 10 7 4 8 5 6 7 4 4 14 5 6 8 9 8 4 6 6 10 7 2 2 6 7 4 5 6 6 6 9 5 7 4 4 7 8 4 5 8 6 3 10 10 4 3 12 8 5 5 7 6 5 10 6 8 10 6 4 3 2 7 4 4 7 6 9 7 10 6 8 8 7 4 5 12 5 4 11 10 5 8 10 10 2 8 8 8 5 4 6 7 9 7 7 3 9 2 13 7 3 5 9 11 6 9 5 7 11 5 3 9 10 8 9 4 2 5 3 8 10 5 8 5 4 7 12 6 5 5 5 6 4 5 8 6 8 8 7 11 5 10 6 11 5 6 3 5 6 5 7 7 7 6 6 4 8 4 9 6 10 5 9 4 3 7 10 6 13 5 
BTB PER SET COUNT: 4 6832 6839 4 3 4 2685 6832 8301 3 1460 2 3407 1458 6 4 1953 5 2076 6467 4 2952 999 3417 7815 9767 1 765 3057 28 9758 6993 5367 4 4296 6 2931 2442 1586 4 2443 744 38 3656 10735 760 2430 7800 9009 3171 620 3 14154 3 11 3403 993 7311 6349 5095 4 8912 7 3407 28 7349 2082 1951 1463 2717 3412 2 33 4 1339 2917 751 9168 987 4 3078 5378 2679 2673 1926 4145 1955 2934 9265 4814 7660 3913 3893 4401 1952 7 6812 2921 5 981 2455 1094 3419 5332 8 6349 1950 3721 3403 1458 2429 6 4 4990 23 10608 4 1962 1580 2 3403 5880 4 3 3166 5 6 5371 10527 1943 4894 3 10376 7 8784 1942 1457 2 34 8296 6632 7931 1474 4901 3 4162 4 6829 7690 2428 1563 10230 2916 11709 295 5837 7806 8290 2194 8428 11765 2452 10097 2445 7818 3898 3 4 13662 1942 5 3 1122 182 3 2 29 1945 6636 4 319 1459 9765 400 1468 10245 3918 26 6348 6517 36 7109 1461 2917 2917 2924 9786 3 1967 6 4 528 6350 4 5385 5 1457 4400 755 2 4 3434 2327 6368 5250 5372 4 4859 1231 7316 513 2 1968 6830 6325 6349 12290 5387 3 11219 11667 6842 4 4 26 7810 3888 7 3 4 10 4 10728 2385 13662 7511 2 3910 974 8 8786 9390 6835 1955 18 8201 5 3169 3902 1461 3769 989 2864 4 5604 12935 1475 5 2438 2425 2923 2433 4 7318 3898 2922 1937 3 4 3408 3187 9 2975 870 9270 8777 2917 3655 2002 4 1944 3402 490 7819 2919 12 30 7795 2437 4397 2912 1946 4 4 2194 12 999 4 7564 5113 1235 3 3143 3 1234 7 3891 9274 2923 6 3413 5022 987 7310 42 2425 28 3581 6 2 4863 3 1197 2195 10146 8 3887 2432 2441 1 14 996 2 4152 1514 1010 3 994 3254 8 5 7357 6349 4217 2948 24 9269 4 6340 1975 2428 4439 30 3163 3925 7120 6 3 5 4 2921 5 2190 743 2663 4 8263 39 1457 4140 3412 3401 2916 11087 29 5 1966 988 741 3 4326 20 3889 6 5375 4 3203 3940 2 1959 2796 4 2841 1461 804 24 4633 6 6 2332 4 4 4381 4 978 973 1806 4 5 1860 2 976 667 1984 5876 1007 8 2 4 2438 151 4 8796 1817 6596 9300 1472 5866 2916 4 5 985 3051 4 1948 3171 4 3404 18 3 2910 4 8 3 9357 5 4 1506 7329 18 981 4 2181 7329 1006 24 8486 3 31 1471 2 1109 7319 849 124 3 26618 985 2 3 29 3 3 490 3 2503 2640 375 1824 2 6555 4 7 6839 1 10370 6 2437 6 4 11515 14 3 3 2 1462 18 3 2 56 2519 4 284 6844 5 3 2 12193 28 2933 2429 1472 2437 433 4560 6829 4 5857 7813 5858 10 2582 4 537 4 2914 5 1 1001 4 4 6344 6893 6 5138 21 2114 4633 10731 10711 1461 7808 1503 6817 2 1932 4755 4 2426 4 10250 4 6352 9 3420 973 6351 2698 7807 2935 7327 4 8291 11225 5378 2925 4633 9758 5 7098 11824 373 1 2912 1466 3 4 10725 2927 24 4627 3409 4 1950 981 1941 46 1948 10 8 6746 2425 9271 4397 5856 2930 9 8166 7810 1455 3890 1721 2432 3426 7805 8 4529 1943 25 5377 2795 2241 7806 3 1481 4380 2440 6352 5 2432 6342 10238 1954 36 8289 4 1000 4 974 3 10737 4012 7 31 2 7 1467 2430 8308 22 5863 4 12690 7 975 3 9765 1457 8285 3893 16089 4 1952 11957 6348 3898 5372 991 24 4380 4390 7793 2431 2911 10234 4085 2923 2431 7457 2433 8295 10683 2556 6830 20972 3626 2441 6827 2979 2433 4 3006 2 6 4 2431 8300 2432 1479 1507 3 9755 4 2433 5548 7319 4 1467 1942 2435 5857 2437 3920 973 2912 3294 9273 3681 1 7315 5 4 4391 3 6 1 3 8232 2 10252 6832 9629 8781 2 1953 4834 4148 5 1948 4 4 5812 23 12684 4 5 2434 3 1458 3400 7318 3 4 618 2 1457 4 9730 10250 980 9 7313 5850 2201 3919 2188 12689 653 2448 3 3096 770 0 2017 76 1470 4888 4349 3 4 4876 14 4 5871 5641 7326 3380 134 428 3886 3 4257 10 1954 2548 10759 7882 4 1941 4 9718 5 7342 5 3106 3803 4894 9208 12 39 4 4 1452 492 6 29 2 50 7 7235 659 4 5861 376 1457 6 1717 3 2432 2431 4155 3 7322 4 10706 2203 4 4 2917 4 2165 4 1946 5868 4 3171 6439 1458 1491 6 8778 3244 2916 5382 2426 12193 2917 4 6821 3924 1788 7314 4 4 10744 999 756 9751 10237 8254 4 5865 2917 6858 5359 2 3 1468 54 4 7 8294 44 3687 6877 1075 3405 4 4 3418 6835 4 9 2822 1581 3 3484 7081 5 3 5467 4625 122 67 2682 2467 33 5596 191 3900 3378 1475 5 3 2 3402 4 975 7804 2833 6620 1951 8299 4891 6490 3244 2438 5 1941 3960 29 492 8043 5600 1458 3888 7292 8782 3 3406 3183 3862 8 980 1364 3403 2454 2404 5278 3 6381 2 10288 3904 4 1698 8122 11213 3472 5120 1942 1954 9758 4890 5 3555 5282 2803 3415 4 2 1458 3 8183 5842 1800 7326 19 4 2438 9759 38 492 514 1941 2437 4 8 4274 2433 6340 1966 3404 9226 6 3413 2427 5857 6 1476 3 10 1445 6 1951 39 5853 13 1949 4 7818 4 10257 1879 6225 6 2816 7 4 39 4881 2171 6590 23 
