
*** ChampSim Multicore Out-of-Order Simulator ***

Warmup Instructions: 50000000
Simulation Instructions: 50000000
Number of CPUs: 1
LLC sets: 2048
LLC ways: 16
Off-chip DRAM Size: 4096 MB Channels: 1 Width: 64-bit Data Rate: 6400 MT/s
CPU 0 runs ./micro_traces/srv674.trace.gz
.gz
ITLB has LRU replacement policy
DTLB has LRU replacement policy
STLB has LRU replacement policy
FDIP Prefetcher at L1I
L1I has LRU replacement policy
L1D has LRU replacement policy
Initialize SRRIP state for L2C
Initialize DRRIP state for LLC
Heartbeat_Variant_0 : 1034 0.252441 per_variant_size: 0 1034 0 0 0 0 0 0 0 
Heartbeat_Variant_1 : 1194 0.291504 per_variant_size: 0 842 352 0 0 0 0 0 0 
Heartbeat_Variant_2 : 1560 0.380859 per_variant_size: 0 972 417 118 53 0 0 0 0 
Heartbeat_Variant_3 : 0 0 per_variant_size: 0 0 0 0 0 0 0 0 0 
Heartbeat_Variant_0_evicts 0 : 13928 1 : 10002 2 : 12069 3 : 0 
Heartbeat_Variant_1_evicts 0 : 9897 1 : 0 2 : 11691 3 : 0 
Heartbeat_Variant_2_evicts 0 : 12094 1 : 11622 2 : 0 3 : 0 
Heartbeat_Variant_3_evicts 0 : 0 1 : 0 2 : 0 3 : 0 
Heartbeat CPU 0 instructions: 10000003 cycles: 2797671 heartbeat IPC: 3.5744 cumulative IPC: 3.5744 (Simulation time: 0 hr 2 min 10 sec) 
Heartbeat_Variant_0 : 1064 0.259766 per_variant_size: 0 1064 0 0 0 0 0 0 0 
Heartbeat_Variant_1 : 1202 0.293457 per_variant_size: 0 828 374 0 0 0 0 0 0 
Heartbeat_Variant_2 : 1574 0.384277 per_variant_size: 0 942 440 135 57 0 0 0 0 
Heartbeat_Variant_3 : 0 0 per_variant_size: 0 0 0 0 0 0 0 0 0 
Heartbeat_Variant_0_evicts 0 : 14276 1 : 10304 2 : 12046 3 : 0 
Heartbeat_Variant_1_evicts 0 : 10234 1 : 0 2 : 11731 3 : 0 
Heartbeat_Variant_2_evicts 0 : 12095 1 : 11670 2 : 0 3 : 0 
Heartbeat_Variant_3_evicts 0 : 0 1 : 0 2 : 0 3 : 0 
Heartbeat CPU 0 instructions: 20000000 cycles: 5594802 heartbeat IPC: 3.57509 cumulative IPC: 3.57475 (Simulation time: 0 hr 4 min 11 sec) 
Heartbeat_Variant_0 : 1062 0.259277 per_variant_size: 0 1062 0 0 0 0 0 0 0 
Heartbeat_Variant_1 : 1219 0.297607 per_variant_size: 0 842 377 0 0 0 0 0 0 
Heartbeat_Variant_2 : 1559 0.380615 per_variant_size: 0 924 440 133 62 0 0 0 0 
Heartbeat_Variant_3 : 0 0 per_variant_size: 0 0 0 0 0 0 0 0 0 
Heartbeat_Variant_0_evicts 0 : 13744 1 : 9961 2 : 12106 3 : 0 
Heartbeat_Variant_1_evicts 0 : 9969 1 : 0 2 : 11858 3 : 0 
Heartbeat_Variant_2_evicts 0 : 12100 1 : 11849 2 : 0 3 : 0 
Heartbeat_Variant_3_evicts 0 : 0 1 : 0 2 : 0 3 : 0 
Heartbeat CPU 0 instructions: 30000001 cycles: 8391508 heartbeat IPC: 3.57564 cumulative IPC: 3.57504 (Simulation time: 0 hr 6 min 17 sec) 
Heartbeat_Variant_0 : 1069 0.260986 per_variant_size: 0 1069 0 0 0 0 0 0 0 
Heartbeat_Variant_1 : 1207 0.294678 per_variant_size: 0 812 395 0 0 0 0 0 0 
Heartbeat_Variant_2 : 1579 0.385498 per_variant_size: 0 933 450 137 59 0 0 0 0 
Heartbeat_Variant_3 : 0 0 per_variant_size: 0 0 0 0 0 0 0 0 0 
Heartbeat_Variant_0_evicts 0 : 13986 1 : 9903 2 : 11874 3 : 0 
Heartbeat_Variant_1_evicts 0 : 9852 1 : 0 2 : 11400 3 : 0 
Heartbeat_Variant_2_evicts 0 : 11920 1 : 11367 2 : 0 3 : 0 
Heartbeat_Variant_3_evicts 0 : 0 1 : 0 2 : 0 3 : 0 
Heartbeat CPU 0 instructions: 40000000 cycles: 11187959 heartbeat IPC: 3.57596 cumulative IPC: 3.57527 (Simulation time: 0 hr 8 min 22 sec) 
Heartbeat_Variant_0 : 1065 0.26001 per_variant_size: 0 1065 0 0 0 0 0 0 0 
Heartbeat_Variant_1 : 1231 0.300537 per_variant_size: 0 851 380 0 0 0 0 0 0 
Heartbeat_Variant_2 : 1560 0.380859 per_variant_size: 0 923 445 128 64 0 0 0 0 
Heartbeat_Variant_3 : 0 0 per_variant_size: 0 0 0 0 0 0 0 0 0 
Heartbeat_Variant_0_evicts 0 : 13900 1 : 9978 2 : 11776 3 : 0 
Heartbeat_Variant_1_evicts 0 : 9999 1 : 0 2 : 11359 3 : 0 
Heartbeat_Variant_2_evicts 0 : 11759 1 : 11357 2 : 0 3 : 0 
Heartbeat_Variant_3_evicts 0 : 0 1 : 0 2 : 0 3 : 0 
Heartbeat CPU 0 instructions: 50000000 cycles: 13985215 heartbeat IPC: 3.57493 cumulative IPC: 3.5752 (Simulation time: 0 hr 10 min 23 sec) 

Warmup complete CPU 0 instructions: 50000004 cycles: 13985216 (Simulation time: 0 hr 10 min 23 sec) 

Cycle: 20000000 FTQ IN: 56491999 FTQ occupancy: 18.0148 DECODE IN: 56491956 DECODE occupancy: 46.029 ROB IN: 56491954 ROB occupancy: 277.265 ROB OUT: 56491907
Heartbeat_Variant_0 : 1056 0.257812 per_variant_size: 0 1056 0 0 0 0 0 0 0 
Heartbeat_Variant_1 : 1247 0.304443 per_variant_size: 0 871 376 0 0 0 0 0 0 
Heartbeat_Variant_2 : 1560 0.380859 per_variant_size: 0 925 445 131 59 0 0 0 0 
Heartbeat_Variant_3 : 0 0 per_variant_size: 0 0 0 0 0 0 0 0 0 
Heartbeat_Variant_0_evicts 0 : 14224 1 : 10128 2 : 12000 3 : 0 
Heartbeat_Variant_1_evicts 0 : 10063 1 : 0 2 : 11520 3 : 0 
Heartbeat_Variant_2_evicts 0 : 12074 1 : 11442 2 : 0 3 : 0 
Heartbeat_Variant_3_evicts 0 : 0 1 : 0 2 : 0 3 : 0 
Heartbeat CPU 0 instructions: 60000002 cycles: 23210905 heartbeat IPC: 1.08393 cumulative IPC: 1.08393 (Simulation time: 0 hr 12 min 13 sec) 
Cycle: 30000000 FTQ IN: 10679495 FTQ occupancy: 6.0748 DECODE IN: 10679530 DECODE occupancy: 12.6879 ROB IN: 10679532 ROB occupancy: 107.121 ROB OUT: 10679575
Heartbeat_Variant_0 : 1087 0.265381 per_variant_size: 0 1087 0 0 0 0 0 0 0 
Heartbeat_Variant_1 : 1269 0.309814 per_variant_size: 0 853 416 0 0 0 0 0 0 
Heartbeat_Variant_2 : 1563 0.381592 per_variant_size: 0 866 476 151 70 0 0 0 0 
Heartbeat_Variant_3 : 0 0 per_variant_size: 0 0 0 0 0 0 0 0 0 
Heartbeat_Variant_0_evicts 0 : 14332 1 : 10193 2 : 12239 3 : 0 
Heartbeat_Variant_1_evicts 0 : 10112 1 : 0 2 : 11946 3 : 0 
Heartbeat_Variant_2_evicts 0 : 12298 1 : 11869 2 : 0 3 : 0 
Heartbeat_Variant_3_evicts 0 : 0 1 : 0 2 : 0 3 : 0 
Heartbeat CPU 0 instructions: 70000003 cycles: 32597995 heartbeat IPC: 1.06529 cumulative IPC: 1.07453 (Simulation time: 0 hr 13 min 55 sec) 
Cycle: 40000000 FTQ IN: 10933960 FTQ occupancy: 6.11451 DECODE IN: 10933966 DECODE occupancy: 12.7388 ROB IN: 10933906 ROB occupancy: 107.342 ROB OUT: 10933810
Heartbeat_Variant_0 : 1069 0.260986 per_variant_size: 0 1069 0 0 0 0 0 0 0 
Heartbeat_Variant_1 : 1267 0.309326 per_variant_size: 0 844 423 0 0 0 0 0 0 
Heartbeat_Variant_2 : 1583 0.386475 per_variant_size: 0 895 466 160 62 0 0 0 0 
Heartbeat_Variant_3 : 0 0 per_variant_size: 0 0 0 0 0 0 0 0 0 
Heartbeat_Variant_0_evicts 0 : 13814 1 : 10185 2 : 12175 3 : 0 
Heartbeat_Variant_1_evicts 0 : 10172 1 : 0 2 : 11861 3 : 0 
Heartbeat_Variant_2_evicts 0 : 12206 1 : 11850 2 : 0 3 : 0 
Heartbeat_Variant_3_evicts 0 : 0 1 : 0 2 : 0 3 : 0 
Heartbeat CPU 0 instructions: 80000003 cycles: 41713803 heartbeat IPC: 1.097 cumulative IPC: 1.08192 (Simulation time: 0 hr 15 min 48 sec) 
Cycle: 50000000 FTQ IN: 10840794 FTQ occupancy: 6.32173 DECODE IN: 10840771 DECODE occupancy: 13.2247 ROB IN: 10840831 ROB occupancy: 110.968 ROB OUT: 10840884
Heartbeat_Variant_0 : 1063 0.259521 per_variant_size: 0 1063 0 0 0 0 0 0 0 
Heartbeat_Variant_1 : 1279 0.312256 per_variant_size: 0 858 421 0 0 0 0 0 0 
Heartbeat_Variant_2 : 1578 0.385254 per_variant_size: 0 888 460 161 69 0 0 0 0 
Heartbeat_Variant_3 : 0 0 per_variant_size: 0 0 0 0 0 0 0 0 0 
Heartbeat_Variant_0_evicts 0 : 13792 1 : 10102 2 : 11991 3 : 0 
Heartbeat_Variant_1_evicts 0 : 10093 1 : 0 2 : 11454 3 : 0 
Heartbeat_Variant_2_evicts 0 : 12006 1 : 11433 2 : 0 3 : 0 
Heartbeat_Variant_3_evicts 0 : 0 1 : 0 2 : 0 3 : 0 
Heartbeat CPU 0 instructions: 90000000 cycles: 50953016 heartbeat IPC: 1.08234 cumulative IPC: 1.08202 (Simulation time: 0 hr 17 min 33 sec) 
Cycle: 60000000 FTQ IN: 11027697 FTQ occupancy: 6.25789 DECODE IN: 11027722 DECODE occupancy: 13.1738 ROB IN: 11027722 ROB occupancy: 109.709 ROB OUT: 11027721
Heartbeat_Variant_0 : 1057 0.258057 per_variant_size: 0 1057 0 0 0 0 0 0 0 
Heartbeat_Variant_1 : 1286 0.313965 per_variant_size: 0 873 413 0 0 0 0 0 0 
Heartbeat_Variant_2 : 1577 0.38501 per_variant_size: 0 909 442 161 65 0 0 0 0 
Heartbeat_Variant_3 : 0 0 per_variant_size: 0 0 0 0 0 0 0 0 0 
Heartbeat_Variant_0_evicts 0 : 13757 1 : 10094 2 : 11777 3 : 0 
Heartbeat_Variant_1_evicts 0 : 10092 1 : 0 2 : 11561 3 : 0 
Heartbeat_Variant_2_evicts 0 : 11785 1 : 11552 2 : 0 3 : 0 
Heartbeat_Variant_3_evicts 0 : 0 1 : 0 2 : 0 3 : 0 
Heartbeat CPU 0 instructions: 100000003 cycles: 60023974 heartbeat IPC: 1.10242 cumulative IPC: 1.08604 (Simulation time: 0 hr 19 min 12 sec) 
Finished CPU 0 instructions: 50000003 cycles: 46038759 cumulative IPC: 1.08604 (Simulation time: 0 hr 19 min 12 sec) 

ChampSim completed all CPUs

Region of Interest Statistics

CPU 0 cumulative IPC: 1.08604 instructions: 50000003 cycles: 46038759
 Fetch stage stalled: 72.61  Sim cycles: 46038759 fetch stall cycle: 33428764
 Empty decode stage: 64.0874  Sim cycles: 46038759 fetch stall cycle: 29505054
ITLB TOTAL     ACCESS:    5735028  HIT:    5245099  MISS:     489929  HIT %:    91.4573  MISS %:    8.54275   MPKI: 9.79858
ITLB LOAD TRANSLATION INSTRUCTION	ACCESS:    5632288  HIT:    5142359  MISS:     489929  HIT %:    91.3014  MISS %:    8.69858  MPKI: 9.79858
ITLB TRANSLATION FROM L1D PREFETCHER INSTRUCTION	ACCESS:     102740  HIT:     102740  MISS:          0  HIT %:        100  MISS %:          0  MPKI: 0

ITLB AVERAGE MISS LATENCY: 9.05366 cycles
ITLB RQ	ACCESS:    7526371	FORWARD:          0	MERGED:    1355748	TO_CACHE:    6170623

DTLB TOTAL     ACCESS:    9400689  HIT:    8927309  MISS:     473380  HIT %:    94.9644  MISS %:    5.03559   MPKI: 9.4676
DTLB LOAD TRANSLATION DATA	ACCESS:    9400689  HIT:    8927309  MISS:     473380  HIT %:    94.9644  MISS %:    5.03559  MPKI: 9.4676

DTLB AVERAGE MISS LATENCY: 9.34357 cycles
DTLB RQ	ACCESS:   13663443	FORWARD:          0	MERGED:    4229069	TO_CACHE:    9434374

STLB TOTAL     ACCESS:    1217585  HIT:    1215544  MISS:       2041  HIT %:    99.8324  MISS %:   0.167627   MPKI: 0.04082
STLB LOAD TRANSLATION INSTRUCTION	ACCESS:     489929  HIT:     489701  MISS:        228  HIT %:    99.9535  MISS %:  0.0465374  MPKI: 0.00456
STLB LOAD TRANSLATION DATA	ACCESS:     473052  HIT:     471260  MISS:       1792  HIT %:    99.6212  MISS %:   0.378817  MPKI: 0.03584
STLB TRANSLATION FROM L1D PREFETCHER DATA	ACCESS:     254604  HIT:     254583  MISS:         21  HIT %:    99.9918  MISS %:  0.0082481  MPKI: 0.00042

STLB AVERAGE MISS LATENCY: 81.1215 cycles
STLB RQ	ACCESS:    1338450	FORWARD:          0	MERGED:     120816	TO_CACHE:    1217634

STLB Hit, L1D data hit: 0
STLB Hit, L2C data hit: 0
STLB Hit, LLC data hit: 0
STLB Hit, LLC data miss: 0
STLB STLB hints to L2: 0
L1D TOTAL     ACCESS:   13435119  HIT:   12328785  MISS:    1106334  HIT %:    91.7654  MISS %:    8.23464   MPKI: 22.1267
L1D LOAD DATA	ACCESS:    6864246  HIT:    6137117  MISS:     727129  HIT %:     89.407  MISS %:     10.593  MPKI: 14.5426
L1D RFO DATA	ACCESS:    6236794  HIT:    5951479  MISS:     285315  HIT %:    95.4253  MISS %:    4.57471  MPKI: 5.7063
L1D PREFETCH DATA	ACCESS:     334079  HIT:     240189  MISS:      93890  HIT %:    71.8959  MISS %:    28.1041  MPKI: 1.8778

L1D PREFETCH  REQUESTED:     750547  ISSUED:     750547  USEFUL:      33975  USELESS:      68117
L1D USEFUL LOAD PREFETCHES:      33975 PREFETCH ISSUED TO LOWER LEVEL:     102196  ACCURACY: 33.2449
 TIMELY PREFETCHES:      33975 LATE PREFETCHES: 8230 DROPPED PREFETCHES: 5
L1D AVERAGE MISS LATENCY: 274319 cycles
L1D RQ	ACCESS:   10935306	FORWARD:          0	MERGED:    3875887	TO_CACHE:    6896694
L1D WQ	ACCESS:    6936973	FORWARD:     162990	MERGED:     170224	TO_CACHE:    6766749
L1D PQ	ACCESS:     375406	FORWARD:          0	MERGED:          0	TO_CACHE:     375141

L1D UNIQUE REGIONS ACCESSED: 0
L1D REGIONS CONFLICTS: 0
L1D Cross Page Prefetch Requests: 7023
L1D Same Page Prefetch Requests: 756862
L1D ROI Sum of L1D PQ occupancy: 4774772
L1D PREFETCHES PUSHED FROM L2C: 0
L1I TOTAL     ACCESS:    7019035  HIT:    4273833  MISS:    2745202  HIT %:    60.8892  MISS %:    39.1108   MPKI: 54.904
L1I LOAD INSTRUCTION	ACCESS:    6536155  HIT:    3790953  MISS:    2745202  HIT %:    57.9997  MISS %:    42.0003  MPKI: 54.904
L1I PREFETCH INSTRUCTION	ACCESS:     482880  HIT:     482880  MISS:          0  HIT %:        100  MISS %:          0  MPKI: 0

L1I PREFETCH  REQUESTED:    1058928  ISSUED:    1058928  USEFUL:          0  USELESS:          0
L1I USEFUL LOAD PREFETCHES:          0 PREFETCH ISSUED TO LOWER LEVEL:          0  ACCURACY: -nan
 TIMELY PREFETCHES:          0 LATE PREFETCHES: 0 DROPPED PREFETCHES: 0
L1I AVERAGE MISS LATENCY: 17.2259 cycles
L1I RQ	ACCESS:    9432650	FORWARD:          0	MERGED:    2660488	TO_CACHE:    6772162
L1I PQ	ACCESS:    1058928	FORWARD:          0	MERGED:     304719	TO_CACHE:     754209

L1BTB TOTAL     ACCESS:    5671740  HIT:    2061989  MISS:    3609751  HIT %:    36.3555  MISS %:    63.6445   MPKI: 72.195
L1BTB BRANCH_DIRECT_JUMP	ACCESS:     549503  HIT:     146612  MISS:     402891	AVERAGE STALL: 34.9509
L1BTB BRANCH_INDIRECT	ACCESS:     183944  HIT:      66802  MISS:     117142	AVERAGE STALL: 83.3108
L1BTB BRANCH_CONDITIONAL	ACCESS:    2721320  HIT:    1433627  MISS:    1287693	AVERAGE STALL: 35.4668
L1BTB BRANCH_DIRECT_CALL	ACCESS:     938188  HIT:     104849  MISS:     833339	AVERAGE STALL: 36.8582
L1BTB BRANCH_INDIRECT_CALL	ACCESS:     170287  HIT:      20707  MISS:     149580	AVERAGE STALL: 108.889
L1BTB BRANCH_RETURN	ACCESS:    1108498  HIT:     289392  MISS:     819106	AVERAGE STALL: 36.4393
L1BTB BRANCH_OTHER ACCESS:          0  HIT:          0  MISS:          0	AVERAGE STALL: -nan
L1BTB TOTAL ROB OCCUPANCY AT BTB MISS: 12.831

L2BTB TOTAL     ACCESS:    3584144  HIT:    3086401  MISS:     497743  HIT %:    86.1126  MISS %:    13.8874   MPKI: 9.95486
L2BTB BRANCH_DIRECT_JUMP	ACCESS:     398610  HIT:     347383  MISS:      51227	AVERAGE STALL: 34.9509
L2BTB BRANCH_INDIRECT	ACCESS:     106859  HIT:      97990  MISS:       8869	AVERAGE STALL: 83.3108
L2BTB BRANCH_CONDITIONAL	ACCESS:    1287693  HIT:    1144027  MISS:     143666	AVERAGE STALL: 35.4668
L2BTB BRANCH_DIRECT_CALL	ACCESS:     833339  HIT:     671742  MISS:     161597	AVERAGE STALL: 36.8582
L2BTB BRANCH_INDIRECT_CALL	ACCESS:     139930  HIT:     105676  MISS:      34254	AVERAGE STALL: 108.889
L2BTB BRANCH_RETURN	ACCESS:     817713  HIT:     719583  MISS:      98130	AVERAGE STALL: 36.4393
L2BTB BRANCH_OTHER ACCESS:          0  HIT:          0  MISS:          0	AVERAGE STALL: -nan
L2BTB TOTAL ROB OCCUPANCY AT BTB MISS: 93.0532

L2C TOTAL     ACCESS:    4454733  HIT:    3960046  MISS:     494687  HIT %:    88.8952  MISS %:    11.1048   MPKI: 9.89374
L2C LOAD INSTRUCTION	ACCESS:    2745202  HIT:    2485954  MISS:     259248  HIT %:    90.5563  MISS %:    9.44368  MPKI: 5.18496
L2C LOAD TRANSLATION INSTRUCTION	ACCESS:        272  HIT:         86  MISS:        186  HIT %:    31.6176  MISS %:    68.3824  MPKI: 0.00372
L2C LOAD DATA	ACCESS:     718872  HIT:     636280  MISS:      82592  HIT %:    88.5109  MISS %:    11.4891  MPKI: 1.65184
L2C RFO DATA	ACCESS:     285205  HIT:     227340  MISS:      57865  HIT %:    79.7111  MISS %:    20.2889  MPKI: 1.1573
L2C PREFETCH DATA	ACCESS:     186409  HIT:     109856  MISS:      76553  HIT %:    58.9328  MISS %:    41.0672  MPKI: 1.53106
L2C WRITEBACK DATA	ACCESS:     516842  HIT:     500004  MISS:      16838  HIT %:    96.7421  MISS %:    3.25786  MPKI: 0.33676
L2C LOAD TRANSLATION DATA	ACCESS:       1884  HIT:        498  MISS:       1386  HIT %:    26.4331  MISS %:    73.5669  MPKI: 0.02772
L2C TRANSLATION FROM L1D PREFETCHER DATA	ACCESS:         47  HIT:         28  MISS:         19  HIT %:    59.5745  MISS %:    40.4255  MPKI: 0.00038

L2C PREFETCH  REQUESTED:      92530  ISSUED:      92530  USEFUL:       8545  USELESS:      68549
L2C USEFUL LOAD PREFETCHES:       8545 PREFETCH ISSUED TO LOWER LEVEL:      77007  ACCURACY: 11.0964
 TIMELY PREFETCHES:       8545 LATE PREFETCHES: 454 DROPPED PREFETCHES: 0
L2C AVERAGE MISS LATENCY: 38.6653 cycles
L2C RQ	ACCESS:    3751543	FORWARD:          0	MERGED:          0	TO_CACHE:    3751482
L2C WQ	ACCESS:     516842	FORWARD:         61	MERGED:          0	TO_CACHE:     516842
L2C PQ	ACCESS:     194726	FORWARD:          0	MERGED:       3571	TO_CACHE:     191155

L2C Dense regions hint from L2: 0
PSCL5 TOTAL     ACCESS:       4102  HIT:       2051  MISS:       2051  HIT %:         50  MISS %:         50   MPKI: 0.04102
PSCL5 LOAD TRANSLATION INSTRUCTION	ACCESS:       4010  HIT:       2005  MISS:       2005  HIT %:         50  MISS %:         50  MPKI: 0.0401
PSCL5 TRANSLATION FROM L1D PREFETCHER INSTRUCTION	ACCESS:         92  HIT:         46  MISS:         46  HIT %:         50  MISS %:         50  MPKI: 0.00092


PSCL4 TOTAL     ACCESS:       3961  HIT:       1974  MISS:       1987  HIT %:    49.8359  MISS %:    50.1641   MPKI: 0.03974
PSCL4 LOAD TRANSLATION INSTRUCTION	ACCESS:       2045  HIT:       1928  MISS:        117  HIT %:    94.2787  MISS %:    5.72127  MPKI: 0.00234
PSCL4 TRANSLATION FROM L1D PREFETCHER INSTRUCTION	ACCESS:         48  HIT:         46  MISS:          2  HIT %:    95.8333  MISS %:    4.16667  MPKI: 4e-05
PSCL4 LOAD TRANSLATION DATA	ACCESS:       1824  HIT:          0  MISS:       1824  HIT %:          0  MISS %:        100  MPKI: 0.03648
PSCL4 TRANSLATION FROM L1D PREFETCHER DATA	ACCESS:         44  HIT:          0  MISS:         44  HIT %:          0  MISS %:        100  MPKI: 0.00088


PSCL3 TOTAL     ACCESS:       4051  HIT:       2019  MISS:       2032  HIT %:    49.8395  MISS %:    50.1605   MPKI: 0.04064
PSCL3 LOAD TRANSLATION INSTRUCTION	ACCESS:       2090  HIT:       1973  MISS:        117  HIT %:    94.4019  MISS %:    5.59809  MPKI: 0.00234
PSCL3 TRANSLATION FROM L1D PREFETCHER INSTRUCTION	ACCESS:         48  HIT:         46  MISS:          2  HIT %:    95.8333  MISS %:    4.16667  MPKI: 4e-05
PSCL3 LOAD TRANSLATION DATA	ACCESS:       1869  HIT:          0  MISS:       1869  HIT %:          0  MISS %:        100  MPKI: 0.03738
PSCL3 TRANSLATION FROM L1D PREFETCHER DATA	ACCESS:         44  HIT:          0  MISS:         44  HIT %:          0  MISS %:        100  MPKI: 0.00088


PSCL2 TOTAL     ACCESS:       3970  HIT:       1920  MISS:       2050  HIT %:    48.3627  MISS %:    51.6373   MPKI: 0.041
PSCL2 LOAD TRANSLATION INSTRUCTION	ACCESS:       2118  HIT:       1875  MISS:        243  HIT %:    88.5269  MISS %:    11.4731  MPKI: 0.00486
PSCL2 TRANSLATION FROM L1D PREFETCHER INSTRUCTION	ACCESS:         45  HIT:         45  MISS:          0  HIT %:        100  MISS %:          0  MPKI: 0
PSCL2 LOAD TRANSLATION DATA	ACCESS:       1762  HIT:          0  MISS:       1762  HIT %:          0  MISS %:        100  MPKI: 0.03524
PSCL2 TRANSLATION FROM L1D PREFETCHER DATA	ACCESS:         45  HIT:          0  MISS:         45  HIT %:          0  MISS %:        100  MPKI: 0.0009


LLC TOTAL     ACCESS:     559552  HIT:     528623  MISS:      30929  HIT %:    94.4725  MISS %:    5.52746   MPKI: 0.61858
LLC LOAD INSTRUCTION	ACCESS:     259248  HIT:     257776  MISS:       1472  HIT %:    99.4322  MISS %:   0.567796  MPKI: 0.02944
LLC LOAD TRANSLATION INSTRUCTION	ACCESS:        186  HIT:        136  MISS:         50  HIT %:    73.1183  MISS %:    26.8817  MPKI: 0.001
LLC LOAD DATA	ACCESS:      82148  HIT:      78276  MISS:       3872  HIT %:    95.2866  MISS %:    4.71344  MPKI: 0.07744
LLC RFO DATA	ACCESS:      57854  HIT:      43034  MISS:      14820  HIT %:    74.3838  MISS %:    25.6162  MPKI: 0.2964
LLC PREFETCH DATA	ACCESS:      77007  HIT:      66808  MISS:      10199  HIT %:    86.7557  MISS %:    13.2443  MPKI: 0.20398
LLC WRITEBACK DATA	ACCESS:      81704  HIT:      81311  MISS:        393  HIT %:     99.519  MISS %:   0.481005  MPKI: 0.00786
LLC LOAD TRANSLATION DATA	ACCESS:       1386  HIT:       1263  MISS:        123  HIT %:    91.1255  MISS %:    8.87446  MPKI: 0.00246
LLC TRANSLATION FROM L1D PREFETCHER DATA	ACCESS:         19  HIT:         19  MISS:          0  HIT %:        100  MISS %:          0  MPKI: 0

LLC AVERAGE MISS LATENCY: 153.461 cycles
LLC RQ	ACCESS:     400842	FORWARD:          0	MERGED:          0	TO_CACHE:     400841
LLC WQ	ACCESS:      81704	FORWARD:          1	MERGED:          0	TO_CACHE:      81704
LLC PQ	ACCESS:      77007	FORWARD:          0	MERGED:          0	TO_CACHE:      77007

LLC Dense regions hint to LLC: 0

RAW hits: 1701860
Loads Generated: 12637166
Loads sent to L1D: 10935306
Stores Generated: 6936960
Stores sent to L1D: 6936973
Major fault: 0 Minor fault: 2611
Allocated PAGES: 2611

stream: 
stream:times selected: 1200065
stream:pref_filled: 121247
stream:pref_useful: 23910
stream:pref_late: 6920
stream:misses: 7972
stream:misses_by_poll: 0

CS: 
CS:times selected: 179143
CS:pref_filled: 58931
CS:pref_useful: 35492
CS:pref_late: 7374
CS:misses: 16302
CS:misses_by_poll: 7

CPLX: 
CPLX:times selected: 1019845
CPLX:pref_filled: 19722
CPLX:pref_useful: 4397
CPLX:pref_late: 3311
CPLX:misses: 92060
CPLX:misses_by_poll: 3

NL_L1: 
NL:times selected: 21596
NL:pref_filled: 653
NL:pref_useful: 285
NL:pref_late: 356
NL:misses: 1730
NL:misses_by_poll: 0

total selections: 2420649
total_filled: 93890
total_useful: 33975
total_late: 19283
total_polluted: 10
total_misses_after_warmup: 759579
conflicts: 5653667

test: 119661

DRAM Statistics
 CHANNEL 0
 RQ ROW_BUFFER_HIT:      11236  ROW_BUFFER_MISS:      19291
 DBUS_CONGESTED:         14
 WQ ROW_BUFFER_HIT:       1613  ROW_BUFFER_MISS:      12966  FULL:          0

 AVG_CONGESTED_CYCLE: 6

CPU 0 Branch Prediction Accuracy: 99.8083% MPKI: 0.35044 Average ROB Occupancy at Mispredict: 117.081
Branch types
NOT_BRANCH: 40861461 81.7229%
BRANCH_DIRECT_JUMP: 549503 1.09901%
BRANCH_INDIRECT: 183944 0.367888%
BRANCH_CONDITIONAL: 6187665 12.3753%
BRANCH_DIRECT_CALL: 938188 1.87638%
BRANCH_INDIRECT_CALL: 170287 0.340574%
BRANCH_RETURN: 1108498 2.217%
BRANCH_OTHER: 0 0%

DRAM PAGES: 1048576
Allocated PAGES: 2611
Average_ROB_Occupancy: 110.129
Average_Decode_Occupancy: 13.0148
Average_FTQ_Occupancy: 6.2209
Indirect max targets: 14 Average targets: 1.17834
Branch_type:  BRANCH_DIRECT_JUMP:  Count Percentage: 3.29439 5.64831 2.73342 9.73642 1.9817 6.296 1.31561 68.9941 
Branch_type:  BRANCH_INDIRECT:  Count Percentage: 11.7436 3.4653 1.22654 8.11874 3.2646 1.20802 10.7445 60.2287 
Branch_type:  BRANCH_CONDITIONAL:  Count Percentage: 22.3296 2.24288 2.18205 5.50569 1.27634 4.55391 1.43455 60.475 
Branch_type:  BRANCH_DIRECT_CALL:  Count Percentage: 0.264666 1.71636 1.29068 5.19648 2.18486 2.9754 0.864252 85.5073 
Branch_type:  BRANCH_INDIRECT_CALL:  Count Percentage: 9.55137 0.594835 2.99176 4.86862 0 3.85485 0 78.1386 
Branch_type:  BRANCH_RETURN:  Count Percentage: 3.66404 1.25068 1.05806 6.75108 3.18054 5.45093 2.95152 75.6931 
Branch_type:  BRANCH_DIRECT_JUMP:  Total Count: 36164 62004 30006 106881 21754 69114 14442 757379 
Branch_type:  BRANCH_INDIRECT:  Total Count: 43124 12725 4504 29813 11988 4436 39455 221167 
Branch_type:  BRANCH_CONDITIONAL:  Total Count: 2761413 277368 269845 680866 157840 563163 177405 7478691 
Branch_type:  BRANCH_DIRECT_CALL:  Total Count: 4969 32224 24232 97562 41020 55862 16226 1605367 
Branch_type:  BRANCH_INDIRECT_CALL:  Total Count: 32580 2029 10205 16607 0 13149 0 266533 
Branch_type:  BRANCH_RETURN:  Total Count: 81321 27758 23483 149836 70590 120980 65507 1679961 
Number of unique branch instructions: 10838
Upper 32 bits: 
aaaa
ffff
ffff0000
Unique upper 32 bits: 3
Unique upper 36 bits: 3
Unique upper 40 bits: 5
Unique upper 44 bits: 32
Unique upper 48 bits: 157
Variant_0 : 1057 0.258057
Variant_1 : 1286 0.313965
Variant_2 : 1577 0.38501
Variant_3 : 0 0
Offset_3 4494
Offset_4 258
Offset_5 484
Offset_6 547
Offset_7 640
Offset_8 587
Offset_9 517
Offset_10 431
Offset_11 355
Offset_12 324
Offset_13 242
Offset_14 245
Offset_15 201
Offset_16 227
Offset_17 172
Offset_18 154
Offset_19 257
Offset_20 144
Offset_21 235
Offset_22 416
Offset_23 241
Offset_24 350
Offset_25 117
Offset_47 93
Offset_64 1
decode_dispatch_called: 20246875 43.9779
Dispatch_width: 0 10200710 50.3817 22.1568
Dispatch_width: 1 540309 2.6686 1.1736
Dispatch_width: 2 697400 3.44448 1.51481
Dispatch_width: 3 470283 2.32274 1.02149
Dispatch_width: 4 1512093 7.46828 3.28439
Dispatch_width: 5 351097 1.73408 0.762612
Dispatch_width: 6 6474983 31.9802 14.0642
Empty_decode_cycles: 25791884 56.0221
ROB_full_cycles: 1849126 4.01645
Starvation_cycles_per_kilo_instr: 377.146
Starvation_cycles_per_kilo_instr_3: 358.515
Starvation_cycles_per_kilo_instr_0: 341.435
Branch_type_1  (3,1)  (4,7)  (5,38)  (6,75)  (7,125)  (8,150)  (9,136)  (10,113)  (11,80)  (12,55)  (13,11)  (14,2)  (15,3)  (16,4)  (18,1)  (19,5)  (20,2)  (21,1)  (22,3)  (23,2)  (24,10)  (25,12) 
Branch_type_2  (3,1)  (4,1)  (5,1)  (8,4)  (9,4)  (10,1)  (12,1)  (13,1)  (14,1)  (16,3)  (17,2)  (20,2)  (21,2)  (23,5)  (24,1)  (47,43) 
Branch_type_3  (3,4492)  (4,250)  (5,441)  (6,455)  (7,484)  (8,368)  (9,283)  (10,175)  (11,139)  (12,62)  (13,10)  (64,1) 
Branch_type_4  (6,4)  (7,8)  (8,26)  (9,55)  (10,67)  (11,70)  (12,115)  (13,103)  (14,111)  (15,96)  (16,100)  (17,81)  (18,67)  (19,124)  (20,73)  (21,124)  (22,222)  (23,136)  (24,206)  (25,101) 
Branch_type_5  (8,3)  (9,1)  (10,4)  (11,5)  (12,3)  (13,14)  (14,16)  (15,11)  (16,22)  (17,11)  (18,23)  (19,14)  (20,11)  (21,13)  (22,43)  (23,26)  (24,37) 
Branch_type_6  (5,4)  (6,13)  (7,23)  (8,36)  (9,38)  (10,71)  (11,61)  (12,88)  (13,103)  (14,115)  (15,91)  (16,98)  (17,78)  (18,63)  (19,114)  (20,56)  (21,95)  (22,148)  (23,72)  (24,96)  (25,4)  (47,50) 
Unique trigger count: 
Variant_0_evicts_0 : 0
Variant_0_evicts_1 : 0
Variant_0_evicts_2 : 0
Variant_0_evicts_3 : 0
Variant_1_evicts_0 : 0
Variant_1_evicts_1 : 0
Variant_1_evicts_2 : 0
Variant_1_evicts_3 : 0
Variant_2_evicts_0 : 0
Variant_2_evicts_1 : 0
Variant_2_evicts_2 : 0
Variant_2_evicts_3 : 0
Variant_3_evicts_0 : 0
Variant_3_evicts_1 : 0
Variant_3_evicts_2 : 0
Variant_3_evicts_3 : 0
BTB PER SET UNIQUE ADDR: 2 7 4 8 5 6 7 6 2 6 5 5 2 5 11 9 5 5 5 2 6 9 7 8 5 6 6 4 5 8 7 5 4 7 5 9 6 3 5 8 6 10 5 3 7 6 4 5 7 7 9 6 7 3 2 8 5 3 8 6 5 8 4 8 8 2 5 4 4 8 7 5 5 6 6 9 4 6 6 7 8 6 5 11 7 3 6 4 5 7 6 9 7 8 4 2 5 4 4 7 5 3 4 7 4 5 6 6 6 10 6 2 3 9 2 5 5 8 4 10 5 7 5 4 10 7 4 6 5 2 6 6 3 5 6 6 5 2 7 7 3 4 8 7 5 11 5 5 5 8 3 2 3 10 2 6 6 3 7 5 2 6 4 6 9 2 1 4 9 9 6 6 6 5 4 6 5 6 6 6 5 5 5 9 5 5 4 6 5 5 6 3 5 7 3 6 6 6 5 3 7 7 3 6 1 8 4 4 8 6 2 2 7 6 4 6 7 6 4 6 5 9 6 8 6 9 7 4 8 10 3 7 7 10 4 7 4 7 6 6 5 7 6 6 6 4 4 5 5 7 3 8 4 3 5 7 4 4 7 1 8 7 6 5 4 4 6 5 8 6 7 8 7 6 7 5 7 2 6 9 9 3 6 9 4 5 11 4 9 4 5 3 10 7 8 5 6 3 8 4 14 4 5 11 4 2 6 8 7 3 7 2 7 6 4 5 5 7 7 3 8 9 3 6 9 7 3 6 2 9 5 11 3 5 5 4 7 9 6 7 3 5 7 3 5 6 4 8 1 3 7 8 5 2 8 4 3 6 5 5 11 6 6 9 6 9 6 7 3 3 8 8 9 6 5 5 8 7 5 2 5 6 6 5 8 5 4 6 5 5 5 3 4 8 5 3 6 2 5 4 7 8 6 4 5 10 11 5 9 2 5 4 1 6 6 4 5 4 5 6 7 2 4 7 7 5 7 7 6 6 11 3 4 4 8 1 4 2 2 4 9 5 4 2 5 1 3 5 7 6 10 2 6 5 5 3 7 3 12 5 5 6 6 12 3 10 4 8 3 7 6 7 2 7 4 8 4 2 4 9 5 2 6 5 4 5 4 5 5 7 7 5 7 6 8 6 6 6 3 8 3 3 4 4 6 6 6 6 2 4 6 5 5 3 5 5 10 6 7 6 7 6 9 5 6 14 3 3 5 3 10 7 4 4 2 6 7 9 4 6 3 9 13 13 5 4 8 10 5 3 4 9 3 4 5 9 8 1 7 3 3 2 5 8 7 2 5 5 12 5 6 6 2 7 2 7 11 2 5 5 2 8 2 8 4 4 3 1 5 8 7 6 7 9 4 9 14 8 5 6 9 2 4 2 5 10 6 2 4 5 5 3 5 6 2 4 9 3 8 8 4 6 5 1 9 5 3 6 6 4 6 8 4 6 7 5 3 10 6 11 4 5 5 2 3 6 6 5 5 6 6 5 5 10 5 7 6 4 3 6 4 6 7 9 5 5 5 9 9 6 10 6 7 5 7 4 5 7 5 9 7 9 3 7 9 8 4 8 8 3 7 3 5 7 5 10 6 9 4 9 7 6 4 4 11 4 2 9 8 7 5 3 4 8 5 5 7 8 5 4 7 6 3 8 5 8 9 7 5 7 5 5 9 5 5 3 7 6 4 9 4 11 5 6 5 4 8 4 4 5 6 4 6 5 10 9 10 2 3 9 7 5 7 7 10 5 8 12 5 7 6 5 1 6 5 6 6 7 4 7 8 5 4 5 10 5 6 6 5 10 8 5 4 7 9 6 8 3 5 6 6 6 8 4 5 2 6 4 6 5 7 3 2 5 9 5 10 4 7 5 8 4 4 4 6 6 5 7 12 5 7 5 4 8 5 5 7 5 3 6 2 9 6 5 6 4 5 7 3 5 4 8 5 4 6 5 10 8 5 5 2 6 4 8 7 7 8 6 5 6 4 4 5 3 2 4 4 7 1 6 6 6 6 4 6 5 8 10 4 0 11 3 3 1 4 8 4 10 6 2 8 2 9 6 5 2 4 5 8 12 7 3 5 9 8 10 6 9 9 6 8 1 6 9 3 5 6 7 6 5 3 8 9 5 6 7 4 4 2 6 7 6 4 3 5 4 4 3 6 5 8 7 6 2 11 6 9 5 6 3 4 3 8 4 5 4 6 5 2 3 6 3 4 6 2 4 2 11 7 6 4 4 8 5 9 3 3 4 6 4 4 5 7 11 9 3 4 5 3 3 7 5 7 5 3 6 6 9 4 9 3 10 10 6 6 5 7 7 3 4 6 3 6 8 9 4 6 7 4 4 6 4 6 5 5 8 8 6 2 4 7 5 5 7 9 5 4 7 3 4 4 5 6 5 4 7 11 8 5 3 3 7 4 5 5 8 9 6 10 9 2 5 2 8 9 4 6 7 6 3 8 1 4 6 8 6 4 3 4 9 7 10 5 6 6 4 5 3 5 3 5 11 6 10 4 7 1 5 3 3 4 7 5 5 10 3 6 7 5 6 5 5 4 7 2 8 6 8 3 3 6 6 8 3 6 4 5 6 3 5 8 10 7 3 5 7 3 6 5 5 5 7 2 5 3 3 8 8 7 5 4 2 8 6 2 3 6 9 7 6 10 6 6 4 5 8 4 7 4 6 10 3 13 4 5 4 6 3 7 8 10 9 5 2 8 4 7 6 4 3 8 3 4 3 7 6 5 4 8 4 5 4 6 7 2 6 7 3 8 5 9 2 5 5 5 8 9 5 7 5 4 4 5 3 8 5 3 6 3 3 4 5 6 6 6 6 8 5 3 6 6 9 2 4 6 4 4 3 2 6 3 4 5 5 5 2 6 6 4 10 6 4 9 3 4 7 7 9 7 3 8 4 12 9 6 6 4 7 12 9 6 5 7 10 4 6 7 5 6 7 2 5 5 8 7 7 9 9 8 8 13 6 4 5 11 8 4 5 4 5 4 5 5 7 6 3 5 4 10 13 6 6 4 7 9 4 7 7 6 7 6 5 5 7 9 13 4 5 9 6 5 4 4 7 5 3 8 3 5 6 4 9 7 8 7 2 5 4 5 7 3 6 5 14 9 7 4 5 2 5 2 5 3 6 4 4 6 5 6 2 2 6 8 9 2 6 6 5 5 4 7 5 10 3 4 5 10 8 5 6 4 5 8 8 8 7 3 5 3 5 7 6 5 7 7 8 6 4 3 8 7 4 6 5 10 7 6 9 8 5 8 7 8 4 4 4 8 4 7 4 4 6 3 7 6 5 5 6 12 6 7 4 4 8 10 6 4 7 3 9 7 5 7 1 5 3 7 6 5 11 4 8 5 7 7 4 6 5 6 5 6 7 5 9 5 10 6 4 8 2 8 4 11 8 8 7 10 4 9 3 7 7 10 4 3 6 8 8 7 11 9 2 6 8 6 4 13 6 6 4 4 6 5 3 5 8 6 5 2 7 5 4 6 6 7 7 4 8 4 2 5 6 4 5 3 7 4 7 5 4 4 8 5 4 4 4 5 8 6 7 8 4 7 4 3 6 5 7 7 2 6 6 5 6 3 5 8 5 4 8 7 6 5 6 6 3 3 8 5 7 6 5 6 6 4 5 11 8 9 7 4 7 8 4 3 7 5 5 9 5 3 10 8 8 5 8 3 2 3 3 5 7 8 5 8 5 8 4 6 6 5 6 13 4 7 7 8 6 5 9 11 5 5 5 6 3 4 4 6 4 3 7 4 6 7 4 4 4 2 2 6 5 4 4 7 6 1 5 4 3 8 5 6 3 1 4 6 7 13 3 3 6 2 3 6 3 3 6 5 3 2 5 4 2 4 8 8 4 3 6 2 2 7 6 5 4 4 5 4 7 1 4 3 9 8 5 8 4 4 4 5 4 6 6 3 7 3 4 7 9 5 4 9 4 4 6 4 8 6 5 8 3 3 3 5 6 1 1 3 5 6 8 3 8 4 7 6 6 7 4 3 4 9 10 0 7 4 9 6 9 5 10 2 8 10 6 7 6 3 7 3 7 3 6 4 7 8 5 4 6 4 5 3 4 2 1 4 2 8 3 7 5 7 2 5 4 4 10 3 6 3 4 7 7 7 8 7 4 7 3 5 7 4 3 5 5 5 4 6 8 4 4 3 3 6 5 4 6 5 8 3 5 5 7 6 3 4 8 9 5 2 3 8 3 7 6 2 6 5 3 3 8 3 7 6 4 4 9 6 11 4 5 3 4 5 10 6 7 3 3 4 3 3 5 3 11 1 6 2 6 4 4 3 4 4 5 3 1 3 8 3 5 6 4 3 7 5 4 4 6 6 7 9 2 5 9 1 5 11 5 1 1 10 9 3 6 7 8 7 6 7 4 9 6 7 6 5 1 5 3 5 8 4 9 9 8 4 4 2 7 3 8 6 6 8 8 6 6 8 8 7 3 5 6 6 6 5 8 3 11 3 7 5 13 6 3 5 11 3 4 5 5 3 3 9 7 5 6 3 6 3 4 7 8 5 4 3 3 7 4 1 4 7 9 4 4 4 8 9 7 5 10 7 5 3 9 5 4 7 3 3 11 3 3 7 5 5 16 6 8 5 7 4 6 3 5 7 7 
BTB PER SET COUNT: 2 1791 863 955 914 317 407 889 2 785 910 380 2 873 1070 218 742 174 1131 3 459 1511 1030 626 555 494 302 313 637 946 851 96 242 1160 740 780 845 173 422 1679 48 1582 6 4 1561 863 171 266 156 1061 1928 541 966 5 2 781 951 1192 720 32 1077 1043 211 380 211 3 208 270 5 1280 775 313 264 656 508 1673 5 933 1304 255 709 492 225 1529 889 127 1021 4 691 1817 783 1064 1112 1155 5 81 295 5 274 632 642 3 339 181 87 182 62 564 643 859 427 59 154 1243 4 214 460 17 599 2940 404 651 1845 297 342 1259 11 426 899 3 53 654 3 357 636 651 245 171 1076 986 4 709 1544 606 9 349 5 476 391 849 270 443 3 943 3 1796 216 715 609 307 2 455 4 479 817 89 1 4 276 793 146 752 359 203 400 411 90 260 45 872 112 792 290 628 640 468 6 12 8 192 81 3 1114 653 3 464 259 687 987 3 406 495 138 254 1 1034 6 587 719 7 3 5 1090 727 279 578 998 262 325 218 211 926 320 1257 2075 1410 221 126 212 1706 345 188 312 5919 249 692 5 397 429 951 725 106 741 269 415 385 296 633 315 430 3 715 9 178 490 125 259 381 412 1 384 541 486 312 133 599 10 543 886 261 475 569 152 549 576 927 169 307 558 802 589 3 392 1039 10 579 1876 410 535 7 7 4 1376 703 852 229 7 55 522 203 1106 213 1465 737 234 2 733 26 413 7 183 2 841 318 5 409 9 787 402 4 651 535 246 353 1353 435 397 201 2 281 5 1872 175 756 210 208 953 328 254 741 3 324 386 3 805 295 4 929 1 269 376 230 345 2 680 5 409 586 847 211 1950 315 426 1214 326 3058 1026 1294 3 3 622 561 3077 12 529 242 771 558 354 2 164 1007 91 553 974 272 6 515 96 248 371 5 739 390 142 3 1685 2 565 65 572 684 349 300 410 1406 2577 731 878 2 189 325 1 454 886 264 428 421 266 712 333 2 8 695 797 722 415 645 1162 413 1636 52 5 475 880 1 398 4 2 115 1982 364 5 6 428 1 1462 26 834 573 1611 200 361 234 621 4 713 5 1661 233 1189 326 38 1091 9 1257 343 172 4 626 506 594 2 478 942 204 125 2 325 755 91 2 239 493 8 464 160 375 236 956 418 424 111 616 868 930 969 535 97 804 3 262 5 315 612 511 195 137 2 68 1059 320 1175 1138 5 556 1060 1457 1119 709 421 526 1602 8 500 2050 56 3 249 5 2195 817 156 26 2 126 586 663 556 278 236 502 1237 1800 471 1127 1143 1649 809 89 4 1466 1013 708 386 641 1126 2 161 136 886 7760 429 888 507 2 1150 170 2024 529 198 318 2 1347 3 1155 1370 2 458 209 4 702 2 928 4 274 201 1 6 2315 805 606 899 1200 243 1737 1005 890 335 280 929 2 619 59 178 968 1095 2 188 193 478 121 1113 344 4 294 1139 371 10465 836 372 352 576 1 586 357 567 228 510 414 613 1145 57 929 500 770 4 1199 523 2328 5 302 442 3 4 1027 223 240 210 717 712 322 327 953 143 407 462 256 3 36 400 458 387 147 246 888 5 1753 842 884 458 387 705 243 907 383 391 1421 306 840 1227 749 125 1503 536 1047 391 975 189 191 614 3 353 965 196 1584 140 1789 399 1570 671 1329 6 6 1241 141 6 493 1614 758 282 3 255 854 72 1018 516 429 375 198 414 500 769 863 499 1122 1016 905 992 704 330 384 813 378 17 4 7 546 190 2509 6 2213 207 374 210 14 424 169 5 713 550 261 271 321 208 674 752 3 3 707 619 337 258 138 123 32 763 1948 680 8 133 393 2 304 731 1106 302 781 367 632 768 100 150 214 787 5 660 644 316 1152 607 479 740 15 136 1083 197 195 293 170 235 34 581 833 277 3 204 4 345 173 477 3 2 264 1080 534 1934 367 830 84 864 307 119 244 473 1141 485 643 1576 550 721 549 144 720 21 150 1181 218 6 507 5 1685 474 650 435 6 149 896 7 897 4 576 58 307 621 41 910 181 226 7 50 460 192 539 516 290 1373 290 879 123 751 218 484 4 2 51 1335 1100 1 977 324 1032 492 131 8 558 310 1793 59 0 1751 77 83 1 6 753 648 1056 880 238 890 166 746 893 228 171 109 155 452 1145 725 293 633 710 850 1033 249 773 1430 878 1697 1 112 543 204 7 1453 323 367 398 5 815 1481 358 266 485 207 217 105 1064 902 104 8 4 1081 293 4 29 320 6 1382 1166 428 3 2395 428 1462 30 1940 241 651 152 826 362 299 21 622 494 2 305 10 5 243 1169 2 80 97 1294 463 379 386 237 942 9 867 107 4 980 15 177 7 462 946 1109 442 7 317 1687 3 4 533 319 681 1448 302 16 338 1379 1114 518 3 750 1197 357 511 86 209 1201 4 9 395 364 528 211 775 180 849 1242 95 150 734 4 954 565 723 902 524 371 1457 120 531 668 10 471 473 819 510 67 137 4 344 278 347 136 476 13 964 1789 280 3 5 631 477 691 615 700 853 726 550 598 2 428 2 1180 1007 260 226 737 222 7 1186 1 191 398 304 308 11 102 47 630 1013 1092 639 7 429 572 191 3 257 3 396 2034 699 1795 390 949 1 163 6 211 195 749 386 1311 850 4 7 739 9 358 380 10 543 115 2 898 458 450 3 10 181 560 577 4 538 203 227 770 4 299 982 9835 1173 308 698 14 8 620 25 416 95 493 2 191 3 937 176 1261 1301 175 45 2 727 282 371 3 193 330 134 830 1105 16 433 365 104 1242 10 134 535 755 754 63 1412 376 282 281 219 282 1119 630 1246 662 201 2 1889 205 1029 433 637 196 604 45 13 5 653 767 1216 5 1003 390 652 4 258 1755 3 282 882 100 747 255 788 2 563 37 437 821 616 224 446 196 5 79 498 3 1430 252 14 479 150 3 452 453 67 277 330 300 33 175 90 353 341 542 2 250 548 6 9 105 2 68 3 218 6 8 694 2 492 240 271 687 443 251 1093 3 206 481 302 1275 701 395 1471 43 239 549 228 450 174 1361 1852 1511 55 716 274 1482 241 673 745 308 354 745 3 295 379 523 1012 475 514 1139 788 966 997 157 23 426 873 858 68 156 568 205 4 361 7 423 89 14 73 1486 436 1872 407 439 5 692 569 121 210 1115 512 396 638 690 188 347 939 1169 126 495 1220 596 2557 6 310 176 13 6 753 5 163 375 368 490 906 574 88 2 288 201 201 743 3 198 324 1886 1266 531 443 149 2 751 2 640 277 286 190 277 7 290 339 229 2 129 442 494 2 322 629 31 9 4 1096 299 497 51 5 410 1004 220 125 486 6 421 1008 84 1267 1057 240 367 107 999 1347 566 537 606 324 960 391 75 238 2097 1522 20 508 2077 1167 963 1026 559 806 74 450 1274 125 110 317 4 838 71 539 11 4 295 5 782 384 6 7 608 992 295 368 6 84 339 1285 330 212 16 3 1683 173 217 1039 1 8 4 353 411 644 1560 184 792 359 570 735 632 19 150 9 214 395 217 364 578 442 1930 776 187 279 2 955 456 621 265 1499 837 994 191 898 103 356 596 2045 326 4 953 82 841 958 1909 1387 2 52 1163 595 736 1339 555 1194 17 482 94 775 163 183 933 224 617 2 781 5 6 224 202 12 488 486 836 199 8 915 436 278 10 124 339 6 480 64 1162 693 945 366 430 424 187 3933 908 407 543 895 9 69 309 3 633 402 1331 160 1458 520 244 94 571 5 439 992 6 181 448 179 349 5 604 481 99 117 707 67 480 311 407 356 620 678 538 1080 147 1457 367 9 673 1250 213 212 250 7 691 863 6 245 711 639 994 158 794 157 2 3 178 331 558 1438 133 711 651 1258 33 329 6 5 776 672 135 891 710 430 512 5 826 567 319 490 219 86 207 427 661 753 698 540 398 7 119 448 5 973 458 3 314 166 290 5 11 379 373 1 591 4 342 270 6 252 3 1 185 223 482 3016 122 400 889 2 266 359 3 5 333 566 151 47 342 120 2 9 1064 1111 169 3 30 2 171 584 598 451 262 4 417 425 440 1 302 10 1828 309 478 608 418 258 316 242 73 64 205 189 653 405 4 686 515 192 32 922 7 158 810 546 1227 254 561 827 4 3 3 159 613 1 1 6 718 505 1142 3 1155 315 609 824 647 1520 437 3 4 369 1357 0 392 76 818 176 1977 466 726 2 678 2737 514 290 280 4 1050 3 830 3 371 426 529 450 54 4 547 343 364 3 4 7 1 263 2 775 3 780 517 419 4 233 6 8 471 133 859 136 324 518 1056 294 742 959 126 481 86 298 1432 5 711 135 5 338 762 542 1432 291 490 246 316 361 1274 883 635 7 1277 5 378 371 731 10 10 231 823 1779 517 2 76 886 266 353 680 2 870 12190 243 103 1405 244 1356 674 5 361 1300 689 1557 607 486 439 9 636 1352 545 539 80 181 9 3 4 867 5 1086 1 370 773 222 4 303 286 161 222 368 5 1 3 1360 5 105 676 627 70 1241 476 32 193 1367 176 363 867 2 379 1259 1 638 1291 103 1 1 581 716 6 435 615 1211 51 329 631 325 595 62 1408 411 191 1 467 369 358 1184 288 588 1276 251 289 72 2 893 186 667 881 394 540 1665 633 1354 1256 1398 967 199 173 609 3423 766 318 686 515 1607 3 694 402 1668 11 202 447 1461 239 637 496 254 39 3 1110 1517 463 576 67 519 6 309 81 607 7 270 733 466 694 227 1 116 408 1508 195 243 4 1156 418 745 332 1578 410 876 3 1091 1546 148 542 3 7 1957 95 137 393 489 108 2769 185 1261 167 591 477 6 111 246 692 1072 
To predecode: 0
Predecoding something: 0
Predecode request dropped: 0
sizeofblock_0 0
sizeofblock_1 508430
sizeofblock_2 149743
sizeofblock_3 28974
sizeofblock_4 7072
sizeofblock_5 0
sizeofblock_6 0
sizeofblock_7 0
sizeofblock_8 0
Variant_0 Correct: 1300974 Incorrect: 0 Accuracy: 1
Variant_1 Correct: 1813391 Incorrect: 0 Accuracy: 1
Variant_2 Correct: 3325326 Incorrect: 0 Accuracy: 1
Variant_3 Correct: 0 Incorrect: 0 Accuracy: -nan
