
*** ChampSim Multicore Out-of-Order Simulator ***

Warmup Instructions: 50000000
Simulation Instructions: 50000000
Number of CPUs: 1
LLC sets: 2048
LLC ways: 16
Off-chip DRAM Size: 4096 MB Channels: 1 Width: 64-bit Data Rate: 6400 MT/s
CPU 0 runs ./micro_traces/srv660.trace.gz
.gz
ITLB has LRU replacement policy
DTLB has LRU replacement policy
STLB has LRU replacement policy
FDIP Prefetcher at L1I
L1I has LRU replacement policy
L1D has LRU replacement policy
Initialize SRRIP state for L2C
Initialize DRRIP state for LLC
Heartbeat_Variant_0 : 1077 0.262939 per_variant_size: 0 1077 0 0 0 0 0 0 0 
Heartbeat_Variant_1 : 1196 0.291992 per_variant_size: 0 841 355 0 0 0 0 0 0 
Heartbeat_Variant_2 : 1519 0.37085 per_variant_size: 0 901 435 125 58 0 0 0 0 
Heartbeat_Variant_3 : 0 0 per_variant_size: 0 0 0 0 0 0 0 0 0 
Heartbeat_Variant_0_evicts 0 : 13750 1 : 9898 2 : 11969 3 : 0 
Heartbeat_Variant_1_evicts 0 : 9847 1 : 0 2 : 12012 3 : 0 
Heartbeat_Variant_2_evicts 0 : 11948 1 : 11944 2 : 0 3 : 0 
Heartbeat_Variant_3_evicts 0 : 0 1 : 0 2 : 0 3 : 0 
Heartbeat CPU 0 instructions: 10000001 cycles: 2795820 heartbeat IPC: 3.57677 cumulative IPC: 3.57677 (Simulation time: 0 hr 2 min 24 sec) 
Heartbeat_Variant_0 : 1060 0.258789 per_variant_size: 0 1060 0 0 0 0 0 0 0 
Heartbeat_Variant_1 : 1241 0.302979 per_variant_size: 0 881 360 0 0 0 0 0 0 
Heartbeat_Variant_2 : 1529 0.373291 per_variant_size: 0 904 428 134 63 0 0 0 0 
Heartbeat_Variant_3 : 0 0 per_variant_size: 0 0 0 0 0 0 0 0 0 
Heartbeat_Variant_0_evicts 0 : 13679 1 : 9876 2 : 12031 3 : 0 
Heartbeat_Variant_1_evicts 0 : 9914 1 : 0 2 : 11709 3 : 0 
Heartbeat_Variant_2_evicts 0 : 12018 1 : 11718 2 : 0 3 : 0 
Heartbeat_Variant_3_evicts 0 : 0 1 : 0 2 : 0 3 : 0 
Heartbeat CPU 0 instructions: 20000002 cycles: 5591604 heartbeat IPC: 3.57681 cumulative IPC: 3.57679 (Simulation time: 0 hr 4 min 22 sec) 
Heartbeat_Variant_0 : 1080 0.263672 per_variant_size: 0 1080 0 0 0 0 0 0 0 
Heartbeat_Variant_1 : 1236 0.301758 per_variant_size: 0 862 374 0 0 0 0 0 0 
Heartbeat_Variant_2 : 1543 0.376709 per_variant_size: 0 888 452 136 67 0 0 0 0 
Heartbeat_Variant_3 : 0 0 per_variant_size: 0 0 0 0 0 0 0 0 0 
Heartbeat_Variant_0_evicts 0 : 13378 1 : 9640 2 : 11728 3 : 0 
Heartbeat_Variant_1_evicts 0 : 9548 1 : 0 2 : 11131 3 : 0 
Heartbeat_Variant_2_evicts 0 : 11806 1 : 11053 2 : 0 3 : 0 
Heartbeat_Variant_3_evicts 0 : 0 1 : 0 2 : 0 3 : 0 
Heartbeat CPU 0 instructions: 30000002 cycles: 8386507 heartbeat IPC: 3.57794 cumulative IPC: 3.57717 (Simulation time: 0 hr 6 min 32 sec) 
Heartbeat_Variant_0 : 1073 0.261963 per_variant_size: 0 1073 0 0 0 0 0 0 0 
Heartbeat_Variant_1 : 1238 0.302246 per_variant_size: 0 850 388 0 0 0 0 0 0 
Heartbeat_Variant_2 : 1561 0.381104 per_variant_size: 0 891 459 147 64 0 0 0 0 
Heartbeat_Variant_3 : 0 0 per_variant_size: 0 0 0 0 0 0 0 0 0 
Heartbeat_Variant_0_evicts 0 : 14058 1 : 10264 2 : 12148 3 : 0 
Heartbeat_Variant_1_evicts 0 : 10299 1 : 0 2 : 11839 3 : 0 
Heartbeat_Variant_2_evicts 0 : 12121 1 : 11876 2 : 0 3 : 0 
Heartbeat_Variant_3_evicts 0 : 0 1 : 0 2 : 0 3 : 0 
Heartbeat CPU 0 instructions: 40000002 cycles: 11182731 heartbeat IPC: 3.57625 cumulative IPC: 3.57694 (Simulation time: 0 hr 8 min 35 sec) 
Heartbeat_Variant_0 : 1069 0.260986 per_variant_size: 0 1069 0 0 0 0 0 0 0 
Heartbeat_Variant_1 : 1235 0.301514 per_variant_size: 0 850 385 0 0 0 0 0 0 
Heartbeat_Variant_2 : 1569 0.383057 per_variant_size: 0 921 441 139 68 0 0 0 0 
Heartbeat_Variant_3 : 0 0 per_variant_size: 0 0 0 0 0 0 0 0 0 
Heartbeat_Variant_0_evicts 0 : 13831 1 : 10003 2 : 11959 3 : 0 
Heartbeat_Variant_1_evicts 0 : 10031 1 : 0 2 : 11604 3 : 0 
Heartbeat_Variant_2_evicts 0 : 11935 1 : 11636 2 : 0 3 : 0 
Heartbeat_Variant_3_evicts 0 : 0 1 : 0 2 : 0 3 : 0 
Heartbeat CPU 0 instructions: 50000000 cycles: 13980347 heartbeat IPC: 3.57447 cumulative IPC: 3.57645 (Simulation time: 0 hr 10 min 31 sec) 

Warmup complete CPU 0 instructions: 50000004 cycles: 13980348 (Simulation time: 0 hr 10 min 31 sec) 

Cycle: 20000000 FTQ IN: 56457067 FTQ occupancy: 17.9991 DECODE IN: 56457067 DECODE occupancy: 46.0093 ROB IN: 56457067 ROB occupancy: 277.015 ROB OUT: 56456935
Heartbeat_Variant_0 : 1093 0.266846 per_variant_size: 0 1093 0 0 0 0 0 0 0 
Heartbeat_Variant_1 : 1240 0.302734 per_variant_size: 0 827 413 0 0 0 0 0 0 
Heartbeat_Variant_2 : 1568 0.382812 per_variant_size: 0 880 459 162 67 0 0 0 0 
Heartbeat_Variant_3 : 0 0 per_variant_size: 0 0 0 0 0 0 0 0 0 
Heartbeat_Variant_0_evicts 0 : 13604 1 : 9535 2 : 11524 3 : 0 
Heartbeat_Variant_1_evicts 0 : 9512 1 : 0 2 : 11312 3 : 0 
Heartbeat_Variant_2_evicts 0 : 11529 1 : 11295 2 : 0 3 : 0 
Heartbeat_Variant_3_evicts 0 : 0 1 : 0 2 : 0 3 : 0 
Heartbeat CPU 0 instructions: 60000001 cycles: 23246628 heartbeat IPC: 1.07918 cumulative IPC: 1.07918 (Simulation time: 0 hr 12 min 20 sec) 
Cycle: 30000000 FTQ IN: 10942442 FTQ occupancy: 6.40438 DECODE IN: 10942409 DECODE occupancy: 13.4322 ROB IN: 10942409 ROB occupancy: 109.72 ROB OUT: 10942473
Heartbeat_Variant_0 : 1109 0.270752 per_variant_size: 0 1109 0 0 0 0 0 0 0 
Heartbeat_Variant_1 : 1264 0.308594 per_variant_size: 0 879 385 0 0 0 0 0 0 
Heartbeat_Variant_2 : 1529 0.373291 per_variant_size: 0 852 456 158 63 0 0 0 0 
Heartbeat_Variant_3 : 0 0 per_variant_size: 0 0 0 0 0 0 0 0 0 
Heartbeat_Variant_0_evicts 0 : 14016 1 : 9839 2 : 11728 3 : 0 
Heartbeat_Variant_1_evicts 0 : 9823 1 : 0 2 : 11642 3 : 0 
Heartbeat_Variant_2_evicts 0 : 11728 1 : 11603 2 : 0 3 : 0 
Heartbeat_Variant_3_evicts 0 : 0 1 : 0 2 : 0 3 : 0 
Heartbeat CPU 0 instructions: 70000001 cycles: 32372240 heartbeat IPC: 1.09582 cumulative IPC: 1.08744 (Simulation time: 0 hr 14 min 7 sec) 
Cycle: 40000000 FTQ IN: 10853811 FTQ occupancy: 6.58206 DECODE IN: 10853833 DECODE occupancy: 13.6711 ROB IN: 10853830 ROB occupancy: 108.885 ROB OUT: 10853742
Heartbeat_Variant_0 : 1071 0.261475 per_variant_size: 0 1071 0 0 0 0 0 0 0 
Heartbeat_Variant_1 : 1247 0.304443 per_variant_size: 0 855 392 0 0 0 0 0 0 
Heartbeat_Variant_2 : 1584 0.386719 per_variant_size: 0 909 447 158 70 0 0 0 0 
Heartbeat_Variant_3 : 0 0 per_variant_size: 0 0 0 0 0 0 0 0 0 
Heartbeat_Variant_0_evicts 0 : 14032 1 : 9725 2 : 11673 3 : 0 
Heartbeat_Variant_1_evicts 0 : 9765 1 : 0 2 : 11183 3 : 0 
Heartbeat_Variant_2_evicts 0 : 11671 1 : 11240 2 : 0 3 : 0 
Heartbeat_Variant_3_evicts 0 : 0 1 : 0 2 : 0 3 : 0 
Heartbeat CPU 0 instructions: 80000000 cycles: 41579748 heartbeat IPC: 1.08607 cumulative IPC: 1.08698 (Simulation time: 0 hr 15 min 55 sec) 
Cycle: 50000000 FTQ IN: 10962909 FTQ occupancy: 6.33158 DECODE IN: 10962906 DECODE occupancy: 13.1588 ROB IN: 10962849 ROB occupancy: 108.846 ROB OUT: 10962974
Heartbeat_Variant_0 : 1076 0.262695 per_variant_size: 0 1076 0 0 0 0 0 0 0 
Heartbeat_Variant_1 : 1265 0.308838 per_variant_size: 0 861 404 0 0 0 0 0 0 
Heartbeat_Variant_2 : 1563 0.381592 per_variant_size: 0 868 461 161 73 0 0 0 0 
Heartbeat_Variant_3 : 0 0 per_variant_size: 0 0 0 0 0 0 0 0 0 
Heartbeat_Variant_0_evicts 0 : 14284 1 : 9631 2 : 12215 3 : 0 
Heartbeat_Variant_1_evicts 0 : 9632 1 : 0 2 : 11345 3 : 0 
Heartbeat_Variant_2_evicts 0 : 12209 1 : 11328 2 : 0 3 : 0 
Heartbeat_Variant_3_evicts 0 : 0 1 : 0 2 : 0 3 : 0 
Heartbeat CPU 0 instructions: 90000003 cycles: 50727332 heartbeat IPC: 1.09319 cumulative IPC: 1.08852 (Simulation time: 0 hr 17 min 42 sec) 
Cycle: 60000000 FTQ IN: 10759243 FTQ occupancy: 6.45296 DECODE IN: 10759249 DECODE occupancy: 13.3592 ROB IN: 10759249 ROB occupancy: 107.241 ROB OUT: 10759109
Heartbeat_Variant_0 : 1086 0.265137 per_variant_size: 0 1086 0 0 0 0 0 0 0 
Heartbeat_Variant_1 : 1257 0.306885 per_variant_size: 0 840 417 0 0 0 0 0 0 
Heartbeat_Variant_2 : 1561 0.381104 per_variant_size: 0 883 448 155 75 0 0 0 0 
Heartbeat_Variant_3 : 0 0 per_variant_size: 0 0 0 0 0 0 0 0 0 
Heartbeat_Variant_0_evicts 0 : 13951 1 : 10190 2 : 12335 3 : 0 
Heartbeat_Variant_1_evicts 0 : 10162 1 : 0 2 : 11890 3 : 0 
Heartbeat_Variant_2_evicts 0 : 12353 1 : 11870 2 : 0 3 : 0 
Heartbeat_Variant_3_evicts 0 : 0 1 : 0 2 : 0 3 : 0 
Heartbeat CPU 0 instructions: 100000002 cycles: 60025269 heartbeat IPC: 1.07551 cumulative IPC: 1.0859 (Simulation time: 0 hr 19 min 23 sec) 
Finished CPU 0 instructions: 50000002 cycles: 46044922 cumulative IPC: 1.0859 (Simulation time: 0 hr 19 min 23 sec) 

ChampSim completed all CPUs

Region of Interest Statistics

CPU 0 cumulative IPC: 1.0859 instructions: 50000002 cycles: 46044922
 Fetch stage stalled: 72.2838  Sim cycles: 46044922 fetch stall cycle: 33283003
 Empty decode stage: 63.5474  Sim cycles: 46044922 fetch stall cycle: 29260356
ITLB TOTAL     ACCESS:    5743471  HIT:    5250986  MISS:     492485  HIT %:    91.4253  MISS %:    8.57469   MPKI: 9.8497
ITLB LOAD TRANSLATION INSTRUCTION	ACCESS:    5640311  HIT:    5147826  MISS:     492485  HIT %:    91.2685  MISS %:    8.73152  MPKI: 9.8497
ITLB TRANSLATION FROM L1D PREFETCHER INSTRUCTION	ACCESS:     103160  HIT:     103160  MISS:          0  HIT %:        100  MISS %:          0  MPKI: 0

ITLB AVERAGE MISS LATENCY: 9.05 cycles
ITLB RQ	ACCESS:    7543830	FORWARD:          0	MERGED:    1361490	TO_CACHE:    6182340

DTLB TOTAL     ACCESS:    9382993  HIT:    8905683  MISS:     477310  HIT %:     94.913  MISS %:    5.08697   MPKI: 9.5462
DTLB LOAD TRANSLATION DATA	ACCESS:    9382993  HIT:    8905683  MISS:     477310  HIT %:     94.913  MISS %:    5.08697  MPKI: 9.5462

DTLB AVERAGE MISS LATENCY: 9.31824 cycles
DTLB RQ	ACCESS:   13644875	FORWARD:          0	MERGED:    4227723	TO_CACHE:    9417152

STLB TOTAL     ACCESS:    1222639  HIT:    1220581  MISS:       2058  HIT %:    99.8317  MISS %:   0.168324   MPKI: 0.04116
STLB LOAD TRANSLATION INSTRUCTION	ACCESS:     492485  HIT:     492209  MISS:        276  HIT %:     99.944  MISS %:  0.0560423  MPKI: 0.00552
STLB LOAD TRANSLATION DATA	ACCESS:     477015  HIT:     475247  MISS:       1768  HIT %:    99.6294  MISS %:   0.370638  MPKI: 0.03536
STLB TRANSLATION FROM L1D PREFETCHER DATA	ACCESS:     253139  HIT:     253125  MISS:         14  HIT %:    99.9945  MISS %: 0.00553056  MPKI: 0.00028

STLB AVERAGE MISS LATENCY: 74.1433 cycles
STLB RQ	ACCESS:    1356844	FORWARD:          0	MERGED:     134174	TO_CACHE:    1222670

STLB Hit, L1D data hit: 0
STLB Hit, L2C data hit: 0
STLB Hit, LLC data hit: 0
STLB Hit, LLC data miss: 0
STLB STLB hints to L2: 0
L1D TOTAL     ACCESS:   13407110  HIT:   12260357  MISS:    1146753  HIT %:    91.4467  MISS %:    8.55332   MPKI: 22.9351
L1D LOAD DATA	ACCESS:    6858509  HIT:    6100342  MISS:     758167  HIT %:    88.9456  MISS %:    11.0544  MPKI: 15.1633
L1D RFO DATA	ACCESS:    6218771  HIT:    5931173  MISS:     287598  HIT %:    95.3753  MISS %:    4.62468  MPKI: 5.75196
L1D PREFETCH DATA	ACCESS:     329830  HIT:     228842  MISS:     100988  HIT %:    69.3818  MISS %:    30.6182  MPKI: 2.01976

L1D PREFETCH  REQUESTED:     774407  ISSUED:     774407  USEFUL:      44231  USELESS:      69201
L1D USEFUL LOAD PREFETCHES:      44231 PREFETCH ISSUED TO LOWER LEVEL:     113466  ACCURACY: 38.9817
 TIMELY PREFETCHES:      44231 LATE PREFETCHES: 12420 DROPPED PREFETCHES: 2
L1D AVERAGE MISS LATENCY: 406670 cycles
L1D RQ	ACCESS:   10912941	FORWARD:          0	MERGED:    3860857	TO_CACHE:    6890388
L1D WQ	ACCESS:    6921301	FORWARD:     162005	MERGED:     166814	TO_CACHE:    6754487
L1D PQ	ACCESS:     387358	FORWARD:          0	MERGED:          0	TO_CACHE:     387049

L1D UNIQUE REGIONS ACCESSED: 0
L1D REGIONS CONFLICTS: 0
L1D Cross Page Prefetch Requests: 5825
L1D Same Page Prefetch Requests: 784988
L1D ROI Sum of L1D PQ occupancy: 4910595
L1D PREFETCHES PUSHED FROM L2C: 0
L1I TOTAL     ACCESS:    7026105  HIT:    4271702  MISS:    2754403  HIT %:    60.7976  MISS %:    39.2024   MPKI: 55.0881
L1I LOAD INSTRUCTION	ACCESS:    6541375  HIT:    3786972  MISS:    2754403  HIT %:    57.8926  MISS %:    42.1074  MPKI: 55.0881
L1I PREFETCH INSTRUCTION	ACCESS:     484730  HIT:     484730  MISS:          0  HIT %:        100  MISS %:          0  MPKI: 0

L1I PREFETCH  REQUESTED:    1069874  ISSUED:    1069874  USEFUL:          0  USELESS:          0
L1I USEFUL LOAD PREFETCHES:          0 PREFETCH ISSUED TO LOWER LEVEL:          0  ACCURACY: -nan
 TIMELY PREFETCHES:          0 LATE PREFETCHES: 0 DROPPED PREFETCHES: 0
L1I AVERAGE MISS LATENCY: 17.4209 cycles
L1I RQ	ACCESS:    9451296	FORWARD:          0	MERGED:    2669099	TO_CACHE:    6782197
L1I PQ	ACCESS:    1069874	FORWARD:          0	MERGED:     308241	TO_CACHE:     761633

L1BTB TOTAL     ACCESS:    5676576  HIT:    2059477  MISS:    3617099  HIT %:    36.2803  MISS %:    63.7197   MPKI: 72.342
L1BTB BRANCH_DIRECT_JUMP	ACCESS:     546037  HIT:     143451  MISS:     402586	AVERAGE STALL: 36.6566
L1BTB BRANCH_INDIRECT	ACCESS:     181869  HIT:      65539  MISS:     116330	AVERAGE STALL: 83.8962
L1BTB BRANCH_CONDITIONAL	ACCESS:    2723251  HIT:    1434658  MISS:    1288593	AVERAGE STALL: 36.287
L1BTB BRANCH_DIRECT_CALL	ACCESS:     941168  HIT:     105059  MISS:     836109	AVERAGE STALL: 36.9738
L1BTB BRANCH_INDIRECT_CALL	ACCESS:     171552  HIT:      21585  MISS:     149967	AVERAGE STALL: 108.702
L1BTB BRANCH_RETURN	ACCESS:    1112699  HIT:     289185  MISS:     823514	AVERAGE STALL: 36.6561
L1BTB BRANCH_OTHER ACCESS:          0  HIT:          0  MISS:          0	AVERAGE STALL: -nan
L1BTB TOTAL ROB OCCUPANCY AT BTB MISS: 12.5401

L2BTB TOTAL     ACCESS:    3591762  HIT:    3102877  MISS:     488885  HIT %:    86.3887  MISS %:    13.6113   MPKI: 9.7777
L2BTB BRANCH_DIRECT_JUMP	ACCESS:     398446  HIT:     348539  MISS:      49907	AVERAGE STALL: 36.6566
L2BTB BRANCH_INDIRECT	ACCESS:     106054  HIT:      97362  MISS:       8692	AVERAGE STALL: 83.8962
L2BTB BRANCH_CONDITIONAL	ACCESS:    1288593  HIT:    1147826  MISS:     140767	AVERAGE STALL: 36.287
L2BTB BRANCH_DIRECT_CALL	ACCESS:     836109  HIT:     678022  MISS:     158087	AVERAGE STALL: 36.9738
L2BTB BRANCH_INDIRECT_CALL	ACCESS:     140451  HIT:     106423  MISS:      34028	AVERAGE STALL: 108.702
L2BTB BRANCH_RETURN	ACCESS:     822109  HIT:     724705  MISS:      97404	AVERAGE STALL: 36.6561
L2BTB BRANCH_OTHER ACCESS:          0  HIT:          0  MISS:          0	AVERAGE STALL: -nan
L2BTB TOTAL ROB OCCUPANCY AT BTB MISS: 92.78

L2C TOTAL     ACCESS:    4519069  HIT:    3985941  MISS:     533128  HIT %:    88.2027  MISS %:    11.7973   MPKI: 10.6626
L2C LOAD INSTRUCTION	ACCESS:    2754403  HIT:    2474926  MISS:     279477  HIT %:    89.8534  MISS %:    10.1466  MPKI: 5.58954
L2C LOAD TRANSLATION INSTRUCTION	ACCESS:        322  HIT:         86  MISS:        236  HIT %:    26.7081  MISS %:    73.2919  MPKI: 0.00472
L2C LOAD DATA	ACCESS:     745716  HIT:     658736  MISS:      86980  HIT %:     88.336  MISS %:     11.664  MPKI: 1.7396
L2C RFO DATA	ACCESS:     287526  HIT:     224470  MISS:      63056  HIT %:    78.0695  MISS %:    21.9305  MPKI: 1.26112
L2C PREFETCH DATA	ACCESS:     204662  HIT:     121368  MISS:      83294  HIT %:    59.3017  MISS %:    40.6983  MPKI: 1.66588
L2C WRITEBACK DATA	ACCESS:     524537  HIT:     505822  MISS:      18715  HIT %:    96.4321  MISS %:    3.56791  MPKI: 0.3743
L2C LOAD TRANSLATION DATA	ACCESS:       1880  HIT:        515  MISS:       1365  HIT %:    27.3936  MISS %:    72.6064  MPKI: 0.0273
L2C TRANSLATION FROM L1D PREFETCHER DATA	ACCESS:         23  HIT:         18  MISS:          5  HIT %:    78.2609  MISS %:    21.7391  MPKI: 0.0001

L2C PREFETCH  REQUESTED:      98978  ISSUED:      98978  USEFUL:       9118  USELESS:      74870
L2C USEFUL LOAD PREFETCHES:       9118 PREFETCH ISSUED TO LOWER LEVEL:      83873  ACCURACY: 10.8712
 TIMELY PREFETCHES:       9118 LATE PREFETCHES: 579 DROPPED PREFETCHES: 0
L2C AVERAGE MISS LATENCY: 37.4739 cycles
L2C RQ	ACCESS:    3789912	FORWARD:          0	MERGED:          0	TO_CACHE:    3789867
L2C WQ	ACCESS:     524537	FORWARD:         45	MERGED:          0	TO_CACHE:     524537
L2C PQ	ACCESS:     212444	FORWARD:          0	MERGED:       3435	TO_CACHE:     209009

L2C Dense regions hint from L2: 0
PSCL5 TOTAL     ACCESS:       4122  HIT:       2061  MISS:       2061  HIT %:         50  MISS %:         50   MPKI: 0.04122
PSCL5 LOAD TRANSLATION INSTRUCTION	ACCESS:       4076  HIT:       2038  MISS:       2038  HIT %:         50  MISS %:         50  MPKI: 0.04076
PSCL5 TRANSLATION FROM L1D PREFETCHER INSTRUCTION	ACCESS:         46  HIT:         23  MISS:         23  HIT %:         50  MISS %:         50  MPKI: 0.00046


PSCL4 TOTAL     ACCESS:       3903  HIT:       1944  MISS:       1959  HIT %:    49.8078  MISS %:    50.1922   MPKI: 0.03918
PSCL4 LOAD TRANSLATION INSTRUCTION	ACCESS:       2825  HIT:       1921  MISS:        904  HIT %:         68  MISS %:         32  MPKI: 0.01808
PSCL4 TRANSLATION FROM L1D PREFETCHER INSTRUCTION	ACCESS:         40  HIT:         23  MISS:         17  HIT %:       57.5  MISS %:       42.5  MPKI: 0.00034
PSCL4 LOAD TRANSLATION DATA	ACCESS:       1032  HIT:          0  MISS:       1032  HIT %:          0  MISS %:        100  MPKI: 0.02064
PSCL4 TRANSLATION FROM L1D PREFETCHER DATA	ACCESS:          6  HIT:          0  MISS:          6  HIT %:          0  MISS %:        100  MPKI: 0.00012


PSCL3 TOTAL     ACCESS:       4019  HIT:       2002  MISS:       2017  HIT %:    49.8134  MISS %:    50.1866   MPKI: 0.04034
PSCL3 LOAD TRANSLATION INSTRUCTION	ACCESS:       2883  HIT:       1979  MISS:        904  HIT %:    68.6438  MISS %:    31.3562  MPKI: 0.01808
PSCL3 TRANSLATION FROM L1D PREFETCHER INSTRUCTION	ACCESS:         40  HIT:         23  MISS:         17  HIT %:       57.5  MISS %:       42.5  MPKI: 0.00034
PSCL3 LOAD TRANSLATION DATA	ACCESS:       1090  HIT:          0  MISS:       1090  HIT %:          0  MISS %:        100  MPKI: 0.0218
PSCL3 TRANSLATION FROM L1D PREFETCHER DATA	ACCESS:          6  HIT:          0  MISS:          6  HIT %:          0  MISS %:        100  MPKI: 0.00012


PSCL2 TOTAL     ACCESS:       3987  HIT:       1926  MISS:       2061  HIT %:     48.307  MISS %:     51.693   MPKI: 0.04122
PSCL2 LOAD TRANSLATION INSTRUCTION	ACCESS:       2196  HIT:       1903  MISS:        293  HIT %:    86.6576  MISS %:    13.3424  MPKI: 0.00586
PSCL2 TRANSLATION FROM L1D PREFETCHER INSTRUCTION	ACCESS:         23  HIT:         23  MISS:          0  HIT %:        100  MISS %:          0  MPKI: 0
PSCL2 LOAD TRANSLATION DATA	ACCESS:       1745  HIT:          0  MISS:       1745  HIT %:          0  MISS %:        100  MPKI: 0.0349
PSCL2 TRANSLATION FROM L1D PREFETCHER DATA	ACCESS:         23  HIT:          0  MISS:         23  HIT %:          0  MISS %:        100  MPKI: 0.00046


LLC TOTAL     ACCESS:     602526  HIT:     573408  MISS:      29118  HIT %:    95.1673  MISS %:    4.83265   MPKI: 0.58236
LLC LOAD INSTRUCTION	ACCESS:     279477  HIT:     278346  MISS:       1131  HIT %:    99.5953  MISS %:   0.404684  MPKI: 0.02262
LLC LOAD TRANSLATION INSTRUCTION	ACCESS:        236  HIT:        200  MISS:         36  HIT %:    84.7458  MISS %:    15.2542  MPKI: 0.00072
LLC LOAD DATA	ACCESS:      86429  HIT:      82984  MISS:       3445  HIT %:    96.0141  MISS %:    3.98593  MPKI: 0.0689
LLC RFO DATA	ACCESS:      63026  HIT:      48859  MISS:      14167  HIT %:     77.522  MISS %:     22.478  MPKI: 0.28334
LLC PREFETCH DATA	ACCESS:      83872  HIT:      73945  MISS:       9927  HIT %:    88.1641  MISS %:    11.8359  MPKI: 0.19854
LLC WRITEBACK DATA	ACCESS:      88116  HIT:      87784  MISS:        332  HIT %:    99.6232  MISS %:   0.376776  MPKI: 0.00664
LLC LOAD TRANSLATION DATA	ACCESS:       1365  HIT:       1285  MISS:         80  HIT %:    94.1392  MISS %:    5.86081  MPKI: 0.0016
LLC TRANSLATION FROM L1D PREFETCHER DATA	ACCESS:          5  HIT:          5  MISS:          0  HIT %:        100  MISS %:          0  MPKI: 0

LLC AVERAGE MISS LATENCY: 154.575 cycles
LLC RQ	ACCESS:     430540	FORWARD:          0	MERGED:          0	TO_CACHE:     430538
LLC WQ	ACCESS:      88116	FORWARD:          3	MERGED:          0	TO_CACHE:      88116
LLC PQ	ACCESS:      83873	FORWARD:          0	MERGED:          0	TO_CACHE:      83872

LLC Dense regions hint to LLC: 0

RAW hits: 1701702
Loads Generated: 12614643
Loads sent to L1D: 10912941
Stores Generated: 6921284
Stores sent to L1D: 6921301
Major fault: 0 Minor fault: 2641
Allocated PAGES: 2641

stream: 
stream:times selected: 1229243
stream:pref_filled: 125441
stream:pref_useful: 28212
stream:pref_late: 8407
stream:misses: 8743
stream:misses_by_poll: 0

CS: 
CS:times selected: 191092
CS:pref_filled: 70140
CS:pref_useful: 45967
CS:pref_late: 9965
CS:misses: 22262
CS:misses_by_poll: 8

CPLX: 
CPLX:times selected: 1037102
CPLX:pref_filled: 23871
CPLX:pref_useful: 7035
CPLX:pref_late: 3915
CPLX:misses: 119040
CPLX:misses_by_poll: 0

NL_L1: 
NL:times selected: 12643
NL:pref_filled: 1485
NL:pref_useful: 230
NL:pref_late: 187
NL:misses: 1510
NL:misses_by_poll: 0

total selections: 2470080
total_filled: 100988
total_useful: 44231
total_late: 24177
total_polluted: 8
total_misses_after_warmup: 790046
conflicts: 5643775

test: 116394

DRAM Statistics
 CHANNEL 0
 RQ ROW_BUFFER_HIT:      10870  ROW_BUFFER_MISS:      17901
 DBUS_CONGESTED:          8
 WQ ROW_BUFFER_HIT:       1455  ROW_BUFFER_MISS:      12590  FULL:          0

 AVG_CONGESTED_CYCLE: 5

CPU 0 Branch Prediction Accuracy: 99.8213% MPKI: 0.32708 Average ROB Occupancy at Mispredict: 120.048
Branch types
NOT_BRANCH: 40846356 81.6927%
BRANCH_DIRECT_JUMP: 546037 1.09207%
BRANCH_INDIRECT: 181869 0.363738%
BRANCH_CONDITIONAL: 6199831 12.3997%
BRANCH_DIRECT_CALL: 941168 1.88234%
BRANCH_INDIRECT_CALL: 171552 0.343104%
BRANCH_RETURN: 1112699 2.2254%
BRANCH_OTHER: 0 0%

DRAM PAGES: 1048576
Allocated PAGES: 2641
Average_ROB_Occupancy: 109.948
Average_Decode_Occupancy: 13.3988
Average_FTQ_Occupancy: 6.43184
Indirect max targets: 14 Average targets: 1.17445
Branch_type:  BRANCH_DIRECT_JUMP:  Count Percentage: 3.30547 6.32296 3.6662 7.38011 3.46413 6.02123 1.59466 68.2452 
Branch_type:  BRANCH_INDIRECT:  Count Percentage: 6.14916 3.48055 8.1631 9.6621 3.34687 2.81024 3.88213 62.5058 
Branch_type:  BRANCH_CONDITIONAL:  Count Percentage: 25.4888 3.08377 1.42264 4.45946 2.484 3.94463 2.27458 56.8421 
Branch_type:  BRANCH_DIRECT_CALL:  Count Percentage: 0.388825 1.27653 0.72773 3.53498 3.54818 2.62093 3.16808 84.7347 
Branch_type:  BRANCH_INDIRECT_CALL:  Count Percentage: 9.5639 0 2.99891 0.00263396 0.901107 1.71646 4.99516 79.8218 
Branch_type:  BRANCH_RETURN:  Count Percentage: 8.27087 1.10028 1.0315 3.52479 4.50714 4.19308 2.7826 74.5897 
Branch_type:  BRANCH_DIRECT_JUMP:  Total Count: 36086 69028 40024 80569 37818 65734 17409 745036 
Branch_type:  BRANCH_INDIRECT:  Total Count: 22402 12680 29739 35200 12193 10238 14143 227715 
Branch_type:  BRANCH_CONDITIONAL:  Total Count: 3159611 382266 176351 552797 307918 488979 281958 7046181 
Branch_type:  BRANCH_DIRECT_CALL:  Total Count: 7306 23986 13674 66422 66670 49247 59528 1592160 
Branch_type:  BRANCH_INDIRECT_CALL:  Total Count: 32679 0 10247 9 3079 5865 17068 272744 
Branch_type:  BRANCH_RETURN:  Total Count: 183739 24443 22915 78304 100127 93150 61816 1657026 
Number of unique branch instructions: 10640
Upper 32 bits: 
aaaa
ffff
ffff0000
Unique upper 32 bits: 3
Unique upper 36 bits: 3
Unique upper 40 bits: 5
Unique upper 44 bits: 32
Unique upper 48 bits: 160
Variant_0 : 1086 0.265137
Variant_1 : 1257 0.306885
Variant_2 : 1561 0.381104
Variant_3 : 0 0
Offset_3 4390
Offset_4 270
Offset_5 480
Offset_6 533
Offset_7 625
Offset_8 567
Offset_9 515
Offset_10 419
Offset_11 332
Offset_12 303
Offset_13 227
Offset_14 234
Offset_15 194
Offset_16 226
Offset_17 163
Offset_18 144
Offset_19 256
Offset_20 143
Offset_21 261
Offset_22 400
Offset_23 241
Offset_24 362
Offset_25 114
Offset_47 96
Offset_64 1
decode_dispatch_called: 20320567 44.132
Dispatch_width: 0 10327389 50.8223 22.4289
Dispatch_width: 1 530929 2.61277 1.15307
Dispatch_width: 2 672238 3.30817 1.45996
Dispatch_width: 3 458557 2.25662 0.99589
Dispatch_width: 4 1445389 7.11294 3.13908
Dispatch_width: 5 349356 1.71922 0.758729
Dispatch_width: 6 6536709 32.1679 14.1964
Empty_decode_cycles: 25724355 55.868
ROB_full_cycles: 1798612 3.90621
Starvation_cycles_per_kilo_instr: 377.096
Starvation_cycles_per_kilo_instr_3: 359.149
Starvation_cycles_per_kilo_instr_0: 342.531
Branch_type_1  (3,1)  (4,10)  (5,41)  (6,73)  (7,124)  (8,146)  (9,138)  (10,109)  (11,74)  (12,47)  (13,11)  (14,2)  (15,3)  (16,4)  (18,1)  (19,5)  (20,2)  (21,1)  (22,3)  (23,2)  (24,11)  (25,12) 
Branch_type_2  (3,1)  (4,1)  (5,1)  (8,4)  (9,4)  (10,1)  (12,1)  (13,1)  (14,1)  (16,3)  (17,2)  (20,2)  (21,2)  (23,5)  (24,1)  (47,44) 
Branch_type_3  (3,4388)  (4,259)  (5,434)  (6,444)  (7,470)  (8,351)  (9,282)  (10,169)  (11,128)  (12,54)  (13,10)  (64,1) 
Branch_type_4  (6,3)  (7,8)  (8,25)  (9,57)  (10,66)  (11,68)  (12,110)  (13,96)  (14,105)  (15,92)  (16,99)  (17,76)  (18,61)  (19,123)  (20,73)  (21,141)  (22,209)  (23,136)  (24,208)  (25,98) 
Branch_type_5  (8,3)  (9,1)  (10,4)  (11,5)  (12,3)  (13,14)  (14,16)  (15,11)  (16,22)  (17,11)  (18,23)  (19,15)  (20,12)  (21,13)  (22,43)  (23,26)  (24,42) 
Branch_type_6  (5,4)  (6,13)  (7,23)  (8,38)  (9,33)  (10,70)  (11,57)  (12,88)  (13,95)  (14,110)  (15,88)  (16,98)  (17,74)  (18,59)  (19,113)  (20,54)  (21,104)  (22,145)  (23,72)  (24,100)  (25,4)  (47,52) 
Unique trigger count: 
Variant_0_evicts_0 : 0
Variant_0_evicts_1 : 0
Variant_0_evicts_2 : 0
Variant_0_evicts_3 : 0
Variant_1_evicts_0 : 0
Variant_1_evicts_1 : 0
Variant_1_evicts_2 : 0
Variant_1_evicts_3 : 0
Variant_2_evicts_0 : 0
Variant_2_evicts_1 : 0
Variant_2_evicts_2 : 0
Variant_2_evicts_3 : 0
Variant_3_evicts_0 : 0
Variant_3_evicts_1 : 0
Variant_3_evicts_2 : 0
Variant_3_evicts_3 : 0
BTB PER SET UNIQUE ADDR: 2 7 3 8 5 6 7 6 2 6 5 4 2 5 10 8 5 5 4 2 5 9 7 10 5 6 5 4 5 8 7 5 4 7 5 8 5 3 6 9 4 9 6 4 7 6 3 5 6 7 10 6 6 4 2 8 5 3 7 6 5 8 4 7 7 3 5 4 4 8 8 6 5 7 7 9 3 5 6 7 9 7 5 10 6 4 6 3 5 7 7 8 7 9 4 2 4 3 4 6 6 3 4 6 5 5 5 6 6 8 7 1 3 9 2 5 4 7 5 12 6 5 5 3 8 7 4 5 6 2 3 6 3 5 7 6 5 2 7 5 3 4 9 7 5 8 5 5 7 7 3 2 3 10 2 4 6 3 6 5 2 6 4 7 9 2 1 4 9 10 6 6 5 4 4 5 5 6 6 6 5 5 4 9 6 5 4 5 5 5 6 3 5 7 3 7 5 6 6 3 6 7 3 4 1 10 4 4 7 6 2 2 8 6 5 5 6 5 5 5 6 8 6 8 6 10 7 4 8 9 3 5 6 12 3 6 4 8 5 7 6 6 6 6 6 4 4 5 6 7 4 8 4 2 5 6 3 5 7 2 9 6 7 4 4 4 6 5 8 5 7 8 6 7 6 5 7 2 6 11 9 2 4 7 4 5 11 4 8 5 3 2 10 7 7 5 6 3 7 4 14 3 5 12 4 3 7 9 7 4 7 5 7 7 5 5 4 7 6 3 10 8 3 6 10 7 3 6 2 9 4 11 3 5 3 5 7 9 6 8 2 5 5 3 5 5 4 8 1 4 6 7 5 2 7 4 4 6 5 4 12 6 5 8 7 9 6 7 6 3 8 7 10 7 6 5 7 8 5 2 4 6 5 4 8 4 5 7 5 7 5 2 4 7 4 5 6 2 5 3 7 7 6 4 3 10 11 5 9 2 6 4 1 6 6 3 5 4 4 6 6 3 4 6 7 4 6 8 6 8 10 3 3 5 7 1 5 2 2 4 9 5 3 2 3 1 3 6 7 4 9 2 6 5 5 2 7 3 13 5 5 6 4 11 2 10 4 6 2 7 5 8 3 7 4 8 3 3 4 7 5 2 6 4 4 5 4 6 5 7 8 5 6 7 7 4 7 7 3 8 3 3 4 5 6 6 6 6 2 6 8 5 5 3 6 5 9 6 7 5 6 6 9 4 6 12 3 3 5 3 10 7 5 4 3 6 8 9 3 6 4 8 12 13 6 4 7 10 5 3 3 8 3 6 6 8 7 1 6 5 3 2 5 8 6 2 4 4 11 4 5 4 1 7 2 7 9 2 7 5 1 8 2 9 3 4 2 2 7 8 8 7 7 7 3 7 12 9 5 6 10 3 4 2 5 11 9 2 4 4 4 4 5 6 1 5 10 4 9 8 4 5 5 1 6 6 3 5 5 5 7 8 5 5 6 7 3 9 6 12 3 5 5 3 3 6 6 6 4 6 4 5 6 8 5 8 6 4 3 5 4 6 6 8 4 5 3 9 8 6 10 6 7 5 7 4 4 7 4 6 7 9 3 7 9 8 4 7 8 4 6 3 5 7 4 10 4 7 3 8 7 6 4 4 12 4 2 7 7 8 5 1 2 8 5 6 7 7 5 3 7 6 3 9 7 7 10 7 5 8 4 5 9 5 5 2 7 6 3 9 4 11 6 6 5 2 7 4 5 5 7 4 6 5 10 10 9 1 4 7 7 5 7 7 8 7 8 14 7 7 6 5 1 6 6 6 6 7 5 7 7 5 4 6 8 6 5 6 6 9 8 4 4 6 8 6 8 3 5 6 6 6 8 4 5 4 6 4 6 5 7 3 2 5 9 6 11 4 8 4 9 6 5 4 5 6 6 5 10 6 7 5 4 6 5 5 7 4 2 5 1 9 5 4 6 5 5 6 3 5 4 6 5 4 6 3 10 9 4 4 1 6 3 8 7 7 8 7 5 5 4 4 5 4 1 4 5 7 0 6 6 5 6 4 6 6 7 10 3 0 10 3 3 1 4 6 4 8 6 2 8 2 7 5 6 2 5 7 6 11 7 3 5 8 9 9 6 9 9 6 9 1 7 10 2 5 6 7 6 3 3 8 7 4 5 7 3 4 2 7 6 6 4 3 5 4 3 4 7 4 8 8 6 2 12 6 8 3 4 2 6 4 8 5 5 2 6 5 3 4 6 3 5 6 2 4 3 10 7 6 4 7 7 5 9 3 3 5 8 3 4 6 7 10 7 4 5 5 3 5 9 5 8 3 4 5 5 8 6 5 6 7 9 6 7 4 5 7 3 4 5 3 5 7 10 5 7 7 4 5 6 4 6 5 5 8 8 7 2 4 6 5 6 7 7 5 6 6 3 4 6 5 6 5 3 7 10 7 4 2 2 8 5 5 4 7 8 6 10 8 2 5 2 8 9 4 6 6 7 3 8 1 4 5 6 5 4 3 4 8 8 9 5 5 6 4 5 3 5 3 6 12 7 10 3 6 3 5 3 2 6 7 4 5 9 3 6 7 6 6 5 7 4 8 3 7 6 7 4 3 6 6 7 4 7 4 4 5 3 6 8 12 7 3 5 8 3 6 5 5 7 6 1 5 3 3 6 9 7 5 4 2 7 5 2 3 6 8 6 7 10 6 7 4 4 10 4 6 4 6 9 2 12 4 4 4 7 3 6 8 11 10 4 3 8 5 9 5 5 2 6 3 3 3 6 7 5 2 8 4 4 3 6 7 1 6 7 3 8 6 9 2 6 6 6 7 7 6 4 5 4 4 4 3 8 5 3 7 3 5 5 5 6 6 8 6 7 5 2 7 5 10 3 4 6 2 3 4 2 6 3 4 5 5 5 3 7 6 5 9 6 4 11 3 4 7 6 8 8 3 9 5 10 7 6 4 5 8 12 10 8 5 8 10 5 5 7 5 5 6 2 6 5 8 8 7 9 8 8 8 14 7 4 6 11 8 4 5 5 5 4 7 5 6 6 3 5 4 9 11 7 5 4 7 8 4 5 8 6 8 5 6 4 6 9 14 4 5 8 5 5 4 5 7 5 2 8 2 4 6 4 10 7 10 6 2 5 4 6 7 3 6 5 15 8 9 5 4 2 7 2 5 3 7 4 4 6 6 6 2 2 6 9 7 2 7 7 5 5 4 8 6 11 2 4 5 11 8 5 6 2 6 9 5 10 7 4 3 3 5 9 6 6 11 8 10 7 4 3 7 9 4 7 6 10 7 7 9 7 4 7 7 6 4 5 5 9 4 8 4 3 8 2 7 7 5 5 6 10 7 6 3 6 6 11 5 5 7 4 10 5 4 7 1 5 3 8 5 5 10 3 7 5 8 7 4 4 4 6 5 5 6 5 8 5 10 6 4 7 1 7 4 10 8 8 7 10 3 9 3 6 8 10 3 3 6 8 8 7 12 9 1 6 6 7 4 13 6 6 3 4 5 5 4 6 6 6 6 2 7 5 5 6 6 6 7 4 9 5 2 5 6 4 4 2 6 4 8 5 5 3 9 7 5 4 4 4 9 6 7 8 4 5 6 3 6 5 7 8 2 5 5 4 6 4 6 7 5 4 7 6 5 5 5 6 3 4 7 5 6 7 5 7 7 4 5 11 8 9 7 5 6 8 5 3 6 4 4 8 4 3 11 9 8 6 7 3 2 3 3 4 7 9 5 8 5 7 5 6 6 5 6 10 3 7 6 8 5 4 9 9 5 5 6 6 4 4 4 5 5 3 6 4 6 7 4 4 4 2 2 7 4 3 3 5 6 1 5 5 4 7 5 7 2 1 5 6 8 13 4 3 7 2 3 5 5 3 5 4 3 2 5 4 2 4 7 9 4 4 5 1 2 8 7 5 4 4 6 4 7 2 4 3 9 8 6 9 4 4 4 5 3 5 6 5 7 3 5 6 9 6 4 8 4 4 6 4 8 6 5 8 3 3 3 5 6 1 1 3 4 7 9 3 7 5 6 6 6 7 4 2 4 7 10 0 8 4 9 5 9 4 10 2 6 11 7 6 7 3 7 3 7 3 6 4 6 7 6 4 8 5 5 3 4 2 1 4 2 5 3 7 4 9 3 5 4 4 7 2 6 3 5 6 6 7 7 6 4 7 4 5 7 4 3 5 5 5 5 5 8 6 5 3 3 6 6 6 6 4 8 4 5 5 9 5 3 4 8 5 7 2 4 7 4 7 7 2 7 4 3 3 8 3 8 5 4 5 9 5 11 4 5 3 5 7 9 5 8 3 3 3 3 4 5 3 11 1 6 2 5 3 4 3 6 4 5 3 1 3 9 2 6 5 4 4 8 5 3 4 6 6 7 8 2 5 9 1 5 10 4 1 2 9 11 3 8 8 8 6 6 6 5 9 7 7 8 4 2 6 4 5 10 5 9 10 9 4 5 2 7 3 8 6 8 8 8 6 5 8 9 7 4 4 7 6 6 5 8 3 11 4 8 5 12 9 3 5 9 3 5 5 5 3 3 8 8 5 6 4 6 3 7 7 7 5 4 1 3 7 6 0 4 7 10 5 4 6 8 8 7 4 10 7 5 4 10 5 5 8 4 3 11 4 4 6 5 4 15 6 8 3 6 4 6 4 6 9 6 
BTB PER SET COUNT: 2 1847 771 997 952 251 470 877 2 724 1031 361 2 691 1050 206 773 207 1284 11 492 1326 954 622 556 484 313 330 609 1078 803 129 203 1226 724 737 664 150 520 1725 18 1586 8 7 1477 800 215 248 204 1164 1711 519 1013 5 2 874 1043 1126 681 46 1092 1011 236 263 160 9 233 306 5 1222 725 295 216 745 483 1674 3 969 1211 227 765 482 233 1508 682 148 939 3 743 1783 973 1089 1093 1326 5 47 285 10 259 596 666 3 431 153 64 185 52 581 639 936 470 1 185 1235 4 204 406 26 544 2666 446 568 1817 253 10 1167 10 416 931 2 55 422 3 360 596 691 231 172 1050 994 6 576 1388 570 15 374 7 495 382 841 264 489 5 923 2 799 233 772 523 300 3 419 4 504 766 65 1 4 249 732 163 703 389 190 361 397 112 244 67 799 101 744 290 582 487 462 5 18 13 217 78 3 960 663 3 494 174 667 1240 3 454 414 140 155 1 1026 4 551 681 7 2 3 1100 778 289 472 939 301 318 203 206 1050 318 1344 1922 1330 194 130 376 1610 267 197 246 5681 281 663 6 396 508 866 725 97 723 234 438 362 271 644 262 476 4 663 4 170 482 104 269 383 408 2 462 537 497 333 147 526 23 546 844 223 461 657 194 562 565 1038 191 328 586 722 694 2 361 1015 4 578 1971 414 563 11 4 2 1364 587 810 210 11 41 464 242 1154 202 1468 654 228 6 617 37 388 9 214 9 744 366 6 453 8 863 329 6 678 508 221 284 1361 443 366 224 2 380 4 1800 195 980 158 233 998 346 343 701 2 271 366 5 796 255 4 852 1 289 347 260 414 2 655 8 307 530 828 148 1741 323 481 1072 283 3034 880 1391 8 4 650 506 3122 16 443 312 597 492 282 2 130 1095 76 448 919 307 11 515 136 182 293 2 699 379 144 6 1790 5 571 77 671 1012 364 272 434 1297 2587 797 840 2 205 308 1 601 976 247 456 443 304 736 452 3 4 504 955 791 597 717 1232 531 1688 26 3 500 934 3 427 3 2 107 1961 384 3 14 503 1 1468 38 754 492 1682 212 349 331 599 2 730 6 1612 232 1175 383 42 1042 8 1029 358 175 2 548 403 658 22 424 975 236 154 3 275 737 130 2 235 387 10 445 171 342 217 908 398 457 111 598 747 969 1005 543 86 797 3 222 5 283 8 510 262 124 2 58 1054 280 1116 1086 10 590 1085 1445 1129 686 391 519 1464 5 473 1930 70 4 334 6 2299 779 166 21 5 137 609 607 543 248 289 592 1292 1549 479 1128 1178 1651 824 60 3 1243 982 668 425 711 1202 1 195 133 926 7673 520 828 547 2 1174 194 2086 487 208 292 1 1283 3 1184 1273 2 443 154 3 734 2 807 3 296 231 2 10 2436 826 621 854 1328 202 1762 1044 950 362 295 919 3 469 103 174 835 1376 2 203 219 435 154 1151 302 1 244 1175 379 10627 835 328 339 426 1 706 316 552 213 487 513 544 947 78 804 627 775 4 981 584 2525 3 284 492 9 6 1006 264 202 195 833 696 351 206 944 216 429 438 310 3 88 442 472 366 137 275 842 3 1756 734 936 436 374 696 3370 1057 381 354 1427 340 887 1106 795 129 1385 556 1076 443 1182 153 131 641 3 390 991 218 1382 102 1836 406 1633 621 1347 10 9 1186 145 3 417 1567 657 337 1 268 834 84 982 466 424 366 175 364 514 783 798 447 1154 1041 886 1033 734 330 318 781 392 12 2 13 524 169 2429 6 1984 278 304 203 3 441 160 9 719 1474 282 267 343 283 1028 697 1 4 857 576 342 296 150 318 340 621 2464 619 8 211 399 1 315 783 1124 319 732 379 695 812 127 187 253 639 7 716 612 204 1090 517 455 810 9 139 942 233 162 296 190 208 55 564 891 322 5 148 4 316 157 386 3 2 246 1106 507 1910 370 851 81 955 343 243 205 445 1099 421 576 1755 453 804 569 150 1010 44 128 1293 163 2 492 7 1700 469 746 343 9 176 899 4 1043 5 492 48 263 747 56 940 180 225 9 1 453 3 257 496 287 1695 285 809 172 798 236 436 6 1 39 1307 1066 0 1051 381 952 518 164 19 741 292 1615 43 0 1757 39 116 1 4 761 660 944 962 224 927 205 652 887 231 165 23 117 412 1192 810 270 620 737 909 1087 231 698 1471 976 1851 1 116 454 179 8 1452 350 323 406 5 930 1398 390 256 408 229 58 94 1064 922 29 9 4 1048 321 3 42 277 4 1285 1000 526 2 2437 400 1430 3 1726 224 642 170 692 371 327 3 581 404 4 325 8 4 278 1197 2 41 83 1318 468 367 433 228 868 8 701 124 3 950 20 171 7 418 936 999 461 9 284 1732 3 7 516 279 712 1402 250 13 320 1396 1107 500 12 750 1341 357 554 103 241 1177 3 31 398 335 503 210 581 200 899 1186 5 175 704 4 852 622 743 804 517 422 1461 132 378 702 48 456 435 821 981 38 120 5 322 251 280 138 340 10 986 1851 291 2 2 615 461 805 533 604 888 756 542 515 2 412 2 1134 955 184 153 734 215 8 1150 1 239 363 273 218 15 35 40 728 1104 1008 570 6 499 606 200 3 266 3 337 2226 707 1655 368 915 6 198 4 111 212 639 136 1229 755 3 7 701 11 227 387 9 469 117 3 874 408 441 4 10 112 500 592 10 600 216 194 807 3 311 950 11619 1133 308 692 17 10 587 60 385 114 454 1 179 3 934 89 1266 1318 167 69 2 674 255 381 3 196 493 219 672 1032 11 443 408 83 1479 12 148 505 643 925 67 1510 364 227 225 255 258 1111 828 1287 558 198 3 1856 184 966 483 631 147 588 34 10 5 846 740 1177 2 1030 366 641 3 363 1687 1 255 968 61 784 292 800 9 501 46 455 771 658 222 392 150 6 70 498 3 1336 214 14 502 146 6 417 413 52 253 352 290 24 120 89 385 356 524 4 267 586 2 3 117 2 21 3 222 5 9 529 3 424 215 220 686 421 219 1099 3 193 434 310 1181 734 319 1353 34 156 520 248 491 144 1343 1963 1377 75 825 280 1345 343 690 815 340 428 836 4 286 340 509 1008 517 556 1045 926 1024 886 171 28 418 976 840 122 179 436 210 5 304 9 479 53 4 106 1487 380 1952 369 316 5 712 450 192 255 1031 524 413 641 687 226 368 943 1060 215 412 1113 583 1940 4 260 194 19 2 771 3 270 409 459 591 976 746 69 2 267 222 232 727 3 187 286 1927 1237 571 470 134 2 693 2 589 250 319 182 226 14 261 314 258 2 144 422 408 2 302 506 38 15 4 891 272 329 67 6 403 956 247 147 517 2 415 996 59 1226 1034 232 188 92 960 1328 422 418 529 344 963 403 24 213 2336 1406 7 477 1812 1259 1063 1054 537 814 82 426 1338 121 85 318 6 662 6 533 7 3 366 2 728 377 8 5 618 934 318 387 4 45 290 1396 387 290 15 11 1567 166 266 992 1 7 10 381 345 575 1491 184 730 540 494 747 595 11 170 12 272 528 170 346 605 452 1923 823 180 310 2 852 668 772 279 1542 996 999 118 900 96 304 553 2113 217 4 880 97 864 967 1891 1321 1 84 1100 507 743 1226 607 1238 3 501 47 733 166 134 933 221 598 2 827 6 7 249 223 7 466 563 868 216 118 994 383 220 16 2 311 5 444 84 1061 741 941 335 383 412 200 5 858 422 521 915 10 64 345 3 613 357 1148 207 1462 480 289 113 612 5 440 1024 5 151 424 155 252 5 582 518 83 172 600 55 539 262 360 430 633 620 460 1062 186 1336 342 25 637 1359 267 180 214 5 688 736 4 212 738 583 1087 191 801 168 2 3 193 314 511 1438 147 799 650 1263 42 322 6 5 826 591 156 830 744 332 489 4 894 545 312 499 209 56 198 525 699 734 763 457 307 7 134 401 4 931 447 2 333 191 261 3 7 399 357 1 626 5 452 298 5 268 2 1 136 196 465 3056 129 384 927 2 251 350 9 5 401 523 184 63 364 103 2 15 932 1108 140 5 64 1 205 580 492 373 301 4 354 398 341 5 287 16 1930 223 405 456 467 160 312 151 97 39 214 186 658 404 5 672 616 178 39 987 23 141 779 586 1209 308 427 838 3 3 3 133 586 1 1 8 674 496 1216 3 1120 312 469 716 646 1426 387 3 4 358 1327 0 396 79 847 176 1961 435 698 2 725 2718 540 249 268 4 1009 3 948 3 423 436 509 433 88 4 653 318 278 3 4 7 1 245 2 754 4 753 551 411 4 178 4 14 461 134 1032 144 357 532 1111 170 786 963 125 454 104 239 1192 5 588 148 5 342 754 536 1275 260 448 255 276 344 1232 847 656 9 1279 5 389 344 692 15 10 250 986 1915 339 2 89 906 289 400 759 2 865 10573 237 147 1369 237 1316 750 4 343 1322 717 1559 522 451 399 16 576 1418 594 594 70 281 10 3 5 892 12 1139 1 408 551 211 3 292 291 201 180 404 5 1 3 1190 2 60 574 578 65 1296 413 70 169 1263 148 371 839 2 433 1163 1 661 1216 112 1 2 600 714 4 426 653 1204 42 268 608 335 565 44 1230 399 171 2 552 310 293 1187 260 575 1351 289 268 79 2 893 201 689 874 408 392 1654 607 1286 1289 1368 981 120 168 574 3317 788 338 683 559 1677 4 655 432 1622 18 209 554 1401 210 602 465 233 77 10 1087 1545 468 575 100 510 4 303 85 482 7 259 1342 489 636 288 0 87 448 1303 187 139 6 1170 460 751 336 1688 362 798 4 1000 1579 153 541 7 10 1902 118 153 405 569 131 2813 209 1268 94 533 462 6 42 382 666 1050 
To predecode: 0
Predecoding something: 0
Predecode request dropped: 0
sizeofblock_0 0
sizeofblock_1 503829
sizeofblock_2 146869
sizeofblock_3 28781
sizeofblock_4 7122
sizeofblock_5 0
sizeofblock_6 0
sizeofblock_7 0
sizeofblock_8 0
Variant_0 Correct: 1303759 Incorrect: 0 Accuracy: 1
Variant_1 Correct: 1815739 Incorrect: 0 Accuracy: 1
Variant_2 Correct: 3330703 Incorrect: 0 Accuracy: 1
Variant_3 Correct: 0 Incorrect: 0 Accuracy: -nan
