
*** ChampSim Multicore Out-of-Order Simulator ***

Warmup Instructions: 50000000
Simulation Instructions: 50000000
Number of CPUs: 1
LLC sets: 2048
LLC ways: 16
Off-chip DRAM Size: 4096 MB Channels: 1 Width: 64-bit Data Rate: 6400 MT/s
CPU 0 runs ./micro_traces/srv631.trace.gz
.gz
ITLB has LRU replacement policy
DTLB has LRU replacement policy
STLB has LRU replacement policy
FDIP Prefetcher at L1I
L1I has LRU replacement policy
L1D has LRU replacement policy
Initialize SRRIP state for L2C
Initialize DRRIP state for LLC
Heartbeat_Variant_0 : 1334 0.325684 per_variant_size: 0 1334 0 0 0 0 0 0 0 
Heartbeat_Variant_1 : 2347 0.572998 per_variant_size: 0 160 2187 0 0 0 0 0 0 
Heartbeat_Variant_2 : 0 0 per_variant_size: 0 0 0 0 0 0 0 0 0 
Heartbeat_Variant_3 : 0 0 per_variant_size: 0 0 0 0 0 0 0 0 0 
Heartbeat_Variant_0_evicts 0 : 5489 1 : 0 2 : 0 3 : 0 
Heartbeat_Variant_1_evicts 0 : 0 1 : 0 2 : 0 3 : 0 
Heartbeat_Variant_2_evicts 0 : 0 1 : 0 2 : 0 3 : 0 
Heartbeat_Variant_3_evicts 0 : 0 1 : 0 2 : 0 3 : 0 
Heartbeat CPU 0 instructions: 10000000 cycles: 2798008 heartbeat IPC: 3.57397 cumulative IPC: 3.57397 (Simulation time: 0 hr 2 min 2 sec) 
Heartbeat_Variant_0 : 1390 0.339355 per_variant_size: 0 1390 0 0 0 0 0 0 0 
Heartbeat_Variant_1 : 2466 0.602051 per_variant_size: 0 163 2303 0 0 0 0 0 0 
Heartbeat_Variant_2 : 0 0 per_variant_size: 0 0 0 0 0 0 0 0 0 
Heartbeat_Variant_3 : 0 0 per_variant_size: 0 0 0 0 0 0 0 0 0 
Heartbeat_Variant_0_evicts 0 : 5518 1 : 8 2 : 0 3 : 0 
Heartbeat_Variant_1_evicts 0 : 5 1 : 0 2 : 0 3 : 0 
Heartbeat_Variant_2_evicts 0 : 0 1 : 0 2 : 0 3 : 0 
Heartbeat_Variant_3_evicts 0 : 0 1 : 0 2 : 0 3 : 0 
Heartbeat CPU 0 instructions: 20000002 cycles: 5595606 heartbeat IPC: 3.5745 cumulative IPC: 3.57423 (Simulation time: 0 hr 3 min 42 sec) 
Heartbeat_Variant_0 : 1389 0.339111 per_variant_size: 0 1389 0 0 0 0 0 0 0 
Heartbeat_Variant_1 : 2468 0.602539 per_variant_size: 0 155 2313 0 0 0 0 0 0 
Heartbeat_Variant_2 : 0 0 per_variant_size: 0 0 0 0 0 0 0 0 0 
Heartbeat_Variant_3 : 0 0 per_variant_size: 0 0 0 0 0 0 0 0 0 
Heartbeat_Variant_0_evicts 0 : 5577 1 : 0 2 : 0 3 : 0 
Heartbeat_Variant_1_evicts 0 : 1 1 : 0 2 : 0 3 : 0 
Heartbeat_Variant_2_evicts 0 : 0 1 : 0 2 : 0 3 : 0 
Heartbeat_Variant_3_evicts 0 : 0 1 : 0 2 : 0 3 : 0 
Heartbeat CPU 0 instructions: 30000002 cycles: 8391288 heartbeat IPC: 3.57694 cumulative IPC: 3.57514 (Simulation time: 0 hr 5 min 23 sec) 
Heartbeat_Variant_0 : 1392 0.339844 per_variant_size: 0 1392 0 0 0 0 0 0 0 
Heartbeat_Variant_1 : 2494 0.608887 per_variant_size: 0 171 2323 0 0 0 0 0 0 
Heartbeat_Variant_2 : 0 0 per_variant_size: 0 0 0 0 0 0 0 0 0 
Heartbeat_Variant_3 : 0 0 per_variant_size: 0 0 0 0 0 0 0 0 0 
Heartbeat_Variant_0_evicts 0 : 5641 1 : 2 2 : 0 3 : 0 
Heartbeat_Variant_1_evicts 0 : 5 1 : 0 2 : 0 3 : 0 
Heartbeat_Variant_2_evicts 0 : 0 1 : 0 2 : 0 3 : 0 
Heartbeat_Variant_3_evicts 0 : 0 1 : 0 2 : 0 3 : 0 
Heartbeat CPU 0 instructions: 40000001 cycles: 11187793 heartbeat IPC: 3.57589 cumulative IPC: 3.57533 (Simulation time: 0 hr 7 min 3 sec) 
Heartbeat_Variant_0 : 1392 0.339844 per_variant_size: 0 1392 0 0 0 0 0 0 0 
Heartbeat_Variant_1 : 2494 0.608887 per_variant_size: 0 172 2322 0 0 0 0 0 0 
Heartbeat_Variant_2 : 0 0 per_variant_size: 0 0 0 0 0 0 0 0 0 
Heartbeat_Variant_3 : 0 0 per_variant_size: 0 0 0 0 0 0 0 0 0 
Heartbeat_Variant_0_evicts 0 : 5576 1 : 0 2 : 0 3 : 0 
Heartbeat_Variant_1_evicts 0 : 0 1 : 0 2 : 0 3 : 0 
Heartbeat_Variant_2_evicts 0 : 0 1 : 0 2 : 0 3 : 0 
Heartbeat_Variant_3_evicts 0 : 0 1 : 0 2 : 0 3 : 0 
Heartbeat CPU 0 instructions: 50000002 cycles: 13985191 heartbeat IPC: 3.57475 cumulative IPC: 3.57521 (Simulation time: 0 hr 8 min 42 sec) 

Warmup complete CPU 0 instructions: 50000002 cycles: 13985191 (Simulation time: 0 hr 8 min 42 sec) 

Cycle: 20000000 FTQ IN: 58335395 FTQ occupancy: 20.6213 DECODE IN: 58335395 DECODE occupancy: 53.486 ROB IN: 58335395 ROB occupancy: 318.39 ROB OUT: 58335223
Heartbeat_Variant_0 : 1392 0.339844 per_variant_size: 0 1392 0 0 0 0 0 0 0 
Heartbeat_Variant_1 : 2496 0.609375 per_variant_size: 0 188 2308 0 0 0 0 0 0 
Heartbeat_Variant_2 : 0 0 per_variant_size: 0 0 0 0 0 0 0 0 0 
Heartbeat_Variant_3 : 0 0 per_variant_size: 0 0 0 0 0 0 0 0 0 
Heartbeat_Variant_0_evicts 0 : 5681 1 : 0 2 : 0 3 : 0 
Heartbeat_Variant_1_evicts 0 : 0 1 : 0 2 : 0 3 : 0 
Heartbeat_Variant_2_evicts 0 : 0 1 : 0 2 : 0 3 : 0 
Heartbeat_Variant_3_evicts 0 : 0 1 : 0 2 : 0 3 : 0 
Heartbeat CPU 0 instructions: 60000000 cycles: 21186892 heartbeat IPC: 1.38856 cumulative IPC: 1.38856 (Simulation time: 0 hr 10 min 45 sec) 
Heartbeat_Variant_0 : 1395 0.340576 per_variant_size: 0 1395 0 0 0 0 0 0 0 
Heartbeat_Variant_1 : 2500 0.610352 per_variant_size: 0 187 2313 0 0 0 0 0 0 
Heartbeat_Variant_2 : 0 0 per_variant_size: 0 0 0 0 0 0 0 0 0 
Heartbeat_Variant_3 : 0 0 per_variant_size: 0 0 0 0 0 0 0 0 0 
Heartbeat_Variant_0_evicts 0 : 5698 1 : 1 2 : 0 3 : 0 
Heartbeat_Variant_1_evicts 0 : 0 1 : 0 2 : 0 3 : 0 
Heartbeat_Variant_2_evicts 0 : 0 1 : 0 2 : 0 3 : 0 
Heartbeat_Variant_3_evicts 0 : 0 1 : 0 2 : 0 3 : 0 
Heartbeat CPU 0 instructions: 70000001 cycles: 28324776 heartbeat IPC: 1.40098 cumulative IPC: 1.39474 (Simulation time: 0 hr 12 min 43 sec) 
Cycle: 30000000 FTQ IN: 13882005 FTQ occupancy: 15.1166 DECODE IN: 13881943 DECODE occupancy: 38.5216 ROB IN: 13881884 ROB occupancy: 249.908 ROB OUT: 13881715
Heartbeat_Variant_0 : 1405 0.343018 per_variant_size: 0 1405 0 0 0 0 0 0 0 
Heartbeat_Variant_1 : 2509 0.612549 per_variant_size: 0 198 2311 0 0 0 0 0 0 
Heartbeat_Variant_2 : 0 0 per_variant_size: 0 0 0 0 0 0 0 0 0 
Heartbeat_Variant_3 : 0 0 per_variant_size: 0 0 0 0 0 0 0 0 0 
Heartbeat_Variant_0_evicts 0 : 5656 1 : 4 2 : 0 3 : 0 
Heartbeat_Variant_1_evicts 0 : 1 1 : 0 2 : 0 3 : 0 
Heartbeat_Variant_2_evicts 0 : 0 1 : 0 2 : 0 3 : 0 
Heartbeat_Variant_3_evicts 0 : 0 1 : 0 2 : 0 3 : 0 
Heartbeat CPU 0 instructions: 80000001 cycles: 35533114 heartbeat IPC: 1.38728 cumulative IPC: 1.39225 (Simulation time: 0 hr 14 min 43 sec) 
Cycle: 40000000 FTQ IN: 14023960 FTQ occupancy: 15.0854 DECODE IN: 14023892 DECODE occupancy: 38.7114 ROB IN: 14023891 ROB occupancy: 250.809 ROB OUT: 14023884
Heartbeat_Variant_0 : 1405 0.343018 per_variant_size: 0 1405 0 0 0 0 0 0 0 
Heartbeat_Variant_1 : 2513 0.613525 per_variant_size: 0 194 2319 0 0 0 0 0 0 
Heartbeat_Variant_2 : 0 0 per_variant_size: 0 0 0 0 0 0 0 0 0 
Heartbeat_Variant_3 : 0 0 per_variant_size: 0 0 0 0 0 0 0 0 0 
Heartbeat_Variant_0_evicts 0 : 5575 1 : 0 2 : 0 3 : 0 
Heartbeat_Variant_1_evicts 0 : 0 1 : 0 2 : 0 3 : 0 
Heartbeat_Variant_2_evicts 0 : 0 1 : 0 2 : 0 3 : 0 
Heartbeat_Variant_3_evicts 0 : 0 1 : 0 2 : 0 3 : 0 
Heartbeat CPU 0 instructions: 90000002 cycles: 42686159 heartbeat IPC: 1.39801 cumulative IPC: 1.39368 (Simulation time: 0 hr 16 min 42 sec) 
Heartbeat_Variant_0 : 1405 0.343018 per_variant_size: 0 1405 0 0 0 0 0 0 0 
Heartbeat_Variant_1 : 2513 0.613525 per_variant_size: 0 186 2327 0 0 0 0 0 0 
Heartbeat_Variant_2 : 0 0 per_variant_size: 0 0 0 0 0 0 0 0 0 
Heartbeat_Variant_3 : 0 0 per_variant_size: 0 0 0 0 0 0 0 0 0 
Heartbeat_Variant_0_evicts 0 : 5550 1 : 0 2 : 0 3 : 0 
Heartbeat_Variant_1_evicts 0 : 0 1 : 0 2 : 0 3 : 0 
Heartbeat_Variant_2_evicts 0 : 0 1 : 0 2 : 0 3 : 0 
Heartbeat_Variant_3_evicts 0 : 0 1 : 0 2 : 0 3 : 0 
Heartbeat CPU 0 instructions: 100000001 cycles: 49914879 heartbeat IPC: 1.38337 cumulative IPC: 1.39161 (Simulation time: 0 hr 18 min 42 sec) 
Finished CPU 0 instructions: 50000003 cycles: 35929689 cumulative IPC: 1.39161 (Simulation time: 0 hr 18 min 42 sec) 

ChampSim completed all CPUs

Region of Interest Statistics

CPU 0 cumulative IPC: 1.39161 instructions: 50000003 cycles: 35929689
 Fetch stage stalled: 45.2455  Sim cycles: 35929689 fetch stall cycle: 16256558
 Empty decode stage: 24.5383  Sim cycles: 35929689 fetch stall cycle: 8816538
ITLB TOTAL     ACCESS:    5833219  HIT:    5340932  MISS:     492287  HIT %:    91.5606  MISS %:    8.43937   MPKI: 9.84574
ITLB LOAD TRANSLATION INSTRUCTION	ACCESS:    5699091  HIT:    5206804  MISS:     492287  HIT %:     91.362  MISS %:    8.63799  MPKI: 9.84574
ITLB TRANSLATION FROM L1D PREFETCHER INSTRUCTION	ACCESS:     134128  HIT:     134128  MISS:          0  HIT %:        100  MISS %:          0  MPKI: 0

ITLB AVERAGE MISS LATENCY: 9.07718 cycles
ITLB RQ	ACCESS:    7937556	FORWARD:          0	MERGED:    1624120	TO_CACHE:    6313436

DTLB TOTAL     ACCESS:    8962717  HIT:    8495442  MISS:     467275  HIT %:    94.7865  MISS %:    5.21354   MPKI: 9.3455
DTLB LOAD TRANSLATION DATA	ACCESS:    8962717  HIT:    8495442  MISS:     467275  HIT %:    94.7865  MISS %:    5.21354  MPKI: 9.3455

DTLB AVERAGE MISS LATENCY: 9.35426 cycles
DTLB RQ	ACCESS:   13357682	FORWARD:          0	MERGED:    4356804	TO_CACHE:    9000878

STLB TOTAL     ACCESS:    1209740  HIT:    1207413  MISS:       2327  HIT %:    99.8076  MISS %:   0.192355   MPKI: 0.04654
STLB LOAD TRANSLATION INSTRUCTION	ACCESS:     492286  HIT:     491965  MISS:        321  HIT %:    99.9348  MISS %:   0.065206  MPKI: 0.00642
STLB LOAD TRANSLATION DATA	ACCESS:     467275  HIT:     465289  MISS:       1986  HIT %:     99.575  MISS %:   0.425017  MPKI: 0.03972
STLB TRANSLATION FROM L1D PREFETCHER DATA	ACCESS:     250179  HIT:     250159  MISS:         20  HIT %:     99.992  MISS %: 0.00799428  MPKI: 0.0004

STLB AVERAGE MISS LATENCY: 74.1495 cycles
STLB RQ	ACCESS:    1329998	FORWARD:          0	MERGED:     120223	TO_CACHE:    1209775

STLB Hit, L1D data hit: 0
STLB Hit, L2C data hit: 0
STLB Hit, LLC data hit: 0
STLB Hit, LLC data miss: 0
STLB STLB hints to L2: 0
L1D TOTAL     ACCESS:   13106539  HIT:   11993861  MISS:    1112678  HIT %:    91.5105  MISS %:    8.48949   MPKI: 22.2536
L1D LOAD DATA	ACCESS:    6571422  HIT:    5838596  MISS:     732826  HIT %:    88.8483  MISS %:    11.1517  MPKI: 14.6565
L1D RFO DATA	ACCESS:    6203839  HIT:    5917730  MISS:     286109  HIT %:    95.3882  MISS %:    4.61181  MPKI: 5.72218
L1D PREFETCH DATA	ACCESS:     331278  HIT:     237535  MISS:      93743  HIT %:    71.7026  MISS %:    28.2974  MPKI: 1.87486

L1D PREFETCH  REQUESTED:     741274  ISSUED:     741274  USEFUL:      33893  USELESS:      68513
L1D USEFUL LOAD PREFETCHES:      33893 PREFETCH ISSUED TO LOWER LEVEL:     102468  ACCURACY: 33.0767
 TIMELY PREFETCHES:      33893 LATE PREFETCHES: 8682 DROPPED PREFETCHES: 6
L1D AVERAGE MISS LATENCY: 247878 cycles
L1D RQ	ACCESS:   10704283	FORWARD:          0	MERGED:    3929902	TO_CACHE:    6607252
L1D WQ	ACCESS:    6947999	FORWARD:     167533	MERGED:     197569	TO_CACHE:    6750430
L1D PQ	ACCESS:     370839	FORWARD:          0	MERGED:          0	TO_CACHE:     370435

L1D UNIQUE REGIONS ACCESSED: 0
L1D REGIONS CONFLICTS: 0
L1D Cross Page Prefetch Requests: 5539
L1D Same Page Prefetch Requests: 745854
L1D ROI Sum of L1D PQ occupancy: 4712731
L1D PREFETCHES PUSHED FROM L2C: 0
L1I TOTAL     ACCESS:    7130355  HIT:    4373698  MISS:    2756657  HIT %:    61.3391  MISS %:    38.6609   MPKI: 55.1331
L1I LOAD INSTRUCTION	ACCESS:    6451886  HIT:    3695229  MISS:    2756657  HIT %:    57.2736  MISS %:    42.7264  MPKI: 55.1331
L1I PREFETCH INSTRUCTION	ACCESS:     678469  HIT:     678469  MISS:          0  HIT %:        100  MISS %:          0  MPKI: 0

L1I PREFETCH  REQUESTED:    1616635  ISSUED:    1616635  USEFUL:          0  USELESS:          0
L1I USEFUL LOAD PREFETCHES:          0 PREFETCH ISSUED TO LOWER LEVEL:          0  ACCURACY: -nan
 TIMELY PREFETCHES:          0 LATE PREFETCHES: 0 DROPPED PREFETCHES: 0
L1I AVERAGE MISS LATENCY: 17.2862 cycles
L1I RQ	ACCESS:    9564480	FORWARD:          0	MERGED:    2815484	TO_CACHE:    6748996
L1I PQ	ACCESS:    1616635	FORWARD:          0	MERGED:     428075	TO_CACHE:    1188560

L1BTB TOTAL     ACCESS:    5671854  HIT:    2051300  MISS:    3620554  HIT %:    36.1663  MISS %:    63.8337   MPKI: 72.4111
L1BTB BRANCH_DIRECT_JUMP	ACCESS:     548798 HIT:     144981 MISS:     403817 AVERAGE STALL: 55.4567 AVERAGE FETCH STALL: 14.8496 AVERAGE FETCH QUEUE STALL: 19.6466 AVERAGE DECODE STALL: 20.0289 AVERAGE EXECUTE STALL: 2.49415e+15
L1BTB BRANCH_INDIRECT	ACCESS:     183515 HIT:      66449 MISS:     117066 AVERAGE STALL: 113.803 AVERAGE FETCH STALL: 10.9044 AVERAGE FETCH QUEUE STALL: 20.9754 AVERAGE DECODE STALL: 13.1566 AVERAGE EXECUTE STALL: 67.8056
L1BTB BRANCH_CONDITIONAL	ACCESS:    2718304 HIT:    1426953 MISS:    1291351 AVERAGE STALL: 68.5351 AVERAGE FETCH STALL: 22.3207 AVERAGE FETCH QUEUE STALL: 23.8503 AVERAGE DECODE STALL: 21.649 AVERAGE EXECUTE STALL: 4.40467e+15
L1BTB BRANCH_DIRECT_CALL	ACCESS:     939621 HIT:     103842 MISS:     835779 AVERAGE STALL: 68.4629 AVERAGE FETCH STALL: 34.3963 AVERAGE FETCH QUEUE STALL: 17.3124 AVERAGE DECODE STALL: 16.2546 AVERAGE EXECUTE STALL: 1.77886e+16
L1BTB BRANCH_INDIRECT_CALL	ACCESS:     170999 HIT:      20803 MISS:     150196 AVERAGE STALL: 142.978 AVERAGE FETCH STALL: 12.1771 AVERAGE FETCH QUEUE STALL: 18.7077 AVERAGE DECODE STALL: 12.1312 AVERAGE EXECUTE STALL: 99.4756
L1BTB BRANCH_RETURN	ACCESS:    1110617 HIT:     288272 MISS:     822345 AVERAGE STALL: 48.8494 AVERAGE FETCH STALL: 16.6392 AVERAGE FETCH QUEUE STALL: 5.60234 AVERAGE DECODE STALL: 6.12759 AVERAGE EXECUTE STALL: 4.3488e+14
L1BTB BRANCH_OTHER ACCESS:          0 HIT:          0 MISS:          0 AVERAGE STALL: -nan AVERAGE FETCH STALL: -nan AVERAGE FETCH QUEUE STALL: -nan AVERAGE DECODE STALL: -nan AVERAGE EXECUTE STALL: -nan
L1BTB TOTAL ROB OCCUPANCY AT BTB MISS: 2.5546

L2BTB TOTAL     ACCESS:    3595015  HIT:    3532627  MISS:      62388  HIT %:    98.2646  MISS %:     1.7354   MPKI: 1.24776
L2BTB BRANCH_DIRECT_JUMP	ACCESS:     399574 HIT:     396420 MISS:       3154 AVERAGE STALL: 55.4567 AVERAGE FETCH STALL: 14.8496 AVERAGE FETCH QUEUE STALL: 19.6466 AVERAGE DECODE STALL: 20.0289 AVERAGE EXECUTE STALL: 2.49415e+15
L2BTB BRANCH_INDIRECT	ACCESS:     106799 HIT:     104082 MISS:       2717 AVERAGE STALL: 113.803 AVERAGE FETCH STALL: 10.9044 AVERAGE FETCH QUEUE STALL: 20.9754 AVERAGE DECODE STALL: 13.1566 AVERAGE EXECUTE STALL: 67.8056
L2BTB BRANCH_CONDITIONAL	ACCESS:    1291351 HIT:    1287068 MISS:       4283 AVERAGE STALL: 68.5351 AVERAGE FETCH STALL: 22.3207 AVERAGE FETCH QUEUE STALL: 23.8503 AVERAGE DECODE STALL: 21.649 AVERAGE EXECUTE STALL: 4.40467e+15
L2BTB BRANCH_DIRECT_CALL	ACCESS:     835779 HIT:     834735 MISS:       1044 AVERAGE STALL: 68.4629 AVERAGE FETCH STALL: 34.3963 AVERAGE FETCH QUEUE STALL: 17.3124 AVERAGE DECODE STALL: 16.2546 AVERAGE EXECUTE STALL: 1.77886e+16
L2BTB BRANCH_INDIRECT_CALL	ACCESS:     140565 HIT:     130403 MISS:      10162 AVERAGE STALL: 142.978 AVERAGE FETCH STALL: 12.1771 AVERAGE FETCH QUEUE STALL: 18.7077 AVERAGE DECODE STALL: 12.1312 AVERAGE EXECUTE STALL: 99.4756
L2BTB BRANCH_RETURN	ACCESS:     820947 HIT:     779919 MISS:      41028 AVERAGE STALL: 48.8494 AVERAGE FETCH STALL: 16.6392 AVERAGE FETCH QUEUE STALL: 5.60234 AVERAGE DECODE STALL: 6.12759 AVERAGE EXECUTE STALL: 4.3488e+14
L2BTB BRANCH_OTHER ACCESS:          0 HIT:          0 MISS:          0 AVERAGE STALL: -nan AVERAGE FETCH STALL: -nan AVERAGE FETCH QUEUE STALL: -nan AVERAGE DECODE STALL: -nan AVERAGE EXECUTE STALL: -nan
L2BTB TOTAL ROB OCCUPANCY AT BTB MISS: 148.251

L2C TOTAL     ACCESS:    4483900  HIT:    3988608  MISS:     495292  HIT %:     88.954  MISS %:     11.046   MPKI: 9.90584
L2C LOAD INSTRUCTION	ACCESS:    2756657  HIT:    2495161  MISS:     261496  HIT %:     90.514  MISS %:    9.48598  MPKI: 5.22992
L2C LOAD TRANSLATION INSTRUCTION	ACCESS:        363  HIT:        109  MISS:        254  HIT %:    30.0275  MISS %:    69.9725  MPKI: 0.00508
L2C LOAD DATA	ACCESS:     724118  HIT:     646282  MISS:      77836  HIT %:    89.2509  MISS %:    10.7491  MPKI: 1.55672
L2C RFO DATA	ACCESS:     286032  HIT:     225113  MISS:      60919  HIT %:     78.702  MISS %:     21.298  MPKI: 1.21838
L2C PREFETCH DATA	ACCESS:     191548  HIT:     113521  MISS:      78027  HIT %:     59.265  MISS %:     40.735  MPKI: 1.56054
L2C WRITEBACK DATA	ACCESS:     523076  HIT:     507791  MISS:      15285  HIT %:    97.0779  MISS %:    2.92214  MPKI: 0.3057
L2C LOAD TRANSLATION DATA	ACCESS:       2071  HIT:        606  MISS:       1465  HIT %:    29.2612  MISS %:    70.7388  MPKI: 0.0293
L2C TRANSLATION FROM L1D PREFETCHER DATA	ACCESS:         35  HIT:         25  MISS:         10  HIT %:    71.4286  MISS %:    28.5714  MPKI: 0.0002

L2C PREFETCH  REQUESTED:      97886  ISSUED:      97886  USEFUL:       8213  USELESS:      70487
L2C USEFUL LOAD PREFETCHES:       8213 PREFETCH ISSUED TO LOWER LEVEL:      78658  ACCURACY: 10.4414
 TIMELY PREFETCHES:       8213 LATE PREFETCHES: 631 DROPPED PREFETCHES: 0
L2C AVERAGE MISS LATENCY: 38.8793 cycles
L2C RQ	ACCESS:    3769336	FORWARD:          0	MERGED:          0	TO_CACHE:    3769278
L2C WQ	ACCESS:     523076	FORWARD:         58	MERGED:          0	TO_CACHE:     523076
L2C PQ	ACCESS:     200354	FORWARD:          0	MERGED:       3259	TO_CACHE:     197095

L2C Dense regions hint from L2: 0
PSCL5 TOTAL     ACCESS:       4666  HIT:       2333  MISS:       2333  HIT %:         50  MISS %:         50   MPKI: 0.04666
PSCL5 LOAD TRANSLATION INSTRUCTION	ACCESS:       4598  HIT:       2299  MISS:       2299  HIT %:         50  MISS %:         50  MPKI: 0.04598
PSCL5 TRANSLATION FROM L1D PREFETCHER INSTRUCTION	ACCESS:         68  HIT:         34  MISS:         34  HIT %:         50  MISS %:         50  MPKI: 0.00068


PSCL4 TOTAL     ACCESS:       4467  HIT:       2227  MISS:       2240  HIT %:    49.8545  MISS %:    50.1455   MPKI: 0.0448
PSCL4 LOAD TRANSLATION INSTRUCTION	ACCESS:       3443  HIT:       2193  MISS:       1250  HIT %:    63.6945  MISS %:    36.3055  MPKI: 0.025
PSCL4 TRANSLATION FROM L1D PREFETCHER INSTRUCTION	ACCESS:         56  HIT:         34  MISS:         22  HIT %:    60.7143  MISS %:    39.2857  MPKI: 0.00044
PSCL4 LOAD TRANSLATION DATA	ACCESS:        956  HIT:          0  MISS:        956  HIT %:          0  MISS %:        100  MPKI: 0.01912
PSCL4 TRANSLATION FROM L1D PREFETCHER DATA	ACCESS:         12  HIT:          0  MISS:         12  HIT %:          0  MISS %:        100  MPKI: 0.00024


PSCL3 TOTAL     ACCESS:       4591  HIT:       2289  MISS:       2302  HIT %:    49.8584  MISS %:    50.1416   MPKI: 0.04604
PSCL3 LOAD TRANSLATION INSTRUCTION	ACCESS:       3505  HIT:       2255  MISS:       1250  HIT %:    64.3367  MISS %:    35.6633  MPKI: 0.025
PSCL3 TRANSLATION FROM L1D PREFETCHER INSTRUCTION	ACCESS:         56  HIT:         34  MISS:         22  HIT %:    60.7143  MISS %:    39.2857  MPKI: 0.00044
PSCL3 LOAD TRANSLATION DATA	ACCESS:       1018  HIT:          0  MISS:       1018  HIT %:          0  MISS %:        100  MPKI: 0.02036
PSCL3 TRANSLATION FROM L1D PREFETCHER DATA	ACCESS:         12  HIT:          0  MISS:         12  HIT %:          0  MISS %:        100  MPKI: 0.00024


PSCL2 TOTAL     ACCESS:       4554  HIT:       2221  MISS:       2333  HIT %:    48.7703  MISS %:    51.2297   MPKI: 0.04666
PSCL2 LOAD TRANSLATION INSTRUCTION	ACCESS:       2509  HIT:       2188  MISS:        321  HIT %:    87.2061  MISS %:    12.7939  MPKI: 0.00642
PSCL2 TRANSLATION FROM L1D PREFETCHER INSTRUCTION	ACCESS:         33  HIT:         33  MISS:          0  HIT %:        100  MISS %:          0  MPKI: 0
PSCL2 LOAD TRANSLATION DATA	ACCESS:       1979  HIT:          0  MISS:       1979  HIT %:          0  MISS %:        100  MPKI: 0.03958
PSCL2 TRANSLATION FROM L1D PREFETCHER DATA	ACCESS:         33  HIT:          0  MISS:         33  HIT %:          0  MISS %:        100  MPKI: 0.00066


LLC TOTAL     ACCESS:     562435  HIT:     531946  MISS:      30489  HIT %:    94.5791  MISS %:    5.42089   MPKI: 0.60978
LLC LOAD INSTRUCTION	ACCESS:     261496  HIT:     260593  MISS:        903  HIT %:    99.6547  MISS %:   0.345321  MPKI: 0.01806
LLC LOAD TRANSLATION INSTRUCTION	ACCESS:        254  HIT:        231  MISS:         23  HIT %:    90.9449  MISS %:    9.05512  MPKI: 0.00046
LLC LOAD DATA	ACCESS:      77237  HIT:      73841  MISS:       3396  HIT %:    95.6031  MISS %:    4.39686  MPKI: 0.06792
LLC RFO DATA	ACCESS:      60879  HIT:      45055  MISS:      15824  HIT %:    74.0075  MISS %:    25.9925  MPKI: 0.31648
LLC PREFETCH DATA	ACCESS:      78658  HIT:      68815  MISS:       9843  HIT %:    87.4863  MISS %:    12.5137  MPKI: 0.19686
LLC WRITEBACK DATA	ACCESS:      82436  HIT:      82025  MISS:        411  HIT %:    99.5014  MISS %:   0.498569  MPKI: 0.00822
LLC LOAD TRANSLATION DATA	ACCESS:       1465  HIT:       1376  MISS:         89  HIT %:    93.9249  MISS %:    6.07509  MPKI: 0.00178
LLC TRANSLATION FROM L1D PREFETCHER DATA	ACCESS:         10  HIT:         10  MISS:          0  HIT %:        100  MISS %:          0  MPKI: 0

LLC AVERAGE MISS LATENCY: 157.492 cycles
LLC RQ	ACCESS:     401349	FORWARD:          0	MERGED:          0	TO_CACHE:     401341
LLC WQ	ACCESS:      82436	FORWARD:          8	MERGED:          0	TO_CACHE:      82436
LLC PQ	ACCESS:      78658	FORWARD:          0	MERGED:          0	TO_CACHE:      78658

LLC Dense regions hint to LLC: 0

RAW hits: 1940306
Loads Generated: 12644589
Loads sent to L1D: 10704283
Stores Generated: 6947977
Stores sent to L1D: 6947999
Major fault: 0 Minor fault: 2543
Allocated PAGES: 2543

stream: 
stream:times selected: 1183914
stream:pref_filled: 121586
stream:pref_useful: 23133
stream:pref_late: 6701
stream:misses: 6786
stream:misses_by_poll: 0

CS: 
CS:times selected: 176924
CS:pref_filled: 58284
CS:pref_useful: 34722
CS:pref_late: 7809
CS:misses: 17494
CS:misses_by_poll: 5

CPLX: 
CPLX:times selected: 1005613
CPLX:pref_filled: 20232
CPLX:pref_useful: 4923
CPLX:pref_late: 3049
CPLX:misses: 90160
CPLX:misses_by_poll: 2

NL_L1: 
NL:times selected: 17903
NL:pref_filled: 589
NL:pref_useful: 221
NL:pref_late: 192
NL:misses: 899
NL:misses_by_poll: 0

total selections: 2384354
total_filled: 93743
total_useful: 33893
total_late: 18963
total_polluted: 7
total_misses_after_warmup: 768656
conflicts: 5539860

test: 115395

DRAM Statistics
 CHANNEL 0
 RQ ROW_BUFFER_HIT:      11564  ROW_BUFFER_MISS:      18493
 DBUS_CONGESTED:          8
 WQ ROW_BUFFER_HIT:       1508  ROW_BUFFER_MISS:      13317  FULL:          0

 AVG_CONGESTED_CYCLE: 4

CPU 0 Branch Prediction Accuracy: 99.8224% MPKI: 0.32442 Average ROB Occupancy at Mispredict: 201.94
Branch types
NOT_BRANCH: 40865310 81.7306%
BRANCH_DIRECT_JUMP: 548798 1.0976%
BRANCH_INDIRECT: 183515 0.36703%
BRANCH_CONDITIONAL: 6181086 12.3622%
BRANCH_DIRECT_CALL: 939621 1.87924%
BRANCH_INDIRECT_CALL: 170999 0.341998%
BRANCH_RETURN: 1110617 2.22123%
BRANCH_OTHER: 0 0%

DRAM PAGES: 1048576
Allocated PAGES: 2543
Average_ROB_Occupancy: 251.355
Average_Decode_Occupancy: 38.5707
Average_FTQ_Occupancy: 15.1096
Indirect max targets: 14 Average targets: 1.14527
Branch_type:  BRANCH_DIRECT_JUMP:  Count Percentage: 1.9566 7.25665 3.55118 8.77546 9.48872 4.15019 0.997676 63.8235 
Branch_type:  BRANCH_INDIRECT:  Count Percentage: 11.7709 3.42826 2.56361 0 16.6692 9.67693 2.27185 53.6192 
Branch_type:  BRANCH_CONDITIONAL:  Count Percentage: 24.3073 3.49502 1.73505 4.94288 4.80073 4.40645 0.461116 55.8515 
Branch_type:  BRANCH_DIRECT_CALL:  Count Percentage: 0.260614 1.29156 1.28737 4.31044 3.1534 1.23705 0.800294 87.6593 
Branch_type:  BRANCH_INDIRECT_CALL:  Count Percentage: 9.53926 0 2.98951 8.70252 1.70904 0.67738 1.28571 75.0966 
Branch_type:  BRANCH_RETURN:  Count Percentage: 7.9736 0.658626 1.16689 5.7775 6.43025 5.25861 1.36057 71.374 
Branch_type:  BRANCH_DIRECT_JUMP:  Total Count: 21457 79580 38944 96236 104058 45513 10941 699920 
Branch_type:  BRANCH_INDIRECT:  Total Count: 43087 12549 9384 0 61017 35422 8316 196271 
Branch_type:  BRANCH_CONDITIONAL:  Total Count: 3002748 431749 214335 610608 593048 544341 56963 6899488 
Branch_type:  BRANCH_DIRECT_CALL:  Total Count: 4915 24358 24279 81292 59471 23330 15093 1653193 
Branch_type:  BRANCH_INDIRECT_CALL:  Total Count: 32742 0 10261 29870 5866 2325 4413 257757 
Branch_type:  BRANCH_RETURN:  Total Count: 177807 14687 26021 128835 143391 117264 30340 1591600 
Number of unique branch instructions: 9792
Upper 32 bits: 
aaaa
ffff
ffff0000
Unique upper 32 bits: 3
Unique upper 36 bits: 3
Unique upper 40 bits: 5
Unique upper 44 bits: 32
Unique upper 48 bits: 154
Variant_0 : 1405 0.343018
Variant_1 : 2513 0.613525
Variant_2 : 0 0
Variant_3 : 0 0
Offset_3 4032
Offset_4 247
Offset_5 448
Offset_6 498
Offset_7 579
Offset_8 501
Offset_9 461
Offset_10 378
Offset_11 304
Offset_12 270
Offset_13 198
Offset_14 225
Offset_15 179
Offset_16 220
Offset_17 143
Offset_18 118
Offset_19 234
Offset_20 135
Offset_21 235
Offset_22 393
Offset_23 241
Offset_24 334
Offset_25 88
Offset_47 82
Offset_64 1
decode_dispatch_called: 26494169 73.7389
Dispatch_width: 0 14308054 54.0045 39.8224
Dispatch_width: 1 1037901 3.91747 2.8887
Dispatch_width: 2 859670 3.24475 2.39265
Dispatch_width: 3 494423 1.86616 1.37608
Dispatch_width: 4 6450736 24.3478 17.9538
Dispatch_width: 5 103761 0.391637 0.288789
Dispatch_width: 6 3239624 12.2277 9.01657
Empty_decode_cycles: 9435520 26.2611
ROB_full_cycles: 10243160 28.5089
Starvation_cycles_per_kilo_instr: 224.469
Starvation_cycles_per_kilo_instr_3: 158.924
Starvation_cycles_per_kilo_instr_0: 135.004
Branch_type_1  (3,1)  (4,9)  (5,37)  (6,69)  (7,116)  (8,125)  (9,122)  (10,98)  (11,69)  (12,43)  (13,5)  (14,2)  (15,3)  (16,4)  (18,1)  (19,4)  (20,2)  (21,1)  (22,3)  (23,2)  (24,10)  (25,12) 
Branch_type_2  (3,1)  (5,1)  (8,3)  (9,3)  (12,1)  (13,1)  (14,1)  (16,3)  (17,2)  (20,2)  (21,2)  (23,5)  (24,1)  (47,38) 
Branch_type_3  (3,4030)  (4,238)  (5,406)  (6,414)  (7,434)  (8,314)  (9,253)  (10,154)  (11,125)  (12,50)  (13,4)  (24,1)  (64,1) 
Branch_type_4  (6,3)  (7,8)  (8,24)  (9,52)  (10,60)  (11,55)  (12,97)  (13,85)  (14,99)  (15,84)  (16,98)  (17,64)  (18,53)  (19,114)  (20,71)  (21,124)  (22,208)  (23,136)  (24,193)  (25,72) 
Branch_type_5  (8,2)  (9,1)  (10,3)  (11,5)  (12,3)  (13,14)  (14,16)  (15,11)  (16,20)  (17,11)  (18,16)  (19,12)  (20,10)  (21,13)  (22,42)  (23,26)  (24,37) 
Branch_type_6  (5,4)  (6,12)  (7,21)  (8,33)  (9,30)  (10,63)  (11,50)  (12,76)  (13,89)  (14,107)  (15,81)  (16,95)  (17,66)  (18,48)  (19,104)  (20,50)  (21,95)  (22,140)  (23,72)  (24,92)  (25,4)  (47,44) 
Unique trigger count: 
Variant_0_evicts_0 : 0
Variant_0_evicts_1 : 0
Variant_0_evicts_2 : 0
Variant_0_evicts_3 : 0
Variant_1_evicts_0 : 0
Variant_1_evicts_1 : 0
Variant_1_evicts_2 : 0
Variant_1_evicts_3 : 0
Variant_2_evicts_0 : 0
Variant_2_evicts_1 : 0
Variant_2_evicts_2 : 0
Variant_2_evicts_3 : 0
Variant_3_evicts_0 : 0
Variant_3_evicts_1 : 0
Variant_3_evicts_2 : 0
Variant_3_evicts_3 : 0
BTB PER SET UNIQUE ADDR: 28 23 24 27 30 21 27 28 24 24 26 29 22 21 26 26 28 26 25 19 25 23 24 24 25 19 25 26 24 23 28 25 23 27 29 28 26 22 27 28 24 25 25 26 23 23 25 22 24 23 24 22 23 23 26 24 28 21 27 24 25 29 26 25 21 26 24 27 27 23 23 20 22 23 23 27 24 28 26 27 29 26 26 24 30 30 19 26 21 24 23 22 30 26 27 30 27 23 25 30 22 26 21 25 29 24 29 24 27 22 24 26 31 24 28 24 26 20 22 24 26 21 26 23 23 26 24 26 25 23 28 25 22 27 24 23 25 26 25 24 25 21 30 21 30 24 26 25 27 26 25 22 27 29 26 28 23 26 25 27 25 27 25 25 26 26 25 27 29 25 26 24 23 22 22 26 28 22 26 27 26 27 25 33 23 28 23 28 28 24 23 26 26 21 19 29 25 27 27 22 22 25 27 23 30 24 27 25 23 23 24 27 30 21 24 24 27 27 22 26 22 26 27 21 29 24 26 24 27 24 25 23 23 24 28 26 26 26 20 25 27 24 19 28 23 25 22 19 22 23 27 24 25 25 25 27 
BTB PER SET COUNT: 154 29 1490 39 833 25 27 33 517 995 32 1510 23 84 1494 26 410 1015 28 19 35 24 33 25 27 19 1014 32 2957 23 521 27 1549 28 1238 1504 30 25 32 33 672 36 27 26 315 25 998 1970 848 26 24 25 29 25 28 589 32 135 30 25 26 30 1541 589 22 1745 16060 28 1004 25 26 1473 515 25 3957 530 24 604 3434 413 174 26 1249 27 32 1572 25 1493 25 27 23 24 2567 26 27 2544 31 463 42 31 34 26 23 26 1039 28 886 26 271 523 26 74 3818 24 1023 516 1999 1008 22 29 1372 21 1496 994 1976 1003 24 458 2495 26 536 33 1013 1018 1504 24 429 28 26 24 1501 21 30 1014 34 26 157 27 32 27 155 44 31 768 26 1641 128 1483 2001 28 521 34 41 2952 1496 27 25 29 25430 26 402 405 26 24 34 424 37 39 35 38 1000 1039 1049 4319 23 32 30 30 33 25 1490 27 30 28 522 1503 637 32 27 1488 2000 26 33 23 1530 1011 28 2463 429 25 299 28 1502 2468 25 79 75 50 1970 27 22 26 1016 993 31 31 27 53 9365 1513 4897 109 25 754 1495 536 27 1016 1014 1016 37 30 27 213 23 67 1011 21 30 32 396 1255 664 29 396 56 
To predecode: 0
Predecoding something: 0
Predecode request dropped: 0
sizeofblock_0 0
sizeofblock_1 34444
sizeofblock_2 97369
sizeofblock_3 0
sizeofblock_4 0
sizeofblock_5 0
sizeofblock_6 0
sizeofblock_7 0
sizeofblock_8 0
Variant_0 Correct: 1615816 Incorrect: 0 Accuracy: 1
Variant_1 Correct: 5737994 Incorrect: 0 Accuracy: 1
Variant_2 Correct: 0 Incorrect: 0 Accuracy: -nan
Variant_3 Correct: 0 Incorrect: 0 Accuracy: -nan
