
*** ChampSim Multicore Out-of-Order Simulator ***

Warmup Instructions: 50000000
Simulation Instructions: 50000000
Number of CPUs: 1
LLC sets: 2048
LLC ways: 16
Off-chip DRAM Size: 4096 MB Channels: 1 Width: 64-bit Data Rate: 6400 MT/s
CPU 0 runs ./micro_traces/srv687.trace.gz
.gz
ITLB has LRU replacement policy
DTLB has LRU replacement policy
STLB has LRU replacement policy
CPU 0 L1I next line prefetcher
./conditional/srv687.cond
L1I has LRU replacement policy
L1D has LRU replacement policy
Initialize SRRIP state for L2C
Initialize DRRIP state for LLC
Heartbeat_Variant_0 : 1341 0.163696 per_variant_size: 0 1341 0 0 0 0 0 0 0 
Heartbeat_Variant_1 : 1412 0.172363 per_variant_size: 0 967 445 0 0 0 0 0 0 
Heartbeat_Variant_2 : 1672 0.204102 per_variant_size: 0 957 452 233 30 0 0 0 0 
Heartbeat_Variant_3 : 0 0 per_variant_size: 0 0 0 0 0 0 0 0 0 
Heartbeat_Variant_0_evicts 0 : 5583 1 : 2 2 : 2 3 : 0 
Heartbeat_Variant_1_evicts 0 : 2 1 : 0 2 : 197 3 : 0 
Heartbeat_Variant_2_evicts 0 : 3 1 : 199 2 : 0 3 : 0 
Heartbeat_Variant_3_evicts 0 : 0 1 : 0 2 : 0 3 : 0 
Heartbeat CPU 0 instructions: 10000003 cycles: 2798575 heartbeat IPC: 3.57325 cumulative IPC: 3.57325 (Simulation time: 0 hr 2 min 2 sec) 
Heartbeat_Variant_0 : 1379 0.168335 per_variant_size: 0 1379 0 0 0 0 0 0 0 
Heartbeat_Variant_1 : 1458 0.177979 per_variant_size: 0 990 468 0 0 0 0 0 0 
Heartbeat_Variant_2 : 1716 0.209473 per_variant_size: 0 964 470 249 33 0 0 0 0 
Heartbeat_Variant_3 : 0 0 per_variant_size: 0 0 0 0 0 0 0 0 0 
Heartbeat_Variant_0_evicts 0 : 5692 1 : 0 2 : 1 3 : 0 
Heartbeat_Variant_1_evicts 0 : 0 1 : 0 2 : 198 3 : 0 
Heartbeat_Variant_2_evicts 0 : 0 1 : 198 2 : 0 3 : 0 
Heartbeat_Variant_3_evicts 0 : 0 1 : 0 2 : 0 3 : 0 
Heartbeat CPU 0 instructions: 20000002 cycles: 5596341 heartbeat IPC: 3.57428 cumulative IPC: 3.57376 (Simulation time: 0 hr 3 min 47 sec) 
Heartbeat_Variant_0 : 1379 0.168335 per_variant_size: 0 1379 0 0 0 0 0 0 0 
Heartbeat_Variant_1 : 1458 0.177979 per_variant_size: 0 989 469 0 0 0 0 0 0 
Heartbeat_Variant_2 : 1719 0.209839 per_variant_size: 0 967 470 240 42 0 0 0 0 
Heartbeat_Variant_3 : 0 0 per_variant_size: 0 0 0 0 0 0 0 0 0 
Heartbeat_Variant_0_evicts 0 : 5596 1 : 0 2 : 0 3 : 0 
Heartbeat_Variant_1_evicts 0 : 0 1 : 0 2 : 195 3 : 0 
Heartbeat_Variant_2_evicts 0 : 0 1 : 196 2 : 0 3 : 0 
Heartbeat_Variant_3_evicts 0 : 0 1 : 0 2 : 0 3 : 0 
Heartbeat CPU 0 instructions: 30000002 cycles: 8393170 heartbeat IPC: 3.57548 cumulative IPC: 3.57434 (Simulation time: 0 hr 5 min 19 sec) 
Heartbeat_Variant_0 : 1391 0.1698 per_variant_size: 0 1391 0 0 0 0 0 0 0 
Heartbeat_Variant_1 : 1469 0.179321 per_variant_size: 0 986 483 0 0 0 0 0 0 
Heartbeat_Variant_2 : 1731 0.211304 per_variant_size: 0 965 474 254 38 0 0 0 0 
Heartbeat_Variant_3 : 0 0 per_variant_size: 0 0 0 0 0 0 0 0 0 
Heartbeat_Variant_0_evicts 0 : 5524 1 : 1 2 : 0 3 : 0 
Heartbeat_Variant_1_evicts 0 : 0 1 : 0 2 : 197 3 : 0 
Heartbeat_Variant_2_evicts 0 : 0 1 : 195 2 : 0 3 : 0 
Heartbeat_Variant_3_evicts 0 : 0 1 : 0 2 : 0 3 : 0 
Heartbeat CPU 0 instructions: 40000000 cycles: 11190240 heartbeat IPC: 3.57517 cumulative IPC: 3.57454 (Simulation time: 0 hr 6 min 57 sec) 
Heartbeat_Variant_0 : 1391 0.1698 per_variant_size: 0 1391 0 0 0 0 0 0 0 
Heartbeat_Variant_1 : 1470 0.179443 per_variant_size: 0 988 482 0 0 0 0 0 0 
Heartbeat_Variant_2 : 1732 0.211426 per_variant_size: 0 965 476 243 48 0 0 0 0 
Heartbeat_Variant_3 : 0 0 per_variant_size: 0 0 0 0 0 0 0 0 0 
Heartbeat_Variant_0_evicts 0 : 5640 1 : 0 2 : 0 3 : 0 
Heartbeat_Variant_1_evicts 0 : 0 1 : 0 2 : 197 3 : 0 
Heartbeat_Variant_2_evicts 0 : 0 1 : 197 2 : 0 3 : 0 
Heartbeat_Variant_3_evicts 0 : 0 1 : 0 2 : 0 3 : 0 
Heartbeat CPU 0 instructions: 50000001 cycles: 13988181 heartbeat IPC: 3.57406 cumulative IPC: 3.57445 (Simulation time: 0 hr 8 min 40 sec) 

Warmup complete CPU 0 instructions: 50000001 cycles: 13988181 (Simulation time: 0 hr 8 min 40 sec) 

Cycle: 20000000 FTQ IN: 58306295 FTQ occupancy: 19.7278 DECODE IN: 58306153 DECODE occupancy: 51.7579 ROB IN: 58306093 ROB occupancy: 314.783 ROB OUT: 58305745
Heartbeat_Variant_0 : 1396 0.17041 per_variant_size: 0 1396 0 0 0 0 0 0 0 
Heartbeat_Variant_1 : 1478 0.18042 per_variant_size: 0 995 483 0 0 0 0 0 0 
Heartbeat_Variant_2 : 1738 0.212158 per_variant_size: 0 967 478 238 55 0 0 0 0 
Heartbeat_Variant_3 : 0 0 per_variant_size: 0 0 0 0 0 0 0 0 0 
Heartbeat_Variant_0_evicts 0 : 5662 1 : 0 2 : 1 3 : 0 
Heartbeat_Variant_1_evicts 0 : 0 1 : 0 2 : 197 3 : 0 
Heartbeat_Variant_2_evicts 0 : 1 1 : 198 2 : 0 3 : 0 
Heartbeat_Variant_3_evicts 0 : 0 1 : 0 2 : 0 3 : 0 
Heartbeat CPU 0 instructions: 60000000 cycles: 21309177 heartbeat IPC: 1.36593 cumulative IPC: 1.36593 (Simulation time: 0 hr 10 min 27 sec) 
Heartbeat_Variant_0 : 1396 0.17041 per_variant_size: 0 1396 0 0 0 0 0 0 0 
Heartbeat_Variant_1 : 1477 0.180298 per_variant_size: 0 993 484 0 0 0 0 0 0 
Heartbeat_Variant_2 : 1739 0.21228 per_variant_size: 0 967 479 239 54 0 0 0 0 
Heartbeat_Variant_3 : 0 0 per_variant_size: 0 0 0 0 0 0 0 0 0 
Heartbeat_Variant_0_evicts 0 : 5575 1 : 0 2 : 0 3 : 0 
Heartbeat_Variant_1_evicts 0 : 0 1 : 0 2 : 195 3 : 0 
Heartbeat_Variant_2_evicts 0 : 0 1 : 196 2 : 0 3 : 0 
Heartbeat_Variant_3_evicts 0 : 0 1 : 0 2 : 0 3 : 0 
Heartbeat CPU 0 instructions: 70000003 cycles: 28562653 heartbeat IPC: 1.37865 cumulative IPC: 1.37226 (Simulation time: 0 hr 12 min 17 sec) 
Cycle: 30000000 FTQ IN: 13661254 FTQ occupancy: 12.2577 DECODE IN: 13661396 DECODE occupancy: 32.6134 ROB IN: 13661456 ROB occupancy: 235.202 ROB OUT: 13661779
Heartbeat_Variant_0 : 1397 0.170532 per_variant_size: 0 1397 0 0 0 0 0 0 0 
Heartbeat_Variant_1 : 1484 0.181152 per_variant_size: 0 995 489 0 0 0 0 0 0 
Heartbeat_Variant_2 : 1741 0.212524 per_variant_size: 0 967 475 253 46 0 0 0 0 
Heartbeat_Variant_3 : 0 0 per_variant_size: 0 0 0 0 0 0 0 0 0 
Heartbeat_Variant_0_evicts 0 : 5517 1 : 0 2 : 0 3 : 0 
Heartbeat_Variant_1_evicts 0 : 0 1 : 0 2 : 195 3 : 0 
Heartbeat_Variant_2_evicts 0 : 0 1 : 194 2 : 0 3 : 0 
Heartbeat_Variant_3_evicts 0 : 0 1 : 0 2 : 0 3 : 0 
Heartbeat CPU 0 instructions: 80000000 cycles: 35798457 heartbeat IPC: 1.38202 cumulative IPC: 1.3755 (Simulation time: 0 hr 14 min 9 sec) 
Cycle: 40000000 FTQ IN: 13499075 FTQ occupancy: 12.1153 DECODE IN: 13499040 DECODE occupancy: 32.1968 ROB IN: 13499010 ROB occupancy: 231.061 ROB OUT: 13498791
Heartbeat_Variant_0 : 1506 0.183838 per_variant_size: 0 1506 0 0 0 0 0 0 0 
Heartbeat_Variant_1 : 1644 0.200684 per_variant_size: 0 1029 615 0 0 0 0 0 0 
Heartbeat_Variant_2 : 1824 0.222656 per_variant_size: 0 984 498 278 64 0 0 0 0 
Heartbeat_Variant_3 : 0 0 per_variant_size: 0 0 0 0 0 0 0 0 0 
Heartbeat_Variant_0_evicts 0 : 5606 1 : 2 2 : 6 3 : 0 
Heartbeat_Variant_1_evicts 0 : 4 1 : 0 2 : 198 3 : 0 
Heartbeat_Variant_2_evicts 0 : 5 1 : 197 2 : 0 3 : 0 
Heartbeat_Variant_3_evicts 0 : 0 1 : 0 2 : 0 3 : 0 
Heartbeat CPU 0 instructions: 90000000 cycles: 43301531 heartbeat IPC: 1.33279 cumulative IPC: 1.36457 (Simulation time: 0 hr 15 min 58 sec) 
Cycle: 50000000 FTQ IN: 13806488 FTQ occupancy: 12.0733 DECODE IN: 13806421 DECODE occupancy: 32.4144 ROB IN: 13806391 ROB occupancy: 234.292 ROB OUT: 13806499
Heartbeat_Variant_0 : 1506 0.183838 per_variant_size: 0 1506 0 0 0 0 0 0 0 
Heartbeat_Variant_1 : 1645 0.200806 per_variant_size: 0 1027 618 0 0 0 0 0 0 
Heartbeat_Variant_2 : 1824 0.222656 per_variant_size: 0 983 499 279 63 0 0 0 0 
Heartbeat_Variant_3 : 0 0 per_variant_size: 0 0 0 0 0 0 0 0 0 
Heartbeat_Variant_0_evicts 0 : 5613 1 : 0 2 : 0 3 : 0 
Heartbeat_Variant_1_evicts 0 : 0 1 : 0 2 : 196 3 : 0 
Heartbeat_Variant_2_evicts 0 : 0 1 : 196 2 : 0 3 : 0 
Heartbeat_Variant_3_evicts 0 : 0 1 : 0 2 : 0 3 : 0 
Heartbeat CPU 0 instructions: 100000003 cycles: 50522281 heartbeat IPC: 1.3849 cumulative IPC: 1.36858 (Simulation time: 0 hr 17 min 44 sec) 
Finished CPU 0 instructions: 50000002 cycles: 36534100 cumulative IPC: 1.36858 (Simulation time: 0 hr 17 min 44 sec) 

ChampSim completed all CPUs

Region of Interest Statistics

CPU 0 cumulative IPC: 1.36858 instructions: 50000002 cycles: 36534100
 Fetch stage stalled: 55.4431  Sim cycles: 36534100 fetch stall cycle: 20255631
 Empty decode stage: 36.7716  Sim cycles: 36534100 fetch stall cycle: 13434155
ITLB TOTAL     ACCESS:    6920497  HIT:    6414817  MISS:     505680  HIT %:     92.693  MISS %:    7.30699   MPKI: 10.1136
ITLB LOAD TRANSLATION INSTRUCTION	ACCESS:    5689016  HIT:    5202464  MISS:     486552  HIT %:    91.4475  MISS %:    8.55248  MPKI: 9.73104
ITLB TRANSLATION FROM L1D PREFETCHER INSTRUCTION	ACCESS:    1231481  HIT:    1212353  MISS:      19128  HIT %:    98.4467  MISS %:    1.55325  MPKI: 0.38256

ITLB AVERAGE MISS LATENCY: 66410.7 cycles
ITLB RQ	ACCESS:   10159468	FORWARD:          0	MERGED:    2765373	TO_CACHE:    7394095

DTLB TOTAL     ACCESS:    8971531  HIT:    8496359  MISS:     475172  HIT %:    94.7036  MISS %:    5.29644   MPKI: 9.50344
DTLB LOAD TRANSLATION DATA	ACCESS:    8971531  HIT:    8496359  MISS:     475172  HIT %:    94.7036  MISS %:    5.29644  MPKI: 9.50344

DTLB AVERAGE MISS LATENCY: 9.36799 cycles
DTLB RQ	ACCESS:   13338578	FORWARD:          0	MERGED:    4330128	TO_CACHE:    9008450

STLB TOTAL     ACCESS:    1230565  HIT:    1228398  MISS:       2167  HIT %:    99.8239  MISS %:   0.176098   MPKI: 0.04334
STLB LOAD TRANSLATION INSTRUCTION	ACCESS:     485512  HIT:     485259  MISS:        253  HIT %:    99.9479  MISS %:  0.0521099  MPKI: 0.00506
STLB TRANSLATION FROM L1D PREFETCHER INSTRUCTION	ACCESS:      20168  HIT:      20126  MISS:         42  HIT %:    99.7917  MISS %:   0.208251  MPKI: 0.00084
STLB LOAD TRANSLATION DATA	ACCESS:     475172  HIT:     473321  MISS:       1851  HIT %:    99.6105  MISS %:   0.389543  MPKI: 0.03702
STLB TRANSLATION FROM L1D PREFETCHER DATA	ACCESS:     249713  HIT:     249692  MISS:         21  HIT %:    99.9916  MISS %: 0.00840965  MPKI: 0.00042

STLB AVERAGE MISS LATENCY: 79.5431 cycles
STLB RQ	ACCESS:    1375423	FORWARD:          0	MERGED:     121289	TO_CACHE:    1254134

STLB Hit, L1D data hit: 0
STLB Hit, L2C data hit: 0
STLB Hit, LLC data hit: 0
STLB Hit, LLC data miss: 0
STLB STLB hints to L2: 0
L1D TOTAL     ACCESS:   13087652  HIT:   11971102  MISS:    1116550  HIT %:    91.4687  MISS %:    8.53132   MPKI: 22.331
L1D LOAD DATA	ACCESS:    6552754  HIT:    5817294  MISS:     735460  HIT %:    88.7763  MISS %:    11.2237  MPKI: 14.7092
L1D RFO DATA	ACCESS:    6204913  HIT:    5919834  MISS:     285079  HIT %:    95.4056  MISS %:    4.59441  MPKI: 5.70158
L1D PREFETCH DATA	ACCESS:     329985  HIT:     233974  MISS:      96011  HIT %:    70.9044  MISS %:    29.0956  MPKI: 1.92022

L1D PREFETCH  REQUESTED:     742586  ISSUED:     742586  USEFUL:      33979  USELESS:      69988
L1D USEFUL LOAD PREFETCHES:      33979 PREFETCH ISSUED TO LOWER LEVEL:     104071  ACCURACY: 32.6498
 TIMELY PREFETCHES:      33979 LATE PREFETCHES: 7967 DROPPED PREFETCHES: 6
L1D AVERAGE MISS LATENCY: 230343 cycles
L1D RQ	ACCESS:   10688195	FORWARD:          0	MERGED:    3935619	TO_CACHE:    6589038
L1D WQ	ACCESS:    6947035	FORWARD:     164048	MERGED:     197495	TO_CACHE:    6749540
L1D PQ	ACCESS:     371548	FORWARD:          0	MERGED:          0	TO_CACHE:     371038

L1D UNIQUE REGIONS ACCESSED: 0
L1D REGIONS CONFLICTS: 0
L1D Cross Page Prefetch Requests: 6827
L1D Same Page Prefetch Requests: 752419
L1D ROI Sum of L1D PQ occupancy: 4725517
L1D PREFETCHES PUSHED FROM L2C: 0
L1I TOTAL     ACCESS:    8772557  HIT:    5456454  MISS:    3316103  HIT %:    62.1991  MISS %:    37.8009   MPKI: 66.3221
L1I LOAD INSTRUCTION	ACCESS:    6573387  HIT:    4449609  MISS:    2123778  HIT %:    67.6913  MISS %:    32.3087  MPKI: 42.4756
L1I PREFETCH INSTRUCTION	ACCESS:    2199170  HIT:    1006845  MISS:    1192325  HIT %:     45.783  MISS %:     54.217  MPKI: 23.8465

L1I PREFETCH  REQUESTED:    3910273  ISSUED:    3907178  USEFUL:     938325  USELESS:     489357
L1I USEFUL LOAD PREFETCHES:     938325 PREFETCH ISSUED TO LOWER LEVEL:    1427675  ACCURACY: 65.724
 TIMELY PREFETCHES:     938325 LATE PREFETCHES: 235350 DROPPED PREFETCHES: 55564
L1I AVERAGE MISS LATENCY: 2.28996e+06 cycles
L1I RQ	ACCESS:    9501222	FORWARD:          0	MERGED:    2718791	TO_CACHE:    6782431
L1I PQ	ACCESS:    3907178	FORWARD:          0	MERGED:     530141	TO_CACHE:    3377037

L1BTB TOTAL     ACCESS:    5671258  HIT:    2039841  MISS:    3631417  HIT %:    35.9681  MISS %:    64.0319   MPKI: 72.6283
L1BTB BRANCH_DIRECT_JUMP	ACCESS:     548373  HIT:     144631  MISS:     403742	AVERAGE STALL: 44.3215
L1BTB BRANCH_INDIRECT	ACCESS:     182836  HIT:      65879  MISS:     116957	AVERAGE STALL: 103.645
L1BTB BRANCH_CONDITIONAL	ACCESS:    2705345  HIT:    1412183  MISS:    1293162	AVERAGE STALL: 69.1459
L1BTB BRANCH_DIRECT_CALL	ACCESS:     945684  HIT:     105364  MISS:     840320	AVERAGE STALL: 90.1939
L1BTB BRANCH_INDIRECT_CALL	ACCESS:     171669  HIT:      21211  MISS:     150458	AVERAGE STALL: 129.194
L1BTB BRANCH_RETURN	ACCESS:    1117351  HIT:     290573  MISS:     826778	AVERAGE STALL: 48.0363
L1BTB BRANCH_OTHER ACCESS:          0  HIT:          0  MISS:          0	AVERAGE STALL: -nan
L1BTB TOTAL ROB OCCUPANCY AT BTB MISS: 3.47527

L2BTB TOTAL     ACCESS:    3606004  HIT:    3526282  MISS:      79722  HIT %:    97.7892  MISS %:    2.21081   MPKI: 1.59444
L2BTB BRANCH_DIRECT_JUMP	ACCESS:     399582  HIT:     394277  MISS:       5305	AVERAGE STALL: 44.3215
L2BTB BRANCH_INDIRECT	ACCESS:     106640  HIT:     103963  MISS:       2677	AVERAGE STALL: 103.645
L2BTB BRANCH_CONDITIONAL	ACCESS:    1293162  HIT:    1280274  MISS:      12888	AVERAGE STALL: 69.1459
L2BTB BRANCH_DIRECT_CALL	ACCESS:     840320  HIT:     839306  MISS:       1014	AVERAGE STALL: 90.1939
L2BTB BRANCH_INDIRECT_CALL	ACCESS:     140928  HIT:     130878  MISS:      10050	AVERAGE STALL: 129.194
L2BTB BRANCH_RETURN	ACCESS:     825372  HIT:     777584  MISS:      47788	AVERAGE STALL: 48.0363
L2BTB BRANCH_OTHER ACCESS:          0  HIT:          0  MISS:          0	AVERAGE STALL: -nan
L2BTB TOTAL ROB OCCUPANCY AT BTB MISS: 158.302

L2C TOTAL     ACCESS:    5673255  HIT:    4918576  MISS:     754679  HIT %:    86.6976  MISS %:    13.3024   MPKI: 15.0936
L2C LOAD INSTRUCTION	ACCESS:    1888428  HIT:    1659308  MISS:     229120  HIT %:    87.8672  MISS %:    12.1328  MPKI: 4.5824
L2C PREFETCH INSTRUCTION	ACCESS:    1427675  HIT:    1267279  MISS:     160396  HIT %:    88.7652  MISS %:    11.2348  MPKI: 3.20792
L2C LOAD TRANSLATION INSTRUCTION	ACCESS:        291  HIT:         77  MISS:        214  HIT %:    26.4605  MISS %:    73.5395  MPKI: 0.00428
L2C TRANSLATION FROM L1D PREFETCHER INSTRUCTION	ACCESS:      32974  HIT:      22618  MISS:      10356  HIT %:    68.5934  MISS %:    31.4066  MPKI: 0.20712
L2C LOAD DATA	ACCESS:     727474  HIT:     623866  MISS:     103608  HIT %:    85.7578  MISS %:    14.2422  MPKI: 2.07216
L2C RFO DATA	ACCESS:     284962  HIT:     220727  MISS:      64235  HIT %:    77.4584  MISS %:    22.5416  MPKI: 1.2847
L2C PREFETCH DATA	ACCESS:     788946  HIT:     624458  MISS:     164488  HIT %:    79.1509  MISS %:    20.8491  MPKI: 3.28976
L2C WRITEBACK DATA	ACCESS:     520537  HIT:     499763  MISS:      20774  HIT %:    96.0091  MISS %:    3.99088  MPKI: 0.41548
L2C LOAD TRANSLATION DATA	ACCESS:       1928  HIT:        451  MISS:       1477  HIT %:    23.3921  MISS %:    76.6079  MPKI: 0.02954
L2C TRANSLATION FROM L1D PREFETCHER DATA	ACCESS:         40  HIT:         29  MISS:         11  HIT %:       72.5  MISS %:       27.5  MPKI: 0.00022

L2C PREFETCH  REQUESTED:    1485109  ISSUED:    1485109  USEFUL:      26791  USELESS:     311473
L2C USEFUL LOAD PREFETCHES:      26791 PREFETCH ISSUED TO LOWER LEVEL:     327158  ACCURACY: 8.18901
 TIMELY PREFETCHES:      26791 LATE PREFETCHES: 2274 DROPPED PREFETCHES: 0
L2C AVERAGE MISS LATENCY: 35.92 cycles
L2C RQ	ACCESS:    2936140	FORWARD:          0	MERGED:          0	TO_CACHE:    2936097
L2C WQ	ACCESS:     520537	FORWARD:         43	MERGED:          0	TO_CACHE:     520537
L2C PQ	ACCESS:    3016855	FORWARD:          0	MERGED:     783432	TO_CACHE:    2233423

L2C Dense regions hint from L2: 0
PSCL5 TOTAL     ACCESS:      51418  HIT:      25709  MISS:      25709  HIT %:         50  MISS %:         50   MPKI: 0.51418
PSCL5 LOAD TRANSLATION INSTRUCTION	ACCESS:       4188  HIT:       2094  MISS:       2094  HIT %:         50  MISS %:         50  MPKI: 0.04188
PSCL5 TRANSLATION FROM L1D PREFETCHER INSTRUCTION	ACCESS:      47230  HIT:      23615  MISS:      23615  HIT %:         50  MISS %:         50  MPKI: 0.4723


PSCL4 TOTAL     ACCESS:      45305  HIT:      22650  MISS:      22655  HIT %:    49.9945  MISS %:    50.0055   MPKI: 0.4531
PSCL4 LOAD TRANSLATION INSTRUCTION	ACCESS:       2533  HIT:       1620  MISS:        913  HIT %:    63.9558  MISS %:    36.0442  MPKI: 0.01826
PSCL4 TRANSLATION FROM L1D PREFETCHER INSTRUCTION	ACCESS:      34533  HIT:      21030  MISS:      13503  HIT %:    60.8983  MISS %:    39.1017  MPKI: 0.27006
PSCL4 LOAD TRANSLATION DATA	ACCESS:        712  HIT:          0  MISS:        712  HIT %:          0  MISS %:        100  MPKI: 0.01424
PSCL4 TRANSLATION FROM L1D PREFETCHER DATA	ACCESS:       7527  HIT:          0  MISS:       7527  HIT %:          0  MISS %:        100  MPKI: 0.15054


PSCL3 TOTAL     ACCESS:      49064  HIT:      24527  MISS:      24537  HIT %:    49.9898  MISS %:    50.0102   MPKI: 0.49074
PSCL3 LOAD TRANSLATION INSTRUCTION	ACCESS:       3631  HIT:       2069  MISS:       1562  HIT %:    56.9815  MISS %:    43.0185  MPKI: 0.03124
PSCL3 TRANSLATION FROM L1D PREFETCHER INSTRUCTION	ACCESS:      39618  HIT:      22458  MISS:      17160  HIT %:    56.6864  MISS %:    43.3136  MPKI: 0.3432
PSCL3 LOAD TRANSLATION DATA	ACCESS:        517  HIT:          0  MISS:        517  HIT %:          0  MISS %:        100  MPKI: 0.01034
PSCL3 TRANSLATION FROM L1D PREFETCHER DATA	ACCESS:       5298  HIT:          0  MISS:       5298  HIT %:          0  MISS %:        100  MPKI: 0.10596


PSCL2 TOTAL     ACCESS:      33446  HIT:      16661  MISS:      16785  HIT %:    49.8146  MISS %:    50.1854   MPKI: 0.3357
PSCL2 LOAD TRANSLATION INSTRUCTION	ACCESS:       2261  HIT:       1978  MISS:        283  HIT %:    87.4834  MISS %:    12.5166  MPKI: 0.00566
PSCL2 TRANSLATION FROM L1D PREFETCHER INSTRUCTION	ACCESS:      29121  HIT:      14683  MISS:      14438  HIT %:    50.4207  MISS %:    49.5793  MPKI: 0.28876
PSCL2 LOAD TRANSLATION DATA	ACCESS:       1819  HIT:          0  MISS:       1819  HIT %:          0  MISS %:        100  MPKI: 0.03638
PSCL2 TRANSLATION FROM L1D PREFETCHER DATA	ACCESS:        245  HIT:          0  MISS:        245  HIT %:          0  MISS %:        100  MPKI: 0.0049


LLC TOTAL     ACCESS:     831194  HIT:     799126  MISS:      32068  HIT %:    96.1419  MISS %:    3.85806   MPKI: 0.64136
LLC LOAD INSTRUCTION	ACCESS:     227634  HIT:     226607  MISS:       1027  HIT %:    99.5488  MISS %:   0.451163  MPKI: 0.02054
LLC PREFETCH INSTRUCTION	ACCESS:     159094  HIT:     157975  MISS:       1119  HIT %:    99.2966  MISS %:   0.703358  MPKI: 0.02238
LLC LOAD TRANSLATION INSTRUCTION	ACCESS:        214  HIT:        205  MISS:          9  HIT %:    95.7944  MISS %:    4.20561  MPKI: 0.00018
LLC TRANSLATION FROM L1D PREFETCHER INSTRUCTION	ACCESS:      10356  HIT:      10229  MISS:        127  HIT %:    98.7737  MISS %:    1.22634  MPKI: 0.00254
LLC LOAD DATA	ACCESS:     102839  HIT:      98555  MISS:       4284  HIT %:    95.8343  MISS %:    4.16573  MPKI: 0.08568
LLC RFO DATA	ACCESS:      64189  HIT:      50964  MISS:      13225  HIT %:    79.3968  MISS %:    20.6032  MPKI: 0.2645
LLC PREFETCH DATA	ACCESS:     168064  HIT:     156250  MISS:      11814  HIT %:    92.9705  MISS %:    7.02946  MPKI: 0.23628
LLC WRITEBACK DATA	ACCESS:      97316  HIT:      96978  MISS:        338  HIT %:    99.6527  MISS %:   0.347322  MPKI: 0.00676
LLC LOAD TRANSLATION DATA	ACCESS:       1477  HIT:       1352  MISS:        125  HIT %:    91.5369  MISS %:     8.4631  MPKI: 0.0025
LLC TRANSLATION FROM L1D PREFETCHER DATA	ACCESS:         11  HIT:         11  MISS:          0  HIT %:        100  MISS %:          0  MPKI: 0

LLC AVERAGE MISS LATENCY: 157.686 cycles
LLC RQ	ACCESS:     406747	FORWARD:          0	MERGED:          0	TO_CACHE:     406720
LLC WQ	ACCESS:      97316	FORWARD:         27	MERGED:          0	TO_CACHE:      97316
LLC PQ	ACCESS:     327158	FORWARD:          0	MERGED:          0	TO_CACHE:     327158

LLC Dense regions hint to LLC: 0

RAW hits: 1943250
Loads Generated: 12631445
Loads sent to L1D: 10688195
Stores Generated: 6947026
Stores sent to L1D: 6947035
Major fault: 0 Minor fault: 2574
Allocated PAGES: 2574
I-Shadow cache 408 bytes
Touched + WorthPF tables 12288 bytes 
MMA filter 42 bytes 
FNL filter 272 bytes 
TOTAL PREFETCHER STORAGE SIZE: 19922 bytes
CPU 0 L1I next line prefetcher final stats

stream: 
stream:times selected: 1190904
stream:pref_filled: 120764
stream:pref_useful: 22868
stream:pref_late: 8047
stream:misses: 8292
stream:misses_by_poll: 0

CS: 
CS:times selected: 177789
CS:pref_filled: 56162
CS:pref_useful: 32684
CS:pref_late: 10015
CS:misses: 19405
CS:misses_by_poll: 4

CPLX: 
CPLX:times selected: 1011902
CPLX:pref_filled: 19231
CPLX:pref_useful: 3784
CPLX:pref_late: 3781
CPLX:misses: 94216
CPLX:misses_by_poll: 0

NL_L1: 
NL:times selected: 20768
NL:pref_filled: 598
NL:pref_useful: 228
NL:pref_late: 286
NL:misses: 1781
NL:misses_by_poll: 0

total selections: 2401363
total_filled: 96011
total_useful: 33979
total_late: 23453
total_polluted: 4
total_misses_after_warmup: 771748
conflicts: 5518737

test: 118365

DRAM Statistics
 CHANNEL 0
 RQ ROW_BUFFER_HIT:      10601  ROW_BUFFER_MISS:      21121
 DBUS_CONGESTED:          6
 WQ ROW_BUFFER_HIT:       1632  ROW_BUFFER_MISS:      12893  FULL:          0

 AVG_CONGESTED_CYCLE: 4

CPU 0 Branch Prediction Accuracy: 99.8079% MPKI: 0.3514 Average ROB Occupancy at Mispredict: 175.649
Branch types
NOT_BRANCH: 40852419 81.7048%
BRANCH_DIRECT_JUMP: 548373 1.09675%
BRANCH_INDIRECT: 182836 0.365672%
BRANCH_CONDITIONAL: 6181567 12.3631%
BRANCH_DIRECT_CALL: 945684 1.89137%
BRANCH_INDIRECT_CALL: 171669 0.343338%
BRANCH_RETURN: 1117351 2.2347%
BRANCH_OTHER: 0 0%

DRAM PAGES: 1048576
Allocated PAGES: 2574
Average_ROB_Occupancy: 235.101
Average_Decode_Occupancy: 32.4069
Average_FTQ_Occupancy: 12.1403
Indirect max targets: 14 Average targets: 1.17891
Branch_type:  BRANCH_DIRECT_JUMP:  Count Percentage: 2.91476 6.57484 4.47908 8.35177 1.6988 6.29093 1.28634 68.4035 
Branch_type:  BRANCH_INDIRECT:  Count Percentage: 11.7523 3.43623 2.55866 15.3399 3.34634 9.22429 2.00321 52.339 
Branch_type:  BRANCH_CONDITIONAL:  Count Percentage: 20.9204 3.186 2.13719 4.20562 1.45505 4.64437 0.685971 62.7654 
Branch_type:  BRANCH_DIRECT_CALL:  Count Percentage: 0.260148 1.26589 1.44176 1.90032 2.67732 2.36419 0.621331 89.469 
Branch_type:  BRANCH_INDIRECT_CALL:  Count Percentage: 9.55889 0.57571 2.9941 4.85546 0.938703 3.00111 0.999688 77.0763 
Branch_type:  BRANCH_RETURN:  Count Percentage: 4.50725 0.574683 1.97106 5.31791 2.92613 4.66117 1.06682 78.975 
Branch_type:  BRANCH_DIRECT_JUMP:  Total Count: 31970 72115 49128 91605 18633 69001 14109 750272 
Branch_type:  BRANCH_INDIRECT:  Total Count: 43015 12577 9365 56146 12248 33762 7332 191567 
Branch_type:  BRANCH_CONDITIONAL:  Total Count: 2585735 393785 264154 519808 179842 574037 84785 7757703 
Branch_type:  BRANCH_DIRECT_CALL:  Total Count: 4905 23868 27184 35830 50480 44576 11715 1686909 
Branch_type:  BRANCH_INDIRECT_CALL:  Total Count: 32759 1973 10261 16640 3217 10285 3426 264146 
Branch_type:  BRANCH_RETURN:  Total Count: 100469 12810 43936 118539 65225 103900 23780 1760395 
Number of unique branch instructions: 10765
Upper 32 bits: 
aaaa
ffff
ffff0000
Unique upper 32 bits: 3
Unique upper 36 bits: 3
Unique upper 40 bits: 5
Unique upper 44 bits: 32
Unique upper 48 bits: 158
Variant_0 : 1506 0.183838
Variant_1 : 1645 0.200806
Variant_2 : 1824 0.222656
Variant_3 : 0 0
Offset_3 4455
Offset_4 258
Offset_5 483
Offset_6 538
Offset_7 638
Offset_8 572
Offset_9 524
Offset_10 426
Offset_11 355
Offset_12 327
Offset_13 236
Offset_14 247
Offset_15 194
Offset_16 232
Offset_17 167
Offset_18 149
Offset_19 257
Offset_20 143
Offset_21 235
Offset_22 413
Offset_23 241
Offset_24 344
Offset_25 117
Offset_47 92
Offset_64 2
decode_dispatch_called: 25116918 68.7492
Dispatch_width: 0 13447411 53.5393 36.8078
Dispatch_width: 1 908123 3.61558 2.48569
Dispatch_width: 2 828069 3.29686 2.26656
Dispatch_width: 3 490923 1.95455 1.34374
Dispatch_width: 4 5257651 20.9327 14.3911
Dispatch_width: 5 176143 0.701292 0.482133
Dispatch_width: 6 4008598 15.9598 10.9722
Empty_decode_cycles: 11417182 31.2508
ROB_full_cycles: 8496533 23.2564
Starvation_cycles_per_kilo_instr: 240.29
Starvation_cycles_per_kilo_instr_3: 185.952
Starvation_cycles_per_kilo_instr_0: 163.681
Branch_type_1  (3,1)  (4,9)  (5,39)  (6,72)  (7,125)  (8,149)  (9,136)  (10,111)  (11,79)  (12,55)  (13,11)  (14,2)  (15,3)  (16,4)  (18,1)  (19,5)  (20,2)  (21,1)  (22,3)  (23,2)  (24,10)  (25,12) 
Branch_type_2  (3,1)  (4,1)  (5,1)  (8,4)  (9,4)  (10,1)  (12,1)  (13,1)  (14,1)  (16,3)  (17,2)  (20,2)  (21,2)  (23,5)  (24,1)  (47,41) 
Branch_type_3  (3,4453)  (4,248)  (5,439)  (6,450)  (7,483)  (8,353)  (9,289)  (10,171)  (11,140)  (12,62)  (13,10)  (64,2) 
Branch_type_4  (6,3)  (7,8)  (8,25)  (9,56)  (10,68)  (11,70)  (12,117)  (13,100)  (14,112)  (15,92)  (16,102)  (17,78)  (18,65)  (19,125)  (20,73)  (21,124)  (22,218)  (23,136)  (24,199)  (25,101) 
Branch_type_5  (8,3)  (9,1)  (10,4)  (11,5)  (12,3)  (13,14)  (14,16)  (15,11)  (16,22)  (17,11)  (18,23)  (19,14)  (20,11)  (21,13)  (22,43)  (23,26)  (24,38) 
Branch_type_6  (5,4)  (6,13)  (7,22)  (8,38)  (9,38)  (10,71)  (11,61)  (12,89)  (13,100)  (14,116)  (15,88)  (16,101)  (17,76)  (18,60)  (19,113)  (20,55)  (21,95)  (22,149)  (23,72)  (24,96)  (25,4)  (47,51) 
Unique trigger count: 
Variant_0_evicts_0 : 0
Variant_0_evicts_1 : 0
Variant_0_evicts_2 : 0
Variant_0_evicts_3 : 0
Variant_1_evicts_0 : 0
Variant_1_evicts_1 : 0
Variant_1_evicts_2 : 0
Variant_1_evicts_3 : 0
Variant_2_evicts_0 : 0
Variant_2_evicts_1 : 0
Variant_2_evicts_2 : 0
Variant_2_evicts_3 : 0
Variant_3_evicts_0 : 0
Variant_3_evicts_1 : 0
Variant_3_evicts_2 : 0
Variant_3_evicts_3 : 0
BTB PER SET UNIQUE ADDR: 2 4 1 6 3 4 4 2 2 5 2 3 2 4 5 6 1 5 4 2 2 4 2 7 5 5 3 4 2 7 4 4 1 2 4 4 3 2 2 3 4 5 4 3 1 2 2 4 4 3 3 3 5 2 4 4 3 3 4 3 3 3 2 5 6 2 4 3 4 4 4 3 4 3 4 6 2 4 5 2 6 6 3 6 5 3 4 4 4 3 2 7 3 5 5 2 5 4 2 4 2 4 4 2 2 6 3 3 3 7 6 2 2 3 2 2 3 6 4 6 5 3 2 2 8 3 3 2 6 0 2 3 4 2 2 4 3 1 2 3 2 3 5 7 5 5 7 3 5 5 3 3 3 5 4 3 5 1 5 2 5 4 3 3 3 1 1 5 4 8 4 3 5 2 3 5 4 7 3 2 4 3 3 3 1 2 2 4 4 4 3 3 3 6 3 4 4 5 4 4 3 3 4 3 2 6 3 2 4 7 2 2 5 2 4 4 5 4 3 5 3 4 4 3 3 3 3 1 4 3 1 4 2 2 2 4 4 3 3 5 3 5 3 5 3 4 2 3 5 4 4 6 1 2 3 3 2 2 3 2 5 3 3 3 3 2 5 2 3 5 3 5 2 4 3 2 4 2 2 3 5 5 1 8 3 2 3 4 5 3 4 3 2 2 4 7 3 1 3 2 6 3 3 3 3 2 6 7 4 2 2 2 5 4 4 3 2 4 3 3 7 4 2 3 6 5 2 4 3 5 2 8 2 3 3 3 2 3 5 2 3 4 4 3 4 5 5 3 3 3 3 6 2 4 3 3 3 3 3 3 4 5 2 4 3 4 4 2 2 3 6 4 5 2 3 3 2 2 2 3 3 5 5 4 4 3 1 3 2 5 5 2 1 5 2 5 5 3 3 2 4 4 4 1 2 4 4 3 6 2 1 2 1 4 4 2 4 5 3 3 1 3 4 6 2 3 3 4 1 4 5 3 6 3 3 1 2 2 2 3 2 3 2 3 2 1 4 3 3 2 3 3 3 3 5 1 2 3 7 1 1 6 5 4 1 3 3 3 4 3 5 5 3 4 4 6 1 3 5 3 3 1 4 3 1 4 3 5 4 3 3 4 4 4 4 4 5 3 3 3 2 2 3 1 4 3 2 1 1 1 2 2 4 3 1 4 6 2 5 4 3 4 2 4 3 3 1 5 3 4 5 2 4 3 2 3 6 6 3 4 3 3 5 7 3 4 2 3 3 2 1 8 1 3 6 6 4 1 7 2 2 3 3 6 4 2 3 4 3 2 4 2 2 3 2 3 5 2 4 4 1 4 2 4 2 2 3 2 5 4 5 4 5 4 4 4 6 5 3 3 4 2 1 2 2 4 4 3 1 3 1 4 4 5 2 4 3 5 3 6 4 1 4 2 4 6 1 5 2 4 3 2 4 3 3 4 3 5 6 4 5 5 1 2 2 3 5 4 3 2 4 2 5 3 3 6 1 3 4 2 4 2 3 2 1 1 4 2 3 3 5 5 3 4 3 1 2 3 3 5 5 3 2 3 7 3 2 5 5 2 6 4 3 2 4 5 5 4 2 6 3 3 3 3 5 3 4 4 5 5 4 2 2 4 3 3 3 3 3 3 3 4 2 3 3 3 4 2 2 6 3 4 4 3 2 2 6 5 2 4 6 6 4 5 3 2 8 1 1 2 3 3 6 2 2 5 2 1 3 2 4 4 2 5 3 4 4 8 3 7 4 2 2 5 2 3 3 3 3 5 3 5 4 4 5 7 3 3 5 4 2 3 3 6 4 2 8 2 1 3 3 5 5 2 5 3 5 3 4 2 5 1 1 3 4 5 4 4 2 2 6 4 5 3 3 3 3 3 3 6 5 5 1 4 3 2 5 4 3 2 2 5 2 2 2 2 3 4 3 4 4 4 2 4 5 4 6 5 3 3 1 3 3 5 6 2 5 3 6 5 3 2 3 3 1 3 3 4 1 3 4 3 2 3 3 3 6 4 2 0 6 2 2 3 3 5 4 3 3 1 3 3 3 4 3 1 3 4 4 6 3 4 2 4 4 3 3 2 3 2 3 4 3 5 2 4 5 2 4 2 4 6 4 3 2 3 4 3 2 5 3 5 4 5 2 1 2 2 5 4 3 4 5 3 7 3 5 3 2 3 2 2 4 3 3 2 5 4 2 3 5 4 3 7 2 5 4 5 5 3 2 4 3 6 5 3 3 3 3 4 3 3 2 4 4 3 2 4 2 3 5 2 2 3 3 4 4 5 3 3 3 4 4 4 5 4 5 4 5 2 3 3 4 6 5 3 5 5 4 3 5 5 3 2 4 5 5 7 1 3 4 4 4 5 4 2 4 5 3 4 2 2 5 2 3 5 6 4 1 3 3 5 4 4 2 2 7 2 5 2 3 5 3 5 1 4 3 3 2 4 2 1 2 1 3 4 3 2 1 7 3 4 3 5 4 1 6 4 1 3 3 4 3 9 2 3 2 3 2 2 2 4 3 1 7 3 3 5 5 5 3 3 2 7 1 3 4 6 3 1 4 3 4 2 3 2 3 3 2 3 4 8 3 2 3 3 2 5 4 2 2 5 3 2 2 2 5 5 2 3 5 0 5 4 2 2 3 5 3 3 4 5 3 1 3 5 2 6 2 4 2 2 5 4 2 5 3 3 4 6 5 3 2 2 5 2 5 4 4 2 4 3 1 3 6 3 4 2 5 3 5 4 2 3 4 4 4 3 5 2 4 1 2 5 4 5 2 4 3 2 5 3 2 3 3 3 2 3 2 2 2 4 5 2 2 2 5 4 3 5 2 4 3 2 4 2 3 2 2 5 3 4 5 5 1 3 3 5 2 6 5 3 4 2 1 3 3 2 4 2 5 3 7 5 4 3 3 4 5 3 5 4 5 3 3 3 3 6 4 3 3 2 2 8 5 3 2 3 2 4 4 5 4 3 3 3 6 4 3 3 2 4 4 3 3 2 3 3 6 7 3 1 3 4 7 3 5 2 3 7 4 4 3 4 3 7 4 3 4 2 4 2 3 7 4 3 3 1 4 3 4 5 5 3 4 2 1 4 3 4 4 2 1 8 3 6 2 5 1 5 1 2 3 2 3 3 6 5 5 3 2 2 1 3 1 5 2 5 4 5 4 4 5 3 2 2 4 5 2 6 3 2 3 3 6 3 3 1 1 2 1 4 3 7 7 3 5 5 3 6 3 2 3 3 3 4 2 4 4 2 5 3 2 2 6 6 3 3 3 2 3 2 2 4 3 5 4 5 3 4 3 2 5 4 2 6 5 3 5 3 4 0 4 1 2 2 4 3 4 9 5 4 2 4 2 2 3 2 5 4 3 3 3 7 3 5 4 3 3 2 6 3 6 8 5 4 2 3 6 2 2 5 4 4 3 4 4 6 4 5 4 3 3 4 4 2 6 3 4 3 4 5 3 3 5 3 4 3 3 2 7 2 4 4 7 7 3 3 3 3 4 5 3 3 2 4 5 2 2 1 2 4 3 3 1 2 5 4 5 8 4 3 3 2 4 3 2 2 8 4 3 2 5 2 4 3 2 3 3 6 5 2 4 3 5 3 3 2 4 3 5 4 2 3 4 4 2 3 3 3 4 4 4 2 4 5 5 2 2 4 1 3 2 5 4 6 2 4 2 2 2 5 4 5 4 3 2 3 3 6 4 4 4 2 3 7 2 3 2 4 7 5 3 6 3 2 2 4 2 3 2 2 3 5 3 3 1 4 4 1 2 4 2 2 2 2 3 4 5 3 4 3 3 1 0 3 6 5 4 3 0 3 3 1 2 3 3 3 2 2 3 4 4 2 3 3 2 2 4 2 3 2 4 6 3 3 3 1 3 5 2 3 3 3 4 4 4 4 3 1 2 3 3 4 4 3 3 5 4 6 5 4 3 5 2 4 3 5 3 4 3 4 4 4 3 3 1 2 2 4 2 5 4 6 5 2 2 4 2 4 4 3 5 3 0 5 3 6 3 6 4 7 4 6 3 6 4 3 3 2 3 2 2 3 4 4 6 2 6 2 1 3 3 4 1 3 4 1 4 2 3 3 5 3 3 3 3 2 1 3 2 4 5 2 7 5 2 4 5 3 4 2 2 1 2 5 4 2 2 2 1 2 2 3 3 3 1 1 3 4 2 3 4 5 6 3 4 4 5 2 3 4 6 3 2 3 2 3 3 1 1 3 4 2 2 4 1 4 2 4 1 3 3 3 3 5 5 4 3 2 4 4 2 3 5 4 3 3 2 5 2 1 2 4 3 2 3 0 2 4 3 2 3 4 3 3 4 1 3 2 4 4 4 2 2 2 2 3 4 3 2 2 6 5 3 3 4 3 3 2 4 3 5 3 3 3 3 2 3 3 2 6 4 3 4 6 5 3 1 5 4 6 3 6 5 3 2 4 5 4 3 5 5 2 2 2 5 3 2 6 3 4 3 4 5 1 5 5 2 2 3 2 2 2 2 4 1 3 3 5 2 3 4 5 3 2 1 1 3 4 0 3 4 5 3 3 4 3 4 3 3 8 6 4 4 4 4 4 3 2 3 2 2 2 4 3 2 2 3 5 3 3 1 4 2 2 2 4 
BTB PER SET COUNT: 2 3415 2937 2489 14 2073 561 4479 526 5 2 527 1438 680 2427 1831 1 95 3550 2 753 2959 2 373 520 3993 3 1403 2 6738 5 240 2 10 26 91 6 2 2 3 502 3422 2933 4 1 2443 716 4 4 1220 1956 3 2384 3 4 44 3 989 1950 3630 4 1953 4 1694 4658 2 3813 2468 1007 2236 3190 3 5 2416 395 4280 2 1920 9 2 3808 1310 6 978 414 3 1019 1481 4 5351 839 418 6 502 1718 2 6 4 1503 7 2 1710 5 172 2 28 3 32 7 3109 1603 3 2 1383 489 7 3 10 514 2132 37 3 2499 494 4091 99 2927 2 2318 0 2 3 1741 2 2 1873 1737 262 59 3 19 1353 1703 2247 2952 11 621 716 709 1001 3 487 4 1725 527 982 5 1 844 1693 466 206 762 2238 475 1 1 1603 2353 2351 4 33 2005 10 3 1018 16 2776 1059 2 7 3 3 4 2 9 520 5 1056 4 11 1466 3 1008 1525 8 4 1649 2018 345 307 2946 502 3 2 765 6 92 2905 1970 3 6 130 431 6 5 97 1047 3 2317 432 3121 28 2123 1482 603 1364 45 50 604 1630 2929 2 14666 2 4 1137 3 3 2890 3 2099 1605 608 1464 502 7858 85 1911 5 4 218 1 496 1411 14 304 1992 5 238 1996 28 7 3 498 701 764 1466 3 107 2165 2248 2 4 3 393 1911 2 973 136 916 978 1 270 248 2 3 3858 21 6 643 921 2 336 489 4352 1465 1 1985 1465 3452 499 37 3 1105 2 5413 2821 3412 958 8 496 5 4 6865 4 2 4 497 3 4952 5 3 3 4575 6 24 11 495 2624 5 2737 2 361 1468 4 2 1381 1470 2 3 7 732 67 2929 14 2987 3 529 3 2214 1642 3 278 217 9 3 1049 959 1476 10 785 2 4 782 6 391 2 26 488 5339 1657 2686 3 266 1955 2 25 2 3 3126 1870 642 983 1013 4 1 1189 2 241 6 1513 1 1464 12 5 6920 8 1025 2 14 4 4 1 4 4 741 65 1017 2 1 31 1 1477 786 975 973 1493 4 2091 1 3 2490 3938 2 252 3 375 2918 8 59 3 1250 3 81 1 430 6 2876 488 2 989 2 3 897 4 3749 4 3 3 749 349 3 3 1248 1 2 3 2377 1 987 640 746 552 9 253 1495 2977 4 496 4313 2299 2356 1225 2172 1250 1 204 14 123 982 1 4510 1474 1 5 3 982 3952 7 1010 1758 2873 4 1510 1963 53 2472 221 538 1463 2 1456 1467 928 4 488 1 1 190 2 2 3888 1978 494 4 1709 1945 5 1458 4 4 2 1731 3 3 1 1254 3 17 4016 385 4 4 2 3 2980 1685 500 4 1509 36 5 8 227 6570 1960 893 1620 3898 1468 2945 987 302 1884 5320 4 1 10072 2 2 40 863 7 5 2 3 1247 3 2 745 115 2 4 3 3212 2932 2 4 5 6 5 407 5 2 7 7 2 545 2430 4167 551 54 990 6 1470 6066 6 700 1080 1958 2 987 661 2 980 4 23 1 4 1 5 2068 1559 2 842 3 4369 3 525 1415 2 508 4 245 1093 1 1282 2 1950 993 2 25 60 4 2874 4 395 684 4 13 1472 1 2 2 4 577 3884 5 2428 436 29 5 2513 3 413 1 483 4 2 4 254 4 483 1 1 4357 2430 3 23 46 1104 3 5 3 1 2 3 3 6 2921 3 5902 3 2156 1950 2 3912 501 634 4052 4 1420 3 1468 5 1256 4 2 7 3 3 3 2686 46 3 9 164 6 551 1375 5 346 19 1461 518 4 296 3 4 645 2865 4 3 2436 3 4 2 2646 2934 3 257 1422 4 1453 3 6596 498 2 4 1967 6133 344 1952 354 3 3455 1 1 2 248 3 4151 2 989 5 2 2 21 2933 1472 4 239 5844 9 11 35 4604 3 3820 7 5 7 5 2 34 6 3 10 947 10 585 5 4 155 1030 1377 4 208 5 6 4 7 377 491 1949 676 1456 1 3 1528 2436 1723 2 2270 3 4880 3 4250 4 4268 1905 1 1004 5 2312 10 1543 2 2 185 608 6 3 3 1280 5 2282 4 1507 9846 1975 1015 2001 4 2 881 3956 441 4 2 3490 2 2 2 2 1947 6 1443 1948 3835 850 221 289 7 301 7 7286 3 3 1 1386 3 2753 2938 61 4239 4 1401 5 4 3 1914 3 1 3 3 3851 1 3 6 3 2 827 4 3 2157 55 2 0 5151 1232 1464 277 5 10 1230 1197 2919 1 5715 79 2919 4 3 1965 3421 780 1968 5680 990 3275 2 6 1192 6 3 1458 2769 3 2938 2915 3 1620 2 4 3726 2 498 689 2926 2754 4 41 1218 3 4 4 2 5 1452 270 787 8 2 1 209 40 291 119 3 7 2937 3 5166 484 2569 4 1976 3 2 2 1982 4 1096 256 2630 8 2 3 4703 6 3 2548 973 1432 977 2517 4262 3 1468 1711 1218 3087 1015 981 567 1990 4 4 4 5 2 4 73 3 3 3490 37 396 549 4 2 3 3 1829 4 1962 7 4 3 4 1300 4 19 756 1107 4 847 983 972 3 2573 48 454 4 1712 3723 8 3 2028 1480 3 2 28 1520 1535 258 1 2147 4 2215 33 10 1796 1943 1477 1173 54 8 2 2 265 666 515 2706 59 232 1 3 27 1508 240 5 2 1466 988 2 950 2 3 2240 3 2964 1 1471 10 3 2 2600 981 1 3 1 3 2387 5261 571 1 6000 3 6 1902 2221 6 1471 984 169 1 1731 4 7 8 6159 854 380 4 1957 5 2 2 216 574 1 1770 13 1398 1415 2794 56 481 4 768 1236 703 5 6 224 3 1 1506 3 4 5 3 2 482 4 2 192 4 2501 2506 3 969 3 3 2490 14 713 971 1425 1253 2 2 2440 8 13 656 3 2967 0 498 5 6 2 2573 1884 3 3 498 806 4 644 3 4126 928 255 7 4 2 11 2414 1945 3 5 3 5 979 1079 2888 3 222 255 1154 3 2039 7 1079 2 4 105 1469 9 335 3 291 604 3775 1765 3300 4 154 2179 253 1221 5 7 3326 331 7 1 3 1471 1652 148 2 15 3 5 506 3 2 1890 3 6 1322 2076 2 1814 495 863 1340 2 2 2 2324 4 3 721 3 2059 3 2 1419 2 3 485 976 249 14 2930 2161 873 1 4 290 5 734 1233 1898 483 513 2 1 1985 2424 2 99 694 5801 35 983 2035 17 3 3 9 6 5 1122 5 678 41 252 77 4 2222 1099 1469 4 3 2 1773 11 8 57 3 2 4 5 140 4 3 3 5 1969 4 371 4 2 53 436 498 32 1467 496 2206 1529 3874 5 2 7 5 1125 3 578 3 3 5530 4 48 3 756 5 2043 1243 3 1468 3 4 341 1962 4418 3151 28 342 1 9 246 2516 1704 671 306 1463 2 1 6 4 1848 226 2 1 2210 11 3438 2 334 3 1963 1 2 3 2 4 4 4567 3472 1254 988 2 2 1 1469 1 497 2 706 2032 2659 4 4 979 56 2 32 1457 2284 558 1192 4 9 3 3 4367 974 1473 1 975 5 555 1714 4 1728 1793 3 915 5 5 2445 1021 228 3 4 3 911 2 26 377 2 527 3 494 2242 6 7266 3 5 3 2 3 4 2 1313 3 5 1497 2099 12 4 543 246 2944 4 2 4308 512 3 771 4 7 0 1204 1 2 496 131 256 4 4405 2661 4 2 788 2 2 3 5 734 248 961 5 5 1049 1265 1338 4 3 9 4 2001 3 3049 4548 316 1302 768 3 992 605 929 3683 4 4 995 4 1398 2343 4423 1976 12 3 2036 15 6 2 1588 966 2428 4287 4 1414 78 6 1019 3 223 175 3 2 2156 2456 5 7 10650 4088 5 3 3 952 4 214 3 5 58 3284 2595 603 3 2 4 1723 6 95 143 333 7214 4 1739 1713 1522 1461 976 2 628 855 2 3 2172 399 164 2 78 2 6 679 2 977 2572 5053 3340 949 1214 3 1029 6 3 253 2568 3 1580 537 2 3 9 45 484 6 3 495 2469 2960 4 3294 4 1468 298 2 2 1119 48 62 229 3117 507 13 2 435 2784 2 3 5 814 2017 2303 3 3 10 3 4041 3286 88 4 4 4 3420 2 3 901 998 4734 1334 495 1482 4 2 2 256 256 11 6 2 710 2759 2426 3 1 7 978 1 57 1092 2 2 2 1246 3 1971 2922 3 4 2484 19 1 0 3 1996 149 4793 3 0 3 1089 83 2 240 3 495 208 266 3 3038 6 2 1835 988 185 2 2929 973 3 2 487 1679 1926 1470 251 1 6 2026 892 3 496 1193 4 4 2196 751 13 1 2629 3 3305 347 741 1505 748 2969 5 1248 7 744 5 497 80 2083 1552 5 37 2446 4 599 4 988 252 3 1 2 561 681 2 1734 1321 527 2714 2 12 282 735 4 4 2190 2323 374 0 116 6 3855 6 3514 1417 3468 56 992 3 11 135 495 2455 2 958 806 2 3 1434 4 3891 10 4507 2 1945 4 5 2390 1 3 740 1958 6 494 980 501 8125 5 3290 425 4 2 1381 7 2 2131 1746 6237 2927 47 2 954 1208 46 1269 2673 4 606 2 1202 214 2 2 2 986 2 8 4 987 3 1 1 5 1474 3 3 1221 7 6426 5 595 3266 2227 3 1948 8 1907 3 3 3 2 718 20533 25 1 1948 4683 2 2 6 1 3357 84 6 1 3 680 3 10 1749 1605 759 39 976 4 4 2 572 12 131 4 3 2918 1892 4 1 3 1645 1664 2 5 0 28 1655 39 1454 3 30 5 4 707 1 2485 2 4 2450 4 2 1220 2 3 3 4 3 2 2 1683 2465 11 3 4 395 3 3 4 99 992 3 3 3280 10 2 3 982 7 988 5348 367 13 5635 3475 600 1 1459 13 3796 1421 1857 897 3 984 990 1252 519 3 1000 462 3 3 47 2410 130 1034 1191 6883 2022 3 4 5 1 4248 5 2 2 2549 2 2 2 3 2612 1 2945 973 4025 5 3 2225 5 3 2 1347 1 14 467 0 493 1720 16 3 347 323 23 496 1973 3 1992 1194 2948 4 3547 1466 21 3 2 5 2 2 753 4 3 730 2 760 1685 4 1521 1 1482 2 2 2 499 
To predecode: 1192325
Predecoding something: 750321
Predecode request dropped: 0
sizeofblock_0 0
sizeofblock_1 507470
sizeofblock_2 598922
sizeofblock_3 514799
sizeofblock_4 107098
sizeofblock_5 0
sizeofblock_6 0
sizeofblock_7 0
sizeofblock_8 0
