
*** ChampSim Multicore Out-of-Order Simulator ***

Warmup Instructions: 50000000
Simulation Instructions: 50000000
Number of CPUs: 1
LLC sets: 2048
LLC ways: 16
Off-chip DRAM Size: 4096 MB Channels: 1 Width: 64-bit Data Rate: 6400 MT/s
CPU 0 runs ./micro_traces/srv674.trace.gz
.gz
ITLB has LRU replacement policy
DTLB has LRU replacement policy
STLB has LRU replacement policy
FDIP Prefetcher at L1I
L1I has LRU replacement policy
L1D has LRU replacement policy
Initialize SRRIP state for L2C
Initialize DRRIP state for LLC
Heartbeat CPU 0 instructions: 10000003 cycles: 2797539 heartbeat IPC: 3.57457 cumulative IPC: 3.57457 (Simulation time: 0 hr 2 min 57 sec) 
Heartbeat CPU 0 instructions: 20000000 cycles: 5594713 heartbeat IPC: 3.57504 cumulative IPC: 3.5748 (Simulation time: 0 hr 5 min 6 sec) 
Heartbeat CPU 0 instructions: 30000001 cycles: 8391354 heartbeat IPC: 3.57572 cumulative IPC: 3.57511 (Simulation time: 0 hr 7 min 11 sec) 
Heartbeat CPU 0 instructions: 40000000 cycles: 11187737 heartbeat IPC: 3.57605 cumulative IPC: 3.57534 (Simulation time: 0 hr 9 min 12 sec) 
Heartbeat CPU 0 instructions: 50000000 cycles: 13984882 heartbeat IPC: 3.57507 cumulative IPC: 3.57529 (Simulation time: 0 hr 11 min 4 sec) 

Warmup complete CPU 0 instructions: 50000004 cycles: 13984883 (Simulation time: 0 hr 11 min 4 sec) 

Cycle: 20000000 FTQ IN: 58196100 FTQ occupancy: 19.9975 DECODE IN: 58196072 DECODE occupancy: 51.7279 ROB IN: 58196071 ROB occupancy: 312.581 ROB OUT: 58195904
Heartbeat CPU 0 instructions: 60000002 cycles: 21303720 heartbeat IPC: 1.36634 cumulative IPC: 1.36634 (Simulation time: 0 hr 13 min 28 sec) 
Heartbeat CPU 0 instructions: 70000002 cycles: 28733683 heartbeat IPC: 1.3459 cumulative IPC: 1.35604 (Simulation time: 0 hr 15 min 36 sec) 
Cycle: 30000000 FTQ IN: 13564085 FTQ occupancy: 12.545 DECODE IN: 13564022 DECODE occupancy: 31.365 ROB IN: 13564023 ROB occupancy: 224.093 ROB OUT: 13563876
Heartbeat CPU 0 instructions: 80000003 cycles: 35964875 heartbeat IPC: 1.3829 cumulative IPC: 1.36488 (Simulation time: 0 hr 17 min 48 sec) 
Cycle: 40000000 FTQ IN: 13693218 FTQ occupancy: 12.865 DECODE IN: 13693179 DECODE occupancy: 32.1945 ROB IN: 13693119 ROB occupancy: 228.653 ROB OUT: 13693081
Heartbeat CPU 0 instructions: 90000000 cycles: 43321195 heartbeat IPC: 1.35937 cumulative IPC: 1.3635 (Simulation time: 0 hr 20 min 7 sec) 
Cycle: 50000000 FTQ IN: 13835811 FTQ occupancy: 12.8606 DECODE IN: 13835851 DECODE occupancy: 32.2918 ROB IN: 13835883 ROB occupancy: 228.932 ROB OUT: 13836016
Heartbeat CPU 0 instructions: 100000003 cycles: 50518538 heartbeat IPC: 1.3894 cumulative IPC: 1.3686 (Simulation time: 0 hr 21 min 48 sec) 
Finished CPU 0 instructions: 50000003 cycles: 36533656 cumulative IPC: 1.3686 (Simulation time: 0 hr 21 min 48 sec) 

ChampSim completed all CPUs

Region of Interest Statistics

CPU 0 cumulative IPC: 1.3686 instructions: 50000003 cycles: 36533656
 Fetch stage stalled: 52.6416  Sim cycles: 36533656 fetch stall cycle: 19231912
 Empty decode stage: 34.5401  Sim cycles: 36533656 fetch stall cycle: 12618758
ITLB TOTAL     ACCESS:    5740852  HIT:    5251076  MISS:     489776  HIT %:    91.4686  MISS %:    8.53142   MPKI: 9.79552
ITLB LOAD TRANSLATION INSTRUCTION	ACCESS:    5601986  HIT:    5112210  MISS:     489776  HIT %:    91.2571  MISS %:     8.7429  MPKI: 9.79552
ITLB TRANSLATION FROM L1D PREFETCHER INSTRUCTION	ACCESS:     138866  HIT:     138866  MISS:          0  HIT %:        100  MISS %:          0  MPKI: 0

ITLB AVERAGE MISS LATENCY: 9.06065 cycles
ITLB RQ	ACCESS:    7802264	FORWARD:          0	MERGED:    1575387	TO_CACHE:    6226877

DTLB TOTAL     ACCESS:    8987767  HIT:    8516584  MISS:     471183  HIT %:    94.7575  MISS %:    5.24249   MPKI: 9.42366
DTLB LOAD TRANSLATION DATA	ACCESS:    8987767  HIT:    8516584  MISS:     471183  HIT %:    94.7575  MISS %:    5.24249  MPKI: 9.42366

DTLB AVERAGE MISS LATENCY: 9.34652 cycles
DTLB RQ	ACCESS:   13344880	FORWARD:          0	MERGED:    4320249	TO_CACHE:    9024631

STLB TOTAL     ACCESS:    1213471  HIT:    1211429  MISS:       2042  HIT %:    99.8317  MISS %:   0.168278   MPKI: 0.04084
STLB LOAD TRANSLATION INSTRUCTION	ACCESS:     489776  HIT:     489547  MISS:        229  HIT %:    99.9532  MISS %:  0.0467561  MPKI: 0.00458
STLB LOAD TRANSLATION DATA	ACCESS:     471182  HIT:     469391  MISS:       1791  HIT %:    99.6199  MISS %:   0.380108  MPKI: 0.03582
STLB TRANSLATION FROM L1D PREFETCHER DATA	ACCESS:     252513  HIT:     252491  MISS:         22  HIT %:    99.9913  MISS %: 0.00871242  MPKI: 0.00044

STLB AVERAGE MISS LATENCY: 80.8805 cycles
STLB RQ	ACCESS:    1335851	FORWARD:          0	MERGED:     122333	TO_CACHE:    1213518

STLB Hit, L1D data hit: 0
STLB Hit, L2C data hit: 0
STLB Hit, LLC data hit: 0
STLB Hit, LLC data miss: 0
STLB STLB hints to L2: 0
L1D TOTAL     ACCESS:   13102865  HIT:   11995327  MISS:    1107538  HIT %:    91.5474  MISS %:    8.45264   MPKI: 22.1508
L1D LOAD DATA	ACCESS:    6568501  HIT:    5840413  MISS:     728088  HIT %:    88.9155  MISS %:    11.0845  MPKI: 14.5618
L1D RFO DATA	ACCESS:    6200219  HIT:    5915717  MISS:     284502  HIT %:    95.4114  MISS %:    4.58858  MPKI: 5.69004
L1D PREFETCH DATA	ACCESS:     334145  HIT:     239197  MISS:      94948  HIT %:    71.5848  MISS %:    28.4152  MPKI: 1.89896

L1D PREFETCH  REQUESTED:     750137  ISSUED:     750137  USEFUL:      33898  USELESS:      69035
L1D USEFUL LOAD PREFETCHES:      33898 PREFETCH ISSUED TO LOWER LEVEL:     103015  ACCURACY: 32.9059
 TIMELY PREFETCHES:      33898 LATE PREFETCHES: 8009 DROPPED PREFETCHES: 5
L1D AVERAGE MISS LATENCY: 231230 cycles
L1D RQ	ACCESS:   10711712	FORWARD:          0	MERGED:    3944276	TO_CACHE:    6602282
L1D WQ	ACCESS:    6936973	FORWARD:     165507	MERGED:     194375	TO_CACHE:    6742598
L1D PQ	ACCESS:     375245	FORWARD:          0	MERGED:          0	TO_CACHE:     374892

L1D UNIQUE REGIONS ACCESSED: 0
L1D REGIONS CONFLICTS: 0
L1D Cross Page Prefetch Requests: 7017
L1D Same Page Prefetch Requests: 756074
L1D ROI Sum of L1D PQ occupancy: 4772709
L1D PREFETCHES PUSHED FROM L2C: 0
L1I TOTAL     ACCESS:    7030696  HIT:    4286084  MISS:    2744612  HIT %:    60.9624  MISS %:    39.0376   MPKI: 54.8922
L1I LOAD INSTRUCTION	ACCESS:    6391899  HIT:    3647287  MISS:    2744612  HIT %:    57.0611  MISS %:    42.9389  MPKI: 54.8922
L1I PREFETCH INSTRUCTION	ACCESS:     638797  HIT:     638797  MISS:          0  HIT %:        100  MISS %:          0  MPKI: 0

L1I PREFETCH  REQUESTED:    1534199  ISSUED:    1534199  USEFUL:          0  USELESS:          0
L1I USEFUL LOAD PREFETCHES:          0 PREFETCH ISSUED TO LOWER LEVEL:          0  ACCURACY: -nan
 TIMELY PREFETCHES:          0 LATE PREFETCHES: 0 DROPPED PREFETCHES: 0
L1I AVERAGE MISS LATENCY: 17.3993 cycles
L1I RQ	ACCESS:    9524867	FORWARD:          0	MERGED:    2841414	TO_CACHE:    6683453
L1I PQ	ACCESS:    1534199	FORWARD:          0	MERGED:     415388	TO_CACHE:    1118811

L1BTB TOTAL     ACCESS:    5671822  HIT:    2062071  MISS:    3609751  HIT %:    36.3564  MISS %:    63.6436   MPKI: 72.195
L1BTB BRANCH_DIRECT_JUMP	ACCESS:     549503  HIT:     146610  MISS:     402893	AVERAGE STALL: 53.8059
L1BTB BRANCH_INDIRECT	ACCESS:     183944  HIT:      66799  MISS:     117145	AVERAGE STALL: 110.853
L1BTB BRANCH_CONDITIONAL	ACCESS:    2721402  HIT:    1433714  MISS:    1287688	AVERAGE STALL: 60.9639
L1BTB BRANCH_DIRECT_CALL	ACCESS:     938188  HIT:     104848  MISS:     833340	AVERAGE STALL: 70.0838
L1BTB BRANCH_INDIRECT_CALL	ACCESS:     170287  HIT:      20707  MISS:     149580	AVERAGE STALL: 135.524
L1BTB BRANCH_RETURN	ACCESS:    1108498  HIT:     289393  MISS:     819105	AVERAGE STALL: 49.9029
L1BTB BRANCH_OTHER ACCESS:          0  HIT:          0  MISS:          0	AVERAGE STALL: -nan
L1BTB TOTAL ROB OCCUPANCY AT BTB MISS: 5.51281

L2BTB TOTAL     ACCESS:    3584159  HIT:    3470272  MISS:     113887  HIT %:    96.8225  MISS %:    3.17751   MPKI: 2.27774
L2BTB BRANCH_DIRECT_JUMP	ACCESS:     398612  HIT:     388346  MISS:      10266	AVERAGE STALL: 53.8059
L2BTB BRANCH_INDIRECT	ACCESS:     106877  HIT:     103514  MISS:       3363	AVERAGE STALL: 110.853
L2BTB BRANCH_CONDITIONAL	ACCESS:    1287688  HIT:    1264111  MISS:      23577	AVERAGE STALL: 60.9639
L2BTB BRANCH_DIRECT_CALL	ACCESS:     833340  HIT:     815999  MISS:      17341	AVERAGE STALL: 70.0838
L2BTB BRANCH_INDIRECT_CALL	ACCESS:     139930  HIT:     128038  MISS:      11892	AVERAGE STALL: 135.524
L2BTB BRANCH_RETURN	ACCESS:     817712  HIT:     770264  MISS:      47448	AVERAGE STALL: 49.9029
L2BTB BRANCH_OTHER ACCESS:          0  HIT:          0  MISS:          0	AVERAGE STALL: -nan
L2BTB TOTAL ROB OCCUPANCY AT BTB MISS: 174.733

L2C TOTAL     ACCESS:    4453233  HIT:    3961394  MISS:     491839  HIT %:    88.9555  MISS %:    11.0445   MPKI: 9.83678
L2C LOAD INSTRUCTION	ACCESS:    2744612  HIT:    2477050  MISS:     267562  HIT %:    90.2514  MISS %:    9.74863  MPKI: 5.35124
L2C LOAD TRANSLATION INSTRUCTION	ACCESS:        273  HIT:         84  MISS:        189  HIT %:    30.7692  MISS %:    69.2308  MPKI: 0.00378
L2C LOAD DATA	ACCESS:     720059  HIT:     640119  MISS:      79940  HIT %:    88.8981  MISS %:    11.1019  MPKI: 1.5988
L2C RFO DATA	ACCESS:     284398  HIT:     233821  MISS:      50577  HIT %:    82.2161  MISS %:    17.7839  MPKI: 1.01154
L2C PREFETCH DATA	ACCESS:     184836  HIT:     108052  MISS:      76784  HIT %:    58.4583  MISS %:    41.5417  MPKI: 1.53568
L2C WRITEBACK DATA	ACCESS:     517124  HIT:     501631  MISS:      15493  HIT %:     97.004  MISS %:    2.99599  MPKI: 0.30986
L2C LOAD TRANSLATION DATA	ACCESS:       1883  HIT:        610  MISS:       1273  HIT %:    32.3951  MISS %:    67.6049  MPKI: 0.02546
L2C TRANSLATION FROM L1D PREFETCHER DATA	ACCESS:         48  HIT:         27  MISS:         21  HIT %:      56.25  MISS %:      43.75  MPKI: 0.00042

L2C PREFETCH  REQUESTED:      90163  ISSUED:      90163  USEFUL:       8147  USELESS:      69256
L2C USEFUL LOAD PREFETCHES:       8147 PREFETCH ISSUED TO LOWER LEVEL:      77359  ACCURACY: 10.5314
 TIMELY PREFETCHES:       8147 LATE PREFETCHES: 575 DROPPED PREFETCHES: 0
L2C AVERAGE MISS LATENCY: 38.8413 cycles
L2C RQ	ACCESS:    3751339	FORWARD:          0	MERGED:          0	TO_CACHE:    3751273
L2C WQ	ACCESS:     517124	FORWARD:         66	MERGED:          0	TO_CACHE:     517124
L2C PQ	ACCESS:     193178	FORWARD:          0	MERGED:       3237	TO_CACHE:     189941

L2C Dense regions hint from L2: 0
PSCL5 TOTAL     ACCESS:       4104  HIT:       2052  MISS:       2052  HIT %:         50  MISS %:         50   MPKI: 0.04104
PSCL5 LOAD TRANSLATION INSTRUCTION	ACCESS:       4010  HIT:       2005  MISS:       2005  HIT %:         50  MISS %:         50  MPKI: 0.0401
PSCL5 TRANSLATION FROM L1D PREFETCHER INSTRUCTION	ACCESS:         94  HIT:         47  MISS:         47  HIT %:         50  MISS %:         50  MPKI: 0.00094


PSCL4 TOTAL     ACCESS:       3963  HIT:       1975  MISS:       1988  HIT %:     49.836  MISS %:     50.164   MPKI: 0.03976
PSCL4 LOAD TRANSLATION INSTRUCTION	ACCESS:       2046  HIT:       1928  MISS:        118  HIT %:    94.2326  MISS %:    5.76735  MPKI: 0.00236
PSCL4 TRANSLATION FROM L1D PREFETCHER INSTRUCTION	ACCESS:         49  HIT:         47  MISS:          2  HIT %:    95.9184  MISS %:    4.08163  MPKI: 4e-05
PSCL4 LOAD TRANSLATION DATA	ACCESS:       1823  HIT:          0  MISS:       1823  HIT %:          0  MISS %:        100  MPKI: 0.03646
PSCL4 TRANSLATION FROM L1D PREFETCHER DATA	ACCESS:         45  HIT:          0  MISS:         45  HIT %:          0  MISS %:        100  MPKI: 0.0009


PSCL3 TOTAL     ACCESS:       4053  HIT:       2020  MISS:       2033  HIT %:    49.8396  MISS %:    50.1604   MPKI: 0.04066
PSCL3 LOAD TRANSLATION INSTRUCTION	ACCESS:       2091  HIT:       1973  MISS:        118  HIT %:    94.3568  MISS %:    5.64323  MPKI: 0.00236
PSCL3 TRANSLATION FROM L1D PREFETCHER INSTRUCTION	ACCESS:         49  HIT:         47  MISS:          2  HIT %:    95.9184  MISS %:    4.08163  MPKI: 4e-05
PSCL3 LOAD TRANSLATION DATA	ACCESS:       1868  HIT:          0  MISS:       1868  HIT %:          0  MISS %:        100  MPKI: 0.03736
PSCL3 TRANSLATION FROM L1D PREFETCHER DATA	ACCESS:         45  HIT:          0  MISS:         45  HIT %:          0  MISS %:        100  MPKI: 0.0009


PSCL2 TOTAL     ACCESS:       3972  HIT:       1921  MISS:       2051  HIT %:    48.3635  MISS %:    51.6365   MPKI: 0.04102
PSCL2 LOAD TRANSLATION INSTRUCTION	ACCESS:       2119  HIT:       1875  MISS:        244  HIT %:    88.4851  MISS %:    11.5149  MPKI: 0.00488
PSCL2 TRANSLATION FROM L1D PREFETCHER INSTRUCTION	ACCESS:         46  HIT:         46  MISS:          0  HIT %:        100  MISS %:          0  MPKI: 0
PSCL2 LOAD TRANSLATION DATA	ACCESS:       1761  HIT:          0  MISS:       1761  HIT %:          0  MISS %:        100  MPKI: 0.03522
PSCL2 TRANSLATION FROM L1D PREFETCHER DATA	ACCESS:         46  HIT:          0  MISS:         46  HIT %:          0  MISS %:        100  MPKI: 0.00092


LLC TOTAL     ACCESS:     550551  HIT:     520025  MISS:      30526  HIT %:    94.4554  MISS %:    5.54463   MPKI: 0.61052
LLC LOAD INSTRUCTION	ACCESS:     267562  HIT:     266292  MISS:       1270  HIT %:    99.5253  MISS %:   0.474656  MPKI: 0.0254
LLC LOAD TRANSLATION INSTRUCTION	ACCESS:        189  HIT:        147  MISS:         42  HIT %:    77.7778  MISS %:    22.2222  MPKI: 0.00084
LLC LOAD DATA	ACCESS:      79383  HIT:      75601  MISS:       3782  HIT %:    95.2358  MISS %:    4.76424  MPKI: 0.07564
LLC RFO DATA	ACCESS:      50553  HIT:      35771  MISS:      14782  HIT %:    70.7594  MISS %:    29.2406  MPKI: 0.29564
LLC PREFETCH DATA	ACCESS:      77359  HIT:      67196  MISS:      10163  HIT %:    86.8625  MISS %:    13.1375  MPKI: 0.20326
LLC WRITEBACK DATA	ACCESS:      74211  HIT:      73847  MISS:        364  HIT %:    99.5095  MISS %:   0.490493  MPKI: 0.00728
LLC LOAD TRANSLATION DATA	ACCESS:       1273  HIT:       1150  MISS:        123  HIT %:    90.3378  MISS %:    9.66222  MPKI: 0.00246
LLC TRANSLATION FROM L1D PREFETCHER DATA	ACCESS:         21  HIT:         21  MISS:          0  HIT %:        100  MISS %:          0  MPKI: 0

LLC AVERAGE MISS LATENCY: 156.138 cycles
LLC RQ	ACCESS:     398987	FORWARD:          0	MERGED:          0	TO_CACHE:     398981
LLC WQ	ACCESS:      74211	FORWARD:          6	MERGED:          0	TO_CACHE:      74211
LLC PQ	ACCESS:      77359	FORWARD:          0	MERGED:          0	TO_CACHE:      77359

LLC Dense regions hint to LLC: 0

RAW hits: 1925454
Loads Generated: 12637166
Loads sent to L1D: 10711712
Stores Generated: 6936960
Stores sent to L1D: 6936973
Major fault: 0 Minor fault: 2611
Allocated PAGES: 2611

stream: 
stream:times selected: 1200936
stream:pref_filled: 122663
stream:pref_useful: 24065
stream:pref_late: 7321
stream:misses: 7997
stream:misses_by_poll: 0

CS: 
CS:times selected: 180069
CS:pref_filled: 59526
CS:pref_useful: 35952
CS:pref_late: 6918
CS:misses: 15927
CS:misses_by_poll: 10

CPLX: 
CPLX:times selected: 1019720
CPLX:pref_filled: 19483
CPLX:pref_useful: 4387
CPLX:pref_late: 3228
CPLX:misses: 92294
CPLX:misses_by_poll: 0

NL_L1: 
NL:times selected: 21521
NL:pref_filled: 616
NL:pref_useful: 247
NL:pref_late: 392
NL:misses: 1799
NL:misses_by_poll: 0

total selections: 2422246
total_filled: 94948
total_useful: 33898
total_late: 19098
total_polluted: 10
total_misses_after_warmup: 761871
conflicts: 5513928

test: 120626

DRAM Statistics
 CHANNEL 0
 RQ ROW_BUFFER_HIT:      11234  ROW_BUFFER_MISS:      18924
 DBUS_CONGESTED:         15
 WQ ROW_BUFFER_HIT:       1574  ROW_BUFFER_MISS:      12934  FULL:          0

 AVG_CONGESTED_CYCLE: 6

CPU 0 Branch Prediction Accuracy: 99.8083% MPKI: 0.35044 Average ROB Occupancy at Mispredict: 175.413
Branch types
NOT_BRANCH: 40861461 81.7229%
BRANCH_DIRECT_JUMP: 549503 1.09901%
BRANCH_INDIRECT: 183944 0.367888%
BRANCH_CONDITIONAL: 6187665 12.3753%
BRANCH_DIRECT_CALL: 938188 1.87638%
BRANCH_INDIRECT_CALL: 170287 0.340574%
BRANCH_RETURN: 1108498 2.217%
BRANCH_OTHER: 0 0%

DRAM PAGES: 1048576
Allocated PAGES: 2611
Average_ROB_Occupancy: 228.705
Average_Decode_Occupancy: 32.0037
Average_FTQ_Occupancy: 12.7897
Indirect max targets: 14 Average targets: 1.17834
Branch_type:  BRANCH_DIRECT_JUMP:  Count Percentage: 3.29439 5.64831 2.73342 9.73642 1.9817 6.296 1.31561 68.9941 
Branch_type:  BRANCH_INDIRECT:  Count Percentage: 11.7436 3.4653 1.22654 8.11874 3.2646 1.20802 10.7445 60.2287 
Branch_type:  BRANCH_CONDITIONAL:  Count Percentage: 22.3296 2.24288 2.18205 5.50569 1.27634 4.55391 1.43455 60.475 
Branch_type:  BRANCH_DIRECT_CALL:  Count Percentage: 0.264666 1.71636 1.29068 5.19648 2.18486 2.9754 0.864252 85.5073 
Branch_type:  BRANCH_INDIRECT_CALL:  Count Percentage: 9.55137 0.594835 2.99176 4.86862 0 3.85485 0 78.1386 
Branch_type:  BRANCH_RETURN:  Count Percentage: 3.66404 1.25068 1.05806 6.75108 3.18054 5.45093 2.95152 75.6931 
Branch_type:  BRANCH_DIRECT_JUMP:  Total Count: 36164 62004 30006 106881 21754 69114 14442 757379 
Branch_type:  BRANCH_INDIRECT:  Total Count: 43124 12725 4504 29813 11988 4436 39455 221167 
Branch_type:  BRANCH_CONDITIONAL:  Total Count: 2761413 277368 269845 680866 157840 563163 177405 7478691 
Branch_type:  BRANCH_DIRECT_CALL:  Total Count: 4969 32224 24232 97562 41020 55862 16226 1605367 
Branch_type:  BRANCH_INDIRECT_CALL:  Total Count: 32580 2029 10205 16607 0 13149 0 266533 
Branch_type:  BRANCH_RETURN:  Total Count: 81321 27758 23483 149836 70590 120980 65507 1679961 
Number of unique branch instructions: 10838
Upper 32 bits: 
aaaa
ffff
ffff0000
Unique upper 32 bits: 3
Unique upper 36 bits: 3
Unique upper 40 bits: 5
Unique upper 44 bits: 32
Unique upper 48 bits: 157
Offset_3 4494
Offset_4 258
Offset_5 484
Offset_6 547
Offset_7 640
Offset_8 587
Offset_9 517
Offset_10 431
Offset_11 355
Offset_12 324
Offset_13 242
Offset_14 245
Offset_15 201
Offset_16 227
Offset_17 172
Offset_18 154
Offset_19 257
Offset_20 144
Offset_21 235
Offset_22 416
Offset_23 241
Offset_24 350
Offset_25 117
Offset_47 93
Offset_64 1
decode_dispatch_called: 24379696 66.7322
Dispatch_width: 0 12975113 53.221 35.5155
Dispatch_width: 1 844809 3.46522 2.31241
Dispatch_width: 2 770731 3.16136 2.10965
Dispatch_width: 3 453825 1.86149 1.24221
Dispatch_width: 4 4804331 19.7063 13.1504
Dispatch_width: 5 150679 0.618051 0.412439
Dispatch_width: 6 4380208 17.9666 11.9895
Empty_decode_cycles: 12153960 33.2678
ROB_full_cycles: 7803171 21.3589
Starvation_cycles_per_kilo_instr: 243.503
Starvation_cycles_per_kilo_instr_3: 193.953
Starvation_cycles_per_kilo_instr_0: 173.259
Branch_type_1  (3,1)  (4,7)  (5,38)  (6,75)  (7,125)  (8,150)  (9,136)  (10,113)  (11,80)  (12,55)  (13,11)  (14,2)  (15,3)  (16,4)  (18,1)  (19,5)  (20,2)  (21,1)  (22,3)  (23,2)  (24,10)  (25,12) 
Branch_type_2  (3,1)  (4,1)  (5,1)  (8,4)  (9,4)  (10,1)  (12,1)  (13,1)  (14,1)  (16,3)  (17,2)  (20,2)  (21,2)  (23,5)  (24,1)  (47,43) 
Branch_type_3  (3,4492)  (4,250)  (5,441)  (6,455)  (7,484)  (8,368)  (9,283)  (10,175)  (11,139)  (12,62)  (13,10)  (64,1) 
Branch_type_4  (6,4)  (7,8)  (8,26)  (9,55)  (10,67)  (11,70)  (12,115)  (13,103)  (14,111)  (15,96)  (16,100)  (17,81)  (18,67)  (19,124)  (20,73)  (21,124)  (22,222)  (23,136)  (24,206)  (25,101) 
Branch_type_5  (8,3)  (9,1)  (10,4)  (11,5)  (12,3)  (13,14)  (14,16)  (15,11)  (16,22)  (17,11)  (18,23)  (19,14)  (20,11)  (21,13)  (22,43)  (23,26)  (24,37) 
Branch_type_6  (5,4)  (6,13)  (7,23)  (8,36)  (9,38)  (10,71)  (11,61)  (12,88)  (13,103)  (14,115)  (15,91)  (16,98)  (17,78)  (18,63)  (19,114)  (20,56)  (21,95)  (22,148)  (23,72)  (24,96)  (25,4)  (47,50) 
aaaaab1fc620: 2ac9e77e 2aca717c 2aca8eff 2acaf6bc 2acaf9aa 2acaf9f1 2acb1abc 2acb1b7f 2acd4e22 2acdb712 2acf5f9e 2ad0ef44 2ad3f15c 2ad414e6 2ad60e42 2ad8609c 2ad99830 2ada35cc 2ada4676 2ada6612 2adf183e 2adf30e5 2adf5602 2adf785c 2ae11572 2aeb2dcf 2aee101b 2aee1ae1 2aee9456 2b156a8c 2b156b61 2b156bea 2b167f35 2b177656 2b17feec 2b1a3e5a 
aaaaab1fc640: 2ac9ec07 2aca656e 2aca801d 2acaea11 2acaee73 2acb13ee 2acb1470 2acd462b 2ad0ef5d 2ad3f3fe 2ad86e9b 2ada1641 2ada4115 2ada6638 2adf30d4 2ae12e57 2aee1033 2b1693ab 2b16948c 2b169491 2b17d915 2b17fa85 2b17fccd 
aaaaab1fc740: 2aca1fb0 2aca45b3 2aca5aa1 2aca5c69 2aca66f9 2aca9426 2acaeecb 2acf3d2d 2acf3d64 2acf6089 2ad017ea 2ad5e7ef 2ad61064 2ad87373 2ad9bf84 2ad9c093 2ae9b606 2aea9ffa 2aee99f5 2aee9a2c 2aeece4b 
aaaaab1fcb00: 2acf2d72 2acf3734 2acf604c 2acfa5b7 2ad397b5 2ad3b800 2ae8af7d 2ae8aff0 2ae9aaba 2aea9fc6 2aeaa358 2aee910b 2aee91cf 2aee928e 2aee92e4 2aee99de 2af6fe87 2af70dfe 2b16850c 2b16c4a2 2b1765f4 2b178094 2b17d925 2b17db06 2b17ec8f 
aaaaab1fcb10: 2acf2d95 2acf3758 2acf6052 2acfa5f4 2ad397c3 2ad3b81c 2ae8af88 2ae8affe 2ae9aacf 2aeaa017 2aeaa36d 2aee9114 2aee91d8 2aee934d 2aee9353 2aee9a14 2af6fe8c 2af70e22 2b168526 2b16c542 2b176609 2b1780a3 2b17d95d 2b17db44 2b17ecac 
aaaaac68f310: 2ac9ec8c 2ac9fb44 2ac9fbd2 2aca59ab 2acac04c 2acaf6e0 2acaf6ec 2acaf6f9 2acaf700 2acaf708 2acf2d90 2ad3cfbd 2ad3cfc4 2ad3d000 2ad3f35f 2ad4955d 2ad49571 2ad4f3f2 2ad4f400 2ad5f240 2ad5f37c 2ad5f86a 2ad5f86f 2ad5f880 2ad5fc0d 2ad5fc14 2ad5fc21 2ad5fe1b 2ad873bb 2ad873e3 2ad8a6b2 2ad9086e 2ad93096 2ad9bbb2 2ada152c 2ada1554 2ada3332 2ada5522 2adf3130 2adf313c 2adf3a3f 2adf3bd9 2adf5788 2adf7a8d 2ae07f6b 2ae0857a 2ae0857e 2ae08630 2ae08634 2ae08637 2ae08642 2ae0866f 2ae086e4 2ae086ec 2ae08717 2ae0871b 2aee0170 2aee1d38 2aee75f4 2aee7662 2aee85ca 2aee85e4 2aee8eef 2aee9a0a 2af70b84 2af74e8f 2b17d843 
aaaaac690ef0: 2aca598b 2acb111b 2acb175f 2acb1772 2acbfaf4 2acbfb00 2acf374f 2acf6d43 2acfa5c8 2ad3baf1 2ad3d4ac 2ad3d4b8 2ad3f1cf 2ad486b2 2ad5a59b 2ad5fc64 2ad5fcf9 2ad6121c 2ad906e9 2ad907bf 2ad9bada 2ada16ce 2ada1ad5 2ada43df 2ada64c0 2ada72ee 2adeb71a 2adf3bcb 2adf7a38 2adf7c6a 2adf8872 2adf8880 2adf9959 2adf9abe 2ae07f78 2ae08503 2ae08754 2ae12e80 2aea3bea 2aecb509 2aee00b0 2aee2bdd 2aee5467 2aee5601 2aee8f20 2af703fd 2af7048b 2af74e74 2dfba627 
Unique trigger count: 
1 10325
2 566
3 89
4 30
5 14
6 12
7 8
8 1
9 5
10 2
11 1
12 1
13 1
14 3
16 2
19 1
21 1
23 1
25 2
36 1
49 1
67 1
BTB PER SET UNIQUE ADDR: 1 2 2 2 0 0 1 1 3 0 2 0 1 1 0 1 2 1 1 2 0 1 1 2 1 2 1 2 1 1 2 2 2 1 3 0 0 3 4 0 1 2 3 3 1 1 2 1 4 1 1 1 2 0 0 2 3 3 1 1 1 2 2 2 0 4 4 0 2 2 5 1 1 2 1 1 2 6 2 1 1 1 1 4 3 1 1 5 3 2 3 4 2 3 3 0 1 3 0 1 3 2 2 3 2 2 1 1 3 0 2 2 3 2 1 3 1 2 1 0 3 2 2 0 1 1 1 1 3 3 3 0 1 1 2 1 0 0 1 2 2 3 3 0 2 1 2 3 3 2 1 6 1 2 3 1 0 3 2 1 0 0 0 1 4 4 0 1 5 2 2 2 2 1 1 0 1 1 3 1 1 4 6 2 3 2 3 1 1 1 5 1 1 2 1 1 1 1 0 1 2 1 1 0 0 0 1 1 1 0 0 2 2 1 2 1 0 2 1 0 0 1 1 3 2 0 2 2 0 3 5 3 1 2 1 3 3 1 1 2 1 0 2 2 6 3 1 1 3 1 1 1 1 1 0 5 2 2 2 2 3 3 2 2 2 4 3 0 2 1 2 2 1 2 3 2 2 0 3 2 2 2 1 1 2 3 2 1 1 1 0 0 1 3 0 1 3 2 0 1 2 2 1 1 2 2 3 2 3 3 2 1 2 2 3 0 2 2 1 2 1 2 2 3 0 3 1 4 0 0 3 0 2 2 3 1 2 3 4 0 3 0 0 1 2 3 1 2 1 3 1 3 3 2 2 2 1 0 3 0 0 2 1 2 4 2 1 0 0 0 3 1 2 0 1 2 2 2 2 3 0 0 1 3 0 0 2 1 2 1 1 2 2 2 2 0 3 0 0 2 3 1 4 1 1 0 2 3 0 1 0 1 2 2 1 0 4 1 1 2 1 1 3 2 2 4 0 0 1 3 1 0 5 2 3 3 2 1 1 0 0 4 3 3 2 1 1 3 1 1 3 0 0 1 3 0 1 3 2 2 3 0 3 2 0 0 2 0 1 3 0 1 1 1 2 1 0 1 1 0 0 1 1 2 0 2 2 0 3 1 3 1 1 2 0 3 1 1 3 0 3 0 0 1 0 2 1 0 0 2 3 2 4 4 2 0 1 3 1 5 1 1 3 1 3 3 1 4 3 2 5 1 2 2 1 4 0 0 3 0 0 4 3 1 5 1 6 3 4 4 2 3 2 3 0 1 1 0 2 2 7 0 1 2 1 0 0 1 3 4 3 0 1 4 1 0 0 2 0 0 1 1 1 0 1 0 0 4 2 2 3 3 0 2 1 2 3 0 2 2 1 0 1 3 1 1 1 1 3 0 2 2 3 1 2 1 2 0 2 1 3 1 5 0 2 2 2 2 1 0 3 1 0 2 2 4 0 1 1 2 5 1 3 3 0 0 2 1 2 1 1 1 3 1 1 0 4 0 1 3 3 2 3 3 2 1 1 1 0 0 4 2 1 0 4 2 0 1 3 2 1 0 2 2 2 1 1 2 2 1 0 3 1 1 1 3 3 3 2 3 0 2 0 2 1 1 0 1 0 0 1 2 0 1 2 0 1 1 0 2 1 0 1 1 0 1 1 1 0 3 3 2 1 0 1 1 6 2 1 0 1 3 1 2 1 0 3 1 3 2 0 0 1 2 0 1 2 3 1 1 1 1 0 2 0 1 3 1 0 0 2 2 0 0 1 2 3 1 1 1 2 1 0 0 3 3 3 4 0 0 1 3 0 0 2 3 3 1 1 0 2 2 1 2 1 1 1 4 0 2 0 2 1 0 2 1 1 0 0 3 3 0 1 0 2 1 1 1 1 4 1 1 2 1 3 0 1 0 3 2 0 1 0 2 0 1 3 2 3 0 2 1 3 1 3 2 0 0 1 0 0 0 0 1 4 1 1 0 2 0 1 1 1 2 1 0 2 2 3 1 2 1 1 0 0 0 1 2 0 0 2 0 1 2 1 1 4 0 1 1 1 0 0 1 1 3 0 1 0 4 3 3 0 0 1 2 0 1 1 2 4 1 3 1 2 0 3 0 2 1 3 1 4 2 2 1 1 1 0 1 1 1 0 3 2 2 1 2 1 1 1 0 4 1 1 1 4 2 2 1 2 1 2 2 2 4 8 2 2 2 1 1 0 2 3 1 3 4 1 2 3 2 1 3 1 1 1 3 2 1 3 1 1 2 2 1 2 2 1 4 0 1 2 1 2 3 3 2 0 2 2 0 3 0 1 2 3 3 1 3 3 1 8 4 0 2 2 1 1 1 3 4 2 1 3 0 0 1 1 0 2 0 1 3 0 2 4 1 3 3 0 1 3 2 1 3 2 1 2 1 0 1 1 0 2 0 1 2 3 2 1 4 3 2 0 1 7 0 1 1 1 1 2 2 1 5 2 3 2 4 2 4 2 2 1 0 4 1 1 2 1 6 1 0 3 1 1 1 2 1 1 2 3 4 2 2 2 1 1 4 4 2 1 1 1 1 3 2 1 4 2 2 2 1 2 4 0 1 3 1 0 2 1 0 1 3 1 2 1 2 1 3 2 0 1 1 3 2 1 0 2 0 0 3 2 1 2 2 1 4 0 1 5 0 3 3 1 2 2 4 2 4 0 6 4 0 2 1 2 0 0 1 3 0 1 1 2 4 1 0 0 2 3 2 1 1 0 0 1 4 1 4 2 2 0 2 0 1 2 4 5 1 5 0 0 1 1 1 4 0 2 3 2 1 1 1 0 4 1 3 0 1 1 5 3 1 2 2 0 2 3 3 2 4 2 2 0 0 3 3 4 1 2 2 0 1 3 2 3 1 1 1 1 2 5 3 4 0 0 2 1 1 3 2 3 0 0 1 2 3 1 0 3 1 1 1 1 1 5 0 1 1 0 4 3 0 2 1 3 2 1 1 2 1 2 2 0 3 2 0 0 3 1 1 2 2 1 1 0 2 1 1 1 2 0 3 3 2 1 2 0 0 2 0 2 2 0 2 1 1 2 2 1 0 3 0 1 1 2 2 1 1 1 1 1 4 1 3 2 1 2 0 1 1 1 4 2 2 1 2 1 2 0 1 4 2 3 1 4 2 1 1 1 2 3 1 1 1 4 0 5 2 2 3 1 0 3 3 1 1 1 3 0 2 2 1 1 1 2 2 0 1 1 4 2 1 2 2 0 2 2 0 1 2 1 1 1 0 0 2 0 0 1 1 0 2 1 3 4 1 1 0 1 1 1 0 1 0 0 3 1 0 1 1 0 1 1 0 0 0 1 0 0 1 0 0 1 0 2 0 2 1 1 0 1 0 0 5 1 0 1 1 3 2 1 0 2 2 1 0 3 0 1 1 1 1 1 0 2 0 3 1 0 1 4 0 0 1 0 2 1 2 2 1 2 2 3 2 0 1 1 0 0 0 4 0 1 1 0 0 0 1 0 1 1 0 1 3 2 1 2 1 2 2 1 1 1 0 1 1 2 0 0 1 2 1 3 1 0 1 1 4 3 0 0 1 2 1 0 0 3 1 3 0 2 1 3 2 1 3 4 3 5 0 1 1 3 2 1 5 4 3 2 3 4 0 0 2 2 1 1 1 1 1 2 0 2 1 0 1 3 0 1 1 3 1 2 3 3 1 0 1 4 0 2 3 2 2 2 1 3 3 1 1 1 2 2 2 1 4 2 1 1 1 1 3 3 1 1 1 1 0 2 1 2 3 0 0 1 1 0 3 3 1 0 2 2 0 1 2 2 1 1 2 1 0 0 3 2 1 0 0 0 2 1 0 2 1 3 2 2 1 4 1 2 6 3 2 3 2 0 3 2 1 1 1 1 0 0 2 3 1 2 0 0 3 3 1 2 2 0 0 1 2 2 2 2 1 2 2 2 1 0 2 0 1 2 1 0 0 1 1 0 1 2 0 3 0 3 1 1 0 2 1 1 3 0 3 0 1 0 1 1 1 4 0 2 1 0 1 2 1 0 1 0 0 1 1 1 1 2 2 3 0 3 0 0 1 2 1 1 6 1 0 2 2 3 2 1 2 5 1 3 3 0 2 1 3 2 5 4 0 2 1 5 0 4 0 3 2 2 2 1 1 1 0 1 2 0 2 0 1 3 3 2 1 4 2 2 2 3 0 2 0 3 1 3 2 2 2 2 1 0 2 3 2 0 0 1 2 0 0 0 1 0 1 1 3 0 2 2 2 3 2 2 1 2 2 2 1 1 2 2 1 0 2 2 1 2 0 0 1 0 0 0 0 0 1 1 1 2 1 1 2 0 0 0 1 1 1 1 1 2 1 2 2 2 0 2 1 1 2 1 2 1 2 1 0 1 0 3 1 0 1 2 1 3 2 2 2 0 2 0 1 0 0 2 2 0 4 2 4 0 2 2 6 1 0 0 1 4 3 3 1 1 1 3 1 0 1 2 4 1 6 2 0 3 0 1 1 1 1 2 1 0 2 0 1 2 3 1 0 0 3 4 1 0 0 2 3 1 0 3 3 1 0 3 3 0 1 2 4 0 0 0 2 1 0 4 0 1 0 2 2 3 0 2 1 2 1 2 1 0 2 4 2 3 0 2 2 1 1 1 1 2 1 1 0 0 0 4 2 1 2 1 1 3 3 3 3 1 1 3 3 0 2 2 1 4 4 2 3 2 2 1 3 1 2 3 2 1 4 5 3 2 3 2 2 2 1 1 1 0 1 1 0 2 2 0 2 0 1 1 0 1 4 1 3 0 0 0 2 1 2 1 1 0 3 1 1 0 0 0 2 1 1 0 1 3 1 1 2 0 0 3 1 2 2 1 2 1 0 1 0 0 1 0 2 1 0 0 4 1 3 1 3 3 1 2 2 0 0 0 1 1 1 4 3 3 2 3 2 4 3 2 2 2 1 3 1 1 2 1 4 1 2 2 3 2 3 2 3 2 0 4 1 2 2 5 6 5 3 3 2 2 1 4 1 1 1 3 2 0 2 3 4 3 0 2 1 1 2 4 5 1 1 1 2 1 2 2 2 3 3 3 2 3 5 1 1 3 2 3 3 1 4 2 1 2 2 3 3 2 1 3 3 3 0 1 2 1 1 1 2 2 1 0 1 3 1 2 2 3 1 2 2 1 1 0 0 4 2 5 5 0 2 1 3 2 1 0 3 2 2 1 3 2 1 1 1 2 0 1 3 0 2 2 1 1 0 1 1 2 0 0 1 0 1 2 1 5 1 3 2 1 2 0 0 0 3 0 3 2 0 2 1 2 1 1 1 1 1 2 0 1 0 5 2 2 0 1 0 2 2 5 4 1 2 3 5 1 2 2 0 1 3 1 2 2 0 0 3 2 1 2 2 2 0 1 0 1 4 3 0 0 4 4 2 3 5 3 1 3 1 1 0 2 1 2 4 1 2 3 3 0 1 2 2 0 1 1 4 3 2 1 2 1 1 6 3 1 3 3 2 3 1 4 0 4 3 2 0 1 1 2 0 1 2 1 1 1 1 1 4 2 0 1 0 1 3 4 2 1 3 2 2 0 1 0 0 1 2 3 2 3 0 1 3 1 2 4 1 2 2 1 2 3 0 3 0 2 1 3 5 1 1 2 1 1 3 1 2 2 1 0 1 5 1 0 3 1 4 2 3 4 3 2 0 0 3 4 2 1 0 4 4 1 1 2 0 1 0 0 2 1 0 3 0 2 1 2 2 1 3 2 2 0 1 2 1 1 1 1 0 1 2 2 1 0 0 1 4 0 1 1 2 3 1 3 4 1 2 3 3 0 3 3 2 1 2 2 4 2 1 2 1 1 1 2 1 4 2 1 1 2 0 3 5 2 3 1 3 1 2 2 1 2 2 1 3 4 1 1 1 4 2 0 3 0 2 2 3 1 2 3 2 1 5 4 1 1 0 0 0 0 5 3 1 3 5 2 0 2 1 3 2 2 0 6 2 5 4 2 3 2 3 0 2 3 1 0 2 0 2 0 0 1 0 1 2 3 2 0 2 1 3 1 3 2 3 3 1 3 1 3 4 2 1 3 0 1 1 1 0 2 3 1 4 3 1 2 1 2 0 1 3 1 0 3 0 2 1 4 2 4 2 2 3 1 3 3 3 1 5 3 2 0 1 3 2 3 0 3 2 4 2 2 2 1 2 1 2 2 0 3 1 3 2 0 4 0 1 2 2 4 0 3 1 2 2 4 1 0 1 7 1 0 1 1 0 0 0 1 2 0 3 2 1 3 4 1 2 2 4 2 2 1 2 1 1 1 2 1 2 1 1 2 0 1 2 0 2 2 1 1 3 3 1 2 2 1 3 4 3 5 2 2 2 3 3 0 3 2 1 2 1 1 2 2 3 0 3 5 3 0 1 0 3 2 1 1 1 2 4 4 1 2 3 4 1 3 1 4 3 2 1 1 0 1 2 3 0 3 3 0 2 0 1 2 2 3 2 0 2 2 2 3 0 2 0 1 1 2 2 1 2 2 1 2 1 3 2 2 3 4 3 3 1 4 2 3 3 2 2 3 2 3 4 2 6 2 0 4 2 2 4 3 4 0 3 2 4 3 0 0 1 2 3 1 5 3 5 6 3 1 1 3 5 3 3 2 2 1 0 2 4 1 0 4 2 1 3 4 2 4 4 3 1 2 1 1 3 0 4 0 2 5 0 2 4 2 2 2 1 0 2 3 7 2 3 5 5 4 3 5 3 2 7 3 1 1 1 2 4 4 3 4 3 5 1 1 4 1 3 2 4 2 1 1 2 2 3 0 2 1 3 4 1 2 3 0 4 4 0 4 1 0 1 4 3 2 2 1 0 1 1 2 2 2 4 2 5 3 4 2 3 2 1 3 2 3 1 0 2 1 1 3 2 3 4 1 4 5 0 2 0 1 2 2 1 3 1 3 1 1 1 1 2 1 3 4 1 0 2 3 1 2 1 2 2 3 1 3 2 1 4 1 3 1 2 0 2 3 1 0 0 1 1 3 0 0 1 2 1 1 1 0 2 0 4 2 1 2 0 3 1 1 3 0 1 4 4 2 2 0 2 2 2 1 1 1 0 0 1 1 0 3 2 2 2 3 1 3 3 5 1 1 3 4 1 2 4 2 2 4 0 4 1 3 2 2 1 3 2 3 4 2 2 4 4 2 2 2 1 1 1 0 4 1 1 1 1 2 2 1 1 4 0 1 2 2 3 4 0 5 1 2 2 1 1 3 2 1 3 1 2 1 2 2 2 2 3 1 2 2 3 0 4 2 1 3 2 2 3 4 0 4 2 1 1 1 4 2 0 1 0 2 1 2 0 1 2 2 1 3 4 1 1 1 1 2 4 0 3 3 2 0 2 2 0 3 0 1 3 3 1 1 1 1 0 2 0 0 1 4 1 2 1 1 3 2 1 2 0 2 1 3 4 6 1 1 3 3 3 1 1 0 2 2 2 0 0 3 2 1 2 2 2 0 3 1 1 1 5 1 3 3 4 0 2 3 1 1 1 3 1 4 6 2 3 0 2 3 4 1 4 1 6 5 1 1 1 1 2 2 2 1 2 2 3 5 2 3 2 3 2 3 2 1 4 3 3 1 1 2 1 3 1 1 1 4 3 2 0 2 0 0 1 3 7 3 2 1 2 2 2 2 2 2 1 1 1 1 2 3 1 3 2 3 3 1 0 2 2 0 1 0 3 0 4 5 0 0 1 3 1 2 2 4 0 3 3 1 3 1 3 0 1 2 2 1 1 3 1 3 0 0 0 3 1 2 3 3 4 2 4 2 1 2 0 2 1 2 0 3 1 2 1 0 4 0 1 1 2 1 3 4 0 3 3 3 0 4 1 5 3 0 1 3 1 1 3 1 3 2 0 2 2 1 2 1 2 1 2 6 2 3 2 2 3 2 3 2 1 4 0 2 3 3 3 2 1 2 0 2 0 2 2 2 3 1 3 1 1 2 1 3 2 5 0 0 2 1 2 3 3 2 2 3 0 0 1 2 0 0 2 1 3 2 2 1 0 4 2 1 3 1 4 0 2 1 2 4 0 1 0 1 2 2 1 2 3 1 2 2 2 1 3 0 4 2 2 2 0 3 0 3 2 3 2 1 2 0 3 1 2 1 1 3 0 2 2 1 3 1 0 3 2 1 7 4 2 3 1 2 0 1 3 3 1 0 0 1 1 1 0 2 2 2 3 3 0 3 1 5 2 3 0 0 5 0 1 4 3 0 4 2 2 2 4 2 2 0 2 0 4 2 1 0 3 1 2 3 2 3 1 3 0 1 4 2 3 1 2 3 2 4 1 2 2 1 5 3 1 1 0 2 2 3 3 1 2 2 0 2 3 1 2 2 2 1 0 1 4 0 2 1 2 3 1 2 2 4 0 3 1 1 1 4 1 3 3 5 1 1 4 0 3 2 3 4 5 1 3 0 3 3 1 3 2 1 3 3 3 1 2 0 3 1 2 1 2 1 2 0 2 2 2 2 2 0 4 3 2 1 1 2 7 0 3 1 2 2 2 1 3 1 4 2 3 1 3 3 2 2 2 3 0 2 4 0 6 0 6 3 1 1 2 1 0 2 1 2 2 3 3 2 2 2 1 2 4 2 1 2 2 0 2 0 3 5 2 2 3 4 1 2 1 4 2 1 1 2 3 0 1 2 0 0 2 1 0 2 0 1 1 1 1 1 2 0 3 1 3 3 3 0 1 1 3 1 1 2 1 0 1 0 1 2 2 2 3 1 1 1 3 0 1 0 2 2 3 0 1 1 0 1 1 0 1 1 2 1 1 1 0 3 1 0 2 1 0 0 1 3 2 2 1 2 1 1 1 2 4 0 2 1 4 2 1 0 0 3 0 0 1 2 3 2 2 3 5 3 1 1 2 1 2 0 2 2 0 0 1 2 1 3 1 3 1 1 1 4 1 1 2 2 1 1 7 1 1 5 4 2 2 2 1 2 4 2 1 4 1 3 1 1 4 3 3 2 3 1 1 1 1 3 5 3 1 0 3 1 0 0 1 0 0 2 2 1 1 2 1 4 0 2 1 0 0 2 1 2 1 5 2 2 2 1 3 1 1 1 4 4 0 0 2 0 3 2 1 0 0 3 3 4 2 0 0 3 1 2 0 1 1 1 3 1 1 2 2 2 3 2 1 1 5 1 2 2 1 2 0 1 2 2 1 2 3 1 1 1 1 3 2 3 2 2 1 1 1 2 2 1 0 
BTB PER SET COUNT: 1 2 2 2 0 0 2 1 4 0 2 0 2 1 0 1 2 2 1 2 0 1 1 2 1 2 1 3 1458 1 5 2 2 1 3 0 0 3 5 0 1 2 7 4 1 1 2 1 6 2 1 1 2 0 0 2 5 3 1 1 1 2 2 3 0 390 4 0 2 2 718 1 1 2 1 1 509 730 3 1 1 1 2 4 3 1 1 7 3 2 6 447 2 3 4 0 1 6 0 1 3 2 3 3 2 3 1 1 3 0 2 2 3 2 1 6 1 2 1 0 4 3 2 0 1 1 1 1 3 3 510 0 1 1 2 1 0 0 1 2 2 5 4 0 2 4 3 3 3 2 1 1569 1 2 11 1 0 3 2 1 0 0 0 1 9 5 0 1 2383 2 2 2 2 1 1 0 1 1 953 1 1 4 6342 2 3 2 4 1 1 1 6 1 1 2 1 7 2 1 0 1 2 1 1 0 0 0 1 1 1 0 0 5 2 1 2 1 0 2 1 0 0 1 1 3 2 0 2 27 0 3 2300 4 1 2 1 3 3 1 1 2 2 0 2 2 1530 4 1 1 3 1 1 1 1 1 0 6 2 2 3 2 3 3 3 2 2 4 3 0 2 1 2 2 1 2 3 3 2 0 3 2 2 2 1 1 2 1017 2 1 1 1 0 0 1 4 0 1 3 2 0 1 2 2 1 1 2 2 5 2 3 3 2 1 2 3 4 0 2 2 1 3 1 2 2 3 0 3 1 8 0 0 1017 0 2 3 954 1 1017 3 4 0 3 0 0 1015 1016 3 1 2 1 7 1 4 3 3 2 2 1 0 3 0 0 2 1 2 4 2 1 0 0 0 3 1 2 0 1 2 2 2 2 4 0 0 1 5 0 0 2 1 2 2 1 2 2 2 2 0 3 0 0 2 3 1 5 1 1 0 1459 3 0 951 0 1 2 2 1 0 5 1 1 94 1 1 3 2 2 4 0 0 1 3 1 0 9 2 3 3 2 1 2 0 0 4 3 4 2 1 2 3 1 2 3 0 0 1 3 0 1 4 2 2 3 0 3 2 0 0 2 0 1 3 0 1 1 507 3 1 0 1 1 0 0 1 1 508 0 2 2 0 3 1 3 1 2 2 0 3 1 1 3 0 3 0 0 1 0 4 1 0 0 2 3 2 4 4 6 0 1 3 1 513 1 1 3 1 3 3 1 4 3 2 6 1 2 3 1 512 0 0 5 0 0 4 3 1 13 1 11 4 4 4 2 3 4 3 0 1 1 0 2 2 6277 0 1 2 1 0 0 1 3 4 3 0 1 4 1 0 0 2 0 0 1 1 1 0 1 0 0 6 2 2 3 5 0 2 951 2 3 0 2 2 1 0 1 3 1 1 1 1 5 0 3 2 3 1 2 1 892 0 2 1 4 1 6 0 2 2 2 2 1 0 510 1 0 6 3 4 0 1 1 2 7 1 3 3 0 0 3 1 2 2 2 1 3 1 1 0 6 0 1 3 7931 3 3 3 2 1 1 1015 0 0 6 2 1 0 4 1016 0 1 5 2 1 0 2 1016 2 1 1 1459 2 1 0 1017 1 1 1 3 5 3 3 4 0 2 0 2 1 1015 0 1 0 0 1 2 0 1 1016 0 1458 1 0 3 1 0 1 1 0 1 1 1 0 3 3 2 951 0 1 1 11 2 1 0 1 3 1 2 1 0 3 1 3 1016 0 0 1 3 0 1 2 3 1 2 1 1 0 2 0 1 3 1 0 0 2 2 0 0 1 2 3 3 1 1 2 1 0 0 3 3 3 4 0 0 2 26 0 0 2 3 4 1 1 0 2 2 1 2 1 1 2 4 0 4 0 2 1 0 2 2 2 0 0 3 4 0 1 0 3 1 1 1 1 115 1 1 2 1 3 0 1 0 3 2 0 1 0 2 0 1 3 2 3 0 2 1 5 1 3 2 0 0 1 0 0 0 0 1 4 1 1 0 2 0 1 1 1 3 1 0 3 3 3 1 2 1 2 0 0 0 1 3 0 0 4 0 1 3 1 1 4 0 1 1 1 0 0 1 1 4 0 1 0 6 3 3 0 0 2 2 0 1 2 2 5 1 3 1 2 0 3 0 2 1 3 2 4 444 3 1 48 2 0 2 1 1 0 954 4 2 1 2 1 2 2 0 4 1 1 1 9 4 2 2 2 508 2 2 2 5 1151 2 2 2 1 1 0 387 3 1 3 5 1 2 4 2 1 5 1 4 1 3 4 1 3 1 1 2 2 1 2 2 1 7 0 2 3 1 2 3 3 2 0 3 2033 0 2412 0 2 2 3 4 1 4 3 4 3069 4 0 2 3 1 1 1 4 4 2 1 3 0 0 1 1 0 2 0 1 3 0 2 5 3 3 3 0 1 3 2 1 391 2 2 2 3 0 1 2 0 4 0 1 2 3 3 1 4 3 2 0 1 7738 0 1 1 1 1 2 6 1 9 2 3 2 5 2 5 2 3 1 0 5 1 1 2 1 22 1 0 3 1 1 1 510 1 1 2 3 4 2 2 2 2 1 5 4 2 1 1 2 1 3 2 1 4 2 3 2 1 2 5 0 1 3 1 0 2 1 0 1 4 3 3 1 2 1 3 2 0 1 1 3 3 1 0 2 0 0 3 2 1 2 2 1 4 0 1 6 0 4 8 1 2 2 5 2 4 0 2541 4 0 2 1 2 0 0 1 511 0 1 1 3 114 1 0 0 509 3 2 1 1 0 0 1 4 1 5 2 2 0 2 0 1 2 6 971 1 7 0 0 1 1 3 4 0 2 1017 2 1 1 1 0 5 1 3 0 1 1 2545 3 1 2 2 0 2 4 1917 4 5 2 2 0 0 4 3 4 1 2 2 0 1 3 2 3 1 1 1 1 2 3362 3 4 0 0 2 1 1 3 2 3 0 0 1 2 1460 1 0 3 1 1 1 1 1 16 0 1 1 0 4 3 0 2 1 3 2 1 1 2 1 2 2 0 3 2 0 0 3 1 1 2 2 1 1 0 2 1 1 1 2 0 3 3 2 1 3 0 0 3 0 2 2 0 2 1 1 3 2 2 0 3 0 1 1 2 2 4 1 1 1 1 4 1 3 2 1 3 0 1 1 1 4 2 2 1 2 1 3 0 1 4 2 3 1 5 2 1 1 1 2 3 1 1 1 4 0 21 2 2 4 1 0 3 121 2 1 2 3 0 3 2 1 2 2 2 4 0 6 1 4 4 1 6 3 0 2 1459 0 1 1338 1 1 1 0 0 3 0 0 1 1337 0 4 1 3 5 1 1 0 1 1 1 0 1 0 0 3 1 0 2 1 0 1 1 0 0 0 1 0 0 1 0 0 1 0 2 0 2 2 1 0 1 0 0 6 26 0 1 1 3 3 1 0 2 4 89 0 4 0 1 1 1 1 1 0 2 0 3 391 0 1 5 0 0 1 0 2 1 2 3 1 18 3 3 2 0 1 1 0 0 0 5 0 1 1 0 0 0 1 0 1 1 0 1 426 3 1 2 1 2 2 1 1 1 0 1 1 2 0 0 1 2 1 8 1 0 1 1 7 3 0 0 1 2 1 0 0 3 1 3 0 2 1 3 2 1 3 4 3 2031 0 1 1 3 2 1 20 4 3 2 4 1463 0 0 2 1459 1 1 1 2 1 3 0 2 951 0 1 4 0 1 1 3 1 2 3 3 3046 0 1 4 0 4 5 2 2 2 2 3 3 1 1 1 256 2 2 1 4 2 1 6 1 1 3 3 1 1 1 2 0 2 1 2 3 0 0 1 1 0 4 3 1 0 2 2 0 1 2 2 1 1016 2 1 0 0 3 2 1017 0 0 0 3 509 0 2 1 3 2 2 1 625 1 2 5268 4 2 14583 1017 0 3 2 2 1 1 1 0 0 2 3 1 2 0 0 3 3 1 156 2 0 0 1 1459 130 2 2 1 2 2 2 754 0 2 0 1 2 1 0 0 1 626 0 1 2 0 3 0 3 1 1 0 2 1 1 3 0 3 0 2 0 1 1 1 5 0 2 524 0 1 2 2 0 1 0 0 951 1 1 1 2 2 3 0 3 0 0 1 3 1458 1 2999 1 0 2 3 3 2 3 2 1841 1 426 3 0 2 1 3 187 6 119 0 2 1 1967 0 198 0 3 1459 2 2 1 1 1 0 1 2 0 2 0 1 3 5 2 1 4 414 2 5 954 0 2 0 4 1 3 2 2 2 2 1 0 2 197 2 0 0 1 2 0 0 0 1 0 1 1 3 0 2 3 2 3 8 2 1 2 2 2 1 1 2 2 1 0 2 2 1 2 0 0 1 0 0 0 0 0 1 1 1 2 1 1 2 0 0 0 1 1 1 1 1 4 1 2 2 104 0 2 3 1 3 1 3 1 2 1 0 1 0 3 1 0 1 2 1 3 2 2 2 0 3 0 1 0 0 2 3 0 4 1460 4 0 2 2 1972 1 0 0 1 6 3 3 1 3 1 3 1 0 1 2 4 5 3046 2 0 5 0 1 1 1 1 2 1 0 2 0 1 2 3 2 0 0 3 4 1 0 0 2 3 1 0 3 3 1 0 3 3 0 1 2 4 0 0 0 2 1 0 4 0 1 0 3 2 3 0 2 1 206 1 3 1 0 2 1473 3 3 0 2 2 1 1 1 1 2 1 1 0 0 0 4 2 1 2 1 1 3 1460 3 3 2 1 3 3 0 2 2 1 6 4 2 3 3 2 2916 3 1 2 4 2 1 5 4763 3 2 3 2 2 2 1 1 1 0 1 1 0 4 2 0 2 0 1 1 0 1 5 1 3 0 0 0 2 1 2 1 1 0 3 1 1 0 0 0 3 1 2 0 1 3 1 1 2 0 0 3 1 2 2 1 2 1 0 1 0 0 1 0 2 1 0 0 4 1 3 1 3 3 1 2 2 0 0 0 1 2 1 6 4 3 2 3 3 5 3 2 2 2 1 3 1 1 2 1 9 1 2 2 3 2 3 2 3 3 0 4 1 2 3 6 957 8 4 3 1903 2 1 4 1 1 1 3 2 0 5 3 4 3 0 2 1 1 2 5 6 1 1 1 4 1 2 2 2 3 3 3 2 3 5 2 3 3 2 5 3 1 1461 2 1 3 3 3 3 2 1 3 3 3 0 1 2 1 1 1 2 8 1 0 1 3 1 2 3 3 1 3 2 1 1 0 0 4 2 6 9 0 2 1 3 3 1 0 3 2 3 1 3 2 2 3 1 2 0 1458 4 0 2 2 1 1 0 2 1 2 0 0 1 0 1 3 1 8 1 5 2 1 2 0 0 0 3 0 3 5 0 4 1 3 1 1 1 1 1 2 0 1 0 5 4 4 0 1 0 2 7 7 6 1 2 3 956 1 2 2 0 1 4 1 2 5 0 0 3 2 2 2 2 2 0 1 0 1 4 3 0 0 4 6 2 3 6 4 1 3 1 1 0 3 1 3 4 1 2 6 4 0 2 3 2 0 1 1 4 5 2 2 2 1 1 27 3 1 3 5 2 5 1 4 0 5 4 2 0 1 1 1460 0 1 3 1 1 1 1 1 5 2 0 1 0 1 3 5 3 951 3 124 2 0 1 0 0 1 3 3 2 5 0 1 4 122 2 7 1 2 2 1 2 3 0 3 0 2 1 4 14 1 1 2 1 1 3 1 3 3 1 0 1 517 1 0 3 1 4 2 4 4 3 4 0 0 3 30 2 1 0 5 4 1 1 2 0 1 0 0 2 1 0 3 0 2 1 2 2 1 5 2 2 0 1 2 3 1 1 1 0 1 2 2 1 0 0 1 4 0 1 1 2 4 1 4 1461 1 2 3 3 0 4 3 2 1 2 2 7 2 1 3 1 1 1 2 1 4 5 1 1 2 0 3 2016 2 5 1 4 2 2 5 1 2 2 1 3 4 2 1 1 4 2 0 3 0 3 2 4 1 2 3 2 1 25 4 47 1 0 0 0 0 2517 3 1 3 7 3 0 2 5 3 2 2 0 10 2 6 4 2 3 4 3 0 2 3 1 0 2 0 2 0 0 1 0 1 510 3 2 0 2 1 3 1 3 2 1460 3 1 3 1 3 4 2 1 4 0 1 1 1 0 2 3 1 4 3 1 2 1 2 0 1 3 1 0 3 0 2 1 5 5 2921 2 3 3 1 3 5 4 1 6 3 2 0 1 5 3 3 0 3 2 4 2 2 2 1 3 1 2 2 0 3 1 4 34 0 4 0 1 2 3 5 0 4 2 2 2 5 1 0 1 24 1 0 1 1 0 0 0 1 4 0 3 2 1 3 4 1 2 2 5 2 2 2 2 1 1 1 2 1 2 509 1 2 0 1 2 0 3 2 1 1 3 3 1 2 2 1 4 4 3 17 2 3 2 3 4 0 116 2 2 2 1 6 3 2 6 0 3 16 3 0 1 0 3 2 1 1 1 2 6 4 1 4 3 5 1 3 2 2034 6 3 1 1 0 1 2 4 0 3 3 0 2 0 1 2 2 3 2 0 2 2 3 3 0 2 0 1 1 2 3 1 3 2 1 2 1 3 1463 2 5 4 3 3 1 4 3 3 4 2 2 3 3 3 4 2 4819 2 0 6 952 4 4 3 4 0 3 2 4 3 0 0 1 2 3 1 9 3 6 65 4 1 1 3 8 3 3 2 2 1 0 2 4 1 0 4 2 1 56 4 3 4 4 3 1 2 1 1 3 0 5 0 3 7 0 2 4 3 2 5 1 0 2 4 40 2 511 6 1189 4 3 2029 4 3 13 5 1 1 1 2 4 4 259 4 3 718 1 1 6 1 3 2 4 2 1 1 2 2 3 0 2 1 3 4 1 2 3 0 5 4 0 954 1 0 1 4 3 509 2 1 0 1 2 2 2 2 5 2 2032 3 4 2 3 2 1 4 2 3 1 0 2 1 1 3 2 3 4 1 389 1020 0 2 0 1 2 2 1 3 1 3 1 1 1 1 2 1 3 4 1 0 2 3 1 2 3 2 2 3 1 3 2 1 4 1 3 1 2 0 2 1460 1 0 0 1 1 3 0 0 1 2 1 2 1 0 3 0 4 2 1 2 0 3 1 1 3 0 1 4 81 3 2 0 2 2 2 1 1 1 0 0 1 1 0 4 2 2 2 3 1 3 3 27 1 1 3 4 1 3 4 2 2 4 0 4 1 3 2 2 1 3 2 3 4 2 2 4 4 2 2 2 1 1 2 0 4 1 1 1 1 2 2 1 1 511 0 1 2 2 3 4 0 8 1 2 2 1 1 3 2 1 3 1 2 1 2 2 2 2 3 1 2 2 3 0 4 3 1 3 2 2 3 954 0 7 2 1 1 1 5 2 0 1 0 3 1 3 0 1 2 2 1 3 4 1 1 1 1 2 5 0 3 3 2 0 3 2 0 3 0 1 3 3 1 1 1 1 0 3 0 0 1 4 1 2 1 1 3 3 1 2 0 2 1 3 4 4807 2 1 1460 3 3 1 1 0 2 2 3 0 0 3 3 1 2 2 2 0 4 1 1 1 595 1 4 3 4 0 3 3 1 1 1 3 1 4 1289 952 3 0 2 3 6 1 4 1 2539 7 1 1 1 1 2 4 2 1 2 2 3 8 2 3 2 512 2 3 8 1 91 3 4 1 1 2 1 3 1 1 1 4 3 2 0 2 0 0 1 3 3048 3 2 1 2 2 2 2 2 2 1 1 1 1 2 4 1 4 2 5 3 1 0 2 2 0 1 0 4 0 4 8 0 0 1 3 951 2 3 8 0 3 44 1 3 1 3 0 1 3 2 1 1 3 3 3 0 0 0 3 1 2 3 3 4 2 14 2 1 2 0 2 1 2 0 4 1 3 1 0 4 0 1 1 2 1 4 5 0 3 3 3 0 9 1 450 4 0 1 4 1 1 3 1 3 2 0 3 3 2 2 1 2 1 2 2540 2 3 5 2 3 2 3 2 1 8 0 3 8 4 954 2 1 2 0 4 0 2 2 2 3 1 3 1015 1 14 2 3 2 1525 0 0 2 1 2 4 6 2 2 20414 0 0 1 2 0 0 2 1 3 273 2 1 0 33 2 1 3 1 4 0 2 1 2 4 0 9 0 1 2 2 1 2 3 1 3 2 3 1 3 0 4 2 2 7 0 8 0 3 2 3 2 1 2 0 3 1 2 1 1 5 0 2 2 1 3 1 0 3 2 1 2269 4 2 5 1 2 0 1 4 953 1 0 0 1 1 1 0 2 2 2 7 4 0 3 1 6 2 4 0 0 15 0 1 18 3 0 5 2 2 2 4 2 2 0 2 0 6 4 1 0 3 1 2 4 2 3 1 7 0 1 4 2 5 1 4 3 2 4 1 2 2 1 25 3 1 387 0 1459 2 4 133 1 2 2 0 2 3 1 2 2 2 2 0 1 6 0 2 1 2 4 1 509 2 4 0 3 2 1 1 4 1 511 4 2033 1 1 4 0 3 2 4 4 7 1 4 0 4 3 1 510 2 1 3 3 3 1 3 0 4 1 390 1458 2 1 2 0 2 2 2 2 2 0 4 3 2 1 1 2 3049 0 1461 1 2 2 2 1 3 1 4 2 3 1 3 7 3 2 2 3 0 2 4 0 4248 0 1309 4 1 1 2 1 0 2 1 3 2 3 3 2 2 3 2 2 4 2 1 2 2 0 2 0 3 2031 952 2 4 4 1 2 1 4 2 1 1 2 3 0 1 2 0 0 2 1 0 2 0 1 1 1 1 1 2 0 3 1 3 3 4 0 1 2 3 1 1 3 1 0 1 0 1 2 2 2 3 1 3 1 446 0 1 0 2 2 3 0 1 1 0 1 1 0 1 1 3 1 1 1 0 31 1 0 2 1 0 0 1 3 2 2 1 2 1 2 1 2 4 0 2 1 4 2 1 0 0 4 0 0 1 2 3 2 1016 4 7 4 1 1 2 1 2 0 2 3 0 0 1 2 1 3 3 3 1 1 1 4 1 1 2 2 1 1 3092 1 1 1194 4 2 2 3 2 2 4 2 1 4 2 3 1 2 5 3 1018 2 3 1 1 1 1 4 198 3 2 0 3 2 0 0 2 0 0 3 2 1 1 2 1 4 0 2 1 0 0 3 1 2 1 1402 2 4 3 1 510 1 1 1 4 5 0 0 2 0 4 2 1 0 0 3 3 4 2 0 0 4 1 2 0 1 1 1 4 1 1 2 2 2 4 2 1 1 27 1 2 2 1 2 0 1 2 2 1 2 3 1 2 1 1 3 2 5 2 2 1 2 1 10 2 1 0 
