
*** ChampSim Multicore Out-of-Order Simulator ***

Warmup Instructions: 50000000
Simulation Instructions: 50000000
Number of CPUs: 1
LLC sets: 2048
LLC ways: 16
Off-chip DRAM Size: 4096 MB Channels: 1 Width: 64-bit Data Rate: 6400 MT/s
CPU 0 runs ./micro_traces/srv696.trace.gz
.gz
ITLB has LRU replacement policy
DTLB has LRU replacement policy
STLB has LRU replacement policy
FDIP Prefetcher at L1I
L1I has LRU replacement policy
L1D has LRU replacement policy
Initialize SRRIP state for L2C
Initialize DRRIP state for LLC
Heartbeat CPU 0 instructions: 10000001 cycles: 2797373 heartbeat IPC: 3.57478 cumulative IPC: 3.57478 (Simulation time: 0 hr 1 min 39 sec) 
Heartbeat CPU 0 instructions: 20000000 cycles: 5594850 heartbeat IPC: 3.57465 cumulative IPC: 3.57472 (Simulation time: 0 hr 3 min 13 sec) 
Heartbeat CPU 0 instructions: 30000002 cycles: 8392049 heartbeat IPC: 3.57501 cumulative IPC: 3.57481 (Simulation time: 0 hr 4 min 49 sec) 
Heartbeat CPU 0 instructions: 40000003 cycles: 11189823 heartbeat IPC: 3.57427 cumulative IPC: 3.57468 (Simulation time: 0 hr 6 min 26 sec) 
Heartbeat CPU 0 instructions: 50000003 cycles: 13984991 heartbeat IPC: 3.5776 cumulative IPC: 3.57526 (Simulation time: 0 hr 8 min 1 sec) 

Warmup complete CPU 0 instructions: 50000003 cycles: 13984991 (Simulation time: 0 hr 8 min 1 sec) 

Cycle: 20000000 FTQ IN: 56246745 FTQ occupancy: 17.6941 DECODE IN: 56246711 DECODE occupancy: 45.1686 ROB IN: 56246703 ROB occupancy: 271.783 ROB OUT: 56246485
Heartbeat CPU 0 instructions: 60000002 cycles: 23589321 heartbeat IPC: 1.0412 cumulative IPC: 1.0412 (Simulation time: 0 hr 9 min 18 sec) 
Cycle: 30000000 FTQ IN: 10470527 FTQ occupancy: 5.05359 DECODE IN: 10470561 DECODE occupancy: 9.94968 ROB IN: 10470569 ROB occupancy: 89.9188 ROB OUT: 10470685
Heartbeat CPU 0 instructions: 70000000 cycles: 33113157 heartbeat IPC: 1.05 cumulative IPC: 1.04558 (Simulation time: 0 hr 10 min 34 sec) 
Cycle: 40000000 FTQ IN: 10439633 FTQ occupancy: 5.2662 DECODE IN: 10439627 DECODE occupancy: 10.3684 ROB IN: 10439627 ROB occupancy: 91.9999 ROB OUT: 10439724
Heartbeat CPU 0 instructions: 80000001 cycles: 42697448 heartbeat IPC: 1.04337 cumulative IPC: 1.04484 (Simulation time: 0 hr 11 min 50 sec) 
Cycle: 50000000 FTQ IN: 10536062 FTQ occupancy: 5.13404 DECODE IN: 10536040 DECODE occupancy: 10.1643 ROB IN: 10536008 ROB occupancy: 90.9939 ROB OUT: 10535708
Heartbeat CPU 0 instructions: 90000001 cycles: 52213100 heartbeat IPC: 1.0509 cumulative IPC: 1.04635 (Simulation time: 0 hr 13 min 7 sec) 
Cycle: 60000000 FTQ IN: 10403492 FTQ occupancy: 5.34114 DECODE IN: 10403508 DECODE occupancy: 10.5497 ROB IN: 10403531 ROB occupancy: 92.5614 ROB OUT: 10403544
Heartbeat CPU 0 instructions: 100000001 cycles: 61813283 heartbeat IPC: 1.04165 cumulative IPC: 1.04541 (Simulation time: 0 hr 14 min 22 sec) 
Finished CPU 0 instructions: 50000002 cycles: 47828293 cumulative IPC: 1.04541 (Simulation time: 0 hr 14 min 22 sec) 

ChampSim completed all CPUs

Region of Interest Statistics

CPU 0 cumulative IPC: 1.04541 instructions: 50000002 cycles: 47828293
 Fetch stage stalled: 74.2915  Sim cycles: 47828293 fetch stall cycle: 35532336
 Empty decode stage: 80.8907  Sim cycles: 47828293 fetch stall cycle: 38688643
ITLB TOTAL     ACCESS:    6038641  HIT:    5543817  MISS:     494824  HIT %:    91.8057  MISS %:    8.19429   MPKI: 9.89648
ITLB LOAD TRANSLATION INSTRUCTION	ACCESS:    5956529  HIT:    5461705  MISS:     494824  HIT %:    91.6927  MISS %:    8.30725  MPKI: 9.89648
ITLB TRANSLATION FROM L1D PREFETCHER INSTRUCTION	ACCESS:      82112  HIT:      82112  MISS:          0  HIT %:        100  MISS %:          0  MPKI: 0

ITLB AVERAGE MISS LATENCY: 9.05418 cycles
ITLB RQ	ACCESS:    7661048	FORWARD:          0	MERGED:    1352651	TO_CACHE:    6308397

DTLB TOTAL     ACCESS:    9633237  HIT:    9158734  MISS:     474503  HIT %:    95.0743  MISS %:    4.92569   MPKI: 9.49006
DTLB LOAD TRANSLATION DATA	ACCESS:    9633237  HIT:    9158734  MISS:     474503  HIT %:    95.0743  MISS %:    4.92569  MPKI: 9.49006

DTLB AVERAGE MISS LATENCY: 9.317 cycles
DTLB RQ	ACCESS:   13870327	FORWARD:          0	MERGED:    4205463	TO_CACHE:    9664864

STLB TOTAL     ACCESS:    1218868  HIT:    1216816  MISS:       2052  HIT %:    99.8316  MISS %:   0.168353   MPKI: 0.04104
STLB LOAD TRANSLATION INSTRUCTION	ACCESS:     494824  HIT:     494576  MISS:        248  HIT %:    99.9499  MISS %:  0.0501188  MPKI: 0.00496
STLB LOAD TRANSLATION DATA	ACCESS:     474320  HIT:     472544  MISS:       1776  HIT %:    99.6256  MISS %:   0.374431  MPKI: 0.03552
STLB TRANSLATION FROM L1D PREFETCHER DATA	ACCESS:     249724  HIT:     249696  MISS:         28  HIT %:    99.9888  MISS %:  0.0112124  MPKI: 0.00056

STLB AVERAGE MISS LATENCY: 73.2958 cycles
STLB RQ	ACCESS:    1341377	FORWARD:          0	MERGED:     122459	TO_CACHE:    1218918

STLB Hit, L1D data hit: 0
STLB Hit, L2C data hit: 0
STLB Hit, LLC data hit: 0
STLB Hit, LLC data miss: 0
STLB STLB hints to L2: 0
L1D TOTAL     ACCESS:   13631369  HIT:   12511470  MISS:    1119899  HIT %:    91.7844  MISS %:     8.2156   MPKI: 22.398
L1D LOAD DATA	ACCESS:    7046306  HIT:    6309787  MISS:     736519  HIT %:    89.5474  MISS %:    10.4526  MPKI: 14.7304
L1D RFO DATA	ACCESS:    6254213  HIT:    5966473  MISS:     287740  HIT %:    95.3993  MISS %:    4.60074  MPKI: 5.7548
L1D PREFETCH DATA	ACCESS:     330850  HIT:     235210  MISS:      95640  HIT %:    71.0926  MISS %:    28.9074  MPKI: 1.9128

L1D PREFETCH  REQUESTED:     744335  ISSUED:     744335  USEFUL:      35408  USELESS:      68691
L1D USEFUL LOAD PREFETCHES:      35408 PREFETCH ISSUED TO LOWER LEVEL:     104124  ACCURACY: 34.0056
 TIMELY PREFETCHES:      35408 LATE PREFETCHES: 8437 DROPPED PREFETCHES: 18
L1D AVERAGE MISS LATENCY: 289635 cycles
L1D RQ	ACCESS:   11072756	FORWARD:          0	MERGED:    3823237	TO_CACHE:    7081938
L1D WQ	ACCESS:    6949900	FORWARD:     167816	MERGED:     161511	TO_CACHE:    6788389
L1D PQ	ACCESS:     372285	FORWARD:          0	MERGED:          0	TO_CACHE:     372050

L1D UNIQUE REGIONS ACCESSED: 0
L1D REGIONS CONFLICTS: 0
L1D Cross Page Prefetch Requests: 7035
L1D Same Page Prefetch Requests: 745165
L1D ROI Sum of L1D PQ occupancy: 4728078
L1D PREFETCHES PUSHED FROM L2C: 0
L1I TOTAL     ACCESS:    7132406  HIT:    4367277  MISS:    2765129  HIT %:    61.2315  MISS %:    38.7685   MPKI: 55.3026
L1I LOAD INSTRUCTION	ACCESS:    6776979  HIT:    4011850  MISS:    2765129  HIT %:    59.1982  MISS %:    40.8018  MPKI: 55.3026
L1I PREFETCH INSTRUCTION	ACCESS:     355427  HIT:     355427  MISS:          0  HIT %:        100  MISS %:          0  MPKI: 0

L1I PREFETCH  REQUESTED:     889521  ISSUED:     889521  USEFUL:          0  USELESS:          0
L1I USEFUL LOAD PREFETCHES:          0 PREFETCH ISSUED TO LOWER LEVEL:          0  ACCURACY: -nan
 TIMELY PREFETCHES:          0 LATE PREFETCHES: 0 DROPPED PREFETCHES: 0
L1I AVERAGE MISS LATENCY: 16.668 cycles
L1I RQ	ACCESS:    9420661	FORWARD:          0	MERGED:    2390812	TO_CACHE:    7029849
L1I PQ	ACCESS:     889521	FORWARD:          0	MERGED:     258322	TO_CACHE:     631199

L1BTB TOTAL     ACCESS:    5669012  HIT:    2041762  MISS:    3627250  HIT %:    36.0162  MISS %:    63.9838   MPKI: 72.545
L1BTB BRANCH_DIRECT_JUMP	ACCESS:     546686 HIT:     144130 MISS:     402556 AVERAGE STALL: 31.3841 AVERAGE FETCH STALL: 19.4304 AVERAGE FETCH QUEUE STALL: 5.04211 AVERAGE DECODE STALL: 6.04187 AVERAGE EXECUTE STALL: 1.10805e+15
L1BTB BRANCH_INDIRECT	ACCESS:     182830 HIT:      65907 MISS:     116923 AVERAGE STALL: 56.4417 AVERAGE FETCH STALL: 11.4997 AVERAGE FETCH QUEUE STALL: 4.05566 AVERAGE DECODE STALL: 5.94688 AVERAGE EXECUTE STALL: 33.9761
L1BTB BRANCH_CONDITIONAL	ACCESS:    2708707 HIT:    1417332 MISS:    1291375 AVERAGE STALL: 34.2426 AVERAGE FETCH STALL: 21.49 AVERAGE FETCH QUEUE STALL: 5.94166 AVERAGE DECODE STALL: 6.03855 AVERAGE EXECUTE STALL: 6.39468e+14
L1BTB BRANCH_DIRECT_CALL	ACCESS:     944188 HIT:     104114 MISS:     840074 AVERAGE STALL: 34.0847 AVERAGE FETCH STALL: 23.029 AVERAGE FETCH QUEUE STALL: 4.84532 AVERAGE DECODE STALL: 5.43631 AVERAGE EXECUTE STALL: 8.87759e+14
L1BTB BRANCH_INDIRECT_CALL	ACCESS:     171217 HIT:      20768 MISS:     150449 AVERAGE STALL: 74.6887 AVERAGE FETCH STALL: 13.5162 AVERAGE FETCH QUEUE STALL: 2.15785 AVERAGE DECODE STALL: 5.41922 AVERAGE EXECUTE STALL: 53.0968
L1BTB BRANCH_RETURN	ACCESS:    1115384 HIT:     289511 MISS:     825873 AVERAGE STALL: 34.228 AVERAGE FETCH STALL: 17.0606 AVERAGE FETCH QUEUE STALL: 2.21921 AVERAGE DECODE STALL: 4.77248 AVERAGE EXECUTE STALL: 3.61212e+14
L1BTB BRANCH_OTHER ACCESS:          0 HIT:          0 MISS:          0 AVERAGE STALL: -nan AVERAGE FETCH STALL: -nan AVERAGE FETCH QUEUE STALL: -nan AVERAGE DECODE STALL: -nan AVERAGE EXECUTE STALL: -nan
L1BTB TOTAL ROB OCCUPANCY AT BTB MISS: 2.09325

L2BTB TOTAL     ACCESS:    3601864  HIT:    3475363  MISS:     126501  HIT %:    96.4879  MISS %:     3.5121   MPKI: 2.53002
L2BTB BRANCH_DIRECT_JUMP	ACCESS:     398404 HIT:     385903 MISS:      12501 AVERAGE STALL: 31.3841 AVERAGE FETCH STALL: 19.4304 AVERAGE FETCH QUEUE STALL: 5.04211 AVERAGE DECODE STALL: 6.04187 AVERAGE EXECUTE STALL: 1.10805e+15
L2BTB BRANCH_INDIRECT	ACCESS:     106639 HIT:     103518 MISS:       3121 AVERAGE STALL: 56.4417 AVERAGE FETCH STALL: 11.4997 AVERAGE FETCH QUEUE STALL: 4.05566 AVERAGE DECODE STALL: 5.94688 AVERAGE EXECUTE STALL: 33.9761
L2BTB BRANCH_CONDITIONAL	ACCESS:    1291375 HIT:    1262119 MISS:      29256 AVERAGE STALL: 34.2426 AVERAGE FETCH STALL: 21.49 AVERAGE FETCH QUEUE STALL: 5.94166 AVERAGE DECODE STALL: 6.03855 AVERAGE EXECUTE STALL: 6.39468e+14
L2BTB BRANCH_DIRECT_CALL	ACCESS:     840074 HIT:     819275 MISS:      20799 AVERAGE STALL: 34.0847 AVERAGE FETCH STALL: 23.029 AVERAGE FETCH QUEUE STALL: 4.84532 AVERAGE DECODE STALL: 5.43631 AVERAGE EXECUTE STALL: 8.87759e+14
L2BTB BRANCH_INDIRECT_CALL	ACCESS:     140902 HIT:     129758 MISS:      11144 AVERAGE STALL: 74.6887 AVERAGE FETCH STALL: 13.5162 AVERAGE FETCH QUEUE STALL: 2.15785 AVERAGE DECODE STALL: 5.41922 AVERAGE EXECUTE STALL: 53.0968
L2BTB BRANCH_RETURN	ACCESS:     824470 HIT:     774790 MISS:      49680 AVERAGE STALL: 34.228 AVERAGE FETCH STALL: 17.0606 AVERAGE FETCH QUEUE STALL: 2.21921 AVERAGE DECODE STALL: 4.77248 AVERAGE EXECUTE STALL: 3.61212e+14
L2BTB BRANCH_OTHER ACCESS:          0 HIT:          0 MISS:          0 AVERAGE STALL: -nan AVERAGE FETCH STALL: -nan AVERAGE FETCH QUEUE STALL: -nan AVERAGE DECODE STALL: -nan AVERAGE EXECUTE STALL: -nan
L2BTB TOTAL ROB OCCUPANCY AT BTB MISS: 60.0211

L2C TOTAL     ACCESS:    4490336  HIT:    4062380  MISS:     427956  HIT %:    90.4694  MISS %:     9.5306   MPKI: 8.55912
L2C LOAD INSTRUCTION	ACCESS:    2765129  HIT:    2541089  MISS:     224040  HIT %:    91.8977  MISS %:    8.10233  MPKI: 4.4808
L2C LOAD TRANSLATION INSTRUCTION	ACCESS:        280  HIT:         71  MISS:        209  HIT %:    25.3571  MISS %:    74.6429  MPKI: 0.00418
L2C LOAD DATA	ACCESS:     728055  HIT:     657731  MISS:      70324  HIT %:    90.3408  MISS %:    9.65916  MPKI: 1.40648
L2C RFO DATA	ACCESS:     287669  HIT:     238486  MISS:      49183  HIT %:    82.9029  MISS %:    17.0971  MPKI: 0.98366
L2C PREFETCH DATA	ACCESS:     184182  HIT:     113779  MISS:      70403  HIT %:    61.7753  MISS %:    38.2247  MPKI: 1.40806
L2C WRITEBACK DATA	ACCESS:     523108  HIT:     510618  MISS:      12490  HIT %:    97.6123  MISS %:    2.38765  MPKI: 0.2498
L2C LOAD TRANSLATION DATA	ACCESS:       1848  HIT:        560  MISS:       1288  HIT %:     30.303  MISS %:     69.697  MPKI: 0.02576
L2C TRANSLATION FROM L1D PREFETCHER DATA	ACCESS:         65  HIT:         46  MISS:         19  HIT %:    70.7692  MISS %:    29.2308  MPKI: 0.00038

L2C PREFETCH  REQUESTED:      87772  ISSUED:      87772  USEFUL:       7995  USELESS:      63106
L2C USEFUL LOAD PREFETCHES:       7995 PREFETCH ISSUED TO LOWER LEVEL:      70927  ACCURACY: 11.2722
 TIMELY PREFETCHES:       7995 LATE PREFETCHES: 524 DROPPED PREFETCHES: 0
L2C AVERAGE MISS LATENCY: 40.206 cycles
L2C RQ	ACCESS:    3783097	FORWARD:          0	MERGED:          0	TO_CACHE:    3783046
L2C WQ	ACCESS:     523108	FORWARD:         51	MERGED:          0	TO_CACHE:     523108
L2C PQ	ACCESS:     191896	FORWARD:          0	MERGED:       3507	TO_CACHE:     188389

L2C Dense regions hint from L2: 0
PSCL5 TOTAL     ACCESS:       4148  HIT:       2074  MISS:       2074  HIT %:         50  MISS %:         50   MPKI: 0.04148
PSCL5 LOAD TRANSLATION INSTRUCTION	ACCESS:       4020  HIT:       2010  MISS:       2010  HIT %:         50  MISS %:         50  MPKI: 0.0402
PSCL5 TRANSLATION FROM L1D PREFETCHER INSTRUCTION	ACCESS:        128  HIT:         64  MISS:         64  HIT %:         50  MISS %:         50  MPKI: 0.00128


PSCL4 TOTAL     ACCESS:       3689  HIT:       1839  MISS:       1850  HIT %:    49.8509  MISS %:    50.1491   MPKI: 0.037
PSCL4 LOAD TRANSLATION INSTRUCTION	ACCESS:       1875  HIT:       1777  MISS:         98  HIT %:    94.7733  MISS %:    5.22667  MPKI: 0.00196
PSCL4 TRANSLATION FROM L1D PREFETCHER INSTRUCTION	ACCESS:         62  HIT:         62  MISS:          0  HIT %:        100  MISS %:          0  MPKI: 0
PSCL4 LOAD TRANSLATION DATA	ACCESS:       1690  HIT:          0  MISS:       1690  HIT %:          0  MISS %:        100  MPKI: 0.0338
PSCL4 TRANSLATION FROM L1D PREFETCHER DATA	ACCESS:         62  HIT:          0  MISS:         62  HIT %:          0  MISS %:        100  MPKI: 0.00124


PSCL3 TOTAL     ACCESS:       3733  HIT:       1861  MISS:       1872  HIT %:    49.8527  MISS %:    50.1473   MPKI: 0.03744
PSCL3 LOAD TRANSLATION INSTRUCTION	ACCESS:       1897  HIT:       1799  MISS:         98  HIT %:    94.8339  MISS %:    5.16605  MPKI: 0.00196
PSCL3 TRANSLATION FROM L1D PREFETCHER INSTRUCTION	ACCESS:         62  HIT:         62  MISS:          0  HIT %:        100  MISS %:          0  MPKI: 0
PSCL3 LOAD TRANSLATION DATA	ACCESS:       1712  HIT:          0  MISS:       1712  HIT %:          0  MISS %:        100  MPKI: 0.03424
PSCL3 TRANSLATION FROM L1D PREFETCHER DATA	ACCESS:         62  HIT:          0  MISS:         62  HIT %:          0  MISS %:        100  MPKI: 0.00124


PSCL2 TOTAL     ACCESS:       4047  HIT:       1974  MISS:       2073  HIT %:    48.7769  MISS %:    51.2231   MPKI: 0.04146
PSCL2 LOAD TRANSLATION INSTRUCTION	ACCESS:       2156  HIT:       1911  MISS:        245  HIT %:    88.6364  MISS %:    11.3636  MPKI: 0.0049
PSCL2 TRANSLATION FROM L1D PREFETCHER INSTRUCTION	ACCESS:         63  HIT:         63  MISS:          0  HIT %:        100  MISS %:          0  MPKI: 0
PSCL2 LOAD TRANSLATION DATA	ACCESS:       1765  HIT:          0  MISS:       1765  HIT %:          0  MISS %:        100  MPKI: 0.0353
PSCL2 TRANSLATION FROM L1D PREFETCHER DATA	ACCESS:         63  HIT:          0  MISS:         63  HIT %:          0  MISS %:        100  MPKI: 0.00126


LLC TOTAL     ACCESS:     487109  HIT:     457198  MISS:      29911  HIT %:    93.8595  MISS %:    6.14051   MPKI: 0.59822
LLC LOAD INSTRUCTION	ACCESS:     224040  HIT:     223086  MISS:        954  HIT %:    99.5742  MISS %:   0.425817  MPKI: 0.01908
LLC LOAD TRANSLATION INSTRUCTION	ACCESS:        209  HIT:        173  MISS:         36  HIT %:    82.7751  MISS %:    17.2249  MPKI: 0.00072
LLC LOAD DATA	ACCESS:      69809  HIT:      66414  MISS:       3395  HIT %:    95.1367  MISS %:    4.86327  MPKI: 0.0679
LLC RFO DATA	ACCESS:      49169  HIT:      33770  MISS:      15399  HIT %:    68.6815  MISS %:    31.3185  MPKI: 0.30798
LLC PREFETCH DATA	ACCESS:      70927  HIT:      61298  MISS:       9629  HIT %:    86.4241  MISS %:    13.5759  MPKI: 0.19258
LLC WRITEBACK DATA	ACCESS:      71648  HIT:      71227  MISS:        421  HIT %:    99.4124  MISS %:   0.587595  MPKI: 0.00842
LLC LOAD TRANSLATION DATA	ACCESS:       1288  HIT:       1212  MISS:         76  HIT %:    94.0994  MISS %:    5.90062  MPKI: 0.00152
LLC TRANSLATION FROM L1D PREFETCHER DATA	ACCESS:         19  HIT:         18  MISS:          1  HIT %:    94.7368  MISS %:    5.26316  MPKI: 2e-05

LLC AVERAGE MISS LATENCY: 157.291 cycles
LLC RQ	ACCESS:     344539	FORWARD:          0	MERGED:          0	TO_CACHE:     344534
LLC WQ	ACCESS:      71648	FORWARD:          5	MERGED:          0	TO_CACHE:      71648
LLC PQ	ACCESS:      70927	FORWARD:          0	MERGED:          0	TO_CACHE:      70927

LLC Dense regions hint to LLC: 0

RAW hits: 1566754
Loads Generated: 12639510
Loads sent to L1D: 11072756
Stores Generated: 6949896
Stores sent to L1D: 6949900
Major fault: 0 Minor fault: 2551
Allocated PAGES: 2551

stream: 
stream:times selected: 1180125
stream:pref_filled: 122397
stream:pref_useful: 24562
stream:pref_late: 6737
stream:misses: 7975
stream:misses_by_poll: 0

CS: 
CS:times selected: 178173
CS:pref_filled: 59992
CS:pref_useful: 36451
CS:pref_late: 7309
CS:misses: 17041
CS:misses_by_poll: 7

CPLX: 
CPLX:times selected: 1000807
CPLX:pref_filled: 20010
CPLX:pref_useful: 4582
CPLX:pref_late: 3091
CPLX:misses: 94189
CPLX:misses_by_poll: 0

NL_L1: 
NL:times selected: 20985
NL:pref_filled: 772
NL:pref_useful: 405
NL:pref_late: 307
NL:misses: 1790
NL:misses_by_poll: 0

total selections: 2380090
total_filled: 95640
total_useful: 35408
total_late: 18848
total_polluted: 7
total_misses_after_warmup: 772148
conflicts: 5762817

test: 117652

DRAM Statistics
 CHANNEL 0
 RQ ROW_BUFFER_HIT:      11365  ROW_BUFFER_MISS:      18112
 DBUS_CONGESTED:          6
 WQ ROW_BUFFER_HIT:       1476  ROW_BUFFER_MISS:      12434  FULL:          0

 AVG_CONGESTED_CYCLE: 4

CPU 0 Branch Prediction Accuracy: 99.8224% MPKI: 0.3247 Average ROB Occupancy at Mispredict: 99.001
Branch types
NOT_BRANCH: 40859959 81.7199%
BRANCH_DIRECT_JUMP: 546686 1.09337%
BRANCH_INDIRECT: 182830 0.36566%
BRANCH_CONDITIONAL: 6179284 12.3586%
BRANCH_DIRECT_CALL: 944188 1.88838%
BRANCH_INDIRECT_CALL: 171217 0.342434%
BRANCH_RETURN: 1115384 2.23077%
BRANCH_OTHER: 0 0%

DRAM PAGES: 1048576
Allocated PAGES: 2551
Average_ROB_Occupancy: 92.5767
Average_Decode_Occupancy: 10.2842
Average_FTQ_Occupancy: 5.21456
Indirect max targets: 14 Average targets: 1.14915
Branch_type:  BRANCH_DIRECT_JUMP:  Count Percentage: 3.63652 6.64181 3.55445 8.24334 1.87287 6.34168 1.66038 68.0489 
Branch_type:  BRANCH_INDIRECT:  Count Percentage: 6.10941 3.41666 8.1456 9.68486 3.34739 2.81294 3.89059 62.5925 
Branch_type:  BRANCH_CONDITIONAL:  Count Percentage: 25.1231 3.49214 0.870614 4.98018 2.0006 4.0397 2.35348 57.1402 
Branch_type:  BRANCH_DIRECT_CALL:  Count Percentage: 0.90379 1.30861 0.419143 4.0103 2.34684 2.61171 3.39465 85.005 
Branch_type:  BRANCH_INDIRECT_CALL:  Count Percentage: 5.2889 0 7.29899 0 0 1.71739 5.00058 80.6941 
Branch_type:  BRANCH_RETURN:  Count Percentage: 8.32406 1.22665 1.18992 4.45199 3.27473 4.31622 2.89822 74.3182 
Branch_type:  BRANCH_DIRECT_JUMP:  Total Count: 39791 72675 38893 90199 20493 69391 18168 744595 
Branch_type:  BRANCH_INDIRECT:  Total Count: 22314 12479 29751 35373 12226 10274 14210 228613 
Branch_type:  BRANCH_CONDITIONAL:  Total Count: 3103920 431448 107563 615293 247171 499099 290769 7059575 
Branch_type:  BRANCH_DIRECT_CALL:  Total Count: 17095 24752 7928 75854 44390 49400 64209 1607851 
Branch_type:  BRANCH_INDIRECT_CALL:  Total Count: 18142 0 25037 0 0 5891 17153 276797 
Branch_type:  BRANCH_RETURN:  Total Count: 186065 27419 26598 99514 73199 96479 64783 1661211 
Number of unique branch instructions: 9855
Upper 32 bits: 
aaaa
ffff
ffff0000
Unique upper 32 bits: 3
Unique upper 36 bits: 3
Unique upper 40 bits: 5
Unique upper 44 bits: 32
Unique upper 48 bits: 153
Offset_3 4064
Offset_4 244
Offset_5 448
Offset_6 500
Offset_7 578
Offset_8 514
Offset_9 464
Offset_10 375
Offset_11 313
Offset_12 269
Offset_13 203
Offset_14 225
Offset_15 189
Offset_16 219
Offset_17 144
Offset_18 126
Offset_19 235
Offset_20 139
Offset_21 235
Offset_22 389
Offset_23 241
Offset_24 331
Offset_25 88
Offset_47 82
decode_dispatch_called: 20903152 43.7046
Dispatch_width: 0 10556889 50.5038 22.0725
Dispatch_width: 1 628849 3.00839 1.31481
Dispatch_width: 2 835553 3.99726 1.74698
Dispatch_width: 3 592673 2.83533 1.23917
Dispatch_width: 4 1684369 8.05797 3.5217
Dispatch_width: 5 444688 2.12737 0.929759
Dispatch_width: 6 6160131 29.4699 12.8797
Empty_decode_cycles: 26925141 56.2954
ROB_full_cycles: 1672246 3.49635
Starvation_cycles_per_kilo_instr: 399.959
Starvation_cycles_per_kilo_instr_3: 378.669
Starvation_cycles_per_kilo_instr_0: 358.098
Branch_type_1  (3,1)  (4,7)  (5,36)  (6,69)  (7,114)  (8,127)  (9,123)  (10,98)  (11,70)  (12,44)  (13,5)  (14,2)  (15,3)  (16,4)  (18,1)  (19,4)  (20,2)  (21,1)  (22,3)  (23,2)  (24,10)  (25,12) 
Branch_type_2  (3,1)  (5,1)  (8,3)  (9,3)  (12,1)  (13,1)  (14,1)  (16,3)  (17,2)  (20,2)  (21,2)  (23,5)  (24,1)  (47,38) 
Branch_type_3  (3,4062)  (4,237)  (5,407)  (6,415)  (7,433)  (8,323)  (9,255)  (10,150)  (11,128)  (12,51)  (13,4) 
Branch_type_4  (6,4)  (7,8)  (8,26)  (9,51)  (10,60)  (11,59)  (12,95)  (13,88)  (14,99)  (15,89)  (16,98)  (17,64)  (18,57)  (19,114)  (20,72)  (21,124)  (22,207)  (23,136)  (24,193)  (25,72) 
Branch_type_5  (8,2)  (9,1)  (10,3)  (11,5)  (12,3)  (13,14)  (14,16)  (15,11)  (16,20)  (17,11)  (18,16)  (19,12)  (20,10)  (21,13)  (22,42)  (23,26)  (24,36) 
Branch_type_6  (5,4)  (6,12)  (7,23)  (8,33)  (9,31)  (10,64)  (11,51)  (12,75)  (13,91)  (14,107)  (15,86)  (16,94)  (17,67)  (18,52)  (19,105)  (20,53)  (21,95)  (22,137)  (23,72)  (24,91)  (25,4)  (47,44) 
aaaaab1fc620: 2ac9e77e 2aca717c 2aca8eff 2acaf6bc 2acaf9aa 2acaf9f1 2acb1abc 2acb1b7f 2acd4e22 2acdb712 2acf5f9e 2ad0ef44 2ad3f15c 2ad414e6 2ad60e42 2ad8609c 2ad99830 2ada35cc 2ada4676 2ada6612 2adf183e 2adf30e5 2adf5602 2adf785c 2ae11572 2aeb2dcf 2aee101b 2aee1ae1 2aee9456 2b156a8c 2b156b61 2b156bea 2b167f35 2b177656 2b17feec 2b1a3e5a 
aaaaab1fc740: 2aca1fb0 2aca45b3 2aca5aa1 2aca5c69 2aca66f9 2aca9426 2acaeecb 2acf3d2d 2acf3d64 2acf6089 2ad017ea 2ad5e7ef 2ad61064 2ad87373 2ad9bf84 2ad9c093 2ae9b606 2aea9ffa 2aee99f5 2aee9a2c 2aeece4b 
aaaaac68f310: 2ac9ec8c 2ac9fb44 2ac9fbd2 2aca59ab 2acac04c 2acaf6e0 2acaf6ec 2acaf6f9 2acaf700 2acaf708 2acf2d90 2ad3cfbd 2ad3cfc4 2ad3d000 2ad3f35f 2ad4955d 2ad49571 2ad4f3f2 2ad4f400 2ad5f240 2ad5f37c 2ad5f86a 2ad5f86f 2ad5f880 2ad5fc0d 2ad5fc14 2ad5fc21 2ad5fe1b 2ad873bb 2ad873e3 2ad8a6b2 2ad9086e 2ad93096 2ad9bbb2 2ada152c 2ada1554 2ada3332 2ada5522 2adf3130 2adf313c 2adf3a3f 2adf3bd9 2adf5788 2adf7a8d 2ae07f6b 2ae0857a 2ae0857e 2ae08630 2ae08634 2ae08637 2ae08642 2ae0866f 2ae086e4 2ae086ec 2ae08717 2ae0871b 2aee0170 2aee1d38 2aee75f4 2aee7662 2aee85ca 2aee85e4 2aee8eef 2aee9a0a 2af70b84 2af74e8f 2b17d843 
aaaaac690ef0: 2aca598b 2acb111b 2acb175f 2acb1772 2acbfaf4 2acbfb00 2acf374f 2acf6d43 2acfa5c8 2ad3baf1 2ad3d4ac 2ad3d4b8 2ad3f1cf 2ad486b2 2ad5a59b 2ad5fc64 2ad5fcf9 2ad6121c 2ad906e9 2ad907bf 2ad9bada 2ada16ce 2ada1ad5 2ada43df 2ada64c0 2ada72ee 2adeb71a 2adf3bcb 2adf7a38 2adf7c6a 2adf8872 2adf8880 2adf9959 2adf9abe 2ae07f78 2ae08503 2ae08754 2ae12e80 2aea3bea 2aecb509 2aee00b0 2aee2bdd 2aee5467 2aee5601 2aee8f20 2af703fd 2af7048b 2af74e74 2dfba627 
Unique trigger count: 
1 9405
2 494
3 83
4 28
5 9
6 9
7 6
8 1
9 3
10 1
11 1
12 2
13 3
16 2
18 2
19 2
21 1
36 1
49 1
67 1
BTB PER SET UNIQUE ADDR: 9 16 9 7 5 13 12 17 16 6 12 6 19 13 8 12 15 11 12 14 9 16 10 15 12 12 7 11 10 13 18 13 14 9 16 17 16 17 11 11 14 12 7 16 17 9 10 14 21 10 13 7 18 7 11 15 14 12 15 12 13 21 10 15 12 20 10 16 17 12 7 8 10 7 9 20 14 19 13 12 11 12 11 11 12 12 11 12 16 16 19 17 17 11 11 13 19 12 12 11 15 10 17 13 12 13 11 15 14 11 15 7 9 17 12 19 7 13 14 9 13 14 11 7 11 8 9 9 20 14 14 8 13 7 14 12 13 8 13 11 18 10 11 9 13 15 9 16 21 9 12 22 14 17 12 13 11 17 14 16 16 13 21 13 15 11 11 10 19 15 12 9 15 14 9 10 12 11 12 11 9 9 12 12 16 17 12 11 9 18 9 13 12 15 10 14 14 8 16 12 10 12 13 10 18 10 6 15 10 5 8 9 13 10 10 15 6 20 14 16 13 5 12 13 12 11 18 11 6 17 18 18 8 6 11 11 14 12 9 7 9 9 11 12 18 20 10 9 9 11 15 17 13 12 19 17 10 9 19 12 8 10 14 9 15 24 8 7 14 10 11 12 14 17 19 13 9 11 7 17 11 10 15 17 20 13 11 12 20 8 13 10 12 17 13 12 9 15 8 11 12 9 8 11 9 9 11 14 16 13 14 7 13 7 11 7 16 19 13 5 13 14 15 13 9 9 11 13 8 4 12 7 9 14 17 10 12 12 15 8 12 14 7 17 13 10 10 13 15 11 8 14 21 11 13 15 16 10 11 11 12 19 13 10 12 13 11 7 7 11 12 10 16 10 14 8 15 14 13 14 14 13 12 16 14 14 12 8 17 10 14 11 16 10 12 15 11 12 12 13 10 7 9 13 10 9 15 11 13 9 13 11 18 12 8 9 13 14 7 10 12 15 10 15 20 16 6 11 12 16 8 8 21 12 17 17 13 9 16 5 17 14 11 10 15 19 10 16 10 11 17 8 7 9 19 11 12 12 11 11 8 13 17 17 13 10 15 11 17 12 6 12 13 14 9 6 17 11 10 10 12 13 9 13 10 18 13 9 9 6 16 8 11 14 8 15 9 12 14 7 20 9 13 9 11 9 8 9 12 12 20 8 
BTB PER SET COUNT: 9 16 10 7 5 13 13 501 17 1480 12 442 47 13 8 14 15 12 12 1486 9 19 10 498 13 12 9 11 1481 13 1778 374 14 10 17 21 2959 2525 17 11 17 14 10 16 3902 11 10 14 5183 11 13 7 3364 7 11 19 14 12 16 100 14 5928 12 17 12 4007 12 18 4973 52 7 8 1481 7 10 5778 495 62 13 15 11 1003 1002 11 494 14 12 12 16 18 3967 536 18 2899 11 15 45 14 12 11 15 10 23 13 1034 13 11 17 15 767 373 8 1480 21 12 2952 11 13 495 1480 13 27 12 10 492 8 9 9 4928 16 496 8 14 7 16 13 494 8 13 11 35 14 11 9 13 22 1452 17 14633 11 12 7545 14 5302 2957 975 12 52 498 17 17 14 7767 977 501 1993 594 10 7824 497 12 971 14743 1145 9 1839 1485 492 1002 974 12 10 12 12 16 17 13 42 9 42 9 13 177 977 10 1488 1005 1479 197 12 12 13 975 11 1496 725 6 2448 12 5 8 12 15 10 12 629 7 6242 15 17 1003 6 12 13 13 12 710 2035 6 1492 248 4371 8 8 492 11 17 975 9 7 11 506 11 12 1812 5119 10 999 9 12 1005 17 13 12 44 20 10 9 73 13 8 113 14 1482 1486 9491 998 8 15 11 11 12 16 57 68 15 446 12 7 62 13 10 244 37 6013 974 12 12 116 8 187 12 2420 1488 13 17 15 98 8 12 12 519 8 11 12 9 12 15 17 15 14 368 13 7 1002 7 21 6293 13 5 13 16 45 13 10 9 12 15 180 4 976 1481 9 18 1015 13 977 14 15 8 15 16 7 1459 976 10 10 20 16 11 8 18 7739 1991 14 980 18 13 11 51 13 43 13 12 14 14 12 8 7 12 13 12 17 12 15 8 17 14 13 16 16 15 13 172 15 14 13 8 2553 10 163 62 18 11 13 17 1482 13 13 13 11 7 11 14 11 971 2958 11 14 2347 13 12 596 12 998 9 133 15 7 1927 12 526 11 16 6835 18 9 12 12 20 138 999 2779 13 21 269 14 10 16 6 381 17 13 11 20 3582 12 1006 10 492 27 8 10 9 60 11 12 13 492 11 970 371 31 17 1025 10 17 12 53 12 487 14 35 497 118 6 20643 11 11 13 12 13 9 493 10 393 280 401 9 7 18 8 11 14 8 19 11 14 1938 8 8001 376 1219 11 11 11 8 9 1499 12 729 8 
