
*** ChampSim Multicore Out-of-Order Simulator ***

Warmup Instructions: 50000000
Simulation Instructions: 50000000
Number of CPUs: 1
LLC sets: 2048
LLC ways: 16
Off-chip DRAM Size: 4096 MB Channels: 1 Width: 64-bit Data Rate: 6400 MT/s
CPU 0 runs ./micro_traces/srv625.trace.gz
.gz
ITLB has LRU replacement policy
DTLB has LRU replacement policy
STLB has LRU replacement policy
FDIP Prefetcher at L1I
L1I has LRU replacement policy
L1D has LRU replacement policy
Initialize SRRIP state for L2C
Initialize DRRIP state for LLC
Heartbeat_Variant_0 : 1063 0.346029 per_variant_size: 0 1063 0 0 0 0 0 0 0 
Heartbeat_Variant_1 : 948 0.308594 per_variant_size: 0 399 549 0 0 0 0 0 0 
Heartbeat_Variant_2 : 1056 0.34375 per_variant_size: 0 369 307 201 179 0 0 0 0 
Heartbeat_Variant_3 : 0 0 per_variant_size: 0 0 0 0 0 0 0 0 0 
Heartbeat_Variant_0_evicts 0 : 15007 1 : 8925 2 : 8972 3 : 0 
Heartbeat_Variant_1_evicts 0 : 8892 1 : 0 2 : 8092 3 : 0 
Heartbeat_Variant_2_evicts 0 : 8960 1 : 8086 2 : 0 3 : 0 
Heartbeat_Variant_3_evicts 0 : 0 1 : 0 2 : 0 3 : 0 
Heartbeat CPU 0 instructions: 10000002 cycles: 2796491 heartbeat IPC: 3.57591 cumulative IPC: 3.57591 (Simulation time: 0 hr 2 min 13 sec) 
Heartbeat_Variant_0 : 1067 0.347331 per_variant_size: 0 1067 0 0 0 0 0 0 0 
Heartbeat_Variant_1 : 962 0.313151 per_variant_size: 0 439 523 0 0 0 0 0 0 
Heartbeat_Variant_2 : 1040 0.338542 per_variant_size: 0 369 273 205 193 0 0 0 0 
Heartbeat_Variant_3 : 0 0 per_variant_size: 0 0 0 0 0 0 0 0 0 
Heartbeat_Variant_0_evicts 0 : 15831 1 : 9338 2 : 9287 3 : 0 
Heartbeat_Variant_1_evicts 0 : 9300 1 : 0 2 : 8500 3 : 0 
Heartbeat_Variant_2_evicts 0 : 9321 1 : 8448 2 : 0 3 : 0 
Heartbeat_Variant_3_evicts 0 : 0 1 : 0 2 : 0 3 : 0 
Heartbeat CPU 0 instructions: 20000002 cycles: 5592611 heartbeat IPC: 3.57638 cumulative IPC: 3.57615 (Simulation time: 0 hr 4 min 10 sec) 
Heartbeat_Variant_0 : 1053 0.342773 per_variant_size: 0 1053 0 0 0 0 0 0 0 
Heartbeat_Variant_1 : 958 0.311849 per_variant_size: 0 398 560 0 0 0 0 0 0 
Heartbeat_Variant_2 : 1058 0.344401 per_variant_size: 0 384 293 201 180 0 0 0 0 
Heartbeat_Variant_3 : 0 0 per_variant_size: 0 0 0 0 0 0 0 0 0 
Heartbeat_Variant_0_evicts 0 : 16031 1 : 9545 2 : 9255 3 : 0 
Heartbeat_Variant_1_evicts 0 : 9552 1 : 0 2 : 8557 3 : 0 
Heartbeat_Variant_2_evicts 0 : 9262 1 : 8568 2 : 0 3 : 0 
Heartbeat_Variant_3_evicts 0 : 0 1 : 0 2 : 0 3 : 0 
Heartbeat CPU 0 instructions: 30000003 cycles: 8388809 heartbeat IPC: 3.57629 cumulative IPC: 3.57619 (Simulation time: 0 hr 6 min 18 sec) 
Heartbeat_Variant_0 : 1068 0.347656 per_variant_size: 0 1068 0 0 0 0 0 0 0 
Heartbeat_Variant_1 : 961 0.312826 per_variant_size: 0 400 561 0 0 0 0 0 0 
Heartbeat_Variant_2 : 1040 0.338542 per_variant_size: 0 349 304 198 189 0 0 0 0 
Heartbeat_Variant_3 : 0 0 per_variant_size: 0 0 0 0 0 0 0 0 0 
Heartbeat_Variant_0_evicts 0 : 15758 1 : 9443 2 : 9363 3 : 0 
Heartbeat_Variant_1_evicts 0 : 9423 1 : 0 2 : 8648 3 : 0 
Heartbeat_Variant_2_evicts 0 : 9368 1 : 8625 2 : 0 3 : 0 
Heartbeat_Variant_3_evicts 0 : 0 1 : 0 2 : 0 3 : 0 
Heartbeat CPU 0 instructions: 40000000 cycles: 11185760 heartbeat IPC: 3.57532 cumulative IPC: 3.57598 (Simulation time: 0 hr 8 min 24 sec) 
Heartbeat_Variant_0 : 1065 0.34668 per_variant_size: 0 1065 0 0 0 0 0 0 0 
Heartbeat_Variant_1 : 947 0.308268 per_variant_size: 0 392 555 0 0 0 0 0 0 
Heartbeat_Variant_2 : 1057 0.344076 per_variant_size: 0 384 283 200 190 0 0 0 0 
Heartbeat_Variant_3 : 0 0 per_variant_size: 0 0 0 0 0 0 0 0 0 
Heartbeat_Variant_0_evicts 0 : 15473 1 : 9048 2 : 9072 3 : 0 
Heartbeat_Variant_1_evicts 0 : 9037 1 : 0 2 : 8313 3 : 0 
Heartbeat_Variant_2_evicts 0 : 9086 1 : 8316 2 : 0 3 : 0 
Heartbeat_Variant_3_evicts 0 : 0 1 : 0 2 : 0 3 : 0 
Heartbeat CPU 0 instructions: 50000003 cycles: 13981801 heartbeat IPC: 3.57649 cumulative IPC: 3.57608 (Simulation time: 0 hr 10 min 36 sec) 

Warmup complete CPU 0 instructions: 50000003 cycles: 13981801 (Simulation time: 0 hr 10 min 36 sec) 

Cycle: 20000000 FTQ IN: 56354605 FTQ occupancy: 17.9084 DECODE IN: 56354585 DECODE occupancy: 45.8033 ROB IN: 56354585 ROB occupancy: 276.382 ROB OUT: 56354559
Heartbeat_Variant_0 : 1058 0.344401 per_variant_size: 0 1058 0 0 0 0 0 0 0 
Heartbeat_Variant_1 : 967 0.314779 per_variant_size: 0 401 566 0 0 0 0 0 0 
Heartbeat_Variant_2 : 1044 0.339844 per_variant_size: 0 361 267 218 198 0 0 0 0 
Heartbeat_Variant_3 : 0 0 per_variant_size: 0 0 0 0 0 0 0 0 0 
Heartbeat_Variant_0_evicts 0 : 15652 1 : 9081 2 : 9356 3 : 0 
Heartbeat_Variant_1_evicts 0 : 9065 1 : 0 2 : 8415 3 : 0 
Heartbeat_Variant_2_evicts 0 : 9379 1 : 8379 2 : 0 3 : 0 
Heartbeat_Variant_3_evicts 0 : 0 1 : 0 2 : 0 3 : 0 
Heartbeat CPU 0 instructions: 60000002 cycles: 23269377 heartbeat IPC: 1.07671 cumulative IPC: 1.07671 (Simulation time: 0 hr 12 min 25 sec) 
Cycle: 30000000 FTQ IN: 10993305 FTQ occupancy: 6.09118 DECODE IN: 10993311 DECODE occupancy: 12.8636 ROB IN: 10993301 ROB occupancy: 111.694 ROB OUT: 10993103
Heartbeat_Variant_0 : 1066 0.347005 per_variant_size: 0 1066 0 0 0 0 0 0 0 
Heartbeat_Variant_1 : 975 0.317383 per_variant_size: 0 412 563 0 0 0 0 0 0 
Heartbeat_Variant_2 : 1028 0.334635 per_variant_size: 0 350 265 229 184 0 0 0 0 
Heartbeat_Variant_3 : 0 0 per_variant_size: 0 0 0 0 0 0 0 0 0 
Heartbeat_Variant_0_evicts 0 : 15609 1 : 9209 2 : 9435 3 : 0 
Heartbeat_Variant_1_evicts 0 : 9189 1 : 0 2 : 8361 3 : 0 
Heartbeat_Variant_2_evicts 0 : 9447 1 : 8333 2 : 0 3 : 0 
Heartbeat_Variant_3_evicts 0 : 0 1 : 0 2 : 0 3 : 0 
Heartbeat CPU 0 instructions: 70000002 cycles: 32411137 heartbeat IPC: 1.09388 cumulative IPC: 1.08523 (Simulation time: 0 hr 14 min 7 sec) 
Cycle: 40000000 FTQ IN: 10731720 FTQ occupancy: 6.15953 DECODE IN: 10731728 DECODE occupancy: 12.9443 ROB IN: 10731738 ROB occupancy: 110.837 ROB OUT: 10731794
Heartbeat_Variant_0 : 1040 0.338542 per_variant_size: 0 1040 0 0 0 0 0 0 0 
Heartbeat_Variant_1 : 967 0.314779 per_variant_size: 0 435 532 0 0 0 0 0 0 
Heartbeat_Variant_2 : 1062 0.345703 per_variant_size: 0 378 295 209 180 0 0 0 0 
Heartbeat_Variant_3 : 0 0 per_variant_size: 0 0 0 0 0 0 0 0 0 
Heartbeat_Variant_0_evicts 0 : 15491 1 : 9315 2 : 9438 3 : 0 
Heartbeat_Variant_1_evicts 0 : 9324 1 : 0 2 : 8660 3 : 0 
Heartbeat_Variant_2_evicts 0 : 9455 1 : 8677 2 : 0 3 : 0 
Heartbeat_Variant_3_evicts 0 : 0 1 : 0 2 : 0 3 : 0 
Heartbeat CPU 0 instructions: 80000003 cycles: 41771654 heartbeat IPC: 1.06832 cumulative IPC: 1.07953 (Simulation time: 0 hr 15 min 55 sec) 
Cycle: 50000000 FTQ IN: 10912608 FTQ occupancy: 5.9904 DECODE IN: 10912596 DECODE occupancy: 12.6077 ROB IN: 10912586 ROB occupancy: 110.202 ROB OUT: 10912576
Heartbeat_Variant_0 : 1064 0.346354 per_variant_size: 0 1064 0 0 0 0 0 0 0 
Heartbeat_Variant_1 : 968 0.315104 per_variant_size: 0 413 555 0 0 0 0 0 0 
Heartbeat_Variant_2 : 1037 0.337565 per_variant_size: 0 354 270 220 193 0 0 0 0 
Heartbeat_Variant_3 : 0 0 per_variant_size: 0 0 0 0 0 0 0 0 0 
Heartbeat_Variant_0_evicts 0 : 15572 1 : 9259 2 : 9256 3 : 0 
Heartbeat_Variant_1_evicts 0 : 9307 1 : 0 2 : 8438 3 : 0 
Heartbeat_Variant_2_evicts 0 : 9184 1 : 8485 2 : 0 3 : 0 
Heartbeat_Variant_3_evicts 0 : 0 1 : 0 2 : 0 3 : 0 
Heartbeat CPU 0 instructions: 90000002 cycles: 50897262 heartbeat IPC: 1.09582 cumulative IPC: 1.08356 (Simulation time: 0 hr 17 min 44 sec) 
Cycle: 60000000 FTQ IN: 10820826 FTQ occupancy: 6.23803 DECODE IN: 10820844 DECODE occupancy: 13.2521 ROB IN: 10820854 ROB occupancy: 114.101 ROB OUT: 10820925
Heartbeat_Variant_0 : 1077 0.350586 per_variant_size: 0 1077 0 0 0 0 0 0 0 
Heartbeat_Variant_1 : 948 0.308594 per_variant_size: 0 403 545 0 0 0 0 0 0 
Heartbeat_Variant_2 : 1044 0.339844 per_variant_size: 0 358 280 199 207 0 0 0 0 
Heartbeat_Variant_3 : 0 0 per_variant_size: 0 0 0 0 0 0 0 0 0 
Heartbeat_Variant_0_evicts 0 : 15175 1 : 9149 2 : 9113 3 : 0 
Heartbeat_Variant_1_evicts 0 : 9127 1 : 0 2 : 8474 3 : 0 
Heartbeat_Variant_2_evicts 0 : 9122 1 : 8472 2 : 0 3 : 0 
Heartbeat_Variant_3_evicts 0 : 0 1 : 0 2 : 0 3 : 0 
Heartbeat CPU 0 instructions: 100000001 cycles: 60181348 heartbeat IPC: 1.07711 cumulative IPC: 1.08226 (Simulation time: 0 hr 19 min 12 sec) 
Finished CPU 0 instructions: 50000002 cycles: 46199548 cumulative IPC: 1.08226 (Simulation time: 0 hr 19 min 12 sec) 

ChampSim completed all CPUs

Region of Interest Statistics

CPU 0 cumulative IPC: 1.08226 instructions: 50000002 cycles: 46199548
 Fetch stage stalled: 72.6076  Sim cycles: 46199548 fetch stall cycle: 33544392
 Empty decode stage: 64.8059  Sim cycles: 46199548 fetch stall cycle: 29940056
ITLB TOTAL     ACCESS:    5739016  HIT:    5243087  MISS:     495929  HIT %:    91.3586  MISS %:    8.64136   MPKI: 9.91858
ITLB LOAD TRANSLATION INSTRUCTION	ACCESS:    5636366  HIT:    5140437  MISS:     495929  HIT %:    91.2013  MISS %:    8.79874  MPKI: 9.91858
ITLB TRANSLATION FROM L1D PREFETCHER INSTRUCTION	ACCESS:     102650  HIT:     102650  MISS:          0  HIT %:        100  MISS %:          0  MPKI: 0

ITLB AVERAGE MISS LATENCY: 9.04522 cycles
ITLB RQ	ACCESS:    7537274	FORWARD:          0	MERGED:    1359109	TO_CACHE:    6178165

DTLB TOTAL     ACCESS:    9410197  HIT:    8934959  MISS:     475238  HIT %:    94.9498  MISS %:    5.05024   MPKI: 9.50476
DTLB LOAD TRANSLATION DATA	ACCESS:    9410197  HIT:    8934959  MISS:     475238  HIT %:    94.9498  MISS %:    5.05024  MPKI: 9.50476

DTLB AVERAGE MISS LATENCY: 9.31438 cycles
DTLB RQ	ACCESS:   13683183	FORWARD:          0	MERGED:    4239002	TO_CACHE:    9444181

STLB TOTAL     ACCESS:    1220093  HIT:    1218101  MISS:       1992  HIT %:    99.8367  MISS %:   0.163266   MPKI: 0.03984
STLB LOAD TRANSLATION INSTRUCTION	ACCESS:     495929  HIT:     495686  MISS:        243  HIT %:     99.951  MISS %:  0.0489989  MPKI: 0.00486
STLB LOAD TRANSLATION DATA	ACCESS:     475005  HIT:     473285  MISS:       1720  HIT %:    99.6379  MISS %:   0.362101  MPKI: 0.0344
STLB TRANSLATION FROM L1D PREFETCHER DATA	ACCESS:     249159  HIT:     249130  MISS:         29  HIT %:    99.9884  MISS %:  0.0116392  MPKI: 0.00058

STLB AVERAGE MISS LATENCY: 73.5366 cycles
STLB RQ	ACCESS:    1339884	FORWARD:          0	MERGED:     119756	TO_CACHE:    1220128

STLB Hit, L1D data hit: 0
STLB Hit, L2C data hit: 0
STLB Hit, LLC data hit: 0
STLB Hit, LLC data miss: 0
STLB STLB hints to L2: 0
L1D TOTAL     ACCESS:   13447970  HIT:   12327871  MISS:    1120099  HIT %:    91.6709  MISS %:    8.32913   MPKI: 22.402
L1D LOAD DATA	ACCESS:    6865324  HIT:    6129070  MISS:     736254  HIT %:    89.2758  MISS %:    10.7242  MPKI: 14.7251
L1D RFO DATA	ACCESS:    6254448  HIT:    5966516  MISS:     287932  HIT %:    95.3964  MISS %:    4.60364  MPKI: 5.75864
L1D PREFETCH DATA	ACCESS:     328198  HIT:     232285  MISS:      95913  HIT %:    70.7759  MISS %:    29.2241  MPKI: 1.91826

L1D PREFETCH  REQUESTED:     737718  ISSUED:     737718  USEFUL:      35330  USELESS:      68119
L1D USEFUL LOAD PREFETCHES:      35330 PREFETCH ISSUED TO LOWER LEVEL:     103507  ACCURACY: 34.133
 TIMELY PREFETCHES:      35330 LATE PREFETCHES: 7535 DROPPED PREFETCHES: 6
L1D AVERAGE MISS LATENCY: 247939 cycles
L1D RQ	ACCESS:   10933663	FORWARD:          0	MERGED:    3873757	TO_CACHE:    6895490
L1D WQ	ACCESS:    6957200	FORWARD:     164700	MERGED:     169507	TO_CACHE:    6787693
L1D PQ	ACCESS:     369001	FORWARD:          0	MERGED:          0	TO_CACHE:     368717

L1D UNIQUE REGIONS ACCESSED: 0
L1D REGIONS CONFLICTS: 0
L1D Cross Page Prefetch Requests: 7030
L1D Same Page Prefetch Requests: 747689
L1D ROI Sum of L1D PQ occupancy: 4682001
L1D PREFETCHES PUSHED FROM L2C: 0
L1I TOTAL     ACCESS:    7036649  HIT:    4264312  MISS:    2772337  HIT %:    60.6015  MISS %:    39.3985   MPKI: 55.4467
L1I LOAD INSTRUCTION	ACCESS:    6554406  HIT:    3782069  MISS:    2772337  HIT %:    57.7027  MISS %:    42.2973  MPKI: 55.4467
L1I PREFETCH INSTRUCTION	ACCESS:     482243  HIT:     482243  MISS:          0  HIT %:        100  MISS %:          0  MPKI: 0

L1I PREFETCH  REQUESTED:    1056019  ISSUED:    1056019  USEFUL:          0  USELESS:          0
L1I USEFUL LOAD PREFETCHES:          0 PREFETCH ISSUED TO LOWER LEVEL:          0  ACCURACY: -nan
 TIMELY PREFETCHES:          0 LATE PREFETCHES: 0 DROPPED PREFETCHES: 0
L1I AVERAGE MISS LATENCY: 16.9305 cycles
L1I RQ	ACCESS:    9440015	FORWARD:          0	MERGED:    2654036	TO_CACHE:    6785979
L1I PQ	ACCESS:    1056019	FORWARD:          0	MERGED:     304724	TO_CACHE:     751295

L1BTB TOTAL     ACCESS:    5669933  HIT:    2032425  MISS:    3637508  HIT %:    35.8457  MISS %:    64.1543   MPKI: 72.7502
L1BTB BRANCH_DIRECT_JUMP	ACCESS:     547793  HIT:     143499  MISS:     404294	AVERAGE STALL: 33.5029
L1BTB BRANCH_INDIRECT	ACCESS:     182397  HIT:      65451  MISS:     116946	AVERAGE STALL: 78.8556
L1BTB BRANCH_CONDITIONAL	ACCESS:    2703339  HIT:    1408564  MISS:    1294775	AVERAGE STALL: 34.3793
L1BTB BRANCH_DIRECT_CALL	ACCESS:     946483  HIT:     104420  MISS:     842063	AVERAGE STALL: 36.6431
L1BTB BRANCH_INDIRECT_CALL	ACCESS:     171720  HIT:      20936  MISS:     150784	AVERAGE STALL: 107.295
L1BTB BRANCH_RETURN	ACCESS:    1118201  HIT:     289555  MISS:     828646	AVERAGE STALL: 35.7518
L1BTB BRANCH_OTHER ACCESS:          0  HIT:          0  MISS:          0	AVERAGE STALL: -nan
L1BTB TOTAL ROB OCCUPANCY AT BTB MISS: 13.0304

L2BTB TOTAL     ACCESS:    3612159  HIT:    3089657  MISS:     522502  HIT %:    85.5349  MISS %:    14.4651   MPKI: 10.45
L2BTB BRANCH_DIRECT_JUMP	ACCESS:     400173  HIT:     344662  MISS:      55511	AVERAGE STALL: 33.5029
L2BTB BRANCH_INDIRECT	ACCESS:     106628  HIT:      98211  MISS:       8417	AVERAGE STALL: 78.8556
L2BTB BRANCH_CONDITIONAL	ACCESS:    1294775  HIT:    1134551  MISS:     160224	AVERAGE STALL: 34.3793
L2BTB BRANCH_DIRECT_CALL	ACCESS:     842063  HIT:     686661  MISS:     155402	AVERAGE STALL: 36.6431
L2BTB BRANCH_INDIRECT_CALL	ACCESS:     141285  HIT:     108544  MISS:      32741	AVERAGE STALL: 107.295
L2BTB BRANCH_RETURN	ACCESS:     827235  HIT:     717028  MISS:     110207	AVERAGE STALL: 35.7518
L2BTB BRANCH_OTHER ACCESS:          0  HIT:          0  MISS:          0	AVERAGE STALL: -nan
L2BTB TOTAL ROB OCCUPANCY AT BTB MISS: 90.7139

L2C TOTAL     ACCESS:    4501149  HIT:    4058061  MISS:     443088  HIT %:    90.1561  MISS %:    9.84389   MPKI: 8.86176
L2C LOAD INSTRUCTION	ACCESS:    2772337  HIT:    2534937  MISS:     237400  HIT %:    91.4368  MISS %:    8.56317  MPKI: 4.748
L2C LOAD TRANSLATION INSTRUCTION	ACCESS:        271  HIT:         62  MISS:        209  HIT %:    22.8782  MISS %:    77.1218  MPKI: 0.00418
L2C LOAD DATA	ACCESS:     728682  HIT:     657518  MISS:      71164  HIT %:    90.2339  MISS %:    9.76613  MPKI: 1.42328
L2C RFO DATA	ACCESS:     287854  HIT:     236507  MISS:      51347  HIT %:    82.1621  MISS %:    17.8379  MPKI: 1.02694
L2C PREFETCH DATA	ACCESS:     186644  HIT:     116928  MISS:      69716  HIT %:    62.6476  MISS %:    37.3524  MPKI: 1.39432
L2C WRITEBACK DATA	ACCESS:     523515  HIT:     511572  MISS:      11943  HIT %:    97.7187  MISS %:    2.28131  MPKI: 0.23886
L2C LOAD TRANSLATION DATA	ACCESS:       1790  HIT:        505  MISS:       1285  HIT %:    28.2123  MISS %:    71.7877  MPKI: 0.0257
L2C TRANSLATION FROM L1D PREFETCHER DATA	ACCESS:         56  HIT:         32  MISS:         24  HIT %:    57.1429  MISS %:    42.8571  MPKI: 0.00048

L2C PREFETCH  REQUESTED:      89723  ISSUED:      89723  USEFUL:       6935  USELESS:      63197
L2C USEFUL LOAD PREFETCHES:       6935 PREFETCH ISSUED TO LOWER LEVEL:      69936  ACCURACY: 9.91621
 TIMELY PREFETCHES:       6935 LATE PREFETCHES: 220 DROPPED PREFETCHES: 0
L2C AVERAGE MISS LATENCY: 40.0112 cycles
L2C RQ	ACCESS:    3791047	FORWARD:          0	MERGED:          0	TO_CACHE:    3790991
L2C WQ	ACCESS:     523515	FORWARD:         56	MERGED:          0	TO_CACHE:     523515
L2C PQ	ACCESS:     193230	FORWARD:          0	MERGED:       3245	TO_CACHE:     189985

L2C Dense regions hint from L2: 0
PSCL5 TOTAL     ACCESS:       4004  HIT:       2002  MISS:       2002  HIT %:         50  MISS %:         50   MPKI: 0.04004
PSCL5 LOAD TRANSLATION INSTRUCTION	ACCESS:       3900  HIT:       1950  MISS:       1950  HIT %:         50  MISS %:         50  MPKI: 0.039
PSCL5 TRANSLATION FROM L1D PREFETCHER INSTRUCTION	ACCESS:        104  HIT:         52  MISS:         52  HIT %:         50  MISS %:         50  MPKI: 0.00104


PSCL4 TOTAL     ACCESS:       3911  HIT:       1951  MISS:       1960  HIT %:    49.8849  MISS %:    50.1151   MPKI: 0.0392
PSCL4 LOAD TRANSLATION INSTRUCTION	ACCESS:       2066  HIT:       1905  MISS:        161  HIT %:    92.2072  MISS %:    7.79284  MPKI: 0.00322
PSCL4 TRANSLATION FROM L1D PREFETCHER INSTRUCTION	ACCESS:         46  HIT:         46  MISS:          0  HIT %:        100  MISS %:          0  MPKI: 0
PSCL4 LOAD TRANSLATION DATA	ACCESS:       1753  HIT:          0  MISS:       1753  HIT %:          0  MISS %:        100  MPKI: 0.03506
PSCL4 TRANSLATION FROM L1D PREFETCHER DATA	ACCESS:         46  HIT:          0  MISS:         46  HIT %:          0  MISS %:        100  MPKI: 0.00092


PSCL3 TOTAL     ACCESS:       3921  HIT:       1956  MISS:       1965  HIT %:    49.8852  MISS %:    50.1148   MPKI: 0.0393
PSCL3 LOAD TRANSLATION INSTRUCTION	ACCESS:       2071  HIT:       1910  MISS:        161  HIT %:     92.226  MISS %:    7.77402  MPKI: 0.00322
PSCL3 TRANSLATION FROM L1D PREFETCHER INSTRUCTION	ACCESS:         46  HIT:         46  MISS:          0  HIT %:        100  MISS %:          0  MPKI: 0
PSCL3 LOAD TRANSLATION DATA	ACCESS:       1758  HIT:          0  MISS:       1758  HIT %:          0  MISS %:        100  MPKI: 0.03516
PSCL3 TRANSLATION FROM L1D PREFETCHER DATA	ACCESS:         46  HIT:          0  MISS:         46  HIT %:          0  MISS %:        100  MPKI: 0.00092


PSCL2 TOTAL     ACCESS:       3905  HIT:       1903  MISS:       2002  HIT %:    48.7324  MISS %:    51.2676   MPKI: 0.04004
PSCL2 LOAD TRANSLATION INSTRUCTION	ACCESS:       2095  HIT:       1853  MISS:        242  HIT %:    88.4487  MISS %:    11.5513  MPKI: 0.00484
PSCL2 TRANSLATION FROM L1D PREFETCHER INSTRUCTION	ACCESS:         50  HIT:         50  MISS:          0  HIT %:        100  MISS %:          0  MPKI: 0
PSCL2 LOAD TRANSLATION DATA	ACCESS:       1710  HIT:          0  MISS:       1710  HIT %:          0  MISS %:        100  MPKI: 0.0342
PSCL2 TRANSLATION FROM L1D PREFETCHER DATA	ACCESS:         50  HIT:          0  MISS:         50  HIT %:          0  MISS %:        100  MPKI: 0.001


LLC TOTAL     ACCESS:     499951  HIT:     469873  MISS:      30078  HIT %:    93.9838  MISS %:    6.01619   MPKI: 0.60156
LLC LOAD INSTRUCTION	ACCESS:     237400  HIT:     236451  MISS:        949  HIT %:    99.6003  MISS %:   0.399747  MPKI: 0.01898
LLC LOAD TRANSLATION INSTRUCTION	ACCESS:        209  HIT:        172  MISS:         37  HIT %:    82.2967  MISS %:    17.7033  MPKI: 0.00074
LLC LOAD DATA	ACCESS:      70951  HIT:      67427  MISS:       3524  HIT %:    95.0332  MISS %:    4.96681  MPKI: 0.07048
LLC RFO DATA	ACCESS:      51339  HIT:      36128  MISS:      15211  HIT %:    70.3715  MISS %:    29.6285  MPKI: 0.30422
LLC PREFETCH DATA	ACCESS:      69936  HIT:      60032  MISS:       9904  HIT %:    85.8385  MISS %:    14.1615  MPKI: 0.19808
LLC WRITEBACK DATA	ACCESS:      68807  HIT:      68432  MISS:        375  HIT %:     99.455  MISS %:   0.545003  MPKI: 0.0075
LLC LOAD TRANSLATION DATA	ACCESS:       1285  HIT:       1208  MISS:         77  HIT %:    94.0078  MISS %:    5.99222  MPKI: 0.00154
LLC TRANSLATION FROM L1D PREFETCHER DATA	ACCESS:         24  HIT:         23  MISS:          1  HIT %:    95.8333  MISS %:    4.16667  MPKI: 2e-05

LLC AVERAGE MISS LATENCY: 158.094 cycles
LLC RQ	ACCESS:     361209	FORWARD:          0	MERGED:          0	TO_CACHE:     361208
LLC WQ	ACCESS:      68807	FORWARD:          1	MERGED:          0	TO_CACHE:      68807
LLC PQ	ACCESS:      69936	FORWARD:          0	MERGED:          0	TO_CACHE:      69936

LLC Dense regions hint to LLC: 0

RAW hits: 1707854
Loads Generated: 12641517
Loads sent to L1D: 10933663
Stores Generated: 6957183
Stores sent to L1D: 6957200
Major fault: 0 Minor fault: 2547
Allocated PAGES: 2547

stream: 
stream:times selected: 1186117
stream:pref_filled: 120835
stream:pref_useful: 24016
stream:pref_late: 6451
stream:misses: 7796
stream:misses_by_poll: 0

CS: 
CS:times selected: 179799
CS:pref_filled: 60248
CS:pref_useful: 36908
CS:pref_late: 6860
CS:misses: 16427
CS:misses_by_poll: 1

CPLX: 
CPLX:times selected: 1005255
CPLX:pref_filled: 20152
CPLX:pref_useful: 4780
CPLX:pref_late: 2997
CPLX:misses: 92055
CPLX:misses_by_poll: 0

NL_L1: 
NL:times selected: 20692
NL:pref_filled: 783
NL:pref_useful: 359
NL:pref_late: 262
NL:misses: 1798
NL:misses_by_poll: 0

total selections: 2391863
total_filled: 95913
total_useful: 35330
total_late: 17702
total_polluted: 1
total_misses_after_warmup: 766420
conflicts: 5666768

test: 117383

DRAM Statistics
 CHANNEL 0
 RQ ROW_BUFFER_HIT:      11072  ROW_BUFFER_MISS:      18613
 DBUS_CONGESTED:         11
 WQ ROW_BUFFER_HIT:       1486  ROW_BUFFER_MISS:      13192  FULL:          0

 AVG_CONGESTED_CYCLE: 5

CPU 0 Branch Prediction Accuracy: 99.823% MPKI: 0.32376 Average ROB Occupancy at Mispredict: 122.359
Branch types
NOT_BRANCH: 40854590 81.7092%
BRANCH_DIRECT_JUMP: 547793 1.09559%
BRANCH_INDIRECT: 182397 0.364794%
BRANCH_CONDITIONAL: 6178427 12.3569%
BRANCH_DIRECT_CALL: 946483 1.89297%
BRANCH_INDIRECT_CALL: 171720 0.34344%
BRANCH_RETURN: 1118201 2.2364%
BRANCH_OTHER: 0 0%

DRAM PAGES: 1048576
Allocated PAGES: 2547
Average_ROB_Occupancy: 112.255
Average_Decode_Occupancy: 12.8809
Average_FTQ_Occupancy: 6.11271
Indirect max targets: 14 Average targets: 1.14626
Branch_type:  BRANCH_DIRECT_JUMP:  Count Percentage: 4.15247 5.41064 4.34889 7.41362 3.48758 6.01158 1.88201 67.2932 
Branch_type:  BRANCH_INDIRECT:  Count Percentage: 11.722 16.7906 2.54539 9.68743 3.34555 2.81038 1.73895 51.3597 
Branch_type:  BRANCH_CONDITIONAL:  Count Percentage: 21.7605 2.72467 1.81308 6.06605 1.72029 4.27313 5.81555 55.8267 
Branch_type:  BRANCH_DIRECT_CALL:  Count Percentage: 0.882829 1.29021 0.739319 3.92651 2.91649 2.87225 4.34665 83.0257 
Branch_type:  BRANCH_INDIRECT_CALL:  Count Percentage: 9.54461 0 2.99048 5.26975 0 2.40916 3.84703 75.939 
Branch_type:  BRANCH_RETURN:  Count Percentage: 4.72242 1.39944 1.49058 6.60447 2.33226 4.47105 6.55276 72.427 
Branch_type:  BRANCH_DIRECT_JUMP:  Total Count: 45516 59307 47669 81262 38228 65894 20629 737613 
Branch_type:  BRANCH_INDIRECT:  Total Count: 42865 61400 9308 35425 12234 10277 6359 187812 
Branch_type:  BRANCH_CONDITIONAL:  Total Count: 2688910 336683 224039 749572 212574 528024 718619 6898425 
Branch_type:  BRANCH_DIRECT_CALL:  Total Count: 16665 24355 13956 74120 55054 54219 82051 1567262 
Branch_type:  BRANCH_INDIRECT_CALL:  Total Count: 32772 0 10268 18094 0 8272 13209 260741 
Branch_type:  BRANCH_RETURN:  Total Count: 105396 31233 33267 147400 52052 99786 146246 1616443 
Number of unique branch instructions: 9775
Upper 32 bits: 
aaaa
ffff
ffff0000
Unique upper 32 bits: 3
Unique upper 36 bits: 3
Unique upper 40 bits: 5
Unique upper 44 bits: 32
Unique upper 48 bits: 154
Variant_0 : 1077 0.350586
Variant_1 : 948 0.308594
Variant_2 : 1044 0.339844
Variant_3 : 0 0
Offset_3 4020
Offset_4 246
Offset_5 448
Offset_6 501
Offset_7 572
Offset_8 502
Offset_9 461
Offset_10 374
Offset_11 301
Offset_12 269
Offset_13 199
Offset_14 227
Offset_15 184
Offset_16 222
Offset_17 143
Offset_18 118
Offset_19 234
Offset_20 136
Offset_21 235
Offset_22 393
Offset_23 241
Offset_24 324
Offset_25 88
Offset_47 80
decode_dispatch_called: 20419251 44.1979
Dispatch_width: 0 10328028 50.5799 22.3553
Dispatch_width: 1 553466 2.71051 1.19799
Dispatch_width: 2 704186 3.44864 1.52423
Dispatch_width: 3 486706 2.38356 1.05349
Dispatch_width: 4 1567444 7.67631 3.39277
Dispatch_width: 5 368548 1.8049 0.797731
Dispatch_width: 6 6410873 31.3962 13.8765
Empty_decode_cycles: 25780297 55.8021
ROB_full_cycles: 2050303 4.43793
Starvation_cycles_per_kilo_instr: 377.384
Starvation_cycles_per_kilo_instr_3: 358.024
Starvation_cycles_per_kilo_instr_0: 340.58
Branch_type_1  (3,1)  (4,9)  (5,37)  (6,70)  (7,112)  (8,128)  (9,122)  (10,97)  (11,67)  (12,43)  (13,5)  (14,2)  (15,3)  (16,4)  (18,1)  (19,4)  (20,2)  (21,1)  (22,3)  (23,2)  (24,10)  (25,12) 
Branch_type_2  (3,1)  (5,1)  (8,3)  (9,3)  (12,1)  (13,1)  (14,1)  (16,3)  (17,2)  (20,2)  (21,2)  (23,5)  (24,1)  (47,36) 
Branch_type_3  (3,4018)  (4,237)  (5,406)  (6,416)  (7,431)  (8,311)  (9,253)  (10,151)  (11,120)  (12,50)  (13,4) 
Branch_type_4  (6,3)  (7,8)  (8,25)  (9,51)  (10,60)  (11,58)  (12,96)  (13,86)  (14,100)  (15,86)  (16,99)  (17,63)  (18,53)  (19,115)  (20,71)  (21,124)  (22,209)  (23,136)  (24,185)  (25,72) 
Branch_type_5  (8,2)  (9,1)  (10,3)  (11,5)  (12,3)  (13,14)  (14,16)  (15,11)  (16,20)  (17,11)  (18,16)  (19,12)  (20,10)  (21,13)  (22,42)  (23,26)  (24,37) 
Branch_type_6  (5,4)  (6,12)  (7,21)  (8,33)  (9,31)  (10,63)  (11,51)  (12,76)  (13,89)  (14,108)  (15,84)  (16,96)  (17,67)  (18,48)  (19,103)  (20,51)  (21,95)  (22,139)  (23,72)  (24,91)  (25,4)  (47,44) 
Unique trigger count: 
Variant_0_evicts_0 : 0
Variant_0_evicts_1 : 0
Variant_0_evicts_2 : 0
Variant_0_evicts_3 : 0
Variant_1_evicts_0 : 0
Variant_1_evicts_1 : 0
Variant_1_evicts_2 : 0
Variant_1_evicts_3 : 0
Variant_2_evicts_0 : 0
Variant_2_evicts_1 : 0
Variant_2_evicts_2 : 0
Variant_2_evicts_3 : 0
Variant_3_evicts_0 : 0
Variant_3_evicts_1 : 0
Variant_3_evicts_2 : 0
Variant_3_evicts_3 : 0
BTB PER SET UNIQUE ADDR: 44 51 44 52 44 40 37 42 42 46 43 53 41 44 44 38 43 45 41 51 42 32 36 39 43 49 46 54 43 38 51 46 60 41 49 53 55 43 35 41 43 40 44 59 46 42 45 43 59 52 42 46 44 57 37 36 47 39 36 49 46 57 46 47 48 48 43 44 54 47 47 41 54 41 37 36 37 50 39 65 43 39 43 48 43 42 55 51 46 65 44 41 48 44 30 51 46 37 50 46 64 50 41 46 48 38 43 37 30 37 37 53 50 30 41 40 50 45 51 46 48 38 44 31 42 41 33 50 60 43 36 44 43 51 41 52 29 55 38 56 43 61 39 41 44 46 49 43 49 43 44 51 40 45 31 53 49 44 40 51 42 40 58 58 47 42 45 47 48 40 46 48 40 49 47 42 43 43 42 51 39 48 43 50 48 52 34 50 52 40 48 41 41 54 45 44 46 41 49 48 45 50 42 46 45 42 49 42 54 49 48 60 41 49 48 46 41 54 50 55 40 48 42 47 42 47 52 42 39 55 48 34 51 58 38 50 52 47 39 48 40 47 57 50 43 38 40 40 33 40 36 40 42 45 47 42 18 16 18 21 24 18 8 22 20 15 19 19 20 21 22 22 17 14 16 14 22 27 20 22 16 24 16 17 24 17 16 34 32 27 25 17 22 25 18 28 23 27 26 21 20 21 18 34 21 30 25 20 31 24 22 27 20 34 24 12 27 21 22 29 17 26 17 22 28 29 22 17 21 15 21 31 18 20 21 23 17 20 16 38 22 24 15 28 26 26 17 21 22 23 25 21 25 23 22 24 23 26 18 16 19 29 20 29 22 26 12 23 24 22 23 16 22 25 17 29 23 26 20 24 22 22 18 19 18 21 29 26 25 22 30 14 25 28 18 16 17 18 29 24 21 23 21 21 28 30 24 27 23 22 25 16 19 28 22 21 21 30 38 31 19 25 22 25 25 18 26 19 25 20 29 21 19 23 29 27 23 20 21 26 27 20 18 27 35 20 16 24 28 23 27 36 26 18 27 34 26 28 17 30 16 21 19 26 33 20 22 23 26 26 24 27 27 22 24 33 26 34 16 24 34 27 21 25 15 23 34 28 28 21 20 24 19 18 17 19 25 25 22 25 20 30 20 32 19 18 19 31 29 28 23 29 23 22 21 26 20 30 17 18 16 22 22 16 23 32 35 16 14 32 28 23 25 23 26 30 21 23 26 21 28 20 25 24 26 30 16 25 17 22 23 32 23 22 18 21 22 22 30 25 19 31 22 21 22 28 22 29 23 28 27 25 29 35 23 28 27 29 22 23 24 24 14 24 27 25 20 24 33 26 19 21 25 16 27 17 15 23 21 21 23 21 22 13 22 24 32 21 22 25 30 26 21 17 10 27 16 28 20 25 29 23 16 20 20 33 21 28 18 23 15 27 30 24 24 22 25 30 21 28 22 26 26 30 25 26 19 24 33 20 15 22 19 18 27 24 23 23 27 22 23 12 26 31 21 25 18 19 19 20 24 20 18 25 34 21 26 26 28 29 22 29 19 25 27 21 20 19 27 27 24 23 21 14 16 22 18 27 19 26 15 26 26 32 12 27 22 18 16 13 22 23 16 21 17 19 32 26 18 27 24 22 20 21 20 21 25 22 19 19 24 20 21 20 22 23 22 30 36 20 20 21 20 23 31 28 20 23 22 19 23 20 24 23 17 22 33 21 18 18 23 12 14 23 24 27 17 23 
BTB PER SET COUNT: 1984 2293 3495 2849 2451 1832 1767 1673 2076 2079 1526 3265 18248 3147 2130 1555 2316 2194 1845 2226 2127 1321 1829 2096 1888 2501 2436 2960 2154 2085 2353 3017 2853 1794 2199 2628 2632 2004 1451 2255 1620 1690 1765 4112 2171 1909 2488 2796 3324 2744 2268 3086 2045 2926 1710 1648 2221 1676 1653 1941 2146 3760 2356 2486 2363 2361 1436 2954 2646 2145 2546 2267 2591 2000 1576 1801 1971 2813 1636 2808 2319 3717 2503 2382 1502 2799 2416 2433 2645 3307 2168 1934 2712 2191 1321 2083 2153 1615 2138 3802 3641 2283 1786 2368 3437 1471 2109 1384 1725 1690 2673 3145 3064 1334 2019 2026 2411 2582 3517 2505 2481 1638 2175 1546 2313 2592 1301 2489 3492 2029 1863 3126 2032 2176 1982 2768 1671 2177 1588 2845 1892 2599 1898 1594 1918 2264 2606 2035 2505 2372 1891 2286 1922 2192 977 2614 2095 2550 1292 2947 1809 1869 2687 2799 2755 2432 1593 3138 2111 1788 2806 2466 1614 2989 2390 1736 1965 1604 2156 2897 1684 2323 2558 3101 2418 3426 1104 2277 2447 2029 2146 1884 1997 2672 2169 1929 2186 1770 2486 1996 2052 2411 2172 2547 1827 2052 3132 2101 2536 2255 2869 3023 1789 3710 2108 3326 1718 3115 3228 2769 1820 2144 2201 2955 1932 2050 2408 2200 1850 2859 1893 1637 2408 3388 1782 3668 2166 2283 2090 2203 2283 2564 3417 2931 2221 1797 1757 2152 1243 1561 1427 1522 1563 2495 2205 2196 630 680 586 754 1007 551 140 1010 636 322 775 646 1386 740 641 834 525 340 679 313 856 941 671 962 236 1011 759 873 833 621 334 1591 1174 853 781 444 637 1416 486 1136 1476 1144 624 1194 593 624 290 1507 589 1140 903 700 1442 1438 1127 1096 561 1328 2474 646 1114 933 779 1284 528 2665 420 641 1224 1580 1140 520 590 395 899 1063 485 483 559 1132 378 1516 402 1644 800 1920 436 1102 1165 722 408 871 603 820 950 484 841 608 521 742 692 1090 490 635 699 1107 479 1128 580 2167 279 783 952 765 851 646 944 1240 873 1099 746 1017 686 1147 994 759 616 373 516 538 2894 1199 733 1200 1271 308 870 1487 486 634 505 739 1370 1169 651 671 788 656 1220 919 1148 865 704 1070 1175 288 547 1222 664 868 744 2404 1711 1010 654 889 727 841 785 608 1549 590 779 924 1255 794 607 721 1351 1145 826 968 530 693 1651 652 549 1208 1638 896 899 1053 1150 995 1643 2684 906 603 1110 1799 915 855 616 1217 539 644 576 1419 1327 708 5403 660 936 1086 942 1092 779 805 746 1444 828 1498 514 1045 1702 1473 641 799 697 1146 1537 1134 2035 664 895 766 4901 533 381 808 1182 2150 825 657 623 1174 648 1458 731 403 565 1499 940 810 794 2241 1299 1375 727 1291 532 1239 558 775 372 786 721 672 943 1518 2216 1155 611 1989 1541 952 885 710 1272 1205 901 1739 921 865 1099 712 869 955 905 1339 293 841 506 1303 901 1389 1276 942 595 477 805 660 1264 1050 442 1445 718 814 1253 1025 913 1215 1041 1136 1486 891 889 1255 2084 911 1131 1367 902 901 983 1060 401 2818 857 1221 1031 839 1586 986 800 657 869 389 1014 485 1384 1297 879 434 433 949 800 361 1076 711 1199 2952 423 783 1307 1436 1287 374 212 1008 298 889 985 1087 1233 802 371 767 608 1056 653 1333 1896 676 374 1493 1321 781 817 957 857 1510 497 1449 934 983 1010 770 1531 1001 1079 1042 1712 432 346 864 365 560 2232 830 698 685 1114 1402 727 231 1306 1080 3297 912 630 1334 2047 815 734 679 714 843 1441 904 908 806 945 1261 881 982 759 712 1526 776 570 676 1243 1064 673 773 678 414 2347 656 848 2073 708 789 1403 1066 1282 1091 233 955 592 650 329 483 780 1101 854 683 790 683 1450 894 659 1224 1064 1082 676 1123 1942 651 622 923 1156 952 979 7052 681 556 647 845 1248 1134 1301 456 993 374 846 906 1221 911 1696 506 884 703 2022 602 1217 2443 1514 797 1412 1229 606 518 889 454 265 881 1598 1319 410 1341 
To predecode: 0
Predecoding something: 0
Predecode request dropped: 0
sizeofblock_0 0
sizeofblock_1 379740
sizeofblock_2 245005
sizeofblock_3 89098
sizeofblock_4 49144
sizeofblock_5 0
sizeofblock_6 0
sizeofblock_7 0
sizeofblock_8 0
Variant_0 Correct: 1327208 Incorrect: 0 Accuracy: 1
Variant_1 Correct: 1797175 Incorrect: 0 Accuracy: 1
Variant_2 Correct: 3288682 Incorrect: 0 Accuracy: 1
Variant_3 Correct: 0 Incorrect: 0 Accuracy: -nan
