
*** ChampSim Multicore Out-of-Order Simulator ***

Warmup Instructions: 50000000
Simulation Instructions: 50000000
Number of CPUs: 1
LLC sets: 2048
LLC ways: 16
Off-chip DRAM Size: 4096 MB Channels: 1 Width: 64-bit Data Rate: 6400 MT/s
CPU 0 runs ./micro_traces/srv633.trace.gz
.gz
ITLB has LRU replacement policy
DTLB has LRU replacement policy
STLB has LRU replacement policy
FDIP Prefetcher at L1I
L1I has LRU replacement policy
L1D has LRU replacement policy
Initialize SRRIP state for L2C
Initialize DRRIP state for LLC
Heartbeat_Variant_0 : 1295 0.316162 per_variant_size: 0 1295 0 0 0 0 0 0 0 
Heartbeat_Variant_1 : 1188 0.290039 per_variant_size: 0 593 595 0 0 0 0 0 0 
Heartbeat_Variant_2 : 1292 0.31543 per_variant_size: 0 552 355 214 171 0 0 0 0 
Heartbeat_Variant_3 : 0 0 per_variant_size: 0 0 0 0 0 0 0 0 0 
Heartbeat_Variant_0_evicts 0 : 5765 1 : 166 2 : 227 3 : 0 
Heartbeat_Variant_1_evicts 0 : 149 1 : 0 2 : 375 3 : 0 
Heartbeat_Variant_2_evicts 0 : 209 1 : 379 2 : 0 3 : 0 
Heartbeat_Variant_3_evicts 0 : 0 1 : 0 2 : 0 3 : 0 
Heartbeat CPU 0 instructions: 10000003 cycles: 2797086 heartbeat IPC: 3.57515 cumulative IPC: 3.57515 (Simulation time: 0 hr 1 min 44 sec) 
Heartbeat_Variant_0 : 1378 0.336426 per_variant_size: 0 1378 0 0 0 0 0 0 0 
Heartbeat_Variant_1 : 1283 0.313232 per_variant_size: 0 564 719 0 0 0 0 0 0 
Heartbeat_Variant_2 : 1368 0.333984 per_variant_size: 0 519 387 252 210 0 0 0 0 
Heartbeat_Variant_3 : 0 0 per_variant_size: 0 0 0 0 0 0 0 0 0 
Heartbeat_Variant_0_evicts 0 : 6085 1 : 436 2 : 447 3 : 0 
Heartbeat_Variant_1_evicts 0 : 432 1 : 0 2 : 601 3 : 0 
Heartbeat_Variant_2_evicts 0 : 437 1 : 599 2 : 0 3 : 0 
Heartbeat_Variant_3_evicts 0 : 0 1 : 0 2 : 0 3 : 0 
Heartbeat CPU 0 instructions: 20000000 cycles: 5594518 heartbeat IPC: 3.57471 cumulative IPC: 3.57493 (Simulation time: 0 hr 3 min 21 sec) 
Heartbeat_Variant_0 : 1385 0.338135 per_variant_size: 0 1385 0 0 0 0 0 0 0 
Heartbeat_Variant_1 : 1285 0.313721 per_variant_size: 0 567 718 0 0 0 0 0 0 
Heartbeat_Variant_2 : 1364 0.333008 per_variant_size: 0 508 391 258 207 0 0 0 0 
Heartbeat_Variant_3 : 0 0 per_variant_size: 0 0 0 0 0 0 0 0 0 
Heartbeat_Variant_0_evicts 0 : 5601 1 : 68 2 : 47 3 : 0 
Heartbeat_Variant_1_evicts 0 : 60 1 : 0 2 : 241 3 : 0 
Heartbeat_Variant_2_evicts 0 : 49 1 : 232 2 : 0 3 : 0 
Heartbeat_Variant_3_evicts 0 : 0 1 : 0 2 : 0 3 : 0 
Heartbeat CPU 0 instructions: 30000001 cycles: 8392404 heartbeat IPC: 3.57413 cumulative IPC: 3.57466 (Simulation time: 0 hr 5 min 1 sec) 
Heartbeat_Variant_0 : 1392 0.339844 per_variant_size: 0 1392 0 0 0 0 0 0 0 
Heartbeat_Variant_1 : 1297 0.31665 per_variant_size: 0 572 725 0 0 0 0 0 0 
Heartbeat_Variant_2 : 1357 0.331299 per_variant_size: 0 490 378 258 231 0 0 0 0 
Heartbeat_Variant_3 : 0 0 per_variant_size: 0 0 0 0 0 0 0 0 0 
Heartbeat_Variant_0_evicts 0 : 5746 1 : 122 2 : 138 3 : 0 
Heartbeat_Variant_1_evicts 0 : 119 1 : 0 2 : 332 3 : 0 
Heartbeat_Variant_2_evicts 0 : 134 1 : 322 2 : 0 3 : 0 
Heartbeat_Variant_3_evicts 0 : 0 1 : 0 2 : 0 3 : 0 
Heartbeat CPU 0 instructions: 40000000 cycles: 11187822 heartbeat IPC: 3.57728 cumulative IPC: 3.57532 (Simulation time: 0 hr 6 min 37 sec) 
Heartbeat_Variant_0 : 1390 0.339355 per_variant_size: 0 1390 0 0 0 0 0 0 0 
Heartbeat_Variant_1 : 1302 0.317871 per_variant_size: 0 570 732 0 0 0 0 0 0 
Heartbeat_Variant_2 : 1360 0.332031 per_variant_size: 0 503 358 277 222 0 0 0 0 
Heartbeat_Variant_3 : 0 0 per_variant_size: 0 0 0 0 0 0 0 0 0 
Heartbeat_Variant_0_evicts 0 : 5662 1 : 34 2 : 17 3 : 0 
Heartbeat_Variant_1_evicts 0 : 32 1 : 0 2 : 239 3 : 0 
Heartbeat_Variant_2_evicts 0 : 23 1 : 233 2 : 0 3 : 0 
Heartbeat_Variant_3_evicts 0 : 0 1 : 0 2 : 0 3 : 0 
Heartbeat CPU 0 instructions: 50000003 cycles: 13983711 heartbeat IPC: 3.57668 cumulative IPC: 3.57559 (Simulation time: 0 hr 8 min 17 sec) 

Warmup complete CPU 0 instructions: 50000003 cycles: 13983711 (Simulation time: 0 hr 8 min 17 sec) 

Cycle: 20000000 FTQ IN: 58216276 FTQ occupancy: 19.2786 DECODE IN: 58216181 DECODE occupancy: 50.2633 ROB IN: 58216181 ROB occupancy: 307.437 ROB OUT: 58216181
Heartbeat_Variant_0 : 1393 0.340088 per_variant_size: 0 1393 0 0 0 0 0 0 0 
Heartbeat_Variant_1 : 1302 0.317871 per_variant_size: 0 582 720 0 0 0 0 0 0 
Heartbeat_Variant_2 : 1362 0.33252 per_variant_size: 0 501 359 276 226 0 0 0 0 
Heartbeat_Variant_3 : 0 0 per_variant_size: 0 0 0 0 0 0 0 0 0 
Heartbeat_Variant_0_evicts 0 : 5547 1 : 19 2 : 20 3 : 0 
Heartbeat_Variant_1_evicts 0 : 22 1 : 0 2 : 211 3 : 0 
Heartbeat_Variant_2_evicts 0 : 14 1 : 217 2 : 0 3 : 0 
Heartbeat_Variant_3_evicts 0 : 0 1 : 0 2 : 0 3 : 0 
Heartbeat CPU 0 instructions: 60000000 cycles: 21394693 heartbeat IPC: 1.34935 cumulative IPC: 1.34935 (Simulation time: 0 hr 10 min 1 sec) 
Heartbeat_Variant_0 : 1389 0.339111 per_variant_size: 0 1389 0 0 0 0 0 0 0 
Heartbeat_Variant_1 : 1310 0.319824 per_variant_size: 0 591 719 0 0 0 0 0 0 
Heartbeat_Variant_2 : 1362 0.33252 per_variant_size: 0 497 371 275 219 0 0 0 0 
Heartbeat_Variant_3 : 0 0 per_variant_size: 0 0 0 0 0 0 0 0 0 
Heartbeat_Variant_0_evicts 0 : 5708 1 : 114 2 : 88 3 : 0 
Heartbeat_Variant_1_evicts 0 : 116 1 : 0 2 : 282 3 : 0 
Heartbeat_Variant_2_evicts 0 : 90 1 : 277 2 : 0 3 : 0 
Heartbeat_Variant_3_evicts 0 : 0 1 : 0 2 : 0 3 : 0 
Heartbeat CPU 0 instructions: 70000001 cycles: 28760162 heartbeat IPC: 1.35769 cumulative IPC: 1.3535 (Simulation time: 0 hr 11 min 41 sec) 
Cycle: 30000000 FTQ IN: 13482502 FTQ occupancy: 10.7232 DECODE IN: 13482586 DECODE occupancy: 27.3154 ROB IN: 13482568 ROB occupancy: 209.858 ROB OUT: 13482493
Heartbeat_Variant_0 : 1393 0.340088 per_variant_size: 0 1393 0 0 0 0 0 0 0 
Heartbeat_Variant_1 : 1312 0.320312 per_variant_size: 0 592 720 0 0 0 0 0 0 
Heartbeat_Variant_2 : 1358 0.331543 per_variant_size: 0 501 364 274 219 0 0 0 0 
Heartbeat_Variant_3 : 0 0 per_variant_size: 0 0 0 0 0 0 0 0 0 
Heartbeat_Variant_0_evicts 0 : 5562 1 : 21 2 : 31 3 : 0 
Heartbeat_Variant_1_evicts 0 : 19 1 : 0 2 : 224 3 : 0 
Heartbeat_Variant_2_evicts 0 : 30 1 : 220 2 : 0 3 : 0 
Heartbeat_Variant_3_evicts 0 : 0 1 : 0 2 : 0 3 : 0 
Heartbeat CPU 0 instructions: 80000001 cycles: 36091911 heartbeat IPC: 1.36393 cumulative IPC: 1.35696 (Simulation time: 0 hr 13 min 22 sec) 
Cycle: 40000000 FTQ IN: 13481743 FTQ occupancy: 10.7463 DECODE IN: 13481721 DECODE occupancy: 27.4768 ROB IN: 13481738 ROB occupancy: 211.538 ROB OUT: 13481461
Heartbeat_Variant_0 : 1402 0.342285 per_variant_size: 0 1402 0 0 0 0 0 0 0 
Heartbeat_Variant_1 : 1300 0.317383 per_variant_size: 0 572 728 0 0 0 0 0 0 
Heartbeat_Variant_2 : 1363 0.332764 per_variant_size: 0 509 358 280 216 0 0 0 0 
Heartbeat_Variant_3 : 0 0 per_variant_size: 0 0 0 0 0 0 0 0 0 
Heartbeat_Variant_0_evicts 0 : 5679 1 : 90 2 : 106 3 : 0 
Heartbeat_Variant_1_evicts 0 : 81 1 : 0 2 : 279 3 : 0 
Heartbeat_Variant_2_evicts 0 : 107 1 : 283 2 : 0 3 : 0 
Heartbeat_Variant_3_evicts 0 : 0 1 : 0 2 : 0 3 : 0 
Heartbeat CPU 0 instructions: 90000003 cycles: 43543275 heartbeat IPC: 1.34204 cumulative IPC: 1.3532 (Simulation time: 0 hr 15 min 6 sec) 
Cycle: 50000000 FTQ IN: 13497985 FTQ occupancy: 10.6386 DECODE IN: 13497918 DECODE occupancy: 27.183 ROB IN: 13497859 ROB occupancy: 209.923 ROB OUT: 13497863
Heartbeat_Variant_0 : 1419 0.346436 per_variant_size: 0 1419 0 0 0 0 0 0 0 
Heartbeat_Variant_1 : 1288 0.314453 per_variant_size: 0 546 742 0 0 0 0 0 0 
Heartbeat_Variant_2 : 1360 0.332031 per_variant_size: 0 498 353 290 219 0 0 0 0 
Heartbeat_Variant_3 : 0 0 per_variant_size: 0 0 0 0 0 0 0 0 0 
Heartbeat_Variant_0_evicts 0 : 5622 1 : 83 2 : 62 3 : 0 
Heartbeat_Variant_1_evicts 0 : 74 1 : 0 2 : 268 3 : 0 
Heartbeat_Variant_2_evicts 0 : 54 1 : 271 2 : 0 3 : 0 
Heartbeat_Variant_3_evicts 0 : 0 1 : 0 2 : 0 3 : 0 
Heartbeat CPU 0 instructions: 100000001 cycles: 50973899 heartbeat IPC: 1.34578 cumulative IPC: 1.35171 (Simulation time: 0 hr 16 min 51 sec) 
Finished CPU 0 instructions: 50000002 cycles: 36990189 cumulative IPC: 1.35171 (Simulation time: 0 hr 16 min 51 sec) 

ChampSim completed all CPUs

Region of Interest Statistics

CPU 0 cumulative IPC: 1.35171 instructions: 50000002 cycles: 36990189
 Fetch stage stalled: 60.1412  Sim cycles: 36990189 fetch stall cycle: 22246340
 Empty decode stage: 48.9482  Sim cycles: 36990189 fetch stall cycle: 18106014
ITLB TOTAL     ACCESS:    5867321  HIT:    5369661  MISS:     497660  HIT %:    91.5181  MISS %:    8.48189   MPKI: 9.9532
ITLB LOAD TRANSLATION INSTRUCTION	ACCESS:    5739121  HIT:    5241461  MISS:     497660  HIT %:    91.3286  MISS %:    8.67136  MPKI: 9.9532
ITLB TRANSLATION FROM L1D PREFETCHER INSTRUCTION	ACCESS:     128200  HIT:     128200  MISS:          0  HIT %:        100  MISS %:          0  MPKI: 0

ITLB AVERAGE MISS LATENCY: 9.06341 cycles
ITLB RQ	ACCESS:    8010591	FORWARD:          0	MERGED:    1714809	TO_CACHE:    6295782

DTLB TOTAL     ACCESS:    9028817  HIT:    8552631  MISS:     476186  HIT %:    94.7259  MISS %:    5.27407   MPKI: 9.52372
DTLB LOAD TRANSLATION DATA	ACCESS:    9028817  HIT:    8552631  MISS:     476186  HIT %:    94.7259  MISS %:    5.27407  MPKI: 9.52372

DTLB AVERAGE MISS LATENCY: 9.32667 cycles
DTLB RQ	ACCESS:   13400572	FORWARD:          0	MERGED:    4334237	TO_CACHE:    9066335

STLB TOTAL     ACCESS:    1217213  HIT:    1214997  MISS:       2216  HIT %:    99.8179  MISS %:   0.182055   MPKI: 0.04432
STLB LOAD TRANSLATION INSTRUCTION	ACCESS:     497660  HIT:     497243  MISS:        417  HIT %:    99.9162  MISS %:  0.0837921  MPKI: 0.00834
STLB LOAD TRANSLATION DATA	ACCESS:     476177  HIT:     474408  MISS:       1769  HIT %:    99.6285  MISS %:   0.371501  MPKI: 0.03538
STLB TRANSLATION FROM L1D PREFETCHER DATA	ACCESS:     243376  HIT:     243346  MISS:         30  HIT %:    99.9877  MISS %:  0.0123266  MPKI: 0.0006

STLB AVERAGE MISS LATENCY: 70.083 cycles
STLB RQ	ACCESS:    1332608	FORWARD:          0	MERGED:     115342	TO_CACHE:    1217266

STLB Hit, L1D data hit: 0
STLB Hit, L2C data hit: 0
STLB Hit, LLC data hit: 0
STLB Hit, LLC data miss: 0
STLB STLB hints to L2: 0
L1D TOTAL     ACCESS:   13135617  HIT:   12016332  MISS:    1119285  HIT %:     91.479  MISS %:    8.52099   MPKI: 22.3857
L1D LOAD DATA	ACCESS:    6595702  HIT:    5857606  MISS:     738096  HIT %:    88.8094  MISS %:    11.1906  MPKI: 14.7619
L1D RFO DATA	ACCESS:    6220366  HIT:    5931918  MISS:     288448  HIT %:    95.3628  MISS %:    4.63715  MPKI: 5.76896
L1D PREFETCH DATA	ACCESS:     319549  HIT:     226808  MISS:      92741  HIT %:    70.9775  MISS %:    29.0225  MPKI: 1.85482

L1D PREFETCH  REQUESTED:     717915  ISSUED:     717915  USEFUL:      34166  USELESS:      67065
L1D USEFUL LOAD PREFETCHES:      34166 PREFETCH ISSUED TO LOWER LEVEL:     101264  ACCURACY: 33.7395
 TIMELY PREFETCHES:      34166 LATE PREFETCHES: 8493 DROPPED PREFETCHES: 17
L1D AVERAGE MISS LATENCY: 248762 cycles
L1D RQ	ACCESS:   10724531	FORWARD:          0	MERGED:    3928606	TO_CACHE:    6631926
L1D WQ	ACCESS:    6962760	FORWARD:     164390	MERGED:     194114	TO_CACHE:    6768646
L1D PQ	ACCESS:     359153	FORWARD:          0	MERGED:          0	TO_CACHE:     358762

L1D UNIQUE REGIONS ACCESSED: 0
L1D REGIONS CONFLICTS: 0
L1D Cross Page Prefetch Requests: 5894
L1D Same Page Prefetch Requests: 733939
L1D ROI Sum of L1D PQ occupancy: 4562618
L1D PREFETCHES PUSHED FROM L2C: 0
L1I TOTAL     ACCESS:    7215071  HIT:    4436120  MISS:    2778951  HIT %:    61.4841  MISS %:    38.5159   MPKI: 55.579
L1I LOAD INSTRUCTION	ACCESS:    6554253  HIT:    3775302  MISS:    2778951  HIT %:    57.6008  MISS %:    42.3992  MPKI: 55.579
L1I PREFETCH INSTRUCTION	ACCESS:     660818  HIT:     660818  MISS:          0  HIT %:        100  MISS %:          0  MPKI: 0

L1I PREFETCH  REQUESTED:    1580878  ISSUED:    1580878  USEFUL:          0  USELESS:          0
L1I USEFUL LOAD PREFETCHES:          0 PREFETCH ISSUED TO LOWER LEVEL:          0  ACCURACY: -nan
 TIMELY PREFETCHES:          0 LATE PREFETCHES: 0 DROPPED PREFETCHES: 0
L1I AVERAGE MISS LATENCY: 17.4122 cycles
L1I RQ	ACCESS:    9473551	FORWARD:          0	MERGED:    2616280	TO_CACHE:    6857271
L1I PQ	ACCESS:    1580878	FORWARD:          0	MERGED:     427558	TO_CACHE:    1153320

L1BTB TOTAL     ACCESS:    5667948  HIT:    2022261  MISS:    3645687  HIT %:    35.6789  MISS %:    64.3211   MPKI: 72.9137
L1BTB BRANCH_DIRECT_JUMP	ACCESS:     547875  HIT:     143849  MISS:     404026	AVERAGE STALL: 38.5103
L1BTB BRANCH_INDIRECT	ACCESS:     182503  HIT:      65489  MISS:     117014	AVERAGE STALL: 95.0011
L1BTB BRANCH_CONDITIONAL	ACCESS:    2694433  HIT:    1397417  MISS:    1297016	AVERAGE STALL: 48.5886
L1BTB BRANCH_DIRECT_CALL	ACCESS:     949387  HIT:     104695  MISS:     844692	AVERAGE STALL: 56.4272
L1BTB BRANCH_INDIRECT_CALL	ACCESS:     172184  HIT:      21016  MISS:     151168	AVERAGE STALL: 119.984
L1BTB BRANCH_RETURN	ACCESS:    1121566  HIT:     289795  MISS:     831771	AVERAGE STALL: 43.3054
L1BTB BRANCH_OTHER ACCESS:          0  HIT:          0  MISS:          0	AVERAGE STALL: -nan
L1BTB TOTAL ROB OCCUPANCY AT BTB MISS: 2.3672

L2BTB TOTAL     ACCESS:    3620372  HIT:    3552589  MISS:      67783  HIT %:    98.1277  MISS %:    1.87227   MPKI: 1.35566
L2BTB BRANCH_DIRECT_JUMP	ACCESS:     399943  HIT:     394530  MISS:       5413	AVERAGE STALL: 38.5103
L2BTB BRANCH_INDIRECT	ACCESS:     106668  HIT:     103925  MISS:       2743	AVERAGE STALL: 95.0011
L2BTB BRANCH_CONDITIONAL	ACCESS:    1297016  HIT:    1292880  MISS:       4136	AVERAGE STALL: 48.5886
L2BTB BRANCH_DIRECT_CALL	ACCESS:     844692  HIT:     843105  MISS:       1587	AVERAGE STALL: 56.4272
L2BTB BRANCH_INDIRECT_CALL	ACCESS:     141701  HIT:     131621  MISS:      10080	AVERAGE STALL: 119.984
L2BTB BRANCH_RETURN	ACCESS:     830352  HIT:     786528  MISS:      43824	AVERAGE STALL: 43.3054
L2BTB BRANCH_OTHER ACCESS:          0  HIT:          0  MISS:          0	AVERAGE STALL: -nan
L2BTB TOTAL ROB OCCUPANCY AT BTB MISS: 127.319

L2C TOTAL     ACCESS:    4515477  HIT:    3990864  MISS:     524613  HIT %:    88.3819  MISS %:    11.6181   MPKI: 10.4923
L2C LOAD INSTRUCTION	ACCESS:    2778953  HIT:    2495985  MISS:     282968  HIT %:    89.8175  MISS %:    10.1825  MPKI: 5.65936
L2C LOAD TRANSLATION INSTRUCTION	ACCESS:        467  HIT:        165  MISS:        302  HIT %:    35.3319  MISS %:    64.6681  MPKI: 0.00604
L2C LOAD DATA	ACCESS:     729569  HIT:     644316  MISS:      85253  HIT %:    88.3146  MISS %:    11.6854  MPKI: 1.70506
L2C RFO DATA	ACCESS:     288384  HIT:     229945  MISS:      58439  HIT %:    79.7357  MISS %:    20.2643  MPKI: 1.16878
L2C PREFETCH DATA	ACCESS:     189795  HIT:     112841  MISS:      76954  HIT %:    59.4541  MISS %:    40.5459  MPKI: 1.53908
L2C WRITEBACK DATA	ACCESS:     526376  HIT:     507085  MISS:      19291  HIT %:    96.3351  MISS %:    3.66487  MPKI: 0.38582
L2C LOAD TRANSLATION DATA	ACCESS:       1867  HIT:        482  MISS:       1385  HIT %:    25.8168  MISS %:    74.1832  MPKI: 0.0277
L2C TRANSLATION FROM L1D PREFETCHER DATA	ACCESS:         66  HIT:         45  MISS:         21  HIT %:    68.1818  MISS %:    31.8182  MPKI: 0.00042

L2C PREFETCH  REQUESTED:      97416  ISSUED:      97416  USEFUL:       8444  USELESS:      69156
L2C USEFUL LOAD PREFETCHES:       8444 PREFETCH ISSUED TO LOWER LEVEL:      77479  ACCURACY: 10.8984
 TIMELY PREFETCHES:       8444 LATE PREFETCHES: 525 DROPPED PREFETCHES: 0
L2C AVERAGE MISS LATENCY: 37.5248 cycles
L2C RQ	ACCESS:    3799377	FORWARD:          0	MERGED:          0	TO_CACHE:    3799309
L2C WQ	ACCESS:     526376	FORWARD:         68	MERGED:          0	TO_CACHE:     526376
L2C PQ	ACCESS:     198680	FORWARD:          0	MERGED:       4273	TO_CACHE:     194407

L2C Dense regions hint from L2: 0
PSCL5 TOTAL     ACCESS:       4476  HIT:       2238  MISS:       2238  HIT %:         50  MISS %:         50   MPKI: 0.04476
PSCL5 LOAD TRANSLATION INSTRUCTION	ACCESS:       4344  HIT:       2172  MISS:       2172  HIT %:         50  MISS %:         50  MPKI: 0.04344
PSCL5 TRANSLATION FROM L1D PREFETCHER INSTRUCTION	ACCESS:        132  HIT:         66  MISS:         66  HIT %:         50  MISS %:         50  MPKI: 0.00132


PSCL4 TOTAL     ACCESS:       3008  HIT:       1501  MISS:       1507  HIT %:    49.9003  MISS %:    50.0997   MPKI: 0.03014
PSCL4 LOAD TRANSLATION INSTRUCTION	ACCESS:       2533  HIT:       1463  MISS:       1070  HIT %:    57.7576  MISS %:    42.2424  MPKI: 0.0214
PSCL4 TRANSLATION FROM L1D PREFETCHER INSTRUCTION	ACCESS:         76  HIT:         38  MISS:         38  HIT %:         50  MISS %:         50  MPKI: 0.00076
PSCL4 LOAD TRANSLATION DATA	ACCESS:        399  HIT:          0  MISS:        399  HIT %:          0  MISS %:        100  MPKI: 0.00798


PSCL3 TOTAL     ACCESS:       4297  HIT:       2140  MISS:       2157  HIT %:    49.8022  MISS %:    50.1978   MPKI: 0.04314
PSCL3 LOAD TRANSLATION INSTRUCTION	ACCESS:       3779  HIT:       2088  MISS:       1691  HIT %:    55.2527  MISS %:    44.7473  MPKI: 0.03382
PSCL3 TRANSLATION FROM L1D PREFETCHER INSTRUCTION	ACCESS:        104  HIT:         52  MISS:         52  HIT %:         50  MISS %:         50  MPKI: 0.00104
PSCL3 LOAD TRANSLATION DATA	ACCESS:        414  HIT:          0  MISS:        414  HIT %:          0  MISS %:        100  MPKI: 0.00828


PSCL2 TOTAL     ACCESS:       4335  HIT:       2097  MISS:       2238  HIT %:    48.3737  MISS %:    51.6263   MPKI: 0.04476
PSCL2 LOAD TRANSLATION INSTRUCTION	ACCESS:       2448  HIT:       2031  MISS:        417  HIT %:    82.9657  MISS %:    17.0343  MPKI: 0.00834
PSCL2 TRANSLATION FROM L1D PREFETCHER INSTRUCTION	ACCESS:         66  HIT:         66  MISS:          0  HIT %:        100  MISS %:          0  MPKI: 0
PSCL2 LOAD TRANSLATION DATA	ACCESS:       1755  HIT:          0  MISS:       1755  HIT %:          0  MISS %:        100  MPKI: 0.0351
PSCL2 TRANSLATION FROM L1D PREFETCHER DATA	ACCESS:         66  HIT:          0  MISS:         66  HIT %:          0  MISS %:        100  MPKI: 0.00132


LLC TOTAL     ACCESS:     589223  HIT:     560674  MISS:      28549  HIT %:    95.1548  MISS %:    4.84519   MPKI: 0.57098
LLC LOAD INSTRUCTION	ACCESS:     282968  HIT:     281984  MISS:        984  HIT %:    99.6523  MISS %:   0.347743  MPKI: 0.01968
LLC LOAD TRANSLATION INSTRUCTION	ACCESS:        302  HIT:        280  MISS:         22  HIT %:    92.7152  MISS %:    7.28477  MPKI: 0.00044
LLC LOAD DATA	ACCESS:      84729  HIT:      81305  MISS:       3424  HIT %:    95.9589  MISS %:    4.04112  MPKI: 0.06848
LLC RFO DATA	ACCESS:      58424  HIT:      44479  MISS:      13945  HIT %:    76.1314  MISS %:    23.8686  MPKI: 0.2789
LLC PREFETCH DATA	ACCESS:      77479  HIT:      67710  MISS:       9769  HIT %:    87.3914  MISS %:    12.6086  MPKI: 0.19538
LLC WRITEBACK DATA	ACCESS:      83915  HIT:      83590  MISS:        325  HIT %:    99.6127  MISS %:   0.387297  MPKI: 0.0065
LLC LOAD TRANSLATION DATA	ACCESS:       1385  HIT:       1305  MISS:         80  HIT %:    94.2238  MISS %:    5.77617  MPKI: 0.0016
LLC TRANSLATION FROM L1D PREFETCHER DATA	ACCESS:         21  HIT:         21  MISS:          0  HIT %:        100  MISS %:          0  MPKI: 0

LLC AVERAGE MISS LATENCY: 156.969 cycles
LLC RQ	ACCESS:     427845	FORWARD:          0	MERGED:          0	TO_CACHE:     427831
LLC WQ	ACCESS:      83915	FORWARD:         14	MERGED:          0	TO_CACHE:      83915
LLC PQ	ACCESS:      77479	FORWARD:          0	MERGED:          0	TO_CACHE:      77479

LLC Dense regions hint to LLC: 0

RAW hits: 1917355
Loads Generated: 12641886
Loads sent to L1D: 10724531
Stores Generated: 6962748
Stores sent to L1D: 6962760
Major fault: 0 Minor fault: 2609
Allocated PAGES: 2609

stream: 
stream:times selected: 1167154
stream:pref_filled: 119668
stream:pref_useful: 23838
stream:pref_late: 6838
stream:misses: 6626
stream:misses_by_poll: 0

CS: 
CS:times selected: 175056
CS:pref_filled: 58575
CS:pref_useful: 35079
CS:pref_late: 7024
CS:misses: 16110
CS:misses_by_poll: 5

CPLX: 
CPLX:times selected: 990985
CPLX:pref_filled: 19230
CPLX:pref_useful: 4344
CPLX:pref_late: 3080
CPLX:misses: 90356
CPLX:misses_by_poll: 1

NL_L1: 
NL:times selected: 19228
NL:pref_filled: 537
NL:pref_useful: 248
NL:pref_late: 206
NL:misses: 1012
NL:misses_by_poll: 0

total selections: 2352423
total_filled: 92741
total_useful: 34166
total_late: 18574
total_polluted: 6
total_misses_after_warmup: 774321
conflicts: 5554532

test: 112427

DRAM Statistics
 CHANNEL 0
 RQ ROW_BUFFER_HIT:      10453  ROW_BUFFER_MISS:      17747
 DBUS_CONGESTED:         13
 WQ ROW_BUFFER_HIT:       1422  ROW_BUFFER_MISS:      12255  FULL:          0

 AVG_CONGESTED_CYCLE: 5

CPU 0 Branch Prediction Accuracy: 99.821% MPKI: 0.3275 Average ROB Occupancy at Mispredict: 172.849
Branch types
NOT_BRANCH: 40852492 81.705%
BRANCH_DIRECT_JUMP: 547875 1.09575%
BRANCH_INDIRECT: 182503 0.365006%
BRANCH_CONDITIONAL: 6173867 12.3477%
BRANCH_DIRECT_CALL: 949387 1.89877%
BRANCH_INDIRECT_CALL: 172184 0.344368%
BRANCH_RETURN: 1121566 2.24313%
BRANCH_OTHER: 0 0%

DRAM PAGES: 1048576
Allocated PAGES: 2609
Average_ROB_Occupancy: 212.028
Average_Decode_Occupancy: 27.3467
Average_FTQ_Occupancy: 10.6832
Indirect max targets: 14 Average targets: 1.1746
Branch_type:  BRANCH_DIRECT_JUMP:  Count Percentage: 3.28651 5.30834 4.94889 7.4641 2.31645 6.51678 1.58569 68.5732 
Branch_type:  BRANCH_INDIRECT:  Count Percentage: 19.7443 13.0942 5.30972 3.77514 2.00879 1.20101 3.22704 51.6398 
Branch_type:  BRANCH_CONDITIONAL:  Count Percentage: 22.0459 6.18827 2.57121 4.05516 2.42599 7.98923 0.953545 53.7706 
Branch_type:  BRANCH_DIRECT_CALL:  Count Percentage: 0.777437 1.31549 1.00463 4.69667 3.12596 2.73808 0.696991 85.6448 
Branch_type:  BRANCH_INDIRECT_CALL:  Count Percentage: 9.57958 0 3.00415 4.30282 0.86103 2.99658 0.997212 78.2586 
Branch_type:  BRANCH_RETURN:  Count Percentage: 5.12397 5.91904 2.59448 3.98772 4.76711 8.08586 1.18359 68.3382 
Branch_type:  BRANCH_DIRECT_JUMP:  Total Count: 35997 58142 54205 81754 25372 71378 17368 751080 
Branch_type:  BRANCH_INDIRECT:  Total Count: 72154 47852 19404 13796 7341 4389 11793 188714 
Branch_type:  BRANCH_CONDITIONAL:  Total Count: 2721477 763915 317405 500592 299478 986236 117711 6637753 
Branch_type:  BRANCH_DIRECT_CALL:  Total Count: 14728 24921 19032 88975 59219 51871 13204 1622479 
Branch_type:  BRANCH_INDIRECT_CALL:  Total Count: 32921 0 10324 14787 2959 10298 3427 268942 
Branch_type:  BRANCH_RETURN:  Total Count: 114723 132524 58089 89283 106733 181038 26500 1530056 
Number of unique branch instructions: 10676
Upper 32 bits: 
aaaa
ffff
ffff0000
Unique upper 32 bits: 3
Unique upper 36 bits: 3
Unique upper 40 bits: 5
Unique upper 44 bits: 32
Unique upper 48 bits: 158
Variant_0 : 1419 0.346436
Variant_1 : 1288 0.314453
Variant_2 : 1360 0.332031
Variant_3 : 0 0
Offset_3 4428
Offset_4 258
Offset_5 477
Offset_6 535
Offset_7 634
Offset_8 572
Offset_9 511
Offset_10 415
Offset_11 340
Offset_12 307
Offset_13 240
Offset_14 245
Offset_15 194
Offset_16 227
Offset_17 165
Offset_18 148
Offset_19 261
Offset_20 141
Offset_21 235
Offset_22 411
Offset_23 241
Offset_24 349
Offset_25 117
Offset_47 94
Offset_64 1
decode_dispatch_called: 23646433 63.9262
Dispatch_width: 0 12448495 52.6443 33.6535
Dispatch_width: 1 815691 3.44953 2.20515
Dispatch_width: 2 769679 3.25495 2.08077
Dispatch_width: 3 466375 1.97228 1.26081
Dispatch_width: 4 4209821 17.8032 11.3809
Dispatch_width: 5 211707 0.895302 0.572333
Dispatch_width: 6 4724665 19.9805 12.7728
Empty_decode_cycles: 13343756 36.0738
ROB_full_cycles: 6672092 18.0375
Starvation_cycles_per_kilo_instr: 255.934
Starvation_cycles_per_kilo_instr_3: 211.719
Starvation_cycles_per_kilo_instr_0: 191.202
Branch_type_1  (3,1)  (4,9)  (5,39)  (6,72)  (7,124)  (8,148)  (9,133)  (10,109)  (11,76)  (12,47)  (13,11)  (14,2)  (15,3)  (16,4)  (18,1)  (19,5)  (20,2)  (21,1)  (22,3)  (23,2)  (24,10)  (25,12) 
Branch_type_2  (3,1)  (4,1)  (5,1)  (8,4)  (9,4)  (10,1)  (12,1)  (13,1)  (14,1)  (16,3)  (17,2)  (20,2)  (21,2)  (23,5)  (24,1)  (47,43) 
Branch_type_3  (3,4426)  (4,248)  (5,433)  (6,447)  (7,481)  (8,354)  (9,280)  (10,167)  (11,129)  (12,54)  (13,10)  (64,1) 
Branch_type_4  (6,3)  (7,8)  (8,25)  (9,56)  (10,66)  (11,69)  (12,114)  (13,102)  (14,110)  (15,92)  (16,99)  (17,76)  (18,63)  (19,128)  (20,72)  (21,124)  (22,217)  (23,136)  (24,204)  (25,101) 
Branch_type_5  (8,3)  (9,1)  (10,4)  (11,5)  (12,3)  (13,14)  (14,16)  (15,11)  (16,22)  (17,11)  (18,23)  (19,14)  (20,11)  (21,13)  (22,43)  (23,26)  (24,38) 
Branch_type_6  (5,4)  (6,13)  (7,21)  (8,38)  (9,37)  (10,68)  (11,61)  (12,88)  (13,102)  (14,116)  (15,88)  (16,99)  (17,76)  (18,61)  (19,114)  (20,54)  (21,95)  (22,148)  (23,72)  (24,96)  (25,4)  (47,51) 
Unique trigger count: 
Variant_0_evicts_0 : 0
Variant_0_evicts_1 : 0
Variant_0_evicts_2 : 0
Variant_0_evicts_3 : 0
Variant_1_evicts_0 : 0
Variant_1_evicts_1 : 0
Variant_1_evicts_2 : 0
Variant_1_evicts_3 : 0
Variant_2_evicts_0 : 0
Variant_2_evicts_1 : 0
Variant_2_evicts_2 : 0
Variant_2_evicts_3 : 0
Variant_3_evicts_0 : 0
Variant_3_evicts_1 : 0
Variant_3_evicts_2 : 0
Variant_3_evicts_3 : 0
BTB PER SET UNIQUE ADDR: 13 12 11 14 12 15 8 9 10 15 10 15 16 14 11 11 9 11 14 17 12 16 17 14 12 15 8 14 11 13 16 15 13 7 10 10 15 13 7 9 11 11 14 14 11 12 12 6 13 12 14 14 10 17 9 8 13 10 11 9 11 15 10 14 13 9 12 11 17 11 15 15 19 8 8 10 10 17 10 22 15 9 16 15 10 16 16 11 11 18 8 10 10 12 9 21 10 11 14 15 19 19 16 8 11 10 9 9 6 7 15 18 17 12 11 7 14 15 16 14 9 12 9 11 12 11 8 8 15 8 11 14 12 12 12 17 9 18 11 17 9 15 14 12 16 16 16 10 8 12 14 14 11 13 9 11 13 17 10 11 15 10 14 17 13 12 13 13 9 9 15 14 15 14 13 11 12 13 10 15 7 16 12 16 11 16 5 14 10 15 14 14 8 11 7 13 9 13 13 17 13 15 9 9 9 11 14 11 11 11 9 13 13 13 9 13 12 8 12 19 10 14 7 7 9 13 17 11 10 15 14 7 10 17 11 11 13 13 13 7 14 10 12 17 9 13 8 13 12 12 19 12 15 14 15 10 13 10 7 12 12 6 6 9 13 8 9 7 10 13 9 10 13 5 9 8 12 16 14 11 9 11 8 11 13 12 13 15 18 13 10 13 10 18 11 9 11 13 11 13 8 12 13 19 13 14 15 9 17 14 15 13 10 15 12 5 23 12 9 15 10 15 12 12 10 16 15 12 14 8 12 17 10 9 13 19 9 11 6 16 13 14 9 17 11 13 12 13 9 11 9 11 10 17 12 14 14 15 12 9 10 12 9 17 13 13 11 11 15 12 12 9 18 14 7 24 15 16 16 11 12 13 14 13 12 12 10 11 14 15 14 12 11 18 10 9 12 11 16 15 12 17 11 12 15 20 14 14 14 11 14 12 10 14 13 13 12 12 20 15 10 15 18 13 17 14 18 14 9 9 16 12 15 11 17 15 18 10 12 12 16 10 11 12 21 10 12 10 15 14 18 12 17 11 19 20 14 11 10 17 11 12 14 14 17 16 16 14 14 15 15 14 15 13 14 18 15 18 7 15 17 18 12 15 9 13 17 18 12 15 11 13 12 9 10 12 15 10 8 13 16 20 12 16 6 9 9 17 11 17 14 12 16 11 14 14 10 15 9 12 10 12 9 10 12 17 20 11 9 17 12 12 21 10 13 15 7 16 17 13 13 12 15 13 17 14 10 13 9 12 10 14 14 12 12 14 12 15 18 18 10 19 13 15 13 12 9 15 15 15 15 16 16 13 12 15 17 17 11 10 11 12 7 14 16 8 14 14 18 17 7 16 12 15 12 9 10 11 11 13 14 8 10 8 12 16 15 12 10 13 9 11 16 12 6 19 12 16 15 15 19 15 5 9 13 19 10 14 12 14 11 18 17 17 19 13 11 17 11 20 11 15 18 17 12 12 15 13 11 12 12 14 10 14 16 16 13 13 13 14 9 7 16 19 12 16 10 13 11 11 18 10 9 14 20 10 16 15 17 15 15 18 10 12 16 11 10 13 15 15 14 15 10 7 9 10 9 14 8 18 9 17 11 15 6 16 13 14 17 10 11 13 9 9 12 9 11 9 11 16 8 11 11 13 12 10 14 13 9 11 15 7 12 7 10 15 13 16 15 16 11 9 10 13 14 20 12 11 10 9 17 13 11 10 11 14 13 11 9 6 14 11 5 14 13 17 8 9 9 13 13 20 14 6 11 11 18 14 21 18 12 16 17 9 12 7 14 17 7 6 8 8 16 7 19 15 12 10 18 9 26 15 16 13 19 10 11 13 13 13 14 16 12 14 16 16 14 16 7 19 11 12 8 11 10 10 10 9 14 14 12 10 13 14 12 13 10 14 12 15 16 14 14 13 13 18 9 18 14 14 8 16 10 14 12 23 11 10 13 17 12 9 11 9 20 8 14 12 19 14 12 12 15 13 15 7 17 14 11 15 15 9 15 17 11 15 14 10 13 18 12 14 13 14 10 10 16 15 12 11 8 11 13 10 9 14 10 12 8 14 13 15 8 12 18 17 17 11 6 14 12 15 12 14 13 12 5 17 14 10 16 22 18 15 13 13 11 15 14 14 10 18 14 13 13 12 13 16 10 14 14 14 15 14 10 15 15 14 16 16 13 12 11 12 15 16 15 10 8 13 15 13 14 11 14 13 15 16 21 15 13 14 13 11 9 19 18 12 16 15 14 15 12 13 16 11 10 13 18 11 17 16 13 7 13 14 11 18 14 18 10 13 9 12 9 10 12 10 5 8 14 15 14 7 
BTB PER SET COUNT: 377 17 1934 19 14 25 10 9 1490 22 16 504 20447 1497 14 13 1004 15 352 19 15 17 784 14 24 21 10 612 322 1489 19 17 13 8 12 10 27 19 8 835 12 14 17 24 1269 48 13 9 24 498 22 444 12 26 29 11 14 13 16 10 12 24 480 19 16 14 16 16 25 16 23 210 21 12 12 12 14 889 10 29 205 14 25 251 16 1958 19 15 770 24 9 839 491 16 11 32 95 1006 19 1465 25 299 16 12 645 18 17 9 381 7 24 20 268 12 20 8 17 20 2108 23 198 15 14 12 15 97 13 8 27 905 13 1262 19 16 16 24 824 23 11 35 13 25 35 23 26 360 63 70 14 22 16 117 1754 16 10 17 1003 17 14 17 32 13 187 18 1239 16 20 16 9 382 18 17 15 18 22 16 21 23 11 141 8 130 2838 24 13 21 9 22 10 937 27 16 8 16 7 119 17 15 16 79 18 84 814 9 9 17 18 395 15 656 9 15 14 20 11 31 16 10 2734 33 15 24 7 9 9 28 31 248 13 20 32 9 13 22 1199 13 46 398 1252 8 18 12 20 29 13 274 55 20 17 21 33 18 17 16 21 17 91 144 8 16 1010 6 9 221 18 10 13 16 1670 19 12 12 14 5 14 8 13 24 16 11 14 19 192 17 15 16 14 730 23 21 10 17 11 321 15 9 12 18 13 71 12 13 14 27 20 29 66 13 329 761 21 21 14 17 1490 7 38 24 10 21 11 3909 15 17 11 32 510 19 21 10 16 24 12 17 21 899 13 159 8 26 21 1302 14 390 13 17 12 23 9 14 12 16 20 25 14 17 19 27 527 15 18 19 11 22 16 867 13 11 25 13 14 97 23 1500 8 151 20 22 41 23 1255 14 22 14 21 15 13 12 22 195 20 17 15 381 12 9 13 18 1541 909 12 22 11 15 27 24 18 110 25 17 15 15 16 17 17 17 13 16 199 16 10 25 24 22 33 14 23 16 14 13 62 18 28 18 26 20 20 47 17 16 20 11 32 18 2505 10 18 17 24 25 1741 19 33 12 26 94 17 18 10 27 48 14 22 17 22 175 1737 29 21 18 30 28 17 14 28 24 18 24 8 17 30 268 13 18 137 190 22 29 23 19 142 20 954 12 11 18 947 14 10 15 22 31 14 17 10 12 13 28 14 29 21 312 29 784 22 24 12 21 13 141 12 18 10 16 14 22 32 26 11 70 22 20 34 13 14 21 1411 929 20 390 20 16 21 15 22 101 11 22 11 805 13 24 796 137 18 17 13 19 26 28 10 34 18 18 24 14 9 31 18 568 855 24 16 13 21 18 27 32 16 16 14 19 8 4569 23 10 18 19 23 19 57 29 16 18 15 9 10 495 11 21 17 12 128 8 14 20 21 3362 10 17 14 11 326 13 9 26 14 18 21 448 33 17 20 860 16 28 10 189 231 14 15 32 830 30 23 18 16 25 15 30 17 19 27 21 13 21 313 17 32 21 14 22 11 24 21 27 15 17 24 18 15 10 24 27 280 40 16 1016 1491 13 24 13 827 19 65 15 19 18 24 28 25 23 11 23 28 16 14 18 16 25 17 34 12 9 2174 15 10 1263 8 36 612 34 13 21 6 45 16 15 52 15 20 22 805 16 18 11 220 12 17 684 15 24 14 818 15 15 24 22 601 13 21 13987 14 7 22 25 16 22 64 20 16 11 12 20 233 29 412 14 14 10 737 19 88 10 1136 20 13 14 13 6 19 15 9 15 18 33 12 11 13 312 70 25 22 9 13 15 24 589 34 34 16 19 993 9 19 214 17 20 8 6 12 8 23 14 762 19 15 15 22 1002 94 29 27 196 25 15 14 20 18 65 23 6539 22 24 21 1145 20 382 12 449 12 18 8 16 10 10 10 11 18 20 25 10 18 18 534 1877 13 17 18 229 23 202 16 16 107 26 302 28 20 17 8 1720 25 22 1489 42 13 13 26 28 13 11 15 15 157 9 22 20 28 27 13 23 22 20 22 7 29 18 2891 19 22 9 158 19 310 218 22 11 16 36 15 15 27 16 13 11 38 22 391 16 11 16 22 892 12 14 19 25 13 21 445 501 13 18 31 59 311 1007 6 28 13 685 975 550 13 262 6 25 22 12 23 34 628 17 17 19 21 29 24 22 10 1366 19 18 22 15 24 16 15 26 314 894 1513 1378 12 23 39 16 163 29 16 31 971 14 16 28 22 11 8 22 67 978 21 17 33 13 22 19 226 578 24 15 16 1006 11 686 369 76 27 19 19 1742 12 59 26 18 12 1490 36 13 39 582 19 8 19 20 15 26 16 31 33 372 11 14 10 14 15 290 5 14 16 22 25 7 
To predecode: 0
Predecoding something: 0
Predecode request dropped: 0
sizeofblock_0 0
sizeofblock_1 37906
sizeofblock_2 36731
sizeofblock_3 45665
sizeofblock_4 23242
sizeofblock_5 0
sizeofblock_6 0
sizeofblock_7 0
sizeofblock_8 0
Variant_0 Correct: 1617190 Incorrect: 0 Accuracy: 1
Variant_1 Correct: 2095237 Incorrect: 0 Accuracy: 1
Variant_2 Correct: 3653314 Incorrect: 0 Accuracy: 1
Variant_3 Correct: 0 Incorrect: 0 Accuracy: -nan
