
*** ChampSim Multicore Out-of-Order Simulator ***

Warmup Instructions: 50000000
Simulation Instructions: 50000000
Number of CPUs: 1
LLC sets: 2048
LLC ways: 16
Off-chip DRAM Size: 4096 MB Channels: 1 Width: 64-bit Data Rate: 6400 MT/s
CPU 0 runs ./micro_traces/srv625.trace.gz
.gz
ITLB has LRU replacement policy
DTLB has LRU replacement policy
STLB has LRU replacement policy
FDIP Prefetcher at L1I
L1I has LRU replacement policy
L1D has LRU replacement policy
Initialize SRRIP state for L2C
Initialize DRRIP state for LLC
Heartbeat_Variant_0 : 1327 0.323975 per_variant_size: 0 1327 0 0 0 0 0 0 0 
Heartbeat_Variant_1 : 2535 0.618896 per_variant_size: 0 561 1974 0 0 0 0 0 0 
Heartbeat_Variant_2 : 0 0 per_variant_size: 0 0 0 0 0 0 0 0 0 
Heartbeat_Variant_3 : 0 0 per_variant_size: 0 0 0 0 0 0 0 0 0 
Heartbeat_Variant_0_evicts 0 : 5809 1 : 534 2 : 0 3 : 0 
Heartbeat_Variant_1_evicts 0 : 504 1 : 0 2 : 0 3 : 0 
Heartbeat_Variant_2_evicts 0 : 0 1 : 0 2 : 0 3 : 0 
Heartbeat_Variant_3_evicts 0 : 0 1 : 0 2 : 0 3 : 0 
Heartbeat CPU 0 instructions: 10000002 cycles: 2796494 heartbeat IPC: 3.57591 cumulative IPC: 3.57591 (Simulation time: 0 hr 1 min 42 sec) 
Heartbeat_Variant_0 : 1344 0.328125 per_variant_size: 0 1344 0 0 0 0 0 0 0 
Heartbeat_Variant_1 : 2582 0.630371 per_variant_size: 0 525 2057 0 0 0 0 0 0 
Heartbeat_Variant_2 : 0 0 per_variant_size: 0 0 0 0 0 0 0 0 0 
Heartbeat_Variant_3 : 0 0 per_variant_size: 0 0 0 0 0 0 0 0 0 
Heartbeat_Variant_0_evicts 0 : 5698 1 : 170 2 : 0 3 : 0 
Heartbeat_Variant_1_evicts 0 : 170 1 : 0 2 : 0 3 : 0 
Heartbeat_Variant_2_evicts 0 : 0 1 : 0 2 : 0 3 : 0 
Heartbeat_Variant_3_evicts 0 : 0 1 : 0 2 : 0 3 : 0 
Heartbeat CPU 0 instructions: 20000002 cycles: 5592572 heartbeat IPC: 3.57644 cumulative IPC: 3.57617 (Simulation time: 0 hr 3 min 15 sec) 
Heartbeat_Variant_0 : 1355 0.330811 per_variant_size: 0 1355 0 0 0 0 0 0 0 
Heartbeat_Variant_1 : 2590 0.632324 per_variant_size: 0 514 2076 0 0 0 0 0 0 
Heartbeat_Variant_2 : 0 0 per_variant_size: 0 0 0 0 0 0 0 0 0 
Heartbeat_Variant_3 : 0 0 per_variant_size: 0 0 0 0 0 0 0 0 0 
Heartbeat_Variant_0_evicts 0 : 5762 1 : 91 2 : 0 3 : 0 
Heartbeat_Variant_1_evicts 0 : 84 1 : 0 2 : 0 3 : 0 
Heartbeat_Variant_2_evicts 0 : 0 1 : 0 2 : 0 3 : 0 
Heartbeat_Variant_3_evicts 0 : 0 1 : 0 2 : 0 3 : 0 
Heartbeat CPU 0 instructions: 30000003 cycles: 8388873 heartbeat IPC: 3.57615 cumulative IPC: 3.57617 (Simulation time: 0 hr 4 min 54 sec) 
Heartbeat_Variant_0 : 1365 0.333252 per_variant_size: 0 1365 0 0 0 0 0 0 0 
Heartbeat_Variant_1 : 2591 0.632568 per_variant_size: 0 512 2079 0 0 0 0 0 0 
Heartbeat_Variant_2 : 0 0 per_variant_size: 0 0 0 0 0 0 0 0 0 
Heartbeat_Variant_3 : 0 0 per_variant_size: 0 0 0 0 0 0 0 0 0 
Heartbeat_Variant_0_evicts 0 : 5608 1 : 119 2 : 0 3 : 0 
Heartbeat_Variant_1_evicts 0 : 112 1 : 0 2 : 0 3 : 0 
Heartbeat_Variant_2_evicts 0 : 0 1 : 0 2 : 0 3 : 0 
Heartbeat_Variant_3_evicts 0 : 0 1 : 0 2 : 0 3 : 0 
Heartbeat CPU 0 instructions: 40000000 cycles: 11185864 heartbeat IPC: 3.57527 cumulative IPC: 3.57594 (Simulation time: 0 hr 6 min 31 sec) 
Heartbeat_Variant_0 : 1364 0.333008 per_variant_size: 0 1364 0 0 0 0 0 0 0 
Heartbeat_Variant_1 : 2593 0.633057 per_variant_size: 0 510 2083 0 0 0 0 0 0 
Heartbeat_Variant_2 : 0 0 per_variant_size: 0 0 0 0 0 0 0 0 0 
Heartbeat_Variant_3 : 0 0 per_variant_size: 0 0 0 0 0 0 0 0 0 
Heartbeat_Variant_0_evicts 0 : 5573 1 : 12 2 : 0 3 : 0 
Heartbeat_Variant_1_evicts 0 : 13 1 : 0 2 : 0 3 : 0 
Heartbeat_Variant_2_evicts 0 : 0 1 : 0 2 : 0 3 : 0 
Heartbeat_Variant_3_evicts 0 : 0 1 : 0 2 : 0 3 : 0 
Heartbeat CPU 0 instructions: 50000003 cycles: 13981805 heartbeat IPC: 3.57661 cumulative IPC: 3.57608 (Simulation time: 0 hr 8 min 7 sec) 

Warmup complete CPU 0 instructions: 50000003 cycles: 13981805 (Simulation time: 0 hr 8 min 7 sec) 

Cycle: 20000000 FTQ IN: 58080825 FTQ occupancy: 19.2364 DECODE IN: 58080814 DECODE occupancy: 50.0588 ROB IN: 58080754 ROB occupancy: 305.98 ROB OUT: 58080564
Heartbeat_Variant_0 : 1370 0.334473 per_variant_size: 0 1370 0 0 0 0 0 0 0 
Heartbeat_Variant_1 : 2623 0.640381 per_variant_size: 0 507 2116 0 0 0 0 0 0 
Heartbeat_Variant_2 : 0 0 per_variant_size: 0 0 0 0 0 0 0 0 0 
Heartbeat_Variant_3 : 0 0 per_variant_size: 0 0 0 0 0 0 0 0 0 
Heartbeat_Variant_0_evicts 0 : 5733 1 : 262 2 : 0 3 : 0 
Heartbeat_Variant_1_evicts 0 : 261 1 : 0 2 : 0 3 : 0 
Heartbeat_Variant_2_evicts 0 : 0 1 : 0 2 : 0 3 : 0 
Heartbeat_Variant_3_evicts 0 : 0 1 : 0 2 : 0 3 : 0 
Heartbeat CPU 0 instructions: 60000002 cycles: 21399564 heartbeat IPC: 1.34812 cumulative IPC: 1.34812 (Simulation time: 0 hr 9 min 50 sec) 
Heartbeat_Variant_0 : 1370 0.334473 per_variant_size: 0 1370 0 0 0 0 0 0 0 
Heartbeat_Variant_1 : 2623 0.640381 per_variant_size: 0 511 2112 0 0 0 0 0 0 
Heartbeat_Variant_2 : 0 0 per_variant_size: 0 0 0 0 0 0 0 0 0 
Heartbeat_Variant_3 : 0 0 per_variant_size: 0 0 0 0 0 0 0 0 0 
Heartbeat_Variant_0_evicts 0 : 5613 1 : 1 2 : 0 3 : 0 
Heartbeat_Variant_1_evicts 0 : 1 1 : 0 2 : 0 3 : 0 
Heartbeat_Variant_2_evicts 0 : 0 1 : 0 2 : 0 3 : 0 
Heartbeat_Variant_3_evicts 0 : 0 1 : 0 2 : 0 3 : 0 
Heartbeat CPU 0 instructions: 70000002 cycles: 28686931 heartbeat IPC: 1.37224 cumulative IPC: 1.36007 (Simulation time: 0 hr 11 min 30 sec) 
Cycle: 30000000 FTQ IN: 13708507 FTQ occupancy: 10.5831 DECODE IN: 13708470 DECODE occupancy: 27.6243 ROB IN: 13708530 ROB occupancy: 213.13 ROB OUT: 13708700
Heartbeat_Variant_0 : 1372 0.334961 per_variant_size: 0 1372 0 0 0 0 0 0 0 
Heartbeat_Variant_1 : 2633 0.642822 per_variant_size: 0 505 2128 0 0 0 0 0 0 
Heartbeat_Variant_2 : 0 0 per_variant_size: 0 0 0 0 0 0 0 0 0 
Heartbeat_Variant_3 : 0 0 per_variant_size: 0 0 0 0 0 0 0 0 0 
Heartbeat_Variant_0_evicts 0 : 5660 1 : 160 2 : 0 3 : 0 
Heartbeat_Variant_1_evicts 0 : 158 1 : 0 2 : 0 3 : 0 
Heartbeat_Variant_2_evicts 0 : 0 1 : 0 2 : 0 3 : 0 
Heartbeat_Variant_3_evicts 0 : 0 1 : 0 2 : 0 3 : 0 
Heartbeat CPU 0 instructions: 80000003 cycles: 36111977 heartbeat IPC: 1.34679 cumulative IPC: 1.35562 (Simulation time: 0 hr 13 min 11 sec) 
Cycle: 40000000 FTQ IN: 13546373 FTQ occupancy: 10.6046 DECODE IN: 13546408 DECODE occupancy: 27.3564 ROB IN: 13546408 ROB occupancy: 211.242 ROB OUT: 13546428
Heartbeat_Variant_0 : 1372 0.334961 per_variant_size: 0 1372 0 0 0 0 0 0 0 
Heartbeat_Variant_1 : 2634 0.643066 per_variant_size: 0 510 2124 0 0 0 0 0 0 
Heartbeat_Variant_2 : 0 0 per_variant_size: 0 0 0 0 0 0 0 0 0 
Heartbeat_Variant_3 : 0 0 per_variant_size: 0 0 0 0 0 0 0 0 0 
Heartbeat_Variant_0_evicts 0 : 5601 1 : 19 2 : 0 3 : 0 
Heartbeat_Variant_1_evicts 0 : 19 1 : 0 2 : 0 3 : 0 
Heartbeat_Variant_2_evicts 0 : 0 1 : 0 2 : 0 3 : 0 
Heartbeat_Variant_3_evicts 0 : 0 1 : 0 2 : 0 3 : 0 
Heartbeat CPU 0 instructions: 90000003 cycles: 43390123 heartbeat IPC: 1.37398 cumulative IPC: 1.36016 (Simulation time: 0 hr 14 min 52 sec) 
Cycle: 50000000 FTQ IN: 13569912 FTQ occupancy: 10.6959 DECODE IN: 13569886 DECODE occupancy: 27.6247 ROB IN: 13569856 ROB occupancy: 213.91 ROB OUT: 13569725
Heartbeat_Variant_0 : 1373 0.335205 per_variant_size: 0 1373 0 0 0 0 0 0 0 
Heartbeat_Variant_1 : 2637 0.643799 per_variant_size: 0 509 2128 0 0 0 0 0 0 
Heartbeat_Variant_2 : 0 0 per_variant_size: 0 0 0 0 0 0 0 0 0 
Heartbeat_Variant_3 : 0 0 per_variant_size: 0 0 0 0 0 0 0 0 0 
Heartbeat_Variant_0_evicts 0 : 5582 1 : 111 2 : 0 3 : 0 
Heartbeat_Variant_1_evicts 0 : 111 1 : 0 2 : 0 3 : 0 
Heartbeat_Variant_2_evicts 0 : 0 1 : 0 2 : 0 3 : 0 
Heartbeat_Variant_3_evicts 0 : 0 1 : 0 2 : 0 3 : 0 
Heartbeat CPU 0 instructions: 100000001 cycles: 50803871 heartbeat IPC: 1.34885 cumulative IPC: 1.35788 (Simulation time: 0 hr 16 min 26 sec) 
Finished CPU 0 instructions: 50000002 cycles: 36822067 cumulative IPC: 1.35788 (Simulation time: 0 hr 16 min 26 sec) 

ChampSim completed all CPUs

Region of Interest Statistics

CPU 0 cumulative IPC: 1.35788 instructions: 50000002 cycles: 36822067
 Fetch stage stalled: 60.2079  Sim cycles: 36822067 fetch stall cycle: 22169794
 Empty decode stage: 48.5699  Sim cycles: 36822067 fetch stall cycle: 17884437
ITLB TOTAL     ACCESS:    5848652  HIT:    5352831  MISS:     495821  HIT %:    91.5225  MISS %:    8.47753   MPKI: 9.91642
ITLB LOAD TRANSLATION INSTRUCTION	ACCESS:    5722467  HIT:    5226646  MISS:     495821  HIT %:    91.3355  MISS %:    8.66446  MPKI: 9.91642
ITLB TRANSLATION FROM L1D PREFETCHER INSTRUCTION	ACCESS:     126185  HIT:     126185  MISS:          0  HIT %:        100  MISS %:          0  MPKI: 0

ITLB AVERAGE MISS LATENCY: 9.05698 cycles
ITLB RQ	ACCESS:    7988726	FORWARD:          0	MERGED:    1713962	TO_CACHE:    6274764

DTLB TOTAL     ACCESS:    9023621  HIT:    8549481  MISS:     474140  HIT %:    94.7456  MISS %:    5.25443   MPKI: 9.4828
DTLB LOAD TRANSLATION DATA	ACCESS:    9023621  HIT:    8549481  MISS:     474140  HIT %:    94.7456  MISS %:    5.25443  MPKI: 9.4828

DTLB AVERAGE MISS LATENCY: 9.32072 cycles
DTLB RQ	ACCESS:   13384194	FORWARD:          0	MERGED:    4324477	TO_CACHE:    9059717

STLB TOTAL     ACCESS:    1218123  HIT:    1216132  MISS:       1991  HIT %:    99.8366  MISS %:   0.163448   MPKI: 0.03982
STLB LOAD TRANSLATION INSTRUCTION	ACCESS:     495821  HIT:     495579  MISS:        242  HIT %:    99.9512  MISS %:  0.0488079  MPKI: 0.00484
STLB LOAD TRANSLATION DATA	ACCESS:     474137  HIT:     472419  MISS:       1718  HIT %:    99.6377  MISS %:   0.362343  MPKI: 0.03436
STLB TRANSLATION FROM L1D PREFETCHER DATA	ACCESS:     248165  HIT:     248134  MISS:         31  HIT %:    99.9875  MISS %:  0.0124917  MPKI: 0.00062

STLB AVERAGE MISS LATENCY: 73.4872 cycles
STLB RQ	ACCESS:    1337875	FORWARD:          0	MERGED:     119720	TO_CACHE:    1218155

STLB Hit, L1D data hit: 0
STLB Hit, L2C data hit: 0
STLB Hit, LLC data hit: 0
STLB Hit, LLC data miss: 0
STLB STLB hints to L2: 0
L1D TOTAL     ACCESS:   13125913  HIT:   12005338  MISS:    1120575  HIT %:    91.4629  MISS %:    8.53712   MPKI: 22.4115
L1D LOAD DATA	ACCESS:    6587828  HIT:    5850618  MISS:     737210  HIT %:    88.8095  MISS %:    11.1905  MPKI: 14.7442
L1D RFO DATA	ACCESS:    6211553  HIT:    5924145  MISS:     287408  HIT %:     95.373  MISS %:    4.62699  MPKI: 5.74816
L1D PREFETCH DATA	ACCESS:     326532  HIT:     230575  MISS:      95957  HIT %:    70.6133  MISS %:    29.3867  MPKI: 1.91914

L1D PREFETCH  REQUESTED:     736181  ISSUED:     736181  USEFUL:      35644  USELESS:      68496
L1D USEFUL LOAD PREFETCHES:      35644 PREFETCH ISSUED TO LOWER LEVEL:     104187  ACCURACY: 34.2116
 TIMELY PREFETCHES:      35644 LATE PREFETCHES: 8190 DROPPED PREFETCHES: 6
L1D AVERAGE MISS LATENCY: 236846 cycles
L1D RQ	ACCESS:   10719629	FORWARD:          0	MERGED:    3935773	TO_CACHE:    6621949
L1D WQ	ACCESS:    6957200	FORWARD:     162262	MERGED:     194955	TO_CACHE:    6762245
L1D PQ	ACCESS:     368268	FORWARD:          0	MERGED:          0	TO_CACHE:     367913

L1D UNIQUE REGIONS ACCESSED: 0
L1D REGIONS CONFLICTS: 0
L1D Cross Page Prefetch Requests: 7054
L1D Same Page Prefetch Requests: 746690
L1D ROI Sum of L1D PQ occupancy: 4683650
L1D PREFETCHES PUSHED FROM L2C: 0
L1I TOTAL     ACCESS:    7194950  HIT:    4422165  MISS:    2772785  HIT %:    61.4621  MISS %:    38.5379   MPKI: 55.4557
L1I LOAD INSTRUCTION	ACCESS:    6534283  HIT:    3761498  MISS:    2772785  HIT %:    57.5656  MISS %:    42.4344  MPKI: 55.4557
L1I PREFETCH INSTRUCTION	ACCESS:     660667  HIT:     660667  MISS:          0  HIT %:        100  MISS %:          0  MPKI: 0

L1I PREFETCH  REQUESTED:    1590089  ISSUED:    1590089  USEFUL:          0  USELESS:          0
L1I USEFUL LOAD PREFETCHES:          0 PREFETCH ISSUED TO LOWER LEVEL:          0  ACCURACY: -nan
 TIMELY PREFETCHES:          0 LATE PREFETCHES: 0 DROPPED PREFETCHES: 0
L1I AVERAGE MISS LATENCY: 16.9345 cycles
L1I RQ	ACCESS:    9469897	FORWARD:          0	MERGED:    2632115	TO_CACHE:    6837782
L1I PQ	ACCESS:    1590089	FORWARD:          0	MERGED:     439145	TO_CACHE:    1150944

L1BTB TOTAL     ACCESS:    5669961  HIT:    2032453  MISS:    3637508  HIT %:     35.846  MISS %:     64.154   MPKI: 72.7502
L1BTB BRANCH_DIRECT_JUMP	ACCESS:     547795 HIT:     143499 MISS:     404296 AVERAGE STALL: 45.8278 AVERAGE FETCH STALL: 14.8168 AVERAGE FETCH QUEUE STALL: 8.31101 AVERAGE DECODE STALL: 21.7622 AVERAGE EXECUTE STALL: 2.18305e+15
L1BTB BRANCH_INDIRECT	ACCESS:     182398 HIT:      65452 MISS:     116946 AVERAGE STALL: 91.2868 AVERAGE FETCH STALL: 11.1624 AVERAGE FETCH QUEUE STALL: 9.95681 AVERAGE DECODE STALL: 11.5534 AVERAGE EXECUTE STALL: 57.6521
L1BTB BRANCH_CONDITIONAL	ACCESS:    2703354 HIT:    1408588 MISS:    1294766 AVERAGE STALL: 48.5768 AVERAGE FETCH STALL: 21.7689 AVERAGE FETCH QUEUE STALL: 13.9742 AVERAGE DECODE STALL: 12.2129 AVERAGE EXECUTE STALL: 2.71755e+15
L1BTB BRANCH_DIRECT_CALL	ACCESS:     946486 HIT:     104419 MISS:     842067 AVERAGE STALL: 60.2432 AVERAGE FETCH STALL: 23.9849 AVERAGE FETCH QUEUE STALL: 22.4431 AVERAGE DECODE STALL: 13.2312 AVERAGE EXECUTE STALL: 1.11058e+16
L1BTB BRANCH_INDIRECT_CALL	ACCESS:     171721 HIT:      20935 MISS:     150786 AVERAGE STALL: 117.774 AVERAGE FETCH STALL: 13.6054 AVERAGE FETCH QUEUE STALL: 7.87312 AVERAGE DECODE STALL: 8.9591 AVERAGE EXECUTE STALL: 86.845
L1BTB BRANCH_RETURN	ACCESS:    1118207 HIT:     289560 MISS:     828647 AVERAGE STALL: 41.0304 AVERAGE FETCH STALL: 15.9025 AVERAGE FETCH QUEUE STALL: 3.1309 AVERAGE DECODE STALL: 5.30377 AVERAGE EXECUTE STALL: 4.39187e+14
L1BTB BRANCH_OTHER ACCESS:          0 HIT:          0 MISS:          0 AVERAGE STALL: -nan AVERAGE FETCH STALL: -nan AVERAGE FETCH QUEUE STALL: -nan AVERAGE DECODE STALL: -nan AVERAGE EXECUTE STALL: -nan
L1BTB TOTAL ROB OCCUPANCY AT BTB MISS: 2.32768

L2BTB TOTAL     ACCESS:    3612159  HIT:    3545907  MISS:      66252  HIT %:    98.1659  MISS %:    1.83414   MPKI: 1.32504
L2BTB BRANCH_DIRECT_JUMP	ACCESS:     400173 HIT:     395840 MISS:       4333 AVERAGE STALL: 45.8278 AVERAGE FETCH STALL: 14.8168 AVERAGE FETCH QUEUE STALL: 8.31101 AVERAGE DECODE STALL: 21.7622 AVERAGE EXECUTE STALL: 2.18305e+15
L2BTB BRANCH_INDIRECT	ACCESS:     106631 HIT:     103981 MISS:       2650 AVERAGE STALL: 91.2868 AVERAGE FETCH STALL: 11.1624 AVERAGE FETCH QUEUE STALL: 9.95681 AVERAGE DECODE STALL: 11.5534 AVERAGE EXECUTE STALL: 57.6521
L2BTB BRANCH_CONDITIONAL	ACCESS:    1294766 HIT:    1287919 MISS:       6847 AVERAGE STALL: 48.5768 AVERAGE FETCH STALL: 21.7689 AVERAGE FETCH QUEUE STALL: 13.9742 AVERAGE DECODE STALL: 12.2129 AVERAGE EXECUTE STALL: 2.71755e+15
L2BTB BRANCH_DIRECT_CALL	ACCESS:     842067 HIT:     840388 MISS:       1679 AVERAGE STALL: 60.2432 AVERAGE FETCH STALL: 23.9849 AVERAGE FETCH QUEUE STALL: 22.4431 AVERAGE DECODE STALL: 13.2312 AVERAGE EXECUTE STALL: 1.11058e+16
L2BTB BRANCH_INDIRECT_CALL	ACCESS:     141286 HIT:     131152 MISS:      10134 AVERAGE STALL: 117.774 AVERAGE FETCH STALL: 13.6054 AVERAGE FETCH QUEUE STALL: 7.87312 AVERAGE DECODE STALL: 8.9591 AVERAGE EXECUTE STALL: 86.845
L2BTB BRANCH_RETURN	ACCESS:     827236 HIT:     786627 MISS:      40609 AVERAGE STALL: 41.0304 AVERAGE FETCH STALL: 15.9025 AVERAGE FETCH QUEUE STALL: 3.1309 AVERAGE DECODE STALL: 5.30377 AVERAGE EXECUTE STALL: 4.39187e+14
L2BTB BRANCH_OTHER ACCESS:          0 HIT:          0 MISS:          0 AVERAGE STALL: -nan AVERAGE FETCH STALL: -nan AVERAGE FETCH QUEUE STALL: -nan AVERAGE DECODE STALL: -nan AVERAGE EXECUTE STALL: -nan
L2BTB TOTAL ROB OCCUPANCY AT BTB MISS: 127.799

L2C TOTAL     ACCESS:    4506638  HIT:    4048030  MISS:     458608  HIT %:    89.8237  MISS %:    10.1763   MPKI: 9.17216
L2C LOAD INSTRUCTION	ACCESS:    2772785  HIT:    2534950  MISS:     237835  HIT %:    91.4225  MISS %:    8.57748  MPKI: 4.7567
L2C LOAD TRANSLATION INSTRUCTION	ACCESS:        270  HIT:         59  MISS:        211  HIT %:    21.8519  MISS %:    78.1481  MPKI: 0.00422
L2C LOAD DATA	ACCESS:     729001  HIT:     651950  MISS:      77051  HIT %:    89.4306  MISS %:    10.5694  MPKI: 1.54102
L2C RFO DATA	ACCESS:     287353  HIT:     234538  MISS:      52815  HIT %:    81.6202  MISS %:    18.3798  MPKI: 1.0563
L2C PREFETCH DATA	ACCESS:     191672  HIT:     117415  MISS:      74257  HIT %:    61.2583  MISS %:    38.7417  MPKI: 1.48514
L2C WRITEBACK DATA	ACCESS:     523711  HIT:     508577  MISS:      15134  HIT %:    97.1102  MISS %:    2.88976  MPKI: 0.30268
L2C LOAD TRANSLATION DATA	ACCESS:       1792  HIT:        506  MISS:       1286  HIT %:    28.2366  MISS %:    71.7634  MPKI: 0.02572
L2C TRANSLATION FROM L1D PREFETCHER DATA	ACCESS:         54  HIT:         35  MISS:         19  HIT %:    64.8148  MISS %:    35.1852  MPKI: 0.00038

L2C PREFETCH  REQUESTED:      94272  ISSUED:      94272  USEFUL:       7186  USELESS:      67514
L2C USEFUL LOAD PREFETCHES:       7186 PREFETCH ISSUED TO LOWER LEVEL:      74539  ACCURACY: 9.64059
 TIMELY PREFETCHES:       7186 LATE PREFETCHES: 282 DROPPED PREFETCHES: 0
L2C AVERAGE MISS LATENCY: 39.6228 cycles
L2C RQ	ACCESS:    3791289	FORWARD:          0	MERGED:          0	TO_CACHE:    3791255
L2C WQ	ACCESS:     523711	FORWARD:         34	MERGED:          0	TO_CACHE:     523711
L2C PQ	ACCESS:     198459	FORWARD:          0	MERGED:       3100	TO_CACHE:     195359

L2C Dense regions hint from L2: 0
PSCL5 TOTAL     ACCESS:       4002  HIT:       2001  MISS:       2001  HIT %:         50  MISS %:         50   MPKI: 0.04002
PSCL5 LOAD TRANSLATION INSTRUCTION	ACCESS:       3902  HIT:       1951  MISS:       1951  HIT %:         50  MISS %:         50  MPKI: 0.03902
PSCL5 TRANSLATION FROM L1D PREFETCHER INSTRUCTION	ACCESS:        100  HIT:         50  MISS:         50  HIT %:         50  MISS %:         50  MPKI: 0.001


PSCL4 TOTAL     ACCESS:       3911  HIT:       1951  MISS:       1960  HIT %:    49.8849  MISS %:    50.1151   MPKI: 0.0392
PSCL4 LOAD TRANSLATION INSTRUCTION	ACCESS:       2067  HIT:       1907  MISS:        160  HIT %:    92.2593  MISS %:    7.74069  MPKI: 0.0032
PSCL4 TRANSLATION FROM L1D PREFETCHER INSTRUCTION	ACCESS:         44  HIT:         44  MISS:          0  HIT %:        100  MISS %:          0  MPKI: 0
PSCL4 LOAD TRANSLATION DATA	ACCESS:       1756  HIT:          0  MISS:       1756  HIT %:          0  MISS %:        100  MPKI: 0.03512
PSCL4 TRANSLATION FROM L1D PREFETCHER DATA	ACCESS:         44  HIT:          0  MISS:         44  HIT %:          0  MISS %:        100  MPKI: 0.00088


PSCL3 TOTAL     ACCESS:       3921  HIT:       1956  MISS:       1965  HIT %:    49.8852  MISS %:    50.1148   MPKI: 0.0393
PSCL3 LOAD TRANSLATION INSTRUCTION	ACCESS:       2072  HIT:       1912  MISS:        160  HIT %:     92.278  MISS %:    7.72201  MPKI: 0.0032
PSCL3 TRANSLATION FROM L1D PREFETCHER INSTRUCTION	ACCESS:         44  HIT:         44  MISS:          0  HIT %:        100  MISS %:          0  MPKI: 0
PSCL3 LOAD TRANSLATION DATA	ACCESS:       1761  HIT:          0  MISS:       1761  HIT %:          0  MISS %:        100  MPKI: 0.03522
PSCL3 TRANSLATION FROM L1D PREFETCHER DATA	ACCESS:         44  HIT:          0  MISS:         44  HIT %:          0  MISS %:        100  MPKI: 0.00088


PSCL2 TOTAL     ACCESS:       3903  HIT:       1902  MISS:       2001  HIT %:    48.7317  MISS %:    51.2683   MPKI: 0.04002
PSCL2 LOAD TRANSLATION INSTRUCTION	ACCESS:       2095  HIT:       1854  MISS:        241  HIT %:    88.4964  MISS %:    11.5036  MPKI: 0.00482
PSCL2 TRANSLATION FROM L1D PREFETCHER INSTRUCTION	ACCESS:         48  HIT:         48  MISS:          0  HIT %:        100  MISS %:          0  MPKI: 0
PSCL2 LOAD TRANSLATION DATA	ACCESS:       1712  HIT:          0  MISS:       1712  HIT %:          0  MISS %:        100  MPKI: 0.03424
PSCL2 TRANSLATION FROM L1D PREFETCHER DATA	ACCESS:         48  HIT:          0  MISS:         48  HIT %:          0  MISS %:        100  MPKI: 0.00096


LLC TOTAL     ACCESS:     515029  HIT:     484741  MISS:      30288  HIT %:    94.1192  MISS %:    5.88083   MPKI: 0.60576
LLC LOAD INSTRUCTION	ACCESS:     237835  HIT:     236845  MISS:        990  HIT %:    99.5837  MISS %:   0.416255  MPKI: 0.0198
LLC LOAD TRANSLATION INSTRUCTION	ACCESS:        211  HIT:        184  MISS:         27  HIT %:    87.2038  MISS %:    12.7962  MPKI: 0.00054
LLC LOAD DATA	ACCESS:      76775  HIT:      73225  MISS:       3550  HIT %:    95.3761  MISS %:     4.6239  MPKI: 0.071
LLC RFO DATA	ACCESS:      52799  HIT:      37612  MISS:      15187  HIT %:    71.2362  MISS %:    28.7638  MPKI: 0.30374
LLC PREFETCH DATA	ACCESS:      74539  HIT:      64411  MISS:      10128  HIT %:    86.4125  MISS %:    13.5875  MPKI: 0.20256
LLC WRITEBACK DATA	ACCESS:      71565  HIT:      71226  MISS:        339  HIT %:    99.5263  MISS %:   0.473695  MPKI: 0.00678
LLC LOAD TRANSLATION DATA	ACCESS:       1286  HIT:       1219  MISS:         67  HIT %:      94.79  MISS %:    5.20995  MPKI: 0.00134
LLC TRANSLATION FROM L1D PREFETCHER DATA	ACCESS:         19  HIT:         19  MISS:          0  HIT %:        100  MISS %:          0  MPKI: 0

LLC AVERAGE MISS LATENCY: 159.182 cycles
LLC RQ	ACCESS:     368935	FORWARD:          0	MERGED:          0	TO_CACHE:     368925
LLC WQ	ACCESS:      71565	FORWARD:         10	MERGED:          0	TO_CACHE:      71565
LLC PQ	ACCESS:      74539	FORWARD:          0	MERGED:          0	TO_CACHE:      74539

LLC Dense regions hint to LLC: 0

RAW hits: 1921888
Loads Generated: 12641517
Loads sent to L1D: 10719629
Stores Generated: 6957183
Stores sent to L1D: 6957200
Major fault: 0 Minor fault: 2547
Allocated PAGES: 2547

stream: 
stream:times selected: 1186824
stream:pref_filled: 121855
stream:pref_useful: 23992
stream:pref_late: 6852
stream:misses: 7930
stream:misses_by_poll: 0

CS: 
CS:times selected: 181204
CS:pref_filled: 60005
CS:pref_useful: 36593
CS:pref_late: 6879
CS:misses: 16600
CS:misses_by_poll: 2

CPLX: 
CPLX:times selected: 1004514
CPLX:pref_filled: 19384
CPLX:pref_useful: 4597
CPLX:pref_late: 2985
CPLX:misses: 92859
CPLX:misses_by_poll: 1

NL_L1: 
NL:times selected: 20586
NL:pref_filled: 800
NL:pref_useful: 360
NL:pref_late: 254
NL:misses: 1776
NL:misses_by_poll: 0

total selections: 2393128
total_filled: 95957
total_useful: 35644
total_late: 18552
total_polluted: 3
total_misses_after_warmup: 771331
conflicts: 5535941

test: 117869

DRAM Statistics
 CHANNEL 0
 RQ ROW_BUFFER_HIT:      11178  ROW_BUFFER_MISS:      18749
 DBUS_CONGESTED:         11
 WQ ROW_BUFFER_HIT:       1515  ROW_BUFFER_MISS:      13155  FULL:          0

 AVG_CONGESTED_CYCLE: 6

CPU 0 Branch Prediction Accuracy: 99.823% MPKI: 0.32376 Average ROB Occupancy at Mispredict: 173.823
Branch types
NOT_BRANCH: 40854785 81.7096%
BRANCH_DIRECT_JUMP: 547795 1.09559%
BRANCH_INDIRECT: 182398 0.364796%
BRANCH_CONDITIONAL: 6178453 12.3569%
BRANCH_DIRECT_CALL: 946486 1.89297%
BRANCH_INDIRECT_CALL: 171721 0.343442%
BRANCH_RETURN: 1118207 2.23641%
BRANCH_OTHER: 0 0%

DRAM PAGES: 1048576
Allocated PAGES: 2547
Average_ROB_Occupancy: 212.804
Average_Decode_Occupancy: 27.383
Average_FTQ_Occupancy: 10.5966
Indirect max targets: 14 Average targets: 1.14626
Branch_type:  BRANCH_DIRECT_JUMP:  Count Percentage: 4.15247 4.8751 4.8845 7.4136 3.48757 6.01157 1.882 67.2932 
Branch_type:  BRANCH_INDIRECT:  Count Percentage: 11.722 3.44891 15.8873 9.68741 3.34554 2.81037 1.73895 51.3595 
Branch_type:  BRANCH_CONDITIONAL:  Count Percentage: 21.7604 2.17145 2.85346 5.06593 2.28079 4.27312 5.81554 55.7793 
Branch_type:  BRANCH_DIRECT_CALL:  Count Percentage: 0.882827 1.2902 0.739318 3.9265 3.07196 2.87225 4.34665 82.8703 
Branch_type:  BRANCH_INDIRECT_CALL:  Count Percentage: 9.54458 0 2.99047 5.26973 0 2.40915 3.84702 75.939 
Branch_type:  BRANCH_RETURN:  Count Percentage: 4.7224 1.39944 1.79754 4.87743 3.75239 4.47104 6.55274 72.427 
Branch_type:  BRANCH_DIRECT_JUMP:  Total Count: 45516 53437 53540 81262 38228 65894 20629 737614 
Branch_type:  BRANCH_INDIRECT:  Total Count: 42865 12612 58097 35425 12234 10277 6359 187812 
Branch_type:  BRANCH_CONDITIONAL:  Total Count: 2688910 268323 352598 625991 281834 528024 718619 6892573 
Branch_type:  BRANCH_DIRECT_CALL:  Total Count: 16665 24355 13956 74120 57989 54219 82051 1564330 
Branch_type:  BRANCH_INDIRECT_CALL:  Total Count: 32772 0 10268 18094 0 8272 13209 260742 
Branch_type:  BRANCH_RETURN:  Total Count: 105396 31233 40118 108856 83747 99786 146246 1616447 
Number of unique branch instructions: 9775
Upper 32 bits: 
aaaa
ffff
ffff0000
Unique upper 32 bits: 3
Unique upper 36 bits: 3
Unique upper 40 bits: 5
Unique upper 44 bits: 32
Unique upper 48 bits: 154
Variant_0 : 1373 0.335205
Variant_1 : 2637 0.643799
Variant_2 : 0 0
Variant_3 : 0 0
Offset_3 4020
Offset_4 246
Offset_5 448
Offset_6 501
Offset_7 572
Offset_8 502
Offset_9 461
Offset_10 374
Offset_11 301
Offset_12 269
Offset_13 199
Offset_14 227
Offset_15 184
Offset_16 222
Offset_17 143
Offset_18 118
Offset_19 234
Offset_20 136
Offset_21 235
Offset_22 393
Offset_23 241
Offset_24 324
Offset_25 88
Offset_47 80
decode_dispatch_called: 23665354 64.2695
Dispatch_width: 0 12435605 52.5477 33.7722
Dispatch_width: 1 817281 3.45349 2.21954
Dispatch_width: 2 777200 3.28413 2.11069
Dispatch_width: 3 471226 1.99121 1.27974
Dispatch_width: 4 4275247 18.0654 11.6106
Dispatch_width: 5 219193 0.926219 0.595276
Dispatch_width: 6 4669602 19.7318 12.6815
Empty_decode_cycles: 13156713 35.7305
ROB_full_cycles: 6633036 18.0138
Starvation_cycles_per_kilo_instr: 255.194
Starvation_cycles_per_kilo_instr_3: 210.25
Starvation_cycles_per_kilo_instr_0: 189.593
Branch_type_1  (3,1)  (4,9)  (5,37)  (6,70)  (7,112)  (8,128)  (9,122)  (10,97)  (11,67)  (12,43)  (13,5)  (14,2)  (15,3)  (16,4)  (18,1)  (19,4)  (20,2)  (21,1)  (22,3)  (23,2)  (24,10)  (25,12) 
Branch_type_2  (3,1)  (5,1)  (8,3)  (9,3)  (12,1)  (13,1)  (14,1)  (16,3)  (17,2)  (20,2)  (21,2)  (23,5)  (24,1)  (47,36) 
Branch_type_3  (3,4018)  (4,237)  (5,406)  (6,416)  (7,431)  (8,311)  (9,253)  (10,151)  (11,120)  (12,50)  (13,4) 
Branch_type_4  (6,3)  (7,8)  (8,25)  (9,51)  (10,60)  (11,58)  (12,96)  (13,86)  (14,100)  (15,86)  (16,99)  (17,63)  (18,53)  (19,115)  (20,71)  (21,124)  (22,209)  (23,136)  (24,185)  (25,72) 
Branch_type_5  (8,2)  (9,1)  (10,3)  (11,5)  (12,3)  (13,14)  (14,16)  (15,11)  (16,20)  (17,11)  (18,16)  (19,12)  (20,10)  (21,13)  (22,42)  (23,26)  (24,37) 
Branch_type_6  (5,4)  (6,12)  (7,21)  (8,33)  (9,31)  (10,63)  (11,51)  (12,76)  (13,89)  (14,108)  (15,84)  (16,96)  (17,67)  (18,48)  (19,103)  (20,51)  (21,95)  (22,139)  (23,72)  (24,91)  (25,4)  (47,44) 
Unique trigger count: 
Variant_0_evicts_0 : 0
Variant_0_evicts_1 : 0
Variant_0_evicts_2 : 0
Variant_0_evicts_3 : 0
Variant_1_evicts_0 : 0
Variant_1_evicts_1 : 0
Variant_1_evicts_2 : 0
Variant_1_evicts_3 : 0
Variant_2_evicts_0 : 0
Variant_2_evicts_1 : 0
Variant_2_evicts_2 : 0
Variant_2_evicts_3 : 0
Variant_3_evicts_0 : 0
Variant_3_evicts_1 : 0
Variant_3_evicts_2 : 0
Variant_3_evicts_3 : 0
BTB PER SET UNIQUE ADDR: 10 10 11 12 10 7 9 11 9 13 8 16 13 12 9 6 9 11 13 10 10 14 12 12 8 12 11 14 9 12 11 11 11 6 6 13 11 13 7 9 9 10 9 14 10 10 12 8 7 11 10 9 11 9 8 5 7 9 8 8 10 11 12 9 6 11 11 5 14 8 9 8 12 8 8 6 6 11 6 10 10 7 9 12 12 9 13 10 10 17 9 6 13 9 9 12 6 10 15 11 13 8 10 9 11 9 9 9 8 10 8 10 11 8 8 7 11 9 11 5 10 6 9 9 10 10 7 8 16 10 6 16 10 10 9 11 8 9 7 13 10 7 9 9 7 5 8 8 5 7 11 11 6 10 8 9 8 12 14 8 10 8 16 10 9 8 13 7 14 10 9 12 10 8 12 8 13 9 9 10 5 9 10 12 12 14 5 8 10 9 8 13 9 14 13 8 5 9 7 9 13 10 10 10 12 9 9 10 10 10 10 11 10 11 9 9 11 11 9 11 7 11 6 8 7 12 11 12 7 14 11 8 10 11 8 6 13 11 9 7 11 7 13 7 12 10 9 7 12 9 8 9 13 8 14 12 5 6 7 11 11 10 6 10 10 7 9 9 8 7 11 13 12 7 9 5 8 9 9 11 9 10 6 9 9 7 11 16 10 13 11 7 11 11 8 12 11 7 15 9 8 9 6 16 14 8 8 13 12 9 7 13 6 11 11 4 13 13 9 13 8 9 8 8 12 11 6 9 12 9 7 13 9 12 9 10 6 8 6 13 7 10 8 13 10 13 9 11 8 9 8 12 9 11 11 10 9 10 7 5 8 13 7 10 12 11 6 6 8 10 11 9 11 9 9 13 12 12 10 9 8 9 7 11 7 11 12 11 10 14 10 9 9 18 6 9 7 9 10 9 6 12 7 9 13 11 11 11 10 14 11 7 10 12 9 8 10 10 15 14 8 15 15 7 10 9 13 9 10 10 17 10 9 6 15 10 13 6 9 17 9 9 9 7 12 8 9 9 14 12 10 12 10 11 12 10 10 12 8 13 10 8 10 13 9 7 9 11 9 13 11 13 17 10 9 14 9 16 8 10 12 12 9 9 8 12 11 12 13 14 8 8 7 6 10 9 10 9 11 11 10 9 10 16 8 9 9 11 15 13 9 10 13 9 13 9 11 14 11 9 10 6 10 7 11 10 17 9 6 12 11 8 9 9 10 15 8 11 7 11 9 10 11 9 15 11 7 9 7 9 11 12 10 13 8 11 12 11 12 9 9 12 9 13 11 13 14 9 12 11 10 11 14 16 8 11 10 11 8 7 12 9 7 10 13 7 8 10 14 10 8 10 10 6 10 8 9 13 10 9 11 12 8 5 8 13 12 7 9 10 10 11 5 10 4 13 9 10 9 11 11 9 5 7 8 11 7 10 10 10 6 10 9 13 8 8 5 10 9 12 11 8 12 12 10 13 7 11 16 5 7 9 7 8 11 9 11 13 8 10 15 9 10 15 9 10 10 10 8 8 13 11 8 13 13 9 11 14 9 11 9 14 12 9 12 7 11 9 9 11 10 9 12 8 9 11 8 8 8 11 6 8 8 10 6 11 12 8 6 11 12 11 9 11 7 5 16 13 12 12 9 8 10 7 8 9 7 10 8 11 12 10 9 10 8 11 12 13 14 7 7 10 11 9 10 11 11 10 6 7 14 12 11 11 7 10 16 10 9 6 12 6 5 10 9 13 8 9 10 9 8 9 8 9 7 9 12 9 10 10 9 8 11 7 10 7 10 9 7 6 7 5 9 9 11 15 9 10 13 9 13 10 14 16 7 11 9 10 9 8 9 15 10 8 13 10 14 14 8 12 8 12 7 13 10 10 6 9 8 12 9 14 10 11 9 11 10 10 9 9 9 13 8 8 11 14 11 20 11 8 13 7 8 11 11 14 13 7 16 11 10 7 7 7 12 7 9 6 14 6 11 12 9 5 16 5 8 8 8 11 8 7 8 10 9 11 11 12 11 7 13 9 11 9 9 15 16 13 8 9 14 10 8 12 5 9 10 8 11 13 8 11 8 11 9 10 12 9 5 8 13 12 9 9 6 9 7 9 10 11 9 16 10 9 9 8 6 8 12 11 7 14 12 7 11 8 7 10 11 12 7 10 7 9 9 13 9 8 8 10 13 13 14 9 9 9 12 10 7 12 12 10 9 7 13 10 13 11 10 9 9 12 9 8 11 14 14 7 13 9 13 8 9 12 12 6 9 12 8 7 15 10 9 5 9 14 8 12 8 10 8 11 10 6 8 9 3 11 5 7 9 15 9 6 
BTB PER SET COUNT: 993 11 1977 18 1229 9 1470 16 1478 19 10 377 20295 13 10 6 17 13 613 12 11 26 502 113 10 15 18 17 9 448 17 13 15 8 6 506 13 15 7 1747 9 10 11 36 11 14 15 8 7 11 12 275 14 9 8 380 9 10 224 8 10 12 130 11 7 15 14 5 24 12 1476 151 14 9 10 6 6 1478 7 13 11 11 9 19 15 10 16 16 15 29 11 6 19 13 15 15 986 12 22 12 15 12 11 10 14 12 18 12 10 11 8 18 15 9 10 1476 12 10 1480 6 988 6 12 10 11 16 7 8 26 993 6 3426 12 10 11 13 988 15 9 16 11 7 13 10 7 7 10 10 5 9 13 253 970 11 8 15 10 16 15 13 12 241 22 13 1488 10 19 7 18 794 11 15 13 9 13 9 14 10 11 36 5 259 732 17 22 1106 5 10 16 238 13 14 11 16 16 9 6 988 10 10 21 111 990 11 16 12 9 11 13 1480 15 20 13 1605 10 9 15 13 2939 24 11 22 192 8 9 22 11 14 615 24 15 9 10 17 8 6 490 24 13 8 17 9 18 986 23 13 9 8 12 10 9 14 17 12 15 22 56 9 7 13 12 14 6 31 12 9 15 9 375 9 13 365 12 7 758 5 11 9 10 18 18 15 485 990 9 7 12 25 11 14 13 7 16 17 13 19 15 7 18 250 10 15 6 18 21 155 8 88 304 966 984 15 7 13 1857 983 14 20 13 18 8 2943 11 8 176 14 6 12 15 12 8 30 36 15 10 16 11 9 7 16 7 1976 8 20 241 14 11 18 8 12 8 176 12 12 14 14 12 10 13 15 10 14 8 11 13 38 6 6 11 11 18 385 11 9 9 18 17 17 13 11 988 14 8 15 8 13 958 14 12 20 16 10 10 1379 6 522 9 11 1082 13 6 17 10 13 16 16 16 501 16 18 78 7 11 13 10 8 14 277 19 22 8 23 27 7 12 9 17 12 18 691 41 10 9 12 443 11 22 32 11 32 12 14 9 9 27 9 953 9 18 17 13 15 10 12 18 1478 12 13 9 25 10 9 11 18 10 141 9 17 10 24 15 20 23 14 14 16 11 38 9 10 12 15 11 12 12 15 15 16 18 16 14 10 10 8 11 16 390 12 16 14 12 9 12 29 16 10 12 13 22 17 510 121 19 12 21 10 17 17 17 16 10 7 10 8 12 11 731 1482 6 2505 15 55 11 10 12 475 86 16 8 708 12 11 37 10 21 16 7 11 11 971 11 15 986 16 10 17 16 19 18 12 11 101 9 14 958 25 23 10 15 12 13 15 21 30 13 15 16 14 8 8 16 10 9 2840 17 9 8 15 40 10 9 11 11 7 11 9 2440 20 255 13 14 16 9 12 12 18 12 8 10 11 12 1317 5 13 4 14 10 14 10 29 15 10 6 8 8 11 7 15 1313 768 6 10 10 156 9 9 5 993 13 16 12 9 12 311 1861 19 498 12 19 5 8 9 9 10 31 499 14 122 867 51 18 9 15 16 15 12 14 1601 1478 11 17 14 988 18 27 519 12 29 12 12 13 23 992 10 1052 9 11 12 11 20 13 9 19 8 2189 17 8 498 9 14 686 16 9 16 6 11 13 13 9 12 387 343 984 12 7 174 664 18 16 15 14 57 12 1474 12 10 8 11 987 16 17 13091 14 10 14 17 72 20 22 10 7 21 14 10 22 17 1095 12 10 10 18 14 15 18 10 10 20 1477 11 7 15 7 5 14 14 31 10 9 11 9 10 18 9 13 9 9 16 15 13 11 2024 14 390 7 14 7 11 12 9 6 8 725 15 9 1370 16 172 14 18 490 85 10 18 27 491 19 10 11 9 37 13 8108 11 8 15 18 287 22 8 16 10 996 9 16 11 15 6 13 8 15 9 17 11 17 72 18 12 10 16 340 9 1337 11 9 843 18 118 25 11 14 410 349 8 23 304 15 16 7 22 13 352 10 596 8 133 7 9 9 19 7 501 19 11 6 24 5 8 9 2799 14 11 13 149 12 501 141 13 17 13 536 21 1480 1795 22 9 23 23 17 8 10 18 17 10 53 5 10 13 11 126 280 273 12 11 13 10 31 934 449 6 9 20 18 9 13 6 9 8 9 10 12 10 21 12 9 13 157 6 54 1038 15 8 982 15 9 14 12 10 14 16 16 7 986 8 2291 12 22 13 8 8 14 514 19 20 10 12 13 14 14 9 15 25 15 10 7 24 18 18 15 168 11 19 1485 10 987 11 29 21 7 15 9 20 266 10 1244 1485 7 10 1486 8 7 22 12 10 6 10 17 9 14 8 989 17 11 10 9 12 9 3 14 5 9 12 166 12 6 
To predecode: 0
Predecoding something: 0
Predecode request dropped: 0
sizeofblock_0 0
sizeofblock_1 53055
sizeofblock_2 84749
sizeofblock_3 0
sizeofblock_4 0
sizeofblock_5 0
sizeofblock_6 0
sizeofblock_7 0
sizeofblock_8 0
Variant_0 Correct: 1613491 Incorrect: 0 Accuracy: 1
Variant_1 Correct: 5733211 Incorrect: 0 Accuracy: 1
Variant_2 Correct: 0 Incorrect: 0 Accuracy: -nan
Variant_3 Correct: 0 Incorrect: 0 Accuracy: -nan
