
*** ChampSim Multicore Out-of-Order Simulator ***

Warmup Instructions: 50000000
Simulation Instructions: 50000000
Number of CPUs: 1
LLC sets: 2048
LLC ways: 16
Off-chip DRAM Size: 4096 MB Channels: 1 Width: 64-bit Data Rate: 6400 MT/s
CPU 0 runs ./micro_traces/srv687.trace.gz
.gz
ITLB has LRU replacement policy
DTLB has LRU replacement policy
STLB has LRU replacement policy
L1I has LRU replacement policy
L1D has LRU replacement policy
Initialize SRRIP state for L2C
Initialize DRRIP state for LLC
Heartbeat_Variant_0 : 1323 0.322998 per_variant_size: 0 1323 0 0 0 0 0 0 0 
Heartbeat_Variant_1 : 1220 0.297852 per_variant_size: 0 598 622 0 0 0 0 0 0 
Heartbeat_Variant_2 : 1313 0.320557 per_variant_size: 0 533 379 206 195 0 0 0 0 
Heartbeat_Variant_3 : 0 0 per_variant_size: 0 0 0 0 0 0 0 0 0 
Heartbeat_Variant_0_evicts 0 : 5872 1 : 262 2 : 254 3 : 0 
Heartbeat_Variant_1_evicts 0 : 250 1 : 0 2 : 417 3 : 0 
Heartbeat_Variant_2_evicts 0 : 229 1 : 418 2 : 0 3 : 0 
Heartbeat_Variant_3_evicts 0 : 0 1 : 0 2 : 0 3 : 0 
Heartbeat CPU 0 instructions: 10000003 cycles: 2798875 heartbeat IPC: 3.57287 cumulative IPC: 3.57287 (Simulation time: 0 hr 1 min 27 sec) 
Heartbeat_Variant_0 : 1341 0.327393 per_variant_size: 0 1341 0 0 0 0 0 0 0 
Heartbeat_Variant_1 : 1244 0.303711 per_variant_size: 0 593 651 0 0 0 0 0 0 
Heartbeat_Variant_2 : 1333 0.325439 per_variant_size: 0 523 388 222 200 0 0 0 0 
Heartbeat_Variant_3 : 0 0 per_variant_size: 0 0 0 0 0 0 0 0 0 
Heartbeat_Variant_0_evicts 0 : 5815 1 : 108 2 : 124 3 : 0 
Heartbeat_Variant_1_evicts 0 : 109 1 : 0 2 : 311 3 : 0 
Heartbeat_Variant_2_evicts 0 : 124 1 : 309 2 : 0 3 : 0 
Heartbeat_Variant_3_evicts 0 : 0 1 : 0 2 : 0 3 : 0 
Heartbeat CPU 0 instructions: 20000002 cycles: 5596555 heartbeat IPC: 3.57439 cumulative IPC: 3.57363 (Simulation time: 0 hr 2 min 43 sec) 
Heartbeat_Variant_0 : 1343 0.327881 per_variant_size: 0 1343 0 0 0 0 0 0 0 
Heartbeat_Variant_1 : 1247 0.304443 per_variant_size: 0 594 653 0 0 0 0 0 0 
Heartbeat_Variant_2 : 1344 0.328125 per_variant_size: 0 538 382 233 191 0 0 0 0 
Heartbeat_Variant_3 : 0 0 per_variant_size: 0 0 0 0 0 0 0 0 0 
Heartbeat_Variant_0_evicts 0 : 5619 1 : 19 2 : 43 3 : 0 
Heartbeat_Variant_1_evicts 0 : 20 1 : 0 2 : 225 3 : 0 
Heartbeat_Variant_2_evicts 0 : 44 1 : 228 2 : 0 3 : 0 
Heartbeat_Variant_3_evicts 0 : 0 1 : 0 2 : 0 3 : 0 
Heartbeat CPU 0 instructions: 30000002 cycles: 8393384 heartbeat IPC: 3.57548 cumulative IPC: 3.57424 (Simulation time: 0 hr 4 min 1 sec) 
Heartbeat_Variant_0 : 1367 0.33374 per_variant_size: 0 1367 0 0 0 0 0 0 0 
Heartbeat_Variant_1 : 1257 0.306885 per_variant_size: 0 584 673 0 0 0 0 0 0 
Heartbeat_Variant_2 : 1351 0.329834 per_variant_size: 0 529 389 233 200 0 0 0 0 
Heartbeat_Variant_3 : 0 0 per_variant_size: 0 0 0 0 0 0 0 0 0 
Heartbeat_Variant_0_evicts 0 : 5607 1 : 106 2 : 123 3 : 0 
Heartbeat_Variant_1_evicts 0 : 96 1 : 0 2 : 305 3 : 0 
Heartbeat_Variant_2_evicts 0 : 119 1 : 300 2 : 0 3 : 0 
Heartbeat_Variant_3_evicts 0 : 0 1 : 0 2 : 0 3 : 0 
Heartbeat CPU 0 instructions: 40000000 cycles: 11190230 heartbeat IPC: 3.57546 cumulative IPC: 3.57455 (Simulation time: 0 hr 5 min 17 sec) 
Heartbeat_Variant_0 : 1370 0.334473 per_variant_size: 0 1370 0 0 0 0 0 0 0 
Heartbeat_Variant_1 : 1256 0.306641 per_variant_size: 0 579 677 0 0 0 0 0 0 
Heartbeat_Variant_2 : 1351 0.329834 per_variant_size: 0 532 387 238 194 0 0 0 0 
Heartbeat_Variant_3 : 0 0 per_variant_size: 0 0 0 0 0 0 0 0 0 
Heartbeat_Variant_0_evicts 0 : 5661 1 : 26 2 : 19 3 : 0 
Heartbeat_Variant_1_evicts 0 : 23 1 : 0 2 : 223 3 : 0 
Heartbeat_Variant_2_evicts 0 : 19 1 : 223 2 : 0 3 : 0 
Heartbeat_Variant_3_evicts 0 : 0 1 : 0 2 : 0 3 : 0 
Heartbeat CPU 0 instructions: 50000001 cycles: 13988287 heartbeat IPC: 3.57391 cumulative IPC: 3.57442 (Simulation time: 0 hr 6 min 31 sec) 

Warmup complete CPU 0 instructions: 50000001 cycles: 13988287 (Simulation time: 0 hr 6 min 31 sec) 

Cycle: 20000000 FTQ IN: 55284637 FTQ occupancy: 15.731 DECODE IN: 55284627 DECODE occupancy: 9.47404 ROB IN: 55284615 ROB occupancy: 258.461 ROB OUT: 55284607
Heartbeat_Variant_0 : 1374 0.335449 per_variant_size: 0 1374 0 0 0 0 0 0 0 
Heartbeat_Variant_1 : 1263 0.30835 per_variant_size: 0 593 670 0 0 0 0 0 0 
Heartbeat_Variant_2 : 1360 0.332031 per_variant_size: 0 536 374 254 196 0 0 0 0 
Heartbeat_Variant_3 : 0 0 per_variant_size: 0 0 0 0 0 0 0 0 0 
Heartbeat_Variant_0_evicts 0 : 5723 1 : 57 2 : 56 3 : 0 
Heartbeat_Variant_1_evicts 0 : 55 1 : 0 2 : 249 3 : 0 
Heartbeat_Variant_2_evicts 0 : 56 1 : 250 2 : 0 3 : 0 
Heartbeat_Variant_3_evicts 0 : 0 1 : 0 2 : 0 3 : 0 
Heartbeat CPU 0 instructions: 60000000 cycles: 25533376 heartbeat IPC: 0.866169 cumulative IPC: 0.866169 (Simulation time: 0 hr 7 min 43 sec) 
Cycle: 30000000 FTQ IN: 8573548 FTQ occupancy: 14.3891 DECODE IN: 8573540 DECODE occupancy: 4.79677 ROB IN: 8573552 ROB occupancy: 51.356 ROB OUT: 8573556
Heartbeat_Variant_0 : 1369 0.334229 per_variant_size: 0 1369 0 0 0 0 0 0 0 
Heartbeat_Variant_1 : 1268 0.30957 per_variant_size: 0 606 662 0 0 0 0 0 0 
Heartbeat_Variant_2 : 1362 0.33252 per_variant_size: 0 535 382 253 192 0 0 0 0 
Heartbeat_Variant_3 : 0 0 per_variant_size: 0 0 0 0 0 0 0 0 0 
Heartbeat_Variant_0_evicts 0 : 5616 1 : 33 2 : 23 3 : 0 
Heartbeat_Variant_1_evicts 0 : 37 1 : 0 2 : 231 3 : 0 
Heartbeat_Variant_2_evicts 0 : 24 1 : 232 2 : 0 3 : 0 
Heartbeat_Variant_3_evicts 0 : 0 1 : 0 2 : 0 3 : 0 
Heartbeat CPU 0 instructions: 70000003 cycles: 36995610 heartbeat IPC: 0.872431 cumulative IPC: 0.869289 (Simulation time: 0 hr 8 min 54 sec) 
Cycle: 40000000 FTQ IN: 8752929 FTQ occupancy: 14.3617 DECODE IN: 8752931 DECODE occupancy: 4.81784 ROB IN: 8752920 ROB occupancy: 50.4723 ROB OUT: 8752858
Heartbeat_Variant_0 : 1368 0.333984 per_variant_size: 0 1368 0 0 0 0 0 0 0 
Heartbeat_Variant_1 : 1273 0.310791 per_variant_size: 0 605 668 0 0 0 0 0 0 
Heartbeat_Variant_2 : 1361 0.332275 per_variant_size: 0 535 380 246 200 0 0 0 0 
Heartbeat_Variant_3 : 0 0 per_variant_size: 0 0 0 0 0 0 0 0 0 
Heartbeat_Variant_0_evicts 0 : 5526 1 : 11 2 : 7 3 : 0 
Heartbeat_Variant_1_evicts 0 : 12 1 : 0 2 : 215 3 : 0 
Heartbeat_Variant_2_evicts 0 : 8 1 : 211 2 : 0 3 : 0 
Heartbeat_Variant_3_evicts 0 : 0 1 : 0 2 : 0 3 : 0 
Heartbeat CPU 0 instructions: 80000003 cycles: 48434273 heartbeat IPC: 0.874228 cumulative IPC: 0.870929 (Simulation time: 0 hr 10 min 6 sec) 
Cycle: 60000000 FTQ IN: 17163257 FTQ occupancy: 14.2688 DECODE IN: 17163255 DECODE occupancy: 4.75632 ROB IN: 17163266 ROB occupancy: 50.1716 ROB OUT: 17163321
Heartbeat_Variant_0 : 1397 0.341064 per_variant_size: 0 1397 0 0 0 0 0 0 0 
Heartbeat_Variant_1 : 1304 0.318359 per_variant_size: 0 556 748 0 0 0 0 0 0 
Heartbeat_Variant_2 : 1352 0.330078 per_variant_size: 0 481 381 270 220 0 0 0 0 
Heartbeat_Variant_3 : 0 0 per_variant_size: 0 0 0 0 0 0 0 0 0 
Heartbeat_Variant_0_evicts 0 : 6018 1 : 441 2 : 408 3 : 0 
Heartbeat_Variant_1_evicts 0 : 447 1 : 0 2 : 597 3 : 0 
Heartbeat_Variant_2_evicts 0 : 385 1 : 587 2 : 0 3 : 0 
Heartbeat_Variant_3_evicts 0 : 0 1 : 0 2 : 0 3 : 0 
Heartbeat CPU 0 instructions: 90000000 cycles: 60261257 heartbeat IPC: 0.845524 cumulative IPC: 0.864435 (Simulation time: 0 hr 11 min 16 sec) 
Cycle: 70000000 FTQ IN: 8775571 FTQ occupancy: 14.3752 DECODE IN: 8775571 DECODE occupancy: 4.81932 ROB IN: 8775571 ROB occupancy: 50.1795 ROB OUT: 8775562
Heartbeat_Variant_0 : 1393 0.340088 per_variant_size: 0 1393 0 0 0 0 0 0 0 
Heartbeat_Variant_1 : 1305 0.318604 per_variant_size: 0 557 748 0 0 0 0 0 0 
Heartbeat_Variant_2 : 1355 0.330811 per_variant_size: 0 483 382 268 222 0 0 0 0 
Heartbeat_Variant_3 : 0 0 per_variant_size: 0 0 0 0 0 0 0 0 0 
Heartbeat_Variant_0_evicts 0 : 5615 1 : 2 2 : 1 3 : 0 
Heartbeat_Variant_1_evicts 0 : 3 1 : 0 2 : 198 3 : 0 
Heartbeat_Variant_2_evicts 0 : 4 1 : 198 2 : 0 3 : 0 
Heartbeat_Variant_3_evicts 0 : 0 1 : 0 2 : 0 3 : 0 
Heartbeat CPU 0 instructions: 100000001 cycles: 71650707 heartbeat IPC: 0.878006 cumulative IPC: 0.867116 (Simulation time: 0 hr 12 min 21 sec) 
Finished CPU 0 instructions: 50000000 cycles: 57662420 cumulative IPC: 0.867116 (Simulation time: 0 hr 12 min 21 sec) 

ChampSim completed all CPUs

Region of Interest Statistics

CPU 0 cumulative IPC: 0.867116 instructions: 50000000 cycles: 57662420
 Fetch stage stalled: 32.9722  Sim cycles: 57662420 fetch stall cycle: 19012563
 Empty decode stage: 69.648  Sim cycles: 57662420 fetch stall cycle: 40160708
ITLB TOTAL     ACCESS:    7298298  HIT:    6803363  MISS:     494935  HIT %:    93.2185  MISS %:    6.78151   MPKI: 9.8987
ITLB LOAD TRANSLATION INSTRUCTION	ACCESS:    7298298  HIT:    6803363  MISS:     494935  HIT %:    93.2185  MISS %:    6.78151  MPKI: 9.8987

ITLB AVERAGE MISS LATENCY: 9.05599 cycles
ITLB RQ	ACCESS:    8428899	FORWARD:          0	MERGED:     927649	TO_CACHE:    7501250

DTLB TOTAL     ACCESS:   10402305  HIT:    9923621  MISS:     478684  HIT %:    95.3983  MISS %:    4.60171   MPKI: 9.57368
DTLB LOAD TRANSLATION DATA	ACCESS:   10402305  HIT:    9923621  MISS:     478684  HIT %:    95.3983  MISS %:    4.60171  MPKI: 9.57368

DTLB AVERAGE MISS LATENCY: 9.32287 cycles
DTLB RQ	ACCESS:   14504029	FORWARD:          0	MERGED:    4073121	TO_CACHE:   10430908

STLB TOTAL     ACCESS:    1231156  HIT:    1229022  MISS:       2134  HIT %:    99.8267  MISS %:   0.173333   MPKI: 0.04268
STLB LOAD TRANSLATION INSTRUCTION	ACCESS:     494935  HIT:     494657  MISS:        278  HIT %:    99.9438  MISS %:   0.056169  MPKI: 0.00556
STLB LOAD TRANSLATION DATA	ACCESS:     478681  HIT:     476846  MISS:       1835  HIT %:    99.6167  MISS %:   0.383345  MPKI: 0.0367
STLB TRANSLATION FROM L1D PREFETCHER DATA	ACCESS:     257540  HIT:     257519  MISS:         21  HIT %:    99.9918  MISS %: 0.00815407  MPKI: 0.00042

STLB AVERAGE MISS LATENCY: 73.9738 cycles
STLB RQ	ACCESS:    1348925	FORWARD:          0	MERGED:     117734	TO_CACHE:    1231191

STLB Hit, L1D data hit: 0
STLB Hit, L2C data hit: 0
STLB Hit, LLC data hit: 0
STLB Hit, LLC data miss: 0
STLB STLB hints to L2: 0
L1D TOTAL     ACCESS:   14303096  HIT:   13189974  MISS:    1113122  HIT %:    92.2176  MISS %:    7.78239   MPKI: 22.2624
L1D LOAD DATA	ACCESS:    7640875  HIT:    6908937  MISS:     731938  HIT %:    90.4208  MISS %:    9.57924  MPKI: 14.6388
L1D RFO DATA	ACCESS:    6326975  HIT:    6040459  MISS:     286516  HIT %:    95.4715  MISS %:    4.52848  MPKI: 5.73032
L1D PREFETCH DATA	ACCESS:     335246  HIT:     240578  MISS:      94668  HIT %:    71.7616  MISS %:    28.2384  MPKI: 1.89336

L1D PREFETCH  REQUESTED:     750729  ISSUED:     750729  USEFUL:      34875  USELESS:      67641
L1D USEFUL LOAD PREFETCHES:      34875 PREFETCH ISSUED TO LOWER LEVEL:     102579  ACCURACY: 33.9982
 TIMELY PREFETCHES:      34875 LATE PREFETCHES: 7854 DROPPED PREFETCHES: 5
L1D AVERAGE MISS LATENCY: 299440 cycles
L1D RQ	ACCESS:   11454368	FORWARD:          0	MERGED:    3630790	TO_CACHE:    7672250
L1D WQ	ACCESS:    6947034	FORWARD:     151445	MERGED:     115255	TO_CACHE:    6831779
L1D PQ	ACCESS:     375423	FORWARD:          0	MERGED:          0	TO_CACHE:     375306

L1D UNIQUE REGIONS ACCESSED: 0
L1D REGIONS CONFLICTS: 0
L1D Cross Page Prefetch Requests: 6644
L1D Same Page Prefetch Requests: 756768
L1D ROI Sum of L1D PQ occupancy: 4769691
L1D PREFETCHES PUSHED FROM L2C: 0
L1I TOTAL     ACCESS:    7892624  HIT:    5126587  MISS:    2766037  HIT %:    64.9542  MISS %:    35.0458   MPKI: 55.3207
L1I LOAD INSTRUCTION	ACCESS:    7892624  HIT:    5126587  MISS:    2766037  HIT %:    64.9542  MISS %:    35.0458  MPKI: 55.3207

L1I AVERAGE MISS LATENCY: 17.0005 cycles
L1I RQ	ACCESS:   15403155	FORWARD:          0	MERGED:    6974256	TO_CACHE:    8428899

L1BTB TOTAL     ACCESS:    5671168  HIT:    2039856  MISS:    3631312  HIT %:    35.9689  MISS %:    64.0311   MPKI: 72.6262
L1BTB BRANCH_DIRECT_JUMP	ACCESS:     548369  HIT:     144631  MISS:     403738	AVERAGE STALL: 21.4403
L1BTB BRANCH_INDIRECT	ACCESS:     182835  HIT:      65935  MISS:     116900	AVERAGE STALL: 49.8973
L1BTB BRANCH_CONDITIONAL	ACCESS:    2705272  HIT:    1412145  MISS:    1293127	AVERAGE STALL: 27.6073
L1BTB BRANCH_DIRECT_CALL	ACCESS:     945680  HIT:     105365  MISS:     840315	AVERAGE STALL: 34.7
L1BTB BRANCH_INDIRECT_CALL	ACCESS:     171667  HIT:      21211  MISS:     150456	AVERAGE STALL: 65.0683
L1BTB BRANCH_RETURN	ACCESS:    1117345  HIT:     290569  MISS:     826776	AVERAGE STALL: 32.7377
L1BTB BRANCH_OTHER ACCESS:          0  HIT:          0  MISS:          0	AVERAGE STALL: -nan
L1BTB TOTAL ROB OCCUPANCY AT BTB MISS: 0.645889

L2BTB TOTAL     ACCESS:    3605892  HIT:    3534554  MISS:      71338  HIT %:    98.0216  MISS %:    1.97837   MPKI: 1.42676
L2BTB BRANCH_DIRECT_JUMP	ACCESS:     399578  HIT:     393979  MISS:       5599	AVERAGE STALL: 21.4403
L2BTB BRANCH_INDIRECT	ACCESS:     106577  HIT:     103840  MISS:       2737	AVERAGE STALL: 49.8973
L2BTB BRANCH_CONDITIONAL	ACCESS:    1293127  HIT:    1288014  MISS:       5113	AVERAGE STALL: 27.6073
L2BTB BRANCH_DIRECT_CALL	ACCESS:     840315  HIT:     838130  MISS:       2185	AVERAGE STALL: 34.7
L2BTB BRANCH_INDIRECT_CALL	ACCESS:     140925  HIT:     130567  MISS:      10358	AVERAGE STALL: 65.0683
L2BTB BRANCH_RETURN	ACCESS:     825370  HIT:     780024  MISS:      45346	AVERAGE STALL: 32.7377
L2BTB BRANCH_OTHER ACCESS:          0  HIT:          0  MISS:          0	AVERAGE STALL: -nan
L2BTB TOTAL ROB OCCUPANCY AT BTB MISS: 32.8777

L2C TOTAL     ACCESS:    4481693  HIT:    4019069  MISS:     462624  HIT %:    89.6775  MISS %:    10.3225   MPKI: 9.25248
L2C LOAD INSTRUCTION	ACCESS:    2766037  HIT:    2507052  MISS:     258985  HIT %:     90.637  MISS %:    9.36303  MPKI: 5.1797
L2C LOAD TRANSLATION INSTRUCTION	ACCESS:        314  HIT:         67  MISS:        247  HIT %:    21.3376  MISS %:    78.6624  MPKI: 0.00494
L2C LOAD DATA	ACCESS:     724078  HIT:     656886  MISS:      67192  HIT %:    90.7203  MISS %:    9.27966  MPKI: 1.34384
L2C RFO DATA	ACCESS:     286449  HIT:     235506  MISS:      50943  HIT %:    82.2157  MISS %:    17.7843  MPKI: 1.01886
L2C PREFETCH DATA	ACCESS:     183185  HIT:     114895  MISS:      68290  HIT %:    62.7207  MISS %:    37.2793  MPKI: 1.3658
L2C WRITEBACK DATA	ACCESS:     519685  HIT:     504043  MISS:      15642  HIT %:    96.9901  MISS %:     3.0099  MPKI: 0.31284
L2C LOAD TRANSLATION DATA	ACCESS:       1902  HIT:        593  MISS:       1309  HIT %:    31.1777  MISS %:    68.8223  MPKI: 0.02618
L2C TRANSLATION FROM L1D PREFETCHER DATA	ACCESS:         43  HIT:         27  MISS:         16  HIT %:    62.7907  MISS %:    37.2093  MPKI: 0.00032

L2C PREFETCH  REQUESTED:      87878  ISSUED:      87878  USEFUL:       7634  USELESS:      61206
L2C USEFUL LOAD PREFETCHES:       7634 PREFETCH ISSUED TO LOWER LEVEL:      68704  ACCURACY: 11.1114
 TIMELY PREFETCHES:       7634 LATE PREFETCHES: 414 DROPPED PREFETCHES: 0
L2C AVERAGE MISS LATENCY: 38.5859 cycles
L2C RQ	ACCESS:    3778840	FORWARD:          0	MERGED:          0	TO_CACHE:    3778824
L2C WQ	ACCESS:     519685	FORWARD:         16	MERGED:          0	TO_CACHE:     519685
L2C PQ	ACCESS:     190457	FORWARD:          0	MERGED:       4115	TO_CACHE:     186342

L2C Dense regions hint from L2: 0
PSCL5 TOTAL     ACCESS:       4286  HIT:       2143  MISS:       2143  HIT %:         50  MISS %:         50   MPKI: 0.04286
PSCL5 LOAD TRANSLATION INSTRUCTION	ACCESS:       4204  HIT:       2102  MISS:       2102  HIT %:         50  MISS %:         50  MPKI: 0.04204
PSCL5 TRANSLATION FROM L1D PREFETCHER INSTRUCTION	ACCESS:         82  HIT:         41  MISS:         41  HIT %:         50  MISS %:         50  MPKI: 0.00082


PSCL4 TOTAL     ACCESS:       3325  HIT:       1660  MISS:       1665  HIT %:    49.9248  MISS %:    50.0752   MPKI: 0.0333
PSCL4 LOAD TRANSLATION INSTRUCTION	ACCESS:       3145  HIT:       1626  MISS:       1519  HIT %:    51.7011  MISS %:    48.2989  MPKI: 0.03038
PSCL4 TRANSLATION FROM L1D PREFETCHER INSTRUCTION	ACCESS:         68  HIT:         34  MISS:         34  HIT %:         50  MISS %:         50  MPKI: 0.00068
PSCL4 LOAD TRANSLATION DATA	ACCESS:        112  HIT:          0  MISS:        112  HIT %:          0  MISS %:        100  MPKI: 0.00224


PSCL3 TOTAL     ACCESS:       4252  HIT:       2121  MISS:       2131  HIT %:    49.8824  MISS %:    50.1176   MPKI: 0.04262
PSCL3 LOAD TRANSLATION INSTRUCTION	ACCESS:       3219  HIT:       2081  MISS:       1138  HIT %:    64.6474  MISS %:    35.3526  MPKI: 0.02276
PSCL3 TRANSLATION FROM L1D PREFETCHER INSTRUCTION	ACCESS:         61  HIT:         40  MISS:         21  HIT %:    65.5738  MISS %:    34.4262  MPKI: 0.00042
PSCL3 LOAD TRANSLATION DATA	ACCESS:        953  HIT:          0  MISS:        953  HIT %:          0  MISS %:        100  MPKI: 0.01906
PSCL3 TRANSLATION FROM L1D PREFETCHER DATA	ACCESS:         19  HIT:          0  MISS:         19  HIT %:          0  MISS %:        100  MPKI: 0.00038


PSCL2 TOTAL     ACCESS:       4180  HIT:       2037  MISS:       2143  HIT %:    48.7321  MISS %:    51.2679   MPKI: 0.04286
PSCL2 LOAD TRANSLATION INSTRUCTION	ACCESS:       2297  HIT:       1997  MISS:        300  HIT %:    86.9395  MISS %:    13.0605  MPKI: 0.006
PSCL2 TRANSLATION FROM L1D PREFETCHER INSTRUCTION	ACCESS:         40  HIT:         40  MISS:          0  HIT %:        100  MISS %:          0  MPKI: 0
PSCL2 LOAD TRANSLATION DATA	ACCESS:       1803  HIT:          0  MISS:       1803  HIT %:          0  MISS %:        100  MPKI: 0.03606
PSCL2 TRANSLATION FROM L1D PREFETCHER DATA	ACCESS:         40  HIT:          0  MISS:         40  HIT %:          0  MISS %:        100  MPKI: 0.0008


LLC TOTAL     ACCESS:     518667  HIT:     490131  MISS:      28536  HIT %:    94.4982  MISS %:     5.5018   MPKI: 0.57072
LLC LOAD INSTRUCTION	ACCESS:     258985  HIT:     257779  MISS:       1206  HIT %:    99.5343  MISS %:   0.465664  MPKI: 0.02412
LLC LOAD TRANSLATION INSTRUCTION	ACCESS:        247  HIT:        210  MISS:         37  HIT %:    85.0202  MISS %:    14.9798  MPKI: 0.00074
LLC LOAD DATA	ACCESS:      66782  HIT:      62954  MISS:       3828  HIT %:    94.2679  MISS %:    5.73208  MPKI: 0.07656
LLC RFO DATA	ACCESS:      50936  HIT:      37843  MISS:      13093  HIT %:    74.2952  MISS %:    25.7048  MPKI: 0.26186
LLC PREFETCH DATA	ACCESS:      68704  HIT:      58708  MISS:       9996  HIT %:    85.4506  MISS %:    14.5494  MPKI: 0.19992
LLC WRITEBACK DATA	ACCESS:      71688  HIT:      71400  MISS:        288  HIT %:    99.5983  MISS %:   0.401741  MPKI: 0.00576
LLC LOAD TRANSLATION DATA	ACCESS:       1309  HIT:       1222  MISS:         87  HIT %:    93.3537  MISS %:    6.64629  MPKI: 0.00174
LLC TRANSLATION FROM L1D PREFETCHER DATA	ACCESS:         16  HIT:         15  MISS:          1  HIT %:      93.75  MISS %:       6.25  MPKI: 2e-05

LLC AVERAGE MISS LATENCY: 154.238 cycles
LLC RQ	ACCESS:     378278	FORWARD:          0	MERGED:          0	TO_CACHE:     378275
LLC WQ	ACCESS:      71688	FORWARD:          3	MERGED:          0	TO_CACHE:      71688
LLC PQ	ACCESS:      68704	FORWARD:          0	MERGED:          0	TO_CACHE:      68704

LLC Dense regions hint to LLC: 0

RAW hits: 1177068
Loads Generated: 12631438
Loads sent to L1D: 11454368
Stores Generated: 6947023
Stores sent to L1D: 6947034
Major fault: 0 Minor fault: 2574
Allocated PAGES: 2574

stream: 
stream:times selected: 1190311
stream:pref_filled: 121466
stream:pref_useful: 25130
stream:pref_late: 5877
stream:misses: 7213
stream:misses_by_poll: 0

CS: 
CS:times selected: 178406
CS:pref_filled: 58633
CS:pref_useful: 35667
CS:pref_late: 6822
CS:misses: 16186
CS:misses_by_poll: 1

CPLX: 
CPLX:times selected: 1010747
CPLX:pref_filled: 21832
CPLX:pref_useful: 4946
CPLX:pref_late: 3099
CPLX:misses: 91598
CPLX:misses_by_poll: 0

NL_L1: 
NL:times selected: 19633
NL:pref_filled: 583
NL:pref_useful: 292
NL:pref_late: 367
NL:misses: 1381
NL:misses_by_poll: 0

total selections: 2399097
total_filled: 94668
total_useful: 34875
total_late: 17454
total_polluted: 1
total_misses_after_warmup: 763314
conflicts: 6014322

test: 119325

DRAM Statistics
 CHANNEL 0
 RQ ROW_BUFFER_HIT:      10202  ROW_BUFFER_MISS:      18041
 DBUS_CONGESTED:          8
 WQ ROW_BUFFER_HIT:       1464  ROW_BUFFER_MISS:      12082  FULL:          0

 AVG_CONGESTED_CYCLE: 4

CPU 0 Branch Prediction Accuracy: 99.8079% MPKI: 0.3514 Average ROB Occupancy at Mispredict: 67.6277
Branch types
NOT_BRANCH: 40852231 81.7045%
BRANCH_DIRECT_JUMP: 548369 1.09674%
BRANCH_INDIRECT: 182835 0.36567%
BRANCH_CONDITIONAL: 6181531 12.3631%
BRANCH_DIRECT_CALL: 945680 1.89136%
BRANCH_INDIRECT_CALL: 171667 0.343334%
BRANCH_RETURN: 1117345 2.23469%
BRANCH_OTHER: 0 0%

DRAM PAGES: 1048576
Allocated PAGES: 2574
Average_ROB_Occupancy: 51.2672
Average_Decode_Occupancy: 4.78972
Average_FTQ_Occupancy: 14.3277
Indirect max targets: 14 Average targets: 1.17891
Branch_type:  BRANCH_DIRECT_JUMP:  Count Percentage: 2.91477 6.57486 4.47909 8.3518 1.69881 6.29095 1.28634 68.4034 
Branch_type:  BRANCH_INDIRECT:  Count Percentage: 19.771 3.43624 2.55867 15.34 3.34635 1.20543 2.00322 52.3391 
Branch_type:  BRANCH_CONDITIONAL:  Count Percentage: 21.5929 3.18601 2.1372 4.24156 1.40314 4.15349 0.685974 62.5998 
Branch_type:  BRANCH_DIRECT_CALL:  Count Percentage: 0.260149 1.2659 1.44177 2.14266 2.67733 2.3642 0.621334 89.2266 
Branch_type:  BRANCH_INDIRECT_CALL:  Count Percentage: 9.55895 0.575714 2.99412 4.85549 0.938708 3.00112 0.999694 77.0762 
Branch_type:  BRANCH_RETURN:  Count Percentage: 4.50727 0.574686 1.97107 5.62672 2.66038 4.66119 1.06683 78.9319 
Branch_type:  BRANCH_DIRECT_JUMP:  Total Count: 31970 72115 49128 91605 18633 69001 14109 750268 
Branch_type:  BRANCH_INDIRECT:  Total Count: 72364 12577 9365 56146 12248 4412 7332 191567 
Branch_type:  BRANCH_CONDITIONAL:  Total Count: 2668835 393785 264154 524248 173425 513363 84785 7737203 
Branch_type:  BRANCH_DIRECT_CALL:  Total Count: 4905 23868 27184 40399 50480 44576 11715 1682331 
Branch_type:  BRANCH_INDIRECT_CALL:  Total Count: 32759 1973 10261 16640 3217 10285 3426 264144 
Branch_type:  BRANCH_RETURN:  Total Count: 100469 12810 43936 125422 59301 103900 23780 1759425 
Number of unique branch instructions: 10765
Upper 32 bits: 
aaaa
ffff
ffff0000
Unique upper 32 bits: 3
Unique upper 36 bits: 3
Unique upper 40 bits: 5
Unique upper 44 bits: 32
Unique upper 48 bits: 158
Variant_0 : 1393 0.340088
Variant_1 : 1305 0.318604
Variant_2 : 1355 0.330811
Variant_3 : 0 0
Offset_3 4455
Offset_4 258
Offset_5 483
Offset_6 538
Offset_7 638
Offset_8 572
Offset_9 524
Offset_10 426
Offset_11 355
Offset_12 327
Offset_13 236
Offset_14 247
Offset_15 194
Offset_16 232
Offset_17 167
Offset_18 149
Offset_19 257
Offset_20 143
Offset_21 235
Offset_22 413
Offset_23 241
Offset_24 344
Offset_25 117
Offset_47 92
Offset_64 2
decode_dispatch_called: 30512629 52.916
Dispatch_width: 0 18410117 60.3361 31.9274
Dispatch_width: 1 2329715 7.63525 4.04027
Dispatch_width: 2 1114999 3.65422 1.93367
Dispatch_width: 3 1081454 3.54428 1.87549
Dispatch_width: 4 997315 3.26853 1.72958
Dispatch_width: 5 1267839 4.15513 2.19873
Dispatch_width: 6 5311190 17.4065 9.21083
Empty_decode_cycles: 27149791 47.084
ROB_full_cycles: 480814 0.833843
Starvation_cycles_per_kilo_instr: 518.704
Starvation_cycles_per_kilo_instr_3: 496.053
Starvation_cycles_per_kilo_instr_0: 450.791
Branch_type_1  (3,1)  (4,9)  (5,39)  (6,72)  (7,125)  (8,149)  (9,136)  (10,111)  (11,79)  (12,55)  (13,11)  (14,2)  (15,3)  (16,4)  (18,1)  (19,5)  (20,2)  (21,1)  (22,3)  (23,2)  (24,10)  (25,12) 
Branch_type_2  (3,1)  (4,1)  (5,1)  (8,4)  (9,4)  (10,1)  (12,1)  (13,1)  (14,1)  (16,3)  (17,2)  (20,2)  (21,2)  (23,5)  (24,1)  (47,41) 
Branch_type_3  (3,4453)  (4,248)  (5,439)  (6,450)  (7,483)  (8,353)  (9,289)  (10,171)  (11,140)  (12,62)  (13,10)  (64,2) 
Branch_type_4  (6,3)  (7,8)  (8,25)  (9,56)  (10,68)  (11,70)  (12,117)  (13,100)  (14,112)  (15,92)  (16,102)  (17,78)  (18,65)  (19,125)  (20,73)  (21,124)  (22,218)  (23,136)  (24,199)  (25,101) 
Branch_type_5  (8,3)  (9,1)  (10,4)  (11,5)  (12,3)  (13,14)  (14,16)  (15,11)  (16,22)  (17,11)  (18,23)  (19,14)  (20,11)  (21,13)  (22,43)  (23,26)  (24,38) 
Branch_type_6  (5,4)  (6,13)  (7,22)  (8,38)  (9,38)  (10,71)  (11,61)  (12,89)  (13,100)  (14,116)  (15,88)  (16,101)  (17,76)  (18,60)  (19,113)  (20,55)  (21,95)  (22,149)  (23,72)  (24,96)  (25,4)  (47,51) 
Unique trigger count: 
Variant_0_evicts_0 : 0
Variant_0_evicts_1 : 0
Variant_0_evicts_2 : 0
Variant_0_evicts_3 : 0
Variant_1_evicts_0 : 0
Variant_1_evicts_1 : 0
Variant_1_evicts_2 : 0
Variant_1_evicts_3 : 0
Variant_2_evicts_0 : 0
Variant_2_evicts_1 : 0
Variant_2_evicts_2 : 0
Variant_2_evicts_3 : 0
Variant_3_evicts_0 : 0
Variant_3_evicts_1 : 0
Variant_3_evicts_2 : 0
Variant_3_evicts_3 : 0
BTB PER SET UNIQUE ADDR: 12 13 14 16 14 15 8 13 12 14 14 21 15 10 11 12 9 15 9 14 11 9 13 15 11 15 12 14 10 12 14 15 17 7 8 13 10 10 9 8 9 5 13 15 12 11 12 10 14 12 13 10 11 15 15 5 6 11 11 11 12 19 11 14 16 13 14 11 13 12 13 14 9 10 10 12 7 14 11 13 12 10 7 17 12 13 15 10 6 22 7 9 12 12 7 10 11 11 9 15 17 19 14 11 12 10 9 10 8 10 8 17 9 10 11 9 12 11 14 9 16 9 10 8 14 10 7 12 16 14 16 15 12 13 13 14 9 13 10 17 7 10 11 11 12 13 14 10 9 15 13 14 9 16 11 15 17 9 14 8 13 10 13 13 10 15 13 12 10 11 16 13 10 12 11 11 6 12 13 9 8 12 10 15 12 12 14 10 15 14 13 10 11 12 16 14 8 12 7 14 16 13 11 8 15 12 12 12 11 9 7 13 10 11 14 13 16 12 10 20 8 15 11 11 9 11 15 13 6 17 7 9 9 12 7 17 14 11 7 13 15 13 20 15 9 15 9 9 13 8 13 11 18 10 12 14 12 12 8 12 12 10 4 13 9 9 10 7 7 12 9 17 13 6 11 11 11 17 11 10 13 11 12 11 14 10 10 18 13 17 9 6 13 16 7 17 9 7 11 14 12 10 11 17 11 12 8 6 20 9 15 13 12 13 12 8 17 11 14 8 7 12 8 12 10 17 10 9 11 9 11 10 9 9 14 14 10 11 8 16 16 10 7 13 15 12 14 12 11 10 12 9 9 12 11 15 9 13 7 10 10 14 9 20 10 15 7 12 14 12 10 7 11 13 8 15 12 14 15 15 17 8 8 9 7 8 16 17 14 11 16 8 13 14 10 13 7 12 15 11 11 10 9 8 19 15 10 14 12 6 12 11 10 16 13 15 17 19 13 16 6 14 10 11 13 12 14 7 10 11 16 12 16 12 10 12 13 8 14 12 15 12 11 14 19 8 11 13 18 16 13 18 15 11 13 17 14 18 13 17 11 9 11 18 25 16 11 10 15 15 12 16 14 11 14 16 19 17 9 16 16 16 11 15 8 17 18 16 19 14 13 16 13 10 8 6 14 19 11 19 10 16 8 17 12 8 13 9 19 11 12 14 9 11 18 12 13 18 7 12 10 12 11 10 16 15 18 9 14 18 16 15 14 12 9 13 11 13 12 13 14 12 15 14 15 15 8 14 6 14 14 16 12 13 14 15 12 10 19 19 12 11 14 12 13 16 10 15 11 14 13 11 13 14 13 15 17 14 10 10 16 11 9 10 18 14 12 12 10 15 10 11 16 11 12 9 11 14 7 10 13 9 12 10 6 16 11 12 10 9 19 11 7 14 6 13 10 16 14 14 14 12 7 9 16 16 12 19 11 12 10 14 15 8 12 15 11 17 8 13 12 12 12 17 9 13 10 14 19 10 9 13 10 13 16 9 13 13 9 11 11 6 10 15 11 18 8 16 8 8 12 11 9 13 18 8 14 17 9 11 11 13 17 9 13 12 12 17 17 17 15 11 15 11 12 12 11 13 10 15 9 12 16 18 7 10 8 11 11 11 11 16 10 12 14 10 16 11 10 13 14 9 14 14 11 12 10 7 10 10 12 12 9 9 8 15 9 19 16 10 9 11 14 12 15 17 11 15 10 10 14 9 15 12 10 7 17 8 10 10 12 7 10 11 15 19 11 12 15 12 13 15 13 9 11 5 15 9 13 13 5 10 18 13 9 13 10 10 13 5 6 10 19 10 19 15 8 10 19 9 14 11 10 8 18 12 7 12 8 13 14 22 10 15 11 14 21 13 8 14 9 19 9 14 11 12 11 11 15 15 15 12 13 12 11 17 14 11 13 18 17 14 11 10 12 14 13 17 14 11 9 10 10 12 16 17 14 15 14 15 18 11 8 11 17 7 11 9 16 14 10 15 12 16 14 7 16 10 11 13 21 9 12 14 17 10 12 13 16 14 15 13 12 17 11 17 12 7 11 10 11 10 11 14 7 12 7 11 13 13 8 9 14 16 13 12 15 13 11 12 13 18 10 12 9 10 12 12 15 10 18 17 14 12 11 13 10 9 16 13 9 15 8 14 9 13 11 15 13 13 14 17 11 12 11 12 10 9 13 10 13 10 19 14 17 13 10 13 15 18 13 14 16 14 14 15 10 11 14 18 11 15 12 14 10 22 21 10 10 9 15 14 7 13 15 10 10 12 10 12 18 20 12 11 15 16 9 15 12 14 12 14 11 5 7 12 9 10 8 9 11 15 12 7 
BTB PER SET COUNT: 997 21 1229 26 639 24 10 712 1222 21 24 31 18986 1197 17 12 563 1266 620 17 47 9 729 20 18 22 17 1020 292 298 21 21 28 11 11 21 11 11 10 495 13 6 16 1202 1484 11 14 21 1603 14 25 407 14 19 257 5 6 14 14 13 13 3850 132 19 19 324 22 792 15 20 21 399 13 11 10 18 8 189 20 20 1002 13 800 32 17 308 29 10 6 49 8 904 509 17 7 12 415 20 16 19 24 215 16 18 1281 13 9 13 995 17 11 43 11 16 22 1197 25 18 1419 514 267 11 10 8 17 13 8 15 27 962 22 21 21 23 16 28 896 21 12 24 8 261 14 19 14 319 30 12 11 262 22 168 753 23 18 18 173 11 17 10 21 161 17 19 18 932 19 14 12 1259 23 20 13 20 14 17 6 14 601 997 15 17 3435 22 14 631 15 10 256 1009 16 10 15 14 24 16 10 53 7 200 21 15 986 11 20 16 13 18 12 13 8 18 10 12 17 192 26 16 899 32 10 31 12 13 14 21 20 105 443 19 8 11 10 19 7 26 38 252 11 16 20 18 31 17 10 24 12 15 19 14 17 14 25 10 19 28 49 16 11 16 807 10 5 19 10 13 14 14 1633 25 11 1011 19 8 420 11 13 20 16 815 15 17 805 12 18 14 12 376 20 21 10 6 15 27 10 21 1955 11 12 414 16 13 95 26 11 19 13 7 29 13 19 25 14 15 464 1486 23 15 15 12 8 2435 9 15 13 154 13 11 14 16 16 12 11 12 14 21 13 987 8 33 23 998 7 22 22 16 16 17 16 16 19 10 21 16 12 21 14 24 135 24 25 18 10 24 12 1460 8 18 20 15 15 13 11 20 89 18 16 19 19 21 1283 12 8 12 10 8 1325 26 21 14 108 9 17 20 12 16 9 20 18 16 11 20 13 12 43 19 15 19 16 14 17 13 11 22 17 19 22 1604 100 26 9 19 13 18 21 16 24 7 18 12 28 18 25 21 19 21 18 9 16 22 1364 16 14 32 456 8 414 18 22 23 1500 2415 19 15 222 20 23 26 14 21 34 9 12 26 36 122 14391 10 19 28 26 20 15 18 21 28 32 42 11 27 24 16 12 17 11 23 110 20 1346 132 22 23 4847 14 11 6 1003 32 13 34 14 16 8 119 20 8 16 14 29 15 274 23 11 15 35 19 15 24 7 809 16 17 15 344 19 22 227 10 21 500 26 97 21 14 12 17 16 1009 14 439 18 18 30 21 22 342 15 27 6 31 17 24 21 14 21 21 19 15 39 27 15 98 15 15 512 27 14 21 17 515 1474 22 16 21 2453 17 41 1162 12 22 25 15 12 4148 24 22 170 16 11 19 13 16 24 15 19 18 2017 401 8 11 19 11 15 13 9 19 14 3835 15 10 23 984 448 19 7 19 14 20 20 21 22 16 9 789 19 22 16 35 12 16 12 22 17 14 15 24 17 209 9 22 16 20 15 27 9 27 1000 20 23 13 11 17 14 17 24 506 23 206 809 13 149 6 15 19 194 32 10 247 1474 8 14 14 411 20 69 503 19 30 13 14 17 17 1626 26 20 14 17 25 246 26 20 14 17 14 701 16 19 2443 14 20 979 21 1489 25 9 12 11 15 12 26 12 19 1039 19 207 16 198 13 15 715 20 12 23 1680 18 12 10 10 13 13 134 136 12 119 10 30 11 29 26 11 222 15 19 26 988 22 14 15 15 14 1485 11 17 1974 1108 9 25 8 13 14 21 9 12 147 562 29 11 13 19 13 15 17 18 9 18 5 17 551 15 15 7 12 584 18 9 85 12 13 19 5 6 191 30 19 39 30 9 12 29 981 23 24 13 15 30 12 9 16 10 62 21 129 17 875 18 345 25 1483 8 22 9 150 14 17 20 13 16 12 32 25 20 23 17 16 408 1805 15 13 876 145 28 23 14 17 14 20 19 28 24 176 13 385 14 17 1488 21 17 28 19 17 27 14 8 17 21 10 17 13 23 19 497 23 16 21 19 7 21 13 14 22 27 15 126 64 431 12 12 18 25 22 19 19 360 3197 12 26 15 9 19 12 15 12 16 1006 10 19 9 15 17 170 8 9 23 23 34 16 20 495 15 16 18 222 916 19 10 1096 18 13 23 28 29 24 127 21 22 52 16 12 29 16 10 27 10 21 13 24 14 26 14 17 25 68 89 1083 16 15 193 13 56 18 17 17 927 23 21 17 10 19 48 28 35 389 21 25 20 20 15 17 446 155 13 22 16 208 15 33 402 505 10 13 24 200 9 17 26 13 11 1213 26 19 93 938 22 12 23 20 16 19 13 993 1495 31 15 5 8 25 13 13 12 11 15 18 23 8 
To predecode: 0
Predecoding something: 0
Predecode request dropped: 0
sizeofblock_0 0
sizeofblock_1 31052
sizeofblock_2 41483
sizeofblock_3 48495
sizeofblock_4 24901
sizeofblock_5 0
sizeofblock_6 0
sizeofblock_7 0
sizeofblock_8 0
Variant_0 Correct: 1612591 Incorrect: 0 Accuracy: 1
Variant_1 Correct: 2089511 Incorrect: 0 Accuracy: 1
Variant_2 Correct: 3637035 Incorrect: 0 Accuracy: 1
Variant_3 Correct: 0 Incorrect: 0 Accuracy: -nan
