
*** ChampSim Multicore Out-of-Order Simulator ***

Warmup Instructions: 50000000
Simulation Instructions: 50000000
Number of CPUs: 1
LLC sets: 2048
LLC ways: 16
Off-chip DRAM Size: 4096 MB Channels: 1 Width: 64-bit Data Rate: 6400 MT/s
CPU 0 runs ./micro_traces/srv67.trace.gz
.gz
ITLB has LRU replacement policy
DTLB has LRU replacement policy
STLB has LRU replacement policy
CPU 0 L1I next line prefetcher
L1I has LRU replacement policy
L1D has LRU replacement policy
Initialize SRRIP state for L2C
Initialize DRRIP state for LLC
Heartbeat CPU 0 instructions: 10000000 cycles: 2795727 heartbeat IPC: 3.57689 cumulative IPC: 3.57689 (Simulation time: 0 hr 1 min 44 sec) 
Heartbeat CPU 0 instructions: 20000003 cycles: 5591236 heartbeat IPC: 3.57717 cumulative IPC: 3.57703 (Simulation time: 0 hr 3 min 23 sec) 
Heartbeat CPU 0 instructions: 30000000 cycles: 8387525 heartbeat IPC: 3.57617 cumulative IPC: 3.57674 (Simulation time: 0 hr 5 min 3 sec) 
Heartbeat CPU 0 instructions: 40000001 cycles: 11183317 heartbeat IPC: 3.5768 cumulative IPC: 3.57676 (Simulation time: 0 hr 6 min 42 sec) 
Heartbeat CPU 0 instructions: 50000000 cycles: 13978643 heartbeat IPC: 3.5774 cumulative IPC: 3.57689 (Simulation time: 0 hr 8 min 16 sec) 

Warmup complete CPU 0 instructions: 50000004 cycles: 13978644 (Simulation time: 0 hr 8 min 16 sec) 

Cycle: 20000000 FTQ IN: 56564197 FTQ occupancy: 17.2434 DECODE IN: 56564191 DECODE occupancy: 45.067 ROB IN: 56564191 ROB occupancy: 280.613 ROB OUT: 56564013
Heartbeat CPU 0 instructions: 60000003 cycles: 23116624 heartbeat IPC: 1.09433 cumulative IPC: 1.09433 (Simulation time: 0 hr 9 min 34 sec) 
Cycle: 30000000 FTQ IN: 10966325 FTQ occupancy: 3.70109 DECODE IN: 10966331 DECODE occupancy: 9.89265 ROB IN: 10966331 ROB occupancy: 120.646 ROB OUT: 10966320
Heartbeat CPU 0 instructions: 70000002 cycles: 32241681 heartbeat IPC: 1.09588 cumulative IPC: 1.09511 (Simulation time: 0 hr 10 min 52 sec) 
Cycle: 40000000 FTQ IN: 10955585 FTQ occupancy: 3.92174 DECODE IN: 10955561 DECODE occupancy: 10.3919 ROB IN: 10955561 ROB occupancy: 122.94 ROB OUT: 10955723
Heartbeat CPU 0 instructions: 80000000 cycles: 41373993 heartbeat IPC: 1.09501 cumulative IPC: 1.09508 (Simulation time: 0 hr 12 min 9 sec) 
Cycle: 50000000 FTQ IN: 11018719 FTQ occupancy: 3.62963 DECODE IN: 11018736 DECODE occupancy: 9.86179 ROB IN: 11018736 ROB occupancy: 122.329 ROB OUT: 11018631
Heartbeat CPU 0 instructions: 90000002 cycles: 50457114 heartbeat IPC: 1.10094 cumulative IPC: 1.09654 (Simulation time: 0 hr 13 min 28 sec) 
Heartbeat CPU 0 instructions: 100000000 cycles: 59582870 heartbeat IPC: 1.0958 cumulative IPC: 1.09639 (Simulation time: 0 hr 14 min 48 sec) 
Finished CPU 0 instructions: 50000000 cycles: 45604227 cumulative IPC: 1.09639 (Simulation time: 0 hr 14 min 48 sec) 

ChampSim completed all CPUs

Region of Interest Statistics

CPU 0 cumulative IPC: 1.09639 instructions: 50000000 cycles: 45604227
 Fetch stage stalled: 73.3509  Sim cycles: 45604227 fetch stall cycle: 33451111
 Empty decode stage: 57.807  Sim cycles: 45604227 fetch stall cycle: 26362439
ITLB TOTAL     ACCESS:    7599713  HIT:    7003049  MISS:     596664  HIT %:    92.1489  MISS %:    7.85114   MPKI: 11.9333
ITLB LOAD TRANSLATION INSTRUCTION	ACCESS:    5862457  HIT:    5734438  MISS:     128019  HIT %:    97.8163  MISS %:    2.18371  MPKI: 2.56038
ITLB TRANSLATION FROM L1D PREFETCHER INSTRUCTION	ACCESS:    1737256  HIT:    1268611  MISS:     468645  HIT %:    73.0238  MISS %:    26.9762  MPKI: 9.3729

ITLB AVERAGE MISS LATENCY: 106446 cycles
ITLB RQ	ACCESS:   11440827	FORWARD:          0	MERGED:    3702476	TO_CACHE:    7738351

DTLB TOTAL     ACCESS:    9374694  HIT:    8908289  MISS:     466405  HIT %:    95.0249  MISS %:    4.97515   MPKI: 9.3281
DTLB LOAD TRANSLATION DATA	ACCESS:    9374694  HIT:    8908289  MISS:     466405  HIT %:    95.0249  MISS %:    4.97515  MPKI: 9.3281

DTLB AVERAGE MISS LATENCY: 9.34916 cycles
DTLB RQ	ACCESS:   13641672	FORWARD:          0	MERGED:    4233970	TO_CACHE:    9407702

STLB TOTAL     ACCESS:    1317568  HIT:    1315552  MISS:       2016  HIT %:     99.847  MISS %:   0.153009   MPKI: 0.04032
STLB LOAD TRANSLATION INSTRUCTION	ACCESS:     126329  HIT:     126175  MISS:        154  HIT %:    99.8781  MISS %:   0.121904  MPKI: 0.00308
STLB TRANSLATION FROM L1D PREFETCHER INSTRUCTION	ACCESS:     470335  HIT:     470246  MISS:         89  HIT %:    99.9811  MISS %:  0.0189227  MPKI: 0.00178
STLB LOAD TRANSLATION DATA	ACCESS:     466404  HIT:     464643  MISS:       1761  HIT %:    99.6224  MISS %:    0.37757  MPKI: 0.03522
STLB TRANSLATION FROM L1D PREFETCHER DATA	ACCESS:     254500  HIT:     254488  MISS:         12  HIT %:    99.9953  MISS %: 0.00471513  MPKI: 0.00024

STLB AVERAGE MISS LATENCY: 79.8274 cycles
STLB RQ	ACCESS:    1453115	FORWARD:          0	MERGED:     131867	TO_CACHE:    1321248

STLB Hit, L1D data hit: 0
STLB Hit, L2C data hit: 0
STLB Hit, LLC data hit: 0
STLB Hit, LLC data miss: 0
STLB STLB hints to L2: 0
L1D TOTAL     ACCESS:   13390600  HIT:   12266151  MISS:    1124449  HIT %:    91.6027  MISS %:     8.3973   MPKI: 22.489
L1D LOAD DATA	ACCESS:    6843230  HIT:    6103836  MISS:     739394  HIT %:    89.1952  MISS %:    10.8048  MPKI: 14.7879
L1D RFO DATA	ACCESS:    6212188  HIT:    5925265  MISS:     286923  HIT %:    95.3813  MISS %:    4.61871  MPKI: 5.73846
L1D PREFETCH DATA	ACCESS:     335182  HIT:     237050  MISS:      98132  HIT %:    70.7228  MISS %:    29.2772  MPKI: 1.96264

L1D PREFETCH  REQUESTED:     773082  ISSUED:     773082  USEFUL:      39544  USELESS:      69542
L1D USEFUL LOAD PREFETCHES:      39544 PREFETCH ISSUED TO LOWER LEVEL:     109163  ACCURACY: 36.2247
 TIMELY PREFETCHES:      39544 LATE PREFETCHES: 10953 DROPPED PREFETCHES: 3
L1D AVERAGE MISS LATENCY: 361897 cycles
L1D RQ	ACCESS:   10927722	FORWARD:          0	MERGED:    3881351	TO_CACHE:    6882716
L1D WQ	ACCESS:    6927607	FORWARD:     163923	MERGED:     168651	TO_CACHE:    6758956
L1D PQ	ACCESS:     386675	FORWARD:          0	MERGED:          0	TO_CACHE:     386407

L1D UNIQUE REGIONS ACCESSED: 0
L1D REGIONS CONFLICTS: 0
L1D Cross Page Prefetch Requests: 5399
L1D Same Page Prefetch Requests: 778820
L1D ROI Sum of L1D PQ occupancy: 4932329
L1D PREFETCHES PUSHED FROM L2C: 0
L1I TOTAL     ACCESS:   11156676  HIT:    7571317  MISS:    3585359  HIT %:    67.8636  MISS %:    32.1364   MPKI: 71.7072
L1I LOAD INSTRUCTION	ACCESS:    6669846  HIT:    6163867  MISS:     505979  HIT %:    92.4139  MISS %:    7.58607  MPKI: 10.1196
L1I PREFETCH INSTRUCTION	ACCESS:    4486830  HIT:    1407450  MISS:    3079380  HIT %:    31.3685  MISS %:    68.6315  MPKI: 61.5876

L1I PREFETCH  REQUESTED:    5017059  ISSUED:    5017030  USEFUL:    2367804  USELESS:     753600
L1I USEFUL LOAD PREFETCHES:    2367804 PREFETCH ISSUED TO LOWER LEVEL:    3121370  ACCURACY: 75.8578
 TIMELY PREFETCHES:    2367804 LATE PREFETCHES: 41989 DROPPED PREFETCHES: 9889
L1I AVERAGE MISS LATENCY: 422790 cycles
L1I RQ	ACCESS:    9428010	FORWARD:          0	MERGED:    2737498	TO_CACHE:    6690512
L1I PQ	ACCESS:    5017030	FORWARD:          0	MERGED:     266715	TO_CACHE:    4750315

L1BTB TOTAL     ACCESS:    5673197  HIT:    2065920  MISS:    3607277  HIT %:    36.4154  MISS %:    63.5846   MPKI: 72.1455
L1BTB BRANCH_DIRECT_JUMP	ACCESS:     548416  HIT:     145413  MISS:     403003	AVERAGE STALL: 19.6175
L1BTB BRANCH_INDIRECT	ACCESS:     183049  HIT:      66361  MISS:     116688	AVERAGE STALL: 77.9465
L1BTB BRANCH_CONDITIONAL	ACCESS:    2727619  HIT:    1440788  MISS:    1286831	AVERAGE STALL: 19.5336
L1BTB BRANCH_DIRECT_CALL	ACCESS:     936625  HIT:     104446  MISS:     832179	AVERAGE STALL: 20.2251
L1BTB BRANCH_INDIRECT_CALL	ACCESS:     170429  HIT:      20874  MISS:     149555	AVERAGE STALL: 102.098
L1BTB BRANCH_RETURN	ACCESS:    1107059  HIT:     288038  MISS:     819021	AVERAGE STALL: 21.5459
L1BTB BRANCH_OTHER ACCESS:          0  HIT:          0  MISS:          0	AVERAGE STALL: -nan
L1BTB TOTAL ROB OCCUPANCY AT BTB MISS: 29.6589

L2BTB TOTAL     ACCESS:    3581823  HIT:    2545100  MISS:    1036723  HIT %:     71.056  MISS %:     28.944   MPKI: 20.7345
L2BTB BRANCH_DIRECT_JUMP	ACCESS:     398766  HIT:     281277  MISS:     117489	AVERAGE STALL: 19.6175
L2BTB BRANCH_INDIRECT	ACCESS:     106481  HIT:      93154  MISS:      13327	AVERAGE STALL: 77.9465
L2BTB BRANCH_CONDITIONAL	ACCESS:    1286831  HIT:     912819  MISS:     374012	AVERAGE STALL: 19.5336
L2BTB BRANCH_DIRECT_CALL	ACCESS:     832179  HIT:     564686  MISS:     267493	AVERAGE STALL: 20.2251
L2BTB BRANCH_INDIRECT_CALL	ACCESS:     139939  HIT:      90797  MISS:      49142	AVERAGE STALL: 102.098
L2BTB BRANCH_RETURN	ACCESS:     817627  HIT:     602367  MISS:     215260	AVERAGE STALL: 21.5459
L2BTB BRANCH_OTHER ACCESS:          0  HIT:          0  MISS:          0	AVERAGE STALL: -nan
L2BTB TOTAL ROB OCCUPANCY AT BTB MISS: 103.198

L2C TOTAL     ACCESS:    6569449  HIT:    5514745  MISS:    1054704  HIT %:    83.9453  MISS %:    16.0547   MPKI: 21.0941
L2C LOAD INSTRUCTION	ACCESS:     463990  HIT:     379063  MISS:      84927  HIT %:    81.6964  MISS %:    18.3036  MPKI: 1.69854
L2C PREFETCH INSTRUCTION	ACCESS:    3121369  HIT:    2736905  MISS:     384464  HIT %:    87.6828  MISS %:    12.3172  MPKI: 7.68928
L2C LOAD TRANSLATION INSTRUCTION	ACCESS:        176  HIT:         51  MISS:        125  HIT %:    28.9773  MISS %:    71.0227  MPKI: 0.0025
L2C TRANSLATION FROM L1D PREFETCHER INSTRUCTION	ACCESS:       5091  HIT:       4900  MISS:        191  HIT %:    96.2483  MISS %:    3.75172  MPKI: 0.00382
L2C LOAD DATA	ACCESS:     728418  HIT:     566680  MISS:     161738  HIT %:     77.796  MISS %:     22.204  MPKI: 3.23476
L2C RFO DATA	ACCESS:     286796  HIT:     190173  MISS:      96623  HIT %:    66.3095  MISS %:    33.6905  MPKI: 1.93246
L2C PREFETCH DATA	ACCESS:    1441342  HIT:    1164603  MISS:     276739  HIT %:    80.7999  MISS %:    19.2001  MPKI: 5.53478
L2C WRITEBACK DATA	ACCESS:     520394  HIT:     472005  MISS:      48389  HIT %:    90.7015  MISS %:    9.29853  MPKI: 0.96778
L2C LOAD TRANSLATION DATA	ACCESS:       1847  HIT:        351  MISS:       1496  HIT %:    19.0038  MISS %:    80.9962  MPKI: 0.02992
L2C TRANSLATION FROM L1D PREFETCHER DATA	ACCESS:         26  HIT:         14  MISS:         12  HIT %:    53.8462  MISS %:    46.1538  MPKI: 0.00024

L2C PREFETCH  REQUESTED:    3248751  ISSUED:    3248751  USEFUL:      31057  USELESS:     632726
L2C USEFUL LOAD PREFETCHES:      31057 PREFETCH ISSUED TO LOWER LEVEL:     663008  ACCURACY: 4.68426
 TIMELY PREFETCHES:      31057 LATE PREFETCHES: 1805 DROPPED PREFETCHES: 0
L2C AVERAGE MISS LATENCY: 33.6038 cycles
L2C RQ	ACCESS:    1486416	FORWARD:          0	MERGED:          0	TO_CACHE:    1486344
L2C WQ	ACCESS:     520394	FORWARD:         72	MERGED:          0	TO_CACHE:     520394
L2C PQ	ACCESS:    6479284	FORWARD:          0	MERGED:    1900096	TO_CACHE:    4579188

L2C Dense regions hint from L2: 0
PSCL5 TOTAL     ACCESS:      11322  HIT:       5661  MISS:       5661  HIT %:         50  MISS %:         50   MPKI: 0.11322
PSCL5 LOAD TRANSLATION INSTRUCTION	ACCESS:       3812  HIT:       1906  MISS:       1906  HIT %:         50  MISS %:         50  MPKI: 0.03812
PSCL5 TRANSLATION FROM L1D PREFETCHER INSTRUCTION	ACCESS:       7510  HIT:       3755  MISS:       3755  HIT %:         50  MISS %:         50  MPKI: 0.0751


PSCL4 TOTAL     ACCESS:      11152  HIT:       5571  MISS:       5581  HIT %:    49.9552  MISS %:    50.0448   MPKI: 0.11162
PSCL4 LOAD TRANSLATION INSTRUCTION	ACCESS:       2455  HIT:       1830  MISS:        625  HIT %:    74.5418  MISS %:    25.4582  MPKI: 0.0125
PSCL4 TRANSLATION FROM L1D PREFETCHER INSTRUCTION	ACCESS:       5237  HIT:       3741  MISS:       1496  HIT %:     71.434  MISS %:     28.566  MPKI: 0.02992
PSCL4 LOAD TRANSLATION DATA	ACCESS:       1215  HIT:          0  MISS:       1215  HIT %:          0  MISS %:        100  MPKI: 0.0243
PSCL4 TRANSLATION FROM L1D PREFETCHER DATA	ACCESS:       2245  HIT:          0  MISS:       2245  HIT %:          0  MISS %:        100  MPKI: 0.0449


PSCL3 TOTAL     ACCESS:      11228  HIT:       5609  MISS:       5619  HIT %:    49.9555  MISS %:    50.0445   MPKI: 0.11238
PSCL3 LOAD TRANSLATION INSTRUCTION	ACCESS:       2493  HIT:       1868  MISS:        625  HIT %:    74.9298  MISS %:    25.0702  MPKI: 0.0125
PSCL3 TRANSLATION FROM L1D PREFETCHER INSTRUCTION	ACCESS:       5237  HIT:       3741  MISS:       1496  HIT %:     71.434  MISS %:     28.566  MPKI: 0.02992
PSCL3 LOAD TRANSLATION DATA	ACCESS:       1253  HIT:          0  MISS:       1253  HIT %:          0  MISS %:        100  MPKI: 0.02506
PSCL3 TRANSLATION FROM L1D PREFETCHER DATA	ACCESS:       2245  HIT:          0  MISS:       2245  HIT %:          0  MISS %:        100  MPKI: 0.0449


PSCL2 TOTAL     ACCESS:       8530  HIT:       4206  MISS:       4324  HIT %:    49.3083  MISS %:    50.6917   MPKI: 0.08648
PSCL2 LOAD TRANSLATION INSTRUCTION	ACCESS:       1980  HIT:       1807  MISS:        173  HIT %:    91.2626  MISS %:    8.73737  MPKI: 0.00346
PSCL2 TRANSLATION FROM L1D PREFETCHER INSTRUCTION	ACCESS:       4772  HIT:       2399  MISS:       2373  HIT %:    50.2724  MISS %:    49.7276  MPKI: 0.04746
PSCL2 LOAD TRANSLATION DATA	ACCESS:       1752  HIT:          0  MISS:       1752  HIT %:          0  MISS %:        100  MPKI: 0.03504
PSCL2 TRANSLATION FROM L1D PREFETCHER DATA	ACCESS:         26  HIT:          0  MISS:         26  HIT %:          0  MISS %:        100  MPKI: 0.00052


LLC TOTAL     ACCESS:    1149153  HIT:    1117257  MISS:      31896  HIT %:    97.2244  MISS %:    2.77561   MPKI: 0.63792
LLC LOAD INSTRUCTION	ACCESS:      84351  HIT:      84006  MISS:        345  HIT %:     99.591  MISS %:   0.409005  MPKI: 0.0069
LLC PREFETCH INSTRUCTION	ACCESS:     382205  HIT:     381568  MISS:        637  HIT %:    99.8333  MISS %:   0.166664  MPKI: 0.01274
LLC LOAD TRANSLATION INSTRUCTION	ACCESS:        125  HIT:         94  MISS:         31  HIT %:       75.2  MISS %:       24.8  MPKI: 0.00062
LLC TRANSLATION FROM L1D PREFETCHER INSTRUCTION	ACCESS:        191  HIT:        168  MISS:         23  HIT %:    87.9581  MISS %:    12.0419  MPKI: 0.00046
LLC LOAD DATA	ACCESS:     160528  HIT:     156645  MISS:       3883  HIT %:    97.5811  MISS %:    2.41889  MPKI: 0.07766
LLC RFO DATA	ACCESS:      96591  HIT:      80925  MISS:      15666  HIT %:    83.7811  MISS %:    16.2189  MPKI: 0.31332
LLC PREFETCH DATA	ACCESS:     280802  HIT:     269899  MISS:      10903  HIT %:    96.1172  MISS %:    3.88281  MPKI: 0.21806
LLC WRITEBACK DATA	ACCESS:     142852  HIT:     142548  MISS:        304  HIT %:    99.7872  MISS %:   0.212808  MPKI: 0.00608
LLC LOAD TRANSLATION DATA	ACCESS:       1496  HIT:       1393  MISS:        103  HIT %:     93.115  MISS %:    6.88503  MPKI: 0.00206
LLC TRANSLATION FROM L1D PREFETCHER DATA	ACCESS:         12  HIT:         11  MISS:          1  HIT %:    91.6667  MISS %:    8.33333  MPKI: 2e-05

LLC AVERAGE MISS LATENCY: 163.199 cycles
LLC RQ	ACCESS:     343307	FORWARD:          0	MERGED:          0	TO_CACHE:     343294
LLC WQ	ACCESS:     142852	FORWARD:         14	MERGED:          0	TO_CACHE:     142852
LLC PQ	ACCESS:     663008	FORWARD:          0	MERGED:          0	TO_CACHE:     663007

LLC Dense regions hint to LLC: 0

RAW hits: 1703908
Loads Generated: 12631632
Loads sent to L1D: 10927722
Stores Generated: 6927584
Stores sent to L1D: 6927607
Major fault: 0 Minor fault: 2540
Allocated PAGES: 2540
I-Shadow cache 408 bytes
Touched + WorthPF tables 12288 bytes 
MMA filter 174 bytes 
FNL filter 272 bytes 
TOTAL PREFETCHER STORAGE SIZE: 31318 bytes
CPU 0 L1I next line prefetcher final stats

stream: 
stream:times selected: 1213428
stream:pref_filled: 121174
stream:pref_useful: 23990
stream:pref_late: 8914
stream:misses: 9363
stream:misses_by_poll: 0

CS: 
CS:times selected: 184363
CS:pref_filled: 59912
CS:pref_useful: 35461
CS:pref_late: 13934
CS:misses: 25570
CS:misses_by_poll: 4

CPLX: 
CPLX:times selected: 1027940
CPLX:pref_filled: 21470
CPLX:pref_useful: 5464
CPLX:pref_late: 3523
CPLX:misses: 106777
CPLX:misses_by_poll: 31

NL_L1: 
NL:times selected: 13462
NL:pref_filled: 615
NL:pref_useful: 148
NL:pref_late: 324
NL:misses: 1223
NL:misses_by_poll: 0

total selections: 2439193
total_filled: 98132
total_useful: 39544
total_late: 28428
total_polluted: 35
total_misses_after_warmup: 778882
conflicts: 5648005

test: 116657

DRAM Statistics
 CHANNEL 0
 RQ ROW_BUFFER_HIT:      11303  ROW_BUFFER_MISS:      20268
 DBUS_CONGESTED:         13
 WQ ROW_BUFFER_HIT:       1588  ROW_BUFFER_MISS:      13804  FULL:          0

 AVG_CONGESTED_CYCLE: 3

CPU 0 Branch Prediction Accuracy: 99.8196% MPKI: 0.32972 Average ROB Occupancy at Mispredict: 131.919
Branch types
NOT_BRANCH: 40858505 81.717%
BRANCH_DIRECT_JUMP: 548416 1.09683%
BRANCH_INDIRECT: 183049 0.366098%
BRANCH_CONDITIONAL: 6195459 12.3909%
BRANCH_DIRECT_CALL: 936625 1.87325%
BRANCH_INDIRECT_CALL: 170429 0.340858%
BRANCH_RETURN: 1107059 2.21412%
BRANCH_OTHER: 0 0%

DRAM PAGES: 1048576
Allocated PAGES: 2540
Average_ROB_Occupancy: 123.119
Average_Decode_Occupancy: 10.133
Average_FTQ_Occupancy: 3.79801
Indirect max targets: 14 Average targets: 1.14626
Branch_type:  BRANCH_DIRECT_JUMP:  Count Percentage: 2.91457 6.24774 4.36172 8.78922 2.61495 6.18616 2.02437 66.8613 
Branch_type:  BRANCH_INDIRECT:  Count Percentage: 11.7421 3.44129 2.56447 3.72854 3.34079 4.01059 3.19922 67.973 
Branch_type:  BRANCH_CONDITIONAL:  Count Percentage: 20.8858 3.31184 5.57626 4.81141 1.72276 4.74575 0.898458 58.0477 
Branch_type:  BRANCH_DIRECT_CALL:  Count Percentage: 0.260141 1.75857 1.45318 3.89568 2.55866 3.42186 0.773564 85.8783 
Branch_type:  BRANCH_INDIRECT_CALL:  Count Percentage: 9.53135 0 2.98574 5.40262 0 4.04254 0.997487 77.0403 
Branch_type:  BRANCH_RETURN:  Count Percentage: 2.27738 1.56671 5.99764 3.11508 3.38244 6.84627 1.43177 75.3827 
Branch_type:  BRANCH_DIRECT_JUMP:  Total Count: 31896 68373 47733 96186 28617 67699 22154 731705 
Branch_type:  BRANCH_INDIRECT:  Total Count: 42880 12567 9365 13616 12200 14646 11683 248226 
Branch_type:  BRANCH_CONDITIONAL:  Total Count: 2585868 410039 690397 595701 213295 587571 111238 7186885 
Branch_type:  BRANCH_DIRECT_CALL:  Total Count: 4893 33077 27333 73274 48126 64362 14550 1615290 
Branch_type:  BRANCH_INDIRECT_CALL:  Total Count: 32622 0 10219 18491 0 13836 3414 263678 
Branch_type:  BRANCH_RETURN:  Total Count: 50648 34843 133385 69278 75224 152258 31842 1676479 
Number of unique branch instructions: 9822
Upper 32 bits: 
aaaa
ffff
ffff0000
Unique upper 32 bits: 3
Unique upper 36 bits: 3
Unique upper 40 bits: 5
Unique upper 44 bits: 32
Unique upper 48 bits: 154
Offset_3 4059
Offset_4 250
Offset_5 446
Offset_6 502
Offset_7 578
Offset_8 496
Offset_9 465
Offset_10 379
Offset_11 305
Offset_12 270
Offset_13 197
Offset_14 227
Offset_15 184
Offset_16 221
Offset_17 141
Offset_18 118
Offset_19 234
Offset_20 137
Offset_21 235
Offset_22 392
Offset_23 243
Offset_24 324
Offset_25 88
Offset_47 80
decode_dispatch_called: 20916509 45.8653
Dispatch_width: 0 10189921 48.7171 22.3442
Dispatch_width: 1 700269 3.34792 1.53554
Dispatch_width: 2 1004900 4.80434 2.20352
Dispatch_width: 3 693765 3.31683 1.52127
Dispatch_width: 4 2121671 10.1435 4.65236
Dispatch_width: 5 514250 2.45858 1.12764
Dispatch_width: 6 5691733 27.2117 12.4807
Empty_decode_cycles: 24687718 54.1347
ROB_full_cycles: 2503865 5.49042
Starvation_cycles_per_kilo_instr: 374.086
Starvation_cycles_per_kilo_instr_3: 347.727
Starvation_cycles_per_kilo_instr_0: 323.738
Branch_type_1  (3,1)  (4,9)  (5,37)  (6,70)  (7,115)  (8,126)  (9,124)  (10,97)  (11,67)  (12,43)  (13,5)  (14,2)  (15,3)  (16,4)  (18,1)  (19,4)  (20,2)  (21,1)  (22,3)  (23,2)  (24,10)  (25,12) 
Branch_type_2  (3,1)  (5,1)  (8,3)  (9,3)  (12,1)  (13,1)  (14,1)  (16,3)  (17,2)  (20,2)  (21,2)  (23,5)  (24,1)  (47,36) 
Branch_type_3  (3,4057)  (4,241)  (5,404)  (6,417)  (7,433)  (8,307)  (9,254)  (10,152)  (11,122)  (12,50)  (13,4) 
Branch_type_4  (6,3)  (7,8)  (8,25)  (9,52)  (10,62)  (11,59)  (12,97)  (13,85)  (14,100)  (15,86)  (16,99)  (17,63)  (18,53)  (19,114)  (20,72)  (21,124)  (22,208)  (23,137)  (24,185)  (25,72) 
Branch_type_5  (8,2)  (9,1)  (10,3)  (11,5)  (12,3)  (13,14)  (14,16)  (15,11)  (16,20)  (17,11)  (18,16)  (19,12)  (20,10)  (21,13)  (22,42)  (23,26)  (24,37) 
Branch_type_6  (5,4)  (6,12)  (7,22)  (8,33)  (9,31)  (10,65)  (11,52)  (12,76)  (13,88)  (14,108)  (15,84)  (16,95)  (17,65)  (18,48)  (19,104)  (20,51)  (21,95)  (22,139)  (23,73)  (24,91)  (25,4)  (47,44) 
Unique trigger count: 
BTB PER SET UNIQUE ADDR: 22 27 21 26 24 27 17 24 13 26 18 27 26 20 23 17 21 20 22 27 23 19 23 25 17 24 25 27 24 22 22 24 27 16 17 22 23 25 16 18 21 22 24 29 19 15 25 18 25 22 29 21 23 26 20 11 20 19 18 25 23 31 24 23 23 26 26 17 27 24 22 22 27 18 18 14 15 24 19 31 25 15 21 28 27 22 28 21 16 40 19 15 25 20 14 26 19 21 27 27 34 30 24 20 23 20 22 25 14 18 20 32 22 19 22 14 25 27 23 23 25 17 21 15 23 21 12 24 32 19 19 33 22 30 20 27 15 28 21 32 20 29 20 22 23 23 26 20 15 22 24 28 17 22 15 31 26 26 27 25 26 22 29 26 21 25 26 17 27 18 20 27 24 22 24 21 22 22 20 26 18 22 21 28 33 30 16 24 27 19 23 17 16 30 24 16 17 23 22 24 28 25 19 19 17 21 23 23 21 26 20 26 20 22 24 23 20 26 19 36 14 28 17 22 20 25 31 26 17 31 21 12 24 28 21 27 26 19 21 17 21 23 30 27 21 21 21 22 25 22 30 27 25 18 26 27 18 16 17 19 25 18 9 22 21 16 19 19 21 20 20 25 18 15 16 17 23 28 22 22 16 25 18 17 26 18 19 32 33 27 24 19 25 26 19 28 23 25 26 25 21 21 20 35 22 29 25 22 31 24 22 28 21 34 28 13 28 21 22 29 22 28 17 22 26 30 25 18 21 17 21 30 20 21 23 24 19 20 17 37 25 24 16 27 25 24 18 22 23 23 24 22 27 23 23 27 24 26 18 17 18 30 20 31 23 27 13 23 27 21 23 17 23 24 16 32 22 27 20 24 23 22 18 18 19 21 29 30 25 24 29 14 27 29 17 16 20 18 30 23 20 25 21 23 29 27 26 26 23 23 26 20 18 28 21 22 20 31 37 30 18 27 22 25 29 18 26 19 25 21 29 22 18 23 29 28 27 19 20 25 26 20 17 30 35 19 16 26 27 25 27 37 25 18 28 31 26 28 19 29 18 22 20 27 32 20 23 24 27 26 24 28 26 23 25 35 27 33 17 24 34 26 21 24 18 24 35 31 27 21 20 25 17 19 18 21 26 25 22 27 21 29 19 34 20 20 19 31 29 28 24 33 24 22 21 26 22 30 18 17 16 22 25 15 24 32 36 16 16 31 27 22 24 24 26 28 20 24 24 24 28 19 26 25 26 30 14 24 17 23 24 31 24 23 20 22 23 24 29 26 22 34 22 24 23 30 22 27 23 27 28 25 30 36 22 29 28 29 21 23 27 26 15 25 24 25 21 24 34 28 20 21 22 16 26 18 14 23 25 21 24 22 22 13 23 26 32 23 21 25 31 26 21 15 10 29 15 28 20 24 30 25 18 20 20 32 21 28 17 26 20 30 31 23 23 20 24 28 22 27 22 26 27 35 26 26 21 24 35 19 16 24 20 20 30 23 22 22 27 22 24 12 27 30 21 26 18 21 19 20 27 20 20 26 33 22 25 27 28 30 21 29 21 27 27 22 21 23 26 28 22 24 22 16 15 22 17 26 19 26 15 27 27 33 11 27 21 18 17 14 21 23 18 22 18 20 34 25 18 28 25 24 21 21 20 22 26 23 20 20 25 20 22 20 23 26 25 31 37 20 21 22 21 24 32 30 22 23 21 18 23 20 25 22 18 21 31 21 20 18 24 15 15 23 24 27 16 25 22 26 23 28 18 17 25 17 29 21 22 29 16 25 22 22 24 21 19 26 22 14 16 14 27 27 20 31 21 18 29 23 34 24 32 29 34 20 23 22 23 19 21 34 30 30 19 26 34 30 13 28 23 31 18 28 27 22 19 23 24 27 23 30 26 22 18 27 24 23 26 22 27 23 22 24 24 26 21 37 20 28 24 20 18 21 30 29 31 28 26 28 25 25 19 26 30 16 24 17 30 20 18 29 25 22 24 13 21 22 19 24 28 15 20 29 25 24 30 22 25 20 25 17 22 21 21 28 31 23 19 20 23 21 22 25 13 27 20 26 21 31 19 24 22 24 25 26 35 22 23 26 24 25 19 26 20 21 13 29 17 17 28 31 28 19 22 31 22 21 25 26 17 29 24 22 22 24 23 29 23 27 23 24 18 24 21 26 26 21 26 24 24 25 22 32 30 22 28 24 19 26 23 29 28 22 28 19 32 32 29 35 19 29 26 23 22 31 36 17 28 23 27 26 25 22 23 20 21 23 30 23 30 28 19 21 28 27 18 31 20 27 26 26 26 17 19 22 14 20 10 14 18 29 23 15 
BTB PER SET COUNT: 2352 2318 2816 2152 2858 2035 1728 1806 1547 2185 1274 2594 11622 1868 1875 1122 2179 2327 1715 2265 1843 1697 2217 2212 1105 2018 2130 1945 2258 1836 1977 2502 2055 857 1227 1890 1931 2323 1053 2177 1611 1580 2474 2235 1821 673 2208 1461 2188 1702 2454 1435 2122 2139 1775 963 1627 1576 1336 2058 1800 2900 1947 1887 2389 2160 1714 1585 2214 1997 2274 2128 2694 1461 1235 860 955 2180 1635 2613 2513 953 1912 2585 2217 1793 2270 2084 1808 3821 1591 1480 2239 1853 831 2027 1531 1564 2234 3637 3666 2761 2196 1872 3342 1359 1743 2220 1515 3145 1903 2913 2311 1484 1744 1207 2037 2388 2503 2015 2333 1515 1693 1058 1908 1555 746 2720 3306 1824 1407 3048 1506 2438 1664 2271 1490 2284 1680 2713 1671 2224 1735 1862 1772 1608 2654 1453 1122 1822 1685 2035 1359 1619 936 2981 2620 2254 2143 2384 2064 1760 2577 2227 1672 2262 1934 1489 2180 1699 1564 2432 2030 1766 2109 1928 1787 1509 1575 2518 1480 2047 1759 2225 2848 3026 1101 2011 2375 2297 1764 1156 1206 2486 2067 1293 1256 1913 1677 1644 2169 2016 1752 1532 1083 1923 1732 1908 1905 2369 1558 2251 1252 3598 1954 2244 1547 2446 1661 3515 1072 2097 1344 1759 1623 2129 2682 2306 1328 3170 1637 577 1762 2232 1359 6723 2280 1681 2204 1120 1878 1961 2993 2822 1785 2079 1337 1845 2023 1567 1877 2094 2080 1523 1954 2533 1469 1407 1349 1610 2177 1491 338 1838 2043 842 1704 1522 2311 1892 1606 1999 1225 955 1480 1195 2127 2420 1884 2009 973 2156 1413 1764 2025 1516 1256 2887 2998 2437 2063 1289 1883 2457 1062 2729 2277 2061 1701 2236 1564 1507 1910 2991 1990 2789 1895 1836 2885 2151 2420 2246 1305 3193 3073 1429 2632 1609 1733 2869 1536 3268 1074 1651 2688 2495 2251 1396 1635 1091 1672 2902 1248 1490 1892 1767 1318 1722 1243 3600 1934 3025 1141 2061 2472 1879 1355 1737 1834 2088 2190 1850 2397 1848 1717 2575 2116 2561 1553 1350 1349 2813 1552 2799 1780 2946 741 1628 1937 1520 2098 1284 2347 2188 1265 2799 1945 2410 1810 2457 2297 2169 1507 960 1174 1705 2920 2455 2072 2213 2310 931 2248 2343 1363 1297 1386 1460 2840 2005 1734 2023 2252 1596 2094 2143 2100 2094 1414 2104 2108 1407 1459 2583 1674 1876 1751 4362 3404 2571 1435 2142 2418 2044 2529 1720 2647 1428 1544 1881 2722 2058 1445 1694 2556 2450 1850 1568 1710 1915 2834 1321 1282 2703 2995 2004 1362 1913 2322 1865 2405 4067 1850 1689 2692 3153 2058 2718 1380 2300 1380 1834 1456 2421 2817 1793 7261 1965 2487 2105 2064 2188 1926 1711 1918 2983 1959 3354 1310 1896 2688 2341 1630 2358 1400 1878 3289 2455 2610 1820 1767 2316 4427 1114 1024 1749 2698 2605 1633 2201 1461 2821 1366 3228 1525 1247 1280 2935 2614 1963 1863 3121 2648 2501 1519 2617 1530 2879 1257 1292 890 1861 2190 1175 1887 2978 3352 2159 1090 4135 3058 2068 2017 1879 2541 2464 2338 2402 2001 1928 2321 1738 2437 1959 2259 2640 1036 2105 1213 2319 1806 2795 2120 2036 1498 1398 1800 1777 2392 2125 1242 2992 1668 2014 2274 2541 1837 2192 1885 2683 2716 2233 3043 2903 1980 2685 2607 2705 1785 1775 2435 2170 1011 3111 2086 2287 1806 2035 2944 2635 2023 1875 2286 997 1830 1342 1767 2438 1981 1465 1418 1895 1833 966 1973 2212 2596 2108 1340 1699 2917 2565 2259 1130 657 2614 1051 2446 2237 2397 2894 1775 1021 1502 1575 2860 1481 2709 2275 1949 1646 2940 3155 1782 1927 1847 2220 2577 1634 2286 2298 2298 2566 2570 3074 2406 1473 2465 3611 1201 1129 2197 1206 1809 3281 2057 1647 1724 2307 2046 2157 717 2430 2739 6676 2532 1419 1978 2263 1689 1691 1773 1551 2259 3042 2054 2073 2638 2308 2824 1916 2687 1955 2351 2908 2016 1790 1943 2269 2397 1608 2563 2283 889 1403 1682 1670 2459 1602 1878 1389 2366 2404 2896 829 2328 1816 1448 1266 1113 1965 2150 1216 1972 1673 1508 3174 2206 1616 2712 2293 2465 1573 1855 1648 1691 1788 2280 1779 2006 2213 5586 1683 1829 1907 1991 2293 3055 3740 1695 1858 1473 1859 2316 2992 2695 2235 1788 2031 1639 2732 1514 2578 1976 1332 2058 2612 2239 1751 1141 2164 1000 773 1841 2719 2836 1171 2051 1168 2214 1802 2385 1791 1477 2149 1356 2323 1826 1493 2776 1669 2283 1944 1660 1955 1928 1326 2207 1532 1086 1207 1456 2150 2389 1647 2815 1748 1382 1745 2116 3207 1923 2660 2450 2821 1602 1963 1938 1769 1556 1394 5488 2677 2326 1793 2898 2753 2793 1064 2841 2024 2796 1251 2490 2704 1996 1512 2041 2217 2672 2101 2965 2189 2040 1212 2895 1921 1931 2438 1872 2305 1977 1994 1953 2071 2269 1663 3319 1495 5056 2685 1942 1562 1718 2480 2598 2704 2367 2438 2093 2431 2140 1647 2140 2736 1149 2005 1033 2767 1480 1619 2791 2313 1557 1950 941 1732 2039 2543 1952 2130 892 1512 2920 2153 2291 2378 1916 1884 1976 2263 1156 2727 2374 1566 2499 2868 1728 1646 1544 2063 1627 1835 2320 779 2322 1653 2621 1766 2681 1684 1942 1896 2380 2562 2483 3674 1964 2080 2066 1997 2187 1401 2327 1390 1727 706 2652 1288 1241 2243 2797 3135 1414 1808 3099 1945 1610 2496 2336 1326 3171 2008 1666 1937 2002 1718 2418 2132 2296 2193 2571 1786 3470 1631 2154 2403 1675 2070 2202 2025 2153 1640 2624 2566 1420 2763 2193 1440 2080 1936 2845 2454 1724 2553 1520 3282 2347 2731 3235 1961 2265 2454 2066 1528 3363 4223 1322 2370 2086 2309 2637 1846 1790 2364 1909 1387 3087 2331 2344 2585 2988 1703 1887 2299 2018 1600 3032 1638 2409 2479 2472 2393 1228 1350 1908 998 1602 515 1258 1654 3023 1937 1038 
