
*** ChampSim Multicore Out-of-Order Simulator ***

Warmup Instructions: 50000000
Simulation Instructions: 50000000
Number of CPUs: 1
LLC sets: 2048
LLC ways: 16
Off-chip DRAM Size: 4096 MB Channels: 1 Width: 64-bit Data Rate: 6400 MT/s
CPU 0 runs ./micro_traces/srv729.trace.gz
.gz
ITLB has LRU replacement policy
DTLB has LRU replacement policy
STLB has LRU replacement policy
FDIP Prefetcher at L1I
L1I has LRU replacement policy
L1D has LRU replacement policy
Initialize SRRIP state for L2C
Initialize DRRIP state for LLC
Heartbeat_Variant_0 : 652 0.318359 per_variant_size: 0 652 0 0 0 0 0 0 0 
Heartbeat_Variant_1 : 1396 0.681641 per_variant_size: 0 139 1257 0 0 0 0 0 0 
Heartbeat_Variant_2 : 0 0 per_variant_size: 0 0 0 0 0 0 0 0 0 
Heartbeat_Variant_3 : 0 0 per_variant_size: 0 0 0 0 0 0 0 0 0 
Heartbeat_Variant_0_evicts 0 : 30903 1 : 59431 2 : 0 3 : 0 
Heartbeat_Variant_1_evicts 0 : 59436 1 : 0 2 : 0 3 : 0 
Heartbeat_Variant_2_evicts 0 : 0 1 : 0 2 : 0 3 : 0 
Heartbeat_Variant_3_evicts 0 : 0 1 : 0 2 : 0 3 : 0 
Heartbeat CPU 0 instructions: 10000002 cycles: 2798676 heartbeat IPC: 3.57312 cumulative IPC: 3.57312 (Simulation time: 0 hr 1 min 48 sec) 
Heartbeat_Variant_0 : 624 0.304688 per_variant_size: 0 624 0 0 0 0 0 0 0 
Heartbeat_Variant_1 : 1424 0.695312 per_variant_size: 0 127 1297 0 0 0 0 0 0 
Heartbeat_Variant_2 : 0 0 per_variant_size: 0 0 0 0 0 0 0 0 0 
Heartbeat_Variant_3 : 0 0 per_variant_size: 0 0 0 0 0 0 0 0 0 
Heartbeat_Variant_0_evicts 0 : 31116 1 : 59616 2 : 0 3 : 0 
Heartbeat_Variant_1_evicts 0 : 59644 1 : 0 2 : 0 3 : 0 
Heartbeat_Variant_2_evicts 0 : 0 1 : 0 2 : 0 3 : 0 
Heartbeat_Variant_3_evicts 0 : 0 1 : 0 2 : 0 3 : 0 
Heartbeat CPU 0 instructions: 20000002 cycles: 5595084 heartbeat IPC: 3.57602 cumulative IPC: 3.57457 (Simulation time: 0 hr 3 min 55 sec) 
Heartbeat_Variant_0 : 683 0.333496 per_variant_size: 0 683 0 0 0 0 0 0 0 
Heartbeat_Variant_1 : 1365 0.666504 per_variant_size: 0 136 1229 0 0 0 0 0 0 
Heartbeat_Variant_2 : 0 0 per_variant_size: 0 0 0 0 0 0 0 0 0 
Heartbeat_Variant_3 : 0 0 per_variant_size: 0 0 0 0 0 0 0 0 0 
Heartbeat_Variant_0_evicts 0 : 30310 1 : 58078 2 : 0 3 : 0 
Heartbeat_Variant_1_evicts 0 : 58019 1 : 0 2 : 0 3 : 0 
Heartbeat_Variant_2_evicts 0 : 0 1 : 0 2 : 0 3 : 0 
Heartbeat_Variant_3_evicts 0 : 0 1 : 0 2 : 0 3 : 0 
Heartbeat CPU 0 instructions: 30000003 cycles: 8393075 heartbeat IPC: 3.57399 cumulative IPC: 3.57438 (Simulation time: 0 hr 5 min 41 sec) 
Heartbeat_Variant_0 : 603 0.294434 per_variant_size: 0 603 0 0 0 0 0 0 0 
Heartbeat_Variant_1 : 1445 0.705566 per_variant_size: 0 158 1287 0 0 0 0 0 0 
Heartbeat_Variant_2 : 0 0 per_variant_size: 0 0 0 0 0 0 0 0 0 
Heartbeat_Variant_3 : 0 0 per_variant_size: 0 0 0 0 0 0 0 0 0 
Heartbeat_Variant_0_evicts 0 : 30785 1 : 58958 2 : 0 3 : 0 
Heartbeat_Variant_1_evicts 0 : 59038 1 : 0 2 : 0 3 : 0 
Heartbeat_Variant_2_evicts 0 : 0 1 : 0 2 : 0 3 : 0 
Heartbeat_Variant_3_evicts 0 : 0 1 : 0 2 : 0 3 : 0 
Heartbeat CPU 0 instructions: 40000001 cycles: 11189216 heartbeat IPC: 3.57636 cumulative IPC: 3.57487 (Simulation time: 0 hr 7 min 27 sec) 
Heartbeat_Variant_0 : 632 0.308594 per_variant_size: 0 632 0 0 0 0 0 0 0 
Heartbeat_Variant_1 : 1416 0.691406 per_variant_size: 0 130 1286 0 0 0 0 0 0 
Heartbeat_Variant_2 : 0 0 per_variant_size: 0 0 0 0 0 0 0 0 0 
Heartbeat_Variant_3 : 0 0 per_variant_size: 0 0 0 0 0 0 0 0 0 
Heartbeat_Variant_0_evicts 0 : 31340 1 : 60140 2 : 0 3 : 0 
Heartbeat_Variant_1_evicts 0 : 60111 1 : 0 2 : 0 3 : 0 
Heartbeat_Variant_2_evicts 0 : 0 1 : 0 2 : 0 3 : 0 
Heartbeat_Variant_3_evicts 0 : 0 1 : 0 2 : 0 3 : 0 
Heartbeat CPU 0 instructions: 50000000 cycles: 13985177 heartbeat IPC: 3.57659 cumulative IPC: 3.57521 (Simulation time: 0 hr 9 min 30 sec) 

Warmup complete CPU 0 instructions: 50000004 cycles: 13985178 (Simulation time: 0 hr 9 min 31 sec) 

Cycle: 20000000 FTQ IN: 54290053 FTQ occupancy: 17.1807 DECODE IN: 54290025 DECODE occupancy: 44.0199 ROB IN: 54290005 ROB occupancy: 261.051 ROB OUT: 54289934
Heartbeat_Variant_0 : 582 0.28418 per_variant_size: 0 582 0 0 0 0 0 0 0 
Heartbeat_Variant_1 : 1466 0.71582 per_variant_size: 0 145 1321 0 0 0 0 0 0 
Heartbeat_Variant_2 : 0 0 per_variant_size: 0 0 0 0 0 0 0 0 0 
Heartbeat_Variant_3 : 0 0 per_variant_size: 0 0 0 0 0 0 0 0 0 
Heartbeat_Variant_0_evicts 0 : 30845 1 : 59204 2 : 0 3 : 0 
Heartbeat_Variant_1_evicts 0 : 59254 1 : 0 2 : 0 3 : 0 
Heartbeat_Variant_2_evicts 0 : 0 1 : 0 2 : 0 3 : 0 
Heartbeat_Variant_3_evicts 0 : 0 1 : 0 2 : 0 3 : 0 
Heartbeat CPU 0 instructions: 60000003 cycles: 27734303 heartbeat IPC: 0.727319 cumulative IPC: 0.727319 (Simulation time: 0 hr 10 min 58 sec) 
Cycle: 30000000 FTQ IN: 7349920 FTQ occupancy: 3.491 DECODE IN: 7349943 DECODE occupancy: 6.31963 ROB IN: 7349963 ROB occupancy: 55.2802 ROB OUT: 7349987
Cycle: 40000000 FTQ IN: 7344396 FTQ occupancy: 3.48015 DECODE IN: 7344395 DECODE occupancy: 6.32959 ROB IN: 7344395 ROB occupancy: 55.0839 ROB OUT: 7344335
Heartbeat_Variant_0 : 648 0.316406 per_variant_size: 0 648 0 0 0 0 0 0 0 
Heartbeat_Variant_1 : 1400 0.683594 per_variant_size: 0 140 1260 0 0 0 0 0 0 
Heartbeat_Variant_2 : 0 0 per_variant_size: 0 0 0 0 0 0 0 0 0 
Heartbeat_Variant_3 : 0 0 per_variant_size: 0 0 0 0 0 0 0 0 0 
Heartbeat_Variant_0_evicts 0 : 31123 1 : 60028 2 : 0 3 : 0 
Heartbeat_Variant_1_evicts 0 : 59962 1 : 0 2 : 0 3 : 0 
Heartbeat_Variant_2_evicts 0 : 0 1 : 0 2 : 0 3 : 0 
Heartbeat_Variant_3_evicts 0 : 0 1 : 0 2 : 0 3 : 0 
Heartbeat CPU 0 instructions: 70000000 cycles: 41406447 heartbeat IPC: 0.731414 cumulative IPC: 0.729361 (Simulation time: 0 hr 12 min 23 sec) 
Cycle: 50000000 FTQ IN: 7185148 FTQ occupancy: 3.60218 DECODE IN: 7185073 DECODE occupancy: 6.62322 ROB IN: 7185013 ROB occupancy: 56.2171 ROB OUT: 7184948
Heartbeat_Variant_0 : 657 0.320801 per_variant_size: 0 657 0 0 0 0 0 0 0 
Heartbeat_Variant_1 : 1391 0.679199 per_variant_size: 0 123 1268 0 0 0 0 0 0 
Heartbeat_Variant_2 : 0 0 per_variant_size: 0 0 0 0 0 0 0 0 0 
Heartbeat_Variant_3 : 0 0 per_variant_size: 0 0 0 0 0 0 0 0 0 
Heartbeat_Variant_0_evicts 0 : 31001 1 : 60046 2 : 0 3 : 0 
Heartbeat_Variant_1_evicts 0 : 60037 1 : 0 2 : 0 3 : 0 
Heartbeat_Variant_2_evicts 0 : 0 1 : 0 2 : 0 3 : 0 
Heartbeat_Variant_3_evicts 0 : 0 1 : 0 2 : 0 3 : 0 
Heartbeat CPU 0 instructions: 80000002 cycles: 55230745 heartbeat IPC: 0.723364 cumulative IPC: 0.727351 (Simulation time: 0 hr 13 min 50 sec) 
Cycle: 60000000 FTQ IN: 7324449 FTQ occupancy: 3.47806 DECODE IN: 7324393 DECODE occupancy: 6.31592 ROB IN: 7324393 ROB occupancy: 54.7684 ROB OUT: 7324213
Heartbeat_Variant_0 : 610 0.297852 per_variant_size: 0 610 0 0 0 0 0 0 0 
Heartbeat_Variant_1 : 1438 0.702148 per_variant_size: 0 151 1287 0 0 0 0 0 0 
Heartbeat_Variant_2 : 0 0 per_variant_size: 0 0 0 0 0 0 0 0 0 
Heartbeat_Variant_3 : 0 0 per_variant_size: 0 0 0 0 0 0 0 0 0 
Heartbeat_Variant_0_evicts 0 : 30869 1 : 59389 2 : 0 3 : 0 
Heartbeat_Variant_1_evicts 0 : 59436 1 : 0 2 : 0 3 : 0 
Heartbeat_Variant_2_evicts 0 : 0 1 : 0 2 : 0 3 : 0 
Heartbeat_Variant_3_evicts 0 : 0 1 : 0 2 : 0 3 : 0 
Heartbeat CPU 0 instructions: 90000002 cycles: 68802405 heartbeat IPC: 0.73683 cumulative IPC: 0.729698 (Simulation time: 0 hr 15 min 21 sec) 
Cycle: 70000000 FTQ IN: 7365845 FTQ occupancy: 3.50905 DECODE IN: 7365975 DECODE occupancy: 6.41123 ROB IN: 7366035 ROB occupancy: 55.2094 ROB OUT: 7366381
Cycle: 80000000 FTQ IN: 7215674 FTQ occupancy: 3.61838 DECODE IN: 7215652 DECODE occupancy: 6.63989 ROB IN: 7215652 ROB occupancy: 56.3305 ROB OUT: 7215551
Heartbeat_Variant_0 : 638 0.311523 per_variant_size: 0 638 0 0 0 0 0 0 0 
Heartbeat_Variant_1 : 1410 0.688477 per_variant_size: 0 118 1292 0 0 0 0 0 0 
Heartbeat_Variant_2 : 0 0 per_variant_size: 0 0 0 0 0 0 0 0 0 
Heartbeat_Variant_3 : 0 0 per_variant_size: 0 0 0 0 0 0 0 0 0 
Heartbeat_Variant_0_evicts 0 : 31069 1 : 59824 2 : 0 3 : 0 
Heartbeat_Variant_1_evicts 0 : 59796 1 : 0 2 : 0 3 : 0 
Heartbeat_Variant_2_evicts 0 : 0 1 : 0 2 : 0 3 : 0 
Heartbeat_Variant_3_evicts 0 : 0 1 : 0 2 : 0 3 : 0 
Heartbeat CPU 0 instructions: 100000000 cycles: 82615463 heartbeat IPC: 0.723953 cumulative IPC: 0.728541 (Simulation time: 0 hr 16 min 44 sec) 
Finished CPU 0 instructions: 50000000 cycles: 68630286 cumulative IPC: 0.728541 (Simulation time: 0 hr 16 min 44 sec) 

ChampSim completed all CPUs

Region of Interest Statistics

CPU 0 cumulative IPC: 0.728541 instructions: 50000000 cycles: 68630286
 Fetch stage stalled: 82.3559  Sim cycles: 68630286 fetch stall cycle: 56521090
 Empty decode stage: 68.0474  Sim cycles: 68630286 fetch stall cycle: 46701160
ITLB TOTAL     ACCESS:    5668251  HIT:    5175519  MISS:     492732  HIT %:    91.3072  MISS %:    8.69284   MPKI: 9.85464
ITLB LOAD TRANSLATION INSTRUCTION	ACCESS:    5593576  HIT:    5100844  MISS:     492732  HIT %:    91.1911  MISS %:    8.80889  MPKI: 9.85464
ITLB TRANSLATION FROM L1D PREFETCHER INSTRUCTION	ACCESS:      74675  HIT:      74675  MISS:          0  HIT %:        100  MISS %:          0  MPKI: 0

ITLB AVERAGE MISS LATENCY: 9.03438 cycles
ITLB RQ	ACCESS:    7138581	FORWARD:          0	MERGED:    1038429	TO_CACHE:    6100152

DTLB TOTAL     ACCESS:   10086291  HIT:    9614767  MISS:     471524  HIT %:    95.3251  MISS %:     4.6749   MPKI: 9.43048
DTLB LOAD TRANSLATION DATA	ACCESS:   10086291  HIT:    9614767  MISS:     471524  HIT %:    95.3251  MISS %:     4.6749  MPKI: 9.43048

DTLB AVERAGE MISS LATENCY: 9.29975 cycles
DTLB RQ	ACCESS:   14146641	FORWARD:          0	MERGED:    4032789	TO_CACHE:   10113852

STLB TOTAL     ACCESS:    1214804  HIT:    1212762  MISS:       2042  HIT %:    99.8319  MISS %:   0.168093   MPKI: 0.04084
STLB LOAD TRANSLATION INSTRUCTION	ACCESS:     492732  HIT:     492464  MISS:        268  HIT %:    99.9456  MISS %:  0.0543906  MPKI: 0.00536
STLB LOAD TRANSLATION DATA	ACCESS:     471165  HIT:     469408  MISS:       1757  HIT %:    99.6271  MISS %:   0.372905  MPKI: 0.03514
STLB TRANSLATION FROM L1D PREFETCHER DATA	ACCESS:     250907  HIT:     250890  MISS:         17  HIT %:    99.9932  MISS %: 0.00677542  MPKI: 0.00034

STLB AVERAGE MISS LATENCY: 68.714 cycles
STLB RQ	ACCESS:    1338232	FORWARD:          0	MERGED:     123387	TO_CACHE:    1214845

STLB Hit, L1D data hit: 0
STLB Hit, L2C data hit: 0
STLB Hit, LLC data hit: 0
STLB Hit, LLC data miss: 0
STLB STLB hints to L2: 0
L1D TOTAL     ACCESS:   13940942  HIT:   12828404  MISS:    1112538  HIT %:    92.0196  MISS %:    7.98036   MPKI: 22.2508
L1D LOAD DATA	ACCESS:    7308660  HIT:    6577820  MISS:     730840  HIT %:    90.0004  MISS %:    9.99964  MPKI: 14.6168
L1D RFO DATA	ACCESS:    6298981  HIT:    6011548  MISS:     287433  HIT %:    95.4368  MISS %:    4.56317  MPKI: 5.74866
L1D PREFETCH DATA	ACCESS:     333301  HIT:     239036  MISS:      94265  HIT %:    71.7178  MISS %:    28.2822  MPKI: 1.8853

L1D PREFETCH  REQUESTED:     748112  ISSUED:     748112  USEFUL:      34811  USELESS:      67346
L1D USEFUL LOAD PREFETCHES:      34811 PREFETCH ISSUED TO LOWER LEVEL:     102245  ACCURACY: 34.0467
 TIMELY PREFETCHES:      34811 LATE PREFETCHES: 7872 DROPPED PREFETCHES: 6
L1D AVERAGE MISS LATENCY: 344896 cycles
L1D RQ	ACCESS:   11286458	FORWARD:          0	MERGED:    3787885	TO_CACHE:    7335475
L1D WQ	ACCESS:    6945027	FORWARD:     163258	MERGED:     133861	TO_CACHE:    6811166
L1D PQ	ACCESS:     374136	FORWARD:          0	MERGED:          0	TO_CACHE:     373976

L1D UNIQUE REGIONS ACCESSED: 0
L1D REGIONS CONFLICTS: 0
L1D Cross Page Prefetch Requests: 6839
L1D Same Page Prefetch Requests: 757079
L1D ROI Sum of L1D PQ occupancy: 4756058
L1D PREFETCHES PUSHED FROM L2C: 0
L1I TOTAL     ACCESS:    7000205  HIT:    4243553  MISS:    2756652  HIT %:    60.6204  MISS %:    39.3796   MPKI: 55.133
L1I LOAD INSTRUCTION	ACCESS:    6684544  HIT:    3927892  MISS:    2756652  HIT %:    58.7608  MISS %:    41.2392  MPKI: 55.133
L1I PREFETCH INSTRUCTION	ACCESS:     315661  HIT:     315661  MISS:          0  HIT %:        100  MISS %:          0  MPKI: 0

L1I PREFETCH  REQUESTED:     549545  ISSUED:     549545  USEFUL:          0  USELESS:          0
L1I USEFUL LOAD PREFETCHES:          0 PREFETCH ISSUED TO LOWER LEVEL:          0  ACCURACY: -nan
 TIMELY PREFETCHES:          0 LATE PREFETCHES: 0 DROPPED PREFETCHES: 0
L1I AVERAGE MISS LATENCY: 17.747 cycles
L1I RQ	ACCESS:    9449041	FORWARD:          0	MERGED:    2686755	TO_CACHE:    6762286
L1I PQ	ACCESS:     549545	FORWARD:          0	MERGED:     173250	TO_CACHE:     376295

L1BTB TOTAL     ACCESS:    5668204  HIT:    2046406  MISS:    3621798  HIT %:    36.1033  MISS %:    63.8967   MPKI: 72.436
L1BTB BRANCH_DIRECT_JUMP	ACCESS:     548486 HIT:     145193 MISS:     403293 AVERAGE STALL: 29.0188 AVERAGE FETCH STALL: 19.624 AVERAGE FETCH QUEUE STALL: 3.38445 AVERAGE DECODE STALL: 5.16283 AVERAGE EXECUTE STALL: 1.09746e+14
L1BTB BRANCH_INDIRECT	ACCESS:     182825 HIT:      66015 MISS:     116810 AVERAGE STALL: 68.6897 AVERAGE FETCH STALL: 17.5572 AVERAGE FETCH QUEUE STALL: 3.70768 AVERAGE DECODE STALL: 5.1324 AVERAGE EXECUTE STALL: 41.3486
L1BTB BRANCH_CONDITIONAL	ACCESS:    2706332 HIT:    1415830 MISS:    1290502 AVERAGE STALL: 29.4055 AVERAGE FETCH STALL: 20.7148 AVERAGE FETCH QUEUE STALL: 2.84476 AVERAGE DECODE STALL: 5.09908 AVERAGE EXECUTE STALL: 3.6093e+13
L1BTB BRANCH_DIRECT_CALL	ACCESS:     943388 HIT:     106500 MISS:     836888 AVERAGE STALL: 30.1053 AVERAGE FETCH STALL: 21.3556 AVERAGE FETCH QUEUE STALL: 2.78493 AVERAGE DECODE STALL: 5.21161 AVERAGE EXECUTE STALL: 3.9881e+13
L1BTB BRANCH_INDIRECT_CALL	ACCESS:     171893 HIT:      21766 MISS:     150127 AVERAGE STALL: 90.1581 AVERAGE FETCH STALL: 19.1815 AVERAGE FETCH QUEUE STALL: 3.28459 AVERAGE DECODE STALL: 5.32211 AVERAGE EXECUTE STALL: 61.8105
L1BTB BRANCH_RETURN	ACCESS:    1115280 HIT:     291102 MISS:     824178 AVERAGE STALL: 29.5305 AVERAGE FETCH STALL: 18.8559 AVERAGE FETCH QUEUE STALL: 3.04546 AVERAGE DECODE STALL: 5.28639 AVERAGE EXECUTE STALL: 6.21808e+13
L1BTB BRANCH_OTHER ACCESS:          0 HIT:          0 MISS:          0 AVERAGE STALL: -nan AVERAGE FETCH STALL: -nan AVERAGE FETCH QUEUE STALL: -nan AVERAGE DECODE STALL: -nan AVERAGE EXECUTE STALL: -nan
L1BTB TOTAL ROB OCCUPANCY AT BTB MISS: 20.1306

L2BTB TOTAL     ACCESS:    3596365  HIT:    2058089  MISS:    1538276  HIT %:    57.2269  MISS %:    42.7731   MPKI: 30.7655
L2BTB BRANCH_DIRECT_JUMP	ACCESS:     399115 HIT:     235193 MISS:     163922 AVERAGE STALL: 29.0188 AVERAGE FETCH STALL: 19.624 AVERAGE FETCH QUEUE STALL: 3.38445 AVERAGE DECODE STALL: 5.16283 AVERAGE EXECUTE STALL: 1.09746e+14
L2BTB BRANCH_INDIRECT	ACCESS:     106516 HIT:      82390 MISS:      24126 AVERAGE STALL: 68.6897 AVERAGE FETCH STALL: 17.5572 AVERAGE FETCH QUEUE STALL: 3.70768 AVERAGE DECODE STALL: 5.1324 AVERAGE EXECUTE STALL: 41.3486
L2BTB BRANCH_CONDITIONAL	ACCESS:    1290501 HIT:     777189 MISS:     513312 AVERAGE STALL: 29.4055 AVERAGE FETCH STALL: 20.7148 AVERAGE FETCH QUEUE STALL: 2.84476 AVERAGE DECODE STALL: 5.09908 AVERAGE EXECUTE STALL: 3.6093e+13
L2BTB BRANCH_DIRECT_CALL	ACCESS:     836888 HIT:     374296 MISS:     462592 AVERAGE STALL: 30.1053 AVERAGE FETCH STALL: 21.3556 AVERAGE FETCH QUEUE STALL: 2.78493 AVERAGE DECODE STALL: 5.21161 AVERAGE EXECUTE STALL: 3.9881e+13
L2BTB BRANCH_INDIRECT_CALL	ACCESS:     140566 HIT:      61549 MISS:      79017 AVERAGE STALL: 90.1581 AVERAGE FETCH STALL: 19.1815 AVERAGE FETCH QUEUE STALL: 3.28459 AVERAGE DECODE STALL: 5.32211 AVERAGE EXECUTE STALL: 61.8105
L2BTB BRANCH_RETURN	ACCESS:     822779 HIT:     527472 MISS:     295307 AVERAGE STALL: 29.5305 AVERAGE FETCH STALL: 18.8559 AVERAGE FETCH QUEUE STALL: 3.04546 AVERAGE DECODE STALL: 5.28639 AVERAGE EXECUTE STALL: 6.21808e+13
L2BTB BRANCH_OTHER ACCESS:          0 HIT:          0 MISS:          0 AVERAGE STALL: -nan AVERAGE FETCH STALL: -nan AVERAGE FETCH QUEUE STALL: -nan AVERAGE DECODE STALL: -nan AVERAGE EXECUTE STALL: -nan
L2BTB TOTAL ROB OCCUPANCY AT BTB MISS: 47.3966

L2C TOTAL     ACCESS:    4483974  HIT:    3919834  MISS:     564140  HIT %:    87.4187  MISS %:    12.5813   MPKI: 11.2828
L2C LOAD INSTRUCTION	ACCESS:    2756655  HIT:    2445753  MISS:     310902  HIT %:    88.7218  MISS %:    11.2782  MPKI: 6.21804
L2C LOAD TRANSLATION INSTRUCTION	ACCESS:        303  HIT:         71  MISS:        232  HIT %:    23.4323  MISS %:    76.5677  MPKI: 0.00464
L2C LOAD DATA	ACCESS:     722942  HIT:     636622  MISS:      86320  HIT %:    88.0599  MISS %:    11.9401  MPKI: 1.7264
L2C RFO DATA	ACCESS:     287312  HIT:     223453  MISS:      63859  HIT %:    77.7736  MISS %:    22.2264  MPKI: 1.27718
L2C PREFETCH DATA	ACCESS:     194349  HIT:     113956  MISS:      80393  HIT %:    58.6347  MISS %:    41.3653  MPKI: 1.60786
L2C WRITEBACK DATA	ACCESS:     520544  HIT:     499447  MISS:      21097  HIT %:    95.9471  MISS %:    4.05288  MPKI: 0.42194
L2C LOAD TRANSLATION DATA	ACCESS:       1836  HIT:        510  MISS:       1326  HIT %:    27.7778  MISS %:    72.2222  MPKI: 0.02652
L2C TRANSLATION FROM L1D PREFETCHER DATA	ACCESS:         33  HIT:         22  MISS:         11  HIT %:    66.6667  MISS %:    33.3333  MPKI: 0.00022

L2C PREFETCH  REQUESTED:     100402  ISSUED:     100402  USEFUL:      10374  USELESS:      70821
L2C USEFUL LOAD PREFETCHES:      10374 PREFETCH ISSUED TO LOWER LEVEL:      81084  ACCURACY: 12.7941
 TIMELY PREFETCHES:      10374 LATE PREFETCHES: 691 DROPPED PREFETCHES: 0
L2C AVERAGE MISS LATENCY: 37.2717 cycles
L2C RQ	ACCESS:    3769120	FORWARD:          0	MERGED:          0	TO_CACHE:    3769081
L2C WQ	ACCESS:     520544	FORWARD:         39	MERGED:          0	TO_CACHE:     520544
L2C PQ	ACCESS:     202647	FORWARD:          0	MERGED:       3273	TO_CACHE:     199374

L2C Dense regions hint from L2: 0
PSCL5 TOTAL     ACCESS:       4098  HIT:       2049  MISS:       2049  HIT %:         50  MISS %:         50   MPKI: 0.04098
PSCL5 LOAD TRANSLATION INSTRUCTION	ACCESS:       4032  HIT:       2016  MISS:       2016  HIT %:         50  MISS %:         50  MPKI: 0.04032
PSCL5 TRANSLATION FROM L1D PREFETCHER INSTRUCTION	ACCESS:         66  HIT:         33  MISS:         33  HIT %:         50  MISS %:         50  MPKI: 0.00066


PSCL4 TOTAL     ACCESS:       3895  HIT:       1942  MISS:       1953  HIT %:    49.8588  MISS %:    50.1412   MPKI: 0.03906
PSCL4 LOAD TRANSLATION INSTRUCTION	ACCESS:       2108  HIT:       1913  MISS:        195  HIT %:    90.7495  MISS %:    9.25047  MPKI: 0.0039
PSCL4 TRANSLATION FROM L1D PREFETCHER INSTRUCTION	ACCESS:         30  HIT:         29  MISS:          1  HIT %:    96.6667  MISS %:    3.33333  MPKI: 2e-05
PSCL4 LOAD TRANSLATION DATA	ACCESS:       1729  HIT:          0  MISS:       1729  HIT %:          0  MISS %:        100  MPKI: 0.03458
PSCL4 TRANSLATION FROM L1D PREFETCHER DATA	ACCESS:         28  HIT:          0  MISS:         28  HIT %:          0  MISS %:        100  MPKI: 0.00056


PSCL3 TOTAL     ACCESS:       3941  HIT:       1965  MISS:       1976  HIT %:    49.8604  MISS %:    50.1396   MPKI: 0.03952
PSCL3 LOAD TRANSLATION INSTRUCTION	ACCESS:       2131  HIT:       1936  MISS:        195  HIT %:    90.8494  MISS %:    9.15063  MPKI: 0.0039
PSCL3 TRANSLATION FROM L1D PREFETCHER INSTRUCTION	ACCESS:         30  HIT:         29  MISS:          1  HIT %:    96.6667  MISS %:    3.33333  MPKI: 2e-05
PSCL3 LOAD TRANSLATION DATA	ACCESS:       1752  HIT:          0  MISS:       1752  HIT %:          0  MISS %:        100  MPKI: 0.03504
PSCL3 TRANSLATION FROM L1D PREFETCHER DATA	ACCESS:         28  HIT:          0  MISS:         28  HIT %:          0  MISS %:        100  MPKI: 0.00056


PSCL2 TOTAL     ACCESS:       3996  HIT:       1947  MISS:       2049  HIT %:    48.7237  MISS %:    51.2763   MPKI: 0.04098
PSCL2 LOAD TRANSLATION INSTRUCTION	ACCESS:       2181  HIT:       1914  MISS:        267  HIT %:    87.7579  MISS %:    12.2421  MPKI: 0.00534
PSCL2 TRANSLATION FROM L1D PREFETCHER INSTRUCTION	ACCESS:         33  HIT:         33  MISS:          0  HIT %:        100  MISS %:          0  MPKI: 0
PSCL2 LOAD TRANSLATION DATA	ACCESS:       1749  HIT:          0  MISS:       1749  HIT %:          0  MISS %:        100  MPKI: 0.03498
PSCL2 TRANSLATION FROM L1D PREFETCHER DATA	ACCESS:         33  HIT:          0  MISS:         33  HIT %:          0  MISS %:        100  MPKI: 0.00066


LLC TOTAL     ACCESS:     635177  HIT:     605531  MISS:      29646  HIT %:    95.3326  MISS %:    4.66736   MPKI: 0.59292
LLC LOAD INSTRUCTION	ACCESS:     310902  HIT:     309986  MISS:        916  HIT %:    99.7054  MISS %:   0.294627  MPKI: 0.01832
LLC LOAD TRANSLATION INSTRUCTION	ACCESS:        232  HIT:        209  MISS:         23  HIT %:    90.0862  MISS %:    9.91379  MPKI: 0.00046
LLC LOAD DATA	ACCESS:      85637  HIT:      82240  MISS:       3397  HIT %:    96.0333  MISS %:    3.96674  MPKI: 0.06794
LLC RFO DATA	ACCESS:      63849  HIT:      48646  MISS:      15203  HIT %:    76.1891  MISS %:    23.8109  MPKI: 0.30406
LLC PREFETCH DATA	ACCESS:      81082  HIT:      71360  MISS:       9722  HIT %:    88.0097  MISS %:    11.9903  MPKI: 0.19444
LLC WRITEBACK DATA	ACCESS:      92138  HIT:      91816  MISS:        322  HIT %:    99.6505  MISS %:   0.349476  MPKI: 0.00644
LLC LOAD TRANSLATION DATA	ACCESS:       1326  HIT:       1263  MISS:         63  HIT %:    95.2489  MISS %:    4.75113  MPKI: 0.00126
LLC TRANSLATION FROM L1D PREFETCHER DATA	ACCESS:         11  HIT:         11  MISS:          0  HIT %:        100  MISS %:          0  MPKI: 0

LLC AVERAGE MISS LATENCY: 158.313 cycles
LLC RQ	ACCESS:     461959	FORWARD:          0	MERGED:          0	TO_CACHE:     461957
LLC WQ	ACCESS:      92138	FORWARD:          4	MERGED:          0	TO_CACHE:      92138
LLC PQ	ACCESS:      81084	FORWARD:          0	MERGED:          0	TO_CACHE:      81082

LLC Dense regions hint to LLC: 0

RAW hits: 1350662
Loads Generated: 12637120
Loads sent to L1D: 11286458
Stores Generated: 6945025
Stores sent to L1D: 6945027
Major fault: 0 Minor fault: 2673
Allocated PAGES: 2673

stream: 
stream:times selected: 1188313
stream:pref_filled: 120513
stream:pref_useful: 23958
stream:pref_late: 6677
stream:misses: 8093
stream:misses_by_poll: 0

CS: 
CS:times selected: 180229
CS:pref_filled: 61562
CS:pref_useful: 37491
CS:pref_late: 7288
CS:misses: 16896
CS:misses_by_poll: 5

CPLX: 
CPLX:times selected: 1006996
CPLX:pref_filled: 19873
CPLX:pref_useful: 4625
CPLX:pref_late: 3275
CPLX:misses: 92183
CPLX:misses_by_poll: 1

NL_L1: 
NL:times selected: 20480
NL:pref_filled: 666
NL:pref_useful: 287
NL:pref_late: 373
NL:misses: 1703
NL:misses_by_poll: 0

total selections: 2396018
total_filled: 94265
total_useful: 34811
total_late: 18734
total_polluted: 6
total_misses_after_warmup: 757657
conflicts: 5881237

test: 116583

DRAM Statistics
 CHANNEL 0
 RQ ROW_BUFFER_HIT:      11223  ROW_BUFFER_MISS:      18098
 DBUS_CONGESTED:          7
 WQ ROW_BUFFER_HIT:       1369  ROW_BUFFER_MISS:      12871  FULL:          0

 AVG_CONGESTED_CYCLE: 5

CPU 0 Branch Prediction Accuracy: 99.8276% MPKI: 0.31528 Average ROB Occupancy at Mispredict: 97.7472
Branch types
NOT_BRANCH: 40857532 81.7151%
BRANCH_DIRECT_JUMP: 548486 1.09697%
BRANCH_INDIRECT: 182825 0.36565%
BRANCH_CONDITIONAL: 6180087 12.3602%
BRANCH_DIRECT_CALL: 943388 1.88678%
BRANCH_INDIRECT_CALL: 171893 0.343786%
BRANCH_RETURN: 1115280 2.23056%
BRANCH_OTHER: 0 0%

DRAM PAGES: 1048576
Allocated PAGES: 2673
Average_ROB_Occupancy: 56.3363
Average_Decode_Occupancy: 6.46529
Average_FTQ_Occupancy: 3.54094
Indirect max targets: 14 Average targets: 1.17647
Branch_type:  BRANCH_DIRECT_JUMP:  Count Percentage: 2.73025 6.50101 4.23371 4.85486 2.93806 11.564 1.60184 65.5763 
Branch_type:  BRANCH_INDIRECT:  Count Percentage: 11.7402 3.46991 2.57194 13.4136 1.3337 8.04623 18.5563 40.8682 
Branch_type:  BRANCH_CONDITIONAL:  Count Percentage: 21.1061 3.42207 1.53612 7.6027 1.86597 6.53401 3.49883 54.4342 
Branch_type:  BRANCH_DIRECT_CALL:  Count Percentage: 0.887929 1.48017 1.16018 3.30499 2.87487 4.94685 4.27944 81.0656 
Branch_type:  BRANCH_INDIRECT_CALL:  Count Percentage: 9.5238 0 2.98499 10.6807 1.19656 1.7085 5.12055 68.7849 
Branch_type:  BRANCH_RETURN:  Count Percentage: 5.22711 1.46269 1.49181 10.2361 2.83112 7.14974 4.49096 67.1105 
Branch_type:  BRANCH_DIRECT_JUMP:  Total Count: 29942 71295 46430 53242 32221 126819 17567 719159 
Branch_type:  BRANCH_INDIRECT:  Total Count: 42922 12686 9403 49040 4876 29417 67842 149414 
Branch_type:  BRANCH_CONDITIONAL:  Total Count: 2608278 422897 189833 939538 230595 807469 432383 6726954 
Branch_type:  BRANCH_DIRECT_CALL:  Total Count: 16738 27902 21870 62301 54193 93251 80670 1528135 
Branch_type:  BRANCH_INDIRECT_CALL:  Total Count: 32649 0 10233 36615 4102 5857 17554 235805 
Branch_type:  BRANCH_RETURN:  Total Count: 116500 32600 33249 228138 63099 159351 100093 1495737 
Number of unique branch instructions: 10971
Upper 32 bits: 
aaaa
ffff
ffff0000
Unique upper 32 bits: 3
Unique upper 36 bits: 3
Unique upper 40 bits: 5
Unique upper 44 bits: 32
Unique upper 48 bits: 160
Variant_0 : 638 0.311523
Variant_1 : 1410 0.688477
Variant_2 : 0 0
Variant_3 : 0 0
Offset_3 4540
Offset_4 284
Offset_5 492
Offset_6 548
Offset_7 649
Offset_8 599
Offset_9 537
Offset_10 425
Offset_11 350
Offset_12 315
Offset_13 243
Offset_14 247
Offset_15 194
Offset_16 230
Offset_17 175
Offset_18 144
Offset_19 262
Offset_20 143
Offset_21 262
Offset_22 408
Offset_23 247
Offset_24 366
Offset_25 117
Offset_47 100
Offset_64 5
decode_dispatch_called: 20267627 29.5316
Dispatch_width: 0 9885794 48.7763 14.4044
Dispatch_width: 1 644916 3.182 0.939696
Dispatch_width: 2 924207 4.56002 1.34665
Dispatch_width: 3 629321 3.10506 0.916973
Dispatch_width: 4 1504890 7.42509 2.19275
Dispatch_width: 5 472190 2.32977 0.68802
Dispatch_width: 6 6206309 30.6218 9.04311
Empty_decode_cycles: 48362659 70.4684
ROB_full_cycles: 1266227 1.845
Starvation_cycles_per_kilo_instr: 611.577
Starvation_cycles_per_kilo_instr_3: 591.807
Starvation_cycles_per_kilo_instr_0: 569.822
Branch_type_1  (3,1)  (4,10)  (5,41)  (6,73)  (7,125)  (8,159)  (9,142)  (10,111)  (11,78)  (12,47)  (13,11)  (14,2)  (15,3)  (16,4)  (18,1)  (19,5)  (20,2)  (21,1)  (22,3)  (23,2)  (24,10)  (25,12) 
Branch_type_2  (3,1)  (4,1)  (5,1)  (8,4)  (9,4)  (10,1)  (12,1)  (13,1)  (14,1)  (16,3)  (17,2)  (20,2)  (21,2)  (23,5)  (24,1)  (47,46) 
Branch_type_3  (3,4538)  (4,273)  (5,446)  (6,458)  (7,492)  (8,366)  (9,294)  (10,171)  (11,133)  (12,54)  (13,10)  (21,1)  (64,4) 
Branch_type_4  (6,3)  (7,8)  (8,29)  (9,57)  (10,68)  (11,72)  (12,118)  (13,104)  (14,111)  (15,92)  (16,101)  (17,83)  (18,61)  (19,127)  (20,72)  (21,141)  (22,214)  (23,139)  (24,213)  (25,101)  (64,1) 
Branch_type_5  (8,3)  (9,1)  (10,4)  (11,5)  (12,3)  (13,14)  (14,16)  (15,11)  (16,22)  (17,11)  (18,23)  (19,15)  (20,12)  (21,13)  (22,43)  (23,26)  (24,42) 
Branch_type_6  (5,4)  (6,14)  (7,24)  (8,38)  (9,39)  (10,70)  (11,62)  (12,92)  (13,103)  (14,117)  (15,88)  (16,100)  (17,79)  (18,59)  (19,115)  (20,55)  (21,104)  (22,148)  (23,75)  (24,100)  (25,4)  (47,54) 
Unique trigger count: 
Variant_0_evicts_0 : 0
Variant_0_evicts_1 : 0
Variant_0_evicts_2 : 0
Variant_0_evicts_3 : 0
Variant_1_evicts_0 : 0
Variant_1_evicts_1 : 0
Variant_1_evicts_2 : 0
Variant_1_evicts_3 : 0
Variant_2_evicts_0 : 0
Variant_2_evicts_1 : 0
Variant_2_evicts_2 : 0
Variant_2_evicts_3 : 0
Variant_3_evicts_0 : 0
Variant_3_evicts_1 : 0
Variant_3_evicts_2 : 0
Variant_3_evicts_3 : 0
BTB PER SET UNIQUE ADDR: 47 50 50 52 49 42 53 45 42 45 59 47 45 49 44 36 42 44 48 47 51 57 35 42 46 38 59 49 50 40 49 47 47 37 45 49 48 38 47 51 47 43 41 54 40 51 47 40 39 42 57 50 51 49 54 53 43 50 47 38 49 47 42 61 49 54 52 49 50 37 47 60 51 50 61 46 42 42 51 51 51 35 50 33 40 55 52 59 62 54 56 41 59 44 50 58 43 54 54 60 61 54 44 50 44 47 49 42 48 41 48 46 52 59 38 59 55 38 49 54 58 52 49 59 49 52 60 49 54 53 58 44 53 44 45 50 50 53 46 64 47 39 47 50 50 53 46 47 40 39 54 45 54 50 55 45 46 36 52 55 51 45 47 47 49 56 53 50 45 37 44 37 48 43 59 58 60 49 50 57 37 50 45 46 46 47 51 49 47 47 48 42 40 41 51 48 61 47 46 47 56 41 57 45 39 38 57 47 45 47 50 46 52 49 36 62 48 40 44 40 40 45 49 42 47 44 50 47 59 50 32 44 66 59 44 44 39 44 49 41 42 57 56 53 44 66 43 44 48 35 50 42 59 40 49 31 53 52 50 44 52 44 57 52 43 42 49 50 56 56 41 43 54 44 60 49 52 43 45 48 51 38 49 56 45 37 27 53 45 52 63 46 37 46 41 53 48 51 48 44 56 42 55 51 55 47 46 45 40 47 42 48 32 51 45 49 45 43 44 47 38 45 48 54 52 71 58 69 42 61 51 38 55 46 58 42 41 62 55 56 53 42 51 45 52 45 52 59 43 49 52 52 45 61 58 47 45 62 49 48 45 33 41 43 51 55 36 48 46 49 62 51 51 51 55 42 50 48 41 39 51 55 60 45 42 45 50 52 36 55 52 56 58 49 54 44 45 45 62 56 38 47 48 42 52 55 51 46 43 43 47 43 55 38 56 51 55 46 55 60 50 60 57 56 61 40 46 49 59 50 51 59 48 45 46 52 52 53 54 59 49 47 52 43 40 54 43 47 52 52 55 41 48 53 47 64 66 41 43 40 38 42 61 45 69 33 59 48 60 60 55 52 35 49 50 43 37 41 48 54 46 52 56 70 46 42 55 52 56 40 42 41 43 44 46 52 39 43 39 29 51 48 55 36 44 51 63 43 54 57 49 42 
BTB PER SET COUNT: 5145 5354 5889 7301 6077 5065 6935 5189 3913 6065 8787 5064 4886 5795 5602 3740 4017 5972 6008 5081 5671 6216 3559 4269 6546 5864 7870 7180 6147 4639 5954 5532 5902 8108 5780 5721 5257 3525 5180 6644 6019 5075 5333 6722 4798 6891 6368 4090 4938 4953 7658 6089 5293 5050 5938 7166 4198 6810 6290 3554 7024 5501 4997 7250 6070 6912 6253 6599 7933 3191 4998 6725 5760 4793 6244 6366 5330 4704 7007 7394 6801 3709 5373 3941 4807 6918 6893 7518 7670 6703 6059 4663 7780 5300 5628 7590 4408 6502 7704 8055 7190 8171 6161 6964 5256 5110 7044 5011 5261 5638 6632 6142 6261 7445 4854 7063 7208 4403 6281 7470 6410 5358 7277 11208 6847 7583 7037 5760 6850 7076 8753 9125 7231 4627 5724 7258 5805 6795 4743 7910 6493 5654 5799 6281 6476 7407 6889 6733 5056 3896 7761 5075 5883 5473 6822 4270 6089 3736 6174 7605 5906 3838 4980 10285 4894 8146 8245 6450 3831 4394 4846 3683 6078 4444 8156 7521 7152 6458 6842 6580 5006 6799 5394 4705 5594 5334 6275 6469 6146 6441 7565 4907 5185 4983 7580 6290 7892 5315 6065 4886 7359 4400 8868 5113 4144 4540 7720 6247 5017 6015 6316 4579 7290 5343 4565 7850 5174 5435 4306 4006 5225 5828 6833 4952 6665 5137 6306 5959 8519 6344 4272 5514 8225 6566 5387 5585 4753 5354 6794 5033 4543 8215 6308 7017 5166 9371 4223 6051 7283 5285 5830 4088 7312 4134 6689 3096 7919 6410 5772 6120 7178 5995 6115 6615 5774 5428 6437 5768 7729 7784 5214 4520 7115 5498 7273 5885 5832 5194 5958 6619 5491 4140 5558 8783 5424 4529 2315 6825 5804 5957 7307 5997 3822 5655 4333 7128 6139 6330 6851 5985 6974 5064 6038 5722 5594 6344 13549 3834 5319 5477 5784 7431 4420 6566 5039 7046 5010 4863 5465 5961 4470 5742 5667 11305 4834 9960 9449 10297 4199 7479 6625 4784 6322 5877 8977 5500 5038 7583 8096 5864 7758 5160 5944 5660 6968 6086 6965 6949 5388 6630 6978 5894 5074 9418 8449 5750 5980 8283 6946 5988 5071 3810 5048 4611 7879 6432 5450 6037 5554 6825 9392 6455 5864 5824 7363 4479 7613 5203 4989 4477 7035 7255 6950 6138 5005 5290 6298 7675 3912 6646 6464 6484 5592 5296 6431 5152 5298 4944 7688 7181 3800 5412 5602 4392 6089 6913 6244 5965 4676 5569 5785 4085 6182 3490 7277 5532 5468 6367 7607 7528 5992 7352 6864 11284 7557 4036 4954 6202 7987 5350 10818 7693 6311 5788 6336 5992 6196 6697 7176 7559 5938 6451 5689 5494 5836 7139 5292 5818 6551 6924 6597 4964 7162 6488 4920 7800 8416 5099 4884 4323 4340 5548 7144 5845 13190 3038 7651 6709 7057 8530 6388 6557 3854 6135 6431 7764 6123 4462 5801 6581 7682 6780 6897 9691 4742 5430 6949 5118 7457 4935 5231 4033 4888 5148 5124 6227 4748 4915 4151 3274 5518 5411 5686 3755 5773 6482 7692 4753 6985 6331 6160 6608 
To predecode: 0
Predecoding something: 0
Predecode request dropped: 0
sizeofblock_0 0
sizeofblock_1 626385
sizeofblock_2 1593966
sizeofblock_3 0
sizeofblock_4 0
sizeofblock_5 0
sizeofblock_6 0
sizeofblock_7 0
sizeofblock_8 0
Variant_0 Correct: 747332 Incorrect: 0 Accuracy: 1
Variant_1 Correct: 3561681 Incorrect: 0 Accuracy: 1
Variant_2 Correct: 0 Incorrect: 0 Accuracy: -nan
Variant_3 Correct: 0 Incorrect: 0 Accuracy: -nan
