
*** ChampSim Multicore Out-of-Order Simulator ***

Warmup Instructions: 50000000
Simulation Instructions: 50000000
Number of CPUs: 1
LLC sets: 2048
LLC ways: 16
Off-chip DRAM Size: 4096 MB Channels: 1 Width: 64-bit Data Rate: 6400 MT/s
CPU 0 runs ./micro_traces/srv725.trace.gz
.gz
ITLB has LRU replacement policy
DTLB has LRU replacement policy
STLB has LRU replacement policy
CPU 0 L1I next line prefetcher
./conditional/srv725.cond
L1I has LRU replacement policy
L1D has LRU replacement policy
Initialize SRRIP state for L2C
Initialize DRRIP state for LLC
Heartbeat_Variant_0 : 1296 0.158203 per_variant_size: 0 1296 0 0 0 0 0 0 0 
Heartbeat_Variant_1 : 1344 0.164062 per_variant_size: 0 916 428 0 0 0 0 0 0 
Heartbeat_Variant_2 : 1631 0.199097 per_variant_size: 0 956 428 221 26 0 0 0 0 
Heartbeat_Variant_3 : 0 0 per_variant_size: 0 0 0 0 0 0 0 0 0 
Heartbeat_Variant_0_evicts 0 : 5552 1 : 0 2 : 0 3 : 0 
Heartbeat_Variant_1_evicts 0 : 2 1 : 0 2 : 248 3 : 0 
Heartbeat_Variant_2_evicts 0 : 1 1 : 247 2 : 0 3 : 0 
Heartbeat_Variant_3_evicts 0 : 0 1 : 0 2 : 0 3 : 0 
Heartbeat CPU 0 instructions: 10000003 cycles: 2797784 heartbeat IPC: 3.57426 cumulative IPC: 3.57426 (Simulation time: 0 hr 2 min 3 sec) 
Heartbeat_Variant_0 : 1296 0.158203 per_variant_size: 0 1296 0 0 0 0 0 0 0 
Heartbeat_Variant_1 : 1352 0.165039 per_variant_size: 0 920 432 0 0 0 0 0 0 
Heartbeat_Variant_2 : 1635 0.199585 per_variant_size: 0 955 434 211 35 0 0 0 0 
Heartbeat_Variant_3 : 0 0 per_variant_size: 0 0 0 0 0 0 0 0 0 
Heartbeat_Variant_0_evicts 0 : 5555 1 : 0 2 : 0 3 : 0 
Heartbeat_Variant_1_evicts 0 : 0 1 : 0 2 : 251 3 : 0 
Heartbeat_Variant_2_evicts 0 : 0 1 : 251 2 : 0 3 : 0 
Heartbeat_Variant_3_evicts 0 : 0 1 : 0 2 : 0 3 : 0 
Heartbeat CPU 0 instructions: 20000000 cycles: 5593858 heartbeat IPC: 3.57644 cumulative IPC: 3.57535 (Simulation time: 0 hr 3 min 46 sec) 
Heartbeat_Variant_0 : 1391 0.1698 per_variant_size: 0 1391 0 0 0 0 0 0 0 
Heartbeat_Variant_1 : 1454 0.17749 per_variant_size: 0 962 492 0 0 0 0 0 0 
Heartbeat_Variant_2 : 1744 0.212891 per_variant_size: 0 992 459 263 30 0 0 0 0 
Heartbeat_Variant_3 : 0 0 per_variant_size: 0 0 0 0 0 0 0 0 0 
Heartbeat_Variant_0_evicts 0 : 5576 1 : 1 2 : 3 3 : 0 
Heartbeat_Variant_1_evicts 0 : 0 1 : 0 2 : 244 3 : 0 
Heartbeat_Variant_2_evicts 0 : 1 1 : 245 2 : 0 3 : 0 
Heartbeat_Variant_3_evicts 0 : 0 1 : 0 2 : 0 3 : 0 
Heartbeat CPU 0 instructions: 30000002 cycles: 8390517 heartbeat IPC: 3.5757 cumulative IPC: 3.57547 (Simulation time: 0 hr 5 min 26 sec) 
Heartbeat_Variant_0 : 1393 0.170044 per_variant_size: 0 1393 0 0 0 0 0 0 0 
Heartbeat_Variant_1 : 1456 0.177734 per_variant_size: 0 963 493 0 0 0 0 0 0 
Heartbeat_Variant_2 : 1747 0.213257 per_variant_size: 0 995 458 245 49 0 0 0 0 
Heartbeat_Variant_3 : 0 0 per_variant_size: 0 0 0 0 0 0 0 0 0 
Heartbeat_Variant_0_evicts 0 : 5565 1 : 0 2 : 0 3 : 0 
Heartbeat_Variant_1_evicts 0 : 0 1 : 0 2 : 252 3 : 0 
Heartbeat_Variant_2_evicts 0 : 0 1 : 252 2 : 0 3 : 0 
Heartbeat_Variant_3_evicts 0 : 0 1 : 0 2 : 0 3 : 0 
Heartbeat CPU 0 instructions: 40000001 cycles: 11188100 heartbeat IPC: 3.57451 cumulative IPC: 3.57523 (Simulation time: 0 hr 7 min 6 sec) 
Heartbeat_Variant_0 : 1396 0.17041 per_variant_size: 0 1396 0 0 0 0 0 0 0 
Heartbeat_Variant_1 : 1473 0.17981 per_variant_size: 0 968 505 0 0 0 0 0 0 
Heartbeat_Variant_2 : 1759 0.214722 per_variant_size: 0 999 461 250 49 0 0 0 0 
Heartbeat_Variant_3 : 0 0 per_variant_size: 0 0 0 0 0 0 0 0 0 
Heartbeat_Variant_0_evicts 0 : 5562 1 : 0 2 : 0 3 : 0 
Heartbeat_Variant_1_evicts 0 : 0 1 : 0 2 : 245 3 : 0 
Heartbeat_Variant_2_evicts 0 : 0 1 : 245 2 : 0 3 : 0 
Heartbeat_Variant_3_evicts 0 : 0 1 : 0 2 : 0 3 : 0 
Heartbeat CPU 0 instructions: 50000001 cycles: 13985452 heartbeat IPC: 3.57481 cumulative IPC: 3.57514 (Simulation time: 0 hr 8 min 52 sec) 

Warmup complete CPU 0 instructions: 50000001 cycles: 13985452 (Simulation time: 0 hr 8 min 52 sec) 

Cycle: 20000000 FTQ IN: 58258525 FTQ occupancy: 19.7555 DECODE IN: 58258436 DECODE occupancy: 51.7416 ROB IN: 58258376 ROB occupancy: 315.038 ROB OUT: 58258024
Heartbeat_Variant_0 : 1424 0.173828 per_variant_size: 0 1424 0 0 0 0 0 0 0 
Heartbeat_Variant_1 : 1528 0.186523 per_variant_size: 0 989 539 0 0 0 0 0 0 
Heartbeat_Variant_2 : 1780 0.217285 per_variant_size: 0 985 477 264 54 0 0 0 0 
Heartbeat_Variant_3 : 0 0 per_variant_size: 0 0 0 0 0 0 0 0 0 
Heartbeat_Variant_0_evicts 0 : 5223 1 : 0 2 : 0 3 : 0 
Heartbeat_Variant_1_evicts 0 : 3 1 : 0 2 : 222 3 : 0 
Heartbeat_Variant_2_evicts 0 : 1 1 : 222 2 : 0 3 : 0 
Heartbeat_Variant_3_evicts 0 : 0 1 : 0 2 : 0 3 : 0 
Heartbeat CPU 0 instructions: 60000002 cycles: 21253435 heartbeat IPC: 1.3759 cumulative IPC: 1.3759 (Simulation time: 0 hr 10 min 44 sec) 
Heartbeat_Variant_0 : 1427 0.174194 per_variant_size: 0 1427 0 0 0 0 0 0 0 
Heartbeat_Variant_1 : 1527 0.186401 per_variant_size: 0 991 536 0 0 0 0 0 0 
Heartbeat_Variant_2 : 1781 0.217407 per_variant_size: 0 987 477 252 65 0 0 0 0 
Heartbeat_Variant_3 : 0 0 per_variant_size: 0 0 0 0 0 0 0 0 0 
Heartbeat_Variant_0_evicts 0 : 5661 1 : 2 2 : 0 3 : 0 
Heartbeat_Variant_1_evicts 0 : 0 1 : 0 2 : 242 3 : 0 
Heartbeat_Variant_2_evicts 0 : 0 1 : 242 2 : 0 3 : 0 
Heartbeat_Variant_3_evicts 0 : 0 1 : 0 2 : 0 3 : 0 
Heartbeat CPU 0 instructions: 70000003 cycles: 28653307 heartbeat IPC: 1.35137 cumulative IPC: 1.36353 (Simulation time: 0 hr 12 min 32 sec) 
Cycle: 30000000 FTQ IN: 13585215 FTQ occupancy: 12.4392 DECODE IN: 13585234 DECODE occupancy: 32.8939 ROB IN: 13585234 ROB occupancy: 238.196 ROB OUT: 13585234
Heartbeat_Variant_0 : 1432 0.174805 per_variant_size: 0 1432 0 0 0 0 0 0 0 
Heartbeat_Variant_1 : 1531 0.18689 per_variant_size: 0 993 538 0 0 0 0 0 0 
Heartbeat_Variant_2 : 1785 0.217896 per_variant_size: 0 985 482 267 51 0 0 0 0 
Heartbeat_Variant_3 : 0 0 per_variant_size: 0 0 0 0 0 0 0 0 0 
Heartbeat_Variant_0_evicts 0 : 5507 1 : 0 2 : 0 3 : 0 
Heartbeat_Variant_1_evicts 0 : 1 1 : 0 2 : 254 3 : 0 
Heartbeat_Variant_2_evicts 0 : 0 1 : 254 2 : 0 3 : 0 
Heartbeat_Variant_3_evicts 0 : 0 1 : 0 2 : 0 3 : 0 
Heartbeat CPU 0 instructions: 80000001 cycles: 35998744 heartbeat IPC: 1.36139 cumulative IPC: 1.36281 (Simulation time: 0 hr 14 min 24 sec) 
Cycle: 40000000 FTQ IN: 13654979 FTQ occupancy: 12.1816 DECODE IN: 13654938 DECODE occupancy: 32.2861 ROB IN: 13654938 ROB occupancy: 235.399 ROB OUT: 13654941
Heartbeat_Variant_0 : 1432 0.174805 per_variant_size: 0 1432 0 0 0 0 0 0 0 
Heartbeat_Variant_1 : 1531 0.18689 per_variant_size: 0 992 539 0 0 0 0 0 0 
Heartbeat_Variant_2 : 1785 0.217896 per_variant_size: 0 986 482 254 63 0 0 0 0 
Heartbeat_Variant_3 : 0 0 per_variant_size: 0 0 0 0 0 0 0 0 0 
Heartbeat_Variant_0_evicts 0 : 5686 1 : 0 2 : 0 3 : 0 
Heartbeat_Variant_1_evicts 0 : 0 1 : 0 2 : 241 3 : 0 
Heartbeat_Variant_2_evicts 0 : 0 1 : 241 2 : 0 3 : 0 
Heartbeat_Variant_3_evicts 0 : 0 1 : 0 2 : 0 3 : 0 
Heartbeat CPU 0 instructions: 90000003 cycles: 43280095 heartbeat IPC: 1.37337 cumulative IPC: 1.36544 (Simulation time: 0 hr 16 min 15 sec) 
Cycle: 50000000 FTQ IN: 13590048 FTQ occupancy: 12.2317 DECODE IN: 13590047 DECODE occupancy: 32.2307 ROB IN: 13590093 ROB occupancy: 235.823 ROB OUT: 13590091
Heartbeat_Variant_0 : 1445 0.176392 per_variant_size: 0 1445 0 0 0 0 0 0 0 
Heartbeat_Variant_1 : 1533 0.187134 per_variant_size: 0 995 538 0 0 0 0 0 0 
Heartbeat_Variant_2 : 1792 0.21875 per_variant_size: 0 987 483 260 62 0 0 0 0 
Heartbeat_Variant_3 : 0 0 per_variant_size: 0 0 0 0 0 0 0 0 0 
Heartbeat_Variant_0_evicts 0 : 5632 1 : 1 2 : 0 3 : 0 
Heartbeat_Variant_1_evicts 0 : 0 1 : 0 2 : 239 3 : 0 
Heartbeat_Variant_2_evicts 0 : 0 1 : 239 2 : 0 3 : 0 
Heartbeat_Variant_3_evicts 0 : 0 1 : 0 2 : 0 3 : 0 
Heartbeat CPU 0 instructions: 100000001 cycles: 50662870 heartbeat IPC: 1.3545 cumulative IPC: 1.36324 (Simulation time: 0 hr 17 min 59 sec) 
Finished CPU 0 instructions: 50000000 cycles: 36677418 cumulative IPC: 1.36324 (Simulation time: 0 hr 17 min 59 sec) 

ChampSim completed all CPUs

Region of Interest Statistics

CPU 0 cumulative IPC: 1.36324 instructions: 50000000 cycles: 36677418
 Fetch stage stalled: 55.035  Sim cycles: 36677418 fetch stall cycle: 20185415
 Empty decode stage: 36.478  Sim cycles: 36677418 fetch stall cycle: 13379186
ITLB TOTAL     ACCESS:    6918402  HIT:    6420978  MISS:     497424  HIT %:    92.8101  MISS %:    7.18987   MPKI: 9.94848
ITLB LOAD TRANSLATION INSTRUCTION	ACCESS:    5712863  HIT:    5234670  MISS:     478193  HIT %:    91.6295  MISS %:    8.37046  MPKI: 9.56386
ITLB TRANSLATION FROM L1D PREFETCHER INSTRUCTION	ACCESS:    1205539  HIT:    1186308  MISS:      19231  HIT %:    98.4048  MISS %:    1.59522  MPKI: 0.38462

ITLB AVERAGE MISS LATENCY: 61577 cycles
ITLB RQ	ACCESS:   10136553	FORWARD:          0	MERGED:    2746272	TO_CACHE:    7390281

DTLB TOTAL     ACCESS:    8986126  HIT:    8521114  MISS:     465012  HIT %:    94.8252  MISS %:    5.17478   MPKI: 9.30024
DTLB LOAD TRANSLATION DATA	ACCESS:    8986126  HIT:    8521114  MISS:     465012  HIT %:    94.8252  MISS %:    5.17478  MPKI: 9.30024

DTLB AVERAGE MISS LATENCY: 9.38341 cycles
DTLB RQ	ACCESS:   13354731	FORWARD:          0	MERGED:    4332993	TO_CACHE:    9021738

STLB TOTAL     ACCESS:    1208677  HIT:    1206268  MISS:       2409  HIT %:    99.8007  MISS %:   0.199309   MPKI: 0.04818
STLB LOAD TRANSLATION INSTRUCTION	ACCESS:     477278  HIT:     476824  MISS:        454  HIT %:    99.9049  MISS %:  0.0951228  MPKI: 0.00908
STLB TRANSLATION FROM L1D PREFETCHER INSTRUCTION	ACCESS:      20146  HIT:      20100  MISS:         46  HIT %:    99.7717  MISS %:   0.228333  MPKI: 0.00092
STLB LOAD TRANSLATION DATA	ACCESS:     465012  HIT:     463126  MISS:       1886  HIT %:    99.5944  MISS %:   0.405581  MPKI: 0.03772
STLB TRANSLATION FROM L1D PREFETCHER DATA	ACCESS:     246241  HIT:     246218  MISS:         23  HIT %:    99.9907  MISS %: 0.00934044  MPKI: 0.00046

STLB AVERAGE MISS LATENCY: 74.3931 cycles
STLB RQ	ACCESS:    1354100	FORWARD:          0	MERGED:     117373	TO_CACHE:    1236727

STLB Hit, L1D data hit: 0
STLB Hit, L2C data hit: 0
STLB Hit, LLC data hit: 0
STLB Hit, LLC data miss: 0
STLB STLB hints to L2: 0
L1D TOTAL     ACCESS:   13102342  HIT:   12007891  MISS:    1094451  HIT %:    91.6469  MISS %:    8.35309   MPKI: 21.889
L1D LOAD DATA	ACCESS:    6562561  HIT:    5842774  MISS:     719787  HIT %:    89.0319  MISS %:    10.9681  MPKI: 14.3957
L1D RFO DATA	ACCESS:    6214924  HIT:    5933042  MISS:     281882  HIT %:    95.4644  MISS %:    4.53557  MPKI: 5.63764
L1D PREFETCH DATA	ACCESS:     324857  HIT:     232075  MISS:      92782  HIT %:    71.4391  MISS %:    28.5609  MPKI: 1.85564

L1D PREFETCH  REQUESTED:     727712  ISSUED:     727712  USEFUL:      32797  USELESS:      68276
L1D USEFUL LOAD PREFETCHES:      32797 PREFETCH ISSUED TO LOWER LEVEL:     101124  ACCURACY: 32.4325
 TIMELY PREFETCHES:      32797 LATE PREFETCHES: 8274 DROPPED PREFETCHES: 11
L1D AVERAGE MISS LATENCY: 251037 cycles
L1D RQ	ACCESS:   10708773	FORWARD:          0	MERGED:    3941712	TO_CACHE:    6601008
L1D WQ	ACCESS:    6954111	FORWARD:     166447	MERGED:     200388	TO_CACHE:    6753723
L1D PQ	ACCESS:     364053	FORWARD:          0	MERGED:          0	TO_CACHE:     363659

L1D UNIQUE REGIONS ACCESSED: 0
L1D REGIONS CONFLICTS: 0
L1D Cross Page Prefetch Requests: 5909
L1D Same Page Prefetch Requests: 737407
L1D ROI Sum of L1D PQ occupancy: 4651691
L1D PREFETCHES PUSHED FROM L2C: 0
L1I TOTAL     ACCESS:    8770841  HIT:    5506092  MISS:    3264749  HIT %:    62.7772  MISS %:    37.2228   MPKI: 65.295
L1I LOAD INSTRUCTION	ACCESS:    6592724  HIT:    4502322  MISS:    2090402  HIT %:    68.2923  MISS %:    31.7077  MPKI: 41.808
L1I PREFETCH INSTRUCTION	ACCESS:    2178117  HIT:    1003770  MISS:    1174347  HIT %:    46.0843  MISS %:    53.9157  MPKI: 23.4869

L1I PREFETCH  REQUESTED:    3858808  ISSUED:    3856324  USEFUL:     926973  USELESS:     480512
L1I USEFUL LOAD PREFETCHES:     926973 PREFETCH ISSUED TO LOWER LEVEL:    1407507  ACCURACY: 65.8592
 TIMELY PREFETCHES:     926973 LATE PREFETCHES: 233160 DROPPED PREFETCHES: 64622
L1I AVERAGE MISS LATENCY: 2.32316e+06 cycles
L1I RQ	ACCESS:    9512607	FORWARD:          0	MERGED:    2712970	TO_CACHE:    6799637
L1I PQ	ACCESS:    3856324	FORWARD:          0	MERGED:     519408	TO_CACHE:    3336916

L1BTB TOTAL     ACCESS:    5682618  HIT:    2089802  MISS:    3592816  HIT %:    36.7753  MISS %:    63.2247   MPKI: 71.8563
L1BTB BRANCH_DIRECT_JUMP	ACCESS:     547468  HIT:     147491  MISS:     399977	AVERAGE STALL: 44.3639
L1BTB BRANCH_INDIRECT	ACCESS:     181664  HIT:      65234  MISS:     116430	AVERAGE STALL: 105.784
L1BTB BRANCH_CONDITIONAL	ACCESS:    2709849  HIT:    1430703  MISS:    1279146	AVERAGE STALL: 59.9527
L1BTB BRANCH_DIRECT_CALL	ACCESS:     950230  HIT:     118515  MISS:     831715	AVERAGE STALL: 64.7652
L1BTB BRANCH_INDIRECT_CALL	ACCESS:     171577  HIT:      23407  MISS:     148170	AVERAGE STALL: 132.577
L1BTB BRANCH_RETURN	ACCESS:    1121830  HIT:     304452  MISS:     817378	AVERAGE STALL: 51.3887
L1BTB BRANCH_OTHER ACCESS:          0  HIT:          0  MISS:          0	AVERAGE STALL: -nan
L1BTB TOTAL ROB OCCUPANCY AT BTB MISS: 3.51029

L2BTB TOTAL     ACCESS:    3567696  HIT:    3489828  MISS:      77868  HIT %:    97.8174  MISS %:    2.18259   MPKI: 1.55736
L2BTB BRANCH_DIRECT_JUMP	ACCESS:     395838  HIT:     391807  MISS:       4031	AVERAGE STALL: 44.3639
L2BTB BRANCH_INDIRECT	ACCESS:     106294  HIT:     103701  MISS:       2593	AVERAGE STALL: 105.784
L2BTB BRANCH_CONDITIONAL	ACCESS:    1279146  HIT:    1265612  MISS:      13534	AVERAGE STALL: 59.9527
L2BTB BRANCH_DIRECT_CALL	ACCESS:     831715  HIT:     830776  MISS:        939	AVERAGE STALL: 64.7652
L2BTB BRANCH_INDIRECT_CALL	ACCESS:     138721  HIT:     128759  MISS:       9962	AVERAGE STALL: 132.577
L2BTB BRANCH_RETURN	ACCESS:     815982  HIT:     769173  MISS:      46809	AVERAGE STALL: 51.3887
L2BTB BRANCH_OTHER ACCESS:          0  HIT:          0  MISS:          0	AVERAGE STALL: -nan
L2BTB TOTAL ROB OCCUPANCY AT BTB MISS: 161.964

L2C TOTAL     ACCESS:    5602933  HIT:    4764757  MISS:     838176  HIT %:    85.0404  MISS %:    14.9596   MPKI: 16.7635
L2C LOAD INSTRUCTION	ACCESS:    1857242  HIT:    1608603  MISS:     248639  HIT %:    86.6125  MISS %:    13.3875  MPKI: 4.97278
L2C PREFETCH INSTRUCTION	ACCESS:    1407507  HIT:    1225574  MISS:     181933  HIT %:    87.0741  MISS %:    12.9259  MPKI: 3.63866
L2C LOAD TRANSLATION INSTRUCTION	ACCESS:        501  HIT:        210  MISS:        291  HIT %:    41.9162  MISS %:    58.0838  MPKI: 0.00582
L2C TRANSLATION FROM L1D PREFETCHER INSTRUCTION	ACCESS:      40123  HIT:      26513  MISS:      13610  HIT %:    66.0793  MISS %:    33.9207  MPKI: 0.2722
L2C LOAD DATA	ACCESS:     711479  HIT:     593017  MISS:     118462  HIT %:    83.3499  MISS %:    16.6501  MPKI: 2.36924
L2C RFO DATA	ACCESS:     281780  HIT:     211912  MISS:      69868  HIT %:    75.2048  MISS %:    24.7952  MPKI: 1.39736
L2C PREFETCH DATA	ACCESS:     788594  HIT:     612974  MISS:     175620  HIT %:      77.73  MISS %:      22.27  MPKI: 3.5124
L2C WRITEBACK DATA	ACCESS:     513652  HIT:     485442  MISS:      28210  HIT %:     94.508  MISS %:    5.49205  MPKI: 0.5642
L2C LOAD TRANSLATION DATA	ACCESS:       2000  HIT:        475  MISS:       1525  HIT %:      23.75  MISS %:      76.25  MPKI: 0.0305
L2C TRANSLATION FROM L1D PREFETCHER DATA	ACCESS:         55  HIT:         37  MISS:         18  HIT %:    67.2727  MISS %:    32.7273  MPKI: 0.00036

L2C PREFETCH  REQUESTED:    1478083  ISSUED:    1478083  USEFUL:      28504  USELESS:     345703
L2C USEFUL LOAD PREFETCHES:      28504 PREFETCH ISSUED TO LOWER LEVEL:     359736  ACCURACY: 7.92359
 TIMELY PREFETCHES:      28504 LATE PREFETCHES: 2183 DROPPED PREFETCHES: 0
L2C AVERAGE MISS LATENCY: 35.6131 cycles
L2C RQ	ACCESS:    2893248	FORWARD:          0	MERGED:          0	TO_CACHE:    2893180
L2C WQ	ACCESS:     513652	FORWARD:         68	MERGED:          0	TO_CACHE:     513652
L2C PQ	ACCESS:    2986714	FORWARD:          0	MERGED:     773327	TO_CACHE:    2213387

L2C Dense regions hint from L2: 0
PSCL5 TOTAL     ACCESS:      60852  HIT:      30426  MISS:      30426  HIT %:         50  MISS %:         50   MPKI: 0.60852
PSCL5 LOAD TRANSLATION INSTRUCTION	ACCESS:       4640  HIT:       2320  MISS:       2320  HIT %:         50  MISS %:         50  MPKI: 0.0464
PSCL5 TRANSLATION FROM L1D PREFETCHER INSTRUCTION	ACCESS:      56212  HIT:      28106  MISS:      28106  HIT %:         50  MISS %:         50  MPKI: 0.56212


PSCL4 TOTAL     ACCESS:      57913  HIT:      28953  MISS:      28960  HIT %:     49.994  MISS %:     50.006   MPKI: 0.5792
PSCL4 LOAD TRANSLATION INSTRUCTION	ACCESS:       3409  HIT:       2105  MISS:       1304  HIT %:    61.7483  MISS %:    38.2517  MPKI: 0.02608
PSCL4 TRANSLATION FROM L1D PREFETCHER INSTRUCTION	ACCESS:      40577  HIT:      26848  MISS:      13729  HIT %:    66.1656  MISS %:    33.8344  MPKI: 0.27458
PSCL4 LOAD TRANSLATION DATA	ACCESS:        808  HIT:          0  MISS:        808  HIT %:          0  MISS %:        100  MPKI: 0.01616
PSCL4 TRANSLATION FROM L1D PREFETCHER DATA	ACCESS:      13119  HIT:          0  MISS:      13119  HIT %:          0  MISS %:        100  MPKI: 0.26238


PSCL3 TOTAL     ACCESS:      57145  HIT:      28561  MISS:      28584  HIT %:    49.9799  MISS %:    50.0201   MPKI: 0.57168
PSCL3 LOAD TRANSLATION INSTRUCTION	ACCESS:       3174  HIT:       2239  MISS:        935  HIT %:    70.5419  MISS %:    29.4581  MPKI: 0.0187
PSCL3 TRANSLATION FROM L1D PREFETCHER INSTRUCTION	ACCESS:      37820  HIT:      26322  MISS:      11498  HIT %:    69.5981  MISS %:    30.4019  MPKI: 0.22996
PSCL3 LOAD TRANSLATION DATA	ACCESS:       1327  HIT:          0  MISS:       1327  HIT %:          0  MISS %:        100  MPKI: 0.02654
PSCL3 TRANSLATION FROM L1D PREFETCHER DATA	ACCESS:      14824  HIT:          0  MISS:      14824  HIT %:          0  MISS %:        100  MPKI: 0.29648


PSCL2 TOTAL     ACCESS:      39433  HIT:      19632  MISS:      19801  HIT %:    49.7857  MISS %:    50.2143   MPKI: 0.39602
PSCL2 LOAD TRANSLATION INSTRUCTION	ACCESS:       2627  HIT:       2162  MISS:        465  HIT %:    82.2992  MISS %:    17.7008  MPKI: 0.0093
PSCL2 TRANSLATION FROM L1D PREFETCHER INSTRUCTION	ACCESS:      33332  HIT:      17470  MISS:      15862  HIT %:    52.4121  MISS %:    47.5879  MPKI: 0.31724
PSCL2 LOAD TRANSLATION DATA	ACCESS:       1866  HIT:          0  MISS:       1866  HIT %:          0  MISS %:        100  MPKI: 0.03732
PSCL2 TRANSLATION FROM L1D PREFETCHER DATA	ACCESS:       1608  HIT:          0  MISS:       1608  HIT %:          0  MISS %:        100  MPKI: 0.03216


LLC TOTAL     ACCESS:     914564  HIT:     881060  MISS:      33504  HIT %:    96.3366  MISS %:    3.66338   MPKI: 0.67008
LLC LOAD INSTRUCTION	ACCESS:     247164  HIT:     246277  MISS:        887  HIT %:    99.6411  MISS %:   0.358871  MPKI: 0.01774
LLC PREFETCH INSTRUCTION	ACCESS:     180515  HIT:     179180  MISS:       1335  HIT %:    99.2604  MISS %:   0.739551  MPKI: 0.0267
LLC LOAD TRANSLATION INSTRUCTION	ACCESS:        291  HIT:        286  MISS:          5  HIT %:    98.2818  MISS %:    1.71821  MPKI: 0.0001
LLC TRANSLATION FROM L1D PREFETCHER INSTRUCTION	ACCESS:      13610  HIT:      13510  MISS:        100  HIT %:    99.2652  MISS %:   0.734754  MPKI: 0.002
LLC LOAD DATA	ACCESS:     117809  HIT:     113639  MISS:       4170  HIT %:    96.4604  MISS %:    3.53963  MPKI: 0.0834
LLC RFO DATA	ACCESS:      69805  HIT:      55273  MISS:      14532  HIT %:     79.182  MISS %:     20.818  MPKI: 0.29064
LLC PREFETCH DATA	ACCESS:     179221  HIT:     167227  MISS:      11994  HIT %:    93.3077  MISS %:     6.6923  MPKI: 0.23988
LLC WRITEBACK DATA	ACCESS:     104606  HIT:     104278  MISS:        328  HIT %:    99.6864  MISS %:   0.313558  MPKI: 0.00656
LLC LOAD TRANSLATION DATA	ACCESS:       1525  HIT:       1372  MISS:        153  HIT %:    89.9672  MISS %:    10.0328  MPKI: 0.00306
LLC TRANSLATION FROM L1D PREFETCHER DATA	ACCESS:         18  HIT:         18  MISS:          0  HIT %:        100  MISS %:          0  MPKI: 0

LLC AVERAGE MISS LATENCY: 164.621 cycles
LLC RQ	ACCESS:     450230	FORWARD:          0	MERGED:          0	TO_CACHE:     450222
LLC WQ	ACCESS:     104606	FORWARD:          8	MERGED:          0	TO_CACHE:     104606
LLC PQ	ACCESS:     359736	FORWARD:          0	MERGED:          0	TO_CACHE:     359736

LLC Dense regions hint to LLC: 0

RAW hits: 1949523
Loads Generated: 12658295
Loads sent to L1D: 10708773
Stores Generated: 6954106
Stores sent to L1D: 6954111
Major fault: 0 Minor fault: 2551
Allocated PAGES: 2551
I-Shadow cache 408 bytes
Touched + WorthPF tables 12288 bytes 
MMA filter 42 bytes 
FNL filter 272 bytes 
TOTAL PREFETCHER STORAGE SIZE: 19922 bytes
CPU 0 L1I next line prefetcher final stats

stream: 
stream:times selected: 1173399
stream:pref_filled: 120042
stream:pref_useful: 23140
stream:pref_late: 7179
stream:misses: 6755
stream:misses_by_poll: 0

CS: 
CS:times selected: 174456
CS:pref_filled: 53989
CS:pref_useful: 30874
CS:pref_late: 9854
CS:misses: 19240
CS:misses_by_poll: 1

CPLX: 
CPLX:times selected: 997835
CPLX:pref_filled: 19519
CPLX:pref_useful: 4160
CPLX:pref_late: 3354
CPLX:misses: 90684
CPLX:misses_by_poll: 0

NL_L1: 
NL:times selected: 19004
NL:pref_filled: 497
NL:pref_useful: 194
NL:pref_late: 186
NL:misses: 966
NL:misses_by_poll: 0

total selections: 2364694
total_filled: 92782
total_useful: 32797
total_late: 21862
total_polluted: 1
total_misses_after_warmup: 758236
conflicts: 5538777

test: 115452

DRAM Statistics
 CHANNEL 0
 RQ ROW_BUFFER_HIT:      11395  ROW_BUFFER_MISS:      21765
 DBUS_CONGESTED:         10
 WQ ROW_BUFFER_HIT:       1574  ROW_BUFFER_MISS:      13425  FULL:          0

 AVG_CONGESTED_CYCLE: 5

CPU 0 Branch Prediction Accuracy: 99.8174% MPKI: 0.3343 Average ROB Occupancy at Mispredict: 183.399
Branch types
NOT_BRANCH: 40845557 81.6911%
BRANCH_DIRECT_JUMP: 547468 1.09494%
BRANCH_INDIRECT: 181664 0.363328%
BRANCH_CONDITIONAL: 6181653 12.3633%
BRANCH_DIRECT_CALL: 950230 1.90046%
BRANCH_INDIRECT_CALL: 171577 0.343154%
BRANCH_RETURN: 1121830 2.24366%
BRANCH_OTHER: 0 0%

DRAM PAGES: 1048576
Allocated PAGES: 2551
Average_ROB_Occupancy: 237.663
Average_Decode_Occupancy: 32.4344
Average_FTQ_Occupancy: 12.266
Indirect max targets: 14 Average targets: 1.15772
Branch_type:  BRANCH_DIRECT_JUMP:  Count Percentage: 3.28522 6.60305 3.64701 2.96782 2.22078 6.48184 2.04066 72.7536 
Branch_type:  BRANCH_INDIRECT:  Count Percentage: 11.708 3.45372 2.52352 9.6456 3.33981 2.80596 2.41263 64.1108 
Branch_type:  BRANCH_CONDITIONAL:  Count Percentage: 20.8755 3.14807 3.20216 3.00942 1.39424 4.77044 4.03829 59.5619 
Branch_type:  BRANCH_DIRECT_CALL:  Count Percentage: 0.383299 1.74878 1.62175 1.93568 2.55343 2.82467 1.1859 87.7465 
Branch_type:  BRANCH_INDIRECT_CALL:  Count Percentage: 9.5011 0 2.97721 0.00378484 0 2.20336 1.28277 84.0318 
Branch_type:  BRANCH_RETURN:  Count Percentage: 3.90943 1.97979 0.71452 3.61677 2.74209 5.53115 4.17202 77.3342 
Branch_type:  BRANCH_DIRECT_JUMP:  Total Count: 35968 72293 39929 32493 24314 70966 22342 796538 
Branch_type:  BRANCH_INDIRECT:  Total Count: 42656 12583 9194 35142 12168 10223 8790 233576 
Branch_type:  BRANCH_CONDITIONAL:  Total Count: 2578445 388836 395517 371710 172210 589224 498792 7356831 
Branch_type:  BRANCH_DIRECT_CALL:  Total Count: 7272 33178 30768 36724 48444 53590 22499 1664738 
Branch_type:  BRANCH_INDIRECT_CALL:  Total Count: 32634 0 10226 13 0 7568 4406 288629 
Branch_type:  BRANCH_RETURN:  Total Count: 87630 44377 16016 81070 61464 123981 93516 1733451 
Number of unique branch instructions: 10213
Upper 32 bits: 
aaaa
ffff
ffff0000
Unique upper 32 bits: 3
Unique upper 36 bits: 3
Unique upper 40 bits: 5
Unique upper 44 bits: 32
Unique upper 48 bits: 156
Variant_0 : 1445 0.176392
Variant_1 : 1533 0.187134
Variant_2 : 1792 0.21875
Variant_3 : 0 0
Offset_3 4212
Offset_4 256
Offset_5 465
Offset_6 516
Offset_7 619
Offset_8 525
Offset_9 481
Offset_10 398
Offset_11 326
Offset_12 285
Offset_13 216
Offset_14 244
Offset_15 190
Offset_16 225
Offset_17 155
Offset_18 125
Offset_19 256
Offset_20 139
Offset_21 235
Offset_22 404
Offset_23 242
Offset_24 333
Offset_25 95
Offset_47 84
Offset_64 2
decode_dispatch_called: 25157532 68.5913
Dispatch_width: 0 13487589 53.6125 36.7736
Dispatch_width: 1 901381 3.58295 2.45759
Dispatch_width: 2 837333 3.32836 2.28297
Dispatch_width: 3 481930 1.91565 1.31397
Dispatch_width: 4 5272635 20.9585 14.3757
Dispatch_width: 5 172361 0.685127 0.469938
Dispatch_width: 6 4004303 15.9169 10.9176
Empty_decode_cycles: 11519886 31.4087
ROB_full_cycles: 8620910 23.5047
Starvation_cycles_per_kilo_instr: 240.522
Starvation_cycles_per_kilo_instr_3: 186.072
Starvation_cycles_per_kilo_instr_0: 163.866
Branch_type_1  (3,1)  (4,9)  (5,38)  (6,72)  (7,121)  (8,129)  (9,126)  (10,101)  (11,69)  (12,43)  (13,8)  (14,2)  (15,3)  (16,4)  (18,1)  (19,4)  (20,2)  (21,1)  (22,3)  (23,2)  (24,10)  (25,13) 
Branch_type_2  (3,1)  (4,1)  (5,1)  (8,3)  (9,3)  (12,1)  (13,1)  (14,1)  (16,3)  (17,2)  (20,2)  (21,2)  (23,5)  (24,1)  (47,38) 
Branch_type_3  (3,4210)  (4,246)  (5,422)  (6,429)  (7,467)  (8,329)  (9,257)  (10,161)  (11,126)  (12,50)  (13,7)  (64,2) 
Branch_type_4  (6,3)  (7,8)  (8,25)  (9,57)  (10,64)  (11,66)  (12,106)  (13,92)  (14,108)  (15,90)  (16,100)  (17,72)  (18,57)  (19,126)  (20,72)  (21,124)  (22,214)  (23,136)  (24,193)  (25,78) 
Branch_type_5  (8,2)  (9,1)  (10,4)  (11,6)  (12,3)  (13,14)  (14,17)  (15,11)  (16,20)  (17,11)  (18,16)  (19,13)  (20,11)  (21,13)  (22,42)  (23,26)  (24,37) 
Branch_type_6  (5,4)  (6,12)  (7,23)  (8,37)  (9,37)  (10,68)  (11,59)  (12,82)  (13,94)  (14,116)  (15,86)  (16,98)  (17,70)  (18,51)  (19,113)  (20,52)  (21,95)  (22,145)  (23,73)  (24,92)  (25,4)  (47,46) 
Unique trigger count: 
Variant_0_evicts_0 : 0
Variant_0_evicts_1 : 0
Variant_0_evicts_2 : 0
Variant_0_evicts_3 : 0
Variant_1_evicts_0 : 0
Variant_1_evicts_1 : 0
Variant_1_evicts_2 : 0
Variant_1_evicts_3 : 0
Variant_2_evicts_0 : 0
Variant_2_evicts_1 : 0
Variant_2_evicts_2 : 0
Variant_2_evicts_3 : 0
Variant_3_evicts_0 : 0
Variant_3_evicts_1 : 0
Variant_3_evicts_2 : 0
Variant_3_evicts_3 : 0
BTB PER SET UNIQUE ADDR: 1 4 2 6 3 3 4 3 2 4 3 2 1 6 2 5 1 3 4 2 2 4 4 3 3 4 3 2 3 4 3 3 2 3 3 4 3 3 2 3 4 4 4 1 2 3 3 3 2 2 2 3 2 3 3 4 3 2 1 3 4 3 2 2 6 1 3 4 5 3 3 3 5 3 2 6 5 3 6 4 7 5 4 6 4 3 2 3 3 4 2 5 4 4 3 2 4 2 2 4 3 4 3 4 2 5 2 2 3 6 6 4 2 3 0 2 4 5 4 5 3 3 3 3 8 3 3 3 4 1 7 3 4 3 5 3 3 1 3 3 2 3 2 4 4 6 5 4 5 5 3 1 4 7 4 3 3 2 4 4 1 4 4 2 4 1 0 5 4 7 4 4 3 1 3 3 2 6 2 3 3 2 3 5 2 4 2 4 5 3 3 1 2 5 1 2 4 4 4 3 4 2 3 3 0 3 2 2 5 4 3 5 6 2 3 3 3 3 2 5 3 5 3 2 5 2 3 5 3 5 1 4 5 5 3 3 3 6 3 4 3 6 3 4 3 1 3 2 6 4 2 3 2 2 2 4 3 3 3 2 6 1 6 2 4 2 5 3 4 5 1 4 3 3 4 3 5 1 0 5 6 3 1 7 2 1 3 2 4 2 3 2 3 3 2 4 2 2 2 2 5 2 2 4 3 2 2 6 6 4 2 2 5 3 3 3 2 2 3 4 7 4 2 2 6 3 3 4 1 7 3 7 3 4 2 3 2 4 3 3 4 5 5 2 2 2 4 2 1 3 3 6 3 3 4 5 4 2 3 3 4 5 2 4 2 4 2 6 2 2 5 5 1 2 2 4 1 2 2 1 2 4 3 2 4 3 1 4 3 5 3 2 2 4 2 3 5 3 2 3 6 5 3 1 2 3 2 2 8 2 2 4 1 3 6 2 2 5 3 4 2 2 3 7 5 2 3 3 1 4 4 2 6 3 3 0 3 2 3 2 3 2 2 3 5 0 2 4 5 3 2 3 2 2 5 2 3 3 4 1 3 5 3 4 2 2 4 2 3 3 4 4 4 4 6 6 1 2 4 4 2 2 5 3 2 4 3 3 5 5 2 3 4 2 4 4 4 4 2 3 3 3 4 1 5 3 4 1 2 2 2 3 4 3 2 5 6 2 3 2 3 2 5 3 4 3 1 2 2 2 6 3 6 2 2 4 2 3 2 3 5 3 5 6 3 4 3 4 4 3 4 5 3 5 4 4 4 0 4 2 1 4 3 4 3 2 3 3 3 2 1 1 2 3 2 3 4 2 3 2 1 4 3 3 2 1 3 2 4 3 3 3 2 2 2 4 5 4 4 3 4 4 2 2 3 3 3 2 3 3 2 4 4 4 1 4 3 4 3 3 4 1 4 2 2 4 2 3 3 3 2 2 4 4 2 4 5 4 3 4 5 4 2 2 5 3 4 3 2 2 2 2 3 2 3 4 3 2 3 2 1 3 2 5 2 1 5 2 3 5 4 2 3 3 3 3 2 4 3 3 3 6 1 2 3 4 3 5 5 2 4 2 4 2 3 3 3 3 2 5 4 2 2 2 4 3 3 4 3 4 4 1 1 3 5 3 4 3 3 4 4 4 2 3 3 2 4 3 2 7 3 3 4 3 4 2 6 3 2 2 4 7 4 4 5 1 7 2 2 3 6 6 4 3 3 4 2 1 2 2 5 2 4 4 3 5 5 5 2 6 3 2 1 3 3 4 4 3 1 2 2 4 2 3 2 5 2 3 6 2 4 4 2 5 5 3 7 1 2 2 3 4 4 3 5 3 3 3 4 3 4 1 0 2 3 4 3 2 2 2 3 2 4 2 4 2 3 2 4 4 2 5 3 3 4 2 5 5 3 2 0 4 2 3 2 4 4 3 2 3 6 3 2 3 3 3 4 5 3 3 3 3 3 3 6 3 5 3 3 3 5 1 3 3 2 4 2 4 1 3 4 5 2 3 1 3 3 3 4 1 6 2 2 2 3 4 1 3 3 2 3 1 2 4 5 2 4 5 5 5 6 3 2 4 2 3 3 3 4 1 4 3 3 4 2 2 6 5 2 1 4 8 4 2 3 5 4 2 2 2 3 4 3 2 3 3 3 1 5 6 4 5 4 3 7 3 2 5 2 2 2 2 4 6 3 0 7 2 1 3 4 1 3 7 3 4 2 2 4 2 3 2 3 5 4 2 4 2 3 3 4 2 2 5 4 2 2 4 2 3 4 4 4 3 3 3 4 4 3 5 3 5 2 4 3 3 4 3 4 3 2 3 3 5 5 2 3 6 4 3 1 5 3 2 4 3 5 5 2 3 3 5 3 5 3 2 4 5 3 4 2 4 4 3 1 5 6 3 2 2 4 6 2 3 1 4 5 4 5 3 2 4 2 5 3 5 2 2 3 4 5 2 4 4 3 3 2 2 3 6 2 6 3 5 4 4 4 3 3 3 5 4 4 11 3 4 2 5 2 1 2 5 2 2 4 3 2 5 4 5 4 4 3 3 3 4 3 5 2 1 6 3 5 3 2 2 4 3 4 3 4 6 2 2 3 5 2 4 3 2 3 5 3 3 2 2 4 4 2 3 4 1 5 4 3 2 3 4 5 4 6 2 3 4 1 5 2 3 2 4 1 2 6 3 2 3 5 2 2 6 3 3 2 0 2 3 3 4 4 2 2 2 1 3 9 2 3 1 4 1 3 2 2 4 0 5 3 2 4 3 4 1 3 5 4 4 2 2 3 3 6 3 5 2 3 3 2 2 3 2 4 3 6 4 3 2 5 3 1 5 3 4 3 2 3 3 2 2 3 5 3 2 3 3 2 3 3 3 3 6 3 2 4 2 4 3 2 2 3 3 4 3 6 3 3 4 4 4 4 4 7 2 1 5 3 4 3 5 3 4 2 4 3 6 3 2 2 3 3 4 5 7 5 3 3 2 4 3 2 4 2 6 3 1 3 3 2 4 7 3 2 3 5 2 6 1 2 3 3 4 5 3 2 3 4 8 2 3 6 3 3 2 3 5 3 2 2 2 2 3 4 5 2 5 4 4 4 3 4 4 5 5 1 5 3 5 2 5 2 4 2 2 1 2 4 3 5 6 2 1 2 3 1 5 3 4 3 3 4 4 2 3 5 3 1 2 4 4 3 6 2 2 3 3 6 2 1 3 1 2 4 3 6 6 6 2 3 5 3 5 3 1 4 3 2 3 4 6 5 3 4 2 2 2 3 6 4 4 3 4 2 2 2 2 3 3 2 5 4 4 3 1 3 3 3 5 3 3 2 4 2 2 5 3 3 1 4 3 5 8 3 4 2 4 4 3 4 3 5 3 3 2 2 7 3 5 1 3 2 2 4 3 4 6 4 2 2 1 6 3 2 5 3 3 3 2 4 4 4 8 4 2 3 7 2 2 6 2 3 3 2 4 3 2 4 4 4 3 1 5 6 2 4 4 6 7 3 2 3 3 2 5 3 4 3 3 4 4 4 1 2 4 3 4 2 3 5 5 3 7 4 2 5 1 3 4 4 2 4 4 2 3 3 4 4 2 2 2 3 4 3 2 2 3 4 2 3 2 3 4 4 3 2 3 4 4 5 4 2 3 2 5 5 2 4 4 4 4 1 2 2 3 1 5 4 3 3 3 2 2 2 4 3 5 2 3 3 3 4 5 3 6 4 1 2 8 2 2 4 3 5 3 2 1 3 3 3 3 5 3 3 4 2 4 6 4 2 3 3 1 3 3 3 2 3 4 3 2 4 4 3 3 6 2 1 1 4 4 6 3 3 3 2 1 3 3 3 3 1 3 3 4 3 0 3 3 3 1 3 3 1 1 5 6 1 2 4 2 2 1 2 3 2 4 3 4 2 1 3 1 2 3 2 4 4 2 3 6 4 3 6 2 2 5 3 2 3 5 3 3 4 4 4 4 4 2 1 1 2 4 4 4 3 5 2 2 4 3 2 2 2 4 6 6 2 5 4 6 3 6 2 6 2 5 6 3 2 3 2 2 3 3 3 1 2 4 3 3 5 2 2 3 2 5 1 2 3 1 4 1 4 2 6 2 4 1 3 2 1 3 2 3 3 3 5 4 3 2 2 1 3 4 3 1 2 4 3 1 3 2 3 3 3 2 3 3 2 4 3 2 2 3 4 5 8 3 3 3 4 4 2 3 5 4 2 2 2 3 3 2 1 3 2 3 3 4 4 5 2 2 2 5 3 2 4 3 3 3 2 1 2 2 2 2 4 5 1 3 2 5 3 1 1 2 1 3 3 0 4 6 0 4 4 3 2 3 4 3 3 2 5 4 5 2 3 3 2 1 6 3 1 3 2 7 3 4 3 3 3 5 3 2 2 2 3 6 3 1 3 2 3 5 5 5 4 6 2 3 1 4 2 8 3 5 3 3 4 3 4 3 4 4 6 2 4 3 5 3 3 7 3 6 2 4 4 2 3 5 1 3 5 2 2 1 5 4 5 3 3 4 1 4 5 5 4 3 3 1 3 4 1 2 3 6 3 2 5 3 4 2 7 2 6 4 4 3 3 3 5 5 2 3 4 2 4 2 5 2 5 4 3 4 1 1 2 3 3 5 
BTB PER SET COUNT: 1 3400 2931 3026 24 604 570 5043 527 4 38 120 1 686 2 1838 1 3 1632 2 725 4 61 33 509 3454 3 2 8 1469 3 5 5 13 18 4 3 3 149 3 1914 3419 4628 1 2181 3239 691 981 1044 2 2 3 1402 3 3 34 3 970 2 3 8 1959 2 2 4456 1 821 275 2597 3 5 3 6 1431 346 4210 1961 2122 4322 4 3594 1205 789 3162 407 4 2 3 33 972 2 435 4 468 1703 2 5 2 43 4 5 560 5 1446 2 27 2 979 3 1764 1617 549 3 1335 0 2 4 5 572 2209 34 31 3407 1919 4102 92 2901 3 4 1 4221 3 1725 486 5103 4 1723 239 3 970 9 970 2 1977 1449 13 534 705 295 27 3 1 1951 446 520 5 3 969 1882 295 1 208 1103 2 2290 2 0 1783 2659 2326 1570 387 5 1 262 523 4 2934 485 3 3 2 3 1495 2 1859 489 4 586 382 6 9 3 994 957 2 487 1071 4 465 4 2 7 3 0 5 2 333 3529 1948 47 1540 1073 403 3 3 4 994 2 2346 1049 5055 27 2092 1456 2 1477 588 5 218 1711 2933 542 1938 2497 2252 880 2374 3 2804 730 4131 1549 614 1459 1 10697 2 1868 5 2 95 2 486 1403 15 1949 3 6 260 2516 1 2683 2 4 21 1302 1463 6 1995 1 6 7 3 5 3 1925 1 0 1995 903 4 1 306 2 1 3 120 630 195 164 2 3 240 4218 4349 1459 486 2 1462 4641 2 968 4874 4 240 485 2789 4384 959 969 2 7 3 6832 882 2 2 486 4 4978 6 5 2 4555 6 22 10 1 2690 706 1543 484 4 1460 3 2 1855 1464 3 1218 9 681 57 2916 10 3151 5 521 3 3 1575 2696 18 185 573 988 26 4 9 9 498 2 1808 2 5 394 517 19 502 6756 1669 1 2 1464 29 1 2 2 1 1662 1819 3 6 1027 972 1 6885 1464 266 3 1502 675 4 2 3 5575 8 2 6 538 375 4 953 2 17 2 2 1514 1448 2 87 2 1488 751 2 972 369 4 2106 2 2 2425 3926 250 327 4 361 2902 4 4 2 1823 4 3 0 301 3 3709 500 3 2 503 685 2055 0 2 106 261 1463 5 285 1454 4 1328 3 3 198 1245 1 2183 691 734 487 7 4 1495 2908 3 486 5388 2071 1456 1457 4137 1552 1 4 11 1963 2 1461 4441 1464 2008 485 1556 1157 4156 445 980 1462 2844 4 1512 17 4 2172 252 487 1460 3 814 1462 929 3 1108 2 4 212 2 3 2452 1939 1702 5 1238 1950 31 1392 3 1628 1493 1741 4 3 1 765 49 2 3606 3 642 486 2 498 2 1455 1462 476 2340 1204 8 485 251 6492 484 1314 4 3887 5 5 970 1650 204 1825 176 0 5051 2 968 34 3 5 1489 30 2428 1424 3 3 1 826 3 489 946 3376 2921 3 3 6 5 4 406 7 2 1 5 1458 508 1463 3 5 2 2 4 3885 6151 8 670 1077 4 1414 2 4 1421 1944 3 2 3 3 2 4 5 1466 1 908 3 4347 3 31 476 1 497 2 450 8 2 1453 3 1958 2 2 22 1539 2 2891 18 4 3 3286 25 1464 1052 2 1942 486 25 3845 484 3392 2 26 3 1938 4 431 2975 471 3 1368 1 2371 478 990 241 1 5796 2447 9 628 73 2 3 4 21 224 2 981 3 3 600 921 1 2 3 2290 3 6 9 7 4070 5 1420 2 1461 557 3 3 2 5 4 3 14 2437 41 4 3 51 3 278 1343 4 1 9 2199 512 3378 567 486 5 625 2862 3 63 2441 2 4 2443 2650 3040 3 241 1471 3 1460 5 5348 5 2 1479 1949 6018 1184 970 1702 1 2277 2 2 3 1258 618 4135 4 1948 102 2 1 604 2 2087 2 248 5813 510 30 35 3798 2 5135 9 3 6 1460 1477 42 4 3 1 242 2 585 1001 3 2 861 1367 71 245 3 7 27 2762 376 647 3 628 1441 2 148 1664 2944 1560 1282 3121 3 4850 5 3927 643 4150 1916 0 989 3 349 12 1102 21 2 6 2 38 2 4 587 4 1934 4 1460 5739 2129 3 1142 527 5 2346 3899 376 2 0 3523 5 5 2 4 2363 11 2 3 4114 3 2 7 3 3 4 7376 1464 6 1011 376 3 3 1489 3 4244 4 3 914 394 6 1889 3 1455 128 2 1852 1 879 1250 6 27 925 2 4 64 4 279 1 5467 2 1457 237 4 5 1 14 2878 117 5 1 3663 4 5 1949 3405 821 3440 4381 1073 3246 2 10 1646 3 1467 3 2752 1 2299 2423 3 1584 2 394 6579 43 2 667 4371 2742 4 3 740 1459 4 1333 2 14 9 191 480 7 3 3 1714 923 2864 123 13 3785 484 3 4025 3 2 7 2146 2 2 2 224 7 995 0 4099 2 2 3 4536 1 5 2047 3 1423 2 2 4225 273 1963 412 1216 2934 1027 2471 562 1995 2187 3 4 5 2 1693 186 22 2 3481 26 842 4 12 216 3 241 1797 4 5 5 2136 3 9 549 502 3 1515 686 989 101 988 2 3 2509 41 5 2 486 549 4 3 1 1464 3 4 6 339 990 6 2 2343 3 5 2465 6 1860 1924 1466 1143 1119 267 239 4 266 610 24 2693 3345 3 2 31 25 2937 13 3 1 12 988 73 1419 1707 2 2242 2 2844 985 1465 1682 5 3 8 1151 1355 5 1964 3 2414 1354 2 4 5646 2 605 1899 1482 4 1468 390 380 604 1943 982 11 6 6081 890 158 8 1937 7 484 2 9 22 2 1013 13 1283 62 2617 34 1516 6 778 3 1194 1989 319 16 2 2 1970 3 2566 493 3 2 1980 3 7 197 487 8 2 2 3 1430 2 2460 3 725 106 2236 1249 249 427 2439 7 9 648 3 3537 1 1950 140 3 427 927 116 741 4 3229 3 6 4 1 4142 491 53 3 229 1 2 1692 1922 3 3 3710 43 1010 916 2822 3 201 0 2638 6 1459 11 1047 2 3 2 1456 10 359 2 3 598 3791 1 1710 876 2 4 0 1097 3 485 143 294 586 1 751 1435 1826 4 2 2 3 3 2254 165 3929 2 26 3 1442 612 330 1940 1470 3 1483 599 508 2 218 3 2 502 427 2025 3 2 1435 3 5 500 969 242 17 1963 1481 3 2 1201 4 3 2784 1665 3 2 3900 2 177 2550 45 259 3 3 2208 20 1079 72 14 4 432 2583 2920 4 2610 2 1 574 241 8 6 1750 3 4 6 529 7 1659 1462 7 66 3 3 1454 2303 2857 5 4 3 6 1465 8 2 4 2 117 3 1 4 1462 482 2205 2969 3 24 6 1482 2 1186 5 2 7 3 3720 1465 3 2 188 482 3586 2 7 2775 485 3 300 1952 4381 1103 6 2234 2 8 256 2348 1472 2 328 1461 4 9 6 83 1836 235 10 1 694 9 3441 2 332 2 1958 77 2 235 980 4 24 4461 3385 2 1 2 1592 1 5 242 544 435 638 2238 2628 2 3 986 46 1 2 4 2276 6 1345 2 6 3 5 4381 2 1 3 1 4 5 1458 1885 1722 1671 2 945 8 3 2440 3 1 90 2931 2 943 4 1588 537 3 495 387 485 2250 3 7161 7 10 443 7 2 2 2 2 1449 3 60 1998 5 5 92 237 6 3 751 3741 500 3 2 4 5 2 1177 3 3 1 7 1993 598 4250 3 4 2 828 926 162 1941 13 498 6 903 2 2 1055 246 1124 1 1675 224 2 2149 3 2000 3242 6 488 2 1 1018 3 921 2317 3 21 1021 2 1396 13 4402 4658 8 2 1555 3995 2 2 1590 979 2440 4198 2 1238 51 1453 4 5 232 106 1 5 2143 2397 4 488 10577 4045 5 2 1206 5 2 150 3 5 977 3255 1971 4 526 1 3 1735 3 2535 2 604 9946 6 979 1718 4 1438 982 1 229 838 3304 2 4 423 182 3 1242 3306 4 2 2 2 2061 2005 278 943 1327 3 775 3 1468 2 978 982 4 3 2 2923 10 22 990 6 2 3 485 2854 506 2 23 1465 166 5 1 4 2 55 1 2766 500 1489 5 1020 2709 475 2 4 703 2044 2 3 20 7 5 4043 3277 1513 4 1 2 3728 253 2 2038 3 4746 2388 983 1 12 5 985 9 4216 9 3 2236 2 2491 2695 6 2 4 4 1 42 1339 184 2 49 504 6 95 1455 4 3 1497 51 1414 163 1 5 4 5966 3 4 47 403 66 3 1425 1052 3 1 282 6 3135 3 0 1868 3 94 1 2436 977 1 1 8 1774 1 1463 247 368 2 1 1959 242 5 3938 255 5 1461 990 677 2 2630 3 1212 330 768 3 734 3379 49 983 6 723 4 1465 3 2 1868 2826 55 14 5 430 4 994 2196 512 1 1460 575 706 6 2680 1074 525 491 2 1708 418 723 393 20 2126 2373 1987 2 1725 4 3822 13 3508 244 4845 13 971 4208 4 16 954 1956 3 963 1659 1875 1 1415 960 965 11 4365 2 1874 3 2 2386 1 2 1251 1937 5 484 984 583 7993 4 3269 1 135 2 1 7 2 959 3 3 2525 50 1464 2 2 111 1143 2726 980 1 1244 986 17 1 3 2 972 3 55 2 3 486 46 4679 26 2 2 3 269 9 6398 5 71 3 132 8 1941 3 1484 4 2 2 2 721 20463 3 1 4 740 258 3 4 4 1944 87 2 485 742 721 2 575 10 24 261 2 1 2 2 2 1046 1467 137 2 3 2 2035 14612 1 2 484 400 2473 100 0 2638 981 0 1458 3693 31 4 3 3204 980 4174 2 5 2558 649 2 129 6 2 392 244 242 1 3 3 3435 117 1469 3 1431 3 55 4 2 1461 2 3 3232 1466 3 1092 485 1815 1705 6899 625 6 5584 610 575 1 4 5 4316 1409 3325 3 484 2940 970 1269 6843 11 881 350 2 2340 44 3475 108 1024 1306 6839 1420 5 7 499 23 3131 245 1 3 2537 2 2 1 998 3549 349 2445 3 3482 1 4 1323 6 526 3 1382 1 3 29 969 482 276 6348 3 3 476 4 1946 1466 39 681 1179 2945 4 3521 3189 24 2859 5 4 3 6 773 4 2 767 2 1021 1383 29 1497 1 3 483 3 3 2704 
To predecode: 1174347
Predecoding something: 739552
Predecode request dropped: 0
sizeofblock_0 0
sizeofblock_1 561624
sizeofblock_2 535918
sizeofblock_3 521375
sizeofblock_4 102222
sizeofblock_5 0
sizeofblock_6 0
sizeofblock_7 0
sizeofblock_8 0
