
*** ChampSim Multicore Out-of-Order Simulator ***

Warmup Instructions: 50000000
Simulation Instructions: 50000000
Number of CPUs: 1
LLC sets: 2048
LLC ways: 16
Off-chip DRAM Size: 4096 MB Channels: 1 Width: 64-bit Data Rate: 6400 MT/s
CPU 0 runs ./micro_traces/srv763.trace.gz
.gz
ITLB has LRU replacement policy
DTLB has LRU replacement policy
STLB has LRU replacement policy
FDIP Prefetcher at L1I
L1I has LRU replacement policy
L1D has LRU replacement policy
Initialize SRRIP state for L2C
Initialize DRRIP state for LLC
Heartbeat CPU 0 instructions: 10000000 cycles: 2796958 heartbeat IPC: 3.57531 cumulative IPC: 3.57531 (Simulation time: 0 hr 1 min 29 sec) 
Heartbeat CPU 0 instructions: 20000002 cycles: 5593771 heartbeat IPC: 3.5755 cumulative IPC: 3.57541 (Simulation time: 0 hr 2 min 54 sec) 
Heartbeat CPU 0 instructions: 30000003 cycles: 8389580 heartbeat IPC: 3.57678 cumulative IPC: 3.57586 (Simulation time: 0 hr 4 min 17 sec) 
Heartbeat CPU 0 instructions: 40000003 cycles: 11185536 heartbeat IPC: 3.57659 cumulative IPC: 3.57605 (Simulation time: 0 hr 5 min 44 sec) 
Heartbeat CPU 0 instructions: 50000001 cycles: 13982313 heartbeat IPC: 3.57554 cumulative IPC: 3.57595 (Simulation time: 0 hr 7 min 9 sec) 

Warmup complete CPU 0 instructions: 50000001 cycles: 13982313 (Simulation time: 0 hr 7 min 9 sec) 

Cycle: 20000000 FTQ IN: 56355748 FTQ occupancy: 17.6334 DECODE IN: 56355619 DECODE occupancy: 45.0102 ROB IN: 56355619 ROB occupancy: 271.583 ROB OUT: 56355376
Heartbeat CPU 0 instructions: 60000003 cycles: 23450998 heartbeat IPC: 1.05611 cumulative IPC: 1.05611 (Simulation time: 0 hr 8 min 19 sec) 
Cycle: 30000000 FTQ IN: 10471174 FTQ occupancy: 5.41761 DECODE IN: 10471297 DECODE occupancy: 10.5948 ROB IN: 10471260 ROB occupancy: 94.9415 ROB OUT: 10471431
Heartbeat CPU 0 instructions: 70000002 cycles: 33030595 heartbeat IPC: 1.04389 cumulative IPC: 1.04996 (Simulation time: 0 hr 9 min 26 sec) 
Cycle: 40000000 FTQ IN: 10512322 FTQ occupancy: 5.21841 DECODE IN: 10512321 DECODE occupancy: 10.2195 ROB IN: 10512356 ROB occupancy: 92.9367 ROB OUT: 10512192
Heartbeat CPU 0 instructions: 80000001 cycles: 42537217 heartbeat IPC: 1.0519 cumulative IPC: 1.05061 (Simulation time: 0 hr 10 min 31 sec) 
Cycle: 50000000 FTQ IN: 10443954 FTQ occupancy: 5.44193 DECODE IN: 10443950 DECODE occupancy: 10.6033 ROB IN: 10443952 ROB occupancy: 94.0757 ROB OUT: 10444082
Heartbeat CPU 0 instructions: 90000001 cycles: 52116471 heartbeat IPC: 1.04392 cumulative IPC: 1.04893 (Simulation time: 0 hr 11 min 41 sec) 
Cycle: 60000000 FTQ IN: 10513395 FTQ occupancy: 5.17479 DECODE IN: 10513395 DECODE occupancy: 10.1014 ROB IN: 10513365 ROB occupancy: 92.7489 ROB OUT: 10513199
Heartbeat CPU 0 instructions: 100000003 cycles: 61628675 heartbeat IPC: 1.05128 cumulative IPC: 1.0494 (Simulation time: 0 hr 12 min 43 sec) 
Finished CPU 0 instructions: 50000002 cycles: 47646362 cumulative IPC: 1.0494 (Simulation time: 0 hr 12 min 43 sec) 

ChampSim completed all CPUs

Region of Interest Statistics

CPU 0 cumulative IPC: 1.0494 instructions: 50000002 cycles: 47646362
 Fetch stage stalled: 74.2963  Sim cycles: 47646362 fetch stall cycle: 35399504
 Empty decode stage: 80.7368  Sim cycles: 47646362 fetch stall cycle: 38468165
ITLB TOTAL     ACCESS:    6028088  HIT:    5537738  MISS:     490350  HIT %:    91.8656  MISS %:    8.13442   MPKI: 9.807
ITLB LOAD TRANSLATION INSTRUCTION	ACCESS:    5946175  HIT:    5455825  MISS:     490350  HIT %:    91.7535  MISS %:    8.24648  MPKI: 9.807
ITLB TRANSLATION FROM L1D PREFETCHER INSTRUCTION	ACCESS:      81913  HIT:      81913  MISS:          0  HIT %:        100  MISS %:          0  MPKI: 0

ITLB AVERAGE MISS LATENCY: 9.04814 cycles
ITLB RQ	ACCESS:    7660589	FORWARD:          0	MERGED:    1365238	TO_CACHE:    6295351

DTLB TOTAL     ACCESS:    9589781  HIT:    9113225  MISS:     476556  HIT %:    95.0306  MISS %:    4.96941   MPKI: 9.53112
DTLB LOAD TRANSLATION DATA	ACCESS:    9589781  HIT:    9113225  MISS:     476556  HIT %:    95.0306  MISS %:    4.96941  MPKI: 9.53112

DTLB AVERAGE MISS LATENCY: 9.29089 cycles
DTLB RQ	ACCESS:   13821255	FORWARD:          0	MERGED:    4198315	TO_CACHE:    9622940

STLB TOTAL     ACCESS:    1219839  HIT:    1217888  MISS:       1951  HIT %:    99.8401  MISS %:   0.159939   MPKI: 0.03902
STLB LOAD TRANSLATION INSTRUCTION	ACCESS:     490350  HIT:     490115  MISS:        235  HIT %:    99.9521  MISS %:   0.047925  MPKI: 0.0047
STLB LOAD TRANSLATION DATA	ACCESS:     476393  HIT:     474689  MISS:       1704  HIT %:    99.6423  MISS %:   0.357688  MPKI: 0.03408
STLB TRANSLATION FROM L1D PREFETCHER DATA	ACCESS:     253096  HIT:     253084  MISS:         12  HIT %:    99.9953  MISS %: 0.00474128  MPKI: 0.00024

STLB AVERAGE MISS LATENCY: 69.4541 cycles
STLB RQ	ACCESS:    1357749	FORWARD:          0	MERGED:     137877	TO_CACHE:    1219872

STLB Hit, L1D data hit: 0
STLB Hit, L2C data hit: 0
STLB Hit, LLC data hit: 0
STLB Hit, LLC data miss: 0
STLB STLB hints to L2: 0
L1D TOTAL     ACCESS:   13596639  HIT:   12454899  MISS:    1141740  HIT %:    91.6028  MISS %:    8.39722   MPKI: 22.8348
L1D LOAD DATA	ACCESS:    7033596  HIT:    6281689  MISS:     751907  HIT %:    89.3098  MISS %:    10.6902  MPKI: 15.0381
L1D RFO DATA	ACCESS:    6225973  HIT:    5938121  MISS:     287852  HIT %:    95.3766  MISS %:    4.62341  MPKI: 5.75704
L1D PREFETCH DATA	ACCESS:     337070  HIT:     235089  MISS:     101981  HIT %:    69.7449  MISS %:    30.2551  MPKI: 2.03962

L1D PREFETCH  REQUESTED:     781922  ISSUED:     781922  USEFUL:      42591  USELESS:      70273
L1D USEFUL LOAD PREFETCHES:      42591 PREFETCH ISSUED TO LOWER LEVEL:     112881  ACCURACY: 37.7309
 TIMELY PREFETCHES:      42591 LATE PREFETCHES: 10878 DROPPED PREFETCHES: 2
L1D AVERAGE MISS LATENCY: 359535 cycles
L1D RQ	ACCESS:   11053927	FORWARD:          0	MERGED:    3817590	TO_CACHE:    7066657
L1D WQ	ACCESS:    6912607	FORWARD:     169916	MERGED:     158009	TO_CACHE:    6754598
L1D PQ	ACCESS:     391079	FORWARD:          0	MERGED:          0	TO_CACHE:     390843

L1D UNIQUE REGIONS ACCESSED: 0
L1D REGIONS CONFLICTS: 0
L1D Cross Page Prefetch Requests: 6014
L1D Same Page Prefetch Requests: 786066
L1D ROI Sum of L1D PQ occupancy: 4961265
L1D PREFETCHES PUSHED FROM L2C: 0
L1I TOTAL     ACCESS:    7126082  HIT:    4384264  MISS:    2741818  HIT %:    61.5242  MISS %:    38.4758   MPKI: 54.8364
L1I LOAD INSTRUCTION	ACCESS:    6756336  HIT:    4014518  MISS:    2741818  HIT %:    59.4186  MISS %:    40.5814  MPKI: 54.8364
L1I PREFETCH INSTRUCTION	ACCESS:     369746  HIT:     369746  MISS:          0  HIT %:        100  MISS %:          0  MPKI: 0

L1I PREFETCH  REQUESTED:     913628  ISSUED:     913628  USEFUL:          0  USELESS:          0
L1I USEFUL LOAD PREFETCHES:          0 PREFETCH ISSUED TO LOWER LEVEL:          0  ACCURACY: -nan
 TIMELY PREFETCHES:          0 LATE PREFETCHES: 0 DROPPED PREFETCHES: 0
L1I AVERAGE MISS LATENCY: 17.1192 cycles
L1I RQ	ACCESS:    9432455	FORWARD:          0	MERGED:    2421714	TO_CACHE:    7010741
L1I PQ	ACCESS:     913628	FORWARD:          0	MERGED:     263780	TO_CACHE:     649848

L1BTB TOTAL     ACCESS:    5678613  HIT:    2075666  MISS:    3602947  HIT %:    36.5523  MISS %:    63.4477   MPKI: 72.0589
L1BTB BRANCH_DIRECT_JUMP	ACCESS:     546207 HIT:     145250 MISS:     400957 AVERAGE STALL: 31.6154 AVERAGE FETCH STALL: 18.6984 AVERAGE FETCH QUEUE STALL: 5.63668 AVERAGE DECODE STALL: 6.40495 AVERAGE EXECUTE STALL: 1.09243e+15
L1BTB BRANCH_INDIRECT	ACCESS:     182640 HIT:      66215 MISS:     116425 AVERAGE STALL: 59.3479 AVERAGE FETCH STALL: 11.9984 AVERAGE FETCH QUEUE STALL: 4.92841 AVERAGE DECODE STALL: 6.4375 AVERAGE EXECUTE STALL: 35.0211
L1BTB BRANCH_CONDITIONAL	ACCESS:    2728577 HIT:    1445484 MISS:    1283093 AVERAGE STALL: 33.7528 AVERAGE FETCH STALL: 21.6059 AVERAGE FETCH QUEUE STALL: 5.18852 AVERAGE DECODE STALL: 6.18553 AVERAGE EXECUTE STALL: 6.35065e+14
L1BTB BRANCH_DIRECT_CALL	ACCESS:     939593 HIT:     106229 MISS:     833364 AVERAGE STALL: 32.3071 AVERAGE FETCH STALL: 20.5333 AVERAGE FETCH QUEUE STALL: 5.1986 AVERAGE DECODE STALL: 5.8023 AVERAGE EXECUTE STALL: 8.67919e+14
L1BTB BRANCH_INDIRECT_CALL	ACCESS:     171009 HIT:      21612 MISS:     149397 AVERAGE STALL: 75.5905 AVERAGE FETCH STALL: 13.5469 AVERAGE FETCH QUEUE STALL: 2.47075 AVERAGE DECODE STALL: 5.41036 AVERAGE EXECUTE STALL: 53.6652
L1BTB BRANCH_RETURN	ACCESS:    1110587 HIT:     290876 MISS:     819711 AVERAGE STALL: 34.9204 AVERAGE FETCH STALL: 16.9769 AVERAGE FETCH QUEUE STALL: 2.99686 AVERAGE DECODE STALL: 4.8035 AVERAGE EXECUTE STALL: 3.64294e+14
L1BTB BRANCH_OTHER ACCESS:          0 HIT:          0 MISS:          0 AVERAGE STALL: -nan AVERAGE FETCH STALL: -nan AVERAGE FETCH QUEUE STALL: -nan AVERAGE DECODE STALL: -nan AVERAGE EXECUTE STALL: -nan
L1BTB TOTAL ROB OCCUPANCY AT BTB MISS: 2.14852

L2BTB TOTAL     ACCESS:    3577599  HIT:    3450661  MISS:     126938  HIT %:    96.4519  MISS %:    3.54813   MPKI: 2.53876
L2BTB BRANCH_DIRECT_JUMP	ACCESS:     396771 HIT:     384069 MISS:      12702 AVERAGE STALL: 31.6154 AVERAGE FETCH STALL: 18.6984 AVERAGE FETCH QUEUE STALL: 5.63668 AVERAGE DECODE STALL: 6.40495 AVERAGE EXECUTE STALL: 1.09243e+15
L2BTB BRANCH_INDIRECT	ACCESS:     106209 HIT:     103056 MISS:       3153 AVERAGE STALL: 59.3479 AVERAGE FETCH STALL: 11.9984 AVERAGE FETCH QUEUE STALL: 4.92841 AVERAGE DECODE STALL: 6.4375 AVERAGE EXECUTE STALL: 35.0211
L2BTB BRANCH_CONDITIONAL	ACCESS:    1283093 HIT:    1253691 MISS:      29402 AVERAGE STALL: 33.7528 AVERAGE FETCH STALL: 21.6059 AVERAGE FETCH QUEUE STALL: 5.18852 AVERAGE DECODE STALL: 6.18553 AVERAGE EXECUTE STALL: 6.35065e+14
L2BTB BRANCH_DIRECT_CALL	ACCESS:     833364 HIT:     812099 MISS:      21265 AVERAGE STALL: 32.3071 AVERAGE FETCH STALL: 20.5333 AVERAGE FETCH QUEUE STALL: 5.1986 AVERAGE DECODE STALL: 5.8023 AVERAGE EXECUTE STALL: 8.67919e+14
L2BTB BRANCH_INDIRECT_CALL	ACCESS:     139842 HIT:     128681 MISS:      11161 AVERAGE STALL: 75.5905 AVERAGE FETCH STALL: 13.5469 AVERAGE FETCH QUEUE STALL: 2.47075 AVERAGE DECODE STALL: 5.41036 AVERAGE EXECUTE STALL: 53.6652
L2BTB BRANCH_RETURN	ACCESS:     818320 HIT:     769065 MISS:      49255 AVERAGE STALL: 34.9204 AVERAGE FETCH STALL: 16.9769 AVERAGE FETCH QUEUE STALL: 2.99686 AVERAGE DECODE STALL: 4.8035 AVERAGE EXECUTE STALL: 3.64294e+14
L2BTB BRANCH_OTHER ACCESS:          0 HIT:          0 MISS:          0 AVERAGE STALL: -nan AVERAGE FETCH STALL: -nan AVERAGE FETCH QUEUE STALL: -nan AVERAGE DECODE STALL: -nan AVERAGE EXECUTE STALL: -nan
L2BTB TOTAL ROB OCCUPANCY AT BTB MISS: 60.9825

L2C TOTAL     ACCESS:    4493862  HIT:    4015784  MISS:     478078  HIT %:    89.3615  MISS %:    10.6385   MPKI: 9.56156
L2C LOAD INSTRUCTION	ACCESS:    2741817  HIT:    2476821  MISS:     264996  HIT %:     90.335  MISS %:    9.66498  MPKI: 5.29992
L2C LOAD TRANSLATION INSTRUCTION	ACCESS:        269  HIT:         53  MISS:        216  HIT %:    19.7026  MISS %:    80.2974  MPKI: 0.00432
L2C LOAD DATA	ACCESS:     741000  HIT:     662399  MISS:      78601  HIT %:    89.3926  MISS %:    10.6074  MPKI: 1.57202
L2C RFO DATA	ACCESS:     287816  HIT:     242011  MISS:      45805  HIT %:    84.0853  MISS %:    15.9147  MPKI: 0.9161
L2C PREFETCH DATA	ACCESS:     198213  HIT:     123469  MISS:      74744  HIT %:    62.2911  MISS %:    37.7089  MPKI: 1.49488
L2C WRITEBACK DATA	ACCESS:     522938  HIT:     510531  MISS:      12407  HIT %:    97.6274  MISS %:    2.37256  MPKI: 0.24814
L2C LOAD TRANSLATION DATA	ACCESS:       1790  HIT:        488  MISS:       1302  HIT %:    27.2626  MISS %:    72.7374  MPKI: 0.02604
L2C TRANSLATION FROM L1D PREFETCHER DATA	ACCESS:         19  HIT:         12  MISS:          7  HIT %:    63.1579  MISS %:    36.8421  MPKI: 0.00014

L2C PREFETCH  REQUESTED:      92065  ISSUED:      92065  USEFUL:       7694  USELESS:      67405
L2C USEFUL LOAD PREFETCHES:       7694 PREFETCH ISSUED TO LOWER LEVEL:      75088  ACCURACY: 10.2466
 TIMELY PREFETCHES:       7694 LATE PREFETCHES: 344 DROPPED PREFETCHES: 0
L2C AVERAGE MISS LATENCY: 38.0145 cycles
L2C RQ	ACCESS:    3772754	FORWARD:          0	MERGED:          0	TO_CACHE:    3772711
L2C WQ	ACCESS:     522938	FORWARD:         43	MERGED:          0	TO_CACHE:     522938
L2C PQ	ACCESS:     204946	FORWARD:          0	MERGED:       3236	TO_CACHE:     201710

L2C Dense regions hint from L2: 0
PSCL5 TOTAL     ACCESS:       3910  HIT:       1955  MISS:       1955  HIT %:         50  MISS %:         50   MPKI: 0.0391
PSCL5 LOAD TRANSLATION INSTRUCTION	ACCESS:       3872  HIT:       1936  MISS:       1936  HIT %:         50  MISS %:         50  MPKI: 0.03872
PSCL5 TRANSLATION FROM L1D PREFETCHER INSTRUCTION	ACCESS:         38  HIT:         19  MISS:         19  HIT %:         50  MISS %:         50  MPKI: 0.00038


PSCL4 TOTAL     ACCESS:       3593  HIT:       1792  MISS:       1801  HIT %:    49.8748  MISS %:    50.1252   MPKI: 0.03602
PSCL4 LOAD TRANSLATION INSTRUCTION	ACCESS:       2585  HIT:       1774  MISS:        811  HIT %:    68.6267  MISS %:    31.3733  MPKI: 0.01622
PSCL4 TRANSLATION FROM L1D PREFETCHER INSTRUCTION	ACCESS:         28  HIT:         18  MISS:         10  HIT %:    64.2857  MISS %:    35.7143  MPKI: 0.0002
PSCL4 LOAD TRANSLATION DATA	ACCESS:        972  HIT:          0  MISS:        972  HIT %:          0  MISS %:        100  MPKI: 0.01944
PSCL4 TRANSLATION FROM L1D PREFETCHER DATA	ACCESS:          8  HIT:          0  MISS:          8  HIT %:          0  MISS %:        100  MPKI: 0.00016


PSCL3 TOTAL     ACCESS:       3603  HIT:       1797  MISS:       1806  HIT %:    49.8751  MISS %:    50.1249   MPKI: 0.03612
PSCL3 LOAD TRANSLATION INSTRUCTION	ACCESS:       2590  HIT:       1779  MISS:        811  HIT %:    68.6873  MISS %:    31.3127  MPKI: 0.01622
PSCL3 TRANSLATION FROM L1D PREFETCHER INSTRUCTION	ACCESS:         28  HIT:         18  MISS:         10  HIT %:    64.2857  MISS %:    35.7143  MPKI: 0.0002
PSCL3 LOAD TRANSLATION DATA	ACCESS:        977  HIT:          0  MISS:        977  HIT %:          0  MISS %:        100  MPKI: 0.01954
PSCL3 TRANSLATION FROM L1D PREFETCHER DATA	ACCESS:          8  HIT:          0  MISS:          8  HIT %:          0  MISS %:        100  MPKI: 0.00016


PSCL2 TOTAL     ACCESS:       3805  HIT:       1850  MISS:       1955  HIT %:    48.6202  MISS %:    51.3798   MPKI: 0.0391
PSCL2 LOAD TRANSLATION INSTRUCTION	ACCESS:       2065  HIT:       1831  MISS:        234  HIT %:    88.6683  MISS %:    11.3317  MPKI: 0.00468
PSCL2 TRANSLATION FROM L1D PREFETCHER INSTRUCTION	ACCESS:         19  HIT:         19  MISS:          0  HIT %:        100  MISS %:          0  MPKI: 0
PSCL2 LOAD TRANSLATION DATA	ACCESS:       1702  HIT:          0  MISS:       1702  HIT %:          0  MISS %:        100  MPKI: 0.03404
PSCL2 TRANSLATION FROM L1D PREFETCHER DATA	ACCESS:         19  HIT:          0  MISS:         19  HIT %:          0  MISS %:        100  MPKI: 0.00038


LLC TOTAL     ACCESS:     532720  HIT:     505693  MISS:      27027  HIT %:    94.9266  MISS %:     5.0734   MPKI: 0.54054
LLC LOAD INSTRUCTION	ACCESS:     264996  HIT:     264340  MISS:        656  HIT %:    99.7524  MISS %:   0.247551  MPKI: 0.01312
LLC LOAD TRANSLATION INSTRUCTION	ACCESS:        216  HIT:        188  MISS:         28  HIT %:     87.037  MISS %:     12.963  MPKI: 0.00056
LLC LOAD DATA	ACCESS:      78273  HIT:      75002  MISS:       3271  HIT %:     95.821  MISS %:    4.17896  MPKI: 0.06542
LLC RFO DATA	ACCESS:      45788  HIT:      32492  MISS:      13296  HIT %:    70.9618  MISS %:    29.0382  MPKI: 0.26592
LLC PREFETCH DATA	ACCESS:      75088  HIT:      65684  MISS:       9404  HIT %:     87.476  MISS %:     12.524  MPKI: 0.18808
LLC WRITEBACK DATA	ACCESS:      67050  HIT:      66739  MISS:        311  HIT %:    99.5362  MISS %:   0.463833  MPKI: 0.00622
LLC LOAD TRANSLATION DATA	ACCESS:       1302  HIT:       1241  MISS:         61  HIT %:    95.3149  MISS %:     4.6851  MPKI: 0.00122
LLC TRANSLATION FROM L1D PREFETCHER DATA	ACCESS:          7  HIT:          7  MISS:          0  HIT %:        100  MISS %:          0  MPKI: 0

LLC AVERAGE MISS LATENCY: 154.459 cycles
LLC RQ	ACCESS:     390583	FORWARD:          0	MERGED:          0	TO_CACHE:     390582
LLC WQ	ACCESS:      67050	FORWARD:          1	MERGED:          0	TO_CACHE:      67050
LLC PQ	ACCESS:      75088	FORWARD:          0	MERGED:          0	TO_CACHE:      75088

LLC Dense regions hint to LLC: 0

RAW hits: 1557910
Loads Generated: 12611837
Loads sent to L1D: 11053927
Stores Generated: 6912591
Stores sent to L1D: 6912607
Major fault: 0 Minor fault: 2577
Allocated PAGES: 2577

stream: 
stream:times selected: 1230202
stream:pref_filled: 125602
stream:pref_useful: 28344
stream:pref_late: 8343
stream:misses: 8926
stream:misses_by_poll: 0

CS: 
CS:times selected: 189366
CS:pref_filled: 69443
CS:pref_useful: 44436
CS:pref_late: 8770
CS:misses: 21545
CS:misses_by_poll: 5

CPLX: 
CPLX:times selected: 1039788
CPLX:pref_filled: 23558
CPLX:pref_useful: 6782
CPLX:pref_late: 3266
CPLX:misses: 117476
CPLX:misses_by_poll: 0

NL_L1: 
NL:times selected: 12369
NL:pref_filled: 1486
NL:pref_useful: 254
NL:pref_late: 193
NL:misses: 1483
NL:misses_by_poll: 0

total selections: 2471725
total_filled: 101981
total_useful: 42591
total_late: 22336
total_polluted: 5
total_misses_after_warmup: 784972
conflicts: 5724214

test: 118512

DRAM Statistics
 CHANNEL 0
 RQ ROW_BUFFER_HIT:       9922  ROW_BUFFER_MISS:      16783
 DBUS_CONGESTED:          6
 WQ ROW_BUFFER_HIT:       1250  ROW_BUFFER_MISS:      11856  FULL:          0

 AVG_CONGESTED_CYCLE: 5

CPU 0 Branch Prediction Accuracy: 99.8226% MPKI: 0.32482 Average ROB Occupancy at Mispredict: 99.632
Branch types
NOT_BRANCH: 40846365 81.6927%
BRANCH_DIRECT_JUMP: 546207 1.09241%
BRANCH_INDIRECT: 182640 0.36528%
BRANCH_CONDITIONAL: 6203131 12.4063%
BRANCH_DIRECT_CALL: 939593 1.87919%
BRANCH_INDIRECT_CALL: 171009 0.342018%
BRANCH_RETURN: 1110587 2.22117%
BRANCH_OTHER: 0 0%

DRAM PAGES: 1048576
Allocated PAGES: 2577
Average_ROB_Occupancy: 94.5659
Average_Decode_Occupancy: 10.3436
Average_FTQ_Occupancy: 5.2964
Indirect max targets: 14 Average targets: 1.17089
Branch_type:  BRANCH_DIRECT_JUMP:  Count Percentage: 3.32052 6.19417 4.30402 8.81401 1.87569 6.00953 1.91814 67.5639 
Branch_type:  BRANCH_INDIRECT:  Count Percentage: 6.17261 3.47733 8.1595 9.69184 3.33604 2.80016 3.86041 62.5021 
Branch_type:  BRANCH_CONDITIONAL:  Count Percentage: 26.0666 3.20765 1.6015 4.00164 2.53423 3.64857 2.43583 56.504 
Branch_type:  BRANCH_DIRECT_CALL:  Count Percentage: 0.389221 1.76596 0.758728 3.64088 3.49153 2.73797 3.17717 84.0385 
Branch_type:  BRANCH_INDIRECT_CALL:  Count Percentage: 9.53067 0 2.98709 0.000878727 1.12213 2.03015 4.98209 79.347 
Branch_type:  BRANCH_RETURN:  Count Percentage: 7.52239 1.79183 1.29973 3.64018 4.11903 3.55167 3.80763 74.2675 
Branch_type:  BRANCH_DIRECT_JUMP:  Total Count: 36291 67698 47040 96331 20500 65680 20964 738427 
Branch_type:  BRANCH_INDIRECT:  Total Count: 22542 12699 29798 35394 12183 10226 14098 228254 
Branch_type:  BRANCH_CONDITIONAL:  Total Count: 3232888 397827 198625 496300 314306 452511 302102 7007868 
Branch_type:  BRANCH_DIRECT_CALL:  Total Count: 7305 33144 14240 68333 65530 51387 59630 1577257 
Branch_type:  BRANCH_INDIRECT_CALL:  Total Count: 32538 0 10198 3 3831 6931 17009 270893 
Branch_type:  BRANCH_RETURN:  Total Count: 166927 39762 28842 80778 91404 78814 84494 1648047 
Number of unique branch instructions: 10531
Upper 32 bits: 
aaaa
ffff
ffff0000
Unique upper 32 bits: 3
Unique upper 36 bits: 3
Unique upper 40 bits: 5
Unique upper 44 bits: 32
Unique upper 48 bits: 158
Offset_3 4360
Offset_4 258
Offset_5 477
Offset_6 532
Offset_7 618
Offset_8 563
Offset_9 503
Offset_10 414
Offset_11 333
Offset_12 295
Offset_13 228
Offset_14 233
Offset_15 198
Offset_16 228
Offset_17 163
Offset_18 146
Offset_19 260
Offset_20 141
Offset_21 235
Offset_22 402
Offset_23 241
Offset_24 348
Offset_25 114
Offset_47 92
decode_dispatch_called: 20738552 43.526
Dispatch_width: 0 10380133 50.0524 21.7858
Dispatch_width: 1 638372 3.07819 1.33981
Dispatch_width: 2 835699 4.02969 1.75396
Dispatch_width: 3 581026 2.80167 1.21946
Dispatch_width: 4 1718782 8.28786 3.60737
Dispatch_width: 5 435536 2.10013 0.914101
Dispatch_width: 6 6149004 29.6501 12.9055
Empty_decode_cycles: 26907810 56.474
ROB_full_cycles: 1681024 3.52813
Starvation_cycles_per_kilo_instr: 398.163
Starvation_cycles_per_kilo_instr_3: 376.62
Starvation_cycles_per_kilo_instr_0: 356.069
Branch_type_1  (3,1)  (4,9)  (5,39)  (6,73)  (7,122)  (8,146)  (9,135)  (10,108)  (11,76)  (12,47)  (13,11)  (14,2)  (15,3)  (16,4)  (18,1)  (19,5)  (20,2)  (21,1)  (22,3)  (23,2)  (24,10)  (25,12) 
Branch_type_2  (3,1)  (4,1)  (5,1)  (8,4)  (9,4)  (10,1)  (12,1)  (13,1)  (14,1)  (16,3)  (17,2)  (20,2)  (21,2)  (23,5)  (24,1)  (47,42) 
Branch_type_3  (3,4358)  (4,248)  (5,433)  (6,443)  (7,466)  (8,346)  (9,274)  (10,168)  (11,130)  (12,54)  (13,10) 
Branch_type_4  (6,3)  (7,8)  (8,25)  (9,56)  (10,65)  (11,66)  (12,106)  (13,96)  (14,104)  (15,94)  (16,101)  (17,72)  (18,62)  (19,127)  (20,73)  (21,124)  (22,212)  (23,136)  (24,203)  (25,98) 
Branch_type_5  (8,3)  (9,1)  (10,4)  (11,5)  (12,3)  (13,14)  (14,16)  (15,11)  (16,22)  (17,13)  (18,23)  (19,14)  (20,11)  (21,13)  (22,43)  (23,26)  (24,38) 
Branch_type_6  (5,4)  (6,13)  (7,22)  (8,39)  (9,33)  (10,68)  (11,56)  (12,84)  (13,96)  (14,110)  (15,90)  (16,98)  (17,76)  (18,60)  (19,114)  (20,53)  (21,95)  (22,144)  (23,72)  (24,96)  (25,4)  (47,50) 
aaaaab1fc620: 2ac9e77e 2aca717c 2aca8eff 2acaf6bc 2acaf9aa 2acaf9f1 2acb1abc 2acb1b7f 2acd4e22 2acdb712 2acf5f9e 2ad0ef44 2ad3f15c 2ad414e6 2ad60e42 2ad8609c 2ad99830 2ada35cc 2ada4676 2ada6612 2adf183e 2adf30e5 2adf5602 2adf785c 2ae11572 2aeb2dcf 2aee101b 2aee1ae1 2aee9456 2b156a8c 2b156b61 2b156bea 2b167f35 2b177656 2b17feec 2b1a3e5a 
aaaaab1fc640: 2ac9ec07 2aca656e 2aca801d 2acaea11 2acaee73 2acb13ee 2acb1470 2acd462b 2ad0ef5d 2ad3f3fe 2ad86e9b 2ada1641 2ada4115 2ada6638 2adf30d4 2ae12e57 2aee1033 2b1693ab 2b16948c 2b169491 2b17d915 2b17fa85 2b17fccd 
aaaaab1fc740: 2aca1fb0 2aca45b3 2aca5aa1 2aca5c69 2aca66f9 2aca9426 2acaeecb 2acf3d2d 2acf3d64 2acf6089 2ad017ea 2ad5e7ef 2ad61064 2ad87373 2ad9bf84 2ad9c093 2ae9b606 2aea9ffa 2aee99f5 2aee9a2c 2aeece4b 
aaaaab1fcb00: 2acf2d72 2acf3734 2acf604c 2acfa5b7 2ad397b5 2ad3b800 2ae8af7d 2ae8aff0 2ae9aaba 2aea9fc6 2aeaa358 2aee910b 2aee91cf 2aee928e 2aee92e4 2aee99de 2af6fe87 2af70dfe 2b16850c 2b16c4a2 2b1765f4 2b178094 2b17d925 2b17db06 
aaaaab1fcb10: 2acf2d95 2acf3758 2acf6052 2acfa5f4 2ad397c3 2ad3b81c 2ae8af88 2ae8affe 2ae9aacf 2aeaa017 2aeaa36d 2aee9114 2aee91d8 2aee934d 2aee9353 2aee9a14 2af6fe8c 2af70e22 2b168526 2b16c542 2b176609 2b1780a3 2b17d95d 2b17db44 
aaaaac68f310: 2ac9ec8c 2ac9fb44 2ac9fbd2 2aca59ab 2acac04c 2acaf6e0 2acaf6ec 2acaf6f9 2acaf700 2acaf708 2acf2d90 2ad3cfbd 2ad3cfc4 2ad3d000 2ad3f35f 2ad4955d 2ad49571 2ad4f3f2 2ad4f400 2ad5f240 2ad5f37c 2ad5f86a 2ad5f86f 2ad5f880 2ad5fc0d 2ad5fc14 2ad5fc21 2ad5fe1b 2ad873bb 2ad873e3 2ad8a6b2 2ad9086e 2ad93096 2ad9bbb2 2ada152c 2ada1554 2ada3332 2ada5522 2adf3130 2adf313c 2adf3a3f 2adf3bd9 2adf5788 2adf7a8d 2ae07f6b 2ae0857a 2ae0857e 2ae08630 2ae08634 2ae08637 2ae08642 2ae0866f 2ae086e4 2ae086ec 2ae08717 2ae0871b 2aee0170 2aee1d38 2aee75f4 2aee7662 2aee85ca 2aee85e4 2aee8eef 2aee9a0a 2af70b84 2af74e8f 2b17d843 
aaaaac690ef0: 2aca598b 2acb111b 2acb175f 2acb1772 2acbfaf4 2acbfb00 2acf374f 2acf6d43 2acfa5c8 2ad3baf1 2ad3d4ac 2ad3d4b8 2ad3f1cf 2ad486b2 2ad5a59b 2ad5fc64 2ad5fcf9 2ad6121c 2ad906e9 2ad907bf 2ad9bada 2ada16ce 2ada1ad5 2ada43df 2ada64c0 2ada72ee 2adeb71a 2adf3bcb 2adf7a38 2adf7c6a 2adf8872 2adf8880 2adf9959 2adf9abe 2ae07f78 2ae08503 2ae08754 2ae12e80 2aea3bea 2aecb509 2aee00b0 2aee2bdd 2aee5467 2aee5601 2aee8f20 2af703fd 2af7048b 2af74e74 2dfba627 
Unique trigger count: 
1 10028
2 545
3 92
4 30
5 15
6 8
7 7
8 2
9 3
10 2
11 2
12 1
13 1
14 2
16 2
19 1
21 1
23 1
24 2
36 1
49 1
67 1
BTB PER SET UNIQUE ADDR: 11 17 9 9 5 14 13 18 17 7 13 7 19 13 10 13 15 12 12 15 9 16 12 15 14 12 8 11 11 15 20 13 15 9 16 16 18 18 14 11 15 12 9 15 18 11 13 15 22 10 14 8 18 8 12 15 15 12 16 11 15 22 12 15 12 21 11 18 19 12 8 8 11 8 9 21 14 20 14 14 12 13 12 11 14 13 14 14 20 16 20 19 17 11 10 14 18 13 13 14 15 12 17 13 13 13 13 15 16 11 17 9 9 19 14 19 7 13 14 9 16 16 11 9 12 10 10 10 21 14 15 9 14 7 16 12 13 10 14 12 19 11 12 8 12 16 11 16 24 10 13 25 14 18 13 15 13 20 13 18 16 17 23 14 17 13 11 10 21 18 13 10 16 15 11 11 14 13 13 12 8 12 15 15 18 18 12 14 9 19 9 14 13 18 9 14 16 9 18 12 10 11 14 11 19 10 6 15 11 5 8 9 13 12 10 15 6 20 16 16 14 5 13 14 16 11 21 12 8 19 19 19 8 10 12 13 16 12 11 7 9 10 11 12 21 20 12 11 11 14 14 17 13 13 19 18 10 9 19 12 8 10 14 9 15 24 9 8 15 11 11 13 14 17 19 14 9 11 7 17 14 12 16 18 21 14 12 11 20 8 14 10 11 16 14 13 11 17 9 10 12 10 10 10 7 10 10 14 19 13 16 8 13 9 12 8 15 20 14 9 14 14 15 13 9 11 12 15 8 8 15 8 11 16 18 11 12 10 16 9 11 15 8 19 14 11 10 14 16 14 9 15 23 14 14 14 17 11 13 11 13 20 13 10 12 14 11 8 9 11 14 11 15 10 15 9 15 14 15 13 14 15 12 15 15 16 13 8 20 13 15 11 16 11 14 13 11 14 12 17 12 9 11 15 10 12 17 12 14 10 15 10 21 13 9 11 14 16 8 11 13 16 13 15 19 18 7 11 12 17 10 8 22 13 17 18 15 12 16 8 18 13 14 9 16 23 12 16 10 9 17 8 7 12 19 12 16 12 12 10 8 12 17 16 13 10 15 10 19 12 7 12 15 15 8 7 18 12 10 10 12 13 8 14 9 18 13 9 11 6 17 10 12 14 9 19 10 14 14 8 20 9 15 8 12 9 8 11 16 12 21 9 
BTB PER SET COUNT: 12 23 11 10 5 14 15 517 19 1463 14 442 59 13 10 16 15 12 12 1473 10 18 13 510 14 12 9 11 1466 15 1836 385 18 9 19 21 2938 2387 18 11 17 14 12 15 3708 16 13 15 5335 10 14 8 3480 8 12 17 16 12 18 87 15 6130 13 16 12 4042 11 25 4842 53 8 9 1466 8 10 5950 511 47 14 17 12 973 972 12 510 13 14 15 38 19 4002 500 17 2981 12 18 26 13 13 16 15 12 24 14 947 13 13 16 16 785 386 10 1464 69 14 2851 12 13 509 1464 18 22 11 9 507 10 10 10 5000 15 511 9 15 8 16 12 507 10 14 12 27 12 13 8 12 19 1494 16 14914 10 13 8693 15 5457 2926 1007 15 72 508 23 18 20 7510 1004 513 1936 586 10 7826 514 13 1001 14581 1144 11 1835 1469 509 973 1003 8 14 15 15 24 19 13 43 9 70 9 14 179 1016 9 1473 977 1464 215 13 12 11 1004 12 1493 778 6 2460 12 5 8 10 13 13 10 635 6 5974 16 16 975 5 14 15 16 11 785 1959 8 1506 281 4443 8 10 508 13 17 1003 11 7 10 523 11 12 1693 5004 12 971 11 14 974 18 13 13 91 20 11 9 58 12 8 125 14 1466 1471 9645 969 8 15 11 12 13 18 42 97 17 430 12 7 99 14 12 251 31 6176 1003 14 11 120 8 251 12 2488 1472 14 22 13 107 9 10 12 475 12 12 8 10 12 14 31 13 17 377 14 13 972 11 15 6427 18 9 14 14 39 13 9 12 12 15 245 8 1004 1466 11 22 998 11 1005 11 17 9 14 17 10 1530 1004 11 10 21 17 14 9 19 7910 1935 14 1006 23 11 13 53 13 72 13 10 15 17 15 8 11 12 16 14 17 13 16 9 15 14 15 14 14 15 12 166 16 17 15 8 2262 13 150 55 16 14 14 15 1467 15 12 17 12 9 11 15 12 1004 2927 12 15 2300 17 10 534 14 969 12 146 16 9 1928 13 480 13 17 7032 30 9 11 12 25 138 968 2595 13 26 271 15 12 18 9 417 15 14 9 24 3375 16 976 10 504 30 8 11 13 42 13 16 12 509 10 998 381 29 17 998 10 17 11 46 13 503 12 45 513 120 8 20423 12 10 12 12 13 8 507 9 449 284 404 11 6 46 10 12 14 9 27 10 14 1996 9 8091 389 1212 8 14 12 8 11 1495 12 738 9 
