
*** ChampSim Multicore Out-of-Order Simulator ***

Warmup Instructions: 50000000
Simulation Instructions: 50000000
Number of CPUs: 1
LLC sets: 2048
LLC ways: 16
Off-chip DRAM Size: 4096 MB Channels: 1 Width: 64-bit Data Rate: 6400 MT/s
CPU 0 runs ./micro_traces/srv769.trace.gz
.gz
ITLB has LRU replacement policy
DTLB has LRU replacement policy
STLB has LRU replacement policy
FDIP Prefetcher at L1I
L1I has LRU replacement policy
L1D has LRU replacement policy
Initialize SRRIP state for L2C
Initialize DRRIP state for LLC
Heartbeat_Variant_0 : 1342 0.327637 per_variant_size: 0 1342 0 0 0 0 0 0 0 
Heartbeat_Variant_1 : 1235 0.301514 per_variant_size: 0 593 642 0 0 0 0 0 0 
Heartbeat_Variant_2 : 1307 0.319092 per_variant_size: 0 510 355 220 222 0 0 0 0 
Heartbeat_Variant_3 : 0 0 per_variant_size: 0 0 0 0 0 0 0 0 0 
Heartbeat_Variant_0_evicts 0 : 5836 1 : 323 2 : 267 3 : 0 
Heartbeat_Variant_1_evicts 0 : 307 1 : 0 2 : 446 3 : 0 
Heartbeat_Variant_2_evicts 0 : 262 1 : 417 2 : 0 3 : 0 
Heartbeat_Variant_3_evicts 0 : 0 1 : 0 2 : 0 3 : 0 
Heartbeat CPU 0 instructions: 10000003 cycles: 2796077 heartbeat IPC: 3.57644 cumulative IPC: 3.57644 (Simulation time: 0 hr 1 min 50 sec) 
Heartbeat_Variant_0 : 1349 0.329346 per_variant_size: 0 1349 0 0 0 0 0 0 0 
Heartbeat_Variant_1 : 1251 0.30542 per_variant_size: 0 596 655 0 0 0 0 0 0 
Heartbeat_Variant_2 : 1318 0.321777 per_variant_size: 0 516 352 236 214 0 0 0 0 
Heartbeat_Variant_3 : 0 0 per_variant_size: 0 0 0 0 0 0 0 0 0 
Heartbeat_Variant_0_evicts 0 : 5665 1 : 51 2 : 71 3 : 0 
Heartbeat_Variant_1_evicts 0 : 48 1 : 0 2 : 269 3 : 0 
Heartbeat_Variant_2_evicts 0 : 78 1 : 259 2 : 0 3 : 0 
Heartbeat_Variant_3_evicts 0 : 0 1 : 0 2 : 0 3 : 0 
Heartbeat CPU 0 instructions: 20000002 cycles: 5590270 heartbeat IPC: 3.57885 cumulative IPC: 3.57765 (Simulation time: 0 hr 3 min 32 sec) 
Heartbeat_Variant_0 : 1373 0.335205 per_variant_size: 0 1373 0 0 0 0 0 0 0 
Heartbeat_Variant_1 : 1266 0.309082 per_variant_size: 0 597 669 0 0 0 0 0 0 
Heartbeat_Variant_2 : 1347 0.328857 per_variant_size: 0 531 360 229 227 0 0 0 0 
Heartbeat_Variant_3 : 0 0 per_variant_size: 0 0 0 0 0 0 0 0 0 
Heartbeat_Variant_0_evicts 0 : 5602 1 : 142 2 : 169 3 : 0 
Heartbeat_Variant_1_evicts 0 : 141 1 : 0 2 : 345 3 : 0 
Heartbeat_Variant_2_evicts 0 : 165 1 : 354 2 : 0 3 : 0 
Heartbeat_Variant_3_evicts 0 : 0 1 : 0 2 : 0 3 : 0 
Heartbeat CPU 0 instructions: 30000001 cycles: 8386771 heartbeat IPC: 3.5759 cumulative IPC: 3.57706 (Simulation time: 0 hr 5 min 13 sec) 
Heartbeat_Variant_0 : 1379 0.33667 per_variant_size: 0 1379 0 0 0 0 0 0 0 
Heartbeat_Variant_1 : 1279 0.312256 per_variant_size: 0 619 660 0 0 0 0 0 0 
Heartbeat_Variant_2 : 1343 0.327881 per_variant_size: 0 511 378 234 220 0 0 0 0 
Heartbeat_Variant_3 : 0 0 per_variant_size: 0 0 0 0 0 0 0 0 0 
Heartbeat_Variant_0_evicts 0 : 5612 1 : 92 2 : 73 3 : 0 
Heartbeat_Variant_1_evicts 0 : 91 1 : 0 2 : 303 3 : 0 
Heartbeat_Variant_2_evicts 0 : 71 1 : 296 2 : 0 3 : 0 
Heartbeat_Variant_3_evicts 0 : 0 1 : 0 2 : 0 3 : 0 
Heartbeat CPU 0 instructions: 40000003 cycles: 11182183 heartbeat IPC: 3.57729 cumulative IPC: 3.57712 (Simulation time: 0 hr 6 min 55 sec) 
Heartbeat_Variant_0 : 1377 0.336182 per_variant_size: 0 1377 0 0 0 0 0 0 0 
Heartbeat_Variant_1 : 1284 0.313477 per_variant_size: 0 623 661 0 0 0 0 0 0 
Heartbeat_Variant_2 : 1342 0.327637 per_variant_size: 0 509 379 232 222 0 0 0 0 
Heartbeat_Variant_3 : 0 0 per_variant_size: 0 0 0 0 0 0 0 0 0 
Heartbeat_Variant_0_evicts 0 : 5526 1 : 7 2 : 3 3 : 0 
Heartbeat_Variant_1_evicts 0 : 9 1 : 0 2 : 201 3 : 0 
Heartbeat_Variant_2_evicts 0 : 4 1 : 198 2 : 0 3 : 0 
Heartbeat_Variant_3_evicts 0 : 0 1 : 0 2 : 0 3 : 0 
Heartbeat CPU 0 instructions: 50000001 cycles: 13976795 heartbeat IPC: 3.57831 cumulative IPC: 3.57736 (Simulation time: 0 hr 8 min 35 sec) 

Warmup complete CPU 0 instructions: 50000001 cycles: 13976795 (Simulation time: 0 hr 8 min 35 sec) 

Cycle: 20000000 FTQ IN: 58261307 FTQ occupancy: 20.481 DECODE IN: 58261256 DECODE occupancy: 53.2092 ROB IN: 58261256 ROB occupancy: 318.743 ROB OUT: 58261003
Heartbeat_Variant_0 : 1380 0.336914 per_variant_size: 0 1380 0 0 0 0 0 0 0 
Heartbeat_Variant_1 : 1304 0.318359 per_variant_size: 0 626 678 0 0 0 0 0 0 
Heartbeat_Variant_2 : 1346 0.328613 per_variant_size: 0 495 394 239 218 0 0 0 0 
Heartbeat_Variant_3 : 0 0 per_variant_size: 0 0 0 0 0 0 0 0 0 
Heartbeat_Variant_0_evicts 0 : 5654 1 : 139 2 : 142 3 : 0 
Heartbeat_Variant_1_evicts 0 : 142 1 : 0 2 : 282 3 : 0 
Heartbeat_Variant_2_evicts 0 : 140 1 : 273 2 : 0 3 : 0 
Heartbeat_Variant_3_evicts 0 : 0 1 : 0 2 : 0 3 : 0 
Heartbeat CPU 0 instructions: 60000002 cycles: 21240898 heartbeat IPC: 1.37663 cumulative IPC: 1.37663 (Simulation time: 0 hr 10 min 31 sec) 
Heartbeat_Variant_0 : 1381 0.337158 per_variant_size: 0 1381 0 0 0 0 0 0 0 
Heartbeat_Variant_1 : 1302 0.317871 per_variant_size: 0 619 683 0 0 0 0 0 0 
Heartbeat_Variant_2 : 1348 0.329102 per_variant_size: 0 492 394 250 212 0 0 0 0 
Heartbeat_Variant_3 : 0 0 per_variant_size: 0 0 0 0 0 0 0 0 0 
Heartbeat_Variant_0_evicts 0 : 5611 1 : 30 2 : 24 3 : 0 
Heartbeat_Variant_1_evicts 0 : 25 1 : 0 2 : 216 3 : 0 
Heartbeat_Variant_2_evicts 0 : 28 1 : 213 2 : 0 3 : 0 
Heartbeat_Variant_3_evicts 0 : 0 1 : 0 2 : 0 3 : 0 
Heartbeat CPU 0 instructions: 70000003 cycles: 28354839 heartbeat IPC: 1.40569 cumulative IPC: 1.39101 (Simulation time: 0 hr 12 min 29 sec) 
Cycle: 30000000 FTQ IN: 14062278 FTQ occupancy: 14.7598 DECODE IN: 14062252 DECODE occupancy: 37.9954 ROB IN: 14062192 ROB occupancy: 251.601 ROB OUT: 14062097
Heartbeat_Variant_0 : 1383 0.337646 per_variant_size: 0 1383 0 0 0 0 0 0 0 
Heartbeat_Variant_1 : 1302 0.317871 per_variant_size: 0 609 693 0 0 0 0 0 0 
Heartbeat_Variant_2 : 1359 0.331787 per_variant_size: 0 500 402 260 197 0 0 0 0 
Heartbeat_Variant_3 : 0 0 per_variant_size: 0 0 0 0 0 0 0 0 0 
Heartbeat_Variant_0_evicts 0 : 5764 1 : 142 2 : 129 3 : 0 
Heartbeat_Variant_1_evicts 0 : 140 1 : 0 2 : 306 3 : 0 
Heartbeat_Variant_2_evicts 0 : 131 1 : 307 2 : 0 3 : 0 
Heartbeat_Variant_3_evicts 0 : 0 1 : 0 2 : 0 3 : 0 
Heartbeat CPU 0 instructions: 80000001 cycles: 35578089 heartbeat IPC: 1.38442 cumulative IPC: 1.38881 (Simulation time: 0 hr 14 min 24 sec) 
Cycle: 40000000 FTQ IN: 13920096 FTQ occupancy: 14.7504 DECODE IN: 13920099 DECODE occupancy: 37.6947 ROB IN: 13920159 ROB occupancy: 249.632 ROB OUT: 13920466
Heartbeat_Variant_0 : 1384 0.337891 per_variant_size: 0 1384 0 0 0 0 0 0 0 
Heartbeat_Variant_1 : 1301 0.317627 per_variant_size: 0 607 694 0 0 0 0 0 0 
Heartbeat_Variant_2 : 1361 0.332275 per_variant_size: 0 504 399 266 192 0 0 0 0 
Heartbeat_Variant_3 : 0 0 per_variant_size: 0 0 0 0 0 0 0 0 0 
Heartbeat_Variant_0_evicts 0 : 5672 1 : 16 2 : 6 3 : 0 
Heartbeat_Variant_1_evicts 0 : 18 1 : 0 2 : 208 3 : 0 
Heartbeat_Variant_2_evicts 0 : 3 1 : 211 2 : 0 3 : 0 
Heartbeat_Variant_3_evicts 0 : 0 1 : 0 2 : 0 3 : 0 
Heartbeat CPU 0 instructions: 90000001 cycles: 42666628 heartbeat IPC: 1.41073 cumulative IPC: 1.39422 (Simulation time: 0 hr 16 min 19 sec) 
Heartbeat_Variant_0 : 1381 0.337158 per_variant_size: 0 1381 0 0 0 0 0 0 0 
Heartbeat_Variant_1 : 1306 0.318848 per_variant_size: 0 609 697 0 0 0 0 0 0 
Heartbeat_Variant_2 : 1363 0.332764 per_variant_size: 0 505 390 269 199 0 0 0 0 
Heartbeat_Variant_3 : 0 0 per_variant_size: 0 0 0 0 0 0 0 0 0 
Heartbeat_Variant_0_evicts 0 : 5572 1 : 40 2 : 48 3 : 0 
Heartbeat_Variant_1_evicts 0 : 45 1 : 0 2 : 237 3 : 0 
Heartbeat_Variant_2_evicts 0 : 46 1 : 239 2 : 0 3 : 0 
Heartbeat_Variant_3_evicts 0 : 0 1 : 0 2 : 0 3 : 0 
Heartbeat CPU 0 instructions: 100000001 cycles: 49877629 heartbeat IPC: 1.38677 cumulative IPC: 1.39273 (Simulation time: 0 hr 18 min 43 sec) 
Finished CPU 0 instructions: 50000000 cycles: 35900834 cumulative IPC: 1.39273 (Simulation time: 0 hr 18 min 43 sec) 

ChampSim completed all CPUs

Region of Interest Statistics

CPU 0 cumulative IPC: 1.39273 instructions: 50000000 cycles: 35900834
 Fetch stage stalled: 45.9147  Sim cycles: 35900834 fetch stall cycle: 16483748
 Empty decode stage: 25.5794  Sim cycles: 35900834 fetch stall cycle: 9183203
ITLB TOTAL     ACCESS:    5820963  HIT:    5331387  MISS:     489576  HIT %:    91.5894  MISS %:    8.41057   MPKI: 9.79152
ITLB LOAD TRANSLATION INSTRUCTION	ACCESS:    5686130  HIT:    5196554  MISS:     489576  HIT %:      91.39  MISS %:       8.61  MPKI: 9.79152
ITLB TRANSLATION FROM L1D PREFETCHER INSTRUCTION	ACCESS:     134833  HIT:     134833  MISS:          0  HIT %:        100  MISS %:          0  MPKI: 0

ITLB AVERAGE MISS LATENCY: 9.05153 cycles
ITLB RQ	ACCESS:    7918340	FORWARD:          0	MERGED:    1615255	TO_CACHE:    6303085

DTLB TOTAL     ACCESS:    8926558  HIT:    8451018  MISS:     475540  HIT %:    94.6728  MISS %:    5.32725   MPKI: 9.5108
DTLB LOAD TRANSLATION DATA	ACCESS:    8926558  HIT:    8451018  MISS:     475540  HIT %:    94.6728  MISS %:    5.32725  MPKI: 9.5108

DTLB AVERAGE MISS LATENCY: 9.33361 cycles
DTLB RQ	ACCESS:   13289047	FORWARD:          0	MERGED:    4325468	TO_CACHE:    8963579

STLB TOTAL     ACCESS:    1221119  HIT:    1218979  MISS:       2140  HIT %:    99.8248  MISS %:   0.175249   MPKI: 0.0428
STLB LOAD TRANSLATION INSTRUCTION	ACCESS:     489576  HIT:     489333  MISS:        243  HIT %:    99.9504  MISS %:  0.0496348  MPKI: 0.00486
STLB LOAD TRANSLATION DATA	ACCESS:     475540  HIT:     473653  MISS:       1887  HIT %:    99.6032  MISS %:   0.396812  MPKI: 0.03774
STLB TRANSLATION FROM L1D PREFETCHER DATA	ACCESS:     256003  HIT:     255993  MISS:         10  HIT %:    99.9961  MISS %:  0.0039062  MPKI: 0.0002

STLB AVERAGE MISS LATENCY: 71.3939 cycles
STLB RQ	ACCESS:    1362912	FORWARD:          0	MERGED:     141755	TO_CACHE:    1221157

STLB Hit, L1D data hit: 0
STLB Hit, L2C data hit: 0
STLB Hit, LLC data hit: 0
STLB Hit, LLC data miss: 0
STLB STLB hints to L2: 0
L1D TOTAL     ACCESS:   13039277  HIT:   11884852  MISS:    1154425  HIT %:    91.1466  MISS %:    8.85344   MPKI: 23.0885
L1D LOAD DATA	ACCESS:    6541141  HIT:    5781522  MISS:     759619  HIT %:    88.3871  MISS %:    11.6129  MPKI: 15.1924
L1D RFO DATA	ACCESS:    6161169  HIT:    5871072  MISS:     290097  HIT %:    95.2915  MISS %:    4.70847  MPKI: 5.80194
L1D PREFETCH DATA	ACCESS:     336967  HIT:     232258  MISS:     104709  HIT %:     68.926  MISS %:     31.074  MPKI: 2.09418

L1D PREFETCH  REQUESTED:     795920  ISSUED:     795920  USEFUL:      48185  USELESS:      68701
L1D USEFUL LOAD PREFETCHES:      48185 PREFETCH ISSUED TO LOWER LEVEL:     116935  ACCURACY: 41.2067
 TIMELY PREFETCHES:      48185 LATE PREFETCHES: 12188 DROPPED PREFETCHES: 4
L1D AVERAGE MISS LATENCY: 335421 cycles
L1D RQ	ACCESS:   10679225	FORWARD:          0	MERGED:    3938451	TO_CACHE:    6576801
L1D WQ	ACCESS:    6908677	FORWARD:     164301	MERGED:     196431	TO_CACHE:    6712246
L1D PQ	ACCESS:     398124	FORWARD:          0	MERGED:          0	TO_CACHE:     397796

L1D UNIQUE REGIONS ACCESSED: 0
L1D REGIONS CONFLICTS: 0
L1D Cross Page Prefetch Requests: 6439
L1D Same Page Prefetch Requests: 797768
L1D ROI Sum of L1D PQ occupancy: 5046633
L1D PREFETCHES PUSHED FROM L2C: 0
L1I TOTAL     ACCESS:    7104232  HIT:    4364837  MISS:    2739395  HIT %:      61.44  MISS %:      38.56   MPKI: 54.7879
L1I LOAD INSTRUCTION	ACCESS:    6433822  HIT:    3694427  MISS:    2739395  HIT %:     57.422  MISS %:     42.578  MPKI: 54.7879
L1I PREFETCH INSTRUCTION	ACCESS:     670410  HIT:     670410  MISS:          0  HIT %:        100  MISS %:          0  MPKI: 0

L1I PREFETCH  REQUESTED:    1614491  ISSUED:    1614491  USEFUL:          0  USELESS:          0
L1I USEFUL LOAD PREFETCHES:          0 PREFETCH ISSUED TO LOWER LEVEL:          0  ACCURACY: -nan
 TIMELY PREFETCHES:          0 LATE PREFETCHES: 0 DROPPED PREFETCHES: 0
L1I AVERAGE MISS LATENCY: 17.2922 cycles
L1I RQ	ACCESS:    9566403	FORWARD:          0	MERGED:    2831505	TO_CACHE:    6734898
L1I PQ	ACCESS:    1614491	FORWARD:          0	MERGED:     431049	TO_CACHE:    1183442

L1BTB TOTAL     ACCESS:    5680063  HIT:    2079870  MISS:    3600193  HIT %:     36.617  MISS %:     63.383   MPKI: 72.0039
L1BTB BRANCH_DIRECT_JUMP	ACCESS:     545320  HIT:     144874  MISS:     400446	AVERAGE STALL: 56.207
L1BTB BRANCH_INDIRECT	ACCESS:     182082  HIT:      65786  MISS:     116296	AVERAGE STALL: 117.841
L1BTB BRANCH_CONDITIONAL	ACCESS:    2736413  HIT:    1453714  MISS:    1282699	AVERAGE STALL: 77.8067
L1BTB BRANCH_DIRECT_CALL	ACCESS:     937654  HIT:     105113  MISS:     832541	AVERAGE STALL: 70.215
L1BTB BRANCH_INDIRECT_CALL	ACCESS:     170468  HIT:      21226  MISS:     149242	AVERAGE STALL: 143.795
L1BTB BRANCH_RETURN	ACCESS:    1108126  HIT:     289157  MISS:     818969	AVERAGE STALL: 52.5643
L1BTB BRANCH_OTHER ACCESS:          0  HIT:          0  MISS:          0	AVERAGE STALL: -nan
L1BTB TOTAL ROB OCCUPANCY AT BTB MISS: 2.74921

L2BTB TOTAL     ACCESS:    3574938  HIT:    3510513  MISS:      64425  HIT %:    98.1979  MISS %:    1.80213   MPKI: 1.2885
L2BTB BRANCH_DIRECT_JUMP	ACCESS:     396275  HIT:     392354  MISS:       3921	AVERAGE STALL: 56.207
L2BTB BRANCH_INDIRECT	ACCESS:     106119  HIT:     103450  MISS:       2669	AVERAGE STALL: 117.841
L2BTB BRANCH_CONDITIONAL	ACCESS:    1282699  HIT:    1278580  MISS:       4119	AVERAGE STALL: 77.8067
L2BTB BRANCH_DIRECT_CALL	ACCESS:     832541  HIT:     831068  MISS:       1473	AVERAGE STALL: 70.215
L2BTB BRANCH_INDIRECT_CALL	ACCESS:     139729  HIT:     129561  MISS:      10168	AVERAGE STALL: 143.795
L2BTB BRANCH_RETURN	ACCESS:     817575  HIT:     775500  MISS:      42075	AVERAGE STALL: 52.5643
L2BTB BRANCH_OTHER ACCESS:          0  HIT:          0  MISS:          0	AVERAGE STALL: -nan
L2BTB TOTAL ROB OCCUPANCY AT BTB MISS: 153.631

L2C TOTAL     ACCESS:    4510892  HIT:    4035422  MISS:     475470  HIT %:    89.4595  MISS %:    10.5405   MPKI: 9.5094
L2C LOAD INSTRUCTION	ACCESS:    2739395  HIT:    2480632  MISS:     258763  HIT %:     90.554  MISS %:    9.44599  MPKI: 5.17526
L2C LOAD TRANSLATION INSTRUCTION	ACCESS:        283  HIT:         69  MISS:        214  HIT %:    24.3816  MISS %:    75.6184  MPKI: 0.00428
L2C LOAD DATA	ACCESS:     747397  HIT:     667585  MISS:      79812  HIT %:    89.3213  MISS %:    10.6787  MPKI: 1.59624
L2C RFO DATA	ACCESS:     290038  HIT:     241807  MISS:      48231  HIT %:    83.3708  MISS %:    16.6292  MPKI: 0.96462
L2C PREFETCH DATA	ACCESS:     205334  HIT:     130616  MISS:      74718  HIT %:    63.6115  MISS %:    36.3885  MPKI: 1.49436
L2C WRITEBACK DATA	ACCESS:     526443  HIT:     514090  MISS:      12353  HIT %:    97.6535  MISS %:     2.3465  MPKI: 0.24706
L2C LOAD TRANSLATION DATA	ACCESS:       1981  HIT:        610  MISS:       1371  HIT %:    30.7925  MISS %:    69.2075  MPKI: 0.02742
L2C TRANSLATION FROM L1D PREFETCHER DATA	ACCESS:         21  HIT:         13  MISS:          8  HIT %:    61.9048  MISS %:    38.0952  MPKI: 0.00016

L2C PREFETCH  REQUESTED:      96516  ISSUED:      96516  USEFUL:       8600  USELESS:      66853
L2C USEFUL LOAD PREFETCHES:       8600 PREFETCH ISSUED TO LOWER LEVEL:      75307  ACCURACY: 11.4199
 TIMELY PREFETCHES:       8600 LATE PREFETCHES: 589 DROPPED PREFETCHES: 0
L2C AVERAGE MISS LATENCY: 39.575 cycles
L2C RQ	ACCESS:    3779170	FORWARD:          0	MERGED:          0	TO_CACHE:    3779116
L2C WQ	ACCESS:     526443	FORWARD:         55	MERGED:          0	TO_CACHE:     526443
L2C PQ	ACCESS:     213451	FORWARD:          0	MERGED:       3730	TO_CACHE:     209720

L2C Dense regions hint from L2: 0
PSCL5 TOTAL     ACCESS:       4290  HIT:       2145  MISS:       2145  HIT %:         50  MISS %:         50   MPKI: 0.0429
PSCL5 LOAD TRANSLATION INSTRUCTION	ACCESS:       4248  HIT:       2124  MISS:       2124  HIT %:         50  MISS %:         50  MPKI: 0.04248
PSCL5 TRANSLATION FROM L1D PREFETCHER INSTRUCTION	ACCESS:         42  HIT:         21  MISS:         21  HIT %:         50  MISS %:         50  MPKI: 0.00042


PSCL4 TOTAL     ACCESS:       4105  HIT:       2046  MISS:       2059  HIT %:    49.8417  MISS %:    50.1583   MPKI: 0.04118
PSCL4 LOAD TRANSLATION INSTRUCTION	ACCESS:       2694  HIT:       2025  MISS:        669  HIT %:     75.167  MISS %:     24.833  MPKI: 0.01338
PSCL4 TRANSLATION FROM L1D PREFETCHER INSTRUCTION	ACCESS:         33  HIT:         21  MISS:         12  HIT %:    63.6364  MISS %:    36.3636  MPKI: 0.00024
PSCL4 LOAD TRANSLATION DATA	ACCESS:       1369  HIT:          0  MISS:       1369  HIT %:          0  MISS %:        100  MPKI: 0.02738
PSCL4 TRANSLATION FROM L1D PREFETCHER DATA	ACCESS:          9  HIT:          0  MISS:          9  HIT %:          0  MISS %:        100  MPKI: 0.00018


PSCL3 TOTAL     ACCESS:       4163  HIT:       2075  MISS:       2088  HIT %:    49.8439  MISS %:    50.1561   MPKI: 0.04176
PSCL3 LOAD TRANSLATION INSTRUCTION	ACCESS:       2723  HIT:       2054  MISS:        669  HIT %:    75.4315  MISS %:    24.5685  MPKI: 0.01338
PSCL3 TRANSLATION FROM L1D PREFETCHER INSTRUCTION	ACCESS:         33  HIT:         21  MISS:         12  HIT %:    63.6364  MISS %:    36.3636  MPKI: 0.00024
PSCL3 LOAD TRANSLATION DATA	ACCESS:       1398  HIT:          0  MISS:       1398  HIT %:          0  MISS %:        100  MPKI: 0.02796
PSCL3 TRANSLATION FROM L1D PREFETCHER DATA	ACCESS:          9  HIT:          0  MISS:          9  HIT %:          0  MISS %:        100  MPKI: 0.00018


PSCL2 TOTAL     ACCESS:       4176  HIT:       2031  MISS:       2145  HIT %:    48.6351  MISS %:    51.3649   MPKI: 0.0429
PSCL2 LOAD TRANSLATION INSTRUCTION	ACCESS:       2253  HIT:       2010  MISS:        243  HIT %:    89.2144  MISS %:    10.7856  MPKI: 0.00486
PSCL2 TRANSLATION FROM L1D PREFETCHER INSTRUCTION	ACCESS:         21  HIT:         21  MISS:          0  HIT %:        100  MISS %:          0  MPKI: 0
PSCL2 LOAD TRANSLATION DATA	ACCESS:       1881  HIT:          0  MISS:       1881  HIT %:          0  MISS %:        100  MPKI: 0.03762
PSCL2 TRANSLATION FROM L1D PREFETCHER DATA	ACCESS:         21  HIT:          0  MISS:         21  HIT %:          0  MISS %:        100  MPKI: 0.00042


LLC TOTAL     ACCESS:     533097  HIT:     502173  MISS:      30924  HIT %:    94.1992  MISS %:    5.80082   MPKI: 0.61848
LLC LOAD INSTRUCTION	ACCESS:     258763  HIT:     257713  MISS:       1050  HIT %:    99.5942  MISS %:   0.405777  MPKI: 0.021
LLC LOAD TRANSLATION INSTRUCTION	ACCESS:        214  HIT:        192  MISS:         22  HIT %:    89.7196  MISS %:    10.2804  MPKI: 0.00044
LLC LOAD DATA	ACCESS:      79263  HIT:      75729  MISS:       3534  HIT %:    95.5414  MISS %:    4.45857  MPKI: 0.07068
LLC RFO DATA	ACCESS:      48187  HIT:      32618  MISS:      15569  HIT %:    67.6905  MISS %:    32.3095  MPKI: 0.31138
LLC PREFETCH DATA	ACCESS:      75307  HIT:      65106  MISS:      10201  HIT %:    86.4541  MISS %:    13.5459  MPKI: 0.20402
LLC WRITEBACK DATA	ACCESS:      69984  HIT:      69516  MISS:        468  HIT %:    99.3313  MISS %:   0.668724  MPKI: 0.00936
LLC LOAD TRANSLATION DATA	ACCESS:       1371  HIT:       1291  MISS:         80  HIT %:    94.1648  MISS %:    5.83516  MPKI: 0.0016
LLC TRANSLATION FROM L1D PREFETCHER DATA	ACCESS:          8  HIT:          8  MISS:          0  HIT %:        100  MISS %:          0  MPKI: 0

LLC AVERAGE MISS LATENCY: 157.578 cycles
LLC RQ	ACCESS:     387810	FORWARD:          0	MERGED:          0	TO_CACHE:     387806
LLC WQ	ACCESS:      69984	FORWARD:          4	MERGED:          0	TO_CACHE:      69984
LLC PQ	ACCESS:      75307	FORWARD:          0	MERGED:          0	TO_CACHE:      75307

LLC Dense regions hint to LLC: 0

RAW hits: 1934561
Loads Generated: 12613786
Loads sent to L1D: 10679225
Stores Generated: 6908661
Stores sent to L1D: 6908677
Major fault: 0 Minor fault: 2570
Allocated PAGES: 2570

stream: 
stream:times selected: 1241236
stream:pref_filled: 125826
stream:pref_useful: 29187
stream:pref_late: 8731
stream:misses: 10576
stream:misses_by_poll: 0

CS: 
CS:times selected: 194822
CS:pref_filled: 71229
CS:pref_useful: 49999
CS:pref_late: 9251
CS:misses: 23668
CS:misses_by_poll: 26

CPLX: 
CPLX:times selected: 1045298
CPLX:pref_filled: 24584
CPLX:pref_useful: 7680
CPLX:pref_late: 3706
CPLX:misses: 126793
CPLX:misses_by_poll: 4

NL_L1: 
NL:times selected: 13259
NL:pref_filled: 1577
NL:pref_useful: 202
NL:pref_late: 568
NL:misses: 1594
NL:misses_by_poll: 0

total selections: 2494615
total_filled: 104709
total_useful: 48185
total_late: 24586
total_polluted: 30
total_misses_after_warmup: 795280
conflicts: 5491324

test: 118916

DRAM Statistics
 CHANNEL 0
 RQ ROW_BUFFER_HIT:      11420  ROW_BUFFER_MISS:      19028
 DBUS_CONGESTED:         16
 WQ ROW_BUFFER_HIT:       1405  ROW_BUFFER_MISS:      12731  FULL:          0

 AVG_CONGESTED_CYCLE: 5

CPU 0 Branch Prediction Accuracy: 99.8199% MPKI: 0.32972 Average ROB Occupancy at Mispredict: 193.144
Branch types
NOT_BRANCH: 40847037 81.6941%
BRANCH_DIRECT_JUMP: 545320 1.09064%
BRANCH_INDIRECT: 182082 0.364164%
BRANCH_CONDITIONAL: 6209184 12.4184%
BRANCH_DIRECT_CALL: 937654 1.87531%
BRANCH_INDIRECT_CALL: 170468 0.340936%
BRANCH_RETURN: 1108126 2.21625%
BRANCH_OTHER: 0 0%

DRAM PAGES: 1048576
Allocated PAGES: 2570
Average_ROB_Occupancy: 252.053
Average_Decode_Occupancy: 37.8706
Average_FTQ_Occupancy: 14.7946
Indirect max targets: 14 Average targets: 1.15203
Branch_type:  BRANCH_DIRECT_JUMP:  Count Percentage: 2.35949 7.00099 8.80877 3.52624 4.02205 11.2658 2.37757 60.6391 
Branch_type:  BRANCH_INDIRECT:  Count Percentage: 11.7715 11.0834 10.2161 13.4362 1.33781 8.023 16.4198 27.7123 
Branch_type:  BRANCH_CONDITIONAL:  Count Percentage: 26.4409 3.87117 2.70043 6.78868 2.01535 6.68464 3.21258 48.2863 
Branch_type:  BRANCH_DIRECT_CALL:  Count Percentage: 0.388978 1.96547 1.14688 2.45344 3.23198 5.35053 4.13668 81.326 
Branch_type:  BRANCH_INDIRECT_CALL:  Count Percentage: 9.52249 0 2.98541 10.6518 0 2.84391 2.84654 71.1498 
Branch_type:  BRANCH_RETURN:  Count Percentage: 7.99749 3.25614 2.74101 9.38808 3.08488 7.7116 3.9527 61.8681 
Branch_type:  BRANCH_DIRECT_JUMP:  Total Count: 25703 76265 95958 38413 43814 122723 25900 660570 
Branch_type:  BRANCH_INDIRECT:  Total Count: 42737 40239 37090 48781 4857 29128 59613 100611 
Branch_type:  BRANCH_CONDITIONAL:  Total Count: 3281680 480465 335160 842569 250133 829656 398725 5992991 
Branch_type:  BRANCH_DIRECT_CALL:  Total Count: 7313 36952 21562 46126 60763 100593 77772 1528976 
Branch_type:  BRANCH_INDIRECT_CALL:  Total Count: 32573 0 10212 36436 0 9728 9737 243378 
Branch_type:  BRANCH_RETURN:  Total Count: 177779 72382 60931 208691 68575 171424 87866 1375288 
Number of unique branch instructions: 10200
Upper 32 bits: 
aaaa
ffff
ffff0000
Unique upper 32 bits: 3
Unique upper 36 bits: 3
Unique upper 40 bits: 5
Unique upper 44 bits: 32
Unique upper 48 bits: 153
Variant_0 : 1381 0.337158
Variant_1 : 1306 0.318848
Variant_2 : 1363 0.332764
Variant_3 : 0 0
Offset_3 4226
Offset_4 259
Offset_5 466
Offset_6 521
Offset_7 604
Offset_8 541
Offset_9 477
Offset_10 399
Offset_11 335
Offset_12 281
Offset_13 211
Offset_14 227
Offset_15 193
Offset_16 223
Offset_17 159
Offset_18 130
Offset_19 240
Offset_20 139
Offset_21 235
Offset_22 402
Offset_23 247
Offset_24 337
Offset_25 88
Offset_47 84
Offset_64 5
decode_dispatch_called: 26273857 73.1845
Dispatch_width: 0 14097150 53.6547 39.2669
Dispatch_width: 1 1038164 3.95132 2.89175
Dispatch_width: 2 852813 3.24586 2.37547
Dispatch_width: 3 505951 1.92568 1.4093
Dispatch_width: 4 6415426 24.4175 17.8699
Dispatch_width: 5 109465 0.416631 0.304909
Dispatch_width: 6 3254888 12.3883 9.06633
Empty_decode_cycles: 9626977 26.8155
ROB_full_cycles: 10203663 28.4218
Starvation_cycles_per_kilo_instr: 224.423
Starvation_cycles_per_kilo_instr_3: 159.174
Starvation_cycles_per_kilo_instr_0: 135.205
Branch_type_1  (3,1)  (4,9)  (5,36)  (6,71)  (7,120)  (8,136)  (9,127)  (10,103)  (11,76)  (12,44)  (13,5)  (14,2)  (15,3)  (16,4)  (18,1)  (19,4)  (20,2)  (21,1)  (22,3)  (23,2)  (24,10)  (25,12) 
Branch_type_2  (3,1)  (5,1)  (8,3)  (9,3)  (12,1)  (13,1)  (14,1)  (16,3)  (17,2)  (20,2)  (21,2)  (23,5)  (24,1)  (47,39) 
Branch_type_3  (3,4224)  (4,250)  (5,425)  (6,433)  (7,451)  (8,337)  (9,259)  (10,163)  (11,140)  (12,53)  (13,4)  (64,2) 
Branch_type_4  (6,4)  (7,8)  (8,31)  (9,51)  (10,64)  (11,60)  (12,102)  (13,92)  (14,99)  (15,92)  (16,100)  (17,74)  (18,60)  (19,117)  (20,71)  (21,124)  (22,214)  (23,139)  (24,198)  (25,72)  (64,2) 
Branch_type_5  (8,2)  (9,1)  (10,3)  (11,5)  (12,3)  (13,14)  (14,16)  (15,11)  (16,20)  (17,11)  (18,16)  (19,12)  (20,11)  (21,13)  (22,42)  (23,26)  (24,36) 
Branch_type_6  (5,4)  (6,13)  (7,25)  (8,32)  (9,36)  (10,66)  (11,54)  (12,78)  (13,95)  (14,109)  (15,87)  (16,96)  (17,72)  (18,53)  (19,107)  (20,53)  (21,95)  (22,143)  (23,75)  (24,92)  (25,4)  (47,45)  (64,1) 
Unique trigger count: 
Variant_0_evicts_0 : 0
Variant_0_evicts_1 : 0
Variant_0_evicts_2 : 0
Variant_0_evicts_3 : 0
Variant_1_evicts_0 : 0
Variant_1_evicts_1 : 0
Variant_1_evicts_2 : 0
Variant_1_evicts_3 : 0
Variant_2_evicts_0 : 0
Variant_2_evicts_1 : 0
Variant_2_evicts_2 : 0
Variant_2_evicts_3 : 0
Variant_3_evicts_0 : 0
Variant_3_evicts_1 : 0
Variant_3_evicts_2 : 0
Variant_3_evicts_3 : 0
BTB PER SET UNIQUE ADDR: 10 10 14 15 9 13 8 12 9 11 8 15 14 10 12 10 10 9 12 14 9 13 13 16 9 12 13 14 11 8 11 13 19 8 9 11 10 10 10 12 11 10 11 17 9 13 9 9 13 12 13 11 8 9 10 7 11 11 8 10 8 17 12 13 15 7 8 10 18 10 11 12 13 11 9 7 9 13 11 11 15 6 16 11 11 11 14 6 10 19 7 6 16 11 7 16 10 10 11 14 20 11 15 13 8 10 11 11 10 7 13 17 14 8 11 10 12 14 12 13 13 10 10 13 11 14 8 12 19 9 12 11 9 16 11 17 9 9 10 14 8 14 12 11 11 15 13 11 8 12 14 15 10 11 7 14 11 12 15 12 8 7 14 11 14 12 12 13 14 9 11 13 11 9 9 12 11 11 9 17 7 9 12 12 15 14 9 10 11 13 8 10 11 10 11 12 7 17 9 16 10 12 10 10 11 8 8 9 9 10 10 13 15 11 11 11 13 14 13 15 11 13 12 11 9 7 15 13 7 17 10 7 8 18 13 13 11 11 13 9 9 13 12 14 7 10 9 8 11 10 14 13 14 9 14 14 10 9 13 10 17 10 4 10 12 6 12 9 10 13 7 10 12 6 10 11 13 14 11 11 10 13 11 10 12 6 10 15 16 14 7 7 12 10 5 16 13 14 12 16 10 12 12 14 12 14 9 9 19 11 9 19 9 14 19 8 16 11 11 19 9 13 9 10 15 13 13 12 9 7 9 13 8 8 11 15 10 13 7 15 11 8 7 12 10 10 13 14 12 7 11 14 15 11 11 13 11 15 9 12 10 12 9 11 11 9 8 13 15 13 8 8 14 7 6 11 10 14 11 15 13 10 9 9 10 9 11 12 16 11 18 7 11 18 11 11 10 5 12 10 8 10 12 15 13 15 9 13 12 13 11 9 7 15 10 8 12 16 24 16 12 16 15 10 15 12 12 9 11 10 15 13 13 11 12 14 15 10 8 18 12 13 12 14 20 7 11 13 12 16 19 15 13 10 10 16 14 12 5 14 10 10 12 16 14 9 10 10 12 10 14 11 13 12 10 16 8 13 4 14 19 10 11 13 12 10 18 15 16 11 13 8 10 9 13 10 13 13 11 9 13 13 10 18 8 7 8 13 16 13 15 12 14 13 10 12 8 14 8 12 9 9 9 8 10 12 12 10 7 15 14 15 11 10 10 11 7 15 14 14 13 10 16 13 10 16 9 8 10 13 12 16 10 16 8 13 12 11 14 11 14 18 11 13 13 11 9 14 10 16 10 14 16 13 14 14 18 15 9 14 10 11 6 12 11 11 13 15 14 6 10 17 10 13 18 9 8 11 16 10 11 9 9 7 8 14 14 11 15 10 12 14 8 10 6 13 8 10 11 11 18 10 8 9 11 13 11 19 10 16 11 17 14 9 8 10 9 10 11 15 12 13 12 18 10 10 13 16 17 15 8 13 10 13 14 10 11 8 12 15 7 7 14 19 10 12 10 13 14 9 16 8 11 12 16 6 13 15 9 11 8 15 11 14 15 10 11 14 16 15 11 14 9 6 8 10 6 12 9 18 8 14 14 11 7 12 14 11 10 8 14 14 6 11 10 8 15 15 6 8 13 9 14 10 15 9 10 12 9 12 13 9 11 10 10 14 13 11 16 12 7 12 8 11 10 16 11 12 8 8 9 7 10 9 9 11 13 12 11 6 9 11 8 9 8 14 13 10 8 14 12 13 11 6 12 10 8 10 14 15 6 12 14 10 12 11 10 10 11 6 9 7 13 12 16 11 11 10 14 7 18 13 18 10 16 14 14 11 11 11 13 18 7 14 12 17 22 17 7 13 14 17 10 12 14 9 8 12 13 14 10 15 12 8 11 9 9 11 14 12 12 14 13 5 9 19 12 20 10 7 12 11 13 11 11 16 14 11 12 14 13 11 12 9 17 6 9 10 19 9 10 16 17 15 14 5 12 16 15 13 12 8 14 16 7 13 13 11 12 14 14 13 11 8 11 14 13 12 11 7 15 12 14 11 8 10 12 17 13 14 9 11 11 12 13 10 16 9 13 9 14 15 9 10 9 10 8 15 15 7 10 20 18 10 15 14 8 12 13 16 8 10 12 12 16 10 10 12 7 12 14 14 14 12 8 12 9 13 12 16 8 10 12 14 14 10 17 9 6 13 12 13 7 13 12 11 15 21 16 18 9 11 12 12 10 15 14 12 15 15 12 11 10 14 8 11 6 11 16 17 17 14 9 10 12 15 8 11 6 12 14 15 13 9 10 15 4 10 5 11 12 19 13 10 
BTB PER SET COUNT: 983 15 1502 24 11 18 10 13 1475 13 11 16 104 1496 13 11 1443 9 126 26 11 565 787 25 18 17 19 355 17 8 13 365 25 8 16 12 12 13 13 25 13 12 12 540 15 15 10 12 661 335 21 439 9 11 12 9 17 14 9 18 9 34 17 16 17 8 10 15 23 13 16 745 19 18 10 8 10 20 13 15 785 6 439 22 16 13 18 9 14 35 10 881 509 481 7 22 15 986 13 23 29 947 19 253 3000 13 16 14 954 9 16 42 54 8 17 1094 17 22 1463 23 17 48 15 24 17 25 11 1952 31 981 15 16 15 21 25 31 945 10 10 18 9 782 18 18 34 18 15 15 10 244 21 36 1379 17 8 20 532 16 27 577 9 200 19 12 1183 17 15 17 17 1713 16 15 12 13 9 13 15 17 987 940 983 133 17 14 389 23 10 17 14 978 8 10 13 17 20 54 9 250 9 441 17 16 980 11 11 11 13 10 10 961 19 14 21 24 16 12 14 20 20 18 12 17 382 12 11 12 15 18 7 22 11 8 11 26 21 9780 17 125 25 12 10 21 14 26 7 15 11 8 12 18 18 19 26 14 16 241 12 21 15 11 249 12 8 16 16 7 14 12 1410 13 11 12 497 7 861 15 19 19 11 15 15 22 990 11 14 6 11 51 16 23 7 9 14 14 5 24 17 19 16 22 12 19 49 16 16 20 212 173 29 17 23 25 11 17 1820 129 23 17 15 42 17 4860 10 10 102 246 17 18 12 10 10 13 11 9 13 21 15 481 8 217 17 1540 8 15 13 15 14 23 17 7 17 24 24 15 16 19 11 34 353 15 16 13 11 12 12 11 10 20 20 16 8 363 22 9 701 159 10 16 13 1487 434 14 700 10 15 10 4255 16 19 367 523 7 15 30 12 18 15 5 19 12 11 16 13 21 23 27 13 13 13 17 13 10 7 19 10 8 16 5514 36 20 15 20 25 13 18 19 17 19 35 12 68 14 20 14 17 18 21 14 8 23 14 16 51 18 40 10 168 16 19 29 880 37 15 11 163 947 14 14 5 17 10 11 14 30 24 9 6367 11 18 12 26 13 16 21 13 48 9 15 7 14 41 683 11 17 17 13 413 20 25 55 157 9 7877 13 19 10 13 22 15 9 15 26 10 225 14 7 18 19 22 14 65 3906 1480 225 10 17 8 17 16 17 10 10 9 8 12 18 13 14 10 104 25 24 16 14 16 24 8 991 14 21 18 14 23 15 12 288 9 9 15 539 15 22 981 25 10 18 26 13 24 14 16 33 13 25 83 13 142 18 11 80 1470 17 24 14 2469 17 22 630 12 21 12 13 11 386 18 17 403 22 15 8 148 35 15 16 25 12 1877 812 265 11 13 9 116 8 8 24 21 2441 18 14 14 1332 9 13 7 18 8 21 17 719 21 13 13 514 14 22 11 24 1407 25 13 29 126 10 13 10 13 877 16 625 18 23 13 23 10 18 642 18 42 22 8 19 12 21 34 12 15 24 19 17 10 7 24 29 5096 18 11 987 27 10 27 12 16 20 76 6 15 21 10 11 9 29 17 21 548 15 16 17 51 25 17 16 16 6 1927 13 6 143 10 27 975 27 20 12 8 14 18 17 14 11 28 18 19 12 11 62 19 20 9 8 16 11 21 1775 309 11 11 13 254 12 133 9218 11 11 20 28 786 12 22 12 23 19 10 17 15 22 106 13 9 10 1483 9 1470 1952 1165 16 14 20 15 8 14 13 8 11 34 24 14 15 10 18 15 21 17 7 21 12 13 12 27 24 349 14 471 10 27 12 11 15 15 6 10 759 18 18 1351 225 13 11 20 980 27 15 36 40 16 15 21 12 16 66 17 18 11 15 452 667 48 339 10 3193 25 20 12 22 16 28 9 14 20 19 13 25 16 11 18 1847 9 21 621 15 15 15 13 5 9 31 19 26 11 9 24 177 26 14 1459 28 258 13 16 17 860 14 16 12 771 6 13 13 37 9 20 30 28 19 18 7 12 25 2887 18 16 9 111 23 8 518 15 11 12 17 16 14 13 65 15 15 21 18 32 9 22 22 21 178 8 17 13 23 29 124 18 440 18 16 18 22 33 10 14 9 19 239 1006 1298 9 132 8 19 16 26 12 29 44 11 20 21 17 18 963 22 11 15 18 14 21 13 12 19 7 16 817 989 794 71 9 17 11 18 16 33 9 14 359 15 17 10 24 15 8 110 14 20 7 22 16 17 18 25 43 40 11 14 14 945 16 19 20 495 20 60 17 21 12 20 10 13 7 1472 27 27 24 42 16 14 12 18 12 15 7 19 18 19 14 15 14 20 4 69 6 14 16 72 14 12 
To predecode: 0
Predecoding something: 0
Predecode request dropped: 0
sizeofblock_0 0
sizeofblock_1 42246
sizeofblock_2 29262
sizeofblock_3 42219
sizeofblock_4 22514
sizeofblock_5 0
sizeofblock_6 0
sizeofblock_7 0
sizeofblock_8 0
Variant_0 Correct: 1603841 Incorrect: 0 Accuracy: 1
Variant_1 Correct: 2078242 Incorrect: 0 Accuracy: 1
Variant_2 Correct: 3627918 Incorrect: 0 Accuracy: 1
Variant_3 Correct: 0 Incorrect: 0 Accuracy: -nan
