
*** ChampSim Multicore Out-of-Order Simulator ***

Warmup Instructions: 50000000
Simulation Instructions: 50000000
Number of CPUs: 1
LLC sets: 2048
LLC ways: 16
Off-chip DRAM Size: 4096 MB Channels: 1 Width: 64-bit Data Rate: 6400 MT/s
CPU 0 runs ./micro_traces/srv785.trace.gz
.gz
ITLB has LRU replacement policy
DTLB has LRU replacement policy
STLB has LRU replacement policy
FDIP Prefetcher at L1I
L1I has LRU replacement policy
L1D has LRU replacement policy
Initialize SRRIP state for L2C
Initialize DRRIP state for LLC
Heartbeat_Variant_0 : 1142 0.278809 per_variant_size: 0 1142 0 0 0 0 0 0 0 
Heartbeat_Variant_1 : 2610 0.637207 per_variant_size: 0 1048 1562 0 0 0 0 0 0 
Heartbeat_Variant_2 : 0 0 per_variant_size: 0 0 0 0 0 0 0 0 0 
Heartbeat_Variant_3 : 0 0 per_variant_size: 0 0 0 0 0 0 0 0 0 
Heartbeat_Variant_0_evicts 0 : 12488 1 : 15787 2 : 0 3 : 0 
Heartbeat_Variant_1_evicts 0 : 15695 1 : 0 2 : 0 3 : 0 
Heartbeat_Variant_2_evicts 0 : 0 1 : 0 2 : 0 3 : 0 
Heartbeat_Variant_3_evicts 0 : 0 1 : 0 2 : 0 3 : 0 
Heartbeat CPU 0 instructions: 10000000 cycles: 2795767 heartbeat IPC: 3.57684 cumulative IPC: 3.57684 (Simulation time: 0 hr 1 min 45 sec) 
Heartbeat_Variant_0 : 1128 0.275391 per_variant_size: 0 1128 0 0 0 0 0 0 0 
Heartbeat_Variant_1 : 2652 0.647461 per_variant_size: 0 1027 1625 0 0 0 0 0 0 
Heartbeat_Variant_2 : 0 0 per_variant_size: 0 0 0 0 0 0 0 0 0 
Heartbeat_Variant_3 : 0 0 per_variant_size: 0 0 0 0 0 0 0 0 0 
Heartbeat_Variant_0_evicts 0 : 12064 1 : 15358 2 : 0 3 : 0 
Heartbeat_Variant_1_evicts 0 : 15377 1 : 0 2 : 0 3 : 0 
Heartbeat_Variant_2_evicts 0 : 0 1 : 0 2 : 0 3 : 0 
Heartbeat_Variant_3_evicts 0 : 0 1 : 0 2 : 0 3 : 0 
Heartbeat CPU 0 instructions: 20000001 cycles: 5592934 heartbeat IPC: 3.57505 cumulative IPC: 3.57594 (Simulation time: 0 hr 3 min 26 sec) 
Heartbeat_Variant_0 : 1136 0.277344 per_variant_size: 0 1136 0 0 0 0 0 0 0 
Heartbeat_Variant_1 : 2657 0.648682 per_variant_size: 0 1017 1640 0 0 0 0 0 0 
Heartbeat_Variant_2 : 0 0 per_variant_size: 0 0 0 0 0 0 0 0 0 
Heartbeat_Variant_3 : 0 0 per_variant_size: 0 0 0 0 0 0 0 0 0 
Heartbeat_Variant_0_evicts 0 : 12666 1 : 15525 2 : 0 3 : 0 
Heartbeat_Variant_1_evicts 0 : 15519 1 : 0 2 : 0 3 : 0 
Heartbeat_Variant_2_evicts 0 : 0 1 : 0 2 : 0 3 : 0 
Heartbeat_Variant_3_evicts 0 : 0 1 : 0 2 : 0 3 : 0 
Heartbeat CPU 0 instructions: 30000000 cycles: 8388842 heartbeat IPC: 3.57666 cumulative IPC: 3.57618 (Simulation time: 0 hr 5 min 9 sec) 
Heartbeat_Variant_0 : 1121 0.273682 per_variant_size: 0 1121 0 0 0 0 0 0 0 
Heartbeat_Variant_1 : 2679 0.654053 per_variant_size: 0 1022 1657 0 0 0 0 0 0 
Heartbeat_Variant_2 : 0 0 per_variant_size: 0 0 0 0 0 0 0 0 0 
Heartbeat_Variant_3 : 0 0 per_variant_size: 0 0 0 0 0 0 0 0 0 
Heartbeat_Variant_0_evicts 0 : 12304 1 : 15414 2 : 0 3 : 0 
Heartbeat_Variant_1_evicts 0 : 15429 1 : 0 2 : 0 3 : 0 
Heartbeat_Variant_2_evicts 0 : 0 1 : 0 2 : 0 3 : 0 
Heartbeat_Variant_3_evicts 0 : 0 1 : 0 2 : 0 3 : 0 
Heartbeat CPU 0 instructions: 40000003 cycles: 11185729 heartbeat IPC: 3.5754 cumulative IPC: 3.57599 (Simulation time: 0 hr 6 min 49 sec) 
Heartbeat_Variant_0 : 1132 0.276367 per_variant_size: 0 1132 0 0 0 0 0 0 0 
Heartbeat_Variant_1 : 2671 0.6521 per_variant_size: 0 1015 1656 0 0 0 0 0 0 
Heartbeat_Variant_2 : 0 0 per_variant_size: 0 0 0 0 0 0 0 0 0 
Heartbeat_Variant_3 : 0 0 per_variant_size: 0 0 0 0 0 0 0 0 0 
Heartbeat_Variant_0_evicts 0 : 12330 1 : 15719 2 : 0 3 : 0 
Heartbeat_Variant_1_evicts 0 : 15708 1 : 0 2 : 0 3 : 0 
Heartbeat_Variant_2_evicts 0 : 0 1 : 0 2 : 0 3 : 0 
Heartbeat_Variant_3_evicts 0 : 0 1 : 0 2 : 0 3 : 0 
Heartbeat CPU 0 instructions: 50000002 cycles: 13981735 heartbeat IPC: 3.57653 cumulative IPC: 3.57609 (Simulation time: 0 hr 8 min 33 sec) 

Warmup complete CPU 0 instructions: 50000002 cycles: 13981735 (Simulation time: 0 hr 8 min 33 sec) 

Cycle: 20000000 FTQ IN: 57538587 FTQ occupancy: 18.606 DECODE IN: 57538488 DECODE occupancy: 47.8661 ROB IN: 57538428 ROB occupancy: 292.043 ROB OUT: 57538147
Heartbeat_Variant_0 : 1142 0.278809 per_variant_size: 0 1142 0 0 0 0 0 0 0 
Heartbeat_Variant_1 : 2662 0.649902 per_variant_size: 0 1009 1653 0 0 0 0 0 0 
Heartbeat_Variant_2 : 0 0 per_variant_size: 0 0 0 0 0 0 0 0 0 
Heartbeat_Variant_3 : 0 0 per_variant_size: 0 0 0 0 0 0 0 0 0 
Heartbeat_Variant_0_evicts 0 : 12291 1 : 15098 2 : 0 3 : 0 
Heartbeat_Variant_1_evicts 0 : 15088 1 : 0 2 : 0 3 : 0 
Heartbeat_Variant_2_evicts 0 : 0 1 : 0 2 : 0 3 : 0 
Heartbeat_Variant_3_evicts 0 : 0 1 : 0 2 : 0 3 : 0 
Heartbeat CPU 0 instructions: 60000003 cycles: 21981208 heartbeat IPC: 1.25008 cumulative IPC: 1.25008 (Simulation time: 0 hr 10 min 10 sec) 
Cycle: 30000000 FTQ IN: 12270537 FTQ occupancy: 8.55414 DECODE IN: 12270559 DECODE occupancy: 19.6018 ROB IN: 12270619 ROB occupancy: 157.872 ROB OUT: 12270898
Heartbeat_Variant_0 : 1137 0.277588 per_variant_size: 0 1137 0 0 0 0 0 0 0 
Heartbeat_Variant_1 : 2668 0.651367 per_variant_size: 0 1013 1655 0 0 0 0 0 0 
Heartbeat_Variant_2 : 0 0 per_variant_size: 0 0 0 0 0 0 0 0 0 
Heartbeat_Variant_3 : 0 0 per_variant_size: 0 0 0 0 0 0 0 0 0 
Heartbeat_Variant_0_evicts 0 : 12293 1 : 15366 2 : 0 3 : 0 
Heartbeat_Variant_1_evicts 0 : 15371 1 : 0 2 : 0 3 : 0 
Heartbeat_Variant_2_evicts 0 : 0 1 : 0 2 : 0 3 : 0 
Heartbeat_Variant_3_evicts 0 : 0 1 : 0 2 : 0 3 : 0 
Heartbeat CPU 0 instructions: 70000002 cycles: 30153472 heartbeat IPC: 1.22365 cumulative IPC: 1.23673 (Simulation time: 0 hr 11 min 43 sec) 
Heartbeat_Variant_0 : 1132 0.276367 per_variant_size: 0 1132 0 0 0 0 0 0 0 
Heartbeat_Variant_1 : 2687 0.656006 per_variant_size: 0 998 1689 0 0 0 0 0 0 
Heartbeat_Variant_2 : 0 0 per_variant_size: 0 0 0 0 0 0 0 0 0 
Heartbeat_Variant_3 : 0 0 per_variant_size: 0 0 0 0 0 0 0 0 0 
Heartbeat_Variant_0_evicts 0 : 12789 1 : 15593 2 : 0 3 : 0 
Heartbeat_Variant_1_evicts 0 : 15601 1 : 0 2 : 0 3 : 0 
Heartbeat_Variant_2_evicts 0 : 0 1 : 0 2 : 0 3 : 0 
Heartbeat_Variant_3_evicts 0 : 0 1 : 0 2 : 0 3 : 0 
Heartbeat CPU 0 instructions: 80000000 cycles: 38238643 heartbeat IPC: 1.23683 cumulative IPC: 1.23676 (Simulation time: 0 hr 13 min 15 sec) 
Cycle: 40000000 FTQ IN: 12231044 FTQ occupancy: 8.39343 DECODE IN: 12230984 DECODE occupancy: 19.1737 ROB IN: 12230924 ROB occupancy: 155.83 ROB OUT: 12230578
Heartbeat_Variant_0 : 1144 0.279297 per_variant_size: 0 1144 0 0 0 0 0 0 0 
Heartbeat_Variant_1 : 2679 0.654053 per_variant_size: 0 979 1700 0 0 0 0 0 0 
Heartbeat_Variant_2 : 0 0 per_variant_size: 0 0 0 0 0 0 0 0 0 
Heartbeat_Variant_3 : 0 0 per_variant_size: 0 0 0 0 0 0 0 0 0 
Heartbeat_Variant_0_evicts 0 : 12345 1 : 15321 2 : 0 3 : 0 
Heartbeat_Variant_1_evicts 0 : 15309 1 : 0 2 : 0 3 : 0 
Heartbeat_Variant_2_evicts 0 : 0 1 : 0 2 : 0 3 : 0 
Heartbeat_Variant_3_evicts 0 : 0 1 : 0 2 : 0 3 : 0 
Heartbeat CPU 0 instructions: 90000000 cycles: 46406539 heartbeat IPC: 1.22431 cumulative IPC: 1.23362 (Simulation time: 0 hr 14 min 48 sec) 
Cycle: 50000000 FTQ IN: 12425632 FTQ occupancy: 8.39686 DECODE IN: 12425769 DECODE occupancy: 19.4179 ROB IN: 12425829 ROB occupancy: 158.932 ROB OUT: 12426101
Heartbeat_Variant_0 : 1150 0.280762 per_variant_size: 0 1150 0 0 0 0 0 0 0 
Heartbeat_Variant_1 : 2677 0.653564 per_variant_size: 0 970 1707 0 0 0 0 0 0 
Heartbeat_Variant_2 : 0 0 per_variant_size: 0 0 0 0 0 0 0 0 0 
Heartbeat_Variant_3 : 0 0 per_variant_size: 0 0 0 0 0 0 0 0 0 
Heartbeat_Variant_0_evicts 0 : 12218 1 : 15469 2 : 0 3 : 0 
Heartbeat_Variant_1_evicts 0 : 15463 1 : 0 2 : 0 3 : 0 
Heartbeat_Variant_2_evicts 0 : 0 1 : 0 2 : 0 3 : 0 
Heartbeat_Variant_3_evicts 0 : 0 1 : 0 2 : 0 3 : 0 
Heartbeat CPU 0 instructions: 100000001 cycles: 54447001 heartbeat IPC: 1.24371 cumulative IPC: 1.23563 (Simulation time: 0 hr 16 min 17 sec) 
Finished CPU 0 instructions: 50000003 cycles: 40465288 cumulative IPC: 1.23563 (Simulation time: 0 hr 16 min 17 sec) 

ChampSim completed all CPUs

Region of Interest Statistics

CPU 0 cumulative IPC: 1.23563 instructions: 50000003 cycles: 40465288
 Fetch stage stalled: 65.7585  Sim cycles: 40465288 fetch stall cycle: 26609374
 Empty decode stage: 52.9693  Sim cycles: 40465288 fetch stall cycle: 21434178
ITLB TOTAL     ACCESS:    5644971  HIT:    5152705  MISS:     492266  HIT %:    91.2796  MISS %:    8.72043   MPKI: 9.84532
ITLB LOAD TRANSLATION INSTRUCTION	ACCESS:    5527927  HIT:    5035661  MISS:     492266  HIT %:    91.0949  MISS %:    8.90507  MPKI: 9.84532
ITLB TRANSLATION FROM L1D PREFETCHER INSTRUCTION	ACCESS:     117044  HIT:     117044  MISS:          0  HIT %:        100  MISS %:          0  MPKI: 0

ITLB AVERAGE MISS LATENCY: 9.04072 cycles
ITLB RQ	ACCESS:    7571304	FORWARD:          0	MERGED:    1430278	TO_CACHE:    6141026

DTLB TOTAL     ACCESS:    9150624  HIT:    8681837  MISS:     468787  HIT %:     94.877  MISS %:    5.12301   MPKI: 9.37574
DTLB LOAD TRANSLATION DATA	ACCESS:    9150624  HIT:    8681837  MISS:     468787  HIT %:     94.877  MISS %:    5.12301  MPKI: 9.37574

DTLB AVERAGE MISS LATENCY: 9.32556 cycles
DTLB RQ	ACCESS:   13474966	FORWARD:          0	MERGED:    4288974	TO_CACHE:    9185992

STLB TOTAL     ACCESS:    1212926  HIT:    1210932  MISS:       1994  HIT %:    99.8356  MISS %:   0.164396   MPKI: 0.03988
STLB LOAD TRANSLATION INSTRUCTION	ACCESS:     492266  HIT:     492032  MISS:        234  HIT %:    99.9525  MISS %:  0.0475353  MPKI: 0.00468
STLB LOAD TRANSLATION DATA	ACCESS:     468633  HIT:     466885  MISS:       1748  HIT %:     99.627  MISS %:      0.373  MPKI: 0.03496
STLB TRANSLATION FROM L1D PREFETCHER DATA	ACCESS:     252027  HIT:     252015  MISS:         12  HIT %:    99.9952  MISS %: 0.00476139  MPKI: 0.00024

STLB AVERAGE MISS LATENCY: 73.4895 cycles
STLB RQ	ACCESS:    1341746	FORWARD:          0	MERGED:     128793	TO_CACHE:    1212953

STLB Hit, L1D data hit: 0
STLB Hit, L2C data hit: 0
STLB Hit, LLC data hit: 0
STLB Hit, LLC data miss: 0
STLB STLB hints to L2: 0
L1D TOTAL     ACCESS:   13244498  HIT:   12117489  MISS:    1127009  HIT %:    91.4907  MISS %:    8.50926   MPKI: 22.5402
L1D LOAD DATA	ACCESS:    6696174  HIT:    5953298  MISS:     742876  HIT %:     88.906  MISS %:     11.094  MPKI: 14.8575
L1D RFO DATA	ACCESS:    6215244  HIT:    5929977  MISS:     285267  HIT %:    95.4102  MISS %:     4.5898  MPKI: 5.70534
L1D PREFETCH DATA	ACCESS:     333080  HIT:     234214  MISS:      98866  HIT %:    70.3176  MISS %:    29.6824  MPKI: 1.97732

L1D PREFETCH  REQUESTED:     761686  ISSUED:     761686  USEFUL:      37794  USELESS:      70119
L1D USEFUL LOAD PREFETCHES:      37794 PREFETCH ISSUED TO LOWER LEVEL:     107933  ACCURACY: 35.0162
 TIMELY PREFETCHES:      37794 LATE PREFETCHES: 9018 DROPPED PREFETCHES: 3
L1D AVERAGE MISS LATENCY: 272235 cycles
L1D RQ	ACCESS:   10796209	FORWARD:          0	MERGED:    3901890	TO_CACHE:    6728264
L1D WQ	ACCESS:    6928344	FORWARD:     166355	MERGED:     181642	TO_CACHE:    6746702
L1D PQ	ACCESS:     380993	FORWARD:          0	MERGED:          0	TO_CACHE:     380693

L1D UNIQUE REGIONS ACCESSED: 0
L1D REGIONS CONFLICTS: 0
L1D Cross Page Prefetch Requests: 6543
L1D Same Page Prefetch Requests: 775251
L1D ROI Sum of L1D PQ occupancy: 4827788
L1D PREFETCHES PUSHED FROM L2C: 0
L1I TOTAL     ACCESS:    6970321  HIT:    4216527  MISS:    2753794  HIT %:    60.4926  MISS %:    39.5074   MPKI: 55.0759
L1I LOAD INSTRUCTION	ACCESS:    6428262  HIT:    3674468  MISS:    2753794  HIT %:    57.1611  MISS %:    42.8389  MPKI: 55.0759
L1I PREFETCH INSTRUCTION	ACCESS:     542059  HIT:     542059  MISS:          0  HIT %:        100  MISS %:          0  MPKI: 0

L1I PREFETCH  REQUESTED:    1254792  ISSUED:    1254792  USEFUL:          0  USELESS:          0
L1I USEFUL LOAD PREFETCHES:          0 PREFETCH ISSUED TO LOWER LEVEL:          0  ACCURACY: -nan
 TIMELY PREFETCHES:          0 LATE PREFETCHES: 0 DROPPED PREFETCHES: 0
L1I AVERAGE MISS LATENCY: 17.2003 cycles
L1I RQ	ACCESS:    9465972	FORWARD:          0	MERGED:    2795377	TO_CACHE:    6670595
L1I PQ	ACCESS:    1254792	FORWARD:          0	MERGED:     354083	TO_CACHE:     900709

L1BTB TOTAL     ACCESS:    5675560  HIT:    2059722  MISS:    3615838  HIT %:    36.2911  MISS %:    63.7089   MPKI: 72.3168
L1BTB BRANCH_DIRECT_JUMP	ACCESS:     547638 HIT:     145009 MISS:     402629 AVERAGE STALL: 40.5224 AVERAGE FETCH STALL: 19.3241 AVERAGE FETCH QUEUE STALL: 10.9431 AVERAGE DECODE STALL: 9.43764 AVERAGE EXECUTE STALL: 5.83776e+14
L1BTB BRANCH_INDIRECT	ACCESS:     182862 HIT:      66140 MISS:     116722 AVERAGE STALL: 93.2358 AVERAGE FETCH STALL: 12.9829 AVERAGE FETCH QUEUE STALL: 9.10151 AVERAGE DECODE STALL: 8.32306 AVERAGE EXECUTE STALL: 61.8836
L1BTB BRANCH_CONDITIONAL	ACCESS:    2723645 HIT:    1434723 MISS:    1288922 AVERAGE STALL: 41.0683 AVERAGE FETCH STALL: 22.1816 AVERAGE FETCH QUEUE STALL: 9.68199 AVERAGE DECODE STALL: 8.46006 AVERAGE EXECUTE STALL: 2.29126e+14
L1BTB BRANCH_DIRECT_CALL	ACCESS:     939990 HIT:     104559 MISS:     835431 AVERAGE STALL: 42.9593 AVERAGE FETCH STALL: 22.3315 AVERAGE FETCH QUEUE STALL: 10.6842 AVERAGE DECODE STALL: 9.18386 AVERAGE EXECUTE STALL: 1.7065e+14
L1BTB BRANCH_INDIRECT_CALL	ACCESS:     170732 HIT:      20771 MISS:     149961 AVERAGE STALL: 125.558 AVERAGE FETCH STALL: 16.908 AVERAGE FETCH QUEUE STALL: 8.66684 AVERAGE DECODE STALL: 7.91479 AVERAGE EXECUTE STALL: 91.5475
L1BTB BRANCH_RETURN	ACCESS:    1110693 HIT:     288520 MISS:     822173 AVERAGE STALL: 40.902 AVERAGE FETCH STALL: 18.2484 AVERAGE FETCH QUEUE STALL: 6.72838 AVERAGE DECODE STALL: 6.85411 AVERAGE EXECUTE STALL: 2.45143e+14
L1BTB BRANCH_OTHER ACCESS:          0 HIT:          0 MISS:          0 AVERAGE STALL: -nan AVERAGE FETCH STALL: -nan AVERAGE FETCH QUEUE STALL: -nan AVERAGE DECODE STALL: -nan AVERAGE EXECUTE STALL: -nan
L1BTB TOTAL ROB OCCUPANCY AT BTB MISS: 11.86

L2BTB TOTAL     ACCESS:    3590440  HIT:    3267919  MISS:     322521  HIT %:    91.0172  MISS %:    8.98277   MPKI: 6.45042
L2BTB BRANCH_DIRECT_JUMP	ACCESS:     398441 HIT:     371014 MISS:      27427 AVERAGE STALL: 40.5224 AVERAGE FETCH STALL: 19.3241 AVERAGE FETCH QUEUE STALL: 10.9431 AVERAGE DECODE STALL: 9.43764 AVERAGE EXECUTE STALL: 5.83776e+14
L2BTB BRANCH_INDIRECT	ACCESS:     106469 HIT:     100111 MISS:       6358 AVERAGE STALL: 93.2358 AVERAGE FETCH STALL: 12.9829 AVERAGE FETCH QUEUE STALL: 9.10151 AVERAGE DECODE STALL: 8.32306 AVERAGE EXECUTE STALL: 61.8836
L2BTB BRANCH_CONDITIONAL	ACCESS:    1288922 HIT:    1207984 MISS:      80938 AVERAGE STALL: 41.0683 AVERAGE FETCH STALL: 22.1816 AVERAGE FETCH QUEUE STALL: 9.68199 AVERAGE DECODE STALL: 8.46006 AVERAGE EXECUTE STALL: 2.29126e+14
L2BTB BRANCH_DIRECT_CALL	ACCESS:     835431 HIT:     727293 MISS:     108138 AVERAGE STALL: 42.9593 AVERAGE FETCH STALL: 22.3315 AVERAGE FETCH QUEUE STALL: 10.6842 AVERAGE DECODE STALL: 9.18386 AVERAGE EXECUTE STALL: 1.7065e+14
L2BTB BRANCH_INDIRECT_CALL	ACCESS:     140404 HIT:     114621 MISS:      25783 AVERAGE STALL: 125.558 AVERAGE FETCH STALL: 16.908 AVERAGE FETCH QUEUE STALL: 8.66684 AVERAGE DECODE STALL: 7.91479 AVERAGE EXECUTE STALL: 91.5475
L2BTB BRANCH_RETURN	ACCESS:     820773 HIT:     746896 MISS:      73877 AVERAGE STALL: 40.902 AVERAGE FETCH STALL: 18.2484 AVERAGE FETCH QUEUE STALL: 6.72838 AVERAGE DECODE STALL: 6.85411 AVERAGE EXECUTE STALL: 2.45143e+14
L2BTB BRANCH_OTHER ACCESS:          0 HIT:          0 MISS:          0 AVERAGE STALL: -nan AVERAGE FETCH STALL: -nan AVERAGE FETCH QUEUE STALL: -nan AVERAGE DECODE STALL: -nan AVERAGE EXECUTE STALL: -nan
L2BTB TOTAL ROB OCCUPANCY AT BTB MISS: 132.964

L2C TOTAL     ACCESS:    4483565  HIT:    4030399  MISS:     453166  HIT %:    89.8927  MISS %:    10.1073   MPKI: 9.06332
L2C LOAD INSTRUCTION	ACCESS:    2753794  HIT:    2500518  MISS:     253276  HIT %:    90.8027  MISS %:    9.19735  MPKI: 5.06552
L2C LOAD TRANSLATION INSTRUCTION	ACCESS:        260  HIT:         46  MISS:        214  HIT %:    17.6923  MISS %:    82.3077  MPKI: 0.00428
L2C LOAD DATA	ACCESS:     733821  HIT:     663935  MISS:      69886  HIT %:    90.4764  MISS %:    9.52358  MPKI: 1.39772
L2C RFO DATA	ACCESS:     285185  HIT:     237325  MISS:      47860  HIT %:    83.2179  MISS %:    16.7821  MPKI: 0.9572
L2C PREFETCH DATA	ACCESS:     187803  HIT:     118987  MISS:      68816  HIT %:    63.3573  MISS %:    36.6427  MPKI: 1.37632
L2C WRITEBACK DATA	ACCESS:     520859  HIT:     509130  MISS:      11729  HIT %:    97.7481  MISS %:    2.25186  MPKI: 0.23458
L2C LOAD TRANSLATION DATA	ACCESS:       1822  HIT:        441  MISS:       1381  HIT %:    24.2042  MISS %:    75.7958  MPKI: 0.02762
L2C TRANSLATION FROM L1D PREFETCHER DATA	ACCESS:         21  HIT:         17  MISS:          4  HIT %:    80.9524  MISS %:    19.0476  MPKI: 8e-05

L2C PREFETCH  REQUESTED:      87006  ISSUED:      87006  USEFUL:       7140  USELESS:      62139
L2C USEFUL LOAD PREFETCHES:       7140 PREFETCH ISSUED TO LOWER LEVEL:      69104  ACCURACY: 10.3323
 TIMELY PREFETCHES:       7140 LATE PREFETCHES: 288 DROPPED PREFETCHES: 0
L2C AVERAGE MISS LATENCY: 38.8632 cycles
L2C RQ	ACCESS:    3774973	FORWARD:          0	MERGED:          0	TO_CACHE:    3774903
L2C WQ	ACCESS:     520859	FORWARD:         70	MERGED:          0	TO_CACHE:     520859
L2C PQ	ACCESS:     194939	FORWARD:          0	MERGED:       3709	TO_CACHE:     191230

L2C Dense regions hint from L2: 0
PSCL5 TOTAL     ACCESS:       3996  HIT:       1998  MISS:       1998  HIT %:         50  MISS %:         50   MPKI: 0.03996
PSCL5 LOAD TRANSLATION INSTRUCTION	ACCESS:       3954  HIT:       1977  MISS:       1977  HIT %:         50  MISS %:         50  MPKI: 0.03954
PSCL5 TRANSLATION FROM L1D PREFETCHER INSTRUCTION	ACCESS:         42  HIT:         21  MISS:         21  HIT %:         50  MISS %:         50  MPKI: 0.00042


PSCL4 TOTAL     ACCESS:       3850  HIT:       1921  MISS:       1929  HIT %:    49.8961  MISS %:    50.1039   MPKI: 0.03858
PSCL4 LOAD TRANSLATION INSTRUCTION	ACCESS:       2967  HIT:       1900  MISS:       1067  HIT %:    64.0377  MISS %:    35.9623  MPKI: 0.02134
PSCL4 TRANSLATION FROM L1D PREFETCHER INSTRUCTION	ACCESS:         38  HIT:         21  MISS:         17  HIT %:    55.2632  MISS %:    44.7368  MPKI: 0.00034
PSCL4 LOAD TRANSLATION DATA	ACCESS:        841  HIT:          0  MISS:        841  HIT %:          0  MISS %:        100  MPKI: 0.01682
PSCL4 TRANSLATION FROM L1D PREFETCHER DATA	ACCESS:          4  HIT:          0  MISS:          4  HIT %:          0  MISS %:        100  MPKI: 8e-05


PSCL3 TOTAL     ACCESS:       3932  HIT:       1962  MISS:       1970  HIT %:    49.8983  MISS %:    50.1017   MPKI: 0.0394
PSCL3 LOAD TRANSLATION INSTRUCTION	ACCESS:       3008  HIT:       1941  MISS:       1067  HIT %:    64.5279  MISS %:    35.4721  MPKI: 0.02134
PSCL3 TRANSLATION FROM L1D PREFETCHER INSTRUCTION	ACCESS:         38  HIT:         21  MISS:         17  HIT %:    55.2632  MISS %:    44.7368  MPKI: 0.00034
PSCL3 LOAD TRANSLATION DATA	ACCESS:        882  HIT:          0  MISS:        882  HIT %:          0  MISS %:        100  MPKI: 0.01764
PSCL3 TRANSLATION FROM L1D PREFETCHER DATA	ACCESS:          4  HIT:          0  MISS:          4  HIT %:          0  MISS %:        100  MPKI: 8e-05


PSCL2 TOTAL     ACCESS:       3906  HIT:       1908  MISS:       1998  HIT %:    48.8479  MISS %:    51.1521   MPKI: 0.03996
PSCL2 LOAD TRANSLATION INSTRUCTION	ACCESS:       2119  HIT:       1887  MISS:        232  HIT %:    89.0514  MISS %:    10.9486  MPKI: 0.00464
PSCL2 TRANSLATION FROM L1D PREFETCHER INSTRUCTION	ACCESS:         21  HIT:         21  MISS:          0  HIT %:        100  MISS %:          0  MPKI: 0
PSCL2 LOAD TRANSLATION DATA	ACCESS:       1745  HIT:          0  MISS:       1745  HIT %:          0  MISS %:        100  MPKI: 0.0349
PSCL2 TRANSLATION FROM L1D PREFETCHER DATA	ACCESS:         21  HIT:          0  MISS:         21  HIT %:          0  MISS %:        100  MPKI: 0.00042


LLC TOTAL     ACCESS:     507417  HIT:     479482  MISS:      27935  HIT %:    94.4947  MISS %:    5.50533   MPKI: 0.5587
LLC LOAD INSTRUCTION	ACCESS:     253276  HIT:     252433  MISS:        843  HIT %:    99.6672  MISS %:   0.332838  MPKI: 0.01686
LLC LOAD TRANSLATION INSTRUCTION	ACCESS:        214  HIT:        186  MISS:         28  HIT %:    86.9159  MISS %:    13.0841  MPKI: 0.00056
LLC LOAD DATA	ACCESS:      69620  HIT:      66198  MISS:       3422  HIT %:    95.0847  MISS %:    4.91525  MPKI: 0.06844
LLC RFO DATA	ACCESS:      47835  HIT:      34603  MISS:      13232  HIT %:    72.3382  MISS %:    27.6618  MPKI: 0.26464
LLC PREFETCH DATA	ACCESS:      69104  HIT:      59107  MISS:       9997  HIT %:    85.5334  MISS %:    14.4666  MPKI: 0.19994
LLC WRITEBACK DATA	ACCESS:      65983  HIT:      65669  MISS:        314  HIT %:    99.5241  MISS %:    0.47588  MPKI: 0.00628
LLC LOAD TRANSLATION DATA	ACCESS:       1381  HIT:       1282  MISS:         99  HIT %:    92.8313  MISS %:    7.16872  MPKI: 0.00198
LLC TRANSLATION FROM L1D PREFETCHER DATA	ACCESS:          4  HIT:          4  MISS:          0  HIT %:        100  MISS %:          0  MPKI: 0

LLC AVERAGE MISS LATENCY: 154.688 cycles
LLC RQ	ACCESS:     372333	FORWARD:          0	MERGED:          0	TO_CACHE:     372330
LLC WQ	ACCESS:      65983	FORWARD:          3	MERGED:          0	TO_CACHE:      65983
LLC PQ	ACCESS:      69104	FORWARD:          0	MERGED:          0	TO_CACHE:      69104

LLC Dense regions hint to LLC: 0

RAW hits: 1827263
Loads Generated: 12623472
Loads sent to L1D: 10796209
Stores Generated: 6928330
Stores sent to L1D: 6928344
Major fault: 0 Minor fault: 2513
Allocated PAGES: 2513

stream: 
stream:times selected: 1218261
stream:pref_filled: 124744
stream:pref_useful: 26140
stream:pref_late: 7362
stream:misses: 9128
stream:misses_by_poll: 0

CS: 
CS:times selected: 184660
CS:pref_filled: 64055
CS:pref_useful: 39851
CS:pref_late: 6977
CS:misses: 18239
CS:misses_by_poll: 2

CPLX: 
CPLX:times selected: 1032409
CPLX:pref_filled: 22159
CPLX:pref_useful: 6326
CPLX:pref_late: 2952
CPLX:misses: 104732
CPLX:misses_by_poll: 1

NL_L1: 
NL:times selected: 17742
NL:pref_filled: 950
NL:pref_useful: 321
NL:pref_late: 236
NL:misses: 1564
NL:misses_by_poll: 0

total selections: 2453072
total_filled: 98866
total_useful: 37794
total_late: 19159
total_polluted: 3
total_misses_after_warmup: 774966
conflicts: 5569408

test: 118554

DRAM Statistics
 CHANNEL 0
 RQ ROW_BUFFER_HIT:      10156  ROW_BUFFER_MISS:      17447
 DBUS_CONGESTED:         10
 WQ ROW_BUFFER_HIT:       1364  ROW_BUFFER_MISS:      12208  FULL:          0

 AVG_CONGESTED_CYCLE: 5

CPU 0 Branch Prediction Accuracy: 99.8217% MPKI: 0.32628 Average ROB Occupancy at Mispredict: 149.184
Branch types
NOT_BRANCH: 40850682 81.7014%
BRANCH_DIRECT_JUMP: 547638 1.09528%
BRANCH_INDIRECT: 182862 0.365724%
BRANCH_CONDITIONAL: 6196906 12.3938%
BRANCH_DIRECT_CALL: 939990 1.87998%
BRANCH_INDIRECT_CALL: 170732 0.341464%
BRANCH_RETURN: 1110693 2.22139%
BRANCH_OTHER: 0 0%

DRAM PAGES: 1048576
Allocated PAGES: 2513
Average_ROB_Occupancy: 159.045
Average_Decode_Occupancy: 19.3982
Average_FTQ_Occupancy: 8.4261
Indirect max targets: 14 Average targets: 1.15306
Branch_type:  BRANCH_DIRECT_JUMP:  Count Percentage: 1.63794 7.91796 3.6016 8.82881 2.13901 5.97266 1.71882 68.1832 
Branch_type:  BRANCH_INDIRECT:  Count Percentage: 6.14984 3.46423 8.1751 0 1.33215 9.69248 5.19225 65.9939 
Branch_type:  BRANCH_CONDITIONAL:  Count Percentage: 21.2296 7.20948 1.61809 4.77031 1.73278 4.45271 2.65221 56.3348 
Branch_type:  BRANCH_DIRECT_CALL:  Count Percentage: 0.262539 1.46901 1.30875 3.88878 2.33934 2.24304 3.53148 84.9571 
Branch_type:  BRANCH_INDIRECT_CALL:  Count Percentage: 9.55769 0 2.99451 8.73575 0 1.71102 6.43708 70.5639 
Branch_type:  BRANCH_RETURN:  Count Percentage: 4.40022 4.73573 0.757723 6.01684 2.97152 5.64318 4.06633 71.4085 
Branch_type:  BRANCH_DIRECT_JUMP:  Total Count: 17943 86738 39454 96716 23432 65428 18829 746919 
Branch_type:  BRANCH_INDIRECT:  Total Count: 22510 12680 29923 0 4876 35477 19005 241555 
Branch_type:  BRANCH_CONDITIONAL:  Total Count: 2630261 893227 200475 591023 214685 551674 328599 6979668 
Branch_type:  BRANCH_DIRECT_CALL:  Total Count: 4926 27563 24556 72965 43893 42086 66261 1594046 
Branch_type:  BRANCH_INDIRECT_CALL:  Total Count: 32594 0 10212 29791 0 5835 21952 240640 
Branch_type:  BRANCH_RETURN:  Total Count: 97601 105043 16807 133459 65911 125171 90195 1583906 
Number of unique branch instructions: 9973
Upper 32 bits: 
aaaa
ffff
ffff0000
Unique upper 32 bits: 3
Unique upper 36 bits: 3
Unique upper 40 bits: 5
Unique upper 44 bits: 32
Unique upper 48 bits: 154
Variant_0 : 1150 0.280762
Variant_1 : 2677 0.653564
Variant_2 : 0 0
Variant_3 : 0 0
Offset_3 4118
Offset_4 252
Offset_5 458
Offset_6 506
Offset_7 593
Offset_8 512
Offset_9 469
Offset_10 388
Offset_11 322
Offset_12 288
Offset_13 201
Offset_14 232
Offset_15 191
Offset_16 223
Offset_17 144
Offset_18 126
Offset_19 243
Offset_20 143
Offset_21 235
Offset_22 393
Offset_23 241
Offset_24 329
Offset_25 88
Offset_47 80
decode_dispatch_called: 20876941 51.5922
Dispatch_width: 0 10586302 50.7081 26.1614
Dispatch_width: 1 607878 2.91172 1.50222
Dispatch_width: 2 636738 3.04996 1.57354
Dispatch_width: 3 420346 2.01345 1.03878
Dispatch_width: 4 2315966 11.0934 5.72334
Dispatch_width: 5 264871 1.26873 0.654563
Dispatch_width: 6 6044840 28.9546 14.9383
Empty_decode_cycles: 19588347 48.4078
ROB_full_cycles: 3575941 8.83706
Starvation_cycles_per_kilo_instr: 308.445
Starvation_cycles_per_kilo_instr_3: 282.637
Starvation_cycles_per_kilo_instr_0: 265.987
Branch_type_1  (3,1)  (4,9)  (5,37)  (6,69)  (7,117)  (8,127)  (9,124)  (10,99)  (11,73)  (12,51)  (13,5)  (14,2)  (15,3)  (16,4)  (18,1)  (19,4)  (20,2)  (21,1)  (22,3)  (23,2)  (24,10)  (25,12) 
Branch_type_2  (3,1)  (5,1)  (8,3)  (9,3)  (12,1)  (13,1)  (14,1)  (16,3)  (17,2)  (20,2)  (21,2)  (23,5)  (24,1)  (47,36) 
Branch_type_3  (3,4116)  (4,243)  (5,416)  (6,421)  (7,444)  (8,319)  (9,256)  (10,158)  (11,134)  (12,58)  (13,4) 
Branch_type_4  (6,4)  (7,8)  (8,26)  (9,54)  (10,62)  (11,59)  (12,99)  (13,87)  (14,102)  (15,91)  (16,100)  (17,65)  (18,57)  (19,116)  (20,74)  (21,124)  (22,208)  (23,136)  (24,189)  (25,72) 
Branch_type_5  (8,2)  (9,1)  (10,3)  (11,5)  (12,3)  (13,14)  (14,17)  (15,11)  (16,20)  (17,11)  (18,16)  (19,12)  (20,10)  (21,13)  (22,42)  (23,26)  (24,37) 
Branch_type_6  (5,4)  (6,12)  (7,24)  (8,35)  (9,31)  (10,66)  (11,51)  (12,76)  (13,90)  (14,110)  (15,86)  (16,96)  (17,66)  (18,52)  (19,111)  (20,55)  (21,95)  (22,140)  (23,72)  (24,92)  (25,4)  (47,44) 
Unique trigger count: 
Variant_0_evicts_0 : 0
Variant_0_evicts_1 : 0
Variant_0_evicts_2 : 0
Variant_0_evicts_3 : 0
Variant_1_evicts_0 : 0
Variant_1_evicts_1 : 0
Variant_1_evicts_2 : 0
Variant_1_evicts_3 : 0
Variant_2_evicts_0 : 0
Variant_2_evicts_1 : 0
Variant_2_evicts_2 : 0
Variant_2_evicts_3 : 0
Variant_3_evicts_0 : 0
Variant_3_evicts_1 : 0
Variant_3_evicts_2 : 0
Variant_3_evicts_3 : 0
BTB PER SET UNIQUE ADDR: 2 8 4 5 5 5 7 4 2 6 5 4 3 5 10 9 4 4 3 2 4 9 7 8 3 8 4 4 5 7 6 5 4 8 3 6 7 4 5 9 4 7 3 4 7 5 4 4 6 8 8 5 6 4 2 7 5 4 7 4 4 6 4 5 6 2 6 4 2 7 7 6 5 7 5 8 3 5 5 6 11 7 6 7 8 3 6 4 6 7 6 6 6 6 3 1 5 3 5 7 5 4 4 6 3 5 4 4 6 8 7 3 3 9 2 5 4 7 5 10 4 3 5 3 8 7 3 6 5 1 2 5 4 6 9 5 5 2 7 4 3 4 8 6 4 9 5 5 4 7 3 2 2 11 2 3 7 3 6 5 1 5 4 4 7 3 1 3 7 8 7 6 5 3 4 6 2 6 5 5 5 5 4 9 4 5 4 5 4 5 4 3 4 6 1 4 5 6 5 4 7 5 3 5 1 8 3 4 6 4 2 3 7 6 6 5 6 4 3 6 3 9 6 8 5 10 7 4 6 10 3 6 4 9 2 7 4 7 4 5 5 4 5 4 5 4 5 4 4 6 3 5 4 2 6 6 4 4 7 1 9 6 5 6 4 4 4 6 9 6 6 7 6 6 7 4 4 2 5 8 7 2 4 6 3 3 10 6 9 3 4 4 10 7 7 5 7 3 6 3 12 3 5 6 3 3 6 6 6 3 6 3 7 5 5 5 6 7 6 3 7 8 2 4 9 5 3 5 3 6 3 9 3 5 5 6 6 8 6 7 3 5 5 3 5 5 4 5 1 4 6 5 4 2 8 4 4 5 5 6 8 5 3 7 4 9 5 8 4 3 8 7 9 4 4 3 8 5 4 1 5 5 5 6 8 5 2 6 4 5 5 3 3 6 4 4 6 2 5 3 7 7 7 4 4 10 10 4 9 3 3 4 1 5 6 2 5 4 5 5 6 0 3 7 6 3 5 8 6 5 8 3 3 4 4 1 4 3 2 4 8 6 3 2 5 0 3 5 5 5 10 3 6 4 5 2 8 2 11 3 5 6 5 11 3 6 5 5 3 6 7 8 3 6 3 8 3 2 4 8 4 3 6 5 3 4 5 6 6 6 6 6 5 4 5 4 5 4 2 8 4 3 4 3 4 6 7 3 2 3 7 2 5 3 4 5 9 6 6 5 6 6 9 4 5 10 1 4 5 3 9 8 4 1 4 5 6 8 4 5 3 8 10 10 6 3 7 10 4 3 2 7 3 5 6 5 7 2 4 4 3 3 5 8 6 3 4 5 10 4 5 4 1 7 3 6 7 2 5 4 0 8 3 7 3 4 3 2 5 7 7 6 5 6 3 7 10 7 3 5 8 3 4 2 5 10 7 2 4 4 4 4 4 7 1 4 9 5 9 6 3 5 4 2 5 6 3 5 3 2 4 6 5 5 6 5 3 9 4 11 3 5 3 2 3 8 6 4 4 5 6 5 5 8 5 6 5 3 4 4 4 4 6 7 7 5 4 10 7 7 7 5 7 4 7 4 4 5 6 7 6 6 3 6 8 7 3 6 6 3 6 2 4 4 4 8 4 7 6 10 8 5 5 3 8 3 4 4 6 7 5 1 2 6 5 4 8 7 3 2 5 6 3 8 7 7 9 7 4 8 4 5 8 3 4 3 6 6 2 7 3 9 6 5 6 2 6 3 4 5 6 4 7 4 8 9 9 1 1 8 7 5 5 7 8 6 8 12 6 3 7 5 1 5 7 6 4 7 3 7 6 3 4 5 10 5 4 9 6 7 6 4 6 4 8 6 6 3 6 6 7 5 7 4 4 3 5 4 5 4 6 2 0 5 6 4 9 4 7 5 6 5 4 4 5 7 7 6 10 5 6 5 4 7 5 4 6 3 2 5 2 8 6 4 6 4 5 6 4 4 3 7 4 4 5 4 9 6 4 4 2 5 4 6 7 5 5 4 5 4 5 5 6 2 2 3 4 6 3 5 6 5 6 3 5 5 7 11 1 0 8 3 3 1 4 6 4 8 7 2 7 3 7 4 4 2 5 7 6 9 6 5 5 6 8 10 5 8 9 6 8 0 7 5 3 3 5 5 4 3 3 8 7 5 4 6 4 4 1 4 6 5 4 3 5 4 4 3 8 3 9 8 4 2 12 5 8 3 4 2 5 3 8 5 4 2 7 5 2 3 6 1 2 6 2 4 3 10 5 6 4 5 6 5 8 3 3 5 5 3 3 5 7 10 8 3 5 3 4 3 9 4 8 5 3 4 5 9 5 5 7 8 7 5 6 5 5 8 3 4 4 3 7 7 7 4 7 8 3 6 6 2 5 4 5 6 7 4 3 3 4 4 5 6 6 5 5 6 3 3 6 5 5 4 3 7 9 7 5 3 2 7 5 5 4 8 9 5 8 6 1 5 3 7 8 4 6 4 6 3 8 2 3 4 6 5 4 3 2 7 8 7 6 5 6 3 4 4 5 3 6 9 6 6 3 5 3 5 3 1 6 6 4 3 6 3 6 6 5 4 5 5 3 9 4 7 5 6 4 3 6 3 6 2 5 3 3 4 3 6 9 8 5 3 4 8 1 6 4 3 4 6 1 5 4 4 4 7 7 5 4 1 7 6 2 3 6 7 6 7 9 3 6 5 5 10 4 5 3 6 7 2 9 4 4 3 7 4 7 7 10 6 5 1 6 4 7 6 4 3 4 3 4 3 6 5 5 1 8 4 5 3 7 6 2 6 6 2 8 6 8 2 4 4 5 6 7 5 4 2 6 3 4 2 7 5 3 6 4 3 5 5 4 3 6 6 7 4 1 5 3 6 3 3 3 3 2 4 2 4 2 5 6 5 5 3 7 7 4 9 6 4 9 3 5 6 6 5 7 5 9 5 3 8 5 3 5 5 11 7 7 5 6 9 5 5 8 3 4 8 2 5 4 7 6 5 6 6 9 7 10 7 3 5 9 4 4 3 5 3 3 7 3 6 4 2 4 4 9 10 4 5 3 6 6 4 4 5 4 4 4 5 7 4 7 11 4 5 8 6 5 3 5 5 4 2 7 1 4 4 4 8 6 5 7 2 4 4 4 7 3 5 3 12 7 8 3 5 3 5 2 5 3 3 4 3 6 5 3 2 2 4 7 6 1 5 7 5 4 2 7 3 9 3 2 4 8 6 4 5 3 5 9 3 10 6 5 2 2 5 7 7 5 9 7 8 5 4 3 8 7 2 5 5 9 6 6 10 6 3 7 7 7 4 5 5 10 5 6 4 3 5 2 6 4 4 4 6 9 5 6 4 5 4 9 4 3 3 4 8 4 5 5 1 4 2 6 6 5 10 6 7 4 7 9 4 4 4 4 4 5 5 5 8 5 9 6 4 6 1 7 3 10 7 7 4 8 5 7 3 6 7 10 4 3 7 4 8 6 11 9 1 3 7 6 4 12 6 7 1 3 6 5 2 5 8 4 3 1 6 5 3 4 4 5 6 5 8 4 2 5 5 4 4 3 3 4 8 5 5 3 7 6 5 3 4 4 8 6 6 9 3 5 4 1 5 4 6 5 3 5 4 3 6 5 8 7 5 4 7 7 5 3 4 7 3 4 7 4 5 4 5 5 6 5 5 9 5 8 8 4 5 9 4 4 5 4 4 8 4 3 7 7 6 5 7 4 2 3 4 4 4 7 4 6 6 8 4 6 4 4 6 8 3 7 6 5 4 5 8 6 5 4 3 5 4 4 4 7 4 4 7 3 5 6 4 5 5 2 2 6 4 3 2 6 5 1 5 4 4 6 4 6 2 1 3 5 5 11 2 3 8 2 3 4 3 1 4 3 6 3 5 4 2 4 7 6 3 4 3 2 1 6 5 4 3 4 6 4 6 2 4 3 8 8 5 7 4 4 3 3 3 4 5 3 6 4 5 9 7 5 3 8 5 1 6 6 7 6 5 6 3 3 3 4 6 1 1 3 4 8 9 3 8 5 6 6 5 7 3 2 5 6 9 0 7 5 4 4 9 5 9 2 6 9 6 6 4 2 6 3 6 3 5 4 6 6 3 4 6 4 5 3 3 2 1 3 2 6 2 4 4 6 2 6 3 3 6 3 6 3 3 7 7 6 7 5 4 7 4 4 8 4 1 4 4 5 4 4 7 5 5 2 3 6 6 4 5 4 6 3 4 5 6 5 2 5 5 2 5 2 4 7 4 5 6 2 6 5 3 3 7 4 7 4 3 4 6 4 9 3 6 3 4 5 8 4 6 2 2 4 3 2 5 3 10 1 4 2 7 3 3 3 5 3 4 2 1 3 7 3 4 4 4 3 5 6 1 4 6 5 5 7 2 4 7 2 5 9 4 1 1 6 10 1 7 5 6 5 5 5 6 8 6 6 8 4 0 5 3 5 6 5 7 8 9 5 4 2 7 4 8 5 6 6 7 6 6 6 8 6 4 4 6 6 4 4 5 3 9 3 6 5 11 8 3 5 9 3 5 4 5 2 3 8 8 5 6 3 6 2 4 8 7 4 4 1 3 6 5 0 4 5 8 3 4 5 7 7 5 4 9 6 4 4 8 6 6 5 2 2 11 4 3 5 5 5 13 4 7 5 6 3 3 2 2 7 6 
BTB PER SET COUNT: 2 1775 206 666 126 118 299 354 2 934 783 371 3 1472 1060 108 576 190 3 2 245 933 622 494 486 817 133 196 374 457 404 139 238 729 47 213 871 260 129 1031 12 1661 4 9 2236 793 4 107 7 687 555 12 681 4 2 498 521 1182 526 74 1233 692 171 21 372 5 193 379 2 674 1323 90 120 963 6 858 3 290 766 327 865 176 169 479 311 3 691 4 654 1597 395 525 326 363 3 1 245 3 116 382 312 258 129 6 6 11 123 253 562 620 206 3 250 1284 3 8 309 19 405 1996 430 175 1516 3 313 853 3 184 950 1 2 163 4 264 263 424 179 2 371 674 6 919 1117 306 4 315 5 6 66 327 185 466 4 682 2 533 285 988 374 274 2 5 4 312 724 123 1 3 206 305 298 487 236 3 269 95 3 294 81 510 61 204 105 449 200 142 59 8 8 71 43 3 169 373 1 484 8 671 1117 6 168 167 58 187 1 374 5 565 200 5 7 3 316 544 240 207 663 319 5 270 3 415 259 726 284 1149 157 66 345 1171 91 206 366 5152 2 171 7 296 345 490 427 206 356 162 298 142 81 10 8 229 150 773 5 201 448 83 1742 220 308 1 423 39 290 301 12 448 6 554 441 65 186 267 11 261 402 249 184 266 110 715 584 2 249 547 3 8 1255 287 362 3 6 4 1178 453 455 148 8 4 313 6 970 191 1467 364 4 3 369 54 284 21 147 3 322 207 6 165 23 492 304 3 462 243 239 192 1182 162 300 209 4 383 4 884 167 616 236 237 823 186 190 405 7 263 307 3 723 258 265 463 1 185 376 134 60 2 514 5 376 519 334 10 1176 399 4 681 75 2562 524 1261 6 321 956 545 1147 8 151 154 1022 206 164 1 131 960 20 890 839 16 2 285 4 139 338 3 3 67 158 7 1867 2 272 121 1153 350 260 4 357 911 2157 384 125 6 5 90 1 321 784 3 347 385 272 134 660 0 4 298 49 478 538 404 836 205 754 50 4 197 53 1 5 5 2 6 1231 215 3 3 784 0 5 29 338 200 901 723 227 163 26 2 468 2 656 271 809 10 30 1223 9 591 208 60 3 600 202 873 3 188 961 184 168 3 4 548 82 343 361 517 3 4 196 403 530 408 1038 539 151 278 211 963 444 165 73 335 4 94 4 304 99 504 271 154 2 3 1059 3 932 996 7 88 636 976 430 236 269 174 1122 4 157 1049 1 4 224 3 1270 545 4 5 5 217 868 529 6 72 117 374 1095 1134 366 1462 817 975 216 4 2 1860 1002 6 220 215 1042 3 4 81 468 7809 464 318 146 4 1523 31 1765 238 194 247 1 929 3 600 719 2 158 4 0 296 3 385 6 134 203 2 5 1480 162 349 454 935 193 1232 620 402 3 62 515 7 223 2 50 1008 1001 2 88 109 4 4 970 482 1 102 420 390 10695 635 142 159 119 10 345 268 239 7 219 5 635 1097 282 435 596 554 3 399 4 1497 4 220 388 2 4 427 231 211 4 55 418 5 213 949 11 63 308 3 9 9 272 5 20 46 562 804 8 1296 292 908 579 476 244 4 637 70 243 1099 91 649 663 198 80 1160 354 607 256 833 33 3 343 2 167 417 4 919 14 857 6 807 171 752 7 3 699 3 7 218 815 577 147 1 304 236 61 536 248 369 3 2 309 398 857 528 450 665 984 387 348 359 310 252 407 118 9 3 9 209 2 1983 192 894 419 137 106 3 118 106 6 640 2158 7 344 245 21 475 703 1 1 743 166 13 92 173 361 57 416 3309 455 3 45 364 1 71 630 331 5 617 63 183 503 3 5 192 885 365 497 692 238 888 310 396 118 261 206 538 145 228 399 100 132 6 446 357 57 4 11 4 6 178 508 2 0 239 224 169 1149 276 246 5 374 296 6 179 95 939 460 665 1430 417 682 177 140 871 6 82 1095 4 2 59 15 685 349 4 502 9 177 690 69 859 3 290 4 245 9 113 657 324 178 4 2 356 7 420 695 13 148 260 472 4 720 8 142 2 3 3 1172 764 4 101 349 865 485 4 7 487 168 1174 1 0 1479 232 132 1 4 337 383 660 530 198 246 125 574 1057 113 220 5 77 201 847 311 232 327 346 594 672 20 26 879 543 1507 0 281 202 4 7 1470 310 213 172 4 466 1347 273 5 128 27 244 1 444 605 159 4 7 749 89 7 3 559 3 589 1024 11 3 2489 419 1093 3 2003 235 255 219 182 159 211 4 847 126 2 177 94 1 2 432 2 5 54 1146 196 113 296 66 490 16 623 3 3 961 8 3 3 537 243 1012 197 4 124 3 4 3 219 77 219 1404 3 7 339 1883 993 506 72 371 329 327 104 18 136 1165 3 68 371 374 382 111 504 314 673 816 7 83 230 2 465 373 183 418 350 74 1454 5 30 4 5 181 422 467 723 49 41 4 351 390 169 125 153 180 865 1303 1636 11 2 491 198 698 385 194 710 682 253 241 1 420 5 637 628 4 11 110 332 7 995 2 124 238 482 387 19 41 2 417 844 952 203 98 313 467 4 4 94 3 188 833 318 1300 377 521 40 113 3 1 135 458 503 460 292 3 200 284 10 4 179 13 453 101 4 488 268 16 7 3 112 102 196 5 266 143 3 435 3 333 537 15926 411 264 143 13 1 323 49 4 4 180 1 162 103 377 4 674 1051 73 5 1 117 376 2 3 366 300 169 455 999 4 432 7 180 599 7 14 16 85 506 2 930 116 5 3 268 262 448 419 507 233 212 1 1249 502 880 276 406 212 229 5 9 5 574 385 448 1 266 379 717 3 530 2004 2 255 557 2 342 278 334 7 259 28 24 88 412 74 9 58 320 3 50 2 814 13 3 326 145 3 486 593 4 5 14 172 291 4 1 236 410 513 3 198 218 3 2 4 2 167 3 224 572 8 417 3 275 116 215 662 159 4 476 4 257 470 124 114 479 6 200 5 3 343 5 467 235 616 1929 588 144 396 7 962 241 388 525 3 344 590 2 50 4 467 590 352 374 712 886 450 474 604 3 175 492 4 19 3 278 3 3 342 3 365 4 2 72 1464 544 1690 148 146 3 646 303 4 12 502 164 434 4 6 275 219 641 434 99 316 1302 462 491 3 8 369 9 2 619 1 4 4 379 505 660 310 18 2 203 4 72 610 3 85 174 1267 818 155 264 52 3 526 2 465 3 8 182 218 288 216 6 214 4 9 444 6 1 129 538 14 9 2 578 272 177 3 2 190 836 575 4 479 4 203 914 3 638 978 6 2 2 428 725 508 350 407 139 448 419 4 128 2534 1711 2 201 2883 738 763 309 161 479 10 194 710 170 116 165 36 722 49 291 7 3 199 2 491 290 9 10 294 473 9 253 4 12 9 725 118 6 5 5 937 154 415 295 1 4 3 452 241 518 1337 145 637 962 474 143 143 8 196 4 197 6 124 247 386 168 761 489 244 262 1 669 964 828 331 359 722 1154 465 160 3 202 411 1352 6 3 1156 4 418 686 1480 1064 1 3 951 527 400 978 350 1322 1 147 8 487 2 115 420 4 20 1 642 107 3 127 21 9 341 458 682 76 2 644 148 224 11 84 3 49 651 218 586 448 708 500 257 8 212 2922 765 522 172 935 4 136 239 1 309 6 1076 6 1460 520 4 86 256 10 555 1121 5 137 336 61 218 3 562 436 6 4 487 48 97 170 387 257 331 195 372 897 7 1089 171 222 317 740 146 117 9 4 393 505 4 3 333 490 679 308 167 185 2 3 4 84 63 442 4 390 193 834 4 903 181 32 555 682 190 869 509 478 243 7 567 6 265 171 229 13 150 322 154 696 586 114 423 8 112 390 4 710 366 2 125 156 99 5 2 326 283 1 295 4 363 197 4 236 2 1 107 6 221 1566 5 128 1271 2 6 366 3 1 189 720 307 144 59 115 2 8 897 216 7 4 3 2 1 612 108 244 215 4 253 159 249 3 4 8 792 104 172 465 511 25 214 3 3 4 215 3 601 4 10 709 271 196 7 410 18 1 603 182 472 140 398 463 3 3 84 5 402 1 1 3 296 283 815 3 1130 129 400 349 271 865 224 2 177 344 907 0 267 237 51 4 1606 337 387 2 492 1719 67 318 216 2 1063 3 783 3 143 212 11 492 3 86 546 7 221 958 4 3 1 4 2 692 2 354 411 235 2 253 3 6 37 4 350 139 316 288 685 667 415 151 26 524 4 145 862 4 1 81 5 218 812 126 674 426 435 2 282 222 1305 764 243 4 915 4 5 78 273 604 2 357 168 93 442 3 12 566 276 113 322 2 486 5292 277 101 760 83 841 282 3 277 1079 273 940 262 326 206 5 237 282 6 6 2 2 11 3 2 1652 3 716 1 149 351 372 3 190 345 10 5 274 2 1 3 608 5 50 1464 765 3 348 510 1 86 941 15 265 615 2 444 699 2 970 446 90 1 1 323 926 1 211 267 226 57 150 446 340 541 228 711 498 4 0 38 161 218 710 307 394 1105 408 138 88 2 350 52 358 187 512 240 1118 419 802 741 662 792 986 126 515 3041 640 4 206 104 657 97 925 432 1030 100 182 393 780 448 468 429 7 2 12 864 1321 7 814 37 282 2 138 575 552 153 189 1334 390 295 315 0 8 230 1281 3 200 195 830 665 548 212 988 387 622 4 633 1861 13 137 3 2 1756 1324 4 204 469 129 1801 285 308 8 358 251 3 2 278 567 20 
To predecode: 0
Predecoding something: 0
Predecode request dropped: 0
sizeofblock_0 0
sizeofblock_1 215480
sizeofblock_2 213344
sizeofblock_3 0
sizeofblock_4 0
sizeofblock_5 0
sizeofblock_6 0
sizeofblock_7 0
sizeofblock_8 0
Variant_0 Correct: 1383589 Incorrect: 0 Accuracy: 1
Variant_1 Correct: 5406842 Incorrect: 0 Accuracy: 1
Variant_2 Correct: 0 Incorrect: 0 Accuracy: -nan
Variant_3 Correct: 0 Incorrect: 0 Accuracy: -nan
