
*** ChampSim Multicore Out-of-Order Simulator ***

Warmup Instructions: 50000000
Simulation Instructions: 50000000
Number of CPUs: 1
LLC sets: 2048
LLC ways: 16
Off-chip DRAM Size: 4096 MB Channels: 1 Width: 64-bit Data Rate: 6400 MT/s
CPU 0 runs ./micro_traces/srv714.trace.gz
.gz
ITLB has LRU replacement policy
DTLB has LRU replacement policy
STLB has LRU replacement policy
FDIP Prefetcher at L1I
L1I has LRU replacement policy
L1D has LRU replacement policy
Initialize SRRIP state for L2C
Initialize DRRIP state for LLC
Heartbeat_Variant_0 : 1372 0.334961 per_variant_size: 0 1372 0 0 0 0 0 0 0 
Heartbeat_Variant_1 : 2663 0.650146 per_variant_size: 0 466 2197 0 0 0 0 0 0 
Heartbeat_Variant_2 : 0 0 per_variant_size: 0 0 0 0 0 0 0 0 0 
Heartbeat_Variant_3 : 0 0 per_variant_size: 0 0 0 0 0 0 0 0 0 
Heartbeat_Variant_0_evicts 0 : 6057 1 : 1049 2 : 0 3 : 0 
Heartbeat_Variant_1_evicts 0 : 986 1 : 0 2 : 0 3 : 0 
Heartbeat_Variant_2_evicts 0 : 0 1 : 0 2 : 0 3 : 0 
Heartbeat_Variant_3_evicts 0 : 0 1 : 0 2 : 0 3 : 0 
Heartbeat CPU 0 instructions: 10000000 cycles: 2799843 heartbeat IPC: 3.57163 cumulative IPC: 3.57163 (Simulation time: 0 hr 2 min 17 sec) 
Heartbeat_Variant_0 : 1372 0.334961 per_variant_size: 0 1372 0 0 0 0 0 0 0 
Heartbeat_Variant_1 : 2665 0.650635 per_variant_size: 0 452 2213 0 0 0 0 0 0 
Heartbeat_Variant_2 : 0 0 per_variant_size: 0 0 0 0 0 0 0 0 0 
Heartbeat_Variant_3 : 0 0 per_variant_size: 0 0 0 0 0 0 0 0 0 
Heartbeat_Variant_0_evicts 0 : 5609 1 : 65 2 : 0 3 : 0 
Heartbeat_Variant_1_evicts 0 : 65 1 : 0 2 : 0 3 : 0 
Heartbeat_Variant_2_evicts 0 : 0 1 : 0 2 : 0 3 : 0 
Heartbeat_Variant_3_evicts 0 : 0 1 : 0 2 : 0 3 : 0 
Heartbeat CPU 0 instructions: 20000000 cycles: 5599191 heartbeat IPC: 3.57226 cumulative IPC: 3.57194 (Simulation time: 0 hr 4 min 25 sec) 
Heartbeat_Variant_0 : 1377 0.336182 per_variant_size: 0 1377 0 0 0 0 0 0 0 
Heartbeat_Variant_1 : 2666 0.650879 per_variant_size: 0 441 2225 0 0 0 0 0 0 
Heartbeat_Variant_2 : 0 0 per_variant_size: 0 0 0 0 0 0 0 0 0 
Heartbeat_Variant_3 : 0 0 per_variant_size: 0 0 0 0 0 0 0 0 0 
Heartbeat_Variant_0_evicts 0 : 5673 1 : 229 2 : 0 3 : 0 
Heartbeat_Variant_1_evicts 0 : 225 1 : 0 2 : 0 3 : 0 
Heartbeat_Variant_2_evicts 0 : 0 1 : 0 2 : 0 3 : 0 
Heartbeat_Variant_3_evicts 0 : 0 1 : 0 2 : 0 3 : 0 
Heartbeat CPU 0 instructions: 30000002 cycles: 8397635 heartbeat IPC: 3.57342 cumulative IPC: 3.57243 (Simulation time: 0 hr 6 min 31 sec) 
Heartbeat_Variant_0 : 1381 0.337158 per_variant_size: 0 1381 0 0 0 0 0 0 0 
Heartbeat_Variant_1 : 2672 0.652344 per_variant_size: 0 435 2237 0 0 0 0 0 0 
Heartbeat_Variant_2 : 0 0 per_variant_size: 0 0 0 0 0 0 0 0 0 
Heartbeat_Variant_3 : 0 0 per_variant_size: 0 0 0 0 0 0 0 0 0 
Heartbeat_Variant_0_evicts 0 : 5718 1 : 230 2 : 0 3 : 0 
Heartbeat_Variant_1_evicts 0 : 228 1 : 0 2 : 0 3 : 0 
Heartbeat_Variant_2_evicts 0 : 0 1 : 0 2 : 0 3 : 0 
Heartbeat_Variant_3_evicts 0 : 0 1 : 0 2 : 0 3 : 0 
Heartbeat CPU 0 instructions: 40000003 cycles: 11198457 heartbeat IPC: 3.57038 cumulative IPC: 3.57192 (Simulation time: 0 hr 8 min 38 sec) 
Heartbeat_Variant_0 : 1381 0.337158 per_variant_size: 0 1381 0 0 0 0 0 0 0 
Heartbeat_Variant_1 : 2675 0.653076 per_variant_size: 0 442 2233 0 0 0 0 0 0 
Heartbeat_Variant_2 : 0 0 per_variant_size: 0 0 0 0 0 0 0 0 0 
Heartbeat_Variant_3 : 0 0 per_variant_size: 0 0 0 0 0 0 0 0 0 
Heartbeat_Variant_0_evicts 0 : 5535 1 : 110 2 : 0 3 : 0 
Heartbeat_Variant_1_evicts 0 : 110 1 : 0 2 : 0 3 : 0 
Heartbeat_Variant_2_evicts 0 : 0 1 : 0 2 : 0 3 : 0 
Heartbeat_Variant_3_evicts 0 : 0 1 : 0 2 : 0 3 : 0 
Heartbeat CPU 0 instructions: 50000001 cycles: 13999249 heartbeat IPC: 3.57042 cumulative IPC: 3.57162 (Simulation time: 0 hr 10 min 40 sec) 

Warmup complete CPU 0 instructions: 50000001 cycles: 13999249 (Simulation time: 0 hr 10 min 40 sec) 

Cycle: 20000000 FTQ IN: 58150048 FTQ occupancy: 20.347 DECODE IN: 58150048 DECODE occupancy: 52.5677 ROB IN: 58150048 ROB occupancy: 314.573 ROB OUT: 58149721
Heartbeat_Variant_0 : 1378 0.336426 per_variant_size: 0 1378 0 0 0 0 0 0 0 
Heartbeat_Variant_1 : 2696 0.658203 per_variant_size: 0 417 2279 0 0 0 0 0 0 
Heartbeat_Variant_2 : 0 0 per_variant_size: 0 0 0 0 0 0 0 0 0 
Heartbeat_Variant_3 : 0 0 per_variant_size: 0 0 0 0 0 0 0 0 0 
Heartbeat_Variant_0_evicts 0 : 5947 1 : 760 2 : 0 3 : 0 
Heartbeat_Variant_1_evicts 0 : 768 1 : 0 2 : 0 3 : 0 
Heartbeat_Variant_2_evicts 0 : 0 1 : 0 2 : 0 3 : 0 
Heartbeat_Variant_3_evicts 0 : 0 1 : 0 2 : 0 3 : 0 
Heartbeat CPU 0 instructions: 60000001 cycles: 21326320 heartbeat IPC: 1.3648 cumulative IPC: 1.3648 (Simulation time: 0 hr 13 min 17 sec) 
Heartbeat_Variant_0 : 1384 0.337891 per_variant_size: 0 1384 0 0 0 0 0 0 0 
Heartbeat_Variant_1 : 2693 0.657471 per_variant_size: 0 403 2290 0 0 0 0 0 0 
Heartbeat_Variant_2 : 0 0 per_variant_size: 0 0 0 0 0 0 0 0 0 
Heartbeat_Variant_3 : 0 0 per_variant_size: 0 0 0 0 0 0 0 0 0 
Heartbeat_Variant_0_evicts 0 : 5599 1 : 228 2 : 0 3 : 0 
Heartbeat_Variant_1_evicts 0 : 223 1 : 0 2 : 0 3 : 0 
Heartbeat_Variant_2_evicts 0 : 0 1 : 0 2 : 0 3 : 0 
Heartbeat_Variant_3_evicts 0 : 0 1 : 0 2 : 0 3 : 0 
Heartbeat CPU 0 instructions: 70000003 cycles: 28639958 heartbeat IPC: 1.36731 cumulative IPC: 1.36605 (Simulation time: 0 hr 15 min 42 sec) 
Cycle: 30000000 FTQ IN: 13734006 FTQ occupancy: 14.9493 DECODE IN: 13733884 DECODE occupancy: 37.3853 ROB IN: 13733824 ROB occupancy: 246.709 ROB OUT: 13733801
Heartbeat_Variant_0 : 1374 0.335449 per_variant_size: 0 1374 0 0 0 0 0 0 0 
Heartbeat_Variant_1 : 2706 0.660645 per_variant_size: 0 411 2295 0 0 0 0 0 0 
Heartbeat_Variant_2 : 0 0 per_variant_size: 0 0 0 0 0 0 0 0 0 
Heartbeat_Variant_3 : 0 0 per_variant_size: 0 0 0 0 0 0 0 0 0 
Heartbeat_Variant_0_evicts 0 : 5732 1 : 221 2 : 0 3 : 0 
Heartbeat_Variant_1_evicts 0 : 231 1 : 0 2 : 0 3 : 0 
Heartbeat_Variant_2_evicts 0 : 0 1 : 0 2 : 0 3 : 0 
Heartbeat_Variant_3_evicts 0 : 0 1 : 0 2 : 0 3 : 0 
Heartbeat CPU 0 instructions: 80000003 cycles: 35866464 heartbeat IPC: 1.38379 cumulative IPC: 1.37192 (Simulation time: 0 hr 18 min 6 sec) 
Cycle: 40000000 FTQ IN: 13866111 FTQ occupancy: 14.9189 DECODE IN: 13866142 DECODE occupancy: 37.3022 ROB IN: 13866142 ROB occupancy: 245.604 ROB OUT: 13866140
Heartbeat_Variant_0 : 1379 0.33667 per_variant_size: 0 1379 0 0 0 0 0 0 0 
Heartbeat_Variant_1 : 2702 0.659668 per_variant_size: 0 411 2291 0 0 0 0 0 0 
Heartbeat_Variant_2 : 0 0 per_variant_size: 0 0 0 0 0 0 0 0 0 
Heartbeat_Variant_3 : 0 0 per_variant_size: 0 0 0 0 0 0 0 0 0 
Heartbeat_Variant_0_evicts 0 : 5698 1 : 171 2 : 0 3 : 0 
Heartbeat_Variant_1_evicts 0 : 166 1 : 0 2 : 0 3 : 0 
Heartbeat_Variant_2_evicts 0 : 0 1 : 0 2 : 0 3 : 0 
Heartbeat_Variant_3_evicts 0 : 0 1 : 0 2 : 0 3 : 0 
Heartbeat CPU 0 instructions: 90000000 cycles: 43158562 heartbeat IPC: 1.37135 cumulative IPC: 1.37177 (Simulation time: 0 hr 20 min 39 sec) 
Cycle: 50000000 FTQ IN: 13791139 FTQ occupancy: 15.1301 DECODE IN: 13791230 DECODE occupancy: 37.7656 ROB IN: 13791290 ROB occupancy: 249.427 ROB OUT: 13791623
Heartbeat_Variant_0 : 1375 0.335693 per_variant_size: 0 1375 0 0 0 0 0 0 0 
Heartbeat_Variant_1 : 2706 0.660645 per_variant_size: 0 408 2298 0 0 0 0 0 0 
Heartbeat_Variant_2 : 0 0 per_variant_size: 0 0 0 0 0 0 0 0 0 
Heartbeat_Variant_3 : 0 0 per_variant_size: 0 0 0 0 0 0 0 0 0 
Heartbeat_Variant_0_evicts 0 : 5611 1 : 63 2 : 0 3 : 0 
Heartbeat_Variant_1_evicts 0 : 67 1 : 0 2 : 0 3 : 0 
Heartbeat_Variant_2_evicts 0 : 0 1 : 0 2 : 0 3 : 0 
Heartbeat_Variant_3_evicts 0 : 0 1 : 0 2 : 0 3 : 0 
Heartbeat CPU 0 instructions: 100000002 cycles: 50327068 heartbeat IPC: 1.39499 cumulative IPC: 1.37636 (Simulation time: 0 hr 23 min 20 sec) 
Finished CPU 0 instructions: 50000001 cycles: 36327819 cumulative IPC: 1.37636 (Simulation time: 0 hr 23 min 20 sec) 

ChampSim completed all CPUs

Region of Interest Statistics

CPU 0 cumulative IPC: 1.37636 instructions: 50000001 cycles: 36327819
 Fetch stage stalled: 46.5656  Sim cycles: 36327819 fetch stall cycle: 16916253
 Empty decode stage: 27.465  Sim cycles: 36327819 fetch stall cycle: 9977444
ITLB TOTAL     ACCESS:    5866169  HIT:    5374041  MISS:     492128  HIT %:    91.6107  MISS %:    8.38926   MPKI: 9.84256
ITLB LOAD TRANSLATION INSTRUCTION	ACCESS:    5732187  HIT:    5240059  MISS:     492128  HIT %:    91.4147  MISS %:    8.58534  MPKI: 9.84256
ITLB TRANSLATION FROM L1D PREFETCHER INSTRUCTION	ACCESS:     133982  HIT:     133982  MISS:          0  HIT %:        100  MISS %:          0  MPKI: 0

ITLB AVERAGE MISS LATENCY: 9.06089 cycles
ITLB RQ	ACCESS:    7970672	FORWARD:          0	MERGED:    1620739	TO_CACHE:    6349933

DTLB TOTAL     ACCESS:    8937277  HIT:    8459933  MISS:     477344  HIT %:     94.659  MISS %:    5.34105   MPKI: 9.54688
DTLB LOAD TRANSLATION DATA	ACCESS:    8937277  HIT:    8459933  MISS:     477344  HIT %:     94.659  MISS %:    5.34105  MPKI: 9.54688

DTLB AVERAGE MISS LATENCY: 9.34521 cycles
DTLB RQ	ACCESS:   13302764	FORWARD:          0	MERGED:    4328718	TO_CACHE:    8974046

STLB TOTAL     ACCESS:    1221239  HIT:    1219031  MISS:       2208  HIT %:    99.8192  MISS %:     0.1808   MPKI: 0.04416
STLB LOAD TRANSLATION INSTRUCTION	ACCESS:     492128  HIT:     491849  MISS:        279  HIT %:    99.9433  MISS %:  0.0566926  MPKI: 0.00558
STLB LOAD TRANSLATION DATA	ACCESS:     477342  HIT:     475421  MISS:       1921  HIT %:    99.5976  MISS %:   0.402437  MPKI: 0.03842
STLB TRANSLATION FROM L1D PREFETCHER DATA	ACCESS:     251769  HIT:     251761  MISS:          8  HIT %:    99.9968  MISS %: 0.00317752  MPKI: 0.00016

STLB AVERAGE MISS LATENCY: 74.9049 cycles
STLB RQ	ACCESS:    1355887	FORWARD:          0	MERGED:     134611	TO_CACHE:    1221276

STLB Hit, L1D data hit: 0
STLB Hit, L2C data hit: 0
STLB Hit, LLC data hit: 0
STLB Hit, LLC data miss: 0
STLB STLB hints to L2: 0
L1D TOTAL     ACCESS:   13056162  HIT:   11909016  MISS:    1147146  HIT %:    91.2138  MISS %:    8.78624   MPKI: 22.9429
L1D LOAD DATA	ACCESS:    6546497  HIT:    5788925  MISS:     757572  HIT %:    88.4278  MISS %:    11.5722  MPKI: 15.1514
L1D RFO DATA	ACCESS:    6178789  HIT:    5891945  MISS:     286844  HIT %:    95.3576  MISS %:     4.6424  MPKI: 5.73688
L1D PREFETCH DATA	ACCESS:     330876  HIT:     228146  MISS:     102730  HIT %:    68.9521  MISS %:    31.0479  MPKI: 2.0546

L1D PREFETCH  REQUESTED:     773155  ISSUED:     773155  USEFUL:      43535  USELESS:      70041
L1D USEFUL LOAD PREFETCHES:      43535 PREFETCH ISSUED TO LOWER LEVEL:     113636  ACCURACY: 38.3109
 TIMELY PREFETCHES:      43535 LATE PREFETCHES: 10869 DROPPED PREFETCHES: 6
L1D AVERAGE MISS LATENCY: 306737 cycles
L1D RQ	ACCESS:   10672867	FORWARD:          0	MERGED:    3926236	TO_CACHE:    6581193
L1D WQ	ACCESS:    6919153	FORWARD:     165763	MERGED:     197582	TO_CACHE:    6721571
L1D PQ	ACCESS:     386740	FORWARD:          0	MERGED:          0	TO_CACHE:     386415

L1D UNIQUE REGIONS ACCESSED: 0
L1D REGIONS CONFLICTS: 0
L1D Cross Page Prefetch Requests: 5893
L1D Same Page Prefetch Requests: 780094
L1D ROI Sum of L1D PQ occupancy: 4896238
L1D PREFETCHES PUSHED FROM L2C: 0
L1I TOTAL     ACCESS:    6539322  HIT:    1984601  MISS:    4554721  HIT %:    30.3487  MISS %:    69.6513   MPKI: 91.0944
L1I LOAD INSTRUCTION	ACCESS:    6230562  HIT:    1689358  MISS:    4541204  HIT %:    27.1141  MISS %:    72.8859  MPKI: 90.8241
L1I PREFETCH INSTRUCTION	ACCESS:     308760  HIT:     295243  MISS:      13517  HIT %:    95.6222  MISS %:    4.37783  MPKI: 0.27034

L1I PREFETCH  REQUESTED:    1611915  ISSUED:    1611915  USEFUL:       7841  USELESS:      13515
L1I USEFUL LOAD PREFETCHES:       7841 PREFETCH ISSUED TO LOWER LEVEL:      21358  ACCURACY: 36.7122
 TIMELY PREFETCHES:       7841 LATE PREFETCHES: 7841 DROPPED PREFETCHES: 0
L1I AVERAGE MISS LATENCY: 55825.2 cycles
L1I RQ	ACCESS:    9568560	FORWARD:          0	MERGED:    2785117	TO_CACHE:    6783443
L1I PQ	ACCESS:    1611915	FORWARD:          0	MERGED:     424686	TO_CACHE:    1187229

L1BTB TOTAL     ACCESS:    5678749  HIT:    2063664  MISS:    3615085  HIT %:    36.3401  MISS %:    63.6599   MPKI: 72.3017
L1BTB BRANCH_DIRECT_JUMP	ACCESS:     545552 HIT:     144053 MISS:     401499 AVERAGE STALL: 54.8681 AVERAGE FETCH STALL: 16.1557 AVERAGE FETCH QUEUE STALL: 18.8781 AVERAGE DECODE STALL: 18.9337 AVERAGE EXECUTE STALL: 2.24714e+15
L1BTB BRANCH_INDIRECT	ACCESS:     182027 HIT:      65594 MISS:     116433 AVERAGE STALL: 113.504 AVERAGE FETCH STALL: 12.9931 AVERAGE FETCH QUEUE STALL: 18.1305 AVERAGE DECODE STALL: 12.4522 AVERAGE EXECUTE STALL: 68.9662
L1BTB BRANCH_CONDITIONAL	ACCESS:    2723312 HIT:    1436094 MISS:    1287218 AVERAGE STALL: 56.8353 AVERAGE FETCH STALL: 24.2979 AVERAGE FETCH QUEUE STALL: 17.957 AVERAGE DECODE STALL: 13.9137 AVERAGE EXECUTE STALL: 2.4784e+15
L1BTB BRANCH_DIRECT_CALL	ACCESS:     942385 HIT:     105807 MISS:     836578 AVERAGE STALL: 72.4995 AVERAGE FETCH STALL: 28.6915 AVERAGE FETCH QUEUE STALL: 22.5844 AVERAGE DECODE STALL: 20.5687 AVERAGE EXECUTE STALL: 5.88413e+15
L1BTB BRANCH_INDIRECT_CALL	ACCESS:     171545 HIT:      21617 MISS:     149928 AVERAGE STALL: 147.486 AVERAGE FETCH STALL: 17.7983 AVERAGE FETCH QUEUE STALL: 17.7026 AVERAGE DECODE STALL: 12.4877 AVERAGE EXECUTE STALL: 99.0021
L1BTB BRANCH_RETURN	ACCESS:    1113928 HIT:     290499 MISS:     823429 AVERAGE STALL: 52.8279 AVERAGE FETCH STALL: 20.4088 AVERAGE FETCH QUEUE STALL: 5.81718 AVERAGE DECODE STALL: 6.59029 AVERAGE EXECUTE STALL: 4.21091e+14
L1BTB BRANCH_OTHER ACCESS:          0 HIT:          0 MISS:          0 AVERAGE STALL: -nan AVERAGE FETCH STALL: -nan AVERAGE FETCH QUEUE STALL: -nan AVERAGE DECODE STALL: -nan AVERAGE EXECUTE STALL: -nan
L1BTB TOTAL ROB OCCUPANCY AT BTB MISS: 2.9443

L2BTB TOTAL     ACCESS:    3589837  HIT:    3519199  MISS:      70638  HIT %:    98.0323  MISS %:    1.96772   MPKI: 1.41276
L2BTB BRANCH_DIRECT_JUMP	ACCESS:     397362 HIT:     393263 MISS:       4099 AVERAGE STALL: 54.8681 AVERAGE FETCH STALL: 16.1557 AVERAGE FETCH QUEUE STALL: 18.8781 AVERAGE DECODE STALL: 18.9337 AVERAGE EXECUTE STALL: 2.24714e+15
L2BTB BRANCH_INDIRECT	ACCESS:     106216 HIT:     103442 MISS:       2774 AVERAGE STALL: 113.504 AVERAGE FETCH STALL: 12.9931 AVERAGE FETCH QUEUE STALL: 18.1305 AVERAGE DECODE STALL: 12.4522 AVERAGE EXECUTE STALL: 68.9662
L2BTB BRANCH_CONDITIONAL	ACCESS:    1287218 HIT:    1279588 MISS:       7630 AVERAGE STALL: 56.8353 AVERAGE FETCH STALL: 24.2979 AVERAGE FETCH QUEUE STALL: 17.957 AVERAGE DECODE STALL: 13.9137 AVERAGE EXECUTE STALL: 2.4784e+15
L2BTB BRANCH_DIRECT_CALL	ACCESS:     836578 HIT:     833364 MISS:       3214 AVERAGE STALL: 72.4995 AVERAGE FETCH STALL: 28.6915 AVERAGE FETCH QUEUE STALL: 22.5844 AVERAGE DECODE STALL: 20.5687 AVERAGE EXECUTE STALL: 5.88413e+15
L2BTB BRANCH_INDIRECT_CALL	ACCESS:     140438 HIT:     129983 MISS:      10455 AVERAGE STALL: 147.486 AVERAGE FETCH STALL: 17.7983 AVERAGE FETCH QUEUE STALL: 17.7026 AVERAGE DECODE STALL: 12.4877 AVERAGE EXECUTE STALL: 99.0021
L2BTB BRANCH_RETURN	ACCESS:     822025 HIT:     779559 MISS:      42466 AVERAGE STALL: 52.8279 AVERAGE FETCH STALL: 20.4088 AVERAGE FETCH QUEUE STALL: 5.81718 AVERAGE DECODE STALL: 6.59029 AVERAGE EXECUTE STALL: 4.21091e+14
L2BTB BRANCH_OTHER ACCESS:          0 HIT:          0 MISS:          0 AVERAGE STALL: -nan AVERAGE FETCH STALL: -nan AVERAGE FETCH QUEUE STALL: -nan AVERAGE DECODE STALL: -nan AVERAGE EXECUTE STALL: -nan
L2BTB TOTAL ROB OCCUPANCY AT BTB MISS: 150.682

L2C TOTAL     ACCESS:    6334733  HIT:    5852461  MISS:     482272  HIT %:    92.3869  MISS %:    7.61314   MPKI: 9.64544
L2C LOAD INSTRUCTION	ACCESS:    4533363  HIT:    4274178  MISS:     259185  HIT %:    94.2827  MISS %:    5.71728  MPKI: 5.1837
L2C PREFETCH INSTRUCTION	ACCESS:      21358  HIT:      21358  MISS:          0  HIT %:        100  MISS %:          0  MPKI: 0
L2C LOAD TRANSLATION INSTRUCTION	ACCESS:        314  HIT:         95  MISS:        219  HIT %:    30.2548  MISS %:    69.7452  MPKI: 0.00438
L2C LOAD DATA	ACCESS:     746683  HIT:     663828  MISS:      82855  HIT %:    88.9036  MISS %:    11.0964  MPKI: 1.6571
L2C RFO DATA	ACCESS:     286782  HIT:     238377  MISS:      48405  HIT %:    83.1213  MISS %:    16.8787  MPKI: 0.9681
L2C PREFETCH DATA	ACCESS:     219487  HIT:     142663  MISS:      76824  HIT %:    64.9984  MISS %:    35.0016  MPKI: 1.53648
L2C WRITEBACK DATA	ACCESS:     524693  HIT:     511377  MISS:      13316  HIT %:    97.4621  MISS %:    2.53786  MPKI: 0.26632
L2C LOAD TRANSLATION DATA	ACCESS:       2028  HIT:        573  MISS:       1455  HIT %:    28.2544  MISS %:    71.7456  MPKI: 0.0291
L2C TRANSLATION FROM L1D PREFETCHER DATA	ACCESS:         25  HIT:         12  MISS:         13  HIT %:         48  MISS %:         52  MPKI: 0.00026

L2C PREFETCH  REQUESTED:     115464  ISSUED:     115464  USEFUL:       8707  USELESS:      68621
L2C USEFUL LOAD PREFETCHES:       8707 PREFETCH ISSUED TO LOWER LEVEL:      77278  ACCURACY: 11.2671
 TIMELY PREFETCHES:       8707 LATE PREFETCHES: 454 DROPPED PREFETCHES: 0
L2C AVERAGE MISS LATENCY: 38.2081 cycles
L2C RQ	ACCESS:    5569241	FORWARD:          0	MERGED:          0	TO_CACHE:    5569196
L2C WQ	ACCESS:     524693	FORWARD:         46	MERGED:          0	TO_CACHE:     524693
L2C PQ	ACCESS:     250458	FORWARD:          0	MERGED:       4507	TO_CACHE:     245950

L2C Dense regions hint from L2: 0
PSCL5 TOTAL     ACCESS:       4434  HIT:       2217  MISS:       2217  HIT %:         50  MISS %:         50   MPKI: 0.04434
PSCL5 LOAD TRANSLATION INSTRUCTION	ACCESS:       4386  HIT:       2193  MISS:       2193  HIT %:         50  MISS %:         50  MPKI: 0.04386
PSCL5 TRANSLATION FROM L1D PREFETCHER INSTRUCTION	ACCESS:         48  HIT:         24  MISS:         24  HIT %:         50  MISS %:         50  MPKI: 0.00048


PSCL4 TOTAL     ACCESS:       4224  HIT:       2108  MISS:       2116  HIT %:    49.9053  MISS %:    50.0947   MPKI: 0.04232
PSCL4 LOAD TRANSLATION INSTRUCTION	ACCESS:       2810  HIT:       2084  MISS:        726  HIT %:    74.1637  MISS %:    25.8363  MPKI: 0.01452
PSCL4 TRANSLATION FROM L1D PREFETCHER INSTRUCTION	ACCESS:         38  HIT:         24  MISS:         14  HIT %:    63.1579  MISS %:    36.8421  MPKI: 0.00028
PSCL4 LOAD TRANSLATION DATA	ACCESS:       1366  HIT:          0  MISS:       1366  HIT %:          0  MISS %:        100  MPKI: 0.02732
PSCL4 TRANSLATION FROM L1D PREFETCHER DATA	ACCESS:         10  HIT:          0  MISS:         10  HIT %:          0  MISS %:        100  MPKI: 0.0002


PSCL3 TOTAL     ACCESS:       4326  HIT:       2159  MISS:       2167  HIT %:    49.9075  MISS %:    50.0925   MPKI: 0.04334
PSCL3 LOAD TRANSLATION INSTRUCTION	ACCESS:       2861  HIT:       2135  MISS:        726  HIT %:    74.6243  MISS %:    25.3757  MPKI: 0.01452
PSCL3 TRANSLATION FROM L1D PREFETCHER INSTRUCTION	ACCESS:         38  HIT:         24  MISS:         14  HIT %:    63.1579  MISS %:    36.8421  MPKI: 0.00028
PSCL3 LOAD TRANSLATION DATA	ACCESS:       1417  HIT:          0  MISS:       1417  HIT %:          0  MISS %:        100  MPKI: 0.02834
PSCL3 TRANSLATION FROM L1D PREFETCHER DATA	ACCESS:         10  HIT:          0  MISS:         10  HIT %:          0  MISS %:        100  MPKI: 0.0002


PSCL2 TOTAL     ACCESS:       4295  HIT:       2078  MISS:       2217  HIT %:    48.3818  MISS %:    51.6182   MPKI: 0.04434
PSCL2 LOAD TRANSLATION INSTRUCTION	ACCESS:       2339  HIT:       2055  MISS:        284  HIT %:    87.8581  MISS %:    12.1419  MPKI: 0.00568
PSCL2 TRANSLATION FROM L1D PREFETCHER INSTRUCTION	ACCESS:         23  HIT:         23  MISS:          0  HIT %:        100  MISS %:          0  MPKI: 0
PSCL2 LOAD TRANSLATION DATA	ACCESS:       1910  HIT:          0  MISS:       1910  HIT %:          0  MISS %:        100  MPKI: 0.0382
PSCL2 TRANSLATION FROM L1D PREFETCHER DATA	ACCESS:         23  HIT:          0  MISS:         23  HIT %:          0  MISS %:        100  MPKI: 0.00046


LLC TOTAL     ACCESS:     543422  HIT:     515252  MISS:      28170  HIT %:    94.8162  MISS %:    5.18382   MPKI: 0.5634
LLC LOAD INSTRUCTION	ACCESS:     259146  HIT:     257960  MISS:       1186  HIT %:    99.5423  MISS %:   0.457657  MPKI: 0.02372
LLC LOAD TRANSLATION INSTRUCTION	ACCESS:        219  HIT:        184  MISS:         35  HIT %:    84.0183  MISS %:    15.9817  MPKI: 0.0007
LLC LOAD DATA	ACCESS:      82494  HIT:      78986  MISS:       3508  HIT %:    95.7476  MISS %:    4.25243  MPKI: 0.07016
LLC RFO DATA	ACCESS:      48349  HIT:      35119  MISS:      13230  HIT %:    72.6365  MISS %:    27.3635  MPKI: 0.2646
LLC PREFETCH DATA	ACCESS:      77264  HIT:      67489  MISS:       9775  HIT %:    87.3486  MISS %:    12.6514  MPKI: 0.1955
LLC WRITEBACK DATA	ACCESS:      74482  HIT:      74140  MISS:        342  HIT %:    99.5408  MISS %:   0.459171  MPKI: 0.00684
LLC LOAD TRANSLATION DATA	ACCESS:       1455  HIT:       1362  MISS:         93  HIT %:    93.6082  MISS %:    6.39175  MPKI: 0.00186
LLC TRANSLATION FROM L1D PREFETCHER DATA	ACCESS:         13  HIT:         12  MISS:          1  HIT %:    92.3077  MISS %:    7.69231  MPKI: 2e-05

LLC AVERAGE MISS LATENCY: 153.531 cycles
LLC RQ	ACCESS:     391678	FORWARD:          0	MERGED:          0	TO_CACHE:     391676
LLC WQ	ACCESS:      74482	FORWARD:         16	MERGED:          0	TO_CACHE:      74482
LLC PQ	ACCESS:      77278	FORWARD:          0	MERGED:          0	TO_CACHE:      77264

LLC Dense regions hint to LLC: 0

RAW hits: 1938983
Loads Generated: 12611850
Loads sent to L1D: 10672867
Stores Generated: 6919135
Stores sent to L1D: 6919153
Major fault: 0 Minor fault: 2606
Allocated PAGES: 2606

stream: 
stream:times selected: 1222613
stream:pref_filled: 123706
stream:pref_useful: 25566
stream:pref_late: 11491
stream:misses: 9268
stream:misses_by_poll: 0

CS: 
CS:times selected: 187398
CS:pref_filled: 62754
CS:pref_useful: 38533
CS:pref_late: 15812
CS:misses: 27734
CS:misses_by_poll: 3

CPLX: 
CPLX:times selected: 1034123
CPLX:pref_filled: 23221
CPLX:pref_useful: 6447
CPLX:pref_late: 4261
CPLX:misses: 122711
CPLX:misses_by_poll: 0

NL_L1: 
NL:times selected: 12535
NL:pref_filled: 1374
NL:pref_useful: 111
NL:pref_late: 319
NL:misses: 1621
NL:misses_by_poll: 0

total selections: 2456669
total_filled: 102730
total_useful: 43535
total_late: 33875
total_polluted: 3
total_misses_after_warmup: 792269
conflicts: 5505875

test: 118828

DRAM Statistics
 CHANNEL 0
 RQ ROW_BUFFER_HIT:      10349  ROW_BUFFER_MISS:      17472
 DBUS_CONGESTED:         21
 WQ ROW_BUFFER_HIT:       1386  ROW_BUFFER_MISS:      11414  FULL:          0

 AVG_CONGESTED_CYCLE: 5

CPU 0 Branch Prediction Accuracy: 99.8128% MPKI: 0.3428 Average ROB Occupancy at Mispredict: 178.69
Branch types
NOT_BRANCH: 40843605 81.6872%
BRANCH_DIRECT_JUMP: 545552 1.0911%
BRANCH_INDIRECT: 182027 0.364054%
BRANCH_CONDITIONAL: 6201004 12.402%
BRANCH_DIRECT_CALL: 942385 1.88477%
BRANCH_INDIRECT_CALL: 171545 0.34309%
BRANCH_RETURN: 1113928 2.22786%
BRANCH_OTHER: 0 0%

DRAM PAGES: 1048576
Allocated PAGES: 2606
Average_ROB_Occupancy: 246.462
Average_Decode_Occupancy: 37.0705
Average_FTQ_Occupancy: 14.8502
Indirect max targets: 14 Average targets: 1.17296
Branch_type:  BRANCH_DIRECT_JUMP:  Count Percentage: 4.13146 5.06703 4.34755 7.19121 3.29683 6.33824 1.50324 68.1244 
Branch_type:  BRANCH_INDIRECT:  Count Percentage: 11.7616 3.38966 2.50461 9.68306 3.35121 2.81474 0.938063 65.557 
Branch_type:  BRANCH_CONDITIONAL:  Count Percentage: 29.586 2.20044 1.52847 4.02408 2.02068 4.2665 0.495612 55.8783 
Branch_type:  BRANCH_DIRECT_CALL:  Count Percentage: 0.388191 1.78932 0.725925 3.43508 3.20006 2.61695 0.725872 87.1186 
Branch_type:  BRANCH_INDIRECT_CALL:  Count Percentage: 9.55006 0 2.99423 0.000874228 1.13766 1.71494 0.995163 83.6071 
Branch_type:  BRANCH_RETURN:  Count Percentage: 10.4368 1.51259 1.1582 3.42735 4.26649 4.83221 0.589292 73.777 
Branch_type:  BRANCH_DIRECT_JUMP:  Total Count: 45065 55270 47422 78440 35961 69136 16397 743085 
Branch_type:  BRANCH_INDIRECT:  Total Count: 42818 12340 9118 35251 12200 10247 3415 238659 
Branch_type:  BRANCH_CONDITIONAL:  Total Count: 3667712 272784 189481 498857 250500 528910 61440 6927114 
Branch_type:  BRANCH_DIRECT_CALL:  Total Count: 7309 33690 13668 64677 60252 49273 13667 1640302 
Branch_type:  BRANCH_INDIRECT_CALL:  Total Count: 32772 0 10275 3 3904 5885 3415 286906 
Branch_type:  BRANCH_RETURN:  Total Count: 232419 33684 25792 76324 95011 107609 13123 1642949 
Number of unique branch instructions: 11196
Upper 32 bits: 
aaaa
ffff
ffff0000
Unique upper 32 bits: 3
Unique upper 36 bits: 3
Unique upper 40 bits: 5
Unique upper 44 bits: 32
Unique upper 48 bits: 160
Variant_0 : 1375 0.335693
Variant_1 : 2706 0.660645
Variant_2 : 0 0
Variant_3 : 0 0
Offset_3 4624
Offset_4 274
Offset_5 506
Offset_6 569
Offset_7 655
Offset_8 597
Offset_9 563
Offset_10 460
Offset_11 366
Offset_12 325
Offset_13 241
Offset_14 260
Offset_15 213
Offset_16 260
Offset_17 176
Offset_18 152
Offset_19 270
Offset_20 146
Offset_21 241
Offset_22 425
Offset_23 241
Offset_24 373
Offset_25 114
Offset_47 90
decode_dispatch_called: 26291324 72.3724
Dispatch_width: 0 14202498 54.0197 39.0954
Dispatch_width: 1 1027296 3.90736 2.82785
Dispatch_width: 2 827701 3.14819 2.27842
Dispatch_width: 3 508557 1.93431 1.39991
Dispatch_width: 4 6221559 23.6639 17.1262
Dispatch_width: 5 116882 0.444565 0.321742
Dispatch_width: 6 3386831 12.8819 9.32297
Empty_decode_cycles: 10036495 27.6276
ROB_full_cycles: 10076062 27.7365
Starvation_cycles_per_kilo_instr: 228.649
Starvation_cycles_per_kilo_instr_3: 165.265
Starvation_cycles_per_kilo_instr_0: 141.629
Branch_type_1  (3,1)  (4,10)  (5,40)  (6,80)  (7,127)  (8,153)  (9,147)  (10,118)  (11,79)  (12,55)  (13,12)  (14,2)  (15,3)  (16,4)  (18,1)  (19,5)  (20,2)  (21,1)  (22,3)  (23,2)  (24,10)  (25,12) 
Branch_type_2  (3,1)  (4,1)  (5,1)  (8,4)  (9,4)  (10,1)  (12,1)  (13,1)  (14,1)  (16,3)  (17,2)  (20,2)  (21,2)  (23,5)  (24,1)  (47,40) 
Branch_type_3  (3,4622)  (4,263)  (5,461)  (6,471)  (7,494)  (8,366)  (9,305)  (10,183)  (11,146)  (12,62)  (13,11) 
Branch_type_4  (6,4)  (7,8)  (8,28)  (9,65)  (10,76)  (11,75)  (12,114)  (13,102)  (14,119)  (15,102)  (16,119)  (17,80)  (18,65)  (19,130)  (20,75)  (21,127)  (22,224)  (23,136)  (24,223)  (25,98) 
Branch_type_5  (8,4)  (9,1)  (10,4)  (11,5)  (12,3)  (13,14)  (14,16)  (15,12)  (16,22)  (17,13)  (18,23)  (19,14)  (20,11)  (21,13)  (22,45)  (23,26)  (24,38) 
Branch_type_6  (5,4)  (6,14)  (7,26)  (8,42)  (9,41)  (10,78)  (11,61)  (12,90)  (13,101)  (14,122)  (15,96)  (16,112)  (17,81)  (18,63)  (19,121)  (20,56)  (21,98)  (22,153)  (23,72)  (24,101)  (25,4)  (47,50) 
Unique trigger count: 
Variant_0_evicts_0 : 0
Variant_0_evicts_1 : 0
Variant_0_evicts_2 : 0
Variant_0_evicts_3 : 0
Variant_1_evicts_0 : 0
Variant_1_evicts_1 : 0
Variant_1_evicts_2 : 0
Variant_1_evicts_3 : 0
Variant_2_evicts_0 : 0
Variant_2_evicts_1 : 0
Variant_2_evicts_2 : 0
Variant_2_evicts_3 : 0
Variant_3_evicts_0 : 0
Variant_3_evicts_1 : 0
Variant_3_evicts_2 : 0
Variant_3_evicts_3 : 0
BTB PER SET UNIQUE ADDR: 12 17 10 11 18 13 10 18 7 15 15 22 13 14 17 12 13 15 16 12 12 10 11 17 10 15 11 14 10 13 13 14 15 10 12 13 12 11 13 11 10 10 15 11 11 14 17 12 15 11 11 9 16 12 10 6 12 8 12 16 15 17 12 12 14 17 13 13 17 12 10 14 18 11 14 9 11 17 12 19 15 12 15 15 14 13 18 11 13 20 11 10 9 11 7 14 8 12 13 13 18 19 14 12 13 14 10 15 8 12 10 22 17 12 14 9 15 16 11 16 17 15 7 11 17 19 8 16 20 11 11 14 14 13 9 21 11 19 13 19 10 19 14 14 10 15 11 12 5 15 15 16 10 15 11 16 15 16 16 16 17 15 15 13 10 15 15 11 16 12 14 16 14 13 14 12 12 15 10 11 14 13 14 15 17 14 11 17 15 13 19 11 12 12 15 10 11 13 11 12 15 11 11 15 10 11 12 15 11 16 13 13 13 12 12 16 16 20 11 20 12 16 10 10 7 14 11 14 11 10 14 8 11 15 13 16 12 13 15 10 9 13 16 22 11 16 12 14 16 18 18 17 13 9 11 20 10 13 14 12 14 13 7 11 13 11 10 11 14 10 11 15 15 8 9 9 12 15 10 14 14 12 15 13 16 12 9 20 18 10 13 10 16 15 9 13 10 13 15 16 10 12 11 22 13 18 12 10 17 16 11 16 10 14 15 8 13 12 15 17 9 16 12 17 18 13 11 12 14 8 15 19 11 12 11 19 13 14 11 19 12 14 8 12 14 12 14 22 15 12 15 9 7 19 10 12 13 16 9 10 15 13 11 19 11 14 9 11 12 12 15 12 12 11 12 12 17 17 15 10 13 13 9 12 7 11 13 20 16 12 15 13 13 19 10 9 15 16 15 13 17 10 14 14 20 13 16 16 15 13 14 11 9 18 12 13 13 15 22 17 10 16 10 14 16 13 19 13 13 18 16 14 11 12 15 13 14 16 13 17 15 17 11 14 14 11 11 16 15 16 16 21 16 14 22 12 15 17 11 18 12 10 13 18 16 11 18 12 11 16 16 13 18 17 13 18 11 18 9 16 22 13 15 12 8 18 19 16 21 15 14 16 12 12 11 9 13 12 12 13 12 20 10 13 16 12 9 14 9 16 14 18 12 12 16 17 16 11 11 14 14 14 13 11 10 17 19 9 14 21 15 15 14 12 14 16 13 15 15 13 14 10 14 13 13 13 13 12 12 16 11 15 13 13 15 15 13 12 14 15 12 14 13 16 9 17 12 19 13 17 14 13 15 19 15 14 16 16 12 18 10 16 7 13 18 9 13 16 22 10 11 14 14 12 10 10 11 14 17 10 12 8 14 9 13 16 25 19 12 15 21 13 15 10 8 16 11 13 12 14 23 11 9 13 17 18 9 17 12 13 11 16 10 15 17 14 15 15 16 13 13 16 15 18 16 8 10 15 23 12 10 16 10 13 10 12 18 11 10 14 14 12 12 20 14 12 12 15 14 15 16 17 12 17 19 14 18 21 12 19 12 12 13 13 16 10 14 13 16 19 15 15 9 10 13 13 10 16 12 17 8 14 12 13 10 16 15 14 10 11 14 16 11 14 13 9 17 11 12 14 14 16 13 12 14 17 15 12 12 10 21 12 15 11 8 14 14 16 19 12 11 11 14 16 19 14 11 14 15 13 15 12 15 14 14 12 24 15 12 11 11 14 13 14 16 18 10 15 12 19 13 15 11 8 15 11 13 16 17 16 9 14 16 12 14 10 10 17 11 13 8 8 13 11 14 17 9 12 11 13 20 14 17 16 15 13 15 9 14 11 14 17 15 14 15 17 16 18 13 14 13 19 10 18 15 13 14 15 12 20 12 18 16 13 8 16 15 13 11 11 11 15 11 17 11 18 14 18 14 14 14 11 14 15 14 14 13 12 19 20 12 13 13 15 14 9 17 9 12 11 10 19 15 14 16 8 15 13 11 11 16 7 14 16 13 15 14 16 11 12 14 10 11 16 11 17 16 14 10 12 13 11 16 16 10 17 9 15 12 11 10 13 9 17 16 16 20 17 16 14 12 17 13 13 14 9 11 14 10 8 15 14 14 11 16 19 11 14 16 16 9 19 15 17 9 13 18 19 10 15 12 13 9 13 12 13 16 11 18 14 13 16 12 15 15 12 17 13 12 16 12 15 14 14 16 12 22 17 14 20 15 17 17 11 14 16 19 11 14 15 15 13 14 18 16 11 8 14 14 13 13 17 14 12 19 21 14 16 14 15 17 13 10 10 12 11 9 11 7 10 12 21 14 13 
BTB PER SET COUNT: 17 18 1938 14 22 17 10 271 1477 26 18 130 20554 20 24 20 2002 25 812 16 19 650 513 24 20 19 13 23 15 16 18 30 22 10 19 23 17 20 19 43 14 15 21 22 117 19 32 12 48 25 18 11 24 15 12 370 22 8 230 23 17 30 333 23 28 33 16 14 26 20 18 19 24 15 22 14 12 42 18 22 907 22 105 21 16 16 31 14 1080 35 11 763 280 412 10 27 489 1006 23 878 39 138 20 18 2078 17 14 19 1809 2261 10 31 33 22 25 441 17 28 13 23 22 17 14 15 27 141 9 29 37 979 16 18 24 16 13 31 1006 32 17 26 12 31 19 17 15 46 232 407 5 22 32 290 1026 30 15 25 568 21 23 661 24 219 459 14 52 609 25 17 23 1148 18 26 27 18 23 14 18 20 76 972 444 13 688 25 26 668 12 28 483 42 33 18 15 15 21 13 12 228 18 183 20 225 981 22 17 13 17 21 12 543 14 21 17 3631 14 373 26 34 1545 40 14 33 393 16 8 20 17 20 401 20 21 8 15 22 1182 21 21 21 28 11 13 15 24 40 15 320 14 23 237 25 28 21 20 11 14 481 15 262 18 16 22 19 12 496 16 11 11 16 712 11 11 343 604 10 447 12 14 26 11 20 27 23 556 20 19 16 10 25 32 13 18 14 26 891 11 15 11 18 22 44 12 19 20 37 26 25 21 377 26 31 15 25 10 17 1488 9 25 17 28 30 10 3632 21 23 27 1051 519 24 19 11 25 29 13 14 12 29 18 28 12 40 15 17 14 19 311 18 19 39 18 66 240 193 12 26 10 17 17 26 523 20 24 21 19 37 19 1644 9 17 20 15 28 91 24 1457 16 17 30 31 26 1478 1103 17 13 16 8 15 586 25 26 12 21 19 21 26 13 9 20 23 21 205 26 15 669 20 27 24 22 618 21 15 359 13 11 32 18 19 23 22 29 35 12 27 16 23 26 18 544 17 20 30 55 26 14 24 126 19 15 57 19 28 293 22 20 24 1824 12 14 22 20 24 522 31 30 22 196 16 30 26 14 35 32 211 25 23 22 18 2946 16 15 22 31 23 27 20 17 25 13 34 12 23 30 20 18 26 873 31 32 21 27 20 17 19 1020 130 16 12 620 992 14 22 17 30 17 67 22 13 9 20 12 24 25 172 20 166 23 25 42 17 17 20 21 23 23 520 16 23 24 9 22 1944 27 22 26 17 25 24 718 591 26 22 28 17 40 19 15 25 18 16 19 1067 13 23 673 698 21 24 20 15 20 32 14 68 16 19 11 28 103 31 13 21 24 20 21 34 26 21 23 62 17 37 13 23 11 1189 26 20 14 27 40 15 260 26 22 16 14 14 27 390 262 12 16 10 23 11 19 30 42 1959 15 21 31 1098 25 15 9 20 505 15 17 33 38 21 19 541 33 34 14 520 1380 15 19 23 14 83 23 25 22 538 23 13 18 29 19 22 680 11 269 26 71 18 13 26 12 16 17 496 33 238 440 18 27 17 14 28 48 21 19 1010 1041 25 26 26 974 22 520 25 22 27 14 40 19 16 25 19 1309 13 17 22 30 34 28 20 11 16 2472 16 42 3281 25 23 454 23 15 17 16 31 20 26 12 15 22 503 993 18 15 175 956 14 17 17 19 1276 21 1241 23 33 24 17 15 13 36 14 124 23 12 1015 22 21 57 17 779 16 440 112 616 29 15 17 26 17 51 18 212 1485 1494 18 34 501 14 14 21 31 16 18 22 36 12 28 20 25 17 264 14 8 21 13 17 153 23 27 1455 21 658 16 16 12 11 29 16 21 13 994 15 13 21 24 10 21 17 268 39 19 31 31 16 18 24 14 21 23 20 3510 25 19 30 25 20 2635 22 21 21 29 10 30 19 19 20 18 20 674 14 41 20 23 33 1985 25 76 108 17 13 1217 15 26 12 26 23 28 15 8204 23 553 21 19 31 18 25 18 32 33 973 1485 20 23 21 12 25 14 18 17 30 28 23 22 26 8 24 28 2893 21 23 9 58 21 20 841 16 27 12 21 25 13 15 3558 11 22 25 19 14 18 19 24 29 258 16 24 9 28 114 16 13 982 18 32 23 22 41 33 28 18 19 557 498 21 21 11 13 19 10 22 39 18 1194 21 35 30 12 66 826 21 13 1055 19 23 16 26 66 28 21 20 24 18 13 1333 17 14 312 15 40 680 19 23 402 25 21 15 679 20 69 23 13 33 19 24 22 16 467 23 23 698 44 26 24 483 16 1105 23 977 29 21 23 719 124 813 43 16 10 1494 21 17 20 785 28 17 35 1215 23 25 27 40 30 17 12 12 14 14 16 336 7 12 966 688 26 15 
To predecode: 0
Predecoding something: 0
Predecode request dropped: 0
sizeofblock_0 0
sizeofblock_1 54580
sizeofblock_2 89368
sizeofblock_3 0
sizeofblock_4 0
sizeofblock_5 0
sizeofblock_6 0
sizeofblock_7 0
sizeofblock_8 0
Variant_0 Correct: 1606334 Incorrect: 0 Accuracy: 1
Variant_1 Correct: 5711221 Incorrect: 0 Accuracy: 1
Variant_2 Correct: 0 Incorrect: 0 Accuracy: -nan
Variant_3 Correct: 0 Incorrect: 0 Accuracy: -nan
