
*** ChampSim Multicore Out-of-Order Simulator ***

Warmup Instructions: 50000000
Simulation Instructions: 50000000
Number of CPUs: 1
LLC sets: 2048
LLC ways: 16
Off-chip DRAM Size: 4096 MB Channels: 1 Width: 64-bit Data Rate: 6400 MT/s
CPU 0 runs ./micro_traces/srv769.trace.gz
.gz
ITLB has LRU replacement policy
DTLB has LRU replacement policy
STLB has LRU replacement policy
FDIP Prefetcher at L1I
L1I has LRU replacement policy
L1D has LRU replacement policy
Initialize SRRIP state for L2C
Initialize DRRIP state for LLC
Heartbeat_Variant_0 : 1347 0.328857 per_variant_size: 0 1347 0 0 0 0 0 0 0 
Heartbeat_Variant_1 : 2574 0.628418 per_variant_size: 0 511 2063 0 0 0 0 0 0 
Heartbeat_Variant_2 : 0 0 per_variant_size: 0 0 0 0 0 0 0 0 0 
Heartbeat_Variant_3 : 0 0 per_variant_size: 0 0 0 0 0 0 0 0 0 
Heartbeat_Variant_0_evicts 0 : 5786 1 : 545 2 : 0 3 : 0 
Heartbeat_Variant_1_evicts 0 : 501 1 : 0 2 : 0 3 : 0 
Heartbeat_Variant_2_evicts 0 : 0 1 : 0 2 : 0 3 : 0 
Heartbeat_Variant_3_evicts 0 : 0 1 : 0 2 : 0 3 : 0 
Heartbeat CPU 0 instructions: 10000003 cycles: 2796092 heartbeat IPC: 3.57642 cumulative IPC: 3.57642 (Simulation time: 0 hr 1 min 30 sec) 
Heartbeat_Variant_0 : 1358 0.331543 per_variant_size: 0 1358 0 0 0 0 0 0 0 
Heartbeat_Variant_1 : 2599 0.634521 per_variant_size: 0 497 2102 0 0 0 0 0 0 
Heartbeat_Variant_2 : 0 0 per_variant_size: 0 0 0 0 0 0 0 0 0 
Heartbeat_Variant_3 : 0 0 per_variant_size: 0 0 0 0 0 0 0 0 0 
Heartbeat_Variant_0_evicts 0 : 5638 1 : 100 2 : 0 3 : 0 
Heartbeat_Variant_1_evicts 0 : 98 1 : 0 2 : 0 3 : 0 
Heartbeat_Variant_2_evicts 0 : 0 1 : 0 2 : 0 3 : 0 
Heartbeat_Variant_3_evicts 0 : 0 1 : 0 2 : 0 3 : 0 
Heartbeat CPU 0 instructions: 20000002 cycles: 5590355 heartbeat IPC: 3.57876 cumulative IPC: 3.57759 (Simulation time: 0 hr 3 min 1 sec) 
Heartbeat_Variant_0 : 1377 0.336182 per_variant_size: 0 1377 0 0 0 0 0 0 0 
Heartbeat_Variant_1 : 2635 0.643311 per_variant_size: 0 486 2149 0 0 0 0 0 0 
Heartbeat_Variant_2 : 0 0 per_variant_size: 0 0 0 0 0 0 0 0 0 
Heartbeat_Variant_3 : 0 0 per_variant_size: 0 0 0 0 0 0 0 0 0 
Heartbeat_Variant_0_evicts 0 : 5650 1 : 340 2 : 0 3 : 0 
Heartbeat_Variant_1_evicts 0 : 333 1 : 0 2 : 0 3 : 0 
Heartbeat_Variant_2_evicts 0 : 0 1 : 0 2 : 0 3 : 0 
Heartbeat_Variant_3_evicts 0 : 0 1 : 0 2 : 0 3 : 0 
Heartbeat CPU 0 instructions: 30000001 cycles: 8386830 heartbeat IPC: 3.57593 cumulative IPC: 3.57704 (Simulation time: 0 hr 4 min 34 sec) 
Heartbeat_Variant_0 : 1382 0.337402 per_variant_size: 0 1382 0 0 0 0 0 0 0 
Heartbeat_Variant_1 : 2637 0.643799 per_variant_size: 0 480 2157 0 0 0 0 0 0 
Heartbeat_Variant_2 : 0 0 per_variant_size: 0 0 0 0 0 0 0 0 0 
Heartbeat_Variant_3 : 0 0 per_variant_size: 0 0 0 0 0 0 0 0 0 
Heartbeat_Variant_0_evicts 0 : 5578 1 : 148 2 : 0 3 : 0 
Heartbeat_Variant_1_evicts 0 : 144 1 : 0 2 : 0 3 : 0 
Heartbeat_Variant_2_evicts 0 : 0 1 : 0 2 : 0 3 : 0 
Heartbeat_Variant_3_evicts 0 : 0 1 : 0 2 : 0 3 : 0 
Heartbeat CPU 0 instructions: 40000003 cycles: 11182118 heartbeat IPC: 3.57745 cumulative IPC: 3.57714 (Simulation time: 0 hr 6 min 6 sec) 
Heartbeat_Variant_0 : 1381 0.337158 per_variant_size: 0 1381 0 0 0 0 0 0 0 
Heartbeat_Variant_1 : 2639 0.644287 per_variant_size: 0 478 2161 0 0 0 0 0 0 
Heartbeat_Variant_2 : 0 0 per_variant_size: 0 0 0 0 0 0 0 0 0 
Heartbeat_Variant_3 : 0 0 per_variant_size: 0 0 0 0 0 0 0 0 0 
Heartbeat_Variant_0_evicts 0 : 5539 1 : 15 2 : 0 3 : 0 
Heartbeat_Variant_1_evicts 0 : 16 1 : 0 2 : 0 3 : 0 
Heartbeat_Variant_2_evicts 0 : 0 1 : 0 2 : 0 3 : 0 
Heartbeat_Variant_3_evicts 0 : 0 1 : 0 2 : 0 3 : 0 
Heartbeat CPU 0 instructions: 50000001 cycles: 13976664 heartbeat IPC: 3.5784 cumulative IPC: 3.57739 (Simulation time: 0 hr 7 min 36 sec) 

Warmup complete CPU 0 instructions: 50000001 cycles: 13976664 (Simulation time: 0 hr 7 min 36 sec) 

Cycle: 20000000 FTQ IN: 58285380 FTQ occupancy: 20.8642 DECODE IN: 58285380 DECODE occupancy: 53.8174 ROB IN: 58285380 ROB occupancy: 320.066 ROB OUT: 58285117
Heartbeat_Variant_0 : 1387 0.338623 per_variant_size: 0 1387 0 0 0 0 0 0 0 
Heartbeat_Variant_1 : 2648 0.646484 per_variant_size: 0 467 2181 0 0 0 0 0 0 
Heartbeat_Variant_2 : 0 0 per_variant_size: 0 0 0 0 0 0 0 0 0 
Heartbeat_Variant_3 : 0 0 per_variant_size: 0 0 0 0 0 0 0 0 0 
Heartbeat_Variant_0_evicts 0 : 5634 1 : 258 2 : 0 3 : 0 
Heartbeat_Variant_1_evicts 0 : 255 1 : 0 2 : 0 3 : 0 
Heartbeat_Variant_2_evicts 0 : 0 1 : 0 2 : 0 3 : 0 
Heartbeat_Variant_3_evicts 0 : 0 1 : 0 2 : 0 3 : 0 
Heartbeat CPU 0 instructions: 60000002 cycles: 21220486 heartbeat IPC: 1.38049 cumulative IPC: 1.38049 (Simulation time: 0 hr 9 min 26 sec) 
Heartbeat_Variant_0 : 1391 0.3396 per_variant_size: 0 1391 0 0 0 0 0 0 0 
Heartbeat_Variant_1 : 2649 0.646729 per_variant_size: 0 468 2181 0 0 0 0 0 0 
Heartbeat_Variant_2 : 0 0 per_variant_size: 0 0 0 0 0 0 0 0 0 
Heartbeat_Variant_3 : 0 0 per_variant_size: 0 0 0 0 0 0 0 0 0 
Heartbeat_Variant_0_evicts 0 : 5610 1 : 42 2 : 0 3 : 0 
Heartbeat_Variant_1_evicts 0 : 39 1 : 0 2 : 0 3 : 0 
Heartbeat_Variant_2_evicts 0 : 0 1 : 0 2 : 0 3 : 0 
Heartbeat_Variant_3_evicts 0 : 0 1 : 0 2 : 0 3 : 0 
Heartbeat CPU 0 instructions: 70000003 cycles: 28310964 heartbeat IPC: 1.41034 cumulative IPC: 1.39525 (Simulation time: 0 hr 11 min 10 sec) 
Cycle: 30000000 FTQ IN: 14106433 FTQ occupancy: 16.1657 DECODE IN: 14106317 DECODE occupancy: 40.2588 ROB IN: 14106257 ROB occupancy: 256.719 ROB OUT: 14106168
Heartbeat_Variant_0 : 1400 0.341797 per_variant_size: 0 1400 0 0 0 0 0 0 0 
Heartbeat_Variant_1 : 2653 0.647705 per_variant_size: 0 453 2200 0 0 0 0 0 0 
Heartbeat_Variant_2 : 0 0 per_variant_size: 0 0 0 0 0 0 0 0 0 
Heartbeat_Variant_3 : 0 0 per_variant_size: 0 0 0 0 0 0 0 0 0 
Heartbeat_Variant_0_evicts 0 : 5707 1 : 218 2 : 0 3 : 0 
Heartbeat_Variant_1_evicts 0 : 210 1 : 0 2 : 0 3 : 0 
Heartbeat_Variant_2_evicts 0 : 0 1 : 0 2 : 0 3 : 0 
Heartbeat_Variant_3_evicts 0 : 0 1 : 0 2 : 0 3 : 0 
Heartbeat CPU 0 instructions: 80000001 cycles: 35512825 heartbeat IPC: 1.38853 cumulative IPC: 1.39301 (Simulation time: 0 hr 12 min 57 sec) 
Cycle: 40000000 FTQ IN: 13974218 FTQ occupancy: 16.0376 DECODE IN: 13974211 DECODE occupancy: 39.6507 ROB IN: 13974211 ROB occupancy: 255.541 ROB OUT: 13974215
Heartbeat_Variant_0 : 1399 0.341553 per_variant_size: 0 1399 0 0 0 0 0 0 0 
Heartbeat_Variant_1 : 2654 0.647949 per_variant_size: 0 454 2200 0 0 0 0 0 0 
Heartbeat_Variant_2 : 0 0 per_variant_size: 0 0 0 0 0 0 0 0 0 
Heartbeat_Variant_3 : 0 0 per_variant_size: 0 0 0 0 0 0 0 0 0 
Heartbeat_Variant_0_evicts 0 : 5676 1 : 21 2 : 0 3 : 0 
Heartbeat_Variant_1_evicts 0 : 22 1 : 0 2 : 0 3 : 0 
Heartbeat_Variant_2_evicts 0 : 0 1 : 0 2 : 0 3 : 0 
Heartbeat_Variant_3_evicts 0 : 0 1 : 0 2 : 0 3 : 0 
Heartbeat CPU 0 instructions: 90000001 cycles: 42572935 heartbeat IPC: 1.41641 cumulative IPC: 1.39878 (Simulation time: 0 hr 14 min 42 sec) 
Heartbeat_Variant_0 : 1394 0.340332 per_variant_size: 0 1394 0 0 0 0 0 0 0 
Heartbeat_Variant_1 : 2664 0.650391 per_variant_size: 0 452 2212 0 0 0 0 0 0 
Heartbeat_Variant_2 : 0 0 per_variant_size: 0 0 0 0 0 0 0 0 0 
Heartbeat_Variant_3 : 0 0 per_variant_size: 0 0 0 0 0 0 0 0 0 
Heartbeat_Variant_0_evicts 0 : 5574 1 : 72 2 : 0 3 : 0 
Heartbeat_Variant_1_evicts 0 : 78 1 : 0 2 : 0 3 : 0 
Heartbeat_Variant_2_evicts 0 : 0 1 : 0 2 : 0 3 : 0 
Heartbeat_Variant_3_evicts 0 : 0 1 : 0 2 : 0 3 : 0 
Heartbeat CPU 0 instructions: 100000001 cycles: 49754821 heartbeat IPC: 1.39239 cumulative IPC: 1.3975 (Simulation time: 0 hr 16 min 26 sec) 
Finished CPU 0 instructions: 50000000 cycles: 35778157 cumulative IPC: 1.3975 (Simulation time: 0 hr 16 min 26 sec) 

ChampSim completed all CPUs

Region of Interest Statistics

CPU 0 cumulative IPC: 1.3975 instructions: 50000000 cycles: 35778157
 Fetch stage stalled: 37.7251  Sim cycles: 35778157 fetch stall cycle: 13497341
 Empty decode stage: 20.3304  Sim cycles: 35778157 fetch stall cycle: 7273856
ITLB TOTAL     ACCESS:    5832428  HIT:    5343291  MISS:     489137  HIT %:    91.6135  MISS %:    8.38651   MPKI: 9.78274
ITLB LOAD TRANSLATION INSTRUCTION	ACCESS:    5676710  HIT:    5187573  MISS:     489137  HIT %:    91.3834  MISS %:    8.61656  MPKI: 9.78274
ITLB TRANSLATION FROM L1D PREFETCHER INSTRUCTION	ACCESS:     155718  HIT:     155718  MISS:          0  HIT %:        100  MISS %:          0  MPKI: 0

ITLB AVERAGE MISS LATENCY: 9.05736 cycles
ITLB RQ	ACCESS:    7874862	FORWARD:          0	MERGED:    1525644	TO_CACHE:    6349218

DTLB TOTAL     ACCESS:    8923992  HIT:    8448526  MISS:     475466  HIT %:     94.672  MISS %:    5.32795   MPKI: 9.50932
DTLB LOAD TRANSLATION DATA	ACCESS:    8923992  HIT:    8448526  MISS:     475466  HIT %:     94.672  MISS %:    5.32795  MPKI: 9.50932

DTLB AVERAGE MISS LATENCY: 9.32735 cycles
DTLB RQ	ACCESS:   13282359	FORWARD:          0	MERGED:    4321880	TO_CACHE:    8960479

STLB TOTAL     ACCESS:    1220933  HIT:    1218794  MISS:       2139  HIT %:    99.8248  MISS %:   0.175194   MPKI: 0.04278
STLB LOAD TRANSLATION INSTRUCTION	ACCESS:     489137  HIT:     488894  MISS:        243  HIT %:    99.9503  MISS %:  0.0496793  MPKI: 0.00486
STLB LOAD TRANSLATION DATA	ACCESS:     475466  HIT:     473586  MISS:       1880  HIT %:    99.6046  MISS %:   0.395402  MPKI: 0.0376
STLB TRANSLATION FROM L1D PREFETCHER DATA	ACCESS:     256330  HIT:     256314  MISS:         16  HIT %:    99.9938  MISS %: 0.00624195  MPKI: 0.00032

STLB AVERAGE MISS LATENCY: 71.3104 cycles
STLB RQ	ACCESS:    1363341	FORWARD:          0	MERGED:     142373	TO_CACHE:    1220968

STLB Hit, L1D data hit: 0
STLB Hit, L2C data hit: 0
STLB Hit, LLC data hit: 0
STLB Hit, LLC data miss: 0
STLB STLB hints to L2: 0
L1D TOTAL     ACCESS:   13035592  HIT:   11880441  MISS:    1155151  HIT %:    91.1385  MISS %:    8.86152   MPKI: 23.103
L1D LOAD DATA	ACCESS:    6535488  HIT:    5775558  MISS:     759930  HIT %:    88.3723  MISS %:    11.6277  MPKI: 15.1986
L1D RFO DATA	ACCESS:    6162071  HIT:    5872042  MISS:     290029  HIT %:    95.2933  MISS %:    4.70668  MPKI: 5.80058
L1D PREFETCH DATA	ACCESS:     338033  HIT:     232841  MISS:     105192  HIT %:    68.8811  MISS %:    31.1189  MPKI: 2.10384

L1D PREFETCH  REQUESTED:     797794  ISSUED:     797794  USEFUL:      48224  USELESS:      69188
L1D USEFUL LOAD PREFETCHES:      48224 PREFETCH ISSUED TO LOWER LEVEL:     117450  ACCURACY: 41.0592
 TIMELY PREFETCHES:      48224 LATE PREFETCHES: 12226 DROPPED PREFETCHES: 1
L1D AVERAGE MISS LATENCY: 336402 cycles
L1D RQ	ACCESS:   10676153	FORWARD:          0	MERGED:    3942925	TO_CACHE:    6570541
L1D WQ	ACCESS:    6908677	FORWARD:     163005	MERGED:     196859	TO_CACHE:    6711818
L1D PQ	ACCESS:     399056	FORWARD:          0	MERGED:          0	TO_CACHE:     398738

L1D UNIQUE REGIONS ACCESSED: 0
L1D REGIONS CONFLICTS: 0
L1D Cross Page Prefetch Requests: 6398
L1D Same Page Prefetch Requests: 798667
L1D ROI Sum of L1D PQ occupancy: 5059405
L1D PREFETCHES PUSHED FROM L2C: 0
L1I TOTAL     ACCESS:    7075822  HIT:    4336558  MISS:    2739264  HIT %:     61.287  MISS %:     38.713   MPKI: 54.7853
L1I LOAD INSTRUCTION	ACCESS:    6404703  HIT:    3665439  MISS:    2739264  HIT %:    57.2304  MISS %:    42.7696  MPKI: 54.7853
L1I PREFETCH INSTRUCTION	ACCESS:     671119  HIT:     671119  MISS:          0  HIT %:        100  MISS %:          0  MPKI: 0

L1I PREFETCH  REQUESTED:    1618714  ISSUED:    1618714  USEFUL:          0  USELESS:          0
L1I USEFUL LOAD PREFETCHES:          0 PREFETCH ISSUED TO LOWER LEVEL:          0  ACCURACY: -nan
 TIMELY PREFETCHES:          0 LATE PREFETCHES: 0 DROPPED PREFETCHES: 0
L1I AVERAGE MISS LATENCY: 17.3289 cycles
L1I RQ	ACCESS:    9656587	FORWARD:          0	MERGED:    2975817	TO_CACHE:    6680770
L1I PQ	ACCESS:    1618714	FORWARD:          0	MERGED:     424622	TO_CACHE:    1194092

L1BTB TOTAL     ACCESS:    5680080  HIT:    2079880  MISS:    3600200  HIT %:    36.6171  MISS %:    63.3829   MPKI: 72.004
L1BTB BRANCH_DIRECT_JUMP	ACCESS:     545323 HIT:     144876 MISS:     400447 AVERAGE STALL: 57.0123 AVERAGE FETCH STALL: 14.7341 AVERAGE FETCH QUEUE STALL: 19.8696 AVERAGE DECODE STALL: 21.4746 AVERAGE EXECUTE STALL: 2.17532e+15
L1BTB BRANCH_INDIRECT	ACCESS:     182083 HIT:      65784 MISS:     116299 AVERAGE STALL: 122.931 AVERAGE FETCH STALL: 11.2996 AVERAGE FETCH QUEUE STALL: 22.7249 AVERAGE DECODE STALL: 14.1292 AVERAGE EXECUTE STALL: 73.8157
L1BTB BRANCH_CONDITIONAL	ACCESS:    2736420 HIT:    1453723 MISS:    1282697 AVERAGE STALL: 71.481 AVERAGE FETCH STALL: 25.7432 AVERAGE FETCH QUEUE STALL: 27.4711 AVERAGE DECODE STALL: 17.4624 AVERAGE EXECUTE STALL: 3.02703e+15
L1BTB BRANCH_DIRECT_CALL	ACCESS:     937657 HIT:     105113 MISS:     832544 AVERAGE STALL: 83.006 AVERAGE FETCH STALL: 23.7926 AVERAGE FETCH QUEUE STALL: 35.9533 AVERAGE DECODE STALL: 22.4404 AVERAGE EXECUTE STALL: 7.90349e+15
L1BTB BRANCH_INDIRECT_CALL	ACCESS:     170468 HIT:      21226 MISS:     149242 AVERAGE STALL: 150.549 AVERAGE FETCH STALL: 12.1665 AVERAGE FETCH QUEUE STALL: 21.2708 AVERAGE DECODE STALL: 13.5096 AVERAGE EXECUTE STALL: 103.113
L1BTB BRANCH_RETURN	ACCESS:    1108129 HIT:     289158 MISS:     818971 AVERAGE STALL: 52.5585 AVERAGE FETCH STALL: 16.4911 AVERAGE FETCH QUEUE STALL: 6.47654 AVERAGE DECODE STALL: 6.44849 AVERAGE EXECUTE STALL: 4.3123e+14
L1BTB BRANCH_OTHER ACCESS:          0 HIT:          0 MISS:          0 AVERAGE STALL: -nan AVERAGE FETCH STALL: -nan AVERAGE FETCH QUEUE STALL: -nan AVERAGE DECODE STALL: -nan AVERAGE EXECUTE STALL: -nan
L1BTB TOTAL ROB OCCUPANCY AT BTB MISS: 2.98867

L2BTB TOTAL     ACCESS:    3574953  HIT:    3507864  MISS:      67089  HIT %:    98.1234  MISS %:    1.87664   MPKI: 1.34178
L2BTB BRANCH_DIRECT_JUMP	ACCESS:     396276 HIT:     391954 MISS:       4322 AVERAGE STALL: 57.0123 AVERAGE FETCH STALL: 14.7341 AVERAGE FETCH QUEUE STALL: 19.8696 AVERAGE DECODE STALL: 21.4746 AVERAGE EXECUTE STALL: 2.17532e+15
L2BTB BRANCH_INDIRECT	ACCESS:     106130 HIT:     103468 MISS:       2662 AVERAGE STALL: 122.931 AVERAGE FETCH STALL: 11.2996 AVERAGE FETCH QUEUE STALL: 22.7249 AVERAGE DECODE STALL: 14.1292 AVERAGE EXECUTE STALL: 73.8157
L2BTB BRANCH_CONDITIONAL	ACCESS:    1282697 HIT:    1276529 MISS:       6168 AVERAGE STALL: 71.481 AVERAGE FETCH STALL: 25.7432 AVERAGE FETCH QUEUE STALL: 27.4711 AVERAGE DECODE STALL: 17.4624 AVERAGE EXECUTE STALL: 3.02703e+15
L2BTB BRANCH_DIRECT_CALL	ACCESS:     832544 HIT:     830182 MISS:       2362 AVERAGE STALL: 83.006 AVERAGE FETCH STALL: 23.7926 AVERAGE FETCH QUEUE STALL: 35.9533 AVERAGE DECODE STALL: 22.4404 AVERAGE EXECUTE STALL: 7.90349e+15
L2BTB BRANCH_INDIRECT_CALL	ACCESS:     139729 HIT:     129559 MISS:      10170 AVERAGE STALL: 150.549 AVERAGE FETCH STALL: 12.1665 AVERAGE FETCH QUEUE STALL: 21.2708 AVERAGE DECODE STALL: 13.5096 AVERAGE EXECUTE STALL: 103.113
L2BTB BRANCH_RETURN	ACCESS:     817577 HIT:     776172 MISS:      41405 AVERAGE STALL: 52.5585 AVERAGE FETCH STALL: 16.4911 AVERAGE FETCH QUEUE STALL: 6.47654 AVERAGE DECODE STALL: 6.44849 AVERAGE EXECUTE STALL: 4.3123e+14
L2BTB BRANCH_OTHER ACCESS:          0 HIT:          0 MISS:          0 AVERAGE STALL: -nan AVERAGE FETCH STALL: -nan AVERAGE FETCH QUEUE STALL: -nan AVERAGE DECODE STALL: -nan AVERAGE EXECUTE STALL: -nan
L2BTB TOTAL ROB OCCUPANCY AT BTB MISS: 160.381

L2C TOTAL     ACCESS:    4512235  HIT:    4035514  MISS:     476721  HIT %:    89.4349  MISS %:    10.5651   MPKI: 9.53442
L2C LOAD INSTRUCTION	ACCESS:    2739264  HIT:    2480185  MISS:     259079  HIT %:     90.542  MISS %:    9.45798  MPKI: 5.18158
L2C LOAD TRANSLATION INSTRUCTION	ACCESS:        283  HIT:         71  MISS:        212  HIT %:    25.0883  MISS %:    74.9117  MPKI: 0.00424
L2C LOAD DATA	ACCESS:     747677  HIT:     666654  MISS:      81023  HIT %:    89.1634  MISS %:    10.8366  MPKI: 1.62046
L2C RFO DATA	ACCESS:     289973  HIT:     241672  MISS:      48301  HIT %:    83.3429  MISS %:    16.6571  MPKI: 0.96602
L2C PREFETCH DATA	ACCESS:     206525  HIT:     132105  MISS:      74420  HIT %:    63.9656  MISS %:    36.0344  MPKI: 1.4884
L2C WRITEBACK DATA	ACCESS:     526513  HIT:     514202  MISS:      12311  HIT %:    97.6618  MISS %:    2.33821  MPKI: 0.24622
L2C LOAD TRANSLATION DATA	ACCESS:       1973  HIT:        607  MISS:       1366  HIT %:    30.7653  MISS %:    69.2347  MPKI: 0.02732
L2C TRANSLATION FROM L1D PREFETCHER DATA	ACCESS:         27  HIT:         18  MISS:          9  HIT %:    66.6667  MISS %:    33.3333  MPKI: 0.00018

L2C PREFETCH  REQUESTED:      97307  ISSUED:      97307  USEFUL:       8658  USELESS:      66456
L2C USEFUL LOAD PREFETCHES:       8658 PREFETCH ISSUED TO LOWER LEVEL:      74918  ACCURACY: 11.5566
 TIMELY PREFETCHES:       8658 LATE PREFETCHES: 498 DROPPED PREFETCHES: 0
L2C AVERAGE MISS LATENCY: 39.6149 cycles
L2C RQ	ACCESS:    3779247	FORWARD:          0	MERGED:          0	TO_CACHE:    3779199
L2C WQ	ACCESS:     526513	FORWARD:         49	MERGED:          0	TO_CACHE:     526513
L2C PQ	ACCESS:     214757	FORWARD:          0	MERGED:       3771	TO_CACHE:     210985

L2C Dense regions hint from L2: 0
PSCL5 TOTAL     ACCESS:       4286  HIT:       2143  MISS:       2143  HIT %:         50  MISS %:         50   MPKI: 0.04286
PSCL5 LOAD TRANSLATION INSTRUCTION	ACCESS:       4232  HIT:       2116  MISS:       2116  HIT %:         50  MISS %:         50  MPKI: 0.04232
PSCL5 TRANSLATION FROM L1D PREFETCHER INSTRUCTION	ACCESS:         54  HIT:         27  MISS:         27  HIT %:         50  MISS %:         50  MPKI: 0.00054


PSCL4 TOTAL     ACCESS:       4103  HIT:       2045  MISS:       2058  HIT %:    49.8416  MISS %:    50.1584   MPKI: 0.04116
PSCL4 LOAD TRANSLATION INSTRUCTION	ACCESS:       2686  HIT:       2018  MISS:        668  HIT %:    75.1303  MISS %:    24.8697  MPKI: 0.01336
PSCL4 TRANSLATION FROM L1D PREFETCHER INSTRUCTION	ACCESS:         39  HIT:         27  MISS:         12  HIT %:    69.2308  MISS %:    30.7692  MPKI: 0.00024
PSCL4 LOAD TRANSLATION DATA	ACCESS:       1363  HIT:          0  MISS:       1363  HIT %:          0  MISS %:        100  MPKI: 0.02726
PSCL4 TRANSLATION FROM L1D PREFETCHER DATA	ACCESS:         15  HIT:          0  MISS:         15  HIT %:          0  MISS %:        100  MPKI: 0.0003


PSCL3 TOTAL     ACCESS:       4159  HIT:       2073  MISS:       2086  HIT %:    49.8437  MISS %:    50.1563   MPKI: 0.04172
PSCL3 LOAD TRANSLATION INSTRUCTION	ACCESS:       2714  HIT:       2046  MISS:        668  HIT %:    75.3869  MISS %:    24.6131  MPKI: 0.01336
PSCL3 TRANSLATION FROM L1D PREFETCHER INSTRUCTION	ACCESS:         39  HIT:         27  MISS:         12  HIT %:    69.2308  MISS %:    30.7692  MPKI: 0.00024
PSCL3 LOAD TRANSLATION DATA	ACCESS:       1391  HIT:          0  MISS:       1391  HIT %:          0  MISS %:        100  MPKI: 0.02782
PSCL3 TRANSLATION FROM L1D PREFETCHER DATA	ACCESS:         15  HIT:          0  MISS:         15  HIT %:          0  MISS %:        100  MPKI: 0.0003


PSCL2 TOTAL     ACCESS:       4172  HIT:       2029  MISS:       2143  HIT %:    48.6337  MISS %:    51.3663   MPKI: 0.04286
PSCL2 LOAD TRANSLATION INSTRUCTION	ACCESS:       2245  HIT:       2002  MISS:        243  HIT %:    89.1759  MISS %:    10.8241  MPKI: 0.00486
PSCL2 TRANSLATION FROM L1D PREFETCHER INSTRUCTION	ACCESS:         27  HIT:         27  MISS:          0  HIT %:        100  MISS %:          0  MPKI: 0
PSCL2 LOAD TRANSLATION DATA	ACCESS:       1873  HIT:          0  MISS:       1873  HIT %:          0  MISS %:        100  MPKI: 0.03746
PSCL2 TRANSLATION FROM L1D PREFETCHER DATA	ACCESS:         27  HIT:          0  MISS:         27  HIT %:          0  MISS %:        100  MPKI: 0.00054


LLC TOTAL     ACCESS:     534330  HIT:     503332  MISS:      30998  HIT %:    94.1987  MISS %:    5.80128   MPKI: 0.61996
LLC LOAD INSTRUCTION	ACCESS:     259079  HIT:     257959  MISS:       1120  HIT %:    99.5677  MISS %:   0.432301  MPKI: 0.0224
LLC LOAD TRANSLATION INSTRUCTION	ACCESS:        212  HIT:        175  MISS:         37  HIT %:    82.5472  MISS %:    17.4528  MPKI: 0.00074
LLC LOAD DATA	ACCESS:      80556  HIT:      76982  MISS:       3574  HIT %:    95.5633  MISS %:    4.43667  MPKI: 0.07148
LLC RFO DATA	ACCESS:      48263  HIT:      32726  MISS:      15537  HIT %:    67.8076  MISS %:    32.1924  MPKI: 0.31074
LLC PREFETCH DATA	ACCESS:      74918  HIT:      64721  MISS:      10197  HIT %:    86.3891  MISS %:    13.6109  MPKI: 0.20394
LLC WRITEBACK DATA	ACCESS:      69927  HIT:      69463  MISS:        464  HIT %:    99.3365  MISS %:   0.663549  MPKI: 0.00928
LLC LOAD TRANSLATION DATA	ACCESS:       1366  HIT:       1297  MISS:         69  HIT %:    94.9488  MISS %:    5.05124  MPKI: 0.00138
LLC TRANSLATION FROM L1D PREFETCHER DATA	ACCESS:          9  HIT:          9  MISS:          0  HIT %:        100  MISS %:          0  MPKI: 0

LLC AVERAGE MISS LATENCY: 158.119 cycles
LLC RQ	ACCESS:     389492	FORWARD:          0	MERGED:          0	TO_CACHE:     389485
LLC WQ	ACCESS:      69927	FORWARD:          7	MERGED:          0	TO_CACHE:      69927
LLC PQ	ACCESS:      74918	FORWARD:          0	MERGED:          0	TO_CACHE:      74918

LLC Dense regions hint to LLC: 0

RAW hits: 1937633
Loads Generated: 12613786
Loads sent to L1D: 10676153
Stores Generated: 6908661
Stores sent to L1D: 6908677
Major fault: 0 Minor fault: 2570
Allocated PAGES: 2570

stream: 
stream:times selected: 1240650
stream:pref_filled: 126444
stream:pref_useful: 29322
stream:pref_late: 8727
stream:misses: 10509
stream:misses_by_poll: 0

CS: 
CS:times selected: 193388
CS:pref_filled: 71125
CS:pref_useful: 49918
CS:pref_late: 9313
CS:misses: 23679
CS:misses_by_poll: 13

CPLX: 
CPLX:times selected: 1046144
CPLX:pref_filled: 24581
CPLX:pref_useful: 7752
CPLX:pref_late: 3817
CPLX:misses: 126670
CPLX:misses_by_poll: 4

NL_L1: 
NL:times selected: 13276
NL:pref_filled: 1582
NL:pref_useful: 209
NL:pref_late: 532
NL:misses: 1622
NL:misses_by_poll: 0

total selections: 2493458
total_filled: 105192
total_useful: 48224
total_late: 24619
total_polluted: 17
total_misses_after_warmup: 794984
conflicts: 5488626

test: 119038

DRAM Statistics
 CHANNEL 0
 RQ ROW_BUFFER_HIT:      11453  ROW_BUFFER_MISS:      19066
 DBUS_CONGESTED:         10
 WQ ROW_BUFFER_HIT:       1538  ROW_BUFFER_MISS:      12832  FULL:          0

 AVG_CONGESTED_CYCLE: 5

CPU 0 Branch Prediction Accuracy: 99.8199% MPKI: 0.32972 Average ROB Occupancy at Mispredict: 199.118
Branch types
NOT_BRANCH: 40847115 81.6942%
BRANCH_DIRECT_JUMP: 545323 1.09065%
BRANCH_INDIRECT: 182083 0.364166%
BRANCH_CONDITIONAL: 6209198 12.4184%
BRANCH_DIRECT_CALL: 937657 1.87531%
BRANCH_INDIRECT_CALL: 170468 0.340936%
BRANCH_RETURN: 1108129 2.21626%
BRANCH_OTHER: 0 0%

DRAM PAGES: 1048576
Allocated PAGES: 2570
Average_ROB_Occupancy: 257.115
Average_Decode_Occupancy: 39.8447
Average_FTQ_Occupancy: 16.0849
Indirect max targets: 14 Average targets: 1.15203
Branch_type:  BRANCH_DIRECT_JUMP:  Count Percentage: 2.35948 7.00097 8.80875 3.52623 4.02204 6.01203 7.63153 60.639 
Branch_type:  BRANCH_INDIRECT:  Count Percentage: 11.7714 11.0834 10.216 3.75038 1.33781 17.7091 16.4197 27.7122 
Branch_type:  BRANCH_CONDITIONAL:  Count Percentage: 26.4409 3.87116 2.70042 6.22202 2.01535 5.19835 5.26561 48.2862 
Branch_type:  BRANCH_DIRECT_CALL:  Count Percentage: 0.388977 1.96547 1.14688 2.45343 3.23197 3.6444 5.8429 81.326 
Branch_type:  BRANCH_INDIRECT_CALL:  Count Percentage: 9.52249 0 2.98541 10.6518 0 2.84391 2.84654 71.1498 
Branch_type:  BRANCH_RETURN:  Count Percentage: 7.99748 3.25614 2.74101 7.80615 3.08488 7.20024 6.04609 61.868 
Branch_type:  BRANCH_DIRECT_JUMP:  Total Count: 25703 76265 95958 38413 43814 65492 83134 660570 
Branch_type:  BRANCH_INDIRECT:  Total Count: 42737 40239 37090 13616 4857 64294 59613 100611 
Branch_type:  BRANCH_CONDITIONAL:  Total Count: 3281680 480465 335160 772239 250133 645188 653536 5992992 
Branch_type:  BRANCH_DIRECT_CALL:  Total Count: 7313 36952 21562 46126 60763 68517 109850 1528977 
Branch_type:  BRANCH_INDIRECT_CALL:  Total Count: 32573 0 10212 36436 0 9728 9737 243378 
Branch_type:  BRANCH_RETURN:  Total Count: 177779 72382 60931 173526 68575 160057 134401 1375288 
Number of unique branch instructions: 10200
Upper 32 bits: 
aaaa
ffff
ffff0000
Unique upper 32 bits: 3
Unique upper 36 bits: 3
Unique upper 40 bits: 5
Unique upper 44 bits: 32
Unique upper 48 bits: 153
Variant_0 : 1394 0.340332
Variant_1 : 2664 0.650391
Variant_2 : 0 0
Variant_3 : 0 0
Offset_3 4226
Offset_4 259
Offset_5 466
Offset_6 521
Offset_7 604
Offset_8 541
Offset_9 477
Offset_10 399
Offset_11 335
Offset_12 281
Offset_13 211
Offset_14 227
Offset_15 193
Offset_16 223
Offset_17 159
Offset_18 130
Offset_19 240
Offset_20 139
Offset_21 235
Offset_22 402
Offset_23 247
Offset_24 337
Offset_25 88
Offset_47 84
Offset_64 5
decode_dispatch_called: 26580327 74.2921
Dispatch_width: 0 14276959 53.7125 39.9041
Dispatch_width: 1 1054315 3.96652 2.94681
Dispatch_width: 2 867964 3.26544 2.42596
Dispatch_width: 3 495747 1.86509 1.38561
Dispatch_width: 4 6749715 25.3936 18.8655
Dispatch_width: 5 90106 0.338995 0.251846
Dispatch_width: 6 3045521 11.4578 8.51224
Empty_decode_cycles: 9197830 25.7079
ROB_full_cycles: 10706260 29.924
Starvation_cycles_per_kilo_instr: 220.264
Starvation_cycles_per_kilo_instr_3: 151.866
Starvation_cycles_per_kilo_instr_0: 127.685
Branch_type_1  (3,1)  (4,9)  (5,36)  (6,71)  (7,120)  (8,136)  (9,127)  (10,103)  (11,76)  (12,44)  (13,5)  (14,2)  (15,3)  (16,4)  (18,1)  (19,4)  (20,2)  (21,1)  (22,3)  (23,2)  (24,10)  (25,12) 
Branch_type_2  (3,1)  (5,1)  (8,3)  (9,3)  (12,1)  (13,1)  (14,1)  (16,3)  (17,2)  (20,2)  (21,2)  (23,5)  (24,1)  (47,39) 
Branch_type_3  (3,4224)  (4,250)  (5,425)  (6,433)  (7,451)  (8,337)  (9,259)  (10,163)  (11,140)  (12,53)  (13,4)  (64,2) 
Branch_type_4  (6,4)  (7,8)  (8,31)  (9,51)  (10,64)  (11,60)  (12,102)  (13,92)  (14,99)  (15,92)  (16,100)  (17,74)  (18,60)  (19,117)  (20,71)  (21,124)  (22,214)  (23,139)  (24,198)  (25,72)  (64,2) 
Branch_type_5  (8,2)  (9,1)  (10,3)  (11,5)  (12,3)  (13,14)  (14,16)  (15,11)  (16,20)  (17,11)  (18,16)  (19,12)  (20,11)  (21,13)  (22,42)  (23,26)  (24,36) 
Branch_type_6  (5,4)  (6,13)  (7,25)  (8,32)  (9,36)  (10,66)  (11,54)  (12,78)  (13,95)  (14,109)  (15,87)  (16,96)  (17,72)  (18,53)  (19,107)  (20,53)  (21,95)  (22,143)  (23,75)  (24,92)  (25,4)  (47,45)  (64,1) 
Unique trigger count: 
Variant_0_evicts_0 : 0
Variant_0_evicts_1 : 0
Variant_0_evicts_2 : 0
Variant_0_evicts_3 : 0
Variant_1_evicts_0 : 0
Variant_1_evicts_1 : 0
Variant_1_evicts_2 : 0
Variant_1_evicts_3 : 0
Variant_2_evicts_0 : 0
Variant_2_evicts_1 : 0
Variant_2_evicts_2 : 0
Variant_2_evicts_3 : 0
Variant_3_evicts_0 : 0
Variant_3_evicts_1 : 0
Variant_3_evicts_2 : 0
Variant_3_evicts_3 : 0
BTB PER SET UNIQUE ADDR: 10 13 10 11 9 8 8 8 9 11 12 11 9 10 12 9 11 12 8 9 11 10 13 12 10 12 10 13 10 10 12 12 10 8 9 13 8 12 7 10 11 9 9 15 11 10 9 10 12 12 12 10 8 10 11 9 12 8 8 15 12 10 11 13 10 10 12 12 11 9 11 11 10 7 12 10 9 16 6 16 8 8 10 15 10 12 12 8 8 14 10 8 13 10 8 15 9 7 10 11 18 12 10 10 9 9 10 11 9 5 8 12 13 12 12 7 10 6 10 16 13 10 9 10 10 12 5 10 14 10 8 10 10 13 8 8 8 10 12 13 11 9 10 6 11 16 15 11 8 15 10 10 6 8 10 9 12 13 11 12 9 8 9 9 13 10 13 10 10 8 9 9 12 11 11 10 8 10 12 11 10 6 12 11 14 11 5 9 10 13 13 10 13 11 10 11 6 9 11 13 13 13 9 9 11 8 12 10 10 11 10 10 12 13 8 7 13 11 9 13 5 12 6 10 9 10 12 13 7 14 11 7 10 10 9 9 14 14 12 9 10 10 15 14 9 10 10 11 13 13 14 12 12 5 10 15 9 11 9 9 13 8 4 14 11 9 9 9 6 7 11 9 10 8 7 10 10 12 11 6 12 8 12 8 11 7 12 15 13 9 9 10 8 15 6 9 9 9 10 9 6 13 9 16 11 11 9 7 13 14 9 14 8 13 10 10 15 10 9 13 7 13 12 9 15 13 8 12 11 8 14 16 12 10 10 13 10 11 7 11 11 10 8 9 10 12 12 8 13 14 13 10 9 13 9 12 9 11 7 10 9 10 12 16 8 12 8 12 12 9 11 8 11 13 14 12 12 14 11 12 10 9 10 9 7 11 11 14 12 11 9 9 9 14 11 13 10 9 12 12 12 11 12 10 13 11 10 13 10 8 10 10 9 16 11 9 10 11 12 16 9 12 11 16 12 7 16 9 8 9 12 11 11 15 11 15 13 12 13 13 15 7 9 14 18 8 9 11 13 14 13 13 10 7 13 13 16 11 11 17 9 9 12 11 17 5 12 9 10 11 14 12 12 13 12 14 7 16 10 13 15 11 12 13 10 11 14 11 10 9 7 13 11 11 9 7 14 12 7 11 11 8 8 13 12 6 6 16 10 11 11 15 11 9 11 16 10 9 8 9 10 9 9 12 12 15 14 7 7 13 9 12 11 8 11 10 8 11 13 9 11 11 8 11 14 11 11 11 9 8 12 13 12 9 7 13 11 12 15 14 9 12 11 10 9 14 13 7 6 12 6 11 10 15 9 9 11 11 9 7 11 12 6 9 13 12 10 9 16 10 9 14 12 11 9 10 8 11 12 13 10 11 10 9 9 9 17 13 10 9 13 16 11 9 7 10 10 9 8 10 13 10 8 10 12 12 9 13 12 12 6 12 10 11 14 9 11 16 7 16 8 10 9 11 8 10 11 15 16 7 12 12 7 13 13 10 12 11 10 11 8 7 7 14 11 11 9 11 12 12 12 7 10 10 14 8 15 13 8 16 10 11 7 11 11 10 7 14 12 10 10 14 7 8 10 8 12 13 9 11 10 13 8 11 7 16 11 8 10 10 8 12 10 12 8 11 13 7 7 15 11 15 10 12 10 11 11 9 7 12 13 8 13 12 7 10 12 11 18 14 11 10 9 15 12 11 10 13 10 8 10 9 8 8 8 14 13 8 9 9 16 8 9 13 6 16 6 11 9 12 13 11 13 9 10 13 13 11 13 11 8 12 11 8 8 10 11 11 8 11 6 7 12 12 10 10 11 7 10 10 11 15 12 14 13 7 14 8 11 13 9 18 13 9 11 12 14 14 7 13 8 16 9 15 14 13 9 10 8 13 13 14 17 9 12 13 13 8 11 10 17 12 7 10 9 15 11 16 13 13 11 11 10 10 12 12 12 11 12 12 11 8 11 7 13 10 10 8 10 12 12 17 13 9 10 9 15 10 7 12 9 7 9 14 15 10 13 9 9 10 12 8 12 10 8 10 19 13 8 8 12 12 14 11 6 14 7 11 12 12 7 13 10 12 16 10 14 15 10 9 7 8 13 10 11 11 7 13 9 8 15 12 11 10 13 14 8 10 12 16 7 10 10 13 8 8 12 13 12 11 10 9 12 8 9 12 7 12 12 10 9 11 10 13 10 10 11 10 13 14 11 12 10 10 14 9 12 12 11 15 11 11 10 12 10 11 16 11 12 10 17 8 11 9 12 10 8 12 16 10 15 11 10 10 11 9 12 11 12 15 12 13 8 13 18 13 8 9 8 8 9 14 11 12 
BTB PER SET COUNT: 981 22 1487 13 9 10 11 155 1121 12 18 401 9 29 16 11 2063 16 15 28 23 132 786 34 20 17 13 24 12 1137 455 75 10 8 10 421 9 15 8 12 16 14 9 592 472 10 25 12 110 16 18 11 8 51 15 363 26 10 510 24 16 11 123 15 11 10 16 2444 14 11 18 14 12 9 17 14 14 23 6 17 19 10 18 22 13 13 14 18 8 24 14 773 249 576 15 16 9 953 15 15 25 16 14 12 3213 13 12 13 1461 2101 11 33 1589 14 16 13 18 6 422 543 19 12 13 12 10 112 5 1944 20 750 20 11 11 16 13 13 468 12 17 17 13 12 12 6 13 223 1477 15 9 19 17 10 7 8 13 10 120 16 13 15 13 10 9 14 45 1170 17 10 11 1819 13 14 15 12 12 10 10 11 16 492 114 233 17 17 22 16 6 13 172 481 25 12 15 14 10 13 6 12 21 17 19 81 232 11 12 8 15 15 40 268 13 20 19 17 9 982 13 11 2247 15 7 16 6 13 10 21 15 57 8 19 14 8 12 22 719 15954 26 306 27 9 13 13 535 484 15 14 1460 14 15 19 17 19 14 5 14 21 62 17 9 11 529 8 4 503 11 10 11 9 10 8 11 9 512 12 7 11 14 15 14 13 23 9 21 8 11 7 15 18 22 10 10 16 12 1451 7 9 9 12 11 702 6 14 11 30 11 14 9 144 16 24 18 20 10 17 11 22 19 14 13 23 8 3592 19 13 16 1122 514 13 17 9 24 23 27 14 13 13 12 13 7 12 11 176 10 9 16 29 14 12 18 195 494 11 14 15 14 13 11 12 8 11 15 21 13 18 11 2903 11 14 14 9 25 21 15 19 308 292 17 18 13 1475 14 10 23 9 7 13 12 16 17 1074 15 9 12 15 15 14 13 9 21 1631 12 19 19 14 20 13 10 494 12 17 11 11 9 24 14 9 12 16 13 28 10 14 18 19 16 8 1736 11 17 10 16 15 12 19 125 25 21 217 16 16 19 7 51 18 618 10 1053 11 15 17 129 19 16 7 391 127 23 14 12 26 9 10 15 11 34 5 4653 13 11 14 16 14 14 14 15 17 7 205 15 19 23 570 13 15 10 12 513 12 14 21 984 16 15 18 12 7 1477 956 7 14 42 9 10 17 18 7 8 23 14 14 17 42 1468 749 16 19 10 10 8 9 12 12 9 15 16 26 420 8 10 116 13 15 12 10 16 15 9 986 18 10 16 11 34 14 16 14 13 15 15 1649 17 20 15 21 9 16 36 12 21 15 15 24 12 13 239 18 148 10 6 16 7 14 13 21 1471 12 13 15 9 9 13 16 6 836 15 17 10 10 22 16 12 16 16 11 13 15 16 1119 235 16 13 22 13 12 9 15 22 2923 12 10 15 18 125 12 9 24 440 11 10 10 21 11 10 53 15 17 14 17 1016 17 6 24 980 13 16 13 16 21 8 21 9 16 11 12 8 20 359 17 22 7 15 16 7 15 23 494 17 13 12 1008 11 8 7 16 4491 23 12 986 28 21 26 7 38 13 81 13 23 16 8 21 11 13 1465 11 110 10 10 22 327 10 13 14 7 9 2406 10 544 267 13 15 888 19 1467 11 11 258 17 8 12 12 189 24 980 13 9 15 205 7 7 84 13 397 10 165 12 19 13 11 967 2256 166 10458 52 19 14 1958 439 16 21 21 484 14 200 21 565 15 10 13 12 10 1477 14 8 1467 1465 14 15 9 12 9 23 10 9 19 2906 22 6 534 13 193 17 14 15 13 18 15 15 14 31 14 1606 15 267 8 8 12 14 11 12 20 7 466 16 18 1335 15 182 14 10 1334 15 21 502 188 533 9 21 10 13 56 9 7784 16 10 16 1069 21 2477 12 2939 9 1203 13 26 824 35 16 10 9 21 14 156 20 9 55 1310 17 12 18 11 22 1104 8 18 699 22 90 21 13 21 12 797 10 13 49 15 18 14 14 14 17 1320 15 10 18 11 12 13 14 14 41 36 15 9 13 10 19 13 7 18 9 10 62 18 22 12 14 9 11 25 18 10 884 67 9 14 24 21 13 10 17 13 15 13 9 16 8 14 23 14 8 25 17 17 30 11 997 473 11 12 8 979 19 1469 12 15 9 18 10 47 21 16 428 12 16 26 8 11 16 21 9 24 11 13 9 8 106 17 33 12 453 53 240 12 14 16 7 16 14 13 9 13 978 17 11 19 14 13 88 16 68 164 13 11 369 10 20 14 238 19 1019 16 10 17 17 21 19 13 19 16 31 10 21 13 16 12 12 330 34 13 20 346 11 11 14 11 13 16 17 19 877 636 14 19 26 17 10 350 10 12 13 18 12 17 
To predecode: 0
Predecoding something: 0
Predecode request dropped: 0
sizeofblock_0 0
sizeofblock_1 54033
sizeofblock_2 87011
sizeofblock_3 0
sizeofblock_4 0
sizeofblock_5 0
sizeofblock_6 0
sizeofblock_7 0
sizeofblock_8 0
Variant_0 Correct: 1604175 Incorrect: 0 Accuracy: 1
Variant_1 Correct: 5701038 Incorrect: 0 Accuracy: 1
Variant_2 Correct: 0 Incorrect: 0 Accuracy: -nan
Variant_3 Correct: 0 Incorrect: 0 Accuracy: -nan
