
*** ChampSim Multicore Out-of-Order Simulator ***

Warmup Instructions: 50000000
Simulation Instructions: 50000000
Number of CPUs: 1
LLC sets: 2048
LLC ways: 16
Off-chip DRAM Size: 4096 MB Channels: 1 Width: 64-bit Data Rate: 6400 MT/s
CPU 0 runs ./micro_traces/srv74.trace.gz
.gz
ITLB has LRU replacement policy
DTLB has LRU replacement policy
STLB has LRU replacement policy
FDIP Prefetcher at L1I
L1I has LRU replacement policy
L1D has LRU replacement policy
Initialize SRRIP state for L2C
Initialize DRRIP state for LLC
Heartbeat_Variant_0 : 1296 0.316406 per_variant_size: 0 1296 0 0 0 0 0 0 0 
Heartbeat_Variant_1 : 2473 0.60376 per_variant_size: 0 585 1888 0 0 0 0 0 0 
Heartbeat_Variant_2 : 0 0 per_variant_size: 0 0 0 0 0 0 0 0 0 
Heartbeat_Variant_3 : 0 0 per_variant_size: 0 0 0 0 0 0 0 0 0 
Heartbeat_Variant_0_evicts 0 : 5798 1 : 357 2 : 0 3 : 0 
Heartbeat_Variant_1_evicts 0 : 332 1 : 0 2 : 0 3 : 0 
Heartbeat_Variant_2_evicts 0 : 0 1 : 0 2 : 0 3 : 0 
Heartbeat_Variant_3_evicts 0 : 0 1 : 0 2 : 0 3 : 0 
Heartbeat CPU 0 instructions: 10000003 cycles: 2796810 heartbeat IPC: 3.5755 cumulative IPC: 3.5755 (Simulation time: 0 hr 1 min 39 sec) 
Heartbeat_Variant_0 : 1351 0.329834 per_variant_size: 0 1351 0 0 0 0 0 0 0 
Heartbeat_Variant_1 : 2586 0.631348 per_variant_size: 0 523 2063 0 0 0 0 0 0 
Heartbeat_Variant_2 : 0 0 per_variant_size: 0 0 0 0 0 0 0 0 0 
Heartbeat_Variant_3 : 0 0 per_variant_size: 0 0 0 0 0 0 0 0 0 
Heartbeat_Variant_0_evicts 0 : 5895 1 : 348 2 : 0 3 : 0 
Heartbeat_Variant_1_evicts 0 : 338 1 : 0 2 : 0 3 : 0 
Heartbeat_Variant_2_evicts 0 : 0 1 : 0 2 : 0 3 : 0 
Heartbeat_Variant_3_evicts 0 : 0 1 : 0 2 : 0 3 : 0 
Heartbeat CPU 0 instructions: 20000001 cycles: 5594148 heartbeat IPC: 3.57483 cumulative IPC: 3.57516 (Simulation time: 0 hr 3 min 6 sec) 
Heartbeat_Variant_0 : 1369 0.334229 per_variant_size: 0 1369 0 0 0 0 0 0 0 
Heartbeat_Variant_1 : 2672 0.652344 per_variant_size: 0 439 2233 0 0 0 0 0 0 
Heartbeat_Variant_2 : 0 0 per_variant_size: 0 0 0 0 0 0 0 0 0 
Heartbeat_Variant_3 : 0 0 per_variant_size: 0 0 0 0 0 0 0 0 0 
Heartbeat_Variant_0_evicts 0 : 5960 1 : 801 2 : 0 3 : 0 
Heartbeat_Variant_1_evicts 0 : 810 1 : 0 2 : 0 3 : 0 
Heartbeat_Variant_2_evicts 0 : 0 1 : 0 2 : 0 3 : 0 
Heartbeat_Variant_3_evicts 0 : 0 1 : 0 2 : 0 3 : 0 
Heartbeat CPU 0 instructions: 30000002 cycles: 8390984 heartbeat IPC: 3.57547 cumulative IPC: 3.57527 (Simulation time: 0 hr 4 min 34 sec) 
Heartbeat_Variant_0 : 1369 0.334229 per_variant_size: 0 1369 0 0 0 0 0 0 0 
Heartbeat_Variant_1 : 2691 0.656982 per_variant_size: 0 434 2257 0 0 0 0 0 0 
Heartbeat_Variant_2 : 0 0 per_variant_size: 0 0 0 0 0 0 0 0 0 
Heartbeat_Variant_3 : 0 0 per_variant_size: 0 0 0 0 0 0 0 0 0 
Heartbeat_Variant_0_evicts 0 : 5758 1 : 404 2 : 0 3 : 0 
Heartbeat_Variant_1_evicts 0 : 405 1 : 0 2 : 0 3 : 0 
Heartbeat_Variant_2_evicts 0 : 0 1 : 0 2 : 0 3 : 0 
Heartbeat_Variant_3_evicts 0 : 0 1 : 0 2 : 0 3 : 0 
Heartbeat CPU 0 instructions: 40000002 cycles: 11186804 heartbeat IPC: 3.57677 cumulative IPC: 3.57564 (Simulation time: 0 hr 5 min 57 sec) 
Heartbeat_Variant_0 : 1372 0.334961 per_variant_size: 0 1372 0 0 0 0 0 0 0 
Heartbeat_Variant_1 : 2694 0.657715 per_variant_size: 0 421 2273 0 0 0 0 0 0 
Heartbeat_Variant_2 : 0 0 per_variant_size: 0 0 0 0 0 0 0 0 0 
Heartbeat_Variant_3 : 0 0 per_variant_size: 0 0 0 0 0 0 0 0 0 
Heartbeat_Variant_0_evicts 0 : 5707 1 : 251 2 : 0 3 : 0 
Heartbeat_Variant_1_evicts 0 : 248 1 : 0 2 : 0 3 : 0 
Heartbeat_Variant_2_evicts 0 : 0 1 : 0 2 : 0 3 : 0 
Heartbeat_Variant_3_evicts 0 : 0 1 : 0 2 : 0 3 : 0 
Heartbeat CPU 0 instructions: 50000002 cycles: 13982182 heartbeat IPC: 3.57733 cumulative IPC: 3.57598 (Simulation time: 0 hr 7 min 26 sec) 

Warmup complete CPU 0 instructions: 50000002 cycles: 13982182 (Simulation time: 0 hr 7 min 26 sec) 

Cycle: 20000000 FTQ IN: 58461865 FTQ occupancy: 20.5578 DECODE IN: 58461865 DECODE occupancy: 53.6548 ROB IN: 58461864 ROB occupancy: 319.43 ROB OUT: 58461764
Heartbeat_Variant_0 : 1372 0.334961 per_variant_size: 0 1372 0 0 0 0 0 0 0 
Heartbeat_Variant_1 : 2695 0.657959 per_variant_size: 0 425 2270 0 0 0 0 0 0 
Heartbeat_Variant_2 : 0 0 per_variant_size: 0 0 0 0 0 0 0 0 0 
Heartbeat_Variant_3 : 0 0 per_variant_size: 0 0 0 0 0 0 0 0 0 
Heartbeat_Variant_0_evicts 0 : 5619 1 : 26 2 : 0 3 : 0 
Heartbeat_Variant_1_evicts 0 : 27 1 : 0 2 : 0 3 : 0 
Heartbeat_Variant_2_evicts 0 : 0 1 : 0 2 : 0 3 : 0 
Heartbeat_Variant_3_evicts 0 : 0 1 : 0 2 : 0 3 : 0 
Heartbeat CPU 0 instructions: 60000001 cycles: 21090695 heartbeat IPC: 1.40676 cumulative IPC: 1.40676 (Simulation time: 0 hr 9 min 10 sec) 
Heartbeat_Variant_0 : 1378 0.336426 per_variant_size: 0 1378 0 0 0 0 0 0 0 
Heartbeat_Variant_1 : 2694 0.657715 per_variant_size: 0 417 2277 0 0 0 0 0 0 
Heartbeat_Variant_2 : 0 0 per_variant_size: 0 0 0 0 0 0 0 0 0 
Heartbeat_Variant_3 : 0 0 per_variant_size: 0 0 0 0 0 0 0 0 0 
Heartbeat_Variant_0_evicts 0 : 5761 1 : 324 2 : 0 3 : 0 
Heartbeat_Variant_1_evicts 0 : 318 1 : 0 2 : 0 3 : 0 
Heartbeat_Variant_2_evicts 0 : 0 1 : 0 2 : 0 3 : 0 
Heartbeat_Variant_3_evicts 0 : 0 1 : 0 2 : 0 3 : 0 
Heartbeat CPU 0 instructions: 70000001 cycles: 28321297 heartbeat IPC: 1.38301 cumulative IPC: 1.39479 (Simulation time: 0 hr 10 min 55 sec) 
Cycle: 30000000 FTQ IN: 13900696 FTQ occupancy: 14.9135 DECODE IN: 13900605 DECODE occupancy: 38.5132 ROB IN: 13900546 ROB occupancy: 248.82 ROB OUT: 13900409
Heartbeat_Variant_0 : 1377 0.336182 per_variant_size: 0 1377 0 0 0 0 0 0 0 
Heartbeat_Variant_1 : 2695 0.657959 per_variant_size: 0 420 2275 0 0 0 0 0 0 
Heartbeat_Variant_2 : 0 0 per_variant_size: 0 0 0 0 0 0 0 0 0 
Heartbeat_Variant_3 : 0 0 per_variant_size: 0 0 0 0 0 0 0 0 0 
Heartbeat_Variant_0_evicts 0 : 5627 1 : 34 2 : 0 3 : 0 
Heartbeat_Variant_1_evicts 0 : 35 1 : 0 2 : 0 3 : 0 
Heartbeat_Variant_2_evicts 0 : 0 1 : 0 2 : 0 3 : 0 
Heartbeat_Variant_3_evicts 0 : 0 1 : 0 2 : 0 3 : 0 
Heartbeat CPU 0 instructions: 80000000 cycles: 35430626 heartbeat IPC: 1.4066 cumulative IPC: 1.3987 (Simulation time: 0 hr 12 min 40 sec) 
Cycle: 40000000 FTQ IN: 13942646 FTQ occupancy: 15.0502 DECODE IN: 13942737 DECODE occupancy: 38.894 ROB IN: 13942797 ROB occupancy: 251.328 ROB OUT: 13943025
Heartbeat_Variant_0 : 1382 0.337402 per_variant_size: 0 1382 0 0 0 0 0 0 0 
Heartbeat_Variant_1 : 2692 0.657227 per_variant_size: 0 434 2258 0 0 0 0 0 0 
Heartbeat_Variant_2 : 0 0 per_variant_size: 0 0 0 0 0 0 0 0 0 
Heartbeat_Variant_3 : 0 0 per_variant_size: 0 0 0 0 0 0 0 0 0 
Heartbeat_Variant_0_evicts 0 : 5833 1 : 235 2 : 0 3 : 0 
Heartbeat_Variant_1_evicts 0 : 230 1 : 0 2 : 0 3 : 0 
Heartbeat_Variant_2_evicts 0 : 0 1 : 0 2 : 0 3 : 0 
Heartbeat_Variant_3_evicts 0 : 0 1 : 0 2 : 0 3 : 0 
Heartbeat CPU 0 instructions: 90000003 cycles: 42624841 heartbeat IPC: 1.39001 cumulative IPC: 1.39652 (Simulation time: 0 hr 14 min 16 sec) 
Heartbeat_Variant_0 : 1382 0.337402 per_variant_size: 0 1382 0 0 0 0 0 0 0 
Heartbeat_Variant_1 : 2693 0.657471 per_variant_size: 0 442 2251 0 0 0 0 0 0 
Heartbeat_Variant_2 : 0 0 per_variant_size: 0 0 0 0 0 0 0 0 0 
Heartbeat_Variant_3 : 0 0 per_variant_size: 0 0 0 0 0 0 0 0 0 
Heartbeat_Variant_0_evicts 0 : 5544 1 : 15 2 : 0 3 : 0 
Heartbeat_Variant_1_evicts 0 : 15 1 : 0 2 : 0 3 : 0 
Heartbeat_Variant_2_evicts 0 : 0 1 : 0 2 : 0 3 : 0 
Heartbeat_Variant_3_evicts 0 : 0 1 : 0 2 : 0 3 : 0 
Heartbeat CPU 0 instructions: 100000003 cycles: 49725762 heartbeat IPC: 1.40827 cumulative IPC: 1.39885 (Simulation time: 0 hr 15 min 49 sec) 
Finished CPU 0 instructions: 50000001 cycles: 35743580 cumulative IPC: 1.39885 (Simulation time: 0 hr 15 min 49 sec) 

ChampSim completed all CPUs

Region of Interest Statistics

CPU 0 cumulative IPC: 1.39885 instructions: 50000001 cycles: 35743580
 Fetch stage stalled: 45.5583  Sim cycles: 35743580 fetch stall cycle: 16284150
 Empty decode stage: 23.8727  Sim cycles: 35743580 fetch stall cycle: 8532941
ITLB TOTAL     ACCESS:    5837491  HIT:    5344741  MISS:     492750  HIT %:    91.5589  MISS %:    8.44113   MPKI: 9.855
ITLB LOAD TRANSLATION INSTRUCTION	ACCESS:    5700388  HIT:    5207638  MISS:     492750  HIT %:    91.3559  MISS %:    8.64415  MPKI: 9.855
ITLB TRANSLATION FROM L1D PREFETCHER INSTRUCTION	ACCESS:     137103  HIT:     137103  MISS:          0  HIT %:        100  MISS %:          0  MPKI: 0

ITLB AVERAGE MISS LATENCY: 9.05269 cycles
ITLB RQ	ACCESS:    7929470	FORWARD:          0	MERGED:    1612060	TO_CACHE:    6317410

DTLB TOTAL     ACCESS:    8952011  HIT:    8481459  MISS:     470552  HIT %:    94.7436  MISS %:    5.25638   MPKI: 9.41104
DTLB LOAD TRANSLATION DATA	ACCESS:    8952011  HIT:    8481459  MISS:     470552  HIT %:    94.7436  MISS %:    5.25638  MPKI: 9.41104

DTLB AVERAGE MISS LATENCY: 9.2996 cycles
DTLB RQ	ACCESS:   13320818	FORWARD:          0	MERGED:    4333003	TO_CACHE:    8987815

STLB TOTAL     ACCESS:    1211131  HIT:    1209196  MISS:       1935  HIT %:    99.8402  MISS %:   0.159768   MPKI: 0.0387
STLB LOAD TRANSLATION INSTRUCTION	ACCESS:     492750  HIT:     492511  MISS:        239  HIT %:    99.9515  MISS %:  0.0485033  MPKI: 0.00478
STLB LOAD TRANSLATION DATA	ACCESS:     470552  HIT:     468880  MISS:       1672  HIT %:    99.6447  MISS %:   0.355327  MPKI: 0.03344
STLB TRANSLATION FROM L1D PREFETCHER DATA	ACCESS:     247829  HIT:     247805  MISS:         24  HIT %:    99.9903  MISS %:  0.0096841  MPKI: 0.00048

STLB AVERAGE MISS LATENCY: 70.0729 cycles
STLB RQ	ACCESS:    1332693	FORWARD:          0	MERGED:     121515	TO_CACHE:    1211178

STLB Hit, L1D data hit: 0
STLB Hit, L2C data hit: 0
STLB Hit, LLC data hit: 0
STLB Hit, LLC data miss: 0
STLB STLB hints to L2: 0
L1D TOTAL     ACCESS:   13079036  HIT:   11966724  MISS:    1112312  HIT %:    91.4955  MISS %:    8.50454   MPKI: 22.2462
L1D LOAD DATA	ACCESS:    6545565  HIT:    5810937  MISS:     734628  HIT %:    88.7767  MISS %:    11.2233  MPKI: 14.6926
L1D RFO DATA	ACCESS:    6203951  HIT:    5920232  MISS:     283719  HIT %:    95.4268  MISS %:     4.5732  MPKI: 5.67438
L1D PREFETCH DATA	ACCESS:     329520  HIT:     235555  MISS:      93965  HIT %:    71.4843  MISS %:    28.5157  MPKI: 1.8793

L1D PREFETCH  REQUESTED:     739120  ISSUED:     739120  USEFUL:      32915  USELESS:      68319
L1D USEFUL LOAD PREFETCHES:      32915 PREFETCH ISSUED TO LOWER LEVEL:     101274  ACCURACY: 32.5009
 TIMELY PREFETCHES:      32915 LATE PREFETCHES: 7278 DROPPED PREFETCHES: 11
L1D AVERAGE MISS LATENCY: 210021 cycles
L1D RQ	ACCESS:   10682315	FORWARD:          0	MERGED:    3940212	TO_CACHE:    6578932
L1D WQ	ACCESS:    6941120	FORWARD:     163509	MERGED:     199234	TO_CACHE:    6741886
L1D PQ	ACCESS:     369729	FORWARD:          0	MERGED:          0	TO_CACHE:     369391

L1D UNIQUE REGIONS ACCESSED: 0
L1D REGIONS CONFLICTS: 0
L1D Cross Page Prefetch Requests: 7029
L1D Same Page Prefetch Requests: 748782
L1D ROI Sum of L1D PQ occupancy: 4689203
L1D PREFETCHES PUSHED FROM L2C: 0
L1I TOTAL     ACCESS:    7188955  HIT:    4691000  MISS:    2497955  HIT %:    65.2529  MISS %:    34.7471   MPKI: 49.9591
L1I LOAD INSTRUCTION	ACCESS:    6471436  HIT:    3973481  MISS:    2497955  HIT %:    61.4003  MISS %:    38.5997  MPKI: 49.9591
L1I PREFETCH INSTRUCTION	ACCESS:     717519  HIT:     717519  MISS:          0  HIT %:        100  MISS %:          0  MPKI: 0

L1I PREFETCH  REQUESTED:    1612656  ISSUED:    1612656  USEFUL:          0  USELESS:          0
L1I USEFUL LOAD PREFETCHES:          0 PREFETCH ISSUED TO LOWER LEVEL:          0  ACCURACY: -nan
 TIMELY PREFETCHES:          0 LATE PREFETCHES: 0 DROPPED PREFETCHES: 0
L1I AVERAGE MISS LATENCY: 17.2253 cycles
L1I RQ	ACCESS:    9572894	FORWARD:          0	MERGED:    2825516	TO_CACHE:    6747378
L1I PQ	ACCESS:    1612656	FORWARD:          0	MERGED:     430564	TO_CACHE:    1182092

L1BTB TOTAL     ACCESS:    5669407  HIT:    2046864  MISS:    3622543  HIT %:    36.1037  MISS %:    63.8963   MPKI: 72.4509
L1BTB BRANCH_DIRECT_JUMP	ACCESS:     548178 HIT:     144938 MISS:     403240 AVERAGE STALL: 55.5442 AVERAGE FETCH STALL: 14.0847 AVERAGE FETCH QUEUE STALL: 19.0819 AVERAGE DECODE STALL: 21.4496 AVERAGE EXECUTE STALL: 2.49584e+15
L1BTB BRANCH_INDIRECT	ACCESS:     182906 HIT:      66116 MISS:     116790 AVERAGE STALL: 111.032 AVERAGE FETCH STALL: 10.7626 AVERAGE FETCH QUEUE STALL: 19.7339 AVERAGE DECODE STALL: 13.9286 AVERAGE EXECUTE STALL: 65.6454
L1BTB BRANCH_CONDITIONAL	ACCESS:    2706777 HIT:    1416531 MISS:    1290246 AVERAGE STALL: 64.277 AVERAGE FETCH STALL: 19.8658 AVERAGE FETCH QUEUE STALL: 24.6882 AVERAGE DECODE STALL: 18.9979 AVERAGE EXECUTE STALL: 2.97097e+15
L1BTB BRANCH_DIRECT_CALL	ACCESS:     943781 HIT:     106075 MISS:     837706 AVERAGE STALL: 73.4392 AVERAGE FETCH STALL: 28.2618 AVERAGE FETCH QUEUE STALL: 25.586 AVERAGE DECODE STALL: 18.8213 AVERAGE EXECUTE STALL: 1.2257e+16
L1BTB BRANCH_INDIRECT_CALL	ACCESS:     171992 HIT:      21753 MISS:     150239 AVERAGE STALL: 139.472 AVERAGE FETCH STALL: 11.9583 AVERAGE FETCH QUEUE STALL: 17.9406 AVERAGE DECODE STALL: 11.7338 AVERAGE EXECUTE STALL: 97.3494
L1BTB BRANCH_RETURN	ACCESS:    1115773 HIT:     291451 MISS:     824322 AVERAGE STALL: 48.1609 AVERAGE FETCH STALL: 15.1401 AVERAGE FETCH QUEUE STALL: 5.22247 AVERAGE DECODE STALL: 6.41208 AVERAGE EXECUTE STALL: 4.34e+14
L1BTB BRANCH_OTHER ACCESS:          0 HIT:          0 MISS:          0 AVERAGE STALL: -nan AVERAGE FETCH STALL: -nan AVERAGE FETCH QUEUE STALL: -nan AVERAGE DECODE STALL: -nan AVERAGE EXECUTE STALL: -nan
L1BTB TOTAL ROB OCCUPANCY AT BTB MISS: 2.70434

L2BTB TOTAL     ACCESS:    3597119  HIT:    3532070  MISS:      65049  HIT %:    98.1916  MISS %:    1.80836   MPKI: 1.30098
L2BTB BRANCH_DIRECT_JUMP	ACCESS:     399050 HIT:     395846 MISS:       3204 AVERAGE STALL: 55.5442 AVERAGE FETCH STALL: 14.0847 AVERAGE FETCH QUEUE STALL: 19.0819 AVERAGE DECODE STALL: 21.4496 AVERAGE EXECUTE STALL: 2.49584e+15
L2BTB BRANCH_INDIRECT	ACCESS:     106533 HIT:     103827 MISS:       2706 AVERAGE STALL: 111.032 AVERAGE FETCH STALL: 10.7626 AVERAGE FETCH QUEUE STALL: 19.7339 AVERAGE DECODE STALL: 13.9286 AVERAGE EXECUTE STALL: 65.6454
L2BTB BRANCH_CONDITIONAL	ACCESS:    1290246 HIT:    1284012 MISS:       6234 AVERAGE STALL: 64.277 AVERAGE FETCH STALL: 19.8658 AVERAGE FETCH QUEUE STALL: 24.6882 AVERAGE DECODE STALL: 18.9979 AVERAGE EXECUTE STALL: 2.97097e+15
L2BTB BRANCH_DIRECT_CALL	ACCESS:     837706 HIT:     836194 MISS:       1512 AVERAGE STALL: 73.4392 AVERAGE FETCH STALL: 28.2618 AVERAGE FETCH QUEUE STALL: 25.586 AVERAGE DECODE STALL: 18.8213 AVERAGE EXECUTE STALL: 1.2257e+16
L2BTB BRANCH_INDIRECT_CALL	ACCESS:     140664 HIT:     130387 MISS:      10277 AVERAGE STALL: 139.472 AVERAGE FETCH STALL: 11.9583 AVERAGE FETCH QUEUE STALL: 17.9406 AVERAGE DECODE STALL: 11.7338 AVERAGE EXECUTE STALL: 97.3494
L2BTB BRANCH_RETURN	ACCESS:     822920 HIT:     781804 MISS:      41116 AVERAGE STALL: 48.1609 AVERAGE FETCH STALL: 15.1401 AVERAGE FETCH QUEUE STALL: 5.22247 AVERAGE DECODE STALL: 6.41208 AVERAGE EXECUTE STALL: 4.34e+14
L2BTB BRANCH_OTHER ACCESS:          0 HIT:          0 MISS:          0 AVERAGE STALL: -nan AVERAGE FETCH STALL: -nan AVERAGE FETCH QUEUE STALL: -nan AVERAGE DECODE STALL: -nan AVERAGE EXECUTE STALL: -nan
L2BTB TOTAL ROB OCCUPANCY AT BTB MISS: 150.603

L2C TOTAL     ACCESS:    4211280  HIT:    3788820  MISS:     422460  HIT %:    89.9684  MISS %:    10.0316   MPKI: 8.4492
L2C LOAD INSTRUCTION	ACCESS:    2497955  HIT:    2264188  MISS:     233767  HIT %:    90.6417  MISS %:    9.35834  MPKI: 4.67534
L2C LOAD TRANSLATION INSTRUCTION	ACCESS:        269  HIT:         57  MISS:        212  HIT %:    21.1896  MISS %:    78.8104  MPKI: 0.00424
L2C LOAD DATA	ACCESS:     727336  HIT:     658811  MISS:      68525  HIT %:    90.5786  MISS %:    9.42137  MPKI: 1.3705
L2C RFO DATA	ACCESS:     283671  HIT:     238193  MISS:      45478  HIT %:     83.968  MISS %:     16.032  MPKI: 0.90956
L2C PREFETCH DATA	ACCESS:     181134  HIT:     117605  MISS:      63529  HIT %:    64.9271  MISS %:    35.0729  MPKI: 1.27058
L2C WRITEBACK DATA	ACCESS:     519146  HIT:     509400  MISS:       9746  HIT %:    98.1227  MISS %:    1.87731  MPKI: 0.19492
L2C LOAD TRANSLATION DATA	ACCESS:       1717  HIT:        532  MISS:       1185  HIT %:    30.9843  MISS %:    69.0157  MPKI: 0.0237
L2C TRANSLATION FROM L1D PREFETCHER DATA	ACCESS:         52  HIT:         34  MISS:         18  HIT %:    65.3846  MISS %:    34.6154  MPKI: 0.00036

L2C PREFETCH  REQUESTED:      87756  ISSUED:      87756  USEFUL:       7654  USELESS:      56580
L2C USEFUL LOAD PREFETCHES:       7654 PREFETCH ISSUED TO LOWER LEVEL:      64191  ACCURACY: 11.9238
 TIMELY PREFETCHES:       7654 LATE PREFETCHES: 662 DROPPED PREFETCHES: 0
L2C AVERAGE MISS LATENCY: 39.2238 cycles
L2C RQ	ACCESS:    3511033	FORWARD:          0	MERGED:          0	TO_CACHE:    3511002
L2C WQ	ACCESS:     519146	FORWARD:         31	MERGED:          0	TO_CACHE:     519146
L2C PQ	ACCESS:     189030	FORWARD:          0	MERGED:       3768	TO_CACHE:     185262

L2C Dense regions hint from L2: 0
PSCL5 TOTAL     ACCESS:       3902  HIT:       1951  MISS:       1951  HIT %:         50  MISS %:         50   MPKI: 0.03902
PSCL5 LOAD TRANSLATION INSTRUCTION	ACCESS:       3798  HIT:       1899  MISS:       1899  HIT %:         50  MISS %:         50  MPKI: 0.03798
PSCL5 TRANSLATION FROM L1D PREFETCHER INSTRUCTION	ACCESS:        104  HIT:         52  MISS:         52  HIT %:         50  MISS %:         50  MPKI: 0.00104


PSCL4 TOTAL     ACCESS:       3851  HIT:       1923  MISS:       1928  HIT %:    49.9351  MISS %:    50.0649   MPKI: 0.03856
PSCL4 LOAD TRANSLATION INSTRUCTION	ACCESS:       3489  HIT:       1878  MISS:       1611  HIT %:    53.8263  MISS %:    46.1737  MPKI: 0.03222
PSCL4 TRANSLATION FROM L1D PREFETCHER INSTRUCTION	ACCESS:         90  HIT:         45  MISS:         45  HIT %:         50  MISS %:         50  MPKI: 0.0009
PSCL4 LOAD TRANSLATION DATA	ACCESS:        272  HIT:          0  MISS:        272  HIT %:          0  MISS %:        100  MPKI: 0.00544


PSCL3 TOTAL     ACCESS:       3857  HIT:       1926  MISS:       1931  HIT %:    49.9352  MISS %:    50.0648   MPKI: 0.03862
PSCL3 LOAD TRANSLATION INSTRUCTION	ACCESS:       3492  HIT:       1881  MISS:       1611  HIT %:     53.866  MISS %:     46.134  MPKI: 0.03222
PSCL3 TRANSLATION FROM L1D PREFETCHER INSTRUCTION	ACCESS:         90  HIT:         45  MISS:         45  HIT %:         50  MISS %:         50  MPKI: 0.0009
PSCL3 LOAD TRANSLATION DATA	ACCESS:        275  HIT:          0  MISS:        275  HIT %:          0  MISS %:        100  MPKI: 0.0055


PSCL2 TOTAL     ACCESS:       3824  HIT:       1873  MISS:       1951  HIT %:    48.9801  MISS %:    51.0199   MPKI: 0.03902
PSCL2 LOAD TRANSLATION INSTRUCTION	ACCESS:       2060  HIT:       1821  MISS:        239  HIT %:    88.3981  MISS %:    11.6019  MPKI: 0.00478
PSCL2 TRANSLATION FROM L1D PREFETCHER INSTRUCTION	ACCESS:         52  HIT:         52  MISS:          0  HIT %:        100  MISS %:          0  MPKI: 0
PSCL2 LOAD TRANSLATION DATA	ACCESS:       1660  HIT:          0  MISS:       1660  HIT %:          0  MISS %:        100  MPKI: 0.0332
PSCL2 TRANSLATION FROM L1D PREFETCHER DATA	ACCESS:         52  HIT:          0  MISS:         52  HIT %:          0  MISS %:        100  MPKI: 0.00104


LLC TOTAL     ACCESS:     476400  HIT:     449518  MISS:      26882  HIT %:    94.3573  MISS %:    5.64274   MPKI: 0.53764
LLC LOAD INSTRUCTION	ACCESS:     233767  HIT:     233099  MISS:        668  HIT %:    99.7142  MISS %:   0.285755  MPKI: 0.01336
LLC LOAD TRANSLATION INSTRUCTION	ACCESS:        212  HIT:        177  MISS:         35  HIT %:    83.4906  MISS %:    16.5094  MPKI: 0.0007
LLC LOAD DATA	ACCESS:      67873  HIT:      64661  MISS:       3212  HIT %:    95.2676  MISS %:    4.73237  MPKI: 0.06424
LLC RFO DATA	ACCESS:      45453  HIT:      32425  MISS:      13028  HIT %:    71.3374  MISS %:    28.6626  MPKI: 0.26056
LLC PREFETCH DATA	ACCESS:      64191  HIT:      54662  MISS:       9529  HIT %:    85.1552  MISS %:    14.8448  MPKI: 0.19058
LLC WRITEBACK DATA	ACCESS:      63701  HIT:      63346  MISS:        355  HIT %:    99.4427  MISS %:   0.557291  MPKI: 0.0071
LLC LOAD TRANSLATION DATA	ACCESS:       1185  HIT:       1130  MISS:         55  HIT %:    95.3586  MISS %:    4.64135  MPKI: 0.0011
LLC TRANSLATION FROM L1D PREFETCHER DATA	ACCESS:         18  HIT:         18  MISS:          0  HIT %:        100  MISS %:          0  MPKI: 0

LLC AVERAGE MISS LATENCY: 154.47 cycles
LLC RQ	ACCESS:     348523	FORWARD:          0	MERGED:          0	TO_CACHE:     348508
LLC WQ	ACCESS:      63701	FORWARD:         15	MERGED:          0	TO_CACHE:      63701
LLC PQ	ACCESS:      64191	FORWARD:          0	MERGED:          0	TO_CACHE:      64191

LLC Dense regions hint to LLC: 0

RAW hits: 1947765
Loads Generated: 12630080
Loads sent to L1D: 10682315
Stores Generated: 6941119
Stores sent to L1D: 6941120
Major fault: 0 Minor fault: 2614
Allocated PAGES: 2614

stream: 
stream:times selected: 1186804
stream:pref_filled: 120904
stream:pref_useful: 24146
stream:pref_late: 6348
stream:misses: 8059
stream:misses_by_poll: 0

CS: 
CS:times selected: 176470
CS:pref_filled: 59706
CS:pref_useful: 36389
CS:pref_late: 6220
CS:misses: 15563
CS:misses_by_poll: 7

CPLX: 
CPLX:times selected: 1009235
CPLX:pref_filled: 19876
CPLX:pref_useful: 4841
CPLX:pref_late: 2901
CPLX:misses: 93277
CPLX:misses_by_poll: 0

NL_L1: 
NL:times selected: 21312
NL:pref_filled: 750
NL:pref_useful: 346
NL:pref_late: 306
NL:misses: 1760
NL:misses_by_poll: 0

total selections: 2393821
total_filled: 93965
total_useful: 32915
total_late: 17018
total_polluted: 7
total_misses_after_warmup: 767996
conflicts: 5513333

test: 117783

DRAM Statistics
 CHANNEL 0
 RQ ROW_BUFFER_HIT:      10011  ROW_BUFFER_MISS:      16501
 DBUS_CONGESTED:         10
 WQ ROW_BUFFER_HIT:       1233  ROW_BUFFER_MISS:      11429  FULL:          0

 AVG_CONGESTED_CYCLE: 5

CPU 0 Branch Prediction Accuracy: 99.8291% MPKI: 0.31266 Average ROB Occupancy at Mispredict: 198.118
Branch types
NOT_BRANCH: 40854943 81.7099%
BRANCH_DIRECT_JUMP: 548178 1.09636%
BRANCH_INDIRECT: 182906 0.365812%
BRANCH_CONDITIONAL: 6182177 12.3644%
BRANCH_DIRECT_CALL: 943781 1.88756%
BRANCH_INDIRECT_CALL: 171992 0.343984%
BRANCH_RETURN: 1115773 2.23155%
BRANCH_OTHER: 0 0%

DRAM PAGES: 1048576
Allocated PAGES: 2614
Average_ROB_Occupancy: 252.168
Average_Decode_Occupancy: 38.798
Average_FTQ_Occupancy: 14.9569
Indirect max targets: 14 Average targets: 1.17891
Branch_type:  BRANCH_DIRECT_JUMP:  Count Percentage: 1.61907 6.99713 4.54694 8.4276 3.10441 6.29033 1.92002 67.0945 
Branch_type:  BRANCH_INDIRECT:  Count Percentage: 6.16502 3.48061 2.56056 0 1.33619 9.66613 4.14392 72.6476 
Branch_type:  BRANCH_CONDITIONAL:  Count Percentage: 20.8785 6.56368 1.82751 5.01127 2.32594 4.14935 3.00875 56.2349 
Branch_type:  BRANCH_DIRECT_CALL:  Count Percentage: 0.259487 1.96293 1.28201 3.77965 3.71254 2.34683 4.30557 82.351 
Branch_type:  BRANCH_INDIRECT_CALL:  Count Percentage: 6.53959 0 2.98495 8.68239 1.25261 2.02694 6.40336 72.1102 
Branch_type:  BRANCH_RETURN:  Count Percentage: 4.29521 4.76347 1.49206 5.82542 3.96246 4.8508 4.9747 69.8359 
Branch_type:  BRANCH_DIRECT_JUMP:  Total Count: 17737 76654 49812 92325 34009 68911 21034 735025 
Branch_type:  BRANCH_INDIRECT:  Total Count: 22548 12730 9365 0 4887 35353 15156 265702 
Branch_type:  BRANCH_CONDITIONAL:  Total Count: 2579877 811048 225818 619223 287407 512719 371779 6948726 
Branch_type:  BRANCH_DIRECT_CALL:  Total Count: 4895 37029 24184 71300 70034 44271 81221 1553482 
Branch_type:  BRANCH_INDIRECT_CALL:  Total Count: 22465 0 10254 29826 4303 6963 21997 247715 
Branch_type:  BRANCH_RETURN:  Total Count: 95818 106264 33285 129954 88395 108212 110976 1557905 
Number of unique branch instructions: 10791
Upper 32 bits: 
aaaa
ffff
ffff0000
Unique upper 32 bits: 3
Unique upper 36 bits: 3
Unique upper 40 bits: 5
Unique upper 44 bits: 32
Unique upper 48 bits: 158
Variant_0 : 1382 0.337402
Variant_1 : 2693 0.657471
Variant_2 : 0 0
Variant_3 : 0 0
Offset_3 4474
Offset_4 260
Offset_5 482
Offset_6 542
Offset_7 640
Offset_8 576
Offset_9 525
Offset_10 429
Offset_11 363
Offset_12 312
Offset_13 236
Offset_14 244
Offset_15 194
Offset_16 233
Offset_17 168
Offset_18 149
Offset_19 257
Offset_20 143
Offset_21 235
Offset_22 416
Offset_23 241
Offset_24 344
Offset_25 117
Offset_47 92
decode_dispatch_called: 26537355 74.2437
Dispatch_width: 0 14363899 54.1271 40.186
Dispatch_width: 1 1033080 3.89293 2.89025
Dispatch_width: 2 856589 3.22786 2.39648
Dispatch_width: 3 497146 1.87338 1.39087
Dispatch_width: 4 6424822 24.2105 17.9748
Dispatch_width: 5 108135 0.407482 0.30253
Dispatch_width: 6 3253684 12.2608 9.10285
Empty_decode_cycles: 9206225 25.7563
ROB_full_cycles: 10179184 28.4784
Starvation_cycles_per_kilo_instr: 223.107
Starvation_cycles_per_kilo_instr_3: 157.778
Starvation_cycles_per_kilo_instr_0: 133.909
Branch_type_1  (3,1)  (4,9)  (5,39)  (6,74)  (7,123)  (8,151)  (9,138)  (10,111)  (11,80)  (12,48)  (13,11)  (14,2)  (15,3)  (16,4)  (18,1)  (19,5)  (20,2)  (21,1)  (22,3)  (23,2)  (24,10)  (25,12) 
Branch_type_2  (3,1)  (4,1)  (5,1)  (8,4)  (9,4)  (10,1)  (12,1)  (13,1)  (14,1)  (16,3)  (17,2)  (20,2)  (21,2)  (23,5)  (24,1)  (47,41) 
Branch_type_3  (3,4472)  (4,250)  (5,438)  (6,452)  (7,487)  (8,356)  (9,288)  (10,174)  (11,147)  (12,55)  (13,10) 
Branch_type_4  (6,3)  (7,8)  (8,25)  (9,56)  (10,68)  (11,70)  (12,116)  (13,100)  (14,110)  (15,92)  (16,102)  (17,79)  (18,65)  (19,125)  (20,73)  (21,124)  (22,220)  (23,136)  (24,199)  (25,101) 
Branch_type_5  (8,3)  (9,1)  (10,4)  (11,5)  (12,3)  (13,14)  (14,16)  (15,11)  (16,22)  (17,11)  (18,23)  (19,14)  (20,11)  (21,13)  (22,43)  (23,26)  (24,38) 
Branch_type_6  (5,4)  (6,13)  (7,22)  (8,37)  (9,38)  (10,71)  (11,61)  (12,89)  (13,100)  (14,115)  (15,88)  (16,102)  (17,76)  (18,60)  (19,113)  (20,55)  (21,95)  (22,150)  (23,72)  (24,96)  (25,4)  (47,51) 
Unique trigger count: 
Variant_0_evicts_0 : 0
Variant_0_evicts_1 : 0
Variant_0_evicts_2 : 0
Variant_0_evicts_3 : 0
Variant_1_evicts_0 : 0
Variant_1_evicts_1 : 0
Variant_1_evicts_2 : 0
Variant_1_evicts_3 : 0
Variant_2_evicts_0 : 0
Variant_2_evicts_1 : 0
Variant_2_evicts_2 : 0
Variant_2_evicts_3 : 0
Variant_3_evicts_0 : 0
Variant_3_evicts_1 : 0
Variant_3_evicts_2 : 0
Variant_3_evicts_3 : 0
BTB PER SET UNIQUE ADDR: 9 13 10 14 9 16 11 11 8 11 15 14 13 11 15 10 11 13 16 12 14 11 15 14 11 14 12 14 12 13 14 13 14 8 9 9 13 15 9 9 12 13 15 17 11 12 15 11 13 10 20 14 11 14 16 6 15 13 12 15 15 12 9 12 14 18 14 10 13 8 14 13 13 9 13 7 9 20 11 12 12 9 10 16 9 12 19 12 10 20 11 8 12 11 10 15 10 9 16 17 19 17 15 9 13 10 9 11 8 10 12 20 11 11 12 9 15 15 11 13 16 11 11 10 11 12 9 11 16 11 9 16 10 15 11 14 11 15 14 13 11 9 13 10 14 10 10 14 9 10 12 10 9 13 13 16 19 13 15 19 16 10 16 12 8 15 14 9 11 11 11 12 16 14 11 10 11 11 14 11 11 13 10 15 18 13 8 10 14 11 11 9 12 16 10 10 8 13 9 15 11 13 13 14 14 12 9 17 11 14 10 14 16 14 10 15 14 14 10 17 9 15 8 11 10 14 10 14 12 13 11 8 13 13 13 11 15 15 9 8 15 7 14 11 13 14 10 12 14 12 13 11 14 10 10 14 8 11 14 11 10 8 7 13 10 10 11 12 13 12 10 15 15 10 9 10 12 15 13 10 13 16 9 13 13 7 10 20 18 13 14 11 11 15 9 14 14 14 17 14 11 13 8 22 16 17 12 15 13 9 10 21 14 19 14 9 14 16 13 20 12 10 12 11 11 14 10 10 14 8 13 18 11 11 13 18 9 12 8 15 8 18 12 16 15 13 10 16 14 14 12 12 11 16 11 12 13 11 11 11 13 14 9 20 11 14 9 14 13 10 15 10 13 12 13 11 15 16 13 11 15 9 14 13 10 17 14 13 6 15 15 15 15 20 7 8 11 11 15 13 12 12 14 14 17 12 20 21 16 11 17 11 11 19 8 13 11 10 19 14 15 12 11 15 16 9 15 13 13 14 16 15 11 6 8 12 15 12 13 13 11 11 14 18 20 11 11 14 14 14 11 19 11 9 15 15 15 14 9 15 14 17 13 19 16 10 16 17 16 9 18 11 12 13 16 17 14 17 12 13 13 11 12 16 7 15 23 13 16 19 9 13 13 8 13 12 15 14 11 13 10 18 10 18 10 10 12 12 14 18 16 16 15 10 16 18 11 16 12 9 12 8 7 10 11 17 22 9 7 13 13 11 18 12 23 14 10 16 16 12 13 9 12 14 18 11 10 16 12 15 14 18 15 12 11 16 13 10 15 15 16 18 7 10 12 14 13 17 11 16 14 16 18 19 9 13 14 13 11 13 14 12 13 11 18 17 10 11 15 14 14 12 10 13 14 10 13 13 12 13 14 9 14 9 12 15 16 9 11 10 17 14 15 9 8 14 10 12 13 17 17 14 9 12 10 15 10 15 11 15 13 14 14 14 14 11 11 10 12 16 10 15 10 15 9 14 9 15 17 8 11 15 12 6 13 15 10 18 12 11 14 6 15 19 11 14 12 14 14 8 9 14 11 13 17 16 16 17 11 18 8 13 11 17 10 17 11 13 16 15 12 15 11 9 11 13 13 17 11 13 8 10 11 13 9 15 13 8 12 10 13 17 10 17 11 12 20 10 8 14 12 12 14 10 10 15 10 10 9 13 15 9 14 14 10 14 16 12 14 15 11 10 12 17 16 10 14 16 9 13 16 12 12 13 10 11 23 11 9 11 14 6 8 12 20 19 9 11 13 11 8 11 10 12 12 11 8 15 17 15 10 16 14 11 10 9 14 16 12 7 4 8 17 11 13 15 13 13 16 14 15 16 19 11 17 14 11 17 11 13 13 17 18 12 12 14 19 17 10 16 9 18 11 13 14 12 13 12 15 14 12 17 16 14 12 13 16 13 12 12 18 13 8 15 12 15 14 17 8 11 10 10 9 14 14 11 12 18 19 15 14 9 10 10 19 9 11 11 14 10 12 12 13 9 16 8 14 14 11 13 16 9 16 14 10 10 16 15 14 12 17 14 12 12 13 19 16 15 10 10 14 14 15 11 7 9 11 12 12 17 11 13 12 11 14 12 15 13 11 17 14 8 13 10 15 9 8 15 16 9 13 13 15 13 15 19 11 15 18 16 10 17 10 10 12 15 14 17 10 12 8 10 10 15 9 18 10 15 12 17 18 10 13 15 14 13 19 15 13 14 13 16 18 12 12 13 17 20 14 12 15 14 13 15 12 15 18 14 16 15 14 14 13 12 14 12 11 16 14 13 13 13 9 8 17 15 13 18 14 12 14 12 12 10 16 11 9 14 7 10 11 11 13 13 
BTB PER SET COUNT: 451 16 1546 16 12 22 1220 230 1476 13 22 23 33 12 22 11 15 17 23 17 23 13 511 21 13 21 16 22 236 18 20 19 20 12 12 502 15 32 10 15 16 17 15 31 15 17 18 14 18 14 31 325 12 21 34 386 20 18 397 25 16 21 11 16 20 538 19 17 20 8 175 395 22 11 16 9 15 539 17 14 23 10 12 379 12 14 25 17 221 37 11 620 19 13 15 25 837 12 19 27 29 62 18 12 1718 11 12 17 1089 12 20 40 19 15 16 1296 23 22 1482 401 162 53 14 13 13 20 14 15 24 996 15 3579 12 24 80 28 985 21 20 19 20 12 18 15 22 162 12 18 16 19 16 285 966 21 15 33 25 15 21 471 21 15 224 15 1476 21 16 12 14 1412 16 17 25 16 13 1159 21 15 251 12 12 95 117 27 519 283 13 13 22 204 20 10 18 28 10 11 10 1202 13 16 12 23 991 26 21 15 10 25 14 336 15 21 22 12579 14 533 16 18 2927 42 11 23 10 15 16 18 14 22 462 17 12 13 15 17 15 17939 19 22 12 8 568 9 31 793 29 211 10 19 21 17 20 14 17 11 11 25 80 23 17 14 13 10 10 132 10 13 13 18 19 20 17 19 613 12 11 19 15 18 18 11 16 26 10 440 18 9 15 26 29 17 21 13 14 491 15 20 17 20 26 455 14 18 8 41 19 131 16 133 14 997 573 30 20 24 1978 999 26 28 16 42 19 1098 13 16 321 21 16 19 17 9 24 24 17 14 18 31 11 912 8 70 8 249 16 22 36 17 11 30 15 255 20 1479 23 27 11 13 26 18 47 20 13 17 17 38 12 2479 9 16 23 11 19 99 14 669 990 13 17 26 84 14 1002 10 75 14 13 22 49 20 7 30 25 16 18 36 11 995 17 14 23 17 17 13 20 19 25 24 35 803 32 15 204 21 12 641 8 18 15 2611 99 19 29 20 15 24 28 11 93 14 27 379 27 23 13 6 14 24 311 32 13 22 1082 17 49 28 306 14 734 23 20 20 424 42 13 9 19 267 28 14 10 16 17 27 24 479 19 12 2107 25 23 9 26 14 12 15 17 39 19 442 16 19 18 13 19 25 7 483 30 22 1739 25 11 19 116 12 20 21 1435 614 12 17 11 28 17 33 14 11 13 14 16 24 319 404 1344 445 22 27 24 28 16 12 13 10 7 10 13 20 256 320 11 2316 24 220 25 16 38 23 16 18 32 454 18 9 17 23 39 21 12 24 16 91 24 26 882 16 17 21 20 15 22 27 21 29 7 10 27 23 118 34 14 26 22 26 21 33 11 20 58 24 14 17 15 23 16 2944 29 19 13 14 27 25 940 16 12 16 37 12 856 18 13 15 19 13 155 13 16 27 33 896 14 15 36 21 23 11 11 20 12 17 19 32 22 18 11 579 20 22 17 28 12 393 15 19 26 18 18 18 20 799 18 20 16 18 12 34 2071 19 506 24 31 10 11 22 12 11 28 523 13 124 153 18 23 6 24 32 16 18 33 787 709 8 12 19 1006 16 600 152 19 23 16 29 8 17 984 23 19 23 12 21 20 30 19 19 14 12 2496 16 15 3243 14 21 964 11 13 22 13 18 15 13 41 13 172 30 409 22 13 130 864 11 8 20 20 104 17 334 13 26 15 17 995 1087 23 16 23 17 13 19 520 16 18 19 12 19 833 25 217 15 1007 23 12 15 928 16 14 20 10 12 34 1481 9 12 22 7 8 14 107 29 10 15 20 16 9 21 16 13 17 13 11 18 26 21 1997 23 397 12 14 9 22 19 18 9 4 779 23 12 298 17 14 24 31 1066 26 25 28 16 435 26 11 35 14 15 14 7933 25 13 23 27 593 85 12 23 12 766 13 19 20 16 18 16 26 19 15 25 26 22 135 17 20 16 13 20 29 229 13 19 687 22 27 29 10 11 1480 16 9 24 136 18 52 26 38 19 16 1159 10 12 409 11 12 25 17 13 203 20 21 10 22 8 22 21 1933 18 28 12 25 21 11 14 18 24 18 525 27 1112 1974 35 15 34 30 26 16 13 26 18 16 240 8 10 17 16 137 23 208 892 18 15 14 661 38 425 22 25 23 8 19 12 20 13 12 22 23 9 62 19 457 20 22 989 15 26 232 29 14 1762 17 10 14 21 18 29 12 15 8 981 14 336 11 26 13 26 20 395 175 18 17 18 17 16 1293 20 18 20 31 195 26 15 20 19 26 22 23 14 17 990 15 35 19 19 1024 128 19 28 22 2127 17 284 1490 19 13 1273 19 1662 147 18 11 12 29 19 23 29 33 991 397 20 16 12 22 15 15 314 8 11 18 771 20 20 
To predecode: 0
Predecoding something: 0
Predecode request dropped: 0
sizeofblock_0 0
sizeofblock_1 47073
sizeofblock_2 92420
sizeofblock_3 0
sizeofblock_4 0
sizeofblock_5 0
sizeofblock_6 0
sizeofblock_7 0
sizeofblock_8 0
Variant_0 Correct: 1609652 Incorrect: 0 Accuracy: 1
Variant_1 Correct: 5724230 Incorrect: 0 Accuracy: 1
Variant_2 Correct: 0 Incorrect: 0 Accuracy: -nan
Variant_3 Correct: 0 Incorrect: 0 Accuracy: -nan
