
*** ChampSim Multicore Out-of-Order Simulator ***

Warmup Instructions: 50000000
Simulation Instructions: 50000000
Number of CPUs: 1
LLC sets: 2048
LLC ways: 16
Off-chip DRAM Size: 4096 MB Channels: 1 Width: 64-bit Data Rate: 6400 MT/s
CPU 0 runs ./micro_traces/srv77.trace.gz
.gz
ITLB has LRU replacement policy
DTLB has LRU replacement policy
STLB has LRU replacement policy
FDIP Prefetcher at L1I
L1I has LRU replacement policy
L1D has LRU replacement policy
Initialize SRRIP state for L2C
Initialize DRRIP state for LLC
Heartbeat CPU 0 instructions: 10000000 cycles: 2796105 heartbeat IPC: 3.5764 cumulative IPC: 3.5764 (Simulation time: 0 hr 1 min 52 sec) 
Heartbeat CPU 0 instructions: 20000000 cycles: 5591954 heartbeat IPC: 3.57673 cumulative IPC: 3.57657 (Simulation time: 0 hr 3 min 12 sec) 
Heartbeat CPU 0 instructions: 30000001 cycles: 8388396 heartbeat IPC: 3.57597 cumulative IPC: 3.57637 (Simulation time: 0 hr 4 min 28 sec) 
Heartbeat CPU 0 instructions: 40000001 cycles: 11185351 heartbeat IPC: 3.57532 cumulative IPC: 3.57611 (Simulation time: 0 hr 5 min 44 sec) 
Heartbeat CPU 0 instructions: 50000000 cycles: 13982218 heartbeat IPC: 3.57543 cumulative IPC: 3.57597 (Simulation time: 0 hr 7 min 12 sec) 

Warmup complete CPU 0 instructions: 50000004 cycles: 13982219 (Simulation time: 0 hr 7 min 12 sec) 

Cycle: 20000000 FTQ IN: 58408306 FTQ occupancy: 20.5944 DECODE IN: 58408210 DECODE occupancy: 53.5449 ROB IN: 58408150 ROB occupancy: 319.328 ROB OUT: 58407802
Heartbeat CPU 0 instructions: 60000001 cycles: 21131531 heartbeat IPC: 1.39874 cumulative IPC: 1.39874 (Simulation time: 0 hr 8 min 47 sec) 
Heartbeat CPU 0 instructions: 70000000 cycles: 28375668 heartbeat IPC: 1.38043 cumulative IPC: 1.38952 (Simulation time: 0 hr 10 min 18 sec) 
Cycle: 30000000 FTQ IN: 13853247 FTQ occupancy: 15.0467 DECODE IN: 13853244 DECODE occupancy: 38.1492 ROB IN: 13853244 ROB occupancy: 249.504 ROB OUT: 13853240
Heartbeat CPU 0 instructions: 80000001 cycles: 35522705 heartbeat IPC: 1.39918 cumulative IPC: 1.39273 (Simulation time: 0 hr 11 min 49 sec) 
Cycle: 40000000 FTQ IN: 14006715 FTQ occupancy: 15.1313 DECODE IN: 14006791 DECODE occupancy: 38.6765 ROB IN: 14006845 ROB occupancy: 251.785 ROB OUT: 14007106
Heartbeat CPU 0 instructions: 90000001 cycles: 42670529 heartbeat IPC: 1.39903 cumulative IPC: 1.3943 (Simulation time: 0 hr 13 min 26 sec) 
Heartbeat CPU 0 instructions: 100000002 cycles: 49902109 heartbeat IPC: 1.38282 cumulative IPC: 1.39199 (Simulation time: 0 hr 14 min 49 sec) 
Finished CPU 0 instructions: 50000002 cycles: 35919891 cumulative IPC: 1.39199 (Simulation time: 0 hr 14 min 49 sec) 

ChampSim completed all CPUs

Region of Interest Statistics

CPU 0 cumulative IPC: 1.39199 instructions: 50000002 cycles: 35919891
 Fetch stage stalled: 45.1687  Sim cycles: 35919891 fetch stall cycle: 16224551
 Empty decode stage: 24.9135  Sim cycles: 35919891 fetch stall cycle: 8948889
ITLB TOTAL     ACCESS:    5838202  HIT:    5339391  MISS:     498811  HIT %:    91.4561  MISS %:    8.54391   MPKI: 9.97622
ITLB LOAD TRANSLATION INSTRUCTION	ACCESS:    5705437  HIT:    5206626  MISS:     498811  HIT %:    91.2573  MISS %:    8.74273  MPKI: 9.97622
ITLB TRANSLATION FROM L1D PREFETCHER INSTRUCTION	ACCESS:     132765  HIT:     132765  MISS:          0  HIT %:        100  MISS %:          0  MPKI: 0

ITLB AVERAGE MISS LATENCY: 9.04616 cycles
ITLB RQ	ACCESS:    7969972	FORWARD:          0	MERGED:    1643427	TO_CACHE:    6326545

DTLB TOTAL     ACCESS:    8957150  HIT:    8478686  MISS:     478464  HIT %:    94.6583  MISS %:     5.3417   MPKI: 9.56928
DTLB LOAD TRANSLATION DATA	ACCESS:    8957150  HIT:    8478686  MISS:     478464  HIT %:    94.6583  MISS %:     5.3417  MPKI: 9.56928

DTLB AVERAGE MISS LATENCY: 9.32398 cycles
DTLB RQ	ACCESS:   13336791	FORWARD:          0	MERGED:    4342621	TO_CACHE:    8994170

STLB TOTAL     ACCESS:    1221523  HIT:    1219378  MISS:       2145  HIT %:    99.8244  MISS %:     0.1756   MPKI: 0.0429
STLB LOAD TRANSLATION INSTRUCTION	ACCESS:     498810  HIT:     498546  MISS:        264  HIT %:    99.9471  MISS %:   0.052926  MPKI: 0.00528
STLB LOAD TRANSLATION DATA	ACCESS:     478463  HIT:     476615  MISS:       1848  HIT %:    99.6138  MISS %:   0.386237  MPKI: 0.03696
STLB TRANSLATION FROM L1D PREFETCHER DATA	ACCESS:     244250  HIT:     244217  MISS:         33  HIT %:    99.9865  MISS %:  0.0135107  MPKI: 0.00066

STLB AVERAGE MISS LATENCY: 68.2671 cycles
STLB RQ	ACCESS:    1340943	FORWARD:          0	MERGED:     119391	TO_CACHE:    1221552

STLB Hit, L1D data hit: 0
STLB Hit, L2C data hit: 0
STLB Hit, LLC data hit: 0
STLB Hit, LLC data miss: 0
STLB STLB hints to L2: 0
L1D TOTAL     ACCESS:   13075928  HIT:   11946832  MISS:    1129096  HIT %:    91.3651  MISS %:    8.63492   MPKI: 22.5819
L1D LOAD DATA	ACCESS:    6543016  HIT:    5795722  MISS:     747294  HIT %:    88.5788  MISS %:    11.4212  MPKI: 14.9459
L1D RFO DATA	ACCESS:    6210764  HIT:    5923571  MISS:     287193  HIT %:    95.3759  MISS %:    4.62412  MPKI: 5.74386
L1D PREFETCH DATA	ACCESS:     322148  HIT:     227539  MISS:      94609  HIT %:    70.6318  MISS %:    29.3682  MPKI: 1.89218

L1D PREFETCH  REQUESTED:     727684  ISSUED:     727684  USEFUL:      33543  USELESS:      69385
L1D USEFUL LOAD PREFETCHES:      33543 PREFETCH ISSUED TO LOWER LEVEL:     103032  ACCURACY: 32.5559
 TIMELY PREFETCHES:      33543 LATE PREFETCHES: 8339 DROPPED PREFETCHES: 4
L1D AVERAGE MISS LATENCY: 242301 cycles
L1D RQ	ACCESS:   10674143	FORWARD:          0	MERGED:    3927633	TO_CACHE:    6577656
L1D WQ	ACCESS:    6959500	FORWARD:     169200	MERGED:     200365	TO_CACHE:    6759135
L1D PQ	ACCESS:     364015	FORWARD:          0	MERGED:          0	TO_CACHE:     363669

L1D UNIQUE REGIONS ACCESSED: 0
L1D REGIONS CONFLICTS: 0
L1D Cross Page Prefetch Requests: 6664
L1D Same Page Prefetch Requests: 742337
L1D ROI Sum of L1D PQ occupancy: 4614052
L1D PREFETCHES PUSHED FROM L2C: 0
L1I TOTAL     ACCESS:    7123602  HIT:    4336726  MISS:    2786876  HIT %:    60.8783  MISS %:    39.1217   MPKI: 55.7375
L1I LOAD INSTRUCTION	ACCESS:    6456914  HIT:    3670038  MISS:    2786876  HIT %:    56.8389  MISS %:    43.1611  MPKI: 55.7375
L1I PREFETCH INSTRUCTION	ACCESS:     666688  HIT:     666688  MISS:          0  HIT %:        100  MISS %:          0  MPKI: 0

L1I PREFETCH  REQUESTED:    1628278  ISSUED:    1628278  USEFUL:          0  USELESS:          0
L1I USEFUL LOAD PREFETCHES:          0 PREFETCH ISSUED TO LOWER LEVEL:          0  ACCURACY: -nan
 TIMELY PREFETCHES:          0 LATE PREFETCHES: 0 DROPPED PREFETCHES: 0
L1I AVERAGE MISS LATENCY: 17.4213 cycles
L1I RQ	ACCESS:    9575509	FORWARD:          0	MERGED:    2807308	TO_CACHE:    6768201
L1I PQ	ACCESS:    1628278	FORWARD:          0	MERGED:     426507	TO_CACHE:    1201771

L1BTB TOTAL     ACCESS:    5671815  HIT:    2018281  MISS:    3653534  HIT %:    35.5844  MISS %:    64.4156   MPKI: 73.0707
L1BTB BRANCH_DIRECT_JUMP	ACCESS:     548052  HIT:     142383  MISS:     405669	AVERAGE STALL: 63.4018
L1BTB BRANCH_INDIRECT	ACCESS:     182320  HIT:      65365  MISS:     116955	AVERAGE STALL: 115.257
L1BTB BRANCH_CONDITIONAL	ACCESS:    2696703  HIT:    1395843  MISS:    1300860	AVERAGE STALL: 91.5446
L1BTB BRANCH_DIRECT_CALL	ACCESS:     949924  HIT:     104417  MISS:     845507	AVERAGE STALL: 77.2573
L1BTB BRANCH_INDIRECT_CALL	ACCESS:     172450  HIT:      21032  MISS:     151418	AVERAGE STALL: 143.543
L1BTB BRANCH_RETURN	ACCESS:    1122366  HIT:     289241  MISS:     833125	AVERAGE STALL: 51.9534
L1BTB BRANCH_OTHER ACCESS:          0  HIT:          0  MISS:          0	AVERAGE STALL: -nan
L1BTB TOTAL ROB OCCUPANCY AT BTB MISS: 2.358

L2BTB TOTAL     ACCESS:    3628293  HIT:    3569358  MISS:      58935  HIT %:    98.3757  MISS %:    1.62432   MPKI: 1.1787
L2BTB BRANCH_DIRECT_JUMP	ACCESS:     401610  HIT:     397743  MISS:       3867	AVERAGE STALL: 63.4018
L2BTB BRANCH_INDIRECT	ACCESS:     106622  HIT:     103891  MISS:       2731	AVERAGE STALL: 115.257
L2BTB BRANCH_CONDITIONAL	ACCESS:    1300860  HIT:    1299645  MISS:       1215	AVERAGE STALL: 91.5446
L2BTB BRANCH_DIRECT_CALL	ACCESS:     845507  HIT:     844163  MISS:       1344	AVERAGE STALL: 77.2573
L2BTB BRANCH_INDIRECT_CALL	ACCESS:     141989  HIT:     132074  MISS:       9915	AVERAGE STALL: 143.543
L2BTB BRANCH_RETURN	ACCESS:     831705  HIT:     791842  MISS:      39863	AVERAGE STALL: 51.9534
L2BTB BRANCH_OTHER ACCESS:          0  HIT:          0  MISS:          0	AVERAGE STALL: -nan
L2BTB TOTAL ROB OCCUPANCY AT BTB MISS: 146.179

L2C TOTAL     ACCESS:    4533674  HIT:    4039441  MISS:     494233  HIT %:    89.0986  MISS %:    10.9014   MPKI: 9.88466
L2C LOAD INSTRUCTION	ACCESS:    2786876  HIT:    2509293  MISS:     277583  HIT %:    90.0396  MISS %:    9.96036  MPKI: 5.55166
L2C LOAD TRANSLATION INSTRUCTION	ACCESS:        289  HIT:         73  MISS:        216  HIT %:    25.2595  MISS %:    74.7405  MPKI: 0.00432
L2C LOAD DATA	ACCESS:     738922  HIT:     660298  MISS:      78624  HIT %:    89.3596  MISS %:    10.6404  MPKI: 1.57248
L2C RFO DATA	ACCESS:     287089  HIT:     235068  MISS:      52021  HIT %:    81.8798  MISS %:    18.1202  MPKI: 1.04042
L2C PREFETCH DATA	ACCESS:     191655  HIT:     119773  MISS:      71882  HIT %:    62.4941  MISS %:    37.5059  MPKI: 1.43764
L2C WRITEBACK DATA	ACCESS:     526890  HIT:     514397  MISS:      12493  HIT %:    97.6289  MISS %:    2.37108  MPKI: 0.24986
L2C LOAD TRANSLATION DATA	ACCESS:       1904  HIT:        503  MISS:       1401  HIT %:    26.4181  MISS %:    73.5819  MPKI: 0.02802
L2C TRANSLATION FROM L1D PREFETCHER DATA	ACCESS:         49  HIT:         36  MISS:         13  HIT %:    73.4694  MISS %:    26.5306  MPKI: 0.00026

L2C PREFETCH  REQUESTED:      96740  ISSUED:      96740  USEFUL:       8298  USELESS:      64074
L2C USEFUL LOAD PREFETCHES:       8298 PREFETCH ISSUED TO LOWER LEVEL:      72371  ACCURACY: 11.4659
 TIMELY PREFETCHES:       8298 LATE PREFETCHES: 489 DROPPED PREFETCHES: 0
L2C AVERAGE MISS LATENCY: 37.8853 cycles
L2C RQ	ACCESS:    3815185	FORWARD:          0	MERGED:          0	TO_CACHE:    3815132
L2C WQ	ACCESS:     526890	FORWARD:         53	MERGED:          0	TO_CACHE:     526890
L2C PQ	ACCESS:     199772	FORWARD:          0	MERGED:       3907	TO_CACHE:     195865

L2C Dense regions hint from L2: 0
PSCL5 TOTAL     ACCESS:       4304  HIT:       2152  MISS:       2152  HIT %:         50  MISS %:         50   MPKI: 0.04304
PSCL5 LOAD TRANSLATION INSTRUCTION	ACCESS:       4206  HIT:       2103  MISS:       2103  HIT %:         50  MISS %:         50  MPKI: 0.04206
PSCL5 TRANSLATION FROM L1D PREFETCHER INSTRUCTION	ACCESS:         98  HIT:         49  MISS:         49  HIT %:         50  MISS %:         50  MPKI: 0.00098


PSCL4 TOTAL     ACCESS:       4035  HIT:       2015  MISS:       2020  HIT %:     49.938  MISS %:     50.062   MPKI: 0.0404
PSCL4 LOAD TRANSLATION INSTRUCTION	ACCESS:       3654  HIT:       1968  MISS:       1686  HIT %:    53.8588  MISS %:    46.1412  MPKI: 0.03372
PSCL4 TRANSLATION FROM L1D PREFETCHER INSTRUCTION	ACCESS:         94  HIT:         47  MISS:         47  HIT %:         50  MISS %:         50  MPKI: 0.00094
PSCL4 LOAD TRANSLATION DATA	ACCESS:        287  HIT:          0  MISS:        287  HIT %:          0  MISS %:        100  MPKI: 0.00574


PSCL3 TOTAL     ACCESS:       4215  HIT:       2105  MISS:       2110  HIT %:    49.9407  MISS %:    50.0593   MPKI: 0.0422
PSCL3 LOAD TRANSLATION INSTRUCTION	ACCESS:       3744  HIT:       2058  MISS:       1686  HIT %:    54.9679  MISS %:    45.0321  MPKI: 0.03372
PSCL3 TRANSLATION FROM L1D PREFETCHER INSTRUCTION	ACCESS:         94  HIT:         47  MISS:         47  HIT %:         50  MISS %:         50  MPKI: 0.00094
PSCL3 LOAD TRANSLATION DATA	ACCESS:        377  HIT:          0  MISS:        377  HIT %:          0  MISS %:        100  MPKI: 0.00754


PSCL2 TOTAL     ACCESS:       4224  HIT:       2072  MISS:       2152  HIT %:     49.053  MISS %:     50.947   MPKI: 0.04304
PSCL2 LOAD TRANSLATION INSTRUCTION	ACCESS:       2287  HIT:       2023  MISS:        264  HIT %:    88.4565  MISS %:    11.5435  MPKI: 0.00528
PSCL2 TRANSLATION FROM L1D PREFETCHER INSTRUCTION	ACCESS:         49  HIT:         49  MISS:          0  HIT %:        100  MISS %:          0  MPKI: 0
PSCL2 LOAD TRANSLATION DATA	ACCESS:       1839  HIT:          0  MISS:       1839  HIT %:          0  MISS %:        100  MPKI: 0.03678
PSCL2 TRANSLATION FROM L1D PREFETCHER DATA	ACCESS:         49  HIT:          0  MISS:         49  HIT %:          0  MISS %:        100  MPKI: 0.00098


LLC TOTAL     ACCESS:     557427  HIT:     530309  MISS:      27118  HIT %:    95.1351  MISS %:    4.86485   MPKI: 0.54236
LLC LOAD INSTRUCTION	ACCESS:     277583  HIT:     276891  MISS:        692  HIT %:    99.7507  MISS %:   0.249295  MPKI: 0.01384
LLC LOAD TRANSLATION INSTRUCTION	ACCESS:        216  HIT:        200  MISS:         16  HIT %:    92.5926  MISS %:    7.40741  MPKI: 0.00032
LLC LOAD DATA	ACCESS:      78149  HIT:      74731  MISS:       3418  HIT %:    95.6263  MISS %:     4.3737  MPKI: 0.06836
LLC RFO DATA	ACCESS:      52002  HIT:      39078  MISS:      12924  HIT %:    75.1471  MISS %:    24.8529  MPKI: 0.25848
LLC PREFETCH DATA	ACCESS:      72370  HIT:      62633  MISS:       9737  HIT %:    86.5455  MISS %:    13.4545  MPKI: 0.19474
LLC WRITEBACK DATA	ACCESS:      75693  HIT:      75429  MISS:        264  HIT %:    99.6512  MISS %:   0.348777  MPKI: 0.00528
LLC LOAD TRANSLATION DATA	ACCESS:       1401  HIT:       1334  MISS:         67  HIT %:    95.2177  MISS %:     4.7823  MPKI: 0.00134
LLC TRANSLATION FROM L1D PREFETCHER DATA	ACCESS:         13  HIT:         13  MISS:          0  HIT %:        100  MISS %:          0  MPKI: 0

LLC AVERAGE MISS LATENCY: 156.025 cycles
LLC RQ	ACCESS:     409370	FORWARD:          0	MERGED:          0	TO_CACHE:     409365
LLC WQ	ACCESS:      75693	FORWARD:          6	MERGED:          0	TO_CACHE:      75693
LLC PQ	ACCESS:      72371	FORWARD:          0	MERGED:          0	TO_CACHE:      72370

LLC Dense regions hint to LLC: 0

RAW hits: 1959953
Loads Generated: 12634096
Loads sent to L1D: 10674143
Stores Generated: 6959486
Stores sent to L1D: 6959500
Major fault: 0 Minor fault: 2564
Allocated PAGES: 2564

stream: 
stream:times selected: 1175645
stream:pref_filled: 122673
stream:pref_useful: 24050
stream:pref_late: 6840
stream:misses: 8032
stream:misses_by_poll: 0

CS: 
CS:times selected: 176302
CS:pref_filled: 59917
CS:pref_useful: 36701
CS:pref_late: 7389
CS:misses: 16440
CS:misses_by_poll: 7

CPLX: 
CPLX:times selected: 998288
CPLX:pref_filled: 19407
CPLX:pref_useful: 4553
CPLX:pref_late: 3005
CPLX:misses: 94387
CPLX:misses_by_poll: 0

NL_L1: 
NL:times selected: 20747
NL:pref_filled: 756
NL:pref_useful: 377
NL:pref_late: 284
NL:misses: 1708
NL:misses_by_poll: 0

total selections: 2370982
total_filled: 94609
total_useful: 33543
total_late: 18938
total_polluted: 7
total_misses_after_warmup: 781934
conflicts: 5523948

test: 116367

DRAM Statistics
 CHANNEL 0
 RQ ROW_BUFFER_HIT:       9910  ROW_BUFFER_MISS:      16940
 DBUS_CONGESTED:         13
 WQ ROW_BUFFER_HIT:       1227  ROW_BUFFER_MISS:      11713  FULL:          0

 AVG_CONGESTED_CYCLE: 6

CPU 0 Branch Prediction Accuracy: 99.8277% MPKI: 0.31548 Average ROB Occupancy at Mispredict: 196.885
Branch types
NOT_BRANCH: 40845842 81.6917%
BRANCH_DIRECT_JUMP: 548052 1.0961%
BRANCH_INDIRECT: 182320 0.36464%
BRANCH_CONDITIONAL: 6179077 12.3582%
BRANCH_DIRECT_CALL: 949924 1.89985%
BRANCH_INDIRECT_CALL: 172450 0.3449%
BRANCH_RETURN: 1122366 2.24473%
BRANCH_OTHER: 0 0%

DRAM PAGES: 1048576
Allocated PAGES: 2564
Average_ROB_Occupancy: 252.333
Average_Decode_Occupancy: 38.4619
Average_FTQ_Occupancy: 15.1025
Indirect max targets: 14 Average targets: 1.14626
Branch_type:  BRANCH_DIRECT_JUMP:  Count Percentage: 2.87862 6.1138 4.14919 9.13356 1.69182 6.28893 0.97641 68.7677 
Branch_type:  BRANCH_INDIRECT:  Count Percentage: 11.756 3.42591 12.1686 7.97752 1.34242 1.20023 1.07996 61.0493 
Branch_type:  BRANCH_CONDITIONAL:  Count Percentage: 21.0876 3.59347 2.33299 5.53788 1.2072 4.57014 0.781624 60.8891 
Branch_type:  BRANCH_DIRECT_CALL:  Count Percentage: 0.256774 1.80254 1.4144 5.09572 2.15277 3.01344 0.77423 85.4901 
Branch_type:  BRANCH_INDIRECT_CALL:  Count Percentage: 9.55828 0.555893 2.99595 4.8374 0 4.01591 0 78.0366 
Branch_type:  BRANCH_RETURN:  Count Percentage: 3.6589 1.31395 2.89175 6.65044 2.86178 5.50666 1.41892 75.6976 
Branch_type:  BRANCH_DIRECT_JUMP:  Total Count: 31510 66923 45418 99978 18519 68840 10688 752746 
Branch_type:  BRANCH_INDIRECT:  Total Count: 42911 12505 44417 29119 4900 4381 3942 222838 
Branch_type:  BRANCH_CONDITIONAL:  Total Count: 2604540 443832 288149 683988 149102 564461 96539 7520461 
Branch_type:  BRANCH_DIRECT_CALL:  Total Count: 4863 34138 26787 96507 40771 57071 14663 1619082 
Branch_type:  BRANCH_INDIRECT_CALL:  Total Count: 32893 1913 10310 16647 0 13820 0 268548 
Branch_type:  BRANCH_RETURN:  Total Count: 81916 29417 64741 148891 64070 123284 31767 1694729 
Number of unique branch instructions: 9821
Upper 32 bits: 
aaaa
ffff
ffff0000
Unique upper 32 bits: 3
Unique upper 36 bits: 3
Unique upper 40 bits: 5
Unique upper 44 bits: 32
Unique upper 48 bits: 154
Offset_3 4036
Offset_4 250
Offset_5 451
Offset_6 502
Offset_7 573
Offset_8 505
Offset_9 462
Offset_10 378
Offset_11 305
Offset_12 271
Offset_13 199
Offset_14 227
Offset_15 193
Offset_16 222
Offset_17 142
Offset_18 118
Offset_19 234
Offset_20 136
Offset_21 235
Offset_22 391
Offset_23 243
Offset_24 324
Offset_25 88
Offset_47 80
decode_dispatch_called: 26487265 73.7398
Dispatch_width: 0 14294284 53.9666 39.7949
Dispatch_width: 1 1052928 3.97522 2.93132
Dispatch_width: 2 851761 3.21574 2.37128
Dispatch_width: 3 493032 1.86139 1.37259
Dispatch_width: 4 6451182 24.3558 17.9599
Dispatch_width: 5 104740 0.395435 0.291593
Dispatch_width: 6 3239338 12.2298 9.01823
Empty_decode_cycles: 9432626 26.2602
ROB_full_cycles: 10359030 28.8393
Starvation_cycles_per_kilo_instr: 223.215
Starvation_cycles_per_kilo_instr_3: 157.656
Starvation_cycles_per_kilo_instr_0: 133.679
Branch_type_1  (3,1)  (4,11)  (5,37)  (6,69)  (7,112)  (8,130)  (9,122)  (10,97)  (11,68)  (12,43)  (13,5)  (14,2)  (15,3)  (16,4)  (18,1)  (19,4)  (20,2)  (21,1)  (22,3)  (23,2)  (24,10)  (25,12) 
Branch_type_2  (3,1)  (5,1)  (8,3)  (9,3)  (12,1)  (13,1)  (14,1)  (16,3)  (17,2)  (20,2)  (21,2)  (23,5)  (24,1)  (47,36) 
Branch_type_3  (3,4034)  (4,239)  (5,409)  (6,418)  (7,432)  (8,310)  (9,253)  (10,151)  (11,120)  (12,52)  (13,4) 
Branch_type_4  (6,3)  (7,8)  (8,26)  (9,51)  (10,62)  (11,59)  (12,96)  (13,86)  (14,100)  (15,91)  (16,99)  (17,63)  (18,53)  (19,115)  (20,71)  (21,124)  (22,208)  (23,137)  (24,185)  (25,72) 
Branch_type_5  (8,2)  (9,1)  (10,3)  (11,5)  (12,3)  (13,14)  (14,16)  (15,11)  (16,20)  (17,11)  (18,16)  (19,12)  (20,10)  (21,13)  (22,42)  (23,26)  (24,37) 
Branch_type_6  (5,4)  (6,12)  (7,21)  (8,34)  (9,32)  (10,65)  (11,53)  (12,76)  (13,89)  (14,108)  (15,88)  (16,96)  (17,66)  (18,48)  (19,103)  (20,51)  (21,95)  (22,138)  (23,73)  (24,91)  (25,4)  (47,44) 
aaaaab1fc620: 2ac9e77e 2aca717c 2aca8eff 2acaf6bc 2acaf9aa 2acaf9f1 2acb1abc 2acb1b7f 2acd4e22 2acdb712 2acf5f9e 2ad0ef44 2ad3f15c 2ad414e6 2ad60e42 2ad8609c 2ad99830 2ada35cc 2ada4676 2ada6612 2adf183e 2adf30e5 2adf5602 2adf785c 2ae11572 2aeb2dcf 2aee101b 2aee1ae1 2b156a8c 2b156b61 2b156bea 2b167f35 2b177656 2b17feec 2b1a3e5a 
aaaaac68f310: 2ac9ec8c 2ac9fb44 2ac9fbd2 2aca59ab 2acac04c 2acaf6e0 2acaf6ec 2acaf6f9 2acaf700 2acaf708 2acf2d90 2ad3cfbd 2ad3cfc4 2ad3d000 2ad3f35f 2ad4955d 2ad49571 2ad4f3f2 2ad4f400 2ad5f240 2ad5f37c 2ad5f86a 2ad5f86f 2ad5f880 2ad5fc0d 2ad5fc14 2ad5fc21 2ad5fe1b 2ad873bb 2ad873e3 2ad8a6b2 2ad9086e 2ad93096 2ad9bbb2 2ada152c 2ada1554 2ada3332 2ada5522 2adf3130 2adf313c 2adf3a3f 2adf3bd9 2adf5788 2adf7a8d 2ae07f6b 2ae0857a 2ae0857e 2ae08630 2ae08634 2ae08637 2ae08642 2ae0866f 2ae086e4 2ae086ec 2ae08717 2ae0871b 2aee0170 2aee1d38 2aee75f4 2aee7662 2aee85ca 2aee85e4 2aee8eef 2af70b84 2af74e8f 2b17d843 
aaaaac690ef0: 2aca598b 2acb111b 2acb175f 2acb1772 2acbfaf4 2acbfb00 2acf374f 2acf6d43 2acfa5c8 2ad3baf1 2ad3d4ac 2ad3d4b8 2ad3f1cf 2ad486b2 2ad5a59b 2ad5fc64 2ad5fcf9 2ad6121c 2ad906e9 2ad907bf 2ad9bada 2ada16ce 2ada1ad5 2ada43df 2ada64c0 2ada72ee 2adeb71a 2adf3bcb 2adf7a38 2adf7c6a 2adf8872 2adf8880 2adf9959 2adf9abe 2ae07f78 2ae08503 2ae08754 2ae12e80 2aea3bea 2aecb509 2aee00b0 2aee2bdd 2aee5467 2aee5601 2aee8f20 2af703fd 2af7048b 2af74e74 
Unique trigger count: 
1 9376
2 478
3 87
4 31
5 7
6 8
7 6
8 1
9 3
10 1
11 2
12 1
13 3
16 2
17 2
19 3
35 1
48 1
66 1
BTB PER SET UNIQUE ADDR: 0 1 1 1 0 0 0 0 0 0 1 0 1 0 0 1 1 0 0 1 0 1 1 1 0 1 0 1 1 0 1 1 1 0 0 0 0 1 4 0 1 0 1 2 1 0 1 0 1 1 0 0 1 0 0 1 1 2 0 0 0 0 0 1 0 1 0 0 0 1 1 0 1 0 0 0 1 2 1 1 1 0 1 1 1 1 0 1 3 1 1 2 1 1 1 0 0 0 0 0 0 2 1 1 0 1 0 0 0 0 1 0 0 1 0 1 0 0 0 0 0 0 0 0 0 0 0 0 2 0 1 0 0 0 1 0 0 0 0 1 0 0 1 0 0 0 0 1 1 1 0 3 1 0 0 0 0 0 0 0 0 0 0 1 0 0 0 0 2 1 0 0 1 0 0 0 0 1 0 0 0 0 1 0 0 1 0 0 0 0 2 0 1 2 0 1 1 0 0 1 0 1 0 0 0 0 0 0 0 0 0 1 1 1 1 0 0 1 0 0 0 0 1 1 1 0 0 0 0 1 1 0 0 0 0 2 1 0 0 0 1 0 1 0 3 1 0 0 1 0 1 0 0 1 0 2 1 0 0 0 2 1 1 0 2 3 1 0 1 0 0 0 0 1 0 1 0 0 0 1 1 0 0 0 1 1 0 0 0 0 0 0 0 0 0 0 1 2 0 0 1 0 1 0 1 0 2 0 0 0 1 0 0 0 2 0 1 1 0 1 0 0 0 0 0 0 1 1 0 0 0 0 1 0 1 0 0 0 2 0 2 0 0 0 0 0 1 0 0 0 0 1 0 2 1 0 1 0 2 0 0 2 1 0 1 1 0 0 0 0 1 0 0 0 0 1 0 0 1 0 0 0 0 1 0 0 1 0 0 0 0 0 1 0 0 0 0 0 0 1 1 1 0 0 0 0 1 1 0 0 0 0 0 0 1 0 2 0 0 1 1 0 1 2 0 2 0 0 0 0 0 0 1 1 1 0 0 0 0 0 0 2 0 1 0 0 0 0 0 0 0 0 0 0 1 0 1 0 2 0 2 0 1 1 0 0 0 0 1 2 0 0 1 1 2 0 0 1 0 0 0 0 0 2 0 0 1 0 0 1 1 0 0 1 0 2 0 1 0 0 1 0 0 0 0 0 0 0 0 1 1 1 0 0 2 0 0 1 1 3 1 1 1 1 3 0 0 1 1 1 1 1 0 2 1 1 0 0 3 0 0 2 1 0 0 1 2 1 0 1 0 0 0 1 0 1 1 0 0 0 2 0 0 0 0 0 0 0 1 3 2 0 1 2 1 0 0 0 0 0 0 0 0 0 0 0 0 0 0 0 0 0 0 0 0 0 1 0 0 0 0 0 0 1 0 1 0 1 0 0 1 0 0 0 0 0 0 0 0 0 0 0 1 0 1 1 0 0 0 0 2 0 0 1 0 0 0 0 0 0 0 0 1 0 0 0 0 0 0 0 0 0 0 0 0 0 0 0 0 1 0 1 0 1 1 1 1 0 0 0 1 0 1 0 1 1 0 1 1 0 1 0 0 0 0 0 1 1 1 0 0 0 0 1 0 1 1 1 0 0 0 1 0 1 0 0 0 0 0 0 1 1 0 0 1 0 1 1 0 0 0 0 0 0 0 0 0 0 0 1 0 1 0 0 0 0 2 1 1 0 1 1 1 0 1 0 0 0 0 1 0 0 1 0 0 1 1 2 0 0 1 0 0 0 0 0 1 0 0 0 2 0 0 0 0 1 3 0 1 1 1 0 0 0 1 1 1 1 0 0 1 0 0 0 1 1 1 0 0 0 0 0 0 0 0 0 0 0 0 1 0 1 0 0 0 0 1 0 0 0 2 0 1 0 0 0 0 1 0 0 0 1 1 0 0 0 0 0 1 0 0 0 0 0 0 1 0 2 1 0 1 0 1 0 0 0 0 0 0 0 0 0 0 0 0 0 0 0 1 0 0 0 0 0 0 0 0 0 2 1 1 1 0 0 0 0 0 1 0 0 0 0 0 0 0 0 2 0 1 0 0 0 0 1 0 1 0 0 0 1 0 1 0 0 0 0 0 0 0 0 0 1 1 0 1 0 0 0 1 0 0 0 2 0 1 0 0 1 0 0 0 0 0 1 0 0 1 0 0 1 0 0 0 0 0 0 0 2 0 0 2 0 1 1 0 1 4 1 0 1 0 0 0 0 1 0 1 3 0 0 2 1 1 2 1 0 0 1 2 0 2 1 0 0 1 0 0 1 0 2 0 0 1 0 1 1 2 0 0 0 0 0 1 0 0 0 1 1 0 1 1 1 4 2 0 0 0 1 1 1 3 2 1 1 1 0 0 1 1 0 0 0 0 2 0 1 3 0 2 3 0 1 0 2 1 1 2 1 1 0 0 0 1 0 2 0 1 1 2 1 1 3 0 2 0 0 3 0 0 1 0 0 0 1 1 2 2 2 1 2 0 2 1 2 1 0 2 0 0 1 0 2 1 0 2 1 1 1 0 1 0 2 1 1 1 1 1 0 1 2 1 1 1 1 0 1 1 2 1 1 1 1 1 0 3 1 0 0 2 0 0 0 1 0 1 0 0 1 1 2 0 2 1 0 1 0 1 1 0 0 0 0 0 3 0 1 1 1 0 1 0 0 1 0 3 0 0 1 2 4 2 1 0 3 4 0 2 0 0 0 0 1 1 0 1 0 2 3 1 0 0 0 2 1 0 2 0 0 0 2 1 3 0 2 0 1 0 0 2 3 4 0 4 0 0 0 2 1 2 0 2 1 1 1 0 0 0 1 1 1 0 1 2 2 2 0 2 1 0 2 3 2 1 1 1 1 0 0 1 3 4 1 1 1 1 1 2 1 2 0 0 1 1 0 5 2 1 0 0 0 1 1 0 0 1 0 0 1 2 2 1 0 2 0 0 0 0 1 1 0 1 0 0 1 1 0 2 1 3 1 1 1 1 0 1 1 0 2 1 1 0 2 0 1 2 0 0 0 0 1 0 1 0 1 1 1 1 0 0 0 0 1 1 0 0 1 0 0 0 0 1 2 1 0 1 0 0 0 1 2 1 1 1 1 0 2 0 2 2 0 1 0 0 1 1 2 1 1 1 0 1 1 0 0 1 2 0 1 1 0 1 0 0 1 1 1 1 1 1 0 4 1 1 1 0 0 1 3 0 1 0 2 0 1 2 0 0 0 0 1 0 0 0 1 0 1 1 1 0 1 0 0 1 0 1 0 0 0 0 1 0 0 0 0 0 1 1 1 3 1 1 0 1 1 1 0 1 0 0 3 0 0 0 0 0 1 1 0 0 0 0 0 0 0 0 0 0 0 2 0 0 0 1 0 1 0 0 2 0 0 1 1 1 1 1 0 0 1 0 0 1 0 1 1 1 1 0 0 1 0 2 1 0 0 2 0 0 1 0 1 1 1 1 1 0 1 1 1 0 1 1 0 0 0 2 0 1 0 0 0 0 0 0 1 1 0 1 2 1 1 0 0 1 0 1 1 0 0 0 2 1 0 0 1 1 1 1 0 0 1 1 3 1 0 0 1 2 0 0 0 3 1 2 0 2 0 2 1 0 1 1 2 3 0 1 0 2 1 0 5 2 2 1 2 3 0 0 2 0 1 1 0 1 0 1 0 0 1 0 1 2 0 0 0 1 1 2 1 3 0 0 0 3 0 0 2 1 0 0 0 0 3 0 1 0 2 1 0 1 1 1 1 1 1 1 1 1 0 1 0 0 0 1 1 1 2 0 0 1 1 0 1 1 0 0 1 1 0 0 1 0 0 0 2 1 0 0 2 1 0 0 0 0 1 0 0 1 1 2 1 1 1 4 0 1 3 3 2 2 1 0 2 0 0 1 1 0 0 0 0 1 1 2 0 0 1 1 1 1 0 0 0 0 1 2 1 1 1 0 0 1 1 0 0 0 0 1 0 0 0 0 1 0 1 0 0 2 0 2 1 0 0 0 0 0 2 0 0 0 0 0 0 1 0 3 0 1 1 0 0 1 1 0 0 0 0 0 0 0 0 2 1 1 0 1 0 0 1 1 0 0 4 0 0 0 0 1 1 0 0 2 1 3 0 0 1 0 2 1 1 2 0 1 0 3 0 2 0 1 0 1 0 1 1 0 0 1 1 0 0 0 0 1 1 1 0 1 1 1 0 1 0 0 0 0 1 1 0 0 0 0 0 0 2 2 2 0 0 0 1 0 0 0 0 0 1 1 0 0 1 0 0 1 1 0 1 2 0 1 0 0 1 1 1 0 0 0 0 1 0 0 0 0 0 0 0 0 0 1 0 0 1 1 1 0 0 0 1 0 0 0 0 0 1 0 0 1 0 0 0 0 0 0 0 0 0 0 0 0 0 0 0 0 0 2 0 1 2 1 0 0 1 0 0 0 0 0 1 0 2 0 2 0 1 2 4 0 0 0 0 1 1 1 0 0 0 1 1 0 0 0 0 1 3 1 0 1 0 0 0 0 0 2 0 0 1 0 0 0 1 0 0 0 1 2 0 0 0 2 0 0 0 1 1 0 0 0 2 0 1 0 2 0 0 0 0 0 0 1 0 1 0 1 0 1 0 1 1 1 0 0 0 0 0 1 1 0 0 1 1 1 0 1 0 1 1 1 0 0 0 1 2 1 1 0 1 0 1 1 1 0 0 1 2 0 0 1 0 1 3 0 1 0 0 1 0 0 1 1 1 0 1 2 1 1 0 2 1 1 0 0 1 0 0 0 0 0 1 0 1 0 0 0 0 1 0 0 0 0 0 0 0 1 0 1 0 0 0 0 1 0 0 0 0 1 0 0 0 1 0 1 1 0 0 0 0 1 1 0 0 0 0 0 0 0 0 0 0 1 0 0 0 0 1 1 0 2 1 0 1 0 0 0 0 0 0 3 1 1 0 1 1 1 0 2 0 0 0 2 0 1 1 0 1 1 0 1 0 1 1 1 1 1 0 2 0 2 0 2 2 1 2 1 1 2 0 2 0 0 0 1 0 0 0 1 0 2 0 1 1 1 0 1 0 0 0 1 1 0 2 2 1 1 2 1 1 1 1 1 1 1 0 3 1 0 2 2 0 2 2 2 1 0 1 3 2 2 0 0 0 0 0 0 1 0 0 0 0 0 0 0 0 0 0 1 0 0 0 0 0 1 1 2 2 0 0 1 1 0 1 0 0 0 1 0 1 1 0 1 0 0 0 1 1 0 0 0 0 0 0 1 0 0 0 0 0 0 0 1 0 1 0 2 0 1 0 0 0 0 2 0 1 1 0 1 0 0 0 0 0 0 0 1 0 1 0 1 1 1 0 1 0 1 1 2 3 0 0 0 3 1 1 1 0 0 2 0 0 1 0 0 1 0 1 0 0 1 0 0 0 1 1 3 0 0 0 1 0 2 3 1 1 2 0 0 0 1 0 1 1 1 2 3 2 0 1 0 1 0 0 0 1 3 1 1 1 1 0 2 1 0 1 2 1 1 0 1 0 3 1 1 0 0 1 2 0 1 1 0 0 0 0 0 2 1 0 0 0 0 1 0 2 1 0 2 2 0 1 0 0 1 1 1 0 1 0 1 1 0 1 2 0 2 1 0 0 0 0 0 0 1 1 0 2 0 0 1 0 1 0 1 0 2 1 0 1 2 1 0 2 1 1 1 1 2 1 2 0 0 2 2 0 0 0 2 3 0 1 2 0 1 0 0 1 1 0 1 0 2 1 0 2 0 2 1 1 0 1 1 0 0 0 1 0 1 1 1 1 0 0 0 3 0 1 0 1 0 1 0 3 0 0 0 3 0 2 1 1 0 0 0 1 0 0 1 1 1 1 0 1 0 0 0 1 1 0 0 1 0 0 1 1 0 0 0 1 1 0 0 0 1 0 0 0 1 0 0 1 0 0 0 0 0 0 2 2 0 1 1 1 0 0 0 0 0 2 2 1 1 2 0 0 1 0 1 0 2 0 3 2 2 3 1 2 1 0 0 2 0 0 0 0 0 2 0 0 0 0 1 2 2 0 0 2 1 1 1 0 1 2 1 1 2 1 2 3 0 1 1 0 0 0 0 0 0 1 1 1 0 0 1 1 0 0 0 0 1 0 1 0 0 1 0 2 3 1 0 3 0 0 1 3 0 0 1 2 0 0 1 1 3 0 0 2 1 0 0 1 1 1 0 0 0 0 3 0 3 0 0 2 0 1 0 0 2 0 1 0 1 1 3 0 0 1 4 0 0 0 1 0 0 0 1 0 0 1 1 0 2 1 0 0 0 2 0 2 1 0 0 1 1 1 1 1 1 0 1 0 0 2 0 1 1 0 0 2 0 0 0 1 0 3 1 1 3 1 1 1 0 1 0 1 2 0 2 1 0 0 0 1 0 0 3 3 0 0 0 1 0 1 0 1 1 1 2 0 0 0 2 1 1 1 1 0 1 1 0 0 1 0 1 0 1 1 0 1 0 0 0 1 1 1 0 0 1 1 2 0 2 0 1 1 0 0 0 0 0 0 1 0 1 1 0 2 0 1 0 1 2 0 0 2 0 0 0 1 1 3 0 5 0 0 1 2 1 3 0 1 0 2 2 1 0 0 1 0 2 2 0 2 2 0 2 2 1 0 1 2 2 0 0 0 0 0 0 0 0 0 3 1 1 1 1 2 1 2 1 0 2 1 0 2 0 1 0 0 1 0 1 0 1 1 1 0 0 1 2 2 1 0 2 3 1 1 1 2 1 1 2 1 0 0 0 1 2 1 1 0 3 0 0 2 1 1 0 1 2 1 0 0 1 0 0 1 1 0 1 1 0 1 0 0 1 0 2 1 0 0 3 1 1 0 1 0 1 0 1 0 1 1 0 0 1 1 0 1 2 0 0 0 0 1 0 1 0 1 1 1 2 1 1 2 0 0 0 0 0 0 0 1 2 1 1 1 0 0 1 1 1 3 2 0 0 0 2 0 0 1 1 1 1 1 0 1 0 1 0 2 0 1 0 1 0 0 0 0 0 0 1 0 0 0 0 0 0 0 0 1 0 3 1 0 1 0 3 0 0 2 0 0 3 1 1 0 0 1 0 1 1 0 0 0 0 0 1 0 1 1 1 0 2 0 2 0 4 1 1 1 1 1 1 3 1 0 3 0 1 1 1 1 1 1 1 0 1 1 1 1 2 1 0 1 0 0 1 0 0 1 1 1 1 1 1 1 1 1 2 0 1 0 1 1 2 0 2 0 1 0 1 1 1 0 0 0 1 1 1 1 0 1 0 2 0 0 0 2 0 1 1 0 1 1 2 0 3 0 3 1 1 1 1 2 0 0 1 0 1 0 1 0 1 0 1 0 1 2 1 1 1 0 1 2 0 2 1 0 0 1 1 0 1 0 0 0 1 0 1 0 1 0 1 0 0 1 2 1 1 0 1 1 0 1 0 0 2 0 2 2 4 0 0 1 0 1 1 1 0 0 0 0 0 0 1 0 1 1 0 0 0 1 0 0 1 1 0 1 1 0 0 1 1 1 1 1 1 0 2 0 0 0 0 1 2 0 1 1 1 1 1 0 1 0 1 2 1 1 0 0 2 1 3 1 0 1 0 1 3 0 1 0 1 0 0 1 2 0 2 0 0 0 0 2 1 0 2 0 0 0 2 4 1 1 2 0 1 1 0 1 0 0 0 0 0 1 0 1 0 0 0 2 0 0 0 0 0 1 0 0 1 0 2 0 0 1 2 1 0 0 2 0 2 0 0 0 0 1 0 0 2 1 0 0 0 0 0 0 0 0 0 1 1 1 0 2 0 1 2 1 1 0 0 0 2 0 3 1 2 1 0 2 0 0 0 0 1 0 2 0 2 0 1 0 1 0 2 1 0 0 1 0 0 1 1 0 0 0 2 1 0 0 0 1 1 1 2 1 3 0 0 3 1 3 1 1 1 0 2 2 2 1 1 1 2 0 2 0 1 0 2 1 0 1 1 1 2 0 2 1 4 0 0 1 1 1 3 1 1 0 3 0 0 1 2 0 0 0 1 3 1 0 0 0 1 2 1 1 1 3 0 1 1 1 4 0 0 0 1 1 2 1 0 1 1 0 1 1 1 1 0 1 0 1 1 0 1 0 2 0 1 0 1 1 0 2 0 0 1 1 0 0 1 1 0 1 1 0 3 1 1 2 1 0 1 0 0 0 0 2 1 0 0 0 1 1 0 0 1 1 1 1 0 0 2 0 3 1 1 0 0 1 0 1 2 1 0 1 1 1 1 1 0 0 0 0 0 0 1 0 0 2 0 0 0 1 2 0 1 0 1 1 1 1 1 0 0 2 1 1 1 1 1 1 0 0 0 0 1 1 1 2 0 1 1 0 0 1 1 0 2 1 1 0 0 2 0 2 0 1 1 1 0 2 1 0 0 0 0 0 0 1 1 2 3 0 0 0 0 3 1 0 1 2 1 2 0 0 0 0 0 0 0 1 0 2 0 1 0 0 2 1 1 0 1 0 0 1 0 1 0 1 0 0 2 1 0 0 1 3 0 3 1 2 1 0 1 0 2 1 1 3 0 0 1 0 1 0 1 0 0 2 0 1 0 2 0 0 0 1 0 0 0 0 0 1 1 1 1 0 0 0 2 0 0 0 0 1 0 0 0 3 1 0 1 1 2 1 1 1 1 1 0 0 1 1 0 0 2 0 0 1 1 0 0 0 0 0 1 1 1 1 0 1 1 2 1 1 0 0 0 1 0 0 1 1 0 0 0 0 1 0 1 0 1 1 1 1 0 0 0 1 0 0 0 1 0 0 0 0 0 0 0 2 0 0 1 0 1 0 0 0 0 0 1 0 2 1 1 3 0 1 1 0 1 2 0 1 0 1 1 0 0 0 0 0 0 2 0 1 2 0 1 1 1 1 0 1 1 2 0 1 1 0 1 0 0 0 0 1 2 1 1 1 2 0 1 1 1 1 2 3 1 1 2 5 0 0 2 0 1 3 0 1 1 0 2 0 0 1 1 0 1 0 1 1 1 1 0 3 2 0 0 1 2 0 0 1 0 0 1 1 0 1 1 1 1 0 0 0 0 0 2 0 1 1 2 1 1 2 1 2 2 1 1 1 2 0 0 2 1 2 0 0 0 0 3 1 4 0 0 0 3 0 0 0 0 0 1 1 1 1 0 0 0 1 1 0 0 1 2 0 0 1 1 0 0 2 0 0 1 2 0 0 0 0 0 1 2 0 1 1 1 0 0 2 0 0 1 1 1 1 0 0 1 1 3 0 1 0 0 1 0 0 1 1 1 1 0 0 0 1 1 1 1 1 0 1 1 1 1 0 2 0 0 2 0 0 0 2 1 1 0 0 1 1 3 0 1 1 1 0 0 1 2 1 1 1 1 2 2 1 0 3 4 0 2 1 4 1 0 2 1 1 1 4 0 0 0 1 0 3 2 0 1 3 0 1 2 1 1 2 1 0 1 3 0 1 3 0 1 2 1 1 1 1 3 0 0 1 3 1 1 2 1 2 1 0 2 2 2 0 1 1 1 1 0 2 2 0 1 0 1 1 0 0 1 1 2 2 1 0 0 0 1 2 2 1 1 2 0 2 1 0 0 2 1 1 0 0 0 0 2 2 0 1 3 0 1 2 1 1 1 0 1 0 3 1 1 2 4 2 2 1 2 0 1 1 2 1 0 0 1 0 0 1 0 0 2 0 1 0 0 0 1 0 0 0 0 1 1 0 1 1 0 1 1 0 0 0 0 1 1 0 2 2 0 1 4 2 1 1 1 0 1 0 1 1 0 0 0 1 2 1 1 1 1 1 0 1 1 0 0 2 1 2 2 2 1 2 1 2 0 1 2 0 1 1 2 2 1 1 2 1 1 0 3 1 1 2 1 1 1 2 2 1 1 1 0 0 1 2 0 1 2 0 0 1 1 2 0 1 1 2 1 2 3 3 1 1 2 2 1 0 1 1 1 0 1 2 2 2 0 2 0 2 0 0 3 0 1 2 2 1 1 2 2 0 0 0 0 1 1 2 0 1 0 2 1 1 2 0 1 2 0 0 1 0 0 0 0 2 2 1 1 0 0 0 1 1 2 0 1 1 2 1 1 3 0 0 1 2 0 0 1 1 2 1 1 2 1 2 2 0 3 0 0 1 2 0 2 1 1 0 0 1 0 1 0 0 0 1 0 0 1 1 1 1 0 1 1 0 1 1 0 0 1 3 0 0 3 1 2 3 2 1 0 0 0 2 3 1 2 1 1 2 1 1 3 0 0 0 2 0 0 2 0 1 1 0 2 1 0 0 1 0 0 1 0 1 0 0 0 1 0 0 0 0 0 1 1 0 0 2 1 0 2 0 1 1 1 1 0 0 1 0 2 0 2 0 0 1 0 2 1 0 0 1 2 1 2 2 1 0 1 2 0 1 0 0 2 0 0 2 0 2 2 0 3 0 2 0 0 3 0 0 0 0 0 2 2 0 5 0 4 2 4 3 1 3 2 2 0 2 0 0 0 1 4 0 1 2 1 0 0 1 1 1 2 0 0 3 1 0 0 1 0 0 0 1 0 0 1 0 0 4 1 1 2 2 0 1 1 2 1 0 0 1 0 0 1 2 0 0 1 0 2 0 1 1 2 1 2 0 2 0 2 1 3 1 2 0 1 0 1 2 1 0 1 1 0 0 2 1 0 0 1 1 4 1 2 2 0 0 1 0 2 0 1 1 3 1 1 0 3 0 1 2 2 1 3 2 1 0 0 1 0 0 3 1 0 0 3 1 0 0 2 2 0 0 1 2 2 1 0 1 1 1 0 2 1 0 1 2 2 2 2 1 0 1 0 1 1 1 0 1 0 0 0 1 0 1 1 0 0 0 0 2 1 0 1 1 0 1 1 1 0 2 2 1 1 0 1 1 2 0 0 0 0 1 0 2 0 0 2 1 1 1 0 0 0 2 0 0 1 1 1 0 0 1 0 2 0 1 2 1 0 1 0 2 0 0 1 1 0 1 0 0 1 1 0 0 2 2 2 2 0 0 0 3 0 0 1 2 2 1 1 0 2 2 1 2 1 1 1 4 0 1 0 1 1 0 2 1 0 0 0 3 1 0 0 0 2 1 1 0 1 4 1 0 1 1 3 0 1 0 2 2 0 1 0 1 0 0 3 0 1 0 1 0 2 1 2 2 0 0 1 0 0 0 0 1 4 1 1 0 1 0 1 1 1 2 1 0 2 1 1 0 1 0 1 0 0 0 1 1 0 0 2 0 1 2 1 1 2 0 0 1 1 0 0 0 1 2 0 1 0 3 3 2 0 0 1 2 0 0 1 2 3 0 2 1 1 0 3 0 1 1 3 1 2 2 1 1 1 0 0 1 1 1 0 2 2 2 0 2 1 0 1 0 4 1 1 0 4 0 2 1 0 1 1 1 2 3 4 1 2 1 1 1 0 2 1 1 2 1 1 2 1 1 0 1 0 1 1 0 0 1 1 0 1 2 1 1 2 1 1 2 0 1 1 1 1 2 1 2 0 1 2 0 2 0 1 2 2 1 1 2 2 0 3 2 0 2 2 0 0 0 0 2 1 0 2 0 0 0 0 0 2 0 1 1 0 1 1 1 1 0 0 0 3 0 0 2 0 0 1 1 0 1 1 0 0 0 0 1 1 2 0 1 3 0 0 1 4 0 1 0 1 1 2 1 0 2 1 1 2 1 1 2 1 0 0 0 2 0 1 1 1 3 0 0 2 0 0 0 2 0 1 0 2 2 1 1 1 1 0 1 3 1 0 1 1 0 2 0 0 3 0 1 1 1 0 2 0 1 2 1 0 2 0 0 0 2 1 0 0 0 1 1 1 0 0 1 2 1 1 0 2 0 0 0 2 0 1 1 1 3 0 1 3 0 0 1 1 1 0 0 0 3 0 3 0 0 0 1 2 0 0 0 2 0 0 1 0 1 0 0 0 1 1 0 1 0 0 0 1 2 0 1 2 0 0 1 0 0 0 1 2 0 0 0 0 1 0 0 2 0 0 2 1 0 1 1 0 3 0 2 0 0 0 3 1 1 0 1 0 0 1 1 0 2 2 1 0 0 2 0 0 0 1 1 0 0 1 1 1 1 1 0 0 1 0 1 3 0 0 2 0 0 2 1 2 0 0 0 0 1 1 0 1 1 1 0 1 0 4 0 0 1 0 3 1 0 0 0 0 1 0 0 1 1 1 1 0 1 1 0 0 1 1 0 0 2 1 1 0 1 1 0 1 1 0 1 2 1 1 2 0 0 2 0 2 1 0 1 1 1 1 0 0 0 1 0 1 1 1 0 0 0 0 0 1 2 1 1 0 1 1 0 1 0 0 1 0 1 0 1 0 1 0 1 2 0 3 0 3 2 0 0 1 1 2 0 0 0 2 0 1 1 0 2 1 0 2 0 1 0 1 1 0 1 0 1 1 1 2 0 0 1 1 3 2 0 1 0 0 1 1 0 0 2 0 1 1 0 0 1 0 0 1 1 0 1 0 2 1 0 0 0 0 0 0 0 0 0 0 0 1 0 1 0 0 0 0 0 0 0 0 0 0 0 0 0 1 0 0 0 1 0 0 0 0 0 0 2 1 0 0 0 2 0 0 0 1 1 1 0 1 0 0 0 0 0 1 0 1 0 1 0 0 1 1 0 0 0 0 1 0 1 0 0 2 1 1 1 0 0 0 0 0 0 1 0 0 1 0 0 0 1 0 0 0 0 0 0 1 0 1 1 1 2 0 0 1 0 0 0 0 0 0 0 1 0 1 1 0 0 0 0 2 0 0 0 0 1 0 0 0 0 1 0 0 1 0 1 1 1 2 0 2 0 0 0 0 1 1 0 1 1 1 1 1 0 0 0 2 0 0 1 0 1 1 0 2 0 0 0 0 0 1 1 2 0 0 1 0 1 0 1 0 0 2 1 1 1 2 1 3 0 1 0 1 0 1 1 0 3 1 0 0 0 0 2 2 1 0 0 1 0 1 0 1 1 0 0 0 0 0 1 2 1 0 1 1 0 1 1 1 1 1 0 0 0 0 1 1 1 0 0 0 1 1 0 1 0 1 2 0 0 0 1 1 4 0 0 1 1 1 1 3 1 0 0 0 0 0 2 2 0 0 0 0 1 2 0 0 1 0 0 1 1 0 1 1 0 2 2 0 0 0 2 0 1 1 1 0 0 0 0 0 0 2 0 1 0 1 0 1 0 2 1 1 1 0 3 0 0 0 1 0 1 1 0 0 0 0 1 1 0 0 1 0 0 1 1 1 1 0 1 2 0 2 0 0 0 1 1 1 2 1 0 2 1 2 1 1 2 3 0 0 3 0 1 0 1 1 3 2 0 1 1 2 0 2 0 2 2 1 2 0 0 1 0 0 1 0 2 0 1 1 2 1 1 3 1 1 1 2 0 1 0 3 0 2 2 2 2 2 1 0 0 1 0 1 0 1 1 0 0 0 1 0 0 0 2 0 1 2 1 2 0 2 0 0 2 2 0 1 1 1 0 0 2 2 2 1 0 0 1 0 0 1 0 0 1 0 1 2 0 0 1 0 0 0 1 1 1 1 0 1 0 2 2 1 0 1 1 0 1 1 2 1 2 1 0 1 0 2 1 0 1 0 1 1 0 1 2 0 1 0 1 0 0 2 1 0 2 2 2 0 1 0 1 1 0 0 1 3 0 1 0 1 0 2 0 0 0 2 3 0 3 1 0 2 0 1 1 1 1 0 1 0 1 0 1 2 1 1 0 0 2 2 1 0 0 0 3 1 0 2 2 1 0 3 1 0 0 1 2 0 0 0 2 1 0 2 0 0 0 1 2 1 0 1 0 1 1 2 1 0 2 3 1 3 0 0 1 0 0 0 0 1 0 0 0 0 0 3 0 0 1 1 0 2 1 2 2 1 1 2 1 0 2 1 1 3 1 2 1 2 2 0 2 1 1 1 1 1 2 3 1 1 2 0 1 1 1 1 0 0 1 1 0 2 1 0 1 0 1 1 0 0 2 1 3 0 0 0 2 0 2 0 0 0 2 1 0 0 0 0 2 0 1 0 1 2 1 0 1 0 0 2 0 0 1 1 0 1 0 1 0 0 1 0 2 0 0 0 4 1 2 0 2 1 0 2 1 0 0 0 1 1 0 1 1 1 2 2 0 2 2 0 1 2 1 1 1 0 1 1 3 0 2 0 1 1 2 1 2 0 0 1 1 0 1 1 3 3 1 1 0 0 1 1 0 1 0 1 1 0 1 1 3 0 0 1 0 0 1 1 3 1 1 0 1 1 0 0 1 2 1 0 1 2 3 0 0 2 1 0 2 1 2 0 1 0 0 1 2 1 0 0 1 1 0 1 1 1 1 1 1 1 1 0 1 3 1 2 0 2 1 0 2 0 1 0 0 3 1 2 3 0 0 0 1 1 0 0 2 2 1 1 1 1 1 0 1 2 0 0 1 0 1 2 1 1 0 0 1 2 0 0 1 0 1 1 0 4 1 1 2 0 2 0 0 0 1 0 2 0 0 1 1 1 1 1 1 0 1 0 0 0 0 2 1 0 0 0 0 1 0 2 1 1 1 2 2 0 1 1 0 0 1 1 1 0 0 0 2 2 0 1 0 0 0 1 0 0 2 0 0 0 1 2 1 0 0 1 0 1 1 1 0 0 1 1 1 0 0 0 1 0 0 2 0 0 1 0 3 0 1 0 1 0 1 3 2 0 1 1 1 2 1 1 0 1 1 1 0 1 0 0 0 0 0 1 1 1 1 1 2 1 0 1 0 1 1 4 0 0 2 0 0 0 0 0 0 0 1 1 0 1 0 0 0 1 1 2 1 0 1 1 2 3 0 2 0 1 0 2 3 1 1 1 1 0 3 0 1 0 0 0 0 3 0 0 1 0 3 0 2 1 1 0 0 0 1 1 1 0 0 2 1 1 0 0 0 0 0 0 1 0 0 2 0 0 0 2 0 0 1 1 1 0 0 1 1 1 0 0 0 0 1 1 0 0 0 0 1 0 0 1 1 3 0 2 1 1 1 3 0 0 1 2 1 0 2 1 3 2 0 0 0 0 0 2 0 3 2 0 0 1 0 2 4 2 3 0 2 1 2 2 0 1 2 1 2 3 0 1 1 3 1 0 2 0 2 2 3 1 2 1 0 1 4 3 0 1 0 0 0 0 3 1 0 2 2 1 0 0 1 1 2 0 0 0 0 1 0 0 1 1 3 0 0 3 1 0 1 0 0 0 0 1 0 1 0 1 2 0 0 0 2 0 3 1 1 2 0 1 0 0 0 1 0 2 0 1 1 0 0 2 2 0 2 2 1 1 0 2 0 1 3 0 0 2 0 2 0 3 1 1 0 1 1 1 2 2 0 1 4 2 0 0 1 1 1 0 0 3 0 3 1 2 1 0 1 1 1 1 0 0 1 0 2 0 2 0 0 2 1 1 0 2 1 1 0 0 0 0 0 2 1 0 1 0 0 0 0 0 0 0 2 1 1 1 1 1 1 1 1 0 0 0 2 0 0 0 1 0 0 0 1 0 0 0 0 0 0 1 1 0 1 3 1 2 1 1 0 3 2 2 0 1 1 2 0 0 2 0 2 0 0 0 2 1 2 0 3 2 0 0 0 0 1 1 0 1 0 1 3 2 1 1 2 1 0 2 0 2 2 1 0 1 0 0 1 2 0 1 1 0 1 0 1 1 1 2 1 0 0 0 0 1 0 0 0 0 0 2 2 1 1 2 0 1 0 2 1 1 1 3 1 2 1 2 2 2 1 2 3 3 1 2 1 2 2 2 0 4 0 0 1 3 2 0 0 0 3 3 0 0 1 0 1 1 2 0 4 3 1 0 0 1 2 0 2 2 1 2 0 2 3 0 0 1 1 0 1 2 0 2 2 2 0 0 0 0 1 0 2 0 0 3 0 1 3 1 1 1 1 0 1 1 3 0 3 2 2 2 2 4 1 0 3 1 0 0 1 2 2 2 2 1 1 2 0 1 1 0 2 2 2 0 0 0 1 1 3 0 0 0 2 3 0 1 1 0 2 2 0 1 0 0 1 0 2 1 1 0 0 0 1 0 1 1 2 1 5 1 1 2 2 0 1 1 1 2 0 0 1 1 0 1 0 1 1 0 1 4 0 2 0 1 0 2 0 0 0 1 0 1 1 0 1 0 0 2 1 0 2 1 1 2 0 0 1 2 0 1 1 1 3 1 1 0 1 0 0 2 1 0 0 1 1 2 0 0 1 2 1 2 1 0 1 1 1 1 1 1 0 0 1 1 1 0 1 0 2 1 2 0 1 2 1 0 1 0 0 0 1 0 0 2 1 1 2 1 1 1 3 1 0 0 2 3 0 1 1 1 2 1 0 2 0 2 1 1 0 2 2 2 3 0 1 2 3 2 1 2 0 0 1 0 3 0 0 0 0 1 1 0 0 2 0 0 2 1 0 2 0 2 1 1 2 0 0 2 1 1 3 0 1 0 1 1 1 2 1 0 2 2 1 0 3 0 1 2 1 0 1 1 0 0 1 0 0 0 2 1 0 0 0 0 1 1 0 0 2 1 1 1 1 0 0 0 0 1 1 0 1 2 2 0 1 1 0 1 0 1 3 2 1 0 1 0 0 1 0 0 0 2 0 1 1 0 2 2 0 2 0 0 1 1 2 2 1 1 2 3 2 0 0 0 2 2 2 0 0 2 2 0 1 2 2 0 2 1 1 0 4 1 2 2 4 0 0 2 0 0 0 2 1 2 5 1 3 0 1 1 4 0 3 0 4 2 1 0 1 0 0 1 1 1 2 1 2 2 1 3 1 3 1 0 2 0 4 2 3 1 0 0 1 1 1 1 1 4 0 1 0 0 0 0 1 1 3 1 0 0 2 1 1 2 1 2 1 1 1 1 1 3 0 3 1 3 1 1 0 1 2 0 0 0 3 0 4 3 0 0 0 1 0 2 2 2 0 1 3 1 3 1 2 0 1 0 1 1 1 2 1 3 0 0 0 3 0 0 2 3 2 2 3 0 0 1 0 1 0 0 0 0 0 0 0 0 2 0 1 0 1 0 2 1 0 1 2 1 0 1 0 2 0 0 1 2 1 0 1 0 2 1 0 0 1 0 2 1 1 0 1 3 1 0 2 2 0 1 0 1 0 1 0 0 0 0 2 1 0 0 0 0 0 1 2 0 2 1 2 0 0 0 0 1 1 1 0 0 1 0 1 0 2 0 2 0 0 0 0 0 0 0 2 0 0 1 2 1 0 1 0 0 2 0 0 0 1 0 1 0 0 0 0 0 1 0 0 0 2 0 1 1 1 0 1 0 3 1 1 1 0 1 0 1 2 2 2 0 1 0 0 0 2 0 0 2 0 1 1 0 1 0 0 0 1 0 4 2 2 1 1 2 0 1 1 1 1 0 0 0 0 1 0 1 1 1 2 2 0 1 1 1 1 2 0 0 3 0 0 2 2 0 3 0 1 1 2 2 2 0 1 0 3 1 1 0 1 1 2 2 1 1 1 2 0 0 3 1 2 0 1 2 0 3 0 1 1 0 4 2 1 1 0 1 1 2 0 1 1 1 0 0 2 0 2 0 0 0 0 1 2 0 0 1 1 2 0 2 0 3 0 3 1 1 0 4 0 3 1 2 1 1 4 0 1 1 3 3 2 0 2 0 2 3 0 2 2 1 1 2 1 1 1 0 3 0 1 0 2 0 2 0 1 2 1 1 1 0 3 1 1 1 1 1 3 0 1 0 1 1 2 0 3 0 3 0 1 1 3 1 2 2 1 2 0 2 2 0 5 0 3 2 1 1 1 1 0 2 1 2 1 2 2 1 2 2 0 0 3 2 1 2 1 0 2 0 1 4 2 0 2 3 1 1 1 3 1 1 1 1 2 0 1 0 0 0 1 0 0 2 0 1 1 0 0 0 1 0 2 0 1 2 1 0 1 0 1 1 1 1 0 0 0 0 1 1 2 1 2 0 0 0 0 0 1 0 1 2 3 0 0 1 0 1 1 0 1 1 1 1 1 0 0 2 1 0 2 1 0 0 1 1 1 1 0 2 0 0 1 1 2 0 1 1 2 1 1 0 0 2 0 0 0 2 1 0 2 1 3 2 1 1 1 1 0 0 1 1 0 0 1 2 1 3 0 1 0 0 0 2 1 1 1 1 0 0 4 1 0 3 0 1 2 0 0 1 2 2 1 2 0 2 0 0 1 1 2 1 3 0 0 1 0 2 2 2 0 0 2 0 0 0 0 0 0 1 1 1 0 1 0 2 0 2 1 0 0 0 1 1 1 4 1 0 0 0 1 0 0 0 3 1 0 0 1 0 1 0 0 0 0 0 2 1 2 0 0 0 1 1 0 1 1 1 1 0 0 2 1 2 2 1 1 0 4 0 2 2 0 1 0 0 1 1 1 1 0 1 0 1 1 3 0 1 1 1 0 0 1 1 0 1 0 
BTB PER SET COUNT: 0 1 1 1 0 0 0 0 0 0 1 0 1 0 0 1 1 0 0 1 0 1 1 1 0 1 0 1 1474 0 1 1 1 0 0 0 0 1 4 0 1 0 1 2 1 0 1 0 1 1 0 0 1 0 0 1 1 2 0 0 0 0 0 1 0 1 0 0 0 1 1 0 1 0 0 0 479 2 1 1 1 0 1 1 1 1 0 1 3 1 1 518 1 1 1 0 0 0 0 0 0 2 1 1 0 1 0 0 0 0 1 0 0 1 0 2 0 0 0 0 0 0 0 0 0 0 0 0 2 0 1 0 0 0 1 0 0 0 0 1 0 0 1 0 0 0 0 1 1 1 0 50 1 0 0 0 0 0 0 0 0 0 0 1 0 0 0 0 1992 1 0 0 1 0 0 0 0 1 0 0 0 0 1 0 0 1 0 0 0 0 2 0 1 2 0 2 1 0 0 1 0 1 0 0 0 0 0 0 0 0 0 1 1 1 1 0 0 1 0 0 0 0 1 1 2 0 0 0 0 1 1 0 0 0 0 2 1 0 0 0 1 0 1 0 3 1 0 0 1 0 1 0 0 1 0 2 1 0 0 0 2 1 1 0 2 3 1 0 1 0 0 0 0 1 0 1 0 0 0 1 1 0 0 0 1 1 0 0 0 0 0 0 0 0 0 0 2 2 0 0 1 0 1 0 1 0 2 0 0 0 1 0 0 0 2 0 1 1 0 1 0 0 0 0 0 0 1 1 0 0 0 0 1 0 1 0 0 0 2 0 3 0 0 0 0 0 1 0 0 0 0 1 0 3 1 0 1 0 2 0 0 2 1 0 1 1 0 0 0 0 1 0 0 0 0 1 0 0 1 0 0 0 0 1 0 0 1 0 0 0 0 0 1 0 0 0 0 0 0 1 1 1 0 0 0 0 1474 2 0 0 0 0 0 0 1 0 2 0 0 86 1 0 1 2 0 2 0 0 0 0 0 0 1 1 1 0 0 0 0 0 0 2 0 1 0 0 0 0 0 0 0 0 0 0 1 0 1 0 2 0 2 0 1 1 0 0 0 0 1 2 0 0 1 479 3 0 0 1 0 0 0 0 0 480 0 0 1 0 0 1 1 0 0 1 0 2 0 1 0 0 1 0 0 0 0 0 0 0 0 1 1 1 0 0 2 0 0 1 1 481 1 1 1 1 3 0 0 1 1 1 1 1 0 2 1 1 0 0 4 0 0 2 1 0 0 1 2 1 0 1 0 0 0 1 0 1 1 0 0 0 2 0 0 0 0 0 0 0 1 3 2 0 1 2 1 0 0 0 0 0 0 0 0 0 0 0 0 0 0 0 0 0 0 0 0 0 1 0 0 0 0 0 0 1 0 1 0 1 0 0 1 0 0 0 0 0 0 0 0 0 0 0 1 0 1 1 0 0 0 0 480 0 0 1 0 0 0 0 0 0 0 0 1 0 0 0 0 0 0 0 0 0 0 0 0 0 0 0 0 1 0 1 0 1 1 1 1 0 0 0 1 0 1 0 1 1 0 1 1 0 1 0 0 0 0 0 1 1474 1 0 0 0 0 1 0 1 1 1 0 0 0 1 0 1 0 0 0 0 0 0 1 1 0 0 1 0 1474 1 0 0 0 0 0 0 0 0 0 0 0 2 0 1 0 0 0 0 2 1 1 0 1 1 1 0 1 0 0 0 0 1 0 0 1 0 0 1 1 2 0 0 1 0 0 0 0 0 1 0 0 0 2 0 0 0 0 1 3 0 1 1 1 0 0 0 1 1 1 1 0 0 1 0 0 0 2 1 1 0 0 0 0 0 0 0 0 0 0 0 0 1 0 1 0 0 0 0 2 0 0 0 2 0 1 0 0 0 0 1 0 0 0 1 1 0 0 0 0 0 1 0 0 0 0 0 0 1 0 2 1 0 1 0 2 0 0 0 0 0 0 0 0 0 0 0 0 0 0 0 1 0 0 0 0 0 0 0 0 0 2 1 1 1 0 0 0 0 0 1 0 0 0 0 0 0 0 0 2 0 1 0 0 0 0 1 0 1 0 0 0 1 0 1 0 0 0 0 0 0 0 0 0 1 1 0 1 0 0 0 1 0 0 0 2 0 1 0 0 1 0 0 0 0 0 1 0 0 1 0 0 1 0 0 0 0 0 0 0 2 0 0 2 0 1 1 0 1 4 1 0 1 0 0 0 0 1 0 1 3 0 0 2 1 1 2 1 0 0 1 2 0 2 1 0 0 1 0 0 1 0 2 0 0 1 0 1 1 2 0 0 0 0 0 2468 0 0 0 2 1 0 1 1 1 5 2 0 0 0 1 1 1 3 2 1 1 1 0 0 1 1 0 0 0 0 2 0 1 3 0 2 3 0 1 0 2 1 1 2 2 1 0 0 0 1 0 2 0 1 1 2 1 1 3 0 2 0 0 3 0 0 1 0 0 0 1 1 2 2 2 1 2 0 2 1 2 1 0 2 0 0 1 0 2 1 0 2 1 1 1 0 1 0 2 1 1 1 1 1 0 3 3 1 1 1 1 0 1 1 2 1 1 1 1 1 0 3 1 0 0 2 0 0 0 1 0 1 0 0 1 1 3 0 2 1 0 1 0 1 1 0 0 0 0 0 3 0 1 1 1 0 1 0 0 1 0 3 0 0 1 2 5 2 1 0 3 4 0 2 0 0 0 0 1 1 0 1 0 3 101 1 0 0 0 2 1 0 2 0 0 0 2 1 3 0 2 0 1 0 0 2 5 999 0 4 0 0 0 2 4 3 0 2 1 1 1 0 0 0 2 1 1 0 1 2 2 2 0 2 1 0 2 3 2001 1 1 1 1 0 0 1 3 4 1 1 1 1 1 2 1 2 0 0 1 1 0 3467 2 1 0 0 0 1 1 0 0 1 0 0 1 2 2 1 0 2 0 0 0 0 1 1 0 1 0 0 1 1 0 2 1 3 1 1 1 1 0 1 1 0 2 1 1 0 2 0 1 2 0 0 0 0 1 0 1 0 1 1 1 1 0 0 0 0 1 1 0 0 1 0 0 0 0 1 2 2 0 1 0 0 0 1 2 3 1 1 1 0 2 0 2 2 0 1 0 0 1 1 2 1 1 1 0 1 2 0 0 1 2 0 1 1 0 1 0 0 1 1 1 1 2 1 0 4 1 1 1 0 0 1 145 0 1 0 2 0 1 2 0 0 0 0 3 0 0 0 1 0 1 1 1 0 1 0 0 1 0 1 0 0 0 0 1 0 0 0 0 0 1 1 1 3 1 1 0 1 1 1 0 1 0 0 3 0 0 0 0 0 1 1 0 0 0 0 0 0 0 0 0 0 0 2 0 0 0 1 0 1 0 0 2 0 0 1 1 1 1 1 0 0 1 0 0 1 0 1 1 1 1 0 0 1 0 2 363 0 0 3 0 0 1 0 1 1 1 1 1 0 1 1 1 0 1 1 0 0 0 2 0 1 0 0 0 0 0 0 1 1 0 1 464 1 1 0 0 1 0 1 1 0 0 0 2 1 0 0 1 1 1 8 0 0 1 1 3 1 0 0 1 2 0 0 0 3 1 2 0 2 0 2 1 0 1 1 2 3 0 1 0 2 1 0 21 2 2 1 2 3 0 0 2 0 1 1 0 1 0 1 0 0 995 0 1 2 0 0 0 1 2 2 1 3 0 0 0 3 0 0 2 1 0 0 0 0 3 0 1 0 249 1 0 1 1 1 1 4 1 1 1 1 0 1 0 0 0 1 1 1 2 0 0 1 1 0 1 1 0 0 1 1 0 0 1 0 0 0 2 1 0 0 2 1 0 0 0 0 1 0 0 1 1 2 1 1 1 615 0 1 3 3 2 3 1 0 2 0 0 1 1 0 0 0 0 1 1 2 0 0 1 1 1 171 0 0 0 0 1474 221 1 1 1 0 0 1 752 0 0 0 0 1 0 0 0 0 638 0 1 0 0 3 0 2 1 0 0 0 0 0 2 0 0 0 0 0 0 1 0 3 0 1 509 0 0 1 1 0 0 0 0 0 0 0 0 3 1 1 0 3 0 0 1 1 0 0 6 0 0 0 0 1 1 0 0 2 2 412 0 0 1 0 2 218 1 87 0 1 0 3 0 257 0 2 0 1 0 1 1 0 0 1 1 0 0 0 0 2 1 1 0 1 381 1 0 1 0 0 0 0 1 1 0 0 0 0 0 0 2 258 2 0 0 0 1 0 0 0 0 0 1 1 0 0 1 0 0 1 5 0 1 2 0 1 0 0 1 1 1 0 0 0 0 1 0 0 0 0 0 0 0 0 0 1 0 0 1 1 1 0 0 0 1 0 0 0 0 0 1 0 0 156 0 0 0 0 0 0 0 0 0 0 0 0 0 0 0 0 0 2 0 2 2 1 0 0 1 0 0 0 0 0 1 0 3 0 2 0 1 2 7 0 0 0 0 1 2 1 0 0 0 1 1 0 0 0 0 7 3 1 0 1 0 0 0 0 0 2 0 0 1 0 0 0 1 0 0 0 1 2 0 0 0 2 0 0 0 1 1 0 0 0 2 0 1 0 2 0 0 0 0 0 0 1 0 1 0 1 0 1 0 1 1 207 0 0 0 0 0 12 2 0 0 1 1 1 0 1 0 1 1 1 0 0 0 2 2 1 1 0 1 0 1474 1 1 0 0 1 2 0 0 1 0 1 4 0 1 0 0 2948 0 0 1 1 1 0 1 2 1 1 0 2 1 1 0 0 1 0 0 0 0 0 1 0 1 0 0 0 0 1 0 0 0 0 0 0 0 1 0 1 0 0 0 0 1 0 0 0 0 1 0 0 0 1 0 1 1 0 0 0 0 1 1 0 0 0 0 0 0 0 0 0 0 1 0 0 0 0 1 1 0 2 1 0 1 0 0 0 0 0 0 3 2 1 0 1 1 1 0 2 0 0 0 2 0 1 1 0 1 1 0 1 0 1 1 1 1 1 0 2 0 2 0 2 2 1 2 1 1990 2 0 2 0 0 0 1 0 0 0 1 0 2 0 1 1 1 0 1 0 0 0 1 1 0 2 2 1 1 2 1 1 1 1 1 2 1 0 5 1 0 1475 2 0 2 2 2 1 0 2 3 2 2 0 0 0 0 0 0 1 0 0 0 0 0 0 0 0 0 0 1 0 0 0 0 0 1 1 2 2 0 0 1 1 0 1 0 0 0 1 0 1 1 0 1 0 0 0 1474 1 0 0 0 0 0 0 1 0 0 0 0 0 0 0 1 0 1 0 2 0 1 0 0 0 0 2 0 1 1 0 1 0 0 0 0 0 0 0 1 0 1 0 3 1 1 0 1 0 1 4 2 3 0 0 0 4 1 1 1 0 0 2 0 0 1 0 0 1 0 1 0 0 1 0 0 0 1 1 3 0 0 0 1 0 2 4 1 1 2 0 0 0 2 0 1 1 1 2 3 3 0 1 0 1 0 0 0 1 4 1 1 2 1 0 2 1 0 1 2 1 1 0 2 0 3 1 1 0 0 1 1475 0 1 1 0 0 0 0 0 2 1 0 0 0 0 1 0 2 995 0 115 2 0 1 0 0 1 1 1 0 2 0 1 3 0 1 2 0 2 1 0 0 0 0 0 0 1 1 0 2 0 0 1 0 1 0 1 0 2 1 0 1 480 1 0 2 1 1 1 1 2 1 2 0 0 2 23 0 0 0 2 3 0 1 2 0 1 0 0 1 1 0 1 0 2 1 0 2 0 3 2 1 0 1 1 0 0 0 1 0 1 2 1 1 0 0 0 3 0 1 0 1 0 1 0 1476 0 0 0 3 0 2 1 1 0 0 0 1 0 0 1 1 1 1 0 1 0 0 0 1 1 0 0 1 0 0 1 1 0 0 0 1 1 0 0 0 1 0 0 0 1 0 0 1 0 0 0 0 0 0 2 2 0 1 1 31 0 0 0 0 0 2 2 1 1 2 0 0 1 0 1 0 2 0 3 2 2 3 1 2 1 0 0 2 0 0 0 0 0 2 0 0 0 0 1 480 2 0 0 2 1 1 1 0 1 1475 1 1 2 1 2 3 0 1 1 0 0 0 0 0 0 1 1 2 0 0 1 1 0 0 0 0 1 0 1 0 0 1 0 2 2949 1 0 3 0 0 1 4 0 0 1 2 0 0 1 1 3 0 0 2 1 0 0 1 1 2 0 0 0 0 3 0 4 0 0 2 0 1 0 0 2 0 1 0 1 1 5 0 0 1 4 0 0 0 1 0 0 0 1 0 0 1 1 0 2 1 0 0 0 2 0 3 1 0 0 1 1 1 1 2 479 0 1 0 0 2 0 1 1 0 0 2 0 0 0 1 0 3 1 1 4 1 1 1 0 1 0 1 2 0 2 1 0 0 0 1 0 0 3 3 0 0 0 1 0 1 0 1 1 1 3 0 0 0 2 2 2 1 1 0 1 1 0 0 1 0 1 0 1 2 0 1 0 0 0 1 1 1 0 0 1 1 2 0 2 0 1 1 0 0 0 0 0 0 1 0 1 1477 0 2 0 1 0 1 2 0 0 4 0 0 0 1 1 3 0 7 0 0 2 996 1 3 0 1 0 2 2 1 0 0 1 0 2 2 0 2 2 0 2 2 1 0 1 2 2 0 0 0 0 0 0 0 0 0 3 1 1 1 1 2 1 2 1 0 2 1 0 2 0 1 0 0 1 0 1 0 1 1 1 0 0 1 2 2 1 0 2 3 1 1 1 2 1 1 2 1 0 0 0 2 2 235 1 0 3 0 0 2 1 1 0 1 2 1 0 0 1 0 0 1 1 0 1 1 0 1 0 0 1 0 996 1 0 0 3 1 1 0 1 0 1 0 1 0 1 1 0 0 1 1 0 1 2 0 0 0 0 1 0 1 0 1 1 1 2 1 1 2 0 0 0 0 0 0 0 1 2 1 1 1 0 0 1 1 1 3 2 0 0 0 2 0 0 1 1 1 1 1 0 1 0 1 0 2 0 1 0 1 0 0 0 0 0 0 1 0 0 0 0 0 0 0 0 1 0 3 1 0 1 0 3 0 0 2 0 0 3 1 1 0 0 1 0 1 1 0 0 0 0 0 1 0 2 1 1 0 2 0 2 0 6 1 1 1 1 1 1 3 1 0 3 0 1 1 1 1 1 1 1 0 1 1 1 2 2 1 0 1 0 0 1 0 0 1 1 1 1 1 1 1 1 1 480 0 1 0 1 1 2 0 2 0 1 0 1 1 1 0 0 0 1 1 1 1 0 1 0 2 0 0 0 2 0 1 1 0 1 1 2 0 997 0 5 1 1 1 1 2 0 0 1 0 1 0 1 0 1 0 1 0 1 2 1 1 1 0 1 2 0 2 1 0 0 1 1 0 1 0 0 0 1 0 1 0 1 0 1 0 0 1 2 1 1 0 1 1 0 1 0 0 2 0 2 2 4 0 0 5 0 1 1 1 0 0 0 0 0 0 1 0 1 1 0 0 0 1 0 0 1 1 0 1 1 0 0 1 1 1 1 1 1 0 2 0 0 0 0 1 2 0 1 1 1 1 1 0 1 0 1 2 1 1 0 0 2 1 3 1 0 1 0 1 3 0 1 0 1 0 0 1 2 0 2 0 0 0 0 2 1 0 2 0 0 0 2 5 1 1 3 0 1 1 0 1 0 0 0 0 0 1 0 1 0 0 0 2 0 0 0 0 0 1 0 0 1 0 3 0 0 1 2 995 0 0 5 0 2 0 0 0 0 1 0 0 3 1 0 0 0 0 0 0 0 0 0 1 1 1 0 2 0 1 2 1 1 0 0 0 2 0 3 1 2 1 0 2 0 0 0 0 1 0 2 0 2 0 1 0 1 0 519 1 0 0 1 0 0 1 1 0 0 0 2 1 0 0 0 1 1 1 2 1 3 0 0 3 1 3 1 1 2 0 4 2 2 1 1 1 2 0 2 0 1 0 2 1 0 1 957 1 10 0 2 1 4 0 0 1 1 1 4 3 1 0 20631 0 0 1 2 0 0 0 1 3 1 0 0 0 1 2 1 1 1 3 0 1 1 1 4 0 0 0 1 1 2 1 0 1 1 0 1 1 1 1 0 1 0 1 1 0 1 0 2 0 1 0 1 1 0 2 0 0 1 1 0 0 1 1 0 1 1 0 3 1 1 2 1 0 1 0 0 0 0 2 995 0 0 0 1 1 0 0 1 1 1 3 0 0 2 0 3 1 2 0 0 1 0 1 14 1 0 1 1 1 2 1 0 0 0 0 0 0 1 0 0 2 0 0 0 1 2 0 2 0 1 1 1 1 1 0 0 2 1 1 1 1 1 1 0 0 0 0 1 1 1 120 0 1 1 0 0 1 1 0 2 1 1 0 0 2 0 2 0 1 1 1 0 2 1 0 0 0 0 0 0 1 1 2 3 0 0 0 0 3 1 0 1 2 1 2 0 0 0 0 0 0 0 1 0 2 0 1 0 0 2 1 1474 0 1 0 0 1 0 2 0 1 0 0 2 1 0 0 1 3 0 1476 1 3 1 0 1 0 2 1 1 3 0 0 1 0 1 0 1 0 0 2 0 1 0 2 0 0 0 1 0 0 0 0 0 1 1 1 1 0 0 0 2 0 0 0 0 1 0 0 0 3 1 0 1 1 2 1 1 1 1 1 0 0 1 1 0 0 2 0 0 1 1 0 0 0 0 0 1 1 1 1 0 1 1 2 1 2 0 0 0 1 0 0 1 1 0 0 0 0 1 0 1 0 1 1 1 518 0 0 0 1 0 0 0 1 0 0 0 0 0 0 0 2 0 0 1 0 1 0 0 0 0 0 1 0 2 1 1 3 0 1 1 0 1 2 0 1 0 1 1 0 0 0 0 0 0 6 0 1 3 0 1 1 1 1 0 1 1 2 0 1 1 0 1 0 0 0 0 3 2 1 1 1 2 0 1 1 1 1 2 3 1 1 2 5 0 0 2 0 1 3 0 1 1 0 2 0 0 1 1 0 1 0 1 1 1 2 0 4 2 0 0 1 2 0 0 1 0 0 1 1 0 1 1 1 1 0 0 0 0 0 2 0 1 1 2 1 2 2 1 2 2 1 1 1 2 0 0 2 1 2 0 0 0 0 3 1 4 0 0 0 3 0 0 0 0 0 1 1 1 1 0 0 0 1 1 0 0 1 4 0 0 1 1 0 0 3 0 0 1 2 0 0 0 0 0 1 5 0 1 1 1 0 0 2 0 0 1 1 1 1 0 0 1 1 3 0 1 0 0 1 0 0 1 1 1 1 0 0 0 1 1 1 1 1 0 1 1 1 1 0 2 0 0 2 0 0 0 2 1 1 0 0 1 1 3 0 1 1 1 0 0 1 2 1 1 1 1 2 2 1 0 356 4 0 2 1 4 1 0 2 1 1 1 4 0 0 0 1 0 3 2 0 1 3 0 1 3 1 1 2 1 0 1 3 0 1 3 0 1 2 1 1 1 1 3 0 0 1 3 1 1 4 1 2 1 0 2 2 2 0 1 1 1 1 0 2 480 0 1 0 1 1 0 0 1 1 2 3 1 0 0 0 1 2 2 1 1 2 0 2 1 0 0 2 1 1 0 0 0 0 2 2 0 1 3 0 1 2 1 1 1 0 1 0 997 1 1 2 4 2 2 1 2 0 1 1 2 1 0 0 1 0 0 1 0 0 2 0 1 0 0 0 1 0 0 0 0 1 1 0 1 1 0 1 1 0 0 0 0 1 1 0 2 31 0 1 196 2 1 1 1 0 1 0 1 1 0 0 0 1 2 1 1 1 1 1 0 1 1 0 0 2 1 2 2 2 1 2 1 2 0 1 2 0 1 1 2 2 1 1 2 1 1 0 3 1 1 2 1 1 1 958 2 1 1 1 0 0 1 2 0 1 2 0 0 1 1 2 0 1 1 2 1 2 3 3 1 1 2 2 1 0 1 1 1 0 1 2 2 2 0 2 0 4 0 0 958 0 1 2 996 1 958 2 2 0 0 0 0 957 957 2 0 1 0 4 1 1 2 0 1 2 0 0 1 0 0 0 0 2 2 2 1 0 0 0 1 1 2 0 1 1 2 1 1 4 0 0 1 4 0 0 1 1 2 1 1 2 1 2 2 0 3 0 0 1 2 0 2 1 1 0 0 1 0 995 0 0 0 1 0 0 1 1 1 1 0 1 1 0 1 1 0 0 1 3 0 0 3 1 2 3 2 1 0 0 0 2 3 1 2 1 1 2 1 1 3 0 0 0 2 0 0 2 0 1 1 0 2 1 0 0 1 0 0 1 0 1 0 0 0 1 0 0 0 0 0 1 1 0 0 2 1 0 2 0 1 1 1 1 0 0 1 0 2 0 2 0 0 1 0 2 1 0 0 1 2 1 2 2 1 0 1 2 0 1 0 0 2 0 0 3 0 2 2 0 3 0 2 0 0 481 0 0 0 0 0 2 2 0 15 0 4 3 4 3 1 3 4 3 0 3 0 0 0 1 4 0 1 2 1 0 0 1 1 1 2 0 0 3 1 0 0 1 0 0 0 1 0 0 2 0 0 5 1 1 2 2 0 1 995 2 1 0 0 1 0 0 1 2 0 0 1 0 2 0 1 1 2 1 2 0 1036 0 2 1 3 1 2 0 1 0 1 2 1 0 1 1 0 0 2 1 0 0 1 1 5 1 2 2 0 0 2 0 2 0 1 1 3 1 1 0 3 0 1 2 7774 1 3 2 1 0 0 957 0 0 3 1 0 0 3 957 0 0 2 3 0 0 1 958 2 1 0 1 1 1 0 958 1 0 1 2 2 2 2 1 0 1 0 1 1 957 0 1 0 0 0 1 0 1 957 0 0 0 0 2 1 0 1 1 0 1 1 1 0 2 2 1 995 0 1 1 2 0 0 0 0 1 0 2 0 0 2 1 1 957 0 0 0 2 0 0 1 1 1 0 0 1 0 2 0 1 2 1 0 1 0 2 0 0 1 2 0 3 0 0 1 1 0 0 2 2 3 2 0 0 0 24 0 0 1 2 2 1 1 0 2 2 1 2 1 1 1 4 0 3 0 1 1 0 3 1 0 0 0 3 2 0 0 0 2 1 1 0 1 127 1 0 1 1 3 0 1 0 2 2 0 1 0 1 0 0 3 0 1 0 1 0 2 1 2 2 0 0 1 0 0 0 0 1 4 1 1 0 1 0 1 1 1 3 1 0 3 1 1 0 1 0 1 0 0 0 1 1 0 0 2 0 1 2 1 1 2 0 0 1 1 0 0 0 1 2 0 1 0 3 3 2 0 0 1 2 0 0 1 2 3 0 2 1 1 0 3 0 1 1 3 1 2 518 1 1 50 0 0 1 1 1 0 996 2 2 0 2 1 0 1 0 4 1 1 0 8 0 2 1 0 479 2 1 2 3 8 1 2 1 1 1 0 354 1 1 2 1 1 2 1 1 0 1 0 2 1 0 0 1 1 0 1 2 1 1 2 1 1 2 0 1 1 1 1 2 1 3 0 1 1917 0 2 0 1 2 2 2 1 2 2 0 3 2 0 2 2 0 0 0 0 2 1 0 2 0 0 0 0 0 2 0 1 2 0 1 1 1 1 0 0 0 3 0 0 354 0 0 1 3 0 1 1 0 0 0 0 1 1 2 0 1 3 0 0 2 4 0 1 0 1 1 2 2 0 2 1 1 2 1 1 2 1 0 0 0 2 0 1 1 1 3 0 0 2 0 0 0 480 0 1 0 2 2 1 1 1 1 0 1 3 1 0 1 1 0 2 0 0 3 0 1 1 1 0 3 0 1 2 1 0 2 0 0 0 3 1 0 0 0 1 1 1 0 0 1 2 1 1 0 2 0 0 0 2 0 2 1 1 4 0 1 7 0 0 1 1 1 0 0 0 3 0 3 0 0 0 1 2 0 0 0 480 0 0 1 0 1 0 0 0 479 1 0 1 0 0 0 1 2 0 1 2 0 0 1 0 0 0 1 2 0 0 0 0 1 0 0 2 0 0 958 1 0 1 1 0 3 0 2 0 0 0 3 1 1 0 1 0 0 1 1 0 2 2 1 0 0 2 0 0 0 1 1 0 0 1 1 1 1 1 0 0 1 0 1 4 0 0 2 0 0 2 1 2 0 0 0 0 1474 1 0 1 1 1 0 1 0 4 0 0 1 0 3 1 0 0 0 0 1 0 0 1 1 1 1 0 1 1 0 0 1 1 0 0 2 1 1 0 1 1 0 1 1 0 1 2 1 1 2 0 0 5 0 2 1 0 1 1 1 1 0 0 0 1 0 1 1 1 0 0 0 0 0 1 2 1 1 0 1 1 0 1 0 0 1 0 1 0 1 0 1 0 1 3 0 4 0 3 2 0 0 2 1 2 0 0 0 2 0 1 1 0 2 1 0 2 0 1 0 1 1 0 1 0 1 1 3 2 0 0 1 1 3 2 0 1 0 0 1 1474 0 0 1349 0 1 1 0 0 1 0 0 2 1348 0 1 0 2 2 0 0 0 0 0 0 0 0 0 0 0 3 0 1 0 0 0 0 0 0 0 0 0 0 0 0 0 1 0 0 0 1 0 0 0 0 0 0 2 23 0 0 0 2 0 0 0 1 1 164 0 3 0 0 0 0 0 1 0 1 0 1 0 0 1 1 0 0 0 0 1 0 1 0 0 25 1 1 1 0 0 0 0 0 0 1 0 0 1 0 0 0 1 0 0 0 0 0 0 1 0 1 1 1 2 0 0 1 0 0 0 0 0 0 0 1 0 1 1 0 0 0 0 2 0 0 0 0 1 0 0 0 0 1 0 0 1 0 1 1 1 2 0 2 0 0 0 0 1 1 0 1 1 1 1 1474 0 0 0 1475 0 0 1 0 1 1 0 2 0 0 0 0 0 1 1 2 0 0 1 0 2872 0 1 0 0 5 3 1 1 2 1 3 0 1 0 1 0 1 1 0 3 1 0 0 0 0 2 2 1 0 0 1 0 1 0 1 1 0 0 0 0 0 1 2 1 0 1 1 0 1 1 1 1 957 0 0 0 0 1 1 957 0 0 0 1 479 0 1 0 1 2 0 0 0 1 1 482 0 0 14730 956 1 1 3 1 0 0 0 0 0 2 2 0 0 0 0 1 2 0 0 1 0 0 1 1 0 1 1 0 2 2 0 0 0 2 0 1 1 1 0 0 0 0 0 0 2 0 1 0 1 0 1 0 2 1 1 1 0 3 0 0 0 1 0 1 1 0 0 0 0 1 1 0 0 1 0 0 995 1 1 1 0 1 2 0 2 0 0 0 1 1474 1 2 1 0 2 1 2 1 1 2 3 0 0 3 0 1 0 1 1 3 2 0 1 1 2 0 2 0 2 1475 1 2 0 0 1 0 0 1 0 2 0 1 1 2 1 1 3 1 1 1 996 0 1 0 3 0 2 2 2 2 2 1 0 0 1 0 1 0 1 1 0 0 0 1 0 0 0 2 0 1 2 1 2 0 2 0 0 2 2 0 1 1 1 0 0 2 2 2 1 0 0 1 0 0 1 0 0 1 0 1 2 0 0 1 0 0 0 1 1 1 1 0 1 0 2 2 1 0 1 1 0 1 1 2 1 2 1 0 1 0 2 1 0 1 0 1 1 0 1 2 0 1 0 1 0 0 2 1 0 2 1475 2 0 1 0 1 1 0 0 1 5 0 1 0 1 0 2 0 0 0 2 3 0 3 1 0 2 0 1 1 1 1 0 1 0 1 0 1 2 1 2 0 0 2 2 1 0 0 0 3 1 0 2 2 1 0 3 1 0 0 1 2 0 0 0 2 1 0 2 0 0 0 1 2 1 0 1 0 1 1 2 1 0 2 1478 1 3 0 0 1 0 0 0 0 1 0 0 0 0 0 3 0 0 1 1 0 2 1 2 3 1 1 2 1 0 2 1 1 3 2 2 1 3 2 0 2 1 1 1 1 1 2 998 1 1 2 0 1 1 1 1 0 0 1 1 0 2 1 0 1 0 1 1 0 0 2 1 3 0 0 0 2 0 2 0 0 0 2 1 0 0 0 0 2 0 1 0 1 2 1 0 1 0 0 2 0 0 1 1 0 3 0 1 0 0 1 0 3 0 0 0 5 1 2 0 2 1 0 2 1 0 0 0 1 1 0 1 1 1 2 2 0 2 2 0 1 2 1 1 1 0 1 1 7 0 2 0 1 1 2 1 2 0 0 1 1 0 1 1 3 3 1 1 0 0 1 1 0 1 0 1 1 0 1 1 3 0 0 1 0 0 1 1 3 1 1 0 1 1 0 0 1 2 1 0 1 2 3 0 0 2 1 0 2 1 2 0 1 0 0 1 2 1 0 0 1 1 0 1 1 1 1 1 1 1 1 0 1 3 1 2 0 2 1 0 2 0 1 0 0 3 1 2 3 0 0 0 1 1 0 0 2 2 1 1 1 1 1 0 1 2 0 0 1 0 1 2 1 1 0 0 1 2 0 0 1 0 1 2 0 4 1 1 2 0 2 0 0 0 1 0 2 0 0 1 1 1 1 1 1 0 1 0 0 0 0 2 1 0 0 0 0 1 0 2 1 1 1 2 2 0 1 1 0 0 1 1 1 0 0 0 2 2 0 1 0 0 0 1 0 0 2 0 0 0 1 2 1 0 0 1 0 1 1 1 0 0 1 1 1 0 0 0 1 0 0 2 0 0 1 0 3 0 1 0 1 0 1 3 2 0 1 1 1 2 1 1 0 1 1 1 0 1 0 0 0 0 0 1 1 1 1 1 2 1 0 1 0 1 1 5 0 0 2 0 0 0 0 0 0 0 1 1 0 4 0 0 0 146 1 3 1 0 1 1 2 3 0 2 0 1 0 2 4 1 1 1 1 0 3 0 1 0 0 0 0 3 0 0 1 0 3 0 2 1 1 0 0 0 1 1 1 0 0 2 1 1 0 0 0 0 0 0 1 0 0 2 0 0 0 2 0 0 1 1 1 0 0 1 5 1 0 0 0 0 1 1 0 0 0 0 1 0 0 1 1 3 0 2 1 1 1 3 0 0 1 3 1 0 2 1 5 2 0 0 0 0 0 2 0 3 3 0 0 1 0 2 4 2 3 0 2 1 2 3 0 1 2 1 2 3 0 1 1 3 1 0 2 0 2 2 4 1 2 1 0 2 5 3 0 1 0 0 0 0 8 1 0 2 2 1 0 0 2 1 2 0 0 0 0 1 0 0 1 1 3 0 0 3 1 0 1 0 0 0 0 1 0 1 0 1 2 0 0 0 2 0 3 1 1 2 0 1 0 0 0 1 0 2 0 1 1 0 0 2 2 0 2 2 1 1 0 2 0 1 3 0 0 4 0 2 0 3 1 1 0 2 1 1 2 2 0 1 5 2 0 0 1 1 1 0 0 3 0 3 1 2 1 0 1 1 2 1 0 0 1 0 33 0 2 0 0 2 1 1 0 2 1 1 0 0 0 0 0 2 1 0 1 0 0 0 0 0 0 0 3 1 1 1 1 1 1 2 1 0 0 0 2 0 0 0 1 0 0 0 1 0 0 0 0 0 0 1 1 0 1 3 1 2 1 1 0 3 2 5 0 4 1 2 0 0 108 0 2 0 0 0 2 1 2 0 3 2 0 0 0 0 1 1 0 1 0 1 3 2 1 1 2 1 0 2 0 1916 2 1 0 1 0 0 1 2 0 1 1 0 1 0 1 1 1 2 1 0 0 0 0 1 0 0 0 0 0 2 4 1 1 2 0 1 0 2 1 1 10 4 1 2 1 2 2 2 1 2 3 3 1 2 1 2 2 2 0 4 0 0 1 3 2 0 0 0 3 3 0 0 1 0 1 1 2 0 4 3 1 0 0 1 2 0 2 2 1 2 0 2 3 0 0 1 1 0 33 4 0 2 2 2 0 0 0 0 1 0 2 0 0 3 0 1 3 1 1 2 1 0 1 1 3 0 482 2 2 2 2 4 1 0 4 1 0 0 1 2 2 2 2 1 1 2 0 1 1 0 2 2 2 0 0 0 1 1 3 0 0 0 2 3 0 1 1 0 2 2 0 1 0 0 1 0 2 479 1 0 0 0 1 0 1 1 2 1 1917 1 1 2 2 0 1 1 1 2 0 0 1 1 0 1 0 1 1 0 353 961 0 2 0 1 0 2 0 0 0 1 0 1 1 0 1 0 0 2 2 0 2 1 1 2 0 0 1 2 0 1 1 1 3 1 1 0 1 0 0 1475 1 0 0 1 1 2 0 0 1 2 1 2 1 0 1 1 1 1 1 1 0 0 1 1 1 0 1 0 104 1 2 0 1 2 1 0 1 0 0 0 1 0 0 2 1 1 2 1 1 1 3 1 0 0 2 3 0 1 1 1 2 1 0 2 0 2 1 1 0 2 2 2 3 0 1 2 3 2 1 2 0 0 1 0 3 0 0 0 0 1 1 0 0 3 0 0 2 1 0 2 0 4 1 1 2 0 0 2 1 1 3 0 1 0 1 1 1 3 1 0 2 2 1 0 3 0 1 2 1 0 1 1 0 0 1 0 0 0 3 1 0 0 0 0 1 1 0 0 2 1 1 1 1 0 0 0 0 1 1 0 1 2 2 0 1 1 0 1 0 1 3 2 1 0 1 0 0 1 0 0 0 2 0 1 1 0 2 2 0 2 0 0 1 1 2 2 1 1 1475 3 2 0 0 0 2 2 2 0 0 2 2 0 1 2 2 0 2 1 1 0 4 1 2 2 4 0 0 2 0 0 0 2 1 2 1187 995 4 0 1 1 4 0 3 0 4 2 1 0 1 0 0 4 1 1 2 1 2 2 1 3 1 481 1 0 4 0 65 2 3 1 0 0 2 1 1 1 1 4 0 1 0 0 0 0 1 1 3 1 0 0 2 1 1 3 1 2 1 1 1 1 1 3 0 3 1 3 1 1 0 1 2 0 0 0 3 0 5 3 0 0 0 1 0 2 2 2 0 1 34 1 3 1 2 0 1 0 1 1 1 2 3 4 0 0 0 3 0 0 3 3 2 2 9 0 0 1 0 1 0 0 0 0 0 0 0 0 2 0 1 0 1 0 2 1 0 1 2 1 0 1 0 2 0 0 1 2 1 0 1 0 2 1 0 0 1 0 2 1 1 0 1 3 1 0 8 2 0 1 0 1 0 1 0 0 0 0 996 1 0 0 0 0 0 1 2 0 2 1 2 0 0 0 0 1 1 1 0 0 1 0 1 0 2 0 2 0 0 0 0 0 0 0 2 0 0 252 2 1 0 1 0 0 2 0 0 0 1 0 1 0 0 0 0 0 1 0 0 0 2 0 1 1 1 0 1 0 3 1 1 1 0 1 0 1 2 2 2 0 1 0 0 0 2 0 0 2 0 1 1 0 1 0 0 0 1 0 4 2 2 1 1 2 0 1 1 1 1 0 0 0 0 1 0 1 2 1 2 2 0 1 1 1 1 2 0 0 3 0 0 2 2 0 3 0 1 1 2 2 2 0 1 0 4 2 1 0 1 1 2 2 1 1 1 2 0 0 4 1 2 0 1 2 0 3 0 1 1 0 4 2 1 354 0 1474 1 2 0 1 1 1 0 0 2 0 2 0 0 0 0 1 2 0 0 1 1 2 0 480 0 3 0 3 1 1 0 4 0 481 1 2 2 1 4 0 1 1 4 3 2 0 2 0 3 3 0 480 3 1 1 2 1 1 1 0 4 0 353 0 2 0 2 0 1 2 1 1 1 0 3 1 1 1 1 1 3 0 1 0 1 1 2 0 3 0 3 0 1 1 3 1 2 2 1 2 0 2 3 0 1439 0 3 3 1 1 1 1 0 2 1 2 1 2 2 1 2 2 0 0 3 2 1 2 1 0 2 0 1 4 996 0 2 3 1 3 1 3 1 1 1 1 2 0 1 0 0 0 1 0 0 2 0 1 1 0 0 0 1 0 2 0 1 2 1 0 1 0 1 1 1 1 0 0 0 0 1 1 2 1 2 0 0 0 0 0 1 0 1 2 3 0 0 1 0 1 1 0 1 1 1 1 1 0 0 23 1 0 2 1 0 0 1 1 1 1 0 2 0 0 1 1 2 0 1 1 2 1 1 0 0 2 0 0 0 2 1 0 958 1 3 2 1 1 1 1 0 0 1 2 0 0 1 2 1 3 0 1 0 0 0 2 1 1 1 1 0 0 4 1 0 3 0 1 2 0 0 1 2 2 1 2 0 2 0 0 1 1 958 1 3 0 0 1 0 2 2 2 0 0 2 0 0 0 0 0 0 1 1 1 0 1 0 2 0 2 1 0 0 0 1 1 1 4 1 0 0 0 479 0 0 0 4 1 0 0 1 0 1 0 0 0 0 0 2 1 2 0 0 0 1 1 0 1 1 1 1 0 0 2 1 2 3 1 2 0 4 0 2 7 0 1 0 0 1 5 1 1 0 1 0 1 1 3 0 2 1 1 0 0 1 6 0 1 0 
