
*** ChampSim Multicore Out-of-Order Simulator ***

Warmup Instructions: 50000000
Simulation Instructions: 50000000
Number of CPUs: 1
LLC sets: 2048
LLC ways: 16
Off-chip DRAM Size: 4096 MB Channels: 1 Width: 64-bit Data Rate: 6400 MT/s
CPU 0 runs ./micro_traces/srv741.trace.gz
.gz
ITLB has LRU replacement policy
DTLB has LRU replacement policy
STLB has LRU replacement policy
FDIP Prefetcher at L1I
L1I has LRU replacement policy
L1D has LRU replacement policy
Initialize SRRIP state for L2C
Initialize DRRIP state for LLC
Heartbeat_Variant_0 : 1296 0.316406 per_variant_size: 0 1296 0 0 0 0 0 0 0 
Heartbeat_Variant_1 : 2478 0.60498 per_variant_size: 0 589 1889 0 0 0 0 0 0 
Heartbeat_Variant_2 : 0 0 per_variant_size: 0 0 0 0 0 0 0 0 0 
Heartbeat_Variant_3 : 0 0 per_variant_size: 0 0 0 0 0 0 0 0 0 
Heartbeat_Variant_0_evicts 0 : 5847 1 : 308 2 : 0 3 : 0 
Heartbeat_Variant_1_evicts 0 : 282 1 : 0 2 : 0 3 : 0 
Heartbeat_Variant_2_evicts 0 : 0 1 : 0 2 : 0 3 : 0 
Heartbeat_Variant_3_evicts 0 : 0 1 : 0 2 : 0 3 : 0 
Heartbeat CPU 0 instructions: 10000001 cycles: 2796510 heartbeat IPC: 3.57589 cumulative IPC: 3.57589 (Simulation time: 0 hr 1 min 38 sec) 
Heartbeat_Variant_0 : 1347 0.328857 per_variant_size: 0 1347 0 0 0 0 0 0 0 
Heartbeat_Variant_1 : 2605 0.635986 per_variant_size: 0 540 2065 0 0 0 0 0 0 
Heartbeat_Variant_2 : 0 0 per_variant_size: 0 0 0 0 0 0 0 0 0 
Heartbeat_Variant_3 : 0 0 per_variant_size: 0 0 0 0 0 0 0 0 0 
Heartbeat_Variant_0_evicts 0 : 5788 1 : 422 2 : 0 3 : 0 
Heartbeat_Variant_1_evicts 0 : 415 1 : 0 2 : 0 3 : 0 
Heartbeat_Variant_2_evicts 0 : 0 1 : 0 2 : 0 3 : 0 
Heartbeat_Variant_3_evicts 0 : 0 1 : 0 2 : 0 3 : 0 
Heartbeat CPU 0 instructions: 20000001 cycles: 5592162 heartbeat IPC: 3.57698 cumulative IPC: 3.57643 (Simulation time: 0 hr 3 min 6 sec) 
Heartbeat_Variant_0 : 1349 0.329346 per_variant_size: 0 1349 0 0 0 0 0 0 0 
Heartbeat_Variant_1 : 2606 0.63623 per_variant_size: 0 537 2069 0 0 0 0 0 0 
Heartbeat_Variant_2 : 0 0 per_variant_size: 0 0 0 0 0 0 0 0 0 
Heartbeat_Variant_3 : 0 0 per_variant_size: 0 0 0 0 0 0 0 0 0 
Heartbeat_Variant_0_evicts 0 : 5572 1 : 22 2 : 0 3 : 0 
Heartbeat_Variant_1_evicts 0 : 20 1 : 0 2 : 0 3 : 0 
Heartbeat_Variant_2_evicts 0 : 0 1 : 0 2 : 0 3 : 0 
Heartbeat_Variant_3_evicts 0 : 0 1 : 0 2 : 0 3 : 0 
Heartbeat CPU 0 instructions: 30000002 cycles: 8387922 heartbeat IPC: 3.57685 cumulative IPC: 3.57657 (Simulation time: 0 hr 4 min 34 sec) 
Heartbeat_Variant_0 : 1367 0.33374 per_variant_size: 0 1367 0 0 0 0 0 0 0 
Heartbeat_Variant_1 : 2611 0.637451 per_variant_size: 0 503 2108 0 0 0 0 0 0 
Heartbeat_Variant_2 : 0 0 per_variant_size: 0 0 0 0 0 0 0 0 0 
Heartbeat_Variant_3 : 0 0 per_variant_size: 0 0 0 0 0 0 0 0 0 
Heartbeat_Variant_0_evicts 0 : 5742 1 : 264 2 : 0 3 : 0 
Heartbeat_Variant_1_evicts 0 : 250 1 : 0 2 : 0 3 : 0 
Heartbeat_Variant_2_evicts 0 : 0 1 : 0 2 : 0 3 : 0 
Heartbeat_Variant_3_evicts 0 : 0 1 : 0 2 : 0 3 : 0 
Heartbeat CPU 0 instructions: 40000003 cycles: 11183746 heartbeat IPC: 3.57676 cumulative IPC: 3.57662 (Simulation time: 0 hr 6 min 1 sec) 
Heartbeat_Variant_0 : 1366 0.333496 per_variant_size: 0 1366 0 0 0 0 0 0 0 
Heartbeat_Variant_1 : 2612 0.637695 per_variant_size: 0 500 2112 0 0 0 0 0 0 
Heartbeat_Variant_2 : 0 0 per_variant_size: 0 0 0 0 0 0 0 0 0 
Heartbeat_Variant_3 : 0 0 per_variant_size: 0 0 0 0 0 0 0 0 0 
Heartbeat_Variant_0_evicts 0 : 5660 1 : 17 2 : 0 3 : 0 
Heartbeat_Variant_1_evicts 0 : 18 1 : 0 2 : 0 3 : 0 
Heartbeat_Variant_2_evicts 0 : 0 1 : 0 2 : 0 3 : 0 
Heartbeat_Variant_3_evicts 0 : 0 1 : 0 2 : 0 3 : 0 
Heartbeat CPU 0 instructions: 50000002 cycles: 13980933 heartbeat IPC: 3.57502 cumulative IPC: 3.5763 (Simulation time: 0 hr 7 min 23 sec) 

Warmup complete CPU 0 instructions: 50000002 cycles: 13980933 (Simulation time: 0 hr 7 min 23 sec) 

Cycle: 20000000 FTQ IN: 58345689 FTQ occupancy: 20.5061 DECODE IN: 58345636 DECODE occupancy: 53.3402 ROB IN: 58345576 ROB occupancy: 318.253 ROB OUT: 58345407
Heartbeat_Variant_0 : 1373 0.335205 per_variant_size: 0 1373 0 0 0 0 0 0 0 
Heartbeat_Variant_1 : 2615 0.638428 per_variant_size: 0 517 2098 0 0 0 0 0 0 
Heartbeat_Variant_2 : 0 0 per_variant_size: 0 0 0 0 0 0 0 0 0 
Heartbeat_Variant_3 : 0 0 per_variant_size: 0 0 0 0 0 0 0 0 0 
Heartbeat_Variant_0_evicts 0 : 5625 1 : 91 2 : 0 3 : 0 
Heartbeat_Variant_1_evicts 0 : 85 1 : 0 2 : 0 3 : 0 
Heartbeat_Variant_2_evicts 0 : 0 1 : 0 2 : 0 3 : 0 
Heartbeat_Variant_3_evicts 0 : 0 1 : 0 2 : 0 3 : 0 
Heartbeat CPU 0 instructions: 60000000 cycles: 21174255 heartbeat IPC: 1.39018 cumulative IPC: 1.39018 (Simulation time: 0 hr 9 min 5 sec) 
Heartbeat_Variant_0 : 1377 0.336182 per_variant_size: 0 1377 0 0 0 0 0 0 0 
Heartbeat_Variant_1 : 2626 0.641113 per_variant_size: 0 526 2100 0 0 0 0 0 0 
Heartbeat_Variant_2 : 0 0 per_variant_size: 0 0 0 0 0 0 0 0 0 
Heartbeat_Variant_3 : 0 0 per_variant_size: 0 0 0 0 0 0 0 0 0 
Heartbeat_Variant_0_evicts 0 : 5635 1 : 110 2 : 0 3 : 0 
Heartbeat_Variant_1_evicts 0 : 110 1 : 0 2 : 0 3 : 0 
Heartbeat_Variant_2_evicts 0 : 0 1 : 0 2 : 0 3 : 0 
Heartbeat_Variant_3_evicts 0 : 0 1 : 0 2 : 0 3 : 0 
Heartbeat CPU 0 instructions: 70000000 cycles: 28318677 heartbeat IPC: 1.39969 cumulative IPC: 1.39492 (Simulation time: 0 hr 10 min 46 sec) 
Cycle: 30000000 FTQ IN: 14022642 FTQ occupancy: 14.7846 DECODE IN: 14022638 DECODE occupancy: 38.3442 ROB IN: 14022638 ROB occupancy: 248.523 ROB OUT: 14022459
Heartbeat_Variant_0 : 1378 0.336426 per_variant_size: 0 1378 0 0 0 0 0 0 0 
Heartbeat_Variant_1 : 2626 0.641113 per_variant_size: 0 521 2105 0 0 0 0 0 0 
Heartbeat_Variant_2 : 0 0 per_variant_size: 0 0 0 0 0 0 0 0 0 
Heartbeat_Variant_3 : 0 0 per_variant_size: 0 0 0 0 0 0 0 0 0 
Heartbeat_Variant_0_evicts 0 : 5544 1 : 35 2 : 0 3 : 0 
Heartbeat_Variant_1_evicts 0 : 34 1 : 0 2 : 0 3 : 0 
Heartbeat_Variant_2_evicts 0 : 0 1 : 0 2 : 0 3 : 0 
Heartbeat_Variant_3_evicts 0 : 0 1 : 0 2 : 0 3 : 0 
Heartbeat CPU 0 instructions: 80000003 cycles: 35531093 heartbeat IPC: 1.3865 cumulative IPC: 1.3921 (Simulation time: 0 hr 12 min 34 sec) 
Cycle: 40000000 FTQ IN: 13898039 FTQ occupancy: 14.8991 DECODE IN: 13898067 DECODE occupancy: 38.3785 ROB IN: 13898099 ROB occupancy: 249.686 ROB OUT: 13898169
Heartbeat_Variant_0 : 1381 0.337158 per_variant_size: 0 1381 0 0 0 0 0 0 0 
Heartbeat_Variant_1 : 2625 0.640869 per_variant_size: 0 506 2119 0 0 0 0 0 0 
Heartbeat_Variant_2 : 0 0 per_variant_size: 0 0 0 0 0 0 0 0 0 
Heartbeat_Variant_3 : 0 0 per_variant_size: 0 0 0 0 0 0 0 0 0 
Heartbeat_Variant_0_evicts 0 : 5603 1 : 53 2 : 0 3 : 0 
Heartbeat_Variant_1_evicts 0 : 50 1 : 0 2 : 0 3 : 0 
Heartbeat_Variant_2_evicts 0 : 0 1 : 0 2 : 0 3 : 0 
Heartbeat_Variant_3_evicts 0 : 0 1 : 0 2 : 0 3 : 0 
Heartbeat CPU 0 instructions: 90000001 cycles: 42660632 heartbeat IPC: 1.40261 cumulative IPC: 1.39471 (Simulation time: 0 hr 14 min 19 sec) 
Heartbeat_Variant_0 : 1380 0.336914 per_variant_size: 0 1380 0 0 0 0 0 0 0 
Heartbeat_Variant_1 : 2627 0.641357 per_variant_size: 0 504 2123 0 0 0 0 0 0 
Heartbeat_Variant_2 : 0 0 per_variant_size: 0 0 0 0 0 0 0 0 0 
Heartbeat_Variant_3 : 0 0 per_variant_size: 0 0 0 0 0 0 0 0 0 
Heartbeat_Variant_0_evicts 0 : 5557 1 : 10 2 : 0 3 : 0 
Heartbeat_Variant_1_evicts 0 : 12 1 : 0 2 : 0 3 : 0 
Heartbeat_Variant_2_evicts 0 : 0 1 : 0 2 : 0 3 : 0 
Heartbeat_Variant_3_evicts 0 : 0 1 : 0 2 : 0 3 : 0 
Heartbeat CPU 0 instructions: 100000002 cycles: 49869768 heartbeat IPC: 1.38713 cumulative IPC: 1.39319 (Simulation time: 0 hr 15 min 48 sec) 
Finished CPU 0 instructions: 50000000 cycles: 35888835 cumulative IPC: 1.39319 (Simulation time: 0 hr 15 min 48 sec) 

ChampSim completed all CPUs

Region of Interest Statistics

CPU 0 cumulative IPC: 1.39319 instructions: 50000000 cycles: 35888835
 Fetch stage stalled: 46.0325  Sim cycles: 35888835 fetch stall cycle: 16520538
 Empty decode stage: 25.0306  Sim cycles: 35888835 fetch stall cycle: 8983194
ITLB TOTAL     ACCESS:    5832259  HIT:    5337647  MISS:     494612  HIT %:    91.5194  MISS %:    8.48062   MPKI: 9.89224
ITLB LOAD TRANSLATION INSTRUCTION	ACCESS:    5697102  HIT:    5202490  MISS:     494612  HIT %:    91.3182  MISS %:    8.68182  MPKI: 9.89224
ITLB TRANSLATION FROM L1D PREFETCHER INSTRUCTION	ACCESS:     135157  HIT:     135157  MISS:          0  HIT %:        100  MISS %:          0  MPKI: 0

ITLB AVERAGE MISS LATENCY: 9.06567 cycles
ITLB RQ	ACCESS:    7940869	FORWARD:          0	MERGED:    1626511	TO_CACHE:    6314358

DTLB TOTAL     ACCESS:    8967369  HIT:    8495262  MISS:     472107  HIT %:    94.7353  MISS %:    5.26472   MPKI: 9.44214
DTLB LOAD TRANSLATION DATA	ACCESS:    8967369  HIT:    8495262  MISS:     472107  HIT %:    94.7353  MISS %:    5.26472  MPKI: 9.44214

DTLB AVERAGE MISS LATENCY: 9.33182 cycles
DTLB RQ	ACCESS:   13340494	FORWARD:          0	MERGED:    4337059	TO_CACHE:    9003435

STLB TOTAL     ACCESS:    1214887  HIT:    1212757  MISS:       2130  HIT %:    99.8247  MISS %:   0.175325   MPKI: 0.0426
STLB LOAD TRANSLATION INSTRUCTION	ACCESS:     494612  HIT:     494346  MISS:        266  HIT %:    99.9462  MISS %:  0.0537795  MPKI: 0.00532
STLB LOAD TRANSLATION DATA	ACCESS:     472107  HIT:     470275  MISS:       1832  HIT %:     99.612  MISS %:   0.388048  MPKI: 0.03664
STLB TRANSLATION FROM L1D PREFETCHER DATA	ACCESS:     248168  HIT:     248136  MISS:         32  HIT %:    99.9871  MISS %:  0.0128945  MPKI: 0.00064

STLB AVERAGE MISS LATENCY: 75.1174 cycles
STLB RQ	ACCESS:    1335992	FORWARD:          0	MERGED:     121063	TO_CACHE:    1214929

STLB Hit, L1D data hit: 0
STLB Hit, L2C data hit: 0
STLB Hit, LLC data hit: 0
STLB Hit, LLC data miss: 0
STLB STLB hints to L2: 0
L1D TOTAL     ACCESS:   13085823  HIT:   11966201  MISS:    1119622  HIT %:     91.444  MISS %:    8.55599   MPKI: 22.3924
L1D LOAD DATA	ACCESS:    6550438  HIT:    5813571  MISS:     736867  HIT %:    88.7509  MISS %:    11.2491  MPKI: 14.7373
L1D RFO DATA	ACCESS:    6207597  HIT:    5921035  MISS:     286562  HIT %:    95.3837  MISS %:    4.61631  MPKI: 5.73124
L1D PREFETCH DATA	ACCESS:     327788  HIT:     231595  MISS:      96193  HIT %:    70.6539  MISS %:    29.3461  MPKI: 1.92386

L1D PREFETCH  REQUESTED:     738920  ISSUED:     738920  USEFUL:      35162  USELESS:      68968
L1D USEFUL LOAD PREFETCHES:      35162 PREFETCH ISSUED TO LOWER LEVEL:     104185  ACCURACY: 33.7496
 TIMELY PREFETCHES:      35162 LATE PREFETCHES: 7942 DROPPED PREFETCHES: 8
L1D AVERAGE MISS LATENCY: 229322 cycles
L1D RQ	ACCESS:   10695550	FORWARD:          0	MERGED:    3944559	TO_CACHE:    6584549
L1D WQ	ACCESS:    6952733	FORWARD:     166816	MERGED:     196788	TO_CACHE:    6755945
L1D PQ	ACCESS:     369647	FORWARD:          0	MERGED:          0	TO_CACHE:     369273

L1D UNIQUE REGIONS ACCESSED: 0
L1D REGIONS CONFLICTS: 0
L1D Cross Page Prefetch Requests: 7002
L1D Same Page Prefetch Requests: 752910
L1D ROI Sum of L1D PQ occupancy: 4700615
L1D PREFETCHES PUSHED FROM L2C: 0
L1I TOTAL     ACCESS:    7190600  HIT:    4682996  MISS:    2507604  HIT %:    65.1266  MISS %:    34.8734   MPKI: 50.1521
L1I LOAD INSTRUCTION	ACCESS:    6471334  HIT:    3963730  MISS:    2507604  HIT %:    61.2506  MISS %:    38.7494  MPKI: 50.1521
L1I PREFETCH INSTRUCTION	ACCESS:     719266  HIT:     719266  MISS:          0  HIT %:        100  MISS %:          0  MPKI: 0

L1I PREFETCH  REQUESTED:    1621006  ISSUED:    1621006  USEFUL:          0  USELESS:          0
L1I USEFUL LOAD PREFETCHES:          0 PREFETCH ISSUED TO LOWER LEVEL:          0  ACCURACY: -nan
 TIMELY PREFETCHES:          0 LATE PREFETCHES: 0 DROPPED PREFETCHES: 0
L1I AVERAGE MISS LATENCY: 17.5841 cycles
L1I RQ	ACCESS:    9564243	FORWARD:          0	MERGED:    2813160	TO_CACHE:    6751083
L1I PQ	ACCESS:    1621006	FORWARD:          0	MERGED:     431220	TO_CACHE:    1189786

L1BTB TOTAL     ACCESS:    5672502  HIT:    2041504  MISS:    3630998  HIT %:    35.9895  MISS %:    64.0105   MPKI: 72.62
L1BTB BRANCH_DIRECT_JUMP	ACCESS:     549038 HIT:     144764 MISS:     404274 AVERAGE STALL: 61.2012 AVERAGE FETCH STALL: 17.3321 AVERAGE FETCH QUEUE STALL: 16.2822 AVERAGE DECODE STALL: 26.6499 AVERAGE EXECUTE STALL: 2.21051e+15
L1BTB BRANCH_INDIRECT	ACCESS:     183066 HIT:      66031 MISS:     117035 AVERAGE STALL: 111.051 AVERAGE FETCH STALL: 11.2144 AVERAGE FETCH QUEUE STALL: 18.7233 AVERAGE DECODE STALL: 13.5509 AVERAGE EXECUTE STALL: 66.6002
L1BTB BRANCH_CONDITIONAL	ACCESS:    2708365 HIT:    1414599 MISS:    1293766 AVERAGE STALL: 73.0581 AVERAGE FETCH STALL: 20.939 AVERAGE FETCH QUEUE STALL: 29.7102 AVERAGE DECODE STALL: 21.7297 AVERAGE EXECUTE STALL: 2.6906e+15
L1BTB BRANCH_DIRECT_CALL	ACCESS:     944675 HIT:     105649 MISS:     839026 AVERAGE STALL: 86.472 AVERAGE FETCH STALL: 24.855 AVERAGE FETCH QUEUE STALL: 43.2885 AVERAGE DECODE STALL: 17.7227 AVERAGE EXECUTE STALL: 1.29179e+16
L1BTB BRANCH_INDIRECT_CALL	ACCESS:     171345 HIT:      20872 MISS:     150473 AVERAGE STALL: 140.653 AVERAGE FETCH STALL: 11.9241 AVERAGE FETCH QUEUE STALL: 19.5156 AVERAGE DECODE STALL: 11.4949 AVERAGE EXECUTE STALL: 97.229
L1BTB BRANCH_RETURN	ACCESS:    1116013 HIT:     289589 MISS:     826424 AVERAGE STALL: 47.8148 AVERAGE FETCH STALL: 15.377 AVERAGE FETCH QUEUE STALL: 5.44485 AVERAGE DECODE STALL: 6.0109 AVERAGE EXECUTE STALL: 4.38259e+14
L1BTB BRANCH_OTHER ACCESS:          0 HIT:          0 MISS:          0 AVERAGE STALL: -nan AVERAGE FETCH STALL: -nan AVERAGE FETCH QUEUE STALL: -nan AVERAGE DECODE STALL: -nan AVERAGE EXECUTE STALL: -nan
L1BTB TOTAL ROB OCCUPANCY AT BTB MISS: 2.71772

L2BTB TOTAL     ACCESS:    3605694  HIT:    3539681  MISS:      66013  HIT %:    98.1692  MISS %:     1.8308   MPKI: 1.32026
L2BTB BRANCH_DIRECT_JUMP	ACCESS:     400139 HIT:     395929 MISS:       4210 AVERAGE STALL: 61.2012 AVERAGE FETCH STALL: 17.3321 AVERAGE FETCH QUEUE STALL: 16.2822 AVERAGE DECODE STALL: 26.6499 AVERAGE EXECUTE STALL: 2.21051e+15
L2BTB BRANCH_INDIRECT	ACCESS:     106771 HIT:     104037 MISS:       2734 AVERAGE STALL: 111.051 AVERAGE FETCH STALL: 11.2144 AVERAGE FETCH QUEUE STALL: 18.7233 AVERAGE DECODE STALL: 13.5509 AVERAGE EXECUTE STALL: 66.6002
L2BTB BRANCH_CONDITIONAL	ACCESS:    1293766 HIT:    1286889 MISS:       6877 AVERAGE STALL: 73.0581 AVERAGE FETCH STALL: 20.939 AVERAGE FETCH QUEUE STALL: 29.7102 AVERAGE DECODE STALL: 21.7297 AVERAGE EXECUTE STALL: 2.6906e+15
L2BTB BRANCH_DIRECT_CALL	ACCESS:     839026 HIT:     837589 MISS:       1437 AVERAGE STALL: 86.472 AVERAGE FETCH STALL: 24.855 AVERAGE FETCH QUEUE STALL: 43.2885 AVERAGE DECODE STALL: 17.7227 AVERAGE EXECUTE STALL: 1.29179e+16
L2BTB BRANCH_INDIRECT_CALL	ACCESS:     140976 HIT:     130910 MISS:      10066 AVERAGE STALL: 140.653 AVERAGE FETCH STALL: 11.9241 AVERAGE FETCH QUEUE STALL: 19.5156 AVERAGE DECODE STALL: 11.4949 AVERAGE EXECUTE STALL: 97.229
L2BTB BRANCH_RETURN	ACCESS:     825016 HIT:     784327 MISS:      40689 AVERAGE STALL: 47.8148 AVERAGE FETCH STALL: 15.377 AVERAGE FETCH QUEUE STALL: 5.44485 AVERAGE DECODE STALL: 6.0109 AVERAGE EXECUTE STALL: 4.38259e+14
L2BTB BRANCH_OTHER ACCESS:          0 HIT:          0 MISS:          0 AVERAGE STALL: -nan AVERAGE FETCH STALL: -nan AVERAGE FETCH QUEUE STALL: -nan AVERAGE DECODE STALL: -nan AVERAGE EXECUTE STALL: -nan
L2BTB TOTAL ROB OCCUPANCY AT BTB MISS: 149.486

L2C TOTAL     ACCESS:    4228985  HIT:    3764648  MISS:     464337  HIT %:    89.0201  MISS %:    10.9799   MPKI: 9.28674
L2C LOAD INSTRUCTION	ACCESS:    2507604  HIT:    2244517  MISS:     263087  HIT %:    89.5084  MISS %:    10.4916  MPKI: 5.26174
L2C LOAD TRANSLATION INSTRUCTION	ACCESS:        307  HIT:         61  MISS:        246  HIT %:    19.8697  MISS %:    80.1303  MPKI: 0.00492
L2C LOAD DATA	ACCESS:     728888  HIT:     659531  MISS:      69357  HIT %:    90.4845  MISS %:    9.51545  MPKI: 1.38714
L2C RFO DATA	ACCESS:     286495  HIT:     237898  MISS:      48597  HIT %:    83.0374  MISS %:    16.9626  MPKI: 0.97194
L2C PREFETCH DATA	ACCESS:     180761  HIT:     110870  MISS:      69891  HIT %:    61.3351  MISS %:    38.6649  MPKI: 1.39782
L2C WRITEBACK DATA	ACCESS:     522966  HIT:     511159  MISS:      11807  HIT %:    97.7423  MISS %:     2.2577  MPKI: 0.23614
L2C LOAD TRANSLATION DATA	ACCESS:       1913  HIT:        573  MISS:       1340  HIT %:     29.953  MISS %:     70.047  MPKI: 0.0268
L2C TRANSLATION FROM L1D PREFETCHER DATA	ACCESS:         51  HIT:         39  MISS:         12  HIT %:    76.4706  MISS %:    23.5294  MPKI: 0.00024

L2C PREFETCH  REQUESTED:      84538  ISSUED:      84538  USEFUL:       7151  USELESS:      63239
L2C USEFUL LOAD PREFETCHES:       7151 PREFETCH ISSUED TO LOWER LEVEL:      70303  ACCURACY: 10.1717
 TIMELY PREFETCHES:       7151 LATE PREFETCHES: 412 DROPPED PREFETCHES: 0
L2C AVERAGE MISS LATENCY: 39.7426 cycles
L2C RQ	ACCESS:    3525312	FORWARD:          0	MERGED:          0	TO_CACHE:    3525258
L2C WQ	ACCESS:     522966	FORWARD:         54	MERGED:          0	TO_CACHE:     522966
L2C PQ	ACCESS:     188723	FORWARD:          0	MERGED:       4389	TO_CACHE:     184334

L2C Dense regions hint from L2: 0
PSCL5 TOTAL     ACCESS:       4284  HIT:       2142  MISS:       2142  HIT %:         50  MISS %:         50   MPKI: 0.04284
PSCL5 LOAD TRANSLATION INSTRUCTION	ACCESS:       4182  HIT:       2091  MISS:       2091  HIT %:         50  MISS %:         50  MPKI: 0.04182
PSCL5 TRANSLATION FROM L1D PREFETCHER INSTRUCTION	ACCESS:        102  HIT:         51  MISS:         51  HIT %:         50  MISS %:         50  MPKI: 0.00102


PSCL4 TOTAL     ACCESS:       4170  HIT:       2080  MISS:       2090  HIT %:    49.8801  MISS %:    50.1199   MPKI: 0.0418
PSCL4 LOAD TRANSLATION INSTRUCTION	ACCESS:       3188  HIT:       2038  MISS:       1150  HIT %:    63.9272  MISS %:    36.0728  MPKI: 0.023
PSCL4 TRANSLATION FROM L1D PREFETCHER INSTRUCTION	ACCESS:         66  HIT:         42  MISS:         24  HIT %:    63.6364  MISS %:    36.3636  MPKI: 0.00048
PSCL4 LOAD TRANSLATION DATA	ACCESS:        898  HIT:          0  MISS:        898  HIT %:          0  MISS %:        100  MPKI: 0.01796
PSCL4 TRANSLATION FROM L1D PREFETCHER DATA	ACCESS:         18  HIT:          0  MISS:         18  HIT %:          0  MISS %:        100  MPKI: 0.00036


PSCL3 TOTAL     ACCESS:       4234  HIT:       2112  MISS:       2122  HIT %:    49.8819  MISS %:    50.1181   MPKI: 0.04244
PSCL3 LOAD TRANSLATION INSTRUCTION	ACCESS:       3220  HIT:       2070  MISS:       1150  HIT %:    64.2857  MISS %:    35.7143  MPKI: 0.023
PSCL3 TRANSLATION FROM L1D PREFETCHER INSTRUCTION	ACCESS:         66  HIT:         42  MISS:         24  HIT %:    63.6364  MISS %:    36.3636  MPKI: 0.00048
PSCL3 LOAD TRANSLATION DATA	ACCESS:        930  HIT:          0  MISS:        930  HIT %:          0  MISS %:        100  MPKI: 0.0186
PSCL3 TRANSLATION FROM L1D PREFETCHER DATA	ACCESS:         18  HIT:          0  MISS:         18  HIT %:          0  MISS %:        100  MPKI: 0.00036


PSCL2 TOTAL     ACCESS:       4175  HIT:       2033  MISS:       2142  HIT %:    48.6946  MISS %:    51.3054   MPKI: 0.04284
PSCL2 LOAD TRANSLATION INSTRUCTION	ACCESS:       2247  HIT:       1982  MISS:        265  HIT %:    88.2065  MISS %:    11.7935  MPKI: 0.0053
PSCL2 TRANSLATION FROM L1D PREFETCHER INSTRUCTION	ACCESS:         51  HIT:         51  MISS:          0  HIT %:        100  MISS %:          0  MPKI: 0
PSCL2 LOAD TRANSLATION DATA	ACCESS:       1826  HIT:          0  MISS:       1826  HIT %:          0  MISS %:        100  MPKI: 0.03652
PSCL2 TRANSLATION FROM L1D PREFETCHER DATA	ACCESS:         51  HIT:          0  MISS:         51  HIT %:          0  MISS %:        100  MPKI: 0.00102


LLC TOTAL     ACCESS:     520749  HIT:     490347  MISS:      30402  HIT %:    94.1619  MISS %:    5.83813   MPKI: 0.60804
LLC LOAD INSTRUCTION	ACCESS:     263087  HIT:     262138  MISS:        949  HIT %:    99.6393  MISS %:   0.360717  MPKI: 0.01898
LLC LOAD TRANSLATION INSTRUCTION	ACCESS:        246  HIT:        198  MISS:         48  HIT %:    80.4878  MISS %:    19.5122  MPKI: 0.00096
LLC LOAD DATA	ACCESS:      68967  HIT:      65407  MISS:       3560  HIT %:    94.8381  MISS %:    5.16189  MPKI: 0.0712
LLC RFO DATA	ACCESS:      48575  HIT:      33263  MISS:      15312  HIT %:    68.4776  MISS %:    31.5224  MPKI: 0.30624
LLC PREFETCH DATA	ACCESS:      70303  HIT:      60215  MISS:      10088  HIT %:    85.6507  MISS %:    14.3493  MPKI: 0.20176
LLC WRITEBACK DATA	ACCESS:      68219  HIT:      67851  MISS:        368  HIT %:    99.4606  MISS %:   0.539439  MPKI: 0.00736
LLC LOAD TRANSLATION DATA	ACCESS:       1340  HIT:       1263  MISS:         77  HIT %:    94.2537  MISS %:    5.74627  MPKI: 0.00154
LLC TRANSLATION FROM L1D PREFETCHER DATA	ACCESS:         12  HIT:         12  MISS:          0  HIT %:        100  MISS %:          0  MPKI: 0

LLC AVERAGE MISS LATENCY: 158.92 cycles
LLC RQ	ACCESS:     382227	FORWARD:          0	MERGED:          0	TO_CACHE:     382227
LLC WQ	ACCESS:      68219	FORWARD:          0	MERGED:          0	TO_CACHE:      68219
LLC PQ	ACCESS:      70303	FORWARD:          0	MERGED:          0	TO_CACHE:      70303

LLC Dense regions hint to LLC: 0

RAW hits: 1947029
Loads Generated: 12642579
Loads sent to L1D: 10695550
Stores Generated: 6952714
Stores sent to L1D: 6952733
Major fault: 0 Minor fault: 2560
Allocated PAGES: 2560

stream: 
stream:times selected: 1193701
stream:pref_filled: 120587
stream:pref_useful: 24093
stream:pref_late: 6546
stream:misses: 8044
stream:misses_by_poll: 0

CS: 
CS:times selected: 180771
CS:pref_filled: 60096
CS:pref_useful: 36499
CS:pref_late: 6876
CS:misses: 16632
CS:misses_by_poll: 1

CPLX: 
CPLX:times selected: 1011760
CPLX:pref_filled: 19579
CPLX:pref_useful: 4639
CPLX:pref_late: 2968
CPLX:misses: 92697
CPLX:misses_by_poll: 0

NL_L1: 
NL:times selected: 20838
NL:pref_filled: 770
NL:pref_useful: 351
NL:pref_late: 280
NL:misses: 1724
NL:misses_by_poll: 0

total selections: 2407070
total_filled: 96193
total_useful: 35162
total_late: 17940
total_polluted: 1
total_misses_after_warmup: 770977
conflicts: 5510339

test: 118542

DRAM Statistics
 CHANNEL 0
 RQ ROW_BUFFER_HIT:      11195  ROW_BUFFER_MISS:      18823
 DBUS_CONGESTED:         12
 WQ ROW_BUFFER_HIT:       1465  ROW_BUFFER_MISS:      13216  FULL:          0

 AVG_CONGESTED_CYCLE: 5

CPU 0 Branch Prediction Accuracy: 99.8237% MPKI: 0.32256 Average ROB Occupancy at Mispredict: 196.552
Branch types
NOT_BRANCH: 40853558 81.7071%
BRANCH_DIRECT_JUMP: 549038 1.09808%
BRANCH_INDIRECT: 183066 0.366132%
BRANCH_CONDITIONAL: 6182075 12.3642%
BRANCH_DIRECT_CALL: 944675 1.88935%
BRANCH_INDIRECT_CALL: 171345 0.34269%
BRANCH_RETURN: 1116013 2.23203%
BRANCH_OTHER: 0 0%

DRAM PAGES: 1048576
Allocated PAGES: 2560
Average_ROB_Occupancy: 250.439
Average_Decode_Occupancy: 38.2126
Average_FTQ_Occupancy: 14.8122
Indirect max targets: 14 Average targets: 1.14576
Branch_type:  BRANCH_DIRECT_JUMP:  Count Percentage: 3.41964 4.36706 4.41006 9.46245 1.69588 5.96374 3.0608 67.6204 
Branch_type:  BRANCH_INDIRECT:  Count Percentage: 11.7066 3.46145 2.57959 0 2.54414 9.71436 19.2698 50.7241 
Branch_type:  BRANCH_CONDITIONAL:  Count Percentage: 15.9437 2.6521 6.94737 8.60669 1.48272 4.85202 2.40903 57.1063 
Branch_type:  BRANCH_DIRECT_CALL:  Count Percentage: 0.744509 1.2585 1.47186 4.99077 2.24824 2.60209 0.772766 85.9113 
Branch_type:  BRANCH_INDIRECT_CALL:  Count Percentage: 9.54173 0.581307 2.98866 4.85241 0 2.35504 1.29092 78.3899 
Branch_type:  BRANCH_RETURN:  Count Percentage: 3.95386 0.697056 1.28803 9.26324 2.49226 6.50862 3.15104 72.6459 
Branch_type:  BRANCH_DIRECT_JUMP:  Total Count: 37538 47938 48410 103871 18616 65465 33599 742281 
Branch_type:  BRANCH_INDIRECT:  Total Count: 42931 12694 9460 0 9330 35625 70667 186018 
Branch_type:  BRANCH_CONDITIONAL:  Total Count: 1971163 327886 858921 1064067 183313 599868 297834 7060203 
Branch_type:  BRANCH_DIRECT_CALL:  Total Count: 14017 23694 27711 93962 42328 48990 14549 1617466 
Branch_type:  BRANCH_INDIRECT_CALL:  Total Count: 32648 1989 10226 16603 0 8058 4417 268219 
Branch_type:  BRANCH_RETURN:  Total Count: 87999 15514 28667 206167 55469 144859 70131 1616841 
Number of unique branch instructions: 9706
Upper 32 bits: 
aaaa
ffff
ffff0000
Unique upper 32 bits: 3
Unique upper 36 bits: 3
Unique upper 40 bits: 5
Unique upper 44 bits: 32
Unique upper 48 bits: 153
Variant_0 : 1380 0.336914
Variant_1 : 2627 0.641357
Variant_2 : 0 0
Variant_3 : 0 0
Offset_3 3999
Offset_4 240
Offset_5 443
Offset_6 493
Offset_7 570
Offset_8 503
Offset_9 459
Offset_10 368
Offset_11 299
Offset_12 265
Offset_13 198
Offset_14 225
Offset_15 177
Offset_16 216
Offset_17 144
Offset_18 118
Offset_19 229
Offset_20 132
Offset_21 235
Offset_22 388
Offset_23 243
Offset_24 328
Offset_25 88
Offset_47 82
Offset_64 1
decode_dispatch_called: 26408458 73.584
Dispatch_width: 0 14270873 54.039 39.7641
Dispatch_width: 1 1031009 3.90409 2.87278
Dispatch_width: 2 848763 3.21398 2.36498
Dispatch_width: 3 495126 1.87488 1.37961
Dispatch_width: 4 6340670 24.01 17.6675
Dispatch_width: 5 108759 0.411834 0.303044
Dispatch_width: 6 3313258 12.5462 9.232
Empty_decode_cycles: 9480377 26.416
ROB_full_cycles: 10111889 28.1756
Starvation_cycles_per_kilo_instr: 224.637
Starvation_cycles_per_kilo_instr_3: 160.143
Starvation_cycles_per_kilo_instr_0: 136.394
Branch_type_1  (3,1)  (4,7)  (5,36)  (6,68)  (7,115)  (8,127)  (9,124)  (10,97)  (11,67)  (12,43)  (13,5)  (14,2)  (15,3)  (16,4)  (18,1)  (19,4)  (20,2)  (21,1)  (22,3)  (23,2)  (24,10)  (25,12) 
Branch_type_2  (3,1)  (5,1)  (8,3)  (9,3)  (12,1)  (13,1)  (14,1)  (16,3)  (17,2)  (20,2)  (21,2)  (23,5)  (24,1)  (47,38) 
Branch_type_3  (3,3997)  (4,233)  (5,402)  (6,410)  (7,426)  (8,314)  (9,251)  (10,148)  (11,121)  (12,50)  (13,4)  (64,1) 
Branch_type_4  (6,3)  (7,8)  (8,25)  (9,49)  (10,59)  (11,56)  (12,93)  (13,85)  (14,99)  (15,82)  (16,96)  (17,64)  (18,53)  (19,112)  (20,69)  (21,124)  (22,206)  (23,137)  (24,190)  (25,72) 
Branch_type_5  (8,2)  (9,1)  (10,3)  (11,5)  (12,3)  (13,14)  (14,16)  (15,11)  (16,20)  (17,11)  (18,16)  (19,12)  (20,10)  (21,13)  (22,42)  (23,26)  (24,36) 
Branch_type_6  (5,4)  (6,12)  (7,21)  (8,32)  (9,31)  (10,61)  (11,50)  (12,75)  (13,89)  (14,107)  (15,81)  (16,93)  (17,67)  (18,48)  (19,101)  (20,49)  (21,95)  (22,137)  (23,73)  (24,91)  (25,4)  (47,44) 
Unique trigger count: 
Variant_0_evicts_0 : 0
Variant_0_evicts_1 : 0
Variant_0_evicts_2 : 0
Variant_0_evicts_3 : 0
Variant_1_evicts_0 : 0
Variant_1_evicts_1 : 0
Variant_1_evicts_2 : 0
Variant_1_evicts_3 : 0
Variant_2_evicts_0 : 0
Variant_2_evicts_1 : 0
Variant_2_evicts_2 : 0
Variant_2_evicts_3 : 0
Variant_3_evicts_0 : 0
Variant_3_evicts_1 : 0
Variant_3_evicts_2 : 0
Variant_3_evicts_3 : 0
BTB PER SET UNIQUE ADDR: 6 10 6 12 10 11 9 7 7 10 7 12 9 11 8 6 12 10 10 8 9 9 11 14 8 7 11 10 8 12 8 10 8 7 6 11 8 13 6 7 9 8 12 8 10 9 9 8 8 7 13 8 14 9 10 7 11 9 7 10 12 11 12 9 10 10 9 4 12 8 8 10 13 6 7 7 7 12 6 12 6 7 9 9 10 9 11 8 6 13 8 9 9 9 9 11 10 12 18 10 15 8 7 9 12 11 4 8 5 8 9 11 14 7 6 9 7 9 14 8 4 6 8 7 10 6 4 11 13 10 7 13 7 14 11 11 9 8 11 14 10 9 9 9 8 9 11 8 6 8 14 11 12 10 8 12 9 11 9 7 9 7 11 10 9 12 11 8 13 8 10 11 10 9 9 6 9 10 9 8 7 9 10 7 14 16 4 12 10 7 7 9 8 11 10 10 5 11 7 11 11 9 8 8 7 10 9 11 7 11 12 11 7 9 9 11 8 11 9 10 7 11 6 10 9 9 9 10 7 11 8 7 9 8 10 10 8 9 9 8 8 9 8 10 9 9 8 5 12 9 9 9 10 7 10 10 6 5 8 10 7 11 7 11 10 7 9 9 12 13 11 14 8 8 11 8 11 9 13 9 11 12 8 8 8 8 9 8 11 8 7 7 12 8 5 11 12 9 8 6 6 13 6 10 9 11 7 12 10 10 7 13 7 12 15 6 11 11 12 13 7 9 9 8 11 9 10 7 11 6 9 12 7 12 10 7 8 11 9 13 8 10 5 10 9 10 9 8 9 9 12 9 10 11 8 8 8 12 6 10 8 13 7 17 9 13 5 12 10 9 8 10 9 11 7 14 11 10 12 8 10 4 6 10 8 8 11 12 10 11 7 8 9 9 4 7 11 6 7 6 8 12 7 13 13 8 11 9 10 8 12 9 10 7 9 8 7 11 13 12 10 9 5 10 11 12 10 11 11 10 9 9 7 8 12 10 14 8 8 9 12 9 5 10 11 8 9 12 12 12 8 14 9 10 13 13 11 9 8 11 9 10 6 10 11 10 10 9 6 9 9 8 10 8 13 17 9 13 6 8 13 12 9 10 8 15 11 11 13 11 6 9 8 4 9 9 11 11 8 12 10 13 9 8 8 8 7 10 12 11 10 11 12 9 11 12 10 15 8 8 7 7 8 7 9 9 13 8 5 8 9 10 11 8 11 15 8 14 11 10 10 10 7 9 13 12 7 10 9 10 11 12 8 10 6 13 6 9 15 9 8 10 9 13 9 10 10 9 9 13 14 9 13 11 7 11 10 9 10 7 12 9 8 10 10 6 9 12 8 10 6 10 13 8 10 7 9 12 9 11 9 11 9 6 7 11 12 5 11 11 12 11 8 10 6 13 8 8 8 13 7 10 7 7 10 14 8 11 7 12 7 14 11 12 7 8 12 10 6 8 6 11 13 9 7 14 8 8 10 5 7 11 6 7 9 8 9 9 11 7 12 7 11 13 8 10 10 10 6 9 7 9 11 11 13 13 14 14 8 9 10 12 10 14 11 8 9 7 10 10 10 9 9 7 8 10 8 13 10 10 6 11 8 11 7 12 12 7 9 9 11 12 9 8 7 7 14 12 9 11 6 13 10 7 7 10 13 10 9 8 12 8 12 10 8 8 7 12 14 10 10 10 8 11 12 13 6 9 10 7 12 12 11 9 8 7 13 6 10 8 7 5 7 11 13 10 9 16 10 9 11 9 8 7 6 10 9 10 10 9 10 13 13 9 10 8 9 9 6 6 6 7 10 8 10 8 8 8 10 9 8 11 14 9 8 10 11 8 10 5 10 9 10 12 12 9 11 11 7 10 10 14 3 11 9 11 5 11 11 16 15 11 11 6 8 8 9 11 12 8 12 13 12 7 11 10 9 11 9 8 11 8 7 9 6 15 9 13 9 9 7 7 11 7 12 9 12 11 12 11 7 10 11 7 12 6 10 11 7 9 7 6 10 8 8 15 14 10 10 8 9 8 9 6 9 12 13 6 6 8 9 9 8 9 6 9 10 12 11 11 10 10 9 11 12 9 13 11 10 6 9 10 8 9 10 7 5 9 9 8 15 10 8 9 7 8 8 12 10 9 6 13 11 9 11 11 10 11 9 12 8 13 7 10 8 9 10 12 13 12 10 13 9 14 13 8 10 7 10 12 9 7 10 10 11 6 15 10 14 8 9 9 9 10 9 14 13 7 12 9 8 7 11 9 13 8 9 12 12 8 6 11 7 7 13 8 8 11 8 7 11 9 8 8 6 8 5 9 4 8 6 15 11 7 
BTB PER SET COUNT: 999 15 1995 16 13 17 1400 7 1469 10 13 13 123 14 10 6 1289 11 13 8 11 9 508 74 12 8 21 247 8 15 8 10 8 8 6 508 8 19 8 7 12 8 16 8 11 11 10 9 10 7 21 334 24 13 11 381 14 10 7 11 12 15 268 11 13 11 10 5 16 11 1471 12 15 6 8 8 8 50 7 16 6 10 10 12 12 16 11 9 1468 36 10 860 11 10 13 12 17 15 23 16 17 9 9 9 1481 12 14 8 5 2404 9 14 71 7 6 209 7 9 1477 8 4 6 12 9 10 138 4 19 21 578 10 4398 7 18 20 15 973 8 13 15 16 10 10 9 8 10 214 1001 6 10 17 306 951 12 9 12 9 13 9 7 9 200 16 11 900 14 12 8 16 1603 10 14 14 11 12 8 9 14 13 985 8 11 152 7 17 1081 5 14 13 426 8 10 11 14 48 11 6 1004 7 17 15 12 971 11 7 12 9 12 971 1475 19 14 7 10923 21 12 8 15 2927 13 9 15 384 10 11 10 14 12 656 15 9 7 12 9 10 20079 8 507 10 8 8 9 8 1076 13 10 8 6 13 12 9 10 13 9 11 16 93 5 8 11 7 12 7 17 12 7 16 14 663 15 12 453 8 9 894 8 13 11 16 11 13 14 626 178 8 9 9 10 12 8 12 7 13 532 5 13 689 9 9 59 6 15 6 20 10 186 7 189 11 25 972 13 9 17 1789 1000 11 19 16 16 7 2930 9 12 189 13 11 8 19 6 9 25 11 12 12 9 9 16 11 13 11 1177 5 13 16 10 14 12 9 114 12 1471 14 13 8 8 9 13 239 28 9 18 7 32 10 1923 5 14 13 10 8 16 11 1468 376 15 17 10 17 10 1004 4 9 13 8 9 13 15 11 19 7 10 13 959 4 1003 12 7 9 7 8 14 8 18 20 9 17 506 10 10 17 13 12 977 9 8 9 412 16 19 10 14 5 19 13 17 245 13 13 10 9 11 9 9 337 14 19 143 10 10 132 11 5 11 898 8 917 14 15 15 9 15 9 12 13 512 19 10 8 14 9 501 6 14 16 11 12 12 9 12 14 9 16 9 26 21 11 28 6 9 20 17 9 10 10 28 11 11 15 11 6 11 971 5 9 9 553 616 8 19 11 24 10 145 9 8 7 11 14 16 320 237 87 508 14 14 34 19 15 10 9 10 8 7 9 13 687 1475 5 1967 11 15 11 9 15 20 10 17 12 695 15 10 35 13 17 16 7 13 9 973 12 13 10 12 8 23 7 11 23 10 10 99 10 19 15 14 131 9 9 16 21 10 16 15 7 14 11 9 10 7 19 11 10 538 12 6 10 14 15 10 8 15 16 9 10 10 1547 844 251 13 10 13 12 8 8 15 17 5 11 13 15 1294 11 12 12 18 8 12 8 653 8 10 9 10 10 19 10 14 7 377 8 19 13 15 8 9 17 1008 7 8 7 17 14 362 2060 22 83 9 395 5 7 13 6 7 11 507 13 11 27 10 385 9 13 17 10 10 22 1565 1467 14 7 12 977 14 517 17 15 20 8 14 15 18 11 17 1718 10 9 8 11 14 11 10 9 9 2902 19 8 30 12 10 6 16 11 12 8 435 16 7 9 16 149 14 1244 10 9 120 567 16 21 440 6 1148 13 1468 7 12 18 12 1003 9 471 3707 16 12 10 8 504 12 15 13 1307 14 8 14 600 27 313 10 13 7 19 18 12 12 17 9 16 1265 13 9 8 5 7 11 16 11 14 21 13 180 13 244 9 7 6 13 12 914 11 12 215 18 215 9 12 12 13 12 6 6 6 648 11 8 284 11 199 8 12 123 9 12 17 11 478 17 12 8 10 54 14 8384 11 12 15 820 532 969 7 1891 12 1003 3 17 12 11 7 14 16 26 20 13 13 6 497 11 10 12 14 11 21 1021 16 9 1403 10 11 13 9 10 795 9 8 11 6 19 11 18 19 9 1000 8 12 7 1000 10 12 14 16 13 7 16 17 7 13 6 13 13 8 11 7 6 124 8 504 388 17 16 11 20 9 1499 10 6 11 13 16 6 6 8 9 9 8 318 11 20 13 15 143 20 88 10 19 13 12 1232 15 611 14 6 9 11 8 11 13 8 6 10 9 10 21 11 8 13 49 2994 10 16 13 11 7 820 13 10 11 14 10 12 11 14 8 1007 7 1173 10 9 251 13 23 20 362 21 9 18 20 8 1471 8 10 29 18 8 10 10 15 6 31 16 19 13 15 1501 10 473 12 1000 16 7 18 12 13 7 15 1252 18 11 10 1475 12 10 6 13 9 7 16 8 10 13 8 7 66 14 8 10 6 8 6 9 4 8 6 478 15 7 
To predecode: 0
Predecoding something: 0
Predecode request dropped: 0
sizeofblock_0 0
sizeofblock_1 57682
sizeofblock_2 79619
sizeofblock_3 0
sizeofblock_4 0
sizeofblock_5 0
sizeofblock_6 0
sizeofblock_7 0
sizeofblock_8 0
Variant_0 Correct: 1610275 Incorrect: 0 Accuracy: 1
Variant_1 Correct: 5719314 Incorrect: 0 Accuracy: 1
Variant_2 Correct: 0 Incorrect: 0 Accuracy: -nan
Variant_3 Correct: 0 Incorrect: 0 Accuracy: -nan
