
*** ChampSim Multicore Out-of-Order Simulator ***

Warmup Instructions: 50000000
Simulation Instructions: 50000000
Number of CPUs: 1
LLC sets: 2048
LLC ways: 16
Off-chip DRAM Size: 4096 MB Channels: 1 Width: 64-bit Data Rate: 6400 MT/s
CPU 0 runs ./micro_traces/srv79.trace.gz
.gz
ITLB has LRU replacement policy
DTLB has LRU replacement policy
STLB has LRU replacement policy
FDIP Prefetcher at L1I
L1I has LRU replacement policy
L1D has LRU replacement policy
Initialize SRRIP state for L2C
Initialize DRRIP state for LLC
Heartbeat CPU 0 instructions: 10000003 cycles: 2789667 heartbeat IPC: 3.58466 cumulative IPC: 3.58466 (Simulation time: 0 hr 2 min 14 sec) 
Heartbeat CPU 0 instructions: 20000003 cycles: 5580354 heartbeat IPC: 3.58335 cumulative IPC: 3.584 (Simulation time: 0 hr 4 min 24 sec) 
Heartbeat CPU 0 instructions: 30000001 cycles: 8371636 heartbeat IPC: 3.58258 cumulative IPC: 3.58353 (Simulation time: 0 hr 6 min 31 sec) 
Heartbeat CPU 0 instructions: 40000003 cycles: 11161268 heartbeat IPC: 3.5847 cumulative IPC: 3.58382 (Simulation time: 0 hr 8 min 35 sec) 
Heartbeat CPU 0 instructions: 50000000 cycles: 13949887 heartbeat IPC: 3.586 cumulative IPC: 3.58426 (Simulation time: 0 hr 10 min 36 sec) 

Warmup complete CPU 0 instructions: 50000004 cycles: 13949888 (Simulation time: 0 hr 10 min 36 sec) 

Cycle: 20000000 FTQ IN: 54670529 FTQ occupancy: 17.1884 DECODE IN: 54670529 DECODE occupancy: 44.1327 ROB IN: 54670529 ROB occupancy: 262.35 ROB OUT: 54670466
Heartbeat CPU 0 instructions: 60000002 cycles: 26843097 heartbeat IPC: 0.775602 cumulative IPC: 0.775602 (Simulation time: 0 hr 12 min 13 sec) 
Cycle: 30000000 FTQ IN: 7872684 FTQ occupancy: 3.88507 DECODE IN: 7872674 DECODE occupancy: 7.65098 ROB IN: 7872674 ROB occupancy: 65.3299 ROB OUT: 7872737
Heartbeat CPU 0 instructions: 70000002 cycles: 39445809 heartbeat IPC: 0.79348 cumulative IPC: 0.784439 (Simulation time: 0 hr 13 min 52 sec) 
Cycle: 40000000 FTQ IN: 7895747 FTQ occupancy: 4.14088 DECODE IN: 7895757 DECODE occupancy: 8.30132 ROB IN: 7895724 ROB occupancy: 69.3293 ROB OUT: 7895682
Cycle: 50000000 FTQ IN: 8088248 FTQ occupancy: 4.04909 DECODE IN: 8088228 DECODE occupancy: 8.17389 ROB IN: 8088201 ROB occupancy: 69.5311 ROB OUT: 8088159
Heartbeat CPU 0 instructions: 80000002 cycles: 51996401 heartbeat IPC: 0.796775 cumulative IPC: 0.788508 (Simulation time: 0 hr 15 min 26 sec) 
Cycle: 60000000 FTQ IN: 7984234 FTQ occupancy: 4.18739 DECODE IN: 7984236 DECODE occupancy: 8.4668 ROB IN: 7984282 ROB occupancy: 70.9758 ROB OUT: 7984261
Heartbeat CPU 0 instructions: 90000003 cycles: 64379463 heartbeat IPC: 0.807555 cumulative IPC: 0.793185 (Simulation time: 0 hr 16 min 58 sec) 
Cycle: 70000000 FTQ IN: 7936925 FTQ occupancy: 3.93865 DECODE IN: 7936940 DECODE occupancy: 7.75861 ROB IN: 7936954 ROB occupancy: 65.967 ROB OUT: 7937024
Heartbeat CPU 0 instructions: 100000002 cycles: 77244289 heartbeat IPC: 0.777313 cumulative IPC: 0.789959 (Simulation time: 0 hr 18 min 12 sec) 
Finished CPU 0 instructions: 50000001 cycles: 63294402 cumulative IPC: 0.789959 (Simulation time: 0 hr 18 min 12 sec) 

ChampSim completed all CPUs

Region of Interest Statistics

CPU 0 cumulative IPC: 0.789959 instructions: 50000001 cycles: 63294402
 Fetch stage stalled: 80.0087  Sim cycles: 63294402 fetch stall cycle: 50641024
 Empty decode stage: 67.46  Sim cycles: 63294402 fetch stall cycle: 42698414
ITLB TOTAL     ACCESS:    5695603  HIT:    5251863  MISS:     443740  HIT %:    92.2091  MISS %:    7.79092   MPKI: 8.8748
ITLB LOAD TRANSLATION INSTRUCTION	ACCESS:    5600181  HIT:    5156441  MISS:     443740  HIT %:    92.0763  MISS %:    7.92367  MPKI: 8.8748
ITLB TRANSLATION FROM L1D PREFETCHER INSTRUCTION	ACCESS:      95422  HIT:      95422  MISS:          0  HIT %:        100  MISS %:          0  MPKI: 0

ITLB AVERAGE MISS LATENCY: 9.06411 cycles
ITLB RQ	ACCESS:    7101511	FORWARD:          0	MERGED:    1038559	TO_CACHE:    6062952

DTLB TOTAL     ACCESS:    9826491  HIT:    9361330  MISS:     465161  HIT %:    95.2663  MISS %:    4.73374   MPKI: 9.30322
DTLB LOAD TRANSLATION DATA	ACCESS:    9826491  HIT:    9361330  MISS:     465161  HIT %:    95.2663  MISS %:    4.73374  MPKI: 9.30322

DTLB AVERAGE MISS LATENCY: 9.39852 cycles
DTLB RQ	ACCESS:   13866656	FORWARD:          0	MERGED:    4009766	TO_CACHE:    9856890

STLB TOTAL     ACCESS:    1209445  HIT:    1206583  MISS:       2862  HIT %:    99.7634  MISS %:   0.236637   MPKI: 0.05724
STLB LOAD TRANSLATION INSTRUCTION	ACCESS:     443740  HIT:     443296  MISS:        444  HIT %:    99.8999  MISS %:   0.100059  MPKI: 0.00888
STLB LOAD TRANSLATION DATA	ACCESS:     464941  HIT:     462558  MISS:       2383  HIT %:    99.4875  MISS %:   0.512538  MPKI: 0.04766
STLB TRANSLATION FROM L1D PREFETCHER DATA	ACCESS:     300764  HIT:     300729  MISS:         35  HIT %:    99.9884  MISS %:   0.011637  MPKI: 0.0007

STLB AVERAGE MISS LATENCY: 68.4168 cycles
STLB RQ	ACCESS:    1386903	FORWARD:          0	MERGED:     177376	TO_CACHE:    1209527

STLB Hit, L1D data hit: 0
STLB Hit, L2C data hit: 0
STLB Hit, LLC data hit: 0
STLB Hit, LLC data miss: 0
STLB STLB hints to L2: 0
L1D TOTAL     ACCESS:   13752331  HIT:   12665247  MISS:    1087084  HIT %:    92.0953  MISS %:    7.90473   MPKI: 21.7417
L1D LOAD DATA	ACCESS:    7196406  HIT:    6496521  MISS:     699885  HIT %:    90.2745  MISS %:    9.72548  MPKI: 13.9977
L1D RFO DATA	ACCESS:    6155162  HIT:    5878602  MISS:     276560  HIT %:    95.5069  MISS %:    4.49314  MPKI: 5.5312
L1D PREFETCH DATA	ACCESS:     400763  HIT:     290124  MISS:     110639  HIT %:    72.3929  MISS %:    27.6071  MPKI: 2.21278

L1D PREFETCH  REQUESTED:     956261  ISSUED:     956261  USEFUL:      56136  USELESS:      71988
L1D USEFUL LOAD PREFETCHES:      56136 PREFETCH ISSUED TO LOWER LEVEL:     128172  ACCURACY: 43.7974
 TIMELY PREFETCHES:      56136 LATE PREFETCHES: 17478 DROPPED PREFETCHES: 45
L1D AVERAGE MISS LATENCY: 741379 cycles
L1D RQ	ACCESS:   11143187	FORWARD:          0	MERGED:    3763075	TO_CACHE:    7230421
L1D WQ	ACCESS:    6762968	FORWARD:     149950	MERGED:     126733	TO_CACHE:    6636235
L1D PQ	ACCESS:     478260	FORWARD:          0	MERGED:          0	TO_CACHE:     478001

L1D UNIQUE REGIONS ACCESSED: 0
L1D REGIONS CONFLICTS: 0
L1D Cross Page Prefetch Requests: 10639
L1D Same Page Prefetch Requests: 958057
L1D ROI Sum of L1D PQ occupancy: 6057398
L1D PREFETCHES PUSHED FROM L2C: 0
L1I TOTAL     ACCESS:    6931317  HIT:    4431786  MISS:    2499531  HIT %:    63.9386  MISS %:    36.0614   MPKI: 49.9906
L1I LOAD INSTRUCTION	ACCESS:    6542614  HIT:    4043083  MISS:    2499531  HIT %:    61.7961  MISS %:    38.2039  MPKI: 49.9906
L1I PREFETCH INSTRUCTION	ACCESS:     388703  HIT:     388703  MISS:          0  HIT %:        100  MISS %:          0  MPKI: 0

L1I PREFETCH  REQUESTED:     682913  ISSUED:     682913  USEFUL:          0  USELESS:          0
L1I USEFUL LOAD PREFETCHES:          0 PREFETCH ISSUED TO LOWER LEVEL:          0  ACCURACY: -nan
 TIMELY PREFETCHES:          0 LATE PREFETCHES: 0 DROPPED PREFETCHES: 0
L1I AVERAGE MISS LATENCY: 17.7724 cycles
L1I RQ	ACCESS:    9438574	FORWARD:          0	MERGED:    2802395	TO_CACHE:    6636179
L1I PQ	ACCESS:     682913	FORWARD:          0	MERGED:     217581	TO_CACHE:     465332

L1BTB TOTAL     ACCESS:    5847977  HIT:    2466746  MISS:    3381231  HIT %:    42.1812  MISS %:    57.8188   MPKI: 67.6246
L1BTB BRANCH_DIRECT_JUMP	ACCESS:     590732  HIT:     199709  MISS:     391023	AVERAGE STALL: 29.2016
L1BTB BRANCH_INDIRECT	ACCESS:     172946  HIT:      57158  MISS:     115788	AVERAGE STALL: 76.5048
L1BTB BRANCH_CONDITIONAL	ACCESS:    3000255  HIT:    1793936  MISS:    1206319	AVERAGE STALL: 30.3196
L1BTB BRANCH_DIRECT_CALL	ACCESS:     882987  HIT:     107925  MISS:     775062	AVERAGE STALL: 31.7114
L1BTB BRANCH_INDIRECT_CALL	ACCESS:     159039  HIT:      20139  MISS:     138900	AVERAGE STALL: 88.7089
L1BTB BRANCH_RETURN	ACCESS:    1042018  HIT:     287879  MISS:     754139	AVERAGE STALL: 30.5218
L1BTB BRANCH_OTHER ACCESS:          0  HIT:          0  MISS:          0	AVERAGE STALL: -nan
L1BTB TOTAL ROB OCCUPANCY AT BTB MISS: 19.9604

L2BTB TOTAL     ACCESS:    3355886  HIT:    2053034  MISS:    1302852  HIT %:    61.1771  MISS %:    38.8229   MPKI: 26.057
L2BTB BRANCH_DIRECT_JUMP	ACCESS:     385924  HIT:     226137  MISS:     159787	AVERAGE STALL: 29.2016
L2BTB BRANCH_INDIRECT	ACCESS:     105985  HIT:      92023  MISS:      13962	AVERAGE STALL: 76.5048
L2BTB BRANCH_CONDITIONAL	ACCESS:    1206319  HIT:     743163  MISS:     463156	AVERAGE STALL: 30.3196
L2BTB BRANCH_DIRECT_CALL	ACCESS:     775062  HIT:     424264  MISS:     350798	AVERAGE STALL: 31.7114
L2BTB BRANCH_INDIRECT_CALL	ACCESS:     129465  HIT:      70687  MISS:      58778	AVERAGE STALL: 88.7089
L2BTB BRANCH_RETURN	ACCESS:     753131  HIT:     496760  MISS:     256371	AVERAGE STALL: 30.5218
L2BTB BRANCH_OTHER ACCESS:          0  HIT:          0  MISS:          0	AVERAGE STALL: -nan
L2BTB TOTAL ROB OCCUPANCY AT BTB MISS: 51.8023

L2C TOTAL     ACCESS:    4159434  HIT:    3620414  MISS:     539020  HIT %:     87.041  MISS %:     12.959   MPKI: 10.7804
L2C LOAD INSTRUCTION	ACCESS:    2499531  HIT:    2215933  MISS:     283598  HIT %:     88.654  MISS %:     11.346  MPKI: 5.67196
L2C LOAD TRANSLATION INSTRUCTION	ACCESS:        518  HIT:        165  MISS:        353  HIT %:    31.8533  MISS %:    68.1467  MPKI: 0.00706
L2C LOAD DATA	ACCESS:     682262  HIT:     588818  MISS:      93444  HIT %:    86.3038  MISS %:    13.6962  MPKI: 1.86888
L2C RFO DATA	ACCESS:     276500  HIT:     218155  MISS:      58345  HIT %:    78.8987  MISS %:    21.1013  MPKI: 1.1669
L2C PREFETCH DATA	ACCESS:     218318  HIT:     129675  MISS:      88643  HIT %:    59.3973  MISS %:    40.6027  MPKI: 1.77286
L2C WRITEBACK DATA	ACCESS:     479577  HIT:     466956  MISS:      12621  HIT %:    97.3683  MISS %:    2.63169  MPKI: 0.25242
L2C LOAD TRANSLATION DATA	ACCESS:       2629  HIT:        671  MISS:       1958  HIT %:     25.523  MISS %:     74.477  MPKI: 0.03916
L2C TRANSLATION FROM L1D PREFETCHER DATA	ACCESS:         99  HIT:         41  MISS:         58  HIT %:    41.4141  MISS %:    58.5859  MPKI: 0.00116

L2C PREFETCH  REQUESTED:      99140  ISSUED:      99140  USEFUL:      11861  USELESS:      77566
L2C USEFUL LOAD PREFETCHES:      11861 PREFETCH ISSUED TO LOWER LEVEL:      89424  ACCURACY: 13.2638
 TIMELY PREFETCHES:      11861 LATE PREFETCHES: 781 DROPPED PREFETCHES: 0
L2C AVERAGE MISS LATENCY: 40.891 cycles
L2C RQ	ACCESS:    3461691	FORWARD:          0	MERGED:          0	TO_CACHE:    3461541
L2C WQ	ACCESS:     479577	FORWARD:        150	MERGED:          0	TO_CACHE:     479577
L2C PQ	ACCESS:     227312	FORWARD:          0	MERGED:       3338	TO_CACHE:     223974

L2C Dense regions hint from L2: 0
PSCL5 TOTAL     ACCESS:       5818  HIT:       2909  MISS:       2909  HIT %:         50  MISS %:         50   MPKI: 0.05818
PSCL5 LOAD TRANSLATION INSTRUCTION	ACCESS:       5640  HIT:       2820  MISS:       2820  HIT %:         50  MISS %:         50  MPKI: 0.0564
PSCL5 TRANSLATION FROM L1D PREFETCHER INSTRUCTION	ACCESS:        178  HIT:         89  MISS:         89  HIT %:         50  MISS %:         50  MPKI: 0.00178


PSCL4 TOTAL     ACCESS:       5255  HIT:       2620  MISS:       2635  HIT %:    49.8573  MISS %:    50.1427   MPKI: 0.0527
PSCL4 LOAD TRANSLATION INSTRUCTION	ACCESS:       2692  HIT:       2535  MISS:        157  HIT %:    94.1679  MISS %:     5.8321  MPKI: 0.00314
PSCL4 TRANSLATION FROM L1D PREFETCHER INSTRUCTION	ACCESS:         85  HIT:         85  MISS:          0  HIT %:        100  MISS %:          0  MPKI: 0
PSCL4 LOAD TRANSLATION DATA	ACCESS:       2393  HIT:          0  MISS:       2393  HIT %:          0  MISS %:        100  MPKI: 0.04786
PSCL4 TRANSLATION FROM L1D PREFETCHER DATA	ACCESS:         85  HIT:          0  MISS:         85  HIT %:          0  MISS %:        100  MPKI: 0.0017


PSCL3 TOTAL     ACCESS:       5695  HIT:       2840  MISS:       2855  HIT %:    49.8683  MISS %:    50.1317   MPKI: 0.0571
PSCL3 LOAD TRANSLATION INSTRUCTION	ACCESS:       2910  HIT:       2753  MISS:        157  HIT %:    94.6048  MISS %:    5.39519  MPKI: 0.00314
PSCL3 TRANSLATION FROM L1D PREFETCHER INSTRUCTION	ACCESS:         87  HIT:         87  MISS:          0  HIT %:        100  MISS %:          0  MPKI: 0
PSCL3 LOAD TRANSLATION DATA	ACCESS:       2611  HIT:          0  MISS:       2611  HIT %:          0  MISS %:        100  MPKI: 0.05222
PSCL3 TRANSLATION FROM L1D PREFETCHER DATA	ACCESS:         87  HIT:          0  MISS:         87  HIT %:          0  MISS %:        100  MPKI: 0.00174


PSCL2 TOTAL     ACCESS:       5502  HIT:       2601  MISS:       2901  HIT %:    47.2737  MISS %:    52.7263   MPKI: 0.05802
PSCL2 LOAD TRANSLATION INSTRUCTION	ACCESS:       2965  HIT:       2522  MISS:        443  HIT %:     85.059  MISS %:     14.941  MPKI: 0.00886
PSCL2 TRANSLATION FROM L1D PREFETCHER INSTRUCTION	ACCESS:         79  HIT:         79  MISS:          0  HIT %:        100  MISS %:          0  MPKI: 0
PSCL2 LOAD TRANSLATION DATA	ACCESS:       2379  HIT:          0  MISS:       2379  HIT %:          0  MISS %:        100  MPKI: 0.04758
PSCL2 TRANSLATION FROM L1D PREFETCHER DATA	ACCESS:         79  HIT:          0  MISS:         79  HIT %:          0  MISS %:        100  MPKI: 0.00158


LLC TOTAL     ACCESS:     610091  HIT:     570888  MISS:      39203  HIT %:    93.5742  MISS %:    6.42576   MPKI: 0.78406
LLC LOAD INSTRUCTION	ACCESS:     283598  HIT:     282260  MISS:       1338  HIT %:    99.5282  MISS %:   0.471795  MPKI: 0.02676
LLC LOAD TRANSLATION INSTRUCTION	ACCESS:        353  HIT:        315  MISS:         38  HIT %:    89.2351  MISS %:    10.7649  MPKI: 0.00076
LLC LOAD DATA	ACCESS:      92665  HIT:      87939  MISS:       4726  HIT %:    94.8999  MISS %:    5.10009  MPKI: 0.09452
LLC RFO DATA	ACCESS:      58338  HIT:      39385  MISS:      18953  HIT %:    67.5117  MISS %:    32.4883  MPKI: 0.37906
LLC PREFETCH DATA	ACCESS:      89423  HIT:      75795  MISS:      13628  HIT %:    84.7601  MISS %:    15.2399  MPKI: 0.27256
LLC WRITEBACK DATA	ACCESS:      83698  HIT:      83304  MISS:        394  HIT %:    99.5293  MISS %:    0.47074  MPKI: 0.00788
LLC LOAD TRANSLATION DATA	ACCESS:       1958  HIT:       1835  MISS:        123  HIT %:    93.7181  MISS %:    6.28192  MPKI: 0.00246
LLC TRANSLATION FROM L1D PREFETCHER DATA	ACCESS:         58  HIT:         55  MISS:          3  HIT %:    94.8276  MISS %:    5.17241  MPKI: 6e-05

LLC AVERAGE MISS LATENCY: 158.517 cycles
LLC RQ	ACCESS:     436975	FORWARD:          0	MERGED:          0	TO_CACHE:     436970
LLC WQ	ACCESS:      83698	FORWARD:          6	MERGED:          0	TO_CACHE:      83698
LLC PQ	ACCESS:      89424	FORWARD:          0	MERGED:          0	TO_CACHE:      89423

LLC Dense regions hint to LLC: 0

RAW hits: 1309592
Loads Generated: 12452781
Loads sent to L1D: 11143187
Stores Generated: 6762961
Stores sent to L1D: 6762968
Major fault: 0 Minor fault: 2610
Allocated PAGES: 2610

stream: 
stream:times selected: 1487184
stream:pref_filled: 128985
stream:pref_useful: 30495
stream:pref_late: 10596
stream:misses: 13124
stream:misses_by_poll: 0

CS: 
CS:times selected: 235564
CS:pref_filled: 87422
CS:pref_useful: 62813
CS:pref_late: 10683
CS:misses: 28973
CS:misses_by_poll: 4

CPLX: 
CPLX:times selected: 1249482
CPLX:pref_filled: 29585
CPLX:pref_useful: 9557
CPLX:pref_late: 5060
CPLX:misses: 149288
CPLX:misses_by_poll: 5

NL_L1: 
NL:times selected: 28964
NL:pref_filled: 2109
NL:pref_useful: 1084
NL:pref_late: 681
NL:misses: 3873
NL:misses_by_poll: 0

total selections: 3001194
total_filled: 110639
total_useful: 56136
total_late: 29862
total_polluted: 9
total_misses_after_warmup: 733903
conflicts: 5553379

test: 176224

DRAM Statistics
 CHANNEL 0
 RQ ROW_BUFFER_HIT:      13816  ROW_BUFFER_MISS:      24988
 DBUS_CONGESTED:          6
 WQ ROW_BUFFER_HIT:       2102  ROW_BUFFER_MISS:      18388  FULL:          0

 AVG_CONGESTED_CYCLE: 5

CPU 0 Branch Prediction Accuracy: 99.7585% MPKI: 0.44248 Average ROB Occupancy at Mispredict: 111.36
Branch types
NOT_BRANCH: 40840073 81.6801%
BRANCH_DIRECT_JUMP: 590732 1.18146%
BRANCH_INDIRECT: 172946 0.345892%
BRANCH_CONDITIONAL: 6311789 12.6236%
BRANCH_DIRECT_CALL: 882987 1.76597%
BRANCH_INDIRECT_CALL: 159039 0.318078%
BRANCH_RETURN: 1042018 2.08404%
BRANCH_OTHER: 0 0%

DRAM PAGES: 1048576
Allocated PAGES: 2610
Average_ROB_Occupancy: 68.4595
Average_Decode_Occupancy: 8.01846
Average_FTQ_Occupancy: 4.02678
Indirect max targets: 14 Average targets: 1.17197
Branch_type:  BRANCH_DIRECT_JUMP:  Count Percentage: 10.3882 5.72464 3.62127 9.64659 4.0795 2.24581 1.42889 62.8651 
Branch_type:  BRANCH_INDIRECT:  Count Percentage: 0.0101631 1.16178 9.19758 10.6721 3.53443 2.94497 3.14678 69.3322 
Branch_type:  BRANCH_CONDITIONAL:  Count Percentage: 30.1054 3.09706 1.38659 4.43829 2.04893 1.95797 0.999229 55.9666 
Branch_type:  BRANCH_DIRECT_CALL:  Count Percentage: 0.830484 1.28119 0.595565 4.36291 2.12054 2.19903 1.0544 87.5559 
Branch_type:  BRANCH_INDIRECT_CALL:  Count Percentage: 8.72097 0 2.97619 0.000939355 0 2.18619 3.39326 82.7224 
Branch_type:  BRANCH_RETURN:  Count Percentage: 8.41814 1.20196 1.1807 4.02829 3.56168 3.35822 1.42411 76.8269 
Branch_type:  BRANCH_DIRECT_JUMP:  Total Count: 122305 67399 42635 113574 48030 26441 16823 740142 
Branch_type:  BRANCH_INDIRECT:  Total Count: 35 4001 31675 36753 12172 10142 10837 238769 
Branch_type:  BRANCH_CONDITIONAL:  Total Count: 3795871 390497 174830 559608 258342 246873 125989 7056616 
Branch_type:  BRANCH_DIRECT_CALL:  Total Count: 14717 22704 10554 77315 37578 38969 18685 1551577 
Branch_type:  BRANCH_INDIRECT_CALL:  Total Count: 27852 0 9505 3 0 6982 10837 264189 
Branch_type:  BRANCH_RETURN:  Total Count: 176135 25149 24704 84285 74522 70265 29797 1607469 
Number of unique branch instructions: 10677
Upper 32 bits: 
aaaa
ffff
ffff0000
Unique upper 32 bits: 3
Unique upper 36 bits: 3
Unique upper 40 bits: 5
Unique upper 44 bits: 32
Unique upper 48 bits: 158
Offset_3 4406
Offset_4 261
Offset_5 487
Offset_6 539
Offset_7 638
Offset_8 578
Offset_9 511
Offset_10 404
Offset_11 343
Offset_12 311
Offset_13 246
Offset_14 247
Offset_15 199
Offset_16 228
Offset_17 166
Offset_18 144
Offset_19 258
Offset_20 144
Offset_21 239
Offset_22 410
Offset_23 241
Offset_24 352
Offset_25 117
Offset_47 94
Offset_64 2
decode_dispatch_called: 20931843 33.0706
Dispatch_width: 0 10351712 49.4544 16.3549
Dispatch_width: 1 683655 3.2661 1.08012
Dispatch_width: 2 970022 4.63419 1.53256
Dispatch_width: 3 617355 2.94936 0.975371
Dispatch_width: 4 1944365 9.28903 3.07194
Dispatch_width: 5 441953 2.11139 0.69825
Dispatch_width: 6 5922781 28.2956 9.35751
Empty_decode_cycles: 42362559 66.9294
ROB_full_cycles: 1854558 2.93005
Starvation_cycles_per_kilo_instr: 555.171
Starvation_cycles_per_kilo_instr_3: 531.307
Starvation_cycles_per_kilo_instr_0: 508.597
Branch_type_1  (3,1)  (4,10)  (5,38)  (6,72)  (7,124)  (8,153)  (9,134)  (10,99)  (11,77)  (12,48)  (13,12)  (14,2)  (15,3)  (16,4)  (18,1)  (19,5)  (20,2)  (21,1)  (22,3)  (23,2)  (24,10)  (25,12)  (64,1) 
Branch_type_2  (3,1)  (4,1)  (5,1)  (8,3)  (9,4)  (10,1)  (12,1)  (13,1)  (14,1)  (16,3)  (17,2)  (20,2)  (21,2)  (23,5)  (24,1)  (47,43) 
Branch_type_3  (3,4404)  (4,250)  (5,444)  (6,451)  (7,483)  (8,356)  (9,279)  (10,165)  (11,131)  (12,58)  (13,11)  (64,1) 
Branch_type_4  (6,3)  (7,8)  (8,25)  (9,56)  (10,66)  (11,69)  (12,114)  (13,104)  (14,113)  (15,94)  (16,100)  (17,76)  (18,61)  (19,126)  (20,73)  (21,127)  (22,215)  (23,136)  (24,206)  (25,101) 
Branch_type_5  (8,3)  (9,1)  (10,4)  (11,5)  (12,3)  (13,14)  (14,16)  (15,11)  (16,22)  (17,11)  (18,23)  (19,14)  (20,11)  (21,13)  (22,43)  (23,26)  (24,38) 
Branch_type_6  (5,4)  (6,13)  (7,23)  (8,38)  (9,37)  (10,69)  (11,61)  (12,87)  (13,104)  (14,115)  (15,91)  (16,99)  (17,77)  (18,59)  (19,113)  (20,56)  (21,96)  (22,149)  (23,72)  (24,97)  (25,4)  (47,51) 
aaaaab1fc620: 2ac9e77e 2aca717c 2aca8eff 2acaf6bc 2acaf9aa 2acaf9f1 2acb1abc 2acb1b7f 2acd4e22 2acdb712 2acf5f9e 2ad0ef44 2ad3f15c 2ad414e6 2ad60e42 2ad8609c 2ad99830 2ada35cc 2ada4676 2ada6612 2adf183e 2adf30e5 2adf5602 2adf785c 2ae11572 2aeb2dcf 2aee101b 2aee1ae1 2aee9456 2b156a8c 2b156b61 2b156bea 2b167f35 2b177656 2b17feec 2b1a3e5a 
aaaaab1fc640: 2ac9ec07 2aca656e 2aca801d 2acaea11 2acaee73 2acb13ee 2acb1470 2acd462b 2ad0ef5d 2ad3f3fe 2ad86e9b 2ada1641 2ada4115 2ada6638 2adf30d4 2ae12e57 2aee1033 2b1693ab 2b16948c 2b169491 2b17d915 2b17fa85 2b17fccd 
aaaaab1fc740: 2aca1fb0 2aca45b3 2aca5aa1 2aca5c69 2aca66f9 2aca9426 2acaeecb 2acf3d2d 2acf3d64 2acf6089 2ad017ea 2ad5e7ef 2ad61064 2ad87373 2ad9bf84 2ad9c093 2ae9b606 2aea9ffa 2aee99f5 2aee9a2c 2aeece4b 
aaaaab1fcb00: 2acf2d72 2acf3734 2acf604c 2acfa5b7 2ad397b5 2ad3b800 2ae8af7d 2ae8aff0 2ae9aaba 2aea9fc6 2aeaa358 2aee910b 2aee91cf 2aee928e 2aee92e4 2aee99de 2af6fe87 2af70dfe 2b16850c 2b16c4a2 2b1765f4 2b178094 2b17d925 2b17db06 2b17ec8f 
aaaaab1fcb10: 2acf2d95 2acf3758 2acf6052 2acfa5f4 2ad397c3 2ad3b81c 2ae8af88 2ae8affe 2ae9aacf 2aeaa017 2aeaa36d 2aee9114 2aee91d8 2aee934d 2aee9353 2aee9a14 2af6fe8c 2af70e22 2b168526 2b16c542 2b176609 2b1780a3 2b17d95d 2b17db44 2b17ecac 
aaaaac68f310: 2ac9ec8c 2ac9fb44 2ac9fbd2 2aca59ab 2acac04c 2acaf6e0 2acaf6ec 2acaf6f9 2acaf700 2acaf708 2acf2d90 2ad3cfbd 2ad3cfc4 2ad3d000 2ad3f35f 2ad4955d 2ad49571 2ad4f3f2 2ad4f400 2ad5f240 2ad5f37c 2ad5f86a 2ad5f86f 2ad5f880 2ad5fc0d 2ad5fc14 2ad5fc21 2ad5fe1b 2ad873bb 2ad873e3 2ad8a6b2 2ad9086e 2ad93096 2ad9bbb2 2ada152c 2ada1554 2ada3332 2ada5522 2adf3130 2adf313c 2adf3a3f 2adf3bd9 2adf5788 2adf7a8d 2ae07f6b 2ae0857a 2ae0857e 2ae08630 2ae08634 2ae08637 2ae08642 2ae0866f 2ae086e4 2ae086ec 2ae08717 2ae0871b 2aee0170 2aee1d38 2aee75f4 2aee7662 2aee85ca 2aee85e4 2aee8eef 2aee9a0a 2af70b84 2af74e8f 2b17d843 
aaaaac690ef0: 2aca598b 2acb111b 2acb175f 2acb1772 2acbfaf4 2acbfb00 2acf374f 2acf6d43 2acfa5c8 2ad3baf1 2ad3d4ac 2ad3d4b8 2ad3f1cf 2ad486b2 2ad5a59b 2ad5fc64 2ad5fcf9 2ad6121c 2ad906e9 2ad907bf 2ad9bada 2ada16ce 2ada1ad5 2ada43df 2ada64c0 2ada72ee 2adeb71a 2adf3bcb 2adf7a38 2adf7c6a 2adf8872 2adf8880 2adf9959 2adf9abe 2ae07f78 2ae08503 2ae08754 2ae12e80 2aea3bea 2aecb509 2aee00b0 2aee2bdd 2aee5467 2aee5601 2aee8f20 2af703fd 2af7048b 2af74e74 2dfba627 
Unique trigger count: 
1 10166
2 553
3 96
4 32
5 16
6 9
7 7
8 2
9 3
10 2
11 1
12 1
13 2
14 2
16 2
19 1
21 1
23 1
25 2
36 1
49 1
67 1
BTB PER SET UNIQUE ADDR: 6 8 6 5 3 4 7 9 10 2 4 2 8 5 4 4 7 5 7 9 5 8 8 10 8 12 1 7 6 6 10 10 6 4 8 5 4 8 7 3 8 5 7 9 9 9 6 12 11 6 5 3 13 2 2 7 5 5 9 8 4 11 5 8 6 9 8 9 6 7 6 2 6 5 6 7 6 14 5 5 9 6 8 6 7 8 7 8 8 10 10 9 9 6 6 5 10 8 5 6 8 8 8 9 5 8 7 8 8 6 6 7 5 7 6 11 3 5 6 2 10 9 4 3 6 4 4 7 10 6 12 3 11 4 9 6 5 3 6 8 7 9 7 7 5 11 5 9 12 7 6 14 6 10 6 9 7 9 7 11 11 8 10 5 11 7 3 5 13 7 6 4 9 7 4 3 6 8 9 5 6 7 10 8 9 12 6 6 6 9 5 7 6 7 6 10 11 4 11 5 4 6 9 4 8 4 5 8 7 2 3 5 9 9 6 6 4 9 8 6 6 4 6 7 6 8 14 7 3 12 14 11 5 5 8 10 12 6 5 6 5 3 11 8 16 11 2 8 6 7 7 9 6 7 5 12 4 7 10 6 8 5 7 4 9 15 6 5 7 5 7 7 4 10 10 9 6 4 4 8 8 5 10 5 10 9 8 8 8 4 5 7 4 12 7 4 6 11 6 6 6 7 5 4 7 7 6 4 13 10 7 4 8 4 6 5 10 14 7 6 7 10 5 8 5 6 6 9 3 3 9 2 6 7 10 5 7 7 8 1 5 6 2 9 6 7 3 7 9 6 4 12 10 7 8 6 7 2 8 5 7 10 6 8 11 8 4 4 4 4 8 4 6 5 8 4 11 8 7 10 9 6 6 11 6 5 7 5 8 5 9 5 8 4 7 3 5 7 2 9 7 5 8 6 5 6 10 6 5 3 4 4 11 7 2 6 9 4 3 7 2 7 8 8 10 10 5 2 4 8 4 4 15 4 8 11 6 6 7 3 5 6 10 4 7 9 6 7 5 4 6 3 3 3 9 3 5 7 9 6 5 4 6 11 5 5 10 3 6 6 2 6 10 7 4 3 9 5 3 3 5 3 4 4 3 7 8 4 7 2 12 4 4 8 2 13 4 7 5 5 11 3 4 3 2 5 5 3 4 6 7 4 7 11 3 4 2 11 7 10 7 5 9 5 10 10 6 10 10 8 7 6 6 8 5 8 8 1 6 4 6 9 9 5 9 5 10 12 14 12 7 8 7 7 2 6 10 3 7 4 11 6 9 6 6 6 10 8 13 6 8 3 11 12 7 7 6 12 5 8 13 6 2 6 5 3 3 14 8 6 9 9 4 7 4 5 9 5 6 5 12 5 11 12 8 6 5 9 7 6 9 8 8 5 8 5 7 4 5 8 9 6 11 4 5 10 8 8 3 5 8 7 7 7 7 7 6 7 6 4 11 9 4 6 4 3 7 7 8 7 8 4 10 3 5 1 10 5 6 8 12 3 6 11 7 8 7 6 6 11 7 8 6 9 11 9 8 6 7 6 8 12 9 6 7 8 7 8 8 7 3 8 2 5 5 7 10 7 7 9 3 12 5 5 6 12 3 4 5 5 6 7 5 5 5 7 11 5 1 8 5 3 5 4 4 3 3 8 3 11 8 11 8 2 7 7 10 3 6 4 5 8 5 10 4 5 6 4 6 7 6 3 5 6 2 5 5 10 9 4 5 6 6 8 7 6 14 6 5 5 9 6 0 7 7 5 6 10 3 3 7 6 4 6 11 9 9 6 3 10 4 10 6 7 5 13 12 5 5 4 12 4 7 4 7 6 7 8 4 7 3 4 7 5 5 6 1 6 4 9 7 4 9 3 5 4 6 3 6 7 7 3 7 4 11 5 5 5 6 6 6 5 7 7 5 9 9 6 6 4 8 8 6 9 6 11 7 5 7 5 8 6 4 4 14 7 6 8 10 9 5 6 6 10 6 2 2 4 8 4 5 7 6 7 10 5 6 5 5 7 9 3 5 8 6 4 9 12 5 3 13 9 6 6 8 7 7 10 6 10 10 7 5 4 2 8 5 6 8 6 9 8 9 6 9 8 7 5 5 12 6 4 11 10 6 8 10 10 3 9 8 9 6 4 6 8 10 6 9 6 8 5 13 7 4 6 9 14 5 9 6 6 10 6 4 9 9 9 10 4 3 5 4 9 12 5 8 4 4 7 13 5 4 6 5 7 4 5 9 7 8 7 7 11 5 11 6 11 5 5 5 6 7 4 8 6 7 6 6 6 10 4 9 5 10 5 9 5 3 8 10 6 14 4 
BTB PER SET COUNT: 10 5206 4949 5 3 4 3526 4879 7806 6 4 2 4673 1044 4 4 2695 564 2799 4669 7 2274 761 5043 7142 10207 1 570 2595 39 9110 4285 1456 5 4816 3192 2718 3361 1431 4 3120 558 57 4268 9518 575 2142 5777 8736 2208 599 4 11283 2 2 4120 736 5377 6194 3476 4 8293 10 4036 29 6815 1546 1586 1060 3248 2374 2 45 8 962 3104 617 8750 741 6 2323 3802 1972 2351 2846 2937 1822 2118 8424 2894 7624 2769 4728 3160 1406 6 7124 2104 5 707 1767 808 2383 5580 7 5465 1394 3145 3744 1097 1159 13 298 2653 27 10055 4 25 1171 17 4028 4170 4 3 2248 4 5 3789 9329 1390 5860 5 7342 4 7828 9 1075 3 32 5790 6105 7221 1060 3498 5 3056 7 6535 8882 1740 1346 9007 3682 10175 10 4973 7454 5897 3829 7174 10581 1723 8840 1719 7412 3191 3 12 12986 1392 8 4 860 116 4 3 25 1510 4500 7 34 1098 8528 369 1056 8460 2763 24 5138 4839 19 5190 1054 4003 2327 2383 8605 4 1426 6 4 941 6108 4 3891 5 1043 3179 569 2 4 377 3100 4519 1585 3839 4 3294 880 5222 1154 4 1386 6125 1379 4498 11940 5730 3 10244 10163 7675 6 7 1401 5693 4474 12 5 19 13 3 9891 2066 12383 6126 2 2770 699 12 3485 6379 4733 1478 22 8176 6 2232 4886 1097 3155 741 3632 5 6268 10917 1064 6 3024 2190 3548 1829 4 6855 4478 2331 1381 4 4 4609 2300 9 3741 734 7920 9107 3776 2602 1499 4 1389 3456 343 7517 3731 9 36 7804 3333 3059 2329 1552 9 4 2886 963 692 5 6900 5790 932 4 4011 5 926 11 5069 8811 3719 10 2394 3973 742 5474 53 1736 26 3397 6 5 4414 2 820 1581 9427 10 5022 3336 1767 1 21 760 2 5223 1366 843 3 751 1972 9 4 5341 6097 2978 2093 26 8760 5 4701 1495 1776 4972 22 2225 2805 5371 6 4 5 5 3489 4 1576 559 1887 4 5881 43 1049 4887 4046 1736 3682 8893 32 10 51 842 563 9 3153 18 4376 5 3857 5 2425 4762 3 1440 2408 8 2037 1045 618 27 3802 13 6 1650 5 7 2806 10 691 702 1321 4 13 1231 2 4084 4215 1457 5465 1257 12 2 4 1780 110 4 7882 4 4767 9906 1063 4113 3774 4 9 714 3934 4 1407 4193 8 2830 28 4 2082 3 3 3 7059 3 15 1129 6308 32 707 42 1558 6693 860 33 7135 3 48 1049 2 942 6546 684 135 3 24245 741 4 3 39 3 31 344 3 3116 3068 497 1200 2 4796 4 4 4836 2 9305 4 1802 6 9 11581 12 4 3 2 2323 23 3 4 63 2333 4 11 6478 3 4 2 11394 92 2901 1741 1102 4066 6 4080 6524 9 4657 5649 6080 16 3535 10 420 8 5497 120 1 737 4 27 8795 3735 11 3660 25 1645 5620 10823 11195 1041 5429 1085 5196 2 1402 3398 3 1740 5 7565 991 4505 1393 2433 752 6104 1912 8981 1407 5235 3 7518 9855 3808 2109 4868 7307 18 3996 9012 1208 2 2485 1095 3 6 11133 2156 23 7476 4442 5 1392 693 1391 34 2670 8 9 4706 1722 8463 6298 4363 4277 11 6148 3449 1569 9174 1179 3018 2420 7497 5 3225 4 21 4526 2000 389 7261 1130 1108 4977 1768 5462 3 1043 7357 7545 2998 41 5914 11 751 11 700 4 9856 5252 4 40 4 18 1116 2155 5883 19 6804 4 11150 3 697 1 7878 1095 7301 5336 17220 3 2676 10444 5447 5447 3458 1354 24 5158 4724 5827 2143 2117 10163 4858 3621 3108 4840 3336 6230 9182 1952 6760 13645 4588 2051 5262 2492 5163 4 2876 3 5 8 2151 8126 2112 2016 1148 3 8537 741 3334 1048 7433 3 1094 1441 1838 2107 2118 19 749 2854 2417 6898 1735 1 6969 8 3 3115 4 4 3 3 4350 5 8966 4983 7142 6257 2 1452 4697 3431 3 1407 4 7 4161 31 9475 4 6 1892 4 1047 2410 6278 3 697 17 2 1145 9 7505 8541 693 7 5188 4189 2914 2776 1938 10715 555 18 7 3890 577 0 2791 88 1107 3455 5959 3 3 3020 18 4 4150 8514 6791 3998 22 603 4466 6 5635 9 1409 25 9417 6132 7 1389 4 8545 8 2897 6 3558 2777 3464 5240 4 31 3 6 1043 350 6 38 2 38 4 4902 703 5 6719 3 1043 5 1247 5 3017 3102 3279 4 6465 4 9211 1581 10 9 1723 16 1895 9 1431 4308 5 3556 2336 1152 1090 5 8049 3786 2330 5417 2193 10553 2551 8 6438 9 2529 3495 5 4 8316 718 578 9196 9377 7446 1389 4148 3674 4862 1062 2 3 4 299 4 10 5862 47 2894 4949 772 2537 10 9 2576 6762 3 9 1531 162 4 2595 5051 8 3 9033 3491 98 120 1908 1730 561 3940 180 3034 3989 1059 9 4 2 2487 6 701 7132 3884 4717 2828 4747 3460 4900 3941 3034 7 1441 4547 23 362 7470 5538 1175 4787 5768 5588 3 4107 3626 4374 9 693 1025 4350 2033 1026 3740 9 2115 5 8815 2802 5 1195 6031 10481 46 5463 190 2363 7790 3557 6 3129 3712 2506 4681 4 3 1043 4 7408 6740 1515 5077 4 4 1755 8867 12 362 402 1456 3345 4 6 3481 3339 3356 2686 4351 8469 9 4137 1823 6118 13 108 8 1930 1205 4 2996 40 5744 8 1490 9 8168 4 8686 274 2929 7 3307 12 3 145 4697 1060 6930 4 
