
*** ChampSim Multicore Out-of-Order Simulator ***

Warmup Instructions: 50000000
Simulation Instructions: 50000000
Number of CPUs: 1
LLC sets: 2048
LLC ways: 16
Off-chip DRAM Size: 4096 MB Channels: 1 Width: 64-bit Data Rate: 6400 MT/s
CPU 0 runs ./micro_traces/srv752.trace.gz
.gz
ITLB has LRU replacement policy
DTLB has LRU replacement policy
STLB has LRU replacement policy
FDIP Prefetcher at L1I
L1I has LRU replacement policy
L1D has LRU replacement policy
Initialize SRRIP state for L2C
Initialize DRRIP state for LLC
Heartbeat_Variant_0 : 1263 0.30835 per_variant_size: 0 1263 0 0 0 0 0 0 0 
Heartbeat_Variant_1 : 1159 0.282959 per_variant_size: 0 571 588 0 0 0 0 0 0 
Heartbeat_Variant_2 : 943 0.230225 per_variant_size: 0 533 269 103 38 0 0 0 0 
Heartbeat_Variant_3 : 693 0.169189 per_variant_size: 0 455 173 60 3 2 0 0 0 
Heartbeat_Variant_0_evicts 0 : 7070 1 : 1472 2 : 1242 3 : 932 
Heartbeat_Variant_1_evicts 0 : 1503 1 : 0 2 : 1089 3 : 1002 
Heartbeat_Variant_2_evicts 0 : 1210 1 : 1083 2 : 0 3 : 733 
Heartbeat_Variant_3_evicts 0 : 904 1 : 1016 2 : 694 3 : 0 
Heartbeat CPU 0 instructions: 10000000 cycles: 2797811 heartbeat IPC: 3.57422 cumulative IPC: 3.57422 (Simulation time: 0 hr 1 min 17 sec) 
Heartbeat_Variant_0 : 1277 0.311768 per_variant_size: 0 1277 0 0 0 0 0 0 0 
Heartbeat_Variant_1 : 1164 0.28418 per_variant_size: 0 562 602 0 0 0 0 0 0 
Heartbeat_Variant_2 : 936 0.228516 per_variant_size: 0 509 277 109 41 0 0 0 0 
Heartbeat_Variant_3 : 699 0.170654 per_variant_size: 0 440 194 55 8 2 0 0 0 
Heartbeat_Variant_0_evicts 0 : 6876 1 : 1163 2 : 966 3 : 753 
Heartbeat_Variant_1_evicts 0 : 1165 1 : 0 2 : 949 3 : 900 
Heartbeat_Variant_2_evicts 0 : 955 1 : 951 2 : 0 3 : 547 
Heartbeat_Variant_3_evicts 0 : 749 1 : 902 2 : 552 3 : 0 
Heartbeat CPU 0 instructions: 20000002 cycles: 5595653 heartbeat IPC: 3.57418 cumulative IPC: 3.5742 (Simulation time: 0 hr 2 min 29 sec) 
Heartbeat_Variant_0 : 1264 0.308594 per_variant_size: 0 1264 0 0 0 0 0 0 0 
Heartbeat_Variant_1 : 1172 0.286133 per_variant_size: 0 575 597 0 0 0 0 0 0 
Heartbeat_Variant_2 : 946 0.230957 per_variant_size: 0 526 267 110 43 0 0 0 0 
Heartbeat_Variant_3 : 699 0.170654 per_variant_size: 0 452 181 54 11 1 0 0 0 
Heartbeat_Variant_0_evicts 0 : 6833 1 : 1286 2 : 992 3 : 731 
Heartbeat_Variant_1_evicts 0 : 1283 1 : 0 2 : 951 3 : 884 
Heartbeat_Variant_2_evicts 0 : 1006 1 : 957 2 : 0 3 : 589 
Heartbeat_Variant_3_evicts 0 : 734 1 : 869 2 : 601 3 : 0 
Heartbeat CPU 0 instructions: 30000000 cycles: 8392677 heartbeat IPC: 3.57523 cumulative IPC: 3.57454 (Simulation time: 0 hr 3 min 45 sec) 
Heartbeat_Variant_0 : 1276 0.311523 per_variant_size: 0 1276 0 0 0 0 0 0 0 
Heartbeat_Variant_1 : 1169 0.2854 per_variant_size: 0 568 601 0 0 0 0 0 0 
Heartbeat_Variant_2 : 937 0.22876 per_variant_size: 0 495 285 116 41 0 0 0 0 
Heartbeat_Variant_3 : 701 0.171143 per_variant_size: 0 451 181 55 13 1 0 0 0 
Heartbeat_Variant_0_evicts 0 : 7139 1 : 1427 2 : 1148 3 : 848 
Heartbeat_Variant_1_evicts 0 : 1408 1 : 0 2 : 1043 3 : 1020 
Heartbeat_Variant_2_evicts 0 : 1121 1 : 1054 2 : 0 3 : 672 
Heartbeat_Variant_3_evicts 0 : 882 1 : 993 2 : 666 3 : 0 
Heartbeat CPU 0 instructions: 40000001 cycles: 11188734 heartbeat IPC: 3.57647 cumulative IPC: 3.57502 (Simulation time: 0 hr 5 min 3 sec) 
Heartbeat_Variant_0 : 1264 0.308594 per_variant_size: 0 1264 0 0 0 0 0 0 0 
Heartbeat_Variant_1 : 1151 0.281006 per_variant_size: 0 554 597 0 0 0 0 0 0 
Heartbeat_Variant_2 : 943 0.230225 per_variant_size: 0 511 282 106 44 0 0 0 0 
Heartbeat_Variant_3 : 727 0.17749 per_variant_size: 0 485 185 45 11 1 0 0 0 
Heartbeat_Variant_0_evicts 0 : 6930 1 : 1206 2 : 1009 3 : 841 
Heartbeat_Variant_1_evicts 0 : 1232 1 : 0 2 : 949 3 : 942 
Heartbeat_Variant_2_evicts 0 : 987 1 : 965 2 : 0 3 : 643 
Heartbeat_Variant_3_evicts 0 : 849 1 : 971 2 : 632 3 : 0 
Heartbeat CPU 0 instructions: 50000000 cycles: 13985832 heartbeat IPC: 3.57513 cumulative IPC: 3.57505 (Simulation time: 0 hr 6 min 20 sec) 

Warmup complete CPU 0 instructions: 50000004 cycles: 13985833 (Simulation time: 0 hr 6 min 20 sec) 

Cycle: 20000000 FTQ IN: 57901389 FTQ occupancy: 19.2396 DECODE IN: 57901287 DECODE occupancy: 49.8236 ROB IN: 57901227 ROB occupancy: 303.489 ROB OUT: 57900876
Heartbeat_Variant_0 : 1275 0.311279 per_variant_size: 0 1275 0 0 0 0 0 0 0 
Heartbeat_Variant_1 : 1154 0.281738 per_variant_size: 0 567 587 0 0 0 0 0 0 
Heartbeat_Variant_2 : 938 0.229004 per_variant_size: 0 505 292 110 31 0 0 0 0 
Heartbeat_Variant_3 : 719 0.175537 per_variant_size: 0 480 184 44 10 1 0 0 0 
Heartbeat_Variant_0_evicts 0 : 6983 1 : 1595 2 : 1152 3 : 884 
Heartbeat_Variant_1_evicts 0 : 1608 1 : 0 2 : 1111 3 : 1045 
Heartbeat_Variant_2_evicts 0 : 1158 1 : 1107 2 : 0 3 : 682 
Heartbeat_Variant_3_evicts 0 : 854 1 : 1059 2 : 690 3 : 0 
Heartbeat CPU 0 instructions: 60000002 cycles: 21563910 heartbeat IPC: 1.3196 cumulative IPC: 1.3196 (Simulation time: 0 hr 7 min 30 sec) 
Heartbeat_Variant_0 : 1275 0.311279 per_variant_size: 0 1275 0 0 0 0 0 0 0 
Heartbeat_Variant_1 : 1142 0.278809 per_variant_size: 0 535 607 0 0 0 0 0 0 
Heartbeat_Variant_2 : 953 0.232666 per_variant_size: 0 553 259 99 42 0 0 0 0 
Heartbeat_Variant_3 : 716 0.174805 per_variant_size: 0 479 177 56 4 0 0 0 0 
Heartbeat_Variant_0_evicts 0 : 6962 1 : 1350 2 : 974 3 : 776 
Heartbeat_Variant_1_evicts 0 : 1332 1 : 0 2 : 939 3 : 920 
Heartbeat_Variant_2_evicts 0 : 981 1 : 954 2 : 0 3 : 587 
Heartbeat_Variant_3_evicts 0 : 787 1 : 899 2 : 594 3 : 0 
Heartbeat CPU 0 instructions: 70000001 cycles: 28980339 heartbeat IPC: 1.34836 cumulative IPC: 1.33382 (Simulation time: 0 hr 8 min 47 sec) 
Cycle: 30000000 FTQ IN: 13483135 FTQ occupancy: 10.6054 DECODE IN: 13483182 DECODE occupancy: 26.4702 ROB IN: 13483225 ROB occupancy: 201.562 ROB OUT: 13483574
Heartbeat_Variant_0 : 1266 0.309082 per_variant_size: 0 1266 0 0 0 0 0 0 0 
Heartbeat_Variant_1 : 1138 0.277832 per_variant_size: 0 524 614 0 0 0 0 0 0 
Heartbeat_Variant_2 : 955 0.233154 per_variant_size: 0 530 265 120 40 0 0 0 0 
Heartbeat_Variant_3 : 727 0.17749 per_variant_size: 0 484 182 53 7 1 0 0 0 
Heartbeat_Variant_0_evicts 0 : 7134 1 : 1490 2 : 1159 3 : 926 
Heartbeat_Variant_1_evicts 0 : 1481 1 : 0 2 : 1027 3 : 1019 
Heartbeat_Variant_2_evicts 0 : 1158 1 : 1062 2 : 0 3 : 664 
Heartbeat_Variant_3_evicts 0 : 945 1 : 979 2 : 696 3 : 0 
Heartbeat CPU 0 instructions: 80000000 cycles: 36590216 heartbeat IPC: 1.31408 cumulative IPC: 1.32718 (Simulation time: 0 hr 10 min 7 sec) 
Cycle: 40000000 FTQ IN: 13223694 FTQ occupancy: 10.6037 DECODE IN: 13223627 DECODE occupancy: 26.3725 ROB IN: 13223584 ROB occupancy: 200.664 ROB OUT: 13223234
Heartbeat_Variant_0 : 1261 0.307861 per_variant_size: 0 1261 0 0 0 0 0 0 0 
Heartbeat_Variant_1 : 1146 0.279785 per_variant_size: 0 536 610 0 0 0 0 0 0 
Heartbeat_Variant_2 : 971 0.237061 per_variant_size: 0 561 271 100 39 0 0 0 0 
Heartbeat_Variant_3 : 708 0.172852 per_variant_size: 0 458 185 59 6 0 0 0 0 
Heartbeat_Variant_0_evicts 0 : 6803 1 : 1180 2 : 992 3 : 763 
Heartbeat_Variant_1_evicts 0 : 1175 1 : 0 2 : 865 3 : 778 
Heartbeat_Variant_2_evicts 0 : 1011 1 : 858 2 : 0 3 : 556 
Heartbeat_Variant_3_evicts 0 : 754 1 : 772 2 : 552 3 : 0 
Heartbeat CPU 0 instructions: 90000002 cycles: 44012554 heartbeat IPC: 1.34728 cumulative IPC: 1.33215 (Simulation time: 0 hr 11 min 26 sec) 
Cycle: 50000000 FTQ IN: 13286579 FTQ occupancy: 10.735 DECODE IN: 13286701 DECODE occupancy: 26.7235 ROB IN: 13286761 ROB occupancy: 201.432 ROB OUT: 13286904
Heartbeat_Variant_0 : 1274 0.311035 per_variant_size: 0 1274 0 0 0 0 0 0 0 
Heartbeat_Variant_1 : 1176 0.287109 per_variant_size: 0 568 608 0 0 0 0 0 0 
Heartbeat_Variant_2 : 927 0.226318 per_variant_size: 0 486 285 108 48 0 0 0 0 
Heartbeat_Variant_3 : 709 0.173096 per_variant_size: 0 457 185 55 11 1 0 0 0 
Heartbeat_Variant_0_evicts 0 : 7251 1 : 1439 2 : 1135 3 : 950 
Heartbeat_Variant_1_evicts 0 : 1429 1 : 0 2 : 1063 3 : 973 
Heartbeat_Variant_2_evicts 0 : 1137 1 : 1034 2 : 0 3 : 670 
Heartbeat_Variant_3_evicts 0 : 945 1 : 962 2 : 687 3 : 0 
Heartbeat CPU 0 instructions: 100000000 cycles: 51577490 heartbeat IPC: 1.32189 cumulative IPC: 1.33008 (Simulation time: 0 hr 12 min 43 sec) 
Finished CPU 0 instructions: 50000000 cycles: 37591658 cumulative IPC: 1.33008 (Simulation time: 0 hr 12 min 43 sec) 

ChampSim completed all CPUs

Region of Interest Statistics

CPU 0 cumulative IPC: 1.33008 instructions: 50000000 cycles: 37591658
 Fetch stage stalled: 60.3724  Sim cycles: 37591658 fetch stall cycle: 22694998
 Empty decode stage: 45.9979  Sim cycles: 37591658 fetch stall cycle: 17291383
ITLB TOTAL     ACCESS:    5807127  HIT:    5313601  MISS:     493526  HIT %:    91.5014  MISS %:    8.49863   MPKI: 9.87052
ITLB LOAD TRANSLATION INSTRUCTION	ACCESS:    5688189  HIT:    5194663  MISS:     493526  HIT %:    91.3237  MISS %:    8.67633  MPKI: 9.87052
ITLB TRANSLATION FROM L1D PREFETCHER INSTRUCTION	ACCESS:     118938  HIT:     118938  MISS:          0  HIT %:        100  MISS %:          0  MPKI: 0

ITLB AVERAGE MISS LATENCY: 9.04673 cycles
ITLB RQ	ACCESS:    7891725	FORWARD:          0	MERGED:    1635196	TO_CACHE:    6256529

DTLB TOTAL     ACCESS:    9042099  HIT:    8572578  MISS:     469521  HIT %:    94.8074  MISS %:    5.19261   MPKI: 9.39042
DTLB LOAD TRANSLATION DATA	ACCESS:    9042099  HIT:    8572578  MISS:     469521  HIT %:    94.8074  MISS %:    5.19261  MPKI: 9.39042

DTLB AVERAGE MISS LATENCY: 9.33787 cycles
DTLB RQ	ACCESS:   13401276	FORWARD:          0	MERGED:    4322734	TO_CACHE:    9078542

STLB TOTAL     ACCESS:    1214623  HIT:    1212389  MISS:       2234  HIT %:    99.8161  MISS %:   0.183925   MPKI: 0.04468
STLB LOAD TRANSLATION INSTRUCTION	ACCESS:     493526  HIT:     493247  MISS:        279  HIT %:    99.9435  MISS %:   0.056532  MPKI: 0.00558
STLB LOAD TRANSLATION DATA	ACCESS:     469471  HIT:     467548  MISS:       1923  HIT %:    99.5904  MISS %:    0.40961  MPKI: 0.03846
STLB TRANSLATION FROM L1D PREFETCHER DATA	ACCESS:     251626  HIT:     251594  MISS:         32  HIT %:    99.9873  MISS %:  0.0127173  MPKI: 0.00064

STLB AVERAGE MISS LATENCY: 67.9575 cycles
STLB RQ	ACCESS:    1335281	FORWARD:          0	MERGED:     120616	TO_CACHE:    1214665

STLB Hit, L1D data hit: 0
STLB Hit, L2C data hit: 0
STLB Hit, LLC data hit: 0
STLB Hit, LLC data miss: 0
STLB STLB hints to L2: 0
L1D TOTAL     ACCESS:   13154142  HIT:   12033711  MISS:    1120431  HIT %:    91.4823  MISS %:     8.5177   MPKI: 22.4086
L1D LOAD DATA	ACCESS:    6611452  HIT:    5873618  MISS:     737834  HIT %:    88.8401  MISS %:    11.1599  MPKI: 14.7567
L1D RFO DATA	ACCESS:    6212585  HIT:    5925322  MISS:     287263  HIT %:    95.3761  MISS %:    4.62389  MPKI: 5.74526
L1D PREFETCH DATA	ACCESS:     330105  HIT:     234771  MISS:      95334  HIT %:    71.1201  MISS %:    28.8799  MPKI: 1.90668

L1D PREFETCH  REQUESTED:     744803  ISSUED:     744803  USEFUL:      35309  USELESS:      68415
L1D USEFUL LOAD PREFETCHES:      35309 PREFETCH ISSUED TO LOWER LEVEL:     103818  ACCURACY: 34.0105
 TIMELY PREFETCHES:      35309 LATE PREFETCHES: 8403 DROPPED PREFETCHES: 5
L1D AVERAGE MISS LATENCY: 248429 cycles
L1D RQ	ACCESS:   10731349	FORWARD:          0	MERGED:    3922972	TO_CACHE:    6644594
L1D WQ	ACCESS:    6949033	FORWARD:     164116	MERGED:     192351	TO_CACHE:    6756682
L1D PQ	ACCESS:     372568	FORWARD:          0	MERGED:          0	TO_CACHE:     372235

L1D UNIQUE REGIONS ACCESSED: 0
L1D REGIONS CONFLICTS: 0
L1D Cross Page Prefetch Requests: 6994
L1D Same Page Prefetch Requests: 753689
L1D ROI Sum of L1D PQ occupancy: 4733277
L1D PREFETCHES PUSHED FROM L2C: 0
L1I TOTAL     ACCESS:    7114290  HIT:    4353652  MISS:    2760638  HIT %:    61.1959  MISS %:    38.8041   MPKI: 55.2128
L1I LOAD INSTRUCTION	ACCESS:    6488144  HIT:    3727506  MISS:    2760638  HIT %:     57.451  MISS %:     42.549  MPKI: 55.2128
L1I PREFETCH INSTRUCTION	ACCESS:     626146  HIT:     626146  MISS:          0  HIT %:        100  MISS %:          0  MPKI: 0

L1I PREFETCH  REQUESTED:    1499285  ISSUED:    1499285  USEFUL:          0  USELESS:          0
L1I USEFUL LOAD PREFETCHES:          0 PREFETCH ISSUED TO LOWER LEVEL:          0  ACCURACY: -nan
 TIMELY PREFETCHES:          0 LATE PREFETCHES: 0 DROPPED PREFETCHES: 0
L1I AVERAGE MISS LATENCY: 17.3235 cycles
L1I RQ	ACCESS:    9476125	FORWARD:          0	MERGED:    2672941	TO_CACHE:    6803184
L1I PQ	ACCESS:    1499285	FORWARD:          0	MERGED:     410744	TO_CACHE:    1088541

L1BTB TOTAL     ACCESS:    5669595  HIT:    2043203  MISS:    3626392  HIT %:    36.0379  MISS %:    63.9621   MPKI: 72.5278
L1BTB BRANCH_DIRECT_JUMP	ACCESS:     548425 HIT:     144758 MISS:     403667 AVERAGE STALL: 44.2135 AVERAGE FETCH STALL: 18.4229 AVERAGE FETCH QUEUE STALL: 12.9439 AVERAGE DECODE STALL: 11.9649 AVERAGE EXECUTE STALL: 1.15206e+15
L1BTB BRANCH_INDIRECT	ACCESS:     182824 HIT:      65935 MISS:     116889 AVERAGE STALL: 98.3002 AVERAGE FETCH STALL: 12.0701 AVERAGE FETCH QUEUE STALL: 12.358 AVERAGE DECODE STALL: 10.048 AVERAGE EXECUTE STALL: 62.8696
L1BTB BRANCH_CONDITIONAL	ACCESS:    2707975 HIT:    1415616 MISS:    1292359 AVERAGE STALL: 49.2677 AVERAGE FETCH STALL: 22.1788 AVERAGE FETCH QUEUE STALL: 14.0425 AVERAGE DECODE STALL: 12.3058 AVERAGE EXECUTE STALL: 6.5992e+14
L1BTB BRANCH_DIRECT_CALL	ACCESS:     943615 HIT:     105625 MISS:     837990 AVERAGE STALL: 51.1725 AVERAGE FETCH STALL: 23.3827 AVERAGE FETCH QUEUE STALL: 14.5222 AVERAGE DECODE STALL: 12.5103 AVERAGE EXECUTE STALL: 6.93852e+14
L1BTB BRANCH_INDIRECT_CALL	ACCESS:     171575 HIT:      21269 MISS:     150306 AVERAGE STALL: 130.788 AVERAGE FETCH STALL: 14.3756 AVERAGE FETCH QUEUE STALL: 10.211 AVERAGE DECODE STALL: 9.29458 AVERAGE EXECUTE STALL: 96.3973
L1BTB BRANCH_RETURN	ACCESS:    1115181 HIT:     290000 MISS:     825181 AVERAGE STALL: 45.0945 AVERAGE FETCH STALL: 17.9591 AVERAGE FETCH QUEUE STALL: 6.56226 AVERAGE DECODE STALL: 6.9856 AVERAGE EXECUTE STALL: 3.38286e+14
L1BTB BRANCH_OTHER ACCESS:          0 HIT:          0 MISS:          0 AVERAGE STALL: -nan AVERAGE FETCH STALL: -nan AVERAGE FETCH QUEUE STALL: -nan AVERAGE DECODE STALL: -nan AVERAGE EXECUTE STALL: -nan
L1BTB TOTAL ROB OCCUPANCY AT BTB MISS: 5.85634

L2BTB TOTAL     ACCESS:    3601004  HIT:    3463447  MISS:     137557  HIT %:      96.18  MISS %:    3.81996   MPKI: 2.75114
L2BTB BRANCH_DIRECT_JUMP	ACCESS:     399506 HIT:     387653 MISS:      11853 AVERAGE STALL: 44.2135 AVERAGE FETCH STALL: 18.4229 AVERAGE FETCH QUEUE STALL: 12.9439 AVERAGE DECODE STALL: 11.9649 AVERAGE EXECUTE STALL: 1.15206e+15
L2BTB BRANCH_INDIRECT	ACCESS:     106596 HIT:     102930 MISS:       3666 AVERAGE STALL: 98.3002 AVERAGE FETCH STALL: 12.0701 AVERAGE FETCH QUEUE STALL: 12.358 AVERAGE DECODE STALL: 10.048 AVERAGE EXECUTE STALL: 62.8696
L2BTB BRANCH_CONDITIONAL	ACCESS:    1292359 HIT:    1264114 MISS:      28245 AVERAGE STALL: 49.2677 AVERAGE FETCH STALL: 22.1788 AVERAGE FETCH QUEUE STALL: 14.0425 AVERAGE DECODE STALL: 12.3058 AVERAGE EXECUTE STALL: 6.5992e+14
L2BTB BRANCH_DIRECT_CALL	ACCESS:     837990 HIT:     811362 MISS:      26628 AVERAGE STALL: 51.1725 AVERAGE FETCH STALL: 23.3827 AVERAGE FETCH QUEUE STALL: 14.5222 AVERAGE DECODE STALL: 12.5103 AVERAGE EXECUTE STALL: 6.93852e+14
L2BTB BRANCH_INDIRECT_CALL	ACCESS:     140775 HIT:     126768 MISS:      14007 AVERAGE STALL: 130.788 AVERAGE FETCH STALL: 14.3756 AVERAGE FETCH QUEUE STALL: 10.211 AVERAGE DECODE STALL: 9.29458 AVERAGE EXECUTE STALL: 96.3973
L2BTB BRANCH_RETURN	ACCESS:     823778 HIT:     770620 MISS:      53158 AVERAGE STALL: 45.0945 AVERAGE FETCH STALL: 17.9591 AVERAGE FETCH QUEUE STALL: 6.56226 AVERAGE DECODE STALL: 6.9856 AVERAGE EXECUTE STALL: 3.38286e+14
L2BTB BRANCH_OTHER ACCESS:          0 HIT:          0 MISS:          0 AVERAGE STALL: -nan AVERAGE FETCH STALL: -nan AVERAGE FETCH QUEUE STALL: -nan AVERAGE DECODE STALL: -nan AVERAGE EXECUTE STALL: -nan
L2BTB TOTAL ROB OCCUPANCY AT BTB MISS: 154.39

L2C TOTAL     ACCESS:    4495212  HIT:    3991093  MISS:     504119  HIT %:    88.7854  MISS %:    11.2146   MPKI: 10.0824
L2C LOAD INSTRUCTION	ACCESS:    2760638  HIT:    2490640  MISS:     269998  HIT %:    90.2197  MISS %:    9.78028  MPKI: 5.39996
L2C LOAD TRANSLATION INSTRUCTION	ACCESS:        317  HIT:         92  MISS:        225  HIT %:    29.0221  MISS %:    70.9779  MPKI: 0.0045
L2C LOAD DATA	ACCESS:     729405  HIT:     646118  MISS:      83287  HIT %:    88.5815  MISS %:    11.4185  MPKI: 1.66574
L2C RFO DATA	ACCESS:     287137  HIT:     231747  MISS:      55390  HIT %:    80.7096  MISS %:    19.2904  MPKI: 1.1078
L2C PREFETCH DATA	ACCESS:     192071  HIT:     114787  MISS:      77284  HIT %:    59.7628  MISS %:    40.2372  MPKI: 1.54568
L2C WRITEBACK DATA	ACCESS:     523610  HIT:     507144  MISS:      16466  HIT %:    96.8553  MISS %:    3.14471  MPKI: 0.32932
L2C LOAD TRANSLATION DATA	ACCESS:       1977  HIT:        527  MISS:       1450  HIT %:    26.6566  MISS %:    73.3434  MPKI: 0.029
L2C TRANSLATION FROM L1D PREFETCHER DATA	ACCESS:         57  HIT:         38  MISS:         19  HIT %:    66.6667  MISS %:    33.3333  MPKI: 0.00038

L2C PREFETCH  REQUESTED:      96291  ISSUED:      96291  USEFUL:       9738  USELESS:      68189
L2C USEFUL LOAD PREFETCHES:       9738 PREFETCH ISSUED TO LOWER LEVEL:      77734  ACCURACY: 12.5273
 TIMELY PREFETCHES:       9738 LATE PREFETCHES: 450 DROPPED PREFETCHES: 0
L2C AVERAGE MISS LATENCY: 38.4816 cycles
L2C RQ	ACCESS:    3779603	FORWARD:          0	MERGED:          0	TO_CACHE:    3779532
L2C WQ	ACCESS:     523612	FORWARD:         71	MERGED:          0	TO_CACHE:     523612
L2C PQ	ACCESS:     200109	FORWARD:          0	MERGED:       3387	TO_CACHE:     196722

L2C Dense regions hint from L2: 0
PSCL5 TOTAL     ACCESS:       4480  HIT:       2240  MISS:       2240  HIT %:         50  MISS %:         50   MPKI: 0.0448
PSCL5 LOAD TRANSLATION INSTRUCTION	ACCESS:       4366  HIT:       2183  MISS:       2183  HIT %:         50  MISS %:         50  MPKI: 0.04366
PSCL5 TRANSLATION FROM L1D PREFETCHER INSTRUCTION	ACCESS:        114  HIT:         57  MISS:         57  HIT %:         50  MISS %:         50  MPKI: 0.00114


PSCL4 TOTAL     ACCESS:       4387  HIT:       2192  MISS:       2195  HIT %:    49.9658  MISS %:    50.0342   MPKI: 0.0439
PSCL4 LOAD TRANSLATION INSTRUCTION	ACCESS:       4037  HIT:       2135  MISS:       1902  HIT %:    52.8858  MISS %:    47.1142  MPKI: 0.03804
PSCL4 TRANSLATION FROM L1D PREFETCHER INSTRUCTION	ACCESS:        114  HIT:         57  MISS:         57  HIT %:         50  MISS %:         50  MPKI: 0.00114
PSCL4 LOAD TRANSLATION DATA	ACCESS:        236  HIT:          0  MISS:        236  HIT %:          0  MISS %:        100  MPKI: 0.00472


PSCL3 TOTAL     ACCESS:       4403  HIT:       2200  MISS:       2203  HIT %:    49.9659  MISS %:    50.0341   MPKI: 0.04406
PSCL3 LOAD TRANSLATION INSTRUCTION	ACCESS:       4045  HIT:       2143  MISS:       1902  HIT %:     52.979  MISS %:     47.021  MPKI: 0.03804
PSCL3 TRANSLATION FROM L1D PREFETCHER INSTRUCTION	ACCESS:        114  HIT:         57  MISS:         57  HIT %:         50  MISS %:         50  MPKI: 0.00114
PSCL3 LOAD TRANSLATION DATA	ACCESS:        244  HIT:          0  MISS:        244  HIT %:          0  MISS %:        100  MPKI: 0.00488


PSCL2 TOTAL     ACCESS:       4373  HIT:       2133  MISS:       2240  HIT %:    48.7766  MISS %:    51.2234   MPKI: 0.0448
PSCL2 LOAD TRANSLATION INSTRUCTION	ACCESS:       2355  HIT:       2076  MISS:        279  HIT %:    88.1529  MISS %:    11.8471  MPKI: 0.00558
PSCL2 TRANSLATION FROM L1D PREFETCHER INSTRUCTION	ACCESS:         57  HIT:         57  MISS:          0  HIT %:        100  MISS %:          0  MPKI: 0
PSCL2 LOAD TRANSLATION DATA	ACCESS:       1904  HIT:          0  MISS:       1904  HIT %:          0  MISS %:        100  MPKI: 0.03808
PSCL2 TRANSLATION FROM L1D PREFETCHER DATA	ACCESS:         57  HIT:          0  MISS:         57  HIT %:          0  MISS %:        100  MPKI: 0.00114


LLC TOTAL     ACCESS:     568289  HIT:     538230  MISS:      30059  HIT %:    94.7106  MISS %:    5.28939   MPKI: 0.60118
LLC LOAD INSTRUCTION	ACCESS:     269998  HIT:     269056  MISS:        942  HIT %:    99.6511  MISS %:   0.348891  MPKI: 0.01884
LLC LOAD TRANSLATION INSTRUCTION	ACCESS:        225  HIT:        197  MISS:         28  HIT %:    87.5556  MISS %:    12.4444  MPKI: 0.00056
LLC LOAD DATA	ACCESS:      82852  HIT:      79383  MISS:       3469  HIT %:     95.813  MISS %:    4.18698  MPKI: 0.06938
LLC RFO DATA	ACCESS:      55372  HIT:      40037  MISS:      15335  HIT %:    72.3055  MISS %:    27.6945  MPKI: 0.3067
LLC PREFETCH DATA	ACCESS:      77734  HIT:      67890  MISS:       9844  HIT %:    87.3363  MISS %:    12.6637  MPKI: 0.19688
LLC WRITEBACK DATA	ACCESS:      80639  HIT:      80272  MISS:        367  HIT %:    99.5449  MISS %:   0.455115  MPKI: 0.00734
LLC LOAD TRANSLATION DATA	ACCESS:       1450  HIT:       1377  MISS:         73  HIT %:    94.9655  MISS %:    5.03448  MPKI: 0.00146
LLC TRANSLATION FROM L1D PREFETCHER DATA	ACCESS:         19  HIT:         18  MISS:          1  HIT %:    94.7368  MISS %:    5.26316  MPKI: 2e-05

LLC AVERAGE MISS LATENCY: 157.053 cycles
LLC RQ	ACCESS:     409920	FORWARD:          0	MERGED:          0	TO_CACHE:     409917
LLC WQ	ACCESS:      80639	FORWARD:          3	MERGED:          0	TO_CACHE:      80639
LLC PQ	ACCESS:      77734	FORWARD:          0	MERGED:          0	TO_CACHE:      77734

LLC Dense regions hint to LLC: 0

RAW hits: 1909744
Loads Generated: 12641091
Loads sent to L1D: 10731349
Stores Generated: 6949028
Stores sent to L1D: 6949033
Major fault: 0 Minor fault: 2568
Allocated PAGES: 2568

stream: 
stream:times selected: 1192125
stream:pref_filled: 121187
stream:pref_useful: 24085
stream:pref_late: 6887
stream:misses: 8026
stream:misses_by_poll: 0

CS: 
CS:times selected: 181017
CS:pref_filled: 59364
CS:pref_useful: 35919
CS:pref_late: 7533
CS:misses: 17161
CS:misses_by_poll: 14

CPLX: 
CPLX:times selected: 1010027
CPLX:pref_filled: 19716
CPLX:pref_useful: 4438
CPLX:pref_late: 3365
CPLX:misses: 93729
CPLX:misses_by_poll: 0

NL_L1: 
NL:times selected: 21144
NL:pref_filled: 742
NL:pref_useful: 318
NL:pref_late: 302
NL:misses: 1735
NL:misses_by_poll: 0

total selections: 2404313
total_filled: 95334
total_useful: 35309
total_late: 19423
total_polluted: 14
total_misses_after_warmup: 770981
conflicts: 5542175

test: 116481

DRAM Statistics
 CHANNEL 0
 RQ ROW_BUFFER_HIT:      11241  ROW_BUFFER_MISS:      18424
 DBUS_CONGESTED:         18
 WQ ROW_BUFFER_HIT:       1439  ROW_BUFFER_MISS:      12840  FULL:          0

 AVG_CONGESTED_CYCLE: 4

CPU 0 Branch Prediction Accuracy: 99.8222% MPKI: 0.32516 Average ROB Occupancy at Mispredict: 172.693
Branch types
NOT_BRANCH: 40857025 81.7141%
BRANCH_DIRECT_JUMP: 548425 1.09685%
BRANCH_INDIRECT: 182824 0.365648%
BRANCH_CONDITIONAL: 6181023 12.362%
BRANCH_DIRECT_CALL: 943615 1.88723%
BRANCH_INDIRECT_CALL: 171575 0.34315%
BRANCH_RETURN: 1115181 2.23036%
BRANCH_OTHER: 0 0%

DRAM PAGES: 1048576
Allocated PAGES: 2568
Average_ROB_Occupancy: 201.639
Average_Decode_Occupancy: 26.3762
Average_FTQ_Occupancy: 10.6008
Indirect max targets: 14 Average targets: 1.15282
Branch_type:  BRANCH_DIRECT_JUMP:  Count Percentage: 3.25721 6.21464 4.50661 13.9264 1.69619 2.49452 1.24986 66.6546 
Branch_type:  BRANCH_INDIRECT:  Count Percentage: 11.7539 3.42107 12.2507 23.3881 1.33582 14.5613 1.06598 32.2232 
Branch_type:  BRANCH_CONDITIONAL:  Count Percentage: 21.0749 3.32416 2.44458 8.18149 1.15793 2.83632 0.839678 60.1409 
Branch_type:  BRANCH_DIRECT_CALL:  Count Percentage: 0.260449 1.26526 1.45232 4.73457 2.17036 1.91644 0.934073 87.2665 
Branch_type:  BRANCH_INDIRECT_CALL:  Count Percentage: 9.55199 0.575769 2.99237 4.85391 0.000583649 3.62241 0 78.403 
Branch_type:  BRANCH_RETURN:  Count Percentage: 3.95452 0.574127 3.55249 8.63381 2.27191 4.65604 1.23188 75.1252 
Branch_type:  BRANCH_DIRECT_JUMP:  Total Count: 35737 68185 49445 152796 18610 27369 13713 731312 
Branch_type:  BRANCH_INDIRECT:  Total Count: 43036 12526 44855 85634 4891 53315 3903 117983 
Branch_type:  BRANCH_CONDITIONAL:  Total Count: 2605159 410913 302185 1011347 143136 350609 103796 7434260 
Branch_type:  BRANCH_DIRECT_CALL:  Total Count: 4908 23843 27368 89220 40899 36114 17602 1644482 
Branch_type:  BRANCH_INDIRECT_CALL:  Total Count: 32732 1973 10254 16633 2 12413 0 268665 
Branch_type:  BRANCH_RETURN:  Total Count: 88103 12791 79146 192353 50616 103732 27445 1673718 
Number of unique branch instructions: 9961
Upper 32 bits: 
aaaa
ffff
ffff0000
Unique upper 32 bits: 3
Unique upper 36 bits: 3
Unique upper 40 bits: 5
Unique upper 44 bits: 32
Unique upper 48 bits: 156
Variant_0 : 1274 0.311035
Variant_1 : 1176 0.287109
Variant_2 : 927 0.226318
Variant_3 : 709 0.173096
Offset_3 4109
Offset_4 259
Offset_5 457
Offset_6 503
Offset_7 584
Offset_8 511
Offset_9 475
Offset_10 385
Offset_11 311
Offset_12 274
Offset_13 202
Offset_14 224
Offset_15 188
Offset_16 218
Offset_17 150
Offset_18 118
Offset_19 235
Offset_20 139
Offset_21 265
Offset_22 390
Offset_23 241
Offset_24 340
Offset_25 88
Offset_47 84
Offset_64 1
decode_dispatch_called: 23146576 61.5737
Dispatch_width: 0 12279443 53.0508 32.6653
Dispatch_width: 1 739137 3.19329 1.96623
Dispatch_width: 2 695471 3.00464 1.85007
Dispatch_width: 3 441970 1.90944 1.17571
Dispatch_width: 4 3590347 15.5114 9.55091
Dispatch_width: 5 218773 0.945164 0.581972
Dispatch_width: 6 5181435 22.3853 13.7835
Empty_decode_cycles: 14445082 38.4263
ROB_full_cycles: 5815462 15.4701
Starvation_cycles_per_kilo_instr: 265.948
Starvation_cycles_per_kilo_instr_3: 227.856
Starvation_cycles_per_kilo_instr_0: 209.091
Branch_type_1  (3,1)  (4,8)  (5,38)  (6,69)  (7,116)  (8,130)  (9,128)  (10,100)  (11,69)  (12,43)  (13,8)  (14,2)  (15,3)  (16,4)  (18,1)  (19,4)  (20,2)  (21,1)  (22,3)  (23,2)  (24,10)  (25,12) 
Branch_type_2  (3,1)  (5,1)  (8,3)  (9,3)  (12,1)  (13,1)  (14,1)  (16,3)  (17,2)  (20,2)  (21,2)  (23,5)  (24,1)  (47,38) 
Branch_type_3  (3,4107)  (4,251)  (5,414)  (6,419)  (7,437)  (8,320)  (9,261)  (10,155)  (11,125)  (12,50)  (13,7)  (64,1) 
Branch_type_4  (6,3)  (7,8)  (8,24)  (9,52)  (10,60)  (11,60)  (12,97)  (13,85)  (14,99)  (15,89)  (16,97)  (17,68)  (18,53)  (19,114)  (20,71)  (21,144)  (22,206)  (23,136)  (24,191)  (25,72) 
Branch_type_5  (8,2)  (9,1)  (10,4)  (11,5)  (12,3)  (13,14)  (14,16)  (15,11)  (16,20)  (17,11)  (18,16)  (19,13)  (20,12)  (21,13)  (22,42)  (23,26)  (24,40) 
Branch_type_6  (5,4)  (6,12)  (7,23)  (8,32)  (9,30)  (10,66)  (11,52)  (12,80)  (13,87)  (14,106)  (15,85)  (16,94)  (17,69)  (18,48)  (19,104)  (20,52)  (21,105)  (22,139)  (23,72)  (24,98)  (25,4)  (47,46) 
Unique trigger count: 
Variant_0_evicts_0 : 0
Variant_0_evicts_1 : 0
Variant_0_evicts_2 : 0
Variant_0_evicts_3 : 0
Variant_1_evicts_0 : 0
Variant_1_evicts_1 : 0
Variant_1_evicts_2 : 0
Variant_1_evicts_3 : 0
Variant_2_evicts_0 : 0
Variant_2_evicts_1 : 0
Variant_2_evicts_2 : 0
Variant_2_evicts_3 : 0
Variant_3_evicts_0 : 0
Variant_3_evicts_1 : 0
Variant_3_evicts_2 : 0
Variant_3_evicts_3 : 0
BTB PER SET UNIQUE ADDR: 23 26 19 26 23 25 15 23 12 26 20 26 25 18 20 15 19 22 21 24 23 19 23 24 16 24 23 25 24 20 22 23 27 15 17 21 22 26 15 19 17 21 24 26 20 13 23 17 23 21 27 20 21 27 20 10 19 17 17 25 21 27 23 22 24 25 23 16 30 25 23 21 28 17 18 13 14 25 19 30 25 16 20 28 23 20 24 22 17 38 19 12 24 21 13 26 17 19 26 28 33 29 22 20 21 17 20 25 13 17 20 31 25 18 19 13 25 26 22 22 22 17 17 14 22 21 11 23 32 18 19 27 22 28 19 28 15 25 21 31 20 27 22 23 23 23 25 19 15 22 24 24 16 21 16 30 25 26 27 23 26 23 28 26 21 24 25 17 26 18 20 24 24 21 24 21 22 21 20 26 16 20 19 26 30 29 15 25 26 19 22 16 15 29 23 16 16 23 20 24 27 27 18 17 16 22 22 23 18 24 20 27 20 20 22 22 21 24 16 36 13 25 16 21 18 23 28 23 15 28 21 11 23 25 20 27 27 19 20 13 21 22 30 25 21 20 21 19 24 22 28 25 26 18 27 27 18 16 17 21 24 18 8 22 20 14 19 17 17 21 20 19 17 14 16 17 21 29 21 22 15 23 17 17 23 17 17 30 31 27 23 17 24 22 16 29 24 25 24 23 20 20 20 33 22 27 27 19 31 24 22 29 21 32 21 13 27 22 22 28 20 27 16 21 26 26 22 17 21 16 21 29 19 19 21 24 17 21 16 37 23 23 16 26 26 25 17 23 21 21 25 22 26 22 23 25 23 26 19 17 15 27 17 29 22 25 12 23 23 24 23 16 22 22 16 31 23 25 22 23 23 21 17 15 17 21 28 27 24 23 30 13 25 29 17 15 20 18 29 21 20 25 19 20 27 23 23 24 20 24 24 16 16 26 21 21 20 30 37 32 20 26 24 25 29 18 25 20 25 20 29 21 19 21 28 25 27 20 21 26 25 20 18 29 33 18 15 23 27 24 26 33 25 17 26 32 26 27 18 29 17 21 20 24 34 20 21 22 26 25 24 24 27 22 23 34 27 33 16 25 32 27 20 26 16 25 31 28 29 23 18 25 19 18 16 19 26 27 21 25 21 28 19 31 20 17 18 28 28 25 22 31 25 20 20 24 18 31 18 18 16 21 25 14 22 34 33 15 15 32 27 22 23 25 26 30 18 25 24 22 28 19 25 24 26 28 16 25 18 23 22 29 22 24 18 22 20 24 32 24 18 32 23 22 21 30 20 27 22 29 27 25 28 34 23 26 27 29 24 21 22 25 14 24 25 25 19 22 33 26 19 22 20 16 26 17 15 21 24 18 23 20 20 14 24 24 30 21 19 22 32 25 21 17 10 29 13 27 19 25 28 24 17 18 20 28 20 28 17 25 20 29 30 22 22 19 24 30 20 24 22 24 25 32 25 27 19 24 33 18 14 23 19 17 29 23 22 23 25 21 23 13 27 31 21 25 15 21 17 19 22 20 19 28 32 21 22 24 28 29 21 29 17 26 26 21 21 20 25 25 23 25 20 13 14 20 17 25 18 25 14 24 23 33 12 25 20 18 16 13 20 23 16 22 17 18 31 26 19 26 24 22 19 20 21 22 24 23 17 18 24 20 21 18 24 27 25 29 35 19 18 20 21 24 31 29 20 21 21 19 24 18 24 22 15 22 31 22 18 16 23 12 13 23 23 27 15 22 19 24 22 28 19 15 23 18 28 20 22 26 13 25 21 21 23 20 18 26 19 13 16 14 24 26 18 31 20 18 27 22 33 23 30 29 32 19 20 22 23 20 22 32 29 29 18 24 36 30 12 28 23 27 18 25 27 22 18 25 23 26 21 27 26 22 18 27 23 22 24 23 25 21 22 22 23 25 21 36 20 27 21 20 18 20 30 31 28 27 26 26 25 24 18 22 31 16 21 15 30 18 18 27 28 19 21 12 21 23 18 23 28 14 20 27 25 22 28 20 20 21 24 17 22 20 20 26 29 22 18 18 22 19 21 23 13 25 21 26 20 28 19 22 23 25 24 24 35 21 22 25 23 25 19 25 18 17 13 30 18 16 27 30 26 19 22 29 20 23 23 26 16 29 24 19 22 23 21 30 21 26 22 23 17 24 19 25 25 22 23 23 22 23 21 29 29 19 28 24 14 26 23 25 26 22 26 17 31 32 30 32 17 27 24 23 22 31 36 19 26 21 28 25 25 21 24 20 18 23 28 22 29 28 18 20 28 26 18 30 18 24 25 25 22 19 19 20 14 19 10 14 19 27 22 15 
BTB PER SET COUNT: 784 186 1823 171 331 153 1069 202 1536 194 136 811 15876 1423 127 86 1205 1009 322 157 122 220 322 234 109 182 155 196 415 226 533 193 231 75 95 652 169 417 67 1377 85 98 208 611 218 118 466 117 362 227 198 99 161 178 177 399 146 107 309 173 145 191 177 153 202 179 149 447 217 170 192 225 215 122 81 76 67 663 137 210 634 67 196 299 168 353 131 172 104 345 170 591 372 189 70 208 449 97 213 3534 277 442 158 158 2255 129 140 218 713 2214 115 249 420 151 167 510 195 225 1024 332 476 101 135 110 99 285 63 395 316 157 150 567 146 208 195 200 1059 202 150 216 116 451 132 151 156 198 501 445 109 303 161 279 916 151 100 276 432 217 281 528 135 234 485 169 1472 345 194 114 181 723 137 175 178 179 159 602 152 151 304 494 159 334 899 187 383 432 96 167 513 1032 199 105 121 225 135 150 107 337 132 161 269 175 1090 100 94 142 174 294 1074 746 125 181 110 7626 123 410 135 188 852 338 74 209 247 163 113 161 229 245 295 195 136 36 145 222 814 2591 207 167 594 68 237 130 240 461 160 635 149 165 209 164 211 148 198 116 176 403 113 158 89 159 257 105 26 332 150 75 142 114 1004 150 135 373 240 70 361 73 127 212 164 545 54 178 747 283 131 119 101 543 205 202 156 96 159 623 68 219 411 181 137 387 129 90 209 298 109 292 205 213 316 721 486 243 104 267 1114 359 245 201 155 231 126 1885 86 162 490 269 266 103 116 87 138 299 113 109 116 155 87 620 70 425 159 657 72 371 185 150 120 177 138 198 314 154 202 170 107 204 177 248 175 158 96 238 141 257 101 1106 46 169 147 135 175 111 205 267 147 323 135 162 366 784 338 114 555 90 82 101 984 211 274 1108 314 51 169 427 105 105 115 144 571 959 130 158 123 159 263 187 156 393 153 225 276 71 109 393 137 134 151 1646 413 192 123 170 164 135 179 106 773 120 176 646 235 161 121 125 417 219 188 290 114 192 271 100 147 198 730 81 394 199 230 167 456 1212 178 92 264 555 235 206 89 260 152 119 156 200 272 296 6649 134 176 183 204 159 161 154 137 238 181 355 74 219 273 332 142 189 508 402 236 195 243 224 528 228 1379 102 83 165 498 316 199 158 160 268 123 370 145 111 107 268 196 167 236 520 771 502 164 172 115 240 105 104 85 153 189 138 159 314 732 461 108 458 291 228 252 144 232 296 897 418 144 467 273 147 186 154 206 332 76 147 105 808 123 261 689 189 118 159 127 165 202 195 132 243 133 182 503 212 168 166 162 620 376 185 194 276 809 216 249 212 156 136 160 258 97 987 187 243 378 169 330 198 240 175 321 96 188 89 1487 442 162 99 123 176 174 75 227 128 252 1583 84 120 241 770 457 84 41 239 85 176 418 483 226 144 80 481 170 195 98 512 1465 448 98 364 370 218 166 399 170 483 127 322 179 171 238 307 336 181 466 183 472 82 59 264 105 135 520 360 133 109 403 526 214 64 228 245 1182 199 79 1095 1235 145 162 155 779 172 688 346 166 196 188 208 172 262 218 240 612 151 165 192 314 190 129 174 167 63 1870 126 251 667 142 160 849 236 550 226 64 199 140 116 63 87 198 526 585 122 440 160 652 447 132 360 303 660 115 414 377 115 159 175 654 343 328 674 211 108 130 180 362 234 333 121 266 99 354 227 354 212 738 112 124 188 1619 103 223 275 89 154 283 790 104 92 211 84 53 275 1125 314 77 242 103 173 167 273 529 71 157 95 195 259 125 287 773 212 847 126 162 298 82 191 128 110 104 791 189 204 452 300 164 115 172 298 292 206 227 381 401 144 131 138 177 167 128 2869 241 251 282 1134 528 298 58 829 168 324 85 229 621 106 123 179 240 529 172 204 220 184 285 465 181 284 229 331 194 242 206 165 766 233 152 227 172 517 522 357 106 117 695 273 314 210 227 187 780 230 219 140 525 99 171 84 200 150 183 218 186 81 171 60 138 153 603 169 204 60 243 215 280 380 201 155 116 186 198 272 466 1349 124 178 316 163 150 126 221 115 145 532 84 234 147 218 150 504 136 199 150 232 234 457 763 948 176 162 160 504 128 543 71 231 67 203 117 105 226 216 607 137 137 850 143 170 585 234 99 535 184 122 131 437 177 210 145 180 245 1308 879 2787 156 211 223 195 152 559 136 198 430 190 221 124 762 186 85 187 220 352 178 195 427 157 523 177 258 314 283 199 438 303 142 901 530 453 183 145 200 600 182 373 555 156 116 1615 196 353 296 529 117 171 177 198 120 274 120 148 446 368 148 119 150 134 125 345 29 96 253 656 187 99 
To predecode: 0
Predecoding something: 0
Predecode request dropped: 0
sizeofblock_0 0
sizeofblock_1 139552
sizeofblock_2 71189
sizeofblock_3 18142
sizeofblock_4 3446
sizeofblock_5 191
sizeofblock_6 0
sizeofblock_7 0
sizeofblock_8 0
Variant_0 Correct: 1567040 Incorrect: 0 Accuracy: 1
Variant_1 Correct: 2044266 Incorrect: 0 Accuracy: 1
Variant_2 Correct: 1887190 Incorrect: 0 Accuracy: 1
Variant_3 Correct: 1694741 Incorrect: 7263 Accuracy: 0.995733
