
*** ChampSim Multicore Out-of-Order Simulator ***

Warmup Instructions: 50000000
Simulation Instructions: 50000000
Number of CPUs: 1
LLC sets: 2048
LLC ways: 16
Off-chip DRAM Size: 4096 MB Channels: 1 Width: 64-bit Data Rate: 6400 MT/s
CPU 0 runs ./micro_traces/srv74.trace.gz
.gz
ITLB has LRU replacement policy
DTLB has LRU replacement policy
STLB has LRU replacement policy
FDIP Prefetcher at L1I
L1I has LRU replacement policy
L1D has LRU replacement policy
Initialize SRRIP state for L2C
Initialize DRRIP state for LLC
Heartbeat CPU 0 instructions: 10000003 cycles: 2796809 heartbeat IPC: 3.5755 cumulative IPC: 3.5755 (Simulation time: 0 hr 2 min 9 sec) 
Heartbeat CPU 0 instructions: 20000001 cycles: 5594139 heartbeat IPC: 3.57484 cumulative IPC: 3.57517 (Simulation time: 0 hr 4 min 2 sec) 
Heartbeat CPU 0 instructions: 30000002 cycles: 8391119 heartbeat IPC: 3.57529 cumulative IPC: 3.57521 (Simulation time: 0 hr 6 min 1 sec) 
Heartbeat CPU 0 instructions: 40000002 cycles: 11187034 heartbeat IPC: 3.57665 cumulative IPC: 3.57557 (Simulation time: 0 hr 7 min 55 sec) 
Heartbeat CPU 0 instructions: 50000002 cycles: 13982433 heartbeat IPC: 3.57731 cumulative IPC: 3.57592 (Simulation time: 0 hr 9 min 45 sec) 

Warmup complete CPU 0 instructions: 50000002 cycles: 13982433 (Simulation time: 0 hr 9 min 45 sec) 

Cycle: 20000000 FTQ IN: 54555370 FTQ occupancy: 17.1162 DECODE IN: 54555359 DECODE occupancy: 43.9421 ROB IN: 54555359 ROB occupancy: 260.791 ROB OUT: 54555359
Heartbeat CPU 0 instructions: 60000002 cycles: 27165434 heartbeat IPC: 0.758553 cumulative IPC: 0.758553 (Simulation time: 0 hr 11 min 24 sec) 
Cycle: 30000000 FTQ IN: 7571228 FTQ occupancy: 3.53353 DECODE IN: 7571224 DECODE occupancy: 6.71879 ROB IN: 7571224 ROB occupancy: 56.6691 ROB OUT: 7571224
Cycle: 40000000 FTQ IN: 7457792 FTQ occupancy: 3.64527 DECODE IN: 7457772 DECODE occupancy: 6.93312 ROB IN: 7457772 ROB occupancy: 57.8701 ROB OUT: 7457743
Heartbeat CPU 0 instructions: 70000001 cycles: 40547637 heartbeat IPC: 0.747261 cumulative IPC: 0.752864 (Simulation time: 0 hr 13 min 1 sec) 
Cycle: 50000000 FTQ IN: 7592684 FTQ occupancy: 3.51263 DECODE IN: 7592646 DECODE occupancy: 6.67596 ROB IN: 7592628 ROB occupancy: 57.0877 ROB OUT: 7592636
Heartbeat CPU 0 instructions: 80000000 cycles: 53724981 heartbeat IPC: 0.758878 cumulative IPC: 0.754858 (Simulation time: 0 hr 14 min 35 sec) 
Cycle: 60000000 FTQ IN: 7597431 FTQ occupancy: 3.5204 DECODE IN: 7597489 DECODE occupancy: 6.67281 ROB IN: 7597507 ROB occupancy: 56.5422 ROB OUT: 7597510
Heartbeat CPU 0 instructions: 90000000 cycles: 67093814 heartbeat IPC: 0.748008 cumulative IPC: 0.753134 (Simulation time: 0 hr 16 min 13 sec) 
Cycle: 70000000 FTQ IN: 7424255 FTQ occupancy: 3.69018 DECODE IN: 7424270 DECODE occupancy: 7.10203 ROB IN: 7424224 ROB occupancy: 58.9895 ROB OUT: 7424088
Cycle: 80000000 FTQ IN: 7610939 FTQ occupancy: 3.49948 DECODE IN: 7610926 DECODE occupancy: 6.57538 ROB IN: 7610972 ROB occupancy: 56.1563 ROB OUT: 7611124
Heartbeat CPU 0 instructions: 100000003 cycles: 80246545 heartbeat IPC: 0.760299 cumulative IPC: 0.754556 (Simulation time: 0 hr 17 min 45 sec) 
Finished CPU 0 instructions: 50000001 cycles: 66264112 cumulative IPC: 0.754556 (Simulation time: 0 hr 17 min 45 sec) 

ChampSim completed all CPUs

Region of Interest Statistics

CPU 0 cumulative IPC: 0.754556 instructions: 50000001 cycles: 66264112
 Fetch stage stalled: 81.7684  Sim cycles: 66264112 fetch stall cycle: 54183088
 Empty decode stage: 69.3661  Sim cycles: 66264112 fetch stall cycle: 45964839
ITLB TOTAL     ACCESS:    5738568  HIT:    5245657  MISS:     492911  HIT %:    91.4106  MISS %:    8.58944   MPKI: 9.85822
ITLB LOAD TRANSLATION INSTRUCTION	ACCESS:    5658105  HIT:    5165194  MISS:     492911  HIT %:    91.2884  MISS %:    8.71159  MPKI: 9.85822
ITLB TRANSLATION FROM L1D PREFETCHER INSTRUCTION	ACCESS:      80463  HIT:      80463  MISS:          0  HIT %:        100  MISS %:          0  MPKI: 0

ITLB AVERAGE MISS LATENCY: 9.03775 cycles
ITLB RQ	ACCESS:    7208661	FORWARD:          0	MERGED:    1065314	TO_CACHE:    6143347

DTLB TOTAL     ACCESS:   10094017  HIT:    9619845  MISS:     474172  HIT %:    95.3024  MISS %:    4.69755   MPKI: 9.48344
DTLB LOAD TRANSLATION DATA	ACCESS:   10094017  HIT:    9619845  MISS:     474172  HIT %:    95.3024  MISS %:    4.69755  MPKI: 9.48344

DTLB AVERAGE MISS LATENCY: 9.27666 cycles
DTLB RQ	ACCESS:   14157052	FORWARD:          0	MERGED:    4034506	TO_CACHE:   10122546

STLB TOTAL     ACCESS:    1216635  HIT:    1214701  MISS:       1934  HIT %:     99.841  MISS %:   0.158963   MPKI: 0.03868
STLB LOAD TRANSLATION INSTRUCTION	ACCESS:     492911  HIT:     492673  MISS:        238  HIT %:    99.9517  MISS %:  0.0482846  MPKI: 0.00476
STLB LOAD TRANSLATION DATA	ACCESS:     474096  HIT:     472416  MISS:       1680  HIT %:    99.6456  MISS %:   0.354359  MPKI: 0.0336
STLB TRANSLATION FROM L1D PREFETCHER DATA	ACCESS:     249628  HIT:     249612  MISS:         16  HIT %:    99.9936  MISS %: 0.00640954  MPKI: 0.00032

STLB AVERAGE MISS LATENCY: 67.8469 cycles
STLB RQ	ACCESS:    1341242	FORWARD:          0	MERGED:     124550	TO_CACHE:    1216692

STLB Hit, L1D data hit: 0
STLB Hit, L2C data hit: 0
STLB Hit, LLC data hit: 0
STLB Hit, LLC data miss: 0
STLB STLB hints to L2: 0
L1D TOTAL     ACCESS:   13961054  HIT:   12850569  MISS:    1110485  HIT %:    92.0458  MISS %:    7.95416   MPKI: 22.2097
L1D LOAD DATA	ACCESS:    7320034  HIT:    6588440  MISS:     731594  HIT %:    90.0056  MISS %:    9.99441  MPKI: 14.6319
L1D RFO DATA	ACCESS:    6306880  HIT:    6021087  MISS:     285793  HIT %:    95.4686  MISS %:    4.53145  MPKI: 5.71586
L1D PREFETCH DATA	ACCESS:     334140  HIT:     241042  MISS:      93098  HIT %:     72.138  MISS %:     27.862  MPKI: 1.86196

L1D PREFETCH  REQUESTED:     748530  ISSUED:     748530  USEFUL:      32546  USELESS:      67173
L1D USEFUL LOAD PREFETCHES:      32546 PREFETCH ISSUED TO LOWER LEVEL:      99779  ACCURACY: 32.6181
 TIMELY PREFETCHES:      32546 LATE PREFETCHES: 6627 DROPPED PREFETCHES: 6
L1D AVERAGE MISS LATENCY: 284846 cycles
L1D RQ	ACCESS:   11269540	FORWARD:          0	MERGED:    3758942	TO_CACHE:    7346711
L1D WQ	ACCESS:    6941120	FORWARD:     164099	MERGED:     130779	TO_CACHE:    6810341
L1D PQ	ACCESS:     374371	FORWARD:          0	MERGED:          0	TO_CACHE:     374159

L1D UNIQUE REGIONS ACCESSED: 0
L1D REGIONS CONFLICTS: 0
L1D Cross Page Prefetch Requests: 7064
L1D Same Page Prefetch Requests: 753908
L1D ROI Sum of L1D PQ occupancy: 4740179
L1D PREFETCHES PUSHED FROM L2C: 0
L1I TOTAL     ACCESS:    7055235  HIT:    4297835  MISS:    2757400  HIT %:     60.917  MISS %:     39.083   MPKI: 55.148
L1I LOAD INSTRUCTION	ACCESS:    6719069  HIT:    3961669  MISS:    2757400  HIT %:    58.9616  MISS %:    41.0384  MPKI: 55.148
L1I PREFETCH INSTRUCTION	ACCESS:     336166  HIT:     336166  MISS:          0  HIT %:        100  MISS %:          0  MPKI: 0

L1I PREFETCH  REQUESTED:     588049  ISSUED:     588049  USEFUL:          0  USELESS:          0
L1I USEFUL LOAD PREFETCHES:          0 PREFETCH ISSUED TO LOWER LEVEL:          0  ACCURACY: -nan
 TIMELY PREFETCHES:          0 LATE PREFETCHES: 0 DROPPED PREFETCHES: 0
L1I AVERAGE MISS LATENCY: 16.7812 cycles
L1I RQ	ACCESS:    9465727	FORWARD:          0	MERGED:    2660939	TO_CACHE:    6804788
L1I PQ	ACCESS:     588049	FORWARD:          0	MERGED:     184176	TO_CACHE:     403873

L1BTB TOTAL     ACCESS:    5669071  HIT:    2046531  MISS:    3622540  HIT %:    36.0999  MISS %:    63.9001   MPKI: 72.4508
L1BTB BRANCH_DIRECT_JUMP	ACCESS:     548178  HIT:     144936  MISS:     403242	AVERAGE STALL: 27.283
L1BTB BRANCH_INDIRECT	ACCESS:     182904  HIT:      66118  MISS:     116786	AVERAGE STALL: 66.5329
L1BTB BRANCH_CONDITIONAL	ACCESS:    2706455  HIT:    1416199  MISS:    1290256	AVERAGE STALL: 29.267
L1BTB BRANCH_DIRECT_CALL	ACCESS:     943774  HIT:     106075  MISS:     837699	AVERAGE STALL: 30.1991
L1BTB BRANCH_INDIRECT_CALL	ACCESS:     171991  HIT:      21754  MISS:     150237	AVERAGE STALL: 87.1045
L1BTB BRANCH_RETURN	ACCESS:    1115769  HIT:     291449  MISS:     824320	AVERAGE STALL: 29.1472
L1BTB BRANCH_OTHER ACCESS:          0  HIT:          0  MISS:          0	AVERAGE STALL: -nan
L1BTB TOTAL ROB OCCUPANCY AT BTB MISS: 20.4033

L2BTB TOTAL     ACCESS:    3597100  HIT:    2086624  MISS:    1510476  HIT %:    58.0085  MISS %:    41.9915   MPKI: 30.2095
L2BTB BRANCH_DIRECT_JUMP	ACCESS:     399061  HIT:     220629  MISS:     178432	AVERAGE STALL: 27.283
L2BTB BRANCH_INDIRECT	ACCESS:     106505  HIT:      89941  MISS:      16564	AVERAGE STALL: 66.5329
L2BTB BRANCH_CONDITIONAL	ACCESS:    1290256  HIT:     753310  MISS:     536946	AVERAGE STALL: 29.267
L2BTB BRANCH_DIRECT_CALL	ACCESS:     837699  HIT:     433887  MISS:     403812	AVERAGE STALL: 30.1991
L2BTB BRANCH_INDIRECT_CALL	ACCESS:     140661  HIT:      75790  MISS:      64871	AVERAGE STALL: 87.1045
L2BTB BRANCH_RETURN	ACCESS:     822918  HIT:     513067  MISS:     309851	AVERAGE STALL: 29.1472
L2BTB BRANCH_OTHER ACCESS:          0  HIT:          0  MISS:          0	AVERAGE STALL: -nan
L2BTB TOTAL ROB OCCUPANCY AT BTB MISS: 48.9328

L2C TOTAL     ACCESS:    4470160  HIT:    4051567  MISS:     418593  HIT %:    90.6358  MISS %:    9.36416   MPKI: 8.37186
L2C LOAD INSTRUCTION	ACCESS:    2757400  HIT:    2530411  MISS:     226989  HIT %:     91.768  MISS %:    8.23199  MPKI: 4.53978
L2C LOAD TRANSLATION INSTRUCTION	ACCESS:        268  HIT:         56  MISS:        212  HIT %:    20.8955  MISS %:    79.1045  MPKI: 0.00424
L2C LOAD DATA	ACCESS:     724919  HIT:     656836  MISS:      68083  HIT %:    90.6082  MISS %:    9.39181  MPKI: 1.36166
L2C RFO DATA	ACCESS:     285739  HIT:     238909  MISS:      46830  HIT %:    83.6109  MISS %:    16.3891  MPKI: 0.9366
L2C PREFETCH DATA	ACCESS:     181341  HIT:     117441  MISS:      63900  HIT %:    64.7625  MISS %:    35.2375  MPKI: 1.278
L2C WRITEBACK DATA	ACCESS:     518731  HIT:     507384  MISS:      11347  HIT %:    97.8125  MISS %:    2.18745  MPKI: 0.22694
L2C LOAD TRANSLATION DATA	ACCESS:       1729  HIT:        509  MISS:       1220  HIT %:     29.439  MISS %:     70.561  MPKI: 0.0244
L2C TRANSLATION FROM L1D PREFETCHER DATA	ACCESS:         33  HIT:         21  MISS:         12  HIT %:    63.6364  MISS %:    36.3636  MPKI: 0.00024

L2C PREFETCH  REQUESTED:      88230  ISSUED:      88230  USEFUL:       8285  USELESS:      56179
L2C USEFUL LOAD PREFETCHES:       8285 PREFETCH ISSUED TO LOWER LEVEL:      64445  ACCURACY: 12.8559
 TIMELY PREFETCHES:       8285 LATE PREFETCHES: 545 DROPPED PREFETCHES: 0
L2C AVERAGE MISS LATENCY: 38.994 cycles
L2C RQ	ACCESS:    3770138	FORWARD:          0	MERGED:          0	TO_CACHE:    3770090
L2C WQ	ACCESS:     518731	FORWARD:         48	MERGED:          0	TO_CACHE:     518731
L2C PQ	ACCESS:     188009	FORWARD:          0	MERGED:       3516	TO_CACHE:     184493

L2C Dense regions hint from L2: 0
PSCL5 TOTAL     ACCESS:       3886  HIT:       1943  MISS:       1943  HIT %:         50  MISS %:         50   MPKI: 0.03886
PSCL5 LOAD TRANSLATION INSTRUCTION	ACCESS:       3820  HIT:       1910  MISS:       1910  HIT %:         50  MISS %:         50  MPKI: 0.0382
PSCL5 TRANSLATION FROM L1D PREFETCHER INSTRUCTION	ACCESS:         66  HIT:         33  MISS:         33  HIT %:         50  MISS %:         50  MPKI: 0.00066


PSCL4 TOTAL     ACCESS:       3837  HIT:       1916  MISS:       1921  HIT %:    49.9348  MISS %:    50.0652   MPKI: 0.03842
PSCL4 LOAD TRANSLATION INSTRUCTION	ACCESS:       3515  HIT:       1891  MISS:       1624  HIT %:     53.798  MISS %:     46.202  MPKI: 0.03248
PSCL4 TRANSLATION FROM L1D PREFETCHER INSTRUCTION	ACCESS:         50  HIT:         25  MISS:         25  HIT %:         50  MISS %:         50  MPKI: 0.0005
PSCL4 LOAD TRANSLATION DATA	ACCESS:        272  HIT:          0  MISS:        272  HIT %:          0  MISS %:        100  MPKI: 0.00544


PSCL3 TOTAL     ACCESS:       3843  HIT:       1919  MISS:       1924  HIT %:    49.9349  MISS %:    50.0651   MPKI: 0.03848
PSCL3 LOAD TRANSLATION INSTRUCTION	ACCESS:       3518  HIT:       1894  MISS:       1624  HIT %:    53.8374  MISS %:    46.1626  MPKI: 0.03248
PSCL3 TRANSLATION FROM L1D PREFETCHER INSTRUCTION	ACCESS:         50  HIT:         25  MISS:         25  HIT %:         50  MISS %:         50  MPKI: 0.0005
PSCL3 LOAD TRANSLATION DATA	ACCESS:        275  HIT:          0  MISS:        275  HIT %:          0  MISS %:        100  MPKI: 0.0055


PSCL2 TOTAL     ACCESS:       3808  HIT:       1865  MISS:       1943  HIT %:    48.9758  MISS %:    51.0242   MPKI: 0.03886
PSCL2 LOAD TRANSLATION INSTRUCTION	ACCESS:       2070  HIT:       1832  MISS:        238  HIT %:    88.5024  MISS %:    11.4976  MPKI: 0.00476
PSCL2 TRANSLATION FROM L1D PREFETCHER INSTRUCTION	ACCESS:         33  HIT:         33  MISS:          0  HIT %:        100  MISS %:          0  MPKI: 0
PSCL2 LOAD TRANSLATION DATA	ACCESS:       1672  HIT:          0  MISS:       1672  HIT %:          0  MISS %:        100  MPKI: 0.03344
PSCL2 TRANSLATION FROM L1D PREFETCHER DATA	ACCESS:         33  HIT:          0  MISS:         33  HIT %:          0  MISS %:        100  MPKI: 0.00066


LLC TOTAL     ACCESS:     472340  HIT:     445695  MISS:      26645  HIT %:    94.3589  MISS %:    5.64106   MPKI: 0.5329
LLC LOAD INSTRUCTION	ACCESS:     226989  HIT:     226361  MISS:        628  HIT %:    99.7233  MISS %:   0.276665  MPKI: 0.01256
LLC LOAD TRANSLATION INSTRUCTION	ACCESS:        212  HIT:        183  MISS:         29  HIT %:    86.3208  MISS %:    13.6792  MPKI: 0.00058
LLC LOAD DATA	ACCESS:      67550  HIT:      64336  MISS:       3214  HIT %:     95.242  MISS %:    4.75796  MPKI: 0.06428
LLC RFO DATA	ACCESS:      46817  HIT:      33770  MISS:      13047  HIT %:    72.1319  MISS %:    27.8681  MPKI: 0.26094
LLC PREFETCH DATA	ACCESS:      64444  HIT:      55112  MISS:       9332  HIT %:    85.5192  MISS %:    14.4808  MPKI: 0.18664
LLC WRITEBACK DATA	ACCESS:      65096  HIT:      64760  MISS:        336  HIT %:    99.4838  MISS %:   0.516161  MPKI: 0.00672
LLC LOAD TRANSLATION DATA	ACCESS:       1220  HIT:       1162  MISS:         58  HIT %:    95.2459  MISS %:     4.7541  MPKI: 0.00116
LLC TRANSLATION FROM L1D PREFETCHER DATA	ACCESS:         12  HIT:         11  MISS:          1  HIT %:    91.6667  MISS %:    8.33333  MPKI: 2e-05

LLC AVERAGE MISS LATENCY: 153.084 cycles
LLC RQ	ACCESS:     342801	FORWARD:          0	MERGED:          0	TO_CACHE:     342800
LLC WQ	ACCESS:      65096	FORWARD:          2	MERGED:          0	TO_CACHE:      65096
LLC PQ	ACCESS:      64445	FORWARD:          0	MERGED:          0	TO_CACHE:      64444

LLC Dense regions hint to LLC: 0

RAW hits: 1360540
Loads Generated: 12630080
Loads sent to L1D: 11269540
Stores Generated: 6941118
Stores sent to L1D: 6941120
Major fault: 0 Minor fault: 2614
Allocated PAGES: 2614

stream: 
stream:times selected: 1185776
stream:pref_filled: 119162
stream:pref_useful: 23774
stream:pref_late: 6153
stream:misses: 7786
stream:misses_by_poll: 0

CS: 
CS:times selected: 175776
CS:pref_filled: 59892
CS:pref_useful: 36671
CS:pref_late: 6163
CS:misses: 15644
CS:misses_by_poll: 6

CPLX: 
CPLX:times selected: 1008953
CPLX:pref_filled: 20693
CPLX:pref_useful: 4866
CPLX:pref_late: 2964
CPLX:misses: 92779
CPLX:misses_by_poll: 3

NL_L1: 
NL:times selected: 21093
NL:pref_filled: 748
NL:pref_useful: 368
NL:pref_late: 296
NL:misses: 1589
NL:misses_by_poll: 0

total selections: 2391598
total_filled: 93098
total_useful: 32546
total_late: 16696
total_polluted: 9
total_misses_after_warmup: 758272
conflicts: 5887135

test: 117659

DRAM Statistics
 CHANNEL 0
 RQ ROW_BUFFER_HIT:      10026  ROW_BUFFER_MISS:      16279
 DBUS_CONGESTED:          7
 WQ ROW_BUFFER_HIT:       1142  ROW_BUFFER_MISS:      11497  FULL:          0

 AVG_CONGESTED_CYCLE: 5

CPU 0 Branch Prediction Accuracy: 99.829% MPKI: 0.31266 Average ROB Occupancy at Mispredict: 95.1819
Branch types
NOT_BRANCH: 40854720 81.7094%
BRANCH_DIRECT_JUMP: 548178 1.09636%
BRANCH_INDIRECT: 182904 0.365808%
BRANCH_CONDITIONAL: 6182156 12.3643%
BRANCH_DIRECT_CALL: 943774 1.88755%
BRANCH_INDIRECT_CALL: 171991 0.343982%
BRANCH_RETURN: 1115769 2.23154%
BRANCH_OTHER: 0 0%

DRAM PAGES: 1048576
Allocated PAGES: 2614
Average_ROB_Occupancy: 57.9518
Average_Decode_Occupancy: 6.76444
Average_FTQ_Occupancy: 3.55908
Indirect max targets: 14 Average targets: 1.17891
Branch_type:  BRANCH_DIRECT_JUMP:  Count Percentage: 1.61907 6.99713 4.54694 8.4276 3.10441 6.29033 1.92002 67.0945 
Branch_type:  BRANCH_INDIRECT:  Count Percentage: 6.16505 3.48062 8.16812 0 1.3362 9.66618 5.21055 65.9733 
Branch_type:  BRANCH_CONDITIONAL:  Count Percentage: 20.7718 3.407 1.82751 5.01128 2.32594 4.14936 3.07189 59.4352 
Branch_type:  BRANCH_DIRECT_CALL:  Count Percentage: 0.259488 1.96294 1.28201 3.77967 3.71256 2.34684 4.30559 82.3509 
Branch_type:  BRANCH_INDIRECT_CALL:  Count Percentage: 9.52457 0 2.98496 8.68241 1.25261 2.02694 6.40337 69.1251 
Branch_type:  BRANCH_RETURN:  Count Percentage: 4.09816 1.84929 1.49206 5.82543 3.96247 4.8508 5.14958 72.7722 
Branch_type:  BRANCH_DIRECT_JUMP:  Total Count: 17737 76654 49812 92325 34009 68911 21034 735025 
Branch_type:  BRANCH_INDIRECT:  Total Count: 22548 12730 29874 0 4887 35353 19057 241290 
Branch_type:  BRANCH_CONDITIONAL:  Total Count: 2566689 420988 225818 619223 287407 512719 379581 7344151 
Branch_type:  BRANCH_DIRECT_CALL:  Total Count: 4895 37029 24184 71300 70034 44271 81221 1553475 
Branch_type:  BRANCH_INDIRECT_CALL:  Total Count: 32719 0 10254 29826 4303 6963 21997 237460 
Branch_type:  BRANCH_RETURN:  Total Count: 91422 41254 33285 129954 88395 108212 114877 1623406 
Number of unique branch instructions: 10791
Upper 32 bits: 
aaaa
ffff
ffff0000
Unique upper 32 bits: 3
Unique upper 36 bits: 3
Unique upper 40 bits: 5
Unique upper 44 bits: 32
Unique upper 48 bits: 158
Offset_3 4474
Offset_4 260
Offset_5 482
Offset_6 542
Offset_7 640
Offset_8 576
Offset_9 525
Offset_10 429
Offset_11 363
Offset_12 312
Offset_13 236
Offset_14 244
Offset_15 194
Offset_16 233
Offset_17 168
Offset_18 149
Offset_19 257
Offset_20 143
Offset_21 235
Offset_22 416
Offset_23 241
Offset_24 344
Offset_25 117
Offset_47 92
decode_dispatch_called: 21045341 31.7598
Dispatch_width: 0 10602153 50.3777 15.9998
Dispatch_width: 1 665896 3.1641 1.00491
Dispatch_width: 2 943598 4.48364 1.424
Dispatch_width: 3 637293 3.02819 0.961747
Dispatch_width: 4 1577930 7.49776 2.38127
Dispatch_width: 5 487843 2.31806 0.73621
Dispatch_width: 6 6130628 29.1306 9.25181
Empty_decode_cycles: 45218771 68.2402
ROB_full_cycles: 1298663 1.95983
Starvation_cycles_per_kilo_instr: 588.348
Starvation_cycles_per_kilo_instr_3: 567.69
Starvation_cycles_per_kilo_instr_0: 545.223
Branch_type_1  (3,1)  (4,9)  (5,39)  (6,74)  (7,123)  (8,151)  (9,138)  (10,111)  (11,80)  (12,48)  (13,11)  (14,2)  (15,3)  (16,4)  (18,1)  (19,5)  (20,2)  (21,1)  (22,3)  (23,2)  (24,10)  (25,12) 
Branch_type_2  (3,1)  (4,1)  (5,1)  (8,4)  (9,4)  (10,1)  (12,1)  (13,1)  (14,1)  (16,3)  (17,2)  (20,2)  (21,2)  (23,5)  (24,1)  (47,41) 
Branch_type_3  (3,4472)  (4,250)  (5,438)  (6,452)  (7,487)  (8,356)  (9,288)  (10,174)  (11,147)  (12,55)  (13,10) 
Branch_type_4  (6,3)  (7,8)  (8,25)  (9,56)  (10,68)  (11,70)  (12,116)  (13,100)  (14,110)  (15,92)  (16,102)  (17,79)  (18,65)  (19,125)  (20,73)  (21,124)  (22,220)  (23,136)  (24,199)  (25,101) 
Branch_type_5  (8,3)  (9,1)  (10,4)  (11,5)  (12,3)  (13,14)  (14,16)  (15,11)  (16,22)  (17,11)  (18,23)  (19,14)  (20,11)  (21,13)  (22,43)  (23,26)  (24,38) 
Branch_type_6  (5,4)  (6,13)  (7,22)  (8,37)  (9,38)  (10,71)  (11,61)  (12,89)  (13,100)  (14,115)  (15,88)  (16,102)  (17,76)  (18,60)  (19,113)  (20,55)  (21,95)  (22,150)  (23,72)  (24,96)  (25,4)  (47,51) 
aaaaab1fc620: 2ac9e77e 2aca717c 2aca8eff 2acaf6bc 2acaf9aa 2acaf9f1 2acb1abc 2acb1b7f 2acd4e22 2acdb712 2acf5f9e 2ad0ef44 2ad3f15c 2ad414e6 2ad60e42 2ad8609c 2ad99830 2ada35cc 2ada4676 2ada6612 2adf183e 2adf30e5 2adf5602 2adf785c 2ae11572 2aeb2dcf 2aee101b 2aee1ae1 2b156a8c 2b156b61 2b156bea 2b167f35 2b177656 2b17feec 2b1a3e5a 
aaaaab1fc640: 2ac9ec07 2aca656e 2aca801d 2acaea11 2acaee73 2acb13ee 2acb1470 2acd462b 2ad0ef5d 2ad3f3fe 2ad86e9b 2ada1641 2ada4115 2ada6638 2adf30d4 2ae12e57 2aee1033 2b1693ab 2b16948c 2b169491 2b17d915 2b17fa85 2b17fccd 
aaaaab1fcb00: 2acf2d72 2acf3734 2acf604c 2acfa5b7 2ad397b5 2ad3b800 2ae8af7d 2ae8aff0 2ae9aaba 2aea9fc6 2aeaa358 2aee910b 2aee91cf 2aee928e 2aee92e4 2af6fe87 2af70dfe 2b16850c 2b16c4a2 2b1765f4 2b178094 2b17d925 2b17db06 2b17ec8f 
aaaaab1fcb10: 2acf2d95 2acf3758 2acf6052 2acfa5f4 2ad397c3 2ad3b81c 2ae8af88 2ae8affe 2ae9aacf 2aeaa017 2aeaa36d 2aee9114 2aee91d8 2aee934d 2aee9353 2af6fe8c 2af70e22 2b168526 2b16c542 2b176609 2b1780a3 2b17d95d 2b17db44 2b17ecac 
aaaaac68f310: 2ac9ec8c 2ac9fb44 2ac9fbd2 2aca59ab 2acac04c 2acaf6e0 2acaf6ec 2acaf6f9 2acaf700 2acaf708 2acf2d90 2ad3cfbd 2ad3cfc4 2ad3d000 2ad3f35f 2ad4955d 2ad49571 2ad4f3f2 2ad4f400 2ad5f240 2ad5f37c 2ad5f86a 2ad5f86f 2ad5f880 2ad5fc0d 2ad5fc14 2ad5fc21 2ad5fe1b 2ad873bb 2ad873e3 2ad8a6b2 2ad9086e 2ad93096 2ad9bbb2 2ada152c 2ada1554 2ada3332 2ada5522 2adf3130 2adf313c 2adf3a3f 2adf3bd9 2adf5788 2adf7a8d 2ae07f6b 2ae0857a 2ae0857e 2ae08630 2ae08634 2ae08637 2ae08642 2ae0866f 2ae086e4 2ae086ec 2ae08717 2ae0871b 2aee0170 2aee1d38 2aee75f4 2aee7662 2aee85ca 2aee85e4 2aee8eef 2af70b84 2af74e8f 2b17d843 
aaaaac690ef0: 2aca598b 2acb111b 2acb175f 2acb1772 2acbfaf4 2acbfb00 2acf374f 2acf6d43 2acfa5c8 2ad3baf1 2ad3d4ac 2ad3d4b8 2ad3f1cf 2ad486b2 2ad5a59b 2ad5fc64 2ad5fcf9 2ad6121c 2ad906e9 2ad907bf 2ad9bada 2ada16ce 2ada1ad5 2ada43df 2ada64c0 2ada72ee 2adeb71a 2adf3bcb 2adf7a38 2adf7c6a 2adf8872 2adf8880 2adf9959 2adf9abe 2ae07f78 2ae08503 2ae08754 2ae12e80 2aea3bea 2aecb509 2aee00b0 2aee2bdd 2aee5467 2aee5601 2aee8f20 2af703fd 2af7048b 2af74e74 
Unique trigger count: 
1 10280
2 558
3 90
4 33
5 16
6 9
7 8
8 1
9 3
10 3
11 1
12 1
13 2
14 2
16 2
19 2
23 1
24 2
35 1
48 1
66 1
BTB PER SET UNIQUE ADDR: 6 8 6 5 3 4 7 9 10 2 5 2 8 5 4 4 6 4 8 9 5 8 8 8 8 11 1 7 6 6 10 10 6 5 8 4 4 7 7 3 8 5 7 10 9 9 6 12 11 6 5 3 13 2 2 7 5 5 9 8 4 12 5 8 6 9 9 9 6 7 6 2 6 5 6 7 6 14 6 5 9 6 7 6 6 7 7 8 8 10 10 9 9 6 8 5 10 8 5 6 8 7 9 9 7 8 7 8 7 5 7 7 4 8 6 11 3 7 6 2 8 9 4 3 6 4 4 7 11 8 11 3 11 5 9 7 5 3 6 8 8 8 7 6 5 11 5 8 12 7 7 14 6 10 6 9 8 9 7 11 11 8 11 5 11 8 3 4 13 7 6 4 8 7 4 3 6 6 10 5 6 8 10 8 9 11 6 6 6 8 6 8 6 7 6 10 11 4 11 5 4 6 9 4 8 4 5 8 7 2 3 6 9 9 7 6 4 9 8 6 6 4 6 7 7 8 14 7 3 11 14 9 4 5 7 9 11 5 4 5 5 3 11 8 17 11 2 7 6 7 9 10 6 7 5 13 4 8 11 6 8 5 7 4 9 16 7 5 7 5 7 7 4 9 10 9 7 4 4 8 9 5 10 5 9 9 8 7 8 4 5 7 4 11 7 4 6 10 6 6 6 6 5 4 6 5 6 4 13 9 7 5 8 4 6 5 10 14 7 6 7 11 5 8 5 6 6 10 3 3 9 2 6 7 10 5 7 8 8 1 6 6 2 9 7 7 3 8 10 7 5 13 11 7 8 7 7 2 8 5 7 10 6 8 11 8 4 4 4 4 8 4 6 5 8 4 11 8 7 10 9 7 6 12 6 5 8 5 8 4 9 5 8 4 6 4 6 5 2 9 7 5 7 7 5 5 8 5 4 3 5 3 11 7 2 6 10 4 2 7 2 6 7 8 10 8 4 2 4 8 3 4 15 5 8 11 6 6 7 4 5 6 10 3 7 9 6 6 5 5 6 3 5 3 9 3 6 7 11 6 5 4 7 12 5 5 12 3 6 6 2 6 10 7 4 3 10 5 3 3 5 2 3 4 3 7 8 4 7 2 12 5 4 8 2 12 4 7 5 5 11 3 4 3 2 5 5 3 5 6 7 4 8 11 3 4 2 10 6 9 7 5 8 6 11 9 6 10 9 8 8 6 6 8 5 8 7 1 6 4 5 8 11 4 9 5 10 14 14 11 7 9 7 8 2 6 9 3 7 4 10 5 9 5 5 7 10 9 11 7 8 4 11 12 7 7 7 12 3 10 13 5 2 6 5 3 3 14 7 5 8 8 4 7 5 5 9 5 6 5 13 5 11 11 8 5 5 9 7 5 8 8 7 6 8 5 7 5 5 7 9 7 11 3 5 11 8 8 4 6 8 7 7 7 7 8 6 7 6 4 11 8 4 6 3 3 7 8 8 8 7 5 11 3 5 4 11 5 6 8 12 3 6 11 7 8 7 6 6 11 7 8 6 7 11 10 8 6 8 6 9 12 9 6 8 8 7 9 8 6 3 8 3 5 5 7 10 7 7 9 3 12 6 5 7 12 3 4 5 5 7 8 6 5 5 7 12 6 1 8 5 3 5 4 4 3 3 9 2 11 8 11 8 2 7 8 10 3 6 4 5 8 5 10 4 5 6 4 7 7 7 3 4 7 2 5 5 10 9 4 5 6 6 7 7 6 14 6 6 3 9 7 0 5 7 5 6 10 4 3 8 6 4 6 11 9 9 8 3 9 4 9 6 7 6 13 12 5 6 4 13 4 9 4 7 7 7 9 5 7 3 4 6 5 5 6 1 5 5 10 7 4 9 4 5 5 6 4 7 6 7 3 7 4 10 6 4 5 6 5 5 5 7 6 5 8 9 6 6 4 8 8 6 9 6 11 8 5 7 6 7 7 4 4 14 7 6 8 10 10 4 7 6 10 7 2 2 6 7 4 5 7 6 7 10 5 7 5 5 7 9 3 5 8 6 3 9 13 4 3 12 9 5 6 9 7 7 11 6 9 9 7 5 4 3 10 6 7 8 6 9 7 9 6 9 9 7 5 5 12 6 4 11 10 6 8 10 11 3 10 8 9 6 4 6 8 9 7 9 6 9 6 13 7 5 6 9 13 6 10 6 7 10 5 3 9 10 9 10 5 3 5 3 9 12 6 8 5 4 7 13 6 4 6 5 7 4 5 9 8 8 7 7 11 4 11 6 11 5 6 5 5 5 4 7 6 7 6 6 6 9 4 9 6 11 4 9 5 3 8 11 6 15 5 
BTB PER SET COUNT: 9 6834 6838 7 3 4 2722 6838 8304 2 1481 2 3455 1480 5 5 1983 4 2101 6463 6 3030 1027 3461 7810 9772 1 777 3083 29 9782 6994 5354 6 3936 5 2933 2476 1355 3 2479 760 35 3708 10736 775 2469 7820 9040 3130 614 3 14163 2 2 3451 1011 7324 6347 5233 4 8918 7 3457 27 7333 2106 1988 1484 2755 3365 2 32 8 1369 2958 757 9180 1012 9 3149 5355 2721 2717 1956 4102 1986 2969 9283 4897 7655 3875 3947 4373 1980 8 6805 2964 6 991 2489 1120 3466 5420 11 6347 1976 3830 3450 1480 2467 14 4 4950 24 10602 3 1988 1602 2 3453 5850 5 3 3125 4 4 5373 10319 1978 4956 3 10333 6 8794 1975 1480 3 29 8303 6422 7930 1492 4871 5 4119 7 6835 7696 2468 1133 10409 2957 11721 158 5820 7821 8299 2218 8425 11755 2397 9854 2389 7837 3924 3 4 13667 1975 8 4 1143 169 4 3 19 1972 6394 9 95 1488 9771 401 1496 10259 3880 33 6342 6724 35 6895 1487 2959 2957 2929 9809 4 1998 6 5 580 6360 5 5369 4 1480 4371 772 2 3 3407 2360 6328 5218 5356 4 4148 1251 7326 504 4 1923 6834 6330 6343 12325 5412 3 11229 11649 6827 4 7 27 7806 3948 6 4 8 7 3 10750 2394 13685 7017 2 3892 992 13 8798 9385 6820 1981 20 7839 4 3141 3958 1481 3819 1012 2903 5 5632 12939 1481 9 2473 2465 2969 2465 4 7326 3948 2970 1969 4 4 3457 3140 9 3007 926 9269 8806 2960 3615 2017 4 1972 3451 496 7816 2959 6 16 7778 2467 4384 2957 1971 8 4 2225 8 1026 4 7555 5105 1264 5 3186 4 1262 8 3951 9290 2961 8 3370 4984 1008 7321 27 2463 26 3509 4 3 4841 2 1210 2228 10173 9 3944 2471 2477 1 18 1020 2 4218 1170 1070 3 1014 3302 13 5 7357 6344 4198 2985 23 9285 2 6339 2013 2468 4529 35 3213 3859 6887 4 4 4 4 2966 6 2224 761 2704 4 8219 35 1483 4199 3460 3448 2957 10800 30 9 1988 1010 763 4 4508 22 3947 6 5358 6 3267 3897 2 1991 2840 6 2881 1483 796 23 4664 9 4 2326 7 3 4426 10 973 993 1838 4 3 1867 2 994 715 2025 5859 1026 8 2 4 2473 137 4 8791 1854 6556 9317 1492 5841 2963 5 8 1004 3112 3 1979 3218 8 3438 20 5 2955 3 7 3 9358 3 10 1526 7338 23 994 4 2205 7347 1006 22 7987 3 30 1500 2 1173 7320 857 105 3 26248 1008 3 3 28 2 3 496 4 2548 2687 387 1871 2 6579 6 4 6804 2 10401 5 2475 6 8 11566 16 4 3 2 1481 20 3 5 41 2561 4 241 6862 5 4 2 12199 25 2977 2469 1472 2477 444 4604 6848 8 5866 7810 5881 15 2629 10 543 9 2961 9 1 1024 4 9 6355 6895 5 5120 21 2154 4701 10768 10768 1489 7810 1502 6826 3 1960 4728 3 2466 4 10227 6 6348 7 3388 999 6346 2666 7809 2979 7300 4 8298 11233 5360 2964 4602 9766 4 7070 11809 369 2 2957 1470 3 4 10758 2972 20 4598 3452 4 1964 978 1971 46 1973 12 8 6730 2464 9270 4362 5867 2966 7 8193 7809 1484 3948 1673 2466 3400 7805 6 4559 1971 23 5360 2835 2237 7824 3 1485 4446 2487 6346 5 2464 6341 10256 1979 42 8297 13 1019 11 992 4 10755 4081 4 29 3 5 1493 2468 8308 28 5866 8 12702 3 988 4 9752 1480 8325 3944 16171 3 1978 11956 6360 3945 5406 1004 25 4444 4397 7817 2469 2956 10284 4156 2964 2467 7439 2466 8298 10714 2609 6850 21005 3690 2474 6834 2997 2467 3 3054 3 9 9 2466 8300 2470 1497 1517 3 9783 9 2465 5523 7330 3 1469 1970 2452 5848 2477 3899 988 1256 3345 9295 3649 1 7329 7 3 4396 4 4 3 3 8213 2 10269 6834 9660 8792 2 1981 4902 4248 5 1980 4 6 5815 23 12678 4 7 2471 4 1487 3452 7328 3 4 547 2 1480 7 9731 10241 976 6 7325 5860 2231 3899 2225 12697 697 2474 3 3080 782 0 2015 67 1472 4863 4397 4 3 4884 16 4 5836 5720 7315 3415 128 431 3944 4 4316 18 1985 2667 10614 7967 8 1972 4 9711 5 7379 6 2987 3844 4867 9234 18 40 3 6 1415 484 6 28 1 53 8 7268 728 4 5862 382 1479 5 1730 4 2466 2465 4132 3 7310 4 10790 2235 4 7 2957 6 2175 9 1975 5840 6 3210 6503 1485 1507 4 8804 3280 2957 5379 2466 12196 2962 8 6818 3974 1776 7322 4 4 10725 997 771 9777 10270 8254 4 5837 2958 6827 5344 2 2 1485 58 4 7 8298 42 3643 6858 1094 3451 6 8 3468 6837 3 9 2862 1598 3 3559 7074 4 3 5533 4597 134 59 2630 2402 28 5558 153 3865 3411 1499 8 4 3 3458 10 995 7819 2855 6588 1978 8301 4866 6616 3306 2470 6 1971 4001 26 497 8049 5581 1483 3943 7345 8808 3 3461 3228 3925 8 975 1379 3454 2490 2447 5266 9 6360 6 10276 3960 6 1723 8115 11264 3417 5200 1974 1981 9781 4864 4 3588 5245 2845 3464 7 3 1480 3 8203 5930 1767 7320 20 4 2473 9783 30 497 524 1972 2474 4 6 3314 2473 6337 1988 3451 9263 4 3464 2466 5938 6 1491 8 7 1412 4 1976 35 5858 11 1974 10 7833 4 10247 1902 6149 4 2858 10 3 36 4924 2210 6586 22 
