
*** ChampSim Multicore Out-of-Order Simulator ***

Warmup Instructions: 50000000
Simulation Instructions: 50000000
Number of CPUs: 1
LLC sets: 2048
LLC ways: 16
Off-chip DRAM Size: 4096 MB Channels: 1 Width: 64-bit Data Rate: 6400 MT/s
CPU 0 runs ./micro_traces/srv747.trace.gz
.gz
ITLB has LRU replacement policy
DTLB has LRU replacement policy
STLB has LRU replacement policy
CPU 0 L1I next line prefetcher
./conditional/srv747.cond
L1I has LRU replacement policy
L1D has LRU replacement policy
Initialize SRRIP state for L2C
Initialize DRRIP state for LLC
Heartbeat_Variant_0 : 1302 0.158936 per_variant_size: 0 1302 0 0 0 0 0 0 0 
Heartbeat_Variant_1 : 1373 0.167603 per_variant_size: 0 923 450 0 0 0 0 0 0 
Heartbeat_Variant_2 : 1644 0.200684 per_variant_size: 0 964 421 221 38 0 0 0 0 
Heartbeat_Variant_3 : 0 0 per_variant_size: 0 0 0 0 0 0 0 0 0 
Heartbeat_Variant_0_evicts 0 : 5546 1 : 1 2 : 0 3 : 0 
Heartbeat_Variant_1_evicts 0 : 3 1 : 0 2 : 251 3 : 0 
Heartbeat_Variant_2_evicts 0 : 2 1 : 249 2 : 0 3 : 0 
Heartbeat_Variant_3_evicts 0 : 0 1 : 0 2 : 0 3 : 0 
Heartbeat CPU 0 instructions: 10000003 cycles: 2800535 heartbeat IPC: 3.57075 cumulative IPC: 3.57075 (Simulation time: 0 hr 1 min 11 sec) 
Heartbeat_Variant_0 : 1398 0.170654 per_variant_size: 0 1398 0 0 0 0 0 0 0 
Heartbeat_Variant_1 : 1467 0.179077 per_variant_size: 0 968 499 0 0 0 0 0 0 
Heartbeat_Variant_2 : 1736 0.211914 per_variant_size: 0 982 458 253 43 0 0 0 0 
Heartbeat_Variant_3 : 0 0 per_variant_size: 0 0 0 0 0 0 0 0 0 
Heartbeat_Variant_0_evicts 0 : 5490 1 : 0 2 : 1 3 : 0 
Heartbeat_Variant_1_evicts 0 : 0 1 : 0 2 : 252 3 : 0 
Heartbeat_Variant_2_evicts 0 : 1 1 : 252 2 : 0 3 : 0 
Heartbeat_Variant_3_evicts 0 : 0 1 : 0 2 : 0 3 : 0 
Heartbeat CPU 0 instructions: 20000002 cycles: 5599902 heartbeat IPC: 3.57224 cumulative IPC: 3.57149 (Simulation time: 0 hr 2 min 19 sec) 
Heartbeat_Variant_0 : 1428 0.174316 per_variant_size: 0 1428 0 0 0 0 0 0 0 
Heartbeat_Variant_1 : 1508 0.184082 per_variant_size: 0 984 524 0 0 0 0 0 0 
Heartbeat_Variant_2 : 1765 0.215454 per_variant_size: 0 989 462 264 50 0 0 0 0 
Heartbeat_Variant_3 : 0 0 per_variant_size: 0 0 0 0 0 0 0 0 0 
Heartbeat_Variant_0_evicts 0 : 5593 1 : 2 2 : 0 3 : 0 
Heartbeat_Variant_1_evicts 0 : 0 1 : 0 2 : 240 3 : 0 
Heartbeat_Variant_2_evicts 0 : 0 1 : 241 2 : 0 3 : 0 
Heartbeat_Variant_3_evicts 0 : 0 1 : 0 2 : 0 3 : 0 
Heartbeat CPU 0 instructions: 30000003 cycles: 8397792 heartbeat IPC: 3.57412 cumulative IPC: 3.57237 (Simulation time: 0 hr 3 min 26 sec) 
Heartbeat_Variant_0 : 1430 0.174561 per_variant_size: 0 1430 0 0 0 0 0 0 0 
Heartbeat_Variant_1 : 1514 0.184814 per_variant_size: 0 984 530 0 0 0 0 0 0 
Heartbeat_Variant_2 : 1774 0.216553 per_variant_size: 0 998 459 283 34 0 0 0 0 
Heartbeat_Variant_3 : 0 0 per_variant_size: 0 0 0 0 0 0 0 0 0 
Heartbeat_Variant_0_evicts 0 : 5521 1 : 0 2 : 0 3 : 0 
Heartbeat_Variant_1_evicts 0 : 0 1 : 0 2 : 243 3 : 0 
Heartbeat_Variant_2_evicts 0 : 0 1 : 242 2 : 0 3 : 0 
Heartbeat_Variant_3_evicts 0 : 0 1 : 0 2 : 0 3 : 0 
Heartbeat CPU 0 instructions: 40000001 cycles: 11195315 heartbeat IPC: 3.57459 cumulative IPC: 3.57292 (Simulation time: 0 hr 4 min 36 sec) 
Heartbeat_Variant_0 : 1431 0.174683 per_variant_size: 0 1431 0 0 0 0 0 0 0 
Heartbeat_Variant_1 : 1516 0.185059 per_variant_size: 0 986 530 0 0 0 0 0 0 
Heartbeat_Variant_2 : 1776 0.216797 per_variant_size: 0 1000 459 287 30 0 0 0 0 
Heartbeat_Variant_3 : 0 0 per_variant_size: 0 0 0 0 0 0 0 0 0 
Heartbeat_Variant_0_evicts 0 : 5516 1 : 0 2 : 0 3 : 0 
Heartbeat_Variant_1_evicts 0 : 0 1 : 0 2 : 249 3 : 0 
Heartbeat_Variant_2_evicts 0 : 0 1 : 249 2 : 0 3 : 0 
Heartbeat_Variant_3_evicts 0 : 0 1 : 0 2 : 0 3 : 0 
Heartbeat CPU 0 instructions: 50000003 cycles: 13993515 heartbeat IPC: 3.57373 cumulative IPC: 3.57308 (Simulation time: 0 hr 5 min 40 sec) 

Warmup complete CPU 0 instructions: 50000003 cycles: 13993515 (Simulation time: 0 hr 5 min 40 sec) 

Cycle: 20000000 FTQ IN: 58156868 FTQ occupancy: 19.8211 DECODE IN: 58156810 DECODE occupancy: 51.8273 ROB IN: 58156750 ROB occupancy: 314.033 ROB OUT: 58156472
Heartbeat_Variant_0 : 1431 0.174683 per_variant_size: 0 1431 0 0 0 0 0 0 0 
Heartbeat_Variant_1 : 1516 0.185059 per_variant_size: 0 986 530 0 0 0 0 0 0 
Heartbeat_Variant_2 : 1777 0.216919 per_variant_size: 0 1001 459 254 63 0 0 0 0 
Heartbeat_Variant_3 : 0 0 per_variant_size: 0 0 0 0 0 0 0 0 0 
Heartbeat_Variant_0_evicts 0 : 5651 1 : 0 2 : 0 3 : 0 
Heartbeat_Variant_1_evicts 0 : 0 1 : 0 2 : 239 3 : 0 
Heartbeat_Variant_2_evicts 0 : 0 1 : 240 2 : 0 3 : 0 
Heartbeat_Variant_3_evicts 0 : 0 1 : 0 2 : 0 3 : 0 
Heartbeat CPU 0 instructions: 60000000 cycles: 21344249 heartbeat IPC: 1.36041 cumulative IPC: 1.36041 (Simulation time: 0 hr 6 min 53 sec) 
Heartbeat_Variant_0 : 1435 0.175171 per_variant_size: 0 1435 0 0 0 0 0 0 0 
Heartbeat_Variant_1 : 1525 0.186157 per_variant_size: 0 988 537 0 0 0 0 0 0 
Heartbeat_Variant_2 : 1777 0.216919 per_variant_size: 0 997 462 259 59 0 0 0 0 
Heartbeat_Variant_3 : 0 0 per_variant_size: 0 0 0 0 0 0 0 0 0 
Heartbeat_Variant_0_evicts 0 : 5625 1 : 0 2 : 0 3 : 0 
Heartbeat_Variant_1_evicts 0 : 0 1 : 0 2 : 247 3 : 0 
Heartbeat_Variant_2_evicts 0 : 0 1 : 246 2 : 0 3 : 0 
Heartbeat_Variant_3_evicts 0 : 0 1 : 0 2 : 0 3 : 0 
Heartbeat CPU 0 instructions: 70000003 cycles: 28626810 heartbeat IPC: 1.37314 cumulative IPC: 1.36675 (Simulation time: 0 hr 8 min 9 sec) 
Cycle: 30000000 FTQ IN: 13748844 FTQ occupancy: 12.1856 DECODE IN: 13748833 DECODE occupancy: 32.3496 ROB IN: 13748833 ROB occupancy: 233.825 ROB OUT: 13748760
Heartbeat_Variant_0 : 1436 0.175293 per_variant_size: 0 1436 0 0 0 0 0 0 0 
Heartbeat_Variant_1 : 1525 0.186157 per_variant_size: 0 990 535 0 0 0 0 0 0 
Heartbeat_Variant_2 : 1777 0.216919 per_variant_size: 0 998 461 252 66 0 0 0 0 
Heartbeat_Variant_3 : 0 0 per_variant_size: 0 0 0 0 0 0 0 0 0 
Heartbeat_Variant_0_evicts 0 : 5599 1 : 1 2 : 0 3 : 0 
Heartbeat_Variant_1_evicts 0 : 0 1 : 0 2 : 243 3 : 0 
Heartbeat_Variant_2_evicts 0 : 0 1 : 243 2 : 0 3 : 0 
Heartbeat_Variant_3_evicts 0 : 0 1 : 0 2 : 0 3 : 0 
Heartbeat CPU 0 instructions: 80000003 cycles: 35987848 heartbeat IPC: 1.3585 cumulative IPC: 1.36399 (Simulation time: 0 hr 9 min 22 sec) 
Cycle: 40000000 FTQ IN: 13621126 FTQ occupancy: 12.3702 DECODE IN: 13621170 DECODE occupancy: 32.6291 ROB IN: 13621230 ROB occupancy: 233.082 ROB OUT: 13621454
Heartbeat_Variant_0 : 1436 0.175293 per_variant_size: 0 1436 0 0 0 0 0 0 0 
Heartbeat_Variant_1 : 1525 0.186157 per_variant_size: 0 989 536 0 0 0 0 0 0 
Heartbeat_Variant_2 : 1777 0.216919 per_variant_size: 0 998 461 251 67 0 0 0 0 
Heartbeat_Variant_3 : 0 0 per_variant_size: 0 0 0 0 0 0 0 0 0 
Heartbeat_Variant_0_evicts 0 : 5530 1 : 0 2 : 0 3 : 0 
Heartbeat_Variant_1_evicts 0 : 0 1 : 0 2 : 252 3 : 0 
Heartbeat_Variant_2_evicts 0 : 0 1 : 252 2 : 0 3 : 0 
Heartbeat_Variant_3_evicts 0 : 0 1 : 0 2 : 0 3 : 0 
Heartbeat CPU 0 instructions: 90000003 cycles: 43247099 heartbeat IPC: 1.37755 cumulative IPC: 1.36735 (Simulation time: 0 hr 10 min 30 sec) 
Cycle: 50000000 FTQ IN: 13676073 FTQ occupancy: 12.4082 DECODE IN: 13676013 DECODE occupancy: 32.7633 ROB IN: 13675953 ROB occupancy: 235.203 ROB OUT: 13675994
Heartbeat_Variant_0 : 1435 0.175171 per_variant_size: 0 1435 0 0 0 0 0 0 0 
Heartbeat_Variant_1 : 1529 0.186646 per_variant_size: 0 995 534 0 0 0 0 0 0 
Heartbeat_Variant_2 : 1780 0.217285 per_variant_size: 0 996 461 267 56 0 0 0 0 
Heartbeat_Variant_3 : 0 0 per_variant_size: 0 0 0 0 0 0 0 0 0 
Heartbeat_Variant_0_evicts 0 : 5644 1 : 0 2 : 0 3 : 0 
Heartbeat_Variant_1_evicts 0 : 1 1 : 0 2 : 237 3 : 0 
Heartbeat_Variant_2_evicts 0 : 0 1 : 237 2 : 0 3 : 0 
Heartbeat_Variant_3_evicts 0 : 0 1 : 0 2 : 0 3 : 0 
Heartbeat CPU 0 instructions: 100000003 cycles: 50576984 heartbeat IPC: 1.36428 cumulative IPC: 1.36674 (Simulation time: 0 hr 11 min 38 sec) 
Finished CPU 0 instructions: 50000000 cycles: 36583469 cumulative IPC: 1.36674 (Simulation time: 0 hr 11 min 38 sec) 

ChampSim completed all CPUs

Region of Interest Statistics

CPU 0 cumulative IPC: 1.36674 instructions: 50000000 cycles: 36583469
 Fetch stage stalled: 55.0163  Sim cycles: 36583469 fetch stall cycle: 20126859
 Empty decode stage: 36.4871  Sim cycles: 36583469 fetch stall cycle: 13348238
ITLB TOTAL     ACCESS:    6915823  HIT:    6410186  MISS:     505637  HIT %:    92.6887  MISS %:    7.31131   MPKI: 10.1127
ITLB LOAD TRANSLATION INSTRUCTION	ACCESS:    5686338  HIT:    5200208  MISS:     486130  HIT %:    91.4509  MISS %:    8.54909  MPKI: 9.7226
ITLB TRANSLATION FROM L1D PREFETCHER INSTRUCTION	ACCESS:    1229485  HIT:    1209978  MISS:      19507  HIT %:    98.4134  MISS %:     1.5866  MPKI: 0.39014

ITLB AVERAGE MISS LATENCY: 70519.3 cycles
ITLB RQ	ACCESS:   10167596	FORWARD:          0	MERGED:    2775956	TO_CACHE:    7391640

DTLB TOTAL     ACCESS:    8985962  HIT:    8515733  MISS:     470229  HIT %:    94.7671  MISS %:    5.23293   MPKI: 9.40458
DTLB LOAD TRANSLATION DATA	ACCESS:    8985962  HIT:    8515733  MISS:     470229  HIT %:    94.7671  MISS %:    5.23293  MPKI: 9.40458

DTLB AVERAGE MISS LATENCY: 9.38536 cycles
DTLB RQ	ACCESS:   13376681	FORWARD:          0	MERGED:    4352567	TO_CACHE:    9024114

STLB TOTAL     ACCESS:    1226149  HIT:    1223736  MISS:       2413  HIT %:    99.8032  MISS %:   0.196795   MPKI: 0.04826
STLB LOAD TRANSLATION INSTRUCTION	ACCESS:     485036  HIT:     484698  MISS:        338  HIT %:    99.9303  MISS %:  0.0696855  MPKI: 0.00676
STLB TRANSLATION FROM L1D PREFETCHER INSTRUCTION	ACCESS:      20601  HIT:      20536  MISS:         65  HIT %:    99.6845  MISS %:   0.315519  MPKI: 0.0013
STLB LOAD TRANSLATION DATA	ACCESS:     470229  HIT:     468233  MISS:       1996  HIT %:    99.5755  MISS %:   0.424474  MPKI: 0.03992
STLB TRANSLATION FROM L1D PREFETCHER DATA	ACCESS:     250283  HIT:     250269  MISS:         14  HIT %:    99.9944  MISS %: 0.00559367  MPKI: 0.00028

STLB AVERAGE MISS LATENCY: 73.6813 cycles
STLB RQ	ACCESS:    1371308	FORWARD:          0	MERGED:     119173	TO_CACHE:    1252135

STLB Hit, L1D data hit: 0
STLB Hit, L2C data hit: 0
STLB Hit, LLC data hit: 0
STLB Hit, LLC data miss: 0
STLB STLB hints to L2: 0
L1D TOTAL     ACCESS:   13116767  HIT:   11999426  MISS:    1117341  HIT %:    91.4816  MISS %:    8.51842   MPKI: 22.3468
L1D LOAD DATA	ACCESS:    6581498  HIT:    5846152  MISS:     735346  HIT %:    88.8271  MISS %:    11.1729  MPKI: 14.7069
L1D RFO DATA	ACCESS:    6206027  HIT:    5918683  MISS:     287344  HIT %:    95.3699  MISS %:    4.63008  MPKI: 5.74688
L1D PREFETCH DATA	ACCESS:     329242  HIT:     234591  MISS:      94651  HIT %:    71.2518  MISS %:    28.7482  MPKI: 1.89302

L1D PREFETCH  REQUESTED:     739374  ISSUED:     739374  USEFUL:      34228  USELESS:      69006
L1D USEFUL LOAD PREFETCHES:      34228 PREFETCH ISSUED TO LOWER LEVEL:     103347  ACCURACY: 33.1195
 TIMELY PREFETCHES:      34228 LATE PREFETCHES: 8577 DROPPED PREFETCHES: 10
L1D AVERAGE MISS LATENCY: 252210 cycles
L1D RQ	ACCESS:   10703047	FORWARD:          0	MERGED:    3917791	TO_CACHE:    6620029
L1D WQ	ACCESS:    6953840	FORWARD:     165589	MERGED:     197188	TO_CACHE:    6756652
L1D PQ	ACCESS:     369868	FORWARD:          0	MERGED:          0	TO_CACHE:     369506

L1D UNIQUE REGIONS ACCESSED: 0
L1D REGIONS CONFLICTS: 0
L1D Cross Page Prefetch Requests: 5420
L1D Same Page Prefetch Requests: 745267
L1D ROI Sum of L1D PQ occupancy: 4717081
L1D PREFETCHES PUSHED FROM L2C: 0
L1I TOTAL     ACCESS:    8772234  HIT:    5453086  MISS:    3319148  HIT %:     62.163  MISS %:     37.837   MPKI: 66.383
L1I LOAD INSTRUCTION	ACCESS:    6564358  HIT:    4438571  MISS:    2125787  HIT %:    67.6162  MISS %:    32.3838  MPKI: 42.5157
L1I PREFETCH INSTRUCTION	ACCESS:    2207876  HIT:    1014515  MISS:    1193361  HIT %:    45.9498  MISS %:    54.0502  MPKI: 23.8672

L1I PREFETCH  REQUESTED:    3925030  ISSUED:    3922137  USEFUL:     938547  USELESS:     491712
L1I USEFUL LOAD PREFETCHES:     938547 PREFETCH ISSUED TO LOWER LEVEL:    1430255  ACCURACY: 65.621
 TIMELY PREFETCHES:     938547 LATE PREFETCHES: 236894 DROPPED PREFETCHES: 60854
L1I AVERAGE MISS LATENCY: 2.30797e+06 cycles
L1I RQ	ACCESS:    9498847	FORWARD:          0	MERGED:    2719752	TO_CACHE:    6779095
L1I PQ	ACCESS:    3922137	FORWARD:          0	MERGED:     533636	TO_CACHE:    3388501

L1BTB TOTAL     ACCESS:    5671644  HIT:    2040470  MISS:    3631174  HIT %:    35.9767  MISS %:    64.0233   MPKI: 72.6235
L1BTB BRANCH_DIRECT_JUMP	ACCESS:     549181  HIT:     144111  MISS:     405070	AVERAGE STALL: 47.9298
L1BTB BRANCH_INDIRECT	ACCESS:     183354  HIT:      66263  MISS:     117091	AVERAGE STALL: 101.496
L1BTB BRANCH_CONDITIONAL	ACCESS:    2711991  HIT:    1417090  MISS:    1294901	AVERAGE STALL: 63.7114
L1BTB BRANCH_DIRECT_CALL	ACCESS:     942204  HIT:     103880  MISS:     838324	AVERAGE STALL: 89.5952
L1BTB BRANCH_INDIRECT_CALL	ACCESS:     171355  HIT:      20852  MISS:     150503	AVERAGE STALL: 130.766
L1BTB BRANCH_RETURN	ACCESS:    1113559  HIT:     288274  MISS:     825285	AVERAGE STALL: 47.7627
L1BTB BRANCH_OTHER ACCESS:          0  HIT:          0  MISS:          0	AVERAGE STALL: -nan
L1BTB TOTAL ROB OCCUPANCY AT BTB MISS: 3.49337

L2BTB TOTAL     ACCESS:    3605684  HIT:    3527100  MISS:      78584  HIT %:    97.8206  MISS %:    2.17945   MPKI: 1.57168
L2BTB BRANCH_DIRECT_JUMP	ACCESS:     400865  HIT:     395670  MISS:       5195	AVERAGE STALL: 47.9298
L2BTB BRANCH_INDIRECT	ACCESS:     106801  HIT:     104193  MISS:       2608	AVERAGE STALL: 101.496
L2BTB BRANCH_CONDITIONAL	ACCESS:    1294901  HIT:    1280624  MISS:      14277	AVERAGE STALL: 63.7114
L2BTB BRANCH_DIRECT_CALL	ACCESS:     838324  HIT:     837450  MISS:        874	AVERAGE STALL: 89.5952
L2BTB BRANCH_INDIRECT_CALL	ACCESS:     140908  HIT:     130823  MISS:      10085	AVERAGE STALL: 130.766
L2BTB BRANCH_RETURN	ACCESS:     823885  HIT:     778340  MISS:      45545	AVERAGE STALL: 47.7627
L2BTB BRANCH_OTHER ACCESS:          0  HIT:          0  MISS:          0	AVERAGE STALL: -nan
L2BTB TOTAL ROB OCCUPANCY AT BTB MISS: 161.42

L2C TOTAL     ACCESS:    5694150  HIT:    4829673  MISS:     864477  HIT %:    84.8182  MISS %:    15.1818   MPKI: 17.2895
L2C LOAD INSTRUCTION	ACCESS:    1888893  HIT:    1619839  MISS:     269054  HIT %:     85.756  MISS %:     14.244  MPKI: 5.38108
L2C PREFETCH INSTRUCTION	ACCESS:    1430255  HIT:    1240046  MISS:     190209  HIT %:     86.701  MISS %:     13.299  MPKI: 3.80418
L2C LOAD TRANSLATION INSTRUCTION	ACCESS:        384  HIT:        146  MISS:        238  HIT %:    38.0208  MISS %:    61.9792  MPKI: 0.00476
L2C TRANSLATION FROM L1D PREFETCHER INSTRUCTION	ACCESS:      38066  HIT:      26664  MISS:      11402  HIT %:    70.0468  MISS %:    29.9532  MPKI: 0.22804
L2C LOAD DATA	ACCESS:     726740  HIT:     610327  MISS:     116413  HIT %:    83.9815  MISS %:    16.0185  MPKI: 2.32826
L2C RFO DATA	ACCESS:     287180  HIT:     211821  MISS:      75359  HIT %:     73.759  MISS %:     26.241  MPKI: 1.50718
L2C PREFETCH DATA	ACCESS:     795464  HIT:     623654  MISS:     171810  HIT %:    78.4013  MISS %:    21.5987  MPKI: 3.4362
L2C WRITEBACK DATA	ACCESS:     525004  HIT:     496721  MISS:      28283  HIT %:    94.6128  MISS %:     5.3872  MPKI: 0.56566
L2C LOAD TRANSLATION DATA	ACCESS:       2118  HIT:        427  MISS:       1691  HIT %:    20.1605  MISS %:    79.8395  MPKI: 0.03382
L2C TRANSLATION FROM L1D PREFETCHER DATA	ACCESS:         46  HIT:         28  MISS:         18  HIT %:    60.8696  MISS %:    39.1304  MPKI: 0.00036

L2C PREFETCH  REQUESTED:    1497954  ISSUED:    1497954  USEFUL:      28261  USELESS:     347829
L2C USEFUL LOAD PREFETCHES:      28261 PREFETCH ISSUED TO LOWER LEVEL:     363917  ACCURACY: 7.76578
 TIMELY PREFETCHES:      28261 LATE PREFETCHES: 1898 DROPPED PREFETCHES: 0
L2C AVERAGE MISS LATENCY: 35.4213 cycles
L2C RQ	ACCESS:    2943501	FORWARD:          0	MERGED:          0	TO_CACHE:    2943427
L2C WQ	ACCESS:     525004	FORWARD:         75	MERGED:          0	TO_CACHE:     525004
L2C PQ	ACCESS:    3031556	FORWARD:          0	MERGED:     784457	TO_CACHE:    2247098

L2C Dense regions hint from L2: 0
PSCL5 TOTAL     ACCESS:      56724  HIT:      28362  MISS:      28362  HIT %:         50  MISS %:         50   MPKI: 0.56724
PSCL5 LOAD TRANSLATION INSTRUCTION	ACCESS:       4638  HIT:       2319  MISS:       2319  HIT %:         50  MISS %:         50  MPKI: 0.04638
PSCL5 TRANSLATION FROM L1D PREFETCHER INSTRUCTION	ACCESS:      52086  HIT:      26043  MISS:      26043  HIT %:         50  MISS %:         50  MPKI: 0.52086


PSCL4 TOTAL     ACCESS:      53070  HIT:      26528  MISS:      26542  HIT %:    49.9868  MISS %:    50.0132   MPKI: 0.53084
PSCL4 LOAD TRANSLATION INSTRUCTION	ACCESS:       3858  HIT:       2198  MISS:       1660  HIT %:    56.9725  MISS %:    43.0275  MPKI: 0.0332
PSCL4 TRANSLATION FROM L1D PREFETCHER INSTRUCTION	ACCESS:      43078  HIT:      24330  MISS:      18748  HIT %:    56.4789  MISS %:    43.5211  MPKI: 0.37496
PSCL4 LOAD TRANSLATION DATA	ACCESS:        552  HIT:          0  MISS:        552  HIT %:          0  MISS %:        100  MPKI: 0.01104
PSCL4 TRANSLATION FROM L1D PREFETCHER DATA	ACCESS:       5582  HIT:          0  MISS:       5582  HIT %:          0  MISS %:        100  MPKI: 0.11164


PSCL3 TOTAL     ACCESS:      53230  HIT:      26608  MISS:      26622  HIT %:    49.9868  MISS %:    50.0132   MPKI: 0.53244
PSCL3 LOAD TRANSLATION INSTRUCTION	ACCESS:       3938  HIT:       2278  MISS:       1660  HIT %:    57.8466  MISS %:    42.1534  MPKI: 0.0332
PSCL3 TRANSLATION FROM L1D PREFETCHER INSTRUCTION	ACCESS:      43078  HIT:      24330  MISS:      18748  HIT %:    56.4789  MISS %:    43.5211  MPKI: 0.37496
PSCL3 LOAD TRANSLATION DATA	ACCESS:        632  HIT:          0  MISS:        632  HIT %:          0  MISS %:        100  MPKI: 0.01264
PSCL3 TRANSLATION FROM L1D PREFETCHER DATA	ACCESS:       5582  HIT:          0  MISS:       5582  HIT %:          0  MISS %:        100  MPKI: 0.11164


PSCL2 TOTAL     ACCESS:      36493  HIT:      18158  MISS:      18335  HIT %:    49.7575  MISS %:    50.2425   MPKI: 0.3667
PSCL2 LOAD TRANSLATION INSTRUCTION	ACCESS:       2514  HIT:       2158  MISS:        356  HIT %:    85.8393  MISS %:    14.1607  MPKI: 0.00712
PSCL2 TRANSLATION FROM L1D PREFETCHER INSTRUCTION	ACCESS:      31088  HIT:      16000  MISS:      15088  HIT %:    51.4668  MISS %:    48.5332  MPKI: 0.30176
PSCL2 LOAD TRANSLATION DATA	ACCESS:       1979  HIT:          0  MISS:       1979  HIT %:          0  MISS %:        100  MPKI: 0.03958
PSCL2 TRANSLATION FROM L1D PREFETCHER DATA	ACCESS:        912  HIT:          0  MISS:        912  HIT %:          0  MISS %:        100  MPKI: 0.01824


LLC TOTAL     ACCESS:     949987  HIT:     916523  MISS:      33464  HIT %:    96.4774  MISS %:    3.52257   MPKI: 0.66928
LLC LOAD INSTRUCTION	ACCESS:     267797  HIT:     267109  MISS:        688  HIT %:    99.7431  MISS %:   0.256911  MPKI: 0.01376
LLC PREFETCH INSTRUCTION	ACCESS:     188618  HIT:     187400  MISS:       1218  HIT %:    99.3543  MISS %:    0.64575  MPKI: 0.02436
LLC LOAD TRANSLATION INSTRUCTION	ACCESS:        238  HIT:        234  MISS:          4  HIT %:    98.3193  MISS %:    1.68067  MPKI: 8e-05
LLC TRANSLATION FROM L1D PREFETCHER INSTRUCTION	ACCESS:      11402  HIT:      11286  MISS:        116  HIT %:    98.9826  MISS %:    1.01737  MPKI: 0.00232
LLC LOAD DATA	ACCESS:     115848  HIT:     111894  MISS:       3954  HIT %:    96.5869  MISS %:    3.41309  MPKI: 0.07908
LLC RFO DATA	ACCESS:      75271  HIT:      59768  MISS:      15503  HIT %:    79.4038  MISS %:    20.5962  MPKI: 0.31006
LLC PREFETCH DATA	ACCESS:     175297  HIT:     163776  MISS:      11521  HIT %:    93.4277  MISS %:    6.57227  MPKI: 0.23042
LLC WRITEBACK DATA	ACCESS:     113807  HIT:     113455  MISS:        352  HIT %:    99.6907  MISS %:   0.309296  MPKI: 0.00704
LLC LOAD TRANSLATION DATA	ACCESS:       1691  HIT:       1583  MISS:        108  HIT %:    93.6132  MISS %:    6.38675  MPKI: 0.00216
LLC TRANSLATION FROM L1D PREFETCHER DATA	ACCESS:         18  HIT:         18  MISS:          0  HIT %:        100  MISS %:          0  MPKI: 0

LLC AVERAGE MISS LATENCY: 163.976 cycles
LLC RQ	ACCESS:     472277	FORWARD:          0	MERGED:          0	TO_CACHE:     472265
LLC WQ	ACCESS:     113807	FORWARD:         14	MERGED:          0	TO_CACHE:     113807
LLC PQ	ACCESS:     363917	FORWARD:          0	MERGED:          0	TO_CACHE:     363915

LLC Dense regions hint to LLC: 0

RAW hits: 1942548
Loads Generated: 12645595
Loads sent to L1D: 10703047
Stores Generated: 6953832
Stores sent to L1D: 6953840
Major fault: 0 Minor fault: 2563
Allocated PAGES: 2563
I-Shadow cache 408 bytes
Touched + WorthPF tables 12288 bytes 
MMA filter 42 bytes 
FNL filter 272 bytes 
TOTAL PREFETCHER STORAGE SIZE: 19922 bytes
CPU 0 L1I next line prefetcher final stats

stream: 
stream:times selected: 1179824
stream:pref_filled: 120112
stream:pref_useful: 22416
stream:pref_late: 7578
stream:misses: 6786
stream:misses_by_poll: 0

CS: 
CS:times selected: 178009
CS:pref_filled: 55157
CS:pref_useful: 31722
CS:pref_late: 10470
CS:misses: 20770
CS:misses_by_poll: 1

CPLX: 
CPLX:times selected: 1000576
CPLX:pref_filled: 19852
CPLX:pref_useful: 4205
CPLX:pref_late: 3757
CPLX:misses: 91659
CPLX:misses_by_poll: 0

NL_L1: 
NL:times selected: 17516
NL:pref_filled: 581
NL:pref_useful: 220
NL:pref_late: 198
NL:misses: 892
NL:misses_by_poll: 0

total selections: 2375925
total_filled: 94651
total_useful: 34228
total_late: 23400
total_polluted: 1
total_misses_after_warmup: 773876
conflicts: 5548740

test: 114025

DRAM Statistics
 CHANNEL 0
 RQ ROW_BUFFER_HIT:      11574  ROW_BUFFER_MISS:      21524
 DBUS_CONGESTED:          7
 WQ ROW_BUFFER_HIT:       1585  ROW_BUFFER_MISS:      13657  FULL:          0

 AVG_CONGESTED_CYCLE: 5

CPU 0 Branch Prediction Accuracy: 99.8243% MPKI: 0.32112 Average ROB Occupancy at Mispredict: 195.837
Branch types
NOT_BRANCH: 40859813 81.7196%
BRANCH_DIRECT_JUMP: 549181 1.09836%
BRANCH_INDIRECT: 183354 0.366708%
BRANCH_CONDITIONAL: 6180538 12.3611%
BRANCH_DIRECT_CALL: 942204 1.88441%
BRANCH_INDIRECT_CALL: 171355 0.34271%
BRANCH_RETURN: 1113559 2.22712%
BRANCH_OTHER: 0 0%

DRAM PAGES: 1048576
Allocated PAGES: 2563
Average_ROB_Occupancy: 235.162
Average_Decode_Occupancy: 32.5887
Average_FTQ_Occupancy: 12.3358
Indirect max targets: 14 Average targets: 1.15615
Branch_type:  BRANCH_DIRECT_JUMP:  Count Percentage: 3.23397 5.95231 3.6926 9.02189 1.69449 6.27664 1.32028 68.8078 
Branch_type:  BRANCH_INDIRECT:  Count Percentage: 11.7384 3.4706 2.53925 0 2.54089 9.68192 5.88711 64.1418 
Branch_type:  BRANCH_CONDITIONAL:  Count Percentage: 21.0873 2.97019 1.82834 8.41047 1.2291 5.41139 1.28972 57.7735 
Branch_type:  BRANCH_DIRECT_CALL:  Count Percentage: 0.260138 1.78948 1.43425 4.86394 2.16355 2.98577 0.862383 85.6405 
Branch_type:  BRANCH_INDIRECT_CALL:  Count Percentage: 9.56003 0.569351 2.99543 4.85188 0.000583053 2.64444 1.28388 78.0944 
Branch_type:  BRANCH_RETURN:  Count Percentage: 3.1996 1.30512 1.2693 9.33179 2.85939 6.85994 3.27034 71.9045 
Branch_type:  BRANCH_DIRECT_JUMP:  Total Count: 35468 65281 40498 98946 18584 68838 14480 754638 
Branch_type:  BRANCH_INDIRECT:  Total Count: 42941 12696 9289 0 9295 35418 21536 234641 
Branch_type:  BRANCH_CONDITIONAL:  Total Count: 2604524 366854 225822 1038792 151808 668370 159295 7135711 
Branch_type:  BRANCH_DIRECT_CALL:  Total Count: 4916 33817 27104 91917 40886 56424 16297 1618402 
Branch_type:  BRANCH_INDIRECT_CALL:  Total Count: 32793 1953 10275 16643 2 9071 4404 267881 
Branch_type:  BRANCH_RETURN:  Total Count: 71466 29151 28351 208434 63867 153223 73046 1606053 
Number of unique branch instructions: 10121
Upper 32 bits: 
aaaa
ffff
ffff0000
Unique upper 32 bits: 3
Unique upper 36 bits: 3
Unique upper 40 bits: 5
Unique upper 44 bits: 32
Unique upper 48 bits: 156
Variant_0 : 1435 0.175171
Variant_1 : 1529 0.186646
Variant_2 : 1780 0.217285
Variant_3 : 0 0
Offset_3 4173
Offset_4 261
Offset_5 462
Offset_6 519
Offset_7 600
Offset_8 518
Offset_9 486
Offset_10 393
Offset_11 325
Offset_12 283
Offset_13 213
Offset_14 229
Offset_15 192
Offset_16 220
Offset_17 150
Offset_18 118
Offset_19 240
Offset_20 139
Offset_21 261
Offset_22 395
Offset_23 242
Offset_24 344
Offset_25 88
Offset_47 84
Offset_64 2
decode_dispatch_called: 25080965 68.5582
Dispatch_width: 0 13540139 53.9857 37.0116
Dispatch_width: 1 874213 3.48556 2.38964
Dispatch_width: 2 795933 3.17345 2.17566
Dispatch_width: 3 467299 1.86316 1.27735
Dispatch_width: 4 5057127 20.1632 13.8235
Dispatch_width: 5 174008 0.693785 0.475647
Dispatch_width: 6 4172246 16.6351 11.4047
Empty_decode_cycles: 11502504 31.4418
ROB_full_cycles: 8401446 22.9651
Starvation_cycles_per_kilo_instr: 240.098
Starvation_cycles_per_kilo_instr_3: 187.786
Starvation_cycles_per_kilo_instr_0: 166.412
Branch_type_1  (3,1)  (4,8)  (5,38)  (6,71)  (7,117)  (8,132)  (9,130)  (10,102)  (11,71)  (12,43)  (13,8)  (14,2)  (15,3)  (16,4)  (18,1)  (19,4)  (20,2)  (21,1)  (22,3)  (23,2)  (24,10)  (25,12) 
Branch_type_2  (3,1)  (5,1)  (8,3)  (9,3)  (12,1)  (13,1)  (14,1)  (16,3)  (17,2)  (20,2)  (21,2)  (23,5)  (24,1)  (47,38) 
Branch_type_3  (3,4171)  (4,253)  (5,419)  (6,433)  (7,450)  (8,322)  (9,266)  (10,158)  (11,128)  (12,50)  (13,7)  (64,1) 
Branch_type_4  (6,3)  (7,8)  (8,26)  (9,53)  (10,62)  (11,65)  (12,103)  (13,91)  (14,101)  (15,91)  (16,98)  (17,68)  (18,53)  (19,117)  (20,71)  (21,141)  (22,209)  (23,136)  (24,194)  (25,72)  (64,1) 
Branch_type_5  (8,2)  (9,1)  (10,4)  (11,5)  (12,3)  (13,14)  (14,16)  (15,11)  (16,20)  (17,11)  (18,16)  (19,13)  (20,12)  (21,13)  (22,42)  (23,26)  (24,41) 
Branch_type_6  (5,4)  (6,12)  (7,25)  (8,33)  (9,33)  (10,67)  (11,56)  (12,83)  (13,92)  (14,109)  (15,87)  (16,95)  (17,69)  (18,48)  (19,106)  (20,52)  (21,104)  (22,141)  (23,73)  (24,98)  (25,4)  (47,46) 
Unique trigger count: 
Variant_0_evicts_0 : 0
Variant_0_evicts_1 : 0
Variant_0_evicts_2 : 0
Variant_0_evicts_3 : 0
Variant_1_evicts_0 : 0
Variant_1_evicts_1 : 0
Variant_1_evicts_2 : 0
Variant_1_evicts_3 : 0
Variant_2_evicts_0 : 0
Variant_2_evicts_1 : 0
Variant_2_evicts_2 : 0
Variant_2_evicts_3 : 0
Variant_3_evicts_0 : 0
Variant_3_evicts_1 : 0
Variant_3_evicts_2 : 0
Variant_3_evicts_3 : 0
BTB PER SET UNIQUE ADDR: 2 4 3 7 2 3 5 3 2 3 2 3 2 5 2 5 1 3 6 2 2 4 4 3 3 5 2 2 2 4 5 3 2 2 3 4 3 3 2 3 3 4 5 1 2 3 3 3 2 2 3 3 2 2 3 3 3 2 2 3 4 3 2 3 6 1 4 3 5 3 3 3 4 3 3 6 4 3 6 5 6 4 3 6 3 4 4 2 3 2 2 6 3 4 2 1 4 3 2 4 3 4 3 4 2 3 3 2 4 6 6 1 2 3 1 2 4 5 4 6 3 3 5 2 7 3 2 4 3 2 5 2 4 2 4 4 3 1 3 5 3 4 4 4 4 5 5 3 4 4 3 1 4 7 4 3 3 2 6 3 3 4 4 5 4 2 1 4 4 7 4 4 3 1 2 3 2 5 2 2 3 3 3 6 2 1 2 4 4 4 3 1 2 5 1 2 3 4 4 3 4 2 3 2 0 4 2 2 5 5 2 2 5 2 3 4 6 3 2 5 3 5 3 2 5 2 3 4 4 5 1 3 4 5 3 4 2 4 4 4 3 6 3 5 3 3 3 2 6 4 2 3 2 2 3 6 2 3 3 3 4 1 5 2 1 1 5 2 4 5 1 3 3 4 5 3 4 2 2 5 5 2 1 6 2 2 2 2 5 1 2 3 3 3 2 4 2 2 2 3 5 1 3 4 3 2 4 7 5 3 2 3 4 3 4 4 3 2 3 4 6 4 2 2 8 5 2 4 1 6 2 3 2 3 2 3 2 4 3 3 4 5 4 2 2 3 4 2 2 4 3 7 3 2 3 6 3 3 2 3 4 4 2 3 2 4 3 4 3 4 5 6 4 3 2 3 2 2 2 2 2 4 3 3 4 1 3 4 3 5 3 3 2 4 2 4 4 3 3 2 4 5 3 2 2 3 2 2 8 3 3 4 1 3 5 2 3 4 2 3 2 3 4 6 3 2 4 4 1 4 3 2 6 3 3 0 3 2 3 2 3 2 2 1 3 0 2 4 4 5 3 2 2 2 6 1 3 3 5 1 4 3 3 4 1 2 3 1 3 3 3 5 3 4 6 6 1 2 3 5 2 2 3 3 2 3 2 2 3 4 2 2 6 4 5 5 3 3 2 2 3 4 5 2 5 3 3 1 2 2 2 2 3 3 3 5 5 3 3 2 4 4 5 3 3 3 1 3 2 2 6 3 4 2 3 4 4 3 2 3 4 2 5 7 3 4 2 4 4 4 5 4 3 5 5 4 3 1 5 2 1 3 3 3 3 2 3 3 3 2 1 1 1 3 1 3 4 2 3 2 0 4 3 3 4 1 3 2 5 4 3 3 2 2 2 3 5 5 4 3 5 2 3 1 3 3 3 2 3 2 3 4 3 3 1 4 4 4 3 5 4 1 4 2 2 4 2 3 3 5 2 3 4 4 2 2 4 5 4 5 5 4 1 3 4 3 6 3 2 2 2 2 4 2 3 3 2 2 3 2 2 3 2 5 2 2 4 3 3 3 5 1 3 4 5 2 2 4 3 3 3 7 2 2 4 3 3 5 5 2 3 2 4 3 4 3 4 2 3 4 4 2 2 2 3 3 2 4 3 4 4 2 2 3 4 3 4 4 3 2 4 4 2 3 3 3 4 2 2 6 3 2 4 3 3 1 7 4 2 3 5 9 3 6 5 2 7 2 2 4 6 5 2 3 3 5 2 2 1 2 5 2 4 4 3 3 4 5 2 6 2 3 0 3 2 2 5 4 1 3 3 3 3 2 5 6 2 2 6 2 3 4 3 5 4 3 8 1 2 3 4 5 3 2 4 2 4 3 3 3 4 1 0 2 3 3 3 2 1 2 5 4 4 1 4 2 3 2 3 3 2 5 3 3 4 2 5 4 3 2 0 4 2 3 4 4 5 3 2 3 7 3 2 3 3 2 4 5 3 2 3 4 4 3 4 4 6 2 4 3 4 1 3 3 2 3 2 4 1 3 3 4 2 1 1 3 2 3 4 1 6 1 1 2 3 4 1 5 2 2 4 4 3 4 3 2 3 4 5 5 5 3 3 3 3 4 2 2 4 3 2 2 3 5 1 1 5 4 2 2 6 6 3 3 2 4 4 4 2 2 4 5 4 3 4 2 4 2 3 4 4 5 4 2 7 3 4 6 2 2 3 2 4 3 3 1 6 2 2 3 4 1 2 6 3 4 3 2 4 2 3 3 3 6 4 2 3 2 3 3 4 2 2 4 5 2 2 4 1 3 5 4 4 2 3 4 4 4 2 2 4 5 3 4 2 2 2 4 5 4 2 4 4 4 6 3 4 4 4 3 1 3 3 4 3 1 6 4 2 4 5 5 3 4 4 2 3 5 2 3 1 5 5 3 2 5 3 3 2 2 3 5 2 2 1 4 4 3 5 4 2 4 2 5 3 5 2 2 3 5 3 2 3 4 3 3 3 2 3 6 2 6 5 5 4 3 3 3 4 3 4 4 4 10 4 3 1 6 2 2 3 5 2 1 5 3 4 5 4 5 4 7 3 5 2 5 3 5 3 1 6 3 4 3 3 2 4 3 4 3 4 5 2 2 3 3 2 3 3 2 3 5 2 3 2 2 5 3 2 3 5 1 5 3 3 3 2 4 5 4 6 5 4 4 1 6 4 3 2 4 5 2 4 3 1 3 5 1 2 6 3 3 1 1 3 4 3 3 4 1 2 2 1 2 7 2 4 1 5 2 4 2 2 4 1 5 3 2 3 3 4 1 4 6 4 4 2 3 3 3 3 3 3 2 2 3 2 2 2 4 3 3 7 3 3 2 4 3 2 4 3 4 4 2 2 2 2 2 3 4 3 2 2 4 2 2 4 3 3 6 3 3 6 2 2 4 1 3 2 3 5 3 6 2 3 5 4 1 3 5 8 2 4 6 3 4 5 5 4 3 2 5 3 6 4 2 2 3 3 4 5 6 4 2 4 2 5 1 2 4 1 4 3 1 2 2 2 4 6 4 2 3 6 3 3 4 6 1 3 4 3 4 2 5 3 8 2 4 8 3 3 3 3 6 3 2 2 2 2 3 4 4 3 7 4 3 2 3 3 4 4 2 1 5 2 5 2 4 2 4 2 2 1 2 4 2 4 5 2 1 2 3 2 5 1 4 2 4 3 5 3 4 5 3 2 2 4 4 3 4 2 3 3 3 6 2 1 1 1 2 4 3 7 6 5 2 3 5 3 5 3 2 4 3 2 5 4 6 5 3 4 2 1 2 3 6 3 4 4 4 2 3 2 2 3 4 2 5 4 4 3 1 5 3 2 5 4 2 1 4 2 2 5 3 4 2 2 2 5 8 3 4 4 4 4 3 6 2 4 2 4 2 2 7 4 5 2 3 3 1 5 3 3 7 4 1 2 1 5 3 3 5 3 3 1 2 4 6 4 8 4 2 3 6 2 2 5 3 4 3 2 4 4 2 3 4 4 2 1 2 5 2 3 4 4 7 3 3 4 3 2 5 1 3 3 3 2 3 3 2 2 6 2 5 1 2 5 5 4 4 5 3 4 5 2 4 4 2 4 3 3 3 3 3 3 2 4 4 3 4 3 3 3 3 4 2 3 2 3 4 4 3 2 2 4 3 5 3 3 3 2 4 4 2 2 3 5 4 1 1 2 4 2 5 4 3 3 3 2 3 3 3 3 3 3 3 3 4 4 4 4 4 3 1 2 6 1 2 3 3 5 3 2 1 4 2 3 5 4 3 3 3 3 4 3 3 2 4 3 1 4 3 3 2 3 3 3 2 5 3 3 4 4 2 1 1 2 4 6 4 2 3 1 2 2 2 4 3 3 2 3 4 3 0 3 2 2 1 3 3 1 1 3 7 4 2 4 2 3 1 2 3 4 3 3 5 2 1 4 2 2 3 2 4 6 2 3 5 4 1 5 3 3 4 3 4 3 5 3 3 5 4 4 3 3 2 1 3 3 4 3 4 2 5 2 2 2 3 2 2 1 4 5 6 2 5 3 6 4 5 2 7 2 5 6 4 2 4 1 2 3 2 3 1 3 4 4 3 4 4 2 2 2 5 1 2 3 1 3 1 3 2 6 2 3 1 3 2 1 3 1 3 4 4 5 4 2 2 3 1 3 4 2 1 3 5 6 2 3 1 3 3 3 2 4 2 2 4 4 2 2 3 3 4 6 2 3 3 5 4 2 3 5 4 2 2 2 4 3 1 2 2 2 2 2 6 3 4 3 3 2 5 4 2 4 5 3 3 2 1 2 2 2 2 3 5 2 3 2 5 3 1 2 4 2 2 3 0 4 6 0 3 3 3 2 3 4 3 3 2 5 4 4 2 3 3 2 1 4 2 1 2 3 7 3 4 4 3 2 5 3 4 5 4 2 2 4 2 4 2 2 5 5 3 4 6 2 3 1 4 3 8 3 6 3 3 3 3 3 3 3 5 6 2 4 3 5 3 3 5 4 5 3 3 4 2 3 5 2 3 4 3 3 2 3 4 4 3 1 2 1 3 2 6 4 3 1 1 3 3 1 1 2 4 2 2 4 3 3 2 3 3 3 4 3 3 4 1 4 4 2 3 3 3 4 3 5 2 4 5 3 3 1 1 2 2 6 4 
BTB PER SET COUNT: 2 3419 2953 2997 18 624 563 4621 509 3 2 137 8 696 2 1869 1 3 4586 3 728 4 59 29 515 3484 2 2 5 1465 7 5 7 5 20 4 3 3 2 3 490 3439 3689 1 2185 3219 732 980 2 2 3 3 1423 2 3 54 3 980 10 3661 8 1965 2 1407 4417 1 879 244 2515 5 3 3 5 1442 246 5149 1965 2528 4213 6 3425 837 3 2844 437 4 1011 2 31 977 2 440 3 283 1711 1 6 3 36 4 3 636 3 1454 16 3 4 981 4 1989 1615 346 2 1350 487 2 4 7 547 2166 35 20 3982 1897 3281 91 2467 4 3 2 3151 2 1714 488 4420 4 1749 385 3 980 19 1194 1718 1968 1458 12 510 703 6 24 3 521 1971 277 529 3 3 977 1897 432 335 190 1002 4293 2304 2 1 1600 2833 2430 1555 426 4 1 618 533 2 2819 490 2 3 3 3 1501 2 1 491 4 573 247 4 6 2 1000 971 2 483 1116 4 885 246 2 7 2 0 5 4 329 3607 1958 5 710 1098 370 3 4 27 993 2 2339 1054 5096 27 2182 1467 2 1574 184 3053 648 1837 2934 521 1952 2560 2240 1153 439 4 2015 724 3066 1281 3410 1483 3 10768 61 1929 4 2 93 2 494 1432 191 1960 3 3 485 2058 1 2646 2 1 1 804 1469 4 1431 1 3 7 4 5 3 1935 2 977 1929 907 2 1 314 2 2 2 121 636 1 11 1958 3 361 4289 4387 1467 490 6 1470 4610 1 985 4897 1172 240 5412 2814 4422 1100 979 3 59 3 7028 5 3 2 490 4 5024 4 2 2 4572 1011 12 9 1 2621 9 5 490 3 1467 3 2 1862 1470 3 1217 986 632 45 2926 28 3139 2 512 4 3 58 3 474 212 554 3 1014 377 11 5 504 2 3 2 5 368 9 19 481 6794 1728 2330 3 1480 3 2 2 2 2 1722 1804 3 14 1021 488 5 4740 1470 276 3 1514 620 5 2 4 5662 3 1023 2 542 397 3 928 2 8 2 2 1516 1465 17 90 1 1465 749 2 979 433 2 907 2 3 2512 3960 3 282 4 363 2981 9 3 2 1825 3 3 0 515 3 4089 500 3 2 682 1 833 0 2 80 246 2256 4 244 1465 3 1278 1 3 65 2220 1 2197 71 750 492 10 2 3 2931 3 491 4296 1985 1459 1467 4130 1477 1 2 9 1591 2 1471 4516 1474 2039 490 1556 735 3 362 985 1471 2896 5 2405 110 3 2308 260 491 1467 4 1463 1472 1024 3 1193 1 2 159 2 2 2438 1951 2445 5 995 1969 18 1450 4 4 1489 1727 3 3 1 779 32 2 4017 3 4 494 3 400 2974 1573 4 479 2297 1243 9 488 243 6476 489 1326 1610 3863 1473 4 978 1613 517 1791 3 1 5608 5 976 27 3 4 1485 4 3 1404 3 3 1 1 1 495 966 2449 2939 2 3 7 0 38 383 5 5 1 7 1465 501 3392 7 3 2 2 3 3871 6076 6 731 1130 5 586 4 1 1451 1915 4 41 3 246 3 4 3 1468 1 942 4 5 3 20 488 1 501 2 482 4 2 1445 6 1968 2 3 40 1536 2 2 6 2068 958 3308 22 1472 1 5 1961 491 566 3870 2 953 2 18 4 1956 3 424 3901 1450 3 1582 2 2299 484 1192 244 2 5848 2445 11 19 64 1 3 4 21 2 2 982 3 3 577 580 3 2 7 1297 3 6 10 2 5 2 1416 4 1488 375 4 3 3 4 4 2 15 2450 1509 491 2 43 3 280 1362 6 2 3 2199 518 3389 546 491 2 533 4 3 53 2454 3 4 6 2669 3012 3 2 1471 3 1457 1 4106 8 2 1486 1959 5980 1095 1753 1723 2 2362 2 3 4 1273 600 2 3 1954 472 2 2 21 2 1190 2 191 5766 510 24 30 3516 667 5078 2 4 0 1506 1466 38 5 4 1 244 77 578 1272 2 3007 1058 1358 2 260 4 5 26 2801 368 499 3 660 1 2 552 1990 3014 1958 2 2215 2 4893 4 3934 605 4086 1928 0 1033 3 350 6 1334 1 2 212 4 30 2 4 589 3 1927 3 1492 5601 1944 3 1181 514 3 2350 3910 376 2 0 3515 3 5 1978 4 2211 12 1421 3 4094 3 232 6 4 2 4 7261 1473 15 1017 1025 4 10 1477 7 4174 2 1344 976 23 13 1436 3 1462 8 2 1849 1 885 1228 4 34 1 4 3 145 3 274 1 5350 1 1464 244 5 6 1 218 2913 85 982 97 3675 4 3 1961 3424 855 3472 4490 988 3289 3 3 1967 4 1471 2 2798 3 4368 3 4 1562 1 366 4130 6 3 667 4417 2748 3 133 729 1509 4 1228 2 2 14 3173 471 5 4 2 4361 943 2418 116 18 3778 492 2 4000 3 2517 14 2189 2 3 2 4 3 1078 1 3560 2 990 3 4756 1 2 1479 987 1457 987 2 4234 301 1971 1243 1215 3135 1019 988 559 1995 10 3 15 3 2 1706 476 19 2 3465 33 877 5 8 661 2 374 4 4 4 3 2 4 6 11 517 2 884 139 4 1878 1017 2 43 2541 43 1917 3 2205 573 4 3 1 1470 3 280 7 547 988 4 2 2225 7 2203 2484 4 2284 1943 1470 1121 230 3 236 5 259 666 18 2715 19 3 2 37 21 2924 25 2 1 6 991 3 1462 1726 2 2253 2 3020 992 1472 1657 7 3 10 3 1233 4 1969 3 2377 1233 2 12 5949 2 734 3339 1478 6 1491 490 1187 2126 1944 14 9 10 6066 898 155 7 2743 5 489 3 5 522 1 1582 18 2057 1542 2817 41 1447 10 740 77 1181 2969 231 17 25 1 1989 3 2547 512 3 2 2008 4 6 198 508 7 2583 2 3 1397 3 978 4 719 94 2872 1262 3 483 2449 7 3 621 3 3440 3 1959 8 4 485 2364 105 713 5 3232 683 8 4 1 3944 1156 39 5 16 2110 2 1452 1946 1 3 3717 1 1015 830 2852 3 167 1 3109 7 1465 3 1094 1 2 2 1472 8 567 2 4 624 3839 1038 1944 864 2 4 1 1044 3 490 124 316 530 1 1008 1462 1808 4 2 3 3 25 1275 867 1036 2 32 1473 1415 653 326 1969 1476 3 1482 628 499 2 4 3 2 503 242 1971 4 2 1465 2 8 493 985 237 14 1921 753 4 3 1187 5 3 2739 1533 3 3 31 2 2 2563 1 251 2 4 2166 65 1077 45 3 1742 443 2 3 5 2690 2 1092 987 246 19 396 1771 1689 3 3 948 3 1749 1470 6 2 3 3 1455 2718 2892 4 2 5 5 1962 1 3 4 1 128 429 1 2 1468 489 2228 1712 913 2 3 1716 1412 3 4 3257 1 11 3813 1471 401 2 540 3 2049 3 8 4328 490 58 955 1957 4362 1163 6 2192 2 2 241 2343 1390 620 507 1454 3 2 3 4 1837 242 2 1 678 2 3440 2 324 3 1980 76 2 233 982 4 17 4111 3519 4 1 2 3 2 5 240 457 2 678 2231 2642 3 5 987 50 2 32 28 2289 7 1875 2 3 3 4 4610 2 1 1 1 5 4 1750 2057 1720 1770 2 1084 5 3 2407 3 3 4 4 2 4411 4 1065 462 982 496 427 1 2240 3 7223 3 4 4 4 2 3 2 2 1465 4 41 1992 4 4 85 240 9 3 2 3747 494 2 1 4 2 3 1189 3 425 2 2 1763 595 4286 4 14 4 841 940 155 2439 3 493 3 938 2 2 880 129 1357 3 1704 657 1 2194 3 1957 3247 4 490 2 1 1020 4 905 2306 3 30 968 2 1443 1432 4452 4753 9 3 1550 4017 2 2 1634 977 2466 4248 2 1539 77 1458 3 4 203 170 1 3 2515 2444 3 503 6815 4068 3 3 63 62 2 219 1 7 3 3206 239 4 6 2 6 2837 2 2996 1 315 10068 997 992 1716 1475 1460 985 4119 582 869 2917 2 4 432 51 3 1252 3353 3 966 1085 982 2564 1992 273 1134 1237 3 1958 5 1476 2 982 992 4 3 2 1468 12 25 1047 3 5 3 490 2995 705 2 2 1473 145 13 1 1 2 50 2 2603 504 1493 3 1466 2731 3 3 3 741 1597 241 3 267 7 4 4 3269 97 3 1 2 4377 1 2 2174 60 4698 2366 967 2 13 3 970 233 4175 10 3 2183 3 2501 2474 4 2 9 4 1 41 1379 169 2 47 3 3 103 1129 3 3 2956 62 1454 141 1 2 4 6049 250 2 19 1 67 2 1451 1077 3 3917 2 4 3183 3 0 1862 2 219 1 2463 982 1 1 483 2200 1905 1467 244 477 43 1 1962 324 4 1468 246 5 2 737 668 2 2632 3 1566 337 776 3 744 3373 48 1 5 735 4 1468 3 4 2454 2822 3 16 21 568 4 994 2055 510 1 3 544 813 3 1964 51 6 491 2 3 2752 730 2 1 2144 2495 955 2 87 3 3555 6 3473 242 6030 31 984 4303 4 52 1050 1963 2 929 1647 1833 1 1417 970 2648 7 4193 11 1832 6 2 2438 1 2 1220 980 3 488 5 501 7414 3 3249 1 236 3 1 7 1 968 58 4 2527 44 490 2 1490 134 1127 2695 10 1 1275 994 20 2 3 1 978 3 41 2 1021 490 33 4712 28 263 2 3 267 14 6435 3 71 2793 2218 10 1959 3 1341 6 2 2 2 1990 20561 1 5 4 748 4 2 7 3 1955 135 980 514 965 3112 2 583 6 12 479 2 1 2 2 3 78 3 161 4 3 2915 2297 14682 1 2 2594 383 2476 158 0 2639 6 0 1469 3 38 3 3 1156 982 4125 2 6 2721 492 2 23 3 12 254 242 2 1 2 3 4174 260 1470 4 1238 2 122 3 1133 4403 957 21 2 7 36 1059 490 1355 1933 6898 406 5 5609 644 602 1 4 7 4268 1421 3373 3 488 1982 978 1921 6908 3851 763 209 2 2196 94 2964 148 1019 811 8845 1363 5 3 4 22 2977 251 2 3 2576 3 3 2 501 997 2728 2502 978 978 1 3 866 7 981 3 1349 1 3 3 977 486 2 17 2 4 519 3 1498 1472 27 14 5 4 3 3581 3545 1 2863 4 3 471 5 758 4 4 737 2 1028 2085 27 1526 1 1 489 2 76 2691 
To predecode: 1193361
Predecoding something: 751297
Predecode request dropped: 0
sizeofblock_0 0
sizeofblock_1 562300
sizeofblock_2 520147
sizeofblock_3 543011
sizeofblock_4 101968
sizeofblock_5 0
sizeofblock_6 0
sizeofblock_7 0
sizeofblock_8 0
