
*** ChampSim Multicore Out-of-Order Simulator ***

Warmup Instructions: 50000000
Simulation Instructions: 50000000
Number of CPUs: 1
LLC sets: 2048
LLC ways: 16
Off-chip DRAM Size: 4096 MB Channels: 1 Width: 64-bit Data Rate: 6400 MT/s
CPU 0 runs ./micro_traces/srv725.trace.gz
.gz
ITLB has LRU replacement policy
DTLB has LRU replacement policy
STLB has LRU replacement policy
FDIP Prefetcher at L1I
L1I has LRU replacement policy
L1D has LRU replacement policy
Initialize SRRIP state for L2C
Initialize DRRIP state for LLC
Heartbeat_Variant_0 : 1293 0.315674 per_variant_size: 0 1293 0 0 0 0 0 0 0 
Heartbeat_Variant_1 : 2471 0.603271 per_variant_size: 0 595 1876 0 0 0 0 0 0 
Heartbeat_Variant_2 : 0 0 per_variant_size: 0 0 0 0 0 0 0 0 0 
Heartbeat_Variant_3 : 0 0 per_variant_size: 0 0 0 0 0 0 0 0 0 
Heartbeat_Variant_0_evicts 0 : 5739 1 : 312 2 : 0 3 : 0 
Heartbeat_Variant_1_evicts 0 : 292 1 : 0 2 : 0 3 : 0 
Heartbeat_Variant_2_evicts 0 : 0 1 : 0 2 : 0 3 : 0 
Heartbeat_Variant_3_evicts 0 : 0 1 : 0 2 : 0 3 : 0 
Heartbeat CPU 0 instructions: 10000003 cycles: 2797572 heartbeat IPC: 3.57453 cumulative IPC: 3.57453 (Simulation time: 0 hr 1 min 30 sec) 
Heartbeat_Variant_0 : 1296 0.316406 per_variant_size: 0 1296 0 0 0 0 0 0 0 
Heartbeat_Variant_1 : 2476 0.604492 per_variant_size: 0 587 1889 0 0 0 0 0 0 
Heartbeat_Variant_2 : 0 0 per_variant_size: 0 0 0 0 0 0 0 0 0 
Heartbeat_Variant_3 : 0 0 per_variant_size: 0 0 0 0 0 0 0 0 0 
Heartbeat_Variant_0_evicts 0 : 5560 1 : 9 2 : 0 3 : 0 
Heartbeat_Variant_1_evicts 0 : 8 1 : 0 2 : 0 3 : 0 
Heartbeat_Variant_2_evicts 0 : 0 1 : 0 2 : 0 3 : 0 
Heartbeat_Variant_3_evicts 0 : 0 1 : 0 2 : 0 3 : 0 
Heartbeat CPU 0 instructions: 20000000 cycles: 5593233 heartbeat IPC: 3.57697 cumulative IPC: 3.57575 (Simulation time: 0 hr 3 min 0 sec) 
Heartbeat_Variant_0 : 1352 0.330078 per_variant_size: 0 1352 0 0 0 0 0 0 0 
Heartbeat_Variant_1 : 2590 0.632324 per_variant_size: 0 490 2100 0 0 0 0 0 0 
Heartbeat_Variant_2 : 0 0 per_variant_size: 0 0 0 0 0 0 0 0 0 
Heartbeat_Variant_3 : 0 0 per_variant_size: 0 0 0 0 0 0 0 0 0 
Heartbeat_Variant_0_evicts 0 : 5821 1 : 374 2 : 0 3 : 0 
Heartbeat_Variant_1_evicts 0 : 369 1 : 0 2 : 0 3 : 0 
Heartbeat_Variant_2_evicts 0 : 0 1 : 0 2 : 0 3 : 0 
Heartbeat_Variant_3_evicts 0 : 0 1 : 0 2 : 0 3 : 0 
Heartbeat CPU 0 instructions: 30000002 cycles: 8389499 heartbeat IPC: 3.5762 cumulative IPC: 3.5759 (Simulation time: 0 hr 4 min 32 sec) 
Heartbeat_Variant_0 : 1354 0.330566 per_variant_size: 0 1354 0 0 0 0 0 0 0 
Heartbeat_Variant_1 : 2597 0.634033 per_variant_size: 0 490 2107 0 0 0 0 0 0 
Heartbeat_Variant_2 : 0 0 per_variant_size: 0 0 0 0 0 0 0 0 0 
Heartbeat_Variant_3 : 0 0 per_variant_size: 0 0 0 0 0 0 0 0 0 
Heartbeat_Variant_0_evicts 0 : 5567 1 : 11 2 : 0 3 : 0 
Heartbeat_Variant_1_evicts 0 : 13 1 : 0 2 : 0 3 : 0 
Heartbeat_Variant_2_evicts 0 : 0 1 : 0 2 : 0 3 : 0 
Heartbeat_Variant_3_evicts 0 : 0 1 : 0 2 : 0 3 : 0 
Heartbeat CPU 0 instructions: 40000001 cycles: 11186811 heartbeat IPC: 3.57486 cumulative IPC: 3.57564 (Simulation time: 0 hr 6 min 3 sec) 
Heartbeat_Variant_0 : 1365 0.333252 per_variant_size: 0 1365 0 0 0 0 0 0 0 
Heartbeat_Variant_1 : 2625 0.640869 per_variant_size: 0 481 2144 0 0 0 0 0 0 
Heartbeat_Variant_2 : 0 0 per_variant_size: 0 0 0 0 0 0 0 0 0 
Heartbeat_Variant_3 : 0 0 per_variant_size: 0 0 0 0 0 0 0 0 0 
Heartbeat_Variant_0_evicts 0 : 5668 1 : 217 2 : 0 3 : 0 
Heartbeat_Variant_1_evicts 0 : 210 1 : 0 2 : 0 3 : 0 
Heartbeat_Variant_2_evicts 0 : 0 1 : 0 2 : 0 3 : 0 
Heartbeat_Variant_3_evicts 0 : 0 1 : 0 2 : 0 3 : 0 
Heartbeat CPU 0 instructions: 50000001 cycles: 13983906 heartbeat IPC: 3.57514 cumulative IPC: 3.57554 (Simulation time: 0 hr 7 min 32 sec) 

Warmup complete CPU 0 instructions: 50000001 cycles: 13983906 (Simulation time: 0 hr 7 min 32 sec) 

Cycle: 20000000 FTQ IN: 58465414 FTQ occupancy: 20.9502 DECODE IN: 58465316 DECODE occupancy: 54.1645 ROB IN: 58465256 ROB occupancy: 320.689 ROB OUT: 58464907
Heartbeat_Variant_0 : 1360 0.332031 per_variant_size: 0 1360 0 0 0 0 0 0 0 
Heartbeat_Variant_1 : 2656 0.648438 per_variant_size: 0 449 2207 0 0 0 0 0 0 
Heartbeat_Variant_2 : 0 0 per_variant_size: 0 0 0 0 0 0 0 0 0 
Heartbeat_Variant_3 : 0 0 per_variant_size: 0 0 0 0 0 0 0 0 0 
Heartbeat_Variant_0_evicts 0 : 5352 1 : 215 2 : 0 3 : 0 
Heartbeat_Variant_1_evicts 0 : 227 1 : 0 2 : 0 3 : 0 
Heartbeat_Variant_2_evicts 0 : 0 1 : 0 2 : 0 3 : 0 
Heartbeat_Variant_3_evicts 0 : 0 1 : 0 2 : 0 3 : 0 
Heartbeat CPU 0 instructions: 60000002 cycles: 21101753 heartbeat IPC: 1.40492 cumulative IPC: 1.40492 (Simulation time: 0 hr 9 min 17 sec) 
Heartbeat_Variant_0 : 1381 0.337158 per_variant_size: 0 1381 0 0 0 0 0 0 0 
Heartbeat_Variant_1 : 2660 0.649414 per_variant_size: 0 434 2226 0 0 0 0 0 0 
Heartbeat_Variant_2 : 0 0 per_variant_size: 0 0 0 0 0 0 0 0 0 
Heartbeat_Variant_3 : 0 0 per_variant_size: 0 0 0 0 0 0 0 0 0 
Heartbeat_Variant_0_evicts 0 : 5785 1 : 291 2 : 0 3 : 0 
Heartbeat_Variant_1_evicts 0 : 276 1 : 0 2 : 0 3 : 0 
Heartbeat_Variant_2_evicts 0 : 0 1 : 0 2 : 0 3 : 0 
Heartbeat_Variant_3_evicts 0 : 0 1 : 0 2 : 0 3 : 0 
Heartbeat CPU 0 instructions: 70000003 cycles: 28326691 heartbeat IPC: 1.3841 cumulative IPC: 1.39443 (Simulation time: 0 hr 11 min 2 sec) 
Cycle: 30000000 FTQ IN: 13877155 FTQ occupancy: 15.9623 DECODE IN: 13877253 DECODE occupancy: 39.5826 ROB IN: 13877313 ROB occupancy: 252.911 ROB OUT: 13877645
Heartbeat_Variant_0 : 1386 0.338379 per_variant_size: 0 1386 0 0 0 0 0 0 0 
Heartbeat_Variant_1 : 2659 0.64917 per_variant_size: 0 445 2214 0 0 0 0 0 0 
Heartbeat_Variant_2 : 0 0 per_variant_size: 0 0 0 0 0 0 0 0 0 
Heartbeat_Variant_3 : 0 0 per_variant_size: 0 0 0 0 0 0 0 0 0 
Heartbeat_Variant_0_evicts 0 : 5590 1 : 240 2 : 0 3 : 0 
Heartbeat_Variant_1_evicts 0 : 235 1 : 0 2 : 0 3 : 0 
Heartbeat_Variant_2_evicts 0 : 0 1 : 0 2 : 0 3 : 0 
Heartbeat_Variant_3_evicts 0 : 0 1 : 0 2 : 0 3 : 0 
Heartbeat CPU 0 instructions: 80000001 cycles: 35517574 heartbeat IPC: 1.39065 cumulative IPC: 1.39317 (Simulation time: 0 hr 12 min 49 sec) 
Cycle: 40000000 FTQ IN: 13955753 FTQ occupancy: 16.0629 DECODE IN: 13955623 DECODE occupancy: 39.9318 ROB IN: 13955623 ROB occupancy: 253.023 ROB OUT: 13955535
Heartbeat_Variant_0 : 1384 0.337891 per_variant_size: 0 1384 0 0 0 0 0 0 0 
Heartbeat_Variant_1 : 2661 0.649658 per_variant_size: 0 436 2225 0 0 0 0 0 0 
Heartbeat_Variant_2 : 0 0 per_variant_size: 0 0 0 0 0 0 0 0 0 
Heartbeat_Variant_3 : 0 0 per_variant_size: 0 0 0 0 0 0 0 0 0 
Heartbeat_Variant_0_evicts 0 : 5689 1 : 14 2 : 0 3 : 0 
Heartbeat_Variant_1_evicts 0 : 16 1 : 0 2 : 0 3 : 0 
Heartbeat_Variant_2_evicts 0 : 0 1 : 0 2 : 0 3 : 0 
Heartbeat_Variant_3_evicts 0 : 0 1 : 0 2 : 0 3 : 0 
Heartbeat CPU 0 instructions: 90000003 cycles: 42634919 heartbeat IPC: 1.40502 cumulative IPC: 1.39611 (Simulation time: 0 hr 14 min 34 sec) 
Heartbeat_Variant_0 : 1388 0.338867 per_variant_size: 0 1388 0 0 0 0 0 0 0 
Heartbeat_Variant_1 : 2668 0.651367 per_variant_size: 0 431 2237 0 0 0 0 0 0 
Heartbeat_Variant_2 : 0 0 per_variant_size: 0 0 0 0 0 0 0 0 0 
Heartbeat_Variant_3 : 0 0 per_variant_size: 0 0 0 0 0 0 0 0 0 
Heartbeat_Variant_0_evicts 0 : 5795 1 : 293 2 : 0 3 : 0 
Heartbeat_Variant_1_evicts 0 : 292 1 : 0 2 : 0 3 : 0 
Heartbeat_Variant_2_evicts 0 : 0 1 : 0 2 : 0 3 : 0 
Heartbeat_Variant_3_evicts 0 : 0 1 : 0 2 : 0 3 : 0 
Heartbeat CPU 0 instructions: 100000001 cycles: 49866681 heartbeat IPC: 1.38279 cumulative IPC: 1.39343 (Simulation time: 0 hr 16 min 19 sec) 
Finished CPU 0 instructions: 50000000 cycles: 35882775 cumulative IPC: 1.39343 (Simulation time: 0 hr 16 min 19 sec) 

ChampSim completed all CPUs

Region of Interest Statistics

CPU 0 cumulative IPC: 1.39343 instructions: 50000000 cycles: 35882775
 Fetch stage stalled: 38.0954  Sim cycles: 35882775 fetch stall cycle: 13669685
 Empty decode stage: 20.6184  Sim cycles: 35882775 fetch stall cycle: 7398439
ITLB TOTAL     ACCESS:    5871354  HIT:    5385454  MISS:     485900  HIT %:    91.7242  MISS %:    8.27577   MPKI: 9.718
ITLB LOAD TRANSLATION INSTRUCTION	ACCESS:    5719907  HIT:    5234007  MISS:     485900  HIT %:    91.5051  MISS %:    8.49489  MPKI: 9.718
ITLB TRANSLATION FROM L1D PREFETCHER INSTRUCTION	ACCESS:     151447  HIT:     151447  MISS:          0  HIT %:        100  MISS %:          0  MPKI: 0

ITLB AVERAGE MISS LATENCY: 9.07749 cycles
ITLB RQ	ACCESS:    7915695	FORWARD:          0	MERGED:    1529590	TO_CACHE:    6386105

DTLB TOTAL     ACCESS:    8968200  HIT:    8503325  MISS:     464875  HIT %:    94.8164  MISS %:    5.18359   MPKI: 9.2975
DTLB LOAD TRANSLATION DATA	ACCESS:    8968200  HIT:    8503325  MISS:     464875  HIT %:    94.8164  MISS %:    5.18359  MPKI: 9.2975

DTLB AVERAGE MISS LATENCY: 9.34599 cycles
DTLB RQ	ACCESS:   13339284	FORWARD:          0	MERGED:    4334885	TO_CACHE:    9004399

STLB TOTAL     ACCESS:    1196328  HIT:    1193963  MISS:       2365  HIT %:    99.8023  MISS %:   0.197688   MPKI: 0.0473
STLB LOAD TRANSLATION INSTRUCTION	ACCESS:     485900  HIT:     485425  MISS:        475  HIT %:    99.9022  MISS %:  0.0977567  MPKI: 0.0095
STLB LOAD TRANSLATION DATA	ACCESS:     464875  HIT:     463012  MISS:       1863  HIT %:    99.5992  MISS %:   0.400753  MPKI: 0.03726
STLB TRANSLATION FROM L1D PREFETCHER DATA	ACCESS:     245553  HIT:     245526  MISS:         27  HIT %:     99.989  MISS %:  0.0109956  MPKI: 0.00054

STLB AVERAGE MISS LATENCY: 72.1184 cycles
STLB RQ	ACCESS:    1313245	FORWARD:          0	MERGED:     116877	TO_CACHE:    1196368

STLB Hit, L1D data hit: 0
STLB Hit, L2C data hit: 0
STLB Hit, LLC data hit: 0
STLB Hit, LLC data miss: 0
STLB STLB hints to L2: 0
L1D TOTAL     ACCESS:   13095688  HIT:   12001785  MISS:    1093903  HIT %:    91.6468  MISS %:    8.35315   MPKI: 21.8781
L1D LOAD DATA	ACCESS:    6551809  HIT:    5832401  MISS:     719408  HIT %:    89.0197  MISS %:    10.9803  MPKI: 14.3882
L1D RFO DATA	ACCESS:    6218886  HIT:    5937541  MISS:     281345  HIT %:     95.476  MISS %:    4.52404  MPKI: 5.6269
L1D PREFETCH DATA	ACCESS:     324993  HIT:     231843  MISS:      93150  HIT %:    71.3378  MISS %:    28.6622  MPKI: 1.863

L1D PREFETCH  REQUESTED:     725312  ISSUED:     725312  USEFUL:      32447  USELESS:      67947
L1D USEFUL LOAD PREFETCHES:      32447 PREFETCH ISSUED TO LOWER LEVEL:     100407  ACCURACY: 32.3155
 TIMELY PREFETCHES:      32447 LATE PREFETCHES: 7227 DROPPED PREFETCHES: 10
L1D AVERAGE MISS LATENCY: 215711 cycles
L1D RQ	ACCESS:   10697529	FORWARD:          0	MERGED:    3944120	TO_CACHE:    6587632
L1D WQ	ACCESS:    6954111	FORWARD:     166149	MERGED:     202459	TO_CACHE:    6751652
L1D PQ	ACCESS:     362842	FORWARD:          0	MERGED:          0	TO_CACHE:     362470

L1D UNIQUE REGIONS ACCESSED: 0
L1D REGIONS CONFLICTS: 0
L1D Cross Page Prefetch Requests: 5909
L1D Same Page Prefetch Requests: 735819
L1D ROI Sum of L1D PQ occupancy: 4625413
L1D PREFETCHES PUSHED FROM L2C: 0
L1I TOTAL     ACCESS:    7116818  HIT:    4393136  MISS:    2723682  HIT %:    61.7289  MISS %:    38.2711   MPKI: 54.4736
L1I LOAD INSTRUCTION	ACCESS:    6443539  HIT:    3719857  MISS:    2723682  HIT %:      57.73  MISS %:      42.27  MPKI: 54.4736
L1I PREFETCH INSTRUCTION	ACCESS:     673279  HIT:     673279  MISS:          0  HIT %:        100  MISS %:          0  MPKI: 0

L1I PREFETCH  REQUESTED:    1612964  ISSUED:    1612964  USEFUL:          0  USELESS:          0
L1I USEFUL LOAD PREFETCHES:          0 PREFETCH ISSUED TO LOWER LEVEL:          0  ACCURACY: -nan
 TIMELY PREFETCHES:          0 LATE PREFETCHES: 0 DROPPED PREFETCHES: 0
L1I AVERAGE MISS LATENCY: 17.3835 cycles
L1I RQ	ACCESS:    9660359	FORWARD:          0	MERGED:    2936074	TO_CACHE:    6724285
L1I PQ	ACCESS:    1612964	FORWARD:          0	MERGED:     421554	TO_CACHE:    1191410

L1BTB TOTAL     ACCESS:    5682616  HIT:    2089791  MISS:    3592825  HIT %:    36.7752  MISS %:    63.2248   MPKI: 71.8565
L1BTB BRANCH_DIRECT_JUMP	ACCESS:     547468 HIT:     147486 MISS:     399982 AVERAGE STALL: 61.0352 AVERAGE FETCH STALL: 14.2833 AVERAGE FETCH QUEUE STALL: 23.3198 AVERAGE DECODE STALL: 22.5151 AVERAGE EXECUTE STALL: 2.12251e+15
L1BTB BRANCH_INDIRECT	ACCESS:     181664 HIT:      65234 MISS:     116430 AVERAGE STALL: 118.431 AVERAGE FETCH STALL: 10.8362 AVERAGE FETCH QUEUE STALL: 22.7336 AVERAGE DECODE STALL: 14.1906 AVERAGE EXECUTE STALL: 69.7094
L1BTB BRANCH_CONDITIONAL	ACCESS:    2709846 HIT:    1430699 MISS:    1279147 AVERAGE STALL: 80.432 AVERAGE FETCH STALL: 22.9117 AVERAGE FETCH QUEUE STALL: 34.14 AVERAGE DECODE STALL: 22.5792 AVERAGE EXECUTE STALL: 2.7048e+15
L1BTB BRANCH_DIRECT_CALL	ACCESS:     950230 HIT:     118513 MISS:     831717 AVERAGE STALL: 71.8231 AVERAGE FETCH STALL: 25.1773 AVERAGE FETCH QUEUE STALL: 26.6036 AVERAGE DECODE STALL: 19.3133 AVERAGE EXECUTE STALL: 6.81446e+15
L1BTB BRANCH_INDIRECT_CALL	ACCESS:     171577 HIT:      23407 MISS:     148170 AVERAGE STALL: 148.951 AVERAGE FETCH STALL: 12.3864 AVERAGE FETCH QUEUE STALL: 20.8722 AVERAGE DECODE STALL: 13.1834 AVERAGE EXECUTE STALL: 102.018
L1BTB BRANCH_RETURN	ACCESS:    1121831 HIT:     304452 MISS:     817379 AVERAGE STALL: 54.6283 AVERAGE FETCH STALL: 17.3797 AVERAGE FETCH QUEUE STALL: 8.08146 AVERAGE DECODE STALL: 7.07136 AVERAGE EXECUTE STALL: 4.26544e+14
L1BTB BRANCH_OTHER ACCESS:          0 HIT:          0 MISS:          0 AVERAGE STALL: -nan AVERAGE FETCH STALL: -nan AVERAGE FETCH QUEUE STALL: -nan AVERAGE DECODE STALL: -nan AVERAGE EXECUTE STALL: -nan
L1BTB TOTAL ROB OCCUPANCY AT BTB MISS: 3.02226

L2BTB TOTAL     ACCESS:    3567721  HIT:    3498745  MISS:      68976  HIT %:    98.0667  MISS %:    1.93334   MPKI: 1.37952
L2BTB BRANCH_DIRECT_JUMP	ACCESS:     395842 HIT:     391272 MISS:       4570 AVERAGE STALL: 61.0352 AVERAGE FETCH STALL: 14.2833 AVERAGE FETCH QUEUE STALL: 23.3198 AVERAGE DECODE STALL: 22.5151 AVERAGE EXECUTE STALL: 2.12251e+15
L2BTB BRANCH_INDIRECT	ACCESS:     106311 HIT:     103660 MISS:       2651 AVERAGE STALL: 118.431 AVERAGE FETCH STALL: 10.8362 AVERAGE FETCH QUEUE STALL: 22.7336 AVERAGE DECODE STALL: 14.1906 AVERAGE EXECUTE STALL: 69.7094
L2BTB BRANCH_CONDITIONAL	ACCESS:    1279147 HIT:    1272234 MISS:       6913 AVERAGE STALL: 80.432 AVERAGE FETCH STALL: 22.9117 AVERAGE FETCH QUEUE STALL: 34.14 AVERAGE DECODE STALL: 22.5792 AVERAGE EXECUTE STALL: 2.7048e+15
L2BTB BRANCH_DIRECT_CALL	ACCESS:     831717 HIT:     828958 MISS:       2759 AVERAGE STALL: 71.8231 AVERAGE FETCH STALL: 25.1773 AVERAGE FETCH QUEUE STALL: 26.6036 AVERAGE DECODE STALL: 19.3133 AVERAGE EXECUTE STALL: 6.81446e+15
L2BTB BRANCH_INDIRECT_CALL	ACCESS:     138721 HIT:     128528 MISS:      10193 AVERAGE STALL: 148.951 AVERAGE FETCH STALL: 12.3864 AVERAGE FETCH QUEUE STALL: 20.8722 AVERAGE DECODE STALL: 13.1834 AVERAGE EXECUTE STALL: 102.018
L2BTB BRANCH_RETURN	ACCESS:     815983 HIT:     774093 MISS:      41890 AVERAGE STALL: 54.6283 AVERAGE FETCH STALL: 17.3797 AVERAGE FETCH QUEUE STALL: 8.08146 AVERAGE DECODE STALL: 7.07136 AVERAGE EXECUTE STALL: 4.26544e+14
L2BTB BRANCH_OTHER ACCESS:          0 HIT:          0 MISS:          0 AVERAGE STALL: -nan AVERAGE FETCH STALL: -nan AVERAGE FETCH QUEUE STALL: -nan AVERAGE DECODE STALL: -nan AVERAGE EXECUTE STALL: -nan
L2BTB TOTAL ROB OCCUPANCY AT BTB MISS: 157.423

L2C TOTAL     ACCESS:    4418343  HIT:    3933287  MISS:     485056  HIT %:    89.0218  MISS %:    10.9782   MPKI: 9.70112
L2C LOAD INSTRUCTION	ACCESS:    2723682  HIT:    2460896  MISS:     262786  HIT %:    90.3518  MISS %:    9.64819  MPKI: 5.25572
L2C LOAD TRANSLATION INSTRUCTION	ACCESS:        530  HIT:        213  MISS:        317  HIT %:    40.1887  MISS %:    59.8113  MPKI: 0.00634
L2C LOAD DATA	ACCESS:     712145  HIT:     634376  MISS:      77769  HIT %:    89.0796  MISS %:    10.9204  MPKI: 1.55538
L2C RFO DATA	ACCESS:     281284  HIT:     227984  MISS:      53300  HIT %:    81.0512  MISS %:    18.9488  MPKI: 1.066
L2C PREFETCH DATA	ACCESS:     185152  HIT:     111391  MISS:      73761  HIT %:    60.1619  MISS %:    39.8381  MPKI: 1.47522
L2C WRITEBACK DATA	ACCESS:     513524  HIT:     497813  MISS:      15711  HIT %:    96.9406  MISS %:    3.05945  MPKI: 0.31422
L2C LOAD TRANSLATION DATA	ACCESS:       1973  HIT:        578  MISS:       1395  HIT %:    29.2955  MISS %:    70.7045  MPKI: 0.0279
L2C TRANSLATION FROM L1D PREFETCHER DATA	ACCESS:         53  HIT:         36  MISS:         17  HIT %:    67.9245  MISS %:    32.0755  MPKI: 0.00034

L2C PREFETCH  REQUESTED:      92806  ISSUED:      92806  USEFUL:       7562  USELESS:      66759
L2C USEFUL LOAD PREFETCHES:       7562 PREFETCH ISSUED TO LOWER LEVEL:      74225  ACCURACY: 10.1879
 TIMELY PREFETCHES:       7562 LATE PREFETCHES: 464 DROPPED PREFETCHES: 0
L2C AVERAGE MISS LATENCY: 38.6935 cycles
L2C RQ	ACCESS:    3719734	FORWARD:          0	MERGED:          0	TO_CACHE:    3719668
L2C WQ	ACCESS:     513524	FORWARD:         66	MERGED:          0	TO_CACHE:     513524
L2C PQ	ACCESS:     193213	FORWARD:          0	MERGED:       3595	TO_CACHE:     189618

L2C Dense regions hint from L2: 0
PSCL5 TOTAL     ACCESS:       4750  HIT:       2375  MISS:       2375  HIT %:         50  MISS %:         50   MPKI: 0.0475
PSCL5 LOAD TRANSLATION INSTRUCTION	ACCESS:       4644  HIT:       2322  MISS:       2322  HIT %:         50  MISS %:         50  MPKI: 0.04644
PSCL5 TRANSLATION FROM L1D PREFETCHER INSTRUCTION	ACCESS:        106  HIT:         53  MISS:         53  HIT %:         50  MISS %:         50  MPKI: 0.00106


PSCL4 TOTAL     ACCESS:       3764  HIT:       1878  MISS:       1886  HIT %:    49.8937  MISS %:    50.1063   MPKI: 0.03772
PSCL4 LOAD TRANSLATION INSTRUCTION	ACCESS:       2020  HIT:       1839  MISS:        181  HIT %:    91.0396  MISS %:     8.9604  MPKI: 0.00362
PSCL4 TRANSLATION FROM L1D PREFETCHER INSTRUCTION	ACCESS:         39  HIT:         39  MISS:          0  HIT %:        100  MISS %:          0  MPKI: 0
PSCL4 LOAD TRANSLATION DATA	ACCESS:       1666  HIT:          0  MISS:       1666  HIT %:          0  MISS %:        100  MPKI: 0.03332
PSCL4 TRANSLATION FROM L1D PREFETCHER DATA	ACCESS:         39  HIT:          0  MISS:         39  HIT %:          0  MISS %:        100  MPKI: 0.00078


PSCL3 TOTAL     ACCESS:       4514  HIT:       2245  MISS:       2269  HIT %:    49.7342  MISS %:    50.2658   MPKI: 0.04538
PSCL3 LOAD TRANSLATION INSTRUCTION	ACCESS:       3653  HIT:       2205  MISS:       1448  HIT %:    60.3613  MISS %:    39.6387  MPKI: 0.02896
PSCL3 TRANSLATION FROM L1D PREFETCHER INSTRUCTION	ACCESS:         64  HIT:         40  MISS:         24  HIT %:       62.5  MISS %:       37.5  MPKI: 0.00048
PSCL3 LOAD TRANSLATION DATA	ACCESS:        781  HIT:          0  MISS:        781  HIT %:          0  MISS %:        100  MPKI: 0.01562
PSCL3 TRANSLATION FROM L1D PREFETCHER DATA	ACCESS:         16  HIT:          0  MISS:         16  HIT %:          0  MISS %:        100  MPKI: 0.00032


PSCL2 TOTAL     ACCESS:       4595  HIT:       2220  MISS:       2375  HIT %:    48.3134  MISS %:    51.6866   MPKI: 0.0475
PSCL2 LOAD TRANSLATION INSTRUCTION	ACCESS:       2642  HIT:       2167  MISS:        475  HIT %:    82.0212  MISS %:    17.9788  MPKI: 0.0095
PSCL2 TRANSLATION FROM L1D PREFETCHER INSTRUCTION	ACCESS:         53  HIT:         53  MISS:          0  HIT %:        100  MISS %:          0  MPKI: 0
PSCL2 LOAD TRANSLATION DATA	ACCESS:       1847  HIT:          0  MISS:       1847  HIT %:          0  MISS %:        100  MPKI: 0.03694
PSCL2 TRANSLATION FROM L1D PREFETCHER DATA	ACCESS:         53  HIT:          0  MISS:         53  HIT %:          0  MISS %:        100  MPKI: 0.00106


LLC TOTAL     ACCESS:     545546  HIT:     515955  MISS:      29591  HIT %:    94.5759  MISS %:    5.42411   MPKI: 0.59182
LLC LOAD INSTRUCTION	ACCESS:     262786  HIT:     261672  MISS:       1114  HIT %:    99.5761  MISS %:   0.423919  MPKI: 0.02228
LLC LOAD TRANSLATION INSTRUCTION	ACCESS:        317  HIT:        273  MISS:         44  HIT %:    86.1199  MISS %:    13.8801  MPKI: 0.00088
LLC LOAD DATA	ACCESS:      77331  HIT:      73809  MISS:       3522  HIT %:    95.4456  MISS %:    4.55445  MPKI: 0.07044
LLC RFO DATA	ACCESS:      53253  HIT:      38808  MISS:      14445  HIT %:    72.8748  MISS %:    27.1252  MPKI: 0.2889
LLC PREFETCH DATA	ACCESS:      74225  HIT:      64205  MISS:      10020  HIT %:    86.5005  MISS %:    13.4995  MPKI: 0.2004
LLC WRITEBACK DATA	ACCESS:      76222  HIT:      75876  MISS:        346  HIT %:    99.5461  MISS %:   0.453937  MPKI: 0.00692
LLC LOAD TRANSLATION DATA	ACCESS:       1395  HIT:       1295  MISS:        100  HIT %:    92.8315  MISS %:    7.16846  MPKI: 0.002
LLC TRANSLATION FROM L1D PREFETCHER DATA	ACCESS:         17  HIT:         17  MISS:          0  HIT %:        100  MISS %:          0  MPKI: 0

LLC AVERAGE MISS LATENCY: 157.209 cycles
LLC RQ	ACCESS:     395120	FORWARD:          0	MERGED:          0	TO_CACHE:     395099
LLC WQ	ACCESS:      76222	FORWARD:         21	MERGED:          0	TO_CACHE:      76222
LLC PQ	ACCESS:      74225	FORWARD:          0	MERGED:          0	TO_CACHE:      74225

LLC Dense regions hint to LLC: 0

RAW hits: 1960768
Loads Generated: 12658298
Loads sent to L1D: 10697529
Stores Generated: 6954106
Stores sent to L1D: 6954111
Major fault: 0 Minor fault: 2551
Allocated PAGES: 2551

stream: 
stream:times selected: 1171560
stream:pref_filled: 121597
stream:pref_useful: 23785
stream:pref_late: 6382
stream:misses: 6679
stream:misses_by_poll: 0

CS: 
CS:times selected: 173017
CS:pref_filled: 57331
CS:pref_useful: 34243
CS:pref_late: 6380
CS:misses: 15501
CS:misses_by_poll: 3

CPLX: 
CPLX:times selected: 997442
CPLX:pref_filled: 19394
CPLX:pref_useful: 4389
CPLX:pref_late: 3014
CPLX:misses: 89882
CPLX:misses_by_poll: 1

NL_L1: 
NL:times selected: 19044
NL:pref_filled: 550
NL:pref_useful: 228
NL:pref_late: 173
NL:misses: 996
NL:misses_by_poll: 0

total selections: 2361063
total_filled: 93150
total_useful: 32447
total_late: 17275
total_polluted: 4
total_misses_after_warmup: 755235
conflicts: 5533716

test: 115151

DRAM Statistics
 CHANNEL 0
 RQ ROW_BUFFER_HIT:      11176  ROW_BUFFER_MISS:      18061
 DBUS_CONGESTED:         10
 WQ ROW_BUFFER_HIT:       1524  ROW_BUFFER_MISS:      12340  FULL:          0

 AVG_CONGESTED_CYCLE: 6

CPU 0 Branch Prediction Accuracy: 99.8174% MPKI: 0.3343 Average ROB Occupancy at Mispredict: 190.317
Branch types
NOT_BRANCH: 40845560 81.6911%
BRANCH_DIRECT_JUMP: 547468 1.09494%
BRANCH_INDIRECT: 181664 0.363328%
BRANCH_CONDITIONAL: 6181653 12.3633%
BRANCH_DIRECT_CALL: 950230 1.90046%
BRANCH_INDIRECT_CALL: 171577 0.343154%
BRANCH_RETURN: 1121831 2.24366%
BRANCH_OTHER: 0 0%

DRAM PAGES: 1048576
Allocated PAGES: 2551
Average_ROB_Occupancy: 254.404
Average_Decode_Occupancy: 39.8455
Average_FTQ_Occupancy: 16.0461
Indirect max targets: 14 Average targets: 1.15772
Branch_type:  BRANCH_DIRECT_JUMP:  Count Percentage: 3.28522 6.60305 3.64701 2.96782 2.22078 6.48184 2.04066 72.7536 
Branch_type:  BRANCH_INDIRECT:  Count Percentage: 11.708 3.45372 2.52352 9.6456 3.33981 2.80596 2.41263 64.1108 
Branch_type:  BRANCH_CONDITIONAL:  Count Percentage: 20.8755 3.14807 3.20216 3.00942 1.39424 4.77044 4.03829 59.5619 
Branch_type:  BRANCH_DIRECT_CALL:  Count Percentage: 0.383299 1.74878 1.62175 1.93568 2.55343 2.82467 1.1859 87.7465 
Branch_type:  BRANCH_INDIRECT_CALL:  Count Percentage: 9.5011 0 2.97721 0.00378484 0 2.20336 1.28277 84.0318 
Branch_type:  BRANCH_RETURN:  Count Percentage: 3.90943 1.97979 0.71452 3.61676 2.06839 5.53115 4.17202 78.008 
Branch_type:  BRANCH_DIRECT_JUMP:  Total Count: 35968 72293 39929 32493 24314 70966 22342 796538 
Branch_type:  BRANCH_INDIRECT:  Total Count: 42656 12583 9194 35142 12168 10223 8790 233576 
Branch_type:  BRANCH_CONDITIONAL:  Total Count: 2578445 388836 395517 371710 172210 589224 498792 7356831 
Branch_type:  BRANCH_DIRECT_CALL:  Total Count: 7272 33178 30768 36724 48444 53590 22499 1664738 
Branch_type:  BRANCH_INDIRECT_CALL:  Total Count: 32634 0 10226 13 0 7568 4406 288629 
Branch_type:  BRANCH_RETURN:  Total Count: 87630 44377 16016 81070 46363 123981 93516 1748553 
Number of unique branch instructions: 10213
Upper 32 bits: 
aaaa
ffff
ffff0000
Unique upper 32 bits: 3
Unique upper 36 bits: 3
Unique upper 40 bits: 5
Unique upper 44 bits: 32
Unique upper 48 bits: 156
Variant_0 : 1388 0.338867
Variant_1 : 2668 0.651367
Variant_2 : 0 0
Variant_3 : 0 0
Offset_3 4212
Offset_4 256
Offset_5 465
Offset_6 516
Offset_7 619
Offset_8 525
Offset_9 481
Offset_10 398
Offset_11 326
Offset_12 285
Offset_13 216
Offset_14 244
Offset_15 190
Offset_16 225
Offset_17 155
Offset_18 125
Offset_19 256
Offset_20 139
Offset_21 235
Offset_22 404
Offset_23 242
Offset_24 333
Offset_25 95
Offset_47 84
Offset_64 2
decode_dispatch_called: 26702758 74.4166
Dispatch_width: 0 14475515 54.2098 40.3411
Dispatch_width: 1 1039670 3.89349 2.89741
Dispatch_width: 2 846222 3.16904 2.3583
Dispatch_width: 3 492033 1.84263 1.37122
Dispatch_width: 4 6606622 24.7413 18.4117
Dispatch_width: 5 90877 0.340328 0.253261
Dispatch_width: 6 3151819 11.8033 8.78365
Empty_decode_cycles: 9180017 25.5834
ROB_full_cycles: 10603994 29.5518
Starvation_cycles_per_kilo_instr: 221.27
Starvation_cycles_per_kilo_instr_3: 154.295
Starvation_cycles_per_kilo_instr_0: 130.515
Branch_type_1  (3,1)  (4,9)  (5,38)  (6,72)  (7,121)  (8,129)  (9,126)  (10,101)  (11,69)  (12,43)  (13,8)  (14,2)  (15,3)  (16,4)  (18,1)  (19,4)  (20,2)  (21,1)  (22,3)  (23,2)  (24,10)  (25,13) 
Branch_type_2  (3,1)  (4,1)  (5,1)  (8,3)  (9,3)  (12,1)  (13,1)  (14,1)  (16,3)  (17,2)  (20,2)  (21,2)  (23,5)  (24,1)  (47,38) 
Branch_type_3  (3,4210)  (4,246)  (5,422)  (6,429)  (7,467)  (8,329)  (9,257)  (10,161)  (11,126)  (12,50)  (13,7)  (64,2) 
Branch_type_4  (6,3)  (7,8)  (8,25)  (9,57)  (10,64)  (11,66)  (12,106)  (13,92)  (14,108)  (15,90)  (16,100)  (17,72)  (18,57)  (19,126)  (20,72)  (21,124)  (22,214)  (23,136)  (24,193)  (25,78) 
Branch_type_5  (8,2)  (9,1)  (10,4)  (11,6)  (12,3)  (13,14)  (14,17)  (15,11)  (16,20)  (17,11)  (18,16)  (19,13)  (20,11)  (21,13)  (22,42)  (23,26)  (24,37) 
Branch_type_6  (5,4)  (6,12)  (7,23)  (8,37)  (9,37)  (10,68)  (11,59)  (12,82)  (13,94)  (14,116)  (15,86)  (16,98)  (17,70)  (18,51)  (19,113)  (20,52)  (21,95)  (22,145)  (23,73)  (24,92)  (25,4)  (47,46) 
Unique trigger count: 
Variant_0_evicts_0 : 0
Variant_0_evicts_1 : 0
Variant_0_evicts_2 : 0
Variant_0_evicts_3 : 0
Variant_1_evicts_0 : 0
Variant_1_evicts_1 : 0
Variant_1_evicts_2 : 0
Variant_1_evicts_3 : 0
Variant_2_evicts_0 : 0
Variant_2_evicts_1 : 0
Variant_2_evicts_2 : 0
Variant_2_evicts_3 : 0
Variant_3_evicts_0 : 0
Variant_3_evicts_1 : 0
Variant_3_evicts_2 : 0
Variant_3_evicts_3 : 0
BTB PER SET UNIQUE ADDR: 9 13 10 13 13 11 11 17 10 9 12 14 11 11 11 7 10 12 12 8 14 12 11 17 9 15 10 12 15 8 13 12 15 7 9 9 11 13 5 11 10 11 14 16 10 11 11 9 9 11 13 10 14 10 14 5 9 13 7 8 14 12 8 9 11 13 11 9 12 13 13 9 10 6 9 7 8 14 10 14 11 8 11 18 12 8 9 12 7 18 9 8 13 13 9 10 7 9 14 13 13 11 10 11 12 11 10 12 8 10 11 12 14 9 9 9 11 10 11 13 15 8 8 9 11 14 5 10 15 10 6 12 11 15 9 13 9 7 9 18 9 11 9 10 10 7 11 7 7 11 14 11 9 10 10 16 12 12 10 8 12 12 15 15 14 12 15 8 6 10 11 13 12 15 12 10 8 12 11 10 10 10 10 15 12 15 8 13 11 10 12 13 11 15 13 9 5 11 9 12 7 11 10 9 10 12 11 11 12 16 9 12 9 11 8 10 11 13 13 18 7 11 9 9 7 11 14 11 8 13 13 9 9 11 9 13 14 10 14 8 14 10 13 12 9 9 11 10 13 13 14 15 14 16 15 15 6 10 12 13 11 9 7 14 12 9 10 9 10 12 8 15 11 7 8 7 13 16 13 12 9 15 8 10 10 7 9 11 15 15 13 6 15 13 10 11 10 8 13 16 12 15 10 14 11 13 16 12 16 12 9 13 8 19 12 7 10 11 13 14 11 14 7 11 10 12 12 9 8 7 12 11 11 10 8 7 5 10 5 13 7 13 8 10 10 11 7 10 11 11 15 10 11 11 12 11 9 10 10 12 10 14 8 15 8 9 6 8 13 10 12 10 13 12 10 14 8 13 11 11 14 6 8 11 13 10 12 13 8 7 8 9 13 15 6 9 10 12 15 14 12 12 10 17 14 12 13 11 9 11 16 8 9 15 11 8 11 8 20 14 10 7 10 8 15 10 10 13 10 10 19 11 10 10 14 12 11 11 8 11 12 14 8 11 12 9 9 17 17 12 11 11 13 10 12 17 17 13 6 14 10 13 14 14 11 11 12 10 12 11 12 14 12 11 12 13 10 14 10 4 9 13 10 11 9 16 12 13 10 12 13 12 8 6 14 9 17 13 10 13 10 11 10 12 11 12 8 15 14 15 11 14 12 14 9 13 5 11 8 8 11 8 11 13 9 12 15 8 6 14 11 12 19 9 15 12 6 14 10 12 10 10 12 9 15 11 8 13 9 13 12 8 11 13 11 14 11 12 16 15 15 17 7 13 12 14 10 16 13 16 11 15 15 12 10 12 15 12 8 14 12 11 8 10 12 15 9 15 14 10 10 11 8 9 11 10 9 12 8 11 11 7 10 8 9 13 17 11 13 10 11 8 13 9 5 10 11 12 11 14 13 11 8 10 11 8 9 17 9 9 12 11 12 14 10 10 10 14 5 12 9 8 10 17 13 12 7 17 16 10 10 12 11 6 10 11 8 13 10 12 14 7 13 16 12 14 11 12 12 11 13 10 12 12 15 13 17 15 15 15 13 14 11 14 11 17 11 13 13 12 13 16 13 6 12 11 11 14 8 12 7 11 12 8 10 16 13 8 10 10 11 14 11 10 7 8 13 11 9 13 9 13 9 9 9 13 9 11 9 11 16 11 14 11 12 15 16 16 13 14 7 15 11 9 19 14 10 10 10 11 12 11 14 10 9 9 18 9 10 9 14 8 6 9 15 17 10 13 13 10 10 13 11 7 12 9 12 10 11 11 8 11 12 8 8 9 13 9 11 6 6 8 16 9 14 12 11 11 12 8 13 13 14 15 12 12 13 11 14 9 7 16 13 16 9 8 19 12 8 13 14 15 6 13 17 13 8 8 12 15 12 16 12 11 7 9 13 12 10 12 14 15 7 12 10 12 12 17 10 13 9 7 8 8 11 13 13 10 14 12 12 9 9 7 13 8 12 9 14 7 11 14 15 11 12 9 10 10 7 12 12 7 12 10 14 11 13 12 13 12 12 11 12 8 10 13 11 9 9 8 12 11 11 12 8 10 10 14 14 15 13 9 8 10 12 8 12 12 8 11 10 13 12 11 6 7 7 17 11 10 15 16 14 11 12 11 9 14 16 10 5 11 11 9 9 10 12 13 9 10 11 13 9 13 9 15 11 13 16 12 13 9 9 13 13 9 10 10 8 15 11 11 12 10 12 12 15 13 12 13 15 17 12 9 9 14 16 9 10 9 12 13 11 12 13 7 10 13 12 12 14 16 11 12 9 15 10 12 9 16 13 11 8 8 10 12 6 9 8 12 10 9 8 9 
BTB PER SET COUNT: 982 14 1954 16 17 12 1375 287 330 11 17 15 130 25 15 8 18 16 17 8 19 129 495 392 10 25 13 14 18 11 18 14 22 8 12 493 13 21 5 1319 12 15 17 25 11 12 18 10 10 15 15 12 15 23 19 406 11 17 454 11 14 18 12 11 15 259 13 1156 18 15 1458 15 13 6 11 7 11 1185 16 25 14 14 956 20 16 35 9 15 1436 20 13 9 21 14 9 10 1461 15 23 22 18 52 11 13 788 13 17 14 8 2240 13 17 269 10 14 312 13 15 1475 399 28 8 12 12 16 155 5 14 22 982 6 4394 412 20 102 16 766 7 10 32 14 19 11 10 11 12 259 9 12 16 20 252 979 15 13 25 15 16 18 8 18 16 19 27 341 28 22 9 6 1761 17 13 17 28 17 14 8 15 16 410 15 135 592 18 13 380 8 16 17 51 26 13 12 26 15 10 6 981 11 28 8 12 986 10 13 17 17 17 988 1486 12 19 12 9355 10 986 13 16 2134 24 20 15 606 9 7 30 19 17 673 17 18 9 15 17 741 20420 24 486 23 10 1459 18 17 979 12 12 16 12 461 15 17 22 22 23 20 23 49 12 12 24 15 10 7 28 20 12 13 16 333 17 10 22 665 7 17 7 15 25 17 20 15 21 643 978 13 8 13 12 19 19 18 6 22 18 14 13 12 17 20 337 15 18 10 16 18 22 66 322 21 552 987 17 8 26 1956 975 12 21 20 29 14 2332 7 15 1033 14 468 9 10 11 21 15 28 13 8 9 10 967 5 49 7 2268 11 12 18 15 7 15 16 100 19 1475 17 21 12 13 10 12 11 16 13 15 9 21 12 1934 6 8 21 11 17 418 20 16 557 17 9 22 18 17 969 7 9 11 14 11 327 13 8 9 13 12 21 921 8 467 10 18 911 2242 14 16 11 21 20 23 21 320 12 17 353 12 11 139 17 10 13 67 22 18 12 10 14 9 20 13 18 26 18 11 37 13 12 13 192 19 12 38 8 17 291 25 39 13 18 14 706 30 25 15 19 2918 20 16 18 433 24 14 6 16 10 221 24 18 13 47 16 10 22 17 15 23 16 15 23 20 13 34 16 5 9 17 11 12 14 321 18 19 12 199 16 19 10 9 21 10 912 542 10 21 11 13 10 134 21 15 10 18 18 18 16 234 538 603 12 15 5 14 12 8 17 9 12 255 9 14 617 1474 7 2079 17 20 273 14 18 14 6 19 10 136 12 11 35 12 34 13 9 24 17 45 19 10 11 20 15 21 14 15 24 24 22 61 7 16 21 20 87 28 16 126 19 23 21 21 10 18 39 15 9 22 13 15 10 1419 14 26 42 33 21 10 11 11 10 10 12 12 14 16 10 11 15 7 13 12 10 18 28 366 18 13 24 10 46 12 5 13 18 32 12 37 22 17 20 11 14 8 14 24 12 465 18 342 16 20 13 13 13 988 6 190 17 12 11 234 953 132 493 23 32 11 13 16 11 11 11 301 8 17 345 17 21 7 15 22 23 23 17 1575 1237 18 20 12 992 22 22 22 29 27 17 30 16 17 312 22 798 24 18 20 36 28 15 26 20 6 2569 17 415 897 15 13 774 19 818 9 12 27 20 9 11 12 405 19 1144 13 10 139 1044 17 12 18 9 188 9 27 12 17 10 13 977 2780 93 19 20 12 13 1897 345 22 20 18 7 25 15 19 599 25 10 11 14 18 13 16 22 13 17 12 28 1228 15 11 20 8 6 14 29 25 16 17 18 83 11 134 18 7 12 10 16 867 15 13 1460 14 686 8 8 12 18 9 11 9 6 776 27 11 663 15 171 13 15 1307 16 21 23 18 261 16 16 18 19 12 9 8087 14 24 9 31 653 1913 12 19 16 1115 6 16 1020 24 15 9 13 18 17 27 17 18 40 17 27 528 11 384 23 28 11 21 1279 21 181 22 13 5285 890 9 8 11 13 14 15 13 18 13 24 14 12 11 25 12 14 12 17 8 495 26 18 16 20 10 21 13 7 15 18 9 156 13 28 1435 17 16 17 354 16 794 1169 10 21 18 12 11 16 8 18 11 12 977 9 12 13 22 122 25 120 332 13 10 17 8 551 446 13 71 16 344 14 13 6 7 9 21 14 11 24 23 398 23 81 12 9 18 22 12 6 15 19 11 10 406 21 15 12 14 19 16 14 72 9 15 11 18 36 16 363 9 9 16 20 13 1471 10 8 25 16 14 19 12 15 16 19 14 26 14 18 24 17 991 11 756 23 11 15 10 16 1477 13 33 1485 7 14 1126 13 12 19 26 13 13 15 212 15 15 9 20 365 18 10 10 11 14 11 21 10 19 13 206 10 9 
To predecode: 0
Predecoding something: 0
Predecode request dropped: 0
sizeofblock_0 0
sizeofblock_1 59296
sizeofblock_2 82274
sizeofblock_3 0
sizeofblock_4 0
sizeofblock_5 0
sizeofblock_6 0
sizeofblock_7 0
sizeofblock_8 0
Variant_0 Correct: 1609497 Incorrect: 0 Accuracy: 1
Variant_1 Correct: 5710989 Incorrect: 0 Accuracy: 1
Variant_2 Correct: 0 Incorrect: 0 Accuracy: -nan
Variant_3 Correct: 0 Incorrect: 0 Accuracy: -nan
