
*** ChampSim Multicore Out-of-Order Simulator ***

Warmup Instructions: 50000000
Simulation Instructions: 50000000
Number of CPUs: 1
LLC sets: 2048
LLC ways: 16
Off-chip DRAM Size: 4096 MB Channels: 1 Width: 64-bit Data Rate: 6400 MT/s
CPU 0 runs ./micro_traces/srv714.trace.gz
.gz
ITLB has LRU replacement policy
DTLB has LRU replacement policy
STLB has LRU replacement policy
FDIP Prefetcher at L1I
L1I has LRU replacement policy
L1D has LRU replacement policy
Initialize SRRIP state for L2C
Initialize DRRIP state for LLC
Heartbeat_Variant_0 : 1435 0.350342 per_variant_size: 0 1435 0 0 0 0 0 0 0 
Heartbeat_Variant_1 : 2607 0.636475 per_variant_size: 0 256 2351 0 0 0 0 0 0 
Heartbeat_Variant_2 : 0 0 per_variant_size: 0 0 0 0 0 0 0 0 0 
Heartbeat_Variant_3 : 0 0 per_variant_size: 0 0 0 0 0 0 0 0 0 
Heartbeat_Variant_0_evicts 0 : 5670 1 : 278 2 : 0 3 : 0 
Heartbeat_Variant_1_evicts 0 : 246 1 : 0 2 : 0 3 : 0 
Heartbeat_Variant_2_evicts 0 : 0 1 : 0 2 : 0 3 : 0 
Heartbeat_Variant_3_evicts 0 : 0 1 : 0 2 : 0 3 : 0 
Heartbeat CPU 0 instructions: 10000000 cycles: 2795729 heartbeat IPC: 3.57688 cumulative IPC: 3.57688 (Simulation time: 0 hr 1 min 46 sec) 
Heartbeat_Variant_0 : 1434 0.350098 per_variant_size: 0 1434 0 0 0 0 0 0 0 
Heartbeat_Variant_1 : 2610 0.637207 per_variant_size: 0 240 2370 0 0 0 0 0 0 
Heartbeat_Variant_2 : 0 0 per_variant_size: 0 0 0 0 0 0 0 0 0 
Heartbeat_Variant_3 : 0 0 per_variant_size: 0 0 0 0 0 0 0 0 0 
Heartbeat_Variant_0_evicts 0 : 5584 1 : 11 2 : 0 3 : 0 
Heartbeat_Variant_1_evicts 0 : 13 1 : 0 2 : 0 3 : 0 
Heartbeat_Variant_2_evicts 0 : 0 1 : 0 2 : 0 3 : 0 
Heartbeat_Variant_3_evicts 0 : 0 1 : 0 2 : 0 3 : 0 
Heartbeat CPU 0 instructions: 20000000 cycles: 5591174 heartbeat IPC: 3.57725 cumulative IPC: 3.57707 (Simulation time: 0 hr 3 min 29 sec) 
Heartbeat_Variant_0 : 1436 0.350586 per_variant_size: 0 1436 0 0 0 0 0 0 0 
Heartbeat_Variant_1 : 2612 0.637695 per_variant_size: 0 225 2387 0 0 0 0 0 0 
Heartbeat_Variant_2 : 0 0 per_variant_size: 0 0 0 0 0 0 0 0 0 
Heartbeat_Variant_3 : 0 0 per_variant_size: 0 0 0 0 0 0 0 0 0 
Heartbeat_Variant_0_evicts 0 : 5581 1 : 68 2 : 0 3 : 0 
Heartbeat_Variant_1_evicts 0 : 68 1 : 0 2 : 0 3 : 0 
Heartbeat_Variant_2_evicts 0 : 0 1 : 0 2 : 0 3 : 0 
Heartbeat_Variant_3_evicts 0 : 0 1 : 0 2 : 0 3 : 0 
Heartbeat CPU 0 instructions: 30000002 cycles: 8385607 heartbeat IPC: 3.57854 cumulative IPC: 3.57756 (Simulation time: 0 hr 5 min 9 sec) 
Heartbeat_Variant_0 : 1433 0.349854 per_variant_size: 0 1433 0 0 0 0 0 0 0 
Heartbeat_Variant_1 : 2628 0.641602 per_variant_size: 0 221 2407 0 0 0 0 0 0 
Heartbeat_Variant_2 : 0 0 per_variant_size: 0 0 0 0 0 0 0 0 0 
Heartbeat_Variant_3 : 0 0 per_variant_size: 0 0 0 0 0 0 0 0 0 
Heartbeat_Variant_0_evicts 0 : 5655 1 : 89 2 : 0 3 : 0 
Heartbeat_Variant_1_evicts 0 : 94 1 : 0 2 : 0 3 : 0 
Heartbeat_Variant_2_evicts 0 : 0 1 : 0 2 : 0 3 : 0 
Heartbeat_Variant_3_evicts 0 : 0 1 : 0 2 : 0 3 : 0 
Heartbeat CPU 0 instructions: 40000003 cycles: 11182637 heartbeat IPC: 3.57522 cumulative IPC: 3.57697 (Simulation time: 0 hr 6 min 51 sec) 
Heartbeat_Variant_0 : 1433 0.349854 per_variant_size: 0 1433 0 0 0 0 0 0 0 
Heartbeat_Variant_1 : 2630 0.64209 per_variant_size: 0 220 2410 0 0 0 0 0 0 
Heartbeat_Variant_2 : 0 0 per_variant_size: 0 0 0 0 0 0 0 0 0 
Heartbeat_Variant_3 : 0 0 per_variant_size: 0 0 0 0 0 0 0 0 0 
Heartbeat_Variant_0_evicts 0 : 5481 1 : 26 2 : 0 3 : 0 
Heartbeat_Variant_1_evicts 0 : 26 1 : 0 2 : 0 3 : 0 
Heartbeat_Variant_2_evicts 0 : 0 1 : 0 2 : 0 3 : 0 
Heartbeat_Variant_3_evicts 0 : 0 1 : 0 2 : 0 3 : 0 
Heartbeat CPU 0 instructions: 50000001 cycles: 13979229 heartbeat IPC: 3.57578 cumulative IPC: 3.57674 (Simulation time: 0 hr 8 min 32 sec) 

Warmup complete CPU 0 instructions: 50000001 cycles: 13979229 (Simulation time: 0 hr 8 min 32 sec) 

Cycle: 20000000 FTQ IN: 58289386 FTQ occupancy: 20.3358 DECODE IN: 58289353 DECODE occupancy: 52.8857 ROB IN: 58289293 ROB occupancy: 316.709 ROB OUT: 58289246
Heartbeat_Variant_0 : 1432 0.349609 per_variant_size: 0 1432 0 0 0 0 0 0 0 
Heartbeat_Variant_1 : 2660 0.649414 per_variant_size: 0 207 2453 0 0 0 0 0 0 
Heartbeat_Variant_2 : 0 0 per_variant_size: 0 0 0 0 0 0 0 0 0 
Heartbeat_Variant_3 : 0 0 per_variant_size: 0 0 0 0 0 0 0 0 0 
Heartbeat_Variant_0_evicts 0 : 5809 1 : 433 2 : 0 3 : 0 
Heartbeat_Variant_1_evicts 0 : 446 1 : 0 2 : 0 3 : 0 
Heartbeat_Variant_2_evicts 0 : 0 1 : 0 2 : 0 3 : 0 
Heartbeat_Variant_3_evicts 0 : 0 1 : 0 2 : 0 3 : 0 
Heartbeat CPU 0 instructions: 60000002 cycles: 21216617 heartbeat IPC: 1.38171 cumulative IPC: 1.38171 (Simulation time: 0 hr 10 min 31 sec) 
Heartbeat_Variant_0 : 1437 0.35083 per_variant_size: 0 1437 0 0 0 0 0 0 0 
Heartbeat_Variant_1 : 2656 0.648438 per_variant_size: 0 199 2457 0 0 0 0 0 0 
Heartbeat_Variant_2 : 0 0 per_variant_size: 0 0 0 0 0 0 0 0 0 
Heartbeat_Variant_3 : 0 0 per_variant_size: 0 0 0 0 0 0 0 0 0 
Heartbeat_Variant_0_evicts 0 : 5521 1 : 74 2 : 0 3 : 0 
Heartbeat_Variant_1_evicts 0 : 69 1 : 0 2 : 0 3 : 0 
Heartbeat_Variant_2_evicts 0 : 0 1 : 0 2 : 0 3 : 0 
Heartbeat_Variant_3_evicts 0 : 0 1 : 0 2 : 0 3 : 0 
Heartbeat CPU 0 instructions: 70000001 cycles: 28457651 heartbeat IPC: 1.38102 cumulative IPC: 1.38137 (Simulation time: 0 hr 12 min 33 sec) 
Cycle: 30000000 FTQ IN: 13866598 FTQ occupancy: 15.0305 DECODE IN: 13866615 DECODE occupancy: 38.551 ROB IN: 13866666 ROB occupancy: 252.928 ROB OUT: 13866620
Heartbeat_Variant_0 : 1433 0.349854 per_variant_size: 0 1433 0 0 0 0 0 0 0 
Heartbeat_Variant_1 : 2661 0.649658 per_variant_size: 0 183 2478 0 0 0 0 0 0 
Heartbeat_Variant_2 : 0 0 per_variant_size: 0 0 0 0 0 0 0 0 0 
Heartbeat_Variant_3 : 0 0 per_variant_size: 0 0 0 0 0 0 0 0 0 
Heartbeat_Variant_0_evicts 0 : 5732 1 : 188 2 : 0 3 : 0 
Heartbeat_Variant_1_evicts 0 : 192 1 : 0 2 : 0 3 : 0 
Heartbeat_Variant_2_evicts 0 : 0 1 : 0 2 : 0 3 : 0 
Heartbeat_Variant_3_evicts 0 : 0 1 : 0 2 : 0 3 : 0 
Heartbeat CPU 0 instructions: 80000000 cycles: 35618520 heartbeat IPC: 1.39648 cumulative IPC: 1.38637 (Simulation time: 0 hr 14 min 34 sec) 
Cycle: 40000000 FTQ IN: 14001105 FTQ occupancy: 14.8653 DECODE IN: 14000985 DECODE occupancy: 38.1941 ROB IN: 14000934 ROB occupancy: 251.221 ROB OUT: 14000675
Heartbeat_Variant_0 : 1433 0.349854 per_variant_size: 0 1433 0 0 0 0 0 0 0 
Heartbeat_Variant_1 : 2662 0.649902 per_variant_size: 0 180 2482 0 0 0 0 0 0 
Heartbeat_Variant_2 : 0 0 per_variant_size: 0 0 0 0 0 0 0 0 0 
Heartbeat_Variant_3 : 0 0 per_variant_size: 0 0 0 0 0 0 0 0 0 
Heartbeat_Variant_0_evicts 0 : 5640 1 : 77 2 : 0 3 : 0 
Heartbeat_Variant_1_evicts 0 : 78 1 : 0 2 : 0 3 : 0 
Heartbeat_Variant_2_evicts 0 : 0 1 : 0 2 : 0 3 : 0 
Heartbeat_Variant_3_evicts 0 : 0 1 : 0 2 : 0 3 : 0 
Heartbeat CPU 0 instructions: 90000000 cycles: 42831907 heartbeat IPC: 1.38631 cumulative IPC: 1.38635 (Simulation time: 0 hr 16 min 33 sec) 
Heartbeat_Variant_0 : 1432 0.349609 per_variant_size: 0 1432 0 0 0 0 0 0 0 
Heartbeat_Variant_1 : 2663 0.650146 per_variant_size: 0 183 2480 0 0 0 0 0 0 
Heartbeat_Variant_2 : 0 0 per_variant_size: 0 0 0 0 0 0 0 0 0 
Heartbeat_Variant_3 : 0 0 per_variant_size: 0 0 0 0 0 0 0 0 0 
Heartbeat_Variant_0_evicts 0 : 5596 1 : 28 2 : 0 3 : 0 
Heartbeat_Variant_1_evicts 0 : 29 1 : 0 2 : 0 3 : 0 
Heartbeat_Variant_2_evicts 0 : 0 1 : 0 2 : 0 3 : 0 
Heartbeat_Variant_3_evicts 0 : 0 1 : 0 2 : 0 3 : 0 
Heartbeat CPU 0 instructions: 100000002 cycles: 49941898 heartbeat IPC: 1.40647 cumulative IPC: 1.39033 (Simulation time: 0 hr 18 min 30 sec) 
Finished CPU 0 instructions: 50000001 cycles: 35962669 cumulative IPC: 1.39033 (Simulation time: 0 hr 18 min 30 sec) 

ChampSim completed all CPUs

Region of Interest Statistics

CPU 0 cumulative IPC: 1.39033 instructions: 50000001 cycles: 35962669
 Fetch stage stalled: 46.0853  Sim cycles: 35962669 fetch stall cycle: 16573498
 Empty decode stage: 25.6799  Sim cycles: 35962669 fetch stall cycle: 9235178
ITLB TOTAL     ACCESS:    5825672  HIT:    5333540  MISS:     492132  HIT %:    91.5524  MISS %:    8.44764   MPKI: 9.84264
ITLB LOAD TRANSLATION INSTRUCTION	ACCESS:    5691818  HIT:    5199686  MISS:     492132  HIT %:    91.3537  MISS %:    8.64631  MPKI: 9.84264
ITLB TRANSLATION FROM L1D PREFETCHER INSTRUCTION	ACCESS:     133854  HIT:     133854  MISS:          0  HIT %:        100  MISS %:          0  MPKI: 0

ITLB AVERAGE MISS LATENCY: 9.06774 cycles
ITLB RQ	ACCESS:    7927641	FORWARD:          0	MERGED:    1619208	TO_CACHE:    6308433

DTLB TOTAL     ACCESS:    8931205  HIT:    8453850  MISS:     477355  HIT %:    94.6552  MISS %:     5.3448   MPKI: 9.5471
DTLB LOAD TRANSLATION DATA	ACCESS:    8931205  HIT:    8453850  MISS:     477355  HIT %:    94.6552  MISS %:     5.3448  MPKI: 9.5471

DTLB AVERAGE MISS LATENCY: 9.34949 cycles
DTLB RQ	ACCESS:   13297924	FORWARD:          0	MERGED:    4329570	TO_CACHE:    8968354

STLB TOTAL     ACCESS:    1221011  HIT:    1218804  MISS:       2207  HIT %:    99.8192  MISS %:   0.180752   MPKI: 0.04414
STLB LOAD TRANSLATION INSTRUCTION	ACCESS:     492132  HIT:     491853  MISS:        279  HIT %:    99.9433  MISS %:  0.0566921  MPKI: 0.00558
STLB LOAD TRANSLATION DATA	ACCESS:     477354  HIT:     475435  MISS:       1919  HIT %:     99.598  MISS %:   0.402008  MPKI: 0.03838
STLB TRANSLATION FROM L1D PREFETCHER DATA	ACCESS:     251525  HIT:     251516  MISS:          9  HIT %:    99.9964  MISS %: 0.00357817  MPKI: 0.00018

STLB AVERAGE MISS LATENCY: 77.0684 cycles
STLB RQ	ACCESS:    1356342	FORWARD:          0	MERGED:     135296	TO_CACHE:    1221046

STLB Hit, L1D data hit: 0
STLB Hit, L2C data hit: 0
STLB Hit, LLC data hit: 0
STLB Hit, LLC data miss: 0
STLB STLB hints to L2: 0
L1D TOTAL     ACCESS:   13051514  HIT:   11903366  MISS:    1148148  HIT %:     91.203  MISS %:    8.79705   MPKI: 22.963
L1D LOAD DATA	ACCESS:    6541711  HIT:    5784257  MISS:     757454  HIT %:    88.4212  MISS %:    11.5788  MPKI: 15.1491
L1D RFO DATA	ACCESS:    6178615  HIT:    5891647  MISS:     286968  HIT %:    95.3555  MISS %:    4.64454  MPKI: 5.73936
L1D PREFETCH DATA	ACCESS:     331188  HIT:     227462  MISS:     103726  HIT %:    68.6806  MISS %:    31.3194  MPKI: 2.07452

L1D PREFETCH  REQUESTED:     774106  ISSUED:     774106  USEFUL:      43475  USELESS:      70903
L1D USEFUL LOAD PREFETCHES:      43475 PREFETCH ISSUED TO LOWER LEVEL:     114441  ACCURACY: 37.989
 TIMELY PREFETCHES:      43475 LATE PREFETCHES: 10670 DROPPED PREFETCHES: 5
L1D AVERAGE MISS LATENCY: 297712 cycles
L1D RQ	ACCESS:   10670721	FORWARD:          0	MERGED:    3929657	TO_CACHE:    6575711
L1D WQ	ACCESS:    6919153	FORWARD:     165749	MERGED:     196940	TO_CACHE:    6722213
L1D PQ	ACCESS:     387251	FORWARD:          0	MERGED:          0	TO_CACHE:     386855

L1D UNIQUE REGIONS ACCESSED: 0
L1D REGIONS CONFLICTS: 0
L1D Cross Page Prefetch Requests: 5906
L1D Same Page Prefetch Requests: 782759
L1D ROI Sum of L1D PQ occupancy: 4904108
L1D PREFETCHES PUSHED FROM L2C: 0
L1I TOTAL     ACCESS:    7111309  HIT:    4360109  MISS:    2751200  HIT %:    61.3123  MISS %:    38.6877   MPKI: 55.024
L1I LOAD INSTRUCTION	ACCESS:    6443060  HIT:    3691860  MISS:    2751200  HIT %:    57.2998  MISS %:    42.7002  MPKI: 55.024
L1I PREFETCH INSTRUCTION	ACCESS:     668249  HIT:     668249  MISS:          0  HIT %:        100  MISS %:          0  MPKI: 0

L1I PREFETCH  REQUESTED:    1614478  ISSUED:    1614478  USEFUL:          0  USELESS:          0
L1I USEFUL LOAD PREFETCHES:          0 PREFETCH ISSUED TO LOWER LEVEL:          0  ACCURACY: -nan
 TIMELY PREFETCHES:          0 LATE PREFETCHES: 0 DROPPED PREFETCHES: 0
L1I AVERAGE MISS LATENCY: 17.2305 cycles
L1I RQ	ACCESS:    9571932	FORWARD:          0	MERGED:    2827485	TO_CACHE:    6744447
L1I PQ	ACCESS:    1614478	FORWARD:          0	MERGED:     431284	TO_CACHE:    1183194

L1BTB TOTAL     ACCESS:    5678739  HIT:    2063650  MISS:    3615089  HIT %:    36.3399  MISS %:    63.6601   MPKI: 72.3018
L1BTB BRANCH_DIRECT_JUMP	ACCESS:     545551 HIT:     144052 MISS:     401499 AVERAGE STALL: 58.7443 AVERAGE FETCH STALL: 15.8197 AVERAGE FETCH QUEUE STALL: 22.0354 AVERAGE DECODE STALL: 20.0158 AVERAGE EXECUTE STALL: 2.25897e+15
L1BTB BRANCH_INDIRECT	ACCESS:     182027 HIT:      65593 MISS:     116434 AVERAGE STALL: 112.771 AVERAGE FETCH STALL: 12.3279 AVERAGE FETCH QUEUE STALL: 18.2303 AVERAGE DECODE STALL: 13.0709 AVERAGE EXECUTE STALL: 68.18
L1BTB BRANCH_CONDITIONAL	ACCESS:    2723308 HIT:    1436088 MISS:    1287220 AVERAGE STALL: 67.9509 AVERAGE FETCH STALL: 25.9635 AVERAGE FETCH QUEUE STALL: 21.3446 AVERAGE DECODE STALL: 19.8954 AVERAGE EXECUTE STALL: 3.76157e+15
L1BTB BRANCH_DIRECT_CALL	ACCESS:     942383 HIT:     105803 MISS:     836580 AVERAGE STALL: 70.7611 AVERAGE FETCH STALL: 30.7544 AVERAGE FETCH QUEUE STALL: 22.4786 AVERAGE DECODE STALL: 16.7798 AVERAGE EXECUTE STALL: 8.20585e+15
L1BTB BRANCH_INDIRECT_CALL	ACCESS:     171545 HIT:      21617 MISS:     149928 AVERAGE STALL: 141.885 AVERAGE FETCH STALL: 12.7372 AVERAGE FETCH QUEUE STALL: 17.2746 AVERAGE DECODE STALL: 12.6356 AVERAGE EXECUTE STALL: 98.748
L1BTB BRANCH_RETURN	ACCESS:    1113925 HIT:     290497 MISS:     823428 AVERAGE STALL: 50.8947 AVERAGE FETCH STALL: 16.9434 AVERAGE FETCH QUEUE STALL: 6.99385 AVERAGE DECODE STALL: 7.16698 AVERAGE EXECUTE STALL: 4.17423e+14
L1BTB BRANCH_OTHER ACCESS:          0 HIT:          0 MISS:          0 AVERAGE STALL: -nan AVERAGE FETCH STALL: -nan AVERAGE FETCH QUEUE STALL: -nan AVERAGE DECODE STALL: -nan AVERAGE EXECUTE STALL: -nan
L1BTB TOTAL ROB OCCUPANCY AT BTB MISS: 2.88091

L2BTB TOTAL     ACCESS:    3589843  HIT:    3522620  MISS:      67223  HIT %:    98.1274  MISS %:    1.87259   MPKI: 1.34446
L2BTB BRANCH_DIRECT_JUMP	ACCESS:     397362 HIT:     393306 MISS:       4056 AVERAGE STALL: 58.7443 AVERAGE FETCH STALL: 15.8197 AVERAGE FETCH QUEUE STALL: 22.0354 AVERAGE DECODE STALL: 20.0158 AVERAGE EXECUTE STALL: 2.25897e+15
L2BTB BRANCH_INDIRECT	ACCESS:     106220 HIT:     103453 MISS:       2767 AVERAGE STALL: 112.771 AVERAGE FETCH STALL: 12.3279 AVERAGE FETCH QUEUE STALL: 18.2303 AVERAGE DECODE STALL: 13.0709 AVERAGE EXECUTE STALL: 68.18
L2BTB BRANCH_CONDITIONAL	ACCESS:    1287220 HIT:    1282176 MISS:       5044 AVERAGE STALL: 67.9509 AVERAGE FETCH STALL: 25.9635 AVERAGE FETCH QUEUE STALL: 21.3446 AVERAGE DECODE STALL: 19.8954 AVERAGE EXECUTE STALL: 3.76157e+15
L2BTB BRANCH_DIRECT_CALL	ACCESS:     836580 HIT:     834266 MISS:       2314 AVERAGE STALL: 70.7611 AVERAGE FETCH STALL: 30.7544 AVERAGE FETCH QUEUE STALL: 22.4786 AVERAGE DECODE STALL: 16.7798 AVERAGE EXECUTE STALL: 8.20585e+15
L2BTB BRANCH_INDIRECT_CALL	ACCESS:     140438 HIT:     130246 MISS:      10192 AVERAGE STALL: 141.885 AVERAGE FETCH STALL: 12.7372 AVERAGE FETCH QUEUE STALL: 17.2746 AVERAGE DECODE STALL: 12.6356 AVERAGE EXECUTE STALL: 98.748
L2BTB BRANCH_RETURN	ACCESS:     822023 HIT:     779173 MISS:      42850 AVERAGE STALL: 50.8947 AVERAGE FETCH STALL: 16.9434 AVERAGE FETCH QUEUE STALL: 6.99385 AVERAGE DECODE STALL: 7.16698 AVERAGE EXECUTE STALL: 4.17423e+14
L2BTB BRANCH_OTHER ACCESS:          0 HIT:          0 MISS:          0 AVERAGE STALL: -nan AVERAGE FETCH STALL: -nan AVERAGE FETCH QUEUE STALL: -nan AVERAGE DECODE STALL: -nan AVERAGE EXECUTE STALL: -nan
L2BTB TOTAL ROB OCCUPANCY AT BTB MISS: 154.929

L2C TOTAL     ACCESS:    4508186  HIT:    4038319  MISS:     469867  HIT %:    89.5775  MISS %:    10.4225   MPKI: 9.39734
L2C LOAD INSTRUCTION	ACCESS:    2751200  HIT:    2497079  MISS:     254121  HIT %:    90.7633  MISS %:    9.23673  MPKI: 5.08242
L2C LOAD TRANSLATION INSTRUCTION	ACCESS:        314  HIT:         89  MISS:        225  HIT %:    28.3439  MISS %:    71.6561  MPKI: 0.0045
L2C LOAD DATA	ACCESS:     746764  HIT:     672101  MISS:      74663  HIT %:    90.0018  MISS %:    9.99821  MPKI: 1.49326
L2C RFO DATA	ACCESS:     286904  HIT:     233768  MISS:      53136  HIT %:    81.4795  MISS %:    18.5205  MPKI: 1.06272
L2C PREFETCH DATA	ACCESS:     196187  HIT:     124173  MISS:      72014  HIT %:    63.2932  MISS %:    36.7068  MPKI: 1.44028
L2C WRITEBACK DATA	ACCESS:     524766  HIT:     510508  MISS:      14258  HIT %:     97.283  MISS %:    2.71702  MPKI: 0.28516
L2C LOAD TRANSLATION DATA	ACCESS:       2025  HIT:        590  MISS:       1435  HIT %:    29.1358  MISS %:    70.8642  MPKI: 0.0287
L2C TRANSLATION FROM L1D PREFETCHER DATA	ACCESS:         26  HIT:         11  MISS:         15  HIT %:    42.3077  MISS %:    57.6923  MPKI: 0.0003

L2C PREFETCH  REQUESTED:      89955  ISSUED:      89955  USEFUL:       8229  USELESS:      64345
L2C USEFUL LOAD PREFETCHES:       8229 PREFETCH ISSUED TO LOWER LEVEL:      72514  ACCURACY: 11.3482
 TIMELY PREFETCHES:       8229 LATE PREFETCHES: 500 DROPPED PREFETCHES: 0
L2C AVERAGE MISS LATENCY: 38.4861 cycles
L2C RQ	ACCESS:    3787272	FORWARD:          0	MERGED:          0	TO_CACHE:    3787234
L2C WQ	ACCESS:     524766	FORWARD:         38	MERGED:          0	TO_CACHE:     524766
L2C PQ	ACCESS:     204396	FORWARD:          0	MERGED:       3569	TO_CACHE:     200827

L2C Dense regions hint from L2: 0
PSCL5 TOTAL     ACCESS:       4430  HIT:       2215  MISS:       2215  HIT %:         50  MISS %:         50   MPKI: 0.0443
PSCL5 LOAD TRANSLATION INSTRUCTION	ACCESS:       4380  HIT:       2190  MISS:       2190  HIT %:         50  MISS %:         50  MPKI: 0.0438
PSCL5 TRANSLATION FROM L1D PREFETCHER INSTRUCTION	ACCESS:         50  HIT:         25  MISS:         25  HIT %:         50  MISS %:         50  MPKI: 0.0005


PSCL4 TOTAL     ACCESS:       4222  HIT:       2107  MISS:       2115  HIT %:    49.9053  MISS %:    50.0947   MPKI: 0.0423
PSCL4 LOAD TRANSLATION INSTRUCTION	ACCESS:       2806  HIT:       2082  MISS:        724  HIT %:    74.1981  MISS %:    25.8019  MPKI: 0.01448
PSCL4 TRANSLATION FROM L1D PREFETCHER INSTRUCTION	ACCESS:         41  HIT:         25  MISS:         16  HIT %:    60.9756  MISS %:    39.0244  MPKI: 0.00032
PSCL4 LOAD TRANSLATION DATA	ACCESS:       1366  HIT:          0  MISS:       1366  HIT %:          0  MISS %:        100  MPKI: 0.02732
PSCL4 TRANSLATION FROM L1D PREFETCHER DATA	ACCESS:          9  HIT:          0  MISS:          9  HIT %:          0  MISS %:        100  MPKI: 0.00018


PSCL3 TOTAL     ACCESS:       4322  HIT:       2157  MISS:       2165  HIT %:    49.9075  MISS %:    50.0925   MPKI: 0.0433
PSCL3 LOAD TRANSLATION INSTRUCTION	ACCESS:       2856  HIT:       2132  MISS:        724  HIT %:    74.6499  MISS %:    25.3501  MPKI: 0.01448
PSCL3 TRANSLATION FROM L1D PREFETCHER INSTRUCTION	ACCESS:         41  HIT:         25  MISS:         16  HIT %:    60.9756  MISS %:    39.0244  MPKI: 0.00032
PSCL3 LOAD TRANSLATION DATA	ACCESS:       1416  HIT:          0  MISS:       1416  HIT %:          0  MISS %:        100  MPKI: 0.02832
PSCL3 TRANSLATION FROM L1D PREFETCHER DATA	ACCESS:          9  HIT:          0  MISS:          9  HIT %:          0  MISS %:        100  MPKI: 0.00018


PSCL2 TOTAL     ACCESS:       4291  HIT:       2076  MISS:       2215  HIT %:    48.3803  MISS %:    51.6197   MPKI: 0.0443
PSCL2 LOAD TRANSLATION INSTRUCTION	ACCESS:       2336  HIT:       2052  MISS:        284  HIT %:    87.8425  MISS %:    12.1575  MPKI: 0.00568
PSCL2 TRANSLATION FROM L1D PREFETCHER INSTRUCTION	ACCESS:         24  HIT:         24  MISS:          0  HIT %:        100  MISS %:          0  MPKI: 0
PSCL2 LOAD TRANSLATION DATA	ACCESS:       1907  HIT:          0  MISS:       1907  HIT %:          0  MISS %:        100  MPKI: 0.03814
PSCL2 TRANSLATION FROM L1D PREFETCHER DATA	ACCESS:         24  HIT:          0  MISS:         24  HIT %:          0  MISS %:        100  MPKI: 0.00048


LLC TOTAL     ACCESS:     530878  HIT:     502704  MISS:      28174  HIT %:    94.6929  MISS %:    5.30706   MPKI: 0.56348
LLC LOAD INSTRUCTION	ACCESS:     254121  HIT:     252906  MISS:       1215  HIT %:    99.5219  MISS %:   0.478119  MPKI: 0.0243
LLC LOAD TRANSLATION INSTRUCTION	ACCESS:        225  HIT:        175  MISS:         50  HIT %:    77.7778  MISS %:    22.2222  MPKI: 0.001
LLC LOAD DATA	ACCESS:      74195  HIT:      70759  MISS:       3436  HIT %:     95.369  MISS %:    4.63104  MPKI: 0.06872
LLC RFO DATA	ACCESS:      53101  HIT:      39829  MISS:      13272  HIT %:    75.0061  MISS %:    24.9939  MPKI: 0.26544
LLC PREFETCH DATA	ACCESS:      72511  HIT:      62756  MISS:       9755  HIT %:    86.5469  MISS %:    13.4531  MPKI: 0.1951
LLC WRITEBACK DATA	ACCESS:      75275  HIT:      74929  MISS:        346  HIT %:    99.5404  MISS %:   0.459648  MPKI: 0.00692
LLC LOAD TRANSLATION DATA	ACCESS:       1435  HIT:       1335  MISS:        100  HIT %:    93.0314  MISS %:    6.96864  MPKI: 0.002
LLC TRANSLATION FROM L1D PREFETCHER DATA	ACCESS:         15  HIT:         15  MISS:          0  HIT %:        100  MISS %:          0  MPKI: 0

LLC AVERAGE MISS LATENCY: 155.435 cycles
LLC RQ	ACCESS:     383095	FORWARD:          0	MERGED:          0	TO_CACHE:     383092
LLC WQ	ACCESS:      75275	FORWARD:          6	MERGED:          0	TO_CACHE:      75275
LLC PQ	ACCESS:      72514	FORWARD:          0	MERGED:          0	TO_CACHE:      72511

LLC Dense regions hint to LLC: 0

RAW hits: 1941129
Loads Generated: 12611850
Loads sent to L1D: 10670721
Stores Generated: 6919135
Stores sent to L1D: 6919153
Major fault: 0 Minor fault: 2606
Allocated PAGES: 2606

stream: 
stream:times selected: 1223109
stream:pref_filled: 127263
stream:pref_useful: 28144
stream:pref_late: 9056
stream:misses: 9246
stream:misses_by_poll: 0

CS: 
CS:times selected: 187461
CS:pref_filled: 70046
CS:pref_useful: 45790
CS:pref_late: 8560
CS:misses: 20766
CS:misses_by_poll: 3

CPLX: 
CPLX:times selected: 1034514
CPLX:pref_filled: 23381
CPLX:pref_useful: 6871
CPLX:pref_late: 3511
CPLX:misses: 120323
CPLX:misses_by_poll: 1

NL_L1: 
NL:times selected: 12518
NL:pref_filled: 1393
NL:pref_useful: 145
NL:pref_late: 287
NL:misses: 1605
NL:misses_by_poll: 0

total selections: 2457602
total_filled: 103726
total_useful: 43475
total_late: 23310
total_polluted: 4
total_misses_after_warmup: 791455
conflicts: 5501732

test: 119251

DRAM Statistics
 CHANNEL 0
 RQ ROW_BUFFER_HIT:      10228  ROW_BUFFER_MISS:      17583
 DBUS_CONGESTED:         11
 WQ ROW_BUFFER_HIT:       1484  ROW_BUFFER_MISS:      11497  FULL:          0

 AVG_CONGESTED_CYCLE: 6

CPU 0 Branch Prediction Accuracy: 99.8128% MPKI: 0.3428 Average ROB Occupancy at Mispredict: 184.78
Branch types
NOT_BRANCH: 40843456 81.6869%
BRANCH_DIRECT_JUMP: 545551 1.0911%
BRANCH_INDIRECT: 182027 0.364054%
BRANCH_CONDITIONAL: 6200985 12.402%
BRANCH_DIRECT_CALL: 942383 1.88477%
BRANCH_INDIRECT_CALL: 171545 0.34309%
BRANCH_RETURN: 1113925 2.22785%
BRANCH_OTHER: 0 0%

DRAM PAGES: 1048576
Allocated PAGES: 2606
Average_ROB_Occupancy: 251.607
Average_Decode_Occupancy: 37.9965
Average_FTQ_Occupancy: 14.8194
Indirect max targets: 14 Average targets: 1.17296
Branch_type:  BRANCH_DIRECT_JUMP:  Count Percentage: 4.13147 5.06704 4.34755 7.19122 3.02757 6.33825 1.50324 68.3937 
Branch_type:  BRANCH_INDIRECT:  Count Percentage: 11.7616 3.38966 2.50461 9.68306 3.35121 2.81474 0.938063 65.557 
Branch_type:  BRANCH_CONDITIONAL:  Count Percentage: 29.4082 2.20044 1.52847 4.02409 1.94961 4.44422 0.495613 55.9494 
Branch_type:  BRANCH_DIRECT_CALL:  Count Percentage: 0.388191 1.78932 0.725926 3.43508 3.04408 2.61696 0.725873 87.2746 
Branch_type:  BRANCH_INDIRECT_CALL:  Count Percentage: 9.55006 0 2.99423 0.000874228 1.13766 1.71494 0.995163 83.6071 
Branch_type:  BRANCH_RETURN:  Count Percentage: 10.4368 1.51259 1.1582 3.42735 4.46431 4.63436 0.589292 73.7771 
Branch_type:  BRANCH_DIRECT_JUMP:  Total Count: 45065 55270 47422 78440 33024 69136 16397 746021 
Branch_type:  BRANCH_INDIRECT:  Total Count: 42818 12340 9118 35251 12200 10247 3415 238659 
Branch_type:  BRANCH_CONDITIONAL:  Total Count: 3645666 272784 189481 498857 241689 550940 61440 6935922 
Branch_type:  BRANCH_DIRECT_CALL:  Total Count: 7309 33690 13668 64677 57315 49273 13667 1643237 
Branch_type:  BRANCH_INDIRECT_CALL:  Total Count: 32772 0 10275 3 3904 5885 3415 286906 
Branch_type:  BRANCH_RETURN:  Total Count: 232417 33684 25792 76324 99416 103203 13123 1642949 
Number of unique branch instructions: 11196
Upper 32 bits: 
aaaa
ffff
ffff0000
Unique upper 32 bits: 3
Unique upper 36 bits: 3
Unique upper 40 bits: 5
Unique upper 44 bits: 32
Unique upper 48 bits: 160
Variant_0 : 1432 0.349609
Variant_1 : 2663 0.650146
Variant_2 : 0 0
Variant_3 : 0 0
Offset_3 4624
Offset_4 274
Offset_5 506
Offset_6 569
Offset_7 655
Offset_8 597
Offset_9 563
Offset_10 460
Offset_11 366
Offset_12 325
Offset_13 241
Offset_14 260
Offset_15 213
Offset_16 260
Offset_17 176
Offset_18 152
Offset_19 270
Offset_20 146
Offset_21 241
Offset_22 425
Offset_23 241
Offset_24 373
Offset_25 114
Offset_47 90
decode_dispatch_called: 26376357 73.3437
Dispatch_width: 0 14198734 53.8313 39.4819
Dispatch_width: 1 1040631 3.94532 2.89364
Dispatch_width: 2 860925 3.264 2.39394
Dispatch_width: 3 504146 1.91136 1.40186
Dispatch_width: 4 6397791 24.2558 17.7901
Dispatch_width: 5 111028 0.420938 0.308731
Dispatch_width: 6 3263102 12.3713 9.07358
Empty_decode_cycles: 9586312 26.6563
ROB_full_cycles: 10215392 28.4055
Starvation_cycles_per_kilo_instr: 224.842
Starvation_cycles_per_kilo_instr_3: 159.754
Starvation_cycles_per_kilo_instr_0: 135.697
Branch_type_1  (3,1)  (4,10)  (5,40)  (6,80)  (7,127)  (8,153)  (9,147)  (10,118)  (11,79)  (12,55)  (13,12)  (14,2)  (15,3)  (16,4)  (18,1)  (19,5)  (20,2)  (21,1)  (22,3)  (23,2)  (24,10)  (25,12) 
Branch_type_2  (3,1)  (4,1)  (5,1)  (8,4)  (9,4)  (10,1)  (12,1)  (13,1)  (14,1)  (16,3)  (17,2)  (20,2)  (21,2)  (23,5)  (24,1)  (47,40) 
Branch_type_3  (3,4622)  (4,263)  (5,461)  (6,471)  (7,494)  (8,366)  (9,305)  (10,183)  (11,146)  (12,62)  (13,11) 
Branch_type_4  (6,4)  (7,8)  (8,28)  (9,65)  (10,76)  (11,75)  (12,114)  (13,102)  (14,119)  (15,102)  (16,119)  (17,80)  (18,65)  (19,130)  (20,75)  (21,127)  (22,224)  (23,136)  (24,223)  (25,98) 
Branch_type_5  (8,4)  (9,1)  (10,4)  (11,5)  (12,3)  (13,14)  (14,16)  (15,12)  (16,22)  (17,13)  (18,23)  (19,14)  (20,11)  (21,13)  (22,45)  (23,26)  (24,38) 
Branch_type_6  (5,4)  (6,14)  (7,26)  (8,42)  (9,41)  (10,78)  (11,61)  (12,90)  (13,101)  (14,122)  (15,96)  (16,112)  (17,81)  (18,63)  (19,121)  (20,56)  (21,98)  (22,153)  (23,72)  (24,101)  (25,4)  (47,50) 
Unique trigger count: 
Variant_0_evicts_0 : 0
Variant_0_evicts_1 : 0
Variant_0_evicts_2 : 0
Variant_0_evicts_3 : 0
Variant_1_evicts_0 : 0
Variant_1_evicts_1 : 0
Variant_1_evicts_2 : 0
Variant_1_evicts_3 : 0
Variant_2_evicts_0 : 0
Variant_2_evicts_1 : 0
Variant_2_evicts_2 : 0
Variant_2_evicts_3 : 0
Variant_3_evicts_0 : 0
Variant_3_evicts_1 : 0
Variant_3_evicts_2 : 0
Variant_3_evicts_3 : 0
BTB PER SET UNIQUE ADDR: 21 19 24 24 25 23 25 19 20 30 27 23 22 18 21 24 21 18 29 19 26 18 18 26 21 17 23 24 16 27 26 21 25 23 23 14 24 24 20 31 23 20 22 27 20 21 21 18 30 20 25 26 21 31 25 21 22 25 23 21 19 26 19 31 21 21 25 22 29 19 24 25 24 18 22 28 22 18 17 25 28 23 20 22 18 21 23 28 20 34 23 23 22 24 20 26 21 22 25 23 21 27 23 18 22 29 33 17 19 20 22 22 16 26 29 21 19 18 18 25 22 20 21 36 19 25 27 25 19 19 32 19 27 15 26 29 22 21 20 29 22 28 26 28 28 16 21 21 26 24 25 21 21 27 28 24 22 17 28 24 25 18 18 23 21 31 22 17 19 24 28 24 25 21 16 31 21 24 26 22 27 22 20 33 23 17 22 23 19 29 22 14 19 18 20 26 29 27 21 18 19 27 28 22 23 19 24 28 21 29 23 19 21 25 15 34 24 22 22 24 15 26 23 20 21 23 29 28 26 20 16 24 31 23 17 27 16 28 30 16 23 17 28 27 15 28 23 17 26 32 26 22 29 20 20 28 23 27 29 26 27 19 18 25 33 21 24 27 22 23 30 21 29 20 31 28 21 25 28 24 16 26 28 23 24 22 20 23 21 28 24 26 17 23 25 22 21 25 28 22 26 18 21 29 18 29 25 20 20 22 21 19 24 22 22 29 19 20 29 20 26 18 19 26 23 29 30 21 24 28 26 21 29 25 21 26 18 28 28 24 26 22 23 24 25 23 24 28 21 26 24 18 18 24 29 17 25 28 23 25 25 18 17 27 29 27 27 18 27 18 18 26 19 28 22 23 23 21 26 21 31 20 19 26 22 21 24 18 16 26 32 20 23 21 21 15 23 19 21 32 21 33 25 15 30 20 20 27 26 22 17 25 22 19 26 22 27 20 28 29 26 16 23 29 34 17 24 30 21 30 23 23 24 24 27 30 19 20 29 17 20 23 22 23 23 18 20 30 19 24 32 21 31 19 17 37 21 17 21 29 17 24 35 19 33 14 21 27 17 25 24 23 19 23 28 19 30 20 25 26 21 20 19 38 16 35 29 19 19 27 22 18 19 18 26 22 26 24 33 18 24 22 22 25 20 20 17 19 18 20 21 20 
BTB PER SET COUNT: 73 23 27 544 113 267 26 21 315 237 230 571 27 539 22 26 22 20 36 167 516 21 22 516 22 22 25 32 17 28 2593 1114 27 525 28 409 250 24 23 93 671 26 1361 28 503 21 25 24 697 796 28 1022 468 1736 477 21 452 27 868 29 23 446 20 34 22 21 31 23 405 22 456 96 28 19 22 642 78 20 17 34 35 108 24 25 20 22 59 190 2100 133 26 3465 23 28 23 477 1367 987 250 27 26 89 26 24 137 1461 204 31 125 23 30 347 18 29 487 24 24 23 507 29 26 26 4422 42 24 309 156 28 1205 485 2049 23 28 18 253 1024 25 24 22 295 282 34 28 32 32 5807 1351 24 29 29 125 392 24 53 479 392 25 500 362 29 30 22 19 1428 1375 810 1193 20 20 42 30 75 1013 22 17 40 211 27 677 22 339 24 22 35 24 21 22 885 24 33 25 18 1572 526 21 32 32 33 24 19 24 31 498 26 1158 21 26 32 2011 712 27 640 26 27 21 38 40 26 25 31 18 27 27 228 23 373 38 36 500 25 17 250 1503 25 23 398 20 31 2969 1006 24 19 38 29 16 1193 25 18 2121 39 28 24 50 23 25 363 1042 46 39 972 830 1103 20 25 1522 24 73 29 529 27 732 1000 34 773 2083 108 362 30 32 94 39 53 251 24 26 903 26 988 29 44 226 40 19 64 345 912 23 1020 34 28 545 19 21 789 22 39 20581 22 22 443 3945 24 1050 624 1122 462 22 21 35 24 260 29 22 32 28 185 644 769 24 32 33 390 35 2742 30 37 18 155 32 258 31 23 28 27 402 2226 27 37 2001 28 32 19 20 30 34 19 26 93 29 337 252 21 20 29 322 1208 256 18 1037 18 19 335 67 40 380 290 24 117 1405 23 35 21 51 142 29 26 401 20 18 152 54 26 23 22 23 15 24 25 471 61 24 42 33 18 389 28 22 60 5183 27 18 31 27 21 250 48 32 20 178 30 519 17 25 578 982 20 987 216 24 36 8141 506 28 32 33 32 24 22 105 19 22 745 26 311 4284 22 1029 40 807 27 36 1015 233 21 19 44 29 17 1216 54 19 93 41 22 2106 14 25 1500 21 314 1100 161 28 131 286 3878 1848 24 27 30 468 20 1488 2167 19 1604 33 773 23 40 26 41 19 22 767 25 198 31 34 33 268 25 25 26 21 32 19 22 109 21 377 21 
To predecode: 0
Predecoding something: 0
Predecode request dropped: 0
sizeofblock_0 0
sizeofblock_1 45705
sizeofblock_2 92575
sizeofblock_3 0
sizeofblock_4 0
sizeofblock_5 0
sizeofblock_6 0
sizeofblock_7 0
sizeofblock_8 0
Variant_0 Correct: 1609028 Incorrect: 0 Accuracy: 1
Variant_1 Correct: 5717122 Incorrect: 0 Accuracy: 1
Variant_2 Correct: 0 Incorrect: 0 Accuracy: -nan
Variant_3 Correct: 0 Incorrect: 0 Accuracy: -nan
