
*** ChampSim Multicore Out-of-Order Simulator ***

Warmup Instructions: 50000000
Simulation Instructions: 50000000
Number of CPUs: 1
LLC sets: 2048
LLC ways: 16
Off-chip DRAM Size: 4096 MB Channels: 1 Width: 64-bit Data Rate: 6400 MT/s
CPU 0 runs ./micro_traces/srv763.trace.gz
.gz
ITLB has LRU replacement policy
DTLB has LRU replacement policy
STLB has LRU replacement policy
FDIP Prefetcher at L1I
L1I has LRU replacement policy
L1D has LRU replacement policy
Initialize SRRIP state for L2C
Initialize DRRIP state for LLC
Heartbeat_Variant_0 : 1336 0.163086 per_variant_size: 0 1336 0 0 0 0 0 0 0 
Heartbeat_Variant_1 : 1434 0.175049 per_variant_size: 0 967 467 0 0 0 0 0 0 
Heartbeat_Variant_2 : 1517 0.185181 per_variant_size: 0 807 476 200 34 0 0 0 0 
Heartbeat_Variant_3 : 0 0 per_variant_size: 0 0 0 0 0 0 0 0 0 
Heartbeat_Variant_0_evicts 0 : 7404 1 : 592 2 : 1571 3 : 0 
Heartbeat_Variant_1_evicts 0 : 679 1 : 0 2 : 726 3 : 0 
Heartbeat_Variant_2_evicts 0 : 1390 1 : 635 2 : 0 3 : 0 
Heartbeat_Variant_3_evicts 0 : 0 1 : 0 2 : 0 3 : 0 
Heartbeat CPU 0 instructions: 10000000 cycles: 2796958 heartbeat IPC: 3.57531 cumulative IPC: 3.57531 (Simulation time: 0 hr 1 min 46 sec) 
Heartbeat_Variant_0 : 1372 0.16748 per_variant_size: 0 1372 0 0 0 0 0 0 0 
Heartbeat_Variant_1 : 1472 0.179688 per_variant_size: 0 977 495 0 0 0 0 0 0 
Heartbeat_Variant_2 : 1538 0.187744 per_variant_size: 0 796 484 217 41 0 0 0 0 
Heartbeat_Variant_3 : 0 0 per_variant_size: 0 0 0 0 0 0 0 0 0 
Heartbeat_Variant_0_evicts 0 : 7355 1 : 589 2 : 1493 3 : 0 
Heartbeat_Variant_1_evicts 0 : 675 1 : 0 2 : 543 3 : 0 
Heartbeat_Variant_2_evicts 0 : 1400 1 : 620 2 : 0 3 : 0 
Heartbeat_Variant_3_evicts 0 : 0 1 : 0 2 : 0 3 : 0 
Heartbeat CPU 0 instructions: 20000002 cycles: 5593771 heartbeat IPC: 3.5755 cumulative IPC: 3.57541 (Simulation time: 0 hr 3 min 20 sec) 
Heartbeat_Variant_0 : 1451 0.177124 per_variant_size: 0 1451 0 0 0 0 0 0 0 
Heartbeat_Variant_1 : 1566 0.191162 per_variant_size: 0 995 571 0 0 0 0 0 0 
Heartbeat_Variant_2 : 1577 0.192505 per_variant_size: 0 771 515 242 49 0 0 0 0 
Heartbeat_Variant_3 : 0 0 per_variant_size: 0 0 0 0 0 0 0 0 0 
Heartbeat_Variant_0_evicts 0 : 7201 1 : 578 2 : 1467 3 : 0 
Heartbeat_Variant_1_evicts 0 : 671 1 : 0 2 : 536 3 : 0 
Heartbeat_Variant_2_evicts 0 : 1361 1 : 608 2 : 0 3 : 0 
Heartbeat_Variant_3_evicts 0 : 0 1 : 0 2 : 0 3 : 0 
Heartbeat CPU 0 instructions: 30000003 cycles: 8389580 heartbeat IPC: 3.57678 cumulative IPC: 3.57586 (Simulation time: 0 hr 4 min 55 sec) 
Heartbeat_Variant_0 : 1459 0.178101 per_variant_size: 0 1459 0 0 0 0 0 0 0 
Heartbeat_Variant_1 : 1575 0.192261 per_variant_size: 0 1001 574 0 0 0 0 0 0 
Heartbeat_Variant_2 : 1573 0.192017 per_variant_size: 0 767 514 242 50 0 0 0 0 
Heartbeat_Variant_3 : 0 0 per_variant_size: 0 0 0 0 0 0 0 0 0 
Heartbeat_Variant_0_evicts 0 : 7418 1 : 588 2 : 1485 3 : 0 
Heartbeat_Variant_1_evicts 0 : 672 1 : 0 2 : 536 3 : 0 
Heartbeat_Variant_2_evicts 0 : 1394 1 : 619 2 : 0 3 : 0 
Heartbeat_Variant_3_evicts 0 : 0 1 : 0 2 : 0 3 : 0 
Heartbeat CPU 0 instructions: 40000003 cycles: 11185536 heartbeat IPC: 3.57659 cumulative IPC: 3.57605 (Simulation time: 0 hr 6 min 35 sec) 
Heartbeat_Variant_0 : 1461 0.178345 per_variant_size: 0 1461 0 0 0 0 0 0 0 
Heartbeat_Variant_1 : 1584 0.193359 per_variant_size: 0 1002 582 0 0 0 0 0 0 
Heartbeat_Variant_2 : 1586 0.193604 per_variant_size: 0 768 520 245 53 0 0 0 0 
Heartbeat_Variant_3 : 0 0 per_variant_size: 0 0 0 0 0 0 0 0 0 
Heartbeat_Variant_0_evicts 0 : 7355 1 : 584 2 : 1477 3 : 0 
Heartbeat_Variant_1_evicts 0 : 675 1 : 0 2 : 535 3 : 0 
Heartbeat_Variant_2_evicts 0 : 1392 1 : 624 2 : 0 3 : 0 
Heartbeat_Variant_3_evicts 0 : 0 1 : 0 2 : 0 3 : 0 
Heartbeat CPU 0 instructions: 50000001 cycles: 13982313 heartbeat IPC: 3.57554 cumulative IPC: 3.57595 (Simulation time: 0 hr 8 min 14 sec) 

Warmup complete CPU 0 instructions: 50000001 cycles: 13982313 (Simulation time: 0 hr 8 min 14 sec) 

Cycle: 20000000 FTQ IN: 58122851 FTQ occupancy: 19.2246 DECODE IN: 58122807 DECODE occupancy: 49.7996 ROB IN: 58122747 ROB occupancy: 304.074 ROB OUT: 58122399
Heartbeat_Variant_0 : 1464 0.178711 per_variant_size: 0 1464 0 0 0 0 0 0 0 
Heartbeat_Variant_1 : 1586 0.193604 per_variant_size: 0 1005 581 0 0 0 0 0 0 
Heartbeat_Variant_2 : 1585 0.193481 per_variant_size: 0 768 518 248 51 0 0 0 0 
Heartbeat_Variant_3 : 0 0 per_variant_size: 0 0 0 0 0 0 0 0 0 
Heartbeat_Variant_0_evicts 0 : 7389 1 : 595 2 : 1431 3 : 0 
Heartbeat_Variant_1_evicts 0 : 627 1 : 0 2 : 536 3 : 0 
Heartbeat_Variant_2_evicts 0 : 1396 1 : 566 2 : 0 3 : 0 
Heartbeat_Variant_3_evicts 0 : 0 1 : 0 2 : 0 3 : 0 
Heartbeat CPU 0 instructions: 60000003 cycles: 21395517 heartbeat IPC: 1.34894 cumulative IPC: 1.34894 (Simulation time: 0 hr 9 min 58 sec) 
Heartbeat_Variant_0 : 1476 0.180176 per_variant_size: 0 1476 0 0 0 0 0 0 0 
Heartbeat_Variant_1 : 1591 0.194214 per_variant_size: 0 1013 578 0 0 0 0 0 0 
Heartbeat_Variant_2 : 1586 0.193604 per_variant_size: 0 767 520 249 50 0 0 0 0 
Heartbeat_Variant_3 : 0 0 per_variant_size: 0 0 0 0 0 0 0 0 0 
Heartbeat_Variant_0_evicts 0 : 7345 1 : 588 2 : 1442 3 : 0 
Heartbeat_Variant_1_evicts 0 : 623 1 : 0 2 : 533 3 : 0 
Heartbeat_Variant_2_evicts 0 : 1400 1 : 567 2 : 0 3 : 0 
Heartbeat_Variant_3_evicts 0 : 0 1 : 0 2 : 0 3 : 0 
Heartbeat CPU 0 instructions: 70000002 cycles: 28932125 heartbeat IPC: 1.32686 cumulative IPC: 1.33781 (Simulation time: 0 hr 11 min 39 sec) 
Cycle: 30000000 FTQ IN: 13321124 FTQ occupancy: 10.5739 DECODE IN: 13321165 DECODE occupancy: 25.9724 ROB IN: 13321221 ROB occupancy: 199.041 ROB OUT: 13321265
Heartbeat_Variant_0 : 1472 0.179688 per_variant_size: 0 1472 0 0 0 0 0 0 0 
Heartbeat_Variant_1 : 1595 0.194702 per_variant_size: 0 1017 578 0 0 0 0 0 0 
Heartbeat_Variant_2 : 1587 0.193726 per_variant_size: 0 773 515 247 52 0 0 0 0 
Heartbeat_Variant_3 : 0 0 per_variant_size: 0 0 0 0 0 0 0 0 0 
Heartbeat_Variant_0_evicts 0 : 7497 1 : 628 2 : 1529 3 : 0 
Heartbeat_Variant_1_evicts 0 : 712 1 : 0 2 : 540 3 : 0 
Heartbeat_Variant_2_evicts 0 : 1449 1 : 620 2 : 0 3 : 0 
Heartbeat_Variant_3_evicts 0 : 0 1 : 0 2 : 0 3 : 0 
Heartbeat CPU 0 instructions: 80000001 cycles: 36381679 heartbeat IPC: 1.34236 cumulative IPC: 1.33932 (Simulation time: 0 hr 13 min 20 sec) 
Cycle: 40000000 FTQ IN: 13287258 FTQ occupancy: 10.5591 DECODE IN: 13287249 DECODE occupancy: 25.9245 ROB IN: 13287253 ROB occupancy: 197.499 ROB OUT: 13287227
Heartbeat_Variant_0 : 1472 0.179688 per_variant_size: 0 1472 0 0 0 0 0 0 0 
Heartbeat_Variant_1 : 1594 0.19458 per_variant_size: 0 1016 578 0 0 0 0 0 0 
Heartbeat_Variant_2 : 1588 0.193848 per_variant_size: 0 775 515 246 52 0 0 0 0 
Heartbeat_Variant_3 : 0 0 per_variant_size: 0 0 0 0 0 0 0 0 0 
Heartbeat_Variant_0_evicts 0 : 7407 1 : 643 2 : 1550 3 : 0 
Heartbeat_Variant_1_evicts 0 : 770 1 : 0 2 : 512 3 : 0 
Heartbeat_Variant_2_evicts 0 : 1423 1 : 640 2 : 0 3 : 0 
Heartbeat_Variant_3_evicts 0 : 0 1 : 0 2 : 0 3 : 0 
Heartbeat CPU 0 instructions: 90000001 cycles: 43915789 heartbeat IPC: 1.3273 cumulative IPC: 1.3363 (Simulation time: 0 hr 15 min 1 sec) 
Cycle: 50000000 FTQ IN: 13460712 FTQ occupancy: 10.4988 DECODE IN: 13460581 DECODE occupancy: 26.0834 ROB IN: 13460521 ROB occupancy: 200.49 ROB OUT: 13460499
Heartbeat_Variant_0 : 1474 0.179932 per_variant_size: 0 1474 0 0 0 0 0 0 0 
Heartbeat_Variant_1 : 1593 0.194458 per_variant_size: 0 1012 581 0 0 0 0 0 0 
Heartbeat_Variant_2 : 1587 0.193726 per_variant_size: 0 768 521 245 53 0 0 0 0 
Heartbeat_Variant_3 : 0 0 per_variant_size: 0 0 0 0 0 0 0 0 0 
Heartbeat_Variant_0_evicts 0 : 7356 1 : 639 2 : 1521 3 : 0 
Heartbeat_Variant_1_evicts 0 : 763 1 : 0 2 : 503 3 : 0 
Heartbeat_Variant_2_evicts 0 : 1395 1 : 628 2 : 0 3 : 0 
Heartbeat_Variant_3_evicts 0 : 0 1 : 0 2 : 0 3 : 0 
Heartbeat CPU 0 instructions: 100000003 cycles: 51360421 heartbeat IPC: 1.34325 cumulative IPC: 1.33768 (Simulation time: 0 hr 16 min 29 sec) 
Finished CPU 0 instructions: 50000002 cycles: 37378108 cumulative IPC: 1.33768 (Simulation time: 0 hr 16 min 29 sec) 

ChampSim completed all CPUs

Region of Interest Statistics

CPU 0 cumulative IPC: 1.33768 instructions: 50000002 cycles: 37378108
 Fetch stage stalled: 60.4601  Sim cycles: 37378108 fetch stall cycle: 22598844
 Empty decode stage: 47.285  Sim cycles: 37378108 fetch stall cycle: 17674240
ITLB TOTAL     ACCESS:    5807962  HIT:    5318334  MISS:     489628  HIT %:    91.5697  MISS %:    8.43029   MPKI: 9.79256
ITLB LOAD TRANSLATION INSTRUCTION	ACCESS:    5685956  HIT:    5196328  MISS:     489628  HIT %:    91.3888  MISS %:    8.61118  MPKI: 9.79256
ITLB TRANSLATION FROM L1D PREFETCHER INSTRUCTION	ACCESS:     122006  HIT:     122006  MISS:          0  HIT %:        100  MISS %:          0  MPKI: 0

ITLB AVERAGE MISS LATENCY: 9.04728 cycles
ITLB RQ	ACCESS:    7877653	FORWARD:          0	MERGED:    1626993	TO_CACHE:    6250660

DTLB TOTAL     ACCESS:    9010771  HIT:    8535844  MISS:     474927  HIT %:    94.7293  MISS %:    5.27066   MPKI: 9.49854
DTLB LOAD TRANSLATION DATA	ACCESS:    9010771  HIT:    8535844  MISS:     474927  HIT %:    94.7293  MISS %:    5.27066  MPKI: 9.49854

DTLB AVERAGE MISS LATENCY: 9.30038 cycles
DTLB RQ	ACCESS:   13355409	FORWARD:          0	MERGED:    4307239	TO_CACHE:    9048170

STLB TOTAL     ACCESS:    1218006  HIT:    1216057  MISS:       1949  HIT %:      99.84  MISS %:   0.160016   MPKI: 0.03898
STLB LOAD TRANSLATION INSTRUCTION	ACCESS:     489627  HIT:     489393  MISS:        234  HIT %:    99.9522  MISS %:  0.0477915  MPKI: 0.00468
STLB LOAD TRANSLATION DATA	ACCESS:     474745  HIT:     473038  MISS:       1707  HIT %:    99.6404  MISS %:   0.359561  MPKI: 0.03414
STLB TRANSLATION FROM L1D PREFETCHER DATA	ACCESS:     253634  HIT:     253626  MISS:          8  HIT %:    99.9968  MISS %: 0.00315415  MPKI: 0.00016

STLB AVERAGE MISS LATENCY: 69.822 cycles
STLB RQ	ACCESS:    1353726	FORWARD:          0	MERGED:     135691	TO_CACHE:    1218035

STLB Hit, L1D data hit: 0
STLB Hit, L2C data hit: 0
STLB Hit, LLC data hit: 0
STLB Hit, LLC data miss: 0
STLB STLB hints to L2: 0
L1D TOTAL     ACCESS:   13118543  HIT:   11976806  MISS:    1141737  HIT %:    91.2968  MISS %:    8.70323   MPKI: 22.8347
L1D LOAD DATA	ACCESS:    6600646  HIT:    5848324  MISS:     752322  HIT %:    88.6023  MISS %:    11.3977  MPKI: 15.0464
L1D RFO DATA	ACCESS:    6184013  HIT:    5896307  MISS:     287706  HIT %:    95.3476  MISS %:    4.65242  MPKI: 5.75412
L1D PREFETCH DATA	ACCESS:     333884  HIT:     232175  MISS:     101709  HIT %:    69.5376  MISS %:    30.4624  MPKI: 2.03418

L1D PREFETCH  REQUESTED:     778696  ISSUED:     778696  USEFUL:      42647  USELESS:      70385
L1D USEFUL LOAD PREFETCHES:      42647 PREFETCH ISSUED TO LOWER LEVEL:     113084  ACCURACY: 37.7127
 TIMELY PREFETCHES:      42647 LATE PREFETCHES: 11314 DROPPED PREFETCHES: 5
L1D AVERAGE MISS LATENCY: 325247 cycles
L1D RQ	ACCESS:   10710909	FORWARD:          0	MERGED:    3915123	TO_CACHE:    6633716
L1D WQ	ACCESS:    6912607	FORWARD:     162424	MERGED:     190914	TO_CACHE:    6721693
L1D PQ	ACCESS:     389525	FORWARD:          0	MERGED:          0	TO_CACHE:     389171

L1D UNIQUE REGIONS ACCESSED: 0
L1D REGIONS CONFLICTS: 0
L1D Cross Page Prefetch Requests: 5955
L1D Same Page Prefetch Requests: 784571
L1D ROI Sum of L1D PQ occupancy: 4940787
L1D PREFETCHES PUSHED FROM L2C: 0
L1I TOTAL     ACCESS:    7126251  HIT:    4386039  MISS:    2740212  HIT %:    61.5476  MISS %:    38.4524   MPKI: 54.8042
L1I LOAD INSTRUCTION	ACCESS:    6491287  HIT:    3751075  MISS:    2740212  HIT %:    57.7863  MISS %:    42.2137  MPKI: 54.8042
L1I PREFETCH INSTRUCTION	ACCESS:     634964  HIT:     634964  MISS:          0  HIT %:        100  MISS %:          0  MPKI: 0

L1I PREFETCH  REQUESTED:    1484919  ISSUED:    1484919  USEFUL:          0  USELESS:          0
L1I USEFUL LOAD PREFETCHES:          0 PREFETCH ISSUED TO LOWER LEVEL:          0  ACCURACY: -nan
 TIMELY PREFETCHES:          0 LATE PREFETCHES: 0 DROPPED PREFETCHES: 0
L1I AVERAGE MISS LATENCY: 17.2693 cycles
L1I RQ	ACCESS:    9489092	FORWARD:          0	MERGED:    2693754	TO_CACHE:    6795338
L1I PQ	ACCESS:    1484919	FORWARD:          0	MERGED:     402604	TO_CACHE:    1082315

L1BTB TOTAL     ACCESS:    5678760  HIT:    2075790  MISS:    3602970  HIT %:    36.5536  MISS %:    63.4464   MPKI: 72.0594
L1BTB BRANCH_DIRECT_JUMP	ACCESS:     546210  HIT:     145243  MISS:     400967	AVERAGE STALL: 48.4745
L1BTB BRANCH_INDIRECT	ACCESS:     182640  HIT:      66215  MISS:     116425	AVERAGE STALL: 101.273
L1BTB BRANCH_CONDITIONAL	ACCESS:    2728715  HIT:    1445615  MISS:    1283100	AVERAGE STALL: 47.9723
L1BTB BRANCH_DIRECT_CALL	ACCESS:     939596  HIT:     106230  MISS:     833366	AVERAGE STALL: 52.1023
L1BTB BRANCH_INDIRECT_CALL	ACCESS:     171011  HIT:      21612  MISS:     149399	AVERAGE STALL: 122.371
L1BTB BRANCH_RETURN	ACCESS:    1110588  HIT:     290875  MISS:     819713	AVERAGE STALL: 45.0572
L1BTB BRANCH_OTHER ACCESS:          0  HIT:          0  MISS:          0	AVERAGE STALL: -nan
L1BTB TOTAL ROB OCCUPANCY AT BTB MISS: 6.6238

L2BTB TOTAL     ACCESS:    3577624  HIT:    3429833  MISS:     147791  HIT %:     95.869  MISS %:    4.13098   MPKI: 2.95582
L2BTB BRANCH_DIRECT_JUMP	ACCESS:     396774  HIT:     381974  MISS:      14800	AVERAGE STALL: 48.4745
L2BTB BRANCH_INDIRECT	ACCESS:     106218  HIT:     103040  MISS:       3178	AVERAGE STALL: 101.273
L2BTB BRANCH_CONDITIONAL	ACCESS:    1283100  HIT:    1229480  MISS:      53620	AVERAGE STALL: 47.9723
L2BTB BRANCH_DIRECT_CALL	ACCESS:     833366  HIT:     813746  MISS:      19620	AVERAGE STALL: 52.1023
L2BTB BRANCH_INDIRECT_CALL	ACCESS:     139844  HIT:     127863  MISS:      11981	AVERAGE STALL: 122.371
L2BTB BRANCH_RETURN	ACCESS:     818322  HIT:     773730  MISS:      44592	AVERAGE STALL: 45.0572
L2BTB BRANCH_OTHER ACCESS:          0  HIT:          0  MISS:          0	AVERAGE STALL: -nan
L2BTB TOTAL ROB OCCUPANCY AT BTB MISS: 161.48

L2C TOTAL     ACCESS:    4492583  HIT:    4013030  MISS:     479553  HIT %:    89.3257  MISS %:    10.6743   MPKI: 9.59106
L2C LOAD INSTRUCTION	ACCESS:    2740211  HIT:    2475112  MISS:     265099  HIT %:    90.3256  MISS %:     9.6744  MPKI: 5.30198
L2C LOAD TRANSLATION INSTRUCTION	ACCESS:        268  HIT:         52  MISS:        216  HIT %:     19.403  MISS %:     80.597  MPKI: 0.00432
L2C LOAD DATA	ACCESS:     740983  HIT:     661838  MISS:      79145  HIT %:    89.3189  MISS %:    10.6811  MPKI: 1.5829
L2C RFO DATA	ACCESS:     287610  HIT:     241867  MISS:      45743  HIT %:    84.0955  MISS %:    15.9045  MPKI: 0.91486
L2C PREFETCH DATA	ACCESS:     198831  HIT:     123298  MISS:      75533  HIT %:    62.0115  MISS %:    37.9885  MPKI: 1.51066
L2C WRITEBACK DATA	ACCESS:     522871  HIT:     510360  MISS:      12511  HIT %:    97.6072  MISS %:    2.39275  MPKI: 0.25022
L2C LOAD TRANSLATION DATA	ACCESS:       1792  HIT:        491  MISS:       1301  HIT %:    27.3996  MISS %:    72.6004  MPKI: 0.02602
L2C TRANSLATION FROM L1D PREFETCHER DATA	ACCESS:         17  HIT:         12  MISS:          5  HIT %:    70.5882  MISS %:    29.4118  MPKI: 0.0001

L2C PREFETCH  REQUESTED:      92912  ISSUED:      92912  USEFUL:       7519  USELESS:      68375
L2C USEFUL LOAD PREFETCHES:       7519 PREFETCH ISSUED TO LOWER LEVEL:      75891  ACCURACY: 9.90763
 TIMELY PREFETCHES:       7519 LATE PREFETCHES: 358 DROPPED PREFETCHES: 0
L2C AVERAGE MISS LATENCY: 38.0146 cycles
L2C RQ	ACCESS:    3770941	FORWARD:          0	MERGED:          0	TO_CACHE:    3770881
L2C WQ	ACCESS:     522871	FORWARD:         61	MERGED:          0	TO_CACHE:     522871
L2C PQ	ACCESS:     205996	FORWARD:          0	MERGED:       3379	TO_CACHE:     202616

L2C Dense regions hint from L2: 0
PSCL5 TOTAL     ACCESS:       3908  HIT:       1954  MISS:       1954  HIT %:         50  MISS %:         50   MPKI: 0.03908
PSCL5 LOAD TRANSLATION INSTRUCTION	ACCESS:       3874  HIT:       1937  MISS:       1937  HIT %:         50  MISS %:         50  MPKI: 0.03874
PSCL5 TRANSLATION FROM L1D PREFETCHER INSTRUCTION	ACCESS:         34  HIT:         17  MISS:         17  HIT %:         50  MISS %:         50  MPKI: 0.00034


PSCL4 TOTAL     ACCESS:       3597  HIT:       1794  MISS:       1803  HIT %:    49.8749  MISS %:    50.1251   MPKI: 0.03606
PSCL4 LOAD TRANSLATION INSTRUCTION	ACCESS:       2590  HIT:       1778  MISS:        812  HIT %:    68.6486  MISS %:    31.3514  MPKI: 0.01624
PSCL4 TRANSLATION FROM L1D PREFETCHER INSTRUCTION	ACCESS:         26  HIT:         16  MISS:         10  HIT %:    61.5385  MISS %:    38.4615  MPKI: 0.0002
PSCL4 LOAD TRANSLATION DATA	ACCESS:        975  HIT:          0  MISS:        975  HIT %:          0  MISS %:        100  MPKI: 0.0195
PSCL4 TRANSLATION FROM L1D PREFETCHER DATA	ACCESS:          6  HIT:          0  MISS:          6  HIT %:          0  MISS %:        100  MPKI: 0.00012


PSCL3 TOTAL     ACCESS:       3607  HIT:       1799  MISS:       1808  HIT %:    49.8752  MISS %:    50.1248   MPKI: 0.03616
PSCL3 LOAD TRANSLATION INSTRUCTION	ACCESS:       2595  HIT:       1783  MISS:        812  HIT %:    68.7091  MISS %:    31.2909  MPKI: 0.01624
PSCL3 TRANSLATION FROM L1D PREFETCHER INSTRUCTION	ACCESS:         26  HIT:         16  MISS:         10  HIT %:    61.5385  MISS %:    38.4615  MPKI: 0.0002
PSCL3 LOAD TRANSLATION DATA	ACCESS:        980  HIT:          0  MISS:        980  HIT %:          0  MISS %:        100  MPKI: 0.0196
PSCL3 TRANSLATION FROM L1D PREFETCHER DATA	ACCESS:          6  HIT:          0  MISS:          6  HIT %:          0  MISS %:        100  MPKI: 0.00012


PSCL2 TOTAL     ACCESS:       3803  HIT:       1849  MISS:       1954  HIT %:    48.6195  MISS %:    51.3805   MPKI: 0.03908
PSCL2 LOAD TRANSLATION INSTRUCTION	ACCESS:       2066  HIT:       1832  MISS:        234  HIT %:    88.6738  MISS %:    11.3262  MPKI: 0.00468
PSCL2 TRANSLATION FROM L1D PREFETCHER INSTRUCTION	ACCESS:         17  HIT:         17  MISS:          0  HIT %:        100  MISS %:          0  MPKI: 0
PSCL2 LOAD TRANSLATION DATA	ACCESS:       1703  HIT:          0  MISS:       1703  HIT %:          0  MISS %:        100  MPKI: 0.03406
PSCL2 TRANSLATION FROM L1D PREFETCHER DATA	ACCESS:         17  HIT:          0  MISS:         17  HIT %:          0  MISS %:        100  MPKI: 0.00034


LLC TOTAL     ACCESS:     534134  HIT:     507055  MISS:      27079  HIT %:    94.9303  MISS %:     5.0697   MPKI: 0.54158
LLC LOAD INSTRUCTION	ACCESS:     265099  HIT:     264428  MISS:        671  HIT %:    99.7469  MISS %:   0.253113  MPKI: 0.01342
LLC LOAD TRANSLATION INSTRUCTION	ACCESS:        216  HIT:        186  MISS:         30  HIT %:    86.1111  MISS %:    13.8889  MPKI: 0.0006
LLC LOAD DATA	ACCESS:      78798  HIT:      75559  MISS:       3239  HIT %:    95.8895  MISS %:    4.11051  MPKI: 0.06478
LLC RFO DATA	ACCESS:      45721  HIT:      32426  MISS:      13295  HIT %:    70.9215  MISS %:    29.0785  MPKI: 0.2659
LLC PREFETCH DATA	ACCESS:      75891  HIT:      66417  MISS:       9474  HIT %:    87.5163  MISS %:    12.4837  MPKI: 0.18948
LLC WRITEBACK DATA	ACCESS:      67103  HIT:      66791  MISS:        312  HIT %:     99.535  MISS %:   0.464957  MPKI: 0.00624
LLC LOAD TRANSLATION DATA	ACCESS:       1301  HIT:       1243  MISS:         58  HIT %:    95.5419  MISS %:    4.45811  MPKI: 0.00116
LLC TRANSLATION FROM L1D PREFETCHER DATA	ACCESS:          5  HIT:          5  MISS:          0  HIT %:        100  MISS %:          0  MPKI: 0

LLC AVERAGE MISS LATENCY: 154.627 cycles
LLC RQ	ACCESS:     391151	FORWARD:          0	MERGED:          0	TO_CACHE:     391140
LLC WQ	ACCESS:      67103	FORWARD:         11	MERGED:          0	TO_CACHE:      67103
LLC PQ	ACCESS:      75891	FORWARD:          0	MERGED:          0	TO_CACHE:      75891

LLC Dense regions hint to LLC: 0

RAW hits: 1900928
Loads Generated: 12611837
Loads sent to L1D: 10710909
Stores Generated: 6912591
Stores sent to L1D: 6912607
Major fault: 0 Minor fault: 2577
Allocated PAGES: 2577

stream: 
stream:times selected: 1232641
stream:pref_filled: 126475
stream:pref_useful: 28068
stream:pref_late: 8353
stream:misses: 8994
stream:misses_by_poll: 0

CS: 
CS:times selected: 190022
CS:pref_filled: 68293
CS:pref_useful: 44180
CS:pref_late: 9026
CS:misses: 21883
CS:misses_by_poll: 6

CPLX: 
CPLX:times selected: 1041525
CPLX:pref_filled: 23586
CPLX:pref_useful: 6919
CPLX:pref_late: 3349
CPLX:misses: 117501
CPLX:misses_by_poll: 3

NL_L1: 
NL:times selected: 12341
NL:pref_filled: 1508
NL:pref_useful: 255
NL:pref_late: 180
NL:misses: 1543
NL:misses_by_poll: 0

total selections: 2476529
total_filled: 101709
total_useful: 42647
total_late: 22772
total_polluted: 9
total_misses_after_warmup: 785396
conflicts: 5515962

test: 119498

DRAM Statistics
 CHANNEL 0
 RQ ROW_BUFFER_HIT:      10002  ROW_BUFFER_MISS:      16755
 DBUS_CONGESTED:         18
 WQ ROW_BUFFER_HIT:       1261  ROW_BUFFER_MISS:      11874  FULL:          0

 AVG_CONGESTED_CYCLE: 5

CPU 0 Branch Prediction Accuracy: 99.8226% MPKI: 0.32482 Average ROB Occupancy at Mispredict: 169.611
Branch types
NOT_BRANCH: 40846581 81.6932%
BRANCH_DIRECT_JUMP: 546210 1.09242%
BRANCH_INDIRECT: 182640 0.36528%
BRANCH_CONDITIONAL: 6203144 12.4063%
BRANCH_DIRECT_CALL: 939596 1.87919%
BRANCH_INDIRECT_CALL: 171011 0.342022%
BRANCH_RETURN: 1110588 2.22118%
BRANCH_OTHER: 0 0%

DRAM PAGES: 1048576
Allocated PAGES: 2577
Average_ROB_Occupancy: 200.404
Average_Decode_Occupancy: 25.9828
Average_FTQ_Occupancy: 10.527
Indirect max targets: 14 Average targets: 1.17089
Branch_type:  BRANCH_DIRECT_JUMP:  Count Percentage: 3.32051 6.19415 4.30401 8.81398 1.87569 6.00951 1.91814 67.564 
Branch_type:  BRANCH_INDIRECT:  Count Percentage: 6.17261 3.47733 8.1595 9.69184 3.33604 2.80016 3.86041 62.5021 
Branch_type:  BRANCH_CONDITIONAL:  Count Percentage: 26.1018 3.20765 1.6015 4.18098 2.53423 3.64856 2.43583 56.2895 
Branch_type:  BRANCH_DIRECT_CALL:  Count Percentage: 0.38922 1.76596 0.758727 3.64088 3.49153 2.73797 3.17717 84.0386 
Branch_type:  BRANCH_INDIRECT_CALL:  Count Percentage: 9.53062 0 2.98707 0.000878722 1.12213 2.03014 4.98206 79.3471 
Branch_type:  BRANCH_RETURN:  Count Percentage: 7.52239 1.79183 1.29973 4.14133 4.11902 3.55167 3.80763 73.7664 
Branch_type:  BRANCH_DIRECT_JUMP:  Total Count: 36291 67698 47040 96331 20500 65680 20964 738430 
Branch_type:  BRANCH_INDIRECT:  Total Count: 22542 12699 29798 35394 12183 10226 14098 228254 
Branch_type:  BRANCH_CONDITIONAL:  Total Count: 3237257 397827 198625 518544 314306 452511 302102 6981268 
Branch_type:  BRANCH_DIRECT_CALL:  Total Count: 7305 33144 14240 68333 65530 51387 59630 1577260 
Branch_type:  BRANCH_INDIRECT_CALL:  Total Count: 32538 0 10198 3 3831 6931 17009 270895 
Branch_type:  BRANCH_RETURN:  Total Count: 166927 39762 28842 91899 91404 78814 84494 1636927 
Number of unique branch instructions: 10531
Upper 32 bits: 
aaaa
ffff
ffff0000
Unique upper 32 bits: 3
Unique upper 36 bits: 3
Unique upper 40 bits: 5
Unique upper 44 bits: 32
Unique upper 48 bits: 158
Variant_0 : 1474 0.179932
Variant_1 : 1593 0.194458
Variant_2 : 1587 0.193726
Variant_3 : 0 0
Offset_3 4360
Offset_4 258
Offset_5 477
Offset_6 532
Offset_7 618
Offset_8 563
Offset_9 503
Offset_10 414
Offset_11 333
Offset_12 295
Offset_13 228
Offset_14 233
Offset_15 198
Offset_16 228
Offset_17 163
Offset_18 146
Offset_19 260
Offset_20 141
Offset_21 235
Offset_22 402
Offset_23 241
Offset_24 348
Offset_25 114
Offset_47 92
decode_dispatch_called: 23008216 61.5553
Dispatch_width: 0 12200668 53.0274 32.6412
Dispatch_width: 1 717534 3.1186 1.91966
Dispatch_width: 2 701353 3.04827 1.87637
Dispatch_width: 3 440222 1.91333 1.17775
Dispatch_width: 4 3456094 15.0211 9.24631
Dispatch_width: 5 219413 0.953629 0.587009
Dispatch_width: 6 5272932 22.9176 14.107
Empty_decode_cycles: 14369892 38.4447
ROB_full_cycles: 5479945 14.6608
Starvation_cycles_per_kilo_instr: 266.252
Starvation_cycles_per_kilo_instr_3: 229.497
Starvation_cycles_per_kilo_instr_0: 210.906
Branch_type_1  (3,1)  (4,9)  (5,39)  (6,73)  (7,122)  (8,146)  (9,135)  (10,108)  (11,76)  (12,47)  (13,11)  (14,2)  (15,3)  (16,4)  (18,1)  (19,5)  (20,2)  (21,1)  (22,3)  (23,2)  (24,10)  (25,12) 
Branch_type_2  (3,1)  (4,1)  (5,1)  (8,4)  (9,4)  (10,1)  (12,1)  (13,1)  (14,1)  (16,3)  (17,2)  (20,2)  (21,2)  (23,5)  (24,1)  (47,42) 
Branch_type_3  (3,4358)  (4,248)  (5,433)  (6,443)  (7,466)  (8,346)  (9,274)  (10,168)  (11,130)  (12,54)  (13,10) 
Branch_type_4  (6,3)  (7,8)  (8,25)  (9,56)  (10,65)  (11,66)  (12,106)  (13,96)  (14,104)  (15,94)  (16,101)  (17,72)  (18,62)  (19,127)  (20,73)  (21,124)  (22,212)  (23,136)  (24,203)  (25,98) 
Branch_type_5  (8,3)  (9,1)  (10,4)  (11,5)  (12,3)  (13,14)  (14,16)  (15,11)  (16,22)  (17,13)  (18,23)  (19,14)  (20,11)  (21,13)  (22,43)  (23,26)  (24,38) 
Branch_type_6  (5,4)  (6,13)  (7,22)  (8,39)  (9,33)  (10,68)  (11,56)  (12,84)  (13,96)  (14,110)  (15,90)  (16,98)  (17,76)  (18,60)  (19,114)  (20,53)  (21,95)  (22,144)  (23,72)  (24,96)  (25,4)  (47,50) 
Unique trigger count: 
Variant_0_evicts_0 : 0
Variant_0_evicts_1 : 0
Variant_0_evicts_2 : 0
Variant_0_evicts_3 : 0
Variant_1_evicts_0 : 0
Variant_1_evicts_1 : 0
Variant_1_evicts_2 : 0
Variant_1_evicts_3 : 0
Variant_2_evicts_0 : 0
Variant_2_evicts_1 : 0
Variant_2_evicts_2 : 0
Variant_2_evicts_3 : 0
Variant_3_evicts_0 : 0
Variant_3_evicts_1 : 0
Variant_3_evicts_2 : 0
Variant_3_evicts_3 : 0
BTB PER SET UNIQUE ADDR: 3 4 3 3 1 1 3 2 4 0 2 0 5 3 1 3 3 2 3 5 3 4 2 3 4 5 2 4 3 3 6 5 4 3 4 2 1 5 6 2 4 4 4 6 6 3 4 4 6 3 3 2 3 1 0 3 4 3 3 3 1 4 2 3 1 4 5 4 3 5 5 1 1 4 2 3 3 6 1 4 2 2 1 4 3 3 2 5 3 3 6 4 3 5 2 0 3 4 2 3 3 4 3 3 3 2 1 2 3 2 2 2 3 6 2 6 2 4 4 1 5 4 2 0 1 2 2 2 7 4 6 2 4 1 6 4 2 2 3 3 4 4 4 2 1 5 3 5 4 4 3 9 3 5 4 1 4 4 3 3 4 6 5 4 5 5 2 2 8 3 2 3 4 3 1 2 4 3 6 1 3 4 7 4 6 6 3 1 2 3 5 2 3 4 4 4 3 3 3 5 3 2 4 2 3 3 2 4 2 1 2 4 5 4 4 2 3 5 4 0 1 2 2 4 3 2 4 3 0 3 7 4 3 4 4 4 5 2 2 2 1 0 5 3 11 7 1 3 4 4 2 2 1 4 2 6 3 4 4 3 4 4 4 2 3 6 3 2 4 2 3 2 2 3 4 2 1 1 3 3 4 3 6 2 5 5 3 3 1 1 0 3 1 5 2 1 5 3 2 2 3 3 2 2 3 2 4 2 7 5 4 1 3 2 5 2 6 6 2 3 4 6 3 4 2 3 2 7 1 2 5 0 2 4 5 2 2 2 6 0 3 0 1 5 5 2 1 3 3 5 4 6 5 3 5 3 2 0 5 1 2 5 2 4 6 5 1 1 2 1 3 2 2 4 4 4 3 4 3 3 5 3 1 5 3 2 5 2 6 1 5 4 4 2 3 1 5 0 1 4 4 2 5 2 2 4 4 3 1 1 1 3 6 3 2 3 5 3 1 3 1 1 4 4 3 4 2 0 2 5 2 2 9 3 5 5 3 3 4 0 2 4 5 4 5 6 2 4 3 2 4 3 1 3 5 1 1 4 7 2 3 3 4 6 1 3 4 2 2 3 0 4 5 2 2 1 4 5 1 1 2 1 2 2 0 4 3 0 5 1 4 2 3 4 1 6 3 3 3 1 5 1 1 1 2 2 2 2 2 3 4 2 3 7 2 1 2 5 3 6 4 5 4 2 6 5 1 6 6 4 4 3 4 6 3 4 2 1 4 1 2 5 6 2 5 2 7 3 6 9 3 6 3 5 1 3 3 1 4 3 8 2 5 3 2 1 4 3 2 7 4 2 3 8 3 2 3 4 1 5 5 2 2 0 1 0 0 9 4 3 6 8 1 2 3 3 6 3 5 3 6 3 5 7 3 4 3 4 2 2 5 3 3 2 2 2 2 0 3 1 5 3 6 2 2 4 3 5 2 3 5 4 4 3 4 4 3 4 3 2 7 1 4 4 1 0 4 3 3 4 4 2 5 2 3 0 4 3 2 3 5 2 5 4 6 4 5 3 2 4 5 4 4 3 5 5 3 3 3 2 3 2 4 2 5 3 5 3 4 3 1 4 2 3 3 3 6 4 5 4 0 6 0 3 3 3 3 1 3 1 3 3 3 1 2 1 8 2 0 3 2 0 1 1 1 3 1 4 2 4 5 4 2 1 3 4 7 3 2 2 2 3 2 4 2 2 3 2 2 2 0 2 1 4 2 2 3 6 4 1 3 3 1 5 4 4 8 2 2 2 4 3 0 3 3 4 4 2 1 3 4 4 0 3 8 6 3 3 0 2 2 4 2 1 4 7 7 2 2 2 5 3 5 3 4 3 3 3 2 3 1 3 4 0 5 3 1 2 0 4 5 2 4 2 2 2 3 2 4 4 3 1 3 2 5 2 2 2 5 3 2 2 3 4 2 5 6 5 5 2 6 3 5 4 5 5 3 2 4 5 2 6 2 1 9 3 3 4 5 3 2 3 3 6 4 0 2 3 5 4 3 5 4 4 5 3 2 3 2 4 4 2 3 4 3 1 6 4 2 1 5 2 2 4 5 5 4 5 3 5 5 4 1 3 1 5 0 2 6 2 6 4 5 3 4 1 3 2 5 8 5 4 9 6 6 4 6 5 2 6 4 2 1 4 4 5 5 5 4 4 6 2 5 4 2 3 6 6 4 2 2 2 4 5 2 6 9 5 6 3 2 3 0 4 6 1 7 5 1 3 7 5 3 5 2 1 2 3 3 2 5 4 2 7 4 4 4 5 3 5 3 2 4 3 2 5 4 3 3 4 5 3 4 3 6 2 5 2 2 5 5 2 9 5 2 3 3 2 2 3 3 7 6 2 3 2 3 2 2 1 3 2 4 4 1 4 6 5 4 6 0 3 3 4 4 4 2 1 3 2 3 1 2 1 4 1 3 3 3 5 2 8 5 3 2 1 9 1 2 4 1 2 5 5 3 6 3 4 5 5 3 5 3 2 1 1 5 1 4 4 3 8 5 1 6 4 6 2 3 4 5 3 5 7 4 4 6 1 4 5 7 4 3 3 4 3 6 6 3 5 7 6 4 3 5 4 1 2 3 5 1 3 2 1 3 5 2 3 5 2 2 5 4 2 5 1 6 3 3 2 3 1 3 5 3 4 3 4 2 5 2 3 7 3 3 5 3 5 2 8 3 5 3 8 6 2 6 1 5 2 1 2 4 3 3 1 3 4 3 1 2 2 4 4 3 3 3 4 2 5 2 5 4 5 0 5 3 3 2 6 8 1 7 0 1 4 5 2 5 1 3 3 4 1 1 2 4 5 3 4 1 4 4 6 5 1 4 3 3 6 10 4 3 7 6 5 1 1 3 5 6 3 2 2 4 3 4 4 5 3 1 4 2 3 6 8 5 3 3 6 1 2 6 3 4 1 3 2 6 8 3 3 3 3 4 5 2 5 5 6 5 2 1 5 4 2 4 3 4 3 4 4 6 3 5 4 3 5 5 3 1 7 4 4 3 3 3 2 3 3 2 2 5 4 3 3 5 2 1 3 3 8 5 2 3 4 2 4 3 3 4 3 2 1 4 2 4 2 5 3 3 4 2 1 2 6 1 4 2 4 2 3 6 2 1 5 4 4 3 3 5 2 3 4 5 5 4 4 4 3 3 3 2 3 5 2 4 1 4 0 7 3 3 6 4 4 5 7 3 2 3 3 2 3 4 1 4 2 4 2 0 5 1 6 2 3 3 4 3 2 5 3 4 2 4 1 6 2 0 3 4 1 1 4 1 5 3 3 6 3 2 2 2 3 2 2 7 2 3 6 3 3 3 3 2 2 5 0 2 3 4 3 2 1 2 0 3 0 4 2 4 3 3 3 2 1 2 5 4 2 7 1 3 3 2 2 5 5 2 2 6 0 1 2 3 1 1 2 3 3 5 3 1 1 7 3 1 4 1 7 1 4 2 3 6 2 3 2 1 3 3 1 3 3 4 2 3 3 1 3 0 5 2 3 3 0 4 3 5 3 5 3 3 4 1 3 1 1 1 3 4 0 2 3 3 3 4 1 3 3 2 9 7 2 3 2 4 1 1 3 6 2 3 0 3 2 4 2 3 5 6 5 8 0 4 1 8 4 4 5 3 7 2 4 8 3 0 6 4 3 3 5 3 3 2 1 2 5 2 2 2 3 2 3 6 3 5 3 5 1 1 4 4 3 3 5 4 3 5 2 5 5 2 5 4 3 3 1 3 7 5 3 2 3 3 3 4 4 2 2 3 1 3 1 3 7 0 2 2 3 3 3 5 3 4 2 6 1 2 2 5 2 4 5 7 1 1 7 2 4 2 3 4 7 2 3 2 5 7 3 4 3 5 3 5 9 3 3 4 5 2 5 4 3 2 3 0 2 2 4 4 3 2 4 3 5 4 3 4 8 0 3 2 4 4 3 3 4 3 6 3 4 1 5 3 3 4 2 3 0 2 5 0 7 2 6 6 1 4 3 3 0 5 3 3 6 3 6 2 3 2 2 3 5 7 1 3 3 0 3 2 4 6 3 2 4 5 2 3 2 6 4 4 1 4 3 0 2 4 1 1 8 2 0 4 2 4 3 2 3 6 3 2 6 1 5 4 6 2 6 5 3 3 2 7 1 4 0 3 3 4 4 3 4 2 1 2 4 0 3 0 3 4 6 2 2 5 2 3 3 3 1 2 2 4 2 4 2 5 3 2 3 1 1 3 2 3 2 3 4 2 1 1 2 2 5 1 5 1 5 4 3 3 2 5 1 2 3 5 4 2 4 5 6 3 3 3 4 3 2 0 3 2 0 2 1 2 2 4 2 5 2 2 3 4 1 2 4 3 2 3 8 3 2 7 7 4 2 3 2 3 5 3 4 5 3 4 1 2 4 5 4 2 4 3 2 5 2 5 7 3 3 0 4 1 0 2 3 0 4 4 6 1 3 3 7 5 0 2 2 4 2 5 2 3 3 8 3 2 2 3 8 2 7 3 4 7 0 1 3 1 4 4 2 0 2 3 4 5 4 1 0 3 4 6 1 2 1 3 7 2 1 5 5 3 3 4 4 1 6 2 6 2 1 2 2 2 2 6 1 3 3 3 3 4 1 5 3 5 3 4 2 1 3 6 4 3 0 
BTB PER SET COUNT: 3 4 3 3 1 1 4 2 4 0 2 0 8 3 1 5 3 2 3 1463 3 4 2 3 4 5 2 4 1458 3 10 9 5 4 4 2 2914 5 9 2 4 4 7 1214 4840 5 4 5 8 3 3 2 3 1 0 3 5 3 3 3 1 4 2 3 1 374 537 4 3 5 888 1 1 4 2 4 499 715 1 4 2 2 1 4 4 3 2 6 3 3 10 468 3 5 3 0 3 4 2 3 3 4 3 3 3 2 1 2 3 3 2 2 4 10 2 7 2 4 4 1 5 4 2 0 1 2 2 2 14 5 998 2 4 1 8 4 2 2 3 3 4 8 4 2 1 982 3 5 4 4 3 93 4 5 4 1 4 5 991 3 4 14 994 4 5 1929 2 2 3884 3 2 4 4 3 1 2 4 3 970 1 3 4 12 4 8 8 3 1 2 3 6 2 4 4 4 5 3 3 4 5 3 2 5 2 3 3 2 1462 2 1 2 5 5 4 4 2 3 5 4 0 1 2 2 4 3 2 6 17 0 3 1194 5 3 4 4 4 8 2 2 2 2 0 6 3 15 9 1 3 4 4 2 2 1 4 2 6 3 4 4 3 4 4 4 2 1459 9 5 2 4 2 3 2 2 3 5 4 1 1 3 3 4 991 9 2 5 1489 3 3 1 1 0 1925 1 5 2 1 8 3 2 2 3 3 2 2 3 2 5 2 1986 5 4 1 3 2 5 4 6 8 2 3 5 6 3 4 2 3 2 7 1 2 996 0 2 4 1928 2 992 2 9 0 3 0 1 995 995 2 1 3 3 5 4 9 5 3 6 4 2 0 6 1 2 5 2 4 8 7 1 1 3 1 4 2 2 5 5 4 3 4 3 4 23 3 1 7 4 2 12 2 6 1 6 4 4 2 4 1 1461 0 1 4 5 2 7 2 2 6 1459 3 1 961 1 3 6 7 962 3 224 3 1 93 1 1 7 5 3 4 4 0 2 8 130 2 2725 3 7 5 3 3 4 0 2 5 6 4 6 24 2 5 3 2 5 3 1 3 5 1 1 4 1003 2 3 3 4 9 1 3 5 2 2 3 0 4 2944 496 2 1 4 5 1 1 3 1 2 495 0 4 3 0 5 1 4 2 3 6 1 13 3 3 3 1 5 10 1 1 2 2 2 2 2 3 4 2 3 8 4 1 2 5 4 995 5 1462 7 2 9 6 1 6 6 7 4 3 6 8 3 993 2 1 5 1 3 5 9 4 997 2 8 3 8 14 5 12 5 7 1 3 7 1 4 3 24 1929 5 3 2 1 6 3 2 1008 5 2 3 1494 3 2 3 5 1 6 5 43 2 0 1 0 0 2324 5 3 9 23 1 2 963 4 6 3 7 3 8 5 5 10 3 4 3 4 2 2 5 3 5 2 2 3 936 0 3 2 9 498 6 2 2 4 4 8 2 4 500 1459 5 11 4 4 5 4 3 2 2002 1 4 4 1 0 4 3 3 4 4 2 7 2 5 0 4 4 2 4 7841 2 14 4 10 4 2920 993 3 4 938 5 6 5 5 997 3 3 4 2 3 2 4 992 6 4 5 1458 4 3 1 995 2 3 3 3 6 6 17 35 0 6 0 3 3 993 4 1 3 1 3 3 5 1 992 1 1475 2 0 3 2 0 1 1 1 3 1 984 2 4 1927 4 962 1 3 4 10 3 2 2 2 3 2 4 2 2 498 2 2 992 0 3 1 5 2 2 3 6 6 1 3 3 1 5 4 4 20 2 4 2 4 22 0 118 4 7 5 2 1 3 4 21 0 1926 746 12 4 3 0 2 2 1360 3 1 4 8 1115 2 3 2 6 3 5 994 1985 3 3 3 3 5 1 3 4 0 7 5 2 2 0 4 11 2 4 2 3 2 3 2 6 76 4 1 3 2 10 995 2 3 5 3 2 2 3 1462 2 11 2919 7 7 3 9 3 8 6 10 8 3 2 4 8 2 8 2 1 2892 963 3 5 8 5 2 5 3 10 8 0 3 3 6 4 4 5 10 5 10 3 2 3 2 5 4 2 3 4 3 1 8 5 2 1 5 2 2 47 5 5 4 5 4 8 5 4 1 3 1 5 0 2 7 2 10 4 5 3 7 1 3 2 5 1003 8 501 2796 1403 6 4 56 9 2 8 4 2 1 965 4 5 5 254 4 4 6 2 7 6 2 3 13 9 5 2 2 497 5 6 5 11 18 10 6 3 2 3 0 373 10 1 971 5 1 3 1001 9 499 5 2 3 2 4 3 2 5 995 2 996 4 5 7 1981 4 11 4 2 4 3 2 5 4 3 6 4 1988 4 2421 372 1700 3 9 5 2 5 646 2 1517 9 2 992 3 3 2 3 3 31 6 3 4 1924 3 2 2 3 992 2 4 5 1 4 10 6 4 6 0 3 3 4 1459 374 2 1 5 6 3 1 6 1 4 1 3 3 3 9 2 14 8 3 2 1 1933 1 2 4 1 2 8 81 3 6 4 4 5 6 4 5 3 2 1 1 8 1 993 4 3 16 6 1 6 4 17 2 498 4 7 4 5 613 4 5 10 1 5 10 8 4 3 3 4 4 6 971 3 5 9 1361 6 3 8 8 1 3 3 6 1 3 2 1 3 7 2 3 1683 2 2 6 4 2 5 1 7 3 3 2 3 1 3 7 3 8 4 4 2 8 2 3 16 3 3 6 4 8 2 18 3 994 3 998 7 2 968 1 14 2 1 2 499 994 3 1 3 153 3 1 2 497 4 4 3 4 6 4 2 1490 2 5 4 5 0 9 3 3 2 12 985 1 11 0 1 7 5 3 7 1 3 1487 6 1 1 2 5 4869 3 4 1 5 5 6 5 1 4 3 3 9 12 1937 3 2591 6 5 1 1 4 5 17 3 2 2 4 3 4 4 7 3 1 4 2 3 6 409 8 3 3 10 1 2 6 3 4 1 3 2 6 1476 963 3 3 3 4 7 2 7 5 7 5 3 1 26 4 2 5 3 2915 3 7 4 7 3 5 4 992 5 2476 1001 1 2150 4 5 3 3 3 2 3 3 2 2 6 4 4 3 5 2 1 4 4 1991 11 3 4 4 2 4 3 3 4 3 3 1 4 2 7 2 5 3 993 4 2 1 2 6 3 4 2 4 2 3 9 2 1 6 4 966 3 3 7 2 3 46 8 7 5 4 4 3 5 3 3 4 7 7 6 1 7 0 8 3 3 7 6 7 5 2752 3 2 3 3 2 3 5 2 5 4 993 4 0 6 1 7 2 3 3 4 5 2 1460 3 4 1332 6 1 474 2 0 3 4 1 2 1334 1 994 3 3 6 3 2 2 2 3 2 2 3477 2 3 10 3 3 3 5 2 2 5 0 4 992 4 963 2 1 2 0 3 0 4 2 6 3 3 4 992 1 7 18 29 2 2482 1 3 3 2 2 7 998 114 2 20406 0 1 2 3 1 1 2 3 3 275 393 1 1 39 3 1 4 1 9 1 4 2 3 25 3 3 2 1 3 3 1 3 3 4 2 4 3 1 3 0 3819 2 3 3 0 4 438 5 3 7 3 3 4 1 5 1 1 1 5 5 0 2 3 3 3 11 1 932 3 2 57 7 2 3 2 4 1 1 6 970 3 3 0 3 2 4 2 3 5 6 7 26 0 933 1 11 4 4 6 3 2480 2 4 4874 3 0 996 1459 3 3 8 6 5 2 1 2 970 2 2 2 3 2 4 6 4 5 3 2917 2971 1 4 4 3 3 8 4 3 9 2 995 5 2 5 7 1245 372 1 1458 19 5 252 9 3 3 3 5 4 2 11 3 1 3 1 3 7 0 3 2 4 3 3 499 3 4 2 8 1 2 2 7 2 1492 8 11 1 1 10 2 994 2 4 5 8 497 3 2 993 10 3 500 5 894 3 1984 6512 3 3 14569 1000 2 1983 1459 4 2 992 0 3 2 4 4 3 2 4 3 5 4 3 169 11 0 2419 2 1459 198 4 3 4 3 6 3 772 1 5 3 3 5 2 1925 0 991 625 0 2458 2 6 10 1 8 4 3 0 5 3 3 8 3 9 2 3 2 2 3 7 7 1 4 515 0 3 2 4 995 1924 2 4 966 2 3 2 1463 4 4 1 7 3 0 2 9 1456 1 2752 2 0 4 2 5 3 4 4 7 3 423 9 1 5 4 6 236 996 113 3 3 2 738 1 438 0 3 2915 4 7 3 5 2 1 2 469 0 4 0 3 6 8 2 2 1930 371 3 7 963 1 2 2 4 2 4 2 24 6 991 3 1 1 448 2 3 2 3 7 2 1 1 2 2 5 1 8 1 3820 4 3 3 9 6 1 2 3 5 5 2 995 8 6 3 4 3 5 3 2 0 4 3 0 2 1 2 2 4 5 5 2 2 3 7 1 2 4 3 2 3 15 5 2 1423 19 138 2 3 3 3 8 3 4 7 4 7 1 2 4 7 994 2 6 3 2 6 2 5 15 3 4 0 1926 1 0 2 3 0 5 2915 269 1 3 3 960 7 0 2 2 8 3 5 2 5 3 4289 3 2 3 3 522 6 997 3 4 5071 0 2 3 1 4 4 2 0 2 3 2916 5 4 1 0 4 5 8 1 2 1 3 15 2 1 5 7 3 5 4 4 1 24 2 6 3 1 2 2 2 2 8 1 3 3 3 3 4 1 5 4 329 3 5 2 1 3 1493 4 5 0 
To predecode: 0
Predecoding something: 0
Predecode request dropped: 0
sizeofblock_0 0
sizeofblock_1 109219
sizeofblock_2 84362
sizeofblock_3 63649
sizeofblock_4 6214
sizeofblock_5 0
sizeofblock_6 0
sizeofblock_7 0
sizeofblock_8 0
