
*** ChampSim Multicore Out-of-Order Simulator ***

Warmup Instructions: 50000000
Simulation Instructions: 50000000
Number of CPUs: 1
LLC sets: 2048
LLC ways: 16
Off-chip DRAM Size: 4096 MB Channels: 1 Width: 64-bit Data Rate: 6400 MT/s
CPU 0 runs ./micro_traces/srv74.trace.gz
.gz
ITLB has LRU replacement policy
DTLB has LRU replacement policy
STLB has LRU replacement policy
FDIP Prefetcher at L1I
L1I has LRU replacement policy
L1D has LRU replacement policy
Initialize SRRIP state for L2C
Initialize DRRIP state for LLC
Heartbeat_Variant_0 : 1116 0.272461 per_variant_size: 0 1116 0 0 0 0 0 0 0 
Heartbeat_Variant_1 : 2585 0.631104 per_variant_size: 0 1065 1520 0 0 0 0 0 0 
Heartbeat_Variant_2 : 0 0 per_variant_size: 0 0 0 0 0 0 0 0 0 
Heartbeat_Variant_3 : 0 0 per_variant_size: 0 0 0 0 0 0 0 0 0 
Heartbeat_Variant_0_evicts 0 : 12695 1 : 15637 2 : 0 3 : 0 
Heartbeat_Variant_1_evicts 0 : 15563 1 : 0 2 : 0 3 : 0 
Heartbeat_Variant_2_evicts 0 : 0 1 : 0 2 : 0 3 : 0 
Heartbeat_Variant_3_evicts 0 : 0 1 : 0 2 : 0 3 : 0 
Heartbeat CPU 0 instructions: 10000003 cycles: 2796754 heartbeat IPC: 3.57557 cumulative IPC: 3.57557 (Simulation time: 0 hr 1 min 46 sec) 
Heartbeat_Variant_0 : 1129 0.275635 per_variant_size: 0 1129 0 0 0 0 0 0 0 
Heartbeat_Variant_1 : 2650 0.646973 per_variant_size: 0 1022 1628 0 0 0 0 0 0 
Heartbeat_Variant_2 : 0 0 per_variant_size: 0 0 0 0 0 0 0 0 0 
Heartbeat_Variant_3 : 0 0 per_variant_size: 0 0 0 0 0 0 0 0 0 
Heartbeat_Variant_0_evicts 0 : 12668 1 : 15459 2 : 0 3 : 0 
Heartbeat_Variant_1_evicts 0 : 15457 1 : 0 2 : 0 3 : 0 
Heartbeat_Variant_2_evicts 0 : 0 1 : 0 2 : 0 3 : 0 
Heartbeat_Variant_3_evicts 0 : 0 1 : 0 2 : 0 3 : 0 
Heartbeat CPU 0 instructions: 20000001 cycles: 5594199 heartbeat IPC: 3.57469 cumulative IPC: 3.57513 (Simulation time: 0 hr 3 min 27 sec) 
Heartbeat_Variant_0 : 1128 0.275391 per_variant_size: 0 1128 0 0 0 0 0 0 0 
Heartbeat_Variant_1 : 2723 0.664795 per_variant_size: 0 954 1769 0 0 0 0 0 0 
Heartbeat_Variant_2 : 0 0 per_variant_size: 0 0 0 0 0 0 0 0 0 
Heartbeat_Variant_3 : 0 0 per_variant_size: 0 0 0 0 0 0 0 0 0 
Heartbeat_Variant_0_evicts 0 : 12318 1 : 16307 2 : 0 3 : 0 
Heartbeat_Variant_1_evicts 0 : 16320 1 : 0 2 : 0 3 : 0 
Heartbeat_Variant_2_evicts 0 : 0 1 : 0 2 : 0 3 : 0 
Heartbeat_Variant_3_evicts 0 : 0 1 : 0 2 : 0 3 : 0 
Heartbeat CPU 0 instructions: 30000002 cycles: 8391149 heartbeat IPC: 3.57532 cumulative IPC: 3.5752 (Simulation time: 0 hr 5 min 7 sec) 
Heartbeat_Variant_0 : 1137 0.277588 per_variant_size: 0 1137 0 0 0 0 0 0 0 
Heartbeat_Variant_1 : 2744 0.669922 per_variant_size: 0 943 1801 0 0 0 0 0 0 
Heartbeat_Variant_2 : 0 0 per_variant_size: 0 0 0 0 0 0 0 0 0 
Heartbeat_Variant_3 : 0 0 per_variant_size: 0 0 0 0 0 0 0 0 0 
Heartbeat_Variant_0_evicts 0 : 12453 1 : 15852 2 : 0 3 : 0 
Heartbeat_Variant_1_evicts 0 : 15847 1 : 0 2 : 0 3 : 0 
Heartbeat_Variant_2_evicts 0 : 0 1 : 0 2 : 0 3 : 0 
Heartbeat_Variant_3_evicts 0 : 0 1 : 0 2 : 0 3 : 0 
Heartbeat CPU 0 instructions: 40000002 cycles: 11187040 heartbeat IPC: 3.57668 cumulative IPC: 3.57557 (Simulation time: 0 hr 6 min 50 sec) 
Heartbeat_Variant_0 : 1154 0.281738 per_variant_size: 0 1154 0 0 0 0 0 0 0 
Heartbeat_Variant_1 : 2730 0.666504 per_variant_size: 0 893 1837 0 0 0 0 0 0 
Heartbeat_Variant_2 : 0 0 per_variant_size: 0 0 0 0 0 0 0 0 0 
Heartbeat_Variant_3 : 0 0 per_variant_size: 0 0 0 0 0 0 0 0 0 
Heartbeat_Variant_0_evicts 0 : 12269 1 : 15865 2 : 0 3 : 0 
Heartbeat_Variant_1_evicts 0 : 15849 1 : 0 2 : 0 3 : 0 
Heartbeat_Variant_2_evicts 0 : 0 1 : 0 2 : 0 3 : 0 
Heartbeat_Variant_3_evicts 0 : 0 1 : 0 2 : 0 3 : 0 
Heartbeat CPU 0 instructions: 50000002 cycles: 13982573 heartbeat IPC: 3.57714 cumulative IPC: 3.57588 (Simulation time: 0 hr 8 min 31 sec) 

Warmup complete CPU 0 instructions: 50000002 cycles: 13982573 (Simulation time: 0 hr 8 min 31 sec) 

Cycle: 20000000 FTQ IN: 57436520 FTQ occupancy: 18.5442 DECODE IN: 57436437 DECODE occupancy: 47.6952 ROB IN: 57436437 ROB occupancy: 290.254 ROB OUT: 57436425
Heartbeat_Variant_0 : 1148 0.280273 per_variant_size: 0 1148 0 0 0 0 0 0 0 
Heartbeat_Variant_1 : 2736 0.667969 per_variant_size: 0 921 1815 0 0 0 0 0 0 
Heartbeat_Variant_2 : 0 0 per_variant_size: 0 0 0 0 0 0 0 0 0 
Heartbeat_Variant_3 : 0 0 per_variant_size: 0 0 0 0 0 0 0 0 0 
Heartbeat_Variant_0_evicts 0 : 12707 1 : 15870 2 : 0 3 : 0 
Heartbeat_Variant_1_evicts 0 : 15876 1 : 0 2 : 0 3 : 0 
Heartbeat_Variant_2_evicts 0 : 0 1 : 0 2 : 0 3 : 0 
Heartbeat_Variant_3_evicts 0 : 0 1 : 0 2 : 0 3 : 0 
Heartbeat CPU 0 instructions: 60000001 cycles: 22073929 heartbeat IPC: 1.23589 cumulative IPC: 1.23589 (Simulation time: 0 hr 10 min 5 sec) 
Cycle: 30000000 FTQ IN: 12179403 FTQ occupancy: 8.22619 DECODE IN: 12179381 DECODE occupancy: 18.8157 ROB IN: 12179321 ROB occupancy: 152.257 ROB OUT: 12178981
Heartbeat_Variant_0 : 1144 0.279297 per_variant_size: 0 1144 0 0 0 0 0 0 0 
Heartbeat_Variant_1 : 2740 0.668945 per_variant_size: 0 898 1842 0 0 0 0 0 0 
Heartbeat_Variant_2 : 0 0 per_variant_size: 0 0 0 0 0 0 0 0 0 
Heartbeat_Variant_3 : 0 0 per_variant_size: 0 0 0 0 0 0 0 0 0 
Heartbeat_Variant_0_evicts 0 : 12628 1 : 16175 2 : 0 3 : 0 
Heartbeat_Variant_1_evicts 0 : 16179 1 : 0 2 : 0 3 : 0 
Heartbeat_Variant_2_evicts 0 : 0 1 : 0 2 : 0 3 : 0 
Heartbeat_Variant_3_evicts 0 : 0 1 : 0 2 : 0 3 : 0 
Heartbeat CPU 0 instructions: 70000001 cycles: 30307678 heartbeat IPC: 1.21451 cumulative IPC: 1.22511 (Simulation time: 0 hr 11 min 40 sec) 
Heartbeat_Variant_0 : 1133 0.276611 per_variant_size: 0 1133 0 0 0 0 0 0 0 
Heartbeat_Variant_1 : 2751 0.671631 per_variant_size: 0 947 1804 0 0 0 0 0 0 
Heartbeat_Variant_2 : 0 0 per_variant_size: 0 0 0 0 0 0 0 0 0 
Heartbeat_Variant_3 : 0 0 per_variant_size: 0 0 0 0 0 0 0 0 0 
Heartbeat_Variant_0_evicts 0 : 12862 1 : 16034 2 : 0 3 : 0 
Heartbeat_Variant_1_evicts 0 : 16045 1 : 0 2 : 0 3 : 0 
Heartbeat_Variant_2_evicts 0 : 0 1 : 0 2 : 0 3 : 0 
Heartbeat_Variant_3_evicts 0 : 0 1 : 0 2 : 0 3 : 0 
Heartbeat CPU 0 instructions: 80000000 cycles: 38416616 heartbeat IPC: 1.23321 cumulative IPC: 1.2278 (Simulation time: 0 hr 13 min 11 sec) 
Cycle: 40000000 FTQ IN: 12355578 FTQ occupancy: 8.18705 DECODE IN: 12355671 DECODE occupancy: 18.9001 ROB IN: 12355720 ROB occupancy: 154.989 ROB OUT: 12355890
Heartbeat_Variant_0 : 1152 0.28125 per_variant_size: 0 1152 0 0 0 0 0 0 0 
Heartbeat_Variant_1 : 2732 0.666992 per_variant_size: 0 920 1812 0 0 0 0 0 0 
Heartbeat_Variant_2 : 0 0 per_variant_size: 0 0 0 0 0 0 0 0 0 
Heartbeat_Variant_3 : 0 0 per_variant_size: 0 0 0 0 0 0 0 0 0 
Heartbeat_Variant_0_evicts 0 : 12614 1 : 16326 2 : 0 3 : 0 
Heartbeat_Variant_1_evicts 0 : 16307 1 : 0 2 : 0 3 : 0 
Heartbeat_Variant_2_evicts 0 : 0 1 : 0 2 : 0 3 : 0 
Heartbeat_Variant_3_evicts 0 : 0 1 : 0 2 : 0 3 : 0 
Heartbeat CPU 0 instructions: 90000003 cycles: 46655080 heartbeat IPC: 1.21382 cumulative IPC: 1.22427 (Simulation time: 0 hr 14 min 41 sec) 
Cycle: 50000000 FTQ IN: 12190031 FTQ occupancy: 8.25281 DECODE IN: 12189933 DECODE occupancy: 18.8277 ROB IN: 12189884 ROB occupancy: 150.474 ROB OUT: 12189718
Heartbeat_Variant_0 : 1137 0.277588 per_variant_size: 0 1137 0 0 0 0 0 0 0 
Heartbeat_Variant_1 : 2747 0.670654 per_variant_size: 0 944 1803 0 0 0 0 0 0 
Heartbeat_Variant_2 : 0 0 per_variant_size: 0 0 0 0 0 0 0 0 0 
Heartbeat_Variant_3 : 0 0 per_variant_size: 0 0 0 0 0 0 0 0 0 
Heartbeat_Variant_0_evicts 0 : 12324 1 : 15462 2 : 0 3 : 0 
Heartbeat_Variant_1_evicts 0 : 15477 1 : 0 2 : 0 3 : 0 
Heartbeat_Variant_2_evicts 0 : 0 1 : 0 2 : 0 3 : 0 
Heartbeat_Variant_3_evicts 0 : 0 1 : 0 2 : 0 3 : 0 
Heartbeat CPU 0 instructions: 100000003 cycles: 54686378 heartbeat IPC: 1.24513 cumulative IPC: 1.22839 (Simulation time: 0 hr 16 min 16 sec) 
Finished CPU 0 instructions: 50000001 cycles: 40703805 cumulative IPC: 1.22839 (Simulation time: 0 hr 16 min 16 sec) 

ChampSim completed all CPUs

Region of Interest Statistics

CPU 0 cumulative IPC: 1.22839 instructions: 50000001 cycles: 40703805
 Fetch stage stalled: 66.386  Sim cycles: 40703805 fetch stall cycle: 27021615
 Empty decode stage: 53.482  Sim cycles: 40703805 fetch stall cycle: 21769191
ITLB TOTAL     ACCESS:    5643635  HIT:    5150652  MISS:     492983  HIT %:    91.2648  MISS %:     8.7352   MPKI: 9.85966
ITLB LOAD TRANSLATION INSTRUCTION	ACCESS:    5526921  HIT:    5033938  MISS:     492983  HIT %:    91.0803  MISS %:    8.91967  MPKI: 9.85966
ITLB TRANSLATION FROM L1D PREFETCHER INSTRUCTION	ACCESS:     116714  HIT:     116714  MISS:          0  HIT %:        100  MISS %:          0  MPKI: 0

ITLB AVERAGE MISS LATENCY: 9.04238 cycles
ITLB RQ	ACCESS:    7558619	FORWARD:          0	MERGED:    1420817	TO_CACHE:    6137802

DTLB TOTAL     ACCESS:    9171346  HIT:    8700045  MISS:     471301  HIT %:    94.8612  MISS %:    5.13884   MPKI: 9.42602
DTLB LOAD TRANSLATION DATA	ACCESS:    9171346  HIT:    8700045  MISS:     471301  HIT %:    94.8612  MISS %:    5.13884  MPKI: 9.42602

DTLB AVERAGE MISS LATENCY: 9.29069 cycles
DTLB RQ	ACCESS:   13492594	FORWARD:          0	MERGED:    4286322	TO_CACHE:    9206272

STLB TOTAL     ACCESS:    1212424  HIT:    1210491  MISS:       1933  HIT %:    99.8406  MISS %:   0.159433   MPKI: 0.03866
STLB LOAD TRANSLATION INSTRUCTION	ACCESS:     492983  HIT:     492744  MISS:        239  HIT %:    99.9515  MISS %:  0.0484804  MPKI: 0.00478
STLB LOAD TRANSLATION DATA	ACCESS:     471089  HIT:     469424  MISS:       1665  HIT %:    99.6466  MISS %:   0.353436  MPKI: 0.0333
STLB TRANSLATION FROM L1D PREFETCHER DATA	ACCESS:     248352  HIT:     248323  MISS:         29  HIT %:    99.9883  MISS %:   0.011677  MPKI: 0.00058

STLB AVERAGE MISS LATENCY: 67.8795 cycles
STLB RQ	ACCESS:    1332677	FORWARD:          0	MERGED:     120208	TO_CACHE:    1212469

STLB Hit, L1D data hit: 0
STLB Hit, L2C data hit: 0
STLB Hit, LLC data hit: 0
STLB Hit, LLC data miss: 0
STLB STLB hints to L2: 0
L1D TOTAL     ACCESS:   13262592  HIT:   12151663  MISS:    1110929  HIT %:    91.6236  MISS %:    8.37641   MPKI: 22.2186
L1D LOAD DATA	ACCESS:    6702097  HIT:    5968467  MISS:     733630  HIT %:    89.0537  MISS %:    10.9463  MPKI: 14.6726
L1D RFO DATA	ACCESS:    6231463  HIT:    5947287  MISS:     284176  HIT %:    95.4397  MISS %:    4.56034  MPKI: 5.68352
L1D PREFETCH DATA	ACCESS:     329032  HIT:     235909  MISS:      93123  HIT %:    71.6979  MISS %:    28.3021  MPKI: 1.86246

L1D PREFETCH  REQUESTED:     737112  ISSUED:     737112  USEFUL:      32791  USELESS:      67387
L1D USEFUL LOAD PREFETCHES:      32791 PREFETCH ISSUED TO LOWER LEVEL:     100211  ACCURACY: 32.722
 TIMELY PREFETCHES:      32791 LATE PREFETCHES: 7058 DROPPED PREFETCHES: 12
L1D AVERAGE MISS LATENCY: 219989 cycles
L1D RQ	ACCESS:   10799653	FORWARD:          0	MERGED:    3899031	TO_CACHE:    6733670
L1D WQ	ACCESS:    6941120	FORWARD:     167278	MERGED:     182196	TO_CACHE:    6758924
L1D PQ	ACCESS:     368719	FORWARD:          0	MERGED:          0	TO_CACHE:     368393

L1D UNIQUE REGIONS ACCESSED: 0
L1D REGIONS CONFLICTS: 0
L1D Cross Page Prefetch Requests: 6985
L1D Same Page Prefetch Requests: 747682
L1D ROI Sum of L1D PQ occupancy: 4678895
L1D PREFETCHES PUSHED FROM L2C: 0
L1I TOTAL     ACCESS:    6961212  HIT:    4204320  MISS:    2756892  HIT %:    60.3964  MISS %:    39.6036   MPKI: 55.1378
L1I LOAD INSTRUCTION	ACCESS:    6427448  HIT:    3670556  MISS:    2756892  HIT %:    57.1075  MISS %:    42.8925  MPKI: 55.1378
L1I PREFETCH INSTRUCTION	ACCESS:     533764  HIT:     533764  MISS:          0  HIT %:        100  MISS %:          0  MPKI: 0

L1I PREFETCH  REQUESTED:    1238062  ISSUED:    1238062  USEFUL:          0  USELESS:          0
L1I USEFUL LOAD PREFETCHES:          0 PREFETCH ISSUED TO LOWER LEVEL:          0  ACCURACY: -nan
 TIMELY PREFETCHES:          0 LATE PREFETCHES: 0 DROPPED PREFETCHES: 0
L1I AVERAGE MISS LATENCY: 17.1021 cycles
L1I RQ	ACCESS:    9464027	FORWARD:          0	MERGED:    2793183	TO_CACHE:    6670844
L1I PQ	ACCESS:    1238062	FORWARD:          0	MERGED:     350287	TO_CACHE:     887775

L1BTB TOTAL     ACCESS:    5669395  HIT:    2046850  MISS:    3622545  HIT %:    36.1035  MISS %:    63.8965   MPKI: 72.4509
L1BTB BRANCH_DIRECT_JUMP	ACCESS:     548178 HIT:     144937 MISS:     403241 AVERAGE STALL: 40.6791 AVERAGE FETCH STALL: 19.2065 AVERAGE FETCH QUEUE STALL: 10.9902 AVERAGE DECODE STALL: 9.65687 AVERAGE EXECUTE STALL: 5.47885e+14
L1BTB BRANCH_INDIRECT	ACCESS:     182905 HIT:      66113 MISS:     116792 AVERAGE STALL: 92.3192 AVERAGE FETCH STALL: 12.7791 AVERAGE FETCH QUEUE STALL: 9.20794 AVERAGE DECODE STALL: 8.04799 AVERAGE EXECUTE STALL: 61.3351
L1BTB BRANCH_CONDITIONAL	ACCESS:    2706770 HIT:    1416515 MISS:    1290255 AVERAGE STALL: 40.7547 AVERAGE FETCH STALL: 22.1886 AVERAGE FETCH QUEUE STALL: 9.5159 AVERAGE DECODE STALL: 8.31041 AVERAGE EXECUTE STALL: 2.12523e+14
L1BTB BRANCH_DIRECT_CALL	ACCESS:     943779 HIT:     106083 MISS:     837696 AVERAGE STALL: 41.8362 AVERAGE FETCH STALL: 22.0485 AVERAGE FETCH QUEUE STALL: 10.3209 AVERAGE DECODE STALL: 8.70551 AVERAGE EXECUTE STALL: 1.65029e+14
L1BTB BRANCH_INDIRECT_CALL	ACCESS:     171991 HIT:      21753 MISS:     150238 AVERAGE STALL: 124.616 AVERAGE FETCH STALL: 16.3456 AVERAGE FETCH QUEUE STALL: 8.54558 AVERAGE DECODE STALL: 7.9 AVERAGE EXECUTE STALL: 91.2997
L1BTB BRANCH_RETURN	ACCESS:    1115772 HIT:     291449 MISS:     824323 AVERAGE STALL: 40.4835 AVERAGE FETCH STALL: 18.4036 AVERAGE FETCH QUEUE STALL: 6.42451 AVERAGE DECODE STALL: 6.82885 AVERAGE EXECUTE STALL: 2.40395e+14
L1BTB BRANCH_OTHER ACCESS:          0 HIT:          0 MISS:          0 AVERAGE STALL: -nan AVERAGE FETCH STALL: -nan AVERAGE FETCH QUEUE STALL: -nan AVERAGE DECODE STALL: -nan AVERAGE EXECUTE STALL: -nan
L1BTB TOTAL ROB OCCUPANCY AT BTB MISS: 12.081

L2BTB TOTAL     ACCESS:    3597113  HIT:    3259996  MISS:     337117  HIT %:    90.6281  MISS %:    9.37188   MPKI: 6.74234
L2BTB BRANCH_DIRECT_JUMP	ACCESS:     399059 HIT:     369567 MISS:      29492 AVERAGE STALL: 40.6791 AVERAGE FETCH STALL: 19.2065 AVERAGE FETCH QUEUE STALL: 10.9902 AVERAGE DECODE STALL: 9.65687 AVERAGE EXECUTE STALL: 5.47885e+14
L2BTB BRANCH_INDIRECT	ACCESS:     106520 HIT:     100225 MISS:       6295 AVERAGE STALL: 92.3192 AVERAGE FETCH STALL: 12.7791 AVERAGE FETCH QUEUE STALL: 9.20794 AVERAGE DECODE STALL: 8.04799 AVERAGE EXECUTE STALL: 61.3351
L2BTB BRANCH_CONDITIONAL	ACCESS:    1290255 HIT:    1202960 MISS:      87295 AVERAGE STALL: 40.7547 AVERAGE FETCH STALL: 22.1886 AVERAGE FETCH QUEUE STALL: 9.5159 AVERAGE DECODE STALL: 8.31041 AVERAGE EXECUTE STALL: 2.12523e+14
L2BTB BRANCH_DIRECT_CALL	ACCESS:     837696 HIT:     725891 MISS:     111805 AVERAGE STALL: 41.8362 AVERAGE FETCH STALL: 22.0485 AVERAGE FETCH QUEUE STALL: 10.3209 AVERAGE DECODE STALL: 8.70551 AVERAGE EXECUTE STALL: 1.65029e+14
L2BTB BRANCH_INDIRECT_CALL	ACCESS:     140662 HIT:     113787 MISS:      26875 AVERAGE STALL: 124.616 AVERAGE FETCH STALL: 16.3456 AVERAGE FETCH QUEUE STALL: 8.54558 AVERAGE DECODE STALL: 7.9 AVERAGE EXECUTE STALL: 91.2997
L2BTB BRANCH_RETURN	ACCESS:     822921 HIT:     747566 MISS:      75355 AVERAGE STALL: 40.4835 AVERAGE FETCH STALL: 18.4036 AVERAGE FETCH QUEUE STALL: 6.42451 AVERAGE DECODE STALL: 6.82885 AVERAGE EXECUTE STALL: 2.40395e+14
L2BTB BRANCH_OTHER ACCESS:          0 HIT:          0 MISS:          0 AVERAGE STALL: -nan AVERAGE FETCH STALL: -nan AVERAGE FETCH QUEUE STALL: -nan AVERAGE DECODE STALL: -nan AVERAGE EXECUTE STALL: -nan
L2BTB TOTAL ROB OCCUPANCY AT BTB MISS: 129.818

L2C TOTAL     ACCESS:    4469978  HIT:    4028514  MISS:     441464  HIT %:    90.1238  MISS %:     9.8762   MPKI: 8.82928
L2C LOAD INSTRUCTION	ACCESS:    2756892  HIT:    2510915  MISS:     245977  HIT %:    91.0777  MISS %:    8.92226  MPKI: 4.91954
L2C LOAD TRANSLATION INSTRUCTION	ACCESS:        269  HIT:         81  MISS:        188  HIT %:    30.1115  MISS %:    69.8885  MPKI: 0.00376
L2C LOAD DATA	ACCESS:     726554  HIT:     659306  MISS:      67248  HIT %:    90.7443  MISS %:    9.25575  MPKI: 1.34496
L2C RFO DATA	ACCESS:     284122  HIT:     236106  MISS:      48016  HIT %:    83.1002  MISS %:    16.8998  MPKI: 0.96032
L2C PREFETCH DATA	ACCESS:     181446  HIT:     114604  MISS:      66842  HIT %:    63.1615  MISS %:    36.8385  MPKI: 1.33684
L2C WRITEBACK DATA	ACCESS:     518927  HIT:     507004  MISS:      11923  HIT %:    97.7024  MISS %:    2.29763  MPKI: 0.23846
L2C LOAD TRANSLATION DATA	ACCESS:       1712  HIT:        460  MISS:       1252  HIT %:    26.8692  MISS %:    73.1308  MPKI: 0.02504
L2C TRANSLATION FROM L1D PREFETCHER DATA	ACCESS:         56  HIT:         38  MISS:         18  HIT %:    67.8571  MISS %:    32.1429  MPKI: 0.00036

L2C PREFETCH  REQUESTED:      88188  ISSUED:      88188  USEFUL:       8223  USELESS:      59133
L2C USEFUL LOAD PREFETCHES:       8223 PREFETCH ISSUED TO LOWER LEVEL:      67311  ACCURACY: 12.2164
 TIMELY PREFETCHES:       8223 LATE PREFETCHES: 469 DROPPED PREFETCHES: 0
L2C AVERAGE MISS LATENCY: 38.4936 cycles
L2C RQ	ACCESS:    3769647	FORWARD:          0	MERGED:          0	TO_CACHE:    3769605
L2C WQ	ACCESS:     518927	FORWARD:         42	MERGED:          0	TO_CACHE:     518927
L2C PQ	ACCESS:     188399	FORWARD:          0	MERGED:       3496	TO_CACHE:     184903

L2C Dense regions hint from L2: 0
PSCL5 TOTAL     ACCESS:       3900  HIT:       1950  MISS:       1950  HIT %:         50  MISS %:         50   MPKI: 0.039
PSCL5 LOAD TRANSLATION INSTRUCTION	ACCESS:       3788  HIT:       1894  MISS:       1894  HIT %:         50  MISS %:         50  MPKI: 0.03788
PSCL5 TRANSLATION FROM L1D PREFETCHER INSTRUCTION	ACCESS:        112  HIT:         56  MISS:         56  HIT %:         50  MISS %:         50  MPKI: 0.00112


PSCL4 TOTAL     ACCESS:       3849  HIT:       1922  MISS:       1927  HIT %:     49.935  MISS %:     50.065   MPKI: 0.03854
PSCL4 LOAD TRANSLATION INSTRUCTION	ACCESS:       3479  HIT:       1873  MISS:       1606  HIT %:    53.8373  MISS %:    46.1627  MPKI: 0.03212
PSCL4 TRANSLATION FROM L1D PREFETCHER INSTRUCTION	ACCESS:         98  HIT:         49  MISS:         49  HIT %:         50  MISS %:         50  MPKI: 0.00098
PSCL4 LOAD TRANSLATION DATA	ACCESS:        272  HIT:          0  MISS:        272  HIT %:          0  MISS %:        100  MPKI: 0.00544


PSCL3 TOTAL     ACCESS:       3855  HIT:       1925  MISS:       1930  HIT %:    49.9351  MISS %:    50.0649   MPKI: 0.0386
PSCL3 LOAD TRANSLATION INSTRUCTION	ACCESS:       3482  HIT:       1876  MISS:       1606  HIT %:    53.8771  MISS %:    46.1229  MPKI: 0.03212
PSCL3 TRANSLATION FROM L1D PREFETCHER INSTRUCTION	ACCESS:         98  HIT:         49  MISS:         49  HIT %:         50  MISS %:         50  MPKI: 0.00098
PSCL3 LOAD TRANSLATION DATA	ACCESS:        275  HIT:          0  MISS:        275  HIT %:          0  MISS %:        100  MPKI: 0.0055


PSCL2 TOTAL     ACCESS:       3822  HIT:       1872  MISS:       1950  HIT %:    48.9796  MISS %:    51.0204   MPKI: 0.039
PSCL2 LOAD TRANSLATION INSTRUCTION	ACCESS:       2055  HIT:       1816  MISS:        239  HIT %:    88.3698  MISS %:    11.6302  MPKI: 0.00478
PSCL2 TRANSLATION FROM L1D PREFETCHER INSTRUCTION	ACCESS:         56  HIT:         56  MISS:          0  HIT %:        100  MISS %:          0  MPKI: 0
PSCL2 LOAD TRANSLATION DATA	ACCESS:       1655  HIT:          0  MISS:       1655  HIT %:          0  MISS %:        100  MPKI: 0.0331
PSCL2 TRANSLATION FROM L1D PREFETCHER DATA	ACCESS:         56  HIT:          0  MISS:         56  HIT %:          0  MISS %:        100  MPKI: 0.00112


LLC TOTAL     ACCESS:     497196  HIT:     470624  MISS:      26572  HIT %:    94.6556  MISS %:    5.34437   MPKI: 0.53144
LLC LOAD INSTRUCTION	ACCESS:     245977  HIT:     245345  MISS:        632  HIT %:    99.7431  MISS %:   0.256935  MPKI: 0.01264
LLC LOAD TRANSLATION INSTRUCTION	ACCESS:        188  HIT:        160  MISS:         28  HIT %:    85.1064  MISS %:    14.8936  MPKI: 0.00056
LLC LOAD DATA	ACCESS:      66814  HIT:      63609  MISS:       3205  HIT %:    95.2031  MISS %:     4.7969  MPKI: 0.0641
LLC RFO DATA	ACCESS:      47975  HIT:      34918  MISS:      13057  HIT %:    72.7837  MISS %:    27.2163  MPKI: 0.26114
LLC PREFETCH DATA	ACCESS:      67311  HIT:      58035  MISS:       9276  HIT %:    86.2192  MISS %:    13.7808  MPKI: 0.18552
LLC WRITEBACK DATA	ACCESS:      67661  HIT:      67332  MISS:        329  HIT %:    99.5138  MISS %:   0.486248  MPKI: 0.00658
LLC LOAD TRANSLATION DATA	ACCESS:       1252  HIT:       1207  MISS:         45  HIT %:    96.4058  MISS %:    3.59425  MPKI: 0.0009
LLC TRANSLATION FROM L1D PREFETCHER DATA	ACCESS:         18  HIT:         18  MISS:          0  HIT %:        100  MISS %:          0  MPKI: 0

LLC AVERAGE MISS LATENCY: 153.296 cycles
LLC RQ	ACCESS:     362230	FORWARD:          0	MERGED:          0	TO_CACHE:     362224
LLC WQ	ACCESS:      67661	FORWARD:          6	MERGED:          0	TO_CACHE:      67661
LLC PQ	ACCESS:      67311	FORWARD:          0	MERGED:          0	TO_CACHE:      67311

LLC Dense regions hint to LLC: 0

RAW hits: 1830427
Loads Generated: 12630080
Loads sent to L1D: 10799653
Stores Generated: 6941120
Stores sent to L1D: 6941120
Major fault: 0 Minor fault: 2614
Allocated PAGES: 2614

stream: 
stream:times selected: 1188109
stream:pref_filled: 120308
stream:pref_useful: 23969
stream:pref_late: 6455
stream:misses: 8144
stream:misses_by_poll: 0

CS: 
CS:times selected: 178041
CS:pref_filled: 59713
CS:pref_useful: 36451
CS:pref_late: 6151
CS:misses: 15495
CS:misses_by_poll: 5

CPLX: 
CPLX:times selected: 1008950
CPLX:pref_filled: 19605
CPLX:pref_useful: 4796
CPLX:pref_late: 2962
CPLX:misses: 93109
CPLX:misses_by_poll: 0

NL_L1: 
NL:times selected: 21381
NL:pref_filled: 755
NL:pref_useful: 382
NL:pref_late: 283
NL:misses: 1757
NL:misses_by_poll: 0

total selections: 2396481
total_filled: 93123
total_useful: 32791
total_late: 17054
total_polluted: 5
total_misses_after_warmup: 765204
conflicts: 5586545

test: 117091

DRAM Statistics
 CHANNEL 0
 RQ ROW_BUFFER_HIT:      10006  ROW_BUFFER_MISS:      16236
 DBUS_CONGESTED:          9
 WQ ROW_BUFFER_HIT:       1136  ROW_BUFFER_MISS:      11400  FULL:          0

 AVG_CONGESTED_CYCLE: 4

CPU 0 Branch Prediction Accuracy: 99.8291% MPKI: 0.31266 Average ROB Occupancy at Mispredict: 153.281
Branch types
NOT_BRANCH: 40854854 81.7097%
BRANCH_DIRECT_JUMP: 548178 1.09636%
BRANCH_INDIRECT: 182905 0.36581%
BRANCH_CONDITIONAL: 6182169 12.3643%
BRANCH_DIRECT_CALL: 943779 1.88756%
BRANCH_INDIRECT_CALL: 171991 0.343982%
BRANCH_RETURN: 1115772 2.23154%
BRANCH_OTHER: 0 0%

DRAM PAGES: 1048576
Allocated PAGES: 2614
Average_ROB_Occupancy: 154.661
Average_Decode_Occupancy: 18.933
Average_FTQ_Occupancy: 8.2317
Indirect max targets: 14 Average targets: 1.17891
Branch_type:  BRANCH_DIRECT_JUMP:  Count Percentage: 1.61907 6.99713 4.54694 8.4276 3.10441 6.29033 1.92002 67.0945 
Branch_type:  BRANCH_INDIRECT:  Count Percentage: 6.16504 3.48061 8.1681 0 1.3362 9.66616 4.14393 67.04 
Branch_type:  BRANCH_CONDITIONAL:  Count Percentage: 20.8786 3.40699 1.82751 5.01128 2.32594 4.14936 3.00875 59.3916 
Branch_type:  BRANCH_DIRECT_CALL:  Count Percentage: 0.259487 1.96293 1.28201 3.77966 3.71255 2.34683 4.30558 82.351 
Branch_type:  BRANCH_INDIRECT_CALL:  Count Percentage: 9.52457 0 2.98496 8.68241 1.25261 2.02694 6.40337 69.1251 
Branch_type:  BRANCH_RETURN:  Count Percentage: 4.29522 1.84929 1.49206 5.82542 3.96247 4.8508 4.9747 72.7501 
Branch_type:  BRANCH_DIRECT_JUMP:  Total Count: 17737 76654 49812 92325 34009 68911 21034 735025 
Branch_type:  BRANCH_INDIRECT:  Total Count: 22548 12730 29874 0 4887 35353 15156 245192 
Branch_type:  BRANCH_CONDITIONAL:  Total Count: 2579877 420988 225818 619223 287407 512719 371779 7338778 
Branch_type:  BRANCH_DIRECT_CALL:  Total Count: 4895 37029 24184 71300 70034 44271 81221 1553480 
Branch_type:  BRANCH_INDIRECT_CALL:  Total Count: 32719 0 10254 29826 4303 6963 21997 237460 
Branch_type:  BRANCH_RETURN:  Total Count: 95818 41254 33285 129954 88395 108212 110976 1622914 
Number of unique branch instructions: 10791
Upper 32 bits: 
aaaa
ffff
ffff0000
Unique upper 32 bits: 3
Unique upper 36 bits: 3
Unique upper 40 bits: 5
Unique upper 44 bits: 32
Unique upper 48 bits: 158
Variant_0 : 1137 0.277588
Variant_1 : 2747 0.670654
Variant_2 : 0 0
Variant_3 : 0 0
Offset_3 4474
Offset_4 260
Offset_5 482
Offset_6 542
Offset_7 640
Offset_8 576
Offset_9 525
Offset_10 429
Offset_11 363
Offset_12 312
Offset_13 236
Offset_14 244
Offset_15 194
Offset_16 233
Offset_17 168
Offset_18 149
Offset_19 257
Offset_20 143
Offset_21 235
Offset_22 416
Offset_23 241
Offset_24 344
Offset_25 117
Offset_47 92
decode_dispatch_called: 20725929 50.9189
Dispatch_width: 0 10484496 50.5864 25.758
Dispatch_width: 1 590880 2.85092 1.45166
Dispatch_width: 2 638418 3.08029 1.56845
Dispatch_width: 3 423234 2.04205 1.03979
Dispatch_width: 4 2199988 10.6147 5.40487
Dispatch_width: 5 271039 1.30773 0.665881
Dispatch_width: 6 6117874 29.518 15.0302
Empty_decode_cycles: 19977876 49.0811
ROB_full_cycles: 3352931 8.23739
Starvation_cycles_per_kilo_instr: 312.33
Starvation_cycles_per_kilo_instr_3: 287.62
Starvation_cycles_per_kilo_instr_0: 271.094
Branch_type_1  (3,1)  (4,9)  (5,39)  (6,74)  (7,123)  (8,151)  (9,138)  (10,111)  (11,80)  (12,48)  (13,11)  (14,2)  (15,3)  (16,4)  (18,1)  (19,5)  (20,2)  (21,1)  (22,3)  (23,2)  (24,10)  (25,12) 
Branch_type_2  (3,1)  (4,1)  (5,1)  (8,4)  (9,4)  (10,1)  (12,1)  (13,1)  (14,1)  (16,3)  (17,2)  (20,2)  (21,2)  (23,5)  (24,1)  (47,41) 
Branch_type_3  (3,4472)  (4,250)  (5,438)  (6,452)  (7,487)  (8,356)  (9,288)  (10,174)  (11,147)  (12,55)  (13,10) 
Branch_type_4  (6,3)  (7,8)  (8,25)  (9,56)  (10,68)  (11,70)  (12,116)  (13,100)  (14,110)  (15,92)  (16,102)  (17,79)  (18,65)  (19,125)  (20,73)  (21,124)  (22,220)  (23,136)  (24,199)  (25,101) 
Branch_type_5  (8,3)  (9,1)  (10,4)  (11,5)  (12,3)  (13,14)  (14,16)  (15,11)  (16,22)  (17,11)  (18,23)  (19,14)  (20,11)  (21,13)  (22,43)  (23,26)  (24,38) 
Branch_type_6  (5,4)  (6,13)  (7,22)  (8,37)  (9,38)  (10,71)  (11,61)  (12,89)  (13,100)  (14,115)  (15,88)  (16,102)  (17,76)  (18,60)  (19,113)  (20,55)  (21,95)  (22,150)  (23,72)  (24,96)  (25,4)  (47,51) 
Unique trigger count: 
Variant_0_evicts_0 : 0
Variant_0_evicts_1 : 0
Variant_0_evicts_2 : 0
Variant_0_evicts_3 : 0
Variant_1_evicts_0 : 0
Variant_1_evicts_1 : 0
Variant_1_evicts_2 : 0
Variant_1_evicts_3 : 0
Variant_2_evicts_0 : 0
Variant_2_evicts_1 : 0
Variant_2_evicts_2 : 0
Variant_2_evicts_3 : 0
Variant_3_evicts_0 : 0
Variant_3_evicts_1 : 0
Variant_3_evicts_2 : 0
Variant_3_evicts_3 : 0
BTB PER SET UNIQUE ADDR: 2 8 3 6 5 5 6 4 2 5 5 5 3 5 10 8 4 4 3 2 4 8 7 9 3 8 4 4 6 7 6 4 5 8 4 7 7 4 5 9 5 7 5 5 7 6 4 4 6 7 9 5 5 5 2 7 5 3 7 6 4 7 5 5 7 3 4 4 3 7 8 5 5 7 5 8 4 5 5 6 10 7 6 8 9 4 6 3 6 8 7 6 6 7 3 1 5 5 4 7 5 5 4 6 3 5 5 4 5 8 7 3 4 9 2 6 4 7 5 11 5 5 5 4 8 7 4 6 6 1 4 5 5 6 7 5 5 2 7 4 3 4 9 6 3 9 5 5 4 6 3 2 4 11 2 4 7 4 6 5 1 6 4 6 8 3 1 3 7 10 7 6 5 3 5 5 5 6 4 5 4 5 5 9 3 6 4 5 4 6 6 3 4 6 1 5 5 6 5 5 7 5 3 5 1 9 4 5 7 6 2 3 7 6 6 5 7 6 3 6 3 9 6 8 5 10 8 4 9 9 3 6 4 9 2 8 5 7 4 5 5 4 5 3 5 4 5 3 4 7 4 8 4 3 6 6 4 4 7 1 9 7 6 4 4 4 5 6 8 6 7 7 7 6 7 4 6 2 6 9 7 2 3 7 3 3 12 5 10 5 4 3 10 7 7 5 5 3 7 4 10 4 5 6 3 3 4 6 6 4 6 3 6 5 5 4 6 7 6 3 9 9 2 4 9 7 3 7 4 8 4 10 3 6 5 5 6 8 6 7 2 5 7 3 6 5 4 7 2 4 6 5 4 2 6 4 4 5 5 4 12 5 4 8 6 10 5 7 3 3 9 8 10 5 6 5 7 6 4 2 5 5 5 5 9 5 2 6 4 5 5 3 3 6 3 4 6 3 5 4 7 7 6 4 4 11 11 4 10 2 4 3 1 7 6 2 5 4 4 6 6 1 3 6 5 3 5 8 6 7 11 3 3 4 7 1 4 2 2 3 8 6 4 2 6 0 3 6 5 4 8 3 6 5 5 1 8 2 12 3 5 5 4 11 3 6 4 5 3 9 6 8 3 6 4 8 4 2 4 8 5 3 6 5 4 4 5 6 6 7 6 6 6 6 5 5 5 5 2 8 4 3 5 3 5 6 6 4 2 4 7 3 5 3 4 5 9 6 7 5 6 5 9 5 5 9 1 4 5 3 9 8 4 2 4 6 6 8 4 6 4 10 12 10 7 4 7 9 4 3 3 7 4 5 6 6 9 2 4 6 4 3 5 7 6 3 4 6 12 3 5 5 2 7 2 7 7 2 4 4 1 7 3 7 4 3 3 2 6 8 6 7 6 8 3 7 12 7 4 5 9 3 4 2 5 10 8 2 4 4 4 4 4 7 1 4 9 5 8 8 3 5 5 2 6 6 3 5 3 2 4 7 6 5 7 5 3 9 5 12 3 5 4 3 3 8 6 5 4 7 5 5 6 9 4 8 5 3 4 6 4 4 5 8 7 5 4 11 4 7 7 5 7 6 7 4 4 7 5 7 6 7 3 6 6 8 3 7 8 4 7 4 5 5 4 11 5 7 6 10 8 5 3 3 8 4 4 5 7 7 5 3 4 6 5 4 8 7 3 3 6 6 3 8 7 6 11 8 4 8 3 5 8 3 5 3 3 7 2 9 3 9 6 4 5 2 7 3 4 5 7 4 8 4 9 10 9 2 1 8 7 6 7 7 7 6 8 11 6 6 7 5 1 5 8 7 4 8 4 7 6 5 4 6 10 4 5 9 7 7 7 4 5 6 8 6 7 4 6 4 6 5 8 4 6 3 5 4 4 5 7 3 1 5 9 4 11 6 8 6 7 6 5 4 5 7 7 6 10 5 7 5 4 6 5 4 7 5 2 5 2 8 5 5 6 4 4 5 4 5 4 8 3 4 6 4 8 7 5 3 2 5 4 7 7 5 7 6 5 5 5 4 5 4 2 3 4 6 2 5 6 7 6 3 6 5 8 10 1 0 8 3 4 3 4 7 4 8 6 2 8 4 7 7 5 2 5 7 6 10 6 5 5 6 9 8 5 9 9 8 7 1 7 9 3 6 6 5 6 4 3 8 8 5 4 6 5 4 1 7 6 7 4 3 5 2 4 4 8 4 9 8 4 2 13 5 8 4 4 3 4 4 8 5 6 2 6 6 4 3 5 4 4 6 3 4 3 11 7 6 4 5 6 6 8 3 3 5 6 3 4 5 7 11 8 4 5 3 3 4 6 4 9 5 5 5 5 11 4 6 5 9 7 6 6 5 6 8 3 4 5 3 8 8 8 4 7 8 4 6 7 3 5 4 5 8 7 4 3 4 4 4 5 7 7 7 5 6 3 5 6 6 4 4 4 7 8 7 5 2 4 7 4 5 4 7 9 6 8 7 2 5 3 7 9 4 6 5 7 3 8 2 4 5 7 5 4 3 3 8 8 8 6 5 6 3 5 5 5 3 6 10 7 7 4 6 3 5 3 3 7 7 4 3 10 4 6 6 7 5 5 6 4 8 4 8 5 7 4 3 6 6 7 2 7 3 3 6 3 6 8 9 6 3 5 7 1 7 6 4 4 5 2 5 4 5 6 10 7 5 4 1 6 6 3 4 6 7 5 8 9 3 6 4 4 8 5 5 3 6 8 3 11 4 3 4 7 3 8 7 9 6 4 2 6 5 7 5 4 4 6 4 5 3 6 6 6 2 8 5 5 5 7 6 1 6 9 3 8 6 8 2 5 4 5 7 8 5 5 5 5 4 3 3 8 4 4 6 4 3 6 7 4 4 6 5 7 5 2 5 4 10 4 5 4 2 3 5 2 7 2 5 6 5 5 3 8 8 4 9 6 5 8 3 5 6 6 7 8 4 8 5 5 7 5 5 5 7 10 7 6 5 7 10 5 5 7 4 4 7 3 5 4 6 7 6 8 7 9 7 10 8 3 5 9 5 4 4 7 4 3 6 4 7 4 2 5 4 10 11 5 4 3 6 6 4 4 6 5 7 4 7 7 7 9 11 4 6 9 7 5 4 4 6 4 2 7 2 5 4 4 9 6 8 7 2 4 4 5 7 3 5 3 13 8 8 4 5 4 5 2 5 3 3 4 4 6 5 3 2 2 4 7 7 2 6 6 6 5 2 8 4 10 3 3 4 8 6 6 5 3 6 9 5 10 7 4 2 3 8 8 7 5 9 8 10 6 4 4 8 7 2 5 5 7 6 6 10 6 3 8 7 6 4 5 5 9 7 7 4 3 5 2 7 5 3 4 6 11 7 6 4 5 4 10 7 5 4 5 8 5 5 8 1 5 2 6 6 5 9 6 8 4 9 8 4 4 4 5 5 5 6 4 9 6 9 6 5 6 1 8 2 11 8 8 6 8 6 8 3 6 7 11 4 4 7 5 9 8 10 9 2 6 8 8 4 11 6 6 2 3 6 5 3 5 9 3 4 3 6 5 3 5 7 7 6 7 10 4 2 5 5 5 4 3 5 4 7 6 4 5 8 6 6 2 5 5 9 6 6 8 4 6 6 3 5 4 6 6 3 5 5 4 5 3 8 7 3 4 6 7 5 3 4 6 3 3 7 4 5 5 5 5 8 4 5 9 6 7 6 4 5 8 4 3 6 4 4 8 4 3 8 7 8 5 7 3 3 3 6 5 5 8 4 6 6 9 4 7 6 4 7 11 3 6 7 8 4 4 11 7 5 4 5 5 4 6 4 7 4 4 7 4 5 6 4 5 5 2 2 7 4 4 3 6 4 1 5 5 5 6 4 6 2 1 4 6 7 12 2 3 8 4 3 4 5 3 5 4 6 2 5 4 2 3 7 7 4 4 5 2 1 8 5 4 4 4 6 4 7 2 4 3 8 6 6 7 4 4 4 4 4 4 7 3 6 4 5 9 7 5 3 8 5 2 6 7 7 5 5 7 3 3 3 4 6 1 2 4 4 8 8 3 9 5 7 6 5 7 3 3 4 7 8 0 7 5 5 5 9 5 9 4 6 9 7 6 4 2 7 3 6 3 5 5 6 6 3 3 6 4 5 3 3 1 3 4 2 5 2 7 4 6 2 6 5 3 7 2 6 4 3 8 7 6 7 6 4 6 4 7 8 5 1 5 3 6 4 6 7 6 5 2 3 6 6 6 5 5 6 4 4 5 6 5 2 5 6 4 6 2 4 7 4 4 6 2 5 4 2 3 7 4 7 4 3 4 6 5 9 3 6 3 4 5 9 4 6 2 2 4 3 3 5 3 11 1 4 2 6 3 3 3 6 4 5 3 1 3 7 3 5 4 4 3 6 5 2 4 6 5 5 8 2 5 8 2 5 9 4 1 1 6 10 3 7 5 7 5 6 5 5 9 7 8 8 4 1 5 3 5 7 6 8 9 10 5 5 2 7 3 7 5 7 6 8 6 8 7 7 6 6 5 7 6 6 5 6 3 9 3 7 5 12 8 3 5 9 3 4 5 6 4 3 9 7 5 6 4 7 3 4 9 6 5 4 2 2 6 5 2 4 7 9 5 4 6 7 8 8 4 9 7 5 3 10 6 6 6 2 2 11 4 4 5 5 4 13 4 8 4 7 3 3 2 4 7 6 
BTB PER SET COUNT: 2 1804 592 713 193 157 301 423 2 888 798 400 3 1485 1190 170 550 208 3 2 261 989 658 428 401 1088 134 152 333 441 381 157 289 761 503 280 819 319 77 1013 10 1783 6 15 2158 619 4 147 7 837 839 28 751 8 2 537 522 1178 498 95 1201 713 201 10 437 7 73 425 4 710 1297 115 214 920 6 968 4 217 819 398 733 315 174 558 349 13 669 3 750 1641 594 503 288 254 3 1 177 6 183 470 297 241 65 7 8 9 143 257 613 541 136 3 252 1221 4 152 284 15 310 1628 430 181 1708 4 217 949 9 190 908 1 7 164 6 215 255 347 195 2 362 858 6 948 1123 259 175 316 7 6 43 352 172 482 5 794 2 637 350 957 333 246 1 8 4 364 798 136 1 3 190 486 293 628 262 3 331 102 6 284 4 404 73 207 200 460 157 242 60 8 4 42 164 3 159 453 1 522 12 586 726 5 248 366 109 303 1 500 6 478 262 9 3 4 331 552 305 235 549 370 3 248 3 428 265 708 410 1092 135 82 520 1046 82 312 354 4666 2 204 8 269 318 507 496 203 460 197 252 199 37 6 14 244 147 821 8 192 402 65 1803 268 304 1 503 57 280 371 9 443 10 518 479 49 242 448 21 167 509 303 307 308 311 656 630 2 355 464 3 14 1303 316 488 44 4 3 1176 568 379 138 141 3 445 7 899 263 1473 471 5 3 389 65 270 8 133 4 284 189 30 287 40 495 288 3 584 326 209 204 1055 154 320 225 6 444 12 929 175 676 269 175 925 178 238 467 2 302 312 3 655 261 317 441 2 165 360 76 78 3 457 4 434 553 346 70 1195 404 148 718 77 2462 469 1140 3 335 951 635 1328 8 138 156 1013 213 166 2 28 979 53 838 766 16 2 250 4 254 158 3 3 85 188 4 1808 3 298 127 1054 465 302 4 394 1076 2257 427 119 8 5 79 2 371 784 3 393 375 228 103 522 1 3 288 20 462 457 489 878 174 736 58 8 191 103 1 4 2 2 3 1226 276 4 2 227 0 5 34 402 150 809 647 272 173 75 1 479 2 718 273 793 10 37 1205 11 695 176 238 5 585 137 1049 3 191 978 235 162 2 4 580 54 358 317 533 8 4 121 472 662 487 689 414 211 220 139 960 494 124 97 484 4 108 7 259 99 523 268 128 2 4 1078 4 871 1077 7 32 630 981 436 330 296 188 1007 7 146 927 1 4 218 5 1372 488 4 7 7 189 898 521 5 55 100 497 1198 1200 380 1078 817 987 153 6 3 1858 987 6 332 220 1100 2 4 179 508 7816 537 346 177 3 1623 39 1876 238 184 249 2 975 2 649 696 2 153 5 1 116 3 377 4 108 192 2 8 1819 215 367 515 915 217 1327 726 342 19 36 545 7 242 2 54 963 1007 2 146 119 4 4 980 478 1 99 907 357 11115 745 212 68 131 2 298 302 191 13 156 5 705 1139 341 569 583 554 3 606 8 1444 3 256 453 3 7 395 234 254 4 136 466 13 255 1060 4 237 482 3 7 13 259 11 24 44 485 758 4 1243 165 942 486 454 228 3272 672 104 137 1051 168 680 657 267 95 1245 370 761 163 1222 84 5 415 6 157 619 4 1296 176 936 12 775 215 766 3 3 658 5 8 144 764 585 139 3 315 209 80 880 279 409 3 137 315 441 887 502 660 614 700 366 425 570 300 260 497 147 28 3 3 211 2 2216 178 976 348 4 111 3 164 100 6 602 2204 87 287 297 66 556 586 2 1 730 151 14 97 193 407 90 532 3090 486 7 99 332 2 79 506 465 4 709 127 210 588 8 4 188 793 283 611 579 184 801 312 376 7 283 515 633 183 177 382 64 154 13 501 405 39 4 11 4 4 320 436 3 1 270 220 226 1144 299 312 11 560 320 203 198 94 1117 508 704 1655 461 758 177 101 716 5 103 1115 6 2 91 16 933 356 5 402 5 211 739 98 975 7 325 3 292 518 77 564 257 187 3 2 286 7 425 660 11 157 254 639 93 709 4 115 5 2 3 1197 883 2 111 346 908 368 3 8 467 157 1183 1 0 1529 3 152 4 4 470 385 731 410 236 185 158 557 1037 77 258 7 110 193 977 259 241 292 324 645 634 15 34 954 456 1303 1 228 183 3 9 1466 332 253 254 5 399 1323 271 141 177 6 974 1 611 540 186 4 5 718 84 5 4 581 4 864 1105 5 2 2609 313 1031 4 1897 217 220 224 311 153 231 3 798 164 25 167 73 5 4 506 5 4 65 1094 348 122 206 171 465 21 450 3 3 971 163 3 6 457 270 1022 232 6 244 3 3 16 216 54 274 1387 12 8 340 1546 939 384 157 382 443 255 88 34 271 1149 4 106 403 389 369 49 556 285 664 741 65 202 157 3 190 334 93 1080 348 114 1466 4 70 191 8 101 440 424 728 38 19 7 378 244 146 130 160 145 723 814 1676 4 4 350 211 578 540 205 696 650 224 366 2 434 4 651 782 4 11 135 286 10 860 2 96 361 577 369 7 152 7 455 855 860 189 78 257 607 6 7 103 45 170 830 420 1531 384 624 47 75 3 5 126 553 424 374 402 4 152 275 13 106 218 23 474 137 4 542 305 14 7 3 131 374 273 7 286 198 3 492 3 460 506 16061 385 285 160 132 1 427 109 5 4 174 2 230 135 365 15 597 1060 47 4 1 101 373 3 6 293 331 125 482 1198 3 401 4 12 539 11 27 17 169 472 3 753 247 3 5 162 279 452 414 653 228 252 2 1414 491 874 307 499 220 309 7 12 5 506 380 764 2 241 384 820 7 593 1975 1 268 516 3 313 217 515 3 256 90 40 81 382 117 203 70 345 7 83 3 774 9 7 375 139 3 518 641 4 9 13 236 271 7 4 250 349 137 5 179 252 2 3 5 2 219 2 279 579 7 407 3 247 136 203 700 163 7 484 3 254 493 154 309 517 12 257 5 36 319 21 957 176 626 1830 577 147 461 8 961 213 404 567 203 319 553 3 82 7 454 622 403 476 696 1031 289 472 551 3 140 526 6 5 154 324 5 4 366 5 266 4 2 117 1471 330 1741 264 192 4 639 412 5 9 419 151 425 4 10 146 297 644 492 84 304 1306 473 790 5 4 350 18 2 551 2 5 4 390 521 628 224 17 2 245 4 139 642 5 83 133 1308 859 170 323 42 4 501 2 481 3 8 213 224 340 232 6 165 2 11 450 24 2 147 577 107 41 2 623 263 221 3 5 171 881 585 9 488 3 219 905 6 585 1117 29 2 4 556 779 541 480 437 29 570 407 5 209 2710 1821 2 184 2924 737 785 335 303 455 46 236 575 213 83 178 32 612 223 201 9 3 282 2 431 202 3 10 301 526 30 316 4 107 11 832 91 149 13 8 926 181 417 723 1 7 2 461 217 562 1421 161 751 975 536 128 343 32 165 8 205 12 161 190 482 149 910 365 215 294 2 592 973 862 485 437 7 1154 600 283 3 220 455 1365 4 4 1077 127 426 665 1509 1072 2 12 1261 479 369 1130 325 1311 2 157 7 331 3 126 446 3 6 5 623 101 3 178 25 14 295 377 770 162 2 618 169 207 22 115 17 90 606 291 589 418 756 427 328 2 179 25 811 491 258 837 6 128 176 3 286 4 1016 8 1467 579 10 50 412 5 603 1179 3 154 290 72 159 3 519 556 4 3 535 64 92 149 364 292 403 197 431 927 7 1079 23 240 337 747 150 76 10 4 346 656 4 3 354 561 634 398 160 181 3 3 50 93 70 652 4 312 292 843 6 573 180 96 502 605 359 635 436 460 275 5 577 8 240 446 197 80 175 316 150 672 667 248 379 5 157 444 4 651 371 2 125 183 123 5 7 326 158 1 267 5 304 248 4 226 2 1 152 8 250 1712 18 38 1339 4 4 323 9 3 312 659 304 305 132 41 2 3 747 279 14 4 7 2 1 721 117 110 192 4 197 271 269 3 4 6 557 143 126 424 452 27 208 5 4 4 202 3 605 5 10 630 261 180 5 398 6 2 497 181 573 157 413 510 3 3 104 9 449 1 2 7 291 334 848 3 1219 162 334 407 348 1021 239 3 4 250 803 0 217 251 92 226 1528 359 420 5 507 1888 61 111 275 2 1173 3 644 3 182 227 24 433 6 155 620 4 225 615 3 1 3 7 2 712 4 370 391 313 3 233 6 4 146 2 408 101 308 281 607 654 357 692 22 406 4 132 792 6 1 96 3 174 735 285 757 468 460 2 297 139 1441 761 246 7 968 4 8 76 306 623 2 279 156 1015 488 2 62 617 265 145 346 2 500 5231 128 80 664 170 873 354 3 242 1002 262 872 257 366 263 4 192 78 4 13 2 2 5 3 4 1732 8 688 1 120 428 224 5 61 312 104 9 263 3 1 3 588 3 101 1023 624 3 239 430 3 113 864 20 274 603 2 378 811 2 764 582 89 1 1 365 925 3 227 216 114 88 329 438 273 519 283 703 524 4 1 62 138 265 733 291 459 1046 450 80 115 2 358 75 260 227 649 238 1201 539 860 778 677 712 605 155 549 2885 683 14 202 127 732 105 1116 396 1195 79 222 418 886 464 536 421 12 100 18 926 1309 26 855 47 270 4 130 821 467 125 171 1354 240 351 195 2 4 338 820 118 262 238 813 721 520 182 916 364 1142 3 560 1828 17 127 2 4 1746 1314 9 175 565 131 1991 219 382 4 378 278 3 4 288 580 28 
To predecode: 0
Predecoding something: 0
Predecode request dropped: 0
sizeofblock_0 0
sizeofblock_1 222083
sizeofblock_2 224970
sizeofblock_3 0
sizeofblock_4 0
sizeofblock_5 0
sizeofblock_6 0
sizeofblock_7 0
sizeofblock_8 0
Variant_0 Correct: 1381090 Incorrect: 0 Accuracy: 1
Variant_1 Correct: 5405727 Incorrect: 0 Accuracy: 1
Variant_2 Correct: 0 Incorrect: 0 Accuracy: -nan
Variant_3 Correct: 0 Incorrect: 0 Accuracy: -nan
