
*** ChampSim Multicore Out-of-Order Simulator ***

Warmup Instructions: 50000000
Simulation Instructions: 50000000
Number of CPUs: 1
LLC sets: 2048
LLC ways: 16
Off-chip DRAM Size: 4096 MB Channels: 1 Width: 64-bit Data Rate: 6400 MT/s
CPU 0 runs ./micro_traces/srv725.trace.gz
.gz
ITLB has LRU replacement policy
DTLB has LRU replacement policy
STLB has LRU replacement policy
FDIP Prefetcher at L1I
L1I has LRU replacement policy
L1D has LRU replacement policy
Initialize SRRIP state for L2C
Initialize DRRIP state for LLC
Heartbeat_Variant_0 : 1296 0.316406 per_variant_size: 0 1296 0 0 0 0 0 0 0 
Heartbeat_Variant_1 : 2264 0.552734 per_variant_size: 0 169 2095 0 0 0 0 0 0 
Heartbeat_Variant_2 : 0 0 per_variant_size: 0 0 0 0 0 0 0 0 0 
Heartbeat_Variant_3 : 0 0 per_variant_size: 0 0 0 0 0 0 0 0 0 
Heartbeat_Variant_0_evicts 0 : 5551 1 : 0 2 : 0 3 : 0 
Heartbeat_Variant_1_evicts 0 : 0 1 : 0 2 : 0 3 : 0 
Heartbeat_Variant_2_evicts 0 : 0 1 : 0 2 : 0 3 : 0 
Heartbeat_Variant_3_evicts 0 : 0 1 : 0 2 : 0 3 : 0 
Heartbeat CPU 0 instructions: 10000003 cycles: 2797541 heartbeat IPC: 3.57457 cumulative IPC: 3.57457 (Simulation time: 0 hr 2 min 0 sec) 
Heartbeat_Variant_0 : 1296 0.316406 per_variant_size: 0 1296 0 0 0 0 0 0 0 
Heartbeat_Variant_1 : 2267 0.553467 per_variant_size: 0 160 2107 0 0 0 0 0 0 
Heartbeat_Variant_2 : 0 0 per_variant_size: 0 0 0 0 0 0 0 0 0 
Heartbeat_Variant_3 : 0 0 per_variant_size: 0 0 0 0 0 0 0 0 0 
Heartbeat_Variant_0_evicts 0 : 5555 1 : 0 2 : 0 3 : 0 
Heartbeat_Variant_1_evicts 0 : 0 1 : 0 2 : 0 3 : 0 
Heartbeat_Variant_2_evicts 0 : 0 1 : 0 2 : 0 3 : 0 
Heartbeat_Variant_3_evicts 0 : 0 1 : 0 2 : 0 3 : 0 
Heartbeat CPU 0 instructions: 20000000 cycles: 5593214 heartbeat IPC: 3.57696 cumulative IPC: 3.57576 (Simulation time: 0 hr 3 min 40 sec) 
Heartbeat_Variant_0 : 1389 0.339111 per_variant_size: 0 1389 0 0 0 0 0 0 0 
Heartbeat_Variant_1 : 2476 0.604492 per_variant_size: 0 154 2322 0 0 0 0 0 0 
Heartbeat_Variant_2 : 0 0 per_variant_size: 0 0 0 0 0 0 0 0 0 
Heartbeat_Variant_3 : 0 0 per_variant_size: 0 0 0 0 0 0 0 0 0 
Heartbeat_Variant_0_evicts 0 : 5579 1 : 8 2 : 0 3 : 0 
Heartbeat_Variant_1_evicts 0 : 8 1 : 0 2 : 0 3 : 0 
Heartbeat_Variant_2_evicts 0 : 0 1 : 0 2 : 0 3 : 0 
Heartbeat_Variant_3_evicts 0 : 0 1 : 0 2 : 0 3 : 0 
Heartbeat CPU 0 instructions: 30000002 cycles: 8389321 heartbeat IPC: 3.5764 cumulative IPC: 3.57597 (Simulation time: 0 hr 5 min 21 sec) 
Heartbeat_Variant_0 : 1391 0.3396 per_variant_size: 0 1391 0 0 0 0 0 0 0 
Heartbeat_Variant_1 : 2481 0.605713 per_variant_size: 0 152 2329 0 0 0 0 0 0 
Heartbeat_Variant_2 : 0 0 per_variant_size: 0 0 0 0 0 0 0 0 0 
Heartbeat_Variant_3 : 0 0 per_variant_size: 0 0 0 0 0 0 0 0 0 
Heartbeat_Variant_0_evicts 0 : 5565 1 : 0 2 : 0 3 : 0 
Heartbeat_Variant_1_evicts 0 : 0 1 : 0 2 : 0 3 : 0 
Heartbeat_Variant_2_evicts 0 : 0 1 : 0 2 : 0 3 : 0 
Heartbeat_Variant_3_evicts 0 : 0 1 : 0 2 : 0 3 : 0 
Heartbeat CPU 0 instructions: 40000001 cycles: 11186523 heartbeat IPC: 3.575 cumulative IPC: 3.57573 (Simulation time: 0 hr 7 min 2 sec) 
Heartbeat_Variant_0 : 1394 0.340332 per_variant_size: 0 1394 0 0 0 0 0 0 0 
Heartbeat_Variant_1 : 2504 0.611328 per_variant_size: 0 145 2359 0 0 0 0 0 0 
Heartbeat_Variant_2 : 0 0 per_variant_size: 0 0 0 0 0 0 0 0 0 
Heartbeat_Variant_3 : 0 0 per_variant_size: 0 0 0 0 0 0 0 0 0 
Heartbeat_Variant_0_evicts 0 : 5562 1 : 3 2 : 0 3 : 0 
Heartbeat_Variant_1_evicts 0 : 5 1 : 0 2 : 0 3 : 0 
Heartbeat_Variant_2_evicts 0 : 0 1 : 0 2 : 0 3 : 0 
Heartbeat_Variant_3_evicts 0 : 0 1 : 0 2 : 0 3 : 0 
Heartbeat CPU 0 instructions: 50000001 cycles: 13983497 heartbeat IPC: 3.57529 cumulative IPC: 3.57564 (Simulation time: 0 hr 8 min 42 sec) 

Warmup complete CPU 0 instructions: 50000001 cycles: 13983497 (Simulation time: 0 hr 8 min 42 sec) 

Cycle: 20000000 FTQ IN: 58424324 FTQ occupancy: 20.5666 DECODE IN: 58424229 DECODE occupancy: 53.4821 ROB IN: 58424169 ROB occupancy: 319.47 ROB OUT: 58423817
Heartbeat_Variant_0 : 1419 0.346436 per_variant_size: 0 1419 0 0 0 0 0 0 0 
Heartbeat_Variant_1 : 2586 0.631348 per_variant_size: 0 161 2425 0 0 0 0 0 0 
Heartbeat_Variant_2 : 0 0 per_variant_size: 0 0 0 0 0 0 0 0 0 
Heartbeat_Variant_3 : 0 0 per_variant_size: 0 0 0 0 0 0 0 0 0 
Heartbeat_Variant_0_evicts 0 : 5243 1 : 33 2 : 0 3 : 0 
Heartbeat_Variant_1_evicts 0 : 39 1 : 0 2 : 0 3 : 0 
Heartbeat_Variant_2_evicts 0 : 0 1 : 0 2 : 0 3 : 0 
Heartbeat_Variant_3_evicts 0 : 0 1 : 0 2 : 0 3 : 0 
Heartbeat CPU 0 instructions: 60000002 cycles: 21126499 heartbeat IPC: 1.39997 cumulative IPC: 1.39997 (Simulation time: 0 hr 10 min 44 sec) 
Heartbeat_Variant_0 : 1424 0.347656 per_variant_size: 0 1424 0 0 0 0 0 0 0 
Heartbeat_Variant_1 : 2589 0.63208 per_variant_size: 0 162 2427 0 0 0 0 0 0 
Heartbeat_Variant_2 : 0 0 per_variant_size: 0 0 0 0 0 0 0 0 0 
Heartbeat_Variant_3 : 0 0 per_variant_size: 0 0 0 0 0 0 0 0 0 
Heartbeat_Variant_0_evicts 0 : 5670 1 : 12 2 : 0 3 : 0 
Heartbeat_Variant_1_evicts 0 : 7 1 : 0 2 : 0 3 : 0 
Heartbeat_Variant_2_evicts 0 : 0 1 : 0 2 : 0 3 : 0 
Heartbeat_Variant_3_evicts 0 : 0 1 : 0 2 : 0 3 : 0 
Heartbeat CPU 0 instructions: 70000003 cycles: 28360465 heartbeat IPC: 1.38237 cumulative IPC: 1.39111 (Simulation time: 0 hr 12 min 44 sec) 
Cycle: 30000000 FTQ IN: 13870652 FTQ occupancy: 14.9661 DECODE IN: 13870698 DECODE occupancy: 38.0875 ROB IN: 13870758 ROB occupancy: 251.374 ROB OUT: 13870798
Heartbeat_Variant_0 : 1427 0.348389 per_variant_size: 0 1427 0 0 0 0 0 0 0 
Heartbeat_Variant_1 : 2597 0.634033 per_variant_size: 0 166 2431 0 0 0 0 0 0 
Heartbeat_Variant_2 : 0 0 per_variant_size: 0 0 0 0 0 0 0 0 0 
Heartbeat_Variant_3 : 0 0 per_variant_size: 0 0 0 0 0 0 0 0 0 
Heartbeat_Variant_0_evicts 0 : 5506 1 : 8 2 : 0 3 : 0 
Heartbeat_Variant_1_evicts 0 : 10 1 : 0 2 : 0 3 : 0 
Heartbeat_Variant_2_evicts 0 : 0 1 : 0 2 : 0 3 : 0 
Heartbeat_Variant_3_evicts 0 : 0 1 : 0 2 : 0 3 : 0 
Heartbeat CPU 0 instructions: 80000001 cycles: 35552224 heartbeat IPC: 1.39048 cumulative IPC: 1.3909 (Simulation time: 0 hr 14 min 45 sec) 
Cycle: 40000000 FTQ IN: 13942709 FTQ occupancy: 14.8454 DECODE IN: 13942758 DECODE occupancy: 37.8761 ROB IN: 13942758 ROB occupancy: 250.76 ROB OUT: 13943060
Heartbeat_Variant_0 : 1427 0.348389 per_variant_size: 0 1427 0 0 0 0 0 0 0 
Heartbeat_Variant_1 : 2597 0.634033 per_variant_size: 0 161 2436 0 0 0 0 0 0 
Heartbeat_Variant_2 : 0 0 per_variant_size: 0 0 0 0 0 0 0 0 0 
Heartbeat_Variant_3 : 0 0 per_variant_size: 0 0 0 0 0 0 0 0 0 
Heartbeat_Variant_0_evicts 0 : 5686 1 : 0 2 : 0 3 : 0 
Heartbeat_Variant_1_evicts 0 : 0 1 : 0 2 : 0 3 : 0 
Heartbeat_Variant_2_evicts 0 : 0 1 : 0 2 : 0 3 : 0 
Heartbeat_Variant_3_evicts 0 : 0 1 : 0 2 : 0 3 : 0 
Heartbeat CPU 0 instructions: 90000003 cycles: 42677568 heartbeat IPC: 1.40344 cumulative IPC: 1.39402 (Simulation time: 0 hr 16 min 43 sec) 
Heartbeat_Variant_0 : 1441 0.351807 per_variant_size: 0 1441 0 0 0 0 0 0 0 
Heartbeat_Variant_1 : 2602 0.635254 per_variant_size: 0 140 2462 0 0 0 0 0 0 
Heartbeat_Variant_2 : 0 0 per_variant_size: 0 0 0 0 0 0 0 0 0 
Heartbeat_Variant_3 : 0 0 per_variant_size: 0 0 0 0 0 0 0 0 0 
Heartbeat_Variant_0_evicts 0 : 5645 1 : 22 2 : 0 3 : 0 
Heartbeat_Variant_1_evicts 0 : 16 1 : 0 2 : 0 3 : 0 
Heartbeat_Variant_2_evicts 0 : 0 1 : 0 2 : 0 3 : 0 
Heartbeat_Variant_3_evicts 0 : 0 1 : 0 2 : 0 3 : 0 
Heartbeat CPU 0 instructions: 100000001 cycles: 49910492 heartbeat IPC: 1.38257 cumulative IPC: 1.39171 (Simulation time: 0 hr 18 min 41 sec) 
Finished CPU 0 instructions: 50000000 cycles: 35926995 cumulative IPC: 1.39171 (Simulation time: 0 hr 18 min 41 sec) 

ChampSim completed all CPUs

Region of Interest Statistics

CPU 0 cumulative IPC: 1.39171 instructions: 50000000 cycles: 35926995
 Fetch stage stalled: 45.7429  Sim cycles: 35926995 fetch stall cycle: 16434065
 Empty decode stage: 25.5081  Sim cycles: 35926995 fetch stall cycle: 9164294
ITLB TOTAL     ACCESS:    5852305  HIT:    5365957  MISS:     486348  HIT %:    91.6896  MISS %:    8.31037   MPKI: 9.72696
ITLB LOAD TRANSLATION INSTRUCTION	ACCESS:    5720418  HIT:    5234070  MISS:     486348  HIT %:     91.498  MISS %:    8.50197  MPKI: 9.72696
ITLB TRANSLATION FROM L1D PREFETCHER INSTRUCTION	ACCESS:     131887  HIT:     131887  MISS:          0  HIT %:        100  MISS %:          0  MPKI: 0

ITLB AVERAGE MISS LATENCY: 9.08098 cycles
ITLB RQ	ACCESS:    7960126	FORWARD:          0	MERGED:    1631853	TO_CACHE:    6328273

DTLB TOTAL     ACCESS:    8970041  HIT:    8505122  MISS:     464919  HIT %:     94.817  MISS %:    5.18302   MPKI: 9.29838
DTLB LOAD TRANSLATION DATA	ACCESS:    8970041  HIT:    8505122  MISS:     464919  HIT %:     94.817  MISS %:    5.18302  MPKI: 9.29838

DTLB AVERAGE MISS LATENCY: 9.34632 cycles
DTLB RQ	ACCESS:   13342239	FORWARD:          0	MERGED:    4336839	TO_CACHE:    9005400

STLB TOTAL     ACCESS:    1195804  HIT:    1193439  MISS:       2365  HIT %:    99.8022  MISS %:   0.197775   MPKI: 0.0473
STLB LOAD TRANSLATION INSTRUCTION	ACCESS:     486348  HIT:     485874  MISS:        474  HIT %:    99.9025  MISS %:  0.0974611  MPKI: 0.00948
STLB LOAD TRANSLATION DATA	ACCESS:     464919  HIT:     463054  MISS:       1865  HIT %:    99.5989  MISS %:   0.401145  MPKI: 0.0373
STLB TRANSLATION FROM L1D PREFETCHER DATA	ACCESS:     244537  HIT:     244511  MISS:         26  HIT %:    99.9894  MISS %:  0.0106323  MPKI: 0.00052

STLB AVERAGE MISS LATENCY: 72.822 cycles
STLB RQ	ACCESS:    1312483	FORWARD:          0	MERGED:     116634	TO_CACHE:    1195849

STLB Hit, L1D data hit: 0
STLB Hit, L2C data hit: 0
STLB Hit, LLC data hit: 0
STLB Hit, LLC data miss: 0
STLB STLB hints to L2: 0
L1D TOTAL     ACCESS:   13095235  HIT:   12001435  MISS:    1093800  HIT %:    91.6473  MISS %:    8.35266   MPKI: 21.876
L1D LOAD DATA	ACCESS:    6554749  HIT:    5834846  MISS:     719903  HIT %:    89.0171  MISS %:    10.9829  MPKI: 14.3981
L1D RFO DATA	ACCESS:    6216828  HIT:    5935574  MISS:     281254  HIT %:    95.4759  MISS %:    4.52408  MPKI: 5.62508
L1D PREFETCH DATA	ACCESS:     323658  HIT:     231015  MISS:      92643  HIT %:    71.3763  MISS %:    28.6237  MPKI: 1.85286

L1D PREFETCH  REQUESTED:     722788  ISSUED:     722788  USEFUL:      32284  USELESS:      67780
L1D USEFUL LOAD PREFETCHES:      32284 PREFETCH ISSUED TO LOWER LEVEL:     100112  ACCURACY: 32.2479
 TIMELY PREFETCHES:      32284 LATE PREFETCHES: 7405 DROPPED PREFETCHES: 12
L1D AVERAGE MISS LATENCY: 221691 cycles
L1D RQ	ACCESS:   10703249	FORWARD:          0	MERGED:    3944961	TO_CACHE:    6589651
L1D WQ	ACCESS:    6954111	FORWARD:     168993	MERGED:     201523	TO_CACHE:    6752588
L1D PQ	ACCESS:     361572	FORWARD:          0	MERGED:          0	TO_CACHE:     361216

L1D UNIQUE REGIONS ACCESSED: 0
L1D REGIONS CONFLICTS: 0
L1D Cross Page Prefetch Requests: 5869
L1D Same Page Prefetch Requests: 734721
L1D ROI Sum of L1D PQ occupancy: 4599467
L1D PREFETCHES PUSHED FROM L2C: 0
L1I TOTAL     ACCESS:    7141863  HIT:    4418782  MISS:    2723081  HIT %:    61.8716  MISS %:    38.1284   MPKI: 54.4616
L1I LOAD INSTRUCTION	ACCESS:    6463262  HIT:    3740181  MISS:    2723081  HIT %:    57.8683  MISS %:    42.1317  MPKI: 54.4616
L1I PREFETCH INSTRUCTION	ACCESS:     678601  HIT:     678601  MISS:          0  HIT %:        100  MISS %:          0  MPKI: 0

L1I PREFETCH  REQUESTED:    1616204  ISSUED:    1616204  USEFUL:          0  USELESS:          0
L1I USEFUL LOAD PREFETCHES:          0 PREFETCH ISSUED TO LOWER LEVEL:          0  ACCURACY: -nan
 TIMELY PREFETCHES:          0 LATE PREFETCHES: 0 DROPPED PREFETCHES: 0
L1I AVERAGE MISS LATENCY: 17.508 cycles
L1I RQ	ACCESS:    9574580	FORWARD:          0	MERGED:    2804828	TO_CACHE:    6769752
L1I PQ	ACCESS:    1616204	FORWARD:          0	MERGED:     425830	TO_CACHE:    1190374

L1BTB TOTAL     ACCESS:    5682616  HIT:    2089796  MISS:    3592820  HIT %:    36.7752  MISS %:    63.2248   MPKI: 71.8564
L1BTB BRANCH_DIRECT_JUMP	ACCESS:     547468 HIT:     147489 MISS:     399979 AVERAGE STALL: 62.5746 AVERAGE FETCH STALL: 15.4659 AVERAGE FETCH QUEUE STALL: 23.3033 AVERAGE DECODE STALL: 22.8661 AVERAGE EXECUTE STALL: 2.26535e+15
L1BTB BRANCH_INDIRECT	ACCESS:     181664 HIT:      65233 MISS:     116431 AVERAGE STALL: 112.098 AVERAGE FETCH STALL: 10.8164 AVERAGE FETCH QUEUE STALL: 19.1158 AVERAGE DECODE STALL: 13.4243 AVERAGE EXECUTE STALL: 67.7799
L1BTB BRANCH_CONDITIONAL	ACCESS:    2709847 HIT:    1430702 MISS:    1279145 AVERAGE STALL: 75.7965 AVERAGE FETCH STALL: 28.8164 AVERAGE FETCH QUEUE STALL: 16.7899 AVERAGE DECODE STALL: 29.5603 AVERAGE EXECUTE STALL: 4.03296e+15
L1BTB BRANCH_DIRECT_CALL	ACCESS:     950230 HIT:     118514 MISS:     831716 AVERAGE STALL: 56.3056 AVERAGE FETCH STALL: 23.8525 AVERAGE FETCH QUEUE STALL: 18.7892 AVERAGE DECODE STALL: 13.0291 AVERAGE EXECUTE STALL: 8.52831e+15
L1BTB BRANCH_INDIRECT_CALL	ACCESS:     171577 HIT:      23407 MISS:     148170 AVERAGE STALL: 145.654 AVERAGE FETCH STALL: 12.4296 AVERAGE FETCH QUEUE STALL: 19.1812 AVERAGE DECODE STALL: 13.6893 AVERAGE EXECUTE STALL: 99.8623
L1BTB BRANCH_RETURN	ACCESS:    1121830 HIT:     304451 MISS:     817379 AVERAGE STALL: 49.0081 AVERAGE FETCH STALL: 17.3596 AVERAGE FETCH QUEUE STALL: 4.93866 AVERAGE DECODE STALL: 5.88148 AVERAGE EXECUTE STALL: 4.38571e+14
L1BTB BRANCH_OTHER ACCESS:          0 HIT:          0 MISS:          0 AVERAGE STALL: -nan AVERAGE FETCH STALL: -nan AVERAGE FETCH QUEUE STALL: -nan AVERAGE DECODE STALL: -nan AVERAGE EXECUTE STALL: -nan
L1BTB TOTAL ROB OCCUPANCY AT BTB MISS: 2.63676

L2BTB TOTAL     ACCESS:    3567711  HIT:    3503402  MISS:      64309  HIT %:    98.1975  MISS %:    1.80253   MPKI: 1.28618
L2BTB BRANCH_DIRECT_JUMP	ACCESS:     395839 HIT:     391824 MISS:       4015 AVERAGE STALL: 62.5746 AVERAGE FETCH STALL: 15.4659 AVERAGE FETCH QUEUE STALL: 23.3033 AVERAGE DECODE STALL: 22.8661 AVERAGE EXECUTE STALL: 2.26535e+15
L2BTB BRANCH_INDIRECT	ACCESS:     106307 HIT:     103697 MISS:       2610 AVERAGE STALL: 112.098 AVERAGE FETCH STALL: 10.8164 AVERAGE FETCH QUEUE STALL: 19.1158 AVERAGE DECODE STALL: 13.4243 AVERAGE EXECUTE STALL: 67.7799
L2BTB BRANCH_CONDITIONAL	ACCESS:    1279145 HIT:    1274497 MISS:       4648 AVERAGE STALL: 75.7965 AVERAGE FETCH STALL: 28.8164 AVERAGE FETCH QUEUE STALL: 16.7899 AVERAGE DECODE STALL: 29.5603 AVERAGE EXECUTE STALL: 4.03296e+15
L2BTB BRANCH_DIRECT_CALL	ACCESS:     831716 HIT:     829510 MISS:       2206 AVERAGE STALL: 56.3056 AVERAGE FETCH STALL: 23.8525 AVERAGE FETCH QUEUE STALL: 18.7892 AVERAGE DECODE STALL: 13.0291 AVERAGE EXECUTE STALL: 8.52831e+15
L2BTB BRANCH_INDIRECT_CALL	ACCESS:     138721 HIT:     128589 MISS:      10132 AVERAGE STALL: 145.654 AVERAGE FETCH STALL: 12.4296 AVERAGE FETCH QUEUE STALL: 19.1812 AVERAGE DECODE STALL: 13.6893 AVERAGE EXECUTE STALL: 99.8623
L2BTB BRANCH_RETURN	ACCESS:     815983 HIT:     775285 MISS:      40698 AVERAGE STALL: 49.0081 AVERAGE FETCH STALL: 17.3596 AVERAGE FETCH QUEUE STALL: 4.93866 AVERAGE DECODE STALL: 5.88148 AVERAGE EXECUTE STALL: 4.38571e+14
L2BTB BRANCH_OTHER ACCESS:          0 HIT:          0 MISS:          0 AVERAGE STALL: -nan AVERAGE FETCH STALL: -nan AVERAGE FETCH QUEUE STALL: -nan AVERAGE DECODE STALL: -nan AVERAGE EXECUTE STALL: -nan
L2BTB TOTAL ROB OCCUPANCY AT BTB MISS: 147.311

L2C TOTAL     ACCESS:    4415875  HIT:    3921854  MISS:     494021  HIT %:    88.8126  MISS %:    11.1874   MPKI: 9.88042
L2C LOAD INSTRUCTION	ACCESS:    2723081  HIT:    2446654  MISS:     276427  HIT %:    89.8487  MISS %:    10.1513  MPKI: 5.52854
L2C LOAD TRANSLATION INSTRUCTION	ACCESS:        529  HIT:        199  MISS:        330  HIT %:    37.6181  MISS %:    62.3819  MPKI: 0.0066
L2C LOAD DATA	ACCESS:     712470  HIT:     637518  MISS:      74952  HIT %:      89.48  MISS %:      10.52  MPKI: 1.49904
L2C RFO DATA	ACCESS:     281156  HIT:     229525  MISS:      51631  HIT %:    81.6362  MISS %:    18.3638  MPKI: 1.03262
L2C PREFETCH DATA	ACCESS:     182977  HIT:     110657  MISS:      72320  HIT %:    60.4759  MISS %:    39.5241  MPKI: 1.4464
L2C WRITEBACK DATA	ACCESS:     513632  HIT:     496689  MISS:      16943  HIT %:    96.7013  MISS %:    3.29867  MPKI: 0.33886
L2C LOAD TRANSLATION DATA	ACCESS:       1973  HIT:        574  MISS:       1399  HIT %:    29.0928  MISS %:    70.9072  MPKI: 0.02798
L2C TRANSLATION FROM L1D PREFETCHER DATA	ACCESS:         57  HIT:         38  MISS:         19  HIT %:    66.6667  MISS %:    33.3333  MPKI: 0.00038

L2C PREFETCH  REQUESTED:      90786  ISSUED:      90786  USEFUL:       7660  USELESS:      65179
L2C USEFUL LOAD PREFETCHES:       7660 PREFETCH ISSUED TO LOWER LEVEL:      72683  ACCURACY: 10.5389
 TIMELY PREFETCHES:       7660 LATE PREFETCHES: 363 DROPPED PREFETCHES: 0
L2C AVERAGE MISS LATENCY: 38.4464 cycles
L2C RQ	ACCESS:    3719328	FORWARD:          0	MERGED:          0	TO_CACHE:    3719266
L2C WQ	ACCESS:     513632	FORWARD:         62	MERGED:          0	TO_CACHE:     513632
L2C PQ	ACCESS:     190898	FORWARD:          0	MERGED:       3691	TO_CACHE:     187207

L2C Dense regions hint from L2: 0
PSCL5 TOTAL     ACCESS:       4756  HIT:       2378  MISS:       2378  HIT %:         50  MISS %:         50   MPKI: 0.04756
PSCL5 LOAD TRANSLATION INSTRUCTION	ACCESS:       4642  HIT:       2321  MISS:       2321  HIT %:         50  MISS %:         50  MPKI: 0.04642
PSCL5 TRANSLATION FROM L1D PREFETCHER INSTRUCTION	ACCESS:        114  HIT:         57  MISS:         57  HIT %:         50  MISS %:         50  MPKI: 0.00114


PSCL4 TOTAL     ACCESS:       3772  HIT:       1882  MISS:       1890  HIT %:     49.894  MISS %:     50.106   MPKI: 0.0378
PSCL4 LOAD TRANSLATION INSTRUCTION	ACCESS:       2020  HIT:       1839  MISS:        181  HIT %:    91.0396  MISS %:     8.9604  MPKI: 0.00362
PSCL4 TRANSLATION FROM L1D PREFETCHER INSTRUCTION	ACCESS:         43  HIT:         43  MISS:          0  HIT %:        100  MISS %:          0  MPKI: 0
PSCL4 LOAD TRANSLATION DATA	ACCESS:       1666  HIT:          0  MISS:       1666  HIT %:          0  MISS %:        100  MPKI: 0.03332
PSCL4 TRANSLATION FROM L1D PREFETCHER DATA	ACCESS:         43  HIT:          0  MISS:         43  HIT %:          0  MISS %:        100  MPKI: 0.00086


PSCL3 TOTAL     ACCESS:       4520  HIT:       2248  MISS:       2272  HIT %:    49.7345  MISS %:    50.2655   MPKI: 0.04544
PSCL3 LOAD TRANSLATION INSTRUCTION	ACCESS:       3647  HIT:       2203  MISS:       1444  HIT %:    60.4058  MISS %:    39.5942  MPKI: 0.02888
PSCL3 TRANSLATION FROM L1D PREFETCHER INSTRUCTION	ACCESS:         74  HIT:         45  MISS:         29  HIT %:    60.8108  MISS %:    39.1892  MPKI: 0.00058
PSCL3 LOAD TRANSLATION DATA	ACCESS:        783  HIT:          0  MISS:        783  HIT %:          0  MISS %:        100  MPKI: 0.01566
PSCL3 TRANSLATION FROM L1D PREFETCHER DATA	ACCESS:         16  HIT:          0  MISS:         16  HIT %:          0  MISS %:        100  MPKI: 0.00032


PSCL2 TOTAL     ACCESS:       4601  HIT:       2223  MISS:       2378  HIT %:    48.3156  MISS %:    51.6844   MPKI: 0.04756
PSCL2 LOAD TRANSLATION INSTRUCTION	ACCESS:       2640  HIT:       2166  MISS:        474  HIT %:    82.0455  MISS %:    17.9545  MPKI: 0.00948
PSCL2 TRANSLATION FROM L1D PREFETCHER INSTRUCTION	ACCESS:         57  HIT:         57  MISS:          0  HIT %:        100  MISS %:          0  MPKI: 0
PSCL2 LOAD TRANSLATION DATA	ACCESS:       1847  HIT:          0  MISS:       1847  HIT %:          0  MISS %:        100  MPKI: 0.03694
PSCL2 TRANSLATION FROM L1D PREFETCHER DATA	ACCESS:         57  HIT:          0  MISS:         57  HIT %:          0  MISS %:        100  MPKI: 0.00114


LLC TOTAL     ACCESS:     551247  HIT:     521586  MISS:      29661  HIT %:    94.6193  MISS %:    5.38071   MPKI: 0.59322
LLC LOAD INSTRUCTION	ACCESS:     276427  HIT:     275265  MISS:       1162  HIT %:    99.5796  MISS %:   0.420364  MPKI: 0.02324
LLC LOAD TRANSLATION INSTRUCTION	ACCESS:        330  HIT:        285  MISS:         45  HIT %:    86.3636  MISS %:    13.6364  MPKI: 0.0009
LLC LOAD DATA	ACCESS:      74621  HIT:      71001  MISS:       3620  HIT %:    95.1488  MISS %:    4.85118  MPKI: 0.0724
LLC RFO DATA	ACCESS:      51598  HIT:      37204  MISS:      14394  HIT %:    72.1036  MISS %:    27.8964  MPKI: 0.28788
LLC PREFETCH DATA	ACCESS:      72683  HIT:      62703  MISS:       9980  HIT %:    86.2691  MISS %:    13.7309  MPKI: 0.1996
LLC WRITEBACK DATA	ACCESS:      74170  HIT:      73806  MISS:        364  HIT %:    99.5092  MISS %:   0.490764  MPKI: 0.00728
LLC LOAD TRANSLATION DATA	ACCESS:       1399  HIT:       1303  MISS:         96  HIT %:     93.138  MISS %:    6.86204  MPKI: 0.00192
LLC TRANSLATION FROM L1D PREFETCHER DATA	ACCESS:         19  HIT:         19  MISS:          0  HIT %:        100  MISS %:          0  MPKI: 0

LLC AVERAGE MISS LATENCY: 156.428 cycles
LLC RQ	ACCESS:     404395	FORWARD:          0	MERGED:          0	TO_CACHE:     404394
LLC WQ	ACCESS:      74170	FORWARD:          1	MERGED:          0	TO_CACHE:      74170
LLC PQ	ACCESS:      72683	FORWARD:          0	MERGED:          0	TO_CACHE:      72683

LLC Dense regions hint to LLC: 0

RAW hits: 1955048
Loads Generated: 12658298
Loads sent to L1D: 10703249
Stores Generated: 6954106
Stores sent to L1D: 6954111
Major fault: 0 Minor fault: 2551
Allocated PAGES: 2551

stream: 
stream:times selected: 1171655
stream:pref_filled: 121147
stream:pref_useful: 23714
stream:pref_late: 6387
stream:misses: 6716
stream:misses_by_poll: 0

CS: 
CS:times selected: 172882
CS:pref_filled: 57349
CS:pref_useful: 34185
CS:pref_late: 6530
CS:misses: 15642
CS:misses_by_poll: 1

CPLX: 
CPLX:times selected: 997688
CPLX:pref_filled: 19250
CPLX:pref_useful: 4355
CPLX:pref_late: 2991
CPLX:misses: 89901
CPLX:misses_by_poll: 0

NL_L1: 
NL:times selected: 19152
NL:pref_filled: 560
NL:pref_useful: 227
NL:pref_late: 175
NL:misses: 999
NL:misses_by_poll: 0

total selections: 2361377
total_filled: 92643
total_useful: 32284
total_late: 17286
total_polluted: 1
total_misses_after_warmup: 754809
conflicts: 5533986

test: 115068

DRAM Statistics
 CHANNEL 0
 RQ ROW_BUFFER_HIT:      11092  ROW_BUFFER_MISS:      18186
 DBUS_CONGESTED:         19
 WQ ROW_BUFFER_HIT:       1420  ROW_BUFFER_MISS:      12331  FULL:          0

 AVG_CONGESTED_CYCLE: 5

CPU 0 Branch Prediction Accuracy: 99.8174% MPKI: 0.3343 Average ROB Occupancy at Mispredict: 188.928
Branch types
NOT_BRANCH: 40845557 81.6911%
BRANCH_DIRECT_JUMP: 547468 1.09494%
BRANCH_INDIRECT: 181664 0.363328%
BRANCH_CONDITIONAL: 6181653 12.3633%
BRANCH_DIRECT_CALL: 950230 1.90046%
BRANCH_INDIRECT_CALL: 171577 0.343154%
BRANCH_RETURN: 1121830 2.24366%
BRANCH_OTHER: 0 0%

DRAM PAGES: 1048576
Allocated PAGES: 2551
Average_ROB_Occupancy: 252.1
Average_Decode_Occupancy: 37.9699
Average_FTQ_Occupancy: 14.9017
Indirect max targets: 14 Average targets: 1.15772
Branch_type:  BRANCH_DIRECT_JUMP:  Count Percentage: 3.28522 6.60305 3.64701 2.96782 2.22078 6.48184 2.04066 72.7536 
Branch_type:  BRANCH_INDIRECT:  Count Percentage: 11.708 3.45372 2.52352 9.6456 3.33981 2.80596 2.41263 64.1108 
Branch_type:  BRANCH_CONDITIONAL:  Count Percentage: 20.8755 3.14807 3.20216 3.00942 1.39424 4.77044 4.03829 59.5619 
Branch_type:  BRANCH_DIRECT_CALL:  Count Percentage: 0.383299 1.74878 1.62175 1.93568 2.55343 2.82467 1.1859 87.7465 
Branch_type:  BRANCH_INDIRECT_CALL:  Count Percentage: 9.5011 0 2.97721 0.00378484 0 2.20336 1.28277 84.0318 
Branch_type:  BRANCH_RETURN:  Count Percentage: 3.90943 1.97979 0.71452 3.61677 2.74209 5.53115 4.17202 77.3342 
Branch_type:  BRANCH_DIRECT_JUMP:  Total Count: 35968 72293 39929 32493 24314 70966 22342 796538 
Branch_type:  BRANCH_INDIRECT:  Total Count: 42656 12583 9194 35142 12168 10223 8790 233576 
Branch_type:  BRANCH_CONDITIONAL:  Total Count: 2578445 388836 395517 371710 172210 589224 498792 7356831 
Branch_type:  BRANCH_DIRECT_CALL:  Total Count: 7272 33178 30768 36724 48444 53590 22499 1664738 
Branch_type:  BRANCH_INDIRECT_CALL:  Total Count: 32634 0 10226 13 0 7568 4406 288629 
Branch_type:  BRANCH_RETURN:  Total Count: 87630 44377 16016 81070 61464 123981 93516 1733451 
Number of unique branch instructions: 10213
Upper 32 bits: 
aaaa
ffff
ffff0000
Unique upper 32 bits: 3
Unique upper 36 bits: 3
Unique upper 40 bits: 5
Unique upper 44 bits: 32
Unique upper 48 bits: 156
Variant_0 : 1441 0.351807
Variant_1 : 2602 0.635254
Variant_2 : 0 0
Variant_3 : 0 0
Offset_3 4212
Offset_4 256
Offset_5 465
Offset_6 516
Offset_7 619
Offset_8 525
Offset_9 481
Offset_10 398
Offset_11 326
Offset_12 285
Offset_13 216
Offset_14 244
Offset_15 190
Offset_16 225
Offset_17 155
Offset_18 125
Offset_19 256
Offset_20 139
Offset_21 235
Offset_22 404
Offset_23 242
Offset_24 333
Offset_25 95
Offset_47 84
Offset_64 2
decode_dispatch_called: 26385538 73.4421
Dispatch_width: 0 14158915 53.6616 39.4102
Dispatch_width: 1 1047611 3.9704 2.91594
Dispatch_width: 2 868744 3.2925 2.41808
Dispatch_width: 3 507027 1.92161 1.41127
Dispatch_width: 4 6508307 24.6662 18.1154
Dispatch_width: 5 109012 0.413151 0.303426
Dispatch_width: 6 3185922 12.0745 8.86777
Empty_decode_cycles: 9541457 26.5579
ROB_full_cycles: 10318628 28.7211
Starvation_cycles_per_kilo_instr: 224.224
Starvation_cycles_per_kilo_instr_3: 158.051
Starvation_cycles_per_kilo_instr_0: 133.817
Branch_type_1  (3,1)  (4,9)  (5,38)  (6,72)  (7,121)  (8,129)  (9,126)  (10,101)  (11,69)  (12,43)  (13,8)  (14,2)  (15,3)  (16,4)  (18,1)  (19,4)  (20,2)  (21,1)  (22,3)  (23,2)  (24,10)  (25,13) 
Branch_type_2  (3,1)  (4,1)  (5,1)  (8,3)  (9,3)  (12,1)  (13,1)  (14,1)  (16,3)  (17,2)  (20,2)  (21,2)  (23,5)  (24,1)  (47,38) 
Branch_type_3  (3,4210)  (4,246)  (5,422)  (6,429)  (7,467)  (8,329)  (9,257)  (10,161)  (11,126)  (12,50)  (13,7)  (64,2) 
Branch_type_4  (6,3)  (7,8)  (8,25)  (9,57)  (10,64)  (11,66)  (12,106)  (13,92)  (14,108)  (15,90)  (16,100)  (17,72)  (18,57)  (19,126)  (20,72)  (21,124)  (22,214)  (23,136)  (24,193)  (25,78) 
Branch_type_5  (8,2)  (9,1)  (10,4)  (11,6)  (12,3)  (13,14)  (14,17)  (15,11)  (16,20)  (17,11)  (18,16)  (19,13)  (20,11)  (21,13)  (22,42)  (23,26)  (24,37) 
Branch_type_6  (5,4)  (6,12)  (7,23)  (8,37)  (9,37)  (10,68)  (11,59)  (12,82)  (13,94)  (14,116)  (15,86)  (16,98)  (17,70)  (18,51)  (19,113)  (20,52)  (21,95)  (22,145)  (23,73)  (24,92)  (25,4)  (47,46) 
Unique trigger count: 
Variant_0_evicts_0 : 0
Variant_0_evicts_1 : 0
Variant_0_evicts_2 : 0
Variant_0_evicts_3 : 0
Variant_1_evicts_0 : 0
Variant_1_evicts_1 : 0
Variant_1_evicts_2 : 0
Variant_1_evicts_3 : 0
Variant_2_evicts_0 : 0
Variant_2_evicts_1 : 0
Variant_2_evicts_2 : 0
Variant_2_evicts_3 : 0
Variant_3_evicts_0 : 0
Variant_3_evicts_1 : 0
Variant_3_evicts_2 : 0
Variant_3_evicts_3 : 0
BTB PER SET UNIQUE ADDR: 29 25 30 30 26 27 28 26 24 28 26 28 28 29 27 25 28 32 28 24 27 23 25 29 29 23 22 26 34 32 27 28 25 32 30 22 29 26 26 29 30 28 28 30 25 31 24 28 32 23 31 25 31 28 29 27 28 28 30 23 25 31 25 22 26 26 28 27 27 31 27 29 31 26 21 29 27 29 28 26 30 26 28 26 31 30 24 25 24 28 31 23 28 29 24 27 29 27 26 31 24 25 29 29 29 27 30 24 31 22 27 28 28 23 27 28 32 25 25 35 30 27 27 35 28 27 27 27 26 29 27 31 23 27 23 28 27 26 25 29 25 28 26 24 29 29 24 30 22 29 30 27 27 32 27 26 34 26 28 29 26 25 25 28 26 26 32 26 27 25 31 30 25 26 29 26 27 30 27 28 28 28 28 25 27 27 22 27 23 32 27 26 27 26 24 33 24 29 26 28 24 26 28 28 31 28 23 29 23 28 28 27 29 31 31 30 30 30 28 29 24 33 27 25 29 29 27 23 27 27 30 27 24 23 28 29 30 33 25 25 32 24 25 26 29 28 32 24 26 25 27 30 24 20 32 30 
BTB PER SET COUNT: 34 41 2470 1004 28 31 28 31 27 31 27 1254 34 31 1983 26 2470 1242 29 29 29 994 27 57 37 636 586 34 4958 42 28 155 1033 38 9287 24 31 30 28 36 1003 29 34 30 28 1487 25 567 646 30 37 31 37 32 31 439 33 117 33 1960 28 42 26 40 35 26 15619 40 30 1006 35 37 36 28 21 33 28 224 35 40 165 31 1965 29 673 85 28 29 993 1005 557 27 1972 2467 25 1407 32 30 994 36 1980 33 30 33 34 29 39 1486 483 995 34 30 2206 474 686 29 44 31 2719 3215 30 28 1482 2314 1505 34 29 1502 28 32 31 1010 23 47 991 30 29 1112 27 32 2858 1489 26 531 31 32 82 36 23 2474 1486 30 997 60 33 46 3535 2032 39 1495 26 27 1487 278 30 33 563 35 29 26 209 999 28 1009 33 855 2932 35 1405 31 41 29 1499 30 28 1489 45 34 24 34 2098 33 1489 30 29 974 25 33 67 2471 30 26 997 1598 33 526 2951 476 509 516 267 1488 1204 4408 535 31 2004 1097 31 560 30 818 3348 32 304 37 1974 1975 1492 31 1972 2976 24 26 1492 31 1055 535 1186 28 37 441 76 32 1001 999 37 20485 26 1893 30 31 510 24 39 57 
To predecode: 0
Predecoding something: 0
Predecode request dropped: 0
sizeofblock_0 0
sizeofblock_1 35493
sizeofblock_2 100151
sizeofblock_3 0
sizeofblock_4 0
sizeofblock_5 0
sizeofblock_6 0
sizeofblock_7 0
sizeofblock_8 0
Variant_0 Correct: 1612360 Incorrect: 0 Accuracy: 1
Variant_1 Correct: 5717995 Incorrect: 0 Accuracy: 1
Variant_2 Correct: 0 Incorrect: 0 Accuracy: -nan
Variant_3 Correct: 0 Incorrect: 0 Accuracy: -nan
