
*** ChampSim Multicore Out-of-Order Simulator ***

Warmup Instructions: 50000000
Simulation Instructions: 50000000
Number of CPUs: 1
LLC sets: 2048
LLC ways: 16
Off-chip DRAM Size: 4096 MB Channels: 1 Width: 64-bit Data Rate: 6400 MT/s
CPU 0 runs ./micro_traces/srv769.trace.gz
.gz
ITLB has LRU replacement policy
DTLB has LRU replacement policy
STLB has LRU replacement policy
FDIP Prefetcher at L1I
L1I has LRU replacement policy
L1D has LRU replacement policy
Initialize SRRIP state for L2C
Initialize DRRIP state for LLC
Heartbeat_Variant_0 : 1347 0.328857 per_variant_size: 0 1347 0 0 0 0 0 0 0 
Heartbeat_Variant_1 : 2574 0.628418 per_variant_size: 0 511 2063 0 0 0 0 0 0 
Heartbeat_Variant_2 : 0 0 per_variant_size: 0 0 0 0 0 0 0 0 0 
Heartbeat_Variant_3 : 0 0 per_variant_size: 0 0 0 0 0 0 0 0 0 
Heartbeat_Variant_0_evicts 0 : 5786 1 : 545 2 : 0 3 : 0 
Heartbeat_Variant_1_evicts 0 : 501 1 : 0 2 : 0 3 : 0 
Heartbeat_Variant_2_evicts 0 : 0 1 : 0 2 : 0 3 : 0 
Heartbeat_Variant_3_evicts 0 : 0 1 : 0 2 : 0 3 : 0 
Heartbeat CPU 0 instructions: 10000003 cycles: 2796092 heartbeat IPC: 3.57642 cumulative IPC: 3.57642 (Simulation time: 0 hr 1 min 38 sec) 
Heartbeat_Variant_0 : 1358 0.331543 per_variant_size: 0 1358 0 0 0 0 0 0 0 
Heartbeat_Variant_1 : 2599 0.634521 per_variant_size: 0 497 2102 0 0 0 0 0 0 
Heartbeat_Variant_2 : 0 0 per_variant_size: 0 0 0 0 0 0 0 0 0 
Heartbeat_Variant_3 : 0 0 per_variant_size: 0 0 0 0 0 0 0 0 0 
Heartbeat_Variant_0_evicts 0 : 5638 1 : 100 2 : 0 3 : 0 
Heartbeat_Variant_1_evicts 0 : 98 1 : 0 2 : 0 3 : 0 
Heartbeat_Variant_2_evicts 0 : 0 1 : 0 2 : 0 3 : 0 
Heartbeat_Variant_3_evicts 0 : 0 1 : 0 2 : 0 3 : 0 
Heartbeat CPU 0 instructions: 20000002 cycles: 5590355 heartbeat IPC: 3.57876 cumulative IPC: 3.57759 (Simulation time: 0 hr 3 min 6 sec) 
Heartbeat_Variant_0 : 1377 0.336182 per_variant_size: 0 1377 0 0 0 0 0 0 0 
Heartbeat_Variant_1 : 2635 0.643311 per_variant_size: 0 486 2149 0 0 0 0 0 0 
Heartbeat_Variant_2 : 0 0 per_variant_size: 0 0 0 0 0 0 0 0 0 
Heartbeat_Variant_3 : 0 0 per_variant_size: 0 0 0 0 0 0 0 0 0 
Heartbeat_Variant_0_evicts 0 : 5650 1 : 340 2 : 0 3 : 0 
Heartbeat_Variant_1_evicts 0 : 333 1 : 0 2 : 0 3 : 0 
Heartbeat_Variant_2_evicts 0 : 0 1 : 0 2 : 0 3 : 0 
Heartbeat_Variant_3_evicts 0 : 0 1 : 0 2 : 0 3 : 0 
Heartbeat CPU 0 instructions: 30000001 cycles: 8386830 heartbeat IPC: 3.57593 cumulative IPC: 3.57704 (Simulation time: 0 hr 4 min 34 sec) 
Heartbeat_Variant_0 : 1382 0.337402 per_variant_size: 0 1382 0 0 0 0 0 0 0 
Heartbeat_Variant_1 : 2637 0.643799 per_variant_size: 0 480 2157 0 0 0 0 0 0 
Heartbeat_Variant_2 : 0 0 per_variant_size: 0 0 0 0 0 0 0 0 0 
Heartbeat_Variant_3 : 0 0 per_variant_size: 0 0 0 0 0 0 0 0 0 
Heartbeat_Variant_0_evicts 0 : 5578 1 : 148 2 : 0 3 : 0 
Heartbeat_Variant_1_evicts 0 : 144 1 : 0 2 : 0 3 : 0 
Heartbeat_Variant_2_evicts 0 : 0 1 : 0 2 : 0 3 : 0 
Heartbeat_Variant_3_evicts 0 : 0 1 : 0 2 : 0 3 : 0 
Heartbeat CPU 0 instructions: 40000003 cycles: 11182118 heartbeat IPC: 3.57745 cumulative IPC: 3.57714 (Simulation time: 0 hr 6 min 3 sec) 
Heartbeat_Variant_0 : 1381 0.337158 per_variant_size: 0 1381 0 0 0 0 0 0 0 
Heartbeat_Variant_1 : 2639 0.644287 per_variant_size: 0 478 2161 0 0 0 0 0 0 
Heartbeat_Variant_2 : 0 0 per_variant_size: 0 0 0 0 0 0 0 0 0 
Heartbeat_Variant_3 : 0 0 per_variant_size: 0 0 0 0 0 0 0 0 0 
Heartbeat_Variant_0_evicts 0 : 5539 1 : 15 2 : 0 3 : 0 
Heartbeat_Variant_1_evicts 0 : 16 1 : 0 2 : 0 3 : 0 
Heartbeat_Variant_2_evicts 0 : 0 1 : 0 2 : 0 3 : 0 
Heartbeat_Variant_3_evicts 0 : 0 1 : 0 2 : 0 3 : 0 
Heartbeat CPU 0 instructions: 50000001 cycles: 13976664 heartbeat IPC: 3.5784 cumulative IPC: 3.57739 (Simulation time: 0 hr 7 min 32 sec) 

Warmup complete CPU 0 instructions: 50000001 cycles: 13976664 (Simulation time: 0 hr 7 min 32 sec) 

Cycle: 20000000 FTQ IN: 58254513 FTQ occupancy: 20.4735 DECODE IN: 58254421 DECODE occupancy: 53.1533 ROB IN: 58254361 ROB occupancy: 318.68 ROB OUT: 58254313
Heartbeat_Variant_0 : 1387 0.338623 per_variant_size: 0 1387 0 0 0 0 0 0 0 
Heartbeat_Variant_1 : 2648 0.646484 per_variant_size: 0 467 2181 0 0 0 0 0 0 
Heartbeat_Variant_2 : 0 0 per_variant_size: 0 0 0 0 0 0 0 0 0 
Heartbeat_Variant_3 : 0 0 per_variant_size: 0 0 0 0 0 0 0 0 0 
Heartbeat_Variant_0_evicts 0 : 5634 1 : 258 2 : 0 3 : 0 
Heartbeat_Variant_1_evicts 0 : 255 1 : 0 2 : 0 3 : 0 
Heartbeat_Variant_2_evicts 0 : 0 1 : 0 2 : 0 3 : 0 
Heartbeat_Variant_3_evicts 0 : 0 1 : 0 2 : 0 3 : 0 
Heartbeat CPU 0 instructions: 60000002 cycles: 21246370 heartbeat IPC: 1.37557 cumulative IPC: 1.37557 (Simulation time: 0 hr 9 min 17 sec) 
Heartbeat_Variant_0 : 1391 0.3396 per_variant_size: 0 1391 0 0 0 0 0 0 0 
Heartbeat_Variant_1 : 2649 0.646729 per_variant_size: 0 468 2181 0 0 0 0 0 0 
Heartbeat_Variant_2 : 0 0 per_variant_size: 0 0 0 0 0 0 0 0 0 
Heartbeat_Variant_3 : 0 0 per_variant_size: 0 0 0 0 0 0 0 0 0 
Heartbeat_Variant_0_evicts 0 : 5610 1 : 42 2 : 0 3 : 0 
Heartbeat_Variant_1_evicts 0 : 39 1 : 0 2 : 0 3 : 0 
Heartbeat_Variant_2_evicts 0 : 0 1 : 0 2 : 0 3 : 0 
Heartbeat_Variant_3_evicts 0 : 0 1 : 0 2 : 0 3 : 0 
Heartbeat CPU 0 instructions: 70000003 cycles: 28369514 heartbeat IPC: 1.40387 cumulative IPC: 1.38958 (Simulation time: 0 hr 11 min 3 sec) 
Cycle: 30000000 FTQ IN: 14042702 FTQ occupancy: 14.831 DECODE IN: 14042754 DECODE occupancy: 38.0188 ROB IN: 14042796 ROB occupancy: 251.707 ROB OUT: 14042737
Heartbeat_Variant_0 : 1394 0.340332 per_variant_size: 0 1394 0 0 0 0 0 0 0 
Heartbeat_Variant_1 : 2656 0.648438 per_variant_size: 0 452 2204 0 0 0 0 0 0 
Heartbeat_Variant_2 : 0 0 per_variant_size: 0 0 0 0 0 0 0 0 0 
Heartbeat_Variant_3 : 0 0 per_variant_size: 0 0 0 0 0 0 0 0 0 
Heartbeat_Variant_0_evicts 0 : 5695 1 : 165 2 : 0 3 : 0 
Heartbeat_Variant_1_evicts 0 : 163 1 : 0 2 : 0 3 : 0 
Heartbeat_Variant_2_evicts 0 : 0 1 : 0 2 : 0 3 : 0 
Heartbeat_Variant_3_evicts 0 : 0 1 : 0 2 : 0 3 : 0 
Heartbeat CPU 0 instructions: 80000001 cycles: 35604515 heartbeat IPC: 1.38217 cumulative IPC: 1.3871 (Simulation time: 0 hr 12 min 52 sec) 
Cycle: 40000000 FTQ IN: 13910079 FTQ occupancy: 14.6849 DECODE IN: 13910020 DECODE occupancy: 37.3262 ROB IN: 13909978 ROB occupancy: 249.206 ROB OUT: 13909734
Heartbeat_Variant_0 : 1395 0.340576 per_variant_size: 0 1395 0 0 0 0 0 0 0 
Heartbeat_Variant_1 : 2655 0.648193 per_variant_size: 0 443 2212 0 0 0 0 0 0 
Heartbeat_Variant_2 : 0 0 per_variant_size: 0 0 0 0 0 0 0 0 0 
Heartbeat_Variant_3 : 0 0 per_variant_size: 0 0 0 0 0 0 0 0 0 
Heartbeat_Variant_0_evicts 0 : 5669 1 : 16 2 : 0 3 : 0 
Heartbeat_Variant_1_evicts 0 : 15 1 : 0 2 : 0 3 : 0 
Heartbeat_Variant_2_evicts 0 : 0 1 : 0 2 : 0 3 : 0 
Heartbeat_Variant_3_evicts 0 : 0 1 : 0 2 : 0 3 : 0 
Heartbeat CPU 0 instructions: 90000001 cycles: 42695211 heartbeat IPC: 1.4103 cumulative IPC: 1.39283 (Simulation time: 0 hr 14 min 37 sec) 
Heartbeat_Variant_0 : 1391 0.3396 per_variant_size: 0 1391 0 0 0 0 0 0 0 
Heartbeat_Variant_1 : 2662 0.649902 per_variant_size: 0 440 2222 0 0 0 0 0 0 
Heartbeat_Variant_2 : 0 0 per_variant_size: 0 0 0 0 0 0 0 0 0 
Heartbeat_Variant_3 : 0 0 per_variant_size: 0 0 0 0 0 0 0 0 0 
Heartbeat_Variant_0_evicts 0 : 5544 1 : 75 2 : 0 3 : 0 
Heartbeat_Variant_1_evicts 0 : 80 1 : 0 2 : 0 3 : 0 
Heartbeat_Variant_2_evicts 0 : 0 1 : 0 2 : 0 3 : 0 
Heartbeat_Variant_3_evicts 0 : 0 1 : 0 2 : 0 3 : 0 
Heartbeat CPU 0 instructions: 100000001 cycles: 49911346 heartbeat IPC: 1.38578 cumulative IPC: 1.39141 (Simulation time: 0 hr 16 min 1 sec) 
Finished CPU 0 instructions: 50000000 cycles: 35934682 cumulative IPC: 1.39141 (Simulation time: 0 hr 16 min 1 sec) 

ChampSim completed all CPUs

Region of Interest Statistics

CPU 0 cumulative IPC: 1.39141 instructions: 50000000 cycles: 35934682
 Fetch stage stalled: 46.1257  Sim cycles: 35934682 fetch stall cycle: 16575106
 Empty decode stage: 26.1118  Sim cycles: 35934682 fetch stall cycle: 9383197
ITLB TOTAL     ACCESS:    5823375  HIT:    5333758  MISS:     489617  HIT %:    91.5922  MISS %:    8.40779   MPKI: 9.79234
ITLB LOAD TRANSLATION INSTRUCTION	ACCESS:    5683464  HIT:    5193847  MISS:     489617  HIT %:    91.3852  MISS %:    8.61476  MPKI: 9.79234
ITLB TRANSLATION FROM L1D PREFETCHER INSTRUCTION	ACCESS:     139911  HIT:     139911  MISS:          0  HIT %:        100  MISS %:          0  MPKI: 0

ITLB AVERAGE MISS LATENCY: 9.05593 cycles
ITLB RQ	ACCESS:    7914535	FORWARD:          0	MERGED:    1612268	TO_CACHE:    6302267

DTLB TOTAL     ACCESS:    8926254  HIT:    8450704  MISS:     475550  HIT %:    94.6725  MISS %:    5.32754   MPKI: 9.511
DTLB LOAD TRANSLATION DATA	ACCESS:    8926254  HIT:    8450704  MISS:     475550  HIT %:    94.6725  MISS %:    5.32754  MPKI: 9.511

DTLB AVERAGE MISS LATENCY: 9.33144 cycles
DTLB RQ	ACCESS:   13287623	FORWARD:          0	MERGED:    4324386	TO_CACHE:    8963237

STLB TOTAL     ACCESS:    1221246  HIT:    1219107  MISS:       2139  HIT %:    99.8249  MISS %:   0.175149   MPKI: 0.04278
STLB LOAD TRANSLATION INSTRUCTION	ACCESS:     489617  HIT:     489374  MISS:        243  HIT %:    99.9504  MISS %:  0.0496306  MPKI: 0.00486
STLB LOAD TRANSLATION DATA	ACCESS:     475550  HIT:     473667  MISS:       1883  HIT %:     99.604  MISS %:   0.395963  MPKI: 0.03766
STLB TRANSLATION FROM L1D PREFETCHER DATA	ACCESS:     256079  HIT:     256066  MISS:         13  HIT %:    99.9949  MISS %: 0.00507656  MPKI: 0.00026

STLB AVERAGE MISS LATENCY: 71.7349 cycles
STLB RQ	ACCESS:    1363358	FORWARD:          0	MERGED:     142079	TO_CACHE:    1221279

STLB Hit, L1D data hit: 0
STLB Hit, L2C data hit: 0
STLB Hit, LLC data hit: 0
STLB Hit, LLC data miss: 0
STLB STLB hints to L2: 0
L1D TOTAL     ACCESS:   13038198  HIT:   11883838  MISS:    1154360  HIT %:    91.1463  MISS %:    8.85368   MPKI: 23.0872
L1D LOAD DATA	ACCESS:    6540014  HIT:    5780168  MISS:     759846  HIT %:    88.3816  MISS %:    11.6184  MPKI: 15.1969
L1D RFO DATA	ACCESS:    6160784  HIT:    5870844  MISS:     289940  HIT %:    95.2938  MISS %:    4.70622  MPKI: 5.7988
L1D PREFETCH DATA	ACCESS:     337400  HIT:     232826  MISS:     104574  HIT %:    69.0059  MISS %:    30.9941  MPKI: 2.09148

L1D PREFETCH  REQUESTED:     796713  ISSUED:     796713  USEFUL:      48103  USELESS:      68646
L1D USEFUL LOAD PREFETCHES:      48103 PREFETCH ISSUED TO LOWER LEVEL:     116788  ACCURACY: 41.1883
 TIMELY PREFETCHES:      48103 LATE PREFETCHES: 12178 DROPPED PREFETCHES: 1
L1D AVERAGE MISS LATENCY: 335752 cycles
L1D RQ	ACCESS:   10680573	FORWARD:          0	MERGED:    3940748	TO_CACHE:    6575470
L1D WQ	ACCESS:    6908677	FORWARD:     164686	MERGED:     196524	TO_CACHE:    6712153
L1D PQ	ACCESS:     398522	FORWARD:          0	MERGED:          0	TO_CACHE:     398191

L1D UNIQUE REGIONS ACCESSED: 0
L1D REGIONS CONFLICTS: 0
L1D Cross Page Prefetch Requests: 6416
L1D Same Page Prefetch Requests: 798115
L1D ROI Sum of L1D PQ occupancy: 5050904
L1D PREFETCHES PUSHED FROM L2C: 0
L1I TOTAL     ACCESS:    7107364  HIT:    4368117  MISS:    2739247  HIT %:     61.459  MISS %:     38.541   MPKI: 54.7849
L1I LOAD INSTRUCTION	ACCESS:    6433510  HIT:    3694263  MISS:    2739247  HIT %:    57.4222  MISS %:    42.5778  MPKI: 54.7849
L1I PREFETCH INSTRUCTION	ACCESS:     673854  HIT:     673854  MISS:          0  HIT %:        100  MISS %:          0  MPKI: 0

L1I PREFETCH  REQUESTED:    1613023  ISSUED:    1613023  USEFUL:          0  USELESS:          0
L1I USEFUL LOAD PREFETCHES:          0 PREFETCH ISSUED TO LOWER LEVEL:          0  ACCURACY: -nan
 TIMELY PREFETCHES:          0 LATE PREFETCHES: 0 DROPPED PREFETCHES: 0
L1I AVERAGE MISS LATENCY: 17.2933 cycles
L1I RQ	ACCESS:    9566566	FORWARD:          0	MERGED:    2835076	TO_CACHE:    6731490
L1I PQ	ACCESS:    1613023	FORWARD:          0	MERGED:     429978	TO_CACHE:    1183045

L1BTB TOTAL     ACCESS:    5680080  HIT:    2079876  MISS:    3600204  HIT %:     36.617  MISS %:     63.383   MPKI: 72.0041
L1BTB BRANCH_DIRECT_JUMP	ACCESS:     545323 HIT:     144876 MISS:     400447 AVERAGE STALL: 55.0307 AVERAGE FETCH STALL: 15.5096 AVERAGE FETCH QUEUE STALL: 18.8126 AVERAGE DECODE STALL: 19.7722 AVERAGE EXECUTE STALL: 2.07593e+15
L1BTB BRANCH_INDIRECT	ACCESS:     182083 HIT:      65784 MISS:     116299 AVERAGE STALL: 116.532 AVERAGE FETCH STALL: 11.2814 AVERAGE FETCH QUEUE STALL: 19.5133 AVERAGE DECODE STALL: 13.3351 AVERAGE EXECUTE STALL: 71.4408
L1BTB BRANCH_CONDITIONAL	ACCESS:    2736420 HIT:    1453721 MISS:    1282699 AVERAGE STALL: 63.4099 AVERAGE FETCH STALL: 25.7995 AVERAGE FETCH QUEUE STALL: 20.9315 AVERAGE DECODE STALL: 15.9366 AVERAGE EXECUTE STALL: 2.65001e+15
L1BTB BRANCH_DIRECT_CALL	ACCESS:     937657 HIT:     105112 MISS:     832545 AVERAGE STALL: 78.0619 AVERAGE FETCH STALL: 24.0023 AVERAGE FETCH QUEUE STALL: 31.6112 AVERAGE DECODE STALL: 21.6225 AVERAGE EXECUTE STALL: 8.3394e+15
L1BTB BRANCH_INDIRECT_CALL	ACCESS:     170468 HIT:      21226 MISS:     149242 AVERAGE STALL: 143.362 AVERAGE FETCH STALL: 12.1998 AVERAGE FETCH QUEUE STALL: 19.1421 AVERAGE DECODE STALL: 12.3728 AVERAGE EXECUTE STALL: 99.1596
L1BTB BRANCH_RETURN	ACCESS:    1108129 HIT:     289157 MISS:     818972 AVERAGE STALL: 49.0122 AVERAGE FETCH STALL: 16.5155 AVERAGE FETCH QUEUE STALL: 5.01747 AVERAGE DECODE STALL: 5.93254 AVERAGE EXECUTE STALL: 4.37261e+14
L1BTB BRANCH_OTHER ACCESS:          0 HIT:          0 MISS:          0 AVERAGE STALL: -nan AVERAGE FETCH STALL: -nan AVERAGE FETCH QUEUE STALL: -nan AVERAGE DECODE STALL: -nan AVERAGE EXECUTE STALL: -nan
L1BTB TOTAL ROB OCCUPANCY AT BTB MISS: 2.93501

L2BTB TOTAL     ACCESS:    3574948  HIT:    3507315  MISS:      67633  HIT %:    98.1081  MISS %:    1.89186   MPKI: 1.35266
L2BTB BRANCH_DIRECT_JUMP	ACCESS:     396276 HIT:     391548 MISS:       4728 AVERAGE STALL: 55.0307 AVERAGE FETCH STALL: 15.5096 AVERAGE FETCH QUEUE STALL: 18.8126 AVERAGE DECODE STALL: 19.7722 AVERAGE EXECUTE STALL: 2.07593e+15
L2BTB BRANCH_INDIRECT	ACCESS:     106121 HIT:     103477 MISS:       2644 AVERAGE STALL: 116.532 AVERAGE FETCH STALL: 11.2814 AVERAGE FETCH QUEUE STALL: 19.5133 AVERAGE DECODE STALL: 13.3351 AVERAGE EXECUTE STALL: 71.4408
L2BTB BRANCH_CONDITIONAL	ACCESS:    1282699 HIT:    1275664 MISS:       7035 AVERAGE STALL: 63.4099 AVERAGE FETCH STALL: 25.7995 AVERAGE FETCH QUEUE STALL: 20.9315 AVERAGE DECODE STALL: 15.9366 AVERAGE EXECUTE STALL: 2.65001e+15
L2BTB BRANCH_DIRECT_CALL	ACCESS:     832545 HIT:     830306 MISS:       2239 AVERAGE STALL: 78.0619 AVERAGE FETCH STALL: 24.0023 AVERAGE FETCH QUEUE STALL: 31.6112 AVERAGE DECODE STALL: 21.6225 AVERAGE EXECUTE STALL: 8.3394e+15
L2BTB BRANCH_INDIRECT_CALL	ACCESS:     139729 HIT:     129557 MISS:      10172 AVERAGE STALL: 143.362 AVERAGE FETCH STALL: 12.1998 AVERAGE FETCH QUEUE STALL: 19.1421 AVERAGE DECODE STALL: 12.3728 AVERAGE EXECUTE STALL: 99.1596
L2BTB BRANCH_RETURN	ACCESS:     817578 HIT:     776763 MISS:      40815 AVERAGE STALL: 49.0122 AVERAGE FETCH STALL: 16.5155 AVERAGE FETCH QUEUE STALL: 5.01747 AVERAGE DECODE STALL: 5.93254 AVERAGE EXECUTE STALL: 4.37261e+14
L2BTB BRANCH_OTHER ACCESS:          0 HIT:          0 MISS:          0 AVERAGE STALL: -nan AVERAGE FETCH STALL: -nan AVERAGE FETCH QUEUE STALL: -nan AVERAGE DECODE STALL: -nan AVERAGE EXECUTE STALL: -nan
L2BTB TOTAL ROB OCCUPANCY AT BTB MISS: 156.235

L2C TOTAL     ACCESS:    4510696  HIT:    4034977  MISS:     475719  HIT %:    89.4535  MISS %:    10.5465   MPKI: 9.51438
L2C LOAD INSTRUCTION	ACCESS:    2739247  HIT:    2480465  MISS:     258782  HIT %:    90.5528  MISS %:    9.44719  MPKI: 5.17564
L2C LOAD TRANSLATION INSTRUCTION	ACCESS:        283  HIT:         69  MISS:        214  HIT %:    24.3816  MISS %:    75.6184  MPKI: 0.00428
L2C LOAD DATA	ACCESS:     747637  HIT:     667032  MISS:      80605  HIT %:    89.2187  MISS %:    10.7813  MPKI: 1.6121
L2C RFO DATA	ACCESS:     289887  HIT:     241685  MISS:      48202  HIT %:    83.3721  MISS %:    16.6279  MPKI: 0.96404
L2C PREFETCH DATA	ACCESS:     205228  HIT:     130826  MISS:      74402  HIT %:    63.7467  MISS %:    36.2533  MPKI: 1.48804
L2C WRITEBACK DATA	ACCESS:     526414  HIT:     514276  MISS:      12138  HIT %:    97.6942  MISS %:    2.30579  MPKI: 0.24276
L2C LOAD TRANSLATION DATA	ACCESS:       1978  HIT:        611  MISS:       1367  HIT %:    30.8898  MISS %:    69.1102  MPKI: 0.02734
L2C TRANSLATION FROM L1D PREFETCHER DATA	ACCESS:         22  HIT:         13  MISS:          9  HIT %:    59.0909  MISS %:    40.9091  MPKI: 0.00018

L2C PREFETCH  REQUESTED:      96661  ISSUED:      96661  USEFUL:       8707  USELESS:      66433
L2C USEFUL LOAD PREFETCHES:       8707 PREFETCH ISSUED TO LOWER LEVEL:      74954  ACCURACY: 11.6165
 TIMELY PREFETCHES:       8707 LATE PREFETCHES: 552 DROPPED PREFETCHES: 0
L2C AVERAGE MISS LATENCY: 39.6545 cycles
L2C RQ	ACCESS:    3779101	FORWARD:          0	MERGED:          0	TO_CACHE:    3779055
L2C WQ	ACCESS:     526414	FORWARD:         46	MERGED:          0	TO_CACHE:     526414
L2C PQ	ACCESS:     213449	FORWARD:          0	MERGED:       3753	TO_CACHE:     209696

L2C Dense regions hint from L2: 0
PSCL5 TOTAL     ACCESS:       4286  HIT:       2143  MISS:       2143  HIT %:         50  MISS %:         50   MPKI: 0.04286
PSCL5 LOAD TRANSLATION INSTRUCTION	ACCESS:       4242  HIT:       2121  MISS:       2121  HIT %:         50  MISS %:         50  MPKI: 0.04242
PSCL5 TRANSLATION FROM L1D PREFETCHER INSTRUCTION	ACCESS:         44  HIT:         22  MISS:         22  HIT %:         50  MISS %:         50  MPKI: 0.00044


PSCL4 TOTAL     ACCESS:       4103  HIT:       2045  MISS:       2058  HIT %:    49.8416  MISS %:    50.1584   MPKI: 0.04116
PSCL4 LOAD TRANSLATION INSTRUCTION	ACCESS:       2694  HIT:       2023  MISS:        671  HIT %:    75.0928  MISS %:    24.9072  MPKI: 0.01342
PSCL4 TRANSLATION FROM L1D PREFETCHER INSTRUCTION	ACCESS:         31  HIT:         22  MISS:          9  HIT %:    70.9677  MISS %:    29.0323  MPKI: 0.00018
PSCL4 LOAD TRANSLATION DATA	ACCESS:       1365  HIT:          0  MISS:       1365  HIT %:          0  MISS %:        100  MPKI: 0.0273
PSCL4 TRANSLATION FROM L1D PREFETCHER DATA	ACCESS:         13  HIT:          0  MISS:         13  HIT %:          0  MISS %:        100  MPKI: 0.00026


PSCL3 TOTAL     ACCESS:       4159  HIT:       2073  MISS:       2086  HIT %:    49.8437  MISS %:    50.1563   MPKI: 0.04172
PSCL3 LOAD TRANSLATION INSTRUCTION	ACCESS:       2722  HIT:       2051  MISS:        671  HIT %:     75.349  MISS %:     24.651  MPKI: 0.01342
PSCL3 TRANSLATION FROM L1D PREFETCHER INSTRUCTION	ACCESS:         31  HIT:         22  MISS:          9  HIT %:    70.9677  MISS %:    29.0323  MPKI: 0.00018
PSCL3 LOAD TRANSLATION DATA	ACCESS:       1393  HIT:          0  MISS:       1393  HIT %:          0  MISS %:        100  MPKI: 0.02786
PSCL3 TRANSLATION FROM L1D PREFETCHER DATA	ACCESS:         13  HIT:          0  MISS:         13  HIT %:          0  MISS %:        100  MPKI: 0.00026


PSCL2 TOTAL     ACCESS:       4172  HIT:       2029  MISS:       2143  HIT %:    48.6337  MISS %:    51.3663   MPKI: 0.04286
PSCL2 LOAD TRANSLATION INSTRUCTION	ACCESS:       2250  HIT:       2007  MISS:        243  HIT %:       89.2  MISS %:       10.8  MPKI: 0.00486
PSCL2 TRANSLATION FROM L1D PREFETCHER INSTRUCTION	ACCESS:         22  HIT:         22  MISS:          0  HIT %:        100  MISS %:          0  MPKI: 0
PSCL2 LOAD TRANSLATION DATA	ACCESS:       1878  HIT:          0  MISS:       1878  HIT %:          0  MISS %:        100  MPKI: 0.03756
PSCL2 TRANSLATION FROM L1D PREFETCHER DATA	ACCESS:         22  HIT:          0  MISS:         22  HIT %:          0  MISS %:        100  MPKI: 0.00044


LLC TOTAL     ACCESS:     533274  HIT:     502208  MISS:      31066  HIT %:    94.1745  MISS %:    5.82552   MPKI: 0.62132
LLC LOAD INSTRUCTION	ACCESS:     258782  HIT:     257658  MISS:       1124  HIT %:    99.5657  MISS %:   0.434342  MPKI: 0.02248
LLC LOAD TRANSLATION INSTRUCTION	ACCESS:        214  HIT:        177  MISS:         37  HIT %:    82.7103  MISS %:    17.2897  MPKI: 0.00074
LLC LOAD DATA	ACCESS:      80098  HIT:      76521  MISS:       3577  HIT %:    95.5342  MISS %:    4.46578  MPKI: 0.07154
LLC RFO DATA	ACCESS:      48152  HIT:      32601  MISS:      15551  HIT %:    67.7044  MISS %:    32.2956  MPKI: 0.31102
LLC PREFETCH DATA	ACCESS:      74954  HIT:      64715  MISS:      10239  HIT %:    86.3396  MISS %:    13.6604  MPKI: 0.20478
LLC WRITEBACK DATA	ACCESS:      69698  HIT:      69234  MISS:        464  HIT %:    99.3343  MISS %:   0.665729  MPKI: 0.00928
LLC LOAD TRANSLATION DATA	ACCESS:       1367  HIT:       1293  MISS:         74  HIT %:    94.5867  MISS %:    5.41331  MPKI: 0.00148
LLC TRANSLATION FROM L1D PREFETCHER DATA	ACCESS:          9  HIT:          9  MISS:          0  HIT %:        100  MISS %:          0  MPKI: 0

LLC AVERAGE MISS LATENCY: 158.026 cycles
LLC RQ	ACCESS:     388627	FORWARD:          0	MERGED:          0	TO_CACHE:     388622
LLC WQ	ACCESS:      69698	FORWARD:          5	MERGED:          0	TO_CACHE:      69698
LLC PQ	ACCESS:      74954	FORWARD:          0	MERGED:          0	TO_CACHE:      74954

LLC Dense regions hint to LLC: 0

RAW hits: 1933213
Loads Generated: 12613786
Loads sent to L1D: 10680573
Stores Generated: 6908661
Stores sent to L1D: 6908677
Major fault: 0 Minor fault: 2570
Allocated PAGES: 2570

stream: 
stream:times selected: 1240674
stream:pref_filled: 125998
stream:pref_useful: 29259
stream:pref_late: 8698
stream:misses: 10559
stream:misses_by_poll: 0

CS: 
CS:times selected: 193843
CS:pref_filled: 71221
CS:pref_useful: 49966
CS:pref_late: 9348
CS:misses: 23703
CS:misses_by_poll: 27

CPLX: 
CPLX:times selected: 1045709
CPLX:pref_filled: 24365
CPLX:pref_useful: 7696
CPLX:pref_late: 3703
CPLX:misses: 126746
CPLX:misses_by_poll: 5

NL_L1: 
NL:times selected: 13305
NL:pref_filled: 1533
NL:pref_useful: 203
NL:pref_late: 544
NL:misses: 1571
NL:misses_by_poll: 0

total selections: 2493531
total_filled: 104574
total_useful: 48103
total_late: 24571
total_polluted: 32
total_misses_after_warmup: 795303
conflicts: 5490791

test: 118921

DRAM Statistics
 CHANNEL 0
 RQ ROW_BUFFER_HIT:      11483  ROW_BUFFER_MISS:      19108
 DBUS_CONGESTED:         10
 WQ ROW_BUFFER_HIT:       1544  ROW_BUFFER_MISS:      12831  FULL:          0

 AVG_CONGESTED_CYCLE: 6

CPU 0 Branch Prediction Accuracy: 99.8199% MPKI: 0.32972 Average ROB Occupancy at Mispredict: 194.202
Branch types
NOT_BRANCH: 40847115 81.6942%
BRANCH_DIRECT_JUMP: 545323 1.09065%
BRANCH_INDIRECT: 182083 0.364166%
BRANCH_CONDITIONAL: 6209198 12.4184%
BRANCH_DIRECT_CALL: 937657 1.87531%
BRANCH_INDIRECT_CALL: 170468 0.340936%
BRANCH_RETURN: 1108129 2.21626%
BRANCH_OTHER: 0 0%

DRAM PAGES: 1048576
Allocated PAGES: 2570
Average_ROB_Occupancy: 251.638
Average_Decode_Occupancy: 37.5596
Average_FTQ_Occupancy: 14.7377
Indirect max targets: 14 Average targets: 1.15203
Branch_type:  BRANCH_DIRECT_JUMP:  Count Percentage: 2.35948 7.00097 8.80875 3.52623 4.02204 6.01203 7.63153 60.639 
Branch_type:  BRANCH_INDIRECT:  Count Percentage: 11.7714 11.0834 10.216 3.75038 1.33781 17.7091 16.4197 27.7122 
Branch_type:  BRANCH_CONDITIONAL:  Count Percentage: 26.4409 3.87116 2.70042 6.22202 2.01535 5.19835 5.26561 48.2862 
Branch_type:  BRANCH_DIRECT_CALL:  Count Percentage: 0.388977 1.96547 1.14688 2.45343 3.23197 3.6444 5.8429 81.326 
Branch_type:  BRANCH_INDIRECT_CALL:  Count Percentage: 9.52249 0 2.98541 10.6518 0 2.84391 2.84654 71.1498 
Branch_type:  BRANCH_RETURN:  Count Percentage: 7.99748 3.25614 2.74101 7.80615 3.08488 7.20024 6.04609 61.868 
Branch_type:  BRANCH_DIRECT_JUMP:  Total Count: 25703 76265 95958 38413 43814 65492 83134 660570 
Branch_type:  BRANCH_INDIRECT:  Total Count: 42737 40239 37090 13616 4857 64294 59613 100611 
Branch_type:  BRANCH_CONDITIONAL:  Total Count: 3281680 480465 335160 772239 250133 645188 653536 5992992 
Branch_type:  BRANCH_DIRECT_CALL:  Total Count: 7313 36952 21562 46126 60763 68517 109850 1528977 
Branch_type:  BRANCH_INDIRECT_CALL:  Total Count: 32573 0 10212 36436 0 9728 9737 243378 
Branch_type:  BRANCH_RETURN:  Total Count: 177779 72382 60931 173526 68575 160057 134401 1375288 
Number of unique branch instructions: 10200
Upper 32 bits: 
aaaa
ffff
ffff0000
Unique upper 32 bits: 3
Unique upper 36 bits: 3
Unique upper 40 bits: 5
Unique upper 44 bits: 32
Unique upper 48 bits: 153
Variant_0 : 1391 0.3396
Variant_1 : 2662 0.649902
Variant_2 : 0 0
Variant_3 : 0 0
Offset_3 4226
Offset_4 259
Offset_5 466
Offset_6 521
Offset_7 604
Offset_8 541
Offset_9 477
Offset_10 399
Offset_11 335
Offset_12 281
Offset_13 211
Offset_14 227
Offset_15 193
Offset_16 223
Offset_17 159
Offset_18 130
Offset_19 240
Offset_20 139
Offset_21 235
Offset_22 402
Offset_23 247
Offset_24 337
Offset_25 88
Offset_47 84
Offset_64 5
decode_dispatch_called: 26176999 72.8461
Dispatch_width: 0 14023047 53.5701 39.0237
Dispatch_width: 1 1032473 3.9442 2.87319
Dispatch_width: 2 854735 3.26521 2.37858
Dispatch_width: 3 505172 1.92983 1.40581
Dispatch_width: 4 6356204 24.2816 17.6882
Dispatch_width: 5 114483 0.437342 0.318586
Dispatch_width: 6 3290885 12.5717 9.15796
Empty_decode_cycles: 9757683 27.1539
ROB_full_cycles: 10077700 28.0445
Starvation_cycles_per_kilo_instr: 225.661
Starvation_cycles_per_kilo_instr_3: 160.954
Starvation_cycles_per_kilo_instr_0: 137.03
Branch_type_1  (3,1)  (4,9)  (5,36)  (6,71)  (7,120)  (8,136)  (9,127)  (10,103)  (11,76)  (12,44)  (13,5)  (14,2)  (15,3)  (16,4)  (18,1)  (19,4)  (20,2)  (21,1)  (22,3)  (23,2)  (24,10)  (25,12) 
Branch_type_2  (3,1)  (5,1)  (8,3)  (9,3)  (12,1)  (13,1)  (14,1)  (16,3)  (17,2)  (20,2)  (21,2)  (23,5)  (24,1)  (47,39) 
Branch_type_3  (3,4224)  (4,250)  (5,425)  (6,433)  (7,451)  (8,337)  (9,259)  (10,163)  (11,140)  (12,53)  (13,4)  (64,2) 
Branch_type_4  (6,4)  (7,8)  (8,31)  (9,51)  (10,64)  (11,60)  (12,102)  (13,92)  (14,99)  (15,92)  (16,100)  (17,74)  (18,60)  (19,117)  (20,71)  (21,124)  (22,214)  (23,139)  (24,198)  (25,72)  (64,2) 
Branch_type_5  (8,2)  (9,1)  (10,3)  (11,5)  (12,3)  (13,14)  (14,16)  (15,11)  (16,20)  (17,11)  (18,16)  (19,12)  (20,11)  (21,13)  (22,42)  (23,26)  (24,36) 
Branch_type_6  (5,4)  (6,13)  (7,25)  (8,32)  (9,36)  (10,66)  (11,54)  (12,78)  (13,95)  (14,109)  (15,87)  (16,96)  (17,72)  (18,53)  (19,107)  (20,53)  (21,95)  (22,143)  (23,75)  (24,92)  (25,4)  (47,45)  (64,1) 
Unique trigger count: 
Variant_0_evicts_0 : 0
Variant_0_evicts_1 : 0
Variant_0_evicts_2 : 0
Variant_0_evicts_3 : 0
Variant_1_evicts_0 : 0
Variant_1_evicts_1 : 0
Variant_1_evicts_2 : 0
Variant_1_evicts_3 : 0
Variant_2_evicts_0 : 0
Variant_2_evicts_1 : 0
Variant_2_evicts_2 : 0
Variant_2_evicts_3 : 0
Variant_3_evicts_0 : 0
Variant_3_evicts_1 : 0
Variant_3_evicts_2 : 0
Variant_3_evicts_3 : 0
BTB PER SET UNIQUE ADDR: 8 14 9 11 9 8 8 9 10 11 12 11 8 10 12 9 10 12 8 10 10 10 13 13 9 11 10 11 11 10 12 14 10 8 9 13 7 14 8 9 10 9 11 14 11 12 9 10 12 11 13 8 8 11 10 10 12 8 9 16 14 10 11 12 10 9 13 11 9 9 12 12 11 8 11 10 9 13 6 16 8 9 9 15 11 14 13 9 7 13 9 8 12 11 9 15 8 6 11 12 17 11 9 11 9 8 9 10 9 5 8 12 13 12 13 7 10 7 11 16 13 9 9 10 9 11 5 10 14 11 8 10 11 14 8 8 8 10 10 14 11 11 9 6 11 13 14 12 8 14 9 10 6 8 10 9 12 12 9 11 10 8 9 9 13 10 11 10 10 8 10 9 10 13 9 10 9 10 13 10 8 6 12 11 14 12 5 9 12 11 12 10 13 11 11 10 6 9 10 11 12 12 8 9 11 8 12 10 9 11 11 10 12 12 9 7 13 13 9 13 6 14 6 11 9 9 12 14 8 14 11 7 11 10 9 8 16 12 12 10 10 11 17 14 10 10 8 11 11 13 15 12 12 7 12 16 9 11 9 10 11 8 3 14 8 10 8 9 7 8 10 10 11 9 8 10 10 9 10 7 11 8 12 9 9 7 11 14 12 8 9 10 8 12 5 11 8 9 9 8 6 13 9 16 9 12 9 6 13 13 10 15 6 13 9 10 13 9 11 13 6 13 12 9 14 12 7 12 10 8 14 16 11 10 10 11 10 11 7 13 9 11 7 9 11 12 11 7 13 15 13 10 9 13 10 12 8 11 7 11 9 9 12 15 7 11 10 12 11 9 10 8 10 10 14 12 12 14 11 12 10 8 10 7 7 12 11 14 12 11 8 9 9 14 10 12 9 11 13 12 13 10 12 10 12 11 9 13 10 9 10 10 9 13 10 10 10 10 14 14 10 15 11 16 13 7 14 9 10 7 13 11 11 15 12 15 13 11 11 13 15 9 8 16 17 8 8 11 14 15 12 12 10 8 13 14 14 11 11 16 9 9 11 12 19 5 13 8 9 12 13 13 14 11 12 15 8 17 9 11 15 11 12 13 10 12 13 12 10 12 7 11 10 10 10 7 16 11 7 10 12 11 8 12 12 5 6 15 10 12 10 14 11 9 12 15 9 8 9 8 8 9 11 12 12 14 14 8 7 13 9 12 10 7 11 12 8 9 11 8 10 12 9 14 14 14 11 8 9 7 10 12 10 9 8 10 10 12 14 15 13 11 11 11 11 16 13 8 6 12 5 10 10 15 7 9 11 12 9 7 11 11 7 9 13 11 9 9 15 10 9 12 11 11 10 10 8 13 12 13 10 11 11 10 9 8 16 12 11 9 11 18 10 9 8 11 10 13 9 9 11 10 7 10 13 12 9 14 12 11 6 14 10 14 12 8 11 17 7 15 7 12 9 11 9 11 10 14 13 8 12 13 7 13 12 10 12 11 10 12 7 7 7 13 11 11 9 12 12 12 11 8 9 10 13 9 16 13 8 16 10 12 7 11 12 10 7 15 11 7 9 12 8 8 10 9 13 14 9 8 11 12 10 10 7 15 11 10 10 9 9 13 10 12 8 11 13 8 7 14 11 15 9 12 8 12 9 9 9 11 14 8 12 10 6 11 11 11 18 12 11 9 9 14 11 11 10 11 10 7 9 10 8 9 8 13 13 9 9 9 14 8 9 13 8 16 5 12 10 11 11 11 11 11 10 13 14 11 13 11 9 10 10 7 11 10 10 11 8 10 6 7 12 12 11 12 9 7 11 11 12 13 11 13 12 10 15 9 11 13 11 17 9 9 10 14 14 14 6 14 8 17 9 14 17 11 10 9 7 12 13 13 16 10 14 13 11 9 10 10 18 12 7 11 9 14 10 12 11 13 11 11 10 9 12 11 13 10 9 14 11 9 11 7 13 10 10 10 10 12 11 18 11 10 8 9 15 11 7 12 11 7 8 15 17 10 13 9 8 10 12 7 11 10 9 10 21 13 7 9 12 12 12 11 6 14 8 12 12 11 7 10 9 12 16 10 14 18 10 8 8 7 13 11 11 12 7 10 9 8 14 12 11 9 12 15 9 11 10 16 7 11 11 11 8 8 12 12 12 10 11 11 10 9 9 11 8 11 14 9 8 12 10 11 10 11 11 10 10 13 11 13 10 10 16 7 14 14 12 15 11 11 11 13 10 13 14 10 12 11 16 8 11 8 12 12 6 12 14 11 14 10 8 9 12 11 12 10 11 15 13 12 10 12 17 12 8 9 8 8 10 14 10 12 
BTB PER SET COUNT: 976 22 1486 13 9 10 9 157 1119 12 18 520 8 29 16 11 1941 16 15 29 22 15 783 35 20 14 13 14 15 1137 475 78 11 8 10 421 8 19 9 11 15 14 16 591 472 12 25 11 109 12 21 9 8 52 13 364 26 10 511 23 16 11 123 13 11 9 17 2443 9 13 332 15 14 9 15 14 14 18 6 17 16 11 19 22 17 17 13 19 7 23 13 884 247 577 18 17 8 981 18 15 27 15 13 12 3241 12 11 13 1687 2101 11 33 1707 14 16 13 17 7 423 543 18 11 14 12 9 113 5 1944 22 753 20 11 14 17 13 13 468 12 18 17 13 15 11 6 13 218 1477 18 9 71 16 10 6 8 13 13 120 15 11 14 14 10 9 13 45 1170 11 11 12 1819 14 13 12 15 10 10 11 11 20 496 99 233 18 18 22 18 6 13 174 478 16 12 15 11 12 11 6 11 21 15 18 73 10 11 12 8 15 15 10 268 14 18 18 16 10 981 13 14 2554 15 10 16 6 14 9 20 15 55 9 19 14 8 12 22 719 15953 26 301 26 10 13 14 534 485 16 14 1457 13 13 18 19 19 13 7 16 22 62 17 11 13 527 8 3 503 10 14 10 10 14 9 10 13 390 17 9 11 16 10 13 14 20 9 21 41 9 7 14 15 18 9 10 16 12 1447 5 11 11 14 10 699 6 15 11 28 9 29 9 141 16 22 19 20 6 18 9 22 17 12 15 22 7 3814 19 10 14 1463 512 14 15 9 23 23 24 13 13 11 12 13 7 16 11 183 8 9 18 29 12 9 18 149 494 10 14 15 14 13 11 12 8 13 15 25 13 16 7 2756 15 14 12 9 17 21 13 14 308 292 18 23 13 1474 13 9 23 7 7 14 12 17 16 1074 10 9 12 15 14 13 12 14 25 1291 14 15 19 15 17 13 9 492 11 17 14 11 9 19 13 10 12 15 16 23 11 18 16 19 17 8 1734 12 20 7 19 15 12 21 127 24 37 214 22 14 17 9 50 19 25 10 1053 15 16 17 130 16 15 8 504 88 19 14 11 27 9 11 13 16 32 5 4655 11 10 14 15 15 18 12 17 19 8 24 12 17 20 569 13 15 10 13 510 13 14 25 984 20 12 19 11 7 1139 955 7 13 43 16 10 17 19 5 9 22 14 15 13 34 1468 749 17 19 9 16 9 8 8 10 11 14 17 24 418 349 11 123 11 14 10 9 15 16 9 980 13 9 11 12 36 16 14 16 14 11 15 1868 12 19 12 21 10 12 29 12 20 16 22 22 12 14 241 19 149 11 6 352 5 10 13 20 1467 12 13 16 9 9 13 13 8 835 15 15 9 10 19 14 12 14 15 12 14 15 10 1068 234 17 12 18 14 15 9 13 22 2921 13 11 11 21 103 11 10 27 440 16 12 9 17 11 9 59 16 18 14 18 1015 15 6 26 980 17 14 12 16 24 7 19 9 18 12 14 86 21 358 16 19 8 15 17 7 16 29 494 19 13 12 1009 10 7 7 16 4491 23 12 987 26 24 24 10 35 13 76 14 23 16 8 21 11 16 1465 13 17 10 10 22 344 7 12 12 8 9 2406 11 544 218 13 11 887 19 1396 10 9 257 14 10 12 11 190 263 981 13 9 57 385 10 7 17 13 371 9 165 10 19 9 11 970 2855 165 10457 19 12 13 1959 437 15 21 17 484 10 198 20 470 15 11 11 12 9 1475 15 8 1469 1465 13 15 10 13 9 19 10 9 18 2909 25 5 194 15 191 14 14 13 15 19 14 16 12 33 12 1607 12 266 7 13 12 13 12 12 19 7 466 16 16 1337 19 180 14 13 1335 20 19 548 189 532 14 22 9 13 60 12 7783 13 13 11 1024 18 2478 10 2940 9 1205 13 26 914 33 21 9 8 19 14 147 18 10 57 1492 15 13 16 12 21 1104 8 19 699 20 90 16 11 21 12 797 10 12 48 14 21 12 10 18 16 1009 12 10 21 11 13 15 14 14 40 39 12 10 10 10 19 13 7 18 11 11 105 22 145 12 15 9 9 26 19 7 970 67 10 14 26 22 9 11 15 13 12 11 11 20 9 15 23 13 8 12 14 17 30 11 995 477 11 11 9 977 19 1467 12 16 9 13 10 47 16 14 428 10 14 24 9 12 14 23 9 25 12 11 10 8 104 16 33 12 454 57 19 14 14 15 10 15 15 10 9 18 860 16 10 23 14 13 85 15 66 167 13 12 371 8 25 16 120 20 1018 15 11 19 17 24 23 11 19 18 24 11 22 9 16 14 9 330 34 13 19 342 8 10 15 13 15 14 16 21 884 644 18 18 23 16 10 350 10 12 14 18 10 17 
To predecode: 0
Predecoding something: 0
Predecode request dropped: 0
sizeofblock_0 0
sizeofblock_1 54377
sizeofblock_2 87325
sizeofblock_3 0
sizeofblock_4 0
sizeofblock_5 0
sizeofblock_6 0
sizeofblock_7 0
sizeofblock_8 0
Variant_0 Correct: 1604268 Incorrect: 0 Accuracy: 1
Variant_1 Correct: 5700386 Incorrect: 0 Accuracy: 1
Variant_2 Correct: 0 Incorrect: 0 Accuracy: -nan
Variant_3 Correct: 0 Incorrect: 0 Accuracy: -nan
