
*** ChampSim Multicore Out-of-Order Simulator ***

Warmup Instructions: 50000000
Simulation Instructions: 50000000
Number of CPUs: 1
LLC sets: 2048
LLC ways: 16
Off-chip DRAM Size: 4096 MB Channels: 1 Width: 64-bit Data Rate: 6400 MT/s
CPU 0 runs ./micro_traces/srv74.trace.gz
.gz
ITLB has LRU replacement policy
DTLB has LRU replacement policy
STLB has LRU replacement policy
FDIP Prefetcher at L1I
L1I has LRU replacement policy
L1D has LRU replacement policy
Initialize SRRIP state for L2C
Initialize DRRIP state for LLC
Heartbeat_Variant_0 : 1296 0.316406 per_variant_size: 0 1296 0 0 0 0 0 0 0 
Heartbeat_Variant_1 : 2473 0.60376 per_variant_size: 0 585 1888 0 0 0 0 0 0 
Heartbeat_Variant_2 : 0 0 per_variant_size: 0 0 0 0 0 0 0 0 0 
Heartbeat_Variant_3 : 0 0 per_variant_size: 0 0 0 0 0 0 0 0 0 
Heartbeat_Variant_0_evicts 0 : 5798 1 : 357 2 : 0 3 : 0 
Heartbeat_Variant_1_evicts 0 : 332 1 : 0 2 : 0 3 : 0 
Heartbeat_Variant_2_evicts 0 : 0 1 : 0 2 : 0 3 : 0 
Heartbeat_Variant_3_evicts 0 : 0 1 : 0 2 : 0 3 : 0 
Heartbeat CPU 0 instructions: 10000003 cycles: 2796895 heartbeat IPC: 3.57539 cumulative IPC: 3.57539 (Simulation time: 0 hr 1 min 41 sec) 
Heartbeat_Variant_0 : 1351 0.329834 per_variant_size: 0 1351 0 0 0 0 0 0 0 
Heartbeat_Variant_1 : 2586 0.631348 per_variant_size: 0 523 2063 0 0 0 0 0 0 
Heartbeat_Variant_2 : 0 0 per_variant_size: 0 0 0 0 0 0 0 0 0 
Heartbeat_Variant_3 : 0 0 per_variant_size: 0 0 0 0 0 0 0 0 0 
Heartbeat_Variant_0_evicts 0 : 5895 1 : 348 2 : 0 3 : 0 
Heartbeat_Variant_1_evicts 0 : 338 1 : 0 2 : 0 3 : 0 
Heartbeat_Variant_2_evicts 0 : 0 1 : 0 2 : 0 3 : 0 
Heartbeat_Variant_3_evicts 0 : 0 1 : 0 2 : 0 3 : 0 
Heartbeat CPU 0 instructions: 20000001 cycles: 5594332 heartbeat IPC: 3.5747 cumulative IPC: 3.57505 (Simulation time: 0 hr 3 min 19 sec) 
Heartbeat_Variant_0 : 1369 0.334229 per_variant_size: 0 1369 0 0 0 0 0 0 0 
Heartbeat_Variant_1 : 2672 0.652344 per_variant_size: 0 439 2233 0 0 0 0 0 0 
Heartbeat_Variant_2 : 0 0 per_variant_size: 0 0 0 0 0 0 0 0 0 
Heartbeat_Variant_3 : 0 0 per_variant_size: 0 0 0 0 0 0 0 0 0 
Heartbeat_Variant_0_evicts 0 : 5960 1 : 801 2 : 0 3 : 0 
Heartbeat_Variant_1_evicts 0 : 810 1 : 0 2 : 0 3 : 0 
Heartbeat_Variant_2_evicts 0 : 0 1 : 0 2 : 0 3 : 0 
Heartbeat_Variant_3_evicts 0 : 0 1 : 0 2 : 0 3 : 0 
Heartbeat CPU 0 instructions: 30000002 cycles: 8391381 heartbeat IPC: 3.5752 cumulative IPC: 3.5751 (Simulation time: 0 hr 4 min 56 sec) 
Heartbeat_Variant_0 : 1369 0.334229 per_variant_size: 0 1369 0 0 0 0 0 0 0 
Heartbeat_Variant_1 : 2691 0.656982 per_variant_size: 0 434 2257 0 0 0 0 0 0 
Heartbeat_Variant_2 : 0 0 per_variant_size: 0 0 0 0 0 0 0 0 0 
Heartbeat_Variant_3 : 0 0 per_variant_size: 0 0 0 0 0 0 0 0 0 
Heartbeat_Variant_0_evicts 0 : 5758 1 : 404 2 : 0 3 : 0 
Heartbeat_Variant_1_evicts 0 : 405 1 : 0 2 : 0 3 : 0 
Heartbeat_Variant_2_evicts 0 : 0 1 : 0 2 : 0 3 : 0 
Heartbeat_Variant_3_evicts 0 : 0 1 : 0 2 : 0 3 : 0 
Heartbeat CPU 0 instructions: 40000002 cycles: 11187329 heartbeat IPC: 3.5766 cumulative IPC: 3.57547 (Simulation time: 0 hr 6 min 35 sec) 
Heartbeat_Variant_0 : 1372 0.334961 per_variant_size: 0 1372 0 0 0 0 0 0 0 
Heartbeat_Variant_1 : 2694 0.657715 per_variant_size: 0 421 2273 0 0 0 0 0 0 
Heartbeat_Variant_2 : 0 0 per_variant_size: 0 0 0 0 0 0 0 0 0 
Heartbeat_Variant_3 : 0 0 per_variant_size: 0 0 0 0 0 0 0 0 0 
Heartbeat_Variant_0_evicts 0 : 5707 1 : 251 2 : 0 3 : 0 
Heartbeat_Variant_1_evicts 0 : 248 1 : 0 2 : 0 3 : 0 
Heartbeat_Variant_2_evicts 0 : 0 1 : 0 2 : 0 3 : 0 
Heartbeat_Variant_3_evicts 0 : 0 1 : 0 2 : 0 3 : 0 
Heartbeat CPU 0 instructions: 50000002 cycles: 13982815 heartbeat IPC: 3.5772 cumulative IPC: 3.57582 (Simulation time: 0 hr 8 min 13 sec) 

Warmup complete CPU 0 instructions: 50000002 cycles: 13982815 (Simulation time: 0 hr 8 min 13 sec) 

Cycle: 20000000 FTQ IN: 58371485 FTQ occupancy: 19.9652 DECODE IN: 58371353 DECODE occupancy: 52.2531 ROB IN: 58371293 ROB occupancy: 315.487 ROB OUT: 58370941
Heartbeat_Variant_0 : 1372 0.334961 per_variant_size: 0 1372 0 0 0 0 0 0 0 
Heartbeat_Variant_1 : 2695 0.657959 per_variant_size: 0 425 2270 0 0 0 0 0 0 
Heartbeat_Variant_2 : 0 0 per_variant_size: 0 0 0 0 0 0 0 0 0 
Heartbeat_Variant_3 : 0 0 per_variant_size: 0 0 0 0 0 0 0 0 0 
Heartbeat_Variant_0_evicts 0 : 5619 1 : 26 2 : 0 3 : 0 
Heartbeat_Variant_1_evicts 0 : 27 1 : 0 2 : 0 3 : 0 
Heartbeat_Variant_2_evicts 0 : 0 1 : 0 2 : 0 3 : 0 
Heartbeat_Variant_3_evicts 0 : 0 1 : 0 2 : 0 3 : 0 
Heartbeat CPU 0 instructions: 60000001 cycles: 21164734 heartbeat IPC: 1.39239 cumulative IPC: 1.39239 (Simulation time: 0 hr 10 min 1 sec) 
Heartbeat_Variant_0 : 1374 0.335449 per_variant_size: 0 1374 0 0 0 0 0 0 0 
Heartbeat_Variant_1 : 2697 0.658447 per_variant_size: 0 437 2260 0 0 0 0 0 0 
Heartbeat_Variant_2 : 0 0 per_variant_size: 0 0 0 0 0 0 0 0 0 
Heartbeat_Variant_3 : 0 0 per_variant_size: 0 0 0 0 0 0 0 0 0 
Heartbeat_Variant_0_evicts 0 : 5794 1 : 390 2 : 0 3 : 0 
Heartbeat_Variant_1_evicts 0 : 388 1 : 0 2 : 0 3 : 0 
Heartbeat_Variant_2_evicts 0 : 0 1 : 0 2 : 0 3 : 0 
Heartbeat_Variant_3_evicts 0 : 0 1 : 0 2 : 0 3 : 0 
Heartbeat CPU 0 instructions: 70000001 cycles: 28474165 heartbeat IPC: 1.3681 cumulative IPC: 1.38013 (Simulation time: 0 hr 11 min 49 sec) 
Cycle: 30000000 FTQ IN: 13754489 FTQ occupancy: 12.8964 DECODE IN: 13754533 DECODE occupancy: 33.6993 ROB IN: 13754533 ROB occupancy: 235.336 ROB OUT: 13754784
Heartbeat_Variant_0 : 1374 0.335449 per_variant_size: 0 1374 0 0 0 0 0 0 0 
Heartbeat_Variant_1 : 2697 0.658447 per_variant_size: 0 436 2261 0 0 0 0 0 0 
Heartbeat_Variant_2 : 0 0 per_variant_size: 0 0 0 0 0 0 0 0 0 
Heartbeat_Variant_3 : 0 0 per_variant_size: 0 0 0 0 0 0 0 0 0 
Heartbeat_Variant_0_evicts 0 : 5614 1 : 15 2 : 0 3 : 0 
Heartbeat_Variant_1_evicts 0 : 15 1 : 0 2 : 0 3 : 0 
Heartbeat_Variant_2_evicts 0 : 0 1 : 0 2 : 0 3 : 0 
Heartbeat_Variant_3_evicts 0 : 0 1 : 0 2 : 0 3 : 0 
Heartbeat CPU 0 instructions: 80000000 cycles: 35654843 heartbeat IPC: 1.39263 cumulative IPC: 1.38427 (Simulation time: 0 hr 13 min 38 sec) 
Cycle: 40000000 FTQ IN: 13804723 FTQ occupancy: 12.9927 DECODE IN: 13804795 DECODE occupancy: 34.1536 ROB IN: 13804855 ROB occupancy: 238.48 ROB OUT: 13804947
Heartbeat_Variant_0 : 1382 0.337402 per_variant_size: 0 1382 0 0 0 0 0 0 0 
Heartbeat_Variant_1 : 2689 0.656494 per_variant_size: 0 446 2243 0 0 0 0 0 0 
Heartbeat_Variant_2 : 0 0 per_variant_size: 0 0 0 0 0 0 0 0 0 
Heartbeat_Variant_3 : 0 0 per_variant_size: 0 0 0 0 0 0 0 0 0 
Heartbeat_Variant_0_evicts 0 : 5761 1 : 246 2 : 0 3 : 0 
Heartbeat_Variant_1_evicts 0 : 238 1 : 0 2 : 0 3 : 0 
Heartbeat_Variant_2_evicts 0 : 0 1 : 0 2 : 0 3 : 0 
Heartbeat_Variant_3_evicts 0 : 0 1 : 0 2 : 0 3 : 0 
Heartbeat CPU 0 instructions: 90000003 cycles: 42929700 heartbeat IPC: 1.3746 cumulative IPC: 1.38184 (Simulation time: 0 hr 15 min 27 sec) 
Cycle: 50000000 FTQ IN: 13938949 FTQ occupancy: 12.891 DECODE IN: 13938860 DECODE occupancy: 34.049 ROB IN: 13938800 ROB occupancy: 238.226 ROB OUT: 13938461
Heartbeat_Variant_0 : 1383 0.337646 per_variant_size: 0 1383 0 0 0 0 0 0 0 
Heartbeat_Variant_1 : 2688 0.65625 per_variant_size: 0 447 2241 0 0 0 0 0 0 
Heartbeat_Variant_2 : 0 0 per_variant_size: 0 0 0 0 0 0 0 0 0 
Heartbeat_Variant_3 : 0 0 per_variant_size: 0 0 0 0 0 0 0 0 0 
Heartbeat_Variant_0_evicts 0 : 5543 1 : 15 2 : 0 3 : 0 
Heartbeat_Variant_1_evicts 0 : 14 1 : 0 2 : 0 3 : 0 
Heartbeat_Variant_2_evicts 0 : 0 1 : 0 2 : 0 3 : 0 
Heartbeat_Variant_3_evicts 0 : 0 1 : 0 2 : 0 3 : 0 
Heartbeat CPU 0 instructions: 100000002 cycles: 50095089 heartbeat IPC: 1.3956 cumulative IPC: 1.38457 (Simulation time: 0 hr 17 min 41 sec) 
Finished CPU 0 instructions: 50000000 cycles: 36112274 cumulative IPC: 1.38457 (Simulation time: 0 hr 17 min 41 sec) 

ChampSim completed all CPUs

Region of Interest Statistics

CPU 0 cumulative IPC: 1.38457 instructions: 50000000 cycles: 36112274
 Fetch stage stalled: 53.8145  Sim cycles: 36112274 fetch stall cycle: 19433623
 Empty decode stage: 34.6581  Sim cycles: 36112274 fetch stall cycle: 12515825
ITLB TOTAL     ACCESS:    5855680  HIT:    5362917  MISS:     492763  HIT %:    91.5849  MISS %:    8.41513   MPKI: 9.85526
ITLB LOAD TRANSLATION INSTRUCTION	ACCESS:    5727906  HIT:    5235143  MISS:     492763  HIT %:    91.3972  MISS %:    8.60285  MPKI: 9.85526
ITLB TRANSLATION FROM L1D PREFETCHER INSTRUCTION	ACCESS:     127774  HIT:     127774  MISS:          0  HIT %:        100  MISS %:          0  MPKI: 0

ITLB AVERAGE MISS LATENCY: 9.04791 cycles
ITLB RQ	ACCESS:    7988135	FORWARD:          0	MERGED:    1687974	TO_CACHE:    6300161

DTLB TOTAL     ACCESS:    8964427  HIT:    8493475  MISS:     470952  HIT %:    94.7464  MISS %:    5.25357   MPKI: 9.41904
DTLB LOAD TRANSLATION DATA	ACCESS:    8964427  HIT:    8493475  MISS:     470952  HIT %:    94.7464  MISS %:    5.25357  MPKI: 9.41904

DTLB AVERAGE MISS LATENCY: 9.29656 cycles
DTLB RQ	ACCESS:   13332320	FORWARD:          0	MERGED:    4331981	TO_CACHE:    9000339

STLB TOTAL     ACCESS:    1212419  HIT:    1210486  MISS:       1933  HIT %:    99.8406  MISS %:   0.159433   MPKI: 0.03866
STLB LOAD TRANSLATION INSTRUCTION	ACCESS:     492763  HIT:     492525  MISS:        238  HIT %:    99.9517  MISS %:  0.0482991  MPKI: 0.00476
STLB LOAD TRANSLATION DATA	ACCESS:     470952  HIT:     469282  MISS:       1670  HIT %:    99.6454  MISS %:   0.354601  MPKI: 0.0334
STLB TRANSLATION FROM L1D PREFETCHER DATA	ACCESS:     248704  HIT:     248679  MISS:         25  HIT %:    99.9899  MISS %:  0.0100521  MPKI: 0.0005

STLB AVERAGE MISS LATENCY: 68.478 cycles
STLB RQ	ACCESS:    1333954	FORWARD:          0	MERGED:     121490	TO_CACHE:    1212464

STLB Hit, L1D data hit: 0
STLB Hit, L2C data hit: 0
STLB Hit, LLC data hit: 0
STLB Hit, LLC data miss: 0
STLB STLB hints to L2: 0
L1D TOTAL     ACCESS:   13092040  HIT:   11979650  MISS:    1112390  HIT %:    91.5033  MISS %:    8.49669   MPKI: 22.2478
L1D LOAD DATA	ACCESS:    6556091  HIT:    5821906  MISS:     734185  HIT %:    88.8015  MISS %:    11.1985  MPKI: 14.6837
L1D RFO DATA	ACCESS:    6205743  HIT:    5921360  MISS:     284383  HIT %:    95.4174  MISS %:    4.58258  MPKI: 5.68766
L1D PREFETCH DATA	ACCESS:     330206  HIT:     236384  MISS:      93822  HIT %:    71.5868  MISS %:    28.4132  MPKI: 1.87644

L1D PREFETCH  REQUESTED:     740830  ISSUED:     740830  USEFUL:      32800  USELESS:      68298
L1D USEFUL LOAD PREFETCHES:      32800 PREFETCH ISSUED TO LOWER LEVEL:     101138  ACCURACY: 32.4309
 TIMELY PREFETCHES:      32800 LATE PREFETCHES: 7283 DROPPED PREFETCHES: 10
L1D AVERAGE MISS LATENCY: 210431 cycles
L1D RQ	ACCESS:   10686861	FORWARD:          0	MERGED:    3935690	TO_CACHE:    6589247
L1D WQ	ACCESS:    6941120	FORWARD:     162276	MERGED:     198047	TO_CACHE:    6743073
L1D PQ	ACCESS:     370591	FORWARD:          0	MERGED:          0	TO_CACHE:     370239

L1D UNIQUE REGIONS ACCESSED: 0
L1D REGIONS CONFLICTS: 0
L1D Cross Page Prefetch Requests: 7014
L1D Same Page Prefetch Requests: 749222
L1D ROI Sum of L1D PQ occupancy: 4696509
L1D PREFETCHES PUSHED FROM L2C: 0
L1I TOTAL     ACCESS:    7173053  HIT:    4416351  MISS:    2756702  HIT %:    61.5686  MISS %:    38.4314   MPKI: 55.134
L1I LOAD INSTRUCTION	ACCESS:    6499618  HIT:    3742916  MISS:    2756702  HIT %:    57.5867  MISS %:    42.4133  MPKI: 55.134
L1I PREFETCH INSTRUCTION	ACCESS:     673435  HIT:     673435  MISS:          0  HIT %:        100  MISS %:          0  MPKI: 0

L1I PREFETCH  REQUESTED:    1606375  ISSUED:    1606375  USEFUL:          0  USELESS:          0
L1I USEFUL LOAD PREFETCHES:          0 PREFETCH ISSUED TO LOWER LEVEL:          0  ACCURACY: -nan
 TIMELY PREFETCHES:          0 LATE PREFETCHES: 0 DROPPED PREFETCHES: 0
L1I AVERAGE MISS LATENCY: 16.8838 cycles
L1I RQ	ACCESS:    9507529	FORWARD:          0	MERGED:    2694996	TO_CACHE:    6812533
L1I PQ	ACCESS:    1606375	FORWARD:          0	MERGED:     430773	TO_CACHE:    1175602

L1BTB TOTAL     ACCESS:    5669407  HIT:    2046869  MISS:    3622538  HIT %:    36.1038  MISS %:    63.8962   MPKI: 72.4508
L1BTB BRANCH_DIRECT_JUMP	ACCESS:     548178 HIT:     144938 MISS:     403240 AVERAGE STALL: 48.9224 AVERAGE FETCH STALL: 14.0165 AVERAGE FETCH QUEUE STALL: 15.2127 AVERAGE DECODE STALL: 18.7674 AVERAGE EXECUTE STALL: 2.49787e+15
L1BTB BRANCH_INDIRECT	ACCESS:     182906 HIT:      66118 MISS:     116788 AVERAGE STALL: 104.963 AVERAGE FETCH STALL: 10.9793 AVERAGE FETCH QUEUE STALL: 15.6926 AVERAGE DECODE STALL: 12.4324 AVERAGE EXECUTE STALL: 64.8967
L1BTB BRANCH_CONDITIONAL	ACCESS:    2706777 HIT:    1416533 MISS:    1290244 AVERAGE STALL: 65.0513 AVERAGE FETCH STALL: 18.5489 AVERAGE FETCH QUEUE STALL: 28.1253 AVERAGE DECODE STALL: 17.6636 AVERAGE EXECUTE STALL: 2.74914e+15
L1BTB BRANCH_DIRECT_CALL	ACCESS:     943781 HIT:     106075 MISS:     837706 AVERAGE STALL: 61.1742 AVERAGE FETCH STALL: 26.9801 AVERAGE FETCH QUEUE STALL: 20.6306 AVERAGE DECODE STALL: 12.8153 AVERAGE EXECUTE STALL: 1.07813e+16
L1BTB BRANCH_INDIRECT_CALL	ACCESS:     171992 HIT:      21754 MISS:     150238 AVERAGE STALL: 131.587 AVERAGE FETCH STALL: 12.9179 AVERAGE FETCH QUEUE STALL: 12.6238 AVERAGE DECODE STALL: 10.0069 AVERAGE EXECUTE STALL: 95.5446
L1BTB BRANCH_RETURN	ACCESS:    1115773 HIT:     291451 MISS:     824322 AVERAGE STALL: 45.6219 AVERAGE FETCH STALL: 16.3625 AVERAGE FETCH QUEUE STALL: 4.14171 AVERAGE DECODE STALL: 5.57157 AVERAGE EXECUTE STALL: 4.36176e+14
L1BTB BRANCH_OTHER ACCESS:          0 HIT:          0 MISS:          0 AVERAGE STALL: -nan AVERAGE FETCH STALL: -nan AVERAGE FETCH QUEUE STALL: -nan AVERAGE DECODE STALL: -nan AVERAGE EXECUTE STALL: -nan
L1BTB TOTAL ROB OCCUPANCY AT BTB MISS: 2.6351

L2BTB TOTAL     ACCESS:    3597101  HIT:    3531346  MISS:      65755  HIT %:     98.172  MISS %:      1.828   MPKI: 1.3151
L2BTB BRANCH_DIRECT_JUMP	ACCESS:     399050 HIT:     395852 MISS:       3198 AVERAGE STALL: 48.9224 AVERAGE FETCH STALL: 14.0165 AVERAGE FETCH QUEUE STALL: 15.2127 AVERAGE DECODE STALL: 18.7674 AVERAGE EXECUTE STALL: 2.49787e+15
L2BTB BRANCH_INDIRECT	ACCESS:     106518 HIT:     103815 MISS:       2703 AVERAGE STALL: 104.963 AVERAGE FETCH STALL: 10.9793 AVERAGE FETCH QUEUE STALL: 15.6926 AVERAGE DECODE STALL: 12.4324 AVERAGE EXECUTE STALL: 64.8967
L2BTB BRANCH_CONDITIONAL	ACCESS:    1290244 HIT:    1283507 MISS:       6737 AVERAGE STALL: 65.0513 AVERAGE FETCH STALL: 18.5489 AVERAGE FETCH QUEUE STALL: 28.1253 AVERAGE DECODE STALL: 17.6636 AVERAGE EXECUTE STALL: 2.74914e+15
L2BTB BRANCH_DIRECT_CALL	ACCESS:     837706 HIT:     835986 MISS:       1720 AVERAGE STALL: 61.1742 AVERAGE FETCH STALL: 26.9801 AVERAGE FETCH QUEUE STALL: 20.6306 AVERAGE DECODE STALL: 12.8153 AVERAGE EXECUTE STALL: 1.07813e+16
L2BTB BRANCH_INDIRECT_CALL	ACCESS:     140663 HIT:     130169 MISS:      10494 AVERAGE STALL: 131.587 AVERAGE FETCH STALL: 12.9179 AVERAGE FETCH QUEUE STALL: 12.6238 AVERAGE DECODE STALL: 10.0069 AVERAGE EXECUTE STALL: 95.5446
L2BTB BRANCH_RETURN	ACCESS:     822920 HIT:     782017 MISS:      40903 AVERAGE STALL: 45.6219 AVERAGE FETCH STALL: 16.3625 AVERAGE FETCH QUEUE STALL: 4.14171 AVERAGE DECODE STALL: 5.57157 AVERAGE EXECUTE STALL: 4.36176e+14
L2BTB BRANCH_OTHER ACCESS:          0 HIT:          0 MISS:          0 AVERAGE STALL: -nan AVERAGE FETCH STALL: -nan AVERAGE FETCH QUEUE STALL: -nan AVERAGE DECODE STALL: -nan AVERAGE EXECUTE STALL: -nan
L2BTB TOTAL ROB OCCUPANCY AT BTB MISS: 145.171

L2C TOTAL     ACCESS:    4470609  HIT:    4048919  MISS:     421690  HIT %:    90.5675  MISS %:     9.4325   MPKI: 8.4338
L2C LOAD INSTRUCTION	ACCESS:    2756703  HIT:    2525300  MISS:     231403  HIT %:    91.6058  MISS %:    8.39419  MPKI: 4.62806
L2C LOAD TRANSLATION INSTRUCTION	ACCESS:        268  HIT:         58  MISS:        210  HIT %:    21.6418  MISS %:    78.3582  MPKI: 0.0042
L2C LOAD DATA	ACCESS:     726881  HIT:     657767  MISS:      69114  HIT %:    90.4917  MISS %:     9.5083  MPKI: 1.38228
L2C RFO DATA	ACCESS:     284328  HIT:     238645  MISS:      45683  HIT %:     83.933  MISS %:     16.067  MPKI: 0.91366
L2C PREFETCH DATA	ACCESS:     181506  HIT:     117511  MISS:      63995  HIT %:    64.7422  MISS %:    35.2578  MPKI: 1.2799
L2C WRITEBACK DATA	ACCESS:     519157  HIT:     509080  MISS:      10077  HIT %:     98.059  MISS %:    1.94103  MPKI: 0.20154
L2C LOAD TRANSLATION DATA	ACCESS:       1717  HIT:        525  MISS:       1192  HIT %:    30.5766  MISS %:    69.4234  MPKI: 0.02384
L2C TRANSLATION FROM L1D PREFETCHER DATA	ACCESS:         49  HIT:         33  MISS:         16  HIT %:    67.3469  MISS %:    32.6531  MPKI: 0.00032

L2C PREFETCH  REQUESTED:      88281  ISSUED:      88281  USEFUL:       7856  USELESS:      56795
L2C USEFUL LOAD PREFETCHES:       7856 PREFETCH ISSUED TO LOWER LEVEL:      64634  ACCURACY: 12.1546
 TIMELY PREFETCHES:       7856 LATE PREFETCHES: 639 DROPPED PREFETCHES: 0
L2C AVERAGE MISS LATENCY: 39.2132 cycles
L2C RQ	ACCESS:    3769991	FORWARD:          0	MERGED:          0	TO_CACHE:    3769948
L2C WQ	ACCESS:     519157	FORWARD:         43	MERGED:          0	TO_CACHE:     519157
L2C PQ	ACCESS:     189419	FORWARD:          0	MERGED:       3767	TO_CACHE:     185652

L2C Dense regions hint from L2: 0
PSCL5 TOTAL     ACCESS:       3894  HIT:       1947  MISS:       1947  HIT %:         50  MISS %:         50   MPKI: 0.03894
PSCL5 LOAD TRANSLATION INSTRUCTION	ACCESS:       3796  HIT:       1898  MISS:       1898  HIT %:         50  MISS %:         50  MPKI: 0.03796
PSCL5 TRANSLATION FROM L1D PREFETCHER INSTRUCTION	ACCESS:         98  HIT:         49  MISS:         49  HIT %:         50  MISS %:         50  MPKI: 0.00098


PSCL4 TOTAL     ACCESS:       3845  HIT:       1920  MISS:       1925  HIT %:     49.935  MISS %:     50.065   MPKI: 0.0385
PSCL4 LOAD TRANSLATION INSTRUCTION	ACCESS:       3489  HIT:       1878  MISS:       1611  HIT %:    53.8263  MISS %:    46.1737  MPKI: 0.03222
PSCL4 TRANSLATION FROM L1D PREFETCHER INSTRUCTION	ACCESS:         84  HIT:         42  MISS:         42  HIT %:         50  MISS %:         50  MPKI: 0.00084
PSCL4 LOAD TRANSLATION DATA	ACCESS:        272  HIT:          0  MISS:        272  HIT %:          0  MISS %:        100  MPKI: 0.00544


PSCL3 TOTAL     ACCESS:       3851  HIT:       1923  MISS:       1928  HIT %:    49.9351  MISS %:    50.0649   MPKI: 0.03856
PSCL3 LOAD TRANSLATION INSTRUCTION	ACCESS:       3492  HIT:       1881  MISS:       1611  HIT %:     53.866  MISS %:     46.134  MPKI: 0.03222
PSCL3 TRANSLATION FROM L1D PREFETCHER INSTRUCTION	ACCESS:         84  HIT:         42  MISS:         42  HIT %:         50  MISS %:         50  MPKI: 0.00084
PSCL3 LOAD TRANSLATION DATA	ACCESS:        275  HIT:          0  MISS:        275  HIT %:          0  MISS %:        100  MPKI: 0.0055


PSCL2 TOTAL     ACCESS:       3816  HIT:       1869  MISS:       1947  HIT %:     48.978  MISS %:     51.022   MPKI: 0.03894
PSCL2 LOAD TRANSLATION INSTRUCTION	ACCESS:       2058  HIT:       1820  MISS:        238  HIT %:    88.4354  MISS %:    11.5646  MPKI: 0.00476
PSCL2 TRANSLATION FROM L1D PREFETCHER INSTRUCTION	ACCESS:         49  HIT:         49  MISS:          0  HIT %:        100  MISS %:          0  MPKI: 0
PSCL2 LOAD TRANSLATION DATA	ACCESS:       1660  HIT:          0  MISS:       1660  HIT %:          0  MISS %:        100  MPKI: 0.0332
PSCL2 TRANSLATION FROM L1D PREFETCHER DATA	ACCESS:         49  HIT:          0  MISS:         49  HIT %:          0  MISS %:        100  MPKI: 0.00098


LLC TOTAL     ACCESS:     475911  HIT:     449023  MISS:      26888  HIT %:    94.3502  MISS %:     5.6498   MPKI: 0.53776
LLC LOAD INSTRUCTION	ACCESS:     231403  HIT:     230773  MISS:        630  HIT %:    99.7277  MISS %:   0.272252  MPKI: 0.0126
LLC LOAD TRANSLATION INSTRUCTION	ACCESS:        210  HIT:        181  MISS:         29  HIT %:    86.1905  MISS %:    13.8095  MPKI: 0.00058
LLC LOAD DATA	ACCESS:      68483  HIT:      65248  MISS:       3235  HIT %:    95.2762  MISS %:     4.7238  MPKI: 0.0647
LLC RFO DATA	ACCESS:      45669  HIT:      32653  MISS:      13016  HIT %:    71.4993  MISS %:    28.5007  MPKI: 0.26032
LLC PREFETCH DATA	ACCESS:      64634  HIT:      55022  MISS:       9612  HIT %:    85.1286  MISS %:    14.8714  MPKI: 0.19224
LLC WRITEBACK DATA	ACCESS:      64304  HIT:      63992  MISS:        312  HIT %:    99.5148  MISS %:   0.485195  MPKI: 0.00624
LLC LOAD TRANSLATION DATA	ACCESS:       1192  HIT:       1138  MISS:         54  HIT %:    95.4698  MISS %:     4.5302  MPKI: 0.00108
LLC TRANSLATION FROM L1D PREFETCHER DATA	ACCESS:         16  HIT:         16  MISS:          0  HIT %:        100  MISS %:          0  MPKI: 0

LLC AVERAGE MISS LATENCY: 154.639 cycles
LLC RQ	ACCESS:     346979	FORWARD:          0	MERGED:          0	TO_CACHE:     346973
LLC WQ	ACCESS:      64304	FORWARD:          6	MERGED:          0	TO_CACHE:      64304
LLC PQ	ACCESS:      64634	FORWARD:          0	MERGED:          0	TO_CACHE:      64634

LLC Dense regions hint to LLC: 0

RAW hits: 1943219
Loads Generated: 12630080
Loads sent to L1D: 10686861
Stores Generated: 6941120
Stores sent to L1D: 6941120
Major fault: 0 Minor fault: 2614
Allocated PAGES: 2614

stream: 
stream:times selected: 1187791
stream:pref_filled: 120831
stream:pref_useful: 24000
stream:pref_late: 6481
stream:misses: 8111
stream:misses_by_poll: 0

CS: 
CS:times selected: 177722
CS:pref_filled: 59440
CS:pref_useful: 36200
CS:pref_late: 6250
CS:misses: 15760
CS:misses_by_poll: 5

CPLX: 
CPLX:times selected: 1008972
CPLX:pref_filled: 19705
CPLX:pref_useful: 4671
CPLX:pref_late: 2949
CPLX:misses: 93155
CPLX:misses_by_poll: 0

NL_L1: 
NL:times selected: 21340
NL:pref_filled: 737
NL:pref_useful: 342
NL:pref_late: 298
NL:misses: 1787
NL:misses_by_poll: 0

total selections: 2395825
total_filled: 93822
total_useful: 32800
total_late: 17371
total_polluted: 5
total_misses_after_warmup: 767342
conflicts: 5517917

test: 117394

DRAM Statistics
 CHANNEL 0
 RQ ROW_BUFFER_HIT:       9981  ROW_BUFFER_MISS:      16570
 DBUS_CONGESTED:          8
 WQ ROW_BUFFER_HIT:       1231  ROW_BUFFER_MISS:      11493  FULL:          0

 AVG_CONGESTED_CYCLE: 5

CPU 0 Branch Prediction Accuracy: 99.8291% MPKI: 0.31266 Average ROB Occupancy at Mispredict: 191.705
Branch types
NOT_BRANCH: 40854943 81.7099%
BRANCH_DIRECT_JUMP: 548178 1.09636%
BRANCH_INDIRECT: 182906 0.365812%
BRANCH_CONDITIONAL: 6182177 12.3644%
BRANCH_DIRECT_CALL: 943781 1.88756%
BRANCH_INDIRECT_CALL: 171992 0.343984%
BRANCH_RETURN: 1115773 2.23155%
BRANCH_OTHER: 0 0%

DRAM PAGES: 1048576
Allocated PAGES: 2614
Average_ROB_Occupancy: 238.725
Average_Decode_Occupancy: 33.9754
Average_FTQ_Occupancy: 12.9183
Indirect max targets: 14 Average targets: 1.17891
Branch_type:  BRANCH_DIRECT_JUMP:  Count Percentage: 1.61907 6.99713 4.54694 8.4276 3.10441 6.29033 1.92002 67.0945 
Branch_type:  BRANCH_INDIRECT:  Count Percentage: 6.16502 3.48061 2.56056 0 1.33619 9.66613 4.14392 72.6476 
Branch_type:  BRANCH_CONDITIONAL:  Count Percentage: 20.8785 6.56368 1.82751 5.01127 2.32594 4.14935 3.00875 56.2349 
Branch_type:  BRANCH_DIRECT_CALL:  Count Percentage: 0.259487 1.96293 1.28201 3.77965 3.71254 2.34683 4.30557 82.351 
Branch_type:  BRANCH_INDIRECT_CALL:  Count Percentage: 6.53959 0 2.98495 8.68239 1.25261 2.02694 6.40336 72.1102 
Branch_type:  BRANCH_RETURN:  Count Percentage: 4.29521 4.76347 1.49206 5.82542 3.96246 4.8508 4.9747 69.8359 
Branch_type:  BRANCH_DIRECT_JUMP:  Total Count: 17737 76654 49812 92325 34009 68911 21034 735025 
Branch_type:  BRANCH_INDIRECT:  Total Count: 22548 12730 9365 0 4887 35353 15156 265702 
Branch_type:  BRANCH_CONDITIONAL:  Total Count: 2579877 811048 225818 619223 287407 512719 371779 6948726 
Branch_type:  BRANCH_DIRECT_CALL:  Total Count: 4895 37029 24184 71300 70034 44271 81221 1553482 
Branch_type:  BRANCH_INDIRECT_CALL:  Total Count: 22465 0 10254 29826 4303 6963 21997 247715 
Branch_type:  BRANCH_RETURN:  Total Count: 95818 106264 33285 129954 88395 108212 110976 1557905 
Number of unique branch instructions: 10791
Upper 32 bits: 
aaaa
ffff
ffff0000
Unique upper 32 bits: 3
Unique upper 36 bits: 3
Unique upper 40 bits: 5
Unique upper 44 bits: 32
Unique upper 48 bits: 158
Variant_0 : 1383 0.337646
Variant_1 : 2688 0.65625
Variant_2 : 0 0
Variant_3 : 0 0
Offset_3 4474
Offset_4 260
Offset_5 482
Offset_6 542
Offset_7 640
Offset_8 576
Offset_9 525
Offset_10 429
Offset_11 363
Offset_12 312
Offset_13 236
Offset_14 244
Offset_15 194
Offset_16 233
Offset_17 168
Offset_18 149
Offset_19 257
Offset_20 143
Offset_21 235
Offset_22 416
Offset_23 241
Offset_24 344
Offset_25 117
Offset_47 92
decode_dispatch_called: 25467585 70.5233
Dispatch_width: 0 13642315 53.5674 37.7775
Dispatch_width: 1 958775 3.76469 2.65498
Dispatch_width: 2 831915 3.26656 2.30369
Dispatch_width: 3 494088 1.94007 1.3682
Dispatch_width: 4 5595470 21.9709 15.4946
Dispatch_width: 5 157029 0.616584 0.434836
Dispatch_width: 6 3787993 14.8738 10.4895
Empty_decode_cycles: 10644689 29.4767
ROB_full_cycles: 8839913 24.479
Starvation_cycles_per_kilo_instr: 234.844
Starvation_cycles_per_kilo_instr_3: 177.319
Starvation_cycles_per_kilo_instr_0: 154.471
Branch_type_1  (3,1)  (4,9)  (5,39)  (6,74)  (7,123)  (8,151)  (9,138)  (10,111)  (11,80)  (12,48)  (13,11)  (14,2)  (15,3)  (16,4)  (18,1)  (19,5)  (20,2)  (21,1)  (22,3)  (23,2)  (24,10)  (25,12) 
Branch_type_2  (3,1)  (4,1)  (5,1)  (8,4)  (9,4)  (10,1)  (12,1)  (13,1)  (14,1)  (16,3)  (17,2)  (20,2)  (21,2)  (23,5)  (24,1)  (47,41) 
Branch_type_3  (3,4472)  (4,250)  (5,438)  (6,452)  (7,487)  (8,356)  (9,288)  (10,174)  (11,147)  (12,55)  (13,10) 
Branch_type_4  (6,3)  (7,8)  (8,25)  (9,56)  (10,68)  (11,70)  (12,116)  (13,100)  (14,110)  (15,92)  (16,102)  (17,79)  (18,65)  (19,125)  (20,73)  (21,124)  (22,220)  (23,136)  (24,199)  (25,101) 
Branch_type_5  (8,3)  (9,1)  (10,4)  (11,5)  (12,3)  (13,14)  (14,16)  (15,11)  (16,22)  (17,11)  (18,23)  (19,14)  (20,11)  (21,13)  (22,43)  (23,26)  (24,38) 
Branch_type_6  (5,4)  (6,13)  (7,22)  (8,37)  (9,38)  (10,71)  (11,61)  (12,89)  (13,100)  (14,115)  (15,88)  (16,102)  (17,76)  (18,60)  (19,113)  (20,55)  (21,95)  (22,150)  (23,72)  (24,96)  (25,4)  (47,51) 
Unique trigger count: 
Variant_0_evicts_0 : 0
Variant_0_evicts_1 : 0
Variant_0_evicts_2 : 0
Variant_0_evicts_3 : 0
Variant_1_evicts_0 : 0
Variant_1_evicts_1 : 0
Variant_1_evicts_2 : 0
Variant_1_evicts_3 : 0
Variant_2_evicts_0 : 0
Variant_2_evicts_1 : 0
Variant_2_evicts_2 : 0
Variant_2_evicts_3 : 0
Variant_3_evicts_0 : 0
Variant_3_evicts_1 : 0
Variant_3_evicts_2 : 0
Variant_3_evicts_3 : 0
BTB PER SET UNIQUE ADDR: 9 15 13 13 12 17 12 13 9 12 14 13 11 12 15 11 10 12 17 13 15 12 14 17 12 13 11 17 12 12 13 13 16 7 9 9 13 15 9 10 13 12 15 16 9 12 15 13 15 11 18 14 12 13 16 6 14 12 14 15 16 14 9 12 13 18 14 9 12 9 15 14 14 9 12 9 9 20 12 13 15 10 11 18 12 11 16 12 12 21 11 8 14 11 11 16 10 9 15 16 21 17 15 11 12 10 10 13 9 10 12 20 12 11 13 8 14 14 13 12 17 11 10 10 12 13 10 11 18 11 8 16 11 12 10 13 12 13 13 15 10 11 12 11 14 10 11 16 9 13 12 13 8 13 13 16 17 12 13 19 13 11 16 11 8 16 12 8 13 11 10 11 15 11 12 10 12 13 15 12 11 11 10 14 17 17 8 12 14 11 10 9 12 16 10 11 8 12 9 14 11 11 13 15 12 12 9 17 10 16 8 15 16 12 10 13 11 14 12 20 9 14 7 11 9 14 15 15 12 15 11 8 12 12 13 10 16 15 9 8 13 7 16 14 14 14 9 12 14 13 12 11 12 10 10 14 8 11 14 11 11 8 6 14 12 9 10 14 13 15 13 13 14 10 8 9 13 15 14 9 12 16 9 10 12 8 10 20 19 14 14 10 9 14 10 16 13 15 18 12 12 13 9 20 15 18 13 13 12 9 8 21 15 18 14 9 14 14 16 19 12 11 12 10 12 13 9 11 15 10 13 17 11 11 14 17 10 13 9 18 8 16 13 16 15 15 12 17 14 14 13 12 11 19 9 13 12 10 11 11 14 13 9 18 11 15 9 15 13 11 16 10 12 12 13 13 15 17 14 11 16 10 13 13 9 16 14 15 7 14 14 15 15 19 8 8 11 12 14 14 11 11 11 14 17 14 16 21 17 13 15 10 9 19 9 13 11 12 20 14 14 12 11 13 15 9 16 13 13 14 14 17 10 7 12 15 15 13 12 14 10 12 14 18 19 13 10 14 13 14 11 20 11 10 15 14 16 14 10 17 14 17 12 21 15 9 15 17 13 11 17 12 12 13 16 14 13 15 12 15 13 11 11 16 7 14 21 16 17 18 11 14 13 8 13 11 16 12 11 13 12 20 11 19 9 10 12 13 13 19 17 16 15 11 16 17 12 16 12 10 13 8 7 9 11 16 21 10 8 15 12 11 19 9 19 14 12 16 18 12 12 10 12 15 19 11 10 14 13 14 16 18 13 13 13 15 14 11 15 15 16 19 8 10 12 17 11 16 12 15 13 18 16 17 9 13 14 14 12 13 14 12 10 11 18 18 10 11 17 15 13 10 11 12 12 9 12 11 13 13 16 10 11 10 12 16 18 10 11 11 17 14 15 9 9 14 9 13 13 18 20 15 9 13 10 18 11 18 11 13 12 13 15 13 15 11 16 14 12 15 10 14 10 15 8 14 12 14 15 8 11 14 12 6 13 12 9 19 11 11 14 7 15 16 10 15 13 16 16 7 11 15 12 14 17 15 15 17 11 18 8 14 14 14 11 16 11 15 16 15 11 14 11 11 11 13 13 17 11 12 7 10 11 13 9 16 14 8 11 10 13 19 10 18 12 9 19 12 9 13 12 13 15 10 11 14 11 10 10 12 16 12 14 14 10 14 16 13 13 15 11 10 12 17 16 12 16 14 11 13 16 12 14 13 8 11 22 9 10 9 14 6 10 13 19 19 10 10 14 12 9 13 10 13 12 10 9 13 17 16 9 17 13 11 12 8 14 16 12 8 4 8 15 11 12 17 13 12 16 13 18 15 17 14 12 13 10 16 15 14 11 17 20 15 13 16 20 17 9 18 8 19 13 10 17 10 13 14 17 15 15 17 15 12 14 13 18 13 14 12 15 14 8 15 11 16 15 17 9 11 9 12 9 13 15 9 14 15 19 13 14 10 11 12 19 9 11 11 15 9 11 14 15 7 15 9 15 15 12 14 15 10 17 14 13 12 17 16 11 13 19 12 13 12 14 15 13 15 10 12 13 16 15 14 8 9 10 12 13 16 12 13 11 11 15 11 15 14 13 15 14 8 13 10 15 8 8 15 15 11 14 14 14 13 15 15 11 14 17 17 9 18 10 10 11 14 13 19 12 12 10 11 10 16 8 19 10 17 10 16 20 12 13 15 14 12 19 14 13 13 11 16 16 11 13 13 18 18 14 13 15 17 13 15 12 17 18 14 13 15 13 13 15 14 13 11 11 16 15 11 13 13 7 7 18 16 16 19 16 14 13 12 11 11 16 14 9 16 7 9 12 11 14 12 
BTB PER SET COUNT: 433 19 1554 14 18 25 1228 235 1478 14 20 13 27 15 23 13 13 16 199 19 27 13 510 22 13 21 16 24 236 15 19 20 24 11 11 501 15 28 10 15 15 17 17 28 10 16 18 17 21 15 34 286 13 23 86 386 19 14 402 27 19 28 11 17 16 418 21 15 20 9 175 397 22 11 14 11 15 534 18 16 371 11 15 27 18 11 24 19 225 36 11 620 22 12 15 24 835 12 18 24 33 64 21 14 1984 12 13 23 1241 12 19 35 151 17 16 1295 23 21 1485 403 161 52 13 13 14 24 13 15 30 997 9 3581 13 20 18 23 989 16 19 20 16 740 14 16 22 166 16 21 15 23 13 289 965 20 14 32 24 14 17 1341 16 16 224 13 1476 21 15 9 17 1414 15 16 25 13 14 955 26 19 468 14 14 245 117 24 689 768 14 18 21 12 17 10 18 28 10 13 11 1201 10 17 15 24 989 28 18 14 10 20 14 541 10 25 25 14657 15 407 14 18 2390 45 16 23 8 11 16 19 18 207 460 21 13 14 12 13 15 17939 21 22 12 8 16 10 30 448 36 548 9 22 22 15 17 12 13 12 11 22 80 21 21 16 12 10 9 134 13 12 13 19 756 24 26 16 612 12 9 14 14 17 20 10 13 25 10 434 19 10 14 33 28 15 20 12 12 797 16 24 13 22 25 440 16 17 10 41 19 132 18 129 15 863 436 29 23 24 1980 1001 17 24 20 43 17 1847 15 14 322 19 13 21 21 12 19 21 17 18 18 25 13 912 10 72 8 245 18 25 33 18 14 32 15 257 20 1479 24 27 10 14 22 16 183 25 16 16 20 31 13 2605 10 18 18 12 19 99 13 1000 987 19 15 28 19 18 1069 14 75 13 10 20 51 20 9 424 18 16 17 28 12 995 16 15 22 18 20 12 16 18 24 26 30 799 29 15 203 17 9 641 10 18 14 2614 93 19 22 19 14 19 29 10 96 17 25 380 24 25 11 7 19 27 313 39 14 23 1080 17 28 29 303 22 501 23 17 25 568 43 11 10 21 247 27 15 12 27 18 24 22 187 18 9 27 24 17 16 25 15 13 16 19 38 15 576 14 24 20 12 16 24 7 483 29 24 1741 102 286 18 20 12 18 22 1366 608 12 18 12 36 19 38 14 11 14 17 15 23 321 404 1361 446 26 24 25 29 14 13 15 11 7 9 12 21 224 888 14 2317 16 220 28 9 30 22 16 25 33 634 14 11 16 26 38 21 12 20 17 89 23 30 791 42 18 19 26 16 18 32 19 29 9 10 27 28 115 29 14 22 21 28 19 24 203 15 57 26 15 19 15 27 12 2946 29 19 14 16 30 27 381 13 13 15 30 11 858 21 15 15 20 15 154 14 14 32 41 332 14 19 25 19 22 10 13 20 11 18 21 33 26 23 11 581 18 22 17 32 11 392 20 18 25 18 18 17 24 802 19 20 12 17 13 33 2070 19 318 22 28 8 11 21 12 11 32 513 12 117 13 17 24 7 22 28 17 19 34 788 713 7 19 24 1005 17 487 152 19 26 17 33 8 18 989 37 20 17 12 21 22 32 16 18 14 12 2498 14 16 3269 16 16 962 11 14 23 11 24 15 13 42 13 170 29 408 26 18 146 938 38 9 17 17 106 17 334 14 24 15 18 995 16 24 19 32 18 15 16 338 18 18 17 14 15 975 28 216 16 782 21 16 16 929 16 17 21 9 12 33 1481 13 9 18 6 10 17 105 28 10 17 20 19 11 18 15 14 15 12 11 15 24 24 1992 24 395 12 16 8 22 21 20 11 4 779 18 12 297 20 19 21 32 1065 37 26 25 23 491 25 11 28 19 16 11 7939 26 17 29 32 593 23 11 29 11 203 16 18 26 10 16 24 30 25 23 28 23 21 139 13 23 16 23 18 26 231 13 24 743 24 26 27 12 14 1479 283 11 20 80 14 51 24 40 22 17 1161 15 16 409 9 12 26 18 11 14 20 23 8 25 9 22 22 1934 20 31 14 32 22 19 15 23 23 13 539 30 1110 1239 17 16 27 23 22 19 16 24 22 16 151 9 12 12 15 140 26 210 894 17 12 17 760 39 319 24 21 22 149 19 14 21 11 12 24 21 13 63 19 399 23 26 981 15 27 33 29 9 1764 17 10 12 22 18 29 15 15 11 984 14 85 9 30 71 24 20 389 37 20 13 16 17 15 1490 19 18 22 56 198 23 13 23 20 31 19 23 16 17 995 19 38 15 26 755 318 19 29 18 2126 20 289 936 16 13 1275 19 1864 145 17 7 11 34 20 29 33 35 993 393 17 13 16 22 17 15 265 7 11 18 837 24 20 
To predecode: 0
Predecoding something: 0
Predecode request dropped: 0
sizeofblock_0 0
sizeofblock_1 47589
sizeofblock_2 92615
sizeofblock_3 0
sizeofblock_4 0
sizeofblock_5 0
sizeofblock_6 0
sizeofblock_7 0
sizeofblock_8 0
Variant_0 Correct: 1609626 Incorrect: 0 Accuracy: 1
Variant_1 Correct: 5723511 Incorrect: 0 Accuracy: 1
Variant_2 Correct: 0 Incorrect: 0 Accuracy: -nan
Variant_3 Correct: 0 Incorrect: 0 Accuracy: -nan
