
*** ChampSim Multicore Out-of-Order Simulator ***

Warmup Instructions: 50000000
Simulation Instructions: 50000000
Number of CPUs: 1
LLC sets: 2048
LLC ways: 16
Off-chip DRAM Size: 4096 MB Channels: 1 Width: 64-bit Data Rate: 6400 MT/s
CPU 0 runs ./micro_traces/srv74.trace.gz
.gz
ITLB has LRU replacement policy
DTLB has LRU replacement policy
STLB has LRU replacement policy
FDIP Prefetcher at L1I
L1I has LRU replacement policy
L1D has LRU replacement policy
Initialize SRRIP state for L2C
Initialize DRRIP state for LLC
Heartbeat_Variant_0 : 1296 0.316406 per_variant_size: 0 1296 0 0 0 0 0 0 0 
Heartbeat_Variant_1 : 2264 0.552734 per_variant_size: 0 168 2096 0 0 0 0 0 0 
Heartbeat_Variant_2 : 0 0 per_variant_size: 0 0 0 0 0 0 0 0 0 
Heartbeat_Variant_3 : 0 0 per_variant_size: 0 0 0 0 0 0 0 0 0 
Heartbeat_Variant_0_evicts 0 : 5561 1 : 0 2 : 0 3 : 0 
Heartbeat_Variant_1_evicts 0 : 0 1 : 0 2 : 0 3 : 0 
Heartbeat_Variant_2_evicts 0 : 0 1 : 0 2 : 0 3 : 0 
Heartbeat_Variant_3_evicts 0 : 0 1 : 0 2 : 0 3 : 0 
Heartbeat CPU 0 instructions: 10000003 cycles: 2796815 heartbeat IPC: 3.5755 cumulative IPC: 3.5755 (Simulation time: 0 hr 1 min 7 sec) 
Heartbeat_Variant_0 : 1381 0.337158 per_variant_size: 0 1381 0 0 0 0 0 0 0 
Heartbeat_Variant_1 : 2449 0.5979 per_variant_size: 0 165 2284 0 0 0 0 0 0 
Heartbeat_Variant_2 : 0 0 per_variant_size: 0 0 0 0 0 0 0 0 0 
Heartbeat_Variant_3 : 0 0 per_variant_size: 0 0 0 0 0 0 0 0 0 
Heartbeat_Variant_0_evicts 0 : 5711 1 : 7 2 : 0 3 : 0 
Heartbeat_Variant_1_evicts 0 : 1 1 : 0 2 : 0 3 : 0 
Heartbeat_Variant_2_evicts 0 : 0 1 : 0 2 : 0 3 : 0 
Heartbeat_Variant_3_evicts 0 : 0 1 : 0 2 : 0 3 : 0 
Heartbeat CPU 0 instructions: 20000001 cycles: 5594139 heartbeat IPC: 3.57484 cumulative IPC: 3.57517 (Simulation time: 0 hr 2 min 5 sec) 
Heartbeat_Variant_0 : 1449 0.35376 per_variant_size: 0 1449 0 0 0 0 0 0 0 
Heartbeat_Variant_1 : 2623 0.640381 per_variant_size: 0 110 2513 0 0 0 0 0 0 
Heartbeat_Variant_2 : 0 0 per_variant_size: 0 0 0 0 0 0 0 0 0 
Heartbeat_Variant_3 : 0 0 per_variant_size: 0 0 0 0 0 0 0 0 0 
Heartbeat_Variant_0_evicts 0 : 5618 1 : 136 2 : 0 3 : 0 
Heartbeat_Variant_1_evicts 0 : 126 1 : 0 2 : 0 3 : 0 
Heartbeat_Variant_2_evicts 0 : 0 1 : 0 2 : 0 3 : 0 
Heartbeat_Variant_3_evicts 0 : 0 1 : 0 2 : 0 3 : 0 
Heartbeat CPU 0 instructions: 30000002 cycles: 8391085 heartbeat IPC: 3.57533 cumulative IPC: 3.57522 (Simulation time: 0 hr 3 min 1 sec) 
Heartbeat_Variant_0 : 1454 0.35498 per_variant_size: 0 1454 0 0 0 0 0 0 0 
Heartbeat_Variant_1 : 2637 0.643799 per_variant_size: 0 88 2549 0 0 0 0 0 0 
Heartbeat_Variant_2 : 0 0 per_variant_size: 0 0 0 0 0 0 0 0 0 
Heartbeat_Variant_3 : 0 0 per_variant_size: 0 0 0 0 0 0 0 0 0 
Heartbeat_Variant_0_evicts 0 : 5625 1 : 198 2 : 0 3 : 0 
Heartbeat_Variant_1_evicts 0 : 194 1 : 0 2 : 0 3 : 0 
Heartbeat_Variant_2_evicts 0 : 0 1 : 0 2 : 0 3 : 0 
Heartbeat_Variant_3_evicts 0 : 0 1 : 0 2 : 0 3 : 0 
Heartbeat CPU 0 instructions: 40000002 cycles: 11186999 heartbeat IPC: 3.57665 cumulative IPC: 3.57558 (Simulation time: 0 hr 3 min 56 sec) 
Heartbeat_Variant_0 : 1457 0.355713 per_variant_size: 0 1457 0 0 0 0 0 0 0 
Heartbeat_Variant_1 : 2639 0.644287 per_variant_size: 0 92 2547 0 0 0 0 0 0 
Heartbeat_Variant_2 : 0 0 per_variant_size: 0 0 0 0 0 0 0 0 0 
Heartbeat_Variant_3 : 0 0 per_variant_size: 0 0 0 0 0 0 0 0 0 
Heartbeat_Variant_0_evicts 0 : 5602 1 : 91 2 : 0 3 : 0 
Heartbeat_Variant_1_evicts 0 : 91 1 : 0 2 : 0 3 : 0 
Heartbeat_Variant_2_evicts 0 : 0 1 : 0 2 : 0 3 : 0 
Heartbeat_Variant_3_evicts 0 : 0 1 : 0 2 : 0 3 : 0 
Heartbeat CPU 0 instructions: 50000002 cycles: 13982437 heartbeat IPC: 3.57726 cumulative IPC: 3.57591 (Simulation time: 0 hr 4 min 51 sec) 

Warmup complete CPU 0 instructions: 50000002 cycles: 13982437 (Simulation time: 0 hr 4 min 51 sec) 

Cycle: 20000000 FTQ IN: 58455916 FTQ occupancy: 20.5373 DECODE IN: 58455808 DECODE occupancy: 53.5424 ROB IN: 58455808 ROB occupancy: 319.762 ROB OUT: 58455590
Heartbeat_Variant_0 : 1457 0.355713 per_variant_size: 0 1457 0 0 0 0 0 0 0 
Heartbeat_Variant_1 : 2639 0.644287 per_variant_size: 0 97 2542 0 0 0 0 0 0 
Heartbeat_Variant_2 : 0 0 per_variant_size: 0 0 0 0 0 0 0 0 0 
Heartbeat_Variant_3 : 0 0 per_variant_size: 0 0 0 0 0 0 0 0 0 
Heartbeat_Variant_0_evicts 0 : 5607 1 : 6 2 : 0 3 : 0 
Heartbeat_Variant_1_evicts 0 : 6 1 : 0 2 : 0 3 : 0 
Heartbeat_Variant_2_evicts 0 : 0 1 : 0 2 : 0 3 : 0 
Heartbeat_Variant_3_evicts 0 : 0 1 : 0 2 : 0 3 : 0 
Heartbeat CPU 0 instructions: 60000001 cycles: 21094919 heartbeat IPC: 1.40598 cumulative IPC: 1.40598 (Simulation time: 0 hr 6 min 13 sec) 
Heartbeat_Variant_0 : 1456 0.355469 per_variant_size: 0 1456 0 0 0 0 0 0 0 
Heartbeat_Variant_1 : 2640 0.644531 per_variant_size: 0 93 2547 0 0 0 0 0 0 
Heartbeat_Variant_2 : 0 0 per_variant_size: 0 0 0 0 0 0 0 0 0 
Heartbeat_Variant_3 : 0 0 per_variant_size: 0 0 0 0 0 0 0 0 0 
Heartbeat_Variant_0_evicts 0 : 5623 1 : 89 2 : 0 3 : 0 
Heartbeat_Variant_1_evicts 0 : 90 1 : 0 2 : 0 3 : 0 
Heartbeat_Variant_2_evicts 0 : 0 1 : 0 2 : 0 3 : 0 
Heartbeat_Variant_3_evicts 0 : 0 1 : 0 2 : 0 3 : 0 
Heartbeat CPU 0 instructions: 70000001 cycles: 28322988 heartbeat IPC: 1.3835 cumulative IPC: 1.39465 (Simulation time: 0 hr 7 min 35 sec) 
Cycle: 30000000 FTQ IN: 13898306 FTQ occupancy: 14.9098 DECODE IN: 13898355 DECODE occupancy: 38.3869 ROB IN: 13898350 ROB occupancy: 251.191 ROB OUT: 13898485
Heartbeat_Variant_0 : 1455 0.355225 per_variant_size: 0 1455 0 0 0 0 0 0 0 
Heartbeat_Variant_1 : 2641 0.644775 per_variant_size: 0 92 2549 0 0 0 0 0 0 
Heartbeat_Variant_2 : 0 0 per_variant_size: 0 0 0 0 0 0 0 0 0 
Heartbeat_Variant_3 : 0 0 per_variant_size: 0 0 0 0 0 0 0 0 0 
Heartbeat_Variant_0_evicts 0 : 5613 1 : 1 2 : 0 3 : 0 
Heartbeat_Variant_1_evicts 0 : 2 1 : 0 2 : 0 3 : 0 
Heartbeat_Variant_2_evicts 0 : 0 1 : 0 2 : 0 3 : 0 
Heartbeat_Variant_3_evicts 0 : 0 1 : 0 2 : 0 3 : 0 
Heartbeat CPU 0 instructions: 80000000 cycles: 35444432 heartbeat IPC: 1.40421 cumulative IPC: 1.39782 (Simulation time: 0 hr 9 min 6 sec) 
Cycle: 40000000 FTQ IN: 13944387 FTQ occupancy: 14.9862 DECODE IN: 13944422 DECODE occupancy: 38.618 ROB IN: 13944427 ROB occupancy: 252.289 ROB OUT: 13944429
Heartbeat_Variant_0 : 1455 0.355225 per_variant_size: 0 1455 0 0 0 0 0 0 0 
Heartbeat_Variant_1 : 2641 0.644775 per_variant_size: 0 97 2544 0 0 0 0 0 0 
Heartbeat_Variant_2 : 0 0 per_variant_size: 0 0 0 0 0 0 0 0 0 
Heartbeat_Variant_3 : 0 0 per_variant_size: 0 0 0 0 0 0 0 0 0 
Heartbeat_Variant_0_evicts 0 : 5668 1 : 34 2 : 0 3 : 0 
Heartbeat_Variant_1_evicts 0 : 34 1 : 0 2 : 0 3 : 0 
Heartbeat_Variant_2_evicts 0 : 0 1 : 0 2 : 0 3 : 0 
Heartbeat_Variant_3_evicts 0 : 0 1 : 0 2 : 0 3 : 0 
Heartbeat CPU 0 instructions: 90000003 cycles: 42629246 heartbeat IPC: 1.39182 cumulative IPC: 1.39632 (Simulation time: 0 hr 10 min 42 sec) 
Heartbeat_Variant_0 : 1455 0.355225 per_variant_size: 0 1455 0 0 0 0 0 0 0 
Heartbeat_Variant_1 : 2641 0.644775 per_variant_size: 0 103 2538 0 0 0 0 0 0 
Heartbeat_Variant_2 : 0 0 per_variant_size: 0 0 0 0 0 0 0 0 0 
Heartbeat_Variant_3 : 0 0 per_variant_size: 0 0 0 0 0 0 0 0 0 
Heartbeat_Variant_0_evicts 0 : 5537 1 : 1 2 : 0 3 : 0 
Heartbeat_Variant_1_evicts 0 : 1 1 : 0 2 : 0 3 : 0 
Heartbeat_Variant_2_evicts 0 : 0 1 : 0 2 : 0 3 : 0 
Heartbeat_Variant_3_evicts 0 : 0 1 : 0 2 : 0 3 : 0 
Heartbeat CPU 0 instructions: 100000003 cycles: 49733018 heartbeat IPC: 1.4077 cumulative IPC: 1.39858 (Simulation time: 0 hr 11 min 55 sec) 
Finished CPU 0 instructions: 50000001 cycles: 35750581 cumulative IPC: 1.39858 (Simulation time: 0 hr 11 min 55 sec) 

ChampSim completed all CPUs

Region of Interest Statistics

CPU 0 cumulative IPC: 1.39858 instructions: 50000001 cycles: 35750581
 Fetch stage stalled: 45.651  Sim cycles: 35750581 fetch stall cycle: 16320495
 Empty decode stage: 24.2516  Sim cycles: 35750581 fetch stall cycle: 8670080
ITLB TOTAL     ACCESS:    5833484  HIT:    5340743  MISS:     492741  HIT %:    91.5532  MISS %:    8.44677   MPKI: 9.85482
ITLB LOAD TRANSLATION INSTRUCTION	ACCESS:    5697721  HIT:    5204980  MISS:     492741  HIT %:     91.352  MISS %:    8.64804  MPKI: 9.85482
ITLB TRANSLATION FROM L1D PREFETCHER INSTRUCTION	ACCESS:     135763  HIT:     135763  MISS:          0  HIT %:        100  MISS %:          0  MPKI: 0

ITLB AVERAGE MISS LATENCY: 9.05 cycles
ITLB RQ	ACCESS:    7931151	FORWARD:          0	MERGED:    1616438	TO_CACHE:    6314713

DTLB TOTAL     ACCESS:    8949100  HIT:    8478589  MISS:     470511  HIT %:    94.7424  MISS %:    5.25763   MPKI: 9.41022
DTLB LOAD TRANSLATION DATA	ACCESS:    8949100  HIT:    8478589  MISS:     470511  HIT %:    94.7424  MISS %:    5.25763  MPKI: 9.41022

DTLB AVERAGE MISS LATENCY: 9.30503 cycles
DTLB RQ	ACCESS:   13317292	FORWARD:          0	MERGED:    4332235	TO_CACHE:    8985057

STLB TOTAL     ACCESS:    1210976  HIT:    1209041  MISS:       1935  HIT %:    99.8402  MISS %:   0.159788   MPKI: 0.0387
STLB LOAD TRANSLATION INSTRUCTION	ACCESS:     492741  HIT:     492502  MISS:        239  HIT %:    99.9515  MISS %:  0.0485042  MPKI: 0.00478
STLB LOAD TRANSLATION DATA	ACCESS:     470510  HIT:     468840  MISS:       1670  HIT %:    99.6451  MISS %:   0.354934  MPKI: 0.0334
STLB TRANSLATION FROM L1D PREFETCHER DATA	ACCESS:     247725  HIT:     247699  MISS:         26  HIT %:    99.9895  MISS %:  0.0104955  MPKI: 0.00052

STLB AVERAGE MISS LATENCY: 71.3039 cycles
STLB RQ	ACCESS:    1332275	FORWARD:          0	MERGED:     121253	TO_CACHE:    1211022

STLB Hit, L1D data hit: 0
STLB Hit, L2C data hit: 0
STLB Hit, LLC data hit: 0
STLB Hit, LLC data miss: 0
STLB STLB hints to L2: 0
L1D TOTAL     ACCESS:   13072033  HIT:   11960203  MISS:    1111830  HIT %:    91.4946  MISS %:    8.50541   MPKI: 22.2366
L1D LOAD DATA	ACCESS:    6540951  HIT:    5806325  MISS:     734626  HIT %:    88.7688  MISS %:    11.2312  MPKI: 14.6925
L1D RFO DATA	ACCESS:    6202278  HIT:    5918564  MISS:     283714  HIT %:    95.4256  MISS %:    4.57435  MPKI: 5.67428
L1D PREFETCH DATA	ACCESS:     328804  HIT:     235314  MISS:      93490  HIT %:    71.5666  MISS %:    28.4334  MPKI: 1.8698

L1D PREFETCH  REQUESTED:     738403  ISSUED:     738403  USEFUL:      32914  USELESS:      67957
L1D USEFUL LOAD PREFETCHES:      32914 PREFETCH ISSUED TO LOWER LEVEL:     100913  ACCURACY: 32.6162
 TIMELY PREFETCHES:      32914 LATE PREFETCHES: 7386 DROPPED PREFETCHES: 8
L1D AVERAGE MISS LATENCY: 213925 cycles
L1D RQ	ACCESS:   10679990	FORWARD:          0	MERGED:    3939779	TO_CACHE:    6574846
L1D WQ	ACCESS:    6941120	FORWARD:     165722	MERGED:     198674	TO_CACHE:    6742446
L1D PQ	ACCESS:     369380	FORWARD:          0	MERGED:          0	TO_CACHE:     369023

L1D UNIQUE REGIONS ACCESSED: 0
L1D REGIONS CONFLICTS: 0
L1D Cross Page Prefetch Requests: 7009
L1D Same Page Prefetch Requests: 748737
L1D ROI Sum of L1D PQ occupancy: 4687470
L1D PREFETCHES PUSHED FROM L2C: 0
L1I TOTAL     ACCESS:    7118907  HIT:    4362306  MISS:    2756601  HIT %:    61.2777  MISS %:    38.7223   MPKI: 55.132
L1I LOAD INSTRUCTION	ACCESS:    6452034  HIT:    3695433  MISS:    2756601  HIT %:    57.2755  MISS %:    42.7245  MPKI: 55.132
L1I PREFETCH INSTRUCTION	ACCESS:     666873  HIT:     666873  MISS:          0  HIT %:        100  MISS %:          0  MPKI: 0

L1I PREFETCH  REQUESTED:    1615401  ISSUED:    1615401  USEFUL:          0  USELESS:          0
L1I USEFUL LOAD PREFETCHES:          0 PREFETCH ISSUED TO LOWER LEVEL:          0  ACCURACY: -nan
 TIMELY PREFETCHES:          0 LATE PREFETCHES: 0 DROPPED PREFETCHES: 0
L1I AVERAGE MISS LATENCY: 16.9111 cycles
L1I RQ	ACCESS:    9564345	FORWARD:          0	MERGED:    2818947	TO_CACHE:    6745398
L1I PQ	ACCESS:    1615401	FORWARD:          0	MERGED:     429648	TO_CACHE:    1185753

L1BTB TOTAL     ACCESS:    5669405  HIT:    2046865  MISS:    3622540  HIT %:    36.1037  MISS %:    63.8963   MPKI: 72.4508
L1BTB BRANCH_DIRECT_JUMP	ACCESS:     548178 HIT:     144938 MISS:     403240 AVERAGE STALL: 62.7329 AVERAGE FETCH STALL: 13.6589 AVERAGE FETCH QUEUE STALL: 24.1934 AVERAGE DECODE STALL: 23.9505 AVERAGE EXECUTE STALL: 2.54403e+15
L1BTB BRANCH_INDIRECT	ACCESS:     182906 HIT:      66116 MISS:     116790 AVERAGE STALL: 112.355 AVERAGE FETCH STALL: 10.9126 AVERAGE FETCH QUEUE STALL: 19.4889 AVERAGE DECODE STALL: 13.93 AVERAGE EXECUTE STALL: 67.0615
L1BTB BRANCH_CONDITIONAL	ACCESS:    2706775 HIT:    1416531 MISS:    1290244 AVERAGE STALL: 74.593 AVERAGE FETCH STALL: 18.1477 AVERAGE FETCH QUEUE STALL: 24.4417 AVERAGE DECODE STALL: 31.2331 AVERAGE EXECUTE STALL: 3.46743e+15
L1BTB BRANCH_DIRECT_CALL	ACCESS:     943781 HIT:     106075 MISS:     837706 AVERAGE STALL: 53.7433 AVERAGE FETCH STALL: 21.7938 AVERAGE FETCH QUEUE STALL: 19.5415 AVERAGE DECODE STALL: 12.0475 AVERAGE EXECUTE STALL: 2.73691e+16
L1BTB BRANCH_INDIRECT_CALL	ACCESS:     171992 HIT:      21754 MISS:     150238 AVERAGE STALL: 141.777 AVERAGE FETCH STALL: 12.2068 AVERAGE FETCH QUEUE STALL: 18.4617 AVERAGE DECODE STALL: 12.6323 AVERAGE EXECUTE STALL: 97.9885
L1BTB BRANCH_RETURN	ACCESS:    1115773 HIT:     291451 MISS:     824322 AVERAGE STALL: 49.4308 AVERAGE FETCH STALL: 16.7197 AVERAGE FETCH QUEUE STALL: 4.50424 AVERAGE DECODE STALL: 6.20848 AVERAGE EXECUTE STALL: 4.36527e+14
L1BTB BRANCH_OTHER ACCESS:          0 HIT:          0 MISS:          0 AVERAGE STALL: -nan AVERAGE FETCH STALL: -nan AVERAGE FETCH QUEUE STALL: -nan AVERAGE DECODE STALL: -nan AVERAGE EXECUTE STALL: -nan
L1BTB TOTAL ROB OCCUPANCY AT BTB MISS: 2.59048

L2BTB TOTAL     ACCESS:    3597117  HIT:    3534371  MISS:      62746  HIT %:    98.2557  MISS %:    1.74434   MPKI: 1.25492
L2BTB BRANCH_DIRECT_JUMP	ACCESS:     399050 HIT:     395989 MISS:       3061 AVERAGE STALL: 62.7329 AVERAGE FETCH STALL: 13.6589 AVERAGE FETCH QUEUE STALL: 24.1934 AVERAGE DECODE STALL: 23.9505 AVERAGE EXECUTE STALL: 2.54403e+15
L2BTB BRANCH_INDIRECT	ACCESS:     106534 HIT:     103855 MISS:       2679 AVERAGE STALL: 112.355 AVERAGE FETCH STALL: 10.9126 AVERAGE FETCH QUEUE STALL: 19.4889 AVERAGE DECODE STALL: 13.93 AVERAGE EXECUTE STALL: 67.0615
L2BTB BRANCH_CONDITIONAL	ACCESS:    1290244 HIT:    1284901 MISS:       5343 AVERAGE STALL: 74.593 AVERAGE FETCH STALL: 18.1477 AVERAGE FETCH QUEUE STALL: 24.4417 AVERAGE DECODE STALL: 31.2331 AVERAGE EXECUTE STALL: 3.46743e+15
L2BTB BRANCH_DIRECT_CALL	ACCESS:     837706 HIT:     837028 MISS:        678 AVERAGE STALL: 53.7433 AVERAGE FETCH STALL: 21.7938 AVERAGE FETCH QUEUE STALL: 19.5415 AVERAGE DECODE STALL: 12.0475 AVERAGE EXECUTE STALL: 2.73691e+16
L2BTB BRANCH_INDIRECT_CALL	ACCESS:     140663 HIT:     130542 MISS:      10121 AVERAGE STALL: 141.777 AVERAGE FETCH STALL: 12.2068 AVERAGE FETCH QUEUE STALL: 18.4617 AVERAGE DECODE STALL: 12.6323 AVERAGE EXECUTE STALL: 97.9885
L2BTB BRANCH_RETURN	ACCESS:     822920 HIT:     782056 MISS:      40864 AVERAGE STALL: 49.4308 AVERAGE FETCH STALL: 16.7197 AVERAGE FETCH QUEUE STALL: 4.50424 AVERAGE DECODE STALL: 6.20848 AVERAGE EXECUTE STALL: 4.36527e+14
L2BTB BRANCH_OTHER ACCESS:          0 HIT:          0 MISS:          0 AVERAGE STALL: -nan AVERAGE FETCH STALL: -nan AVERAGE FETCH QUEUE STALL: -nan AVERAGE DECODE STALL: -nan AVERAGE EXECUTE STALL: -nan
L2BTB TOTAL ROB OCCUPANCY AT BTB MISS: 149.557

L2C TOTAL     ACCESS:    4471378  HIT:    4048400  MISS:     422978  HIT %:    90.5403  MISS %:    9.45968   MPKI: 8.45956
L2C LOAD INSTRUCTION	ACCESS:    2756602  HIT:    2528311  MISS:     228291  HIT %:    91.7184  MISS %:    8.28161  MPKI: 4.56582
L2C LOAD TRANSLATION INSTRUCTION	ACCESS:        269  HIT:         59  MISS:        210  HIT %:    21.9331  MISS %:    78.0669  MPKI: 0.0042
L2C LOAD DATA	ACCESS:     727212  HIT:     657448  MISS:      69764  HIT %:    90.4066  MISS %:    9.59335  MPKI: 1.39528
L2C RFO DATA	ACCESS:     283655  HIT:     236302  MISS:      47353  HIT %:    83.3061  MISS %:    16.6939  MPKI: 0.94706
L2C PREFETCH DATA	ACCESS:     182722  HIT:     118447  MISS:      64275  HIT %:    64.8236  MISS %:    35.1764  MPKI: 1.2855
L2C WRITEBACK DATA	ACCESS:     519153  HIT:     507299  MISS:      11854  HIT %:    97.7167  MISS %:    2.28333  MPKI: 0.23708
L2C LOAD TRANSLATION DATA	ACCESS:       1714  HIT:        501  MISS:       1213  HIT %:    29.2299  MISS %:    70.7701  MPKI: 0.02426
L2C TRANSLATION FROM L1D PREFETCHER DATA	ACCESS:         51  HIT:         33  MISS:         18  HIT %:    64.7059  MISS %:    35.2941  MPKI: 0.00036

L2C PREFETCH  REQUESTED:      89705  ISSUED:      89705  USEFUL:       7483  USELESS:      57383
L2C USEFUL LOAD PREFETCHES:       7483 PREFETCH ISSUED TO LOWER LEVEL:      64809  ACCURACY: 11.5462
 TIMELY PREFETCHES:       7483 LATE PREFETCHES: 534 DROPPED PREFETCHES: 0
L2C AVERAGE MISS LATENCY: 39.2522 cycles
L2C RQ	ACCESS:    3769555	FORWARD:          0	MERGED:          0	TO_CACHE:    3769505
L2C WQ	ACCESS:     519153	FORWARD:         50	MERGED:          0	TO_CACHE:     519153
L2C PQ	ACCESS:     190618	FORWARD:          0	MERGED:       3619	TO_CACHE:     186999

L2C Dense regions hint from L2: 0
PSCL5 TOTAL     ACCESS:       3894  HIT:       1947  MISS:       1947  HIT %:         50  MISS %:         50   MPKI: 0.03894
PSCL5 LOAD TRANSLATION INSTRUCTION	ACCESS:       3792  HIT:       1896  MISS:       1896  HIT %:         50  MISS %:         50  MPKI: 0.03792
PSCL5 TRANSLATION FROM L1D PREFETCHER INSTRUCTION	ACCESS:        102  HIT:         51  MISS:         51  HIT %:         50  MISS %:         50  MPKI: 0.00102


PSCL4 TOTAL     ACCESS:       3843  HIT:       1919  MISS:       1924  HIT %:    49.9349  MISS %:    50.0651   MPKI: 0.03848
PSCL4 LOAD TRANSLATION INSTRUCTION	ACCESS:       3481  HIT:       1874  MISS:       1607  HIT %:    53.8351  MISS %:    46.1649  MPKI: 0.03214
PSCL4 TRANSLATION FROM L1D PREFETCHER INSTRUCTION	ACCESS:         90  HIT:         45  MISS:         45  HIT %:         50  MISS %:         50  MPKI: 0.0009
PSCL4 LOAD TRANSLATION DATA	ACCESS:        272  HIT:          0  MISS:        272  HIT %:          0  MISS %:        100  MPKI: 0.00544


PSCL3 TOTAL     ACCESS:       3849  HIT:       1922  MISS:       1927  HIT %:     49.935  MISS %:     50.065   MPKI: 0.03854
PSCL3 LOAD TRANSLATION INSTRUCTION	ACCESS:       3484  HIT:       1877  MISS:       1607  HIT %:    53.8749  MISS %:    46.1251  MPKI: 0.03214
PSCL3 TRANSLATION FROM L1D PREFETCHER INSTRUCTION	ACCESS:         90  HIT:         45  MISS:         45  HIT %:         50  MISS %:         50  MPKI: 0.0009
PSCL3 LOAD TRANSLATION DATA	ACCESS:        275  HIT:          0  MISS:        275  HIT %:          0  MISS %:        100  MPKI: 0.0055


PSCL2 TOTAL     ACCESS:       3816  HIT:       1869  MISS:       1947  HIT %:     48.978  MISS %:     51.022   MPKI: 0.03894
PSCL2 LOAD TRANSLATION INSTRUCTION	ACCESS:       2057  HIT:       1818  MISS:        239  HIT %:    88.3811  MISS %:    11.6189  MPKI: 0.00478
PSCL2 TRANSLATION FROM L1D PREFETCHER INSTRUCTION	ACCESS:         51  HIT:         51  MISS:          0  HIT %:        100  MISS %:          0  MPKI: 0
PSCL2 LOAD TRANSLATION DATA	ACCESS:       1657  HIT:          0  MISS:       1657  HIT %:          0  MISS %:        100  MPKI: 0.03314
PSCL2 TRANSLATION FROM L1D PREFETCHER DATA	ACCESS:         51  HIT:          0  MISS:         51  HIT %:          0  MISS %:        100  MPKI: 0.00102


LLC TOTAL     ACCESS:     476825  HIT:     449802  MISS:      27023  HIT %:    94.3327  MISS %:    5.66728   MPKI: 0.54046
LLC LOAD INSTRUCTION	ACCESS:     228291  HIT:     227649  MISS:        642  HIT %:    99.7188  MISS %:    0.28122  MPKI: 0.01284
LLC LOAD TRANSLATION INSTRUCTION	ACCESS:        210  HIT:        179  MISS:         31  HIT %:    85.2381  MISS %:    14.7619  MPKI: 0.00062
LLC LOAD DATA	ACCESS:      69246  HIT:      65992  MISS:       3254  HIT %:    95.3008  MISS %:    4.69919  MPKI: 0.06508
LLC RFO DATA	ACCESS:      47333  HIT:      34235  MISS:      13098  HIT %:     72.328  MISS %:     27.672  MPKI: 0.26196
LLC PREFETCH DATA	ACCESS:      64809  HIT:      55193  MISS:       9616  HIT %:    85.1626  MISS %:    14.8374  MPKI: 0.19232
LLC WRITEBACK DATA	ACCESS:      65705  HIT:      65386  MISS:        319  HIT %:    99.5145  MISS %:   0.485503  MPKI: 0.00638
LLC LOAD TRANSLATION DATA	ACCESS:       1213  HIT:       1150  MISS:         63  HIT %:    94.8063  MISS %:    5.19373  MPKI: 0.00126
LLC TRANSLATION FROM L1D PREFETCHER DATA	ACCESS:         18  HIT:         18  MISS:          0  HIT %:        100  MISS %:          0  MPKI: 0

LLC AVERAGE MISS LATENCY: 156.59 cycles
LLC RQ	ACCESS:     346315	FORWARD:          0	MERGED:          0	TO_CACHE:     346311
LLC WQ	ACCESS:      65705	FORWARD:          4	MERGED:          0	TO_CACHE:      65705
LLC PQ	ACCESS:      64809	FORWARD:          0	MERGED:          0	TO_CACHE:      64809

LLC Dense regions hint to LLC: 0

RAW hits: 1950090
Loads Generated: 12630080
Loads sent to L1D: 10679990
Stores Generated: 6941120
Stores sent to L1D: 6941120
Major fault: 0 Minor fault: 2614
Allocated PAGES: 2614

stream: 
stream:times selected: 1187014
stream:pref_filled: 120532
stream:pref_useful: 24085
stream:pref_late: 6485
stream:misses: 8120
stream:misses_by_poll: 0

CS: 
CS:times selected: 177260
CS:pref_filled: 59537
CS:pref_useful: 36230
CS:pref_late: 6363
CS:misses: 15742
CS:misses_by_poll: 7

CPLX: 
CPLX:times selected: 1008655
CPLX:pref_filled: 19753
CPLX:pref_useful: 4727
CPLX:pref_late: 2966
CPLX:misses: 93396
CPLX:misses_by_poll: 1

NL_L1: 
NL:times selected: 21388
NL:pref_filled: 777
NL:pref_useful: 344
NL:pref_late: 294
NL:misses: 1769
NL:misses_by_poll: 0

total selections: 2394317
total_filled: 93490
total_useful: 32914
total_late: 17428
total_polluted: 8
total_misses_after_warmup: 768522
conflicts: 5511701

test: 117634

DRAM Statistics
 CHANNEL 0
 RQ ROW_BUFFER_HIT:      10002  ROW_BUFFER_MISS:      16692
 DBUS_CONGESTED:         13
 WQ ROW_BUFFER_HIT:       1238  ROW_BUFFER_MISS:      11765  FULL:          0

 AVG_CONGESTED_CYCLE: 5

CPU 0 Branch Prediction Accuracy: 99.8291% MPKI: 0.31266 Average ROB Occupancy at Mispredict: 199.515
Branch types
NOT_BRANCH: 40854943 81.7099%
BRANCH_DIRECT_JUMP: 548178 1.09636%
BRANCH_INDIRECT: 182906 0.365812%
BRANCH_CONDITIONAL: 6182177 12.3644%
BRANCH_DIRECT_CALL: 943781 1.88756%
BRANCH_INDIRECT_CALL: 171992 0.343984%
BRANCH_RETURN: 1115773 2.23155%
BRANCH_OTHER: 0 0%

DRAM PAGES: 1048576
Allocated PAGES: 2614
Average_ROB_Occupancy: 253.659
Average_Decode_Occupancy: 38.5877
Average_FTQ_Occupancy: 14.9397
Indirect max targets: 14 Average targets: 1.17891
Branch_type:  BRANCH_DIRECT_JUMP:  Count Percentage: 1.61907 6.99713 4.54694 8.4276 3.10441 6.29033 1.92002 67.0945 
Branch_type:  BRANCH_INDIRECT:  Count Percentage: 6.16502 3.48061 2.56056 0 1.33619 9.66613 4.14392 72.6476 
Branch_type:  BRANCH_CONDITIONAL:  Count Percentage: 20.8785 6.56368 1.82751 5.01127 2.32594 4.14935 3.00875 56.2349 
Branch_type:  BRANCH_DIRECT_CALL:  Count Percentage: 0.259487 1.96293 1.28201 3.77965 3.71254 2.34683 4.30557 82.351 
Branch_type:  BRANCH_INDIRECT_CALL:  Count Percentage: 6.53959 0 2.98495 8.68239 1.25261 2.02694 6.40336 72.1102 
Branch_type:  BRANCH_RETURN:  Count Percentage: 4.29521 4.76347 1.49206 5.82542 3.96246 4.8508 4.9747 69.8359 
Branch_type:  BRANCH_DIRECT_JUMP:  Total Count: 17737 76654 49812 92325 34009 68911 21034 735025 
Branch_type:  BRANCH_INDIRECT:  Total Count: 22548 12730 9365 0 4887 35353 15156 265702 
Branch_type:  BRANCH_CONDITIONAL:  Total Count: 2579877 811048 225818 619223 287407 512719 371779 6948726 
Branch_type:  BRANCH_DIRECT_CALL:  Total Count: 4895 37029 24184 71300 70034 44271 81221 1553482 
Branch_type:  BRANCH_INDIRECT_CALL:  Total Count: 22465 0 10254 29826 4303 6963 21997 247715 
Branch_type:  BRANCH_RETURN:  Total Count: 95818 106264 33285 129954 88395 108212 110976 1557905 
Number of unique branch instructions: 10791
Upper 32 bits: 
aaaa
ffff
ffff0000
Unique upper 32 bits: 3
Unique upper 36 bits: 3
Unique upper 40 bits: 5
Unique upper 44 bits: 32
Unique upper 48 bits: 158
Variant_0 : 1455 0.355225
Variant_1 : 2641 0.644775
Variant_2 : 0 0
Variant_3 : 0 0
Offset_3 4474
Offset_4 260
Offset_5 482
Offset_6 542
Offset_7 640
Offset_8 576
Offset_9 525
Offset_10 429
Offset_11 363
Offset_12 312
Offset_13 236
Offset_14 244
Offset_15 194
Offset_16 233
Offset_17 168
Offset_18 149
Offset_19 257
Offset_20 143
Offset_21 235
Offset_22 416
Offset_23 241
Offset_24 344
Offset_25 117
Offset_47 92
decode_dispatch_called: 26510155 74.1531
Dispatch_width: 0 14266913 53.8168 39.9068
Dispatch_width: 1 1043252 3.93529 2.91814
Dispatch_width: 2 872264 3.2903 2.43986
Dispatch_width: 3 509169 1.92066 1.42423
Dispatch_width: 4 6559554 24.7436 18.3481
Dispatch_width: 5 107730 0.406373 0.301338
Dispatch_width: 6 3151273 11.887 8.81461
Empty_decode_cycles: 9240426 25.8469
ROB_full_cycles: 10369270 29.0045
Starvation_cycles_per_kilo_instr: 222.3
Starvation_cycles_per_kilo_instr_3: 155.628
Starvation_cycles_per_kilo_instr_0: 131.381
Branch_type_1  (3,1)  (4,9)  (5,39)  (6,74)  (7,123)  (8,151)  (9,138)  (10,111)  (11,80)  (12,48)  (13,11)  (14,2)  (15,3)  (16,4)  (18,1)  (19,5)  (20,2)  (21,1)  (22,3)  (23,2)  (24,10)  (25,12) 
Branch_type_2  (3,1)  (4,1)  (5,1)  (8,4)  (9,4)  (10,1)  (12,1)  (13,1)  (14,1)  (16,3)  (17,2)  (20,2)  (21,2)  (23,5)  (24,1)  (47,41) 
Branch_type_3  (3,4472)  (4,250)  (5,438)  (6,452)  (7,487)  (8,356)  (9,288)  (10,174)  (11,147)  (12,55)  (13,10) 
Branch_type_4  (6,3)  (7,8)  (8,25)  (9,56)  (10,68)  (11,70)  (12,116)  (13,100)  (14,110)  (15,92)  (16,102)  (17,79)  (18,65)  (19,125)  (20,73)  (21,124)  (22,220)  (23,136)  (24,199)  (25,101) 
Branch_type_5  (8,3)  (9,1)  (10,4)  (11,5)  (12,3)  (13,14)  (14,16)  (15,11)  (16,22)  (17,11)  (18,23)  (19,14)  (20,11)  (21,13)  (22,43)  (23,26)  (24,38) 
Branch_type_6  (5,4)  (6,13)  (7,22)  (8,37)  (9,38)  (10,71)  (11,61)  (12,89)  (13,100)  (14,115)  (15,88)  (16,102)  (17,76)  (18,60)  (19,113)  (20,55)  (21,95)  (22,150)  (23,72)  (24,96)  (25,4)  (47,51) 
Unique trigger count: 
Variant_0_evicts_0 : 0
Variant_0_evicts_1 : 0
Variant_0_evicts_2 : 0
Variant_0_evicts_3 : 0
Variant_1_evicts_0 : 0
Variant_1_evicts_1 : 0
Variant_1_evicts_2 : 0
Variant_1_evicts_3 : 0
Variant_2_evicts_0 : 0
Variant_2_evicts_1 : 0
Variant_2_evicts_2 : 0
Variant_2_evicts_3 : 0
Variant_3_evicts_0 : 0
Variant_3_evicts_1 : 0
Variant_3_evicts_2 : 0
Variant_3_evicts_3 : 0
BTB PER SET UNIQUE ADDR: 42 31 37 38 30 42 39 33 32 40 41 32 46 33 32 30 36 40 35 29 35 32 30 41 39 33 32 43 42 46 41 34 34 41 40 29 46 29 35 34 39 30 31 37 32 43 35 30 50 26 31 46 35 35 41 40 37 38 41 27 35 33 28 37 34 42 35 37 42 30 31 39 38 29 29 38 32 40 43 31 40 32 41 43 37 37 35 31 34 39 40 37 27 30 25 39 37 33 31 39 29 34 38 33 32 43 38 36 41 33 33 36 29 36 41 36 38 34 36 40 48 28 34 40 33 36 43 31 28 37 39 30 48 30 37 37 35 37 29 43 36 40 42 32 34 36 31 42 30 37 39 31 34 50 36 28 39 34 35 47 33 32 33 40 29 33 40 28 31 35 46 38 40 33 30 36 33 41 41 35 46 29 33 37 36 32 35 34 32 36 37 39 42 37 39 36 27 41 34 30 32 43 41 35 35 27 28 35 27 33 42 34 35 39 32 47 34 29 33 53 34 43 44 26 29 33 35 36 39 34 32 35 32 28 33 38 31 39 41 38 50 34 31 29 34 35 38 25 32 39 38 33 36 24 36 37 
BTB PER SET COUNT: 46 468 1549 48 33 47 46 34 33 1015 42 1150 49 36 1202 35 2480 2389 1020 580 38 254 30 55 43 137 1937 52 15838 52 46 166 441 544 2982 50 49 30 579 37 1026 32 34 44 1261 1778 561 34 1246 27 35 57 39 37 43 289 41 50 425 1999 38 35 697 81 45 149 15658 244 46 1030 32 276 671 29 1008 650 34 426 1446 59 1145 1497 42 49 501 110 83 39 1164 42 42 39 1984 35 25 1283 42 34 405 45 950 36 41 35 34 52 46 1652 1032 404 239 38 32 40 389 38 222 38 2024 2318 1580 29 1397 1021 422 40 158 1499 29 44 41 33 503 31 1024 45 36 2110 29 48 1027 815 1548 527 35 1272 60 46 34 3633 372 32 1025 1069 805 46 2690 824 40 1197 460 309 2102 144 1142 164 600 31 544 62 49 799 49 38 36 4944 3013 46 43 37 616 30 347 40 46 813 39 36 799 71 669 759 1468 39 640 1882 31 804 76 1186 34 49 356 1887 43 525 4420 40 521 729 46 1503 96 4444 348 51 1291 728 285 61 1921 982 1123 27 325 42 2729 2129 2353 38 1967 2964 34 60 36 147 2815 158 1281 655 53 526 508 31 1020 77 43 7900 1498 598 94 37 529 27 39 38 
To predecode: 0
Predecoding something: 0
Predecode request dropped: 0
sizeofblock_0 0
sizeofblock_1 27180
sizeofblock_2 104775
sizeofblock_3 0
sizeofblock_4 0
sizeofblock_5 0
sizeofblock_6 0
sizeofblock_7 0
sizeofblock_8 0
Variant_0 Correct: 1613178 Incorrect: 0 Accuracy: 1
Variant_1 Correct: 5731693 Incorrect: 0 Accuracy: 1
Variant_2 Correct: 0 Incorrect: 0 Accuracy: -nan
Variant_3 Correct: 0 Incorrect: 0 Accuracy: -nan
