
*** ChampSim Multicore Out-of-Order Simulator ***

Warmup Instructions: 50000000
Simulation Instructions: 50000000
Number of CPUs: 1
LLC sets: 2048
LLC ways: 16
Off-chip DRAM Size: 4096 MB Channels: 1 Width: 64-bit Data Rate: 6400 MT/s
CPU 0 runs ./micro_traces/srv729.trace.gz
.gz
ITLB has LRU replacement policy
DTLB has LRU replacement policy
STLB has LRU replacement policy
FDIP Prefetcher at L1I
L1I has LRU replacement policy
L1D has LRU replacement policy
Initialize SRRIP state for L2C
Initialize DRRIP state for LLC
Heartbeat_Variant_0 : 1362 0.33252 per_variant_size: 0 1362 0 0 0 0 0 0 0 
Heartbeat_Variant_1 : 2628 0.641602 per_variant_size: 0 516 2112 0 0 0 0 0 0 
Heartbeat_Variant_2 : 0 0 per_variant_size: 0 0 0 0 0 0 0 0 0 
Heartbeat_Variant_3 : 0 0 per_variant_size: 0 0 0 0 0 0 0 0 0 
Heartbeat_Variant_0_evicts 0 : 6170 1 : 1047 2 : 0 3 : 0 
Heartbeat_Variant_1_evicts 0 : 974 1 : 0 2 : 0 3 : 0 
Heartbeat_Variant_2_evicts 0 : 0 1 : 0 2 : 0 3 : 0 
Heartbeat_Variant_3_evicts 0 : 0 1 : 0 2 : 0 3 : 0 
Heartbeat CPU 0 instructions: 10000002 cycles: 2798718 heartbeat IPC: 3.57307 cumulative IPC: 3.57307 (Simulation time: 0 hr 1 min 41 sec) 
Heartbeat_Variant_0 : 1370 0.334473 per_variant_size: 0 1370 0 0 0 0 0 0 0 
Heartbeat_Variant_1 : 2625 0.640869 per_variant_size: 0 486 2139 0 0 0 0 0 0 
Heartbeat_Variant_2 : 0 0 per_variant_size: 0 0 0 0 0 0 0 0 0 
Heartbeat_Variant_3 : 0 0 per_variant_size: 0 0 0 0 0 0 0 0 0 
Heartbeat_Variant_0_evicts 0 : 5677 1 : 127 2 : 0 3 : 0 
Heartbeat_Variant_1_evicts 0 : 120 1 : 0 2 : 0 3 : 0 
Heartbeat_Variant_2_evicts 0 : 0 1 : 0 2 : 0 3 : 0 
Heartbeat_Variant_3_evicts 0 : 0 1 : 0 2 : 0 3 : 0 
Heartbeat CPU 0 instructions: 20000002 cycles: 5595062 heartbeat IPC: 3.5761 cumulative IPC: 3.57458 (Simulation time: 0 hr 3 min 17 sec) 
Heartbeat_Variant_0 : 1384 0.337891 per_variant_size: 0 1384 0 0 0 0 0 0 0 
Heartbeat_Variant_1 : 2646 0.645996 per_variant_size: 0 490 2156 0 0 0 0 0 0 
Heartbeat_Variant_2 : 0 0 per_variant_size: 0 0 0 0 0 0 0 0 0 
Heartbeat_Variant_3 : 0 0 per_variant_size: 0 0 0 0 0 0 0 0 0 
Heartbeat_Variant_0_evicts 0 : 5764 1 : 392 2 : 0 3 : 0 
Heartbeat_Variant_1_evicts 0 : 386 1 : 0 2 : 0 3 : 0 
Heartbeat_Variant_2_evicts 0 : 0 1 : 0 2 : 0 3 : 0 
Heartbeat_Variant_3_evicts 0 : 0 1 : 0 2 : 0 3 : 0 
Heartbeat CPU 0 instructions: 30000003 cycles: 8393053 heartbeat IPC: 3.57399 cumulative IPC: 3.57438 (Simulation time: 0 hr 4 min 56 sec) 
Heartbeat_Variant_0 : 1388 0.338867 per_variant_size: 0 1388 0 0 0 0 0 0 0 
Heartbeat_Variant_1 : 2675 0.653076 per_variant_size: 0 388 2287 0 0 0 0 0 0 
Heartbeat_Variant_2 : 0 0 per_variant_size: 0 0 0 0 0 0 0 0 0 
Heartbeat_Variant_3 : 0 0 per_variant_size: 0 0 0 0 0 0 0 0 0 
Heartbeat_Variant_0_evicts 0 : 6102 1 : 1094 2 : 0 3 : 0 
Heartbeat_Variant_1_evicts 0 : 1100 1 : 0 2 : 0 3 : 0 
Heartbeat_Variant_2_evicts 0 : 0 1 : 0 2 : 0 3 : 0 
Heartbeat_Variant_3_evicts 0 : 0 1 : 0 2 : 0 3 : 0 
Heartbeat CPU 0 instructions: 40000001 cycles: 11189184 heartbeat IPC: 3.57637 cumulative IPC: 3.57488 (Simulation time: 0 hr 6 min 35 sec) 
Heartbeat_Variant_0 : 1385 0.338135 per_variant_size: 0 1385 0 0 0 0 0 0 0 
Heartbeat_Variant_1 : 2681 0.654541 per_variant_size: 0 394 2287 0 0 0 0 0 0 
Heartbeat_Variant_2 : 0 0 per_variant_size: 0 0 0 0 0 0 0 0 0 
Heartbeat_Variant_3 : 0 0 per_variant_size: 0 0 0 0 0 0 0 0 0 
Heartbeat_Variant_0_evicts 0 : 5629 1 : 96 2 : 0 3 : 0 
Heartbeat_Variant_1_evicts 0 : 100 1 : 0 2 : 0 3 : 0 
Heartbeat_Variant_2_evicts 0 : 0 1 : 0 2 : 0 3 : 0 
Heartbeat_Variant_3_evicts 0 : 0 1 : 0 2 : 0 3 : 0 
Heartbeat CPU 0 instructions: 50000000 cycles: 13985042 heartbeat IPC: 3.57672 cumulative IPC: 3.57525 (Simulation time: 0 hr 8 min 13 sec) 

Warmup complete CPU 0 instructions: 50000004 cycles: 13985043 (Simulation time: 0 hr 8 min 13 sec) 

Cycle: 20000000 FTQ IN: 58148089 FTQ occupancy: 19.9107 DECODE IN: 58148082 DECODE occupancy: 51.7953 ROB IN: 58148069 ROB occupancy: 312.156 ROB OUT: 58147992
Heartbeat_Variant_0 : 1372 0.334961 per_variant_size: 0 1372 0 0 0 0 0 0 0 
Heartbeat_Variant_1 : 2699 0.658936 per_variant_size: 0 422 2277 0 0 0 0 0 0 
Heartbeat_Variant_2 : 0 0 per_variant_size: 0 0 0 0 0 0 0 0 0 
Heartbeat_Variant_3 : 0 0 per_variant_size: 0 0 0 0 0 0 0 0 0 
Heartbeat_Variant_0_evicts 0 : 5850 1 : 590 2 : 0 3 : 0 
Heartbeat_Variant_1_evicts 0 : 603 1 : 0 2 : 0 3 : 0 
Heartbeat_Variant_2_evicts 0 : 0 1 : 0 2 : 0 3 : 0 
Heartbeat_Variant_3_evicts 0 : 0 1 : 0 2 : 0 3 : 0 
Heartbeat CPU 0 instructions: 60000000 cycles: 21345666 heartbeat IPC: 1.35858 cumulative IPC: 1.35858 (Simulation time: 0 hr 10 min 1 sec) 
Heartbeat_Variant_0 : 1372 0.334961 per_variant_size: 0 1372 0 0 0 0 0 0 0 
Heartbeat_Variant_1 : 2699 0.658936 per_variant_size: 0 419 2280 0 0 0 0 0 0 
Heartbeat_Variant_2 : 0 0 per_variant_size: 0 0 0 0 0 0 0 0 0 
Heartbeat_Variant_3 : 0 0 per_variant_size: 0 0 0 0 0 0 0 0 0 
Heartbeat_Variant_0_evicts 0 : 5609 1 : 10 2 : 0 3 : 0 
Heartbeat_Variant_1_evicts 0 : 10 1 : 0 2 : 0 3 : 0 
Heartbeat_Variant_2_evicts 0 : 0 1 : 0 2 : 0 3 : 0 
Heartbeat_Variant_3_evicts 0 : 0 1 : 0 2 : 0 3 : 0 
Heartbeat CPU 0 instructions: 70000000 cycles: 28561653 heartbeat IPC: 1.38581 cumulative IPC: 1.37206 (Simulation time: 0 hr 11 min 49 sec) 
Cycle: 30000000 FTQ IN: 13852509 FTQ occupancy: 13.0915 DECODE IN: 13852476 DECODE occupancy: 34.1415 ROB IN: 13852473 ROB occupancy: 235.086 ROB OUT: 13852200
Heartbeat_Variant_0 : 1380 0.336914 per_variant_size: 0 1380 0 0 0 0 0 0 0 
Heartbeat_Variant_1 : 2694 0.657715 per_variant_size: 0 409 2285 0 0 0 0 0 0 
Heartbeat_Variant_2 : 0 0 per_variant_size: 0 0 0 0 0 0 0 0 0 
Heartbeat_Variant_3 : 0 0 per_variant_size: 0 0 0 0 0 0 0 0 0 
Heartbeat_Variant_0_evicts 0 : 5770 1 : 286 2 : 0 3 : 0 
Heartbeat_Variant_1_evicts 0 : 278 1 : 0 2 : 0 3 : 0 
Heartbeat_Variant_2_evicts 0 : 0 1 : 0 2 : 0 3 : 0 
Heartbeat_Variant_3_evicts 0 : 0 1 : 0 2 : 0 3 : 0 
Heartbeat CPU 0 instructions: 80000002 cycles: 35887203 heartbeat IPC: 1.36509 cumulative IPC: 1.36973 (Simulation time: 0 hr 13 min 39 sec) 
Cycle: 40000000 FTQ IN: 13717963 FTQ occupancy: 13.1297 DECODE IN: 13717860 DECODE occupancy: 33.8609 ROB IN: 13717816 ROB occupancy: 232.492 ROB OUT: 13717814
Heartbeat_Variant_0 : 1381 0.337158 per_variant_size: 0 1381 0 0 0 0 0 0 0 
Heartbeat_Variant_1 : 2693 0.657471 per_variant_size: 0 401 2292 0 0 0 0 0 0 
Heartbeat_Variant_2 : 0 0 per_variant_size: 0 0 0 0 0 0 0 0 0 
Heartbeat_Variant_3 : 0 0 per_variant_size: 0 0 0 0 0 0 0 0 0 
Heartbeat_Variant_0_evicts 0 : 5593 1 : 21 2 : 0 3 : 0 
Heartbeat_Variant_1_evicts 0 : 20 1 : 0 2 : 0 3 : 0 
Heartbeat_Variant_2_evicts 0 : 0 1 : 0 2 : 0 3 : 0 
Heartbeat_Variant_3_evicts 0 : 0 1 : 0 2 : 0 3 : 0 
Heartbeat CPU 0 instructions: 90000003 cycles: 43076006 heartbeat IPC: 1.39105 cumulative IPC: 1.375 (Simulation time: 0 hr 15 min 27 sec) 
Cycle: 50000000 FTQ IN: 13758337 FTQ occupancy: 13.1221 DECODE IN: 13758377 DECODE occupancy: 33.8746 ROB IN: 13758377 ROB occupancy: 233.617 ROB OUT: 13758381
Heartbeat_Variant_0 : 1384 0.337891 per_variant_size: 0 1384 0 0 0 0 0 0 0 
Heartbeat_Variant_1 : 2692 0.657227 per_variant_size: 0 410 2282 0 0 0 0 0 0 
Heartbeat_Variant_2 : 0 0 per_variant_size: 0 0 0 0 0 0 0 0 0 
Heartbeat_Variant_3 : 0 0 per_variant_size: 0 0 0 0 0 0 0 0 0 
Heartbeat_Variant_0_evicts 0 : 5663 1 : 191 2 : 0 3 : 0 
Heartbeat_Variant_1_evicts 0 : 188 1 : 0 2 : 0 3 : 0 
Heartbeat_Variant_2_evicts 0 : 0 1 : 0 2 : 0 3 : 0 
Heartbeat_Variant_3_evicts 0 : 0 1 : 0 2 : 0 3 : 0 
Heartbeat CPU 0 instructions: 100000000 cycles: 50375537 heartbeat IPC: 1.36995 cumulative IPC: 1.37399 (Simulation time: 0 hr 17 min 39 sec) 
Finished CPU 0 instructions: 50000000 cycles: 36390495 cumulative IPC: 1.37399 (Simulation time: 0 hr 17 min 39 sec) 

ChampSim completed all CPUs

Region of Interest Statistics

CPU 0 cumulative IPC: 1.37399 instructions: 50000000 cycles: 36390495
 Fetch stage stalled: 53.9293  Sim cycles: 36390495 fetch stall cycle: 19625157
 Empty decode stage: 34.9315  Sim cycles: 36390495 fetch stall cycle: 12711753
ITLB TOTAL     ACCESS:    5875983  HIT:    5383355  MISS:     492628  HIT %:    91.6162  MISS %:    8.38375   MPKI: 9.85256
ITLB LOAD TRANSLATION INSTRUCTION	ACCESS:    5749706  HIT:    5257078  MISS:     492628  HIT %:    91.4321  MISS %:    8.56788  MPKI: 9.85256
ITLB TRANSLATION FROM L1D PREFETCHER INSTRUCTION	ACCESS:     126277  HIT:     126277  MISS:          0  HIT %:        100  MISS %:          0  MPKI: 0

ITLB AVERAGE MISS LATENCY: 9.04335 cycles
ITLB RQ	ACCESS:    8008798	FORWARD:          0	MERGED:    1687045	TO_CACHE:    6321753

DTLB TOTAL     ACCESS:    8976301  HIT:    8507546  MISS:     468755  HIT %:    94.7779  MISS %:    5.22214   MPKI: 9.3751
DTLB LOAD TRANSLATION DATA	ACCESS:    8976301  HIT:    8507546  MISS:     468755  HIT %:    94.7779  MISS %:    5.22214  MPKI: 9.3751

DTLB AVERAGE MISS LATENCY: 9.31122 cycles
DTLB RQ	ACCESS:   13339129	FORWARD:          0	MERGED:    4326049	TO_CACHE:    9013080

STLB TOTAL     ACCESS:    1211345  HIT:    1209303  MISS:       2042  HIT %:    99.8314  MISS %:   0.168573   MPKI: 0.04084
STLB LOAD TRANSLATION INSTRUCTION	ACCESS:     492628  HIT:     492361  MISS:        267  HIT %:    99.9458  MISS %:  0.0541991  MPKI: 0.00534
STLB LOAD TRANSLATION DATA	ACCESS:     468754  HIT:     467001  MISS:       1753  HIT %:     99.626  MISS %:    0.37397  MPKI: 0.03506
STLB TRANSLATION FROM L1D PREFETCHER DATA	ACCESS:     249963  HIT:     249941  MISS:         22  HIT %:    99.9912  MISS %:  0.0088013  MPKI: 0.00044

STLB AVERAGE MISS LATENCY: 67.2042 cycles
STLB RQ	ACCESS:    1333131	FORWARD:          0	MERGED:     121750	TO_CACHE:    1211381

STLB Hit, L1D data hit: 0
STLB Hit, L2C data hit: 0
STLB Hit, LLC data hit: 0
STLB Hit, LLC data miss: 0
STLB STLB hints to L2: 0
L1D TOTAL     ACCESS:   13084999  HIT:   11969722  MISS:    1115277  HIT %:    91.4767  MISS %:    8.52333   MPKI: 22.3055
L1D LOAD DATA	ACCESS:    6554951  HIT:    5822333  MISS:     732618  HIT %:    88.8234  MISS %:    11.1766  MPKI: 14.6524
L1D RFO DATA	ACCESS:    6199176  HIT:    5912498  MISS:     286678  HIT %:    95.3755  MISS %:    4.62445  MPKI: 5.73356
L1D PREFETCH DATA	ACCESS:     330872  HIT:     234891  MISS:      95981  HIT %:    70.9915  MISS %:    29.0085  MPKI: 1.91962

L1D PREFETCH  REQUESTED:     743924  ISSUED:     743924  USEFUL:      34858  USELESS:      68852
L1D USEFUL LOAD PREFETCHES:      34858 PREFETCH ISSUED TO LOWER LEVEL:     103769  ACCURACY: 33.5919
 TIMELY PREFETCHES:      34858 LATE PREFETCHES: 7709 DROPPED PREFETCHES: 11
L1D AVERAGE MISS LATENCY: 223538 cycles
L1D RQ	ACCESS:   10701619	FORWARD:          0	MERGED:    3947429	TO_CACHE:    6590079
L1D WQ	ACCESS:    6945027	FORWARD:     164539	MERGED:     195977	TO_CACHE:    6749050
L1D PQ	ACCESS:     372176	FORWARD:          0	MERGED:          0	TO_CACHE:     371748

L1D UNIQUE REGIONS ACCESSED: 0
L1D REGIONS CONFLICTS: 0
L1D Cross Page Prefetch Requests: 6947
L1D Same Page Prefetch Requests: 754507
L1D ROI Sum of L1D PQ occupancy: 4729641
L1D PREFETCHES PUSHED FROM L2C: 0
L1I TOTAL     ACCESS:    7182044  HIT:    4426315  MISS:    2755729  HIT %:    61.6303  MISS %:    38.3697   MPKI: 55.1146
L1I LOAD INSTRUCTION	ACCESS:    6509563  HIT:    3753834  MISS:    2755729  HIT %:    57.6665  MISS %:    42.3335  MPKI: 55.1146
L1I PREFETCH INSTRUCTION	ACCESS:     672481  HIT:     672481  MISS:          0  HIT %:        100  MISS %:          0  MPKI: 0

L1I PREFETCH  REQUESTED:    1605756  ISSUED:    1605756  USEFUL:          0  USELESS:          0
L1I USEFUL LOAD PREFETCHES:          0 PREFETCH ISSUED TO LOWER LEVEL:          0  ACCURACY: -nan
 TIMELY PREFETCHES:          0 LATE PREFETCHES: 0 DROPPED PREFETCHES: 0
L1I AVERAGE MISS LATENCY: 17.4835 cycles
L1I RQ	ACCESS:    9510915	FORWARD:          0	MERGED:    2676747	TO_CACHE:    6834168
L1I PQ	ACCESS:    1605756	FORWARD:          0	MERGED:     431126	TO_CACHE:    1174630

L1BTB TOTAL     ACCESS:    5668388  HIT:    2046589  MISS:    3621799  HIT %:    36.1053  MISS %:    63.8947   MPKI: 72.436
L1BTB BRANCH_DIRECT_JUMP	ACCESS:     548491 HIT:     145196 MISS:     403295 AVERAGE STALL: 50.2956 AVERAGE FETCH STALL: 14.6831 AVERAGE FETCH QUEUE STALL: 16.6195 AVERAGE DECODE STALL: 18.0533 AVERAGE EXECUTE STALL: 2.03404e+15
L1BTB BRANCH_INDIRECT	ACCESS:     182826 HIT:      66013 MISS:     116813 AVERAGE STALL: 103.778 AVERAGE FETCH STALL: 10.8555 AVERAGE FETCH QUEUE STALL: 12.9194 AVERAGE DECODE STALL: 11.5346 AVERAGE EXECUTE STALL: 67.5062
L1BTB BRANCH_CONDITIONAL	ACCESS:    2706488 HIT:    1416002 MISS:    1290486 AVERAGE STALL: 54.9945 AVERAGE FETCH STALL: 22.6452 AVERAGE FETCH QUEUE STALL: 20.2431 AVERAGE DECODE STALL: 11.4186 AVERAGE EXECUTE STALL: 2.31947e+15
L1BTB BRANCH_DIRECT_CALL	ACCESS:     943399 HIT:     106501 MISS:     836898 AVERAGE STALL: 70.7929 AVERAGE FETCH STALL: 22.2772 AVERAGE FETCH QUEUE STALL: 27.5883 AVERAGE DECODE STALL: 20.2843 AVERAGE EXECUTE STALL: 5.90485e+15
L1BTB BRANCH_INDIRECT_CALL	ACCESS:     171893 HIT:      21770 MISS:     150123 AVERAGE STALL: 131.55 AVERAGE FETCH STALL: 14.108 AVERAGE FETCH QUEUE STALL: 12.5768 AVERAGE DECODE STALL: 9.61324 AVERAGE EXECUTE STALL: 94.7631
L1BTB BRANCH_RETURN	ACCESS:    1115291 HIT:     291107 MISS:     824184 AVERAGE STALL: 45.5598 AVERAGE FETCH STALL: 17.1026 AVERAGE FETCH QUEUE STALL: 4.71138 AVERAGE DECODE STALL: 5.74224 AVERAGE EXECUTE STALL: 4.28984e+14
L1BTB BRANCH_OTHER ACCESS:          0 HIT:          0 MISS:          0 AVERAGE STALL: -nan AVERAGE FETCH STALL: -nan AVERAGE FETCH QUEUE STALL: -nan AVERAGE DECODE STALL: -nan AVERAGE EXECUTE STALL: -nan
L1BTB TOTAL ROB OCCUPANCY AT BTB MISS: 2.80027

L2BTB TOTAL     ACCESS:    3596379  HIT:    3525685  MISS:      70694  HIT %:    98.0343  MISS %:     1.9657   MPKI: 1.41388
L2BTB BRANCH_DIRECT_JUMP	ACCESS:     399113 HIT:     394224 MISS:       4889 AVERAGE STALL: 50.2956 AVERAGE FETCH STALL: 14.6831 AVERAGE FETCH QUEUE STALL: 16.6195 AVERAGE DECODE STALL: 18.0533 AVERAGE EXECUTE STALL: 2.03404e+15
L2BTB BRANCH_INDIRECT	ACCESS:     106532 HIT:     103777 MISS:       2755 AVERAGE STALL: 103.778 AVERAGE FETCH STALL: 10.8555 AVERAGE FETCH QUEUE STALL: 12.9194 AVERAGE DECODE STALL: 11.5346 AVERAGE EXECUTE STALL: 67.5062
L2BTB BRANCH_CONDITIONAL	ACCESS:    1290485 HIT:    1282491 MISS:       7994 AVERAGE STALL: 54.9945 AVERAGE FETCH STALL: 22.6452 AVERAGE FETCH QUEUE STALL: 20.2431 AVERAGE DECODE STALL: 11.4186 AVERAGE EXECUTE STALL: 2.31947e+15
L2BTB BRANCH_DIRECT_CALL	ACCESS:     836898 HIT:     833752 MISS:       3146 AVERAGE STALL: 70.7929 AVERAGE FETCH STALL: 22.2772 AVERAGE FETCH QUEUE STALL: 27.5883 AVERAGE DECODE STALL: 20.2843 AVERAGE EXECUTE STALL: 5.90485e+15
L2BTB BRANCH_INDIRECT_CALL	ACCESS:     140566 HIT:     130279 MISS:      10287 AVERAGE STALL: 131.55 AVERAGE FETCH STALL: 14.108 AVERAGE FETCH QUEUE STALL: 12.5768 AVERAGE DECODE STALL: 9.61324 AVERAGE EXECUTE STALL: 94.7631
L2BTB BRANCH_RETURN	ACCESS:     822785 HIT:     781162 MISS:      41623 AVERAGE STALL: 45.5598 AVERAGE FETCH STALL: 17.1026 AVERAGE FETCH QUEUE STALL: 4.71138 AVERAGE DECODE STALL: 5.74224 AVERAGE EXECUTE STALL: 4.28984e+14
L2BTB BRANCH_OTHER ACCESS:          0 HIT:          0 MISS:          0 AVERAGE STALL: -nan AVERAGE FETCH STALL: -nan AVERAGE FETCH QUEUE STALL: -nan AVERAGE DECODE STALL: -nan AVERAGE EXECUTE STALL: -nan
L2BTB TOTAL ROB OCCUPANCY AT BTB MISS: 143.464

L2C TOTAL     ACCESS:    4482366  HIT:    3961735  MISS:     520631  HIT %:    88.3849  MISS %:    11.6151   MPKI: 10.4126
L2C LOAD INSTRUCTION	ACCESS:    2755729  HIT:    2471119  MISS:     284610  HIT %:    89.6721  MISS %:    10.3279  MPKI: 5.6922
L2C LOAD TRANSLATION INSTRUCTION	ACCESS:        302  HIT:         81  MISS:        221  HIT %:    26.8212  MISS %:    73.1788  MPKI: 0.00442
L2C LOAD DATA	ACCESS:     724889  HIT:     645126  MISS:      79763  HIT %:    88.9965  MISS %:    11.0035  MPKI: 1.59526
L2C RFO DATA	ACCESS:     286573  HIT:     225494  MISS:      61079  HIT %:    78.6864  MISS %:    21.3136  MPKI: 1.22158
L2C PREFETCH DATA	ACCESS:     191953  HIT:     115263  MISS:      76690  HIT %:    60.0475  MISS %:    39.9525  MPKI: 1.5338
L2C WRITEBACK DATA	ACCESS:     521044  HIT:     504027  MISS:      17017  HIT %:    96.7341  MISS %:    3.26594  MPKI: 0.34034
L2C LOAD TRANSLATION DATA	ACCESS:       1832  HIT:        591  MISS:       1241  HIT %:    32.2598  MISS %:    67.7402  MPKI: 0.02482
L2C TRANSLATION FROM L1D PREFETCHER DATA	ACCESS:         44  HIT:         34  MISS:         10  HIT %:    77.2727  MISS %:    22.7273  MPKI: 0.0002

L2C PREFETCH  REQUESTED:      96664  ISSUED:      96664  USEFUL:       8364  USELESS:      68880
L2C USEFUL LOAD PREFETCHES:       8364 PREFETCH ISSUED TO LOWER LEVEL:      77182  ACCURACY: 10.8367
 TIMELY PREFETCHES:       8364 LATE PREFETCHES: 492 DROPPED PREFETCHES: 0
L2C AVERAGE MISS LATENCY: 38.2082 cycles
L2C RQ	ACCESS:    3769418	FORWARD:          0	MERGED:          0	TO_CACHE:    3769372
L2C WQ	ACCESS:     521044	FORWARD:         46	MERGED:          0	TO_CACHE:     521044
L2C PQ	ACCESS:     200433	FORWARD:          0	MERGED:       3756	TO_CACHE:     196677

L2C Dense regions hint from L2: 0
PSCL5 TOTAL     ACCESS:       4110  HIT:       2055  MISS:       2055  HIT %:         50  MISS %:         50   MPKI: 0.0411
PSCL5 LOAD TRANSLATION INSTRUCTION	ACCESS:       4022  HIT:       2011  MISS:       2011  HIT %:         50  MISS %:         50  MPKI: 0.04022
PSCL5 TRANSLATION FROM L1D PREFETCHER INSTRUCTION	ACCESS:         88  HIT:         44  MISS:         44  HIT %:         50  MISS %:         50  MPKI: 0.00088


PSCL4 TOTAL     ACCESS:       3907  HIT:       1948  MISS:       1959  HIT %:    49.8592  MISS %:    50.1408   MPKI: 0.03918
PSCL4 LOAD TRANSLATION INSTRUCTION	ACCESS:       2100  HIT:       1908  MISS:        192  HIT %:    90.8571  MISS %:    9.14286  MPKI: 0.00384
PSCL4 TRANSLATION FROM L1D PREFETCHER INSTRUCTION	ACCESS:         43  HIT:         40  MISS:          3  HIT %:    93.0233  MISS %:    6.97674  MPKI: 6e-05
PSCL4 LOAD TRANSLATION DATA	ACCESS:       1727  HIT:          0  MISS:       1727  HIT %:          0  MISS %:        100  MPKI: 0.03454
PSCL4 TRANSLATION FROM L1D PREFETCHER DATA	ACCESS:         37  HIT:          0  MISS:         37  HIT %:          0  MISS %:        100  MPKI: 0.00074


PSCL3 TOTAL     ACCESS:       3953  HIT:       1971  MISS:       1982  HIT %:    49.8609  MISS %:    50.1391   MPKI: 0.03964
PSCL3 LOAD TRANSLATION INSTRUCTION	ACCESS:       2123  HIT:       1931  MISS:        192  HIT %:    90.9562  MISS %:    9.04381  MPKI: 0.00384
PSCL3 TRANSLATION FROM L1D PREFETCHER INSTRUCTION	ACCESS:         43  HIT:         40  MISS:          3  HIT %:    93.0233  MISS %:    6.97674  MPKI: 6e-05
PSCL3 LOAD TRANSLATION DATA	ACCESS:       1750  HIT:          0  MISS:       1750  HIT %:          0  MISS %:        100  MPKI: 0.035
PSCL3 TRANSLATION FROM L1D PREFETCHER DATA	ACCESS:         37  HIT:          0  MISS:         37  HIT %:          0  MISS %:        100  MPKI: 0.00074


PSCL2 TOTAL     ACCESS:       4008  HIT:       1953  MISS:       2055  HIT %:    48.7275  MISS %:    51.2725   MPKI: 0.0411
PSCL2 LOAD TRANSLATION INSTRUCTION	ACCESS:       2175  HIT:       1909  MISS:        266  HIT %:    87.7701  MISS %:    12.2299  MPKI: 0.00532
PSCL2 TRANSLATION FROM L1D PREFETCHER INSTRUCTION	ACCESS:         44  HIT:         44  MISS:          0  HIT %:        100  MISS %:          0  MPKI: 0
PSCL2 LOAD TRANSLATION DATA	ACCESS:       1745  HIT:          0  MISS:       1745  HIT %:          0  MISS %:        100  MPKI: 0.0349
PSCL2 TRANSLATION FROM L1D PREFETCHER DATA	ACCESS:         44  HIT:          0  MISS:         44  HIT %:          0  MISS %:        100  MPKI: 0.00088


LLC TOTAL     ACCESS:     587355  HIT:     557563  MISS:      29792  HIT %:    94.9278  MISS %:    5.07223   MPKI: 0.59584
LLC LOAD INSTRUCTION	ACCESS:     284610  HIT:     283675  MISS:        935  HIT %:    99.6715  MISS %:    0.32852  MPKI: 0.0187
LLC LOAD TRANSLATION INSTRUCTION	ACCESS:        221  HIT:        201  MISS:         20  HIT %:    90.9502  MISS %:    9.04977  MPKI: 0.0004
LLC LOAD DATA	ACCESS:      79278  HIT:      75881  MISS:       3397  HIT %:    95.7151  MISS %:    4.28492  MPKI: 0.06794
LLC RFO DATA	ACCESS:      61028  HIT:      45806  MISS:      15222  HIT %:    75.0574  MISS %:    24.9426  MPKI: 0.30444
LLC PREFETCH DATA	ACCESS:      77181  HIT:      67411  MISS:       9770  HIT %:    87.3414  MISS %:    12.6586  MPKI: 0.1954
LLC WRITEBACK DATA	ACCESS:      83786  HIT:      83395  MISS:        391  HIT %:    99.5333  MISS %:   0.466665  MPKI: 0.00782
LLC LOAD TRANSLATION DATA	ACCESS:       1241  HIT:       1184  MISS:         57  HIT %:    95.4069  MISS %:    4.59307  MPKI: 0.00114
LLC TRANSLATION FROM L1D PREFETCHER DATA	ACCESS:         10  HIT:         10  MISS:          0  HIT %:        100  MISS %:          0  MPKI: 0

LLC AVERAGE MISS LATENCY: 158.911 cycles
LLC RQ	ACCESS:     426432	FORWARD:          0	MERGED:          0	TO_CACHE:     426388
LLC WQ	ACCESS:      83786	FORWARD:         45	MERGED:          0	TO_CACHE:      83786
LLC PQ	ACCESS:      77182	FORWARD:          0	MERGED:          0	TO_CACHE:      77181

LLC Dense regions hint to LLC: 0

RAW hits: 1935508
Loads Generated: 12637127
Loads sent to L1D: 10701619
Stores Generated: 6945028
Stores sent to L1D: 6945027
Major fault: 0 Minor fault: 2673
Allocated PAGES: 2673

stream: 
stream:times selected: 1191998
stream:pref_filled: 122264
stream:pref_useful: 24361
stream:pref_late: 6752
stream:misses: 7897
stream:misses_by_poll: 0

CS: 
CS:times selected: 181238
CS:pref_filled: 60832
CS:pref_useful: 37444
CS:pref_late: 6848
CS:misses: 16661
CS:misses_by_poll: 5

CPLX: 
CPLX:times selected: 1009617
CPLX:pref_filled: 20030
CPLX:pref_useful: 4675
CPLX:pref_late: 3215
CPLX:misses: 92994
CPLX:misses_by_poll: 2

NL_L1: 
NL:times selected: 20975
NL:pref_filled: 783
NL:pref_useful: 365
NL:pref_late: 285
NL:misses: 1790
NL:misses_by_poll: 0

total selections: 2403828
total_filled: 95981
total_useful: 34858
total_late: 18397
total_polluted: 7
total_misses_after_warmup: 767747
conflicts: 5515877

test: 117194

DRAM Statistics
 CHANNEL 0
 RQ ROW_BUFFER_HIT:      11083  ROW_BUFFER_MISS:      18308
 DBUS_CONGESTED:         15
 WQ ROW_BUFFER_HIT:       1383  ROW_BUFFER_MISS:      12935  FULL:          0

 AVG_CONGESTED_CYCLE: 4

CPU 0 Branch Prediction Accuracy: 99.8276% MPKI: 0.31528 Average ROB Occupancy at Mispredict: 188.447
Branch types
NOT_BRANCH: 40857952 81.7159%
BRANCH_DIRECT_JUMP: 548491 1.09698%
BRANCH_INDIRECT: 182826 0.365652%
BRANCH_CONDITIONAL: 6180135 12.3603%
BRANCH_DIRECT_CALL: 943399 1.8868%
BRANCH_INDIRECT_CALL: 171893 0.343786%
BRANCH_RETURN: 1115291 2.23058%
BRANCH_OTHER: 0 0%

DRAM PAGES: 1048576
Allocated PAGES: 2673
Average_ROB_Occupancy: 233.846
Average_Decode_Occupancy: 33.7122
Average_FTQ_Occupancy: 13.0437
Indirect max targets: 14 Average targets: 1.17647
Branch_type:  BRANCH_DIRECT_JUMP:  Count Percentage: 2.73024 6.50098 4.23369 4.85483 2.93805 11.5639 1.60183 65.5765 
Branch_type:  BRANCH_INDIRECT:  Count Percentage: 11.7401 3.4699 2.57193 13.4135 1.33369 8.0462 18.5563 40.8683 
Branch_type:  BRANCH_CONDITIONAL:  Count Percentage: 24.9647 3.42205 1.53611 7.60277 1.86596 6.54964 3.49881 50.56 
Branch_type:  BRANCH_DIRECT_CALL:  Count Percentage: 0.887924 1.48016 1.16017 3.30497 2.87485 4.94682 4.27941 81.0657 
Branch_type:  BRANCH_INDIRECT_CALL:  Count Percentage: 9.5238 0 2.98499 10.6807 1.19656 1.7085 5.12055 68.7849 
Branch_type:  BRANCH_RETURN:  Count Percentage: 8.8002 1.46268 1.4918 10.2361 2.8311 7.1497 4.49094 63.5375 
Branch_type:  BRANCH_DIRECT_JUMP:  Total Count: 29942 71295 46430 53242 32221 126819 17567 719164 
Branch_type:  BRANCH_INDIRECT:  Total Count: 42922 12686 9403 49040 4876 29417 67842 149415 
Branch_type:  BRANCH_CONDITIONAL:  Total Count: 3085133 422897 189833 939550 230595 809404 432383 6248200 
Branch_type:  BRANCH_DIRECT_CALL:  Total Count: 16738 27902 21870 62301 54193 93251 80670 1528146 
Branch_type:  BRANCH_INDIRECT_CALL:  Total Count: 32649 0 10233 36615 4102 5857 17554 235805 
Branch_type:  BRANCH_RETURN:  Total Count: 196137 32600 33249 228140 63099 159351 100093 1416109 
Number of unique branch instructions: 10971
Upper 32 bits: 
aaaa
ffff
ffff0000
Unique upper 32 bits: 3
Unique upper 36 bits: 3
Unique upper 40 bits: 5
Unique upper 44 bits: 32
Unique upper 48 bits: 160
Variant_0 : 1384 0.337891
Variant_1 : 2692 0.657227
Variant_2 : 0 0
Variant_3 : 0 0
Offset_3 4540
Offset_4 284
Offset_5 492
Offset_6 548
Offset_7 649
Offset_8 599
Offset_9 537
Offset_10 425
Offset_11 350
Offset_12 315
Offset_13 243
Offset_14 247
Offset_15 194
Offset_16 230
Offset_17 175
Offset_18 144
Offset_19 262
Offset_20 143
Offset_21 262
Offset_22 408
Offset_23 247
Offset_24 366
Offset_25 117
Offset_47 100
Offset_64 5
decode_dispatch_called: 25358087 69.6833
Dispatch_width: 0 13683698 53.9619 37.6024
Dispatch_width: 1 921458 3.63378 2.53214
Dispatch_width: 2 806163 3.17912 2.21531
Dispatch_width: 3 482174 1.90146 1.325
Dispatch_width: 4 5307927 20.9319 14.586
Dispatch_width: 5 152016 0.599477 0.417735
Dispatch_width: 6 4004651 15.7924 11.0047
Empty_decode_cycles: 11032408 30.3167
ROB_full_cycles: 8504500 23.3701
Starvation_cycles_per_kilo_instr: 238.813
Starvation_cycles_per_kilo_instr_3: 184.214
Starvation_cycles_per_kilo_instr_0: 162.116
Branch_type_1  (3,1)  (4,10)  (5,41)  (6,73)  (7,125)  (8,159)  (9,142)  (10,111)  (11,78)  (12,47)  (13,11)  (14,2)  (15,3)  (16,4)  (18,1)  (19,5)  (20,2)  (21,1)  (22,3)  (23,2)  (24,10)  (25,12) 
Branch_type_2  (3,1)  (4,1)  (5,1)  (8,4)  (9,4)  (10,1)  (12,1)  (13,1)  (14,1)  (16,3)  (17,2)  (20,2)  (21,2)  (23,5)  (24,1)  (47,46) 
Branch_type_3  (3,4538)  (4,273)  (5,446)  (6,458)  (7,492)  (8,366)  (9,294)  (10,171)  (11,133)  (12,54)  (13,10)  (21,1)  (64,4) 
Branch_type_4  (6,3)  (7,8)  (8,29)  (9,57)  (10,68)  (11,72)  (12,118)  (13,104)  (14,111)  (15,92)  (16,101)  (17,83)  (18,61)  (19,127)  (20,72)  (21,141)  (22,214)  (23,139)  (24,213)  (25,101)  (64,1) 
Branch_type_5  (8,3)  (9,1)  (10,4)  (11,5)  (12,3)  (13,14)  (14,16)  (15,11)  (16,22)  (17,11)  (18,23)  (19,15)  (20,12)  (21,13)  (22,43)  (23,26)  (24,42) 
Branch_type_6  (5,4)  (6,14)  (7,24)  (8,38)  (9,39)  (10,70)  (11,62)  (12,92)  (13,103)  (14,117)  (15,88)  (16,100)  (17,79)  (18,59)  (19,115)  (20,55)  (21,104)  (22,148)  (23,75)  (24,100)  (25,4)  (47,54) 
Unique trigger count: 
Variant_0_evicts_0 : 0
Variant_0_evicts_1 : 0
Variant_0_evicts_2 : 0
Variant_0_evicts_3 : 0
Variant_1_evicts_0 : 0
Variant_1_evicts_1 : 0
Variant_1_evicts_2 : 0
Variant_1_evicts_3 : 0
Variant_2_evicts_0 : 0
Variant_2_evicts_1 : 0
Variant_2_evicts_2 : 0
Variant_2_evicts_3 : 0
Variant_3_evicts_0 : 0
Variant_3_evicts_1 : 0
Variant_3_evicts_2 : 0
Variant_3_evicts_3 : 0
BTB PER SET UNIQUE ADDR: 16 16 11 16 11 17 9 13 11 16 11 15 17 11 13 12 10 16 14 13 15 16 12 14 12 17 11 13 17 16 16 14 13 10 13 15 9 12 11 13 11 10 13 19 13 11 14 9 10 8 17 10 14 9 14 8 13 12 11 15 14 18 13 15 16 18 20 16 19 15 11 10 17 13 12 8 11 14 10 19 16 10 13 17 15 14 16 13 15 24 12 11 13 13 10 14 12 16 23 17 22 19 15 11 12 10 19 14 8 14 12 16 16 12 13 10 15 19 13 13 11 11 14 10 9 19 8 14 22 15 11 16 14 17 11 16 11 20 13 23 16 19 11 13 13 12 15 16 10 15 15 13 12 14 14 15 15 13 18 17 17 15 17 19 12 16 14 13 16 11 14 15 12 12 15 15 15 15 13 14 13 12 12 16 19 21 11 12 15 14 11 17 14 17 13 13 11 12 11 13 16 13 10 9 14 16 15 16 10 16 12 15 16 18 14 17 14 18 9 26 9 16 9 11 11 16 18 17 10 16 14 8 13 16 6 10 13 12 17 10 13 13 20 21 11 13 11 10 17 13 17 17 12 13 16 15 13 14 13 14 15 12 6 13 12 13 11 12 17 18 9 13 10 14 12 11 13 17 16 14 10 21 9 11 17 10 13 17 18 14 18 12 16 16 6 14 17 13 14 12 13 12 11 21 15 18 16 13 20 18 12 21 12 18 14 10 17 16 15 21 10 14 13 12 14 18 10 11 13 13 13 20 13 12 13 20 10 16 12 25 10 12 7 17 18 15 12 22 14 14 12 9 16 15 16 11 13 14 15 11 13 18 12 24 12 16 7 14 15 13 13 12 11 14 12 16 10 19 14 18 13 14 8 11 15 14 14 18 13 17 13 11 17 17 11 15 12 11 16 19 14 15 18 15 20 17 17 16 11 12 15 8 9 15 10 15 16 18 20 18 16 14 18 13 16 10 21 11 12 12 19 13 13 13 20 14 10 15 11 21 17 15 13 16 26 13 11 19 15 21 21 22 12 12 16 21 12 11 9 19 12 14 10 17 16 8 12 14 14 18 18 16 17 14 17 18 14 16 10 18 21 15 12 17 12 19 23 18 19 16 12 15 15 13 14 13 17 11 12 18 12 20 14 18 12 11 12 19 16 15 15 19 13 14 18 15 15 24 12 15 10 10 13 9 13 20 23 13 13 19 14 17 18 12 19 17 11 17 17 16 21 16 18 16 22 17 7 19 12 18 17 16 15 13 13 19 11 10 15 19 16 18 11 16 14 19 12 19 17 17 14 19 15 18 15 10 18 19 17 14 11 14 11 14 12 19 16 13 21 13 11 15 15 16 18 15 9 15 15 12 11 15 9 11 11 18 18 14 13 16 20 16 12 12 6 22 10 13 12 16 17 20 13 10 16 16 11 21 11 13 14 18 19 14 12 12 16 16 13 20 13 17 15 13 12 16 12 16 19 12 12 16 12 13 14 15 11 15 14 14 10 9 12 17 15 12 12 15 16 13 18 16 13 18 18 11 19 17 17 20 11 18 11 16 17 15 16 12 15 19 15 16 12 12 13 12 11 17 11 18 13 15 14 14 11 20 16 10 11 13 15 16 13 11 12 15 18 15 11 18 18 10 16 16 13 11 20 11 14 16 19 14 13 12 12 15 15 14 23 11 15 13 16 10 20 14 15 16 13 13 16 10 11 17 14 16 13 14 15 14 18 7 11 13 17 20 12 16 13 15 10 17 16 10 14 12 14 11 17 13 9 18 14 10 16 14 14 15 12 9 12 12 18 17 15 14 8 11 17 7 19 16 24 19 17 9 13 15 19 13 16 19 15 18 18 16 16 20 10 20 13 19 11 13 20 17 12 16 14 17 15 20 23 13 12 16 15 13 15 11 14 15 12 19 11 18 15 20 15 19 14 13 9 16 14 19 24 15 15 12 15 17 10 14 18 10 13 16 17 15 12 18 21 12 14 9 10 9 13 15 19 8 13 18 14 22 17 10 19 15 18 15 19 11 14 19 17 14 9 12 14 13 12 17 12 16 11 16 16 13 11 10 18 15 15 19 18 16 16 18 10 17 10 14 11 12 9 12 12 14 16 15 16 15 11 17 15 12 16 16 10 16 16 15 13 14 14 17 15 19 15 17 10 14 12 12 16 14 17 17 15 16 12 15 17 12 10 14 8 12 13 18 12 11 9 14 19 16 13 13 15 18 19 17 14 17 22 13 18 15 16 17 22 15 15 7 13 19 21 10 21 23 14 16 14 13 9 13 11 16 15 14 13 8 14 12 10 9 12 10 18 20 9 12 
BTB PER SET COUNT: 264 21 1643 29 1474 28 1451 20 1474 20 17 23 31 14 13 13 16 2642 854 37 63 23 15 23 20 25 16 16 35 26 34 28 19 11 24 158 13 16 14 18 18 12 19 38 16 15 32 11 821 9 34 307 20 13 24 110 33 22 332 23 22 27 263 23 24 657 35 734 25 24 1476 511 32 18 18 8 12 24 12 25 442 12 19 507 20 19 26 20 237 40 16 834 186 33 21 17 39 20 34 1900 33 344 19 363 511 14 37 20 9 296 18 20 186 17 19 652 18 23 345 535 18 11 21 14 10 105 12 24 32 1015 15 32 18 26 17 28 466 38 25 40 24 35 23 14 51 27 63 107 15 33 37 301 1232 34 30 23 535 18 219 22 30 60 41 38 19 29 21 29 24 1502 20 24 19 23 24 32 24 23 191 1013 223 149 418 20 34 28 16 16 22 498 15 19 22 30 17 13 16 975 20 334 24 21 976 12 25 22 18 24 980 3156 24 84 29 765 18 473 25 39 2663 57 14 37 19 13 20 28 31 30 15 29 21 8 23 21 6 20483 16 125 135 17 699 26 36 183 15 294 14 15 516 20 21 26 15 17 26 19 96 29 18 25 342 17 6 21 17 14 12 15 449 28 13 20 351 16 776 21 16 27 24 15 16 30 26 16 31 15 17 29 31 18 28 16 33 580 10 16 59 19 17 28 18 18 12 43 22 31 104 440 95 37 19 35 15 29 1786 939 19 32 22 40 23 413 16 21 19 33 12 14 18 20 20 44 25 21 18 33 16 34 18 224 13 1202 10 22 202 18 15 32 18 231 17 419 35 22 26 12 20 20 335 20 17 31 17 32 19 288 12 18 26 19 18 16 18 1494 704 25 14 32 32 364 256 24 785 15 23 20 860 30 17 284 22 13 31 1381 15 103 17 26 1033 286 20 30 147 22 41 25 28 679 20 18 122 12 10 26 14 20 26 27 42 29 31 26 36 16 25 18 1190 22 16 18 77 23 16 27 106 54 14 456 17 33 356 32 60 31 34 15 13 29 22 35 308 218 13 13 123 39 21 13 12 31 41 22 14 27 21 9 1376 18 26 31 28 23 28 20 23 32 19 32 12 29 34 24 15 26 958 509 43 35 29 126 36 17 1721 15 25 26 2030 930 16 20 14 43 23 26 21 21 20 42 26 24 18 35 217 42 27 35 24 39 19 26 12 10 25 10 18 686 80 1494 19 3216 24 25 25 17 30 27 18 500 27 24 41 30 42 28 56 21 11 31 24 662 25 18 95 28 21 29 21 16 21 32 21 36 11 20 23 39 168 37 26 25 95 31 18 31 182 11 27 35 26 28 14 22 23 3571 18 48 29 24 33 17 63 591 19 20 43 26 1944 403 515 14 13 22 13 14 15 33 27 825 15 33 24 30 16 16 6 31 13 18 20 29 37 32 17 686 30 21 15 46 1062 35 21 178 478 19 22 513 31 551 18 40 21 25 20 16 2001 150 17 24 1004 13 13 41 18 17 27 26 18 16 17 57 16 11 29 28 195 19 15 22 2134 23 38 25 1002 23 109 14 41 32 25 46 13 25 982 59 46 23 32 29 137 33 19 26 14 22 24 17 23 36 23 36 468 24 23 19 15 59 26 10 20 22 26 435 283 16 183 154 149 155 37 30 526 663 149 27 60 14 37 19 19 831 39 3659 155 23 23 21 25 18 75 13 497 21 340 33 301 24 513 23 18 29 65 13 67 33 18 18 31 46 18 21 29 9 12 422 2803 32 12 31 27 22 10 198 26 22 23 16 20 902 22 19 1482 24 195 14 22 17 19 25 19 12 14 13 35 27 413 23 182 20 35 328 166 35 557 573 533 12 15 18 36 21 20 1324 27 795 34 1063 21 2559 17 3556 22 1125 18 22 41 32 17 28 22 26 29 44 44 21 38 1936 34 94 76 14 29 215 20 31 181 25 44 33 16 8924 411 1035 21 21 22 28 421 19 20 22 307 23 16 24 533 11 21 29 21 17 16 64 35 19 23 9 13 13 22 26 21 9 16 28 37 425 30 22 35 731 36 697 1410 3516 30 45 25 31 13 17 28 26 19 769 17 41 15 28 29 187 24 11 35 31 28 37 555 288 23 77 14 25 13 25 14 20 11 18 20 28 24 31 1796 28 14 31 21 52 28 24 12 415 18 25 16 20 25 28 22 27 255 1024 1700 3130 17 21 44 23 28 29 19 27 21 18 26 14 1474 19 9 44 55 33 14 13 11 18 28 18 18 19 957 1510 1371 328 25 675 795 1008 36 20 26 22 47 105 139 9 16 1490 32 1683 34 33 21 22 23 15 23 20 19 20 137 652 18 8 20 20 11 372 14 12 28 737 12 29 
To predecode: 0
Predecoding something: 0
Predecode request dropped: 0
sizeofblock_0 0
sizeofblock_1 60023
sizeofblock_2 87437
sizeofblock_3 0
sizeofblock_4 0
sizeofblock_5 0
sizeofblock_6 0
sizeofblock_7 0
sizeofblock_8 0
Variant_0 Correct: 1607024 Incorrect: 0 Accuracy: 1
Variant_1 Correct: 5715393 Incorrect: 0 Accuracy: 1
Variant_2 Correct: 0 Incorrect: 0 Accuracy: -nan
Variant_3 Correct: 0 Incorrect: 0 Accuracy: -nan
