
*** ChampSim Multicore Out-of-Order Simulator ***

Warmup Instructions: 50000000
Simulation Instructions: 50000000
Number of CPUs: 1
LLC sets: 2048
LLC ways: 16
Off-chip DRAM Size: 4096 MB Channels: 1 Width: 64-bit Data Rate: 6400 MT/s
CPU 0 runs ./micro_traces/srv724.trace.gz
.gz
ITLB has LRU replacement policy
DTLB has LRU replacement policy
STLB has LRU replacement policy
FDIP Prefetcher at L1I
L1I has LRU replacement policy
L1D has LRU replacement policy
Initialize SRRIP state for L2C
Initialize DRRIP state for LLC
Heartbeat CPU 0 instructions: 10000000 cycles: 2796402 heartbeat IPC: 3.57602 cumulative IPC: 3.57602 (Simulation time: 0 hr 1 min 52 sec) 
Heartbeat CPU 0 instructions: 20000002 cycles: 5592485 heartbeat IPC: 3.57643 cumulative IPC: 3.57623 (Simulation time: 0 hr 3 min 39 sec) 
Heartbeat CPU 0 instructions: 30000001 cycles: 8389320 heartbeat IPC: 3.57547 cumulative IPC: 3.57598 (Simulation time: 0 hr 5 min 36 sec) 
Heartbeat CPU 0 instructions: 40000000 cycles: 11185270 heartbeat IPC: 3.5766 cumulative IPC: 3.57613 (Simulation time: 0 hr 7 min 26 sec) 
Heartbeat CPU 0 instructions: 50000000 cycles: 13982355 heartbeat IPC: 3.57515 cumulative IPC: 3.57594 (Simulation time: 0 hr 9 min 24 sec) 

Warmup complete CPU 0 instructions: 50000004 cycles: 13982356 (Simulation time: 0 hr 9 min 24 sec) 

Cycle: 20000000 FTQ IN: 58710273 FTQ occupancy: 21.1935 DECODE IN: 58710192 DECODE occupancy: 55.5373 ROB IN: 58710132 ROB occupancy: 331.682 ROB OUT: 58709784
Heartbeat CPU 0 instructions: 60000000 cycles: 20874731 heartbeat IPC: 1.45088 cumulative IPC: 1.45088 (Simulation time: 0 hr 11 min 55 sec) 
Heartbeat CPU 0 instructions: 70000000 cycles: 27692189 heartbeat IPC: 1.46682 cumulative IPC: 1.45881 (Simulation time: 0 hr 14 min 22 sec) 
Cycle: 30000000 FTQ IN: 14564003 FTQ occupancy: 17.2027 DECODE IN: 14563943 DECODE occupancy: 45.5691 ROB IN: 14563943 ROB occupancy: 294.801 ROB OUT: 14563939
Heartbeat CPU 0 instructions: 80000003 cycles: 34663327 heartbeat IPC: 1.43449 cumulative IPC: 1.45061 (Simulation time: 0 hr 16 min 46 sec) 
Cycle: 40000000 FTQ IN: 14578031 FTQ occupancy: 16.8827 DECODE IN: 14578068 DECODE occupancy: 44.8155 ROB IN: 14578068 ROB occupancy: 291.404 ROB OUT: 14578072
Heartbeat CPU 0 instructions: 90000000 cycles: 41468599 heartbeat IPC: 1.46945 cumulative IPC: 1.45527 (Simulation time: 0 hr 19 min 9 sec) 
Heartbeat CPU 0 instructions: 100000000 cycles: 48343650 heartbeat IPC: 1.45453 cumulative IPC: 1.45513 (Simulation time: 0 hr 21 min 27 sec) 
Finished CPU 0 instructions: 50000000 cycles: 34361295 cumulative IPC: 1.45513 (Simulation time: 0 hr 21 min 27 sec) 

ChampSim completed all CPUs

Region of Interest Statistics

CPU 0 cumulative IPC: 1.45513 instructions: 50000000 cycles: 34361295
 Fetch stage stalled: 24.4675  Sim cycles: 34361295 fetch stall cycle: 8407352
 Empty decode stage: 8.39396  Sim cycles: 34361295 fetch stall cycle: 2884275
ITLB TOTAL     ACCESS:    5813211  HIT:    5322879  MISS:     490332  HIT %:    91.5652  MISS %:    8.43479   MPKI: 9.80664
ITLB LOAD TRANSLATION INSTRUCTION	ACCESS:    5654508  HIT:    5164176  MISS:     490332  HIT %:    91.3285  MISS %:    8.67152  MPKI: 9.80664
ITLB TRANSLATION FROM L1D PREFETCHER INSTRUCTION	ACCESS:     158703  HIT:     158703  MISS:          0  HIT %:        100  MISS %:          0  MPKI: 0

ITLB AVERAGE MISS LATENCY: 9.0825 cycles
ITLB RQ	ACCESS:    7834204	FORWARD:          0	MERGED:    1445954	TO_CACHE:    6388250

DTLB TOTAL     ACCESS:    8899566  HIT:    8425029  MISS:     474537  HIT %:    94.6679  MISS %:    5.33214   MPKI: 9.49074
DTLB LOAD TRANSLATION DATA	ACCESS:    8899566  HIT:    8425029  MISS:     474537  HIT %:    94.6679  MISS %:    5.33214  MPKI: 9.49074

DTLB AVERAGE MISS LATENCY: 9.3832 cycles
DTLB RQ	ACCESS:   13275473	FORWARD:          0	MERGED:    4337577	TO_CACHE:    8937896

STLB TOTAL     ACCESS:    1218584  HIT:    1216348  MISS:       2236  HIT %:    99.8165  MISS %:   0.183492   MPKI: 0.04472
STLB LOAD TRANSLATION INSTRUCTION	ACCESS:     490332  HIT:     490044  MISS:        288  HIT %:    99.9413  MISS %:  0.0587357  MPKI: 0.00576
STLB LOAD TRANSLATION DATA	ACCESS:     474536  HIT:     472602  MISS:       1934  HIT %:    99.5924  MISS %:   0.407556  MPKI: 0.03868
STLB TRANSLATION FROM L1D PREFETCHER DATA	ACCESS:     253716  HIT:     253702  MISS:         14  HIT %:    99.9945  MISS %: 0.00551798  MPKI: 0.00028

STLB AVERAGE MISS LATENCY: 83.7004 cycles
STLB RQ	ACCESS:    1352837	FORWARD:          0	MERGED:     134221	TO_CACHE:    1218616

STLB Hit, L1D data hit: 0
STLB Hit, L2C data hit: 0
STLB Hit, LLC data hit: 0
STLB Hit, LLC data miss: 0
STLB STLB hints to L2: 0
L1D TOTAL     ACCESS:   13026298  HIT:   11882681  MISS:    1143617  HIT %:    91.2207  MISS %:    8.77929   MPKI: 22.8723
L1D LOAD DATA	ACCESS:    6512523  HIT:    5759248  MISS:     753275  HIT %:    88.4334  MISS %:    11.5666  MPKI: 15.0655
L1D RFO DATA	ACCESS:    6178621  HIT:    5890721  MISS:     287900  HIT %:    95.3404  MISS %:    4.65962  MPKI: 5.758
L1D PREFETCH DATA	ACCESS:     335154  HIT:     232712  MISS:     102442  HIT %:    69.4343  MISS %:    30.5657  MPKI: 2.04884

L1D PREFETCH  REQUESTED:     776297  ISSUED:     776297  USEFUL:      41957  USELESS:      70868
L1D USEFUL LOAD PREFETCHES:      41957 PREFETCH ISSUED TO LOWER LEVEL:     112848  ACCURACY: 37.1801
 TIMELY PREFETCHES:      41957 LATE PREFETCHES: 10366 DROPPED PREFETCHES: 3
L1D AVERAGE MISS LATENCY: 277663 cycles
L1D RQ	ACCESS:   10667366	FORWARD:          0	MERGED:    3959369	TO_CACHE:    6546559
L1D WQ	ACCESS:    6927438	FORWARD:     161799	MERGED:     198524	TO_CACHE:    6728914
L1D PQ	ACCESS:     388329	FORWARD:          0	MERGED:          0	TO_CACHE:     387968

L1D UNIQUE REGIONS ACCESSED: 0
L1D REGIONS CONFLICTS: 0
L1D Cross Page Prefetch Requests: 6021
L1D Same Page Prefetch Requests: 781815
L1D ROI Sum of L1D PQ occupancy: 4936442
L1D PREFETCHES PUSHED FROM L2C: 0
L1I TOTAL     ACCESS:    7002910  HIT:    4253984  MISS:    2748926  HIT %:    60.7459  MISS %:    39.2541   MPKI: 54.9785
L1I LOAD INSTRUCTION	ACCESS:    6334873  HIT:    3585947  MISS:    2748926  HIT %:    56.6065  MISS %:    43.3935  MPKI: 54.9785
L1I PREFETCH INSTRUCTION	ACCESS:     668037  HIT:     668037  MISS:          0  HIT %:        100  MISS %:          0  MPKI: 0

L1I PREFETCH  REQUESTED:    1674685  ISSUED:    1674685  USEFUL:          0  USELESS:          0
L1I USEFUL LOAD PREFETCHES:          0 PREFETCH ISSUED TO LOWER LEVEL:          0  ACCURACY: -nan
 TIMELY PREFETCHES:          0 LATE PREFETCHES: 0 DROPPED PREFETCHES: 0
L1I AVERAGE MISS LATENCY: 17.3466 cycles
L1I RQ	ACCESS:    9795513	FORWARD:          0	MERGED:    3196859	TO_CACHE:    6598654
L1I PQ	ACCESS:    1674685	FORWARD:          0	MERGED:     439135	TO_CACHE:    1235550

L1BTB TOTAL     ACCESS:    5374169  HIT:    5341621  MISS:      32548  HIT %:    99.3944  MISS %:   0.605638   MPKI: 0.65096
L1BTB BRANCH_DIRECT_JUMP	ACCESS:     547869  HIT:     547869  MISS:          0	AVERAGE STALL: -nan
L1BTB BRANCH_INDIRECT	ACCESS:     182931  HIT:     169975  MISS:      12956	AVERAGE STALL: 123.218
L1BTB BRANCH_CONDITIONAL	ACCESS:    2426793  HIT:    2426793  MISS:          0	AVERAGE STALL: -nan
L1BTB BRANCH_DIRECT_CALL	ACCESS:     938122  HIT:     938122  MISS:          0	AVERAGE STALL: -nan
L1BTB BRANCH_INDIRECT_CALL	ACCESS:     170181  HIT:     150589  MISS:      19592	AVERAGE STALL: 164.199
L1BTB BRANCH_RETURN	ACCESS:    1108273  HIT:    1108273  MISS:          0	AVERAGE STALL: -nan
L1BTB BRANCH_OTHER ACCESS:          0  HIT:          0  MISS:          0	AVERAGE STALL: -nan
L1BTB TOTAL ROB OCCUPANCY AT BTB MISS: 147.572

L2BTB BRANCH_DIRECT_JUMP	ACCESS:          0  HIT:          0  MISS:          0	AVERAGE STALL: -nan
L2BTB BRANCH_INDIRECT	ACCESS:          0  HIT:          0  MISS:          0	AVERAGE STALL: 123.218
L2BTB BRANCH_CONDITIONAL	ACCESS:          0  HIT:          0  MISS:          0	AVERAGE STALL: -nan
L2BTB BRANCH_DIRECT_CALL	ACCESS:          0  HIT:          0  MISS:          0	AVERAGE STALL: -nan
L2BTB BRANCH_INDIRECT_CALL	ACCESS:          0  HIT:          0  MISS:          0	AVERAGE STALL: 164.199
L2BTB BRANCH_RETURN	ACCESS:          0  HIT:          0  MISS:          0	AVERAGE STALL: -nan
L2BTB BRANCH_OTHER ACCESS:          0  HIT:          0  MISS:          0	AVERAGE STALL: -nan
L2BTB TOTAL ROB OCCUPANCY AT BTB MISS: inf

L2C TOTAL     ACCESS:    4503119  HIT:    4040396  MISS:     462723  HIT %:    89.7244  MISS %:    10.2756   MPKI: 9.25446
L2C LOAD INSTRUCTION	ACCESS:    2748929  HIT:    2500655  MISS:     248274  HIT %:    90.9683  MISS %:    9.03166  MPKI: 4.96548
L2C LOAD TRANSLATION INSTRUCTION	ACCESS:        337  HIT:         99  MISS:        238  HIT %:    29.3769  MISS %:    70.6231  MPKI: 0.00476
L2C LOAD DATA	ACCESS:     742870  HIT:     667562  MISS:      75308  HIT %:    89.8626  MISS %:    10.1374  MPKI: 1.50616
L2C RFO DATA	ACCESS:     287833  HIT:     238168  MISS:      49665  HIT %:    82.7452  MISS %:    17.2548  MPKI: 0.9933
L2C PREFETCH DATA	ACCESS:     195465  HIT:     119015  MISS:      76450  HIT %:    60.8881  MISS %:    39.1119  MPKI: 1.529
L2C WRITEBACK DATA	ACCESS:     525605  HIT:     514329  MISS:      11276  HIT %:    97.8547  MISS %:    2.14534  MPKI: 0.22552
L2C LOAD TRANSLATION DATA	ACCESS:       2054  HIT:        550  MISS:       1504  HIT %:     26.777  MISS %:     73.223  MPKI: 0.03008
L2C TRANSLATION FROM L1D PREFETCHER DATA	ACCESS:         26  HIT:         18  MISS:          8  HIT %:    69.2308  MISS %:    30.7692  MPKI: 0.00016

L2C PREFETCH  REQUESTED:      90355  ISSUED:      90355  USEFUL:       8640  USELESS:      68573
L2C USEFUL LOAD PREFETCHES:       8640 PREFETCH ISSUED TO LOWER LEVEL:      77037  ACCURACY: 11.2154
 TIMELY PREFETCHES:       8640 LATE PREFETCHES: 587 DROPPED PREFETCHES: 0
L2C AVERAGE MISS LATENCY: 40.4539 cycles
L2C RQ	ACCESS:    3782118	FORWARD:          0	MERGED:          0	TO_CACHE:    3782053
L2C WQ	ACCESS:     525605	FORWARD:         68	MERGED:          0	TO_CACHE:     525605
L2C PQ	ACCESS:     203203	FORWARD:          0	MERGED:       3583	TO_CACHE:     199617

L2C Dense regions hint from L2: 0
PSCL5 TOTAL     ACCESS:       4478  HIT:       2239  MISS:       2239  HIT %:         50  MISS %:         50   MPKI: 0.04478
PSCL5 LOAD TRANSLATION INSTRUCTION	ACCESS:       4426  HIT:       2213  MISS:       2213  HIT %:         50  MISS %:         50  MPKI: 0.04426
PSCL5 TRANSLATION FROM L1D PREFETCHER INSTRUCTION	ACCESS:         52  HIT:         26  MISS:         26  HIT %:         50  MISS %:         50  MPKI: 0.00052


PSCL4 TOTAL     ACCESS:       4273  HIT:       2128  MISS:       2145  HIT %:    49.8011  MISS %:    50.1989   MPKI: 0.0429
PSCL4 LOAD TRANSLATION INSTRUCTION	ACCESS:       2260  HIT:       2102  MISS:        158  HIT %:    93.0088  MISS %:    6.99115  MPKI: 0.00316
PSCL4 TRANSLATION FROM L1D PREFETCHER INSTRUCTION	ACCESS:         26  HIT:         26  MISS:          0  HIT %:        100  MISS %:          0  MPKI: 0
PSCL4 LOAD TRANSLATION DATA	ACCESS:       1961  HIT:          0  MISS:       1961  HIT %:          0  MISS %:        100  MPKI: 0.03922
PSCL4 TRANSLATION FROM L1D PREFETCHER DATA	ACCESS:         26  HIT:          0  MISS:         26  HIT %:          0  MISS %:        100  MPKI: 0.00052


PSCL3 TOTAL     ACCESS:       4357  HIT:       2170  MISS:       2187  HIT %:    49.8049  MISS %:    50.1951   MPKI: 0.04374
PSCL3 LOAD TRANSLATION INSTRUCTION	ACCESS:       2302  HIT:       2144  MISS:        158  HIT %:    93.1364  MISS %:     6.8636  MPKI: 0.00316
PSCL3 TRANSLATION FROM L1D PREFETCHER INSTRUCTION	ACCESS:         26  HIT:         26  MISS:          0  HIT %:        100  MISS %:          0  MPKI: 0
PSCL3 LOAD TRANSLATION DATA	ACCESS:       2003  HIT:          0  MISS:       2003  HIT %:          0  MISS %:        100  MPKI: 0.04006
PSCL3 TRANSLATION FROM L1D PREFETCHER DATA	ACCESS:         26  HIT:          0  MISS:         26  HIT %:          0  MISS %:        100  MPKI: 0.00052


PSCL2 TOTAL     ACCESS:       4332  HIT:       2093  MISS:       2239  HIT %:    48.3149  MISS %:    51.6851   MPKI: 0.04478
PSCL2 LOAD TRANSLATION INSTRUCTION	ACCESS:       2368  HIT:       2067  MISS:        301  HIT %:    87.2889  MISS %:    12.7111  MPKI: 0.00602
PSCL2 TRANSLATION FROM L1D PREFETCHER INSTRUCTION	ACCESS:         26  HIT:         26  MISS:          0  HIT %:        100  MISS %:          0  MPKI: 0
PSCL2 LOAD TRANSLATION DATA	ACCESS:       1912  HIT:          0  MISS:       1912  HIT %:          0  MISS %:        100  MPKI: 0.03824
PSCL2 TRANSLATION FROM L1D PREFETCHER DATA	ACCESS:         26  HIT:          0  MISS:         26  HIT %:          0  MISS %:        100  MPKI: 0.00052


LLC TOTAL     ACCESS:     521887  HIT:     489743  MISS:      32144  HIT %:    93.8408  MISS %:    6.15919   MPKI: 0.64288
LLC LOAD INSTRUCTION	ACCESS:     248274  HIT:     246884  MISS:       1390  HIT %:    99.4401  MISS %:   0.559865  MPKI: 0.0278
LLC LOAD TRANSLATION INSTRUCTION	ACCESS:        238  HIT:        188  MISS:         50  HIT %:    78.9916  MISS %:    21.0084  MPKI: 0.001
LLC LOAD DATA	ACCESS:      74783  HIT:      70915  MISS:       3868  HIT %:    94.8277  MISS %:     5.1723  MPKI: 0.07736
LLC RFO DATA	ACCESS:      49595  HIT:      33599  MISS:      15996  HIT %:    67.7467  MISS %:    32.2533  MPKI: 0.31992
LLC PREFETCH DATA	ACCESS:      77037  HIT:      66753  MISS:      10284  HIT %:    86.6506  MISS %:    13.3494  MPKI: 0.20568
LLC WRITEBACK DATA	ACCESS:      70448  HIT:      70021  MISS:        427  HIT %:    99.3939  MISS %:   0.606121  MPKI: 0.00854
LLC LOAD TRANSLATION DATA	ACCESS:       1504  HIT:       1376  MISS:        128  HIT %:    91.4894  MISS %:    8.51064  MPKI: 0.00256
LLC TRANSLATION FROM L1D PREFETCHER DATA	ACCESS:          8  HIT:          7  MISS:          1  HIT %:       87.5  MISS %:       12.5  MPKI: 2e-05

LLC AVERAGE MISS LATENCY: 159.522 cycles
LLC RQ	ACCESS:     374410	FORWARD:          0	MERGED:          0	TO_CACHE:     374402
LLC WQ	ACCESS:      70448	FORWARD:          8	MERGED:          0	TO_CACHE:      70448
LLC PQ	ACCESS:      77037	FORWARD:          0	MERGED:          0	TO_CACHE:      77037

LLC Dense regions hint to LLC: 0

RAW hits: 1962907
Loads Generated: 12630272
Loads sent to L1D: 10667366
Stores Generated: 6927428
Stores sent to L1D: 6927438
Major fault: 0 Minor fault: 2623
Allocated PAGES: 2623

stream: 
stream:times selected: 1229495
stream:pref_filled: 127357
stream:pref_useful: 27751
stream:pref_late: 8145
stream:misses: 9129
stream:misses_by_poll: 0

CS: 
CS:times selected: 188434
CS:pref_filled: 68619
CS:pref_useful: 44420
CS:pref_late: 8826
CS:misses: 21890
CS:misses_by_poll: 7

CPLX: 
CPLX:times selected: 1039883
CPLX:pref_filled: 23296
CPLX:pref_useful: 7287
CPLX:pref_late: 3012
CPLX:misses: 115834
CPLX:misses_by_poll: 1

NL_L1: 
NL:times selected: 12843
NL:pref_filled: 1402
NL:pref_useful: 172
NL:pref_late: 319
NL:misses: 1623
NL:misses_by_poll: 0

total selections: 2470655
total_filled: 102442
total_useful: 41957
total_late: 21946
total_polluted: 8
total_misses_after_warmup: 787311
conflicts: 5482014

test: 121066

DRAM Statistics
 CHANNEL 0
 RQ ROW_BUFFER_HIT:      11832  ROW_BUFFER_MISS:      19860
 DBUS_CONGESTED:         12
 WQ ROW_BUFFER_HIT:       1552  ROW_BUFFER_MISS:      13421  FULL:          0

 AVG_CONGESTED_CYCLE: 5

CPU 0 Branch Prediction Accuracy: 99.8135% MPKI: 0.34118 Average ROB Occupancy at Mispredict: 198.518
Branch types
NOT_BRANCH: 40852251 81.7045%
BRANCH_DIRECT_JUMP: 547869 1.09574%
BRANCH_INDIRECT: 182931 0.365862%
BRANCH_CONDITIONAL: 6200262 12.4005%
BRANCH_DIRECT_CALL: 938122 1.87624%
BRANCH_INDIRECT_CALL: 170181 0.340362%
BRANCH_RETURN: 1108273 2.21655%
BRANCH_OTHER: 0 0%

DRAM PAGES: 1048576
Allocated PAGES: 2623
Average_ROB_Occupancy: 294.886
Average_Decode_Occupancy: 45.3056
Average_FTQ_Occupancy: 17.0959
Indirect max targets: 14 Average targets: 1.17363
Branch_type:  BRANCH_DIRECT_JUMP:  Count Percentage: 2.11367 6.30178 4.72494 9.16676 2.22831 5.96435 1.93028 67.5699 
Branch_type:  BRANCH_INDIRECT:  Count Percentage: 6.14968 3.46303 8.15364 0 1.33524 9.68531 5.20893 66.0042 
Branch_type:  BRANCH_CONDITIONAL:  Count Percentage: 22.1427 6.41834 1.81536 5.32997 1.52194 4.58007 2.77175 55.4199 
Branch_type:  BRANCH_DIRECT_CALL:  Count Percentage: 0.260061 1.98025 1.2905 4.76859 1.91011 2.53749 3.35922 83.8938 
Branch_type:  BRANCH_INDIRECT_CALL:  Count Percentage: 9.57705 0 3.00282 8.72254 0 2.55122 6.4367 69.7097 
Branch_type:  BRANCH_RETURN:  Count Percentage: 4.10786 5.43976 0.726079 6.17832 3.69924 6.01698 4.18382 69.6479 
Branch_type:  BRANCH_DIRECT_JUMP:  Total Count: 23120 68931 51683 100269 24374 65240 21114 739102 
Branch_type:  BRANCH_INDIRECT:  Total Count: 22448 12641 29763 0 4874 35354 19014 240933 
Branch_type:  BRANCH_CONDITIONAL:  Total Count: 2745149 795717 225060 660786 188683 567817 343629 6870716 
Branch_type:  BRANCH_DIRECT_CALL:  Total Count: 4883 37182 24231 89537 35865 47645 63074 1575223 
Branch_type:  BRANCH_INDIRECT_CALL:  Total Count: 32659 0 10240 29745 0 8700 21950 237719 
Branch_type:  BRANCH_RETURN:  Total Count: 91172 120733 16115 137125 82103 133544 92858 1545804 
Number of unique branch instructions: 10364
Upper 32 bits: 
aaaa
ffff
ffff0000
Unique upper 32 bits: 3
Unique upper 36 bits: 3
Unique upper 40 bits: 5
Unique upper 44 bits: 32
Unique upper 48 bits: 157
Offset_3 4292
Offset_4 258
Offset_5 467
Offset_6 525
Offset_7 610
Offset_8 550
Offset_9 489
Offset_10 406
Offset_11 328
Offset_12 293
Offset_13 220
Offset_14 229
Offset_15 203
Offset_16 222
Offset_17 153
Offset_18 144
Offset_19 249
Offset_20 138
Offset_21 235
Offset_22 399
Offset_23 243
Offset_24 336
Offset_25 114
Offset_47 90
decode_dispatch_called: 27618084 80.3756
Dispatch_width: 0 14333351 51.8984 41.7137
Dispatch_width: 1 1269762 4.59757 3.69533
Dispatch_width: 2 1036306 3.75227 3.01591
Dispatch_width: 3 605707 2.19315 1.76276
Dispatch_width: 4 8662731 31.3662 25.2107
Dispatch_width: 5 71793 0.259949 0.208936
Dispatch_width: 6 1638434 5.93247 4.76825
Empty_decode_cycles: 6743211 19.6244
ROB_full_cycles: 13858434 40.3315
Starvation_cycles_per_kilo_instr: 188.644
Starvation_cycles_per_kilo_instr_3: 101.299
Starvation_cycles_per_kilo_instr_0: 72.1813
Branch_type_1  (3,1)  (4,9)  (5,38)  (6,73)  (7,122)  (8,144)  (9,132)  (10,108)  (11,75)  (12,47)  (13,11)  (14,2)  (15,3)  (16,4)  (18,1)  (19,5)  (20,2)  (21,1)  (22,3)  (23,2)  (24,10)  (25,12) 
Branch_type_2  (3,1)  (4,1)  (5,1)  (8,4)  (9,4)  (10,1)  (12,1)  (13,1)  (14,1)  (16,3)  (17,2)  (20,2)  (21,2)  (23,5)  (24,1)  (47,40) 
Branch_type_3  (3,4290)  (4,248)  (5,424)  (6,436)  (7,460)  (8,339)  (9,266)  (10,162)  (11,126)  (12,56)  (13,10)  (22,1) 
Branch_type_4  (6,3)  (7,8)  (8,25)  (9,53)  (10,64)  (11,65)  (12,103)  (13,92)  (14,102)  (15,97)  (16,97)  (17,69)  (18,61)  (19,121)  (20,71)  (21,124)  (22,208)  (23,137)  (24,192)  (25,98) 
Branch_type_5  (8,3)  (9,1)  (10,4)  (11,5)  (12,3)  (13,14)  (14,16)  (15,11)  (16,22)  (17,11)  (18,23)  (19,14)  (20,11)  (21,13)  (22,43)  (23,26)  (24,37) 
Branch_type_6  (5,4)  (6,13)  (7,20)  (8,35)  (9,33)  (10,67)  (11,57)  (12,83)  (13,92)  (14,108)  (15,92)  (16,96)  (17,71)  (18,59)  (19,109)  (20,52)  (21,95)  (22,144)  (23,73)  (24,96)  (25,4)  (47,50) 
Unique trigger count: 
BTB PER SET UNIQUE ADDR: 0 0 0 0 0 0 0 0 0 0 0 0 0 0 0 0 0 0 0 0 0 0 0 0 0 0 0 0 0 0 0 0 0 0 0 0 0 0 0 0 0 0 0 0 0 0 0 0 0 0 0 0 0 0 0 0 0 0 0 0 0 0 0 0 0 0 0 0 0 0 0 0 0 0 0 0 0 0 0 0 0 0 0 0 0 0 0 0 0 0 0 0 0 0 0 0 0 0 0 0 0 0 0 0 0 0 0 0 0 0 0 0 0 0 0 0 0 0 0 0 0 0 0 0 0 0 0 0 0 0 0 0 0 0 0 0 0 0 0 0 0 0 0 0 0 0 0 0 0 0 0 0 0 0 0 0 0 0 0 0 0 0 0 0 0 0 0 0 0 0 0 0 0 0 0 0 0 0 0 0 0 0 0 0 0 0 0 0 0 0 0 0 0 0 0 0 0 0 0 0 0 0 0 0 0 0 0 0 0 0 0 0 0 0 0 0 0 0 0 0 0 0 0 0 0 0 0 0 0 0 0 0 0 0 0 0 0 0 0 0 0 0 0 0 0 0 0 0 0 0 0 0 0 0 0 0 0 0 0 0 0 0 0 0 0 0 0 0 0 0 0 0 0 0 0 0 0 0 0 0 0 0 0 0 0 0 0 0 0 0 0 0 0 0 0 0 0 0 0 0 0 0 0 0 0 0 0 0 0 0 0 0 0 0 0 0 0 0 0 0 0 0 0 0 0 0 0 0 0 0 0 0 0 0 0 0 0 0 0 0 0 0 0 0 0 0 0 0 0 0 0 0 0 0 0 0 0 0 0 0 0 0 0 0 0 0 0 0 0 0 0 0 0 0 0 0 0 0 0 0 0 0 0 0 0 0 0 0 0 0 0 0 0 0 0 0 0 0 0 0 0 0 0 0 0 0 0 0 0 0 0 0 0 0 0 0 0 0 0 0 0 0 0 0 0 0 0 0 0 0 0 0 0 0 0 0 0 0 0 0 0 0 0 0 0 0 0 0 0 0 0 0 0 0 0 0 0 0 0 0 0 0 0 0 0 0 0 0 0 0 0 0 0 0 0 0 0 0 0 0 0 0 0 0 0 0 0 0 0 0 0 0 0 0 0 0 0 0 0 0 0 0 0 0 0 0 0 0 0 0 0 0 0 0 0 0 0 0 0 0 0 0 0 0 0 0 0 0 0 0 0 0 0 0 0 0 0 0 0 0 0 0 0 0 0 0 0 0 0 0 0 0 0 0 0 0 0 0 0 0 0 0 0 0 0 0 0 0 0 0 0 0 0 0 0 0 0 0 0 0 0 0 0 0 0 0 0 0 0 0 0 0 0 0 0 0 0 0 0 0 0 0 0 0 0 0 0 0 0 0 0 0 0 0 0 0 0 0 0 0 0 0 0 0 0 0 0 0 0 0 0 0 0 0 0 0 0 0 0 0 0 0 0 0 0 0 0 0 0 0 0 0 0 0 0 0 0 0 0 0 0 0 0 0 0 0 0 0 0 0 0 0 0 0 0 0 0 0 0 0 0 0 0 0 0 0 0 0 0 0 0 0 0 0 0 0 0 0 0 0 0 0 0 0 0 0 0 0 0 0 0 0 0 0 0 0 0 0 0 0 0 0 0 0 0 0 0 0 0 0 0 0 0 0 0 0 0 0 0 0 0 0 0 0 0 0 0 0 0 0 0 0 0 0 0 0 0 0 0 0 0 0 0 0 0 0 0 0 0 0 0 0 0 0 0 0 0 0 0 0 0 0 0 0 0 0 0 0 0 0 0 0 0 0 0 0 0 0 0 0 0 0 0 0 0 0 0 0 0 0 0 0 0 0 0 0 0 0 0 0 0 0 0 0 0 0 0 0 0 0 0 0 0 0 0 0 0 0 0 0 0 0 0 0 0 0 0 0 0 0 0 0 0 0 0 0 0 0 0 0 0 0 0 0 0 0 0 0 0 0 0 0 0 0 0 0 0 0 0 0 0 0 0 0 0 0 0 0 0 0 0 0 0 0 0 0 0 0 0 0 0 0 0 0 0 0 0 0 0 0 0 0 0 0 0 0 0 0 0 0 0 0 0 0 0 0 0 0 0 0 0 0 0 0 0 0 0 0 0 0 0 0 0 0 0 0 0 0 0 0 0 0 0 0 0 0 0 0 0 0 0 0 0 0 0 0 0 0 0 0 0 0 0 0 0 0 0 0 0 0 0 0 0 0 0 0 0 0 0 0 0 0 0 0 0 0 0 0 0 0 0 0 0 0 0 0 0 0 0 0 0 0 0 0 0 0 0 0 0 0 0 0 0 0 0 0 0 0 0 0 0 0 0 0 0 0 0 0 0 0 0 0 0 0 0 0 0 0 0 0 0 0 0 0 0 0 0 0 0 0 0 0 0 0 0 0 0 0 0 0 0 0 0 0 0 0 0 0 0 0 0 0 0 0 0 0 0 0 0 0 0 0 0 0 0 0 0 0 0 0 0 0 0 0 0 0 0 0 0 0 0 0 0 0 0 0 0 0 0 0 0 0 0 0 0 0 0 0 0 0 0 0 0 0 0 0 0 0 0 0 0 0 0 0 0 0 0 0 0 0 0 0 0 0 0 0 0 0 0 0 0 0 0 0 0 0 0 0 0 0 0 0 0 0 0 0 0 0 0 0 0 0 0 0 0 0 0 0 0 0 0 0 0 0 0 0 0 0 0 0 0 0 0 0 0 0 0 0 0 0 0 0 0 0 0 0 0 0 0 0 0 0 0 0 0 0 0 0 0 0 0 0 0 0 0 0 0 0 0 0 0 0 0 0 0 0 0 0 0 0 0 0 0 0 0 0 0 0 0 0 0 0 0 0 0 0 0 0 0 0 0 0 0 0 0 0 0 0 0 0 0 0 0 0 0 0 0 0 0 0 0 0 0 0 0 0 0 0 0 0 0 0 0 0 0 0 0 0 0 0 0 0 0 0 0 0 0 0 0 0 0 0 0 0 0 0 0 0 0 0 0 0 0 0 0 0 0 0 0 0 0 0 0 0 0 0 0 0 0 0 0 0 0 0 0 0 0 0 0 0 0 0 0 0 0 0 0 0 0 0 0 0 0 0 0 0 0 0 0 0 0 0 0 0 0 0 0 0 0 0 0 0 0 0 0 0 0 0 0 0 0 0 0 0 0 0 0 0 0 0 0 0 0 0 0 0 0 0 0 0 0 0 0 0 0 0 0 0 0 0 0 0 0 0 0 0 0 0 0 0 0 0 0 0 0 0 0 0 0 0 0 0 0 0 0 0 0 0 0 0 0 0 0 0 0 0 0 0 0 0 0 0 0 0 0 0 0 0 0 0 0 0 0 0 0 0 0 0 0 0 0 0 0 0 0 0 0 0 0 0 0 0 0 0 0 0 0 0 0 0 0 0 0 0 0 0 0 0 0 0 0 0 0 0 0 0 0 0 0 0 0 0 0 0 0 0 0 0 0 0 0 0 0 0 0 0 0 0 0 0 0 0 0 0 0 0 0 0 0 0 0 0 0 0 0 0 0 0 0 0 0 0 0 0 0 0 0 0 0 0 0 0 0 0 0 0 0 0 0 0 0 0 0 0 0 0 0 0 0 0 0 0 0 0 0 0 0 0 0 0 0 0 0 0 0 0 0 0 0 0 0 0 0 0 0 0 0 0 0 0 0 0 0 0 0 0 0 0 0 0 0 0 0 0 0 0 0 0 0 0 0 0 0 0 0 0 0 0 0 0 0 0 0 0 0 0 0 0 0 0 0 0 0 0 0 0 0 0 0 0 0 0 0 0 0 0 0 0 0 0 0 0 0 0 0 0 0 0 0 0 0 0 0 0 0 0 0 0 0 0 0 0 0 0 0 0 0 0 0 0 0 0 0 0 0 0 0 0 0 0 0 0 0 0 0 0 0 0 0 0 0 0 0 0 0 0 0 0 0 0 0 0 0 0 0 0 0 0 0 0 0 0 0 0 0 0 0 0 0 0 0 0 0 0 0 0 0 0 0 0 0 0 0 0 0 0 0 0 0 0 0 0 0 0 0 0 0 0 0 0 0 0 0 0 0 0 0 0 0 0 0 0 0 0 0 0 0 0 0 0 0 0 0 0 0 0 0 0 0 0 0 0 0 0 0 0 0 0 0 0 0 0 0 0 0 0 0 0 0 0 0 0 0 0 0 0 0 0 0 0 0 0 0 0 0 0 0 0 0 0 0 0 0 0 0 0 0 0 0 0 0 0 0 0 0 0 0 0 0 0 0 0 0 0 0 0 0 0 0 0 0 0 0 0 0 0 0 0 0 0 0 0 0 0 0 0 0 0 0 0 0 0 0 0 0 0 0 0 0 0 0 0 0 0 0 0 0 0 0 0 0 0 0 0 0 0 0 0 0 0 0 0 0 0 0 0 0 0 0 0 0 0 0 0 0 0 0 0 0 0 0 0 0 0 0 0 0 0 0 0 0 0 0 0 0 0 0 0 0 0 0 0 0 0 0 0 0 0 0 0 0 0 0 0 0 0 0 0 0 0 0 0 0 0 0 0 0 0 0 0 0 0 0 0 0 0 0 0 0 0 0 0 0 0 0 0 0 0 0 0 0 0 0 0 0 0 0 0 
BTB PER SET COUNT: 0 0 0 0 0 0 0 0 0 0 0 0 0 0 0 0 0 0 0 0 0 0 0 0 0 0 0 0 0 0 0 0 0 0 0 0 0 0 0 0 0 0 0 0 0 0 0 0 0 0 0 0 0 0 0 0 0 0 0 0 0 0 0 0 0 0 0 0 0 0 0 0 0 0 0 0 0 0 0 0 0 0 0 0 0 0 0 0 0 0 0 0 0 0 0 0 0 0 0 0 0 0 0 0 0 0 0 0 0 0 0 0 0 0 0 0 0 0 0 0 0 0 0 0 0 0 0 0 0 0 0 0 0 0 0 0 0 0 0 0 0 0 0 0 0 0 0 0 0 0 0 0 0 0 0 0 0 0 0 0 0 0 0 0 0 0 0 0 0 0 0 0 0 0 0 0 0 0 0 0 0 0 0 0 0 0 0 0 0 0 0 0 0 0 0 0 0 0 0 0 0 0 0 0 0 0 0 0 0 0 0 0 0 0 0 0 0 0 0 0 0 0 0 0 0 0 0 0 0 0 0 0 0 0 0 0 0 0 0 0 0 0 0 0 0 0 0 0 0 0 0 0 0 0 0 0 0 0 0 0 0 0 0 0 0 0 0 0 0 0 0 0 0 0 0 0 0 0 0 0 0 0 0 0 0 0 0 0 0 0 0 0 0 0 0 0 0 0 0 0 0 0 0 0 0 0 0 0 0 0 0 0 0 0 0 0 0 0 0 0 0 0 0 0 0 0 0 0 0 0 0 0 0 0 0 0 0 0 0 0 0 0 0 0 0 0 0 0 0 0 0 0 0 0 0 0 0 0 0 0 0 0 0 0 0 0 0 0 0 0 0 0 0 0 0 0 0 0 0 0 0 0 0 0 0 0 0 0 0 0 0 0 0 0 0 0 0 0 0 0 0 0 0 0 0 0 0 0 0 0 0 0 0 0 0 0 0 0 0 0 0 0 0 0 0 0 0 0 0 0 0 0 0 0 0 0 0 0 0 0 0 0 0 0 0 0 0 0 0 0 0 0 0 0 0 0 0 0 0 0 0 0 0 0 0 0 0 0 0 0 0 0 0 0 0 0 0 0 0 0 0 0 0 0 0 0 0 0 0 0 0 0 0 0 0 0 0 0 0 0 0 0 0 0 0 0 0 0 0 0 0 0 0 0 0 0 0 0 0 0 0 0 0 0 0 0 0 0 0 0 0 0 0 0 0 0 0 0 0 0 0 0 0 0 0 0 0 0 0 0 0 0 0 0 0 0 0 0 0 0 0 0 0 0 0 0 0 0 0 0 0 0 0 0 0 0 0 0 0 0 0 0 0 0 0 0 0 0 0 0 0 0 0 0 0 0 0 0 0 0 0 0 0 0 0 0 0 0 0 0 0 0 0 0 0 0 0 0 0 0 0 0 0 0 0 0 0 0 0 0 0 0 0 0 0 0 0 0 0 0 0 0 0 0 0 0 0 0 0 0 0 0 0 0 0 0 0 0 0 0 0 0 0 0 0 0 0 0 0 0 0 0 0 0 0 0 0 0 0 0 0 0 0 0 0 0 0 0 0 0 0 0 0 0 0 0 0 0 0 0 0 0 0 0 0 0 0 0 0 0 0 0 0 0 0 0 0 0 0 0 0 0 0 0 0 0 0 0 0 0 0 0 0 0 0 0 0 0 0 0 0 0 0 0 0 0 0 0 0 0 0 0 0 0 0 0 0 0 0 0 0 0 0 0 0 0 0 0 0 0 0 0 0 0 0 0 0 0 0 0 0 0 0 0 0 0 0 0 0 0 0 0 0 0 0 0 0 0 0 0 0 0 0 0 0 0 0 0 0 0 0 0 0 0 0 0 0 0 0 0 0 0 0 0 0 0 0 0 0 0 0 0 0 0 0 0 0 0 0 0 0 0 0 0 0 0 0 0 0 0 0 0 0 0 0 0 0 0 0 0 0 0 0 0 0 0 0 0 0 0 0 0 0 0 0 0 0 0 0 0 0 0 0 0 0 0 0 0 0 0 0 0 0 0 0 0 0 0 0 0 0 0 0 0 0 0 0 0 0 0 0 0 0 0 0 0 0 0 0 0 0 0 0 0 0 0 0 0 0 0 0 0 0 0 0 0 0 0 0 0 0 0 0 0 0 0 0 0 0 0 0 0 0 0 0 0 0 0 0 0 0 0 0 0 0 0 0 0 0 0 0 0 0 0 0 0 0 0 0 0 0 0 0 0 0 0 0 0 0 0 0 0 0 0 0 0 0 0 0 0 0 0 0 0 0 0 0 0 0 0 0 0 0 0 0 0 0 0 0 0 0 0 0 0 0 0 0 0 0 0 0 0 0 0 0 0 0 0 0 0 0 0 0 0 0 0 0 0 0 0 0 0 0 0 0 0 0 0 0 0 0 0 0 0 0 0 0 0 0 0 0 0 0 0 0 0 0 0 0 0 0 0 0 0 0 0 0 0 0 0 0 0 0 0 0 0 0 0 0 0 0 0 0 0 0 0 0 0 0 0 0 0 0 0 0 0 0 0 0 0 0 0 0 0 0 0 0 0 0 0 0 0 0 0 0 0 0 0 0 0 0 0 0 0 0 0 0 0 0 0 0 0 0 0 0 0 0 0 0 0 0 0 0 0 0 0 0 0 0 0 0 0 0 0 0 0 0 0 0 0 0 0 0 0 0 0 0 0 0 0 0 0 0 0 0 0 0 0 0 0 0 0 0 0 0 0 0 0 0 0 0 0 0 0 0 0 0 0 0 0 0 0 0 0 0 0 0 0 0 0 0 0 0 0 0 0 0 0 0 0 0 0 0 0 0 0 0 0 0 0 0 0 0 0 0 0 0 0 0 0 0 0 0 0 0 0 0 0 0 0 0 0 0 0 0 0 0 0 0 0 0 0 0 0 0 0 0 0 0 0 0 0 0 0 0 0 0 0 0 0 0 0 0 0 0 0 0 0 0 0 0 0 0 0 0 0 0 0 0 0 0 0 0 0 0 0 0 0 0 0 0 0 0 0 0 0 0 0 0 0 0 0 0 0 0 0 0 0 0 0 0 0 0 0 0 0 0 0 0 0 0 0 0 0 0 0 0 0 0 0 0 0 0 0 0 0 0 0 0 0 0 0 0 0 0 0 0 0 0 0 0 0 0 0 0 0 0 0 0 0 0 0 0 0 0 0 0 0 0 0 0 0 0 0 0 0 0 0 0 0 0 0 0 0 0 0 0 0 0 0 0 0 0 0 0 0 0 0 0 0 0 0 0 0 0 0 0 0 0 0 0 0 0 0 0 0 0 0 0 0 0 0 0 0 0 0 0 0 0 0 0 0 0 0 0 0 0 0 0 0 0 0 0 0 0 0 0 0 0 0 0 0 0 0 0 0 0 0 0 0 0 0 0 0 0 0 0 0 0 0 0 0 0 0 0 0 0 0 0 0 0 0 0 0 0 0 0 0 0 0 0 0 0 0 0 0 0 0 0 0 0 0 0 0 0 0 0 0 0 0 0 0 0 0 0 0 0 0 0 0 0 0 0 0 0 0 0 0 0 0 0 0 0 0 0 0 0 0 0 0 0 0 0 0 0 0 0 0 0 0 0 0 0 0 0 0 0 0 0 0 0 0 0 0 0 0 0 0 0 0 0 0 0 0 0 0 0 0 0 0 0 0 0 0 0 0 0 0 0 0 0 0 0 0 0 0 0 0 0 0 0 0 0 0 0 0 0 0 0 0 0 0 0 0 0 0 0 0 0 0 0 0 0 0 0 0 0 0 0 0 0 0 0 0 0 0 0 0 0 0 0 0 0 0 0 0 0 0 0 0 0 0 0 0 0 0 0 0 0 0 0 0 0 0 0 0 0 0 0 0 0 0 0 0 0 0 0 0 0 0 0 0 0 0 0 0 0 0 0 0 0 0 0 0 0 0 0 0 0 0 0 0 0 0 0 0 0 0 0 0 0 0 0 0 0 0 0 0 0 0 0 0 0 0 0 0 0 0 0 0 0 0 0 0 0 0 0 0 0 0 0 0 0 0 0 0 0 0 0 0 0 0 0 0 0 0 0 0 0 0 0 0 0 0 0 0 0 0 0 0 0 0 0 0 0 0 0 0 0 0 0 0 0 0 0 0 0 0 0 0 0 0 0 0 0 0 0 0 0 0 0 0 0 0 0 0 0 0 0 0 0 0 0 0 0 0 0 0 0 0 0 0 0 0 0 0 0 0 0 0 0 0 0 0 0 0 0 0 0 0 0 0 0 0 0 0 0 0 0 0 0 0 0 0 0 0 0 0 0 0 0 0 0 0 0 0 0 0 0 0 0 0 0 0 0 0 0 0 0 0 0 0 0 0 0 0 0 0 0 0 0 0 0 0 0 0 0 0 0 0 0 0 0 0 0 0 0 0 0 0 0 0 0 0 0 0 0 0 0 0 0 0 0 0 0 0 0 0 0 0 0 0 0 0 0 0 0 0 0 0 0 0 0 0 0 0 0 0 0 0 0 0 0 0 0 0 0 0 0 0 0 0 0 0 0 0 0 0 0 0 0 0 0 0 0 0 0 0 0 0 0 0 0 0 0 0 0 0 0 0 0 0 0 0 0 0 0 0 0 0 0 0 0 0 0 0 0 0 
