
*** ChampSim Multicore Out-of-Order Simulator ***

Warmup Instructions: 50000000
Simulation Instructions: 50000000
Number of CPUs: 1
LLC sets: 2048
LLC ways: 16
Off-chip DRAM Size: 4096 MB Channels: 1 Width: 64-bit Data Rate: 6400 MT/s
CPU 0 runs ./micro_traces/srv741.trace.gz
.gz
ITLB has LRU replacement policy
DTLB has LRU replacement policy
STLB has LRU replacement policy
FDIP Prefetcher at L1I
L1I has LRU replacement policy
L1D has LRU replacement policy
Initialize SRRIP state for L2C
Initialize DRRIP state for LLC
Heartbeat CPU 0 instructions: 10000001 cycles: 2796803 heartbeat IPC: 3.57551 cumulative IPC: 3.57551 (Simulation time: 0 hr 1 min 38 sec) 
Heartbeat CPU 0 instructions: 20000001 cycles: 5592695 heartbeat IPC: 3.57668 cumulative IPC: 3.57609 (Simulation time: 0 hr 3 min 11 sec) 
Heartbeat CPU 0 instructions: 30000002 cycles: 8388607 heartbeat IPC: 3.57665 cumulative IPC: 3.57628 (Simulation time: 0 hr 4 min 46 sec) 
Heartbeat CPU 0 instructions: 40000003 cycles: 11184710 heartbeat IPC: 3.57641 cumulative IPC: 3.57631 (Simulation time: 0 hr 6 min 21 sec) 
Heartbeat CPU 0 instructions: 50000002 cycles: 13982109 heartbeat IPC: 3.57475 cumulative IPC: 3.576 (Simulation time: 0 hr 7 min 57 sec) 

Warmup complete CPU 0 instructions: 50000002 cycles: 13982109 (Simulation time: 0 hr 7 min 57 sec) 

Cycle: 20000000 FTQ IN: 55262984 FTQ occupancy: 17.4919 DECODE IN: 55262984 DECODE occupancy: 44.7606 ROB IN: 55262984 ROB occupancy: 267.27 ROB OUT: 55262968
Heartbeat CPU 0 instructions: 60000000 cycles: 25376941 heartbeat IPC: 0.877591 cumulative IPC: 0.877591 (Simulation time: 0 hr 9 min 15 sec) 
Cycle: 30000000 FTQ IN: 8768290 FTQ occupancy: 4.45815 DECODE IN: 8768290 DECODE occupancy: 8.65495 ROB IN: 8768281 ROB occupancy: 72.9922 ROB OUT: 8768296
Heartbeat CPU 0 instructions: 70000003 cycles: 36700029 heartbeat IPC: 0.883152 cumulative IPC: 0.880362 (Simulation time: 0 hr 10 min 32 sec) 
Cycle: 40000000 FTQ IN: 8929624 FTQ occupancy: 4.51751 DECODE IN: 8929624 DECODE occupancy: 8.83793 ROB IN: 8929633 ROB occupancy: 75.5121 ROB OUT: 8929552
Heartbeat CPU 0 instructions: 80000003 cycles: 48045896 heartbeat IPC: 0.881378 cumulative IPC: 0.880701 (Simulation time: 0 hr 11 min 49 sec) 
Cycle: 50000000 FTQ IN: 8811001 FTQ occupancy: 4.68655 DECODE IN: 8810993 DECODE occupancy: 9.18678 ROB IN: 8810993 ROB occupancy: 77.2497 ROB OUT: 8811068
Heartbeat CPU 0 instructions: 90000001 cycles: 59298763 heartbeat IPC: 0.888662 cumulative IPC: 0.882678 (Simulation time: 0 hr 13 min 7 sec) 
Cycle: 60000000 FTQ IN: 8873082 FTQ occupancy: 4.49421 DECODE IN: 8872994 DECODE occupancy: 8.77346 ROB IN: 8872934 ROB occupancy: 75.1386 ROB OUT: 8872589
Cycle: 70000000 FTQ IN: 8767384 FTQ occupancy: 4.63938 DECODE IN: 8767480 DECODE occupancy: 9.05743 ROB IN: 8767540 ROB occupancy: 75.9108 ROB OUT: 8767891
Heartbeat CPU 0 instructions: 100000002 cycles: 70622420 heartbeat IPC: 0.883107 cumulative IPC: 0.882764 (Simulation time: 0 hr 14 min 23 sec) 
Finished CPU 0 instructions: 50000000 cycles: 56640311 cumulative IPC: 0.882764 (Simulation time: 0 hr 14 min 23 sec) 

ChampSim completed all CPUs

Region of Interest Statistics

CPU 0 cumulative IPC: 0.882764 instructions: 50000000 cycles: 56640311
 Fetch stage stalled: 78.269  Sim cycles: 56640311 fetch stall cycle: 44331822
 Empty decode stage: 67.6051  Sim cycles: 56640311 fetch stall cycle: 38291747
ITLB TOTAL     ACCESS:    5665045  HIT:    5170305  MISS:     494740  HIT %:    91.2668  MISS %:    8.73321   MPKI: 9.8948
ITLB LOAD TRANSLATION INSTRUCTION	ACCESS:    5578616  HIT:    5083876  MISS:     494740  HIT %:    91.1315  MISS %:    8.86851  MPKI: 9.8948
ITLB TRANSLATION FROM L1D PREFETCHER INSTRUCTION	ACCESS:      86429  HIT:      86429  MISS:          0  HIT %:        100  MISS %:          0  MPKI: 0

ITLB AVERAGE MISS LATENCY: 9.04503 cycles
ITLB RQ	ACCESS:    7244975	FORWARD:          0	MERGED:    1139168	TO_CACHE:    6105807

DTLB TOTAL     ACCESS:    9766628  HIT:    9291915  MISS:     474713  HIT %:    95.1394  MISS %:    4.86056   MPKI: 9.49426
DTLB LOAD TRANSLATION DATA	ACCESS:    9766628  HIT:    9291915  MISS:     474713  HIT %:    95.1394  MISS %:    4.86056  MPKI: 9.49426

DTLB AVERAGE MISS LATENCY: 9.31253 cycles
DTLB RQ	ACCESS:   13941708	FORWARD:          0	MERGED:    4143871	TO_CACHE:    9797837

STLB TOTAL     ACCESS:    1218372  HIT:    1216243  MISS:       2129  HIT %:    99.8253  MISS %:   0.174741   MPKI: 0.04258
STLB LOAD TRANSLATION INSTRUCTION	ACCESS:     494740  HIT:     494475  MISS:        265  HIT %:    99.9464  MISS %:  0.0535635  MPKI: 0.0053
STLB LOAD TRANSLATION DATA	ACCESS:     474375  HIT:     472539  MISS:       1836  HIT %:     99.613  MISS %:   0.387036  MPKI: 0.03672
STLB TRANSLATION FROM L1D PREFETCHER DATA	ACCESS:     249257  HIT:     249229  MISS:         28  HIT %:    99.9888  MISS %:  0.0112334  MPKI: 0.00056

STLB AVERAGE MISS LATENCY: 70.8149 cycles
STLB RQ	ACCESS:    1339177	FORWARD:          0	MERGED:     120759	TO_CACHE:    1218418

STLB Hit, L1D data hit: 0
STLB Hit, L2C data hit: 0
STLB Hit, LLC data hit: 0
STLB Hit, LLC data miss: 0
STLB STLB hints to L2: 0
L1D TOTAL     ACCESS:   13720847  HIT:   12602878  MISS:    1117969  HIT %:     91.852  MISS %:    8.14796   MPKI: 22.3594
L1D LOAD DATA	ACCESS:    7110272  HIT:    6375228  MISS:     735044  HIT %:    89.6622  MISS %:    10.3378  MPKI: 14.7009
L1D RFO DATA	ACCESS:    6282700  HIT:    5994385  MISS:     288315  HIT %:     95.411  MISS %:    4.58903  MPKI: 5.7663
L1D PREFETCH DATA	ACCESS:     327875  HIT:     233265  MISS:      94610  HIT %:    71.1445  MISS %:    28.8555  MPKI: 1.8922

L1D PREFETCH  REQUESTED:     739652  ISSUED:     739652  USEFUL:      35053  USELESS:      67849
L1D USEFUL LOAD PREFETCHES:      35053 PREFETCH ISSUED TO LOWER LEVEL:     102976  ACCURACY: 34.04
 TIMELY PREFETCHES:      35053 LATE PREFETCHES: 8297 DROPPED PREFETCHES: 8
L1D AVERAGE MISS LATENCY: 317282 cycles
L1D RQ	ACCESS:   11124442	FORWARD:          0	MERGED:    3823354	TO_CACHE:    7138579
L1D WQ	ACCESS:    6952733	FORWARD:     162713	MERGED:     149604	TO_CACHE:    6803129
L1D PQ	ACCESS:     369928	FORWARD:          0	MERGED:          0	TO_CACHE:     369724

L1D UNIQUE REGIONS ACCESSED: 0
L1D REGIONS CONFLICTS: 0
L1D Cross Page Prefetch Requests: 7053
L1D Same Page Prefetch Requests: 754351
L1D ROI Sum of L1D PQ occupancy: 4698345
L1D PREFETCHES PUSHED FROM L2C: 0
L1I TOTAL     ACCESS:    6978194  HIT:    4211505  MISS:    2766689  HIT %:    60.3524  MISS %:    39.6476   MPKI: 55.3338
L1I LOAD INSTRUCTION	ACCESS:    6602062  HIT:    3835373  MISS:    2766689  HIT %:    58.0936  MISS %:    41.9064  MPKI: 55.3338
L1I PREFETCH INSTRUCTION	ACCESS:     376132  HIT:     376132  MISS:          0  HIT %:        100  MISS %:          0  MPKI: 0

L1I PREFETCH  REQUESTED:     726825  ISSUED:     726825  USEFUL:          0  USELESS:          0
L1I USEFUL LOAD PREFETCHES:          0 PREFETCH ISSUED TO LOWER LEVEL:          0  ACCURACY: -nan
 TIMELY PREFETCHES:          0 LATE PREFETCHES: 0 DROPPED PREFETCHES: 0
L1I AVERAGE MISS LATENCY: 17.1497 cycles
L1I RQ	ACCESS:    9446231	FORWARD:          0	MERGED:    2707129	TO_CACHE:    6739102
L1I PQ	ACCESS:     726825	FORWARD:          0	MERGED:     220952	TO_CACHE:     505873

L1BTB TOTAL     ACCESS:    5672486  HIT:    2041472  MISS:    3631014  HIT %:     35.989  MISS %:     64.011   MPKI: 72.6203
L1BTB BRANCH_DIRECT_JUMP	ACCESS:     549038  HIT:     144769  MISS:     404269	AVERAGE STALL: 30.73
L1BTB BRANCH_INDIRECT	ACCESS:     183066  HIT:      66041  MISS:     117025	AVERAGE STALL: 73.2654
L1BTB BRANCH_CONDITIONAL	ACCESS:    2708349  HIT:    1414558  MISS:    1293791	AVERAGE STALL: 31.6384
L1BTB BRANCH_DIRECT_CALL	ACCESS:     944675  HIT:     105648  MISS:     839027	AVERAGE STALL: 33.0018
L1BTB BRANCH_INDIRECT_CALL	ACCESS:     171345  HIT:      20868  MISS:     150477	AVERAGE STALL: 95.1313
L1BTB BRANCH_RETURN	ACCESS:    1116013  HIT:     289588  MISS:     826425	AVERAGE STALL: 32.7306
L1BTB BRANCH_OTHER ACCESS:          0  HIT:          0  MISS:          0	AVERAGE STALL: -nan
L1BTB TOTAL ROB OCCUPANCY AT BTB MISS: 17.8591

L2BTB TOTAL     ACCESS:    3605698  HIT:    2571457  MISS:    1034241  HIT %:    71.3165  MISS %:    28.6835   MPKI: 20.6848
L2BTB BRANCH_DIRECT_JUMP	ACCESS:     400144  HIT:     283295  MISS:     116849	AVERAGE STALL: 30.73
L2BTB BRANCH_INDIRECT	ACCESS:     106743  HIT:      93760  MISS:      12983	AVERAGE STALL: 73.2654
L2BTB BRANCH_CONDITIONAL	ACCESS:    1293791  HIT:     920298  MISS:     373493	AVERAGE STALL: 31.6384
L2BTB BRANCH_DIRECT_CALL	ACCESS:     839027  HIT:     572046  MISS:     266981	AVERAGE STALL: 33.0018
L2BTB BRANCH_INDIRECT_CALL	ACCESS:     140976  HIT:      92301  MISS:      48675	AVERAGE STALL: 95.1313
L2BTB BRANCH_RETURN	ACCESS:     825017  HIT:     609757  MISS:     215260	AVERAGE STALL: 32.7306
L2BTB BRANCH_OTHER ACCESS:          0  HIT:          0  MISS:          0	AVERAGE STALL: -nan
L2BTB TOTAL ROB OCCUPANCY AT BTB MISS: 62.6997

L2C TOTAL     ACCESS:    4496548  HIT:    4011358  MISS:     485190  HIT %:    89.2097  MISS %:    10.7903   MPKI: 9.7038
L2C LOAD INSTRUCTION	ACCESS:    2766689  HIT:    2510615  MISS:     256074  HIT %:    90.7444  MISS %:    9.25561  MPKI: 5.12148
L2C LOAD TRANSLATION INSTRUCTION	ACCESS:        306  HIT:         67  MISS:        239  HIT %:    21.8954  MISS %:    78.1046  MPKI: 0.00478
L2C LOAD DATA	ACCESS:     726712  HIT:     647829  MISS:      78883  HIT %:    89.1452  MISS %:    10.8548  MPKI: 1.57766
L2C RFO DATA	ACCESS:     288234  HIT:     231987  MISS:      56247  HIT %:    80.4856  MISS %:    19.5144  MPKI: 1.12494
L2C PREFETCH DATA	ACCESS:     190067  HIT:     112501  MISS:      77566  HIT %:    59.1902  MISS %:    40.8098  MPKI: 1.55132
L2C WRITEBACK DATA	ACCESS:     522579  HIT:     507804  MISS:      14775  HIT %:    97.1727  MISS %:    2.82732  MPKI: 0.2955
L2C LOAD TRANSLATION DATA	ACCESS:       1917  HIT:        519  MISS:       1398  HIT %:    27.0736  MISS %:    72.9264  MPKI: 0.02796
L2C TRANSLATION FROM L1D PREFETCHER DATA	ACCESS:         44  HIT:         36  MISS:          8  HIT %:    81.8182  MISS %:    18.1818  MPKI: 0.00016

L2C PREFETCH  REQUESTED:      94371  ISSUED:      94371  USEFUL:       8928  USELESS:      69112
L2C USEFUL LOAD PREFETCHES:       8928 PREFETCH ISSUED TO LOWER LEVEL:      77919  ACCURACY: 11.4581
 TIMELY PREFETCHES:       8928 LATE PREFETCHES: 353 DROPPED PREFETCHES: 0
L2C AVERAGE MISS LATENCY: 39.2026 cycles
L2C RQ	ACCESS:    3783949	FORWARD:          0	MERGED:          0	TO_CACHE:    3783902
L2C WQ	ACCESS:     522579	FORWARD:         47	MERGED:          0	TO_CACHE:     522579
L2C PQ	ACCESS:     197347	FORWARD:          0	MERGED:       3765	TO_CACHE:     193582

L2C Dense regions hint from L2: 0
PSCL5 TOTAL     ACCESS:       4276  HIT:       2138  MISS:       2138  HIT %:         50  MISS %:         50   MPKI: 0.04276
PSCL5 LOAD TRANSLATION INSTRUCTION	ACCESS:       4188  HIT:       2094  MISS:       2094  HIT %:         50  MISS %:         50  MPKI: 0.04188
PSCL5 TRANSLATION FROM L1D PREFETCHER INSTRUCTION	ACCESS:         88  HIT:         44  MISS:         44  HIT %:         50  MISS %:         50  MPKI: 0.00088


PSCL4 TOTAL     ACCESS:       4162  HIT:       2076  MISS:       2086  HIT %:    49.8799  MISS %:    50.1201   MPKI: 0.04172
PSCL4 LOAD TRANSLATION INSTRUCTION	ACCESS:       3193  HIT:       2041  MISS:       1152  HIT %:    63.9211  MISS %:    36.0789  MPKI: 0.02304
PSCL4 TRANSLATION FROM L1D PREFETCHER INSTRUCTION	ACCESS:         54  HIT:         35  MISS:         19  HIT %:    64.8148  MISS %:    35.1852  MPKI: 0.00038
PSCL4 LOAD TRANSLATION DATA	ACCESS:        899  HIT:          0  MISS:        899  HIT %:          0  MISS %:        100  MPKI: 0.01798
PSCL4 TRANSLATION FROM L1D PREFETCHER DATA	ACCESS:         16  HIT:          0  MISS:         16  HIT %:          0  MISS %:        100  MPKI: 0.00032


PSCL3 TOTAL     ACCESS:       4226  HIT:       2108  MISS:       2118  HIT %:    49.8817  MISS %:    50.1183   MPKI: 0.04236
PSCL3 LOAD TRANSLATION INSTRUCTION	ACCESS:       3225  HIT:       2073  MISS:       1152  HIT %:    64.2791  MISS %:    35.7209  MPKI: 0.02304
PSCL3 TRANSLATION FROM L1D PREFETCHER INSTRUCTION	ACCESS:         54  HIT:         35  MISS:         19  HIT %:    64.8148  MISS %:    35.1852  MPKI: 0.00038
PSCL3 LOAD TRANSLATION DATA	ACCESS:        931  HIT:          0  MISS:        931  HIT %:          0  MISS %:        100  MPKI: 0.01862
PSCL3 TRANSLATION FROM L1D PREFETCHER DATA	ACCESS:         16  HIT:          0  MISS:         16  HIT %:          0  MISS %:        100  MPKI: 0.00032


PSCL2 TOTAL     ACCESS:       4167  HIT:       2029  MISS:       2138  HIT %:    48.6921  MISS %:    51.3079   MPKI: 0.04276
PSCL2 LOAD TRANSLATION INSTRUCTION	ACCESS:       2249  HIT:       1985  MISS:        264  HIT %:    88.2614  MISS %:    11.7386  MPKI: 0.00528
PSCL2 TRANSLATION FROM L1D PREFETCHER INSTRUCTION	ACCESS:         44  HIT:         44  MISS:          0  HIT %:        100  MISS %:          0  MPKI: 0
PSCL2 LOAD TRANSLATION DATA	ACCESS:       1830  HIT:          0  MISS:       1830  HIT %:          0  MISS %:        100  MPKI: 0.0366
PSCL2 TRANSLATION FROM L1D PREFETCHER DATA	ACCESS:         44  HIT:          0  MISS:         44  HIT %:          0  MISS %:        100  MPKI: 0.00088


LLC TOTAL     ACCESS:     549577  HIT:     518941  MISS:      30636  HIT %:    94.4255  MISS %:    5.57447   MPKI: 0.61272
LLC LOAD INSTRUCTION	ACCESS:     256074  HIT:     255150  MISS:        924  HIT %:    99.6392  MISS %:   0.360833  MPKI: 0.01848
LLC LOAD TRANSLATION INSTRUCTION	ACCESS:        239  HIT:        194  MISS:         45  HIT %:    81.1715  MISS %:    18.8285  MPKI: 0.0009
LLC LOAD DATA	ACCESS:      78538  HIT:      74931  MISS:       3607  HIT %:    95.4073  MISS %:    4.59268  MPKI: 0.07214
LLC RFO DATA	ACCESS:      56236  HIT:      40865  MISS:      15371  HIT %:     72.667  MISS %:     27.333  MPKI: 0.30742
LLC PREFETCH DATA	ACCESS:      77919  HIT:      67696  MISS:      10223  HIT %:      86.88  MISS %:      13.12  MPKI: 0.20446
LLC WRITEBACK DATA	ACCESS:      79165  HIT:      78773  MISS:        392  HIT %:    99.5048  MISS %:   0.495168  MPKI: 0.00784
LLC LOAD TRANSLATION DATA	ACCESS:       1398  HIT:       1324  MISS:         74  HIT %:    94.7067  MISS %:    5.29328  MPKI: 0.00148
LLC TRANSLATION FROM L1D PREFETCHER DATA	ACCESS:          8  HIT:          8  MISS:          0  HIT %:        100  MISS %:          0  MPKI: 0

LLC AVERAGE MISS LATENCY: 158.86 cycles
LLC RQ	ACCESS:     392496	FORWARD:          0	MERGED:          0	TO_CACHE:     392493
LLC WQ	ACCESS:      79165	FORWARD:          3	MERGED:          0	TO_CACHE:      79165
LLC PQ	ACCESS:      77919	FORWARD:          0	MERGED:          0	TO_CACHE:      77919

LLC Dense regions hint to LLC: 0

RAW hits: 1518137
Loads Generated: 12642579
Loads sent to L1D: 11124442
Stores Generated: 6952714
Stores sent to L1D: 6952733
Major fault: 0 Minor fault: 2560
Allocated PAGES: 2560

stream: 
stream:times selected: 1192116
stream:pref_filled: 119967
stream:pref_useful: 23679
stream:pref_late: 6893
stream:misses: 7930
stream:misses_by_poll: 0

CS: 
CS:times selected: 179531
CS:pref_filled: 60008
CS:pref_useful: 36122
CS:pref_late: 7401
CS:misses: 17143
CS:misses_by_poll: 2

CPLX: 
CPLX:times selected: 1011434
CPLX:pref_filled: 19601
CPLX:pref_useful: 4493
CPLX:pref_late: 3121
CPLX:misses: 92178
CPLX:misses_by_poll: 0

NL_L1: 
NL:times selected: 20836
NL:pref_filled: 723
NL:pref_useful: 355
NL:pref_late: 293
NL:misses: 1666
NL:misses_by_poll: 0

total selections: 2403917
total_filled: 94610
total_useful: 35053
total_late: 19013
total_polluted: 2
total_misses_after_warmup: 763350
conflicts: 5778044

test: 117561

DRAM Statistics
 CHANNEL 0
 RQ ROW_BUFFER_HIT:      11209  ROW_BUFFER_MISS:      19026
 DBUS_CONGESTED:          7
 WQ ROW_BUFFER_HIT:       1485  ROW_BUFFER_MISS:      13305  FULL:          0

 AVG_CONGESTED_CYCLE: 5

CPU 0 Branch Prediction Accuracy: 99.8237% MPKI: 0.32256 Average ROB Occupancy at Mispredict: 100.78
Branch types
NOT_BRANCH: 40853558 81.7071%
BRANCH_DIRECT_JUMP: 549038 1.09808%
BRANCH_INDIRECT: 183066 0.366132%
BRANCH_CONDITIONAL: 6182075 12.3642%
BRANCH_DIRECT_CALL: 944675 1.88935%
BRANCH_INDIRECT_CALL: 171345 0.34269%
BRANCH_RETURN: 1116013 2.23203%
BRANCH_OTHER: 0 0%

DRAM PAGES: 1048576
Allocated PAGES: 2560
Average_ROB_Occupancy: 76.6696
Average_Decode_Occupancy: 8.9541
Average_FTQ_Occupancy: 4.57972
Indirect max targets: 14 Average targets: 1.14576
Branch_type:  BRANCH_DIRECT_JUMP:  Count Percentage: 3.41964 4.36706 4.41006 9.46245 1.69588 5.96374 3.0608 67.6204 
Branch_type:  BRANCH_INDIRECT:  Count Percentage: 11.7066 3.46145 2.57959 0 2.54414 9.71436 19.2698 50.7241 
Branch_type:  BRANCH_CONDITIONAL:  Count Percentage: 15.9437 2.6521 6.94737 8.60669 1.48272 4.85202 2.40903 57.1063 
Branch_type:  BRANCH_DIRECT_CALL:  Count Percentage: 0.744509 1.2585 1.47186 4.99077 2.24824 2.60209 0.772766 85.9113 
Branch_type:  BRANCH_INDIRECT_CALL:  Count Percentage: 9.54173 0.581307 2.98866 4.85241 0 2.35504 1.29092 78.3899 
Branch_type:  BRANCH_RETURN:  Count Percentage: 3.95386 0.697056 1.28803 9.26324 2.49226 6.50862 3.15104 72.6459 
Branch_type:  BRANCH_DIRECT_JUMP:  Total Count: 37538 47938 48410 103871 18616 65465 33599 742281 
Branch_type:  BRANCH_INDIRECT:  Total Count: 42931 12694 9460 0 9330 35625 70667 186018 
Branch_type:  BRANCH_CONDITIONAL:  Total Count: 1971163 327886 858921 1064067 183313 599868 297834 7060203 
Branch_type:  BRANCH_DIRECT_CALL:  Total Count: 14017 23694 27711 93962 42328 48990 14549 1617466 
Branch_type:  BRANCH_INDIRECT_CALL:  Total Count: 32648 1989 10226 16603 0 8058 4417 268219 
Branch_type:  BRANCH_RETURN:  Total Count: 87999 15514 28667 206167 55469 144859 70131 1616841 
Number of unique branch instructions: 9706
Upper 32 bits: 
aaaa
ffff
ffff0000
Unique upper 32 bits: 3
Unique upper 36 bits: 3
Unique upper 40 bits: 5
Unique upper 44 bits: 32
Unique upper 48 bits: 153
Offset_3 3999
Offset_4 240
Offset_5 443
Offset_6 493
Offset_7 570
Offset_8 503
Offset_9 459
Offset_10 368
Offset_11 299
Offset_12 265
Offset_13 198
Offset_14 225
Offset_15 177
Offset_16 216
Offset_17 144
Offset_18 118
Offset_19 229
Offset_20 132
Offset_21 235
Offset_22 388
Offset_23 243
Offset_24 328
Offset_25 88
Offset_47 82
Offset_64 1
decode_dispatch_called: 20217791 35.6951
Dispatch_width: 0 9999533 49.4591 17.6544
Dispatch_width: 1 600487 2.97009 1.06018
Dispatch_width: 2 817266 4.04231 1.44291
Dispatch_width: 3 554403 2.74215 0.978813
Dispatch_width: 4 1475376 7.29741 2.60482
Dispatch_width: 5 424152 2.09791 0.748852
Dispatch_width: 6 6346574 31.391 11.205
Empty_decode_cycles: 36422520 64.3049
ROB_full_cycles: 1535541 2.71104
Starvation_cycles_per_kilo_instr: 487.582
Starvation_cycles_per_kilo_instr_3: 468.587
Starvation_cycles_per_kilo_instr_0: 448.865
Branch_type_1  (3,1)  (4,7)  (5,36)  (6,68)  (7,115)  (8,127)  (9,124)  (10,97)  (11,67)  (12,43)  (13,5)  (14,2)  (15,3)  (16,4)  (18,1)  (19,4)  (20,2)  (21,1)  (22,3)  (23,2)  (24,10)  (25,12) 
Branch_type_2  (3,1)  (5,1)  (8,3)  (9,3)  (12,1)  (13,1)  (14,1)  (16,3)  (17,2)  (20,2)  (21,2)  (23,5)  (24,1)  (47,38) 
Branch_type_3  (3,3997)  (4,233)  (5,402)  (6,410)  (7,426)  (8,314)  (9,251)  (10,148)  (11,121)  (12,50)  (13,4)  (64,1) 
Branch_type_4  (6,3)  (7,8)  (8,25)  (9,49)  (10,59)  (11,56)  (12,93)  (13,85)  (14,99)  (15,82)  (16,96)  (17,64)  (18,53)  (19,112)  (20,69)  (21,124)  (22,206)  (23,137)  (24,190)  (25,72) 
Branch_type_5  (8,2)  (9,1)  (10,3)  (11,5)  (12,3)  (13,14)  (14,16)  (15,11)  (16,20)  (17,11)  (18,16)  (19,12)  (20,10)  (21,13)  (22,42)  (23,26)  (24,36) 
Branch_type_6  (5,4)  (6,12)  (7,21)  (8,32)  (9,31)  (10,61)  (11,50)  (12,75)  (13,89)  (14,107)  (15,81)  (16,93)  (17,67)  (18,48)  (19,101)  (20,49)  (21,95)  (22,137)  (23,73)  (24,91)  (25,4)  (47,44) 
Unique trigger count: 
BTB PER SET UNIQUE ADDR: 22 26 19 27 25 24 17 23 14 26 20 29 26 21 23 16 20 21 22 25 23 19 23 26 18 25 25 24 25 21 22 24 27 16 17 22 22 27 17 18 20 21 24 29 19 14 25 16 25 21 29 18 23 27 21 11 21 18 17 25 22 32 24 23 23 27 24 17 29 24 21 20 28 17 18 14 15 24 19 31 25 15 21 27 27 23 27 22 16 39 19 15 25 21 14 27 18 21 28 27 35 31 24 20 23 19 22 24 14 17 20 32 23 19 21 14 27 25 23 23 25 17 20 14 23 20 12 24 32 19 18 28 22 30 20 27 14 26 21 32 20 29 21 22 24 23 26 20 16 22 23 27 16 22 16 30 26 27 25 25 26 22 28 27 20 23 25 17 28 19 21 27 24 23 24 21 22 21 21 26 18 21 21 28 34 30 16 24 27 19 23 17 16 30 24 16 17 22 22 22 27 24 19 19 17 21 23 23 21 24 21 28 21 21 24 24 21 27 18 37 14 26 17 23 19 26 31 25 16 30 21 10 23 29 20 27 27 20 22 18 22 23 29 26 20 22 21 22 25 24 30 27 25 18 27 26 18 16 17 20 25 18 9 22 21 17 19 19 20 20 21 26 18 14 16 17 23 28 22 22 15 25 17 18 24 18 18 33 33 25 24 17 24 26 15 29 24 25 24 24 21 19 20 36 24 29 26 21 31 24 22 28 21 35 27 13 28 21 21 29 22 28 17 22 26 29 24 18 22 17 21 30 19 20 21 25 19 19 17 36 24 24 16 26 25 27 18 21 21 22 24 22 27 22 22 27 24 28 18 17 18 30 21 32 24 27 12 22 27 22 23 17 23 27 19 31 23 26 22 25 24 22 18 18 18 22 28 29 26 23 30 14 26 29 16 17 20 19 29 23 20 25 23 24 26 26 26 26 22 23 23 19 18 28 21 22 20 31 37 30 19 26 23 26 29 18 26 18 25 21 29 22 19 22 29 28 27 19 20 26 25 20 17 29 33 20 16 26 28 24 26 38 25 18 27 34 26 28 18 29 18 23 20 26 32 20 23 23 27 25 24 28 25 24 25 35 26 32 16 24 34 27 20 24 19 26 35 30 26 21 20 26 16 17 18 20 27 25 22 26 19 29 20 35 20 20 19 31 29 27 24 33 24 23 20 26 22 31 17 18 15 22 25 16 24 32 36 14 15 32 27 24 24 23 26 29 20 25 27 23 29 19 27 25 27 31 15 25 17 23 23 32 24 23 19 22 23 22 30 25 21 34 21 24 24 30 24 29 24 28 28 25 29 35 22 28 28 28 22 23 25 28 15 25 25 25 20 23 34 28 20 22 24 18 24 18 15 23 25 22 23 22 22 14 24 26 32 21 21 24 32 26 21 16 10 30 16 28 20 27 30 25 17 19 20 32 21 28 18 27 21 31 31 23 23 22 25 29 23 26 22 25 26 32 26 25 21 24 35 19 16 24 18 20 30 23 23 22 26 22 23 14 27 31 21 26 18 21 19 20 25 20 20 26 33 21 26 26 28 30 22 29 23 27 27 21 22 24 26 27 22 24 22 16 16 21 17 26 20 27 14 26 26 33 11 28 21 18 17 15 22 20 18 22 18 20 33 25 19 27 24 25 21 21 20 22 25 23 19 19 24 20 21 19 23 24 25 30 37 21 20 21 22 25 32 29 22 23 21 18 23 20 26 23 18 22 30 21 20 18 22 14 14 23 23 29 17 25 20 26 24 30 21 18 25 18 29 21 22 26 15 25 22 21 26 22 18 28 21 14 17 13 28 25 21 31 21 18 29 23 34 24 30 28 34 21 24 22 22 19 20 34 30 29 19 25 35 30 12 28 25 29 16 27 25 21 18 25 25 26 22 30 26 22 17 27 24 23 24 23 26 23 22 24 24 28 21 37 20 27 24 20 18 21 30 29 31 28 26 28 25 23 19 24 29 16 23 18 30 19 19 29 27 22 21 12 21 22 19 24 27 15 19 29 25 26 31 22 25 21 24 17 21 20 21 27 31 23 19 19 22 22 22 25 14 25 22 27 21 32 19 23 22 25 25 26 35 22 23 26 24 25 19 26 21 18 14 29 17 16 31 32 28 19 21 31 21 20 25 26 17 30 23 22 23 24 23 29 23 26 23 23 18 25 20 25 25 22 26 24 25 24 22 32 30 23 27 24 18 27 23 28 28 21 27 19 33 30 29 34 18 30 25 25 21 31 37 17 27 23 28 26 25 23 23 19 21 24 29 23 30 28 20 22 28 27 17 31 20 27 28 25 25 16 18 21 13 19 9 14 19 28 23 16 
BTB PER SET COUNT: 2185 2464 2853 2111 2955 2136 1799 1783 1616 2204 1208 2558 12842 1679 1859 1073 2188 2420 1720 2177 1876 1676 2178 2274 1112 2018 2149 1931 2234 1866 1949 2685 2081 887 1220 1969 1993 2420 1079 2141 1580 1637 2552 2322 2021 684 2206 1418 2088 1707 2472 1408 2000 2222 1786 959 1619 1545 1302 2269 1748 3366 1944 1945 2459 2228 1696 1521 2280 2057 2639 2224 2593 1470 1266 837 935 2210 1521 2722 2490 1058 2073 2639 2047 1909 2183 2149 1726 3969 1524 1314 2257 2025 795 2167 1626 1517 2343 4024 3638 2710 2196 1608 3626 1396 1701 2289 1531 3186 1968 2988 2336 1685 1748 1224 2153 2422 2522 1961 2249 1437 1678 1121 1924 1625 761 2682 3383 1766 1479 3073 1476 2483 1718 2331 1456 2224 1670 2793 1716 2190 1762 1866 1831 1817 2800 1399 1079 1758 1687 2070 1310 1688 936 3104 2775 2196 2236 2577 2022 1793 2690 2358 1687 2193 1807 1510 2304 1647 1510 2422 2005 1821 2047 1851 1786 1640 1712 2534 1510 2014 1828 2184 2867 3208 1116 2058 2408 2384 1766 1257 1191 2546 2211 1310 1385 1920 1714 1649 2151 2039 1779 1570 1083 1969 1803 1936 1908 2375 1478 2224 1316 3441 1986 2279 1585 2439 1698 3602 1026 2068 1352 1665 1715 2249 2841 2309 1370 3298 1569 624 1741 2287 1481 5284 2337 1750 2141 1150 1872 2008 2973 2758 1685 2055 1407 1927 2013 1700 1855 2100 2019 1530 2097 2527 1500 1446 1451 1717 2279 1512 310 1849 2018 884 1679 1414 2388 1902 1534 1774 1183 913 1555 1257 2084 2355 1993 1972 1017 2170 1391 1769 2062 1537 1329 3119 3118 2438 2090 1142 1969 2546 1070 2791 2319 2131 1760 2215 1477 1533 1896 3010 1966 2706 2029 1711 2927 2251 2635 2246 1361 3178 3172 1442 2543 1817 1727 2783 1533 3230 1174 1608 2696 2358 2316 1304 1690 1055 1766 2873 1260 1500 1884 1804 1413 1847 1128 3601 1950 2944 1160 2086 2529 1874 1385 1735 1815 2091 2269 1814 2439 1738 1675 2558 2090 2694 1552 1312 1333 2752 1498 2769 1898 2994 690 1614 1901 1602 2053 1224 2217 2187 1234 2821 1890 2362 1762 2393 2269 2104 1529 973 1198 1730 2942 2524 2232 2145 2227 959 2244 2396 1323 1259 1438 1521 2772 2150 1614 2201 2215 1586 2222 2255 2235 2244 1421 2110 2150 1392 1405 2579 1607 1935 1836 4552 3421 2823 1497 2188 2347 1903 2524 1773 2553 1478 1625 1858 2761 2096 1422 1698 2598 2439 1858 1598 1824 1875 2784 1475 1357 2854 2870 1816 1336 1992 2395 1897 2369 3930 1863 1833 2550 3305 2036 2734 1359 2130 1339 1909 1551 2510 2848 1806 7139 1942 2573 2195 2170 1980 1891 1800 1953 2929 1897 3249 1304 1904 2726 2422 1564 2233 1498 1967 3337 2548 2704 1740 1751 2353 4475 1151 1035 1831 2796 2693 1674 2258 1515 2911 1469 3321 1542 1305 1246 2961 2675 2027 1912 3214 2741 2475 1751 2595 1447 2830 1151 1281 828 2010 2171 1186 1839 2948 3438 2286 1112 4280 3324 1990 2064 1704 2379 2447 2309 2425 2012 1872 2318 1667 2478 1920 2207 2759 974 2111 1250 2540 1757 2750 2120 2258 1505 1468 1793 1870 2330 2245 1318 3023 1660 1947 2313 2611 1787 2248 1805 2585 2624 2350 3219 2947 2033 2583 2686 2604 1804 1912 2451 2256 999 3040 2074 2183 1854 2055 3137 2746 2023 1749 2446 1022 1838 1276 1765 2468 2013 1471 1518 1890 1841 1032 2096 2197 2732 2025 1362 1666 2945 2578 2133 1149 703 2642 1038 2472 2192 2404 2830 1818 1104 1476 1560 2875 1596 2965 2115 1966 1609 3024 3250 1812 1944 1838 2322 2568 1633 2402 2221 2237 2705 2567 2996 2336 1424 2409 3685 1199 1117 2305 1250 1877 3383 2046 1618 1752 2397 1993 2162 755 2344 2783 6832 2547 1330 2016 2112 1823 1745 1812 1393 2258 3070 2088 2014 2653 2359 2980 1949 2632 1881 2360 2909 1882 1767 1974 2231 2477 1664 2491 2237 913 1425 1730 1762 2635 1664 2008 1427 2317 2358 2893 826 2290 1855 1488 1273 1129 1999 2163 1229 2023 1727 1617 3209 2135 1532 2674 2366 2404 1602 1919 1804 1643 1806 2340 1747 2170 2202 5554 1657 1825 1812 2064 2362 3239 3760 1647 1846 1456 1955 2229 2986 2709 2190 1759 1938 1685 2503 1527 2529 1957 1291 1921 2628 2097 1720 1086 2168 1013 737 1846 2863 2883 1253 1978 1252 2157 1828 2518 1688 1469 2177 1342 2408 1936 1523 2763 1737 2329 1960 1673 2019 1756 1432 2185 1532 1127 1367 1461 2329 2383 1625 2728 1668 1322 1703 2273 3264 1930 2601 2379 2913 1601 1905 1913 1745 1575 1482 5261 2794 2435 1873 2967 2836 3099 1086 2927 1939 2695 1233 2396 2741 1965 1537 2067 2261 2728 2145 3055 2205 2099 1220 2812 1915 2003 2398 1876 2256 2085 2092 1950 2096 2197 1690 3322 1437 5412 2682 1907 1500 1691 2713 2591 2841 2391 2610 2190 2663 1981 1658 2027 2857 1112 1960 1009 2744 1523 1639 2632 2281 1591 1893 871 1625 2045 2646 1960 2229 907 1462 2797 2183 2256 2486 1959 1795 2017 2317 1164 3055 2367 1509 2406 2828 1617 1667 1625 2107 1716 1867 2446 795 2331 1726 2738 1786 2768 1706 1923 1987 2354 2457 2436 3598 2014 2109 2127 2018 2099 1438 2498 1403 1714 709 2632 1313 1191 2331 2714 3206 1484 1800 3009 1971 1693 2619 2419 1249 3317 2099 1487 1987 2004 1867 2380 2251 2248 2242 2393 1910 3594 1601 2180 2420 1790 2060 2146 2046 2173 1702 2750 2436 1487 2695 2242 1461 2234 1988 2779 2483 1739 2664 1542 3337 2259 2796 3301 2000 2330 2410 2137 1496 3240 4268 1416 2486 2082 2275 2631 1931 2021 2390 1738 1413 3098 2291 2220 2592 3019 1601 1702 2355 2164 1508 3183 1758 2495 2568 2403 2331 1404 1362 1961 1032 1661 505 1232 1593 2883 2098 1094 
