
*** ChampSim Multicore Out-of-Order Simulator ***

Warmup Instructions: 50000000
Simulation Instructions: 50000000
Number of CPUs: 1
LLC sets: 2048
LLC ways: 16
Off-chip DRAM Size: 4096 MB Channels: 1 Width: 64-bit Data Rate: 6400 MT/s
CPU 0 runs ./micro_traces/srv769.trace.gz
.gz
ITLB has LRU replacement policy
DTLB has LRU replacement policy
STLB has LRU replacement policy
FDIP Prefetcher at L1I
L1I has LRU replacement policy
L1D has LRU replacement policy
Initialize SRRIP state for L2C
Initialize DRRIP state for LLC
Heartbeat_Variant_0 : 1342 0.327637 per_variant_size: 0 1342 0 0 0 0 0 0 0 
Heartbeat_Variant_1 : 1235 0.301514 per_variant_size: 0 593 642 0 0 0 0 0 0 
Heartbeat_Variant_2 : 1307 0.319092 per_variant_size: 0 510 355 220 222 0 0 0 0 
Heartbeat_Variant_3 : 0 0 per_variant_size: 0 0 0 0 0 0 0 0 0 
Heartbeat_Variant_0_evicts 0 : 5836 1 : 323 2 : 267 3 : 0 
Heartbeat_Variant_1_evicts 0 : 307 1 : 0 2 : 446 3 : 0 
Heartbeat_Variant_2_evicts 0 : 262 1 : 417 2 : 0 3 : 0 
Heartbeat_Variant_3_evicts 0 : 0 1 : 0 2 : 0 3 : 0 
Heartbeat CPU 0 instructions: 10000003 cycles: 2796077 heartbeat IPC: 3.57644 cumulative IPC: 3.57644 (Simulation time: 0 hr 0 min 49 sec) 
Heartbeat_Variant_0 : 1349 0.329346 per_variant_size: 0 1349 0 0 0 0 0 0 0 
Heartbeat_Variant_1 : 1251 0.30542 per_variant_size: 0 596 655 0 0 0 0 0 0 
Heartbeat_Variant_2 : 1318 0.321777 per_variant_size: 0 516 352 236 214 0 0 0 0 
Heartbeat_Variant_3 : 0 0 per_variant_size: 0 0 0 0 0 0 0 0 0 
Heartbeat_Variant_0_evicts 0 : 5665 1 : 51 2 : 71 3 : 0 
Heartbeat_Variant_1_evicts 0 : 48 1 : 0 2 : 269 3 : 0 
Heartbeat_Variant_2_evicts 0 : 78 1 : 259 2 : 0 3 : 0 
Heartbeat_Variant_3_evicts 0 : 0 1 : 0 2 : 0 3 : 0 
Heartbeat CPU 0 instructions: 20000002 cycles: 5590270 heartbeat IPC: 3.57885 cumulative IPC: 3.57765 (Simulation time: 0 hr 1 min 39 sec) 
Heartbeat_Variant_0 : 1373 0.335205 per_variant_size: 0 1373 0 0 0 0 0 0 0 
Heartbeat_Variant_1 : 1266 0.309082 per_variant_size: 0 597 669 0 0 0 0 0 0 
Heartbeat_Variant_2 : 1347 0.328857 per_variant_size: 0 531 360 229 227 0 0 0 0 
Heartbeat_Variant_3 : 0 0 per_variant_size: 0 0 0 0 0 0 0 0 0 
Heartbeat_Variant_0_evicts 0 : 5602 1 : 142 2 : 169 3 : 0 
Heartbeat_Variant_1_evicts 0 : 141 1 : 0 2 : 345 3 : 0 
Heartbeat_Variant_2_evicts 0 : 165 1 : 354 2 : 0 3 : 0 
Heartbeat_Variant_3_evicts 0 : 0 1 : 0 2 : 0 3 : 0 
Heartbeat CPU 0 instructions: 30000001 cycles: 8386771 heartbeat IPC: 3.5759 cumulative IPC: 3.57706 (Simulation time: 0 hr 2 min 29 sec) 
Heartbeat_Variant_0 : 1379 0.33667 per_variant_size: 0 1379 0 0 0 0 0 0 0 
Heartbeat_Variant_1 : 1279 0.312256 per_variant_size: 0 619 660 0 0 0 0 0 0 
Heartbeat_Variant_2 : 1343 0.327881 per_variant_size: 0 511 378 234 220 0 0 0 0 
Heartbeat_Variant_3 : 0 0 per_variant_size: 0 0 0 0 0 0 0 0 0 
Heartbeat_Variant_0_evicts 0 : 5612 1 : 92 2 : 73 3 : 0 
Heartbeat_Variant_1_evicts 0 : 91 1 : 0 2 : 303 3 : 0 
Heartbeat_Variant_2_evicts 0 : 71 1 : 296 2 : 0 3 : 0 
Heartbeat_Variant_3_evicts 0 : 0 1 : 0 2 : 0 3 : 0 
Heartbeat CPU 0 instructions: 40000003 cycles: 11182183 heartbeat IPC: 3.57729 cumulative IPC: 3.57712 (Simulation time: 0 hr 3 min 18 sec) 
Heartbeat_Variant_0 : 1377 0.336182 per_variant_size: 0 1377 0 0 0 0 0 0 0 
Heartbeat_Variant_1 : 1284 0.313477 per_variant_size: 0 623 661 0 0 0 0 0 0 
Heartbeat_Variant_2 : 1342 0.327637 per_variant_size: 0 509 379 232 222 0 0 0 0 
Heartbeat_Variant_3 : 0 0 per_variant_size: 0 0 0 0 0 0 0 0 0 
Heartbeat_Variant_0_evicts 0 : 5526 1 : 7 2 : 3 3 : 0 
Heartbeat_Variant_1_evicts 0 : 9 1 : 0 2 : 201 3 : 0 
Heartbeat_Variant_2_evicts 0 : 4 1 : 198 2 : 0 3 : 0 
Heartbeat_Variant_3_evicts 0 : 0 1 : 0 2 : 0 3 : 0 
Heartbeat CPU 0 instructions: 50000001 cycles: 13976795 heartbeat IPC: 3.57831 cumulative IPC: 3.57736 (Simulation time: 0 hr 4 min 8 sec) 

Warmup complete CPU 0 instructions: 50000001 cycles: 13976795 (Simulation time: 0 hr 4 min 8 sec) 

Cycle: 20000000 FTQ IN: 57776469 FTQ occupancy: 18.6463 DECODE IN: 57776469 DECODE occupancy: 48.0172 ROB IN: 57776469 ROB occupancy: 294.887 ROB OUT: 57776306
Heartbeat_Variant_0 : 1380 0.336914 per_variant_size: 0 1380 0 0 0 0 0 0 0 
Heartbeat_Variant_1 : 1304 0.318359 per_variant_size: 0 626 678 0 0 0 0 0 0 
Heartbeat_Variant_2 : 1346 0.328613 per_variant_size: 0 495 394 239 218 0 0 0 0 
Heartbeat_Variant_3 : 0 0 per_variant_size: 0 0 0 0 0 0 0 0 0 
Heartbeat_Variant_0_evicts 0 : 5651 1 : 139 2 : 142 3 : 0 
Heartbeat_Variant_1_evicts 0 : 142 1 : 0 2 : 282 3 : 0 
Heartbeat_Variant_2_evicts 0 : 140 1 : 273 2 : 0 3 : 0 
Heartbeat_Variant_3_evicts 0 : 0 1 : 0 2 : 0 3 : 0 
Heartbeat CPU 0 instructions: 60000000 cycles: 21687164 heartbeat IPC: 1.29695 cumulative IPC: 1.29695 (Simulation time: 0 hr 4 min 54 sec) 
Heartbeat_Variant_0 : 1381 0.337158 per_variant_size: 0 1381 0 0 0 0 0 0 0 
Heartbeat_Variant_1 : 1302 0.317871 per_variant_size: 0 619 683 0 0 0 0 0 0 
Heartbeat_Variant_2 : 1348 0.329102 per_variant_size: 0 492 394 250 212 0 0 0 0 
Heartbeat_Variant_3 : 0 0 per_variant_size: 0 0 0 0 0 0 0 0 0 
Heartbeat_Variant_0_evicts 0 : 5609 1 : 30 2 : 24 3 : 0 
Heartbeat_Variant_1_evicts 0 : 25 1 : 0 2 : 216 3 : 0 
Heartbeat_Variant_2_evicts 0 : 28 1 : 213 2 : 0 3 : 0 
Heartbeat_Variant_3_evicts 0 : 0 1 : 0 2 : 0 3 : 0 
Heartbeat CPU 0 instructions: 70000001 cycles: 29242060 heartbeat IPC: 1.32365 cumulative IPC: 1.31016 (Simulation time: 0 hr 5 min 39 sec) 
Cycle: 30000000 FTQ IN: 13224633 FTQ occupancy: 8.45343 DECODE IN: 13224575 DECODE occupancy: 20.1167 ROB IN: 13224568 ROB occupancy: 171.312 ROB OUT: 13224565
Heartbeat_Variant_0 : 1380 0.336914 per_variant_size: 0 1380 0 0 0 0 0 0 0 
Heartbeat_Variant_1 : 1301 0.317627 per_variant_size: 0 616 685 0 0 0 0 0 0 
Heartbeat_Variant_2 : 1356 0.331055 per_variant_size: 0 503 384 263 206 0 0 0 0 
Heartbeat_Variant_3 : 0 0 per_variant_size: 0 0 0 0 0 0 0 0 0 
Heartbeat_Variant_0_evicts 0 : 5764 1 : 98 2 : 116 3 : 0 
Heartbeat_Variant_1_evicts 0 : 109 1 : 0 2 : 301 3 : 0 
Heartbeat_Variant_2_evicts 0 : 108 1 : 315 2 : 0 3 : 0 
Heartbeat_Variant_3_evicts 0 : 0 1 : 0 2 : 0 3 : 0 
Heartbeat CPU 0 instructions: 80000001 cycles: 36919001 heartbeat IPC: 1.3026 cumulative IPC: 1.30763 (Simulation time: 0 hr 6 min 25 sec) 
Cycle: 40000000 FTQ IN: 13093026 FTQ occupancy: 8.61296 DECODE IN: 13093042 DECODE occupancy: 20.3431 ROB IN: 13093031 ROB occupancy: 171.737 ROB OUT: 13093038
Heartbeat_Variant_0 : 1379 0.33667 per_variant_size: 0 1379 0 0 0 0 0 0 0 
Heartbeat_Variant_1 : 1304 0.318359 per_variant_size: 0 618 686 0 0 0 0 0 0 
Heartbeat_Variant_2 : 1354 0.330566 per_variant_size: 0 501 382 268 203 0 0 0 0 
Heartbeat_Variant_3 : 0 0 per_variant_size: 0 0 0 0 0 0 0 0 0 
Heartbeat_Variant_0_evicts 0 : 5663 1 : 4 2 : 5 3 : 0 
Heartbeat_Variant_1_evicts 0 : 4 1 : 0 2 : 203 3 : 0 
Heartbeat_Variant_2_evicts 0 : 6 1 : 200 2 : 0 3 : 0 
Heartbeat_Variant_3_evicts 0 : 0 1 : 0 2 : 0 3 : 0 
Heartbeat CPU 0 instructions: 90000003 cycles: 44451839 heartbeat IPC: 1.32752 cumulative IPC: 1.31255 (Simulation time: 0 hr 7 min 10 sec) 
Cycle: 50000000 FTQ IN: 13103408 FTQ occupancy: 8.64164 DECODE IN: 13103424 DECODE occupancy: 20.6074 ROB IN: 13103384 ROB occupancy: 173.814 ROB OUT: 13103512
Heartbeat_Variant_0 : 1379 0.33667 per_variant_size: 0 1379 0 0 0 0 0 0 0 
Heartbeat_Variant_1 : 1302 0.317871 per_variant_size: 0 602 700 0 0 0 0 0 0 
Heartbeat_Variant_2 : 1359 0.331787 per_variant_size: 0 499 386 261 213 0 0 0 0 
Heartbeat_Variant_3 : 0 0 per_variant_size: 0 0 0 0 0 0 0 0 0 
Heartbeat_Variant_0_evicts 0 : 5568 1 : 63 2 : 65 3 : 0 
Heartbeat_Variant_1_evicts 0 : 60 1 : 0 2 : 250 3 : 0 
Heartbeat_Variant_2_evicts 0 : 68 1 : 250 2 : 0 3 : 0 
Heartbeat_Variant_3_evicts 0 : 0 1 : 0 2 : 0 3 : 0 
Heartbeat CPU 0 instructions: 100000001 cycles: 52119812 heartbeat IPC: 1.30413 cumulative IPC: 1.31086 (Simulation time: 0 hr 7 min 56 sec) 
Finished CPU 0 instructions: 50000000 cycles: 38143017 cumulative IPC: 1.31086 (Simulation time: 0 hr 7 min 56 sec) 

ChampSim completed all CPUs

Region of Interest Statistics

CPU 0 cumulative IPC: 1.31086 instructions: 50000000 cycles: 38143017
 Fetch stage stalled: 64.4934  Sim cycles: 38143017 fetch stall cycle: 24599729
 Empty decode stage: 62.915  Sim cycles: 38143017 fetch stall cycle: 23997689
ITLB TOTAL     ACCESS:    5869751  HIT:    5379527  MISS:     490224  HIT %:    91.6483  MISS %:     8.3517   MPKI: 9.80448
ITLB LOAD TRANSLATION INSTRUCTION	ACCESS:    5752043  HIT:    5261819  MISS:     490224  HIT %:    91.4774  MISS %:    8.52261  MPKI: 9.80448
ITLB TRANSLATION FROM L1D PREFETCHER INSTRUCTION	ACCESS:     117708  HIT:     117708  MISS:          0  HIT %:        100  MISS %:          0  MPKI: 0

ITLB AVERAGE MISS LATENCY: 9.04705 cycles
ITLB RQ	ACCESS:    7982509	FORWARD:          0	MERGED:    1705792	TO_CACHE:    6276717

DTLB TOTAL     ACCESS:    9088703  HIT:    8611818  MISS:     476885  HIT %:     94.753  MISS %:    5.24701   MPKI: 9.5377
DTLB LOAD TRANSLATION DATA	ACCESS:    9088703  HIT:    8611818  MISS:     476885  HIT %:     94.753  MISS %:    5.24701  MPKI: 9.5377

DTLB AVERAGE MISS LATENCY: 9.3335 cycles
DTLB RQ	ACCESS:   13417013	FORWARD:          0	MERGED:    4291423	TO_CACHE:    9125590

STLB TOTAL     ACCESS:    1223595  HIT:    1221456  MISS:       2139  HIT %:    99.8252  MISS %:   0.174813   MPKI: 0.04278
STLB LOAD TRANSLATION INSTRUCTION	ACCESS:     490224  HIT:     489982  MISS:        242  HIT %:    99.9506  MISS %:  0.0493652  MPKI: 0.00484
STLB LOAD TRANSLATION DATA	ACCESS:     476837  HIT:     474953  MISS:       1884  HIT %:    99.6049  MISS %:   0.395104  MPKI: 0.03768
STLB TRANSLATION FROM L1D PREFETCHER DATA	ACCESS:     256534  HIT:     256521  MISS:         13  HIT %:    99.9949  MISS %: 0.00506755  MPKI: 0.00026

STLB AVERAGE MISS LATENCY: 70.4525 cycles
STLB RQ	ACCESS:    1365202	FORWARD:          0	MERGED:     141573	TO_CACHE:    1223629

STLB Hit, L1D data hit: 0
STLB Hit, L2C data hit: 0
STLB Hit, LLC data hit: 0
STLB Hit, LLC data miss: 0
STLB STLB hints to L2: 0
L1D TOTAL     ACCESS:   13171671  HIT:   12017671  MISS:    1154000  HIT %:    91.2388  MISS %:    8.76123   MPKI: 23.08
L1D LOAD DATA	ACCESS:    6661058  HIT:    5902141  MISS:     758917  HIT %:    88.6067  MISS %:    11.3933  MPKI: 15.1783
L1D RFO DATA	ACCESS:    6173452  HIT:    5882680  MISS:     290772  HIT %:      95.29  MISS %:    4.71004  MPKI: 5.81544
L1D PREFETCH DATA	ACCESS:     337161  HIT:     232850  MISS:     104311  HIT %:     69.062  MISS %:     30.938  MPKI: 2.08622

L1D PREFETCH  REQUESTED:     796506  ISSUED:     796506  USEFUL:      48590  USELESS:      68107
L1D USEFUL LOAD PREFETCHES:      48590 PREFETCH ISSUED TO LOWER LEVEL:     116744  ACCURACY: 41.621
 TIMELY PREFETCHES:      48590 LATE PREFETCHES: 12394 DROPPED PREFETCHES: 4
L1D AVERAGE MISS LATENCY: 352812 cycles
L1D RQ	ACCESS:   10755689	FORWARD:          0	MERGED:    3899951	TO_CACHE:    6695052
L1D WQ	ACCESS:    6908677	FORWARD:     161006	MERGED:     186716	TO_CACHE:    6721961
L1D PQ	ACCESS:     398413	FORWARD:          0	MERGED:          0	TO_CACHE:     398093

L1D UNIQUE REGIONS ACCESSED: 0
L1D REGIONS CONFLICTS: 0
L1D Cross Page Prefetch Requests: 6506
L1D Same Page Prefetch Requests: 797990
L1D ROI Sum of L1D PQ occupancy: 5048709
L1D PREFETCHES PUSHED FROM L2C: 0
L1I TOTAL     ACCESS:    7245564  HIT:    4504966  MISS:    2740598  HIT %:    62.1755  MISS %:    37.8245   MPKI: 54.812
L1I LOAD INSTRUCTION	ACCESS:    6598239  HIT:    3857641  MISS:    2740598  HIT %:    58.4647  MISS %:    41.5353  MPKI: 54.812
L1I PREFETCH INSTRUCTION	ACCESS:     647325  HIT:     647325  MISS:          0  HIT %:        100  MISS %:          0  MPKI: 0

L1I PREFETCH  REQUESTED:    1533075  ISSUED:    1533075  USEFUL:          0  USELESS:          0
L1I USEFUL LOAD PREFETCHES:          0 PREFETCH ISSUED TO LOWER LEVEL:          0  ACCURACY: -nan
 TIMELY PREFETCHES:          0 LATE PREFETCHES: 0 DROPPED PREFETCHES: 0
L1I AVERAGE MISS LATENCY: 17.1671 cycles
L1I RQ	ACCESS:    9452674	FORWARD:          0	MERGED:    2577954	TO_CACHE:    6874720
L1I PQ	ACCESS:    1533075	FORWARD:          0	MERGED:     425286	TO_CACHE:    1107789

L1BTB TOTAL     ACCESS:    5680057  HIT:    2079872  MISS:    3600185  HIT %:    36.6171  MISS %:    63.3829   MPKI: 72.0037
L1BTB BRANCH_DIRECT_JUMP	ACCESS:     545320  HIT:     144873  MISS:     400447	AVERAGE STALL: 38.0763
L1BTB BRANCH_INDIRECT	ACCESS:     182082  HIT:      65787  MISS:     116295	AVERAGE STALL: 81.9581
L1BTB BRANCH_CONDITIONAL	ACCESS:    2736409  HIT:    1453714  MISS:    1282695	AVERAGE STALL: 42.7536
L1BTB BRANCH_DIRECT_CALL	ACCESS:     937652  HIT:     105113  MISS:     832539	AVERAGE STALL: 47.064
L1BTB BRANCH_INDIRECT_CALL	ACCESS:     170468  HIT:      21227  MISS:     149241	AVERAGE STALL: 102.7
L1BTB BRANCH_RETURN	ACCESS:    1108126  HIT:     289158  MISS:     818968	AVERAGE STALL: 40.2457
L1BTB BRANCH_OTHER ACCESS:          0  HIT:          0  MISS:          0	AVERAGE STALL: -nan
L1BTB TOTAL ROB OCCUPANCY AT BTB MISS: 1.92535

L2BTB TOTAL     ACCESS:    3574901  HIT:    3510131  MISS:      64770  HIT %:    98.1882  MISS %:     1.8118   MPKI: 1.2954
L2BTB BRANCH_DIRECT_JUMP	ACCESS:     396276  HIT:     392223  MISS:       4053	AVERAGE STALL: 38.0763
L2BTB BRANCH_INDIRECT	ACCESS:     106088  HIT:     103455  MISS:       2633	AVERAGE STALL: 81.9581
L2BTB BRANCH_CONDITIONAL	ACCESS:    1282695  HIT:    1278698  MISS:       3997	AVERAGE STALL: 42.7536
L2BTB BRANCH_DIRECT_CALL	ACCESS:     832539  HIT:     831134  MISS:       1405	AVERAGE STALL: 47.064
L2BTB BRANCH_INDIRECT_CALL	ACCESS:     139729  HIT:     129488  MISS:      10241	AVERAGE STALL: 102.7
L2BTB BRANCH_RETURN	ACCESS:     817574  HIT:     775133  MISS:      42441	AVERAGE STALL: 40.2457
L2BTB BRANCH_OTHER ACCESS:          0  HIT:          0  MISS:          0	AVERAGE STALL: -nan
L2BTB TOTAL ROB OCCUPANCY AT BTB MISS: 107.019

L2C TOTAL     ACCESS:    4511059  HIT:    4036028  MISS:     475031  HIT %:    89.4696  MISS %:    10.5304   MPKI: 9.50062
L2C LOAD INSTRUCTION	ACCESS:    2740598  HIT:    2482482  MISS:     258116  HIT %:    90.5818  MISS %:    9.41824  MPKI: 5.16232
L2C LOAD TRANSLATION INSTRUCTION	ACCESS:        281  HIT:         70  MISS:        211  HIT %:     24.911  MISS %:     75.089  MPKI: 0.00422
L2C LOAD DATA	ACCESS:     746496  HIT:     665964  MISS:      80532  HIT %:     89.212  MISS %:     10.788  MPKI: 1.61064
L2C RFO DATA	ACCESS:     290713  HIT:     242649  MISS:      48064  HIT %:    83.4669  MISS %:    16.5331  MPKI: 0.96128
L2C PREFETCH DATA	ACCESS:     204576  HIT:     130190  MISS:      74386  HIT %:    63.6389  MISS %:    36.3611  MPKI: 1.48772
L2C WRITEBACK DATA	ACCESS:     526394  HIT:     514065  MISS:      12329  HIT %:    97.6578  MISS %:    2.34216  MPKI: 0.24658
L2C LOAD TRANSLATION DATA	ACCESS:       1975  HIT:        593  MISS:       1382  HIT %:    30.0253  MISS %:    69.9747  MPKI: 0.02764
L2C TRANSLATION FROM L1D PREFETCHER DATA	ACCESS:         26  HIT:         15  MISS:         11  HIT %:    57.6923  MISS %:    42.3077  MPKI: 0.00022

L2C PREFETCH  REQUESTED:      96177  ISSUED:      96177  USEFUL:       8538  USELESS:      66501
L2C USEFUL LOAD PREFETCHES:       8538 PREFETCH ISSUED TO LOWER LEVEL:      74927  ACCURACY: 11.3951
 TIMELY PREFETCHES:       8538 LATE PREFETCHES: 541 DROPPED PREFETCHES: 0
L2C AVERAGE MISS LATENCY: 39.4864 cycles
L2C RQ	ACCESS:    3780136	FORWARD:          0	MERGED:          0	TO_CACHE:    3780090
L2C WQ	ACCESS:     526394	FORWARD:         46	MERGED:          0	TO_CACHE:     526394
L2C PQ	ACCESS:     212921	FORWARD:          0	MERGED:       3783	TO_CACHE:     209138

L2C Dense regions hint from L2: 0
PSCL5 TOTAL     ACCESS:       4286  HIT:       2143  MISS:       2143  HIT %:         50  MISS %:         50   MPKI: 0.04286
PSCL5 LOAD TRANSLATION INSTRUCTION	ACCESS:       4234  HIT:       2117  MISS:       2117  HIT %:         50  MISS %:         50  MPKI: 0.04234
PSCL5 TRANSLATION FROM L1D PREFETCHER INSTRUCTION	ACCESS:         52  HIT:         26  MISS:         26  HIT %:         50  MISS %:         50  MPKI: 0.00052


PSCL4 TOTAL     ACCESS:       4101  HIT:       2044  MISS:       2057  HIT %:    49.8415  MISS %:    50.1585   MPKI: 0.04114
PSCL4 LOAD TRANSLATION INSTRUCTION	ACCESS:       2684  HIT:       2018  MISS:        666  HIT %:    75.1863  MISS %:    24.8137  MPKI: 0.01332
PSCL4 TRANSLATION FROM L1D PREFETCHER INSTRUCTION	ACCESS:         41  HIT:         26  MISS:         15  HIT %:    63.4146  MISS %:    36.5854  MPKI: 0.0003
PSCL4 LOAD TRANSLATION DATA	ACCESS:       1365  HIT:          0  MISS:       1365  HIT %:          0  MISS %:        100  MPKI: 0.0273
PSCL4 TRANSLATION FROM L1D PREFETCHER DATA	ACCESS:         11  HIT:          0  MISS:         11  HIT %:          0  MISS %:        100  MPKI: 0.00022


PSCL3 TOTAL     ACCESS:       4159  HIT:       2073  MISS:       2086  HIT %:    49.8437  MISS %:    50.1563   MPKI: 0.04172
PSCL3 LOAD TRANSLATION INSTRUCTION	ACCESS:       2713  HIT:       2047  MISS:        666  HIT %:    75.4515  MISS %:    24.5485  MPKI: 0.01332
PSCL3 TRANSLATION FROM L1D PREFETCHER INSTRUCTION	ACCESS:         41  HIT:         26  MISS:         15  HIT %:    63.4146  MISS %:    36.5854  MPKI: 0.0003
PSCL3 LOAD TRANSLATION DATA	ACCESS:       1394  HIT:          0  MISS:       1394  HIT %:          0  MISS %:        100  MPKI: 0.02788
PSCL3 TRANSLATION FROM L1D PREFETCHER DATA	ACCESS:         11  HIT:          0  MISS:         11  HIT %:          0  MISS %:        100  MPKI: 0.00022


PSCL2 TOTAL     ACCESS:       4173  HIT:       2030  MISS:       2143  HIT %:    48.6461  MISS %:    51.3539   MPKI: 0.04286
PSCL2 LOAD TRANSLATION INSTRUCTION	ACCESS:       2246  HIT:       2004  MISS:        242  HIT %:    89.2253  MISS %:    10.7747  MPKI: 0.00484
PSCL2 TRANSLATION FROM L1D PREFETCHER INSTRUCTION	ACCESS:         26  HIT:         26  MISS:          0  HIT %:        100  MISS %:          0  MPKI: 0
PSCL2 LOAD TRANSLATION DATA	ACCESS:       1875  HIT:          0  MISS:       1875  HIT %:          0  MISS %:        100  MPKI: 0.0375
PSCL2 TRANSLATION FROM L1D PREFETCHER DATA	ACCESS:         26  HIT:          0  MISS:         26  HIT %:          0  MISS %:        100  MPKI: 0.00052


LLC TOTAL     ACCESS:     532564  HIT:     501690  MISS:      30874  HIT %:    94.2028  MISS %:    5.79724   MPKI: 0.61748
LLC LOAD INSTRUCTION	ACCESS:     258116  HIT:     257109  MISS:       1007  HIT %:    99.6099  MISS %:   0.390135  MPKI: 0.02014
LLC LOAD TRANSLATION INSTRUCTION	ACCESS:        211  HIT:        188  MISS:         23  HIT %:    89.0995  MISS %:    10.9005  MPKI: 0.00046
LLC LOAD DATA	ACCESS:      80011  HIT:      76477  MISS:       3534  HIT %:    95.5831  MISS %:    4.41689  MPKI: 0.07068
LLC RFO DATA	ACCESS:      47979  HIT:      32416  MISS:      15563  HIT %:    67.5629  MISS %:    32.4371  MPKI: 0.31126
LLC PREFETCH DATA	ACCESS:      74927  HIT:      64734  MISS:      10193  HIT %:    86.3961  MISS %:    13.6039  MPKI: 0.20386
LLC WRITEBACK DATA	ACCESS:      69927  HIT:      69453  MISS:        474  HIT %:    99.3222  MISS %:    0.67785  MPKI: 0.00948
LLC LOAD TRANSLATION DATA	ACCESS:       1382  HIT:       1302  MISS:         80  HIT %:    94.2113  MISS %:    5.78871  MPKI: 0.0016
LLC TRANSLATION FROM L1D PREFETCHER DATA	ACCESS:         11  HIT:         11  MISS:          0  HIT %:        100  MISS %:          0  MPKI: 0

LLC AVERAGE MISS LATENCY: 156.362 cycles
LLC RQ	ACCESS:     387775	FORWARD:          0	MERGED:          0	TO_CACHE:     387710
LLC WQ	ACCESS:      69927	FORWARD:         65	MERGED:          0	TO_CACHE:      69927
LLC PQ	ACCESS:      74927	FORWARD:          0	MERGED:          0	TO_CACHE:      74927

LLC Dense regions hint to LLC: 0

RAW hits: 1858097
Loads Generated: 12613786
Loads sent to L1D: 10755689
Stores Generated: 6908661
Stores sent to L1D: 6908677
Major fault: 0 Minor fault: 2570
Allocated PAGES: 2570

stream: 
stream:times selected: 1242849
stream:pref_filled: 125238
stream:pref_useful: 29027
stream:pref_late: 8850
stream:misses: 10473
stream:misses_by_poll: 0

CS: 
CS:times selected: 196755
CS:pref_filled: 71373
CS:pref_useful: 50351
CS:pref_late: 9181
CS:misses: 23619
CS:misses_by_poll: 10

CPLX: 
CPLX:times selected: 1045002
CPLX:pref_filled: 24573
CPLX:pref_useful: 7641
CPLX:pref_late: 3727
CPLX:misses: 126942
CPLX:misses_by_poll: 1

NL_L1: 
NL:times selected: 13343
NL:pref_filled: 1573
NL:pref_useful: 190
NL:pref_late: 556
NL:misses: 1607
NL:misses_by_poll: 0

total selections: 2497949
total_filled: 104311
total_useful: 48590
total_late: 24792
total_polluted: 11
total_misses_after_warmup: 792912
conflicts: 5545348

test: 118435

DRAM Statistics
 CHANNEL 0
 RQ ROW_BUFFER_HIT:      11560  ROW_BUFFER_MISS:      18832
 DBUS_CONGESTED:         16
 WQ ROW_BUFFER_HIT:       1361  ROW_BUFFER_MISS:      12702  FULL:          0

 AVG_CONGESTED_CYCLE: 5

CPU 0 Branch Prediction Accuracy: 99.8199% MPKI: 0.32972 Average ROB Occupancy at Mispredict: 156.172
Branch types
NOT_BRANCH: 40846973 81.6939%
BRANCH_DIRECT_JUMP: 545320 1.09064%
BRANCH_INDIRECT: 182082 0.364164%
BRANCH_CONDITIONAL: 6209178 12.4184%
BRANCH_DIRECT_CALL: 937652 1.8753%
BRANCH_INDIRECT_CALL: 170468 0.340936%
BRANCH_RETURN: 1108126 2.21625%
BRANCH_OTHER: 0 0%

DRAM PAGES: 1048576
Allocated PAGES: 2570
Average_ROB_Occupancy: 173.285
Average_Decode_Occupancy: 20.324
Average_FTQ_Occupancy: 8.56165
Indirect max targets: 14 Average targets: 1.15203
Branch_type:  BRANCH_DIRECT_JUMP:  Count Percentage: 2.35949 7.00099 8.80877 3.52624 4.02205 11.2658 2.37757 60.6391 
Branch_type:  BRANCH_INDIRECT:  Count Percentage: 11.7715 11.0834 10.2161 13.4362 1.33781 8.023 16.4198 27.7123 
Branch_type:  BRANCH_CONDITIONAL:  Count Percentage: 26.4409 3.87117 2.70043 6.78868 2.01535 6.68464 3.21258 48.2862 
Branch_type:  BRANCH_DIRECT_CALL:  Count Percentage: 0.388978 1.96547 1.14688 2.45344 3.23198 5.35053 4.13669 81.326 
Branch_type:  BRANCH_INDIRECT_CALL:  Count Percentage: 9.52249 0 2.98541 10.6518 0 2.84391 2.84654 71.1498 
Branch_type:  BRANCH_RETURN:  Count Percentage: 7.99749 3.25614 2.74101 9.38808 3.08488 7.7116 3.9527 61.8681 
Branch_type:  BRANCH_DIRECT_JUMP:  Total Count: 25703 76265 95958 38413 43814 122723 25900 660570 
Branch_type:  BRANCH_INDIRECT:  Total Count: 42737 40239 37090 48781 4857 29128 59613 100611 
Branch_type:  BRANCH_CONDITIONAL:  Total Count: 3281680 480465 335160 842569 250133 829656 398725 5992985 
Branch_type:  BRANCH_DIRECT_CALL:  Total Count: 7313 36952 21562 46126 60763 100593 77772 1528974 
Branch_type:  BRANCH_INDIRECT_CALL:  Total Count: 32573 0 10212 36436 0 9728 9737 243378 
Branch_type:  BRANCH_RETURN:  Total Count: 177779 72382 60931 208691 68575 171424 87866 1375288 
Number of unique branch instructions: 10200
Upper 32 bits: 
aaaa
ffff
ffff0000
Unique upper 32 bits: 3
Unique upper 36 bits: 3
Unique upper 40 bits: 5
Unique upper 44 bits: 32
Unique upper 48 bits: 153
Variant_0 : 1379 0.33667
Variant_1 : 1302 0.317871
Variant_2 : 1359 0.331787
Variant_3 : 0 0
Offset_3 4226
Offset_4 259
Offset_5 466
Offset_6 521
Offset_7 604
Offset_8 541
Offset_9 477
Offset_10 399
Offset_11 335
Offset_12 281
Offset_13 211
Offset_14 227
Offset_15 193
Offset_16 223
Offset_17 159
Offset_18 130
Offset_19 240
Offset_20 139
Offset_21 235
Offset_22 402
Offset_23 247
Offset_24 337
Offset_25 88
Offset_47 84
Offset_64 5
decode_dispatch_called: 21708531 56.9135
Dispatch_width: 0 11207916 51.6291 29.3839
Dispatch_width: 1 662785 3.05311 1.73763
Dispatch_width: 2 687888 3.16875 1.80344
Dispatch_width: 3 460930 2.12327 1.20843
Dispatch_width: 4 2633856 12.1328 6.90521
Dispatch_width: 5 287821 1.32584 0.754584
Dispatch_width: 6 5767335 26.5671 15.1203
Empty_decode_cycles: 16434486 43.0865
ROB_full_cycles: 3950539 10.3572
Starvation_cycles_per_kilo_instr: 284.251
Starvation_cycles_per_kilo_instr_3: 255.035
Starvation_cycles_per_kilo_instr_0: 236.919
Branch_type_1  (3,1)  (4,9)  (5,36)  (6,71)  (7,120)  (8,136)  (9,127)  (10,103)  (11,76)  (12,44)  (13,5)  (14,2)  (15,3)  (16,4)  (18,1)  (19,4)  (20,2)  (21,1)  (22,3)  (23,2)  (24,10)  (25,12) 
Branch_type_2  (3,1)  (5,1)  (8,3)  (9,3)  (12,1)  (13,1)  (14,1)  (16,3)  (17,2)  (20,2)  (21,2)  (23,5)  (24,1)  (47,39) 
Branch_type_3  (3,4224)  (4,250)  (5,425)  (6,433)  (7,451)  (8,337)  (9,259)  (10,163)  (11,140)  (12,53)  (13,4)  (64,2) 
Branch_type_4  (6,4)  (7,8)  (8,31)  (9,51)  (10,64)  (11,60)  (12,102)  (13,92)  (14,99)  (15,92)  (16,100)  (17,74)  (18,60)  (19,117)  (20,71)  (21,124)  (22,214)  (23,139)  (24,198)  (25,72)  (64,2) 
Branch_type_5  (8,2)  (9,1)  (10,3)  (11,5)  (12,3)  (13,14)  (14,16)  (15,11)  (16,20)  (17,11)  (18,16)  (19,12)  (20,11)  (21,13)  (22,42)  (23,26)  (24,36) 
Branch_type_6  (5,4)  (6,13)  (7,25)  (8,32)  (9,36)  (10,66)  (11,54)  (12,78)  (13,95)  (14,109)  (15,87)  (16,96)  (17,72)  (18,53)  (19,107)  (20,53)  (21,95)  (22,143)  (23,75)  (24,92)  (25,4)  (47,45)  (64,1) 
Unique trigger count: 
Variant_0_evicts_0 : 0
Variant_0_evicts_1 : 0
Variant_0_evicts_2 : 0
Variant_0_evicts_3 : 0
Variant_1_evicts_0 : 0
Variant_1_evicts_1 : 0
Variant_1_evicts_2 : 0
Variant_1_evicts_3 : 0
Variant_2_evicts_0 : 0
Variant_2_evicts_1 : 0
Variant_2_evicts_2 : 0
Variant_2_evicts_3 : 0
Variant_3_evicts_0 : 0
Variant_3_evicts_1 : 0
Variant_3_evicts_2 : 0
Variant_3_evicts_3 : 0
BTB PER SET UNIQUE ADDR: 9 9 13 15 12 9 8 11 9 10 10 14 14 10 14 9 11 9 11 14 7 12 13 16 10 13 13 13 10 6 11 14 18 8 9 14 11 9 11 10 12 9 14 17 10 12 12 9 13 13 13 10 9 8 11 7 10 8 8 13 8 13 12 15 15 5 7 12 18 10 12 12 12 8 11 8 9 13 10 14 14 8 16 10 12 11 13 6 10 19 7 6 15 10 7 14 10 11 11 14 18 12 15 15 10 9 11 10 7 6 14 17 15 9 10 9 13 13 12 12 12 10 9 13 11 14 8 11 20 11 11 11 11 14 13 15 8 9 9 15 10 14 10 11 10 15 14 11 8 12 14 17 10 11 7 15 12 13 14 13 9 9 15 11 12 12 11 12 15 8 11 12 13 9 10 10 13 10 10 16 6 12 12 11 16 14 8 6 12 11 8 11 11 10 11 11 7 16 10 16 11 11 10 8 9 8 8 7 11 10 10 14 13 12 12 11 10 13 13 14 11 12 9 10 10 9 17 14 7 16 9 5 8 19 14 13 10 12 13 10 9 13 13 13 7 10 9 11 11 9 12 14 14 8 15 11 10 8 12 12 15 9 4 9 13 5 11 10 11 12 7 11 11 5 10 10 13 13 10 12 10 13 11 9 11 6 11 12 15 14 9 8 13 13 5 17 14 13 12 16 9 12 11 13 13 13 10 9 19 11 9 17 7 14 19 8 16 10 10 19 8 13 9 10 16 13 15 12 8 7 11 14 8 8 11 15 11 13 8 16 12 9 7 13 10 10 13 11 13 6 12 14 14 10 10 15 10 14 9 10 10 13 10 11 13 10 8 14 13 15 11 8 16 7 7 14 11 15 11 14 12 11 9 9 10 8 15 14 16 12 15 8 12 17 10 11 10 5 11 10 9 8 11 15 14 15 10 15 13 13 11 8 7 14 11 9 12 14 23 17 11 15 16 11 16 13 13 9 13 10 14 14 12 13 13 13 15 10 8 17 11 11 12 14 22 7 11 12 13 17 19 15 12 10 11 19 14 14 6 15 10 10 12 17 13 10 10 10 11 11 12 11 16 10 11 14 8 14 4 13 19 12 14 12 11 11 20 17 14 10 13 10 11 9 12 7 12 13 12 9 11 13 10 16 8 6 9 12 15 13 14 13 13 13 10 12 8 13 9 11 9 10 10 7 10 11 12 9 6 16 16 14 11 10 9 16 7 12 15 14 13 10 16 13 11 19 10 8 9 13 12 16 12 16 10 16 11 11 14 12 12 17 11 13 11 11 10 14 11 17 12 16 15 13 14 15 18 15 8 13 11 12 8 12 12 9 13 14 15 6 10 16 10 12 15 9 7 11 14 9 10 8 10 6 9 12 13 9 15 11 12 13 8 11 8 13 8 10 11 12 18 11 9 9 10 13 11 15 10 16 11 17 14 10 8 9 12 10 10 15 12 11 14 17 8 10 13 16 17 13 7 13 12 12 15 10 12 8 12 15 8 7 13 17 12 11 9 12 14 8 16 9 11 13 16 6 14 16 10 11 9 16 13 12 16 10 10 14 16 18 13 13 10 5 8 12 7 11 9 18 8 15 15 10 8 11 14 12 9 8 13 13 7 11 13 8 16 15 5 9 15 8 13 10 15 8 12 12 8 11 12 11 11 11 11 13 11 12 16 12 8 12 11 12 12 17 12 14 8 8 9 7 10 8 9 11 10 13 11 4 11 12 8 9 10 13 12 10 9 12 11 13 10 6 12 11 9 9 14 15 6 11 13 10 13 11 11 10 12 7 10 7 12 11 17 11 10 10 15 7 19 13 15 10 17 13 12 13 12 11 14 18 7 12 9 18 20 17 5 12 13 19 9 11 15 8 9 11 11 15 11 14 12 10 11 9 8 12 16 11 15 14 12 6 11 19 11 18 11 6 11 11 12 11 9 14 14 11 13 12 12 12 11 9 15 6 9 10 17 9 10 16 18 13 14 5 11 16 14 11 11 8 12 17 7 15 14 9 13 15 12 13 12 8 12 15 14 10 11 7 14 12 15 10 8 12 12 16 13 14 9 10 10 13 13 10 18 11 13 10 14 15 9 11 9 11 9 14 16 8 10 21 19 12 13 14 7 11 13 17 9 10 12 11 15 12 9 9 6 12 14 15 11 11 8 14 10 11 14 19 8 10 11 14 14 9 13 9 5 12 13 15 6 14 11 9 16 18 13 19 9 13 12 9 9 14 16 12 15 14 10 13 9 13 7 11 6 10 16 19 16 15 9 9 14 14 8 11 11 10 13 15 13 8 11 13 4 10 5 10 12 21 14 10 
BTB PER SET COUNT: 985 15 1498 24 17 13 9 13 1475 12 16 16 653 1496 16 10 1446 9 13 29 9 563 787 22 20 16 19 152 13 6 13 369 19 8 16 191 13 12 15 17 13 11 17 540 18 15 12 12 771 336 23 438 13 10 13 9 16 9 9 22 9 32 17 20 21 5 9 92 22 13 19 757 15 17 15 8 11 21 11 21 781 9 441 23 17 11 15 8 15 35 10 881 507 465 8 20 12 987 15 20 25 1328 17 259 2263 9 15 13 950 6 16 41 163 9 15 976 19 17 1467 23 15 40 14 25 17 28 11 1947 32 983 14 16 12 20 28 28 944 10 10 19 13 780 15 18 32 18 17 15 10 244 18 39 1379 17 8 25 436 21 24 581 10 252 26 12 1179 16 13 16 20 1712 19 14 16 16 13 11 18 16 988 938 981 136 16 12 388 23 8 8 15 976 8 11 11 18 19 12 10 250 10 441 20 13 979 8 9 11 13 8 13 962 19 15 24 31 17 12 12 20 16 17 12 16 387 11 12 14 17 18 7 22 11 6 11 29 18 9227 17 126 25 13 10 23 15 22 7 13 9 12 12 15 19 21 24 13 20 83 12 20 13 14 244 11 4 12 19 6 13 12 929 12 10 11 496 5 861 14 20 26 10 16 15 16 991 10 13 6 12 47 15 17 9 10 15 17 5 30 18 19 17 26 10 16 48 15 18 21 213 176 27 17 23 22 7 17 1820 129 23 16 14 43 12 4861 12 10 103 288 36 18 9 10 12 14 11 9 14 21 15 479 9 310 17 1541 10 15 15 15 16 18 19 6 18 24 18 15 13 24 11 38 353 12 13 20 12 12 15 11 10 21 17 18 13 363 26 9 702 164 11 18 11 1482 435 15 700 10 14 8 4213 18 23 370 521 8 16 29 11 19 15 5 15 12 12 12 11 21 25 21 13 15 14 19 13 8 7 18 11 9 16 5513 32 24 14 19 29 13 20 17 19 19 36 14 65 15 19 16 17 16 23 15 8 20 12 12 51 20 38 8 168 13 22 31 876 37 14 12 164 936 16 16 6 17 10 11 15 26 18 10 6367 11 20 14 19 12 20 14 15 45 8 25 7 13 35 506 14 15 14 16 392 22 22 14 157 11 7878 10 17 7 17 21 18 9 13 26 10 282 14 6 17 14 22 14 64 3907 1478 225 11 17 8 15 18 17 9 11 10 7 11 17 13 12 8 106 34 23 18 11 13 31 8 988 20 26 20 17 23 13 14 292 10 10 13 537 14 22 983 26 13 25 25 13 23 18 14 30 14 26 182 15 145 18 12 84 1473 21 21 17 2469 17 21 629 8 18 14 15 13 19 18 15 402 18 19 8 439 30 17 15 19 12 1875 812 262 10 12 8 68 6 13 18 15 2438 20 14 13 1332 9 15 8 17 8 21 16 711 23 15 15 514 13 23 11 16 1407 22 14 33 124 11 13 10 16 877 12 627 18 17 15 23 8 19 642 17 40 20 7 18 18 16 35 12 17 24 16 17 11 7 22 24 5099 17 11 986 27 11 26 15 15 22 75 6 15 25 11 11 10 29 17 19 558 14 15 17 46 28 21 15 17 5 1930 15 7 141 10 27 975 33 22 10 10 14 19 22 13 9 27 19 20 12 13 60 20 19 7 10 18 12 21 2002 309 8 13 13 14 11 133 9224 11 12 22 20 1006 13 26 12 24 21 15 19 16 23 134 14 9 10 1483 7 1469 1951 1165 13 12 16 14 5 14 17 8 11 39 21 14 15 11 15 14 16 17 8 20 14 14 11 26 24 505 14 468 10 23 12 13 16 17 7 11 759 15 17 1349 208 63 10 21 981 26 16 22 40 119 14 20 16 14 66 17 18 13 13 448 666 42 341 8 2937 22 23 10 21 16 30 10 13 14 21 13 27 18 13 18 1846 8 23 867 14 18 15 12 6 15 34 16 24 15 8 23 174 25 16 1456 26 152 12 14 14 857 14 18 12 765 6 13 10 30 11 19 30 34 16 19 7 11 20 2879 16 14 12 108 25 8 411 18 10 13 21 15 15 488 65 18 21 20 17 27 9 20 20 24 242 8 20 14 22 29 120 15 438 11 17 18 22 36 13 14 11 19 239 1006 1299 9 133 9 20 19 27 11 29 44 14 16 21 11 18 969 23 9 11 18 13 17 14 12 10 8 16 702 989 790 71 9 21 12 16 18 44 9 17 359 16 17 9 17 16 7 112 16 26 6 23 14 15 20 23 41 42 13 17 13 952 15 19 442 496 17 57 13 343 11 19 7 14 6 1473 27 27 19 44 16 12 15 17 11 17 18 16 19 24 14 13 14 17 5 69 6 13 16 184 15 12 
To predecode: 0
Predecoding something: 0
Predecode request dropped: 0
sizeofblock_0 0
sizeofblock_1 42544
sizeofblock_2 28664
sizeofblock_3 42541
sizeofblock_4 22915
sizeofblock_5 0
sizeofblock_6 0
sizeofblock_7 0
sizeofblock_8 0
Variant_0 Correct: 1603838 Incorrect: 0 Accuracy: 1
Variant_1 Correct: 2078301 Incorrect: 0 Accuracy: 1
Variant_2 Correct: 3627355 Incorrect: 0 Accuracy: 1
Variant_3 Correct: 0 Incorrect: 0 Accuracy: -nan
