
*** ChampSim Multicore Out-of-Order Simulator ***

Warmup Instructions: 50000000
Simulation Instructions: 50000000
Number of CPUs: 1
LLC sets: 2048
LLC ways: 16
Off-chip DRAM Size: 4096 MB Channels: 1 Width: 64-bit Data Rate: 6400 MT/s
CPU 0 runs ./micro_traces/srv741.trace.gz
.gz
ITLB has LRU replacement policy
DTLB has LRU replacement policy
STLB has LRU replacement policy
FDIP Prefetcher at L1I
L1I has LRU replacement policy
L1D has LRU replacement policy
Initialize SRRIP state for L2C
Initialize DRRIP state for LLC
Heartbeat_Variant_0 : 1296 0.316406 per_variant_size: 0 1296 0 0 0 0 0 0 0 
Heartbeat_Variant_1 : 2478 0.60498 per_variant_size: 0 589 1889 0 0 0 0 0 0 
Heartbeat_Variant_2 : 0 0 per_variant_size: 0 0 0 0 0 0 0 0 0 
Heartbeat_Variant_3 : 0 0 per_variant_size: 0 0 0 0 0 0 0 0 0 
Heartbeat_Variant_0_evicts 0 : 5847 1 : 308 2 : 0 3 : 0 
Heartbeat_Variant_1_evicts 0 : 282 1 : 0 2 : 0 3 : 0 
Heartbeat_Variant_2_evicts 0 : 0 1 : 0 2 : 0 3 : 0 
Heartbeat_Variant_3_evicts 0 : 0 1 : 0 2 : 0 3 : 0 
Heartbeat CPU 0 instructions: 10000001 cycles: 2799629 heartbeat IPC: 3.5719 cumulative IPC: 3.5719 (Simulation time: 0 hr 2 min 32 sec) 
Heartbeat_Variant_0 : 1347 0.328857 per_variant_size: 0 1347 0 0 0 0 0 0 0 
Heartbeat_Variant_1 : 2605 0.635986 per_variant_size: 0 540 2065 0 0 0 0 0 0 
Heartbeat_Variant_2 : 0 0 per_variant_size: 0 0 0 0 0 0 0 0 0 
Heartbeat_Variant_3 : 0 0 per_variant_size: 0 0 0 0 0 0 0 0 0 
Heartbeat_Variant_0_evicts 0 : 5788 1 : 422 2 : 0 3 : 0 
Heartbeat_Variant_1_evicts 0 : 415 1 : 0 2 : 0 3 : 0 
Heartbeat_Variant_2_evicts 0 : 0 1 : 0 2 : 0 3 : 0 
Heartbeat_Variant_3_evicts 0 : 0 1 : 0 2 : 0 3 : 0 
Heartbeat CPU 0 instructions: 20000001 cycles: 5598825 heartbeat IPC: 3.57245 cumulative IPC: 3.57218 (Simulation time: 0 hr 4 min 27 sec) 
Heartbeat_Variant_0 : 1349 0.329346 per_variant_size: 0 1349 0 0 0 0 0 0 0 
Heartbeat_Variant_1 : 2606 0.63623 per_variant_size: 0 537 2069 0 0 0 0 0 0 
Heartbeat_Variant_2 : 0 0 per_variant_size: 0 0 0 0 0 0 0 0 0 
Heartbeat_Variant_3 : 0 0 per_variant_size: 0 0 0 0 0 0 0 0 0 
Heartbeat_Variant_0_evicts 0 : 5572 1 : 22 2 : 0 3 : 0 
Heartbeat_Variant_1_evicts 0 : 20 1 : 0 2 : 0 3 : 0 
Heartbeat_Variant_2_evicts 0 : 0 1 : 0 2 : 0 3 : 0 
Heartbeat_Variant_3_evicts 0 : 0 1 : 0 2 : 0 3 : 0 
Heartbeat CPU 0 instructions: 30000002 cycles: 8397867 heartbeat IPC: 3.57265 cumulative IPC: 3.57234 (Simulation time: 0 hr 6 min 12 sec) 
Heartbeat_Variant_0 : 1367 0.33374 per_variant_size: 0 1367 0 0 0 0 0 0 0 
Heartbeat_Variant_1 : 2611 0.637451 per_variant_size: 0 503 2108 0 0 0 0 0 0 
Heartbeat_Variant_2 : 0 0 per_variant_size: 0 0 0 0 0 0 0 0 0 
Heartbeat_Variant_3 : 0 0 per_variant_size: 0 0 0 0 0 0 0 0 0 
Heartbeat_Variant_0_evicts 0 : 5742 1 : 264 2 : 0 3 : 0 
Heartbeat_Variant_1_evicts 0 : 250 1 : 0 2 : 0 3 : 0 
Heartbeat_Variant_2_evicts 0 : 0 1 : 0 2 : 0 3 : 0 
Heartbeat_Variant_3_evicts 0 : 0 1 : 0 2 : 0 3 : 0 
Heartbeat CPU 0 instructions: 40000003 cycles: 11197033 heartbeat IPC: 3.57249 cumulative IPC: 3.57238 (Simulation time: 0 hr 8 min 1 sec) 
Heartbeat_Variant_0 : 1366 0.333496 per_variant_size: 0 1366 0 0 0 0 0 0 0 
Heartbeat_Variant_1 : 2612 0.637695 per_variant_size: 0 500 2112 0 0 0 0 0 0 
Heartbeat_Variant_2 : 0 0 per_variant_size: 0 0 0 0 0 0 0 0 0 
Heartbeat_Variant_3 : 0 0 per_variant_size: 0 0 0 0 0 0 0 0 0 
Heartbeat_Variant_0_evicts 0 : 5660 1 : 17 2 : 0 3 : 0 
Heartbeat_Variant_1_evicts 0 : 18 1 : 0 2 : 0 3 : 0 
Heartbeat_Variant_2_evicts 0 : 0 1 : 0 2 : 0 3 : 0 
Heartbeat_Variant_3_evicts 0 : 0 1 : 0 2 : 0 3 : 0 
Heartbeat CPU 0 instructions: 50000002 cycles: 13997454 heartbeat IPC: 3.57089 cumulative IPC: 3.57208 (Simulation time: 0 hr 9 min 48 sec) 

Warmup complete CPU 0 instructions: 50000002 cycles: 13997454 (Simulation time: 0 hr 9 min 48 sec) 

Cycle: 20000000 FTQ IN: 58228207 FTQ occupancy: 20.5566 DECODE IN: 58228081 DECODE occupancy: 53.0953 ROB IN: 58228021 ROB occupancy: 317.668 ROB OUT: 58227669
Heartbeat_Variant_0 : 1373 0.335205 per_variant_size: 0 1373 0 0 0 0 0 0 0 
Heartbeat_Variant_1 : 2615 0.638428 per_variant_size: 0 517 2098 0 0 0 0 0 0 
Heartbeat_Variant_2 : 0 0 per_variant_size: 0 0 0 0 0 0 0 0 0 
Heartbeat_Variant_3 : 0 0 per_variant_size: 0 0 0 0 0 0 0 0 0 
Heartbeat_Variant_0_evicts 0 : 5625 1 : 91 2 : 0 3 : 0 
Heartbeat_Variant_1_evicts 0 : 85 1 : 0 2 : 0 3 : 0 
Heartbeat_Variant_2_evicts 0 : 0 1 : 0 2 : 0 3 : 0 
Heartbeat_Variant_3_evicts 0 : 0 1 : 0 2 : 0 3 : 0 
Heartbeat CPU 0 instructions: 60000000 cycles: 21269654 heartbeat IPC: 1.3751 cumulative IPC: 1.3751 (Simulation time: 0 hr 12 min 0 sec) 
Heartbeat_Variant_0 : 1377 0.336182 per_variant_size: 0 1377 0 0 0 0 0 0 0 
Heartbeat_Variant_1 : 2626 0.641113 per_variant_size: 0 526 2100 0 0 0 0 0 0 
Heartbeat_Variant_2 : 0 0 per_variant_size: 0 0 0 0 0 0 0 0 0 
Heartbeat_Variant_3 : 0 0 per_variant_size: 0 0 0 0 0 0 0 0 0 
Heartbeat_Variant_0_evicts 0 : 5635 1 : 110 2 : 0 3 : 0 
Heartbeat_Variant_1_evicts 0 : 110 1 : 0 2 : 0 3 : 0 
Heartbeat_Variant_2_evicts 0 : 0 1 : 0 2 : 0 3 : 0 
Heartbeat_Variant_3_evicts 0 : 0 1 : 0 2 : 0 3 : 0 
Heartbeat CPU 0 instructions: 70000000 cycles: 28484396 heartbeat IPC: 1.38605 cumulative IPC: 1.38055 (Simulation time: 0 hr 14 min 6 sec) 
Cycle: 30000000 FTQ IN: 13884166 FTQ occupancy: 14.8723 DECODE IN: 13884274 DECODE occupancy: 37.341 ROB IN: 13884334 ROB occupancy: 247.27 ROB OUT: 13884677
Heartbeat_Variant_0 : 1378 0.336426 per_variant_size: 0 1378 0 0 0 0 0 0 0 
Heartbeat_Variant_1 : 2626 0.641113 per_variant_size: 0 521 2105 0 0 0 0 0 0 
Heartbeat_Variant_2 : 0 0 per_variant_size: 0 0 0 0 0 0 0 0 0 
Heartbeat_Variant_3 : 0 0 per_variant_size: 0 0 0 0 0 0 0 0 0 
Heartbeat_Variant_0_evicts 0 : 5544 1 : 35 2 : 0 3 : 0 
Heartbeat_Variant_1_evicts 0 : 34 1 : 0 2 : 0 3 : 0 
Heartbeat_Variant_2_evicts 0 : 0 1 : 0 2 : 0 3 : 0 
Heartbeat_Variant_3_evicts 0 : 0 1 : 0 2 : 0 3 : 0 
Heartbeat CPU 0 instructions: 80000003 cycles: 35766176 heartbeat IPC: 1.37329 cumulative IPC: 1.37812 (Simulation time: 0 hr 16 min 17 sec) 
Cycle: 40000000 FTQ IN: 13744819 FTQ occupancy: 15.032 DECODE IN: 13744829 DECODE occupancy: 37.5472 ROB IN: 13744825 ROB occupancy: 247.058 ROB OUT: 13744834
Heartbeat_Variant_0 : 1381 0.337158 per_variant_size: 0 1381 0 0 0 0 0 0 0 
Heartbeat_Variant_1 : 2625 0.640869 per_variant_size: 0 506 2119 0 0 0 0 0 0 
Heartbeat_Variant_2 : 0 0 per_variant_size: 0 0 0 0 0 0 0 0 0 
Heartbeat_Variant_3 : 0 0 per_variant_size: 0 0 0 0 0 0 0 0 0 
Heartbeat_Variant_0_evicts 0 : 5603 1 : 53 2 : 0 3 : 0 
Heartbeat_Variant_1_evicts 0 : 50 1 : 0 2 : 0 3 : 0 
Heartbeat_Variant_2_evicts 0 : 0 1 : 0 2 : 0 3 : 0 
Heartbeat_Variant_3_evicts 0 : 0 1 : 0 2 : 0 3 : 0 
Heartbeat CPU 0 instructions: 90000001 cycles: 42984189 heartbeat IPC: 1.38542 cumulative IPC: 1.37994 (Simulation time: 0 hr 18 min 27 sec) 
Cycle: 50000000 FTQ IN: 13753794 FTQ occupancy: 15.0297 DECODE IN: 13753802 DECODE occupancy: 37.6038 ROB IN: 13753767 ROB occupancy: 247.432 ROB OUT: 13753415
Heartbeat_Variant_0 : 1380 0.336914 per_variant_size: 0 1380 0 0 0 0 0 0 0 
Heartbeat_Variant_1 : 2627 0.641357 per_variant_size: 0 504 2123 0 0 0 0 0 0 
Heartbeat_Variant_2 : 0 0 per_variant_size: 0 0 0 0 0 0 0 0 0 
Heartbeat_Variant_3 : 0 0 per_variant_size: 0 0 0 0 0 0 0 0 0 
Heartbeat_Variant_0_evicts 0 : 5557 1 : 10 2 : 0 3 : 0 
Heartbeat_Variant_1_evicts 0 : 12 1 : 0 2 : 0 3 : 0 
Heartbeat_Variant_2_evicts 0 : 0 1 : 0 2 : 0 3 : 0 
Heartbeat_Variant_3_evicts 0 : 0 1 : 0 2 : 0 3 : 0 
Heartbeat CPU 0 instructions: 100000002 cycles: 50278493 heartbeat IPC: 1.37093 cumulative IPC: 1.37813 (Simulation time: 0 hr 20 min 50 sec) 
Finished CPU 0 instructions: 50000000 cycles: 36281039 cumulative IPC: 1.37813 (Simulation time: 0 hr 20 min 50 sec) 

ChampSim completed all CPUs

Region of Interest Statistics

CPU 0 cumulative IPC: 1.37813 instructions: 50000000 cycles: 36281039
 Fetch stage stalled: 46.3597  Sim cycles: 36281039 fetch stall cycle: 16819764
 Empty decode stage: 26.7888  Sim cycles: 36281039 fetch stall cycle: 9719268
ITLB TOTAL     ACCESS:    5852251  HIT:    5357637  MISS:     494614  HIT %:    91.5483  MISS %:    8.45169   MPKI: 9.89228
ITLB LOAD TRANSLATION INSTRUCTION	ACCESS:    5717633  HIT:    5223019  MISS:     494614  HIT %:    91.3493  MISS %:    8.65068  MPKI: 9.89228
ITLB TRANSLATION FROM L1D PREFETCHER INSTRUCTION	ACCESS:     134618  HIT:     134618  MISS:          0  HIT %:        100  MISS %:          0  MPKI: 0

ITLB AVERAGE MISS LATENCY: 9.06753 cycles
ITLB RQ	ACCESS:    7958840	FORWARD:          0	MERGED:    1626141	TO_CACHE:    6332699

DTLB TOTAL     ACCESS:    8963023  HIT:    8491041  MISS:     471982  HIT %:    94.7341  MISS %:    5.26588   MPKI: 9.43964
DTLB LOAD TRANSLATION DATA	ACCESS:    8963023  HIT:    8491041  MISS:     471982  HIT %:    94.7341  MISS %:    5.26588  MPKI: 9.43964

DTLB AVERAGE MISS LATENCY: 9.33371 cycles
DTLB RQ	ACCESS:   13337629	FORWARD:          0	MERGED:    4338241	TO_CACHE:    8999388

STLB TOTAL     ACCESS:    1214919  HIT:    1212791  MISS:       2128  HIT %:    99.8248  MISS %:   0.175156   MPKI: 0.04256
STLB LOAD TRANSLATION INSTRUCTION	ACCESS:     494614  HIT:     494348  MISS:        266  HIT %:    99.9462  MISS %:  0.0537793  MPKI: 0.00532
STLB LOAD TRANSLATION DATA	ACCESS:     471982  HIT:     470125  MISS:       1857  HIT %:    99.6066  MISS %:   0.393447  MPKI: 0.03714
STLB TRANSLATION FROM L1D PREFETCHER DATA	ACCESS:     248323  HIT:     248318  MISS:          5  HIT %:     99.998  MISS %: 0.00201351  MPKI: 0.0001

STLB AVERAGE MISS LATENCY: 75.7956 cycles
STLB RQ	ACCESS:    1334884	FORWARD:          0	MERGED:     119932	TO_CACHE:    1214952

STLB Hit, L1D data hit: 0
STLB Hit, L2C data hit: 0
STLB Hit, LLC data hit: 0
STLB Hit, LLC data miss: 0
STLB STLB hints to L2: 0
L1D TOTAL     ACCESS:   13081011  HIT:   11960922  MISS:    1120089  HIT %:    91.4373  MISS %:    8.56271   MPKI: 22.4018
L1D LOAD DATA	ACCESS:    6546205  HIT:    5809076  MISS:     737129  HIT %:    88.7396  MISS %:    11.2604  MPKI: 14.7426
L1D RFO DATA	ACCESS:    6208148  HIT:    5921588  MISS:     286560  HIT %:    95.3841  MISS %:    4.61587  MPKI: 5.7312
L1D PREFETCH DATA	ACCESS:     326658  HIT:     230258  MISS:      96400  HIT %:     70.489  MISS %:     29.511  MPKI: 1.928

L1D PREFETCH  REQUESTED:     736985  ISSUED:     736985  USEFUL:      35155  USELESS:      69289
L1D USEFUL LOAD PREFETCHES:      35155 PREFETCH ISSUED TO LOWER LEVEL:     104480  ACCURACY: 33.6476
 TIMELY PREFETCHES:      35155 LATE PREFETCHES: 8048 DROPPED PREFETCHES: 6
L1D AVERAGE MISS LATENCY: 232042 cycles
L1D RQ	ACCESS:   10694137	FORWARD:          0	MERGED:    3947692	TO_CACHE:    6581418
L1D WQ	ACCESS:    6952733	FORWARD:     165436	MERGED:     196522	TO_CACHE:    6756211
L1D PQ	ACCESS:     368697	FORWARD:          0	MERGED:          0	TO_CACHE:     368288

L1D UNIQUE REGIONS ACCESSED: 0
L1D REGIONS CONFLICTS: 0
L1D Cross Page Prefetch Requests: 5727
L1D Same Page Prefetch Requests: 754432
L1D ROI Sum of L1D PQ occupancy: 4692026
L1D PREFETCHES PUSHED FROM L2C: 0
L1I TOTAL     ACCESS:    6627467  HIT:    2246569  MISS:    4380898  HIT %:    33.8979  MISS %:    66.1021   MPKI: 87.618
L1I LOAD INSTRUCTION	ACCESS:    6259528  HIT:    1893840  MISS:    4365688  HIT %:    30.2553  MISS %:    69.7447  MPKI: 87.3138
L1I PREFETCH INSTRUCTION	ACCESS:     367939  HIT:     352729  MISS:      15210  HIT %:    95.8662  MISS %:    4.13384  MPKI: 0.3042

L1I PREFETCH  REQUESTED:    1624972  ISSUED:    1624972  USEFUL:       7253  USELESS:      15208
L1I USEFUL LOAD PREFETCHES:       7253 PREFETCH ISSUED TO LOWER LEVEL:      22463  ACCURACY: 32.2887
 TIMELY PREFETCHES:       7253 LATE PREFETCHES: 7253 DROPPED PREFETCHES: 0
L1I AVERAGE MISS LATENCY: 52877.4 cycles
L1I RQ	ACCESS:    9567063	FORWARD:          0	MERGED:    2801274	TO_CACHE:    6765789
L1I PQ	ACCESS:    1624972	FORWARD:          0	MERGED:     431921	TO_CACHE:    1193051

L1BTB TOTAL     ACCESS:    5672502  HIT:    2041505  MISS:    3630997  HIT %:    35.9895  MISS %:    64.0105   MPKI: 72.6199
L1BTB BRANCH_DIRECT_JUMP	ACCESS:     549038 HIT:     144764 MISS:     404274 AVERAGE STALL: 63.2161 AVERAGE FETCH STALL: 22.8853 AVERAGE FETCH QUEUE STALL: 13.6349 AVERAGE DECODE STALL: 25.7589 AVERAGE EXECUTE STALL: 2.21051e+15
L1BTB BRANCH_INDIRECT	ACCESS:     183066 HIT:      66031 MISS:     117035 AVERAGE STALL: 111.926 AVERAGE FETCH STALL: 12.836 AVERAGE FETCH QUEUE STALL: 16.7018 AVERAGE DECODE STALL: 13.4304 AVERAGE EXECUTE STALL: 67.9956
L1BTB BRANCH_CONDITIONAL	ACCESS:    2708365 HIT:    1414600 MISS:    1293765 AVERAGE STALL: 73.9208 AVERAGE FETCH STALL: 22.1103 AVERAGE FETCH QUEUE STALL: 28.8104 AVERAGE DECODE STALL: 22.3212 AVERAGE EXECUTE STALL: 2.6906e+15
L1BTB BRANCH_DIRECT_CALL	ACCESS:     944675 HIT:     105649 MISS:     839026 AVERAGE STALL: 85.6022 AVERAGE FETCH STALL: 26.8613 AVERAGE FETCH QUEUE STALL: 40.119 AVERAGE DECODE STALL: 18.0154 AVERAGE EXECUTE STALL: 1.29179e+16
L1BTB BRANCH_INDIRECT_CALL	ACCESS:     171345 HIT:      20872 MISS:     150473 AVERAGE STALL: 143.321 AVERAGE FETCH STALL: 17.2852 AVERAGE FETCH QUEUE STALL: 17.0177 AVERAGE DECODE STALL: 11.822 AVERAGE EXECUTE STALL: 96.7064
L1BTB BRANCH_RETURN	ACCESS:    1116013 HIT:     289589 MISS:     826424 AVERAGE STALL: 51.5842 AVERAGE FETCH STALL: 20.3208 AVERAGE FETCH QUEUE STALL: 4.19493 AVERAGE DECODE STALL: 5.77838 AVERAGE EXECUTE STALL: 4.38259e+14
L1BTB BRANCH_OTHER ACCESS:          0 HIT:          0 MISS:          0 AVERAGE STALL: -nan AVERAGE FETCH STALL: -nan AVERAGE FETCH QUEUE STALL: -nan AVERAGE DECODE STALL: -nan AVERAGE EXECUTE STALL: -nan
L1BTB TOTAL ROB OCCUPANCY AT BTB MISS: 2.74338

L2BTB TOTAL     ACCESS:    3605693  HIT:    3539680  MISS:      66013  HIT %:    98.1692  MISS %:     1.8308   MPKI: 1.32026
L2BTB BRANCH_DIRECT_JUMP	ACCESS:     400139 HIT:     395929 MISS:       4210 AVERAGE STALL: 63.2161 AVERAGE FETCH STALL: 22.8853 AVERAGE FETCH QUEUE STALL: 13.6349 AVERAGE DECODE STALL: 25.7589 AVERAGE EXECUTE STALL: 2.21051e+15
L2BTB BRANCH_INDIRECT	ACCESS:     106771 HIT:     104037 MISS:       2734 AVERAGE STALL: 111.926 AVERAGE FETCH STALL: 12.836 AVERAGE FETCH QUEUE STALL: 16.7018 AVERAGE DECODE STALL: 13.4304 AVERAGE EXECUTE STALL: 67.9956
L2BTB BRANCH_CONDITIONAL	ACCESS:    1293765 HIT:    1286888 MISS:       6877 AVERAGE STALL: 73.9208 AVERAGE FETCH STALL: 22.1103 AVERAGE FETCH QUEUE STALL: 28.8104 AVERAGE DECODE STALL: 22.3212 AVERAGE EXECUTE STALL: 2.6906e+15
L2BTB BRANCH_DIRECT_CALL	ACCESS:     839026 HIT:     837589 MISS:       1437 AVERAGE STALL: 85.6022 AVERAGE FETCH STALL: 26.8613 AVERAGE FETCH QUEUE STALL: 40.119 AVERAGE DECODE STALL: 18.0154 AVERAGE EXECUTE STALL: 1.29179e+16
L2BTB BRANCH_INDIRECT_CALL	ACCESS:     140976 HIT:     130910 MISS:      10066 AVERAGE STALL: 143.321 AVERAGE FETCH STALL: 17.2852 AVERAGE FETCH QUEUE STALL: 17.0177 AVERAGE DECODE STALL: 11.822 AVERAGE EXECUTE STALL: 96.7064
L2BTB BRANCH_RETURN	ACCESS:     825016 HIT:     784327 MISS:      40689 AVERAGE STALL: 51.5842 AVERAGE FETCH STALL: 20.3208 AVERAGE FETCH QUEUE STALL: 4.19493 AVERAGE DECODE STALL: 5.77838 AVERAGE EXECUTE STALL: 4.38259e+14
L2BTB BRANCH_OTHER ACCESS:          0 HIT:          0 MISS:          0 AVERAGE STALL: -nan AVERAGE FETCH STALL: -nan AVERAGE FETCH QUEUE STALL: -nan AVERAGE DECODE STALL: -nan AVERAGE EXECUTE STALL: -nan
L2BTB TOTAL ROB OCCUPANCY AT BTB MISS: 150.898

L2C TOTAL     ACCESS:    6121834  HIT:    5646176  MISS:     475658  HIT %:    92.2301  MISS %:    7.76986   MPKI: 9.51316
L2C LOAD INSTRUCTION	ACCESS:    4358434  HIT:    4098394  MISS:     260040  HIT %:    94.0336  MISS %:    5.96636  MPKI: 5.2008
L2C PREFETCH INSTRUCTION	ACCESS:      22463  HIT:      22463  MISS:          0  HIT %:        100  MISS %:          0  MPKI: 0
L2C LOAD TRANSLATION INSTRUCTION	ACCESS:        307  HIT:         62  MISS:        245  HIT %:    20.1954  MISS %:    79.8046  MPKI: 0.0049
L2C LOAD DATA	ACCESS:     728961  HIT:     653053  MISS:      75908  HIT %:    89.5868  MISS %:    10.4132  MPKI: 1.51816
L2C RFO DATA	ACCESS:     286508  HIT:     234955  MISS:      51553  HIT %:    82.0064  MISS %:    17.9936  MPKI: 1.03106
L2C PREFETCH DATA	ACCESS:     200216  HIT:     126510  MISS:      73706  HIT %:    63.1868  MISS %:    36.8132  MPKI: 1.47412
L2C WRITEBACK DATA	ACCESS:     522987  HIT:     510153  MISS:      12834  HIT %:     97.546  MISS %:    2.45398  MPKI: 0.25668
L2C LOAD TRANSLATION DATA	ACCESS:       1941  HIT:        573  MISS:       1368  HIT %:    29.5209  MISS %:    70.4791  MPKI: 0.02736
L2C TRANSLATION FROM L1D PREFETCHER DATA	ACCESS:         17  HIT:         13  MISS:          4  HIT %:    76.4706  MISS %:    23.5294  MPKI: 8e-05

L2C PREFETCH  REQUESTED:     106252  ISSUED:     106252  USEFUL:       8021  USELESS:      66531
L2C USEFUL LOAD PREFETCHES:       8021 PREFETCH ISSUED TO LOWER LEVEL:      74443  ACCURACY: 10.7747
 TIMELY PREFETCHES:       8021 LATE PREFETCHES: 737 DROPPED PREFETCHES: 0
L2C AVERAGE MISS LATENCY: 39.5412 cycles
L2C RQ	ACCESS:    5376308	FORWARD:          0	MERGED:         81	TO_CACHE:    5376168
L2C WQ	ACCESS:     522987	FORWARD:         59	MERGED:          0	TO_CACHE:     522987
L2C PQ	ACCESS:     233195	FORWARD:          0	MERGED:       5552	TO_CACHE:     227643

L2C Dense regions hint from L2: 0
PSCL5 TOTAL     ACCESS:       4272  HIT:       2136  MISS:       2136  HIT %:         50  MISS %:         50   MPKI: 0.04272
PSCL5 LOAD TRANSLATION INSTRUCTION	ACCESS:       4238  HIT:       2119  MISS:       2119  HIT %:         50  MISS %:         50  MPKI: 0.04238
PSCL5 TRANSLATION FROM L1D PREFETCHER INSTRUCTION	ACCESS:         34  HIT:         17  MISS:         17  HIT %:         50  MISS %:         50  MPKI: 0.00034


PSCL4 TOTAL     ACCESS:       4158  HIT:       2074  MISS:       2084  HIT %:    49.8797  MISS %:    50.1203   MPKI: 0.04168
PSCL4 LOAD TRANSLATION INSTRUCTION	ACCESS:       3216  HIT:       2057  MISS:       1159  HIT %:    63.9614  MISS %:    36.0386  MPKI: 0.02318
PSCL4 TRANSLATION FROM L1D PREFETCHER INSTRUCTION	ACCESS:         28  HIT:         17  MISS:         11  HIT %:    60.7143  MISS %:    39.2857  MPKI: 0.00022
PSCL4 LOAD TRANSLATION DATA	ACCESS:        908  HIT:          0  MISS:        908  HIT %:          0  MISS %:        100  MPKI: 0.01816
PSCL4 TRANSLATION FROM L1D PREFETCHER DATA	ACCESS:          6  HIT:          0  MISS:          6  HIT %:          0  MISS %:        100  MPKI: 0.00012


PSCL3 TOTAL     ACCESS:       4222  HIT:       2106  MISS:       2116  HIT %:    49.8816  MISS %:    50.1184   MPKI: 0.04232
PSCL3 LOAD TRANSLATION INSTRUCTION	ACCESS:       3248  HIT:       2089  MISS:       1159  HIT %:    64.3165  MISS %:    35.6835  MPKI: 0.02318
PSCL3 TRANSLATION FROM L1D PREFETCHER INSTRUCTION	ACCESS:         28  HIT:         17  MISS:         11  HIT %:    60.7143  MISS %:    39.2857  MPKI: 0.00022
PSCL3 LOAD TRANSLATION DATA	ACCESS:        940  HIT:          0  MISS:        940  HIT %:          0  MISS %:        100  MPKI: 0.0188
PSCL3 TRANSLATION FROM L1D PREFETCHER DATA	ACCESS:          6  HIT:          0  MISS:          6  HIT %:          0  MISS %:        100  MPKI: 0.00012


PSCL2 TOTAL     ACCESS:       4163  HIT:       2027  MISS:       2136  HIT %:    48.6908  MISS %:    51.3092   MPKI: 0.04272
PSCL2 LOAD TRANSLATION INSTRUCTION	ACCESS:       2275  HIT:       2010  MISS:        265  HIT %:    88.3516  MISS %:    11.6484  MPKI: 0.0053
PSCL2 TRANSLATION FROM L1D PREFETCHER INSTRUCTION	ACCESS:         17  HIT:         17  MISS:          0  HIT %:        100  MISS %:          0  MPKI: 0
PSCL2 LOAD TRANSLATION DATA	ACCESS:       1854  HIT:          0  MISS:       1854  HIT %:          0  MISS %:        100  MPKI: 0.03708
PSCL2 TRANSLATION FROM L1D PREFETCHER DATA	ACCESS:         17  HIT:          0  MISS:         17  HIT %:          0  MISS %:        100  MPKI: 0.00034


LLC TOTAL     ACCESS:     535273  HIT:     504519  MISS:      30754  HIT %:    94.2545  MISS %:    5.74548   MPKI: 0.61508
LLC LOAD INSTRUCTION	ACCESS:     259809  HIT:     258795  MISS:       1014  HIT %:    99.6097  MISS %:   0.390287  MPKI: 0.02028
LLC LOAD TRANSLATION INSTRUCTION	ACCESS:        245  HIT:        195  MISS:         50  HIT %:    79.5918  MISS %:    20.4082  MPKI: 0.001
LLC LOAD DATA	ACCESS:      75425  HIT:      71823  MISS:       3602  HIT %:    95.2244  MISS %:     4.7756  MPKI: 0.07204
LLC RFO DATA	ACCESS:      51523  HIT:      36151  MISS:      15372  HIT %:    70.1648  MISS %:    29.8352  MPKI: 0.30744
LLC PREFETCH DATA	ACCESS:      74443  HIT:      64235  MISS:      10208  HIT %:    86.2875  MISS %:    13.7125  MPKI: 0.20416
LLC WRITEBACK DATA	ACCESS:      72456  HIT:      72026  MISS:        430  HIT %:    99.4065  MISS %:   0.593464  MPKI: 0.0086
LLC LOAD TRANSLATION DATA	ACCESS:       1368  HIT:       1290  MISS:         78  HIT %:    94.2982  MISS %:    5.70175  MPKI: 0.00156
LLC TRANSLATION FROM L1D PREFETCHER DATA	ACCESS:          4  HIT:          4  MISS:          0  HIT %:        100  MISS %:          0  MPKI: 0

LLC AVERAGE MISS LATENCY: 158.724 cycles
LLC RQ	ACCESS:     388381	FORWARD:          0	MERGED:          0	TO_CACHE:     388374
LLC WQ	ACCESS:      72456	FORWARD:          7	MERGED:          0	TO_CACHE:      72456
LLC PQ	ACCESS:      74443	FORWARD:          0	MERGED:          0	TO_CACHE:      74443

LLC Dense regions hint to LLC: 0

RAW hits: 1948442
Loads Generated: 12642579
Loads sent to L1D: 10694137
Stores Generated: 6952714
Stores sent to L1D: 6952733
Major fault: 0 Minor fault: 2560
Allocated PAGES: 2560

stream: 
stream:times selected: 1194601
stream:pref_filled: 119571
stream:pref_useful: 22028
stream:pref_late: 8925
stream:misses: 8480
stream:misses_by_poll: 0

CS: 
CS:times selected: 180878
CS:pref_filled: 52229
CS:pref_useful: 28665
CS:pref_late: 14855
CS:misses: 24443
CS:misses_by_poll: 2

CPLX: 
CPLX:times selected: 1012551
CPLX:pref_filled: 18981
CPLX:pref_useful: 3641
CPLX:pref_late: 4060
CPLX:misses: 96842
CPLX:misses_by_poll: 0

NL_L1: 
NL:times selected: 15578
NL:pref_filled: 431
NL:pref_useful: 116
NL:pref_late: 448
NL:misses: 1279
NL:misses_by_poll: 0

total selections: 2403608
total_filled: 96400
total_useful: 35155
total_late: 29664
total_polluted: 2
total_misses_after_warmup: 772341
conflicts: 5510729

test: 119381

DRAM Statistics
 CHANNEL 0
 RQ ROW_BUFFER_HIT:      11279  ROW_BUFFER_MISS:      19031
 DBUS_CONGESTED:         12
 WQ ROW_BUFFER_HIT:       1562  ROW_BUFFER_MISS:      13267  FULL:          0

 AVG_CONGESTED_CYCLE: 5

CPU 0 Branch Prediction Accuracy: 99.8237% MPKI: 0.32256 Average ROB Occupancy at Mispredict: 192.411
Branch types
NOT_BRANCH: 40853558 81.7071%
BRANCH_DIRECT_JUMP: 549038 1.09808%
BRANCH_INDIRECT: 183066 0.366132%
BRANCH_CONDITIONAL: 6182075 12.3642%
BRANCH_DIRECT_CALL: 944675 1.88935%
BRANCH_INDIRECT_CALL: 171345 0.34269%
BRANCH_RETURN: 1116013 2.23203%
BRANCH_OTHER: 0 0%

DRAM PAGES: 1048576
Allocated PAGES: 2560
Average_ROB_Occupancy: 248.161
Average_Decode_Occupancy: 37.3705
Average_FTQ_Occupancy: 14.949
Indirect max targets: 14 Average targets: 1.14576
Branch_type:  BRANCH_DIRECT_JUMP:  Count Percentage: 3.41964 4.36706 4.41006 9.46245 1.69588 5.96374 3.0608 67.6204 
Branch_type:  BRANCH_INDIRECT:  Count Percentage: 11.7066 3.46145 2.57959 0 2.54414 9.71436 19.2698 50.7241 
Branch_type:  BRANCH_CONDITIONAL:  Count Percentage: 15.9437 2.6521 6.94737 8.60669 1.48272 4.85202 2.40903 57.1063 
Branch_type:  BRANCH_DIRECT_CALL:  Count Percentage: 0.744509 1.2585 1.47186 4.99077 2.24824 2.60209 0.772766 85.9113 
Branch_type:  BRANCH_INDIRECT_CALL:  Count Percentage: 9.54173 0.581307 2.98866 4.85241 0 2.35504 1.29092 78.3899 
Branch_type:  BRANCH_RETURN:  Count Percentage: 3.95386 0.697056 1.28803 9.26324 2.49226 6.50862 3.15104 72.6459 
Branch_type:  BRANCH_DIRECT_JUMP:  Total Count: 37538 47938 48410 103871 18616 65465 33599 742281 
Branch_type:  BRANCH_INDIRECT:  Total Count: 42931 12694 9460 0 9330 35625 70667 186018 
Branch_type:  BRANCH_CONDITIONAL:  Total Count: 1971163 327886 858921 1064067 183313 599868 297834 7060203 
Branch_type:  BRANCH_DIRECT_CALL:  Total Count: 14017 23694 27711 93962 42328 48990 14549 1617466 
Branch_type:  BRANCH_INDIRECT_CALL:  Total Count: 32648 1989 10226 16603 0 8058 4417 268219 
Branch_type:  BRANCH_RETURN:  Total Count: 87999 15514 28667 206167 55469 144859 70131 1616841 
Number of unique branch instructions: 9706
Upper 32 bits: 
aaaa
ffff
ffff0000
Unique upper 32 bits: 3
Unique upper 36 bits: 3
Unique upper 40 bits: 5
Unique upper 44 bits: 32
Unique upper 48 bits: 153
Variant_0 : 1380 0.336914
Variant_1 : 2627 0.641357
Variant_2 : 0 0
Variant_3 : 0 0
Offset_3 3999
Offset_4 240
Offset_5 443
Offset_6 493
Offset_7 570
Offset_8 503
Offset_9 459
Offset_10 368
Offset_11 299
Offset_12 265
Offset_13 198
Offset_14 225
Offset_15 177
Offset_16 216
Offset_17 144
Offset_18 118
Offset_19 229
Offset_20 132
Offset_21 235
Offset_22 388
Offset_23 243
Offset_24 328
Offset_25 88
Offset_47 82
Offset_64 1
decode_dispatch_called: 26403769 72.7757
Dispatch_width: 0 14271821 54.0522 39.3369
Dispatch_width: 1 1023091 3.87479 2.81991
Dispatch_width: 2 846633 3.20649 2.33354
Dispatch_width: 3 513283 1.94398 1.41474
Dispatch_width: 4 6316547 23.9229 17.41
Dispatch_width: 5 116822 0.442444 0.321992
Dispatch_width: 6 3315572 12.5572 9.13858
Empty_decode_cycles: 9877270 27.2243
ROB_full_cycles: 10165907 28.0199
Starvation_cycles_per_kilo_instr: 227.996
Starvation_cycles_per_kilo_instr_3: 163.662
Starvation_cycles_per_kilo_instr_0: 139.832
Branch_type_1  (3,1)  (4,7)  (5,36)  (6,68)  (7,115)  (8,127)  (9,124)  (10,97)  (11,67)  (12,43)  (13,5)  (14,2)  (15,3)  (16,4)  (18,1)  (19,4)  (20,2)  (21,1)  (22,3)  (23,2)  (24,10)  (25,12) 
Branch_type_2  (3,1)  (5,1)  (8,3)  (9,3)  (12,1)  (13,1)  (14,1)  (16,3)  (17,2)  (20,2)  (21,2)  (23,5)  (24,1)  (47,38) 
Branch_type_3  (3,3997)  (4,233)  (5,402)  (6,410)  (7,426)  (8,314)  (9,251)  (10,148)  (11,121)  (12,50)  (13,4)  (64,1) 
Branch_type_4  (6,3)  (7,8)  (8,25)  (9,49)  (10,59)  (11,56)  (12,93)  (13,85)  (14,99)  (15,82)  (16,96)  (17,64)  (18,53)  (19,112)  (20,69)  (21,124)  (22,206)  (23,137)  (24,190)  (25,72) 
Branch_type_5  (8,2)  (9,1)  (10,3)  (11,5)  (12,3)  (13,14)  (14,16)  (15,11)  (16,20)  (17,11)  (18,16)  (19,12)  (20,10)  (21,13)  (22,42)  (23,26)  (24,36) 
Branch_type_6  (5,4)  (6,12)  (7,21)  (8,32)  (9,31)  (10,61)  (11,50)  (12,75)  (13,89)  (14,107)  (15,81)  (16,93)  (17,67)  (18,48)  (19,101)  (20,49)  (21,95)  (22,137)  (23,73)  (24,91)  (25,4)  (47,44) 
Unique trigger count: 
Variant_0_evicts_0 : 0
Variant_0_evicts_1 : 0
Variant_0_evicts_2 : 0
Variant_0_evicts_3 : 0
Variant_1_evicts_0 : 0
Variant_1_evicts_1 : 0
Variant_1_evicts_2 : 0
Variant_1_evicts_3 : 0
Variant_2_evicts_0 : 0
Variant_2_evicts_1 : 0
Variant_2_evicts_2 : 0
Variant_2_evicts_3 : 0
Variant_3_evicts_0 : 0
Variant_3_evicts_1 : 0
Variant_3_evicts_2 : 0
Variant_3_evicts_3 : 0
BTB PER SET UNIQUE ADDR: 6 10 6 12 10 11 9 7 7 10 7 12 9 11 8 6 12 10 10 8 9 9 11 14 8 7 11 10 8 12 8 10 8 7 6 11 8 13 6 7 9 8 12 8 10 9 9 8 8 7 13 8 14 9 10 7 11 9 7 10 12 11 12 9 10 10 9 4 12 8 8 10 13 6 7 7 7 12 6 12 6 7 9 9 10 9 11 8 6 13 8 9 9 9 9 11 10 12 18 10 15 8 7 9 12 11 4 8 5 8 9 11 14 7 6 9 7 9 14 8 4 6 8 7 10 6 4 11 13 10 7 13 7 14 11 11 9 8 11 14 10 9 9 9 8 9 11 8 6 8 14 11 12 10 8 12 9 11 9 7 9 7 11 10 9 12 11 8 13 8 10 11 10 9 9 6 9 10 9 8 7 9 10 7 14 16 4 12 10 7 7 9 8 11 10 10 5 11 7 11 11 9 8 8 7 10 9 11 7 11 12 11 7 9 9 11 8 11 9 10 7 11 6 10 9 9 9 10 7 11 8 7 9 8 10 10 8 9 9 8 8 9 8 10 9 9 8 5 12 9 9 9 10 7 10 10 6 5 8 10 7 11 7 11 10 7 9 9 12 13 11 14 8 8 11 8 11 9 13 9 11 12 8 8 8 8 9 8 11 8 7 7 12 8 5 11 12 9 8 6 6 13 6 10 9 11 7 12 10 10 7 13 7 12 15 6 11 11 12 13 7 9 9 8 11 9 10 7 11 6 9 12 7 12 10 7 8 11 9 13 8 10 5 10 9 10 9 8 9 9 12 9 10 11 8 8 8 12 6 10 8 13 7 17 9 13 5 12 10 9 8 10 9 11 7 14 11 10 12 8 10 4 6 10 8 8 11 12 10 11 7 8 9 9 4 7 11 6 7 6 8 12 7 13 13 8 11 9 10 8 12 9 10 7 9 8 7 11 13 12 10 9 5 10 11 12 10 11 11 10 9 9 7 8 12 10 14 8 8 9 12 9 5 10 11 8 9 12 12 12 8 14 9 10 13 13 11 9 8 11 9 10 6 10 11 10 10 9 6 9 9 8 10 8 13 17 9 13 6 8 13 12 9 10 8 15 11 11 13 11 6 9 8 4 9 9 11 11 8 12 10 13 9 8 8 8 7 10 12 11 10 11 12 9 11 12 10 15 8 8 7 7 8 7 9 9 13 8 5 8 9 10 11 8 11 15 8 14 11 10 10 10 7 9 13 12 7 10 9 10 11 12 8 10 6 13 6 9 15 9 8 10 9 13 9 10 10 9 9 13 14 9 13 11 7 11 10 9 10 7 12 9 8 10 10 6 9 12 8 10 6 10 13 8 10 7 9 12 9 11 9 11 9 6 7 11 12 5 11 11 12 11 8 10 6 13 8 8 8 13 7 10 7 7 10 14 8 11 7 12 7 14 11 12 7 8 12 10 6 8 6 11 13 9 7 14 8 8 10 5 7 11 6 7 9 8 9 9 11 7 12 7 11 13 8 10 10 10 6 9 7 9 11 11 13 13 14 14 8 9 10 12 10 14 11 8 9 7 10 10 10 9 9 7 8 10 8 13 10 10 6 11 8 11 7 12 12 7 9 9 11 12 9 8 7 7 14 12 9 11 6 13 10 7 7 10 13 10 9 8 12 8 12 10 8 8 7 12 14 10 10 10 8 11 12 13 6 9 10 7 12 12 11 9 8 7 13 6 10 8 7 5 7 11 13 10 9 16 10 9 11 9 8 7 6 10 9 10 10 9 10 13 13 9 10 8 9 9 6 6 6 7 10 8 10 8 8 8 10 9 8 11 14 9 8 10 11 8 10 5 10 9 10 12 12 9 11 11 7 10 10 14 3 11 9 11 5 11 11 16 15 11 11 6 8 8 9 11 12 8 12 13 12 7 11 10 9 11 9 8 11 8 7 9 6 15 9 13 9 9 7 7 11 7 12 9 12 11 12 11 7 10 11 7 12 6 10 11 7 9 7 6 10 8 8 15 14 10 10 8 9 8 9 6 9 12 13 6 6 8 9 9 8 9 6 9 10 12 11 11 10 10 9 11 12 9 13 11 10 6 9 10 8 9 10 7 5 9 9 8 15 10 8 9 7 8 8 12 10 9 6 13 11 9 11 11 10 11 9 12 8 13 7 10 8 9 10 12 13 12 10 13 9 14 13 8 10 7 10 12 9 7 10 10 11 6 15 10 14 8 9 9 9 10 9 14 13 7 12 9 8 7 11 9 13 8 9 12 12 8 6 11 7 7 13 8 8 11 8 7 11 9 8 8 6 8 5 9 4 8 6 15 11 7 
BTB PER SET COUNT: 999 15 1995 16 13 17 1400 7 1469 10 13 13 123 14 10 6 1289 11 13 8 11 9 508 74 12 8 21 247 8 15 8 10 8 8 6 508 8 19 8 7 12 8 16 8 11 11 10 9 10 7 21 334 24 13 11 381 14 10 7 11 12 15 268 11 13 11 10 5 16 11 1471 12 15 6 8 8 8 50 7 16 6 10 10 12 12 16 11 9 1468 36 10 860 11 10 13 12 17 15 23 16 17 9 9 9 1481 12 14 8 5 2404 9 14 71 7 6 209 7 9 1477 8 4 6 12 9 10 138 4 19 21 578 10 4398 7 18 20 15 973 8 13 15 16 10 10 9 8 10 214 1001 6 10 17 306 951 12 9 12 9 13 9 7 9 200 16 11 900 14 12 8 16 1603 10 14 14 11 12 8 9 14 13 985 8 11 152 7 17 1081 5 14 13 426 8 10 11 14 48 11 6 1004 7 17 15 12 971 11 7 12 9 12 971 1475 19 14 7 10923 21 12 8 15 2927 13 9 15 384 10 11 10 14 12 656 15 9 7 12 9 10 20079 8 507 10 8 8 9 8 1076 13 10 8 6 13 12 9 10 13 9 11 16 93 5 8 11 7 12 7 17 12 7 16 14 663 15 12 453 8 9 894 8 13 11 16 11 13 14 626 178 8 9 9 10 12 8 12 7 13 532 5 13 689 9 9 59 6 15 6 20 10 186 7 189 11 25 972 13 9 17 1789 1000 11 19 16 16 7 2930 9 12 189 13 11 8 19 6 9 25 11 12 12 9 9 16 11 13 11 1177 5 13 16 10 14 12 9 114 12 1471 14 13 8 8 9 13 239 28 9 18 7 32 10 1923 5 14 13 10 8 16 11 1468 376 15 17 10 17 10 1004 4 9 13 8 9 13 15 11 19 7 10 13 959 4 1003 12 7 9 7 8 14 8 18 20 9 17 506 10 10 17 13 12 977 9 8 9 412 16 19 10 14 5 19 13 17 245 13 13 10 9 11 9 9 337 14 19 143 10 10 132 11 5 11 898 8 917 14 15 15 9 15 9 12 13 512 19 10 8 14 9 501 6 14 16 11 12 12 9 12 14 9 16 9 26 21 11 28 6 9 20 17 9 10 10 28 11 11 15 11 6 11 971 5 9 9 553 616 8 19 11 24 10 145 9 8 7 11 14 16 320 237 87 508 14 14 34 19 15 10 9 10 8 7 9 13 687 1475 5 1967 11 15 11 9 15 20 10 17 12 695 15 10 35 13 17 16 7 13 9 973 12 13 10 12 8 23 7 11 23 10 10 99 10 19 15 14 131 9 9 16 21 10 16 15 7 14 11 9 10 7 19 11 10 538 12 6 10 14 15 10 8 15 16 9 10 10 1547 844 251 13 10 13 12 8 8 15 17 5 11 13 15 1294 11 12 12 18 8 12 8 653 8 10 9 10 10 19 10 14 7 377 8 19 13 15 8 9 17 1008 7 8 7 17 14 362 2060 22 83 9 395 5 7 13 6 7 11 507 13 11 27 10 385 9 13 17 10 10 22 1565 1467 14 7 12 977 14 517 17 15 20 8 14 15 18 11 17 1718 10 9 8 11 14 11 10 9 9 2902 19 8 30 12 10 6 16 11 12 8 435 16 7 9 16 149 14 1244 10 9 120 567 16 21 440 6 1148 13 1468 7 12 18 12 1003 9 471 3707 16 12 10 8 504 12 15 13 1307 14 8 14 600 27 313 10 13 7 19 18 12 12 17 9 16 1265 13 9 8 5 7 11 16 11 14 21 13 180 13 244 9 7 6 13 12 914 11 12 215 18 215 9 12 12 13 12 6 6 6 648 11 8 284 11 199 8 12 123 9 12 17 11 478 17 12 8 10 54 14 8384 11 12 15 820 532 969 7 1891 12 1003 3 17 12 11 7 14 16 26 20 13 13 6 497 11 10 12 14 11 21 1021 16 9 1403 10 11 13 9 10 795 9 8 11 6 19 11 18 19 9 1000 8 12 7 1000 10 12 14 16 13 7 16 17 7 13 6 13 13 8 11 7 6 124 8 504 388 17 16 11 20 9 1499 10 6 11 13 16 6 6 8 9 9 8 318 11 20 13 15 143 20 88 10 19 13 12 1232 15 611 14 6 9 11 8 11 13 8 6 10 9 10 21 11 8 13 49 2994 10 16 13 11 7 820 13 10 11 14 10 12 11 14 8 1007 7 1173 10 9 251 13 23 20 362 21 9 18 20 8 1471 8 10 29 18 8 10 10 15 6 31 16 19 13 15 1501 10 473 12 1000 16 7 18 12 13 7 15 1252 18 11 10 1475 12 10 6 13 9 7 16 8 10 13 8 7 66 14 8 10 6 8 6 9 4 8 6 478 15 7 
To predecode: 0
Predecoding something: 0
Predecode request dropped: 0
sizeofblock_0 0
sizeofblock_1 57682
sizeofblock_2 79619
sizeofblock_3 0
sizeofblock_4 0
sizeofblock_5 0
sizeofblock_6 0
sizeofblock_7 0
sizeofblock_8 0
Variant_0 Correct: 1610275 Incorrect: 0 Accuracy: 1
Variant_1 Correct: 5719313 Incorrect: 0 Accuracy: 1
Variant_2 Correct: 0 Incorrect: 0 Accuracy: -nan
Variant_3 Correct: 0 Incorrect: 0 Accuracy: -nan
