
*** ChampSim Multicore Out-of-Order Simulator ***

Warmup Instructions: 50000000
Simulation Instructions: 50000000
Number of CPUs: 1
LLC sets: 2048
LLC ways: 16
Off-chip DRAM Size: 4096 MB Channels: 1 Width: 64-bit Data Rate: 6400 MT/s
CPU 0 runs ./micro_traces/srv741.trace.gz
.gz
ITLB has LRU replacement policy
DTLB has LRU replacement policy
STLB has LRU replacement policy
CPU 0 L1I next line prefetcher
L1I has LRU replacement policy
L1D has LRU replacement policy
Initialize SRRIP state for L2C
Initialize DRRIP state for LLC
Heartbeat CPU 0 instructions: 10000001 cycles: 2797185 heartbeat IPC: 3.57502 cumulative IPC: 3.57502 (Simulation time: 0 hr 1 min 43 sec) 
Heartbeat CPU 0 instructions: 20000001 cycles: 5593625 heartbeat IPC: 3.57598 cumulative IPC: 3.5755 (Simulation time: 0 hr 3 min 22 sec) 
Heartbeat CPU 0 instructions: 30000002 cycles: 8389866 heartbeat IPC: 3.57623 cumulative IPC: 3.57574 (Simulation time: 0 hr 5 min 1 sec) 
Heartbeat CPU 0 instructions: 40000003 cycles: 11186567 heartbeat IPC: 3.57564 cumulative IPC: 3.57572 (Simulation time: 0 hr 6 min 38 sec) 
Heartbeat CPU 0 instructions: 50000002 cycles: 13984426 heartbeat IPC: 3.57416 cumulative IPC: 3.57541 (Simulation time: 0 hr 8 min 14 sec) 

Warmup complete CPU 0 instructions: 50000002 cycles: 13984426 (Simulation time: 0 hr 8 min 14 sec) 

Cycle: 20000000 FTQ IN: 57989947 FTQ occupancy: 18.7607 DECODE IN: 57989874 DECODE occupancy: 49.9641 ROB IN: 57989814 ROB occupancy: 309.662 ROB OUT: 57989466
Heartbeat CPU 0 instructions: 60000000 cycles: 21486994 heartbeat IPC: 1.33288 cumulative IPC: 1.33288 (Simulation time: 0 hr 9 min 51 sec) 
Heartbeat CPU 0 instructions: 70000003 cycles: 28932688 heartbeat IPC: 1.34306 cumulative IPC: 1.33795 (Simulation time: 0 hr 11 min 29 sec) 
Cycle: 30000000 FTQ IN: 13445458 FTQ occupancy: 8.90986 DECODE IN: 13445515 DECODE occupancy: 26.8033 ROB IN: 13445558 ROB occupancy: 217.877 ROB OUT: 13445756
Heartbeat CPU 0 instructions: 80000003 cycles: 36442900 heartbeat IPC: 1.33152 cumulative IPC: 1.3358 (Simulation time: 0 hr 13 min 6 sec) 
Cycle: 40000000 FTQ IN: 13361441 FTQ occupancy: 9.01543 DECODE IN: 13361391 DECODE occupancy: 26.8632 ROB IN: 13361348 ROB occupancy: 219.337 ROB OUT: 13361256
Heartbeat CPU 0 instructions: 90000001 cycles: 43865942 heartbeat IPC: 1.34716 cumulative IPC: 1.33862 (Simulation time: 0 hr 14 min 43 sec) 
Cycle: 50000000 FTQ IN: 13360303 FTQ occupancy: 8.91057 DECODE IN: 13360353 DECODE occupancy: 26.5208 ROB IN: 13360405 ROB occupancy: 220.045 ROB OUT: 13360471
Heartbeat CPU 0 instructions: 100000002 cycles: 51372657 heartbeat IPC: 1.33214 cumulative IPC: 1.33732 (Simulation time: 0 hr 17 min 19 sec) 
Finished CPU 0 instructions: 50000000 cycles: 37388231 cumulative IPC: 1.33732 (Simulation time: 0 hr 17 min 19 sec) 

ChampSim completed all CPUs

Region of Interest Statistics

CPU 0 cumulative IPC: 1.33732 instructions: 50000000 cycles: 37388231
 Fetch stage stalled: 60.1577  Sim cycles: 37388231 fetch stall cycle: 22491902
 Empty decode stage: 40.7604  Sim cycles: 37388231 fetch stall cycle: 15239610
ITLB TOTAL     ACCESS:    7708722  HIT:    7101397  MISS:     607325  HIT %:    92.1216  MISS %:    7.87841   MPKI: 12.1465
ITLB LOAD TRANSLATION INSTRUCTION	ACCESS:    5983164  HIT:    5856598  MISS:     126566  HIT %:    97.8846  MISS %:    2.11537  MPKI: 2.53132
ITLB TRANSLATION FROM L1D PREFETCHER INSTRUCTION	ACCESS:    1725558  HIT:    1244799  MISS:     480759  HIT %:    72.1389  MISS %:    27.8611  MPKI: 9.61518

ITLB AVERAGE MISS LATENCY: 108384 cycles
ITLB RQ	ACCESS:   11568981	FORWARD:          0	MERGED:    3718706	TO_CACHE:    7850275

DTLB TOTAL     ACCESS:    9016196  HIT:    8543942  MISS:     472254  HIT %:    94.7622  MISS %:    5.23784   MPKI: 9.44508
DTLB LOAD TRANSLATION DATA	ACCESS:    9016196  HIT:    8543942  MISS:     472254  HIT %:    94.7622  MISS %:    5.23784  MPKI: 9.44508

DTLB AVERAGE MISS LATENCY: 9.35556 cycles
DTLB RQ	ACCESS:   13380379	FORWARD:          0	MERGED:    4328619	TO_CACHE:    9051760

STLB TOTAL     ACCESS:    1328356  HIT:    1326244  MISS:       2112  HIT %:     99.841  MISS %:   0.158994   MPKI: 0.04224
STLB LOAD TRANSLATION INSTRUCTION	ACCESS:     124533  HIT:     124376  MISS:        157  HIT %:    99.8739  MISS %:   0.126071  MPKI: 0.00314
STLB TRANSLATION FROM L1D PREFETCHER INSTRUCTION	ACCESS:     482792  HIT:     482701  MISS:         91  HIT %:    99.9812  MISS %:  0.0188487  MPKI: 0.00182
STLB LOAD TRANSLATION DATA	ACCESS:     472254  HIT:     470416  MISS:       1838  HIT %:    99.6108  MISS %:   0.389197  MPKI: 0.03676
STLB TRANSLATION FROM L1D PREFETCHER DATA	ACCESS:     248777  HIT:     248751  MISS:         26  HIT %:    99.9895  MISS %:  0.0104511  MPKI: 0.00052

STLB AVERAGE MISS LATENCY: 78.6567 cycles
STLB RQ	ACCESS:    1454604	FORWARD:          0	MERGED:     122818	TO_CACHE:    1331786

STLB Hit, L1D data hit: 0
STLB Hit, L2C data hit: 0
STLB Hit, LLC data hit: 0
STLB Hit, LLC data miss: 0
STLB STLB hints to L2: 0
L1D TOTAL     ACCESS:   13106642  HIT:   11985725  MISS:    1120917  HIT %:    91.4477  MISS %:    8.55228   MPKI: 22.4183
L1D LOAD DATA	ACCESS:    6583652  HIT:    5844802  MISS:     738850  HIT %:    88.7775  MISS %:    11.2225  MPKI: 14.777
L1D RFO DATA	ACCESS:    6196440  HIT:    5909478  MISS:     286962  HIT %:    95.3689  MISS %:    4.63108  MPKI: 5.73924
L1D PREFETCH DATA	ACCESS:     326550  HIT:     231445  MISS:      95105  HIT %:    70.8758  MISS %:    29.1242  MPKI: 1.9021

L1D PREFETCH  REQUESTED:     743730  ISSUED:     743730  USEFUL:      35309  USELESS:      69894
L1D USEFUL LOAD PREFETCHES:      35309 PREFETCH ISSUED TO LOWER LEVEL:     105288  ACCURACY: 33.5356
 TIMELY PREFETCHES:      35309 LATE PREFETCHES: 10094 DROPPED PREFETCHES: 7
L1D AVERAGE MISS LATENCY: 298089 cycles
L1D RQ	ACCESS:   10716981	FORWARD:          0	MERGED:    3932232	TO_CACHE:    6624112
L1D WQ	ACCESS:    6952733	FORWARD:     161089	MERGED:     196466	TO_CACHE:    6756267
L1D PQ	ACCESS:     372091	FORWARD:          0	MERGED:          0	TO_CACHE:     371639

L1D UNIQUE REGIONS ACCESSED: 0
L1D REGIONS CONFLICTS: 0
L1D Cross Page Prefetch Requests: 6491
L1D Same Page Prefetch Requests: 756675
L1D ROI Sum of L1D PQ occupancy: 4757081
L1D PREFETCHES PUSHED FROM L2C: 0
L1I TOTAL     ACCESS:   11127227  HIT:    7484797  MISS:    3642430  HIT %:    67.2656  MISS %:    32.7344   MPKI: 72.8486
L1I LOAD INSTRUCTION	ACCESS:    6699976  HIT:    6107095  MISS:     592881  HIT %:     91.151  MISS %:      8.849  MPKI: 11.8576
L1I PREFETCH INSTRUCTION	ACCESS:    4427251  HIT:    1377702  MISS:    3049549  HIT %:    31.1187  MISS %:    68.8813  MPKI: 60.991

L1I PREFETCH  REQUESTED:    5104613  ISSUED:    5104589  USEFUL:    2376239  USELESS:     785530
L1I USEFUL LOAD PREFETCHES:    2376239 PREFETCH ISSUED TO LOWER LEVEL:    3161758  ACCURACY: 75.1556
 TIMELY PREFETCHES:    2376239 LATE PREFETCHES: 112209 DROPPED PREFETCHES: 9113
L1I AVERAGE MISS LATENCY: 1.00595e+06 cycles
L1I RQ	ACCESS:    9459209	FORWARD:          0	MERGED:    2690391	TO_CACHE:    6768818
L1I PQ	ACCESS:    5104589	FORWARD:          0	MERGED:     304426	TO_CACHE:    4800163

L1BTB TOTAL     ACCESS:    5672502  HIT:    2041509  MISS:    3630993  HIT %:    35.9896  MISS %:    64.0104   MPKI: 72.6199
L1BTB BRANCH_DIRECT_JUMP	ACCESS:     549038  HIT:     144762  MISS:     404276	AVERAGE STALL: 30.0179
L1BTB BRANCH_INDIRECT	ACCESS:     183066  HIT:      66037  MISS:     117029	AVERAGE STALL: 127.708
L1BTB BRANCH_CONDITIONAL	ACCESS:    2708365  HIT:    1414599  MISS:    1293766	AVERAGE STALL: 41.0355
L1BTB BRANCH_DIRECT_CALL	ACCESS:     944675  HIT:     105647  MISS:     839028	AVERAGE STALL: 43.3736
L1BTB BRANCH_INDIRECT_CALL	ACCESS:     171345  HIT:      20873  MISS:     150472	AVERAGE STALL: 144.219
L1BTB BRANCH_RETURN	ACCESS:    1116013  HIT:     289591  MISS:     826422	AVERAGE STALL: 40.5194
L1BTB BRANCH_OTHER ACCESS:          0  HIT:          0  MISS:          0	AVERAGE STALL: -nan
L1BTB TOTAL ROB OCCUPANCY AT BTB MISS: 5.73844

L2BTB1 TOTAL     ACCESS:    3605679  HIT:    3482445  MISS:     123234  HIT %:    96.5822  MISS %:    3.41778   MPKI: 2.46468
L2BTB1 BRANCH_DIRECT_JUMP	ACCESS:     400141  HIT:     391935  MISS:       8206	AVERAGE STALL: 30.0179
L2BTB1 BRANCH_INDIRECT	ACCESS:     106754  HIT:      95745  MISS:      11009	AVERAGE STALL: 127.708
L2BTB1 BRANCH_CONDITIONAL	ACCESS:    1293766  HIT:    1278959  MISS:      14807	AVERAGE STALL: 41.0355
L2BTB1 BRANCH_DIRECT_CALL	ACCESS:     839028  HIT:     816334  MISS:      22694	AVERAGE STALL: 43.3736
L2BTB1 BRANCH_INDIRECT_CALL	ACCESS:     140976  HIT:     127762  MISS:      13214	AVERAGE STALL: 144.219
L2BTB1 BRANCH_RETURN	ACCESS:     825014  HIT:     771710  MISS:      53304	AVERAGE STALL: 40.5194
L2BTB1 BRANCH_OTHER ACCESS:          0  HIT:          0  MISS:          0	AVERAGE STALL: -nan
L2BTB1 TOTAL ROB OCCUPANCY AT BTB MISS: 169.079

L2C TOTAL     ACCESS:    6619538  HIT:    5580933  MISS:    1038605  HIT %:      84.31  MISS %:      15.69   MPKI: 20.7721
L2C LOAD INSTRUCTION	ACCESS:     480672  HIT:     385505  MISS:      95167  HIT %:    80.2013  MISS %:    19.7987  MPKI: 1.90334
L2C PREFETCH INSTRUCTION	ACCESS:    3161758  HIT:    2777753  MISS:     384005  HIT %:    87.8547  MISS %:    12.1453  MPKI: 7.6801
L2C LOAD TRANSLATION INSTRUCTION	ACCESS:        174  HIT:         48  MISS:        126  HIT %:    27.5862  MISS %:    72.4138  MPKI: 0.00252
L2C TRANSLATION FROM L1D PREFETCHER INSTRUCTION	ACCESS:       4699  HIT:       4569  MISS:        130  HIT %:    97.2335  MISS %:    2.76655  MPKI: 0.0026
L2C LOAD DATA	ACCESS:     728637  HIT:     567763  MISS:     160874  HIT %:    77.9212  MISS %:    22.0788  MPKI: 3.21748
L2C RFO DATA	ACCESS:     286843  HIT:     195846  MISS:      90997  HIT %:    68.2764  MISS %:    31.7236  MPKI: 1.81994
L2C PREFETCH DATA	ACCESS:    1431666  HIT:    1167465  MISS:     264201  HIT %:    81.5459  MISS %:    18.4541  MPKI: 5.28402
L2C WRITEBACK DATA	ACCESS:     523137  HIT:     481511  MISS:      41626  HIT %:     92.043  MISS %:      7.957  MPKI: 0.83252
L2C LOAD TRANSLATION DATA	ACCESS:       1910  HIT:        442  MISS:       1468  HIT %:    23.1414  MISS %:    76.8586  MPKI: 0.02936
L2C TRANSLATION FROM L1D PREFETCHER DATA	ACCESS:         42  HIT:         31  MISS:         11  HIT %:    73.8095  MISS %:    26.1905  MPKI: 0.00022

L2C PREFETCH  REQUESTED:    3278100  ISSUED:    3278100  USEFUL:      33953  USELESS:     616975
L2C USEFUL LOAD PREFETCHES:      33953 PREFETCH ISSUED TO LOWER LEVEL:     650245  ACCURACY: 5.22157
 TIMELY PREFETCHES:      33953 LATE PREFETCHES: 2039 DROPPED PREFETCHES: 0
L2C AVERAGE MISS LATENCY: 33.8704 cycles
L2C RQ	ACCESS:    1503126	FORWARD:          0	MERGED:          0	TO_CACHE:    1502977
L2C WQ	ACCESS:     523137	FORWARD:        149	MERGED:          0	TO_CACHE:     523137
L2C PQ	ACCESS:    6545146	FORWARD:          0	MERGED:    1923522	TO_CACHE:    4621624

L2C Dense regions hint from L2: 0
PSCL5 TOTAL     ACCESS:      11018  HIT:       5509  MISS:       5509  HIT %:         50  MISS %:         50   MPKI: 0.11018
PSCL5 LOAD TRANSLATION INSTRUCTION	ACCESS:       3980  HIT:       1990  MISS:       1990  HIT %:         50  MISS %:         50  MPKI: 0.0398
PSCL5 TRANSLATION FROM L1D PREFETCHER INSTRUCTION	ACCESS:       7038  HIT:       3519  MISS:       3519  HIT %:         50  MISS %:         50  MPKI: 0.07038


PSCL4 TOTAL     ACCESS:      10959  HIT:       5475  MISS:       5484  HIT %:    49.9589  MISS %:    50.0411   MPKI: 0.10968
PSCL4 LOAD TRANSLATION INSTRUCTION	ACCESS:       1972  HIT:       1957  MISS:         15  HIT %:    99.2394  MISS %:   0.760649  MPKI: 0.0003
PSCL4 TRANSLATION FROM L1D PREFETCHER INSTRUCTION	ACCESS:       3519  HIT:       3518  MISS:          1  HIT %:    99.9716  MISS %:  0.0284172  MPKI: 2e-05
PSCL4 LOAD TRANSLATION DATA	ACCESS:       1951  HIT:          0  MISS:       1951  HIT %:          0  MISS %:        100  MPKI: 0.03902
PSCL4 TRANSLATION FROM L1D PREFETCHER DATA	ACCESS:       3517  HIT:          0  MISS:       3517  HIT %:          0  MISS %:        100  MPKI: 0.07034


PSCL3 TOTAL     ACCESS:      10961  HIT:       5476  MISS:       5485  HIT %:    49.9589  MISS %:    50.0411   MPKI: 0.1097
PSCL3 LOAD TRANSLATION INSTRUCTION	ACCESS:       1973  HIT:       1958  MISS:         15  HIT %:    99.2397  MISS %:   0.760264  MPKI: 0.0003
PSCL3 TRANSLATION FROM L1D PREFETCHER INSTRUCTION	ACCESS:       3519  HIT:       3518  MISS:          1  HIT %:    99.9716  MISS %:  0.0284172  MPKI: 2e-05
PSCL3 LOAD TRANSLATION DATA	ACCESS:       1952  HIT:          0  MISS:       1952  HIT %:          0  MISS %:        100  MPKI: 0.03904
PSCL3 TRANSLATION FROM L1D PREFETCHER DATA	ACCESS:       3517  HIT:          0  MISS:       3517  HIT %:          0  MISS %:        100  MPKI: 0.07034


PSCL2 TOTAL     ACCESS:       8510  HIT:       4211  MISS:       4299  HIT %:     49.483  MISS %:     50.517   MPKI: 0.08598
PSCL2 LOAD TRANSLATION INSTRUCTION	ACCESS:       2078  HIT:       1912  MISS:        166  HIT %:    92.0115  MISS %:    7.98845  MPKI: 0.00332
PSCL2 TRANSLATION FROM L1D PREFETCHER INSTRUCTION	ACCESS:       4556  HIT:       2299  MISS:       2257  HIT %:    50.4609  MISS %:    49.5391  MPKI: 0.04514
PSCL2 LOAD TRANSLATION DATA	ACCESS:       1834  HIT:          0  MISS:       1834  HIT %:          0  MISS %:        100  MPKI: 0.03668
PSCL2 TRANSLATION FROM L1D PREFETCHER DATA	ACCESS:         42  HIT:          0  MISS:         42  HIT %:          0  MISS %:        100  MPKI: 0.00084


LLC TOTAL     ACCESS:    1135070  HIT:    1103262  MISS:      31808  HIT %:    97.1977  MISS %:    2.80229   MPKI: 0.63616
LLC LOAD INSTRUCTION	ACCESS:      94443  HIT:      94172  MISS:        271  HIT %:    99.7131  MISS %:   0.286946  MPKI: 0.00542
LLC PREFETCH INSTRUCTION	ACCESS:     380531  HIT:     379948  MISS:        583  HIT %:    99.8468  MISS %:   0.153207  MPKI: 0.01166
LLC LOAD TRANSLATION INSTRUCTION	ACCESS:        126  HIT:        108  MISS:         18  HIT %:    85.7143  MISS %:    14.2857  MPKI: 0.00036
LLC TRANSLATION FROM L1D PREFETCHER INSTRUCTION	ACCESS:        130  HIT:        115  MISS:         15  HIT %:    88.4615  MISS %:    11.5385  MPKI: 0.0003
LLC LOAD DATA	ACCESS:     159578  HIT:     155651  MISS:       3927  HIT %:    97.5391  MISS %:    2.46087  MPKI: 0.07854
LLC RFO DATA	ACCESS:      90960  HIT:      75454  MISS:      15506  HIT %:    82.9529  MISS %:    17.0471  MPKI: 0.31012
LLC PREFETCH DATA	ACCESS:     269714  HIT:     258661  MISS:      11053  HIT %:     95.902  MISS %:    4.09804  MPKI: 0.22106
LLC WRITEBACK DATA	ACCESS:     138109  HIT:     137781  MISS:        328  HIT %:    99.7625  MISS %:   0.237494  MPKI: 0.00656
LLC LOAD TRANSLATION DATA	ACCESS:       1468  HIT:       1361  MISS:        107  HIT %:    92.7112  MISS %:    7.28883  MPKI: 0.00214
LLC TRANSLATION FROM L1D PREFETCHER DATA	ACCESS:         11  HIT:         11  MISS:          0  HIT %:        100  MISS %:          0  MPKI: 0

LLC AVERAGE MISS LATENCY: 164.394 cycles
LLC RQ	ACCESS:     346734	FORWARD:          0	MERGED:          0	TO_CACHE:     346716
LLC WQ	ACCESS:     138109	FORWARD:         18	MERGED:          0	TO_CACHE:     138109
LLC PQ	ACCESS:     650245	FORWARD:          0	MERGED:          0	TO_CACHE:     650245

LLC Dense regions hint to LLC: 0

RAW hits: 1925598
Loads Generated: 12642579
Loads sent to L1D: 10716981
Stores Generated: 6952714
Stores sent to L1D: 6952733
Major fault: 0 Minor fault: 2560
Allocated PAGES: 2560
I-Shadow cache 408 bytes
Touched + WorthPF tables 12288 bytes 
MMA filter 174 bytes 
FNL filter 272 bytes 
TOTAL PREFETCHER STORAGE SIZE: 31318 bytes
CPU 0 L1I next line prefetcher final stats

stream: 
stream:times selected: 1194616
stream:pref_filled: 117073
stream:pref_useful: 22033
stream:pref_late: 8162
stream:misses: 8197
stream:misses_by_poll: 0

CS: 
CS:times selected: 179576
CS:pref_filled: 53789
CS:pref_useful: 29295
CS:pref_late: 14214
CS:misses: 23841
CS:misses_by_poll: 4

CPLX: 
CPLX:times selected: 1013826
CPLX:pref_filled: 20133
CPLX:pref_useful: 4307
CPLX:pref_late: 3351
CPLX:misses: 94997
CPLX:misses_by_poll: 0

NL_L1: 
NL:times selected: 19059
NL:pref_filled: 559
NL:pref_useful: 209
NL:pref_late: 389
NL:misses: 1567
NL:misses_by_poll: 0

total selections: 2407077
total_filled: 95105
total_useful: 35309
total_late: 27587
total_polluted: 4
total_misses_after_warmup: 779309
conflicts: 5531083

test: 118434

DRAM Statistics
 CHANNEL 0
 RQ ROW_BUFFER_HIT:      11185  ROW_BUFFER_MISS:      20285
 DBUS_CONGESTED:          7
 WQ ROW_BUFFER_HIT:       1616  ROW_BUFFER_MISS:      13958  FULL:          0

 AVG_CONGESTED_CYCLE: 4

CPU 0 Branch Prediction Accuracy: 99.8237% MPKI: 0.32256 Average ROB Occupancy at Mispredict: 186.642
Branch types
NOT_BRANCH: 40853558 81.7071%
BRANCH_DIRECT_JUMP: 549038 1.09808%
BRANCH_INDIRECT: 183066 0.366132%
BRANCH_CONDITIONAL: 6182075 12.3642%
BRANCH_DIRECT_CALL: 944675 1.88935%
BRANCH_INDIRECT_CALL: 171345 0.34269%
BRANCH_RETURN: 1116013 2.23203%
BRANCH_OTHER: 0 0%

DRAM PAGES: 1048576
Allocated PAGES: 2560
Average_ROB_Occupancy: 220.265
Average_Decode_Occupancy: 26.6751
Average_FTQ_Occupancy: 8.9319
Indirect max targets: 14 Average targets: 1.14576
Branch_type:  BRANCH_DIRECT_JUMP:  Count Percentage: 3.41964 4.36706 4.41006 9.46245 1.69588 5.96374 3.0608 67.6204 
Branch_type:  BRANCH_INDIRECT:  Count Percentage: 11.7066 3.46145 2.57959 0 2.54414 9.71436 19.2698 50.7241 
Branch_type:  BRANCH_CONDITIONAL:  Count Percentage: 15.9437 2.6521 6.94737 8.60669 1.48272 4.85202 2.40903 57.1063 
Branch_type:  BRANCH_DIRECT_CALL:  Count Percentage: 0.744509 1.2585 1.47186 4.99077 2.24824 2.60209 0.772766 85.9113 
Branch_type:  BRANCH_INDIRECT_CALL:  Count Percentage: 9.54173 0.581307 2.98866 4.85241 0 2.35504 1.29092 78.3899 
Branch_type:  BRANCH_RETURN:  Count Percentage: 3.95386 0.697056 1.28803 9.26324 2.49226 6.50862 3.15104 72.6459 
Branch_type:  BRANCH_DIRECT_JUMP:  Total Count: 37538 47938 48410 103871 18616 65465 33599 742281 
Branch_type:  BRANCH_INDIRECT:  Total Count: 42931 12694 9460 0 9330 35625 70667 186018 
Branch_type:  BRANCH_CONDITIONAL:  Total Count: 1971163 327886 858921 1064067 183313 599868 297834 7060203 
Branch_type:  BRANCH_DIRECT_CALL:  Total Count: 14017 23694 27711 93962 42328 48990 14549 1617466 
Branch_type:  BRANCH_INDIRECT_CALL:  Total Count: 32648 1989 10226 16603 0 8058 4417 268219 
Branch_type:  BRANCH_RETURN:  Total Count: 87999 15514 28667 206167 55469 144859 70131 1616841 
Number of unique branch instructions: 9706
Upper 32 bits: 
aaaa
ffff
ffff0000
Unique upper 32 bits: 3
Unique upper 36 bits: 3
Unique upper 40 bits: 5
Unique upper 44 bits: 32
Unique upper 48 bits: 153
Offset_3 3999
Offset_4 240
Offset_5 443
Offset_6 493
Offset_7 570
Offset_8 503
Offset_9 459
Offset_10 368
Offset_11 299
Offset_12 265
Offset_13 198
Offset_14 225
Offset_15 177
Offset_16 216
Offset_17 144
Offset_18 118
Offset_19 229
Offset_20 132
Offset_21 235
Offset_22 388
Offset_23 243
Offset_24 328
Offset_25 88
Offset_47 82
Offset_64 1
decode_dispatch_called: 25307809 67.6892
Dispatch_width: 0 13700901 54.137 36.645
Dispatch_width: 1 895109 3.53689 2.39409
Dispatch_width: 2 932852 3.68602 2.49504
Dispatch_width: 3 589600 2.32972 1.57697
Dispatch_width: 4 4694241 18.5486 12.5554
Dispatch_width: 5 277277 1.09562 0.741616
Dispatch_width: 6 4217829 16.6661 11.2812
Empty_decode_cycles: 12080422 32.3108
ROB_full_cycles: 7466898 19.9713
Starvation_cycles_per_kilo_instr: 257.035
Starvation_cycles_per_kilo_instr_3: 207.32
Starvation_cycles_per_kilo_instr_0: 183.144
Branch_type_1  (3,1)  (4,7)  (5,36)  (6,68)  (7,115)  (8,127)  (9,124)  (10,97)  (11,67)  (12,43)  (13,5)  (14,2)  (15,3)  (16,4)  (18,1)  (19,4)  (20,2)  (21,1)  (22,3)  (23,2)  (24,10)  (25,12) 
Branch_type_2  (3,1)  (5,1)  (8,3)  (9,3)  (12,1)  (13,1)  (14,1)  (16,3)  (17,2)  (20,2)  (21,2)  (23,5)  (24,1)  (47,38) 
Branch_type_3  (3,3997)  (4,233)  (5,402)  (6,410)  (7,426)  (8,314)  (9,251)  (10,148)  (11,121)  (12,50)  (13,4)  (64,1) 
Branch_type_4  (6,3)  (7,8)  (8,25)  (9,49)  (10,59)  (11,56)  (12,93)  (13,85)  (14,99)  (15,82)  (16,96)  (17,64)  (18,53)  (19,112)  (20,69)  (21,124)  (22,206)  (23,137)  (24,190)  (25,72) 
Branch_type_5  (8,2)  (9,1)  (10,3)  (11,5)  (12,3)  (13,14)  (14,16)  (15,11)  (16,20)  (17,11)  (18,16)  (19,12)  (20,10)  (21,13)  (22,42)  (23,26)  (24,36) 
Branch_type_6  (5,4)  (6,12)  (7,21)  (8,32)  (9,31)  (10,61)  (11,50)  (12,75)  (13,89)  (14,107)  (15,81)  (16,93)  (17,67)  (18,48)  (19,101)  (20,49)  (21,95)  (22,137)  (23,73)  (24,91)  (25,4)  (47,44) 
Unique trigger count: 
L2BTB1 1536 4
L2BTB2 1536 4
L2BTB3 1536 4
L2BTB4 224 4
