
*** ChampSim Multicore Out-of-Order Simulator ***

Warmup Instructions: 50000000
Simulation Instructions: 50000000
Number of CPUs: 1
LLC sets: 2048
LLC ways: 16
Off-chip DRAM Size: 4096 MB Channels: 1 Width: 64-bit Data Rate: 6400 MT/s
CPU 0 runs ./micro_traces/srv74.trace.gz
.gz
ITLB has LRU replacement policy
DTLB has LRU replacement policy
STLB has LRU replacement policy
FDIP Prefetcher at L1I
L1I has LRU replacement policy
L1D has LRU replacement policy
Initialize SRRIP state for L2C
Initialize DRRIP state for LLC
Heartbeat_Variant_0 : 1296 0.316406 per_variant_size: 0 1296 0 0 0 0 0 0 0 
Heartbeat_Variant_1 : 2340 0.571289 per_variant_size: 0 314 2026 0 0 0 0 0 0 
Heartbeat_Variant_2 : 0 0 per_variant_size: 0 0 0 0 0 0 0 0 0 
Heartbeat_Variant_3 : 0 0 per_variant_size: 0 0 0 0 0 0 0 0 0 
Heartbeat_Variant_0_evicts 0 : 5580 1 : 28 2 : 0 3 : 0 
Heartbeat_Variant_1_evicts 0 : 21 1 : 0 2 : 0 3 : 0 
Heartbeat_Variant_2_evicts 0 : 0 1 : 0 2 : 0 3 : 0 
Heartbeat_Variant_3_evicts 0 : 0 1 : 0 2 : 0 3 : 0 
Heartbeat CPU 0 instructions: 10000003 cycles: 2796899 heartbeat IPC: 3.57539 cumulative IPC: 3.57539 (Simulation time: 0 hr 1 min 16 sec) 
Heartbeat_Variant_0 : 1371 0.334717 per_variant_size: 0 1371 0 0 0 0 0 0 0 
Heartbeat_Variant_1 : 2507 0.612061 per_variant_size: 0 295 2212 0 0 0 0 0 0 
Heartbeat_Variant_2 : 0 0 per_variant_size: 0 0 0 0 0 0 0 0 0 
Heartbeat_Variant_3 : 0 0 per_variant_size: 0 0 0 0 0 0 0 0 0 
Heartbeat_Variant_0_evicts 0 : 5753 1 : 57 2 : 0 3 : 0 
Heartbeat_Variant_1_evicts 0 : 66 1 : 0 2 : 0 3 : 0 
Heartbeat_Variant_2_evicts 0 : 0 1 : 0 2 : 0 3 : 0 
Heartbeat_Variant_3_evicts 0 : 0 1 : 0 2 : 0 3 : 0 
Heartbeat CPU 0 instructions: 20000001 cycles: 5594378 heartbeat IPC: 3.57465 cumulative IPC: 3.57502 (Simulation time: 0 hr 2 min 33 sec) 
Heartbeat_Variant_0 : 1425 0.3479 per_variant_size: 0 1425 0 0 0 0 0 0 0 
Heartbeat_Variant_1 : 2636 0.643555 per_variant_size: 0 214 2422 0 0 0 0 0 0 
Heartbeat_Variant_2 : 0 0 per_variant_size: 0 0 0 0 0 0 0 0 0 
Heartbeat_Variant_3 : 0 0 per_variant_size: 0 0 0 0 0 0 0 0 0 
Heartbeat_Variant_0_evicts 0 : 5689 1 : 286 2 : 0 3 : 0 
Heartbeat_Variant_1_evicts 0 : 280 1 : 0 2 : 0 3 : 0 
Heartbeat_Variant_2_evicts 0 : 0 1 : 0 2 : 0 3 : 0 
Heartbeat_Variant_3_evicts 0 : 0 1 : 0 2 : 0 3 : 0 
Heartbeat CPU 0 instructions: 30000002 cycles: 8391338 heartbeat IPC: 3.57531 cumulative IPC: 3.57512 (Simulation time: 0 hr 3 min 47 sec) 
Heartbeat_Variant_0 : 1438 0.351074 per_variant_size: 0 1438 0 0 0 0 0 0 0 
Heartbeat_Variant_1 : 2649 0.646729 per_variant_size: 0 200 2449 0 0 0 0 0 0 
Heartbeat_Variant_2 : 0 0 per_variant_size: 0 0 0 0 0 0 0 0 0 
Heartbeat_Variant_3 : 0 0 per_variant_size: 0 0 0 0 0 0 0 0 0 
Heartbeat_Variant_0_evicts 0 : 5670 1 : 273 2 : 0 3 : 0 
Heartbeat_Variant_1_evicts 0 : 269 1 : 0 2 : 0 3 : 0 
Heartbeat_Variant_2_evicts 0 : 0 1 : 0 2 : 0 3 : 0 
Heartbeat_Variant_3_evicts 0 : 0 1 : 0 2 : 0 3 : 0 
Heartbeat CPU 0 instructions: 40000002 cycles: 11187282 heartbeat IPC: 3.57661 cumulative IPC: 3.57549 (Simulation time: 0 hr 4 min 59 sec) 
Heartbeat_Variant_0 : 1431 0.349365 per_variant_size: 0 1431 0 0 0 0 0 0 0 
Heartbeat_Variant_1 : 2658 0.648926 per_variant_size: 0 196 2462 0 0 0 0 0 0 
Heartbeat_Variant_2 : 0 0 per_variant_size: 0 0 0 0 0 0 0 0 0 
Heartbeat_Variant_3 : 0 0 per_variant_size: 0 0 0 0 0 0 0 0 0 
Heartbeat_Variant_0_evicts 0 : 5647 1 : 156 2 : 0 3 : 0 
Heartbeat_Variant_1_evicts 0 : 165 1 : 0 2 : 0 3 : 0 
Heartbeat_Variant_2_evicts 0 : 0 1 : 0 2 : 0 3 : 0 
Heartbeat_Variant_3_evicts 0 : 0 1 : 0 2 : 0 3 : 0 
Heartbeat CPU 0 instructions: 50000002 cycles: 13982822 heartbeat IPC: 3.57713 cumulative IPC: 3.57582 (Simulation time: 0 hr 6 min 16 sec) 

Warmup complete CPU 0 instructions: 50000002 cycles: 13982822 (Simulation time: 0 hr 6 min 16 sec) 

Cycle: 20000000 FTQ IN: 58388734 FTQ occupancy: 19.9348 DECODE IN: 58388659 DECODE occupancy: 52.1678 ROB IN: 58388599 ROB occupancy: 315.435 ROB OUT: 58388251
Heartbeat_Variant_0 : 1432 0.349609 per_variant_size: 0 1432 0 0 0 0 0 0 0 
Heartbeat_Variant_1 : 2657 0.648682 per_variant_size: 0 197 2460 0 0 0 0 0 0 
Heartbeat_Variant_2 : 0 0 per_variant_size: 0 0 0 0 0 0 0 0 0 
Heartbeat_Variant_3 : 0 0 per_variant_size: 0 0 0 0 0 0 0 0 0 
Heartbeat_Variant_0_evicts 0 : 5611 1 : 5 2 : 0 3 : 0 
Heartbeat_Variant_1_evicts 0 : 4 1 : 0 2 : 0 3 : 0 
Heartbeat_Variant_2_evicts 0 : 0 1 : 0 2 : 0 3 : 0 
Heartbeat_Variant_3_evicts 0 : 0 1 : 0 2 : 0 3 : 0 
Heartbeat CPU 0 instructions: 60000001 cycles: 21150963 heartbeat IPC: 1.39506 cumulative IPC: 1.39506 (Simulation time: 0 hr 7 min 42 sec) 
Heartbeat_Variant_0 : 1438 0.351074 per_variant_size: 0 1438 0 0 0 0 0 0 0 
Heartbeat_Variant_1 : 2654 0.647949 per_variant_size: 0 185 2469 0 0 0 0 0 0 
Heartbeat_Variant_2 : 0 0 per_variant_size: 0 0 0 0 0 0 0 0 0 
Heartbeat_Variant_3 : 0 0 per_variant_size: 0 0 0 0 0 0 0 0 0 
Heartbeat_Variant_0_evicts 0 : 5643 1 : 102 2 : 0 3 : 0 
Heartbeat_Variant_1_evicts 0 : 98 1 : 0 2 : 0 3 : 0 
Heartbeat_Variant_2_evicts 0 : 0 1 : 0 2 : 0 3 : 0 
Heartbeat_Variant_3_evicts 0 : 0 1 : 0 2 : 0 3 : 0 
Heartbeat CPU 0 instructions: 70000001 cycles: 28433831 heartbeat IPC: 1.37309 cumulative IPC: 1.38399 (Simulation time: 0 hr 9 min 9 sec) 
Cycle: 30000000 FTQ IN: 13788840 FTQ occupancy: 12.9879 DECODE IN: 13788888 DECODE occupancy: 33.9967 ROB IN: 13788948 ROB occupancy: 237.923 ROB OUT: 13789236
Heartbeat_Variant_0 : 1436 0.350586 per_variant_size: 0 1436 0 0 0 0 0 0 0 
Heartbeat_Variant_1 : 2656 0.648438 per_variant_size: 0 196 2460 0 0 0 0 0 0 
Heartbeat_Variant_2 : 0 0 per_variant_size: 0 0 0 0 0 0 0 0 0 
Heartbeat_Variant_3 : 0 0 per_variant_size: 0 0 0 0 0 0 0 0 0 
Heartbeat_Variant_0_evicts 0 : 5617 1 : 21 2 : 0 3 : 0 
Heartbeat_Variant_1_evicts 0 : 23 1 : 0 2 : 0 3 : 0 
Heartbeat_Variant_2_evicts 0 : 0 1 : 0 2 : 0 3 : 0 
Heartbeat_Variant_3_evicts 0 : 0 1 : 0 2 : 0 3 : 0 
Heartbeat CPU 0 instructions: 80000000 cycles: 35615303 heartbeat IPC: 1.39247 cumulative IPC: 1.3868 (Simulation time: 0 hr 10 min 24 sec) 
Cycle: 40000000 FTQ IN: 13819065 FTQ occupancy: 13.0263 DECODE IN: 13819092 DECODE occupancy: 34.1578 ROB IN: 13819092 ROB occupancy: 239.303 ROB OUT: 13819076
Heartbeat_Variant_0 : 1435 0.350342 per_variant_size: 0 1435 0 0 0 0 0 0 0 
Heartbeat_Variant_1 : 2658 0.648926 per_variant_size: 0 209 2449 0 0 0 0 0 0 
Heartbeat_Variant_2 : 0 0 per_variant_size: 0 0 0 0 0 0 0 0 0 
Heartbeat_Variant_3 : 0 0 per_variant_size: 0 0 0 0 0 0 0 0 0 
Heartbeat_Variant_0_evicts 0 : 5688 1 : 110 2 : 0 3 : 0 
Heartbeat_Variant_1_evicts 0 : 111 1 : 0 2 : 0 3 : 0 
Heartbeat_Variant_2_evicts 0 : 0 1 : 0 2 : 0 3 : 0 
Heartbeat_Variant_3_evicts 0 : 0 1 : 0 2 : 0 3 : 0 
Heartbeat CPU 0 instructions: 90000003 cycles: 42874182 heartbeat IPC: 1.37762 cumulative IPC: 1.3845 (Simulation time: 0 hr 11 min 41 sec) 
Cycle: 50000000 FTQ IN: 13948751 FTQ occupancy: 12.9195 DECODE IN: 13948728 DECODE occupancy: 34.0952 ROB IN: 13948705 ROB occupancy: 239.465 ROB OUT: 13948645
Heartbeat_Variant_0 : 1434 0.350098 per_variant_size: 0 1434 0 0 0 0 0 0 0 
Heartbeat_Variant_1 : 2659 0.64917 per_variant_size: 0 207 2452 0 0 0 0 0 0 
Heartbeat_Variant_2 : 0 0 per_variant_size: 0 0 0 0 0 0 0 0 0 
Heartbeat_Variant_3 : 0 0 per_variant_size: 0 0 0 0 0 0 0 0 0 
Heartbeat_Variant_0_evicts 0 : 5537 1 : 2 2 : 0 3 : 0 
Heartbeat_Variant_1_evicts 0 : 3 1 : 0 2 : 0 3 : 0 
Heartbeat_Variant_2_evicts 0 : 0 1 : 0 2 : 0 3 : 0 
Heartbeat_Variant_3_evicts 0 : 0 1 : 0 2 : 0 3 : 0 
Heartbeat CPU 0 instructions: 100000003 cycles: 50037796 heartbeat IPC: 1.39594 cumulative IPC: 1.38677 (Simulation time: 0 hr 13 min 8 sec) 
Finished CPU 0 instructions: 50000001 cycles: 36054974 cumulative IPC: 1.38677 (Simulation time: 0 hr 13 min 8 sec) 

ChampSim completed all CPUs

Region of Interest Statistics

CPU 0 cumulative IPC: 1.38677 instructions: 50000001 cycles: 36054974
 Fetch stage stalled: 53.4748  Sim cycles: 36054974 fetch stall cycle: 19280337
 Empty decode stage: 34.714  Sim cycles: 36054974 fetch stall cycle: 12516127
ITLB TOTAL     ACCESS:    5858580  HIT:    5365859  MISS:     492721  HIT %:    91.5898  MISS %:    8.41025   MPKI: 9.85442
ITLB LOAD TRANSLATION INSTRUCTION	ACCESS:    5733040  HIT:    5240319  MISS:     492721  HIT %:    91.4056  MISS %:    8.59441  MPKI: 9.85442
ITLB TRANSLATION FROM L1D PREFETCHER INSTRUCTION	ACCESS:     125540  HIT:     125540  MISS:          0  HIT %:        100  MISS %:          0  MPKI: 0

ITLB AVERAGE MISS LATENCY: 9.05002 cycles
ITLB RQ	ACCESS:    7998160	FORWARD:          0	MERGED:    1695428	TO_CACHE:    6302732

DTLB TOTAL     ACCESS:    8961400  HIT:    8490432  MISS:     470968  HIT %:    94.7445  MISS %:    5.25552   MPKI: 9.41936
DTLB LOAD TRANSLATION DATA	ACCESS:    8961400  HIT:    8490432  MISS:     470968  HIT %:    94.7445  MISS %:    5.25552  MPKI: 9.41936

DTLB AVERAGE MISS LATENCY: 9.29709 cycles
DTLB RQ	ACCESS:   13329891	FORWARD:          0	MERGED:    4332407	TO_CACHE:    8997484

STLB TOTAL     ACCESS:    1212089  HIT:    1210155  MISS:       1934  HIT %:    99.8404  MISS %:   0.159559   MPKI: 0.03868
STLB LOAD TRANSLATION INSTRUCTION	ACCESS:     492721  HIT:     492482  MISS:        239  HIT %:    99.9515  MISS %:  0.0485062  MPKI: 0.00478
STLB LOAD TRANSLATION DATA	ACCESS:     470967  HIT:     469298  MISS:       1669  HIT %:    99.6456  MISS %:   0.354377  MPKI: 0.03338
STLB TRANSLATION FROM L1D PREFETCHER DATA	ACCESS:     248401  HIT:     248375  MISS:         26  HIT %:    99.9895  MISS %:  0.0104669  MPKI: 0.00052

STLB AVERAGE MISS LATENCY: 68.8987 cycles
STLB RQ	ACCESS:    1333093	FORWARD:          0	MERGED:     120955	TO_CACHE:    1212138

STLB Hit, L1D data hit: 0
STLB Hit, L2C data hit: 0
STLB Hit, LLC data hit: 0
STLB Hit, LLC data miss: 0
STLB STLB hints to L2: 0
L1D TOTAL     ACCESS:   13089413  HIT:   11977270  MISS:    1112143  HIT %:    91.5035  MISS %:    8.49651   MPKI: 22.2429
L1D LOAD DATA	ACCESS:    6553177  HIT:    5819267  MISS:     733910  HIT %:    88.8007  MISS %:    11.1993  MPKI: 14.6782
L1D RFO DATA	ACCESS:    6206932  HIT:    5922606  MISS:     284326  HIT %:    95.4192  MISS %:    4.58078  MPKI: 5.68652
L1D PREFETCH DATA	ACCESS:     329304  HIT:     235397  MISS:      93907  HIT %:    71.4832  MISS %:    28.5168  MPKI: 1.87814

L1D PREFETCH  REQUESTED:     739199  ISSUED:     739199  USEFUL:      32938  USELESS:      68170
L1D USEFUL LOAD PREFETCHES:      32938 PREFETCH ISSUED TO LOWER LEVEL:     101146  ACCURACY: 32.5648
 TIMELY PREFETCHES:      32938 LATE PREFETCHES: 7211 DROPPED PREFETCHES: 10
L1D AVERAGE MISS LATENCY: 208871 cycles
L1D RQ	ACCESS:   10685536	FORWARD:          0	MERGED:    3937145	TO_CACHE:    6586367
L1D WQ	ACCESS:    6941120	FORWARD:     162415	MERGED:     197596	TO_CACHE:    6743524
L1D PQ	ACCESS:     369795	FORWARD:          0	MERGED:          0	TO_CACHE:     369404

L1D UNIQUE REGIONS ACCESSED: 0
L1D REGIONS CONFLICTS: 0
L1D Cross Page Prefetch Requests: 6990
L1D Same Page Prefetch Requests: 749048
L1D ROI Sum of L1D PQ occupancy: 4681702
L1D PREFETCHES PUSHED FROM L2C: 0
L1I TOTAL     ACCESS:    7170951  HIT:    4414175  MISS:    2756776  HIT %:    61.5563  MISS %:    38.4437   MPKI: 55.1355
L1I LOAD INSTRUCTION	ACCESS:    6504309  HIT:    3747533  MISS:    2756776  HIT %:    57.6162  MISS %:    42.3838  MPKI: 55.1355
L1I PREFETCH INSTRUCTION	ACCESS:     666642  HIT:     666642  MISS:          0  HIT %:        100  MISS %:          0  MPKI: 0

L1I PREFETCH  REQUESTED:    1610146  ISSUED:    1610146  USEFUL:          0  USELESS:          0
L1I USEFUL LOAD PREFETCHES:          0 PREFETCH ISSUED TO LOWER LEVEL:          0  ACCURACY: -nan
 TIMELY PREFETCHES:          0 LATE PREFETCHES: 0 DROPPED PREFETCHES: 0
L1I AVERAGE MISS LATENCY: 16.829 cycles
L1I RQ	ACCESS:    9506780	FORWARD:          0	MERGED:    2688084	TO_CACHE:    6818696
L1I PQ	ACCESS:    1610146	FORWARD:          0	MERGED:     430682	TO_CACHE:    1179464

L1BTB TOTAL     ACCESS:    5669407  HIT:    2046868  MISS:    3622539  HIT %:    36.1037  MISS %:    63.8963   MPKI: 72.4508
L1BTB BRANCH_DIRECT_JUMP	ACCESS:     548178 HIT:     144938 MISS:     403240 AVERAGE STALL: 48.979 AVERAGE FETCH STALL: 16.6859 AVERAGE FETCH QUEUE STALL: 13.5055 AVERAGE DECODE STALL: 17.9383 AVERAGE EXECUTE STALL: 2.04012e+15
L1BTB BRANCH_INDIRECT	ACCESS:     182906 HIT:      66116 MISS:     116790 AVERAGE STALL: 103.426 AVERAGE FETCH STALL: 10.9558 AVERAGE FETCH QUEUE STALL: 15.401 AVERAGE DECODE STALL: 12.2166 AVERAGE EXECUTE STALL: 63.8905
L1BTB BRANCH_CONDITIONAL	ACCESS:    2706777 HIT:    1416534 MISS:    1290243 AVERAGE STALL: 64.7269 AVERAGE FETCH STALL: 24.6954 AVERAGE FETCH QUEUE STALL: 19.8618 AVERAGE DECODE STALL: 19.6357 AVERAGE EXECUTE STALL: 3.84628e+15
L1BTB BRANCH_DIRECT_CALL	ACCESS:     943781 HIT:     106075 MISS:     837706 AVERAGE STALL: 54.0833 AVERAGE FETCH STALL: 22.554 AVERAGE FETCH QUEUE STALL: 13.0717 AVERAGE DECODE STALL: 17.8483 AVERAGE EXECUTE STALL: 1.52075e+16
L1BTB BRANCH_INDIRECT_CALL	ACCESS:     171992 HIT:      21754 MISS:     150238 AVERAGE STALL: 130.587 AVERAGE FETCH STALL: 12.6259 AVERAGE FETCH QUEUE STALL: 11.8735 AVERAGE DECODE STALL: 9.79099 AVERAGE EXECUTE STALL: 95.8091
L1BTB BRANCH_RETURN	ACCESS:    1115773 HIT:     291451 MISS:     824322 AVERAGE STALL: 45.4494 AVERAGE FETCH STALL: 16.5665 AVERAGE FETCH QUEUE STALL: 3.83922 AVERAGE DECODE STALL: 5.86224 AVERAGE EXECUTE STALL: 4.32038e+14
L1BTB BRANCH_OTHER ACCESS:          0 HIT:          0 MISS:          0 AVERAGE STALL: -nan AVERAGE FETCH STALL: -nan AVERAGE FETCH QUEUE STALL: -nan AVERAGE DECODE STALL: -nan AVERAGE EXECUTE STALL: -nan
L1BTB TOTAL ROB OCCUPANCY AT BTB MISS: 2.5889

L2BTB TOTAL     ACCESS:    3597101  HIT:    3532095  MISS:      65006  HIT %:    98.1928  MISS %:    1.80718   MPKI: 1.30012
L2BTB BRANCH_DIRECT_JUMP	ACCESS:     399050 HIT:     394197 MISS:       4853 AVERAGE STALL: 48.979 AVERAGE FETCH STALL: 16.6859 AVERAGE FETCH QUEUE STALL: 13.5055 AVERAGE DECODE STALL: 17.9383 AVERAGE EXECUTE STALL: 2.04012e+15
L2BTB BRANCH_INDIRECT	ACCESS:     106519 HIT:     103854 MISS:       2665 AVERAGE STALL: 103.426 AVERAGE FETCH STALL: 10.9558 AVERAGE FETCH QUEUE STALL: 15.401 AVERAGE DECODE STALL: 12.2166 AVERAGE EXECUTE STALL: 63.8905
L2BTB BRANCH_CONDITIONAL	ACCESS:    1290243 HIT:    1285427 MISS:       4816 AVERAGE STALL: 64.7269 AVERAGE FETCH STALL: 24.6954 AVERAGE FETCH QUEUE STALL: 19.8618 AVERAGE DECODE STALL: 19.6357 AVERAGE EXECUTE STALL: 3.84628e+15
L2BTB BRANCH_DIRECT_CALL	ACCESS:     837706 HIT:     836483 MISS:       1223 AVERAGE STALL: 54.0833 AVERAGE FETCH STALL: 22.554 AVERAGE FETCH QUEUE STALL: 13.0717 AVERAGE DECODE STALL: 17.8483 AVERAGE EXECUTE STALL: 1.52075e+16
L2BTB BRANCH_INDIRECT_CALL	ACCESS:     140663 HIT:     130521 MISS:      10142 AVERAGE STALL: 130.587 AVERAGE FETCH STALL: 12.6259 AVERAGE FETCH QUEUE STALL: 11.8735 AVERAGE DECODE STALL: 9.79099 AVERAGE EXECUTE STALL: 95.8091
L2BTB BRANCH_RETURN	ACCESS:     822920 HIT:     781613 MISS:      41307 AVERAGE STALL: 45.4494 AVERAGE FETCH STALL: 16.5665 AVERAGE FETCH QUEUE STALL: 3.83922 AVERAGE DECODE STALL: 5.86224 AVERAGE EXECUTE STALL: 4.32038e+14
L2BTB BRANCH_OTHER ACCESS:          0 HIT:          0 MISS:          0 AVERAGE STALL: -nan AVERAGE FETCH STALL: -nan AVERAGE FETCH QUEUE STALL: -nan AVERAGE DECODE STALL: -nan AVERAGE EXECUTE STALL: -nan
L2BTB TOTAL ROB OCCUPANCY AT BTB MISS: 144.27

L2C TOTAL     ACCESS:    4470919  HIT:    4053748  MISS:     417171  HIT %:    90.6692  MISS %:    9.33077   MPKI: 8.34342
L2C LOAD INSTRUCTION	ACCESS:    2756777  HIT:    2530709  MISS:     226068  HIT %:    91.7996  MISS %:    8.20045  MPKI: 4.52136
L2C LOAD TRANSLATION INSTRUCTION	ACCESS:        269  HIT:         62  MISS:        207  HIT %:    23.0483  MISS %:    76.9517  MPKI: 0.00414
L2C LOAD DATA	ACCESS:     726669  HIT:     656474  MISS:      70195  HIT %:    90.3402  MISS %:    9.65983  MPKI: 1.4039
L2C RFO DATA	ACCESS:     284275  HIT:     237414  MISS:      46861  HIT %:    83.5156  MISS %:    16.4844  MPKI: 0.93722
L2C PREFETCH DATA	ACCESS:     182006  HIT:     118802  MISS:      63204  HIT %:    65.2737  MISS %:    34.7263  MPKI: 1.26408
L2C WRITEBACK DATA	ACCESS:     519157  HIT:     509762  MISS:       9395  HIT %:    98.1903  MISS %:    1.80966  MPKI: 0.1879
L2C LOAD TRANSLATION DATA	ACCESS:       1714  HIT:        491  MISS:       1223  HIT %:    28.6464  MISS %:    71.3536  MPKI: 0.02446
L2C TRANSLATION FROM L1D PREFETCHER DATA	ACCESS:         52  HIT:         34  MISS:         18  HIT %:    65.3846  MISS %:    34.6154  MPKI: 0.00036

L2C PREFETCH  REQUESTED:      88941  ISSUED:      88941  USEFUL:       7444  USELESS:      56318
L2C USEFUL LOAD PREFETCHES:       7444 PREFETCH ISSUED TO LOWER LEVEL:      63742  ACCURACY: 11.6783
 TIMELY PREFETCHES:       7444 LATE PREFETCHES: 538 DROPPED PREFETCHES: 0
L2C AVERAGE MISS LATENCY: 39.3051 cycles
L2C RQ	ACCESS:    3769811	FORWARD:          0	MERGED:          0	TO_CACHE:    3769758
L2C WQ	ACCESS:     519157	FORWARD:         53	MERGED:          0	TO_CACHE:     519157
L2C PQ	ACCESS:     190087	FORWARD:          0	MERGED:       3689	TO_CACHE:     186398

L2C Dense regions hint from L2: 0
PSCL5 TOTAL     ACCESS:       3896  HIT:       1948  MISS:       1948  HIT %:         50  MISS %:         50   MPKI: 0.03896
PSCL5 LOAD TRANSLATION INSTRUCTION	ACCESS:       3792  HIT:       1896  MISS:       1896  HIT %:         50  MISS %:         50  MPKI: 0.03792
PSCL5 TRANSLATION FROM L1D PREFETCHER INSTRUCTION	ACCESS:        104  HIT:         52  MISS:         52  HIT %:         50  MISS %:         50  MPKI: 0.00104


PSCL4 TOTAL     ACCESS:       3845  HIT:       1920  MISS:       1925  HIT %:     49.935  MISS %:     50.065   MPKI: 0.0385
PSCL4 LOAD TRANSLATION INSTRUCTION	ACCESS:       3483  HIT:       1875  MISS:       1608  HIT %:    53.8329  MISS %:    46.1671  MPKI: 0.03216
PSCL4 TRANSLATION FROM L1D PREFETCHER INSTRUCTION	ACCESS:         90  HIT:         45  MISS:         45  HIT %:         50  MISS %:         50  MPKI: 0.0009
PSCL4 LOAD TRANSLATION DATA	ACCESS:        272  HIT:          0  MISS:        272  HIT %:          0  MISS %:        100  MPKI: 0.00544


PSCL3 TOTAL     ACCESS:       3851  HIT:       1923  MISS:       1928  HIT %:    49.9351  MISS %:    50.0649   MPKI: 0.03856
PSCL3 LOAD TRANSLATION INSTRUCTION	ACCESS:       3486  HIT:       1878  MISS:       1608  HIT %:    53.8726  MISS %:    46.1274  MPKI: 0.03216
PSCL3 TRANSLATION FROM L1D PREFETCHER INSTRUCTION	ACCESS:         90  HIT:         45  MISS:         45  HIT %:         50  MISS %:         50  MPKI: 0.0009
PSCL3 LOAD TRANSLATION DATA	ACCESS:        275  HIT:          0  MISS:        275  HIT %:          0  MISS %:        100  MPKI: 0.0055


PSCL2 TOTAL     ACCESS:       3818  HIT:       1870  MISS:       1948  HIT %:    48.9785  MISS %:    51.0215   MPKI: 0.03896
PSCL2 LOAD TRANSLATION INSTRUCTION	ACCESS:       2057  HIT:       1818  MISS:        239  HIT %:    88.3811  MISS %:    11.6189  MPKI: 0.00478
PSCL2 TRANSLATION FROM L1D PREFETCHER INSTRUCTION	ACCESS:         52  HIT:         52  MISS:          0  HIT %:        100  MISS %:          0  MPKI: 0
PSCL2 LOAD TRANSLATION DATA	ACCESS:       1657  HIT:          0  MISS:       1657  HIT %:          0  MISS %:        100  MPKI: 0.03314
PSCL2 TRANSLATION FROM L1D PREFETCHER DATA	ACCESS:         52  HIT:          0  MISS:         52  HIT %:          0  MISS %:        100  MPKI: 0.00104


LLC TOTAL     ACCESS:     473063  HIT:     446339  MISS:      26724  HIT %:    94.3509  MISS %:    5.64914   MPKI: 0.53448
LLC LOAD INSTRUCTION	ACCESS:     226068  HIT:     225388  MISS:        680  HIT %:    99.6992  MISS %:   0.300794  MPKI: 0.0136
LLC LOAD TRANSLATION INSTRUCTION	ACCESS:        207  HIT:        172  MISS:         35  HIT %:    83.0918  MISS %:    16.9082  MPKI: 0.0007
LLC LOAD DATA	ACCESS:      69669  HIT:      66469  MISS:       3200  HIT %:    95.4069  MISS %:    4.59315  MPKI: 0.064
LLC RFO DATA	ACCESS:      46847  HIT:      33757  MISS:      13090  HIT %:     72.058  MISS %:     27.942  MPKI: 0.2618
LLC PREFETCH DATA	ACCESS:      63742  HIT:      54355  MISS:       9387  HIT %:    85.2734  MISS %:    14.7266  MPKI: 0.18774
LLC WRITEBACK DATA	ACCESS:      65289  HIT:      65006  MISS:        283  HIT %:    99.5665  MISS %:   0.433457  MPKI: 0.00566
LLC LOAD TRANSLATION DATA	ACCESS:       1223  HIT:       1174  MISS:         49  HIT %:    95.9935  MISS %:    4.00654  MPKI: 0.00098
LLC TRANSLATION FROM L1D PREFETCHER DATA	ACCESS:         18  HIT:         18  MISS:          0  HIT %:        100  MISS %:          0  MPKI: 0

LLC AVERAGE MISS LATENCY: 154.575 cycles
LLC RQ	ACCESS:     344034	FORWARD:          0	MERGED:          0	TO_CACHE:     344032
LLC WQ	ACCESS:      65289	FORWARD:          2	MERGED:          0	TO_CACHE:      65289
LLC PQ	ACCESS:      63742	FORWARD:          0	MERGED:          0	TO_CACHE:      63742

LLC Dense regions hint to LLC: 0

RAW hits: 1944544
Loads Generated: 12630080
Loads sent to L1D: 10685536
Stores Generated: 6941120
Stores sent to L1D: 6941120
Major fault: 0 Minor fault: 2614
Allocated PAGES: 2614

stream: 
stream:times selected: 1187765
stream:pref_filled: 120972
stream:pref_useful: 24136
stream:pref_late: 6411
stream:misses: 8151
stream:misses_by_poll: 0

CS: 
CS:times selected: 178090
CS:pref_filled: 59520
CS:pref_useful: 36264
CS:pref_late: 6266
CS:misses: 15710
CS:misses_by_poll: 2

CPLX: 
CPLX:times selected: 1008594
CPLX:pref_filled: 19678
CPLX:pref_useful: 4780
CPLX:pref_late: 2961
CPLX:misses: 93286
CPLX:misses_by_poll: 0

NL_L1: 
NL:times selected: 21284
NL:pref_filled: 706
NL:pref_useful: 335
NL:pref_late: 321
NL:misses: 1760
NL:misses_by_poll: 0

total selections: 2395733
total_filled: 93907
total_useful: 32938
total_late: 17292
total_polluted: 2
total_misses_after_warmup: 767101
conflicts: 5517152

test: 117477

DRAM Statistics
 CHANNEL 0
 RQ ROW_BUFFER_HIT:      10029  ROW_BUFFER_MISS:      16408
 DBUS_CONGESTED:         12
 WQ ROW_BUFFER_HIT:       1272  ROW_BUFFER_MISS:      11409  FULL:          0

 AVG_CONGESTED_CYCLE: 5

CPU 0 Branch Prediction Accuracy: 99.8291% MPKI: 0.31266 Average ROB Occupancy at Mispredict: 194.3
Branch types
NOT_BRANCH: 40854943 81.7099%
BRANCH_DIRECT_JUMP: 548178 1.09636%
BRANCH_INDIRECT: 182906 0.365812%
BRANCH_CONDITIONAL: 6182177 12.3644%
BRANCH_DIRECT_CALL: 943781 1.88756%
BRANCH_INDIRECT_CALL: 171992 0.343984%
BRANCH_RETURN: 1115773 2.23155%
BRANCH_OTHER: 0 0%

DRAM PAGES: 1048576
Allocated PAGES: 2614
Average_ROB_Occupancy: 240.01
Average_Decode_Occupancy: 34.0305
Average_FTQ_Occupancy: 12.9465
Indirect max targets: 14 Average targets: 1.17891
Branch_type:  BRANCH_DIRECT_JUMP:  Count Percentage: 1.61907 6.99713 4.54694 8.4276 3.10441 6.29033 1.92002 67.0945 
Branch_type:  BRANCH_INDIRECT:  Count Percentage: 6.16502 3.48061 2.56056 0 1.33619 9.66613 4.14392 72.6476 
Branch_type:  BRANCH_CONDITIONAL:  Count Percentage: 20.8785 6.56368 1.82751 5.01127 2.32594 4.14935 3.00875 56.2349 
Branch_type:  BRANCH_DIRECT_CALL:  Count Percentage: 0.259487 1.96293 1.28201 3.77965 3.71254 2.34683 4.30557 82.351 
Branch_type:  BRANCH_INDIRECT_CALL:  Count Percentage: 6.53959 0 2.98495 8.68239 1.25261 2.02694 6.40336 72.1102 
Branch_type:  BRANCH_RETURN:  Count Percentage: 4.29521 4.76347 1.49206 5.82542 3.96246 4.8508 4.9747 69.8359 
Branch_type:  BRANCH_DIRECT_JUMP:  Total Count: 17737 76654 49812 92325 34009 68911 21034 735025 
Branch_type:  BRANCH_INDIRECT:  Total Count: 22548 12730 9365 0 4887 35353 15156 265702 
Branch_type:  BRANCH_CONDITIONAL:  Total Count: 2579877 811048 225818 619223 287407 512719 371779 6948726 
Branch_type:  BRANCH_DIRECT_CALL:  Total Count: 4895 37029 24184 71300 70034 44271 81221 1553482 
Branch_type:  BRANCH_INDIRECT_CALL:  Total Count: 22465 0 10254 29826 4303 6963 21997 247715 
Branch_type:  BRANCH_RETURN:  Total Count: 95818 106264 33285 129954 88395 108212 110976 1557905 
Number of unique branch instructions: 10791
Upper 32 bits: 
aaaa
ffff
ffff0000
Unique upper 32 bits: 3
Unique upper 36 bits: 3
Unique upper 40 bits: 5
Unique upper 44 bits: 32
Unique upper 48 bits: 158
Variant_0 : 1434 0.350098
Variant_1 : 2659 0.64917
Variant_2 : 0 0
Variant_3 : 0 0
Offset_3 4474
Offset_4 260
Offset_5 482
Offset_6 542
Offset_7 640
Offset_8 576
Offset_9 525
Offset_10 429
Offset_11 363
Offset_12 312
Offset_13 236
Offset_14 244
Offset_15 194
Offset_16 233
Offset_17 168
Offset_18 149
Offset_19 257
Offset_20 143
Offset_21 235
Offset_22 416
Offset_23 241
Offset_24 344
Offset_25 117
Offset_47 92
decode_dispatch_called: 25515241 70.7676
Dispatch_width: 0 13678933 53.6108 37.9391
Dispatch_width: 1 959305 3.75973 2.66067
Dispatch_width: 2 831736 3.25976 2.30686
Dispatch_width: 3 500454 1.96139 1.38803
Dispatch_width: 4 5617111 22.0147 15.5793
Dispatch_width: 5 159004 0.623173 0.441004
Dispatch_width: 6 3768698 14.7704 10.4526
Empty_decode_cycles: 10539733 29.2324
ROB_full_cycles: 8903510 24.6943
Starvation_cycles_per_kilo_instr: 233.828
Starvation_cycles_per_kilo_instr_3: 176.067
Starvation_cycles_per_kilo_instr_0: 153.152
Branch_type_1  (3,1)  (4,9)  (5,39)  (6,74)  (7,123)  (8,151)  (9,138)  (10,111)  (11,80)  (12,48)  (13,11)  (14,2)  (15,3)  (16,4)  (18,1)  (19,5)  (20,2)  (21,1)  (22,3)  (23,2)  (24,10)  (25,12) 
Branch_type_2  (3,1)  (4,1)  (5,1)  (8,4)  (9,4)  (10,1)  (12,1)  (13,1)  (14,1)  (16,3)  (17,2)  (20,2)  (21,2)  (23,5)  (24,1)  (47,41) 
Branch_type_3  (3,4472)  (4,250)  (5,438)  (6,452)  (7,487)  (8,356)  (9,288)  (10,174)  (11,147)  (12,55)  (13,10) 
Branch_type_4  (6,3)  (7,8)  (8,25)  (9,56)  (10,68)  (11,70)  (12,116)  (13,100)  (14,110)  (15,92)  (16,102)  (17,79)  (18,65)  (19,125)  (20,73)  (21,124)  (22,220)  (23,136)  (24,199)  (25,101) 
Branch_type_5  (8,3)  (9,1)  (10,4)  (11,5)  (12,3)  (13,14)  (14,16)  (15,11)  (16,22)  (17,11)  (18,23)  (19,14)  (20,11)  (21,13)  (22,43)  (23,26)  (24,38) 
Branch_type_6  (5,4)  (6,13)  (7,22)  (8,37)  (9,38)  (10,71)  (11,61)  (12,89)  (13,100)  (14,115)  (15,88)  (16,102)  (17,76)  (18,60)  (19,113)  (20,55)  (21,95)  (22,150)  (23,72)  (24,96)  (25,4)  (47,51) 
Unique trigger count: 
Variant_0_evicts_0 : 0
Variant_0_evicts_1 : 0
Variant_0_evicts_2 : 0
Variant_0_evicts_3 : 0
Variant_1_evicts_0 : 0
Variant_1_evicts_1 : 0
Variant_1_evicts_2 : 0
Variant_1_evicts_3 : 0
Variant_2_evicts_0 : 0
Variant_2_evicts_1 : 0
Variant_2_evicts_2 : 0
Variant_2_evicts_3 : 0
Variant_3_evicts_0 : 0
Variant_3_evicts_1 : 0
Variant_3_evicts_2 : 0
Variant_3_evicts_3 : 0
BTB PER SET UNIQUE ADDR: 23 20 17 17 21 25 28 20 17 23 25 20 21 16 16 19 12 19 21 14 24 17 18 22 20 18 16 27 14 20 27 14 18 18 19 16 26 16 16 22 26 19 17 22 18 25 25 15 24 16 20 25 18 25 16 16 14 23 21 14 24 15 21 27 19 29 24 14 24 20 18 25 25 14 21 33 23 22 18 17 25 23 21 23 20 22 23 21 19 25 27 20 22 17 19 24 20 17 15 24 13 24 20 17 19 19 20 21 25 13 19 19 18 33 25 18 23 16 17 28 26 18 18 23 24 24 27 18 22 18 27 18 24 18 20 27 23 22 14 36 17 21 24 19 22 15 15 17 17 20 21 17 15 19 23 17 21 14 17 32 24 14 14 24 14 19 14 17 20 19 22 19 26 17 16 27 15 21 21 21 24 18 19 20 26 13 19 18 14 25 22 21 21 20 13 24 19 22 20 16 27 27 21 15 19 17 25 26 16 23 20 18 25 23 23 25 20 21 15 28 17 22 24 15 16 23 27 16 22 21 19 23 29 26 20 24 15 25 25 17 25 23 16 22 20 29 19 18 13 23 23 12 30 21 25 20 17 24 21 18 22 18 17 18 30 18 21 34 11 27 25 19 24 16 14 23 22 30 28 17 14 19 19 17 20 21 18 26 24 20 16 23 17 20 25 16 18 25 29 18 26 19 14 31 18 26 23 16 23 19 22 22 22 15 17 21 16 27 22 14 22 18 12 27 16 28 29 23 17 26 27 12 23 20 18 20 19 23 24 18 22 17 16 22 22 20 23 25 18 24 27 17 18 32 30 18 23 18 19 25 17 19 19 17 19 23 20 17 22 14 17 28 19 29 21 16 23 24 33 19 22 19 17 22 23 20 13 25 15 32 29 21 19 24 27 15 19 18 19 25 14 27 23 16 25 16 16 26 18 16 24 26 15 23 24 15 24 24 29 22 25 15 19 22 28 22 17 27 17 23 19 17 30 17 16 27 15 20 24 17 22 24 29 21 25 21 13 31 21 20 24 20 26 22 19 30 26 19 18 28 15 21 30 19 27 16 17 23 21 33 24 24 17 21 29 13 24 15 20 25 26 17 16 24 16 25 26 20 22 24 28 17 31 13 17 26 15 24 28 15 26 24 21 19 24 16 17 23 15 24 25 14 
BTB PER SET COUNT: 68 460 18 19 21 77 86 20 22 25 30 23 520 18 1015 19 12 19 24 519 27 17 20 211 24 1430 638 214 374 21 519 14 18 18 19 21 27 17 224 552 26 20 999 24 59 29 28 16 33 17 23 25 20 1369 691 16 15 24 1992 15 26 16 27 2096 329 170 452 15 408 50 22 29 27 985 25 39 3450 26 2950 17 28 28 22 245 20 25 25 21 23 27 33 3270 24 20 22 29 1122 1499 17 1835 13 27 24 17 110 1099 26 1096 94 13 1110 19 18 339 1014 21 24 493 19 32 1246 18 20 4380 30 700 29 19 1133 18 31 18 25 19 569 27 149 22 14 41 22 24 26 22 23 9233 329 18 21 62 22 105 17 643 26 18 23 14 18 1017 27 1001 14 8903 14 927 207 619 23 19 1488 20 34 18 18 223 15 792 25 22 845 20 19 24 32 14 19 712 14 395 24 574 1110 81 13 32 19 25 20 17 30 396 266 15 30 248 519 34 1972 230 21 212 29 189 27 28 23 2327 16 503 152 24 28 15 17 24 776 31 26 88 3010 1490 48 31 20 26 18 2120 28 20 264 1009 21 681 1501 35 20 19 1985 26 30 12 32 243 28 22 17 25 24 388 25 20 4415 21 2185 19 41 38 11 1494 28 375 27 18 19 24 2186 134 33 17 14 527 23 17 20 23 18 323 75 29 18 1330 511 21 1384 29 18 511 161 1500 874 905 392 399 21 30 24 16 27 1495 3664 1416 27 16 22 22 18 939 27 21 278 23 12 10318 17 36 145 517 317 45 405 130 25 679 19 21 19 172 2419 20 25 17 316 25 499 24 25 2036 21 28 30 20 19 135 31 18 29 19 22 31 18 24 21 17 2936 79 20 20 33 14 18 116 1004 287 22 16 27 123 551 19 24 20 17 26 542 23 15 26 18 458 35 22 21 26 30 20 157 20 614 1494 14 159 29 29 1493 1266 17 418 1482 16 344 1245 15 29 25 28 26 1050 31 1515 28 17 571 6417 32 25 19 57 20 28 24 19 475 1132 20 33 15 22 167 21 27 26 38 586 993 27 13 526 174 32 52 22 696 1585 19 30 26 21 21 29 19 132 37 1555 5917 17 391 25 21 1292 130 942 21 25 33 13 642 17 22 25 408 17 20 1846 16 33 31 22 28 25 35 18 217 13 45 31 15 25 341 15 1572 28 23 991 32 195 20 23 17 1493 27 394 
To predecode: 0
Predecoding something: 0
Predecode request dropped: 0
sizeofblock_0 0
sizeofblock_1 39461
sizeofblock_2 98296
sizeofblock_3 0
sizeofblock_4 0
sizeofblock_5 0
sizeofblock_6 0
sizeofblock_7 0
sizeofblock_8 0
Variant_0 Correct: 1612419 Incorrect: 0 Accuracy: 1
Variant_1 Correct: 5725727 Incorrect: 0 Accuracy: 1
Variant_2 Correct: 0 Incorrect: 0 Accuracy: -nan
Variant_3 Correct: 0 Incorrect: 0 Accuracy: -nan
