
*** ChampSim Multicore Out-of-Order Simulator ***

Warmup Instructions: 50000000
Simulation Instructions: 50000000
Number of CPUs: 1
LLC sets: 2048
LLC ways: 16
Off-chip DRAM Size: 4096 MB Channels: 1 Width: 64-bit Data Rate: 6400 MT/s
CPU 0 runs ./micro_traces/srv714.trace.gz
.gz
ITLB has LRU replacement policy
DTLB has LRU replacement policy
STLB has LRU replacement policy
L1I has LRU replacement policy
L1D has LRU replacement policy
Initialize SRRIP state for L2C
Initialize DRRIP state for LLC
Heartbeat_Variant_0 : 1379 0.33667 per_variant_size: 0 1379 0 0 0 0 0 0 0 
Heartbeat_Variant_1 : 1287 0.314209 per_variant_size: 0 608 679 0 0 0 0 0 0 
Heartbeat_Variant_2 : 1334 0.325684 per_variant_size: 0 487 392 233 222 0 0 0 0 
Heartbeat_Variant_3 : 0 0 per_variant_size: 0 0 0 0 0 0 0 0 0 
Heartbeat_Variant_0_evicts 0 : 6087 1 : 536 2 : 583 3 : 0 
Heartbeat_Variant_1_evicts 0 : 547 1 : 0 2 : 666 3 : 0 
Heartbeat_Variant_2_evicts 0 : 521 1 : 674 2 : 0 3 : 0 
Heartbeat_Variant_3_evicts 0 : 0 1 : 0 2 : 0 3 : 0 
Heartbeat CPU 0 instructions: 10000003 cycles: 2796192 heartbeat IPC: 3.57629 cumulative IPC: 3.57629 (Simulation time: 0 hr 1 min 19 sec) 
Heartbeat_Variant_0 : 1382 0.337402 per_variant_size: 0 1382 0 0 0 0 0 0 0 
Heartbeat_Variant_1 : 1285 0.313721 per_variant_size: 0 595 690 0 0 0 0 0 0 
Heartbeat_Variant_2 : 1341 0.327393 per_variant_size: 0 493 393 233 222 0 0 0 0 
Heartbeat_Variant_3 : 0 0 per_variant_size: 0 0 0 0 0 0 0 0 0 
Heartbeat_Variant_0_evicts 0 : 5612 1 : 12 2 : 24 3 : 0 
Heartbeat_Variant_1_evicts 0 : 16 1 : 0 2 : 216 3 : 0 
Heartbeat_Variant_2_evicts 0 : 20 1 : 223 2 : 0 3 : 0 
Heartbeat_Variant_3_evicts 0 : 0 1 : 0 2 : 0 3 : 0 
Heartbeat CPU 0 instructions: 20000000 cycles: 5592212 heartbeat IPC: 3.57651 cumulative IPC: 3.5764 (Simulation time: 0 hr 2 min 32 sec) 
Heartbeat_Variant_0 : 1392 0.339844 per_variant_size: 0 1392 0 0 0 0 0 0 0 
Heartbeat_Variant_1 : 1283 0.313232 per_variant_size: 0 596 687 0 0 0 0 0 0 
Heartbeat_Variant_2 : 1348 0.329102 per_variant_size: 0 495 380 259 214 0 0 0 0 
Heartbeat_Variant_3 : 0 0 per_variant_size: 0 0 0 0 0 0 0 0 0 
Heartbeat_Variant_0_evicts 0 : 5652 1 : 117 2 : 129 3 : 0 
Heartbeat_Variant_1_evicts 0 : 107 1 : 0 2 : 296 3 : 0 
Heartbeat_Variant_2_evicts 0 : 131 1 : 296 2 : 0 3 : 0 
Heartbeat_Variant_3_evicts 0 : 0 1 : 0 2 : 0 3 : 0 
Heartbeat CPU 0 instructions: 30000002 cycles: 8387185 heartbeat IPC: 3.57785 cumulative IPC: 3.57689 (Simulation time: 0 hr 3 min 42 sec) 
Heartbeat_Variant_0 : 1385 0.338135 per_variant_size: 0 1385 0 0 0 0 0 0 0 
Heartbeat_Variant_1 : 1286 0.313965 per_variant_size: 0 597 689 0 0 0 0 0 0 
Heartbeat_Variant_2 : 1365 0.333252 per_variant_size: 0 533 358 264 210 0 0 0 0 
Heartbeat_Variant_3 : 0 0 per_variant_size: 0 0 0 0 0 0 0 0 0 
Heartbeat_Variant_0_evicts 0 : 5724 1 : 121 2 : 147 3 : 0 
Heartbeat_Variant_1_evicts 0 : 126 1 : 0 2 : 309 3 : 0 
Heartbeat_Variant_2_evicts 0 : 152 1 : 315 2 : 0 3 : 0 
Heartbeat_Variant_3_evicts 0 : 0 1 : 0 2 : 0 3 : 0 
Heartbeat CPU 0 instructions: 40000000 cycles: 11184861 heartbeat IPC: 3.57439 cumulative IPC: 3.57626 (Simulation time: 0 hr 4 min 58 sec) 
Heartbeat_Variant_0 : 1387 0.338623 per_variant_size: 0 1387 0 0 0 0 0 0 0 
Heartbeat_Variant_1 : 1281 0.312744 per_variant_size: 0 576 705 0 0 0 0 0 0 
Heartbeat_Variant_2 : 1369 0.334229 per_variant_size: 0 533 363 268 205 0 0 0 0 
Heartbeat_Variant_3 : 0 0 per_variant_size: 0 0 0 0 0 0 0 0 0 
Heartbeat_Variant_0_evicts 0 : 5498 1 : 43 2 : 50 3 : 0 
Heartbeat_Variant_1_evicts 0 : 30 1 : 0 2 : 239 3 : 0 
Heartbeat_Variant_2_evicts 0 : 61 1 : 231 2 : 0 3 : 0 
Heartbeat_Variant_3_evicts 0 : 0 1 : 0 2 : 0 3 : 0 
Heartbeat CPU 0 instructions: 50000001 cycles: 13982083 heartbeat IPC: 3.57498 cumulative IPC: 3.57601 (Simulation time: 0 hr 6 min 17 sec) 

Warmup complete CPU 0 instructions: 50000001 cycles: 13982083 (Simulation time: 0 hr 6 min 17 sec) 

Cycle: 20000000 FTQ IN: 55296184 FTQ occupancy: 15.8209 DECODE IN: 55296166 DECODE occupancy: 9.46278 ROB IN: 55296163 ROB occupancy: 259.099 ROB OUT: 55296147
Heartbeat_Variant_0 : 1387 0.338623 per_variant_size: 0 1387 0 0 0 0 0 0 0 
Heartbeat_Variant_1 : 1290 0.314941 per_variant_size: 0 530 760 0 0 0 0 0 0 
Heartbeat_Variant_2 : 1380 0.336914 per_variant_size: 0 532 359 263 226 0 0 0 0 
Heartbeat_Variant_3 : 0 0 per_variant_size: 0 0 0 0 0 0 0 0 0 
Heartbeat_Variant_0_evicts 0 : 5878 1 : 286 2 : 322 3 : 0 
Heartbeat_Variant_1_evicts 0 : 288 1 : 0 2 : 494 3 : 0 
Heartbeat_Variant_2_evicts 0 : 324 1 : 498 2 : 0 3 : 0 
Heartbeat_Variant_3_evicts 0 : 0 1 : 0 2 : 0 3 : 0 
Heartbeat CPU 0 instructions: 60000001 cycles: 25241690 heartbeat IPC: 0.88813 cumulative IPC: 0.88813 (Simulation time: 0 hr 7 min 34 sec) 
Cycle: 30000000 FTQ IN: 9014060 FTQ occupancy: 14.8915 DECODE IN: 9014060 DECODE occupancy: 4.93886 ROB IN: 9014063 ROB occupancy: 54.1581 ROB OUT: 9014043
Heartbeat_Variant_0 : 1397 0.341064 per_variant_size: 0 1397 0 0 0 0 0 0 0 
Heartbeat_Variant_1 : 1299 0.317139 per_variant_size: 0 548 751 0 0 0 0 0 0 
Heartbeat_Variant_2 : 1365 0.333252 per_variant_size: 0 506 368 261 230 0 0 0 0 
Heartbeat_Variant_3 : 0 0 per_variant_size: 0 0 0 0 0 0 0 0 0 
Heartbeat_Variant_0_evicts 0 : 5585 1 : 87 2 : 109 3 : 0 
Heartbeat_Variant_1_evicts 0 : 88 1 : 0 2 : 276 3 : 0 
Heartbeat_Variant_2_evicts 0 : 98 1 : 269 2 : 0 3 : 0 
Heartbeat_Variant_3_evicts 0 : 0 1 : 0 2 : 0 3 : 0 
Heartbeat CPU 0 instructions: 70000000 cycles: 36502138 heartbeat IPC: 0.888064 cumulative IPC: 0.888097 (Simulation time: 0 hr 8 min 44 sec) 
Cycle: 40000000 FTQ IN: 8830698 FTQ occupancy: 14.93 DECODE IN: 8830698 DECODE occupancy: 4.93974 ROB IN: 8830698 ROB occupancy: 55.3871 ROB OUT: 8830696
Heartbeat_Variant_0 : 1396 0.34082 per_variant_size: 0 1396 0 0 0 0 0 0 0 
Heartbeat_Variant_1 : 1303 0.318115 per_variant_size: 0 533 770 0 0 0 0 0 0 
Heartbeat_Variant_2 : 1368 0.333984 per_variant_size: 0 502 365 271 230 0 0 0 0 
Heartbeat_Variant_3 : 0 0 per_variant_size: 0 0 0 0 0 0 0 0 0 
Heartbeat_Variant_0_evicts 0 : 5774 1 : 109 2 : 122 3 : 0 
Heartbeat_Variant_1_evicts 0 : 115 1 : 0 2 : 294 3 : 0 
Heartbeat_Variant_2_evicts 0 : 119 1 : 300 2 : 0 3 : 0 
Heartbeat_Variant_3_evicts 0 : 0 1 : 0 2 : 0 3 : 0 
Heartbeat CPU 0 instructions: 80000003 cycles: 47639827 heartbeat IPC: 0.897853 cumulative IPC: 0.891325 (Simulation time: 0 hr 9 min 59 sec) 
Cycle: 50000000 FTQ IN: 8999953 FTQ occupancy: 14.8509 DECODE IN: 8999971 DECODE occupancy: 4.93507 ROB IN: 8999971 ROB occupancy: 53.7687 ROB OUT: 8999989
Heartbeat_Variant_0 : 1395 0.340576 per_variant_size: 0 1395 0 0 0 0 0 0 0 
Heartbeat_Variant_1 : 1308 0.319336 per_variant_size: 0 550 758 0 0 0 0 0 0 
Heartbeat_Variant_2 : 1366 0.333496 per_variant_size: 0 496 375 277 218 0 0 0 0 
Heartbeat_Variant_3 : 0 0 per_variant_size: 0 0 0 0 0 0 0 0 0 
Heartbeat_Variant_0_evicts 0 : 5666 1 : 88 2 : 100 3 : 0 
Heartbeat_Variant_1_evicts 0 : 97 1 : 0 2 : 275 3 : 0 
Heartbeat_Variant_2_evicts 0 : 92 1 : 280 2 : 0 3 : 0 
Heartbeat_Variant_3_evicts 0 : 0 1 : 0 2 : 0 3 : 0 
Heartbeat CPU 0 instructions: 90000000 cycles: 58850823 heartbeat IPC: 0.891981 cumulative IPC: 0.891489 (Simulation time: 0 hr 11 min 10 sec) 
Cycle: 60000000 FTQ IN: 8890306 FTQ occupancy: 14.9385 DECODE IN: 8890297 DECODE occupancy: 4.94659 ROB IN: 8890285 ROB occupancy: 56.1708 ROB OUT: 8890244
Heartbeat_Variant_0 : 1391 0.3396 per_variant_size: 0 1391 0 0 0 0 0 0 0 
Heartbeat_Variant_1 : 1310 0.319824 per_variant_size: 0 554 756 0 0 0 0 0 0 
Heartbeat_Variant_2 : 1369 0.334229 per_variant_size: 0 493 376 285 215 0 0 0 0 
Heartbeat_Variant_3 : 0 0 per_variant_size: 0 0 0 0 0 0 0 0 0 
Heartbeat_Variant_0_evicts 0 : 5603 1 : 34 2 : 25 3 : 0 
Heartbeat_Variant_1_evicts 0 : 36 1 : 0 2 : 216 3 : 0 
Heartbeat_Variant_2_evicts 0 : 27 1 : 217 2 : 0 3 : 0 
Heartbeat_Variant_3_evicts 0 : 0 1 : 0 2 : 0 3 : 0 
Heartbeat CPU 0 instructions: 100000002 cycles: 69899328 heartbeat IPC: 0.9051 cumulative IPC: 0.894179 (Simulation time: 0 hr 12 min 20 sec) 
Finished CPU 0 instructions: 50000001 cycles: 55917245 cumulative IPC: 0.894179 (Simulation time: 0 hr 12 min 20 sec) 

ChampSim completed all CPUs

Region of Interest Statistics

CPU 0 cumulative IPC: 0.894179 instructions: 50000001 cycles: 55917245
 Fetch stage stalled: 27.6317  Sim cycles: 55917245 fetch stall cycle: 15450903
 Empty decode stage: 68.6486  Sim cycles: 55917245 fetch stall cycle: 38386402
ITLB TOTAL     ACCESS:    7340332  HIT:    6847544  MISS:     492788  HIT %:    93.2866  MISS %:    6.71343   MPKI: 9.85576
ITLB LOAD TRANSLATION INSTRUCTION	ACCESS:    7340332  HIT:    6847544  MISS:     492788  HIT %:    93.2866  MISS %:    6.71343  MPKI: 9.85576

ITLB AVERAGE MISS LATENCY: 9.05139 cycles
ITLB RQ	ACCESS:    8458509	FORWARD:          0	MERGED:     921164	TO_CACHE:    7537345

DTLB TOTAL     ACCESS:   10274284  HIT:    9794145  MISS:     480139  HIT %:    95.3268  MISS %:    4.67321   MPKI: 9.60278
DTLB LOAD TRANSLATION DATA	ACCESS:   10274284  HIT:    9794145  MISS:     480139  HIT %:    95.3268  MISS %:    4.67321  MPKI: 9.60278

DTLB AVERAGE MISS LATENCY: 9.32437 cycles
DTLB RQ	ACCESS:   14390011	FORWARD:          0	MERGED:    4084970	TO_CACHE:   10305041

STLB TOTAL     ACCESS:    1234777  HIT:    1232571  MISS:       2206  HIT %:    99.8213  MISS %:   0.178656   MPKI: 0.04412
STLB LOAD TRANSLATION INSTRUCTION	ACCESS:     492788  HIT:     492510  MISS:        278  HIT %:    99.9436  MISS %:  0.0564137  MPKI: 0.00556
STLB LOAD TRANSLATION DATA	ACCESS:     480125  HIT:     478209  MISS:       1916  HIT %:    99.6009  MISS %:   0.399063  MPKI: 0.03832
STLB TRANSLATION FROM L1D PREFETCHER DATA	ACCESS:     261864  HIT:     261852  MISS:         12  HIT %:    99.9954  MISS %: 0.00458253  MPKI: 0.00024

STLB AVERAGE MISS LATENCY: 72.9451 cycles
STLB RQ	ACCESS:    1365461	FORWARD:          0	MERGED:     130653	TO_CACHE:    1234808

STLB Hit, L1D data hit: 0
STLB Hit, L2C data hit: 0
STLB Hit, LLC data hit: 0
STLB Hit, LLC data miss: 0
STLB STLB hints to L2: 0
L1D TOTAL     ACCESS:   14180886  HIT:   13035215  MISS:    1145671  HIT %:     91.921  MISS %:    8.07898   MPKI: 22.9134
L1D LOAD DATA	ACCESS:    7561422  HIT:    6804678  MISS:     756744  HIT %:     89.992  MISS %:     10.008  MPKI: 15.1349
L1D RFO DATA	ACCESS:    6283309  HIT:    5994405  MISS:     288904  HIT %:     95.402  MISS %:    4.59796  MPKI: 5.77808
L1D PREFETCH DATA	ACCESS:     336155  HIT:     236132  MISS:     100023  HIT %:     70.245  MISS %:     29.755  MPKI: 2.00046

L1D PREFETCH  REQUESTED:     785138  ISSUED:     785138  USEFUL:      43512  USELESS:      68516
L1D USEFUL LOAD PREFETCHES:      43512 PREFETCH ISSUED TO LOWER LEVEL:     112106  ACCURACY: 38.8133
 TIMELY PREFETCHES:      43512 LATE PREFETCHES: 12019 DROPPED PREFETCHES: 5
L1D AVERAGE MISS LATENCY: 443005 cycles
L1D RQ	ACCESS:   11380055	FORWARD:          0	MERGED:    3631226	TO_CACHE:    7592850
L1D WQ	ACCESS:    6919153	FORWARD:     156049	MERGED:     121992	TO_CACHE:    6797161
L1D PQ	ACCESS:     392604	FORWARD:          0	MERGED:          0	TO_CACHE:     392534

L1D UNIQUE REGIONS ACCESSED: 0
L1D REGIONS CONFLICTS: 0
L1D Cross Page Prefetch Requests: 5797
L1D Same Page Prefetch Requests: 786526
L1D ROI Sum of L1D PQ occupancy: 4973744
L1D PREFETCHES PUSHED FROM L2C: 0
L1I TOTAL     ACCESS:    7919703  HIT:    5167300  MISS:    2752403  HIT %:    65.2461  MISS %:    34.7539   MPKI: 55.0481
L1I LOAD INSTRUCTION	ACCESS:    7919703  HIT:    5167300  MISS:    2752403  HIT %:    65.2461  MISS %:    34.7539  MPKI: 55.0481

L1I AVERAGE MISS LATENCY: 17.2642 cycles
L1I RQ	ACCESS:   15515938	FORWARD:          0	MERGED:    7057429	TO_CACHE:    8458509

L1BTB TOTAL     ACCESS:    5678677  HIT:    2063642  MISS:    3615035  HIT %:    36.3402  MISS %:    63.6598   MPKI: 72.3007
L1BTB BRANCH_DIRECT_JUMP	ACCESS:     545551  HIT:     144052  MISS:     401499	AVERAGE STALL: 22.3087
L1BTB BRANCH_INDIRECT	ACCESS:     182030  HIT:      65634  MISS:     116396	AVERAGE STALL: 50.1652
L1BTB BRANCH_CONDITIONAL	ACCESS:    2723239  HIT:    1436036  MISS:    1287203	AVERAGE STALL: 29.9789
L1BTB BRANCH_DIRECT_CALL	ACCESS:     942385  HIT:     105805  MISS:     836580	AVERAGE STALL: 33.5012
L1BTB BRANCH_INDIRECT_CALL	ACCESS:     171544  HIT:      21617  MISS:     149927	AVERAGE STALL: 66.4651
L1BTB BRANCH_RETURN	ACCESS:    1113928  HIT:     290498  MISS:     823430	AVERAGE STALL: 32.5775
L1BTB BRANCH_OTHER ACCESS:          0  HIT:          0  MISS:          0	AVERAGE STALL: -nan
L1BTB TOTAL ROB OCCUPANCY AT BTB MISS: 0.680272

L2BTB TOTAL     ACCESS:    3589762  HIT:    3519393  MISS:      70369  HIT %:    98.0397  MISS %:    1.96027   MPKI: 1.40738
L2BTB BRANCH_DIRECT_JUMP	ACCESS:     397362  HIT:     393099  MISS:       4263	AVERAGE STALL: 22.3087
L2BTB BRANCH_INDIRECT	ACCESS:     106155  HIT:     103426  MISS:       2729	AVERAGE STALL: 50.1652
L2BTB BRANCH_CONDITIONAL	ACCESS:    1287203  HIT:    1280704  MISS:       6499	AVERAGE STALL: 29.9789
L2BTB BRANCH_DIRECT_CALL	ACCESS:     836580  HIT:     834037  MISS:       2543	AVERAGE STALL: 33.5012
L2BTB BRANCH_INDIRECT_CALL	ACCESS:     140436  HIT:     130103  MISS:      10333	AVERAGE STALL: 66.4651
L2BTB BRANCH_RETURN	ACCESS:     822026  HIT:     778024  MISS:      44002	AVERAGE STALL: 32.5775
L2BTB BRANCH_OTHER ACCESS:          0  HIT:          0  MISS:          0	AVERAGE STALL: -nan
L2BTB TOTAL ROB OCCUPANCY AT BTB MISS: 34.9473

L2C TOTAL     ACCESS:    4515358  HIT:    3980881  MISS:     534477  HIT %:    88.1631  MISS %:    11.8369   MPKI: 10.6895
L2C LOAD INSTRUCTION	ACCESS:    2752403  HIT:    2470462  MISS:     281941  HIT %:    89.7566  MISS %:    10.2434  MPKI: 5.63882
L2C LOAD TRANSLATION INSTRUCTION	ACCESS:        313  HIT:         98  MISS:        215  HIT %:    31.3099  MISS %:    68.6901  MPKI: 0.0043
L2C LOAD DATA	ACCESS:     744695  HIT:     657679  MISS:      87016  HIT %:    88.3152  MISS %:    11.6848  MPKI: 1.74032
L2C RFO DATA	ACCESS:     288827  HIT:     224972  MISS:      63855  HIT %:    77.8916  MISS %:    22.1084  MPKI: 1.2771
L2C PREFETCH DATA	ACCESS:     202413  HIT:     122973  MISS:      79440  HIT %:    60.7535  MISS %:    39.2465  MPKI: 1.5888
L2C WRITEBACK DATA	ACCESS:     524658  HIT:     504092  MISS:      20566  HIT %:    96.0801  MISS %:    3.91989  MPKI: 0.41132
L2C LOAD TRANSLATION DATA	ACCESS:       2026  HIT:        590  MISS:       1436  HIT %:    29.1214  MISS %:    70.8786  MPKI: 0.02872
L2C TRANSLATION FROM L1D PREFETCHER DATA	ACCESS:         23  HIT:         15  MISS:          8  HIT %:    65.2174  MISS %:    34.7826  MPKI: 0.00016

L2C PREFETCH  REQUESTED:      97522  ISSUED:      97522  USEFUL:       8826  USELESS:      71133
L2C USEFUL LOAD PREFETCHES:       8826 PREFETCH ISSUED TO LOWER LEVEL:      79887  ACCURACY: 11.0481
 TIMELY PREFETCHES:       8826 LATE PREFETCHES: 447 DROPPED PREFETCHES: 0
L2C AVERAGE MISS LATENCY: 37.0319 cycles
L2C RQ	ACCESS:    3788331	FORWARD:          0	MERGED:          0	TO_CACHE:    3788288
L2C WQ	ACCESS:     524658	FORWARD:         43	MERGED:          0	TO_CACHE:     524658
L2C PQ	ACCESS:     209628	FORWARD:          0	MERGED:       3612	TO_CACHE:     206016

L2C Dense regions hint from L2: 0
PSCL5 TOTAL     ACCESS:       4424  HIT:       2212  MISS:       2212  HIT %:         50  MISS %:         50   MPKI: 0.04424
PSCL5 LOAD TRANSLATION INSTRUCTION	ACCESS:       4380  HIT:       2190  MISS:       2190  HIT %:         50  MISS %:         50  MPKI: 0.0438
PSCL5 TRANSLATION FROM L1D PREFETCHER INSTRUCTION	ACCESS:         44  HIT:         22  MISS:         22  HIT %:         50  MISS %:         50  MPKI: 0.00044


PSCL4 TOTAL     ACCESS:       4220  HIT:       2106  MISS:       2114  HIT %:    49.9052  MISS %:    50.0948   MPKI: 0.04228
PSCL4 LOAD TRANSLATION INSTRUCTION	ACCESS:       2806  HIT:       2084  MISS:        722  HIT %:    74.2694  MISS %:    25.7306  MPKI: 0.01444
PSCL4 TRANSLATION FROM L1D PREFETCHER INSTRUCTION	ACCESS:         36  HIT:         22  MISS:         14  HIT %:    61.1111  MISS %:    38.8889  MPKI: 0.00028
PSCL4 LOAD TRANSLATION DATA	ACCESS:       1370  HIT:          0  MISS:       1370  HIT %:          0  MISS %:        100  MPKI: 0.0274
PSCL4 TRANSLATION FROM L1D PREFETCHER DATA	ACCESS:          8  HIT:          0  MISS:          8  HIT %:          0  MISS %:        100  MPKI: 0.00016


PSCL3 TOTAL     ACCESS:       4320  HIT:       2156  MISS:       2164  HIT %:    49.9074  MISS %:    50.0926   MPKI: 0.04328
PSCL3 LOAD TRANSLATION INSTRUCTION	ACCESS:       2856  HIT:       2134  MISS:        722  HIT %:    74.7199  MISS %:    25.2801  MPKI: 0.01444
PSCL3 TRANSLATION FROM L1D PREFETCHER INSTRUCTION	ACCESS:         36  HIT:         22  MISS:         14  HIT %:    61.1111  MISS %:    38.8889  MPKI: 0.00028
PSCL3 LOAD TRANSLATION DATA	ACCESS:       1420  HIT:          0  MISS:       1420  HIT %:          0  MISS %:        100  MPKI: 0.0284
PSCL3 TRANSLATION FROM L1D PREFETCHER DATA	ACCESS:          8  HIT:          0  MISS:          8  HIT %:          0  MISS %:        100  MPKI: 0.00016


PSCL2 TOTAL     ACCESS:       4285  HIT:       2073  MISS:       2212  HIT %:    48.3781  MISS %:    51.6219   MPKI: 0.04424
PSCL2 LOAD TRANSLATION INSTRUCTION	ACCESS:       2335  HIT:       2052  MISS:        283  HIT %:    87.8801  MISS %:    12.1199  MPKI: 0.00566
PSCL2 TRANSLATION FROM L1D PREFETCHER INSTRUCTION	ACCESS:         21  HIT:         21  MISS:          0  HIT %:        100  MISS %:          0  MPKI: 0
PSCL2 LOAD TRANSLATION DATA	ACCESS:       1908  HIT:          0  MISS:       1908  HIT %:          0  MISS %:        100  MPKI: 0.03816
PSCL2 TRANSLATION FROM L1D PREFETCHER DATA	ACCESS:         21  HIT:          0  MISS:         21  HIT %:          0  MISS %:        100  MPKI: 0.00042


LLC TOTAL     ACCESS:     603453  HIT:     575282  MISS:      28171  HIT %:    95.3317  MISS %:     4.6683   MPKI: 0.56342
LLC LOAD INSTRUCTION	ACCESS:     281941  HIT:     280692  MISS:       1249  HIT %:     99.557  MISS %:      0.443  MPKI: 0.02498
LLC LOAD TRANSLATION INSTRUCTION	ACCESS:        215  HIT:        184  MISS:         31  HIT %:    85.5814  MISS %:    14.4186  MPKI: 0.00062
LLC LOAD DATA	ACCESS:      86580  HIT:      83023  MISS:       3557  HIT %:    95.8917  MISS %:    4.10834  MPKI: 0.07114
LLC RFO DATA	ACCESS:      63840  HIT:      50538  MISS:      13302  HIT %:    79.1635  MISS %:    20.8365  MPKI: 0.26604
LLC PREFETCH DATA	ACCESS:      79887  HIT:      70323  MISS:       9564  HIT %:    88.0281  MISS %:    11.9719  MPKI: 0.19128
LLC WRITEBACK DATA	ACCESS:      89546  HIT:      89177  MISS:        369  HIT %:    99.5879  MISS %:   0.412079  MPKI: 0.00738
LLC LOAD TRANSLATION DATA	ACCESS:       1436  HIT:       1337  MISS:         99  HIT %:    93.1058  MISS %:    6.89415  MPKI: 0.00198
LLC TRANSLATION FROM L1D PREFETCHER DATA	ACCESS:          8  HIT:          8  MISS:          0  HIT %:        100  MISS %:          0  MPKI: 0

LLC AVERAGE MISS LATENCY: 154.201 cycles
LLC RQ	ACCESS:     434024	FORWARD:          0	MERGED:          0	TO_CACHE:     434020
LLC WQ	ACCESS:      89546	FORWARD:          4	MERGED:          0	TO_CACHE:      89546
LLC PQ	ACCESS:      79887	FORWARD:          0	MERGED:          0	TO_CACHE:      79887

LLC Dense regions hint to LLC: 0

RAW hits: 1231795
Loads Generated: 12611850
Loads sent to L1D: 11380055
Stores Generated: 6919135
Stores sent to L1D: 6919153
Major fault: 0 Minor fault: 2606
Allocated PAGES: 2606

stream: 
stream:times selected: 1222310
stream:pref_filled: 124606
stream:pref_useful: 28654
stream:pref_late: 8101
stream:misses: 8202
stream:misses_by_poll: 0

CS: 
CS:times selected: 188453
CS:pref_filled: 68812
CS:pref_useful: 45077
CS:pref_late: 9192
CS:misses: 21671
CS:misses_by_poll: 5

CPLX: 
CPLX:times selected: 1032768
CPLX:pref_filled: 24735
CPLX:pref_useful: 6871
CPLX:pref_late: 4044
CPLX:misses: 118430
CPLX:misses_by_poll: 8

NL_L1: 
NL:times selected: 12172
NL:pref_filled: 1358
NL:pref_useful: 154
NL:pref_late: 277
NL:misses: 1443
NL:misses_by_poll: 0

total selections: 2455703
total_filled: 100023
total_useful: 43512
total_late: 23351
total_polluted: 13
total_misses_after_warmup: 788173
conflicts: 5968199

test: 120283

DRAM Statistics
 CHANNEL 0
 RQ ROW_BUFFER_HIT:      10251  ROW_BUFFER_MISS:      17547
 DBUS_CONGESTED:          5
 WQ ROW_BUFFER_HIT:       1364  ROW_BUFFER_MISS:      11537  FULL:          0

 AVG_CONGESTED_CYCLE: 6

CPU 0 Branch Prediction Accuracy: 99.8128% MPKI: 0.3428 Average ROB Occupancy at Mispredict: 69.1595
Branch types
NOT_BRANCH: 40843353 81.6867%
BRANCH_DIRECT_JUMP: 545551 1.0911%
BRANCH_INDIRECT: 182030 0.36406%
BRANCH_CONDITIONAL: 6200951 12.4019%
BRANCH_DIRECT_CALL: 942385 1.88477%
BRANCH_INDIRECT_CALL: 171544 0.343088%
BRANCH_RETURN: 1113928 2.22786%
BRANCH_OTHER: 0 0%

DRAM PAGES: 1048576
Allocated PAGES: 2606
Average_ROB_Occupancy: 55.37
Average_Decode_Occupancy: 4.92704
Average_FTQ_Occupancy: 14.8753
Indirect max targets: 14 Average targets: 1.17296
Branch_type:  BRANCH_DIRECT_JUMP:  Count Percentage: 4.13147 5.06704 4.34756 7.19122 3.02757 6.33825 1.50324 68.3936 
Branch_type:  BRANCH_INDIRECT:  Count Percentage: 11.7616 3.38966 2.50461 9.68306 3.35121 2.81474 0.938063 65.557 
Branch_type:  BRANCH_CONDITIONAL:  Count Percentage: 29.5856 2.20045 1.52848 4.0241 1.94962 4.26653 0.495615 55.9496 
Branch_type:  BRANCH_DIRECT_CALL:  Count Percentage: 0.388192 1.78932 0.725927 3.43509 3.04408 2.61696 0.725874 87.2745 
Branch_type:  BRANCH_INDIRECT_CALL:  Count Percentage: 9.55009 0 2.99424 0.00087423 1.13767 1.71495 0.995166 83.607 
Branch_type:  BRANCH_RETURN:  Count Percentage: 10.4368 1.51259 1.1582 3.42735 4.46431 4.63437 0.589293 73.7771 
Branch_type:  BRANCH_DIRECT_JUMP:  Total Count: 45065 55270 47422 78440 33024 69136 16397 746020 
Branch_type:  BRANCH_INDIRECT:  Total Count: 42818 12340 9118 35251 12200 10247 3415 238659 
Branch_type:  BRANCH_CONDITIONAL:  Total Count: 3667653 272784 189481 498857 241689 528910 61440 6935916 
Branch_type:  BRANCH_DIRECT_CALL:  Total Count: 7309 33690 13668 64677 57315 49273 13667 1643234 
Branch_type:  BRANCH_INDIRECT_CALL:  Total Count: 32772 0 10275 3 3904 5885 3415 286905 
Branch_type:  BRANCH_RETURN:  Total Count: 232417 33684 25792 76324 99416 103203 13123 1642948 
Number of unique branch instructions: 11196
Upper 32 bits: 
aaaa
ffff
ffff0000
Unique upper 32 bits: 3
Unique upper 36 bits: 3
Unique upper 40 bits: 5
Unique upper 44 bits: 32
Unique upper 48 bits: 160
Variant_0 : 1391 0.3396
Variant_1 : 1310 0.319824
Variant_2 : 1369 0.334229
Variant_3 : 0 0
Offset_3 4624
Offset_4 274
Offset_5 506
Offset_6 569
Offset_7 655
Offset_8 597
Offset_9 563
Offset_10 460
Offset_11 366
Offset_12 325
Offset_13 241
Offset_14 260
Offset_15 213
Offset_16 260
Offset_17 176
Offset_18 152
Offset_19 270
Offset_20 146
Offset_21 241
Offset_22 425
Offset_23 241
Offset_24 373
Offset_25 114
Offset_47 90
decode_dispatch_called: 30258577 54.1131
Dispatch_width: 0 18161377 60.0206 32.479
Dispatch_width: 1 2302027 7.60785 4.11685
Dispatch_width: 2 1123009 3.71137 2.00834
Dispatch_width: 3 1088671 3.59789 1.94693
Dispatch_width: 4 1022482 3.37915 1.82856
Dispatch_width: 5 1270292 4.19812 2.27174
Dispatch_width: 6 5290719 17.485 9.46169
Empty_decode_cycles: 25658668 45.8869
ROB_full_cycles: 472450 0.844909
Starvation_cycles_per_kilo_instr: 501.541
Starvation_cycles_per_kilo_instr_3: 478.613
Starvation_cycles_per_kilo_instr_0: 433.476
Branch_type_1  (3,1)  (4,10)  (5,40)  (6,80)  (7,127)  (8,153)  (9,147)  (10,118)  (11,79)  (12,55)  (13,12)  (14,2)  (15,3)  (16,4)  (18,1)  (19,5)  (20,2)  (21,1)  (22,3)  (23,2)  (24,10)  (25,12) 
Branch_type_2  (3,1)  (4,1)  (5,1)  (8,4)  (9,4)  (10,1)  (12,1)  (13,1)  (14,1)  (16,3)  (17,2)  (20,2)  (21,2)  (23,5)  (24,1)  (47,40) 
Branch_type_3  (3,4622)  (4,263)  (5,461)  (6,471)  (7,494)  (8,366)  (9,305)  (10,183)  (11,146)  (12,62)  (13,11) 
Branch_type_4  (6,4)  (7,8)  (8,28)  (9,65)  (10,76)  (11,75)  (12,114)  (13,102)  (14,119)  (15,102)  (16,119)  (17,80)  (18,65)  (19,130)  (20,75)  (21,127)  (22,224)  (23,136)  (24,223)  (25,98) 
Branch_type_5  (8,4)  (9,1)  (10,4)  (11,5)  (12,3)  (13,14)  (14,16)  (15,12)  (16,22)  (17,13)  (18,23)  (19,14)  (20,11)  (21,13)  (22,45)  (23,26)  (24,38) 
Branch_type_6  (5,4)  (6,14)  (7,26)  (8,42)  (9,41)  (10,78)  (11,61)  (12,90)  (13,101)  (14,122)  (15,96)  (16,112)  (17,81)  (18,63)  (19,121)  (20,56)  (21,98)  (22,153)  (23,72)  (24,101)  (25,4)  (47,50) 
Unique trigger count: 
Variant_0_evicts_0 : 0
Variant_0_evicts_1 : 0
Variant_0_evicts_2 : 0
Variant_0_evicts_3 : 0
Variant_1_evicts_0 : 0
Variant_1_evicts_1 : 0
Variant_1_evicts_2 : 0
Variant_1_evicts_3 : 0
Variant_2_evicts_0 : 0
Variant_2_evicts_1 : 0
Variant_2_evicts_2 : 0
Variant_2_evicts_3 : 0
Variant_3_evicts_0 : 0
Variant_3_evicts_1 : 0
Variant_3_evicts_2 : 0
Variant_3_evicts_3 : 0
BTB PER SET UNIQUE ADDR: 14 12 9 15 11 14 8 13 15 15 12 15 18 10 13 10 12 14 13 13 14 14 17 16 14 16 16 13 15 14 17 18 20 11 12 13 15 16 11 11 12 12 15 14 10 10 16 9 13 12 15 11 10 15 12 8 15 12 14 16 12 19 17 17 15 12 13 11 20 14 15 13 19 13 11 9 9 12 13 16 15 12 14 16 15 15 14 10 14 20 10 10 13 14 9 18 15 14 18 17 25 20 14 16 14 13 10 15 12 9 12 16 15 13 16 11 12 16 12 15 17 13 8 10 14 14 7 13 23 14 14 12 13 12 12 19 11 19 12 15 9 17 13 19 16 16 16 14 7 16 12 21 15 11 10 18 11 16 15 16 14 16 16 14 17 19 9 8 18 11 17 16 13 16 14 12 12 9 13 17 10 15 12 14 18 17 5 16 17 13 14 19 11 17 15 13 13 11 11 17 16 18 12 13 12 11 16 20 13 15 11 13 11 10 16 16 16 11 9 19 10 20 13 12 13 12 11 11 10 18 11 6 18 22 14 21 18 17 11 10 12 16 15 16 12 12 14 12 13 10 24 16 14 15 20 21 10 11 12 11 12 6 6 15 16 8 13 11 15 10 11 11 11 7 14 11 13 14 15 13 11 14 11 12 15 11 12 18 20 15 16 14 16 12 8 17 16 17 17 12 12 18 12 14 16 16 14 13 18 12 15 15 11 24 10 12 24 11 13 15 10 17 15 11 13 11 14 14 12 9 15 13 9 14 11 17 12 14 9 19 11 16 11 14 13 11 13 16 12 14 10 16 15 12 16 16 8 19 11 10 15 17 10 11 15 16 11 12 16 15 13 6 16 15 15 16 16 18 14 17 16 17 10 13 18 17 14 20 8 13 19 12 11 18 10 10 16 12 17 15 11 12 8 16 18 17 14 16 17 14 16 10 12 15 12 14 16 18 21 18 10 16 19 12 11 15 16 12 11 14 17 15 11 15 19 14 18 14 15 15 18 11 10 17 19 11 10 12 21 15 15 18 12 12 18 21 19 18 12 14 11 11 11 15 17 14 13 12 12 13 15 18 12 15 9 18 12 20 8 17 19 18 15 16 13 13 16 12 16 15 12 15 13 12 12 9 22 17 14 12 12 21 16 18 10 11 7 21 19 13 16 17 14 8 17 17 12 21 10 6 12 13 8 12 14 14 21 8 14 23 19 18 15 16 8 19 13 12 17 16 18 11 11 13 15 19 14 12 12 14 18 24 13 18 11 15 14 12 19 17 17 14 13 17 16 16 10 11 13 19 18 18 19 19 13 17 12 15 12 14 10 14 7 17 15 12 16 14 18 16 11 17 14 10 17 13 10 15 16 13 14 10 16 8 11 15 21 16 12 14 20 10 13 12 4 13 12 24 17 20 21 16 10 11 9 16 16 16 13 19 11 16 20 13 12 12 17 20 8 20 11 17 19 17 15 15 16 18 22 11 10 13 10 15 17 15 18 13 14 14 18 12 20 17 11 16 11 15 14 11 13 13 17 16 20 8 18 19 18 15 15 20 8 15 17 14 12 17 17 15 15 16 13 11 8 14 9 16 12 19 10 11 15 21 8 14 12 11 15 6 10 14 11 16 12 13 20 9 7 12 14 20 15 16 14 9 21 10 12 11 16 14 14 10 14 18 13 17 18 12 9 11 15 13 21 18 15 10 11 8 11 12 14 15 13 12 14 13 11 9 13 11 10 11 15 16 8 13 12 15 11 18 11 8 14 11 17 15 17 21 10 18 19 15 15 14 11 16 11 12 6 8 12 16 18 18 11 14 20 14 22 15 20 13 21 14 15 12 12 11 17 16 19 19 11 16 19 19 15 13 15 20 8 13 15 15 12 14 13 16 17 19 13 12 10 12 11 13 6 13 11 17 12 11 12 18 14 16 12 11 13 10 13 10 14 18 16 13 15 15 12 13 10 11 21 12 13 9 17 9 11 19 16 15 20 8 15 13 12 13 18 12 12 18 12 15 22 10 14 18 14 11 14 16 14 17 21 16 13 10 14 17 11 20 13 17 13 11 16 14 11 13 7 13 16 14 24 12 15 13 16 11 11 15 14 12 9 22 10 11 17 21 22 15 14 23 14 14 18 13 8 18 14 14 11 12 9 12 11 14 13 14 11 16 17 14 15 11 19 13 12 16 13 15 24 14 18 16 7 16 13 14 12 12 17 13 16 15 15 22 13 13 15 13 14 23 16 12 22 12 18 13 15 16 18 12 12 14 22 14 18 21 10 12 15 16 11 17 11 15 15 16 15 11 13 18 10 9 9 11 12 17 11 10 
BTB PER SET COUNT: 342 16 1932 23 571 17 9 18 1486 24 15 24 18481 1480 22 11 563 19 27 21 26 28 718 17 21 23 24 28 22 22 28 62 41 17 23 208 19 28 17 21 19 14 21 1499 1479 117 22 14 17 14 24 14 17 18 20 11 21 22 23 27 15 723 28 23 25 14 19 16 41 34 18 1387 35 21 16 9 18 17 19 24 531 14 21 26 25 65 23 14 17 31 11 902 496 21 11 22 21 326 27 1125 43 344 18 127 1558 14 13 18 16 9 13 26 1170 23 23 344 13 35 1484 25 33 41 13 10 19 21 7 20 40 953 20 15 20 18 20 24 15 29 16 23 11 24 16 32 20 223 453 962 11 37 19 285 1481 17 10 29 1198 16 23 42 37 41 192 18 21 30 12 10 29 1647 21 23 19 30 19 16 32 11 451 32 15 170 95 23 250 93 6 24 37 978 26 25 12 35 19 15 13 229 24 409 26 34 18 14 18 16 22 185 15 28 15 24 24 15 24 318 17 17 2936 29 10 30 16 14 21 25 16 30 394 25 15 7 26 34 631 37 27 51 15 15 483 30 25 37 28 577 22 18 13 23 54 20 17 24 34 216 13 34 22 15 16 8 8 22 23 9 17 19 474 17 14 14 17 11 17 15 16 27 20 163 24 19 1000 452 20 15 14 37 32 20 25 21 18 17 15 36 308 36 22 20 18 23 511 26 24 21 187 20 81 28 21 21 19 31 1479 15 36 19 19 30 12 2778 30 12 16 29 19 26 24 10 24 23 16 25 13 29 17 652 12 24 12 613 17 181 525 16 14 20 13 24 1415 19 24 14 21 27 11 29 29 13 18 27 13 19 35 683 16 15 24 20 26 370 32 16 20 24 18 20 21 542 1375 22 10 17 32 20 24 29 11 668 49 14 16 404 14 13 20 20 681 23 12 14 10 27 30 28 22 33 25 20 31 14 22 1142 19 28 17 29 1021 26 16 19 39 17 20 17 69 17 20 201 21 27 17 22 340 24 35 24 20 25 37 16 39 29 125 14 22 22 29 21 871 48 13 24 40 35 26 35 12 26 12 14 13 813 32 86 1166 22 16 21 30 20 12 24 10 26 15 37 9 29 23 1463 16 28 17 17 495 21 22 19 18 19 483 16 24 12 1322 26 20 13 15 32 24 273 15 26 11 47 35 18 285 1171 1555 445 30 32 16 37 15 9 12 15 9 16 17 1011 24 450 28 43 31 84 240 24 13 25 293 34 29 413 22 12 14 17 19 30 21 32 22 1031 28 36 668 110 14 25 17 18 31 20 23 20 19 27 577 24 80 20 15 1042 28 27 35 24 2468 19 47 21 19 27 12 18 9 4491 23 19 19 16 37 23 18 30 19 10 21 19 2337 383 46 16 19 14 124 11 16 21 27 1373 13 18 29 14 911 21 4 28 498 39 29 415 44 21 15 533 9 21 20 20 13 32 15 24 482 21 12 19 24 254 8 574 15 21 31 31 470 32 834 31 683 12 13 21 15 20 51 509 25 19 509 21 25 13 390 25 2122 20 15 1011 475 18 16 22 29 31 598 8 28 25 30 23 16 32 9 41 1489 18 12 27 40 27 25 24 17 18 1104 21 13 2702 17 28 317 22 676 28 8 23 18 11 50 7 131 64 977 20 19 170 320 13 10 621 26 1082 20 116 2548 12 32 15 14 27 28 14402 23 15 20 1019 17 24 26 17 25 17 21 98 38 21 542 13 12 19 1487 16 111 1967 1175 21 32 55 22 11 22 14 10 11 1273 34 8 652 17 194 12 33 17 10 22 16 29 330 26 28 994 29 484 20 24 25 16 19 21 21 10 9 13 24 313 29 16 18 29 181 74 19 26 380 34 20 22 16 20 65 22 6481 32 30 66 497 144 1122 28 401 18 994 16 18 1072 20 19 32 17 25 24 34 21 16 11 1974 13 29 966 15 20 1005 25 13 496 24 500 31 21 14 23 357 15 20 1490 25 25 17 32 24 446 15 13 13 342 19 16 9 28 11 14 53 18 17 31 9 23 26 918 16 28 17 20 28 17 867 31 14 23 72 21 15 22 201 14 29 26 25 1474 13 22 30 14 302 16 28 16 15 26 19 22 499 8 17 27 18 37 467 24 18 31 179 974 22 17 14 10 35 11 26 21 39 1036 24 58 741 23 19 22 22 8 182 17 24 18 23 13 13 19 16 22 26 819 686 20 22 20 17 25 24 18 26 667 20 31 21 26 23 9 29 54 42 15 20 532 16 21 16 375 46 19 19 24 452 16 1453 29 495 41 18 24 460 19 24 25 22 14 1487 36 21 176 1050 11 18 24 22 14 30 18 712 1385 26 21 15 18 26 14 13 9 14 12 476 16 15 
To predecode: 0
Predecoding something: 0
Predecode request dropped: 0
sizeofblock_0 0
sizeofblock_1 40269
sizeofblock_2 35085
sizeofblock_3 46338
sizeofblock_4 22692
sizeofblock_5 0
sizeofblock_6 0
sizeofblock_7 0
sizeofblock_8 0
Variant_0 Correct: 1606415 Incorrect: 0 Accuracy: 1
Variant_1 Correct: 2080851 Incorrect: 0 Accuracy: 1
Variant_2 Correct: 3630019 Incorrect: 0 Accuracy: 1
Variant_3 Correct: 0 Incorrect: 0 Accuracy: -nan
