
*** ChampSim Multicore Out-of-Order Simulator ***

Warmup Instructions: 50000000
Simulation Instructions: 50000000
Number of CPUs: 1
LLC sets: 2048
LLC ways: 16
Off-chip DRAM Size: 4096 MB Channels: 1 Width: 64-bit Data Rate: 6400 MT/s
CPU 0 runs ./micro_traces/srv729.trace.gz
.gz
ITLB has LRU replacement policy
DTLB has LRU replacement policy
STLB has LRU replacement policy
FDIP Prefetcher at L1I
L1I has LRU replacement policy
L1D has LRU replacement policy
Initialize SRRIP state for L2C
Initialize DRRIP state for LLC
Heartbeat CPU 0 instructions: 10000002 cycles: 2798462 heartbeat IPC: 3.57339 cumulative IPC: 3.57339 (Simulation time: 0 hr 2 min 27 sec) 
Heartbeat CPU 0 instructions: 20000002 cycles: 5594752 heartbeat IPC: 3.57617 cumulative IPC: 3.57478 (Simulation time: 0 hr 4 min 34 sec) 
Heartbeat CPU 0 instructions: 30000003 cycles: 8392524 heartbeat IPC: 3.57427 cumulative IPC: 3.57461 (Simulation time: 0 hr 6 min 39 sec) 
Heartbeat CPU 0 instructions: 40000001 cycles: 11188591 heartbeat IPC: 3.57645 cumulative IPC: 3.57507 (Simulation time: 0 hr 8 min 26 sec) 
Heartbeat CPU 0 instructions: 50000000 cycles: 13984325 heartbeat IPC: 3.57688 cumulative IPC: 3.57543 (Simulation time: 0 hr 10 min 49 sec) 

Warmup complete CPU 0 instructions: 50000004 cycles: 13984326 (Simulation time: 0 hr 10 min 49 sec) 

Cycle: 20000000 FTQ IN: 58219268 FTQ occupancy: 17.8115 DECODE IN: 58219263 DECODE occupancy: 47.844 ROB IN: 58219231 ROB occupancy: 308.977 ROB OUT: 58218910
Heartbeat CPU 0 instructions: 60000003 cycles: 21287275 heartbeat IPC: 1.36931 cumulative IPC: 1.36931 (Simulation time: 0 hr 12 min 33 sec) 
Heartbeat CPU 0 instructions: 70000000 cycles: 28517973 heartbeat IPC: 1.38299 cumulative IPC: 1.37612 (Simulation time: 0 hr 14 min 27 sec) 
Cycle: 30000000 FTQ IN: 13831339 FTQ occupancy: 5.55464 DECODE IN: 13831344 DECODE occupancy: 19.0482 ROB IN: 13831376 ROB occupancy: 216.025 ROB OUT: 13831590
Heartbeat CPU 0 instructions: 80000002 cycles: 35812168 heartbeat IPC: 1.37095 cumulative IPC: 1.37439 (Simulation time: 0 hr 16 min 10 sec) 
Cycle: 40000000 FTQ IN: 13754317 FTQ occupancy: 5.70656 DECODE IN: 13754317 DECODE occupancy: 19.413 ROB IN: 13754317 ROB occupancy: 217.367 ROB OUT: 13754345
Heartbeat CPU 0 instructions: 90000002 cycles: 43021552 heartbeat IPC: 1.38708 cumulative IPC: 1.37754 (Simulation time: 0 hr 18 min 1 sec) 
Cycle: 50000000 FTQ IN: 13762706 FTQ occupancy: 5.72476 DECODE IN: 13762700 DECODE occupancy: 19.412 ROB IN: 13762688 ROB occupancy: 217.708 ROB OUT: 13762719
Heartbeat CPU 0 instructions: 100000000 cycles: 50310834 heartbeat IPC: 1.37188 cumulative IPC: 1.37641 (Simulation time: 0 hr 20 min 14 sec) 
Finished CPU 0 instructions: 50000000 cycles: 36326509 cumulative IPC: 1.37641 (Simulation time: 0 hr 20 min 14 sec) 

ChampSim completed all CPUs

Region of Interest Statistics

CPU 0 cumulative IPC: 1.37641 instructions: 50000000 cycles: 36326509
 Fetch stage stalled: 63.9404  Sim cycles: 36326509 fetch stall cycle: 23227309
 Empty decode stage: 48.5467  Sim cycles: 36326509 fetch stall cycle: 17635334
ITLB TOTAL     ACCESS:    5579998  HIT:    5087445  MISS:     492553  HIT %:    91.1729  MISS %:    8.82712   MPKI: 9.85106
ITLB LOAD TRANSLATION INSTRUCTION	ACCESS:    5464398  HIT:    4971845  MISS:     492553  HIT %:    90.9861  MISS %:    9.01386  MPKI: 9.85106
ITLB TRANSLATION FROM L1D PREFETCHER INSTRUCTION	ACCESS:     115600  HIT:     115600  MISS:          0  HIT %:        100  MISS %:          0  MPKI: 0

ITLB AVERAGE MISS LATENCY: 9.04163 cycles
ITLB RQ	ACCESS:    7424269	FORWARD:          0	MERGED:    1358132	TO_CACHE:    6066137

DTLB TOTAL     ACCESS:    8994546  HIT:    8525946  MISS:     468600  HIT %:    94.7902  MISS %:    5.20982   MPKI: 9.372
DTLB LOAD TRANSLATION DATA	ACCESS:    8994546  HIT:    8525946  MISS:     468600  HIT %:    94.7902  MISS %:    5.20982  MPKI: 9.372

DTLB AVERAGE MISS LATENCY: 9.31786 cycles
DTLB RQ	ACCESS:   13350814	FORWARD:          0	MERGED:    4320277	TO_CACHE:    9030537

STLB TOTAL     ACCESS:    1209811  HIT:    1207768  MISS:       2043  HIT %:    99.8311  MISS %:   0.168869   MPKI: 0.04086
STLB LOAD TRANSLATION INSTRUCTION	ACCESS:     492553  HIT:     492285  MISS:        268  HIT %:    99.9456  MISS %:  0.0544104  MPKI: 0.00536
STLB LOAD TRANSLATION DATA	ACCESS:     468494  HIT:     466741  MISS:       1753  HIT %:    99.6258  MISS %:   0.374178  MPKI: 0.03506
STLB TRANSLATION FROM L1D PREFETCHER DATA	ACCESS:     248764  HIT:     248742  MISS:         22  HIT %:    99.9912  MISS %: 0.00884372  MPKI: 0.00044

STLB AVERAGE MISS LATENCY: 70.0915 cycles
STLB RQ	ACCESS:    1331443	FORWARD:          0	MERGED:     121596	TO_CACHE:    1209847

STLB Hit, L1D data hit: 0
STLB Hit, L2C data hit: 0
STLB Hit, LLC data hit: 0
STLB Hit, LLC data miss: 0
STLB STLB hints to L2: 0
L1D TOTAL     ACCESS:   13101678  HIT:   11987731  MISS:    1113947  HIT %:    91.4977  MISS %:    8.50232   MPKI: 22.2789
L1D LOAD DATA	ACCESS:    6563384  HIT:    5829664  MISS:     733720  HIT %:     88.821  MISS %:     11.179  MPKI: 14.6744
L1D RFO DATA	ACCESS:    6209331  HIT:    5924054  MISS:     285277  HIT %:    95.4057  MISS %:    4.59433  MPKI: 5.70554
L1D PREFETCH DATA	ACCESS:     328963  HIT:     234013  MISS:      94950  HIT %:    71.1366  MISS %:    28.8634  MPKI: 1.899

L1D PREFETCH  REQUESTED:     741038  ISSUED:     741038  USEFUL:      34832  USELESS:      68356
L1D USEFUL LOAD PREFETCHES:      34832 PREFETCH ISSUED TO LOWER LEVEL:     103211  ACCURACY: 33.7483
 TIMELY PREFETCHES:      34832 LATE PREFETCHES: 8218 DROPPED PREFETCHES: 10
L1D AVERAGE MISS LATENCY: 238320 cycles
L1D RQ	ACCESS:   10713111	FORWARD:          0	MERGED:    3951787	TO_CACHE:    6597582
L1D WQ	ACCESS:    6945027	FORWARD:     164200	MERGED:     191795	TO_CACHE:    6753232
L1D PQ	ACCESS:     370748	FORWARD:          0	MERGED:          0	TO_CACHE:     370290

L1D UNIQUE REGIONS ACCESSED: 0
L1D REGIONS CONFLICTS: 0
L1D Cross Page Prefetch Requests: 6936
L1D Same Page Prefetch Requests: 752452
L1D ROI Sum of L1D PQ occupancy: 4711600
L1D PREFETCHES PUSHED FROM L2C: 0
L1I TOTAL     ACCESS:    6863818  HIT:    4107570  MISS:    2756248  HIT %:    59.8438  MISS %:    40.1562   MPKI: 55.125
L1I LOAD INSTRUCTION	ACCESS:    6351637  HIT:    3595389  MISS:    2756248  HIT %:    56.6057  MISS %:    43.3943  MPKI: 55.125
L1I PREFETCH INSTRUCTION	ACCESS:     512181  HIT:     512181  MISS:          0  HIT %:        100  MISS %:          0  MPKI: 0

L1I PREFETCH  REQUESTED:    1119515  ISSUED:    1119515  USEFUL:          0  USELESS:          0
L1I USEFUL LOAD PREFETCHES:          0 PREFETCH ISSUED TO LOWER LEVEL:          0  ACCURACY: -nan
 TIMELY PREFETCHES:          0 LATE PREFETCHES: 0 DROPPED PREFETCHES: 0
L1I AVERAGE MISS LATENCY: 17.4778 cycles
L1I RQ	ACCESS:    9437362	FORWARD:          0	MERGED:    2816794	TO_CACHE:    6620568
L1I PQ	ACCESS:    1119515	FORWARD:          0	MERGED:     315814	TO_CACHE:     803701

L1BTB TOTAL     ACCESS:    5668350  HIT:    2046555  MISS:    3621795  HIT %:     36.105  MISS %:     63.895   MPKI: 72.4359
L1BTB BRANCH_DIRECT_JUMP	ACCESS:     548488  HIT:     145191  MISS:     403297	AVERAGE STALL: 24.6988
L1BTB BRANCH_INDIRECT	ACCESS:     182826  HIT:      66013  MISS:     116813	AVERAGE STALL: 89.6584
L1BTB BRANCH_CONDITIONAL	ACCESS:    2706467  HIT:    1415981  MISS:    1290486	AVERAGE STALL: 22.7046
L1BTB BRANCH_DIRECT_CALL	ACCESS:     943392  HIT:     106501  MISS:     836891	AVERAGE STALL: 25.5232
L1BTB BRANCH_INDIRECT_CALL	ACCESS:     171893  HIT:      21770  MISS:     150123	AVERAGE STALL: 127.725
L1BTB BRANCH_RETURN	ACCESS:    1115284  HIT:     291099  MISS:     824185	AVERAGE STALL: 25.3783
L1BTB BRANCH_OTHER ACCESS:          0  HIT:          0  MISS:          0	AVERAGE STALL: -nan
L1BTB TOTAL ROB OCCUPANCY AT BTB MISS: 23.1904

L2BTB TOTAL     ACCESS:    3596378  HIT:    3163211  MISS:     433167  HIT %:    87.9555  MISS %:    12.0445   MPKI: 8.66334
L2BTB BRANCH_DIRECT_JUMP	ACCESS:     399115  HIT:     350427  MISS:      48688	AVERAGE STALL: 24.6988
L2BTB BRANCH_INDIRECT	ACCESS:     106535  HIT:     101384  MISS:       5151	AVERAGE STALL: 89.6584
L2BTB BRANCH_CONDITIONAL	ACCESS:    1290485  HIT:    1148173  MISS:     142312	AVERAGE STALL: 22.7046
L2BTB BRANCH_DIRECT_CALL	ACCESS:     836891  HIT:     720941  MISS:     115950	AVERAGE STALL: 25.5232
L2BTB BRANCH_INDIRECT_CALL	ACCESS:     140566  HIT:     119051  MISS:      21515	AVERAGE STALL: 127.725
L2BTB BRANCH_RETURN	ACCESS:     822786  HIT:     723235  MISS:      99551	AVERAGE STALL: 25.3783
L2BTB BRANCH_OTHER ACCESS:          0  HIT:          0  MISS:          0	AVERAGE STALL: -nan
L2BTB TOTAL ROB OCCUPANCY AT BTB MISS: 193.9

L2C TOTAL     ACCESS:    4478742  HIT:    3956618  MISS:     522124  HIT %:    88.3422  MISS %:    11.6578   MPKI: 10.4425
L2C LOAD INSTRUCTION	ACCESS:    2756248  HIT:    2477381  MISS:     278867  HIT %:    89.8824  MISS %:    10.1176  MPKI: 5.57734
L2C LOAD TRANSLATION INSTRUCTION	ACCESS:        303  HIT:         63  MISS:        240  HIT %:    20.7921  MISS %:    79.2079  MPKI: 0.0048
L2C LOAD DATA	ACCESS:     725484  HIT:     643523  MISS:      81961  HIT %:    88.7026  MISS %:    11.2974  MPKI: 1.63922
L2C RFO DATA	ACCESS:     285212  HIT:     223537  MISS:      61675  HIT %:    78.3757  MISS %:    21.6243  MPKI: 1.2335
L2C PREFETCH DATA	ACCESS:     188793  HIT:     108853  MISS:      79940  HIT %:    57.6573  MISS %:    42.3427  MPKI: 1.5988
L2C WRITEBACK DATA	ACCESS:     520827  HIT:     502731  MISS:      18096  HIT %:    96.5255  MISS %:    3.47447  MPKI: 0.36192
L2C LOAD TRANSLATION DATA	ACCESS:       1831  HIT:        497  MISS:       1334  HIT %:    27.1436  MISS %:    72.8564  MPKI: 0.02668
L2C TRANSLATION FROM L1D PREFETCHER DATA	ACCESS:         44  HIT:         33  MISS:         11  HIT %:         75  MISS %:         25  MPKI: 0.00022

L2C PREFETCH  REQUESTED:      94372  ISSUED:      94372  USEFUL:       8831  USELESS:      71615
L2C USEFUL LOAD PREFETCHES:       8831 PREFETCH ISSUED TO LOWER LEVEL:      80384  ACCURACY: 10.986
 TIMELY PREFETCHES:       8831 LATE PREFETCHES: 444 DROPPED PREFETCHES: 0
L2C AVERAGE MISS LATENCY: 38.0827 cycles
L2C RQ	ACCESS:    3769163	FORWARD:          0	MERGED:          0	TO_CACHE:    3769123
L2C WQ	ACCESS:     520827	FORWARD:         40	MERGED:          0	TO_CACHE:     520827
L2C PQ	ACCESS:     197583	FORWARD:          0	MERGED:       4097	TO_CACHE:     193486

L2C Dense regions hint from L2: 0
PSCL5 TOTAL     ACCESS:       4110  HIT:       2055  MISS:       2055  HIT %:         50  MISS %:         50   MPKI: 0.0411
PSCL5 LOAD TRANSLATION INSTRUCTION	ACCESS:       4022  HIT:       2011  MISS:       2011  HIT %:         50  MISS %:         50  MPKI: 0.04022
PSCL5 TRANSLATION FROM L1D PREFETCHER INSTRUCTION	ACCESS:         88  HIT:         44  MISS:         44  HIT %:         50  MISS %:         50  MPKI: 0.00088


PSCL4 TOTAL     ACCESS:       3907  HIT:       1948  MISS:       1959  HIT %:    49.8592  MISS %:    50.1408   MPKI: 0.03918
PSCL4 LOAD TRANSLATION INSTRUCTION	ACCESS:       2102  HIT:       1908  MISS:        194  HIT %:    90.7707  MISS %:    9.22931  MPKI: 0.00388
PSCL4 TRANSLATION FROM L1D PREFETCHER INSTRUCTION	ACCESS:         42  HIT:         40  MISS:          2  HIT %:    95.2381  MISS %:     4.7619  MPKI: 4e-05
PSCL4 LOAD TRANSLATION DATA	ACCESS:       1725  HIT:          0  MISS:       1725  HIT %:          0  MISS %:        100  MPKI: 0.0345
PSCL4 TRANSLATION FROM L1D PREFETCHER DATA	ACCESS:         38  HIT:          0  MISS:         38  HIT %:          0  MISS %:        100  MPKI: 0.00076


PSCL3 TOTAL     ACCESS:       3953  HIT:       1971  MISS:       1982  HIT %:    49.8609  MISS %:    50.1391   MPKI: 0.03964
PSCL3 LOAD TRANSLATION INSTRUCTION	ACCESS:       2125  HIT:       1931  MISS:        194  HIT %:    90.8706  MISS %:    9.12941  MPKI: 0.00388
PSCL3 TRANSLATION FROM L1D PREFETCHER INSTRUCTION	ACCESS:         42  HIT:         40  MISS:          2  HIT %:    95.2381  MISS %:     4.7619  MPKI: 4e-05
PSCL3 LOAD TRANSLATION DATA	ACCESS:       1748  HIT:          0  MISS:       1748  HIT %:          0  MISS %:        100  MPKI: 0.03496
PSCL3 TRANSLATION FROM L1D PREFETCHER DATA	ACCESS:         38  HIT:          0  MISS:         38  HIT %:          0  MISS %:        100  MPKI: 0.00076


PSCL2 TOTAL     ACCESS:       4008  HIT:       1953  MISS:       2055  HIT %:    48.7275  MISS %:    51.2725   MPKI: 0.0411
PSCL2 LOAD TRANSLATION INSTRUCTION	ACCESS:       2176  HIT:       1909  MISS:        267  HIT %:    87.7298  MISS %:    12.2702  MPKI: 0.00534
PSCL2 TRANSLATION FROM L1D PREFETCHER INSTRUCTION	ACCESS:         44  HIT:         44  MISS:          0  HIT %:        100  MISS %:          0  MPKI: 0
PSCL2 LOAD TRANSLATION DATA	ACCESS:       1744  HIT:          0  MISS:       1744  HIT %:          0  MISS %:        100  MPKI: 0.03488
PSCL2 TRANSLATION FROM L1D PREFETCHER DATA	ACCESS:         44  HIT:          0  MISS:         44  HIT %:          0  MISS %:        100  MPKI: 0.00088


LLC TOTAL     ACCESS:     593246  HIT:     563700  MISS:      29546  HIT %:    95.0196  MISS %:     4.9804   MPKI: 0.59092
LLC LOAD INSTRUCTION	ACCESS:     278867  HIT:     277968  MISS:        899  HIT %:    99.6776  MISS %:   0.322376  MPKI: 0.01798
LLC LOAD TRANSLATION INSTRUCTION	ACCESS:        240  HIT:        220  MISS:         20  HIT %:    91.6667  MISS %:    8.33333  MPKI: 0.0004
LLC LOAD DATA	ACCESS:      81540  HIT:      78197  MISS:       3343  HIT %:    95.9002  MISS %:    4.09983  MPKI: 0.06686
LLC RFO DATA	ACCESS:      61649  HIT:      46422  MISS:      15227  HIT %:    75.3005  MISS %:    24.6995  MPKI: 0.30454
LLC PREFETCH DATA	ACCESS:      80382  HIT:      70768  MISS:       9614  HIT %:    88.0396  MISS %:    11.9604  MPKI: 0.19228
LLC WRITEBACK DATA	ACCESS:      89223  HIT:      88834  MISS:        389  HIT %:     99.564  MISS %:   0.435986  MPKI: 0.00778
LLC LOAD TRANSLATION DATA	ACCESS:       1334  HIT:       1280  MISS:         54  HIT %:     95.952  MISS %:    4.04798  MPKI: 0.00108
LLC TRANSLATION FROM L1D PREFETCHER DATA	ACCESS:         11  HIT:         11  MISS:          0  HIT %:        100  MISS %:          0  MPKI: 0

LLC AVERAGE MISS LATENCY: 159.632 cycles
LLC RQ	ACCESS:     423645	FORWARD:          0	MERGED:          0	TO_CACHE:     423642
LLC WQ	ACCESS:      89224	FORWARD:          5	MERGED:          0	TO_CACHE:      89224
LLC PQ	ACCESS:      80384	FORWARD:          0	MERGED:          0	TO_CACHE:      80382

LLC Dense regions hint to LLC: 0

RAW hits: 1924016
Loads Generated: 12637127
Loads sent to L1D: 10713111
Stores Generated: 6945028
Stores sent to L1D: 6945027
Major fault: 0 Minor fault: 2673
Allocated PAGES: 2673

stream: 
stream:times selected: 1189128
stream:pref_filled: 120968
stream:pref_useful: 24564
stream:pref_late: 6667
stream:misses: 7841
stream:misses_by_poll: 0

CS: 
CS:times selected: 179831
CS:pref_filled: 60699
CS:pref_useful: 36807
CS:pref_late: 7235
CS:misses: 16953
CS:misses_by_poll: 9

CPLX: 
CPLX:times selected: 1008162
CPLX:pref_filled: 19450
CPLX:pref_useful: 4572
CPLX:pref_late: 3047
CPLX:misses: 92807
CPLX:misses_by_poll: 0

NL_L1: 
NL:times selected: 20782
NL:pref_filled: 810
NL:pref_useful: 385
NL:pref_late: 255
NL:misses: 1732
NL:misses_by_poll: 0

total selections: 2397903
total_filled: 94950
total_useful: 34832
total_late: 18713
total_polluted: 9
total_misses_after_warmup: 767919
conflicts: 5521940

test: 117439

DRAM Statistics
 CHANNEL 0
 RQ ROW_BUFFER_HIT:      11073  ROW_BUFFER_MISS:      18073
 DBUS_CONGESTED:         11
 WQ ROW_BUFFER_HIT:       1456  ROW_BUFFER_MISS:      12855  FULL:          0

 AVG_CONGESTED_CYCLE: 5

CPU 0 Branch Prediction Accuracy: 99.8276% MPKI: 0.31528 Average ROB Occupancy at Mispredict: 187.06
Branch types
NOT_BRANCH: 40857659 81.7153%
BRANCH_DIRECT_JUMP: 548488 1.09698%
BRANCH_INDIRECT: 182826 0.365652%
BRANCH_CONDITIONAL: 6180103 12.3602%
BRANCH_DIRECT_CALL: 943392 1.88678%
BRANCH_INDIRECT_CALL: 171893 0.343786%
BRANCH_RETURN: 1115284 2.23057%
BRANCH_OTHER: 0 0%

DRAM PAGES: 1048576
Allocated PAGES: 2673
Average_ROB_Occupancy: 218.194
Average_Decode_Occupancy: 19.3077
Average_FTQ_Occupancy: 5.675
Indirect max targets: 14 Average targets: 1.17647
Branch_type:  BRANCH_DIRECT_JUMP:  Count Percentage: 2.73025 6.501 4.2337 4.85485 2.93806 11.5639 1.60184 65.5764 
Branch_type:  BRANCH_INDIRECT:  Count Percentage: 11.7401 3.4699 2.57193 13.4135 1.33369 8.0462 18.5563 40.8683 
Branch_type:  BRANCH_CONDITIONAL:  Count Percentage: 21.1061 3.42206 1.53612 4.45213 5.01658 6.534 3.49882 54.4342 
Branch_type:  BRANCH_DIRECT_CALL:  Count Percentage: 0.887927 1.48016 1.16017 3.30498 2.87486 4.94683 4.27943 81.0656 
Branch_type:  BRANCH_INDIRECT_CALL:  Count Percentage: 9.5238 0 2.98499 10.6807 1.19656 1.7085 5.12055 68.7849 
Branch_type:  BRANCH_RETURN:  Count Percentage: 5.2271 1.46269 1.49181 7.32453 5.74267 7.14973 4.49095 67.1105 
Branch_type:  BRANCH_DIRECT_JUMP:  Total Count: 29942 71295 46430 53242 32221 126819 17567 719161 
Branch_type:  BRANCH_INDIRECT:  Total Count: 42922 12686 9403 49040 4876 29417 67842 149415 
Branch_type:  BRANCH_CONDITIONAL:  Total Count: 2608278 422897 189833 550192 619947 807469 432383 6726964 
Branch_type:  BRANCH_DIRECT_CALL:  Total Count: 16738 27902 21870 62301 54193 93251 80670 1528139 
Branch_type:  BRANCH_INDIRECT_CALL:  Total Count: 32649 0 10233 36615 4102 5857 17554 235805 
Branch_type:  BRANCH_RETURN:  Total Count: 116500 32600 33249 163247 127991 159351 100093 1495740 
Number of unique branch instructions: 10971
Upper 32 bits: 
aaaa
ffff
ffff0000
Unique upper 32 bits: 3
Unique upper 36 bits: 3
Unique upper 40 bits: 5
Unique upper 44 bits: 32
Unique upper 48 bits: 160
Offset_3 4540
Offset_4 284
Offset_5 492
Offset_6 548
Offset_7 649
Offset_8 599
Offset_9 537
Offset_10 425
Offset_11 350
Offset_12 315
Offset_13 243
Offset_14 247
Offset_15 194
Offset_16 230
Offset_17 175
Offset_18 144
Offset_19 262
Offset_20 143
Offset_21 262
Offset_22 408
Offset_23 247
Offset_24 366
Offset_25 117
Offset_47 100
Offset_64 5
decode_dispatch_called: 22935008 63.1357
Dispatch_width: 0 11441184 49.8852 31.4954
Dispatch_width: 1 897468 3.91309 2.47056
Dispatch_width: 2 1031970 4.49954 2.84082
Dispatch_width: 3 684314 2.98371 1.88379
Dispatch_width: 4 3942496 17.1899 10.8529
Dispatch_width: 5 409952 1.78745 1.12852
Dispatch_width: 6 4527624 19.7411 12.4637
Empty_decode_cycles: 13391501 36.8643
ROB_full_cycles: 6031938 16.6048
Starvation_cycles_per_kilo_instr: 257.669
Starvation_cycles_per_kilo_instr_3: 214.145
Starvation_cycles_per_kilo_instr_0: 188.007
Branch_type_1  (3,1)  (4,10)  (5,41)  (6,73)  (7,125)  (8,159)  (9,142)  (10,111)  (11,78)  (12,47)  (13,11)  (14,2)  (15,3)  (16,4)  (18,1)  (19,5)  (20,2)  (21,1)  (22,3)  (23,2)  (24,10)  (25,12) 
Branch_type_2  (3,1)  (4,1)  (5,1)  (8,4)  (9,4)  (10,1)  (12,1)  (13,1)  (14,1)  (16,3)  (17,2)  (20,2)  (21,2)  (23,5)  (24,1)  (47,46) 
Branch_type_3  (3,4538)  (4,273)  (5,446)  (6,458)  (7,492)  (8,366)  (9,294)  (10,171)  (11,133)  (12,54)  (13,10)  (21,1)  (64,4) 
Branch_type_4  (6,3)  (7,8)  (8,29)  (9,57)  (10,68)  (11,72)  (12,118)  (13,104)  (14,111)  (15,92)  (16,101)  (17,83)  (18,61)  (19,127)  (20,72)  (21,141)  (22,214)  (23,139)  (24,213)  (25,101)  (64,1) 
Branch_type_5  (8,3)  (9,1)  (10,4)  (11,5)  (12,3)  (13,14)  (14,16)  (15,11)  (16,22)  (17,11)  (18,23)  (19,15)  (20,12)  (21,13)  (22,43)  (23,26)  (24,42) 
Branch_type_6  (5,4)  (6,14)  (7,24)  (8,38)  (9,39)  (10,70)  (11,62)  (12,92)  (13,103)  (14,117)  (15,88)  (16,100)  (17,79)  (18,59)  (19,115)  (20,55)  (21,104)  (22,148)  (23,75)  (24,100)  (25,4)  (47,54) 
aaaaab1fc620: 2ac9e77e 2aca717c 2aca8eff 2acaf6bc 2acaf9aa 2acaf9f1 2acb1abc 2acb1b7f 2acd4e22 2acdb712 2acf5f9e 2ad0ef44 2ad3f15c 2ad414e6 2ad60e42 2ad8609c 2ad99830 2ada35cc 2ada4676 2ada6612 2adf183e 2adf30e5 2adf5602 2adf785c 2ae11572 2aeb2dcf 2aee101b 2aee1ae1 2aee9456 2b156a8c 2b156b61 2b156bea 2b167f35 2b177656 2b17feec 2b1a3e5a 
aaaaab1fc640: 2ac9ec07 2aca656e 2aca801d 2acaea11 2acaee73 2acb13ee 2acb1470 2acd462b 2ad0ef5d 2ad3f3fe 2ad86e9b 2ada1641 2ada4115 2ada6638 2adf30d4 2ae12e57 2aee1033 2b1693ab 2b16948c 2b169491 2b17d915 2b17fa85 2b17fccd 
aaaaab1fc740: 2aca1fb0 2aca45b3 2aca5aa1 2aca5c69 2aca66f9 2aca9426 2acaeecb 2acf3d2d 2acf3d64 2acf6089 2ad017ea 2ad5e7ef 2ad61064 2ad87373 2ad9bf84 2ad9c093 2ae9b606 2aea9ffa 2aee99f5 2aee9a2c 2aeece4b 
aaaaab1fcb00: 2acf2d72 2acf3734 2acf604c 2acfa5b7 2ad397b5 2ad3b800 2ae8af7d 2ae8aff0 2ae9aaba 2aea9fc6 2aeaa358 2aee910b 2aee91cf 2aee928e 2aee92e4 2aee99de 2af6fe87 2af70dfe 2b16850c 2b16c4a2 2b1765f4 2b178094 2b17d925 2b17db06 2b17ec8f 
aaaaab1fcb10: 2acf2d95 2acf3758 2acf6052 2acfa5f4 2ad397c3 2ad3b81c 2ae8af88 2ae8affe 2ae9aacf 2aeaa017 2aeaa36d 2aee9114 2aee91d8 2aee934d 2aee9353 2aee9a14 2af6fe8c 2af70e22 2b168526 2b16c542 2b176609 2b1780a3 2b17d95d 2b17db44 2b17ecac 
aaaaac68f310: 2ac9ec8c 2ac9fb44 2ac9fbd2 2aca59ab 2acac04c 2acaf6e0 2acaf6ec 2acaf6f9 2acaf700 2acaf708 2acf2d90 2ad3cfbd 2ad3cfc4 2ad3d000 2ad3f35f 2ad4955d 2ad49571 2ad4f3f2 2ad4f400 2ad5f240 2ad5f37c 2ad5f86a 2ad5f86f 2ad5f880 2ad5fc0d 2ad5fc14 2ad5fc21 2ad5fe1b 2ad873bb 2ad873e3 2ad8a6b2 2ad9086e 2ad93096 2ad9bbb2 2ada152c 2ada1554 2ada3332 2ada5522 2adf3130 2adf313c 2adf3a3f 2adf3bd9 2adf5788 2adf7a8d 2ae07f6b 2ae0857a 2ae0857e 2ae08630 2ae08634 2ae08637 2ae08642 2ae0866f 2ae086e4 2ae086ec 2ae08717 2ae0871b 2aee0170 2aee1d38 2aee75f4 2aee7662 2aee85ca 2aee85e4 2aee8eef 2aee9a0a 2af70b84 2af74e8f 2b17d843 
aaaaac690ef0: 2aca598b 2acb111b 2acb175f 2acb1772 2acbfaf4 2acbfb00 2acf374f 2acf6d43 2acfa5c8 2ad3baf1 2ad3d4ac 2ad3d4b8 2ad3f1cf 2ad486b2 2ad5a59b 2ad5fc64 2ad5fcf9 2ad6121c 2ad906e9 2ad907bf 2ad9bada 2ada16ce 2ada1ad5 2ada43df 2ada64c0 2ada72ee 2adeb71a 2adf3bcb 2adf7a38 2adf7c6a 2adf8872 2adf8880 2adf9959 2adf9abe 2ae07f78 2ae08503 2ae08754 2ae12e80 2aea3bea 2aecb509 2aee00b0 2aee2bdd 2aee5467 2aee5601 2aee8f20 2af703fd 2af7048b 2af74e74 2dfba627 
Unique trigger count: 
1 10453
2 567
3 95
4 32
5 16
6 12
7 8
8 2
9 3
10 2
11 1
12 1
13 1
14 3
16 2
19 1
21 1
23 1
25 2
36 1
49 1
67 1
BTB PER SET UNIQUE ADDR: 3 4 4 3 2 2 3 2 4 0 3 1 5 3 2 3 3 2 3 5 3 4 2 4 4 5 1 4 3 2 6 6 4 3 6 2 1 6 6 3 4 4 4 7 6 4 4 5 6 4 4 3 3 2 2 5 4 3 3 3 1 5 2 3 1 5 6 4 3 5 5 1 1 4 2 3 3 6 1 4 2 3 1 4 3 4 2 5 3 3 6 5 3 5 2 0 3 4 2 4 4 4 3 3 3 2 1 3 3 2 2 2 3 6 2 6 2 4 4 1 5 5 2 0 1 2 3 2 7 4 6 2 4 2 6 5 2 2 3 3 5 4 4 2 3 5 3 5 5 5 3 9 3 5 4 1 4 4 4 3 5 6 5 4 6 5 2 2 9 3 3 3 5 3 1 2 4 4 6 1 3 4 7 4 7 6 4 1 2 3 5 3 3 4 4 5 4 3 3 6 3 2 4 2 3 3 2 5 3 1 2 4 5 4 4 2 4 5 4 0 1 3 2 4 3 2 4 3 0 4 8 4 3 4 4 4 6 2 2 3 1 0 6 4 11 8 1 3 4 4 2 2 1 4 2 7 3 5 4 3 4 4 4 2 3 7 3 2 4 2 3 2 2 4 4 2 1 2 3 3 4 3 6 2 6 5 3 3 1 1 0 3 1 6 2 1 5 3 2 2 3 3 2 2 3 2 4 2 8 5 4 1 3 2 5 2 7 6 2 4 4 7 3 4 2 4 3 7 2 2 5 0 2 5 5 2 3 3 6 0 3 0 1 5 6 3 1 3 4 6 4 7 6 3 5 3 2 0 5 1 3 5 2 4 7 5 1 1 2 1 3 2 2 5 4 4 3 5 4 4 5 3 3 5 3 3 5 2 6 1 5 4 4 2 3 1 5 0 1 3 4 2 5 2 2 4 4 3 1 1 2 3 6 4 2 3 6 3 1 3 1 1 4 4 4 6 2 0 2 5 2 2 9 4 5 5 3 3 4 1 3 5 5 4 5 6 2 4 3 2 4 3 1 4 5 1 1 4 7 3 3 4 4 6 1 3 5 2 3 4 0 4 5 2 2 1 4 5 2 1 2 2 3 2 1 4 3 1 6 1 5 2 4 5 0 6 4 4 3 1 5 2 1 1 1 2 2 2 2 3 3 2 5 8 2 1 2 5 4 6 4 5 4 3 6 6 1 7 6 4 5 3 4 6 3 4 2 2 4 1 2 5 6 3 6 2 8 3 7 9 4 6 3 6 1 3 3 1 4 4 7 3 5 3 2 1 4 3 3 7 4 2 3 8 3 2 3 4 1 5 5 2 2 0 1 0 0 9 5 3 6 8 2 2 3 3 6 2 4 2 6 2 6 7 2 4 3 4 3 2 5 3 3 2 2 3 2 0 3 1 5 3 8 2 2 4 3 5 2 3 5 4 3 3 5 5 3 5 3 3 8 1 4 4 1 0 4 4 3 4 3 2 5 2 3 0 5 3 2 3 6 2 6 4 6 4 5 3 2 4 5 5 4 3 6 6 3 3 3 3 3 2 6 3 5 4 5 3 4 3 1 5 2 3 3 4 6 4 5 6 0 6 0 3 3 3 3 1 3 1 3 3 3 1 2 1 8 2 0 3 2 0 1 1 1 3 1 4 2 4 6 4 2 1 3 4 8 3 2 2 2 3 2 4 2 3 4 2 3 2 0 2 1 4 2 2 3 6 4 1 3 3 1 5 4 4 8 2 2 2 4 3 0 3 3 4 5 2 1 3 4 4 0 3 8 6 3 4 0 3 2 4 1 1 5 7 7 2 2 3 5 3 5 3 4 3 3 5 1 2 1 3 4 1 5 3 1 2 0 4 5 2 5 2 2 2 4 2 4 4 3 1 3 2 5 2 2 2 5 3 2 2 3 4 2 4 7 5 5 2 6 3 5 4 6 5 3 2 4 4 2 6 2 1 9 3 3 4 5 3 1 3 3 6 4 0 2 3 5 4 3 6 5 5 6 3 2 3 3 4 5 2 4 4 3 2 7 4 3 2 5 2 2 4 5 5 5 5 3 5 5 4 1 3 1 5 0 2 6 2 6 5 5 3 4 1 3 2 5 8 5 4 9 7 6 4 6 6 2 6 4 2 1 4 4 6 5 5 4 4 7 2 5 4 2 4 6 6 4 2 3 2 4 5 2 6 9 5 6 3 3 3 0 5 6 1 7 5 1 3 7 5 3 5 2 1 2 6 4 2 5 5 2 7 4 5 4 5 3 5 3 3 4 2 3 5 4 3 3 4 5 3 4 4 6 2 5 3 2 5 5 2 10 5 3 3 3 3 2 3 5 8 6 2 3 2 3 3 4 1 3 2 4 4 2 4 6 5 4 6 0 3 3 4 5 4 2 1 3 2 3 2 2 1 4 1 3 3 3 5 2 8 5 3 2 1 10 1 2 4 1 2 6 6 3 8 3 5 5 6 3 5 3 2 1 1 5 1 4 4 3 9 4 1 7 5 7 2 4 4 5 4 5 7 4 4 6 1 4 5 7 4 3 3 4 3 6 6 3 6 7 6 4 3 5 5 1 2 5 5 1 3 2 1 3 5 2 3 5 2 2 5 4 2 5 1 7 3 3 3 3 1 3 5 3 4 3 4 2 6 2 3 7 3 4 5 3 5 2 8 3 5 3 8 6 2 6 1 5 2 1 2 5 4 3 1 3 4 3 1 2 3 4 4 3 3 3 4 2 5 2 5 5 6 0 5 3 3 2 6 8 1 8 0 1 4 5 2 5 1 3 3 4 1 1 2 4 5 3 4 1 4 5 6 5 1 4 3 3 6 10 4 3 7 6 5 1 1 3 5 6 3 2 2 4 3 4 5 5 3 1 4 2 3 6 8 5 4 3 6 1 2 6 3 4 1 3 2 6 8 3 3 3 3 4 5 2 5 6 7 5 2 1 5 4 3 4 3 4 4 4 4 8 3 6 4 3 5 5 4 1 7 4 4 3 3 3 2 3 3 2 2 5 4 3 3 5 2 1 3 3 8 5 2 3 4 2 4 3 3 4 3 2 1 4 2 4 2 5 3 4 4 2 1 2 6 1 5 2 4 2 4 7 2 2 5 4 4 3 3 5 3 3 4 5 5 4 4 5 3 3 3 2 3 5 2 4 1 4 0 8 3 3 6 4 4 5 7 3 2 3 3 2 3 5 1 4 2 4 2 1 6 1 6 3 3 3 4 3 2 5 3 4 2 4 1 6 3 0 3 3 1 1 4 1 5 3 3 7 3 2 2 2 3 2 2 7 2 3 6 3 3 3 3 2 2 5 0 2 3 4 3 3 1 2 1 4 1 4 3 4 4 2 3 2 1 2 5 4 2 6 1 3 4 2 2 5 5 3 2 7 0 1 2 3 1 1 2 3 3 7 3 1 1 7 2 1 4 1 6 1 4 2 3 6 2 3 2 1 3 3 1 2 4 4 2 3 3 1 3 0 6 3 4 3 0 4 3 5 5 5 3 3 4 3 3 2 3 2 3 5 0 2 3 3 3 4 1 3 3 3 9 7 2 3 2 4 2 1 3 6 2 3 0 3 2 4 3 3 5 6 5 8 0 5 1 8 4 5 5 3 8 2 4 9 3 0 6 4 3 3 5 3 3 2 2 2 5 2 2 3 4 2 4 6 3 5 4 6 2 2 5 5 3 4 5 5 3 6 3 5 6 2 6 4 3 3 1 3 6 5 3 2 3 3 3 4 4 2 2 3 2 3 1 3 8 1 2 2 3 3 3 6 3 5 2 5 2 3 2 5 2 4 5 7 1 1 7 3 4 3 3 4 8 2 3 2 4 6 3 5 3 5 3 5 10 4 4 3 5 2 5 4 3 2 3 0 2 2 4 4 4 2 5 3 5 4 2 4 9 1 3 2 4 4 4 3 4 3 6 3 4 1 5 3 3 5 3 3 0 2 6 0 8 2 6 6 1 4 3 2 0 4 2 3 5 3 6 2 3 2 2 3 5 7 1 3 3 0 3 3 4 5 3 3 3 5 2 3 2 6 4 4 1 5 3 0 3 5 1 1 8 2 1 5 2 4 3 3 3 6 3 4 6 1 6 4 6 2 6 5 3 3 2 7 1 4 1 3 3 4 4 4 4 3 1 2 5 0 3 0 3 5 6 2 2 6 2 3 3 4 1 2 2 5 2 4 2 5 3 2 3 1 2 3 3 5 3 3 5 2 2 2 4 2 5 2 6 1 6 4 3 4 2 5 1 2 3 6 4 3 4 6 6 3 3 3 4 4 2 0 3 3 0 2 1 2 2 4 2 5 2 2 3 4 2 3 4 4 2 4 8 3 2 7 8 4 2 4 2 3 5 3 4 5 3 4 1 2 4 6 4 2 4 4 2 5 3 5 7 4 4 1 5 1 0 2 3 0 5 4 6 1 3 4 7 6 0 2 2 4 2 5 2 3 3 8 3 2 2 3 7 2 7 3 5 7 0 1 3 1 4 4 2 0 2 3 4 6 4 1 0 3 4 6 1 2 1 3 6 2 2 5 5 3 3 5 4 1 6 2 6 2 1 2 3 2 3 6 2 3 4 3 3 4 1 5 3 5 3 4 2 1 3 6 4 4 0 
BTB PER SET COUNT: 3 4 4 3 2 2 3 2 4 0 3 1 2475 3 2 4 3 2 3 1488 3 5 2 4 4 18 1 4 1464 2 2941 26 4 3 10 2 2922 765 774 4 4 6 7 2244 5274 4 4 6 1552 4 4 3 3 2 2 5 5 3 3 3 1 6 2 3 1 367 443 4 3 1026 760 1 1 4 2 3 499 772 1 4 2 3 1 4 3 5 2 14 3 3 2523 495 3 3790 3 0 3 4 2 5 4 4 6 3 3 2 1 3 3 5 2 2 3 1991 2 1877 3 4 4 1 6 6 2 0 3 2 3 2 2373 6 1995 3 4 2 968 5 2 2 3 3 650 6 4 2 3 7 3 4256 8 7 3 6717 3 2462 4 1 4 4 4 3 5 1012 6 4 11 1941 2 2 8170 3 3 3 7 3 1 2 4 4 981 1 3 4 6771 4 11 11 4 1 2 3 34 3 3 4 4 11 4 3 4 8 4 2 4 2 5 3 2 1489 3 1 3 5 15 4 4 2 4 287 4 0 1 3 2 4 3 2 4 25 0 4 5849 4 3 4 4 4 8 2 2 3 1 0 2470 4 9152 2016 1 3 4 4 2 2 1 4 2 2092 3 11 4 3 4 4 4 2 1464 1496 3 2 4 2 3 2 2 4 4 2 1 2 3 3 4 3 1974 2 767 2475 3 4 1 1 0 3 1 18 2 1 12 3 2 2 3 3 2 2 3 2 4 2 1977 1015 4 1 3 2 1011 2 2477 1277 2 4 4 2264 3 4 2 4 6 226 2 2 1007 0 2 17 1497 2 993 3 29 0 3 0 1 997 997 3 1 3 5 8 4 113 10 3 44 4 2 0 7 1 3 50 3 5 2680 717 1 1 2 1 3 2 3 6 5 4 3 5 4 4 28 3 3 674 5 3 12 2 10 1 20 4 4 2 3 1 3311 0 1 4 4 2 5 2 2 5 1465 4 1 967 2 3 14 4 968 3 168 3 1 92 1 1 4 4 4 9 4 0 2 7 138 2 2738 4 1009 2404 3 3 4 1 3 6 1268 4 7 1034 2 4 3 2 4 3 1 4 1923 1 1 4 1480 4 3 4 4 1947 1 3 6 2 3 4 0 4 35 496 2 1 4 1025 2 1 2 2 3 496 1 5 3 1 35 1 8 2 4 7 0 30 16 5 3 1 1924 22 1 1 1 3 3 2 2 3 3 2 7 45 5 1 2 2465 4 506 4 1467 4 3 30 1488 1 1933 4794 4 6 3 4 24 3 520 3 2 9 1 2 1486 232 5 19 2 82 4 985 9181 5 1460 5 2938 2 3 5 1 4 5 6724 3 1928 3 2 1 4 3 3 2973 4 2 3 5302 3 2 3 4 1 27 9 38 2 0 2 0 0 3905 6 3 1972 2983 2 6 969 5 11 2 4 2 11 2 10 1520 2 5 3 4 3 2 2471 3 3 3 2 4 1026 0 3 1 6 497 3443 2 2 4 3 20 2 3 1984 1465 3 8 999 7 3 7 3 3 2980 1 4 4 1 0 5 4 3 4 3 2 15 2 3 0 6 3 2 3 7867 2 28 4 1984 5 2948 992 2 4 807 6 6 4 1485 2996 3 3 5 3 3 4 8 992 1486 5 29 1464 4 3 2 999 2 3 3 4 1935 4 19 43 0 2474 0 3 3 992 3 1 3 1 3 3 5 1 991 1 2483 2 0 4 2 0 1 1 1 3 1 4 2 4 1483 4 968 1 3 5 14 3 3 2 2 4 2 4 2 3 519 2 3 962 0 2 1 5 2 2 3 2961 5 1 3 3 1 23 4 4 5778 2 3 2 4 3 0 105 3 5 2836 3 1 3 4 4 0 4 3069 4744 3 5 0 3 3 47 1 1 6 1682 1930 2 2 3 12 3 6 5 1981 3 3 24 1 3 1 3 4 1 8 4 2 2 0 4 8 2 7 2 2 2 4 2 4 57 3 1 3 2 1983 4 25 5 1491 3 2 2 3 1467 2 10 1981 6 13 3 2473 3 1924 7 12 8 3 2 4 4 3 4810 2 1 6335 969 3 4 1489 9 1 3 3 2442 4 0 2 3 26 4 5 4738 7 8 100 3 2 3 3 4 7 2 4 4 3 2 745 4 3 2 1773 2 2 43 9 2435 5 1010 3 7 44 5 1 3 1 1444 0 2 1002 2 55 80 1443 3 12 1 3 2 1923 215 7 498 5409 3859 1512 4 2094 10 3 41 5 2 1 970 4 2487 30 1509 4 4 798 2 370 6 2 4 1377 1985 4 2 3 518 4 4799 2 83 1150 8 1986 3 3 3 0 366 29 1 7262 23 1 3 2021 20 497 9 2 4 2 7 4 2 1659 7 2 3464 5 9 4 1923 3 32 3 5 4 2 3 18 4 16 3 5 1988 3 2432 364 1740 3 28 5 2 7 1774 2 5141 27 3 3 3 3 2 3 6 2949 1935 2 3 2 3 3 4 3 3 3 5 4 2 4 10 1984 4 1455 0 3 3 4 1466 367 2 1 3 4 3 2 2 1 5 1 3 4 4 7 2 3954 1486 3 2 1 11175 1 2 4 1 2 1984 98 3 5293 3 28 6 2476 3 31 3 2 1 1 33 1 4 4 3 1990 4 1 2017 6 2470 2 498 4 10 4 2404 1806 4 4 2470 1 6 7 4895 4 3 3 5 3 1493 1952 4 2447 1452 2308 4 3 9 8 1 2 5 1976 1 4 2 1 3 8 2 3 535 2 2 97 4 2 11 1 5556 3 3 4 3 1 4 10 3 4 3 5 2 28 2 3 1712 3 4 6 3 1920 2 5720 3 1493 4 2609 7212 2 5239 1 21 2 1 2 521 4 3 1 3 127 4 1 2 497 4 4 3 3 3 4 2 1505 2 8 8 23 0 1926 3 3 2 55 7303 1 49 0 1 4 7 4 28 1 3 963 5 1 1 2 5 20 3 4 1 4 6 7219 17 1 4 3 3 2948 10199 1955 3 7262 24 1983 1 1 4 1922 2457 3 2 3 4 3 5 6 18 3 1 4 2 3 3334 7807 3793 4 3 337 1 2 28 3 4 1 3 2 2970 6519 969 3 3 3 8 7 2 1921 1991 2473 7 2 1 24 4 3 4 3 5 5 4 4 1940 3 1984 4 497 1921 2473 6 1 3042 4 4 3 3 3 6 3 3 2 2 15 4 3 3 1003 2 1 4 3 2957 10 2 3 4 2 4 3 3 4 3 2 1 4 2 4 2 8 3 9 4 2 1 2 1029 1 6 2 4 2 4 368 2 2 9 4 970 3 4 2462 3 3 43 7 18 5 4 8 3 3 3 2 3 1981 5 4 1 4 0 5697 3 3 2883 4 4 2404 6824 4 2 3 3 2 4 8 2 4 4 8 3 1 3779 1 10 3 3 3 4 4 2 1468 3 4 1329 4 1 544 3 0 3 3 1 2 1331 1 7 3 3 1931 3 2 2 2 3 2 2 2876 2 3 86 3 3 3 3 2 2 8 0 4 3 4 969 3 1 2 1 5 1 4 3 4 4 2 3 962 1 7 9 21 2 2462 1 3 4 2 2 10 14 151 2 21473 0 1 2 3 1 1 2 3 3 2034 364 1 1 1418 2 1 5 1 2478 1 4 2 3 1965 2 3 2 1 3 3 1 2 4 4 2 3 3 1 3 0 3779 3 4 4 0 4 453 1974 6 8 3 4 4 3 4 2 3 4 3 7 0 2 3 3 3 10 1 3 3 3 3728 2970 2 3 2 4 2 1 4 1726 2 3 0 3 2 4 3 3 9 2403 21 5779 0 7 1 2182 4 6 30 4 3462 2 4 8436 3 0 2962 1465 3 3 9 3 3 2 2 2 973 2 2 3 4 2 4 1688 5 1982 4 1037 2964 2 1204 6712 3 6 10 12 3 3433 3 1565 1976 2 1981 5 234 363 2 1464 1508 13 151 2 3 3 3 4 5 2 2 4 2 3 1 3 2586 1 2 2 3 3 3 518 3 6 2 3798 3 3 12 1443 3 1488 1490 2957 1 1 6259 3 994 3 3 4 1990 518 5 4 4 2912 3 504 3 4379 3 7 8655 4 4 14623 2966 2 1923 1466 26 2 3 0 3 2 4 4 4 2 6 3 79 4 2 173 3475 1 1465 2 1465 91 4 3 4 3 2337 4 733 1 2469 3 3 7 3 3 0 2 3052 0 5270 2 1197 2478 1 4 3 2 0 4 2 7 2298 3 4814 2 3 2 2 3 8 7250 1 3 523 0 3 3 6 1923 969 3 3 1967 2 3 2 2229 4 5 1 27 3 0 3 6 1462 1 3918 2 1 7 2 4 4 5 3 2434 4 398 2452 1 2464 4 1986 237 1924 80 3 3 2 4052 1 225 1 3 1485 4 4 4 4 3 1 2 516 0 3 0 3 6 3191 2 2 784 408 3 3 970 1 2 2 7 2 4 2 103 3 2 3 1 2 221 3 5 3 3 5 2 2 2 4 2 1451 2 11 1 3782 4 3 5 8 6 1 2 3 13 4 3 964 10 1003 3 3 3 4 4 2 0 3 3 0 2 1 2 2 4 4 2468 2 2 3 4 2 3 4 4 2 4 3122 3 3 3222 2409 139 2 4 3 3 27 5 5 30 3 4 1 2 4 11 966 2 4 4 2 5 3 8 2540 4 5 1 9 2 0 2 3 0 8 1466 1036 1 3 4 2471 10 0 6 2 8 3 7 2 7 3 3850 3 2 2 3 2501 5 3446 3 6 5086 0 1 3 1 4 4 2 0 2 3 4 24 4 2 0 3 4 1521 1 2 1 3 2475 2 2 24 8 3 5 1924 4 1 2479 2 1929 8 1 2 3 2 3 11 2 3 4 3 3 5 1 20 3 219 3 4 2 1 3 1488 4 4 0 
