
*** ChampSim Multicore Out-of-Order Simulator ***

Warmup Instructions: 50000000
Simulation Instructions: 50000000
Number of CPUs: 1
LLC sets: 2048
LLC ways: 16
Off-chip DRAM Size: 4096 MB Channels: 1 Width: 64-bit Data Rate: 6400 MT/s
CPU 0 runs ./micro_traces/srv785.trace.gz
.gz
ITLB has LRU replacement policy
DTLB has LRU replacement policy
STLB has LRU replacement policy
FDIP Prefetcher at L1I
L1I has LRU replacement policy
L1D has LRU replacement policy
Initialize SRRIP state for L2C
Initialize DRRIP state for LLC
Heartbeat_Variant_0 : 1342 0.327637 per_variant_size: 0 1342 0 0 0 0 0 0 0 
Heartbeat_Variant_1 : 2375 0.579834 per_variant_size: 0 196 2179 0 0 0 0 0 0 
Heartbeat_Variant_2 : 0 0 per_variant_size: 0 0 0 0 0 0 0 0 0 
Heartbeat_Variant_3 : 0 0 per_variant_size: 0 0 0 0 0 0 0 0 0 
Heartbeat_Variant_0_evicts 0 : 5555 1 : 0 2 : 0 3 : 0 
Heartbeat_Variant_1_evicts 0 : 1 1 : 0 2 : 0 3 : 0 
Heartbeat_Variant_2_evicts 0 : 0 1 : 0 2 : 0 3 : 0 
Heartbeat_Variant_3_evicts 0 : 0 1 : 0 2 : 0 3 : 0 
Heartbeat CPU 0 instructions: 10000000 cycles: 2795655 heartbeat IPC: 3.57698 cumulative IPC: 3.57698 (Simulation time: 0 hr 1 min 2 sec) 
Heartbeat_Variant_0 : 1379 0.33667 per_variant_size: 0 1379 0 0 0 0 0 0 0 
Heartbeat_Variant_1 : 2455 0.599365 per_variant_size: 0 172 2283 0 0 0 0 0 0 
Heartbeat_Variant_2 : 0 0 per_variant_size: 0 0 0 0 0 0 0 0 0 
Heartbeat_Variant_3 : 0 0 per_variant_size: 0 0 0 0 0 0 0 0 0 
Heartbeat_Variant_0_evicts 0 : 5610 1 : 1 2 : 0 3 : 0 
Heartbeat_Variant_1_evicts 0 : 2 1 : 0 2 : 0 3 : 0 
Heartbeat_Variant_2_evicts 0 : 0 1 : 0 2 : 0 3 : 0 
Heartbeat_Variant_3_evicts 0 : 0 1 : 0 2 : 0 3 : 0 
Heartbeat CPU 0 instructions: 20000001 cycles: 5592722 heartbeat IPC: 3.57517 cumulative IPC: 3.57608 (Simulation time: 0 hr 2 min 15 sec) 
Heartbeat_Variant_0 : 1390 0.339355 per_variant_size: 0 1390 0 0 0 0 0 0 0 
Heartbeat_Variant_1 : 2488 0.607422 per_variant_size: 0 181 2307 0 0 0 0 0 0 
Heartbeat_Variant_2 : 0 0 per_variant_size: 0 0 0 0 0 0 0 0 0 
Heartbeat_Variant_3 : 0 0 per_variant_size: 0 0 0 0 0 0 0 0 0 
Heartbeat_Variant_0_evicts 0 : 5636 1 : 1 2 : 0 3 : 0 
Heartbeat_Variant_1_evicts 0 : 3 1 : 0 2 : 0 3 : 0 
Heartbeat_Variant_2_evicts 0 : 0 1 : 0 2 : 0 3 : 0 
Heartbeat_Variant_3_evicts 0 : 0 1 : 0 2 : 0 3 : 0 
Heartbeat CPU 0 instructions: 30000000 cycles: 8388571 heartbeat IPC: 3.57673 cumulative IPC: 3.57629 (Simulation time: 0 hr 3 min 14 sec) 
Heartbeat_Variant_0 : 1391 0.3396 per_variant_size: 0 1391 0 0 0 0 0 0 0 
Heartbeat_Variant_1 : 2488 0.607422 per_variant_size: 0 178 2310 0 0 0 0 0 0 
Heartbeat_Variant_2 : 0 0 per_variant_size: 0 0 0 0 0 0 0 0 0 
Heartbeat_Variant_3 : 0 0 per_variant_size: 0 0 0 0 0 0 0 0 0 
Heartbeat_Variant_0_evicts 0 : 5638 1 : 0 2 : 0 3 : 0 
Heartbeat_Variant_1_evicts 0 : 0 1 : 0 2 : 0 3 : 0 
Heartbeat_Variant_2_evicts 0 : 0 1 : 0 2 : 0 3 : 0 
Heartbeat_Variant_3_evicts 0 : 0 1 : 0 2 : 0 3 : 0 
Heartbeat CPU 0 instructions: 40000003 cycles: 11185473 heartbeat IPC: 3.57539 cumulative IPC: 3.57607 (Simulation time: 0 hr 4 min 9 sec) 
Heartbeat_Variant_0 : 1391 0.3396 per_variant_size: 0 1391 0 0 0 0 0 0 0 
Heartbeat_Variant_1 : 2489 0.607666 per_variant_size: 0 176 2313 0 0 0 0 0 0 
Heartbeat_Variant_2 : 0 0 per_variant_size: 0 0 0 0 0 0 0 0 0 
Heartbeat_Variant_3 : 0 0 per_variant_size: 0 0 0 0 0 0 0 0 0 
Heartbeat_Variant_0_evicts 0 : 5569 1 : 0 2 : 0 3 : 0 
Heartbeat_Variant_1_evicts 0 : 0 1 : 0 2 : 0 3 : 0 
Heartbeat_Variant_2_evicts 0 : 0 1 : 0 2 : 0 3 : 0 
Heartbeat_Variant_3_evicts 0 : 0 1 : 0 2 : 0 3 : 0 
Heartbeat CPU 0 instructions: 50000002 cycles: 13981345 heartbeat IPC: 3.5767 cumulative IPC: 3.57619 (Simulation time: 0 hr 5 min 17 sec) 

Warmup complete CPU 0 instructions: 50000002 cycles: 13981345 (Simulation time: 0 hr 5 min 17 sec) 

Cycle: 20000000 FTQ IN: 58477844 FTQ occupancy: 20.5384 DECODE IN: 58477772 DECODE occupancy: 53.4644 ROB IN: 58477712 ROB occupancy: 318.971 ROB OUT: 58477376
Heartbeat_Variant_0 : 1390 0.339355 per_variant_size: 0 1390 0 0 0 0 0 0 0 
Heartbeat_Variant_1 : 2492 0.608398 per_variant_size: 0 183 2309 0 0 0 0 0 0 
Heartbeat_Variant_2 : 0 0 per_variant_size: 0 0 0 0 0 0 0 0 0 
Heartbeat_Variant_3 : 0 0 per_variant_size: 0 0 0 0 0 0 0 0 0 
Heartbeat_Variant_0_evicts 0 : 5574 1 : 0 2 : 0 3 : 0 
Heartbeat_Variant_1_evicts 0 : 1 1 : 0 2 : 0 3 : 0 
Heartbeat_Variant_2_evicts 0 : 0 1 : 0 2 : 0 3 : 0 
Heartbeat_Variant_3_evicts 0 : 0 1 : 0 2 : 0 3 : 0 
Heartbeat CPU 0 instructions: 60000003 cycles: 21070944 heartbeat IPC: 1.41052 cumulative IPC: 1.41052 (Simulation time: 0 hr 6 min 32 sec) 
Heartbeat_Variant_0 : 1390 0.339355 per_variant_size: 0 1390 0 0 0 0 0 0 0 
Heartbeat_Variant_1 : 2493 0.608643 per_variant_size: 0 190 2303 0 0 0 0 0 0 
Heartbeat_Variant_2 : 0 0 per_variant_size: 0 0 0 0 0 0 0 0 0 
Heartbeat_Variant_3 : 0 0 per_variant_size: 0 0 0 0 0 0 0 0 0 
Heartbeat_Variant_0_evicts 0 : 5589 1 : 0 2 : 0 3 : 0 
Heartbeat_Variant_1_evicts 0 : 0 1 : 0 2 : 0 3 : 0 
Heartbeat_Variant_2_evicts 0 : 0 1 : 0 2 : 0 3 : 0 
Heartbeat_Variant_3_evicts 0 : 0 1 : 0 2 : 0 3 : 0 
Heartbeat CPU 0 instructions: 70000002 cycles: 28283764 heartbeat IPC: 1.38642 cumulative IPC: 1.39836 (Simulation time: 0 hr 7 min 55 sec) 
Cycle: 30000000 FTQ IN: 13938255 FTQ occupancy: 15.0189 DECODE IN: 13938203 DECODE occupancy: 38.4097 ROB IN: 13938203 ROB occupancy: 250.342 ROB OUT: 13938191
Heartbeat_Variant_0 : 1403 0.342529 per_variant_size: 0 1403 0 0 0 0 0 0 0 
Heartbeat_Variant_1 : 2542 0.620605 per_variant_size: 0 189 2353 0 0 0 0 0 0 
Heartbeat_Variant_2 : 0 0 per_variant_size: 0 0 0 0 0 0 0 0 0 
Heartbeat_Variant_3 : 0 0 per_variant_size: 0 0 0 0 0 0 0 0 0 
Heartbeat_Variant_0_evicts 0 : 5693 1 : 12 2 : 0 3 : 0 
Heartbeat_Variant_1_evicts 0 : 18 1 : 0 2 : 0 3 : 0 
Heartbeat_Variant_2_evicts 0 : 0 1 : 0 2 : 0 3 : 0 
Heartbeat_Variant_3_evicts 0 : 0 1 : 0 2 : 0 3 : 0 
Heartbeat CPU 0 instructions: 80000000 cycles: 35405487 heartbeat IPC: 1.40415 cumulative IPC: 1.40029 (Simulation time: 0 hr 9 min 14 sec) 
Cycle: 40000000 FTQ IN: 13912712 FTQ occupancy: 15.0056 DECODE IN: 13912836 DECODE occupancy: 38.3566 ROB IN: 13912896 ROB occupancy: 250.534 ROB OUT: 13913226
Heartbeat_Variant_0 : 1403 0.342529 per_variant_size: 0 1403 0 0 0 0 0 0 0 
Heartbeat_Variant_1 : 2557 0.624268 per_variant_size: 0 197 2360 0 0 0 0 0 0 
Heartbeat_Variant_2 : 0 0 per_variant_size: 0 0 0 0 0 0 0 0 0 
Heartbeat_Variant_3 : 0 0 per_variant_size: 0 0 0 0 0 0 0 0 0 
Heartbeat_Variant_0_evicts 0 : 5557 1 : 8 2 : 0 3 : 0 
Heartbeat_Variant_1_evicts 0 : 9 1 : 0 2 : 0 3 : 0 
Heartbeat_Variant_2_evicts 0 : 0 1 : 0 2 : 0 3 : 0 
Heartbeat_Variant_3_evicts 0 : 0 1 : 0 2 : 0 3 : 0 
Heartbeat CPU 0 instructions: 90000000 cycles: 42605027 heartbeat IPC: 1.38898 cumulative IPC: 1.39744 (Simulation time: 0 hr 10 min 31 sec) 
Heartbeat_Variant_0 : 1406 0.343262 per_variant_size: 0 1406 0 0 0 0 0 0 0 
Heartbeat_Variant_1 : 2563 0.625732 per_variant_size: 0 196 2367 0 0 0 0 0 0 
Heartbeat_Variant_2 : 0 0 per_variant_size: 0 0 0 0 0 0 0 0 0 
Heartbeat_Variant_3 : 0 0 per_variant_size: 0 0 0 0 0 0 0 0 0 
Heartbeat_Variant_0_evicts 0 : 5591 1 : 9 2 : 0 3 : 0 
Heartbeat_Variant_1_evicts 0 : 8 1 : 0 2 : 0 3 : 0 
Heartbeat_Variant_2_evicts 0 : 0 1 : 0 2 : 0 3 : 0 
Heartbeat_Variant_3_evicts 0 : 0 1 : 0 2 : 0 3 : 0 
Heartbeat CPU 0 instructions: 100000001 cycles: 49705264 heartbeat IPC: 1.4084 cumulative IPC: 1.39962 (Simulation time: 0 hr 11 min 47 sec) 
Finished CPU 0 instructions: 50000003 cycles: 35723932 cumulative IPC: 1.39962 (Simulation time: 0 hr 11 min 47 sec) 

ChampSim completed all CPUs

Region of Interest Statistics

CPU 0 cumulative IPC: 1.39962 instructions: 50000003 cycles: 35723932
 Fetch stage stalled: 45.4401  Sim cycles: 35723932 fetch stall cycle: 16232998
 Empty decode stage: 24.7383  Sim cycles: 35723932 fetch stall cycle: 8837479
ITLB TOTAL     ACCESS:    5839601  HIT:    5347561  MISS:     492040  HIT %:    91.5741  MISS %:    8.42592   MPKI: 9.8408
ITLB LOAD TRANSLATION INSTRUCTION	ACCESS:    5702839  HIT:    5210799  MISS:     492040  HIT %:     91.372  MISS %:    8.62798  MPKI: 9.8408
ITLB TRANSLATION FROM L1D PREFETCHER INSTRUCTION	ACCESS:     136762  HIT:     136762  MISS:          0  HIT %:        100  MISS %:          0  MPKI: 0

ITLB AVERAGE MISS LATENCY: 9.04864 cycles
ITLB RQ	ACCESS:    7937467	FORWARD:          0	MERGED:    1616607	TO_CACHE:    6320860

DTLB TOTAL     ACCESS:    8941354  HIT:    8473390  MISS:     467964  HIT %:    94.7663  MISS %:     5.2337   MPKI: 9.35928
DTLB LOAD TRANSLATION DATA	ACCESS:    8941354  HIT:    8473390  MISS:     467964  HIT %:    94.7663  MISS %:     5.2337  MPKI: 9.35928

DTLB AVERAGE MISS LATENCY: 9.32566 cycles
DTLB RQ	ACCESS:   13308426	FORWARD:          0	MERGED:    4330275	TO_CACHE:    8978151

STLB TOTAL     ACCESS:    1211820  HIT:    1209826  MISS:       1994  HIT %:    99.8355  MISS %:   0.164546   MPKI: 0.03988
STLB LOAD TRANSLATION INSTRUCTION	ACCESS:     492040  HIT:     491806  MISS:        234  HIT %:    99.9524  MISS %:  0.0475571  MPKI: 0.00468
STLB LOAD TRANSLATION DATA	ACCESS:     467964  HIT:     466211  MISS:       1753  HIT %:    99.6254  MISS %:   0.374601  MPKI: 0.03506
STLB TRANSLATION FROM L1D PREFETCHER DATA	ACCESS:     251816  HIT:     251809  MISS:          7  HIT %:    99.9972  MISS %: 0.00277981  MPKI: 0.00014

STLB AVERAGE MISS LATENCY: 73.2182 cycles
STLB RQ	ACCESS:    1341343	FORWARD:          0	MERGED:     129498	TO_CACHE:    1211845

STLB Hit, L1D data hit: 0
STLB Hit, L2C data hit: 0
STLB Hit, LLC data hit: 0
STLB Hit, LLC data miss: 0
STLB STLB hints to L2: 0
L1D TOTAL     ACCESS:   13068079  HIT:   11940199  MISS:    1127880  HIT %:    91.3692  MISS %:     8.6308   MPKI: 22.5576
L1D LOAD DATA	ACCESS:    6543341  HIT:    5800036  MISS:     743305  HIT %:    88.6403  MISS %:    11.3597  MPKI: 14.8661
L1D RFO DATA	ACCESS:    6191240  HIT:    5906233  MISS:     285007  HIT %:    95.3966  MISS %:    4.60339  MPKI: 5.70014
L1D PREFETCH DATA	ACCESS:     333498  HIT:     233930  MISS:      99568  HIT %:    70.1443  MISS %:    29.8557  MPKI: 1.99136

L1D PREFETCH  REQUESTED:     762986  ISSUED:     762986  USEFUL:      38017  USELESS:      70745
L1D USEFUL LOAD PREFETCHES:      38017 PREFETCH ISSUED TO LOWER LEVEL:     108820  ACCURACY: 34.9357
 TIMELY PREFETCHES:      38017 LATE PREFETCHES: 9169 DROPPED PREFETCHES: 3
L1D AVERAGE MISS LATENCY: 258108 cycles
L1D RQ	ACCESS:   10681444	FORWARD:          0	MERGED:    3936266	TO_CACHE:    6577204
L1D WQ	ACCESS:    6928344	FORWARD:     168284	MERGED:     197122	TO_CACHE:    6731222
L1D PQ	ACCESS:     381648	FORWARD:          0	MERGED:          0	TO_CACHE:     381338

L1D UNIQUE REGIONS ACCESSED: 0
L1D REGIONS CONFLICTS: 0
L1D Cross Page Prefetch Requests: 5951
L1D Same Page Prefetch Requests: 775750
L1D ROI Sum of L1D PQ occupancy: 4835772
L1D PREFETCHES PUSHED FROM L2C: 0
L1I TOTAL     ACCESS:    7122016  HIT:    4368349  MISS:    2753667  HIT %:    61.3358  MISS %:    38.6642   MPKI: 55.0733
L1I LOAD INSTRUCTION	ACCESS:    6449690  HIT:    3696023  MISS:    2753667  HIT %:    57.3054  MISS %:    42.6946  MPKI: 55.0733
L1I PREFETCH INSTRUCTION	ACCESS:     672326  HIT:     672326  MISS:          0  HIT %:        100  MISS %:          0  MPKI: 0

L1I PREFETCH  REQUESTED:    1617008  ISSUED:    1617008  USEFUL:          0  USELESS:          0
L1I USEFUL LOAD PREFETCHES:          0 PREFETCH ISSUED TO LOWER LEVEL:          0  ACCURACY: -nan
 TIMELY PREFETCHES:          0 LATE PREFETCHES: 0 DROPPED PREFETCHES: 0
L1I AVERAGE MISS LATENCY: 17.1118 cycles
L1I RQ	ACCESS:    9573428	FORWARD:          0	MERGED:    2823511	TO_CACHE:    6749917
L1I PQ	ACCESS:    1617008	FORWARD:          0	MERGED:     429458	TO_CACHE:    1187550

L1BTB TOTAL     ACCESS:    5675568  HIT:    2059741  MISS:    3615827  HIT %:    36.2914  MISS %:    63.7086   MPKI: 72.3165
L1BTB BRANCH_DIRECT_JUMP	ACCESS:     547639 HIT:     145010 MISS:     402629 AVERAGE STALL: 58.5014 AVERAGE FETCH STALL: 13.9877 AVERAGE FETCH QUEUE STALL: 20.0193 AVERAGE DECODE STALL: 23.5514 AVERAGE EXECUTE STALL: 2.41671e+15
L1BTB BRANCH_INDIRECT	ACCESS:     182862 HIT:      66141 MISS:     116721 AVERAGE STALL: 113.736 AVERAGE FETCH STALL: 10.9931 AVERAGE FETCH QUEUE STALL: 20.0835 AVERAGE DECODE STALL: 13.6407 AVERAGE EXECUTE STALL: 68.0573
L1BTB BRANCH_CONDITIONAL	ACCESS:    2723650 HIT:    1434734 MISS:    1288916 AVERAGE STALL: 73.7922 AVERAGE FETCH STALL: 22.7308 AVERAGE FETCH QUEUE STALL: 19.0013 AVERAGE DECODE STALL: 31.3875 AVERAGE EXECUTE STALL: 4.79759e+15
L1BTB BRANCH_DIRECT_CALL	ACCESS:     939992 HIT:     104555 MISS:     835437 AVERAGE STALL: 56.0458 AVERAGE FETCH STALL: 20.0322 AVERAGE FETCH QUEUE STALL: 19.5941 AVERAGE DECODE STALL: 16.037 AVERAGE EXECUTE STALL: 1.48286e+16
L1BTB BRANCH_INDIRECT_CALL	ACCESS:     170732 HIT:      20776 MISS:     149956 AVERAGE STALL: 139.741 AVERAGE FETCH STALL: 12.123 AVERAGE FETCH QUEUE STALL: 18.101 AVERAGE DECODE STALL: 11.9226 AVERAGE EXECUTE STALL: 97.107
L1BTB BRANCH_RETURN	ACCESS:    1110693 HIT:     288525 MISS:     822168 AVERAGE STALL: 49.4267 AVERAGE FETCH STALL: 16.4769 AVERAGE FETCH QUEUE STALL: 5.032 AVERAGE DECODE STALL: 6.13718 AVERAGE EXECUTE STALL: 4.3926e+14
L1BTB BRANCH_OTHER ACCESS:          0 HIT:          0 MISS:          0 AVERAGE STALL: -nan AVERAGE FETCH STALL: -nan AVERAGE FETCH QUEUE STALL: -nan AVERAGE DECODE STALL: -nan AVERAGE EXECUTE STALL: -nan
L1BTB TOTAL ROB OCCUPANCY AT BTB MISS: 2.54176

L2BTB TOTAL     ACCESS:    3590457  HIT:    3528475  MISS:      61982  HIT %:    98.2737  MISS %:     1.7263   MPKI: 1.23964
L2BTB BRANCH_DIRECT_JUMP	ACCESS:     398442 HIT:     394985 MISS:       3457 AVERAGE STALL: 58.5014 AVERAGE FETCH STALL: 13.9877 AVERAGE FETCH QUEUE STALL: 20.0193 AVERAGE DECODE STALL: 23.5514 AVERAGE EXECUTE STALL: 2.41671e+15
L2BTB BRANCH_INDIRECT	ACCESS:     106488 HIT:     103817 MISS:       2671 AVERAGE STALL: 113.736 AVERAGE FETCH STALL: 10.9931 AVERAGE FETCH QUEUE STALL: 20.0835 AVERAGE DECODE STALL: 13.6407 AVERAGE EXECUTE STALL: 68.0573
L2BTB BRANCH_CONDITIONAL	ACCESS:    1288916 HIT:    1285013 MISS:       3903 AVERAGE STALL: 73.7922 AVERAGE FETCH STALL: 22.7308 AVERAGE FETCH QUEUE STALL: 19.0013 AVERAGE DECODE STALL: 31.3875 AVERAGE EXECUTE STALL: 4.79759e+15
L2BTB BRANCH_DIRECT_CALL	ACCESS:     835437 HIT:     834183 MISS:       1254 AVERAGE STALL: 56.0458 AVERAGE FETCH STALL: 20.0322 AVERAGE FETCH QUEUE STALL: 19.5941 AVERAGE DECODE STALL: 16.037 AVERAGE EXECUTE STALL: 1.48286e+16
L2BTB BRANCH_INDIRECT_CALL	ACCESS:     140406 HIT:     130322 MISS:      10084 AVERAGE STALL: 139.741 AVERAGE FETCH STALL: 12.123 AVERAGE FETCH QUEUE STALL: 18.101 AVERAGE DECODE STALL: 11.9226 AVERAGE EXECUTE STALL: 97.107
L2BTB BRANCH_RETURN	ACCESS:     820768 HIT:     780155 MISS:      40613 AVERAGE STALL: 49.4267 AVERAGE FETCH STALL: 16.4769 AVERAGE FETCH QUEUE STALL: 5.032 AVERAGE DECODE STALL: 6.13718 AVERAGE EXECUTE STALL: 4.3926e+14
L2BTB BRANCH_OTHER ACCESS:          0 HIT:          0 MISS:          0 AVERAGE STALL: -nan AVERAGE FETCH STALL: -nan AVERAGE FETCH QUEUE STALL: -nan AVERAGE DECODE STALL: -nan AVERAGE EXECUTE STALL: -nan
L2BTB TOTAL ROB OCCUPANCY AT BTB MISS: 148.278

L2C TOTAL     ACCESS:    4481183  HIT:    4041615  MISS:     439568  HIT %:    90.1908  MISS %:     9.8092   MPKI: 8.79136
L2C LOAD INSTRUCTION	ACCESS:    2753667  HIT:    2508178  MISS:     245489  HIT %:     91.085  MISS %:    8.91499  MPKI: 4.90978
L2C LOAD TRANSLATION INSTRUCTION	ACCESS:        260  HIT:         55  MISS:        205  HIT %:    21.1538  MISS %:    78.8462  MPKI: 0.0041
L2C LOAD DATA	ACCESS:     734107  HIT:     667366  MISS:      66741  HIT %:    90.9085  MISS %:    9.09145  MPKI: 1.33482
L2C RFO DATA	ACCESS:     284888  HIT:     240578  MISS:      44310  HIT %:    84.4465  MISS %:    15.5535  MPKI: 0.8862
L2C PREFETCH DATA	ACCESS:     185286  HIT:     115440  MISS:      69846  HIT %:    62.3037  MISS %:    37.6963  MPKI: 1.39692
L2C WRITEBACK DATA	ACCESS:     521131  HIT:     509517  MISS:      11614  HIT %:    97.7714  MISS %:    2.22861  MPKI: 0.23228
L2C LOAD TRANSLATION DATA	ACCESS:       1825  HIT:        469  MISS:       1356  HIT %:    25.6986  MISS %:    74.3014  MPKI: 0.02712
L2C TRANSLATION FROM L1D PREFETCHER DATA	ACCESS:         19  HIT:         12  MISS:          7  HIT %:    63.1579  MISS %:    36.8421  MPKI: 0.00014

L2C PREFETCH  REQUESTED:      83882  ISSUED:      83882  USEFUL:       7670  USELESS:      62725
L2C USEFUL LOAD PREFETCHES:       7670 PREFETCH ISSUED TO LOWER LEVEL:      70244  ACCURACY: 10.9191
 TIMELY PREFETCHES:       7670 LATE PREFETCHES: 398 DROPPED PREFETCHES: 0
L2C AVERAGE MISS LATENCY: 39.0121 cycles
L2C RQ	ACCESS:    3774831	FORWARD:          0	MERGED:          0	TO_CACHE:    3774766
L2C WQ	ACCESS:     521131	FORWARD:         65	MERGED:          0	TO_CACHE:     521131
L2C PQ	ACCESS:     192702	FORWARD:          0	MERGED:       3698	TO_CACHE:     189004

L2C Dense regions hint from L2: 0
PSCL5 TOTAL     ACCESS:       3998  HIT:       1999  MISS:       1999  HIT %:         50  MISS %:         50   MPKI: 0.03998
PSCL5 LOAD TRANSLATION INSTRUCTION	ACCESS:       3960  HIT:       1980  MISS:       1980  HIT %:         50  MISS %:         50  MPKI: 0.0396
PSCL5 TRANSLATION FROM L1D PREFETCHER INSTRUCTION	ACCESS:         38  HIT:         19  MISS:         19  HIT %:         50  MISS %:         50  MPKI: 0.00038


PSCL4 TOTAL     ACCESS:       3852  HIT:       1922  MISS:       1930  HIT %:    49.8962  MISS %:    50.1038   MPKI: 0.0386
PSCL4 LOAD TRANSLATION INSTRUCTION	ACCESS:       2974  HIT:       1903  MISS:       1071  HIT %:    63.9879  MISS %:    36.0121  MPKI: 0.02142
PSCL4 TRANSLATION FROM L1D PREFETCHER INSTRUCTION	ACCESS:         32  HIT:         19  MISS:         13  HIT %:     59.375  MISS %:     40.625  MPKI: 0.00026
PSCL4 LOAD TRANSLATION DATA	ACCESS:        840  HIT:          0  MISS:        840  HIT %:          0  MISS %:        100  MPKI: 0.0168
PSCL4 TRANSLATION FROM L1D PREFETCHER DATA	ACCESS:          6  HIT:          0  MISS:          6  HIT %:          0  MISS %:        100  MPKI: 0.00012


PSCL3 TOTAL     ACCESS:       3934  HIT:       1963  MISS:       1971  HIT %:    49.8983  MISS %:    50.1017   MPKI: 0.03942
PSCL3 LOAD TRANSLATION INSTRUCTION	ACCESS:       3015  HIT:       1944  MISS:       1071  HIT %:    64.4776  MISS %:    35.5224  MPKI: 0.02142
PSCL3 TRANSLATION FROM L1D PREFETCHER INSTRUCTION	ACCESS:         32  HIT:         19  MISS:         13  HIT %:     59.375  MISS %:     40.625  MPKI: 0.00026
PSCL3 LOAD TRANSLATION DATA	ACCESS:        881  HIT:          0  MISS:        881  HIT %:          0  MISS %:        100  MPKI: 0.01762
PSCL3 TRANSLATION FROM L1D PREFETCHER DATA	ACCESS:          6  HIT:          0  MISS:          6  HIT %:          0  MISS %:        100  MPKI: 0.00012


PSCL2 TOTAL     ACCESS:       3908  HIT:       1909  MISS:       1999  HIT %:    48.8485  MISS %:    51.1515   MPKI: 0.03998
PSCL2 LOAD TRANSLATION INSTRUCTION	ACCESS:       2122  HIT:       1890  MISS:        232  HIT %:    89.0669  MISS %:    10.9331  MPKI: 0.00464
PSCL2 TRANSLATION FROM L1D PREFETCHER INSTRUCTION	ACCESS:         19  HIT:         19  MISS:          0  HIT %:        100  MISS %:          0  MPKI: 0
PSCL2 LOAD TRANSLATION DATA	ACCESS:       1748  HIT:          0  MISS:       1748  HIT %:          0  MISS %:        100  MPKI: 0.03496
PSCL2 TRANSLATION FROM L1D PREFETCHER DATA	ACCESS:         19  HIT:          0  MISS:         19  HIT %:          0  MISS %:        100  MPKI: 0.00038


LLC TOTAL     ACCESS:     493167  HIT:     465388  MISS:      27779  HIT %:    94.3672  MISS %:    5.63278   MPKI: 0.55558
LLC LOAD INSTRUCTION	ACCESS:     245489  HIT:     244669  MISS:        820  HIT %:     99.666  MISS %:   0.334027  MPKI: 0.0164
LLC LOAD TRANSLATION INSTRUCTION	ACCESS:        205  HIT:        179  MISS:         26  HIT %:    87.3171  MISS %:    12.6829  MPKI: 0.00052
LLC LOAD DATA	ACCESS:      66344  HIT:      62915  MISS:       3429  HIT %:    94.8315  MISS %:    5.16852  MPKI: 0.06858
LLC RFO DATA	ACCESS:      44277  HIT:      31045  MISS:      13232  HIT %:    70.1154  MISS %:    29.8846  MPKI: 0.26464
LLC PREFETCH DATA	ACCESS:      70242  HIT:      60401  MISS:       9841  HIT %:    85.9899  MISS %:    14.0101  MPKI: 0.19682
LLC WRITEBACK DATA	ACCESS:      65247  HIT:      64897  MISS:        350  HIT %:    99.4636  MISS %:   0.536423  MPKI: 0.007
LLC LOAD TRANSLATION DATA	ACCESS:       1356  HIT:       1276  MISS:         80  HIT %:    94.1003  MISS %:    5.89971  MPKI: 0.0016
LLC TRANSLATION FROM L1D PREFETCHER DATA	ACCESS:          7  HIT:          6  MISS:          1  HIT %:    85.7143  MISS %:    14.2857  MPKI: 2e-05

LLC AVERAGE MISS LATENCY: 153.686 cycles
LLC RQ	ACCESS:     357710	FORWARD:          0	MERGED:          0	TO_CACHE:     357678
LLC WQ	ACCESS:      65247	FORWARD:         34	MERGED:          0	TO_CACHE:      65247
LLC PQ	ACCESS:      70244	FORWARD:          0	MERGED:          0	TO_CACHE:      70242

LLC Dense regions hint to LLC: 0

RAW hits: 1942028
Loads Generated: 12623474
Loads sent to L1D: 10681444
Stores Generated: 6928330
Stores sent to L1D: 6928344
Major fault: 0 Minor fault: 2513
Allocated PAGES: 2513

stream: 
stream:times selected: 1217500
stream:pref_filled: 125079
stream:pref_useful: 25783
stream:pref_late: 7761
stream:misses: 9001
stream:misses_by_poll: 0

CS: 
CS:times selected: 183505
CS:pref_filled: 63865
CS:pref_useful: 39628
CS:pref_late: 7244
CS:misses: 18428
CS:misses_by_poll: 0

CPLX: 
CPLX:times selected: 1032808
CPLX:pref_filled: 22348
CPLX:pref_useful: 6303
CPLX:pref_late: 3128
CPLX:misses: 105262
CPLX:misses_by_poll: 0

NL_L1: 
NL:times selected: 15271
NL:pref_filled: 895
NL:pref_useful: 289
NL:pref_late: 211
NL:misses: 1342
NL:misses_by_poll: 0

total selections: 2449084
total_filled: 99568
total_useful: 38017
total_late: 19859
total_polluted: 0
total_misses_after_warmup: 777168
conflicts: 5497498

test: 119060

DRAM Statistics
 CHANNEL 0
 RQ ROW_BUFFER_HIT:      10140  ROW_BUFFER_MISS:      17278
 DBUS_CONGESTED:          6
 WQ ROW_BUFFER_HIT:       1397  ROW_BUFFER_MISS:      12112  FULL:          0

 AVG_CONGESTED_CYCLE: 7

CPU 0 Branch Prediction Accuracy: 99.8217% MPKI: 0.32628 Average ROB Occupancy at Mispredict: 191.514
Branch types
NOT_BRANCH: 40850719 81.7014%
BRANCH_DIRECT_JUMP: 547639 1.09528%
BRANCH_INDIRECT: 182862 0.365724%
BRANCH_CONDITIONAL: 6196911 12.3938%
BRANCH_DIRECT_CALL: 939992 1.87998%
BRANCH_INDIRECT_CALL: 170732 0.341464%
BRANCH_RETURN: 1110693 2.22139%
BRANCH_OTHER: 0 0%

DRAM PAGES: 1048576
Allocated PAGES: 2513
Average_ROB_Occupancy: 252.073
Average_Decode_Occupancy: 38.4285
Average_FTQ_Occupancy: 14.9812
Indirect max targets: 14 Average targets: 1.15306
Branch_type:  BRANCH_DIRECT_JUMP:  Count Percentage: 1.63794 7.91795 3.60159 8.8288 2.13901 5.97265 1.71882 68.1832 
Branch_type:  BRANCH_INDIRECT:  Count Percentage: 6.14984 3.46423 8.1751 0 1.33215 9.69248 5.19225 65.9939 
Branch_type:  BRANCH_CONDITIONAL:  Count Percentage: 21.2296 7.20948 1.61809 4.77031 1.73278 4.45271 2.65221 56.3349 
Branch_type:  BRANCH_DIRECT_CALL:  Count Percentage: 0.262538 1.46901 1.30875 3.88877 2.33934 2.24303 3.53148 84.9571 
Branch_type:  BRANCH_INDIRECT_CALL:  Count Percentage: 9.55769 0 2.99451 8.73575 0 1.71102 6.43708 70.5639 
Branch_type:  BRANCH_RETURN:  Count Percentage: 4.40022 4.73573 0.757723 6.01684 2.97152 5.64318 4.06633 71.4085 
Branch_type:  BRANCH_DIRECT_JUMP:  Total Count: 17943 86738 39454 96716 23432 65428 18829 746920 
Branch_type:  BRANCH_INDIRECT:  Total Count: 22510 12680 29923 0 4876 35477 19005 241555 
Branch_type:  BRANCH_CONDITIONAL:  Total Count: 2630261 893227 200475 591023 214685 551674 328599 6979673 
Branch_type:  BRANCH_DIRECT_CALL:  Total Count: 4926 27563 24556 72965 43893 42086 66261 1594048 
Branch_type:  BRANCH_INDIRECT_CALL:  Total Count: 32594 0 10212 29791 0 5835 21952 240640 
Branch_type:  BRANCH_RETURN:  Total Count: 97601 105043 16807 133459 65911 125171 90195 1583906 
Number of unique branch instructions: 9973
Upper 32 bits: 
aaaa
ffff
ffff0000
Unique upper 32 bits: 3
Unique upper 36 bits: 3
Unique upper 40 bits: 5
Unique upper 44 bits: 32
Unique upper 48 bits: 154
Variant_0 : 1406 0.343262
Variant_1 : 2563 0.625732
Variant_2 : 0 0
Variant_3 : 0 0
Offset_3 4118
Offset_4 252
Offset_5 458
Offset_6 506
Offset_7 593
Offset_8 512
Offset_9 469
Offset_10 388
Offset_11 322
Offset_12 288
Offset_13 201
Offset_14 232
Offset_15 191
Offset_16 223
Offset_17 144
Offset_18 126
Offset_19 243
Offset_20 143
Offset_21 235
Offset_22 393
Offset_23 241
Offset_24 329
Offset_25 88
Offset_47 80
decode_dispatch_called: 26389588 73.8709
Dispatch_width: 0 14173650 53.7093 39.6755
Dispatch_width: 1 1053129 3.9907 2.94796
Dispatch_width: 2 856252 3.24466 2.39686
Dispatch_width: 3 500946 1.89827 1.40227
Dispatch_width: 4 6499003 24.6271 18.1923
Dispatch_width: 5 104475 0.395895 0.292451
Dispatch_width: 6 3202133 12.1341 8.96355
Empty_decode_cycles: 9334344 26.1291
ROB_full_cycles: 10207388 28.573
Starvation_cycles_per_kilo_instr: 223.144
Starvation_cycles_per_kilo_instr_3: 157.109
Starvation_cycles_per_kilo_instr_0: 133.006
Branch_type_1  (3,1)  (4,9)  (5,37)  (6,69)  (7,117)  (8,127)  (9,124)  (10,99)  (11,73)  (12,51)  (13,5)  (14,2)  (15,3)  (16,4)  (18,1)  (19,4)  (20,2)  (21,1)  (22,3)  (23,2)  (24,10)  (25,12) 
Branch_type_2  (3,1)  (5,1)  (8,3)  (9,3)  (12,1)  (13,1)  (14,1)  (16,3)  (17,2)  (20,2)  (21,2)  (23,5)  (24,1)  (47,36) 
Branch_type_3  (3,4116)  (4,243)  (5,416)  (6,421)  (7,444)  (8,319)  (9,256)  (10,158)  (11,134)  (12,58)  (13,4) 
Branch_type_4  (6,4)  (7,8)  (8,26)  (9,54)  (10,62)  (11,59)  (12,99)  (13,87)  (14,102)  (15,91)  (16,100)  (17,65)  (18,57)  (19,116)  (20,74)  (21,124)  (22,208)  (23,136)  (24,189)  (25,72) 
Branch_type_5  (8,2)  (9,1)  (10,3)  (11,5)  (12,3)  (13,14)  (14,17)  (15,11)  (16,20)  (17,11)  (18,16)  (19,12)  (20,10)  (21,13)  (22,42)  (23,26)  (24,37) 
Branch_type_6  (5,4)  (6,12)  (7,24)  (8,35)  (9,31)  (10,66)  (11,51)  (12,76)  (13,90)  (14,110)  (15,86)  (16,96)  (17,66)  (18,52)  (19,111)  (20,55)  (21,95)  (22,140)  (23,72)  (24,92)  (25,4)  (47,44) 
Unique trigger count: 
Variant_0_evicts_0 : 0
Variant_0_evicts_1 : 0
Variant_0_evicts_2 : 0
Variant_0_evicts_3 : 0
Variant_1_evicts_0 : 0
Variant_1_evicts_1 : 0
Variant_1_evicts_2 : 0
Variant_1_evicts_3 : 0
Variant_2_evicts_0 : 0
Variant_2_evicts_1 : 0
Variant_2_evicts_2 : 0
Variant_2_evicts_3 : 0
Variant_3_evicts_0 : 0
Variant_3_evicts_1 : 0
Variant_3_evicts_2 : 0
Variant_3_evicts_3 : 0
BTB PER SET UNIQUE ADDR: 29 23 30 25 24 27 25 27 23 24 27 27 27 24 26 26 27 30 28 25 31 23 24 28 26 24 24 27 34 27 32 23 24 29 26 22 26 26 26 24 29 23 25 26 20 29 26 27 27 20 24 28 27 26 29 28 28 26 30 22 26 26 24 26 26 25 25 28 24 28 24 25 26 24 23 28 26 25 27 26 29 26 28 26 26 27 22 25 25 21 31 20 21 29 22 24 30 24 25 27 22 23 27 27 24 29 28 28 27 24 23 25 23 24 26 28 26 24 29 27 31 25 30 29 27 26 27 29 24 26 26 24 25 25 24 30 27 25 23 29 25 25 25 26 23 26 21 28 26 26 26 28 25 29 26 27 29 28 27 23 25 25 25 28 28 26 28 26 24 22 31 27 24 27 22 24 26 23 24 27 26 28 25 22 29 27 22 25 25 26 29 25 27 25 22 27 22 27 24 23 27 26 28 29 26 24 26 26 26 26 28 29 29 27 23 25 30 23 26 28 22 28 24 25 25 25 24 29 25 25 24 27 24 23 26 32 24 30 23 25 28 22 29 25 26 25 28 22 26 25 26 25 28 21 28 28 
BTB PER SET COUNT: 31 23 2453 26 29 33 26 28 26 27 27 1236 410 25 27 26 2179 1369 28 25 34 1020 24 54 28 115 1021 33 2860 27 34 115 25 32 7904 24 1486 26 1487 25 1028 490 30 28 23 1525 29 32 943 21 37 33 33 27 29 424 32 29 32 2020 26 31 25 1087 34 27 1024 31 24 667 24 31 414 27 982 28 28 593 30 31 31 1488 32 28 29 30 25 28 1217 22 74 21 1980 439 22 526 1369 30 1027 32 1943 34 85 29 28 31 32 1500 550 24 32 27 1482 984 708 28 33 25 1925 2859 37 29 4126 1953 36 32 528 2451 24 27 26 984 27 28 1325 33 28 1122 23 29 2864 1483 27 486 33 648 48 33 29 2448 1532 32 2484 34 29 43 3456 1506 34 28 28 28 1118 267 1037 35 535 31 29 23 41 1026 25 988 26 45 3019 25 1360 30 40 36 1484 116 2594 1488 24 28 27 26 2947 27 15590 26 1022 1308 22 70 73 24 31 984 1242 1509 32 526 4399 469 530 1489 202 1679 1219 2951 534 26 2379 113 539 32 24 777 1097 29 306 25 2486 2246 1485 30 2086 2915 25 25 26 651 2595 534 1244 1027 67 27 549 993 1025 111 28 20448 30 30 28 29 150 21 31 46 
To predecode: 0
Predecoding something: 0
Predecode request dropped: 0
sizeofblock_0 0
sizeofblock_1 37561
sizeofblock_2 93189
sizeofblock_3 0
sizeofblock_4 0
sizeofblock_5 0
sizeofblock_6 0
sizeofblock_7 0
sizeofblock_8 0
Variant_0 Correct: 1609721 Incorrect: 0 Accuracy: 1
Variant_1 Correct: 5713528 Incorrect: 0 Accuracy: 1
Variant_2 Correct: 0 Incorrect: 0 Accuracy: -nan
Variant_3 Correct: 0 Incorrect: 0 Accuracy: -nan
