
*** ChampSim Multicore Out-of-Order Simulator ***

Warmup Instructions: 50000000
Simulation Instructions: 50000000
Number of CPUs: 1
LLC sets: 2048
LLC ways: 16
Off-chip DRAM Size: 4096 MB Channels: 1 Width: 64-bit Data Rate: 6400 MT/s
CPU 0 runs ./micro_traces/srv763.trace.gz
.gz
ITLB has LRU replacement policy
DTLB has LRU replacement policy
STLB has LRU replacement policy
L1I has LRU replacement policy
L1D has LRU replacement policy
Initialize SRRIP state for L2C
Initialize DRRIP state for LLC
Heartbeat_Variant_0 : 1340 0.327148 per_variant_size: 0 1340 0 0 0 0 0 0 0 
Heartbeat_Variant_1 : 1219 0.297607 per_variant_size: 0 579 640 0 0 0 0 0 0 
Heartbeat_Variant_2 : 1288 0.314453 per_variant_size: 0 508 346 230 204 0 0 0 0 
Heartbeat_Variant_3 : 0 0 per_variant_size: 0 0 0 0 0 0 0 0 0 
Heartbeat_Variant_0_evicts 0 : 5852 1 : 227 2 : 263 3 : 0 
Heartbeat_Variant_1_evicts 0 : 215 1 : 0 2 : 392 3 : 0 
Heartbeat_Variant_2_evicts 0 : 249 1 : 391 2 : 0 3 : 0 
Heartbeat_Variant_3_evicts 0 : 0 1 : 0 2 : 0 3 : 0 
Heartbeat CPU 0 instructions: 10000000 cycles: 2797459 heartbeat IPC: 3.57467 cumulative IPC: 3.57467 (Simulation time: 0 hr 0 min 43 sec) 
Heartbeat_Variant_0 : 1365 0.333252 per_variant_size: 0 1365 0 0 0 0 0 0 0 
Heartbeat_Variant_1 : 1240 0.302734 per_variant_size: 0 580 660 0 0 0 0 0 0 
Heartbeat_Variant_2 : 1326 0.32373 per_variant_size: 0 538 347 223 218 0 0 0 0 
Heartbeat_Variant_3 : 0 0 per_variant_size: 0 0 0 0 0 0 0 0 0 
Heartbeat_Variant_0_evicts 0 : 5666 1 : 101 2 : 119 3 : 0 
Heartbeat_Variant_1_evicts 0 : 100 1 : 0 2 : 303 3 : 0 
Heartbeat_Variant_2_evicts 0 : 117 1 : 310 2 : 0 3 : 0 
Heartbeat_Variant_3_evicts 0 : 0 1 : 0 2 : 0 3 : 0 
Heartbeat CPU 0 instructions: 20000002 cycles: 5594543 heartbeat IPC: 3.57515 cumulative IPC: 3.57491 (Simulation time: 0 hr 1 min 19 sec) 
Heartbeat_Variant_0 : 1400 0.341797 per_variant_size: 0 1400 0 0 0 0 0 0 0 
Heartbeat_Variant_1 : 1279 0.312256 per_variant_size: 0 562 717 0 0 0 0 0 0 
Heartbeat_Variant_2 : 1348 0.329102 per_variant_size: 0 508 350 259 231 0 0 0 0 
Heartbeat_Variant_3 : 0 0 per_variant_size: 0 0 0 0 0 0 0 0 0 
Heartbeat_Variant_0_evicts 0 : 5784 1 : 281 2 : 249 3 : 0 
Heartbeat_Variant_1_evicts 0 : 286 1 : 0 2 : 470 3 : 0 
Heartbeat_Variant_2_evicts 0 : 241 1 : 468 2 : 0 3 : 0 
Heartbeat_Variant_3_evicts 0 : 0 1 : 0 2 : 0 3 : 0 
Heartbeat CPU 0 instructions: 30000003 cycles: 8390893 heartbeat IPC: 3.57609 cumulative IPC: 3.57531 (Simulation time: 0 hr 1 min 56 sec) 
Heartbeat_Variant_0 : 1402 0.342285 per_variant_size: 0 1402 0 0 0 0 0 0 0 
Heartbeat_Variant_1 : 1282 0.312988 per_variant_size: 0 559 723 0 0 0 0 0 0 
Heartbeat_Variant_2 : 1345 0.328369 per_variant_size: 0 502 348 258 237 0 0 0 0 
Heartbeat_Variant_3 : 0 0 per_variant_size: 0 0 0 0 0 0 0 0 0 
Heartbeat_Variant_0_evicts 0 : 5638 1 : 11 2 : 16 3 : 0 
Heartbeat_Variant_1_evicts 0 : 10 1 : 0 2 : 207 3 : 0 
Heartbeat_Variant_2_evicts 0 : 15 1 : 204 2 : 0 3 : 0 
Heartbeat_Variant_3_evicts 0 : 0 1 : 0 2 : 0 3 : 0 
Heartbeat CPU 0 instructions: 40000003 cycles: 11187082 heartbeat IPC: 3.5763 cumulative IPC: 3.57555 (Simulation time: 0 hr 2 min 33 sec) 
Heartbeat_Variant_0 : 1396 0.34082 per_variant_size: 0 1396 0 0 0 0 0 0 0 
Heartbeat_Variant_1 : 1289 0.314697 per_variant_size: 0 565 724 0 0 0 0 0 0 
Heartbeat_Variant_2 : 1352 0.330078 per_variant_size: 0 509 334 266 243 0 0 0 0 
Heartbeat_Variant_3 : 0 0 per_variant_size: 0 0 0 0 0 0 0 0 0 
Heartbeat_Variant_0_evicts 0 : 5664 1 : 77 2 : 81 3 : 0 
Heartbeat_Variant_1_evicts 0 : 79 1 : 0 2 : 293 3 : 0 
Heartbeat_Variant_2_evicts 0 : 88 1 : 289 2 : 0 3 : 0 
Heartbeat_Variant_3_evicts 0 : 0 1 : 0 2 : 0 3 : 0 
Heartbeat CPU 0 instructions: 50000001 cycles: 13984183 heartbeat IPC: 3.57513 cumulative IPC: 3.57547 (Simulation time: 0 hr 3 min 10 sec) 

Warmup complete CPU 0 instructions: 50000001 cycles: 13984183 (Simulation time: 0 hr 3 min 10 sec) 

Cycle: 20000000 FTQ IN: 55094422 FTQ occupancy: 15.5606 DECODE IN: 55094404 DECODE occupancy: 9.42394 ROB IN: 55094401 ROB occupancy: 257.546 ROB OUT: 55094319
Heartbeat_Variant_0 : 1400 0.341797 per_variant_size: 0 1400 0 0 0 0 0 0 0 
Heartbeat_Variant_1 : 1286 0.313965 per_variant_size: 0 562 724 0 0 0 0 0 0 
Heartbeat_Variant_2 : 1356 0.331055 per_variant_size: 0 517 341 257 241 0 0 0 0 
Heartbeat_Variant_3 : 0 0 per_variant_size: 0 0 0 0 0 0 0 0 0 
Heartbeat_Variant_0_evicts 0 : 5684 1 : 87 2 : 116 3 : 0 
Heartbeat_Variant_1_evicts 0 : 81 1 : 0 2 : 290 3 : 0 
Heartbeat_Variant_2_evicts 0 : 120 1 : 288 2 : 0 3 : 0 
Heartbeat_Variant_3_evicts 0 : 0 1 : 0 2 : 0 3 : 0 
Heartbeat CPU 0 instructions: 60000000 cycles: 25728738 heartbeat IPC: 0.851458 cumulative IPC: 0.851458 (Simulation time: 0 hr 3 min 45 sec) 
Cycle: 30000000 FTQ IN: 8555656 FTQ occupancy: 13.8642 DECODE IN: 8555668 DECODE occupancy: 4.67917 ROB IN: 8555671 ROB occupancy: 48.1489 ROB OUT: 8555753
Heartbeat_Variant_0 : 1405 0.343018 per_variant_size: 0 1405 0 0 0 0 0 0 0 
Heartbeat_Variant_1 : 1287 0.314209 per_variant_size: 0 570 717 0 0 0 0 0 0 
Heartbeat_Variant_2 : 1358 0.331543 per_variant_size: 0 520 337 267 234 0 0 0 0 
Heartbeat_Variant_3 : 0 0 per_variant_size: 0 0 0 0 0 0 0 0 0 
Heartbeat_Variant_0_evicts 0 : 5616 1 : 69 2 : 56 3 : 0 
Heartbeat_Variant_1_evicts 0 : 60 1 : 0 2 : 282 3 : 0 
Heartbeat_Variant_2_evicts 0 : 61 1 : 277 2 : 0 3 : 0 
Heartbeat_Variant_3_evicts 0 : 0 1 : 0 2 : 0 3 : 0 
Heartbeat CPU 0 instructions: 70000002 cycles: 37605267 heartbeat IPC: 0.841997 cumulative IPC: 0.846701 (Simulation time: 0 hr 4 min 20 sec) 
Cycle: 40000000 FTQ IN: 8401530 FTQ occupancy: 13.88 DECODE IN: 8401531 DECODE occupancy: 4.67961 ROB IN: 8401531 ROB occupancy: 50.1277 ROB OUT: 8401531
Heartbeat_Variant_0 : 1393 0.340088 per_variant_size: 0 1393 0 0 0 0 0 0 0 
Heartbeat_Variant_1 : 1292 0.31543 per_variant_size: 0 591 701 0 0 0 0 0 0 
Heartbeat_Variant_2 : 1369 0.334229 per_variant_size: 0 542 345 252 230 0 0 0 0 
Heartbeat_Variant_3 : 0 0 per_variant_size: 0 0 0 0 0 0 0 0 0 
Heartbeat_Variant_0_evicts 0 : 5812 1 : 126 2 : 125 3 : 0 
Heartbeat_Variant_1_evicts 0 : 133 1 : 0 2 : 315 3 : 0 
Heartbeat_Variant_2_evicts 0 : 131 1 : 318 2 : 0 3 : 0 
Heartbeat_Variant_3_evicts 0 : 0 1 : 0 2 : 0 3 : 0 
Heartbeat CPU 0 instructions: 80000001 cycles: 49357542 heartbeat IPC: 0.850899 cumulative IPC: 0.848096 (Simulation time: 0 hr 4 min 55 sec) 
Cycle: 50000000 FTQ IN: 8501163 FTQ occupancy: 13.8183 DECODE IN: 8501151 DECODE occupancy: 4.66328 ROB IN: 8501151 ROB occupancy: 47.9749 ROB OUT: 8501129
Cycle: 60000000 FTQ IN: 8408617 FTQ occupancy: 13.9203 DECODE IN: 8408622 DECODE occupancy: 4.68064 ROB IN: 8408610 ROB occupancy: 49.9312 ROB OUT: 8408591
Heartbeat_Variant_0 : 1399 0.341553 per_variant_size: 0 1399 0 0 0 0 0 0 0 
Heartbeat_Variant_1 : 1286 0.313965 per_variant_size: 0 575 711 0 0 0 0 0 0 
Heartbeat_Variant_2 : 1369 0.334229 per_variant_size: 0 532 348 255 234 0 0 0 0 
Heartbeat_Variant_3 : 0 0 per_variant_size: 0 0 0 0 0 0 0 0 0 
Heartbeat_Variant_0_evicts 0 : 5612 1 : 35 2 : 41 3 : 0 
Heartbeat_Variant_1_evicts 0 : 31 1 : 0 2 : 223 3 : 0 
Heartbeat_Variant_2_evicts 0 : 39 1 : 225 2 : 0 3 : 0 
Heartbeat_Variant_3_evicts 0 : 0 1 : 0 2 : 0 3 : 0 
Heartbeat CPU 0 instructions: 90000001 cycles: 61222316 heartbeat IPC: 0.842831 cumulative IPC: 0.846774 (Simulation time: 0 hr 5 min 30 sec) 
Cycle: 70000000 FTQ IN: 8522502 FTQ occupancy: 13.868 DECODE IN: 8522508 DECODE occupancy: 4.68884 ROB IN: 8522508 ROB occupancy: 48.4605 ROB OUT: 8522496
Heartbeat_Variant_0 : 1403 0.342529 per_variant_size: 0 1403 0 0 0 0 0 0 0 
Heartbeat_Variant_1 : 1286 0.313965 per_variant_size: 0 574 712 0 0 0 0 0 0 
Heartbeat_Variant_2 : 1366 0.333496 per_variant_size: 0 508 375 252 231 0 0 0 0 
Heartbeat_Variant_3 : 0 0 per_variant_size: 0 0 0 0 0 0 0 0 0 
Heartbeat_Variant_0_evicts 0 : 5588 1 : 28 2 : 40 3 : 0 
Heartbeat_Variant_1_evicts 0 : 29 1 : 0 2 : 231 3 : 0 
Heartbeat_Variant_2_evicts 0 : 35 1 : 232 2 : 0 3 : 0 
Heartbeat_Variant_3_evicts 0 : 0 1 : 0 2 : 0 3 : 0 
Heartbeat CPU 0 instructions: 100000000 cycles: 72965822 heartbeat IPC: 0.851534 cumulative IPC: 0.847721 (Simulation time: 0 hr 6 min 4 sec) 
Finished CPU 0 instructions: 50000001 cycles: 58981645 cumulative IPC: 0.847721 (Simulation time: 0 hr 6 min 4 sec) 

ChampSim completed all CPUs

Region of Interest Statistics

CPU 0 cumulative IPC: 0.847721 instructions: 50000001 cycles: 58981645
 Fetch stage stalled: 37.4968  Sim cycles: 58981645 fetch stall cycle: 22116213
 Empty decode stage: 70.6582  Sim cycles: 58981645 fetch stall cycle: 41675361
ITLB TOTAL     ACCESS:    7239503  HIT:    6749149  MISS:     490354  HIT %:    93.2267  MISS %:    6.77331   MPKI: 9.80708
ITLB LOAD TRANSLATION INSTRUCTION	ACCESS:    7239503  HIT:    6749149  MISS:     490354  HIT %:    93.2267  MISS %:    6.77331  MPKI: 9.80708

ITLB AVERAGE MISS LATENCY: 9.0355 cycles
ITLB RQ	ACCESS:    8372974	FORWARD:          0	MERGED:     930519	TO_CACHE:    7442455

DTLB TOTAL     ACCESS:   10440676  HIT:    9962438  MISS:     478238  HIT %:    95.4195  MISS %:    4.58053   MPKI: 9.56476
DTLB LOAD TRANSLATION DATA	ACCESS:   10440676  HIT:    9962438  MISS:     478238  HIT %:    95.4195  MISS %:    4.58053  MPKI: 9.56476

DTLB AVERAGE MISS LATENCY: 9.27873 cycles
DTLB RQ	ACCESS:   14496302	FORWARD:          0	MERGED:    4026535	TO_CACHE:   10469767

STLB TOTAL     ACCESS:    1229921  HIT:    1227971  MISS:       1950  HIT %:    99.8415  MISS %:   0.158547   MPKI: 0.039
STLB LOAD TRANSLATION INSTRUCTION	ACCESS:     490354  HIT:     490120  MISS:        234  HIT %:    99.9523  MISS %:  0.0477206  MPKI: 0.00468
STLB LOAD TRANSLATION DATA	ACCESS:     478227  HIT:     476520  MISS:       1707  HIT %:    99.6431  MISS %:   0.356943  MPKI: 0.03414
STLB TRANSLATION FROM L1D PREFETCHER DATA	ACCESS:     261340  HIT:     261331  MISS:          9  HIT %:    99.9966  MISS %: 0.00344379  MPKI: 0.00018

STLB AVERAGE MISS LATENCY: 66.5492 cycles
STLB RQ	ACCESS:    1360310	FORWARD:          0	MERGED:     130358	TO_CACHE:    1229952

STLB Hit, L1D data hit: 0
STLB Hit, L2C data hit: 0
STLB Hit, LLC data hit: 0
STLB Hit, LLC data miss: 0
STLB STLB hints to L2: 0
L1D TOTAL     ACCESS:   14297146  HIT:   13159515  MISS:    1137631  HIT %:     92.043  MISS %:    7.95705   MPKI: 22.7526
L1D LOAD DATA	ACCESS:    7667950  HIT:    6918389  MISS:     749561  HIT %:    90.2248  MISS %:    9.77525  MPKI: 14.9912
L1D RFO DATA	ACCESS:    6293367  HIT:    6003418  MISS:     289949  HIT %:    95.3928  MISS %:    4.60722  MPKI: 5.79898
L1D PREFETCH DATA	ACCESS:     335829  HIT:     237708  MISS:      98121  HIT %:    70.7825  MISS %:    29.2175  MPKI: 1.96242

L1D PREFETCH  REQUESTED:     783641  ISSUED:     783641  USEFUL:      43067  USELESS:      67152
L1D USEFUL LOAD PREFETCHES:      43067 PREFETCH ISSUED TO LOWER LEVEL:     110370  ACCURACY: 39.0206
 TIMELY PREFETCHES:      43067 LATE PREFETCHES: 12086 DROPPED PREFETCHES: 5
L1D AVERAGE MISS LATENCY: 463561 cycles
L1D RQ	ACCESS:   11463475	FORWARD:          0	MERGED:    3613600	TO_CACHE:    7699045
L1D WQ	ACCESS:    6912607	FORWARD:     151035	MERGED:     115350	TO_CACHE:    6797257
L1D PQ	ACCESS:     391923	FORWARD:          0	MERGED:          0	TO_CACHE:     391718

L1D UNIQUE REGIONS ACCESSED: 0
L1D REGIONS CONFLICTS: 0
L1D Cross Page Prefetch Requests: 5740
L1D Same Page Prefetch Requests: 789718
L1D ROI Sum of L1D PQ occupancy: 4967711
L1D PREFETCHES PUSHED FROM L2C: 0
L1I TOTAL     ACCESS:    7878068  HIT:    5136259  MISS:    2741809  HIT %:    65.1969  MISS %:    34.8031   MPKI: 54.8362
L1I LOAD INSTRUCTION	ACCESS:    7878068  HIT:    5136259  MISS:    2741809  HIT %:    65.1969  MISS %:    34.8031  MPKI: 54.8362

L1I AVERAGE MISS LATENCY: 16.8875 cycles
L1I RQ	ACCESS:   15254244	FORWARD:          0	MERGED:    6881270	TO_CACHE:    8372974

L1BTB TOTAL     ACCESS:    5678614  HIT:    2075727  MISS:    3602887  HIT %:    36.5534  MISS %:    63.4466   MPKI: 72.0577
L1BTB BRANCH_DIRECT_JUMP	ACCESS:     546207  HIT:     145244  MISS:     400963	AVERAGE STALL: 21.5962
L1BTB BRANCH_INDIRECT	ACCESS:     182640  HIT:      66257  MISS:     116383	AVERAGE STALL: 48.4838
L1BTB BRANCH_CONDITIONAL	ACCESS:    2728568  HIT:    1445509  MISS:    1283059	AVERAGE STALL: 27.5987
L1BTB BRANCH_DIRECT_CALL	ACCESS:     939598  HIT:     106229  MISS:     833369	AVERAGE STALL: 30.996
L1BTB BRANCH_INDIRECT_CALL	ACCESS:     171010  HIT:      21612  MISS:     149398	AVERAGE STALL: 63.5413
L1BTB BRANCH_RETURN	ACCESS:    1110591  HIT:     290876  MISS:     819715	AVERAGE STALL: 32.5886
L1BTB BRANCH_OTHER ACCESS:          0  HIT:          0  MISS:          0	AVERAGE STALL: -nan
L1BTB TOTAL ROB OCCUPANCY AT BTB MISS: 0.563968

L2BTB TOTAL     ACCESS:    3577532  HIT:    3513151  MISS:      64381  HIT %:    98.2004  MISS %:    1.79959   MPKI: 1.28762
L2BTB BRANCH_DIRECT_JUMP	ACCESS:     396770  HIT:     392725  MISS:       4045	AVERAGE STALL: 21.5962
L2BTB BRANCH_INDIRECT	ACCESS:     106167  HIT:     103484  MISS:       2683	AVERAGE STALL: 48.4838
L2BTB BRANCH_CONDITIONAL	ACCESS:    1283059  HIT:    1279440  MISS:       3619	AVERAGE STALL: 27.5987
L2BTB BRANCH_DIRECT_CALL	ACCESS:     833369  HIT:     831869  MISS:       1500	AVERAGE STALL: 30.996
L2BTB BRANCH_INDIRECT_CALL	ACCESS:     139843  HIT:     129581  MISS:      10262	AVERAGE STALL: 63.5413
L2BTB BRANCH_RETURN	ACCESS:     818324  HIT:     776052  MISS:      42272	AVERAGE STALL: 32.5886
L2BTB BRANCH_OTHER ACCESS:          0  HIT:          0  MISS:          0	AVERAGE STALL: -nan
L2BTB TOTAL ROB OCCUPANCY AT BTB MISS: 31.5608

L2C TOTAL     ACCESS:    4491829  HIT:    4024745  MISS:     467084  HIT %:    89.6015  MISS %:    10.3985   MPKI: 9.34168
L2C LOAD INSTRUCTION	ACCESS:    2741809  HIT:    2492669  MISS:     249140  HIT %:    90.9133  MISS %:     9.0867  MPKI: 4.9828
L2C LOAD TRANSLATION INSTRUCTION	ACCESS:        267  HIT:         59  MISS:        208  HIT %:    22.0974  MISS %:    77.9026  MPKI: 0.00416
L2C LOAD DATA	ACCESS:     737451  HIT:     658881  MISS:      78570  HIT %:    89.3457  MISS %:    10.6543  MPKI: 1.5714
L2C RFO DATA	ACCESS:     289776  HIT:     239798  MISS:      49978  HIT %:    82.7529  MISS %:    17.2471  MPKI: 0.99956
L2C PREFETCH DATA	ACCESS:     198378  HIT:     124841  MISS:      73537  HIT %:    62.9309  MISS %:    37.0691  MPKI: 1.47074
L2C WRITEBACK DATA	ACCESS:     522336  HIT:     507932  MISS:      14404  HIT %:    97.2424  MISS %:    2.75761  MPKI: 0.28808
L2C LOAD TRANSLATION DATA	ACCESS:       1789  HIT:        552  MISS:       1237  HIT %:    30.8552  MISS %:    69.1448  MPKI: 0.02474
L2C TRANSLATION FROM L1D PREFETCHER DATA	ACCESS:         23  HIT:         13  MISS:         10  HIT %:    56.5217  MISS %:    43.4783  MPKI: 0.0002

L2C PREFETCH  REQUESTED:      95002  ISSUED:      95002  USEFUL:       8770  USELESS:      65399
L2C USEFUL LOAD PREFETCHES:       8770 PREFETCH ISSUED TO LOWER LEVEL:      74145  ACCURACY: 11.8282
 TIMELY PREFETCHES:       8770 LATE PREFETCHES: 608 DROPPED PREFETCHES: 0
L2C AVERAGE MISS LATENCY: 38.2288 cycles
L2C RQ	ACCESS:    3771149	FORWARD:          0	MERGED:          0	TO_CACHE:    3771115
L2C WQ	ACCESS:     522336	FORWARD:         34	MERGED:          0	TO_CACHE:     522336
L2C PQ	ACCESS:     205372	FORWARD:          0	MERGED:       3521	TO_CACHE:     201851

L2C Dense regions hint from L2: 0
PSCL5 TOTAL     ACCESS:       3916  HIT:       1958  MISS:       1958  HIT %:         50  MISS %:         50   MPKI: 0.03916
PSCL5 LOAD TRANSLATION INSTRUCTION	ACCESS:       3870  HIT:       1935  MISS:       1935  HIT %:         50  MISS %:         50  MPKI: 0.0387
PSCL5 TRANSLATION FROM L1D PREFETCHER INSTRUCTION	ACCESS:         46  HIT:         23  MISS:         23  HIT %:         50  MISS %:         50  MPKI: 0.00046


PSCL4 TOTAL     ACCESS:       3769  HIT:       1880  MISS:       1889  HIT %:    49.8806  MISS %:    50.1194   MPKI: 0.03778
PSCL4 LOAD TRANSLATION INSTRUCTION	ACCESS:       1999  HIT:       1858  MISS:        141  HIT %:    92.9465  MISS %:    7.05353  MPKI: 0.00282
PSCL4 TRANSLATION FROM L1D PREFETCHER INSTRUCTION	ACCESS:         22  HIT:         22  MISS:          0  HIT %:        100  MISS %:          0  MPKI: 0
PSCL4 LOAD TRANSLATION DATA	ACCESS:       1726  HIT:          0  MISS:       1726  HIT %:          0  MISS %:        100  MPKI: 0.03452
PSCL4 TRANSLATION FROM L1D PREFETCHER DATA	ACCESS:         22  HIT:          0  MISS:         22  HIT %:          0  MISS %:        100  MPKI: 0.00044


PSCL3 TOTAL     ACCESS:       3783  HIT:       1887  MISS:       1896  HIT %:     49.881  MISS %:     50.119   MPKI: 0.03792
PSCL3 LOAD TRANSLATION INSTRUCTION	ACCESS:       2006  HIT:       1865  MISS:        141  HIT %:    92.9711  MISS %:    7.02891  MPKI: 0.00282
PSCL3 TRANSLATION FROM L1D PREFETCHER INSTRUCTION	ACCESS:         22  HIT:         22  MISS:          0  HIT %:        100  MISS %:          0  MPKI: 0
PSCL3 LOAD TRANSLATION DATA	ACCESS:       1733  HIT:          0  MISS:       1733  HIT %:          0  MISS %:        100  MPKI: 0.03466
PSCL3 TRANSLATION FROM L1D PREFETCHER DATA	ACCESS:         22  HIT:          0  MISS:         22  HIT %:          0  MISS %:        100  MPKI: 0.00044


PSCL2 TOTAL     ACCESS:       3813  HIT:       1855  MISS:       1958  HIT %:    48.6494  MISS %:    51.3506   MPKI: 0.03916
PSCL2 LOAD TRANSLATION INSTRUCTION	ACCESS:       2066  HIT:       1832  MISS:        234  HIT %:    88.6738  MISS %:    11.3262  MPKI: 0.00468
PSCL2 TRANSLATION FROM L1D PREFETCHER INSTRUCTION	ACCESS:         23  HIT:         23  MISS:          0  HIT %:        100  MISS %:          0  MPKI: 0
PSCL2 LOAD TRANSLATION DATA	ACCESS:       1701  HIT:          0  MISS:       1701  HIT %:          0  MISS %:        100  MPKI: 0.03402
PSCL2 TRANSLATION FROM L1D PREFETCHER DATA	ACCESS:         23  HIT:          0  MISS:         23  HIT %:          0  MISS %:        100  MPKI: 0.00046


LLC TOTAL     ACCESS:     527721  HIT:     500354  MISS:      27367  HIT %:    94.8141  MISS %:    5.18588   MPKI: 0.54734
LLC LOAD INSTRUCTION	ACCESS:     249140  HIT:     248437  MISS:        703  HIT %:    99.7178  MISS %:   0.282171  MPKI: 0.01406
LLC LOAD TRANSLATION INSTRUCTION	ACCESS:        208  HIT:        186  MISS:         22  HIT %:    89.4231  MISS %:    10.5769  MPKI: 0.00044
LLC LOAD DATA	ACCESS:      77979  HIT:      74515  MISS:       3464  HIT %:    95.5578  MISS %:    4.44222  MPKI: 0.06928
LLC RFO DATA	ACCESS:      49958  HIT:      36644  MISS:      13314  HIT %:    73.3496  MISS %:    26.6504  MPKI: 0.26628
LLC PREFETCH DATA	ACCESS:      74145  HIT:      64669  MISS:       9476  HIT %:    87.2196  MISS %:    12.7804  MPKI: 0.18952
LLC WRITEBACK DATA	ACCESS:      75044  HIT:      74724  MISS:        320  HIT %:    99.5736  MISS %:   0.426417  MPKI: 0.0064
LLC LOAD TRANSLATION DATA	ACCESS:       1237  HIT:       1169  MISS:         68  HIT %:    94.5028  MISS %:    5.49717  MPKI: 0.00136
LLC TRANSLATION FROM L1D PREFETCHER DATA	ACCESS:         10  HIT:         10  MISS:          0  HIT %:        100  MISS %:          0  MPKI: 0

LLC AVERAGE MISS LATENCY: 155.117 cycles
LLC RQ	ACCESS:     378535	FORWARD:          0	MERGED:          0	TO_CACHE:     378532
LLC WQ	ACCESS:      75044	FORWARD:          3	MERGED:          0	TO_CACHE:      75044
LLC PQ	ACCESS:      74145	FORWARD:          0	MERGED:          0	TO_CACHE:      74145

LLC Dense regions hint to LLC: 0

RAW hits: 1148357
Loads Generated: 12611837
Loads sent to L1D: 11463475
Stores Generated: 6912591
Stores sent to L1D: 6912607
Major fault: 0 Minor fault: 2577
Allocated PAGES: 2577

stream: 
stream:times selected: 1229971
stream:pref_filled: 124092
stream:pref_useful: 28432
stream:pref_late: 7851
stream:misses: 8304
stream:misses_by_poll: 0

CS: 
CS:times selected: 191129
CS:pref_filled: 67811
CS:pref_useful: 44141
CS:pref_late: 8751
CS:misses: 21656
CS:misses_by_poll: 1

CPLX: 
CPLX:times selected: 1037822
CPLX:pref_filled: 23610
CPLX:pref_useful: 6568
CPLX:pref_late: 4247
CPLX:misses: 116752
CPLX:misses_by_poll: 12

NL_L1: 
NL:times selected: 11954
NL:pref_filled: 1388
NL:pref_useful: 247
NL:pref_late: 165
NL:misses: 1365
NL:misses_by_poll: 0

total selections: 2470876
total_filled: 98121
total_useful: 43067
total_late: 22986
total_polluted: 13
total_misses_after_warmup: 780659
conflicts: 6003181

test: 119887

DRAM Statistics
 CHANNEL 0
 RQ ROW_BUFFER_HIT:       9999  ROW_BUFFER_MISS:      17044
 DBUS_CONGESTED:          4
 WQ ROW_BUFFER_HIT:       1272  ROW_BUFFER_MISS:      11708  FULL:          0

 AVG_CONGESTED_CYCLE: 6

CPU 0 Branch Prediction Accuracy: 99.8226% MPKI: 0.32482 Average ROB Occupancy at Mispredict: 67.782
Branch types
NOT_BRANCH: 40846464 81.6929%
BRANCH_DIRECT_JUMP: 546207 1.09241%
BRANCH_INDIRECT: 182640 0.36528%
BRANCH_CONDITIONAL: 6203155 12.4063%
BRANCH_DIRECT_CALL: 939598 1.8792%
BRANCH_INDIRECT_CALL: 171010 0.34202%
BRANCH_RETURN: 1110591 2.22118%
BRANCH_OTHER: 0 0%

DRAM PAGES: 1048576
Allocated PAGES: 2577
Average_ROB_Occupancy: 49.5547
Average_Decode_Occupancy: 4.67284
Average_FTQ_Occupancy: 13.8544
Indirect max targets: 14 Average targets: 1.17089
Branch_type:  BRANCH_DIRECT_JUMP:  Count Percentage: 3.32052 6.19417 4.30402 8.81401 1.87569 6.00953 1.91814 67.5639 
Branch_type:  BRANCH_INDIRECT:  Count Percentage: 6.17261 3.47733 8.1595 9.69184 3.33604 2.80016 3.86041 62.5021 
Branch_type:  BRANCH_CONDITIONAL:  Count Percentage: 25.9299 3.20766 1.6015 4.11482 2.53423 3.64857 2.45931 56.504 
Branch_type:  BRANCH_DIRECT_CALL:  Count Percentage: 0.389221 1.76596 0.758728 3.64088 3.49153 2.73797 3.17717 84.0385 
Branch_type:  BRANCH_INDIRECT_CALL:  Count Percentage: 9.53067 0 2.98709 0.000878727 1.12213 2.03015 4.98209 79.347 
Branch_type:  BRANCH_RETURN:  Count Percentage: 7.52239 1.79183 1.29973 3.64018 4.11903 3.55167 3.80763 74.2675 
Branch_type:  BRANCH_DIRECT_JUMP:  Total Count: 36291 67698 47040 96331 20500 65680 20964 738427 
Branch_type:  BRANCH_INDIRECT:  Total Count: 22542 12699 29798 35394 12183 10226 14098 228254 
Branch_type:  BRANCH_CONDITIONAL:  Total Count: 3215936 397827 198625 510338 314306 452511 305014 7007867 
Branch_type:  BRANCH_DIRECT_CALL:  Total Count: 7305 33144 14240 68333 65530 51387 59630 1577257 
Branch_type:  BRANCH_INDIRECT_CALL:  Total Count: 32538 0 10198 3 3831 6931 17009 270893 
Branch_type:  BRANCH_RETURN:  Total Count: 166927 39762 28842 80778 91404 78814 84494 1648047 
Number of unique branch instructions: 10531
Upper 32 bits: 
aaaa
ffff
ffff0000
Unique upper 32 bits: 3
Unique upper 36 bits: 3
Unique upper 40 bits: 5
Unique upper 44 bits: 32
Unique upper 48 bits: 158
Variant_0 : 1403 0.342529
Variant_1 : 1286 0.313965
Variant_2 : 1366 0.333496
Variant_3 : 0 0
Offset_3 4360
Offset_4 258
Offset_5 477
Offset_6 532
Offset_7 618
Offset_8 563
Offset_9 503
Offset_10 414
Offset_11 333
Offset_12 295
Offset_13 228
Offset_14 233
Offset_15 198
Offset_16 228
Offset_17 163
Offset_18 146
Offset_19 260
Offset_20 141
Offset_21 235
Offset_22 402
Offset_23 241
Offset_24 348
Offset_25 114
Offset_47 92
decode_dispatch_called: 30610595 51.8985
Dispatch_width: 0 18499529 60.4351 31.3649
Dispatch_width: 1 2312342 7.55406 3.92044
Dispatch_width: 2 1140087 3.72448 1.93295
Dispatch_width: 3 1090375 3.56208 1.84867
Dispatch_width: 4 1006650 3.28857 1.70672
Dispatch_width: 5 1260247 4.11703 2.13668
Dispatch_width: 6 5301365 17.3187 8.98816
Empty_decode_cycles: 28371050 48.1015
ROB_full_cycles: 461553 0.782537
Starvation_cycles_per_kilo_instr: 532.187
Starvation_cycles_per_kilo_instr_3: 509.518
Starvation_cycles_per_kilo_instr_0: 464.09
Branch_type_1  (3,1)  (4,9)  (5,39)  (6,73)  (7,122)  (8,146)  (9,135)  (10,108)  (11,76)  (12,47)  (13,11)  (14,2)  (15,3)  (16,4)  (18,1)  (19,5)  (20,2)  (21,1)  (22,3)  (23,2)  (24,10)  (25,12) 
Branch_type_2  (3,1)  (4,1)  (5,1)  (8,4)  (9,4)  (10,1)  (12,1)  (13,1)  (14,1)  (16,3)  (17,2)  (20,2)  (21,2)  (23,5)  (24,1)  (47,42) 
Branch_type_3  (3,4358)  (4,248)  (5,433)  (6,443)  (7,466)  (8,346)  (9,274)  (10,168)  (11,130)  (12,54)  (13,10) 
Branch_type_4  (6,3)  (7,8)  (8,25)  (9,56)  (10,65)  (11,66)  (12,106)  (13,96)  (14,104)  (15,94)  (16,101)  (17,72)  (18,62)  (19,127)  (20,73)  (21,124)  (22,212)  (23,136)  (24,203)  (25,98) 
Branch_type_5  (8,3)  (9,1)  (10,4)  (11,5)  (12,3)  (13,14)  (14,16)  (15,11)  (16,22)  (17,13)  (18,23)  (19,14)  (20,11)  (21,13)  (22,43)  (23,26)  (24,38) 
Branch_type_6  (5,4)  (6,13)  (7,22)  (8,39)  (9,33)  (10,68)  (11,56)  (12,84)  (13,96)  (14,110)  (15,90)  (16,98)  (17,76)  (18,60)  (19,114)  (20,53)  (21,95)  (22,144)  (23,72)  (24,96)  (25,4)  (47,50) 
Unique trigger count: 
Variant_0_evicts_0 : 0
Variant_0_evicts_1 : 0
Variant_0_evicts_2 : 0
Variant_0_evicts_3 : 0
Variant_1_evicts_0 : 0
Variant_1_evicts_1 : 0
Variant_1_evicts_2 : 0
Variant_1_evicts_3 : 0
Variant_2_evicts_0 : 0
Variant_2_evicts_1 : 0
Variant_2_evicts_2 : 0
Variant_2_evicts_3 : 0
Variant_3_evicts_0 : 0
Variant_3_evicts_1 : 0
Variant_3_evicts_2 : 0
Variant_3_evicts_3 : 0
BTB PER SET UNIQUE ADDR: 12 11 7 17 12 11 10 10 10 16 8 16 16 11 8 14 12 13 12 15 12 15 13 14 9 19 8 9 15 13 12 14 11 10 9 14 9 13 10 10 10 13 13 11 11 8 14 11 15 11 12 10 13 9 10 7 12 12 11 16 14 12 14 12 15 13 10 11 14 11 12 15 13 9 13 9 11 15 9 12 18 10 11 12 17 13 13 10 6 24 9 7 11 11 8 14 9 8 9 10 15 16 13 13 10 8 10 9 7 11 12 18 15 14 6 8 12 12 13 12 16 10 9 8 16 11 6 10 17 14 13 13 9 14 10 14 11 19 10 12 8 13 8 14 13 12 12 8 7 15 11 15 15 13 10 17 14 14 16 12 13 9 16 14 16 16 9 12 15 12 11 13 9 13 15 10 11 13 11 12 10 14 12 11 17 14 6 8 13 16 15 15 12 10 16 14 12 11 11 16 15 17 12 9 12 11 14 10 11 11 10 15 14 13 14 6 10 14 13 19 9 15 7 14 8 9 18 9 9 15 10 6 12 18 11 14 14 12 9 9 10 7 15 13 10 13 10 8 13 9 11 6 14 12 16 15 11 11 11 12 10 11 6 11 7 9 9 9 9 9 6 8 11 6 11 11 11 17 8 9 12 12 9 10 14 6 12 17 19 15 11 12 17 10 8 14 11 12 13 12 10 12 12 22 17 9 15 5 17 15 12 20 10 17 14 9 17 12 13 13 14 14 13 13 12 14 12 10 8 10 13 12 6 11 7 15 9 15 8 20 16 10 9 19 11 11 13 10 15 8 14 10 12 12 15 17 10 14 8 12 12 20 12 19 11 13 11 12 17 17 14 9 17 14 10 13 14 14 12 13 10 6 9 8 6 12 16 13 13 11 12 14 12 15 12 12 16 5 16 9 13 13 13 11 16 10 12 12 12 10 11 9 10 19 9 13 13 15 20 22 10 17 10 10 11 7 11 7 11 13 15 12 9 14 10 17 16 10 14 11 14 10 8 18 18 9 12 11 12 12 14 15 13 10 14 14 17 12 13 17 10 13 10 16 16 9 10 12 10 13 8 9 10 11 10 14 15 20 8 12 12 15 12 14 6 16 20 12 11 12 12 17 12 10 13 12 15 17 13 13 12 15 12 15 7 7 9 15 14 13 10 17 13 10 15 16 13 15 12 12 9 15 14 10 13 20 17 6 9 16 16 13 16 10 12 18 10 11 11 12 11 15 13 14 21 12 8 15 11 13 15 15 11 12 11 12 13 9 17 14 13 15 11 15 13 17 10 14 10 16 12 17 12 9 10 14 16 19 8 11 10 10 11 16 17 9 17 11 19 15 8 8 12 14 17 12 10 12 11 13 13 9 14 10 14 16 12 14 11 10 15 13 12 13 6 10 11 18 9 14 20 10 11 11 12 16 12 21 11 19 7 13 15 13 12 11 12 13 8 16 12 14 11 13 7 11 14 15 15 9 13 10 9 10 15 12 13 12 12 11 12 7 12 15 13 16 9 11 11 13 12 14 9 13 13 9 13 19 13 13 10 18 11 13 11 14 9 18 15 13 18 13 16 9 8 10 10 10 8 17 9 13 13 18 4 13 13 13 12 9 9 15 7 13 14 6 20 7 10 12 11 11 12 13 9 9 12 13 12 9 15 11 10 10 12 13 11 13 21 9 9 11 10 13 15 12 14 16 12 9 13 12 10 11 14 14 19 8 15 13 11 10 8 10 14 17 12 17 18 13 11 15 9 11 9 11 12 11 18 12 6 14 14 11 12 10 7 13 12 3 10 8 18 16 16 14 9 16 14 8 14 7 14 16 16 10 11 11 12 14 13 14 12 11 9 16 17 14 11 13 12 16 11 14 10 16 10 12 12 13 13 12 13 9 13 17 10 11 12 10 9 12 9 16 11 18 13 18 8 10 14 13 10 12 8 16 16 12 16 16 15 12 10 11 14 8 11 10 15 10 12 13 14 11 20 4 15 13 13 15 17 9 12 16 12 14 18 10 12 15 15 8 11 8 10 14 16 12 9 12 14 7 13 16 9 16 11 7 15 12 12 12 15 16 16 11 13 12 12 13 11 17 10 13 7 10 10 12 12 9 15 16 18 12 11 15 9 14 19 14 11 17 13 10 8 8 15 15 15 16 15 13 13 8 10 15 14 12 12 9 8 13 8 18 13 11 16 13 8 12 13 18 14 8 19 15 15 19 18 18 11 12 12 17 10 12 13 11 13 10 17 9 12 12 16 13 14 13 14 13 15 16 9 13 19 10 6 18 11 18 9 15 15 9 8 13 5 9 9 12 13 17 10 9 
BTB PER SET COUNT: 1006 13 1994 19 1467 20 12 10 1445 17 14 1235 20331 1469 9 24 1056 1368 368 20 18 19 16 33 14 28 10 16 113 352 16 23 19 15 12 19 10 19 13 1853 10 24 16 16 1473 9 23 15 1339 15 16 508 20 11 14 268 12 18 273 26 29 1080 15 12 22 33 11 1795 15 11 21 850 23 9 16 9 14 19 13 15 21 17 17 18 19 14 20 10 7 39 11 9 508 25 9 16 79 970 14 12 18 35 25 367 294 9 17 12 998 12 16 35 27 21 7 163 20 14 1680 14 27 11 11 11 17 15 7 18 25 517 20 15 13 21 15 15 747 24 18 17 12 248 9 21 16 211 1410 8 9 165 16 291 598 17 10 26 17 20 20 249 23 157 32 14 1470 481 13 15 22 1836 11 15 13 17 17 17 19 20 1224 759 18 161 2608 11 20 18 6 9 1005 1052 27 21 13 13 17 16 14 712 14 382 21 22 974 17 17 13 18 28 14 14 13 41 20 1977 22 6 13 17 1291 27 10 19 8 16 14 10 26 82 11 25 10 8 12 26 17 24 15 14 9 19 11 8 27 15 14 16 17 10 362 9 13 7 17 13 23 20 16 12 13 14 142 17 8 18 9 10 13 16 1991 10 6 8 14 6 12 15 14 23 9 12 16 16 969 10 22 6 14 23 29 22 14 15 21 138 12 28 1826 16 17 21 12 16 13 35 29 183 106 5 179 1011 16 31 11 31 21 12 21 15 21 27 21 2378 19 18 15 16 286 13 9 13 16 15 7 15 8 22 15 804 8 25 24 2660 10 79 22 12 17 18 18 9 24 14 14 16 19 21 10 21 8 16 17 40 13 33 15 286 16 15 28 24 15 193 22 1956 973 19 19 25 18 39 290 6 969 8 7 15 450 18 13 13 109 18 17 24 14 14 16 6 27 23 17 17 18 14 25 14 20 336 18 17 14 9 12 562 9 18 17 44 394 33 17 29 12 18 14 9 18 7 13 15 20 15 12 19 150 28 28 40 16 15 474 18 10 26 1768 15 477 16 14 15 21 698 25 14 18 21 29 12 14 23 19 18 15 22 21 10 12522 12 13 21 10 10 11 13 20 17 20 30 10 25 19 21 18 22 11 26 24 18 13 75 43 21 235 12 17 18 151 20 13 16 18 19 16 149 8 11 13 25 14 18 13 1038 511 1001 20 26 17 21 13 643 9 20 26 474 17 31 19 6 9 1750 20 101 28 10 13 25 14 1005 15 433 15 24 40 16 35 17 8 20 17 463 30 21 16 18 17 16 18 9 25 23 15 28 21 23 33 25 125 21 12 49 20 26 20 13 15 21 18 1945 9 14 15 16 24 1394 28 10 902 15 26 20 9 8 18 20 25 15 15 387 190 13 18 10 27 10 15 21 13 1008 11 15 19 1441 583 18 6 10 13 30 9 441 29 14 12 12 19 21 16 760 12 27 9 19 28 15 15 506 19 1021 9 351 18 22 16 19 14 11 229 26 1934 12 16 11 10 14 1914 17 15 32 15 15 288 10 18 21 143 33 17 12 1844 20 14 21 14 18 55 19 13 19 15 16 11 21 1468 22 12 26 9 25 19 14 21 14 21 10 9 18 11 15 8 25 482 17 977 30 4 23 15 16 43 9 14 20 1037 18 16 143 519 10 20 206 12 229 22 1997 9 13 17 21 858 453 20 112 12 15 16 352 314 15 27 9 23 19 13 90 18 19 1406 19 15 14 409 13 525 1961 1152 27 35 9 24 20 18 13 9 10 25 28 12 23 26 13 58 21 12 14 14 17 15 527 25 13 554 20 890 14 16 13 8 21 14 3 11 836 29 26 603 17 127 26 18 971 26 8 409 161 24 11 12 23 31 18 18 8436 18 1456 448 646 31 17 13 137 16 43 17 27 13 43 10 19 19 20 16 20 13 11 123 22 20 12 158 18 10 15 11 22 1593 23 25 26 10 16 18 428 26 16 35 35 28 12 19 26 15 16 40 16 21 9 21 13 22 11 13 24 18 16 40 4 28 14 2306 22 25 12 152 23 457 1589 22 13 14 196 20 8 13 8 13 20 24 18 13 14 21 9 17 39 10 25 16 12 145 14 17 16 34 19 25 778 38 14 15 22 12 1025 11 362 9 502 12 13 12 12 39 28 80 23 24 16 10 25 38 26 15 254 28 11 9 8 19 16 24 21 84 1506 1476 12 11 18 209 17 13 1465 10 21 17 26 22 12 1134 20 8 15 58 851 24 13 552 27 25 29 1013 26 24 15 14 554 16 18 19 491 20 13 24 16 156 1004 17 16 26 1476 19 17 27 24 10 20 24 16 8 24 15 27 368 24 15 10 10 22 7 11 9 12 538 210 11 17 
To predecode: 0
Predecoding something: 0
Predecode request dropped: 0
sizeofblock_0 0
sizeofblock_1 34406
sizeofblock_2 32526
sizeofblock_3 45825
sizeofblock_4 24198
sizeofblock_5 0
sizeofblock_6 0
sizeofblock_7 0
sizeofblock_8 0
Variant_0 Correct: 1602454 Incorrect: 0 Accuracy: 1
Variant_1 Correct: 2078372 Incorrect: 0 Accuracy: 1
Variant_2 Correct: 3618397 Incorrect: 0 Accuracy: 1
Variant_3 Correct: 0 Incorrect: 0 Accuracy: -nan
