
*** ChampSim Multicore Out-of-Order Simulator ***

Warmup Instructions: 50000000
Simulation Instructions: 50000000
Number of CPUs: 1
LLC sets: 2048
LLC ways: 16
Off-chip DRAM Size: 4096 MB Channels: 1 Width: 64-bit Data Rate: 6400 MT/s
CPU 0 runs ./micro_traces/srv729.trace.gz
.gz
ITLB has LRU replacement policy
DTLB has LRU replacement policy
STLB has LRU replacement policy
FDIP Prefetcher at L1I
L1I has LRU replacement policy
L1D has LRU replacement policy
Initialize SRRIP state for L2C
Initialize DRRIP state for LLC
Heartbeat_Variant_0 : 1380 0.336914 per_variant_size: 0 1380 0 0 0 0 0 0 0 
Heartbeat_Variant_1 : 1252 0.305664 per_variant_size: 0 561 691 0 0 0 0 0 0 
Heartbeat_Variant_2 : 1342 0.327637 per_variant_size: 0 514 377 223 228 0 0 0 0 
Heartbeat_Variant_3 : 0 0 per_variant_size: 0 0 0 0 0 0 0 0 0 
Heartbeat_Variant_0_evicts 0 : 6054 1 : 409 2 : 458 3 : 0 
Heartbeat_Variant_1_evicts 0 : 414 1 : 0 2 : 571 3 : 0 
Heartbeat_Variant_2_evicts 0 : 380 1 : 594 2 : 0 3 : 0 
Heartbeat_Variant_3_evicts 0 : 0 1 : 0 2 : 0 3 : 0 
Heartbeat CPU 0 instructions: 10000002 cycles: 2798647 heartbeat IPC: 3.57316 cumulative IPC: 3.57316 (Simulation time: 0 hr 1 min 40 sec) 
Heartbeat_Variant_0 : 1377 0.336182 per_variant_size: 0 1377 0 0 0 0 0 0 0 
Heartbeat_Variant_1 : 1265 0.308838 per_variant_size: 0 565 700 0 0 0 0 0 0 
Heartbeat_Variant_2 : 1337 0.326416 per_variant_size: 0 501 381 228 227 0 0 0 0 
Heartbeat_Variant_3 : 0 0 per_variant_size: 0 0 0 0 0 0 0 0 0 
Heartbeat_Variant_0_evicts 0 : 5690 1 : 44 2 : 66 3 : 0 
Heartbeat_Variant_1_evicts 0 : 44 1 : 0 2 : 240 3 : 0 
Heartbeat_Variant_2_evicts 0 : 71 1 : 228 2 : 0 3 : 0 
Heartbeat_Variant_3_evicts 0 : 0 1 : 0 2 : 0 3 : 0 
Heartbeat CPU 0 instructions: 20000002 cycles: 5595013 heartbeat IPC: 3.57607 cumulative IPC: 3.57461 (Simulation time: 0 hr 3 min 20 sec) 
Heartbeat_Variant_0 : 1392 0.339844 per_variant_size: 0 1392 0 0 0 0 0 0 0 
Heartbeat_Variant_1 : 1276 0.311523 per_variant_size: 0 555 721 0 0 0 0 0 0 
Heartbeat_Variant_2 : 1342 0.327637 per_variant_size: 0 490 375 247 230 0 0 0 0 
Heartbeat_Variant_3 : 0 0 per_variant_size: 0 0 0 0 0 0 0 0 0 
Heartbeat_Variant_0_evicts 0 : 5672 1 : 165 2 : 156 3 : 0 
Heartbeat_Variant_1_evicts 0 : 167 1 : 0 2 : 305 3 : 0 
Heartbeat_Variant_2_evicts 0 : 146 1 : 309 2 : 0 3 : 0 
Heartbeat_Variant_3_evicts 0 : 0 1 : 0 2 : 0 3 : 0 
Heartbeat CPU 0 instructions: 30000003 cycles: 8392909 heartbeat IPC: 3.57411 cumulative IPC: 3.57445 (Simulation time: 0 hr 4 min 59 sec) 
Heartbeat_Variant_0 : 1404 0.342773 per_variant_size: 0 1404 0 0 0 0 0 0 0 
Heartbeat_Variant_1 : 1300 0.317383 per_variant_size: 0 541 759 0 0 0 0 0 0 
Heartbeat_Variant_2 : 1359 0.331787 per_variant_size: 0 489 368 244 258 0 0 0 0 
Heartbeat_Variant_3 : 0 0 per_variant_size: 0 0 0 0 0 0 0 0 0 
Heartbeat_Variant_0_evicts 0 : 6000 1 : 415 2 : 410 3 : 0 
Heartbeat_Variant_1_evicts 0 : 428 1 : 0 2 : 523 3 : 0 
Heartbeat_Variant_2_evicts 0 : 393 1 : 534 2 : 0 3 : 0 
Heartbeat_Variant_3_evicts 0 : 0 1 : 0 2 : 0 3 : 0 
Heartbeat CPU 0 instructions: 40000001 cycles: 11188960 heartbeat IPC: 3.57647 cumulative IPC: 3.57495 (Simulation time: 0 hr 6 min 43 sec) 
Heartbeat_Variant_0 : 1405 0.343018 per_variant_size: 0 1405 0 0 0 0 0 0 0 
Heartbeat_Variant_1 : 1302 0.317871 per_variant_size: 0 547 755 0 0 0 0 0 0 
Heartbeat_Variant_2 : 1357 0.331299 per_variant_size: 0 486 370 236 265 0 0 0 0 
Heartbeat_Variant_3 : 0 0 per_variant_size: 0 0 0 0 0 0 0 0 0 
Heartbeat_Variant_0_evicts 0 : 5600 1 : 17 2 : 18 3 : 0 
Heartbeat_Variant_1_evicts 0 : 17 1 : 0 2 : 209 3 : 0 
Heartbeat_Variant_2_evicts 0 : 18 1 : 207 2 : 0 3 : 0 
Heartbeat_Variant_3_evicts 0 : 0 1 : 0 2 : 0 3 : 0 
Heartbeat CPU 0 instructions: 50000000 cycles: 13984839 heartbeat IPC: 3.57669 cumulative IPC: 3.5753 (Simulation time: 0 hr 8 min 17 sec) 

Warmup complete CPU 0 instructions: 50000004 cycles: 13984840 (Simulation time: 0 hr 8 min 17 sec) 

Cycle: 20000000 FTQ IN: 58188892 FTQ occupancy: 19.9935 DECODE IN: 58188836 DECODE occupancy: 52.0681 ROB IN: 58188776 ROB occupancy: 313.58 ROB OUT: 58188424
Heartbeat_Variant_0 : 1408 0.34375 per_variant_size: 0 1408 0 0 0 0 0 0 0 
Heartbeat_Variant_1 : 1290 0.314941 per_variant_size: 0 524 766 0 0 0 0 0 0 
Heartbeat_Variant_2 : 1368 0.333984 per_variant_size: 0 473 394 254 247 0 0 0 0 
Heartbeat_Variant_3 : 0 0 per_variant_size: 0 0 0 0 0 0 0 0 0 
Heartbeat_Variant_0_evicts 0 : 5699 1 : 145 2 : 128 3 : 0 
Heartbeat_Variant_1_evicts 0 : 129 1 : 0 2 : 352 3 : 0 
Heartbeat_Variant_2_evicts 0 : 142 1 : 348 2 : 0 3 : 0 
Heartbeat_Variant_3_evicts 0 : 0 1 : 0 2 : 0 3 : 0 
Heartbeat CPU 0 instructions: 60000000 cycles: 21312347 heartbeat IPC: 1.36472 cumulative IPC: 1.36472 (Simulation time: 0 hr 10 min 7 sec) 
Heartbeat_Variant_0 : 1408 0.34375 per_variant_size: 0 1408 0 0 0 0 0 0 0 
Heartbeat_Variant_1 : 1292 0.31543 per_variant_size: 0 529 763 0 0 0 0 0 0 
Heartbeat_Variant_2 : 1366 0.333496 per_variant_size: 0 471 395 253 247 0 0 0 0 
Heartbeat_Variant_3 : 0 0 per_variant_size: 0 0 0 0 0 0 0 0 0 
Heartbeat_Variant_0_evicts 0 : 5620 1 : 25 2 : 13 3 : 0 
Heartbeat_Variant_1_evicts 0 : 27 1 : 0 2 : 212 3 : 0 
Heartbeat_Variant_2_evicts 0 : 11 1 : 212 2 : 0 3 : 0 
Heartbeat_Variant_3_evicts 0 : 0 1 : 0 2 : 0 3 : 0 
Heartbeat CPU 0 instructions: 70000000 cycles: 28530649 heartbeat IPC: 1.38537 cumulative IPC: 1.37497 (Simulation time: 0 hr 11 min 55 sec) 
Cycle: 30000000 FTQ IN: 13854578 FTQ occupancy: 13.1575 DECODE IN: 13854634 DECODE occupancy: 34.3779 ROB IN: 13854694 ROB occupancy: 236.426 ROB OUT: 13855019
Heartbeat_Variant_0 : 1401 0.342041 per_variant_size: 0 1401 0 0 0 0 0 0 0 
Heartbeat_Variant_1 : 1305 0.318604 per_variant_size: 0 560 745 0 0 0 0 0 0 
Heartbeat_Variant_2 : 1362 0.33252 per_variant_size: 0 470 381 263 248 0 0 0 0 
Heartbeat_Variant_3 : 0 0 per_variant_size: 0 0 0 0 0 0 0 0 0 
Heartbeat_Variant_0_evicts 0 : 5716 1 : 96 2 : 99 3 : 0 
Heartbeat_Variant_1_evicts 0 : 107 1 : 0 2 : 282 3 : 0 
Heartbeat_Variant_2_evicts 0 : 96 1 : 281 2 : 0 3 : 0 
Heartbeat_Variant_3_evicts 0 : 0 1 : 0 2 : 0 3 : 0 
Heartbeat CPU 0 instructions: 80000002 cycles: 35839514 heartbeat IPC: 1.3682 cumulative IPC: 1.3727 (Simulation time: 0 hr 13 min 47 sec) 
Cycle: 40000000 FTQ IN: 13734000 FTQ occupancy: 13.2362 DECODE IN: 13734000 DECODE occupancy: 34.2589 ROB IN: 13734000 ROB occupancy: 234.894 ROB OUT: 13733681
Heartbeat_Variant_0 : 1401 0.342041 per_variant_size: 0 1401 0 0 0 0 0 0 0 
Heartbeat_Variant_1 : 1310 0.319824 per_variant_size: 0 564 746 0 0 0 0 0 0 
Heartbeat_Variant_2 : 1357 0.331299 per_variant_size: 0 470 373 268 246 0 0 0 0 
Heartbeat_Variant_3 : 0 0 per_variant_size: 0 0 0 0 0 0 0 0 0 
Heartbeat_Variant_0_evicts 0 : 5617 1 : 14 2 : 19 3 : 0 
Heartbeat_Variant_1_evicts 0 : 11 1 : 0 2 : 222 3 : 0 
Heartbeat_Variant_2_evicts 0 : 22 1 : 214 2 : 0 3 : 0 
Heartbeat_Variant_3_evicts 0 : 0 1 : 0 2 : 0 3 : 0 
Heartbeat CPU 0 instructions: 90000003 cycles: 43041961 heartbeat IPC: 1.38842 cumulative IPC: 1.3766 (Simulation time: 0 hr 15 min 35 sec) 
Cycle: 50000000 FTQ IN: 13760784 FTQ occupancy: 13.3363 DECODE IN: 13760766 DECODE occupancy: 34.5845 ROB IN: 13760756 ROB occupancy: 236.353 ROB OUT: 13761042
Heartbeat_Variant_0 : 1406 0.343262 per_variant_size: 0 1406 0 0 0 0 0 0 0 
Heartbeat_Variant_1 : 1306 0.318848 per_variant_size: 0 558 748 0 0 0 0 0 0 
Heartbeat_Variant_2 : 1357 0.331299 per_variant_size: 0 468 377 266 246 0 0 0 0 
Heartbeat_Variant_3 : 0 0 per_variant_size: 0 0 0 0 0 0 0 0 0 
Heartbeat_Variant_0_evicts 0 : 5610 1 : 18 2 : 23 3 : 0 
Heartbeat_Variant_1_evicts 0 : 13 1 : 0 2 : 213 3 : 0 
Heartbeat_Variant_2_evicts 0 : 23 1 : 213 2 : 0 3 : 0 
Heartbeat_Variant_3_evicts 0 : 0 1 : 0 2 : 0 3 : 0 
Heartbeat CPU 0 instructions: 100000000 cycles: 50329508 heartbeat IPC: 1.3722 cumulative IPC: 1.37572 (Simulation time: 0 hr 17 min 25 sec) 
Finished CPU 0 instructions: 50000000 cycles: 36344669 cumulative IPC: 1.37572 (Simulation time: 0 hr 17 min 25 sec) 

ChampSim completed all CPUs

Region of Interest Statistics

CPU 0 cumulative IPC: 1.37572 instructions: 50000000 cycles: 36344669
 Fetch stage stalled: 53.4859  Sim cycles: 36344669 fetch stall cycle: 19439280
 Empty decode stage: 34.104  Sim cycles: 36344669 fetch stall cycle: 12394981
ITLB TOTAL     ACCESS:    5872338  HIT:    5379709  MISS:     492629  HIT %:     91.611  MISS %:    8.38898   MPKI: 9.85258
ITLB LOAD TRANSLATION INSTRUCTION	ACCESS:    5750577  HIT:    5257948  MISS:     492629  HIT %:    91.4334  MISS %:     8.5666  MPKI: 9.85258
ITLB TRANSLATION FROM L1D PREFETCHER INSTRUCTION	ACCESS:     121761  HIT:     121761  MISS:          0  HIT %:        100  MISS %:          0  MPKI: 0

ITLB AVERAGE MISS LATENCY: 9.04692 cycles
ITLB RQ	ACCESS:    8013232	FORWARD:          0	MERGED:    1695895	TO_CACHE:    6317337

DTLB TOTAL     ACCESS:    8970386  HIT:    8501421  MISS:     468965  HIT %:    94.7721  MISS %:    5.22792   MPKI: 9.3793
DTLB LOAD TRANSLATION DATA	ACCESS:    8970386  HIT:    8501421  MISS:     468965  HIT %:    94.7721  MISS %:    5.22792  MPKI: 9.3793

DTLB AVERAGE MISS LATENCY: 9.31546 cycles
DTLB RQ	ACCESS:   13335012	FORWARD:          0	MERGED:    4327598	TO_CACHE:    9007414

STLB TOTAL     ACCESS:    1211382  HIT:    1209340  MISS:       2042  HIT %:    99.8314  MISS %:   0.168568   MPKI: 0.04084
STLB LOAD TRANSLATION INSTRUCTION	ACCESS:     492629  HIT:     492362  MISS:        267  HIT %:    99.9458  MISS %:   0.054199  MPKI: 0.00534
STLB LOAD TRANSLATION DATA	ACCESS:     468965  HIT:     467210  MISS:       1755  HIT %:    99.6258  MISS %:   0.374228  MPKI: 0.0351
STLB TRANSLATION FROM L1D PREFETCHER DATA	ACCESS:     249788  HIT:     249768  MISS:         20  HIT %:     99.992  MISS %: 0.00800679  MPKI: 0.0004

STLB AVERAGE MISS LATENCY: 68.6876 cycles
STLB RQ	ACCESS:    1332997	FORWARD:          0	MERGED:     121578	TO_CACHE:    1211419

STLB Hit, L1D data hit: 0
STLB Hit, L2C data hit: 0
STLB Hit, LLC data hit: 0
STLB Hit, LLC data miss: 0
STLB STLB hints to L2: 0
L1D TOTAL     ACCESS:   13080761  HIT:   11965590  MISS:    1115171  HIT %:    91.4747  MISS %:    8.52528   MPKI: 22.3034
L1D LOAD DATA	ACCESS:    6550960  HIT:    5818329  MISS:     732631  HIT %:    88.8164  MISS %:    11.1836  MPKI: 14.6526
L1D RFO DATA	ACCESS:    6199392  HIT:    5912967  MISS:     286425  HIT %:    95.3798  MISS %:    4.62021  MPKI: 5.7285
L1D PREFETCH DATA	ACCESS:     330409  HIT:     234294  MISS:      96115  HIT %:    70.9103  MISS %:    29.0897  MPKI: 1.9223

L1D PREFETCH  REQUESTED:     743259  ISSUED:     743259  USEFUL:      35025  USELESS:      68831
L1D USEFUL LOAD PREFETCHES:      35025 PREFETCH ISSUED TO LOWER LEVEL:     103908  ACCURACY: 33.7077
 TIMELY PREFETCHES:      35025 LATE PREFETCHES: 7718 DROPPED PREFETCHES: 11
L1D AVERAGE MISS LATENCY: 225452 cycles
L1D RQ	ACCESS:   10699207	FORWARD:          0	MERGED:    3948929	TO_CACHE:    6586602
L1D WQ	ACCESS:    6945027	FORWARD:     164129	MERGED:     196617	TO_CACHE:    6748410
L1D PQ	ACCESS:     371856	FORWARD:          0	MERGED:          0	TO_CACHE:     371403

L1D UNIQUE REGIONS ACCESSED: 0
L1D REGIONS CONFLICTS: 0
L1D Cross Page Prefetch Requests: 6921
L1D Same Page Prefetch Requests: 753459
L1D ROI Sum of L1D PQ occupancy: 4725424
L1D PREFETCHES PUSHED FROM L2C: 0
L1I TOTAL     ACCESS:    7175378  HIT:    4419758  MISS:    2755620  HIT %:    61.5962  MISS %:    38.4038   MPKI: 55.1124
L1I LOAD INSTRUCTION	ACCESS:    6505223  HIT:    3749603  MISS:    2755620  HIT %:    57.6399  MISS %:    42.3601  MPKI: 55.1124
L1I PREFETCH INSTRUCTION	ACCESS:     670155  HIT:     670155  MISS:          0  HIT %:        100  MISS %:          0  MPKI: 0

L1I PREFETCH  REQUESTED:    1608440  ISSUED:    1608440  USEFUL:          0  USELESS:          0
L1I USEFUL LOAD PREFETCHES:          0 PREFETCH ISSUED TO LOWER LEVEL:          0  ACCURACY: -nan
 TIMELY PREFETCHES:          0 LATE PREFETCHES: 0 DROPPED PREFETCHES: 0
L1I AVERAGE MISS LATENCY: 17.5726 cycles
L1I RQ	ACCESS:    9510830	FORWARD:          0	MERGED:    2677657	TO_CACHE:    6833173
L1I PQ	ACCESS:    1608440	FORWARD:          0	MERGED:     428381	TO_CACHE:    1180059

L1BTB TOTAL     ACCESS:    5668378  HIT:    2046583  MISS:    3621795  HIT %:    36.1053  MISS %:    63.8947   MPKI: 72.4359
L1BTB BRANCH_DIRECT_JUMP	ACCESS:     548490  HIT:     145196  MISS:     403294	AVERAGE STALL: 51.92
L1BTB BRANCH_INDIRECT	ACCESS:     182826  HIT:      66013  MISS:     116813	AVERAGE STALL: 103.978
L1BTB BRANCH_CONDITIONAL	ACCESS:    2706485  HIT:    1416000  MISS:    1290485	AVERAGE STALL: 63.7975
L1BTB BRANCH_DIRECT_CALL	ACCESS:     943396  HIT:     106500  MISS:     836896	AVERAGE STALL: 67.2246
L1BTB BRANCH_INDIRECT_CALL	ACCESS:     171893  HIT:      21770  MISS:     150123	AVERAGE STALL: 136.194
L1BTB BRANCH_RETURN	ACCESS:    1115288  HIT:     291104  MISS:     824184	AVERAGE STALL: 47.5849
L1BTB BRANCH_OTHER ACCESS:          0  HIT:          0  MISS:          0	AVERAGE STALL: -nan
L1BTB TOTAL ROB OCCUPANCY AT BTB MISS: 2.53027

L2BTB TOTAL     ACCESS:    3596374  HIT:    3531684  MISS:      64690  HIT %:    98.2012  MISS %:    1.79876   MPKI: 1.2938
L2BTB BRANCH_DIRECT_JUMP	ACCESS:     399112  HIT:     394528  MISS:       4584	AVERAGE STALL: 51.92
L2BTB BRANCH_INDIRECT	ACCESS:     106531  HIT:     103807  MISS:       2724	AVERAGE STALL: 103.978
L2BTB BRANCH_CONDITIONAL	ACCESS:    1290484  HIT:    1286140  MISS:       4344	AVERAGE STALL: 63.7975
L2BTB BRANCH_DIRECT_CALL	ACCESS:     836896  HIT:     835131  MISS:       1765	AVERAGE STALL: 67.2246
L2BTB BRANCH_INDIRECT_CALL	ACCESS:     140566  HIT:     130364  MISS:      10202	AVERAGE STALL: 136.194
L2BTB BRANCH_RETURN	ACCESS:     822785  HIT:     781714  MISS:      41071	AVERAGE STALL: 47.5849
L2BTB BRANCH_OTHER ACCESS:          0  HIT:          0  MISS:          0	AVERAGE STALL: -nan
L2BTB TOTAL ROB OCCUPANCY AT BTB MISS: 141.662

L2C TOTAL     ACCESS:    4483040  HIT:    3948248  MISS:     534792  HIT %:    88.0708  MISS %:    11.9292   MPKI: 10.6958
L2C LOAD INSTRUCTION	ACCESS:    2755620  HIT:    2463065  MISS:     292555  HIT %:    89.3833  MISS %:    10.6167  MPKI: 5.8511
L2C LOAD TRANSLATION INSTRUCTION	ACCESS:        302  HIT:         73  MISS:        229  HIT %:    24.1722  MISS %:    75.8278  MPKI: 0.00458
L2C LOAD DATA	ACCESS:     724893  HIT:     643607  MISS:      81286  HIT %:    88.7865  MISS %:    11.2135  MPKI: 1.62572
L2C RFO DATA	ACCESS:     286328  HIT:     221808  MISS:      64520  HIT %:    77.4664  MISS %:    22.5336  MPKI: 1.2904
L2C PREFETCH DATA	ACCESS:     193022  HIT:     116078  MISS:      76944  HIT %:    60.1372  MISS %:    39.8628  MPKI: 1.53888
L2C WRITEBACK DATA	ACCESS:     520999  HIT:     503034  MISS:      17965  HIT %:    96.5518  MISS %:    3.44818  MPKI: 0.3593
L2C LOAD TRANSLATION DATA	ACCESS:       1831  HIT:        551  MISS:       1280  HIT %:    30.0928  MISS %:    69.9072  MPKI: 0.0256
L2C TRANSLATION FROM L1D PREFETCHER DATA	ACCESS:         45  HIT:         32  MISS:         13  HIT %:    71.1111  MISS %:    28.8889  MPKI: 0.00026

L2C PREFETCH  REQUESTED:      97790  ISSUED:      97790  USEFUL:       8635  USELESS:      68910
L2C USEFUL LOAD PREFETCHES:       8635 PREFETCH ISSUED TO LOWER LEVEL:      77468  ACCURACY: 11.1465
 TIMELY PREFETCHES:       8635 LATE PREFETCHES: 524 DROPPED PREFETCHES: 0
L2C AVERAGE MISS LATENCY: 37.8474 cycles
L2C RQ	ACCESS:    3769061	FORWARD:          0	MERGED:          0	TO_CACHE:    3769019
L2C WQ	ACCESS:     520999	FORWARD:         42	MERGED:          0	TO_CACHE:     520999
L2C PQ	ACCESS:     201698	FORWARD:          0	MERGED:       3799	TO_CACHE:     197899

L2C Dense regions hint from L2: 0
PSCL5 TOTAL     ACCESS:       4110  HIT:       2055  MISS:       2055  HIT %:         50  MISS %:         50   MPKI: 0.0411
PSCL5 LOAD TRANSLATION INSTRUCTION	ACCESS:       4020  HIT:       2010  MISS:       2010  HIT %:         50  MISS %:         50  MPKI: 0.0402
PSCL5 TRANSLATION FROM L1D PREFETCHER INSTRUCTION	ACCESS:         90  HIT:         45  MISS:         45  HIT %:         50  MISS %:         50  MPKI: 0.0009


PSCL4 TOTAL     ACCESS:       3907  HIT:       1948  MISS:       1959  HIT %:    49.8592  MISS %:    50.1408   MPKI: 0.03918
PSCL4 LOAD TRANSLATION INSTRUCTION	ACCESS:       2100  HIT:       1907  MISS:        193  HIT %:    90.8095  MISS %:    9.19048  MPKI: 0.00386
PSCL4 TRANSLATION FROM L1D PREFETCHER INSTRUCTION	ACCESS:         43  HIT:         41  MISS:          2  HIT %:    95.3488  MISS %:    4.65116  MPKI: 4e-05
PSCL4 LOAD TRANSLATION DATA	ACCESS:       1725  HIT:          0  MISS:       1725  HIT %:          0  MISS %:        100  MPKI: 0.0345
PSCL4 TRANSLATION FROM L1D PREFETCHER DATA	ACCESS:         39  HIT:          0  MISS:         39  HIT %:          0  MISS %:        100  MPKI: 0.00078


PSCL3 TOTAL     ACCESS:       3953  HIT:       1971  MISS:       1982  HIT %:    49.8609  MISS %:    50.1391   MPKI: 0.03964
PSCL3 LOAD TRANSLATION INSTRUCTION	ACCESS:       2123  HIT:       1930  MISS:        193  HIT %:    90.9091  MISS %:    9.09091  MPKI: 0.00386
PSCL3 TRANSLATION FROM L1D PREFETCHER INSTRUCTION	ACCESS:         43  HIT:         41  MISS:          2  HIT %:    95.3488  MISS %:    4.65116  MPKI: 4e-05
PSCL3 LOAD TRANSLATION DATA	ACCESS:       1748  HIT:          0  MISS:       1748  HIT %:          0  MISS %:        100  MPKI: 0.03496
PSCL3 TRANSLATION FROM L1D PREFETCHER DATA	ACCESS:         39  HIT:          0  MISS:         39  HIT %:          0  MISS %:        100  MPKI: 0.00078


PSCL2 TOTAL     ACCESS:       4008  HIT:       1953  MISS:       2055  HIT %:    48.7275  MISS %:    51.2725   MPKI: 0.0411
PSCL2 LOAD TRANSLATION INSTRUCTION	ACCESS:       2174  HIT:       1908  MISS:        266  HIT %:    87.7645  MISS %:    12.2355  MPKI: 0.00532
PSCL2 TRANSLATION FROM L1D PREFETCHER INSTRUCTION	ACCESS:         45  HIT:         45  MISS:          0  HIT %:        100  MISS %:          0  MPKI: 0
PSCL2 LOAD TRANSLATION DATA	ACCESS:       1744  HIT:          0  MISS:       1744  HIT %:          0  MISS %:        100  MPKI: 0.03488
PSCL2 TRANSLATION FROM L1D PREFETCHER DATA	ACCESS:         45  HIT:          0  MISS:         45  HIT %:          0  MISS %:        100  MPKI: 0.0009


LLC TOTAL     ACCESS:     604827  HIT:     575280  MISS:      29547  HIT %:    95.1148  MISS %:     4.8852   MPKI: 0.59094
LLC LOAD INSTRUCTION	ACCESS:     292555  HIT:     291598  MISS:        957  HIT %:    99.6729  MISS %:   0.327118  MPKI: 0.01914
LLC LOAD TRANSLATION INSTRUCTION	ACCESS:        229  HIT:        207  MISS:         22  HIT %:     90.393  MISS %:    9.60699  MPKI: 0.00044
LLC LOAD DATA	ACCESS:      80784  HIT:      77463  MISS:       3321  HIT %:     95.889  MISS %:    4.11096  MPKI: 0.06642
LLC RFO DATA	ACCESS:      64464  HIT:      49261  MISS:      15203  HIT %:    76.4163  MISS %:    23.5837  MPKI: 0.30406
LLC PREFETCH DATA	ACCESS:      77468  HIT:      67862  MISS:       9606  HIT %:       87.6  MISS %:       12.4  MPKI: 0.19212
LLC WRITEBACK DATA	ACCESS:      88034  HIT:      87650  MISS:        384  HIT %:    99.5638  MISS %:   0.436195  MPKI: 0.00768
LLC LOAD TRANSLATION DATA	ACCESS:       1280  HIT:       1226  MISS:         54  HIT %:    95.7812  MISS %:    4.21875  MPKI: 0.00108
LLC TRANSLATION FROM L1D PREFETCHER DATA	ACCESS:         13  HIT:         13  MISS:          0  HIT %:        100  MISS %:          0  MPKI: 0

LLC AVERAGE MISS LATENCY: 158.702 cycles
LLC RQ	ACCESS:     439359	FORWARD:          0	MERGED:          0	TO_CACHE:     439325
LLC WQ	ACCESS:      88034	FORWARD:         34	MERGED:          0	TO_CACHE:      88034
LLC PQ	ACCESS:      77468	FORWARD:          0	MERGED:          0	TO_CACHE:      77468

LLC Dense regions hint to LLC: 0

RAW hits: 1937920
Loads Generated: 12637127
Loads sent to L1D: 10699207
Stores Generated: 6945028
Stores sent to L1D: 6945027
Major fault: 0 Minor fault: 2673
Allocated PAGES: 2673

stream: 
stream:times selected: 1191740
stream:pref_filled: 122369
stream:pref_useful: 24669
stream:pref_late: 6760
stream:misses: 7901
stream:misses_by_poll: 0

CS: 
CS:times selected: 181302
CS:pref_filled: 60767
CS:pref_useful: 37427
CS:pref_late: 6851
CS:misses: 16564
CS:misses_by_poll: 15

CPLX: 
CPLX:times selected: 1009295
CPLX:pref_filled: 19747
CPLX:pref_useful: 4636
CPLX:pref_late: 3184
CPLX:misses: 92923
CPLX:misses_by_poll: 0

NL_L1: 
NL:times selected: 20828
NL:pref_filled: 719
NL:pref_useful: 321
NL:pref_late: 316
NL:misses: 1764
NL:misses_by_poll: 0

total selections: 2403165
total_filled: 96115
total_useful: 35025
total_late: 18405
total_polluted: 15
total_misses_after_warmup: 768274
conflicts: 5514374

test: 117230

DRAM Statistics
 CHANNEL 0
 RQ ROW_BUFFER_HIT:      11183  ROW_BUFFER_MISS:      17968
 DBUS_CONGESTED:         11
 WQ ROW_BUFFER_HIT:       1326  ROW_BUFFER_MISS:      12894  FULL:          0

 AVG_CONGESTED_CYCLE: 6

CPU 0 Branch Prediction Accuracy: 99.8276% MPKI: 0.31528 Average ROB Occupancy at Mispredict: 189.779
Branch types
NOT_BRANCH: 40857774 81.7155%
BRANCH_DIRECT_JUMP: 548490 1.09698%
BRANCH_INDIRECT: 182826 0.365652%
BRANCH_CONDITIONAL: 6180118 12.3602%
BRANCH_DIRECT_CALL: 943396 1.88679%
BRANCH_INDIRECT_CALL: 171893 0.343786%
BRANCH_RETURN: 1115288 2.23058%
BRANCH_OTHER: 0 0%

DRAM PAGES: 1048576
Allocated PAGES: 2673
Average_ROB_Occupancy: 236.448
Average_Decode_Occupancy: 34.2443
Average_FTQ_Occupancy: 13.1993
Indirect max targets: 14 Average targets: 1.17647
Branch_type:  BRANCH_DIRECT_JUMP:  Count Percentage: 2.73024 6.50099 4.23369 4.85484 2.93805 11.5639 1.60184 65.5764 
Branch_type:  BRANCH_INDIRECT:  Count Percentage: 11.7401 3.4699 2.57193 13.4135 1.33369 8.0462 18.5563 40.8683 
Branch_type:  BRANCH_CONDITIONAL:  Count Percentage: 21.106 3.42206 1.53612 4.45212 5.01657 6.54965 3.49882 54.4186 
Branch_type:  BRANCH_DIRECT_CALL:  Count Percentage: 0.887926 1.48016 1.16017 3.30497 2.87486 4.94682 4.27942 81.0657 
Branch_type:  BRANCH_INDIRECT_CALL:  Count Percentage: 9.5238 0 2.98499 10.6807 1.19656 1.7085 5.12055 68.7849 
Branch_type:  BRANCH_RETURN:  Count Percentage: 5.22709 1.46269 1.49181 7.32452 5.74266 7.14971 4.49094 67.1106 
Branch_type:  BRANCH_DIRECT_JUMP:  Total Count: 29942 71295 46430 53242 32221 126819 17567 719163 
Branch_type:  BRANCH_INDIRECT:  Total Count: 42922 12686 9403 49040 4876 29417 67842 149415 
Branch_type:  BRANCH_CONDITIONAL:  Total Count: 2608278 422897 189833 550192 619947 809404 432383 6725044 
Branch_type:  BRANCH_DIRECT_CALL:  Total Count: 16738 27902 21870 62301 54193 93251 80670 1528143 
Branch_type:  BRANCH_INDIRECT_CALL:  Total Count: 32649 0 10233 36615 4102 5857 17554 235805 
Branch_type:  BRANCH_RETURN:  Total Count: 116500 32600 33249 163247 127991 159351 100093 1495744 
Number of unique branch instructions: 10971
Upper 32 bits: 
aaaa
ffff
ffff0000
Unique upper 32 bits: 3
Unique upper 36 bits: 3
Unique upper 40 bits: 5
Unique upper 44 bits: 32
Unique upper 48 bits: 160
Variant_0 : 1406 0.343262
Variant_1 : 1306 0.318848
Variant_2 : 1357 0.331299
Variant_3 : 0 0
Offset_3 4540
Offset_4 284
Offset_5 492
Offset_6 548
Offset_7 649
Offset_8 599
Offset_9 537
Offset_10 425
Offset_11 350
Offset_12 315
Offset_13 243
Offset_14 247
Offset_15 194
Offset_16 230
Offset_17 175
Offset_18 144
Offset_19 262
Offset_20 143
Offset_21 262
Offset_22 408
Offset_23 247
Offset_24 366
Offset_25 117
Offset_47 100
Offset_64 5
decode_dispatch_called: 25548325 70.2946
Dispatch_width: 0 13836448 54.1579 38.0701
Dispatch_width: 1 932469 3.64982 2.56563
Dispatch_width: 2 802970 3.14295 2.20932
Dispatch_width: 3 479781 1.87794 1.32009
Dispatch_width: 4 5406304 21.1611 14.8751
Dispatch_width: 5 145154 0.568155 0.399382
Dispatch_width: 6 3945199 15.4421 10.855
Empty_decode_cycles: 10796344 29.7054
ROB_full_cycles: 8715857 23.9811
Starvation_cycles_per_kilo_instr: 236.836
Starvation_cycles_per_kilo_instr_3: 181.322
Starvation_cycles_per_kilo_instr_0: 159.169
Branch_type_1  (3,1)  (4,10)  (5,41)  (6,73)  (7,125)  (8,159)  (9,142)  (10,111)  (11,78)  (12,47)  (13,11)  (14,2)  (15,3)  (16,4)  (18,1)  (19,5)  (20,2)  (21,1)  (22,3)  (23,2)  (24,10)  (25,12) 
Branch_type_2  (3,1)  (4,1)  (5,1)  (8,4)  (9,4)  (10,1)  (12,1)  (13,1)  (14,1)  (16,3)  (17,2)  (20,2)  (21,2)  (23,5)  (24,1)  (47,46) 
Branch_type_3  (3,4538)  (4,273)  (5,446)  (6,458)  (7,492)  (8,366)  (9,294)  (10,171)  (11,133)  (12,54)  (13,10)  (21,1)  (64,4) 
Branch_type_4  (6,3)  (7,8)  (8,29)  (9,57)  (10,68)  (11,72)  (12,118)  (13,104)  (14,111)  (15,92)  (16,101)  (17,83)  (18,61)  (19,127)  (20,72)  (21,141)  (22,214)  (23,139)  (24,213)  (25,101)  (64,1) 
Branch_type_5  (8,3)  (9,1)  (10,4)  (11,5)  (12,3)  (13,14)  (14,16)  (15,11)  (16,22)  (17,11)  (18,23)  (19,15)  (20,12)  (21,13)  (22,43)  (23,26)  (24,42) 
Branch_type_6  (5,4)  (6,14)  (7,24)  (8,38)  (9,39)  (10,70)  (11,62)  (12,92)  (13,103)  (14,117)  (15,88)  (16,100)  (17,79)  (18,59)  (19,115)  (20,55)  (21,104)  (22,148)  (23,75)  (24,100)  (25,4)  (47,54) 
Unique trigger count: 
Variant_0_evicts_0 : 0
Variant_0_evicts_1 : 0
Variant_0_evicts_2 : 0
Variant_0_evicts_3 : 0
Variant_1_evicts_0 : 0
Variant_1_evicts_1 : 0
Variant_1_evicts_2 : 0
Variant_1_evicts_3 : 0
Variant_2_evicts_0 : 0
Variant_2_evicts_1 : 0
Variant_2_evicts_2 : 0
Variant_2_evicts_3 : 0
Variant_3_evicts_0 : 0
Variant_3_evicts_1 : 0
Variant_3_evicts_2 : 0
Variant_3_evicts_3 : 0
BTB PER SET UNIQUE ADDR: 18 14 7 22 13 12 11 8 15 14 13 19 18 10 11 13 12 10 15 9 15 12 10 15 8 14 12 16 11 12 10 17 18 11 9 12 11 15 8 10 11 12 15 21 5 8 19 9 18 10 14 14 12 15 10 7 10 8 10 12 10 16 12 13 11 16 15 8 21 14 12 15 17 10 10 7 7 13 15 11 17 7 10 21 11 15 18 7 10 21 6 8 15 11 6 15 9 10 9 19 17 23 15 13 12 13 19 15 7 10 13 15 14 13 10 7 15 13 12 19 16 9 13 12 12 13 10 14 16 14 14 10 11 10 9 15 15 15 11 21 12 14 14 10 13 10 14 12 10 16 15 18 12 13 12 18 16 12 15 18 15 13 9 21 12 15 12 10 14 12 17 14 16 17 9 18 11 13 15 13 11 13 12 19 22 14 8 17 16 13 19 12 15 15 17 11 10 15 9 18 21 11 14 7 15 12 9 18 10 13 13 14 13 13 11 15 14 16 9 24 6 20 12 9 14 11 21 13 11 11 9 9 7 13 12 13 16 13 15 12 13 14 17 13 6 10 13 13 13 10 12 12 16 10 16 16 11 12 13 10 13 15 7 16 17 9 13 12 14 15 12 17 12 8 8 11 12 16 13 11 11 18 8 9 19 10 9 20 20 12 14 13 15 17 8 18 11 21 19 16 12 11 11 26 13 17 13 5 17 11 12 19 10 19 13 9 12 17 14 16 11 17 10 16 8 21 15 8 12 10 14 12 13 11 12 19 9 16 9 17 17 10 10 16 15 12 11 17 13 12 11 7 11 12 13 24 19 12 9 9 11 13 7 21 11 12 11 10 17 10 18 10 16 20 11 12 7 22 19 9 13 12 9 13 14 11 15 14 15 14 15 10 11 16 11 12 15 12 19 21 8 17 16 18 20 15 14 14 11 13 13 9 8 18 7 9 15 18 21 17 12 11 9 18 17 12 12 12 14 13 18 12 13 14 13 19 12 9 12 10 12 11 11 9 21 11 13 12 12 17 14 10 20 12 17 25 18 11 11 18 11 16 14 17 18 8 13 16 15 17 15 14 17 15 12 17 15 14 7 13 18 13 14 13 10 22 21 13 16 16 12 18 12 9 11 10 12 15 16 7 15 14 9 19 13 13 9 25 16 15 13 14 9 16 14 17 14 19 7 13 11 12 10 12 14 25 21 10 9 16 16 16 10 14 12 17 12 14 18 12 21 13 14 15 23 15 11 20 10 15 13 17 15 16 16 13 14 8 14 16 14 17 14 9 15 18 15 15 19 12 19 20 13 15 14 16 18 18 14 14 12 14 8 7 16 14 16 13 16 17 6 18 13 9 14 10 6 11 11 11 15 10 10 13 14 18 17 12 13 12 23 14 13 15 7 22 16 13 10 15 10 14 10 10 14 11 12 22 13 17 11 13 10 18 18 14 15 14 11 16 11 12 15 18 17 13 17 12 12 13 11 14 11 12 12 18 12 11 16 10 9 6 12 20 15 11 10 14 8 13 15 12 10 18 21 12 17 17 12 17 13 14 15 16 15 14 14 17 18 15 15 13 15 12 11 10 8 19 12 17 11 16 12 20 7 16 9 9 13 9 9 11 10 11 12 13 15 14 11 17 19 9 12 12 14 14 14 9 8 13 14 6 14 7 11 20 14 12 17 16 10 14 18 9 13 21 17 15 13 14 15 12 12 14 14 13 14 10 12 13 16 11 8 18 10 16 12 13 12 10 11 20 10 8 10 11 14 15 20 17 11 15 9 9 16 17 13 9 14 8 10 12 20 15 14 15 14 13 15 9 20 14 20 15 29 10 13 17 12 12 12 16 11 20 10 16 16 14 8 16 15 17 5 12 12 16 14 13 16 14 20 20 14 13 13 19 10 12 13 13 13 14 14 13 12 20 14 19 11 13 11 15 8 15 20 16 14 13 19 16 16 11 12 13 21 10 13 10 16 15 11 15 16 15 17 5 14 11 8 14 15 10 14 12 17 19 18 13 14 19 14 17 9 14 13 13 11 12 13 10 17 11 12 18 8 11 14 13 15 15 12 14 17 16 14 14 19 14 10 16 12 16 9 12 11 9 9 14 14 8 13 18 16 10 20 19 15 14 13 9 9 19 13 14 19 14 16 12 13 16 15 19 11 11 9 18 11 13 14 11 17 17 12 20 16 15 20 8 10 17 18 9 13 11 13 16 17 16 18 16 11 16 13 19 18 23 18 15 14 14 18 16 10 15 13 13 12 10 21 12 22 22 9 13 12 17 13 18 13 13 10 19 15 11 15 10 8 11 10 8 15 17 13 11 
BTB PER SET COUNT: 1016 24 1980 35 17 13 15 8 1479 19 25 1582 9478 13 14 16 15 2388 345 10 23 610 766 35 17 14 18 92 13 18 18 43 26 20 13 657 39 16 10 683 11 18 15 49 5 11 43 10 1538 10 21 315 17 22 335 9 17 14 13 18 13 1819 494 21 13 23 27 11 35 18 1482 1118 27 12 11 11 8 14 25 12 26 7 15 25 20 1399 26 7 1623 29 9 10 77 13 13 16 552 10 9 30 27 27 24 18 1254 14 36 29 968 2749 13 26 17 24 13 12 18 15 1477 331 79 10 18 17 12 65 15 20 25 994 22 14 19 11 9 28 73 19 17 38 22 26 17 14 36 13 1479 413 16 35 23 255 1643 19 17 24 21 15 19 1764 34 250 1000 25 1069 713 14 11 20 427 19 15 26 25 9 29 18 22 114 514 345 155 16 32 31 24 13 26 32 188 23 16 23 24 29 12 15 27 12 487 36 82 909 11 16 16 9 486 14 18 18 20 15 23 16 215 23 20 10 46 7 31 379 9 16 38 26 263 19 17 10 14 9 18 695 11097 39 18 25 19 22 25 540 963 7 17 307 18 495 21 25 24 21 10 24 50 19 26 21 14 79 20 7 30 28 10 14 20 68 25 17 52 15 15 8 17 19 35 17 14 13 28 12 10 41 10 10 34 28 16 18 17 26 25 11 20 940 30 33 354 23 13 405 49 15 31 16 9 80 1006 21 29 13 23 1478 243 17 27 21 24 16 1990 19 23 8 257 245 10 13 12 24 21 56 11 13 30 10 528 11 378 19 755 12 350 22 21 17 22 22 20 15 9 15 19 16 35 28 25 10 16 14 14 10 29 12 41 19 11 27 13 29 50 31 965 889 15 10 36 143 448 167 20 278 19 20 14 1976 24 15 17 26 13 13 20 17 973 23 15 123 1395 12 26 25 23 38 23 22 16 15 21 2032 13 10 291 8 9 17 57 647 20 20 22 9 25 30 15 13 22 19 20 33 14 16 26 513 30 21 44 16 12 15 21 40 10 30 14 128 17 17 26 20 15 33 12 25 1020 30 12 15 30 15 31 17 25 24 8 1376 31 29 34 28 18 23 22 14 23 25 16 7 21 32 14 18 17 13 939 33 22 16 150 30 22 4920 17 11 17 569 956 22 10 21 41 9 27 23 14 9 47 23 19 20 208 644 483 16 21 19 31 8 379 11 17 23 215 17 51 27 951 10 587 26 23 11 18 14 195 18 27 26 182 33 16 15 27 39 24 11 27 16 546 22 20 984 43 22 21 31 9 21 17 18 122 22 13 20 35 167 21 38 16 24 28 15 20 1366 20 30 659 24 22 13 28 12 608 21 18 703 14 27 28 10 24 23 14 24 10 7 374 13 13 18 14 114 18 21 23 25 1420 15 15 42 1485 27 19 14 34 18 21 12 156 14 20 23 972 37 16 14 37 339 21 19 24 13 30 29 17 24 26 12 22 24 16 17 1901 37 148 1008 15 15 13 20 24 11 13 43 27 19 288 24 582 11 10 12 29 697 14 16 20 1469 24 34 17 18 27 205 16 24 20 13 33 17 16 776 27 23 20 15 27 35 16 19 22 20 12 17 14 19 1536 23 22 26 25 729 31 9 22 12 11 19 11 11 533 1009 22 16 140 22 25 20 26 28 315 14 118 1917 26 29 14 664 707 29 6 17 8 14 29 105 12 28 19 12 26 948 92 17 31 1182 17 20 17 22 22 741 1969 1126 13 19 13 18 14 23 15 9 212 971 27 19 121 16 13 91 119 16 9 22 14 19 520 28 25 796 27 9 11 22 191 15 10 20 10 12 921 30 22 1346 57 14 22 20 241 207 29 31 381 244 12 18 26 25 60 16 3585 16 337 13 1860 23 429 33 207 25 755 6 21 1469 27 17 15 25 22 25 28 16 15 506 88 17 17 106 21 21 98 15 21 1458 25 168 24 18 13276 15 273 20 21 31 18 536 17 27 24 108 15 19 23 111 13 16 13 19 52 18 19 18 22 23 5 20 11 14 32 23 10 144 89 327 25 24 19 18 33 17 1076 1930 29 20 18 12 15 20 11 27 14 14 392 14 23 18 15 21 18 100 16 26 22 16 27 46 244 16 19 17 29 1030 15 20 259 11 25 27 36 17 21 23 14 28 2030 25 28 1372 9 9 32 19 15 26 24 27 21 15 22 389 830 914 2856 10 30 13 18 152 19 83 36 506 29 22 23 147 8 46 26 55 12 19 16 27 20 23 19 23 28 18 323 17 130 31 263 26 261 28 26 23 845 10 1008 19 15 18 425 35 300 43 442 11 18 15 21 34 23 18 981 17 485 21 12 21 16 10 21 11 8 24 102 15 15 
To predecode: 0
Predecoding something: 0
Predecode request dropped: 0
sizeofblock_0 0
sizeofblock_1 42481
sizeofblock_2 38566
sizeofblock_3 39067
sizeofblock_4 19175
sizeofblock_5 0
sizeofblock_6 0
sizeofblock_7 0
sizeofblock_8 0
Variant_0 Correct: 1608703 Incorrect: 0 Accuracy: 1
Variant_1 Correct: 2086561 Incorrect: 0 Accuracy: 1
Variant_2 Correct: 3637475 Incorrect: 0 Accuracy: 1
Variant_3 Correct: 0 Incorrect: 0 Accuracy: -nan
