
*** ChampSim Multicore Out-of-Order Simulator ***

Warmup Instructions: 50000000
Simulation Instructions: 50000000
Number of CPUs: 1
LLC sets: 2048
LLC ways: 16
Off-chip DRAM Size: 4096 MB Channels: 1 Width: 64-bit Data Rate: 6400 MT/s
CPU 0 runs ./micro_traces/srv79.trace.gz
.gz
ITLB has LRU replacement policy
DTLB has LRU replacement policy
STLB has LRU replacement policy
FDIP Prefetcher at L1I
L1I has LRU replacement policy
L1D has LRU replacement policy
Initialize SRRIP state for L2C
Initialize DRRIP state for LLC
Heartbeat_Variant_0 : 1437 0.175415 per_variant_size: 0 1437 0 0 0 0 0 0 0 
Heartbeat_Variant_1 : 3046 0.371826 per_variant_size: 0 1005 2041 0 0 0 0 0 0 
Heartbeat_Variant_2 : 0 0 per_variant_size: 0 0 0 0 0 0 0 0 0 
Heartbeat_Variant_3 : 0 0 per_variant_size: 0 0 0 0 0 0 0 0 0 
Heartbeat_Variant_0_evicts 0 : 7295 1 : 1629 2 : 0 3 : 0 
Heartbeat_Variant_1_evicts 0 : 1639 1 : 0 2 : 0 3 : 0 
Heartbeat_Variant_2_evicts 0 : 0 1 : 0 2 : 0 3 : 0 
Heartbeat_Variant_3_evicts 0 : 0 1 : 0 2 : 0 3 : 0 
Heartbeat CPU 0 instructions: 10000003 cycles: 2789667 heartbeat IPC: 3.58466 cumulative IPC: 3.58466 (Simulation time: 0 hr 1 min 34 sec) 
Heartbeat_Variant_0 : 1444 0.17627 per_variant_size: 0 1444 0 0 0 0 0 0 0 
Heartbeat_Variant_1 : 3066 0.374268 per_variant_size: 0 1003 2063 0 0 0 0 0 0 
Heartbeat_Variant_2 : 0 0 per_variant_size: 0 0 0 0 0 0 0 0 0 
Heartbeat_Variant_3 : 0 0 per_variant_size: 0 0 0 0 0 0 0 0 0 
Heartbeat_Variant_0_evicts 0 : 6992 1 : 1471 2 : 0 3 : 0 
Heartbeat_Variant_1_evicts 0 : 1472 1 : 0 2 : 0 3 : 0 
Heartbeat_Variant_2_evicts 0 : 0 1 : 0 2 : 0 3 : 0 
Heartbeat_Variant_3_evicts 0 : 0 1 : 0 2 : 0 3 : 0 
Heartbeat CPU 0 instructions: 20000003 cycles: 5580354 heartbeat IPC: 3.58335 cumulative IPC: 3.584 (Simulation time: 0 hr 3 min 1 sec) 
Heartbeat_Variant_0 : 1457 0.177856 per_variant_size: 0 1457 0 0 0 0 0 0 0 
Heartbeat_Variant_1 : 3099 0.378296 per_variant_size: 0 994 2105 0 0 0 0 0 0 
Heartbeat_Variant_2 : 0 0 per_variant_size: 0 0 0 0 0 0 0 0 0 
Heartbeat_Variant_3 : 0 0 per_variant_size: 0 0 0 0 0 0 0 0 0 
Heartbeat_Variant_0_evicts 0 : 6980 1 : 1433 2 : 0 3 : 0 
Heartbeat_Variant_1_evicts 0 : 1433 1 : 0 2 : 0 3 : 0 
Heartbeat_Variant_2_evicts 0 : 0 1 : 0 2 : 0 3 : 0 
Heartbeat_Variant_3_evicts 0 : 0 1 : 0 2 : 0 3 : 0 
Heartbeat CPU 0 instructions: 30000001 cycles: 8371636 heartbeat IPC: 3.58258 cumulative IPC: 3.58353 (Simulation time: 0 hr 4 min 14 sec) 
Heartbeat_Variant_0 : 1461 0.178345 per_variant_size: 0 1461 0 0 0 0 0 0 0 
Heartbeat_Variant_1 : 3096 0.37793 per_variant_size: 0 993 2103 0 0 0 0 0 0 
Heartbeat_Variant_2 : 0 0 per_variant_size: 0 0 0 0 0 0 0 0 0 
Heartbeat_Variant_3 : 0 0 per_variant_size: 0 0 0 0 0 0 0 0 0 
Heartbeat_Variant_0_evicts 0 : 7209 1 : 1578 2 : 0 3 : 0 
Heartbeat_Variant_1_evicts 0 : 1574 1 : 0 2 : 0 3 : 0 
Heartbeat_Variant_2_evicts 0 : 0 1 : 0 2 : 0 3 : 0 
Heartbeat_Variant_3_evicts 0 : 0 1 : 0 2 : 0 3 : 0 
Heartbeat CPU 0 instructions: 40000003 cycles: 11161268 heartbeat IPC: 3.5847 cumulative IPC: 3.58382 (Simulation time: 0 hr 5 min 46 sec) 
Heartbeat_Variant_0 : 1456 0.177734 per_variant_size: 0 1456 0 0 0 0 0 0 0 
Heartbeat_Variant_1 : 3101 0.37854 per_variant_size: 0 993 2108 0 0 0 0 0 0 
Heartbeat_Variant_2 : 0 0 per_variant_size: 0 0 0 0 0 0 0 0 0 
Heartbeat_Variant_3 : 0 0 per_variant_size: 0 0 0 0 0 0 0 0 0 
Heartbeat_Variant_0_evicts 0 : 7212 1 : 1571 2 : 0 3 : 0 
Heartbeat_Variant_1_evicts 0 : 1576 1 : 0 2 : 0 3 : 0 
Heartbeat_Variant_2_evicts 0 : 0 1 : 0 2 : 0 3 : 0 
Heartbeat_Variant_3_evicts 0 : 0 1 : 0 2 : 0 3 : 0 
Heartbeat CPU 0 instructions: 50000000 cycles: 13949887 heartbeat IPC: 3.586 cumulative IPC: 3.58426 (Simulation time: 0 hr 7 min 9 sec) 

Warmup complete CPU 0 instructions: 50000004 cycles: 13949888 (Simulation time: 0 hr 7 min 9 sec) 

Cycle: 20000000 FTQ IN: 58268816 FTQ occupancy: 19.6486 DECODE IN: 58268744 DECODE occupancy: 51.1807 ROB IN: 58268744 ROB occupancy: 311.201 ROB OUT: 58268744
Heartbeat_Variant_0 : 1462 0.178467 per_variant_size: 0 1462 0 0 0 0 0 0 0 
Heartbeat_Variant_1 : 3098 0.378174 per_variant_size: 0 1004 2094 0 0 0 0 0 0 
Heartbeat_Variant_2 : 0 0 per_variant_size: 0 0 0 0 0 0 0 0 0 
Heartbeat_Variant_3 : 0 0 per_variant_size: 0 0 0 0 0 0 0 0 0 
Heartbeat_Variant_0_evicts 0 : 7448 1 : 1631 2 : 0 3 : 0 
Heartbeat_Variant_1_evicts 0 : 1625 1 : 0 2 : 0 3 : 0 
Heartbeat_Variant_2_evicts 0 : 0 1 : 0 2 : 0 3 : 0 
Heartbeat_Variant_3_evicts 0 : 0 1 : 0 2 : 0 3 : 0 
Heartbeat CPU 0 instructions: 60000002 cycles: 21256718 heartbeat IPC: 1.36858 cumulative IPC: 1.36858 (Simulation time: 0 hr 8 min 40 sec) 
Heartbeat_Variant_0 : 1461 0.178345 per_variant_size: 0 1461 0 0 0 0 0 0 0 
Heartbeat_Variant_1 : 3116 0.380371 per_variant_size: 0 1013 2103 0 0 0 0 0 0 
Heartbeat_Variant_2 : 0 0 per_variant_size: 0 0 0 0 0 0 0 0 0 
Heartbeat_Variant_3 : 0 0 per_variant_size: 0 0 0 0 0 0 0 0 0 
Heartbeat_Variant_0_evicts 0 : 7119 1 : 1455 2 : 0 3 : 0 
Heartbeat_Variant_1_evicts 0 : 1459 1 : 0 2 : 0 3 : 0 
Heartbeat_Variant_2_evicts 0 : 0 1 : 0 2 : 0 3 : 0 
Heartbeat_Variant_3_evicts 0 : 0 1 : 0 2 : 0 3 : 0 
Heartbeat CPU 0 instructions: 70000003 cycles: 28545955 heartbeat IPC: 1.37189 cumulative IPC: 1.37023 (Simulation time: 0 hr 10 min 15 sec) 
Cycle: 30000000 FTQ IN: 13787003 FTQ occupancy: 12.3917 DECODE IN: 13786962 DECODE occupancy: 31.84 ROB IN: 13786902 ROB occupancy: 230.209 ROB OUT: 13786561
Heartbeat_Variant_0 : 1453 0.177368 per_variant_size: 0 1453 0 0 0 0 0 0 0 
Heartbeat_Variant_1 : 3132 0.382324 per_variant_size: 0 1017 2115 0 0 0 0 0 0 
Heartbeat_Variant_2 : 0 0 per_variant_size: 0 0 0 0 0 0 0 0 0 
Heartbeat_Variant_3 : 0 0 per_variant_size: 0 0 0 0 0 0 0 0 0 
Heartbeat_Variant_0_evicts 0 : 7284 1 : 1374 2 : 0 3 : 0 
Heartbeat_Variant_1_evicts 0 : 1383 1 : 0 2 : 0 3 : 0 
Heartbeat_Variant_2_evicts 0 : 0 1 : 0 2 : 0 3 : 0 
Heartbeat_Variant_3_evicts 0 : 0 1 : 0 2 : 0 3 : 0 
Heartbeat CPU 0 instructions: 80000002 cycles: 35827088 heartbeat IPC: 1.37341 cumulative IPC: 1.37129 (Simulation time: 0 hr 11 min 58 sec) 
Cycle: 40000000 FTQ IN: 13742755 FTQ occupancy: 12.4014 DECODE IN: 13742818 DECODE occupancy: 31.9312 ROB IN: 13742878 ROB occupancy: 229.734 ROB OUT: 13743219
Heartbeat_Variant_0 : 1459 0.178101 per_variant_size: 0 1459 0 0 0 0 0 0 0 
Heartbeat_Variant_1 : 3126 0.381592 per_variant_size: 0 1006 2120 0 0 0 0 0 0 
Heartbeat_Variant_2 : 0 0 per_variant_size: 0 0 0 0 0 0 0 0 0 
Heartbeat_Variant_3 : 0 0 per_variant_size: 0 0 0 0 0 0 0 0 0 
Heartbeat_Variant_0_evicts 0 : 7150 1 : 1353 2 : 0 3 : 0 
Heartbeat_Variant_1_evicts 0 : 1347 1 : 0 2 : 0 3 : 0 
Heartbeat_Variant_2_evicts 0 : 0 1 : 0 2 : 0 3 : 0 
Heartbeat_Variant_3_evicts 0 : 0 1 : 0 2 : 0 3 : 0 
Heartbeat CPU 0 instructions: 90000003 cycles: 43006088 heartbeat IPC: 1.39295 cumulative IPC: 1.37664 (Simulation time: 0 hr 13 min 32 sec) 
Cycle: 50000000 FTQ IN: 13748336 FTQ occupancy: 12.3395 DECODE IN: 13748357 DECODE occupancy: 31.6904 ROB IN: 13748351 ROB occupancy: 228.129 ROB OUT: 13748096
Heartbeat_Variant_0 : 1459 0.178101 per_variant_size: 0 1459 0 0 0 0 0 0 0 
Heartbeat_Variant_1 : 3129 0.381958 per_variant_size: 0 1009 2120 0 0 0 0 0 0 
Heartbeat_Variant_2 : 0 0 per_variant_size: 0 0 0 0 0 0 0 0 0 
Heartbeat_Variant_3 : 0 0 per_variant_size: 0 0 0 0 0 0 0 0 0 
Heartbeat_Variant_0_evicts 0 : 7459 1 : 1475 2 : 0 3 : 0 
Heartbeat_Variant_1_evicts 0 : 1475 1 : 0 2 : 0 3 : 0 
Heartbeat_Variant_2_evicts 0 : 0 1 : 0 2 : 0 3 : 0 
Heartbeat_Variant_3_evicts 0 : 0 1 : 0 2 : 0 3 : 0 
Heartbeat CPU 0 instructions: 100000002 cycles: 50339436 heartbeat IPC: 1.36363 cumulative IPC: 1.37402 (Simulation time: 0 hr 15 min 1 sec) 
Finished CPU 0 instructions: 50000002 cycles: 36389549 cumulative IPC: 1.37402 (Simulation time: 0 hr 15 min 1 sec) 

ChampSim completed all CPUs

Region of Interest Statistics

CPU 0 cumulative IPC: 1.37402 instructions: 50000002 cycles: 36389549
 Fetch stage stalled: 54.8275  Sim cycles: 36389549 fetch stall cycle: 19951484
 Empty decode stage: 37.7889  Sim cycles: 36389549 fetch stall cycle: 13751196
ITLB TOTAL     ACCESS:    5809527  HIT:    5365925  MISS:     443602  HIT %:    92.3642  MISS %:    7.63577   MPKI: 8.87204
ITLB LOAD TRANSLATION INSTRUCTION	ACCESS:    5681845  HIT:    5238243  MISS:     443602  HIT %:    92.1926  MISS %:    7.80736  MPKI: 8.87204
ITLB TRANSLATION FROM L1D PREFETCHER INSTRUCTION	ACCESS:     127682  HIT:     127682  MISS:          0  HIT %:        100  MISS %:          0  MPKI: 0

ITLB AVERAGE MISS LATENCY: 9.08507 cycles
ITLB RQ	ACCESS:    7794652	FORWARD:          0	MERGED:    1580905	TO_CACHE:    6213747

DTLB TOTAL     ACCESS:    8845489  HIT:    8381028  MISS:     464461  HIT %:    94.7492  MISS %:    5.25082   MPKI: 9.28922
DTLB LOAD TRANSLATION DATA	ACCESS:    8845489  HIT:    8381028  MISS:     464461  HIT %:    94.7492  MISS %:    5.25082  MPKI: 9.28922

DTLB AVERAGE MISS LATENCY: 9.42332 cycles
DTLB RQ	ACCESS:   13145762	FORWARD:          0	MERGED:    4261380	TO_CACHE:    8884382

STLB TOTAL     ACCESS:    1207975  HIT:    1205112  MISS:       2863  HIT %:     99.763  MISS %:   0.237008   MPKI: 0.05726
STLB LOAD TRANSLATION INSTRUCTION	ACCESS:     443602  HIT:     443159  MISS:        443  HIT %:    99.9001  MISS %:  0.0998643  MPKI: 0.00886
STLB LOAD TRANSLATION DATA	ACCESS:     464459  HIT:     462069  MISS:       2390  HIT %:    99.4854  MISS %:   0.514577  MPKI: 0.0478
STLB TRANSLATION FROM L1D PREFETCHER DATA	ACCESS:     299914  HIT:     299884  MISS:         30  HIT %:      99.99  MISS %:  0.0100029  MPKI: 0.0006

STLB AVERAGE MISS LATENCY: 71.5093 cycles
STLB RQ	ACCESS:    1383986	FORWARD:          0	MERGED:     175932	TO_CACHE:    1208054

STLB Hit, L1D data hit: 0
STLB Hit, L2C data hit: 0
STLB Hit, LLC data hit: 0
STLB Hit, LLC data miss: 0
STLB STLB hints to L2: 0
L1D TOTAL     ACCESS:   12997076  HIT:   11911061  MISS:    1086015  HIT %:    91.6442  MISS %:    8.35584   MPKI: 21.7203
L1D LOAD DATA	ACCESS:    6522577  HIT:    5821877  MISS:     700700  HIT %:    89.2573  MISS %:    10.7427  MPKI: 14.014
L1D RFO DATA	ACCESS:    6075827  HIT:    5800685  MISS:     275142  HIT %:    95.4715  MISS %:    4.52847  MPKI: 5.50284
L1D PREFETCH DATA	ACCESS:     398672  HIT:     288499  MISS:     110173  HIT %:     72.365  MISS %:     27.635  MPKI: 2.20346

L1D PREFETCH  REQUESTED:     952218  ISSUED:     952218  USEFUL:      56710  USELESS:      71618
L1D USEFUL LOAD PREFETCHES:      56710 PREFETCH ISSUED TO LOWER LEVEL:     128358  ACCURACY: 44.1811
 TIMELY PREFETCHES:      56710 LATE PREFETCHES: 18144 DROPPED PREFETCHES: 38
L1D AVERAGE MISS LATENCY: 539961 cycles
L1D RQ	ACCESS:   10634287	FORWARD:          0	MERGED:    3922665	TO_CACHE:    6561053
L1D WQ	ACCESS:    6762969	FORWARD:     150941	MERGED:     178260	TO_CACHE:    6584709
L1D PQ	ACCESS:     476295	FORWARD:          0	MERGED:          0	TO_CACHE:     475923

L1D UNIQUE REGIONS ACCESSED: 0
L1D REGIONS CONFLICTS: 0
L1D Cross Page Prefetch Requests: 10468
L1D Same Page Prefetch Requests: 956263
L1D ROI Sum of L1D PQ occupancy: 6044480
L1D PREFETCHES PUSHED FROM L2C: 0
L1I TOTAL     ACCESS:    7044554  HIT:    4545251  MISS:    2499303  HIT %:    64.5215  MISS %:    35.4785   MPKI: 49.9861
L1I LOAD INSTRUCTION	ACCESS:    6368126  HIT:    3868823  MISS:    2499303  HIT %:    60.7529  MISS %:    39.2471  MPKI: 49.9861
L1I PREFETCH INSTRUCTION	ACCESS:     676428  HIT:     676428  MISS:          0  HIT %:        100  MISS %:          0  MPKI: 0

L1I PREFETCH  REQUESTED:    1561322  ISSUED:    1561322  USEFUL:          0  USELESS:          0
L1I USEFUL LOAD PREFETCHES:          0 PREFETCH ISSUED TO LOWER LEVEL:          0  ACCURACY: -nan
 TIMELY PREFETCHES:          0 LATE PREFETCHES: 0 DROPPED PREFETCHES: 0
L1I AVERAGE MISS LATENCY: 17.8241 cycles
L1I RQ	ACCESS:    9471554	FORWARD:          0	MERGED:    2799442	TO_CACHE:    6672112
L1I PQ	ACCESS:    1561322	FORWARD:          0	MERGED:     438782	TO_CACHE:    1122540

L1BTB TOTAL     ACCESS:    5848302  HIT:    2467100  MISS:    3381202  HIT %:    42.1849  MISS %:    57.8151   MPKI: 67.624
L1BTB BRANCH_DIRECT_JUMP	ACCESS:     590736 HIT:     199701 MISS:     391035 AVERAGE STALL: 50.6875 AVERAGE FETCH STALL: 16.309 AVERAGE FETCH QUEUE STALL: 15.9779 AVERAGE DECODE STALL: 17.5376 AVERAGE EXECUTE STALL: 1.47917e+15
L1BTB BRANCH_INDIRECT	ACCESS:     172946 HIT:      57154 MISS:     115792 AVERAGE STALL: 102.138 AVERAGE FETCH STALL: 10.5889 AVERAGE FETCH QUEUE STALL: 15.8544 AVERAGE DECODE STALL: 10.7278 AVERAGE EXECUTE STALL: 64.0223
L1BTB BRANCH_CONDITIONAL	ACCESS:    3000562 HIT:    1794305 MISS:    1206257 AVERAGE STALL: 48.0049 AVERAGE FETCH STALL: 22.9576 AVERAGE FETCH QUEUE STALL: 13.5087 AVERAGE DECODE STALL: 10.8027 AVERAGE EXECUTE STALL: 1.92074e+15
L1BTB BRANCH_DIRECT_CALL	ACCESS:     882992 HIT:     107924 MISS:     775068 AVERAGE STALL: 59.9899 AVERAGE FETCH STALL: 24.0455 AVERAGE FETCH QUEUE STALL: 18.9337 AVERAGE DECODE STALL: 16.301 AVERAGE EXECUTE STALL: 1.04603e+15
L1BTB BRANCH_INDIRECT_CALL	ACCESS:     159042 HIT:      20139 MISS:     138903 AVERAGE STALL: 125.872 AVERAGE FETCH STALL: 13.0203 AVERAGE FETCH QUEUE STALL: 10.2715 AVERAGE DECODE STALL: 9.18746 AVERAGE EXECUTE STALL: 92.9546
L1BTB BRANCH_RETURN	ACCESS:    1042024 HIT:     287877 MISS:     754147 AVERAGE STALL: 49.6639 AVERAGE FETCH STALL: 18.2376 AVERAGE FETCH QUEUE STALL: 7.06122 AVERAGE DECODE STALL: 6.99226 AVERAGE EXECUTE STALL: 5.38827e+14
L1BTB BRANCH_OTHER ACCESS:          0 HIT:          0 MISS:          0 AVERAGE STALL: -nan AVERAGE FETCH STALL: -nan AVERAGE FETCH QUEUE STALL: -nan AVERAGE DECODE STALL: -nan AVERAGE EXECUTE STALL: -nan
L1BTB TOTAL ROB OCCUPANCY AT BTB MISS: 4.18609

L2BTB TOTAL     ACCESS:    3355872  HIT:    3274480  MISS:      81392  HIT %:    97.5746  MISS %:    2.42536   MPKI: 1.62784
L2BTB BRANCH_DIRECT_JUMP	ACCESS:     385933 HIT:     378560 MISS:       7373 AVERAGE STALL: 50.6875 AVERAGE FETCH STALL: 16.309 AVERAGE FETCH QUEUE STALL: 15.9779 AVERAGE DECODE STALL: 17.5376 AVERAGE EXECUTE STALL: 1.47917e+15
L2BTB BRANCH_INDIRECT	ACCESS:     105993 HIT:     103485 MISS:       2508 AVERAGE STALL: 102.138 AVERAGE FETCH STALL: 10.5889 AVERAGE FETCH QUEUE STALL: 15.8544 AVERAGE DECODE STALL: 10.7278 AVERAGE EXECUTE STALL: 64.0223
L2BTB BRANCH_CONDITIONAL	ACCESS:    1206257 HIT:    1196574 MISS:       9683 AVERAGE STALL: 48.0049 AVERAGE FETCH STALL: 22.9576 AVERAGE FETCH QUEUE STALL: 13.5087 AVERAGE DECODE STALL: 10.8027 AVERAGE EXECUTE STALL: 1.92074e+15
L2BTB BRANCH_DIRECT_CALL	ACCESS:     775068 HIT:     757427 MISS:      17641 AVERAGE STALL: 59.9899 AVERAGE FETCH STALL: 24.0455 AVERAGE FETCH QUEUE STALL: 18.9337 AVERAGE DECODE STALL: 16.301 AVERAGE EXECUTE STALL: 1.04603e+15
L2BTB BRANCH_INDIRECT_CALL	ACCESS:     129482 HIT:     118535 MISS:      10947 AVERAGE STALL: 125.872 AVERAGE FETCH STALL: 13.0203 AVERAGE FETCH QUEUE STALL: 10.2715 AVERAGE DECODE STALL: 9.18746 AVERAGE EXECUTE STALL: 92.9546
L2BTB BRANCH_RETURN	ACCESS:     753139 HIT:     719899 MISS:      33240 AVERAGE STALL: 49.6639 AVERAGE FETCH STALL: 18.2376 AVERAGE FETCH QUEUE STALL: 7.06122 AVERAGE DECODE STALL: 6.99226 AVERAGE EXECUTE STALL: 5.38827e+14
L2BTB BRANCH_OTHER ACCESS:          0 HIT:          0 MISS:          0 AVERAGE STALL: -nan AVERAGE FETCH STALL: -nan AVERAGE FETCH QUEUE STALL: -nan AVERAGE DECODE STALL: -nan AVERAGE EXECUTE STALL: -nan
L2BTB TOTAL ROB OCCUPANCY AT BTB MISS: 173.899

L2C TOTAL     ACCESS:    4156784  HIT:    3617807  MISS:     538977  HIT %:    87.0338  MISS %:    12.9662   MPKI: 10.7795
L2C LOAD INSTRUCTION	ACCESS:    2499304  HIT:    2215789  MISS:     283515  HIT %:    88.6562  MISS %:    11.3438  MPKI: 5.6703
L2C LOAD TRANSLATION INSTRUCTION	ACCESS:        517  HIT:        154  MISS:        363  HIT %:    29.7872  MISS %:    70.2128  MPKI: 0.00726
L2C LOAD DATA	ACCESS:     682382  HIT:     588255  MISS:      94127  HIT %:    86.2061  MISS %:    13.7939  MPKI: 1.88254
L2C RFO DATA	ACCESS:     275065  HIT:     216915  MISS:      58150  HIT %:    78.8595  MISS %:    21.1405  MPKI: 1.163
L2C PREFETCH DATA	ACCESS:     217538  HIT:     129389  MISS:      88149  HIT %:    59.4788  MISS %:    40.5212  MPKI: 1.76298
L2C WRITEBACK DATA	ACCESS:     479256  HIT:     466602  MISS:      12654  HIT %:    97.3597  MISS %:    2.64034  MPKI: 0.25308
L2C LOAD TRANSLATION DATA	ACCESS:       2633  HIT:        671  MISS:       1962  HIT %:    25.4842  MISS %:    74.5158  MPKI: 0.03924
L2C TRANSLATION FROM L1D PREFETCHER DATA	ACCESS:         89  HIT:         32  MISS:         57  HIT %:    35.9551  MISS %:    64.0449  MPKI: 0.00114

L2C PREFETCH  REQUESTED:      99435  ISSUED:      99435  USEFUL:      11248  USELESS:      77572
L2C USEFUL LOAD PREFETCHES:      11248 PREFETCH ISSUED TO LOWER LEVEL:      88808  ACCURACY: 12.6655
 TIMELY PREFETCHES:      11248 LATE PREFETCHES: 659 DROPPED PREFETCHES: 0
L2C AVERAGE MISS LATENCY: 41.048 cycles
L2C RQ	ACCESS:    3460202	FORWARD:          0	MERGED:          0	TO_CACHE:    3459992
L2C WQ	ACCESS:     479256	FORWARD:        212	MERGED:          0	TO_CACHE:     479256
L2C PQ	ACCESS:     227793	FORWARD:          0	MERGED:       3569	TO_CACHE:     224222

L2C Dense regions hint from L2: 0
PSCL5 TOTAL     ACCESS:       5802  HIT:       2901  MISS:       2901  HIT %:         50  MISS %:         50   MPKI: 0.05802
PSCL5 LOAD TRANSLATION INSTRUCTION	ACCESS:       5642  HIT:       2821  MISS:       2821  HIT %:         50  MISS %:         50  MPKI: 0.05642
PSCL5 TRANSLATION FROM L1D PREFETCHER INSTRUCTION	ACCESS:        160  HIT:         80  MISS:         80  HIT %:         50  MISS %:         50  MPKI: 0.0016


PSCL4 TOTAL     ACCESS:       5377  HIT:       2681  MISS:       2696  HIT %:    49.8605  MISS %:    50.1395   MPKI: 0.05392
PSCL4 LOAD TRANSLATION INSTRUCTION	ACCESS:       2759  HIT:       2602  MISS:        157  HIT %:    94.3095  MISS %:    5.69047  MPKI: 0.00314
PSCL4 TRANSLATION FROM L1D PREFETCHER INSTRUCTION	ACCESS:         79  HIT:         79  MISS:          0  HIT %:        100  MISS %:          0  MPKI: 0
PSCL4 LOAD TRANSLATION DATA	ACCESS:       2460  HIT:          0  MISS:       2460  HIT %:          0  MISS %:        100  MPKI: 0.0492
PSCL4 TRANSLATION FROM L1D PREFETCHER DATA	ACCESS:         79  HIT:          0  MISS:         79  HIT %:          0  MISS %:        100  MPKI: 0.00158


PSCL3 TOTAL     ACCESS:       5679  HIT:       2832  MISS:       2847  HIT %:    49.8679  MISS %:    50.1321   MPKI: 0.05694
PSCL3 LOAD TRANSLATION INSTRUCTION	ACCESS:       2910  HIT:       2753  MISS:        157  HIT %:    94.6048  MISS %:    5.39519  MPKI: 0.00314
PSCL3 TRANSLATION FROM L1D PREFETCHER INSTRUCTION	ACCESS:         79  HIT:         79  MISS:          0  HIT %:        100  MISS %:          0  MPKI: 0
PSCL3 LOAD TRANSLATION DATA	ACCESS:       2611  HIT:          0  MISS:       2611  HIT %:          0  MISS %:        100  MPKI: 0.05222
PSCL3 TRANSLATION FROM L1D PREFETCHER DATA	ACCESS:         79  HIT:          0  MISS:         79  HIT %:          0  MISS %:        100  MPKI: 0.00158


PSCL2 TOTAL     ACCESS:       5486  HIT:       2592  MISS:       2894  HIT %:    47.2475  MISS %:    52.7525   MPKI: 0.05788
PSCL2 LOAD TRANSLATION INSTRUCTION	ACCESS:       2963  HIT:       2521  MISS:        442  HIT %:    85.0827  MISS %:    14.9173  MPKI: 0.00884
PSCL2 TRANSLATION FROM L1D PREFETCHER INSTRUCTION	ACCESS:         71  HIT:         71  MISS:          0  HIT %:        100  MISS %:          0  MPKI: 0
PSCL2 LOAD TRANSLATION DATA	ACCESS:       2381  HIT:          0  MISS:       2381  HIT %:          0  MISS %:        100  MPKI: 0.04762
PSCL2 TRANSLATION FROM L1D PREFETCHER DATA	ACCESS:         71  HIT:          0  MISS:         71  HIT %:          0  MISS %:        100  MPKI: 0.00142


LLC TOTAL     ACCESS:     610040  HIT:     570934  MISS:      39106  HIT %:    93.5896  MISS %:     6.4104   MPKI: 0.78212
LLC LOAD INSTRUCTION	ACCESS:     283515  HIT:     282208  MISS:       1307  HIT %:     99.539  MISS %:   0.460999  MPKI: 0.02614
LLC LOAD TRANSLATION INSTRUCTION	ACCESS:        363  HIT:        331  MISS:         32  HIT %:    91.1846  MISS %:    8.81543  MPKI: 0.00064
LLC LOAD DATA	ACCESS:      93495  HIT:      88666  MISS:       4829  HIT %:     94.835  MISS %:    5.16498  MPKI: 0.09658
LLC RFO DATA	ACCESS:      58122  HIT:      39157  MISS:      18965  HIT %:    67.3704  MISS %:    32.6296  MPKI: 0.3793
LLC PREFETCH DATA	ACCESS:      88808  HIT:      75347  MISS:      13461  HIT %:    84.8426  MISS %:    15.1574  MPKI: 0.26922
LLC WRITEBACK DATA	ACCESS:      83718  HIT:      83332  MISS:        386  HIT %:    99.5389  MISS %:   0.461072  MPKI: 0.00772
LLC LOAD TRANSLATION DATA	ACCESS:       1962  HIT:       1839  MISS:        123  HIT %:    93.7309  MISS %:    6.26911  MPKI: 0.00246
LLC TRANSLATION FROM L1D PREFETCHER DATA	ACCESS:         57  HIT:         54  MISS:          3  HIT %:    94.7368  MISS %:    5.26316  MPKI: 6e-05

LLC AVERAGE MISS LATENCY: 160.873 cycles
LLC RQ	ACCESS:     437515	FORWARD:          0	MERGED:          0	TO_CACHE:     437514
LLC WQ	ACCESS:      83718	FORWARD:          1	MERGED:          0	TO_CACHE:      83718
LLC PQ	ACCESS:      88808	FORWARD:          0	MERGED:          0	TO_CACHE:      88808

LLC Dense regions hint to LLC: 0

RAW hits: 1818498
Loads Generated: 12452785
Loads sent to L1D: 10634287
Stores Generated: 6762963
Stores sent to L1D: 6762969
Major fault: 0 Minor fault: 2610
Allocated PAGES: 2610

stream: 
stream:times selected: 1489049
stream:pref_filled: 129689
stream:pref_useful: 30898
stream:pref_late: 10729
stream:misses: 13202
stream:misses_by_poll: 0

CS: 
CS:times selected: 238394
CS:pref_filled: 86839
CS:pref_useful: 62329
CS:pref_late: 10864
CS:misses: 29228
CS:misses_by_poll: 7

CPLX: 
CPLX:times selected: 1248501
CPLX:pref_filled: 28874
CPLX:pref_useful: 9537
CPLX:pref_late: 5130
CPLX:misses: 149975
CPLX:misses_by_poll: 4

NL_L1: 
NL:times selected: 28861
NL:pref_filled: 2063
NL:pref_useful: 1065
NL:pref_late: 652
NL:misses: 3798
NL:misses_by_poll: 0

total selections: 3004805
total_filled: 110173
total_useful: 56710
total_late: 30528
total_polluted: 11
total_misses_after_warmup: 739179
conflicts: 5227663

test: 175339

DRAM Statistics
 CHANNEL 0
 RQ ROW_BUFFER_HIT:      13857  ROW_BUFFER_MISS:      24859
 DBUS_CONGESTED:         18
 WQ ROW_BUFFER_HIT:       2186  ROW_BUFFER_MISS:      18299  FULL:          0

 AVG_CONGESTED_CYCLE: 5

CPU 0 Branch Prediction Accuracy: 99.7585% MPKI: 0.44248 Average ROB Occupancy at Mispredict: 179.165
Branch types
NOT_BRANCH: 40840378 81.6808%
BRANCH_DIRECT_JUMP: 590736 1.18147%
BRANCH_INDIRECT: 172946 0.345892%
BRANCH_CONDITIONAL: 6311827 12.6237%
BRANCH_DIRECT_CALL: 882992 1.76598%
BRANCH_INDIRECT_CALL: 159042 0.318084%
BRANCH_RETURN: 1042024 2.08405%
BRANCH_OTHER: 0 0%

DRAM PAGES: 1048576
Allocated PAGES: 2610
Average_ROB_Occupancy: 229.698
Average_Decode_Occupancy: 31.6026
Average_FTQ_Occupancy: 12.2945
Indirect max targets: 14 Average targets: 1.17197
Branch_type:  BRANCH_DIRECT_JUMP:  Count Percentage: 10.3881 5.72462 3.62126 9.64655 4.07949 2.2458 1.42888 62.8653 
Branch_type:  BRANCH_INDIRECT:  Count Percentage: 0.0101631 1.16178 9.19758 10.6721 3.53443 2.94497 3.14678 69.3322 
Branch_type:  BRANCH_CONDITIONAL:  Count Percentage: 30.1053 3.09705 1.38659 4.43828 2.04892 1.95796 0.999226 55.9667 
Branch_type:  BRANCH_DIRECT_CALL:  Count Percentage: 0.830482 1.28119 0.595563 4.36289 2.12053 2.19902 1.0544 87.5559 
Branch_type:  BRANCH_INDIRECT_CALL:  Count Percentage: 8.72089 0 2.97616 0.000939346 0 2.18617 3.39323 82.7226 
Branch_type:  BRANCH_RETURN:  Count Percentage: 8.41812 1.20196 1.18069 4.02828 3.56167 3.35821 1.4241 76.827 
Branch_type:  BRANCH_DIRECT_JUMP:  Total Count: 122305 67399 42635 113574 48030 26441 16823 740146 
Branch_type:  BRANCH_INDIRECT:  Total Count: 35 4001 31675 36753 12172 10142 10837 238769 
Branch_type:  BRANCH_CONDITIONAL:  Total Count: 3795871 390497 174830 559608 258342 246873 125989 7056654 
Branch_type:  BRANCH_DIRECT_CALL:  Total Count: 14717 22704 10554 77315 37578 38969 18685 1551582 
Branch_type:  BRANCH_INDIRECT_CALL:  Total Count: 27852 0 9505 3 0 6982 10837 264192 
Branch_type:  BRANCH_RETURN:  Total Count: 176135 25149 24704 84285 74522 70265 29797 1607475 
Number of unique branch instructions: 10677
Upper 32 bits: 
aaaa
ffff
ffff0000
Unique upper 32 bits: 3
Unique upper 36 bits: 3
Unique upper 40 bits: 5
Unique upper 44 bits: 32
Unique upper 48 bits: 158
Variant_0 : 1459 0.178101
Variant_1 : 3129 0.381958
Variant_2 : 0 0
Variant_3 : 0 0
Offset_3 4406
Offset_4 261
Offset_5 487
Offset_6 539
Offset_7 638
Offset_8 578
Offset_9 511
Offset_10 404
Offset_11 343
Offset_12 311
Offset_13 246
Offset_14 247
Offset_15 199
Offset_16 228
Offset_17 166
Offset_18 144
Offset_19 258
Offset_20 144
Offset_21 239
Offset_22 410
Offset_23 241
Offset_24 352
Offset_25 117
Offset_47 94
Offset_64 2
decode_dispatch_called: 24502959 67.3352
Dispatch_width: 0 13000176 53.0555 35.725
Dispatch_width: 1 873468 3.56474 2.40033
Dispatch_width: 2 808118 3.29804 2.22074
Dispatch_width: 3 471450 1.92405 1.29556
Dispatch_width: 4 4919222 20.076 13.5182
Dispatch_width: 5 164090 0.669674 0.450926
Dispatch_width: 6 4266435 17.4119 11.7243
Empty_decode_cycles: 11886590 32.6648
ROB_full_cycles: 7726261 21.2321
Starvation_cycles_per_kilo_instr: 243.969
Starvation_cycles_per_kilo_instr_3: 193.135
Starvation_cycles_per_kilo_instr_0: 171.605
Branch_type_1  (3,1)  (4,10)  (5,38)  (6,72)  (7,124)  (8,153)  (9,134)  (10,99)  (11,77)  (12,48)  (13,12)  (14,2)  (15,3)  (16,4)  (18,1)  (19,5)  (20,2)  (21,1)  (22,3)  (23,2)  (24,10)  (25,12)  (64,1) 
Branch_type_2  (3,1)  (4,1)  (5,1)  (8,3)  (9,4)  (10,1)  (12,1)  (13,1)  (14,1)  (16,3)  (17,2)  (20,2)  (21,2)  (23,5)  (24,1)  (47,43) 
Branch_type_3  (3,4404)  (4,250)  (5,444)  (6,451)  (7,483)  (8,356)  (9,279)  (10,165)  (11,131)  (12,58)  (13,11)  (64,1) 
Branch_type_4  (6,3)  (7,8)  (8,25)  (9,56)  (10,66)  (11,69)  (12,114)  (13,104)  (14,113)  (15,94)  (16,100)  (17,76)  (18,61)  (19,126)  (20,73)  (21,127)  (22,215)  (23,136)  (24,206)  (25,101) 
Branch_type_5  (8,3)  (9,1)  (10,4)  (11,5)  (12,3)  (13,14)  (14,16)  (15,11)  (16,22)  (17,11)  (18,23)  (19,14)  (20,11)  (21,13)  (22,43)  (23,26)  (24,38) 
Branch_type_6  (5,4)  (6,13)  (7,23)  (8,38)  (9,37)  (10,69)  (11,61)  (12,87)  (13,104)  (14,115)  (15,91)  (16,99)  (17,77)  (18,59)  (19,113)  (20,56)  (21,96)  (22,149)  (23,72)  (24,97)  (25,4)  (47,51) 
Unique trigger count: 
Variant_0_evicts_0 : 0
Variant_0_evicts_1 : 0
Variant_0_evicts_2 : 0
Variant_0_evicts_3 : 0
Variant_1_evicts_0 : 0
Variant_1_evicts_1 : 0
Variant_1_evicts_2 : 0
Variant_1_evicts_3 : 0
Variant_2_evicts_0 : 0
Variant_2_evicts_1 : 0
Variant_2_evicts_2 : 0
Variant_2_evicts_3 : 0
Variant_3_evicts_0 : 0
Variant_3_evicts_1 : 0
Variant_3_evicts_2 : 0
Variant_3_evicts_3 : 0
BTB PER SET UNIQUE ADDR: 3 5 3 3 1 1 3 2 4 0 1 0 5 3 1 3 4 2 3 5 3 4 2 4 4 6 1 4 3 2 6 5 4 3 5 3 1 7 5 2 4 4 4 6 6 4 4 4 6 3 3 2 3 1 0 3 4 3 3 3 1 4 2 3 1 4 5 4 3 5 5 1 1 4 2 3 3 6 1 4 2 2 2 4 3 3 2 4 3 2 6 5 3 5 2 0 3 4 2 3 4 4 2 3 3 2 1 2 4 2 2 2 4 5 2 6 2 3 4 1 6 4 2 0 1 2 2 2 6 4 6 2 4 1 6 4 2 2 3 3 4 5 4 2 3 5 3 5 5 4 2 9 3 5 4 1 4 4 4 3 5 6 4 4 6 5 2 3 9 3 3 3 6 3 1 2 4 5 5 1 3 4 7 4 7 6 4 1 2 4 5 2 3 4 4 4 3 3 3 5 3 2 4 2 3 3 2 5 3 1 2 4 5 4 4 2 3 5 4 0 1 3 2 4 4 2 4 3 0 4 8 4 3 4 4 4 5 2 3 3 1 0 7 4 11 8 1 4 4 4 2 2 1 4 2 6 3 5 4 3 4 4 4 2 3 7 3 2 4 2 3 2 2 4 4 3 1 2 3 3 4 3 6 2 5 5 4 3 1 1 0 3 1 7 2 1 5 3 2 2 3 3 2 2 3 2 4 2 8 5 4 1 3 2 5 2 7 6 2 4 4 6 3 4 2 3 2 6 1 2 5 0 2 5 5 2 3 3 6 0 3 0 1 5 4 3 1 3 3 4 3 7 6 3 5 3 2 0 5 1 2 5 2 4 7 5 1 1 2 1 3 2 2 4 4 4 3 5 4 4 5 2 1 4 3 3 4 2 6 2 5 4 4 2 3 1 5 1 1 3 4 2 5 2 2 4 5 3 1 1 0 3 5 4 2 3 6 3 2 3 1 1 5 5 4 6 3 0 2 5 2 2 9 3 5 6 3 3 4 0 3 4 5 4 5 6 2 4 3 3 4 3 1 3 5 1 1 4 7 3 3 3 4 6 1 3 4 2 3 3 0 4 5 2 2 1 3 5 2 1 2 1 3 2 0 4 3 1 6 1 5 2 3 4 1 7 3 3 3 2 5 1 1 1 1 2 2 2 2 3 3 2 5 8 2 1 2 5 4 6 4 5 5 3 6 6 1 7 6 4 5 3 4 6 3 5 2 1 4 1 2 6 6 3 6 2 8 4 7 10 4 6 3 6 1 3 3 1 4 4 8 4 5 3 2 1 4 3 3 6 4 2 3 8 3 2 3 4 2 4 5 3 2 0 1 0 0 9 5 3 6 8 2 2 3 3 6 2 4 2 6 2 6 8 2 5 4 4 3 3 6 3 3 2 2 3 2 0 3 2 5 4 8 3 2 4 3 5 2 2 5 4 3 3 5 5 3 5 3 3 8 2 4 4 2 0 4 4 3 4 4 2 5 2 3 0 5 3 2 3 6 2 5 4 6 4 5 3 2 4 5 5 4 4 6 6 3 3 2 3 3 2 5 2 4 3 5 3 4 3 1 5 2 3 3 3 6 4 5 5 0 6 1 3 3 3 3 1 3 1 3 3 3 1 2 1 8 2 0 3 2 0 1 1 1 3 1 4 2 4 6 4 2 1 3 4 8 3 2 2 2 3 2 4 2 2 4 2 3 2 0 2 1 4 2 2 3 6 4 1 3 3 1 5 4 4 8 2 2 4 4 3 0 5 3 4 5 2 1 3 3 4 0 3 8 6 3 4 0 3 2 4 2 1 3 7 7 2 2 2 5 3 4 3 4 3 3 4 2 3 1 3 4 0 5 3 1 2 0 4 5 2 4 2 2 1 3 2 4 4 3 1 3 2 5 2 2 2 5 3 3 2 3 5 2 4 7 5 5 2 6 3 5 4 5 4 3 2 4 4 3 6 2 1 9 3 3 4 5 3 1 3 3 6 3 0 2 1 6 4 3 6 4 5 6 3 1 3 3 4 5 2 3 4 3 2 6 4 2 1 5 2 2 4 5 5 4 5 3 6 5 4 1 3 0 4 0 2 6 2 6 5 5 3 4 1 3 2 5 8 5 4 9 7 6 4 6 5 2 6 4 3 1 4 4 6 5 5 4 4 5 2 5 4 2 4 6 7 4 2 3 2 3 5 3 6 8 5 6 2 3 3 0 5 6 1 7 4 1 3 7 4 3 5 2 1 2 4 4 2 5 4 2 7 4 5 4 5 3 4 3 3 5 2 2 5 4 3 3 3 6 3 4 3 6 2 5 3 2 5 5 2 10 4 3 3 3 2 2 3 4 7 6 2 3 2 3 2 3 1 3 3 4 4 2 4 6 6 4 6 0 3 3 4 4 5 2 1 3 2 3 1 2 1 4 1 3 3 3 5 2 8 5 3 2 1 10 1 2 4 1 2 6 5 3 7 3 5 5 5 3 5 3 2 1 1 5 1 4 4 3 8 4 1 7 4 6 2 4 5 5 4 5 8 4 4 6 1 4 5 7 4 3 3 4 4 6 6 2 6 6 6 4 4 4 5 1 2 4 5 1 2 2 1 4 5 2 3 5 2 2 5 4 2 6 1 7 3 3 2 3 1 3 5 3 4 3 5 2 6 2 4 7 3 4 5 3 5 2 8 3 5 3 8 6 2 6 1 5 2 1 2 4 4 3 1 3 4 3 1 2 3 4 4 3 3 3 4 2 6 2 5 4 5 0 5 3 3 2 6 8 1 8 0 1 4 5 2 5 1 3 3 4 1 1 1 4 5 2 4 1 4 4 6 5 1 4 3 2 6 10 4 3 8 6 7 2 1 4 6 7 4 2 3 4 3 4 4 5 3 1 4 2 3 5 7 5 3 3 6 1 2 6 3 4 1 3 2 6 8 3 3 3 3 4 5 2 6 6 6 5 2 1 5 4 2 4 3 5 4 4 5 7 3 5 4 3 5 5 3 1 8 4 4 3 4 3 2 4 5 2 2 5 5 3 3 5 2 1 3 3 8 5 2 3 4 2 4 3 3 4 3 2 1 4 2 4 2 5 3 4 4 2 1 2 6 1 4 2 4 2 4 6 2 1 5 4 4 3 3 5 2 3 4 5 5 4 4 4 3 3 3 2 3 5 2 4 1 4 0 8 3 3 6 4 4 5 7 3 2 3 3 2 3 4 1 4 2 4 2 0 6 1 6 3 3 3 4 3 2 5 3 4 2 4 1 6 3 0 3 3 1 1 4 1 6 3 3 6 4 2 2 2 3 2 2 6 1 3 5 3 3 3 3 2 2 5 0 2 3 4 3 2 1 2 0 2 0 4 2 4 3 2 3 2 1 2 5 4 2 6 1 3 3 2 2 5 5 2 2 6 0 1 2 3 2 1 2 3 3 5 3 1 1 7 2 1 4 1 6 1 4 2 3 6 2 3 2 1 3 3 1 2 3 4 2 2 3 1 3 0 6 3 4 3 0 4 2 4 4 5 3 4 4 2 3 2 2 2 3 6 0 2 3 4 3 3 2 3 3 2 8 7 2 3 2 4 1 1 3 7 2 3 0 3 2 4 3 4 5 6 5 10 0 4 1 8 4 4 5 3 8 3 4 8 3 0 6 4 3 3 5 3 3 3 1 2 5 1 2 3 3 2 3 6 3 5 4 6 1 1 5 4 3 3 5 5 3 6 2 5 4 2 6 4 2 3 1 3 6 5 3 1 3 3 3 4 4 2 2 3 2 3 1 3 7 0 2 2 3 3 3 5 3 4 2 5 1 2 1 5 2 4 5 6 1 1 7 1 4 2 3 4 7 2 3 2 5 5 3 5 3 5 3 5 10 4 4 3 5 2 5 4 4 2 3 0 2 2 4 4 3 2 4 3 6 4 2 3 9 0 3 2 4 3 4 2 4 3 6 3 3 1 5 3 3 4 3 3 0 2 4 1 7 2 7 6 1 4 3 2 0 4 2 3 5 3 6 2 3 2 2 3 5 6 1 4 2 0 3 2 4 5 3 2 3 5 3 3 2 6 4 3 1 5 3 0 2 4 1 1 8 2 0 4 2 4 3 3 3 6 2 3 7 2 6 4 6 2 6 5 3 3 2 7 1 3 1 3 3 4 4 2 4 2 1 3 5 0 3 0 4 4 5 2 2 5 1 3 3 3 1 2 3 4 2 4 2 6 3 3 3 1 3 3 3 4 2 3 5 2 1 1 2 2 5 1 5 1 7 4 3 3 1 5 0 2 3 5 4 3 4 5 6 4 3 3 4 3 2 0 3 2 0 2 1 2 2 4 2 5 2 2 3 4 1 2 4 3 2 3 8 3 2 8 7 4 2 3 2 3 5 3 4 5 3 4 1 2 4 5 4 2 4 3 3 4 3 5 7 4 3 0 4 1 0 2 3 0 4 4 5 1 3 4 6 5 0 2 2 5 1 5 2 3 3 8 3 2 2 3 7 1 7 3 4 7 1 1 3 1 4 4 2 0 2 4 4 6 4 1 0 3 4 6 1 1 1 3 6 2 1 5 5 3 3 5 4 1 6 2 6 2 1 2 3 2 2 6 1 3 3 3 3 4 1 5 2 4 3 4 2 1 3 5 4 4 0 
BTB PER SET COUNT: 3 7 3 3 1 1 3 2 4 0 1 0 5 3 1 3 4 4 3 1105 3 4 2 4 4 8 1 4 1050 2 7 7 5 3 7 3 2715 8 7 4 4 6 8 527 695 4 4 4 6 4 3 2 3 1 0 3 5 4 3 3 1 4 2 3 1 272 5 4 3 5 5 1 1 4 3 3 361 564 1 5 2 2 2 5 3 3 3 6 3 2 9 348 3 5 2 0 3 4 2 4 4 4 4 3 3 2 1 2 4 2 2 2 6 5 2 8 2 3 4 16 6 4 2 0 1 2 3 2 6 6 367 4 4 1 6 4 2 2 3 3 6 6 4 2 3 12 3 6 5 4 2 802 3 5 5 1 4 4 4 3 5 6 4 4 6 2076 2 4 2421 3 3 3 6 3 1 2 4 5 694 1 3 4 1594 4 9 6 4 1 2 4 5 2 3 4 4 6 4 3 3 5 3 4 4 2 5 5 2 1104 3 1 3 5 8 4 4 2 3 7 4 0 1 3 2 4 5 2 4 33 0 4 2300 4 3 4 4 4 5 2 3 3 1 0 10 4 1541 8 1 4 4 4 2 2 1 5 2 6 5 5 4 3 4 4 4 2 2181 7 3 2 4 2 3 2 2 4 4 4 1 2 3 3 6 3 7 2 5 1339 4 3 1 1 0 3 1 9 2 1 10 3 2 2 3 4 2 2 3 2 4 2 1408 5 4 1 4 3 5 6 8 7 2 7 4 6 4 4 2 3 2 6 1 2 1346 0 2 7 694 3 1350 3 7 0 3 0 1 1340 1337 3 1 3 5 6 3 10 6 3 5 4 2 0 5 1 2 6 2 4 8 5 1 1 2 1 3 2 2 5 10 4 3 5 4 4 5 2 1 8 3 3 4 158 6 4 7 4 4 2 3 1 1054 5 1 3 4 2 5 2 2 5 1094 4 1 690 0 6 5 4 1037 4 186 3 4 52 1 1 6 5 4 7 8 0 2 7 108 2 794 3 5 2965 3 3 4 0 4 4 5 4 7 8 2 4 3 3 4 3 1 3 5 1 1 4 415 5 3 41 4 6 1 4 5 2 3 3 0 4 51 401 2 1 3 5 3 1 2 1 30 342 0 5 4 1 6 1 5 2 3 4 1 31 3 3 3 2 6 9 1 1 1 2 2 2 2 3 3 2 5 12 2 1 2 5 4 346 4 1094 5 3 6 6 1 8 6 6 7 3 4 10 3 811 3 1 8 1 2 6 6 8 7 2 19 4 7 3901 5 6 5 6 1 3 7 1 4 5 14 4 5 3 3 1 4 3 3 8 4 2 3 37 3 2 3 4 2 4 5 54 2 0 1 0 0 2202 6 4 6 19 3 2 692 4 6 2 4 2 6 3 6 527 2 253 4 4 4 3 539 3 3 2 2 3 691 0 3 6 5 365 10 1654 2 4 3 5 2 2 2686 1093 4 9 5 6 3 5 3 3 774 2 4 4 2 0 4 4 5 5 4 2 5 2 3 0 5 3 2 4 8741 2 5 6 6 4 2195 1336 2 5 5 5 4 4 9 1834 3 4 2 3 3 2 5 1335 4 3 5 1092 6 3 2 1341 4 3 3 3 6 4 7 79 0 6 1 3 3 1336 3 1 3 1 3 4 6 1 1335 1 1104 2 0 3 2 0 1 1 1 3 1 6 3 4 6 4 691 1 4 4 11 3 2 2 2 4 3 4 2 2 795 2 3 695 0 2 1 5 2 2 3 7 4 1 3 3 1 5 4 4 30 2 5 4 4 4 0 175 3 4 5 2 1 3 3 6 0 3 36 6 5 4 0 3 3 118 2 2 3 24 36 2 2 2 6 5 4 5 2671 3 7 8 2 7 1 3 4 0 5 4 2 2 0 4 5 4 4 2 2 1 3 4 4 124 3 2 3 2 5 3 2 3 5 3 3 2 3 1053 2 12 13 8 11 4 1102 4 7 6 5 4 3 2 4 4 3 6 3 1 198 705 3 4 6 3 1 3 3 8 3 0 3 1 6 4 3 6 5 5 7 6 1 5 3 4 5 2 3 4 4 2 9 17 3 1 5 2 2 180 11 5 4 5 3 6 5 4 1 3 0 6 0 2 6 2 6 5 5 3 24 1 3 2 5 9 5 362 947 690 6 4 38 9 2 6 4 3 1 693 4 6 5 192 4 4 5 2 5 9 3 4 10 50 4 2 3 402 4 5 6 7 32 5 6 2 3 3 0 542 6 1 696 4 1 3 7 5 543 6 2 1 2 4 7 2 5 4 2 7 6 5 4 5 3 43 3 3 9 2 2 5 4 3 3 3 2036 3 1741 271 701 3 5 6 2 6 7 2 1157 4 3 3 3 2 2 3 4 40 7 6 3 2 3 2 3 1 3 3 5 4 2 4 7 6 4 6 0 3 4 4 1093 275 2 2 3 4 3 1 3 1 7 1 4 3 3 5 2 8 5 3 2 2 1185 1 2 4 3 2 6 70 3 7 4 5 5 6 3 5 4 2 1 1 5 1 5 4 3 24 4 1 7 4 6 2 362 5 7 4 5 317 4 5 6 1 7 5 7 4 3 3 4 4 8 6 2 6 6 6 4 4 4 8 1 3 4 5 2 2 2 1 4 5 2 3 414 2 2 5 4 2 6 1 7 3 3 2 3 1 4 5 3 5 5 5 2 10 2 4 674 3 4 5 3 5 2 722 3 5 4 24 8 2 697 1 6 2 1 2 756 6 3 1 5 85 3 1 3 361 5 4 3 3 3 5 2 9 2 8 5 5 0 5 3 3 2 10 698 1 11 0 1 4 5 2 5 1 3 1203 4 1 1 1 4 6 2 4 1 4 4 6 5 1 4 3 2 6 1705 1403 3 1097 6 9 2 1 4 13 14 6 2 3 5 3 4 4 5 3 1 4 2 3 7 674 5 3 3 10 1 2 6 3 5 1 4 4 7 1136 693 3 3 3 4 14 2 6 8 12 5 2 1 26 4 2 4 3 5 4 5 5 8 3 5 103 342 5 1980 13 1 2096 4 4 3 16 3 2 20 9 12 3 7 29 4 3 25 2 1 4 3 15 50 2 3 4 2 4 3 3 6 4 5 3 4 2 5 3 5 3 7 4 2 1 2 6 1 4 3 4 2 6 6 2 1 5 4 694 3 3 10 6 3 71 5 5 6 4 4 5 5 3 3 4 6 2 4 2 4 0 1043 3 3 6 7 4 5 1059 3 2 3 3 2 3 4 2 4 3 4 4 0 2193 2 6 3 3 3 4 5 3 1094 3 4 960 5 1 351 3 0 3 3 1 10 962 1 6 3 3 8 4 2 2 2 3 2 2 9 1 3 5 5 3 3 5 2 2 6 0 5 3 4 693 2 1 2 0 2 0 4 2 11 3 2 3 695 1 32 5 37 2 1046 1 14 3 2 2 10 7 133 2 19027 0 1 2 3 2 1 2 3 4 371 496 1 1 36 2 1 4 1 6 1 4 2 3 15 3 3 2 1 3 3 1 2 3 4 2 2 3 1 3 0 2419 3 4 4 0 5 2 4 4 5 3 5 4 2 3 2 2 2 3 6 0 2 3 4 3 3 3 3 4 2 561 7 2 3 2 4 1 1 3 1040 2 3 0 3 4 4 3 4 5 6 8 1504 0 7 1 17 6 4 5 3 1046 12 6 3485 3 0 1096 1093 3 6 5 3 3 3 1 2 694 1 2 3 3 2 3 7 6 8 4 6 4002 1 5 4 3 3 5 5 3 6 2 5 4 2 6 6 2 271 1 1092 6 5 338 1 3 3 6 4 4 2 2 5 2 3 1 4 7 0 2 2 18 3 3 345 3 4 2 5 1 2 1 5 3 2346 5 6 1 1 7 1 2004 2 5 4 7 802 3 2 5 5 3 348 3 5 3 5 3893 4 5 10904 2007 3 273 1093 5 2 3 0 2 2 5 4 3 2 43 3 6 4 2 3 15 0 1093 2 1093 182 4 3 4 3 6 4 3 1 5 3 3 4 3 3 0 2 4 2 700 3 10 7 1 4 3 2 0 4 2 3 5 5 6 2 3 2 2 3 11 52 1 4 2 0 3 2 4 5 692 2 8 694 3 5 2 558 4 3 1 11 3 0 2 5 1090 1 2834 2 0 4 2 4 3 6 3 8 5 944 9 3 6 4 6 2 8 119 3 3 2 8 3 7 1 3 2168 4 4 2 4 2 3 3 348 0 3 0 4 4 5 2 2 5 1 3 4 692 1 2 3 4 2 4 2 59 3 3 3 1 3 335 3 5 2 3 5 2 1 1 2 2 7 1 5 1 3109 4 3 3 1 5 0 2 3 6 4 3 699 5 6 4 3 3 5 3 2 0 3 8 0 2 1 2 2 4 3 5 2 2 3 4 1 3 4 3 2 3 18 6 2 1986 16 88 2 3 2 3 5 3 4 5 3 7 1 2 4 5 696 2 4 3 3 4 3 5 456 4 4 0 4 1 0 2 3 0 4 1441 6 1 3 4 6 5 0 2 2 76 1 5 2 5 3 2336 3 2 2 3 410 1 850 3 4 892 1 1 3 1 4 6 2 0 2 4 4 9 4 1 0 3 4 6 1 1 1 3 6 2 1 5 5 3 3 5 4 1 25 2 23 10 1 2 3 2 2 8 1 3 3 5 5 4 1 6 2 9 3 4 2 1 3 1068 4 5 0 
To predecode: 0
Predecoding something: 0
Predecode request dropped: 0
sizeofblock_0 0
sizeofblock_1 64388
sizeofblock_2 75853
sizeofblock_3 0
sizeofblock_4 0
sizeofblock_5 0
sizeofblock_6 0
sizeofblock_7 0
sizeofblock_8 0
Variant_0 Correct: 0 Incorrect: 0 Accuracy: -nan
Variant_1 Correct: 0 Incorrect: 0 Accuracy: -nan
Variant_2 Correct: 0 Incorrect: 0 Accuracy: -nan
Variant_3 Correct: 0 Incorrect: 0 Accuracy: -nan
