
*** ChampSim Multicore Out-of-Order Simulator ***

Warmup Instructions: 50000000
Simulation Instructions: 50000000
Number of CPUs: 1
LLC sets: 2048
LLC ways: 16
Off-chip DRAM Size: 4096 MB Channels: 1 Width: 64-bit Data Rate: 6400 MT/s
CPU 0 runs ./micro_traces/srv714.trace.gz
.gz
ITLB has LRU replacement policy
DTLB has LRU replacement policy
STLB has LRU replacement policy
FDIP Prefetcher at L1I
L1I has LRU replacement policy
L1D has LRU replacement policy
Initialize SRRIP state for L2C
Initialize DRRIP state for LLC
Heartbeat_Variant_0 : 1088 0.354167 per_variant_size: 0 1088 0 0 0 0 0 0 0 
Heartbeat_Variant_1 : 970 0.315755 per_variant_size: 0 399 571 0 0 0 0 0 0 
Heartbeat_Variant_2 : 1008 0.328125 per_variant_size: 0 337 270 199 202 0 0 0 0 
Heartbeat_Variant_3 : 0 0 per_variant_size: 0 0 0 0 0 0 0 0 0 
Heartbeat_Variant_0_evicts 0 : 15556 1 : 9418 2 : 9677 3 : 0 
Heartbeat_Variant_1_evicts 0 : 9478 1 : 0 2 : 8553 3 : 0 
Heartbeat_Variant_2_evicts 0 : 9540 1 : 8622 2 : 0 3 : 0 
Heartbeat_Variant_3_evicts 0 : 0 1 : 0 2 : 0 3 : 0 
Heartbeat CPU 0 instructions: 10000000 cycles: 2795751 heartbeat IPC: 3.57686 cumulative IPC: 3.57686 (Simulation time: 0 hr 2 min 17 sec) 
Heartbeat_Variant_0 : 1064 0.346354 per_variant_size: 0 1064 0 0 0 0 0 0 0 
Heartbeat_Variant_1 : 960 0.3125 per_variant_size: 0 410 550 0 0 0 0 0 0 
Heartbeat_Variant_2 : 1043 0.339518 per_variant_size: 0 359 294 204 186 0 0 0 0 
Heartbeat_Variant_3 : 0 0 per_variant_size: 0 0 0 0 0 0 0 0 0 
Heartbeat_Variant_0_evicts 0 : 15279 1 : 8815 2 : 9053 3 : 0 
Heartbeat_Variant_1_evicts 0 : 8889 1 : 0 2 : 8150 3 : 0 
Heartbeat_Variant_2_evicts 0 : 9003 1 : 8234 2 : 0 3 : 0 
Heartbeat_Variant_3_evicts 0 : 0 1 : 0 2 : 0 3 : 0 
Heartbeat CPU 0 instructions: 20000000 cycles: 5591379 heartbeat IPC: 3.57701 cumulative IPC: 3.57694 (Simulation time: 0 hr 4 min 26 sec) 
Heartbeat_Variant_0 : 1069 0.347982 per_variant_size: 0 1069 0 0 0 0 0 0 0 
Heartbeat_Variant_1 : 965 0.314128 per_variant_size: 0 420 545 0 0 0 0 0 0 
Heartbeat_Variant_2 : 1033 0.336263 per_variant_size: 0 359 265 221 188 0 0 0 0 
Heartbeat_Variant_3 : 0 0 per_variant_size: 0 0 0 0 0 0 0 0 0 
Heartbeat_Variant_0_evicts 0 : 15519 1 : 9149 2 : 9302 3 : 0 
Heartbeat_Variant_1_evicts 0 : 9076 1 : 0 2 : 8203 3 : 0 
Heartbeat_Variant_2_evicts 0 : 9370 1 : 8125 2 : 0 3 : 0 
Heartbeat_Variant_3_evicts 0 : 0 1 : 0 2 : 0 3 : 0 
Heartbeat CPU 0 instructions: 30000002 cycles: 8385973 heartbeat IPC: 3.57834 cumulative IPC: 3.5774 (Simulation time: 0 hr 6 min 37 sec) 
Heartbeat_Variant_0 : 1088 0.354167 per_variant_size: 0 1088 0 0 0 0 0 0 0 
Heartbeat_Variant_1 : 949 0.308919 per_variant_size: 0 403 546 0 0 0 0 0 0 
Heartbeat_Variant_2 : 1031 0.335612 per_variant_size: 0 341 292 197 201 0 0 0 0 
Heartbeat_Variant_3 : 0 0 per_variant_size: 0 0 0 0 0 0 0 0 0 
Heartbeat_Variant_0_evicts 0 : 15181 1 : 8901 2 : 8806 3 : 0 
Heartbeat_Variant_1_evicts 0 : 8804 1 : 0 2 : 7969 3 : 0 
Heartbeat_Variant_2_evicts 0 : 8884 1 : 7888 2 : 0 3 : 0 
Heartbeat_Variant_3_evicts 0 : 0 1 : 0 2 : 0 3 : 0 
Heartbeat CPU 0 instructions: 40000003 cycles: 11183186 heartbeat IPC: 3.57499 cumulative IPC: 3.5768 (Simulation time: 0 hr 8 min 48 sec) 
Heartbeat_Variant_0 : 1059 0.344727 per_variant_size: 0 1059 0 0 0 0 0 0 0 
Heartbeat_Variant_1 : 965 0.314128 per_variant_size: 0 432 533 0 0 0 0 0 0 
Heartbeat_Variant_2 : 1044 0.339844 per_variant_size: 0 383 262 213 186 0 0 0 0 
Heartbeat_Variant_3 : 0 0 per_variant_size: 0 0 0 0 0 0 0 0 0 
Heartbeat_Variant_0_evicts 0 : 13988 1 : 8093 2 : 7991 3 : 0 
Heartbeat_Variant_1_evicts 0 : 8143 1 : 0 2 : 7401 3 : 0 
Heartbeat_Variant_2_evicts 0 : 7970 1 : 7435 2 : 0 3 : 0 
Heartbeat_Variant_3_evicts 0 : 0 1 : 0 2 : 0 3 : 0 
Heartbeat CPU 0 instructions: 50000001 cycles: 13979867 heartbeat IPC: 3.57567 cumulative IPC: 3.57657 (Simulation time: 0 hr 10 min 44 sec) 

Warmup complete CPU 0 instructions: 50000001 cycles: 13979867 (Simulation time: 0 hr 10 min 44 sec) 

Cycle: 20000000 FTQ IN: 56463258 FTQ occupancy: 17.9188 DECODE IN: 56463185 DECODE occupancy: 45.823 ROB IN: 56463185 ROB occupancy: 276.774 ROB OUT: 56463185
Heartbeat_Variant_0 : 1083 0.352539 per_variant_size: 0 1083 0 0 0 0 0 0 0 
Heartbeat_Variant_1 : 959 0.312174 per_variant_size: 0 402 557 0 0 0 0 0 0 
Heartbeat_Variant_2 : 1029 0.334961 per_variant_size: 0 327 294 209 199 0 0 0 0 
Heartbeat_Variant_3 : 0 0 per_variant_size: 0 0 0 0 0 0 0 0 0 
Heartbeat_Variant_0_evicts 0 : 14958 1 : 8781 2 : 9048 3 : 0 
Heartbeat_Variant_1_evicts 0 : 8692 1 : 0 2 : 8161 3 : 0 
Heartbeat_Variant_2_evicts 0 : 9113 1 : 8079 2 : 0 3 : 0 
Heartbeat_Variant_3_evicts 0 : 0 1 : 0 2 : 0 3 : 0 
Heartbeat CPU 0 instructions: 60000002 cycles: 23201948 heartbeat IPC: 1.08435 cumulative IPC: 1.08435 (Simulation time: 0 hr 12 min 34 sec) 
Cycle: 30000000 FTQ IN: 10889587 FTQ occupancy: 6.45131 DECODE IN: 10889626 DECODE occupancy: 13.5702 ROB IN: 10889626 ROB occupancy: 114.124 ROB OUT: 10889606
Heartbeat_Variant_0 : 1094 0.35612 per_variant_size: 0 1094 0 0 0 0 0 0 0 
Heartbeat_Variant_1 : 964 0.313802 per_variant_size: 0 400 564 0 0 0 0 0 0 
Heartbeat_Variant_2 : 1013 0.329753 per_variant_size: 0 309 295 213 196 0 0 0 0 
Heartbeat_Variant_3 : 0 0 per_variant_size: 0 0 0 0 0 0 0 0 0 
Heartbeat_Variant_0_evicts 0 : 14598 1 : 8868 2 : 8680 3 : 0 
Heartbeat_Variant_1_evicts 0 : 8825 1 : 0 2 : 7992 3 : 0 
Heartbeat_Variant_2_evicts 0 : 8712 1 : 7944 2 : 0 3 : 0 
Heartbeat_Variant_3_evicts 0 : 0 1 : 0 2 : 0 3 : 0 
Heartbeat CPU 0 instructions: 70000003 cycles: 32424775 heartbeat IPC: 1.08427 cumulative IPC: 1.08431 (Simulation time: 0 hr 14 min 26 sec) 
Cycle: 40000000 FTQ IN: 10850432 FTQ occupancy: 6.12305 DECODE IN: 10850436 DECODE occupancy: 12.7771 ROB IN: 10850436 ROB occupancy: 109.945 ROB OUT: 10850246
Heartbeat_Variant_0 : 1067 0.347331 per_variant_size: 0 1067 0 0 0 0 0 0 0 
Heartbeat_Variant_1 : 960 0.3125 per_variant_size: 0 407 553 0 0 0 0 0 0 
Heartbeat_Variant_2 : 1044 0.339844 per_variant_size: 0 355 279 203 207 0 0 0 0 
Heartbeat_Variant_3 : 0 0 per_variant_size: 0 0 0 0 0 0 0 0 0 
Heartbeat_Variant_0_evicts 0 : 15786 1 : 9302 2 : 9525 3 : 0 
Heartbeat_Variant_1_evicts 0 : 9351 1 : 0 2 : 8713 3 : 0 
Heartbeat_Variant_2_evicts 0 : 9503 1 : 8766 2 : 0 3 : 0 
Heartbeat_Variant_3_evicts 0 : 0 1 : 0 2 : 0 3 : 0 
Heartbeat CPU 0 instructions: 80000002 cycles: 41719123 heartbeat IPC: 1.07592 cumulative IPC: 1.0815 (Simulation time: 0 hr 16 min 25 sec) 
Cycle: 50000000 FTQ IN: 10545495 FTQ occupancy: 6.08908 DECODE IN: 10545490 DECODE occupancy: 12.475 ROB IN: 10545490 ROB occupancy: 104.971 ROB OUT: 10545700
Heartbeat_Variant_0 : 1057 0.344076 per_variant_size: 0 1057 0 0 0 0 0 0 0 
Heartbeat_Variant_1 : 986 0.320964 per_variant_size: 0 436 550 0 0 0 0 0 0 
Heartbeat_Variant_2 : 1028 0.334635 per_variant_size: 0 336 271 223 198 0 0 0 0 
Heartbeat_Variant_3 : 0 0 per_variant_size: 0 0 0 0 0 0 0 0 0 
Heartbeat_Variant_0_evicts 0 : 16042 1 : 9511 2 : 9678 3 : 0 
Heartbeat_Variant_1_evicts 0 : 9490 1 : 0 2 : 8605 3 : 0 
Heartbeat_Variant_2_evicts 0 : 9709 1 : 8558 2 : 0 3 : 0 
Heartbeat_Variant_3_evicts 0 : 0 1 : 0 2 : 0 3 : 0 
Heartbeat CPU 0 instructions: 90000000 cycles: 51135851 heartbeat IPC: 1.06194 cumulative IPC: 1.07654 (Simulation time: 0 hr 18 min 18 sec) 
Cycle: 60000000 FTQ IN: 10860651 FTQ occupancy: 6.10259 DECODE IN: 10860674 DECODE occupancy: 12.6452 ROB IN: 10860674 ROB occupancy: 108.972 ROB OUT: 10860592
Heartbeat_Variant_0 : 1068 0.347656 per_variant_size: 0 1068 0 0 0 0 0 0 0 
Heartbeat_Variant_1 : 963 0.313477 per_variant_size: 0 402 561 0 0 0 0 0 0 
Heartbeat_Variant_2 : 1040 0.338542 per_variant_size: 0 355 293 188 204 0 0 0 0 
Heartbeat_Variant_3 : 0 0 per_variant_size: 0 0 0 0 0 0 0 0 0 
Heartbeat_Variant_0_evicts 0 : 15816 1 : 9368 2 : 9408 3 : 0 
Heartbeat_Variant_1_evicts 0 : 9337 1 : 0 2 : 8369 3 : 0 
Heartbeat_Variant_2_evicts 0 : 9428 1 : 8361 2 : 0 3 : 0 
Heartbeat_Variant_3_evicts 0 : 0 1 : 0 2 : 0 3 : 0 
Heartbeat CPU 0 instructions: 100000002 cycles: 60359507 heartbeat IPC: 1.08417 cumulative IPC: 1.07806 (Simulation time: 0 hr 19 min 30 sec) 
Finished CPU 0 instructions: 50000001 cycles: 46379640 cumulative IPC: 1.07806 (Simulation time: 0 hr 19 min 30 sec) 

ChampSim completed all CPUs

Region of Interest Statistics

CPU 0 cumulative IPC: 1.07806 instructions: 50000001 cycles: 46379640
 Fetch stage stalled: 72.746  Sim cycles: 46379640 fetch stall cycle: 33739322
 Empty decode stage: 65.0266  Sim cycles: 46379640 fetch stall cycle: 30159120
ITLB TOTAL     ACCESS:    5738932  HIT:    5246715  MISS:     492217  HIT %:    91.4232  MISS %:     8.5768   MPKI: 9.84434
ITLB LOAD TRANSLATION INSTRUCTION	ACCESS:    5634950  HIT:    5142733  MISS:     492217  HIT %:    91.2649  MISS %:    8.73507  MPKI: 9.84434
ITLB TRANSLATION FROM L1D PREFETCHER INSTRUCTION	ACCESS:     103982  HIT:     103982  MISS:          0  HIT %:        100  MISS %:          0  MPKI: 0

ITLB AVERAGE MISS LATENCY: 9.05131 cycles
ITLB RQ	ACCESS:    7530157	FORWARD:          0	MERGED:    1356139	TO_CACHE:    6174018

DTLB TOTAL     ACCESS:    9378197  HIT:    8899287  MISS:     478910  HIT %:    94.8934  MISS %:    5.10663   MPKI: 9.5782
DTLB LOAD TRANSLATION DATA	ACCESS:    9378197  HIT:    8899287  MISS:     478910  HIT %:    94.8934  MISS %:    5.10663  MPKI: 9.5782

DTLB AVERAGE MISS LATENCY: 9.33335 cycles
DTLB RQ	ACCESS:   13644005	FORWARD:          0	MERGED:    4230797	TO_CACHE:    9413208

STLB TOTAL     ACCESS:    1223633  HIT:    1221426  MISS:       2207  HIT %:    99.8196  MISS %:   0.180365   MPKI: 0.04414
STLB LOAD TRANSLATION INSTRUCTION	ACCESS:     492217  HIT:     491938  MISS:        279  HIT %:    99.9433  MISS %:  0.0566823  MPKI: 0.00558
STLB LOAD TRANSLATION DATA	ACCESS:     478590  HIT:     476672  MISS:       1918  HIT %:    99.5992  MISS %:   0.400761  MPKI: 0.03836
STLB TRANSLATION FROM L1D PREFETCHER DATA	ACCESS:     252826  HIT:     252816  MISS:         10  HIT %:     99.996  MISS %: 0.00395529  MPKI: 0.0002

STLB AVERAGE MISS LATENCY: 73.1328 cycles
STLB RQ	ACCESS:    1357834	FORWARD:          0	MERGED:     134168	TO_CACHE:    1223666

STLB Hit, L1D data hit: 0
STLB Hit, L2C data hit: 0
STLB Hit, LLC data hit: 0
STLB Hit, LLC data miss: 0
STLB STLB hints to L2: 0
L1D TOTAL     ACCESS:   13418225  HIT:   12271241  MISS:    1146984  HIT %:     91.452  MISS %:    8.54796   MPKI: 22.9397
L1D LOAD DATA	ACCESS:    6864449  HIT:    6107401  MISS:     757048  HIT %:    88.9715  MISS %:    11.0285  MPKI: 15.141
L1D RFO DATA	ACCESS:    6222681  HIT:    5934669  MISS:     288012  HIT %:    95.3716  MISS %:    4.62842  MPKI: 5.76024
L1D PREFETCH DATA	ACCESS:     331095  HIT:     229171  MISS:     101924  HIT %:    69.2161  MISS %:    30.7839  MPKI: 2.03848

L1D PREFETCH  REQUESTED:     773665  ISSUED:     773665  USEFUL:      43254  USELESS:      69814
L1D USEFUL LOAD PREFETCHES:      43254 PREFETCH ISSUED TO LOWER LEVEL:     113152  ACCURACY: 38.2265
 TIMELY PREFETCHES:      43254 LATE PREFETCHES: 11168 DROPPED PREFETCHES: 1
L1D AVERAGE MISS LATENCY: 361309 cycles
L1D RQ	ACCESS:   10914149	FORWARD:          0	MERGED:    3857140	TO_CACHE:    6894210
L1D WQ	ACCESS:    6919153	FORWARD:     163050	MERGED:     169358	TO_CACHE:    6749795
L1D PQ	ACCESS:     386958	FORWARD:          0	MERGED:          0	TO_CACHE:     386707

L1D UNIQUE REGIONS ACCESSED: 0
L1D REGIONS CONFLICTS: 0
L1D Cross Page Prefetch Requests: 5847
L1D Same Page Prefetch Requests: 780758
L1D ROI Sum of L1D PQ occupancy: 4894690
L1D PREFETCHES PUSHED FROM L2C: 0
L1I TOTAL     ACCESS:    7033847  HIT:    4282628  MISS:    2751219  HIT %:     60.886  MISS %:     39.114   MPKI: 55.0244
L1I LOAD INSTRUCTION	ACCESS:    6547871  HIT:    3796652  MISS:    2751219  HIT %:     57.983  MISS %:     42.017  MPKI: 55.0244
L1I PREFETCH INSTRUCTION	ACCESS:     485976  HIT:     485976  MISS:          0  HIT %:        100  MISS %:          0  MPKI: 0

L1I PREFETCH  REQUESTED:    1059618  ISSUED:    1059618  USEFUL:          0  USELESS:          0
L1I USEFUL LOAD PREFETCHES:          0 PREFETCH ISSUED TO LOWER LEVEL:          0  ACCURACY: -nan
 TIMELY PREFETCHES:          0 LATE PREFETCHES: 0 DROPPED PREFETCHES: 0
L1I AVERAGE MISS LATENCY: 17.395 cycles
L1I RQ	ACCESS:    9446112	FORWARD:          0	MERGED:    2668861	TO_CACHE:    6777251
L1I PQ	ACCESS:    1059618	FORWARD:          0	MERGED:     306712	TO_CACHE:     752906

L1BTB TOTAL     ACCESS:    5678714  HIT:    2063609  MISS:    3615105  HIT %:    36.3394  MISS %:    63.6606   MPKI: 72.3021
L1BTB BRANCH_DIRECT_JUMP	ACCESS:     545551  HIT:     144052  MISS:     401499	AVERAGE STALL: 33.607
L1BTB BRANCH_INDIRECT	ACCESS:     182027  HIT:      65595  MISS:     116432	AVERAGE STALL: 81.6544
L1BTB BRANCH_CONDITIONAL	ACCESS:    2723283  HIT:    1436044  MISS:    1287239	AVERAGE STALL: 35.2532
L1BTB BRANCH_DIRECT_CALL	ACCESS:     942383  HIT:     105805  MISS:     836578	AVERAGE STALL: 37.2616
L1BTB BRANCH_INDIRECT_CALL	ACCESS:     171545  HIT:      21617  MISS:     149928	AVERAGE STALL: 106.612
L1BTB BRANCH_RETURN	ACCESS:    1113925  HIT:     290496  MISS:     823429	AVERAGE STALL: 36.7995
L1BTB BRANCH_OTHER ACCESS:          0  HIT:          0  MISS:          0	AVERAGE STALL: -nan
L1BTB TOTAL ROB OCCUPANCY AT BTB MISS: 12.8486

L2BTB TOTAL     ACCESS:    3589837  HIT:    3070694  MISS:     519143  HIT %:    85.5385  MISS %:    14.4615   MPKI: 10.3829
L2BTB BRANCH_DIRECT_JUMP	ACCESS:     397364  HIT:     341446  MISS:      55918	AVERAGE STALL: 33.607
L2BTB BRANCH_INDIRECT	ACCESS:     106193  HIT:      97622  MISS:       8571	AVERAGE STALL: 81.6544
L2BTB BRANCH_CONDITIONAL	ACCESS:    1287239  HIT:    1128899  MISS:     158340	AVERAGE STALL: 35.2532
L2BTB BRANCH_DIRECT_CALL	ACCESS:     836578  HIT:     682234  MISS:     154344	AVERAGE STALL: 37.2616
L2BTB BRANCH_INDIRECT_CALL	ACCESS:     140438  HIT:     107892  MISS:      32546	AVERAGE STALL: 106.612
L2BTB BRANCH_RETURN	ACCESS:     822025  HIT:     712601  MISS:     109424	AVERAGE STALL: 36.7995
L2BTB BRANCH_OTHER ACCESS:          0  HIT:          0  MISS:          0	AVERAGE STALL: -nan
L2BTB TOTAL ROB OCCUPANCY AT BTB MISS: 89.4725

L2C TOTAL     ACCESS:    4511054  HIT:    4017436  MISS:     493618  HIT %:    89.0576  MISS %:    10.9424   MPKI: 9.87236
L2C LOAD INSTRUCTION	ACCESS:    2751219  HIT:    2474116  MISS:     277103  HIT %:     89.928  MISS %:     10.072  MPKI: 5.54206
L2C LOAD TRANSLATION INSTRUCTION	ACCESS:        314  HIT:         76  MISS:        238  HIT %:    24.2038  MISS %:    75.7962  MPKI: 0.00476
L2C LOAD DATA	ACCESS:     745857  HIT:     668184  MISS:      77673  HIT %:    89.5861  MISS %:    10.4139  MPKI: 1.55346
L2C RFO DATA	ACCESS:     287929  HIT:     239150  MISS:      48779  HIT %:    83.0587  MISS %:    16.9413  MPKI: 0.97558
L2C PREFETCH DATA	ACCESS:     199101  HIT:     123149  MISS:      75952  HIT %:    61.8525  MISS %:    38.1475  MPKI: 1.51904
L2C WRITEBACK DATA	ACCESS:     524590  HIT:     512124  MISS:      12466  HIT %:    97.6237  MISS %:    2.37633  MPKI: 0.24932
L2C LOAD TRANSLATION DATA	ACCESS:       2028  HIT:        626  MISS:       1402  HIT %:    30.8679  MISS %:    69.1321  MPKI: 0.02804
L2C TRANSLATION FROM L1D PREFETCHER DATA	ACCESS:         16  HIT:         11  MISS:          5  HIT %:      68.75  MISS %:      31.25  MPKI: 0.0001

L2C PREFETCH  REQUESTED:      92694  ISSUED:      92694  USEFUL:       8430  USELESS:      67972
L2C USEFUL LOAD PREFETCHES:       8430 PREFETCH ISSUED TO LOWER LEVEL:      76311  ACCURACY: 11.0469
 TIMELY PREFETCHES:       8430 LATE PREFETCHES: 359 DROPPED PREFETCHES: 0
L2C AVERAGE MISS LATENCY: 38.0587 cycles
L2C RQ	ACCESS:    3787409	FORWARD:          0	MERGED:          0	TO_CACHE:    3787363
L2C WQ	ACCESS:     524590	FORWARD:         46	MERGED:          0	TO_CACHE:     524590
L2C PQ	ACCESS:     205846	FORWARD:          0	MERGED:       3343	TO_CACHE:     202503

L2C Dense regions hint from L2: 0
PSCL5 TOTAL     ACCESS:       4416  HIT:       2208  MISS:       2208  HIT %:         50  MISS %:         50   MPKI: 0.04416
PSCL5 LOAD TRANSLATION INSTRUCTION	ACCESS:       4384  HIT:       2192  MISS:       2192  HIT %:         50  MISS %:         50  MPKI: 0.04384
PSCL5 TRANSLATION FROM L1D PREFETCHER INSTRUCTION	ACCESS:         32  HIT:         16  MISS:         16  HIT %:         50  MISS %:         50  MPKI: 0.00032


PSCL4 TOTAL     ACCESS:       4212  HIT:       2102  MISS:       2110  HIT %:     49.905  MISS %:     50.095   MPKI: 0.0422
PSCL4 LOAD TRANSLATION INSTRUCTION	ACCESS:       2812  HIT:       2086  MISS:        726  HIT %:    74.1821  MISS %:    25.8179  MPKI: 0.01452
PSCL4 TRANSLATION FROM L1D PREFETCHER INSTRUCTION	ACCESS:         24  HIT:         16  MISS:          8  HIT %:    66.6667  MISS %:    33.3333  MPKI: 0.00016
PSCL4 LOAD TRANSLATION DATA	ACCESS:       1368  HIT:          0  MISS:       1368  HIT %:          0  MISS %:        100  MPKI: 0.02736
PSCL4 TRANSLATION FROM L1D PREFETCHER DATA	ACCESS:          8  HIT:          0  MISS:          8  HIT %:          0  MISS %:        100  MPKI: 0.00016


PSCL3 TOTAL     ACCESS:       4312  HIT:       2152  MISS:       2160  HIT %:    49.9072  MISS %:    50.0928   MPKI: 0.0432
PSCL3 LOAD TRANSLATION INSTRUCTION	ACCESS:       2862  HIT:       2136  MISS:        726  HIT %:    74.6331  MISS %:    25.3669  MPKI: 0.01452
PSCL3 TRANSLATION FROM L1D PREFETCHER INSTRUCTION	ACCESS:         24  HIT:         16  MISS:          8  HIT %:    66.6667  MISS %:    33.3333  MPKI: 0.00016
PSCL3 LOAD TRANSLATION DATA	ACCESS:       1418  HIT:          0  MISS:       1418  HIT %:          0  MISS %:        100  MPKI: 0.02836
PSCL3 TRANSLATION FROM L1D PREFETCHER DATA	ACCESS:          8  HIT:          0  MISS:          8  HIT %:          0  MISS %:        100  MPKI: 0.00016


PSCL2 TOTAL     ACCESS:       4277  HIT:       2069  MISS:       2208  HIT %:     48.375  MISS %:     51.625   MPKI: 0.04416
PSCL2 LOAD TRANSLATION INSTRUCTION	ACCESS:       2337  HIT:       2053  MISS:        284  HIT %:    87.8477  MISS %:    12.1523  MPKI: 0.00568
PSCL2 TRANSLATION FROM L1D PREFETCHER INSTRUCTION	ACCESS:         16  HIT:         16  MISS:          0  HIT %:        100  MISS %:          0  MPKI: 0
PSCL2 LOAD TRANSLATION DATA	ACCESS:       1908  HIT:          0  MISS:       1908  HIT %:          0  MISS %:        100  MPKI: 0.03816
PSCL2 TRANSLATION FROM L1D PREFETCHER DATA	ACCESS:         16  HIT:          0  MISS:         16  HIT %:          0  MISS %:        100  MPKI: 0.00032


LLC TOTAL     ACCESS:     552144  HIT:     524144  MISS:      28000  HIT %:    94.9289  MISS %:    5.07114   MPKI: 0.56
LLC LOAD INSTRUCTION	ACCESS:     277103  HIT:     275943  MISS:       1160  HIT %:    99.5814  MISS %:   0.418617  MPKI: 0.0232
LLC LOAD TRANSLATION INSTRUCTION	ACCESS:        238  HIT:        199  MISS:         39  HIT %:    83.6134  MISS %:    16.3866  MPKI: 0.00078
LLC LOAD DATA	ACCESS:      77362  HIT:      74026  MISS:       3336  HIT %:    95.6878  MISS %:    4.31219  MPKI: 0.06672
LLC RFO DATA	ACCESS:      48727  HIT:      35472  MISS:      13255  HIT %:    72.7974  MISS %:    27.2026  MPKI: 0.2651
LLC PREFETCH DATA	ACCESS:      76310  HIT:      66505  MISS:       9805  HIT %:    87.1511  MISS %:    12.8489  MPKI: 0.1961
LLC WRITEBACK DATA	ACCESS:      70997  HIT:      70687  MISS:        310  HIT %:    99.5634  MISS %:   0.436638  MPKI: 0.0062
LLC LOAD TRANSLATION DATA	ACCESS:       1402  HIT:       1307  MISS:         95  HIT %:     93.224  MISS %:    6.77603  MPKI: 0.0019
LLC TRANSLATION FROM L1D PREFETCHER DATA	ACCESS:          5  HIT:          5  MISS:          0  HIT %:        100  MISS %:          0  MPKI: 0

LLC AVERAGE MISS LATENCY: 154.132 cycles
LLC RQ	ACCESS:     404841	FORWARD:          0	MERGED:          0	TO_CACHE:     404837
LLC WQ	ACCESS:      70997	FORWARD:          5	MERGED:          0	TO_CACHE:      70997
LLC PQ	ACCESS:      76311	FORWARD:          0	MERGED:          0	TO_CACHE:      76310

LLC Dense regions hint to LLC: 0

RAW hits: 1697701
Loads Generated: 12611850
Loads sent to L1D: 10914149
Stores Generated: 6919135
Stores sent to L1D: 6919153
Major fault: 0 Minor fault: 2606
Allocated PAGES: 2606

stream: 
stream:times selected: 1222719
stream:pref_filled: 125874
stream:pref_useful: 27993
stream:pref_late: 9071
stream:misses: 9294
stream:misses_by_poll: 0

CS: 
CS:times selected: 187509
CS:pref_filled: 69884
CS:pref_useful: 45565
CS:pref_late: 8680
CS:misses: 20948
CS:misses_by_poll: 1

CPLX: 
CPLX:times selected: 1034144
CPLX:pref_filled: 23659
CPLX:pref_useful: 7059
CPLX:pref_late: 3549
CPLX:misses: 119470
CPLX:misses_by_poll: 2

NL_L1: 
NL:times selected: 12501
NL:pref_filled: 1376
NL:pref_useful: 148
NL:pref_late: 293
NL:misses: 1614
NL:misses_by_poll: 0

total selections: 2456873
total_filled: 101924
total_useful: 43254
total_late: 23515
total_polluted: 3
total_misses_after_warmup: 786810
conflicts: 5654904

test: 118623

DRAM Statistics
 CHANNEL 0
 RQ ROW_BUFFER_HIT:      10306  ROW_BUFFER_MISS:      17376
 DBUS_CONGESTED:          9
 WQ ROW_BUFFER_HIT:       1410  ROW_BUFFER_MISS:      11459  FULL:          0

 AVG_CONGESTED_CYCLE: 5

CPU 0 Branch Prediction Accuracy: 99.8128% MPKI: 0.3428 Average ROB Occupancy at Mispredict: 116.935
Branch types
NOT_BRANCH: 40843368 81.6867%
BRANCH_DIRECT_JUMP: 545551 1.0911%
BRANCH_INDIRECT: 182027 0.364054%
BRANCH_CONDITIONAL: 6200961 12.4019%
BRANCH_DIRECT_CALL: 942383 1.88477%
BRANCH_INDIRECT_CALL: 171545 0.34309%
BRANCH_RETURN: 1113925 2.22785%
BRANCH_OTHER: 0 0%

DRAM PAGES: 1048576
Allocated PAGES: 2606
Average_ROB_Occupancy: 110.54
Average_Decode_Occupancy: 12.8512
Average_FTQ_Occupancy: 6.17952
Indirect max targets: 14 Average targets: 1.17296
Branch_type:  BRANCH_DIRECT_JUMP:  Count Percentage: 4.13147 5.06704 4.34755 7.19122 3.02757 6.33825 1.50324 68.3937 
Branch_type:  BRANCH_INDIRECT:  Count Percentage: 11.7616 3.38966 2.50461 9.68306 3.35121 2.81474 0.938063 65.557 
Branch_type:  BRANCH_CONDITIONAL:  Count Percentage: 29.5857 2.20045 1.52847 4.02409 1.94962 4.26652 0.495614 55.9495 
Branch_type:  BRANCH_DIRECT_CALL:  Count Percentage: 0.388191 1.78932 0.725926 3.43508 3.04408 2.61696 0.725873 87.2746 
Branch_type:  BRANCH_INDIRECT_CALL:  Count Percentage: 9.55006 0 2.99423 0.000874228 1.13766 1.71494 0.995163 83.6071 
Branch_type:  BRANCH_RETURN:  Count Percentage: 10.4368 1.51259 1.1582 3.42735 4.46431 4.63436 0.589292 73.7771 
Branch_type:  BRANCH_DIRECT_JUMP:  Total Count: 45065 55270 47422 78440 33024 69136 16397 746021 
Branch_type:  BRANCH_INDIRECT:  Total Count: 42818 12340 9118 35251 12200 10247 3415 238659 
Branch_type:  BRANCH_CONDITIONAL:  Total Count: 3667672 272784 189481 498857 241689 528910 61440 6935922 
Branch_type:  BRANCH_DIRECT_CALL:  Total Count: 7309 33690 13668 64677 57315 49273 13667 1643237 
Branch_type:  BRANCH_INDIRECT_CALL:  Total Count: 32772 0 10275 3 3904 5885 3415 286906 
Branch_type:  BRANCH_RETURN:  Total Count: 232417 33684 25792 76324 99416 103203 13123 1642949 
Number of unique branch instructions: 11196
Upper 32 bits: 
aaaa
ffff
ffff0000
Unique upper 32 bits: 3
Unique upper 36 bits: 3
Unique upper 40 bits: 5
Unique upper 44 bits: 32
Unique upper 48 bits: 160
Variant_0 : 1068 0.347656
Variant_1 : 963 0.313477
Variant_2 : 1040 0.338542
Variant_3 : 0 0
Offset_3 4624
Offset_4 274
Offset_5 506
Offset_6 569
Offset_7 655
Offset_8 597
Offset_9 563
Offset_10 460
Offset_11 366
Offset_12 325
Offset_13 241
Offset_14 260
Offset_15 213
Offset_16 260
Offset_17 176
Offset_18 152
Offset_19 270
Offset_20 146
Offset_21 241
Offset_22 425
Offset_23 241
Offset_24 373
Offset_25 114
Offset_47 90
decode_dispatch_called: 20302207 43.774
Dispatch_width: 0 10223287 50.3555 22.0426
Dispatch_width: 1 555594 2.73662 1.19793
Dispatch_width: 2 701797 3.45675 1.51316
Dispatch_width: 3 476645 2.34775 1.0277
Dispatch_width: 4 1546481 7.6173 3.3344
Dispatch_width: 5 365635 1.80096 0.788352
Dispatch_width: 6 6432768 31.6851 13.8698
Empty_decode_cycles: 26077433 56.226
ROB_full_cycles: 1923659 4.14764
Starvation_cycles_per_kilo_instr: 380.232
Starvation_cycles_per_kilo_instr_3: 361.111
Starvation_cycles_per_kilo_instr_0: 343.771
Branch_type_1  (3,1)  (4,10)  (5,40)  (6,80)  (7,127)  (8,153)  (9,147)  (10,118)  (11,79)  (12,55)  (13,12)  (14,2)  (15,3)  (16,4)  (18,1)  (19,5)  (20,2)  (21,1)  (22,3)  (23,2)  (24,10)  (25,12) 
Branch_type_2  (3,1)  (4,1)  (5,1)  (8,4)  (9,4)  (10,1)  (12,1)  (13,1)  (14,1)  (16,3)  (17,2)  (20,2)  (21,2)  (23,5)  (24,1)  (47,40) 
Branch_type_3  (3,4622)  (4,263)  (5,461)  (6,471)  (7,494)  (8,366)  (9,305)  (10,183)  (11,146)  (12,62)  (13,11) 
Branch_type_4  (6,4)  (7,8)  (8,28)  (9,65)  (10,76)  (11,75)  (12,114)  (13,102)  (14,119)  (15,102)  (16,119)  (17,80)  (18,65)  (19,130)  (20,75)  (21,127)  (22,224)  (23,136)  (24,223)  (25,98) 
Branch_type_5  (8,4)  (9,1)  (10,4)  (11,5)  (12,3)  (13,14)  (14,16)  (15,12)  (16,22)  (17,13)  (18,23)  (19,14)  (20,11)  (21,13)  (22,45)  (23,26)  (24,38) 
Branch_type_6  (5,4)  (6,14)  (7,26)  (8,42)  (9,41)  (10,78)  (11,61)  (12,90)  (13,101)  (14,122)  (15,96)  (16,112)  (17,81)  (18,63)  (19,121)  (20,56)  (21,98)  (22,153)  (23,72)  (24,101)  (25,4)  (47,50) 
Unique trigger count: 
Variant_0_evicts_0 : 0
Variant_0_evicts_1 : 0
Variant_0_evicts_2 : 0
Variant_0_evicts_3 : 0
Variant_1_evicts_0 : 0
Variant_1_evicts_1 : 0
Variant_1_evicts_2 : 0
Variant_1_evicts_3 : 0
Variant_2_evicts_0 : 0
Variant_2_evicts_1 : 0
Variant_2_evicts_2 : 0
Variant_2_evicts_3 : 0
Variant_3_evicts_0 : 0
Variant_3_evicts_1 : 0
Variant_3_evicts_2 : 0
Variant_3_evicts_3 : 0
BTB PER SET UNIQUE ADDR: 46 54 47 55 48 41 39 42 46 48 47 61 41 46 49 40 41 46 41 57 46 34 41 39 50 54 46 57 43 44 49 49 63 40 52 49 55 43 39 42 40 42 49 62 48 45 49 41 59 48 42 48 48 58 37 37 48 42 37 48 45 57 44 50 50 46 42 49 55 45 48 41 54 40 39 39 37 50 43 69 47 39 48 47 43 45 56 53 48 68 46 43 50 45 33 53 47 36 49 48 64 50 41 51 49 40 49 42 33 42 38 53 55 33 44 43 53 49 53 46 54 40 49 36 43 43 31 50 67 46 38 48 42 52 40 53 30 55 42 59 43 60 38 46 47 47 54 47 54 45 48 53 39 46 31 54 47 49 39 54 47 43 57 59 54 45 45 49 48 41 51 48 40 54 50 42 44 43 43 55 40 48 44 51 52 52 32 50 55 43 53 42 43 52 47 47 49 42 50 48 47 54 46 47 43 43 52 47 55 51 51 63 42 49 51 51 42 56 54 59 44 53 47 51 46 46 53 43 42 57 53 37 51 60 42 51 56 51 40 50 45 49 56 49 43 40 41 44 39 38 44 45 44 49 46 44 19 18 23 22 26 18 8 23 21 14 20 18 22 22 23 25 19 14 16 17 24 27 22 23 20 26 18 17 25 20 19 32 32 30 25 16 26 26 16 28 26 27 26 22 20 20 19 37 24 32 26 21 32 23 22 29 20 35 26 13 28 21 23 32 18 28 18 22 30 27 25 17 22 14 22 30 17 24 20 25 20 18 17 37 23 24 15 27 30 27 18 24 22 22 25 22 24 24 20 26 23 27 19 17 21 32 22 29 23 27 14 24 26 25 24 18 24 29 20 31 23 31 22 25 23 23 18 20 21 23 28 28 25 24 30 16 25 31 18 17 21 19 31 25 20 23 23 22 28 30 29 26 21 24 26 19 17 27 21 25 22 33 39 30 19 28 22 23 27 21 26 19 24 21 30 21 19 22 29 28 26 19 19 26 26 20 16 28 34 20 16 25 30 25 30 37 24 18 28 33 28 27 19 32 17 22 20 32 32 19 23 23 28 27 24 28 27 24 22 33 26 32 16 24 34 27 21 24 17 28 36 30 29 23 20 27 19 18 18 19 26 26 21 24 22 30 22 33 19 21 21 31 26 28 24 31 22 21 23 25 23 32 18 17 18 23 22 17 24 33 35 15 17 30 29 25 26 25 27 31 22 25 26 26 26 20 28 25 28 33 17 24 16 24 23 34 23 23 22 23 22 23 35 27 21 31 23 25 24 28 23 30 26 29 27 26 31 33 24 29 27 30 23 25 27 25 14 25 26 25 22 24 36 26 20 20 23 18 27 18 16 23 22 21 25 22 22 13 23 25 34 25 22 25 34 25 20 19 11 31 16 28 21 24 29 24 17 20 19 33 22 31 20 27 19 27 34 24 26 22 26 28 19 28 23 27 28 26 28 26 20 26 35 20 18 24 20 19 29 24 21 24 28 20 24 13 28 29 20 25 20 21 22 20 27 21 20 26 33 21 25 26 30 29 22 30 17 28 25 23 23 23 27 26 22 25 23 16 16 19 19 27 20 26 15 29 28 31 11 28 24 18 17 16 22 26 18 22 21 21 34 26 24 28 28 22 20 23 21 22 27 21 20 22 26 21 25 21 22 28 24 31 36 21 20 20 20 23 32 30 22 23 23 21 23 18 24 23 17 23 34 23 21 21 24 14 11 25 26 28 19 24 
BTB PER SET COUNT: 1869 2105 3368 2510 2595 1692 1726 1553 2000 2058 1535 3124 16474 3191 2127 1406 2188 2152 1911 2203 1858 1282 1916 2006 1783 2496 2244 2740 2270 1978 2232 3110 2866 1687 2157 2600 2664 2064 1470 2275 1614 1687 1801 4024 2270 1752 2287 2428 3246 2557 2262 2699 2189 2881 1489 1694 2217 1646 1714 1903 2066 2884 2379 2480 2233 2144 1462 2928 2503 2048 2510 2140 2391 1981 1472 1737 1856 2733 1529 2747 2318 2956 2338 2327 1569 2560 2433 2366 2776 3112 2093 1942 2579 2059 1204 1996 2305 1482 2040 4116 3586 2450 1719 2259 3667 1418 2177 1319 1805 2030 2834 3053 2957 1360 2018 2040 2346 2787 3568 2327 2407 1547 2291 1540 2303 2765 1235 2490 3402 1986 2009 3044 1982 2179 2053 2820 1620 2154 1656 2772 1930 2581 1765 1764 1840 2102 2660 2034 2408 2408 1744 2212 1824 2127 916 2465 2118 2180 1302 2969 1827 1728 2624 2687 2816 2057 1520 3137 2103 1735 2770 2386 1382 3036 2410 1622 1780 1600 2111 2811 1616 2246 2376 3058 2217 4138 906 2231 2561 1868 2158 1645 1952 2636 2288 1906 2131 1644 2363 2190 2053 2353 2000 2586 1754 2095 3212 2045 2588 2253 2718 2940 1737 3290 2109 3584 1688 3205 3416 2746 1772 2115 2050 2627 1945 1971 2156 2150 1665 2887 1846 1685 2393 3378 1636 3886 2122 2209 2218 2157 2195 2529 3385 2908 2072 1852 1769 2051 1389 1558 1391 1587 1600 2504 2147 2196 647 717 606 787 978 520 134 952 590 325 701 595 1353 745 634 779 485 289 578 333 809 1033 637 1033 232 1068 796 833 776 581 278 1655 1088 815 751 445 582 1301 438 1120 1531 999 719 1180 540 590 304 1434 551 1170 958 713 1501 1366 1011 978 574 1373 2470 692 1066 907 750 1239 444 2710 377 667 968 1570 1134 472 618 400 830 1112 471 512 555 864 362 1423 287 1486 799 1748 425 949 1082 681 297 929 500 775 919 475 809 571 559 706 670 1141 455 508 749 1123 524 1065 610 2037 227 721 947 775 710 619 979 879 872 1034 798 959 631 1194 894 570 611 377 553 494 3155 1231 724 1282 1198 364 735 1447 449 590 538 800 1352 1122 708 629 798 571 1083 1002 1043 833 716 878 1124 261 515 1411 602 881 747 3061 1659 942 609 887 805 814 733 602 1338 615 744 975 1194 694 569 651 1385 1052 906 937 506 742 1484 697 520 1186 1833 715 854 1000 1091 995 1574 2256 938 469 1143 1939 1010 989 584 1225 508 582 585 1355 1378 709 5814 686 855 1009 917 1088 737 847 718 1459 784 1717 547 1062 1524 1333 530 815 482 1092 1591 1167 1793 736 1169 729 4225 572 393 766 1293 2012 752 606 624 1249 695 1299 717 406 613 1482 1022 635 837 2463 1617 1294 656 1291 521 1148 540 683 359 868 709 725 861 1433 2037 1139 675 2332 1451 1051 793 703 1220 1253 903 1550 792 807 1076 665 814 892 947 1392 276 755 536 1114 887 1308 1213 860 567 491 815 695 1358 916 467 1288 755 825 1232 1026 875 1141 1002 1197 1497 875 905 1116 2811 940 1061 1306 931 888 1036 1102 380 2431 834 1058 996 805 1557 905 881 595 751 361 1052 513 866 1336 801 470 481 823 662 351 933 818 1147 2983 431 773 1258 1586 1367 348 221 996 278 951 1015 1005 1173 807 324 704 602 990 637 1328 2059 709 388 1557 1274 726 766 877 907 1357 584 1490 799 959 1025 790 1624 857 876 1125 1733 413 343 933 368 603 2259 921 680 715 1074 1506 620 278 1459 1041 4288 954 599 1350 1694 796 700 641 894 892 1645 756 878 868 1103 1136 853 935 855 694 1689 746 509 697 1186 1030 535 852 645 392 2477 719 862 2202 807 728 1378 1010 1218 1049 219 1044 672 614 340 356 735 1040 741 586 738 634 1472 899 605 1224 1002 1028 602 1187 2038 678 635 900 1435 1342 980 7588 725 632 569 1053 1137 1137 1345 458 990 351 988 849 1141 908 1568 491 807 594 1752 602 1180 2551 1535 759 1300 1080 501 480 943 432 296 884 1835 1407 371 1254 
To predecode: 0
Predecoding something: 0
Predecode request dropped: 0
sizeofblock_0 0
sizeofblock_1 371034
sizeofblock_2 238966
sizeofblock_3 89775
sizeofblock_4 49306
sizeofblock_5 0
sizeofblock_6 0
sizeofblock_7 0
sizeofblock_8 0
Variant_0 Correct: 1328705 Incorrect: 0 Accuracy: 1
Variant_1 Correct: 1797177 Incorrect: 0 Accuracy: 1
Variant_2 Correct: 3287656 Incorrect: 0 Accuracy: 1
Variant_3 Correct: 0 Incorrect: 0 Accuracy: -nan
