
*** ChampSim Multicore Out-of-Order Simulator ***

Warmup Instructions: 50000000
Simulation Instructions: 50000000
Number of CPUs: 1
LLC sets: 2048
LLC ways: 16
Off-chip DRAM Size: 4096 MB Channels: 1 Width: 64-bit Data Rate: 6400 MT/s
CPU 0 runs ./micro_traces/srv82.trace.gz
.gz
ITLB has LRU replacement policy
DTLB has LRU replacement policy
STLB has LRU replacement policy
FDIP Prefetcher at L1I
L1I has LRU replacement policy
L1D has LRU replacement policy
Initialize SRRIP state for L2C
Initialize DRRIP state for LLC
Heartbeat_Variant_0 : 1126 0.274902 per_variant_size: 0 1126 0 0 0 0 0 0 0 
Heartbeat_Variant_1 : 2597 0.634033 per_variant_size: 0 1010 1587 0 0 0 0 0 0 
Heartbeat_Variant_2 : 0 0 per_variant_size: 0 0 0 0 0 0 0 0 0 
Heartbeat_Variant_3 : 0 0 per_variant_size: 0 0 0 0 0 0 0 0 0 
Heartbeat_Variant_0_evicts 0 : 12658 1 : 15803 2 : 0 3 : 0 
Heartbeat_Variant_1_evicts 0 : 15722 1 : 0 2 : 0 3 : 0 
Heartbeat_Variant_2_evicts 0 : 0 1 : 0 2 : 0 3 : 0 
Heartbeat_Variant_3_evicts 0 : 0 1 : 0 2 : 0 3 : 0 
Heartbeat CPU 0 instructions: 10000000 cycles: 2797598 heartbeat IPC: 3.5745 cumulative IPC: 3.5745 (Simulation time: 0 hr 1 min 46 sec) 
Heartbeat_Variant_0 : 1126 0.274902 per_variant_size: 0 1126 0 0 0 0 0 0 0 
Heartbeat_Variant_1 : 2642 0.64502 per_variant_size: 0 1007 1635 0 0 0 0 0 0 
Heartbeat_Variant_2 : 0 0 per_variant_size: 0 0 0 0 0 0 0 0 0 
Heartbeat_Variant_3 : 0 0 per_variant_size: 0 0 0 0 0 0 0 0 0 
Heartbeat_Variant_0_evicts 0 : 12350 1 : 15171 2 : 0 3 : 0 
Heartbeat_Variant_1_evicts 0 : 15178 1 : 0 2 : 0 3 : 0 
Heartbeat_Variant_2_evicts 0 : 0 1 : 0 2 : 0 3 : 0 
Heartbeat_Variant_3_evicts 0 : 0 1 : 0 2 : 0 3 : 0 
Heartbeat CPU 0 instructions: 20000002 cycles: 5594220 heartbeat IPC: 3.57574 cumulative IPC: 3.57512 (Simulation time: 0 hr 3 min 27 sec) 
Heartbeat_Variant_0 : 1117 0.272705 per_variant_size: 0 1117 0 0 0 0 0 0 0 
Heartbeat_Variant_1 : 2661 0.649658 per_variant_size: 0 1017 1644 0 0 0 0 0 0 
Heartbeat_Variant_2 : 0 0 per_variant_size: 0 0 0 0 0 0 0 0 0 
Heartbeat_Variant_3 : 0 0 per_variant_size: 0 0 0 0 0 0 0 0 0 
Heartbeat_Variant_0_evicts 0 : 12389 1 : 14951 2 : 0 3 : 0 
Heartbeat_Variant_1_evicts 0 : 14962 1 : 0 2 : 0 3 : 0 
Heartbeat_Variant_2_evicts 0 : 0 1 : 0 2 : 0 3 : 0 
Heartbeat_Variant_3_evicts 0 : 0 1 : 0 2 : 0 3 : 0 
Heartbeat CPU 0 instructions: 30000002 cycles: 8390814 heartbeat IPC: 3.57578 cumulative IPC: 3.57534 (Simulation time: 0 hr 5 min 8 sec) 
Heartbeat_Variant_0 : 1129 0.275635 per_variant_size: 0 1129 0 0 0 0 0 0 0 
Heartbeat_Variant_1 : 2652 0.647461 per_variant_size: 0 1019 1633 0 0 0 0 0 0 
Heartbeat_Variant_2 : 0 0 per_variant_size: 0 0 0 0 0 0 0 0 0 
Heartbeat_Variant_3 : 0 0 per_variant_size: 0 0 0 0 0 0 0 0 0 
Heartbeat_Variant_0_evicts 0 : 12503 1 : 15082 2 : 0 3 : 0 
Heartbeat_Variant_1_evicts 0 : 15070 1 : 0 2 : 0 3 : 0 
Heartbeat_Variant_2_evicts 0 : 0 1 : 0 2 : 0 3 : 0 
Heartbeat_Variant_3_evicts 0 : 0 1 : 0 2 : 0 3 : 0 
Heartbeat CPU 0 instructions: 40000000 cycles: 11187933 heartbeat IPC: 3.57511 cumulative IPC: 3.57528 (Simulation time: 0 hr 6 min 48 sec) 
Heartbeat_Variant_0 : 1154 0.281738 per_variant_size: 0 1154 0 0 0 0 0 0 0 
Heartbeat_Variant_1 : 2643 0.645264 per_variant_size: 0 964 1679 0 0 0 0 0 0 
Heartbeat_Variant_2 : 0 0 per_variant_size: 0 0 0 0 0 0 0 0 0 
Heartbeat_Variant_3 : 0 0 per_variant_size: 0 0 0 0 0 0 0 0 0 
Heartbeat_Variant_0_evicts 0 : 11911 1 : 14508 2 : 0 3 : 0 
Heartbeat_Variant_1_evicts 0 : 14484 1 : 0 2 : 0 3 : 0 
Heartbeat_Variant_2_evicts 0 : 0 1 : 0 2 : 0 3 : 0 
Heartbeat_Variant_3_evicts 0 : 0 1 : 0 2 : 0 3 : 0 
Heartbeat CPU 0 instructions: 50000000 cycles: 13984233 heartbeat IPC: 3.57615 cumulative IPC: 3.57546 (Simulation time: 0 hr 8 min 28 sec) 

Warmup complete CPU 0 instructions: 50000004 cycles: 13984234 (Simulation time: 0 hr 8 min 28 sec) 

Cycle: 20000000 FTQ IN: 57434884 FTQ occupancy: 18.6483 DECODE IN: 57434739 DECODE occupancy: 47.8909 ROB IN: 57434679 ROB occupancy: 290.708 ROB OUT: 57434463
Heartbeat_Variant_0 : 1164 0.28418 per_variant_size: 0 1164 0 0 0 0 0 0 0 
Heartbeat_Variant_1 : 2633 0.642822 per_variant_size: 0 979 1654 0 0 0 0 0 0 
Heartbeat_Variant_2 : 0 0 per_variant_size: 0 0 0 0 0 0 0 0 0 
Heartbeat_Variant_3 : 0 0 per_variant_size: 0 0 0 0 0 0 0 0 0 
Heartbeat_Variant_0_evicts 0 : 12181 1 : 14930 2 : 0 3 : 0 
Heartbeat_Variant_1_evicts 0 : 14920 1 : 0 2 : 0 3 : 0 
Heartbeat_Variant_2_evicts 0 : 0 1 : 0 2 : 0 3 : 0 
Heartbeat_Variant_3_evicts 0 : 0 1 : 0 2 : 0 3 : 0 
Heartbeat CPU 0 instructions: 60000000 cycles: 22064171 heartbeat IPC: 1.23763 cumulative IPC: 1.23763 (Simulation time: 0 hr 10 min 0 sec) 
Cycle: 30000000 FTQ IN: 12184578 FTQ occupancy: 8.68207 DECODE IN: 12184719 DECODE occupancy: 19.6327 ROB IN: 12184762 ROB occupancy: 151.737 ROB OUT: 12184679
Heartbeat_Variant_0 : 1153 0.281494 per_variant_size: 0 1153 0 0 0 0 0 0 0 
Heartbeat_Variant_1 : 2650 0.646973 per_variant_size: 0 976 1674 0 0 0 0 0 0 
Heartbeat_Variant_2 : 0 0 per_variant_size: 0 0 0 0 0 0 0 0 0 
Heartbeat_Variant_3 : 0 0 per_variant_size: 0 0 0 0 0 0 0 0 0 
Heartbeat_Variant_0_evicts 0 : 12289 1 : 15399 2 : 0 3 : 0 
Heartbeat_Variant_1_evicts 0 : 15410 1 : 0 2 : 0 3 : 0 
Heartbeat_Variant_2_evicts 0 : 0 1 : 0 2 : 0 3 : 0 
Heartbeat_Variant_3_evicts 0 : 0 1 : 0 2 : 0 3 : 0 
Heartbeat CPU 0 instructions: 70000000 cycles: 30308414 heartbeat IPC: 1.21297 cumulative IPC: 1.22518 (Simulation time: 0 hr 11 min 35 sec) 
Heartbeat_Variant_0 : 1137 0.277588 per_variant_size: 0 1137 0 0 0 0 0 0 0 
Heartbeat_Variant_1 : 2666 0.650879 per_variant_size: 0 994 1672 0 0 0 0 0 0 
Heartbeat_Variant_2 : 0 0 per_variant_size: 0 0 0 0 0 0 0 0 0 
Heartbeat_Variant_3 : 0 0 per_variant_size: 0 0 0 0 0 0 0 0 0 
Heartbeat_Variant_0_evicts 0 : 12423 1 : 15408 2 : 0 3 : 0 
Heartbeat_Variant_1_evicts 0 : 15424 1 : 0 2 : 0 3 : 0 
Heartbeat_Variant_2_evicts 0 : 0 1 : 0 2 : 0 3 : 0 
Heartbeat_Variant_3_evicts 0 : 0 1 : 0 2 : 0 3 : 0 
Heartbeat CPU 0 instructions: 80000000 cycles: 38431908 heartbeat IPC: 1.231 cumulative IPC: 1.22711 (Simulation time: 0 hr 13 min 10 sec) 
Cycle: 40000000 FTQ IN: 12372368 FTQ occupancy: 8.59552 DECODE IN: 12372368 DECODE occupancy: 19.5994 ROB IN: 12372378 ROB occupancy: 152.94 ROB OUT: 12372490
Heartbeat_Variant_0 : 1158 0.282715 per_variant_size: 0 1158 0 0 0 0 0 0 0 
Heartbeat_Variant_1 : 2651 0.647217 per_variant_size: 0 959 1692 0 0 0 0 0 0 
Heartbeat_Variant_2 : 0 0 per_variant_size: 0 0 0 0 0 0 0 0 0 
Heartbeat_Variant_3 : 0 0 per_variant_size: 0 0 0 0 0 0 0 0 0 
Heartbeat_Variant_0_evicts 0 : 12321 1 : 15322 2 : 0 3 : 0 
Heartbeat_Variant_1_evicts 0 : 15302 1 : 0 2 : 0 3 : 0 
Heartbeat_Variant_2_evicts 0 : 0 1 : 0 2 : 0 3 : 0 
Heartbeat_Variant_3_evicts 0 : 0 1 : 0 2 : 0 3 : 0 
Heartbeat CPU 0 instructions: 90000000 cycles: 46666738 heartbeat IPC: 1.21435 cumulative IPC: 1.2239 (Simulation time: 0 hr 14 min 47 sec) 
Cycle: 50000000 FTQ IN: 12098632 FTQ occupancy: 8.59363 DECODE IN: 12098636 DECODE occupancy: 19.4354 ROB IN: 12098643 ROB occupancy: 151.72 ROB OUT: 12098809
Heartbeat_Variant_0 : 1133 0.276611 per_variant_size: 0 1133 0 0 0 0 0 0 0 
Heartbeat_Variant_1 : 2676 0.65332 per_variant_size: 0 996 1680 0 0 0 0 0 0 
Heartbeat_Variant_2 : 0 0 per_variant_size: 0 0 0 0 0 0 0 0 0 
Heartbeat_Variant_3 : 0 0 per_variant_size: 0 0 0 0 0 0 0 0 0 
Heartbeat_Variant_0_evicts 0 : 12351 1 : 15479 2 : 0 3 : 0 
Heartbeat_Variant_1_evicts 0 : 15504 1 : 0 2 : 0 3 : 0 
Heartbeat_Variant_2_evicts 0 : 0 1 : 0 2 : 0 3 : 0 
Heartbeat_Variant_3_evicts 0 : 0 1 : 0 2 : 0 3 : 0 
Heartbeat CPU 0 instructions: 100000000 cycles: 54800744 heartbeat IPC: 1.22941 cumulative IPC: 1.22499 (Simulation time: 0 hr 16 min 17 sec) 
Finished CPU 0 instructions: 50000003 cycles: 40816516 cumulative IPC: 1.22499 (Simulation time: 0 hr 16 min 17 sec) 

ChampSim completed all CPUs

Region of Interest Statistics

CPU 0 cumulative IPC: 1.22499 instructions: 50000003 cycles: 40816516
 Fetch stage stalled: 65.8446  Sim cycles: 40816516 fetch stall cycle: 26875487
 Empty decode stage: 52.7411  Sim cycles: 40816516 fetch stall cycle: 21527080
ITLB TOTAL     ACCESS:    5661317  HIT:    5170406  MISS:     490911  HIT %:    91.3287  MISS %:    8.67132   MPKI: 9.81822
ITLB LOAD TRANSLATION INSTRUCTION	ACCESS:    5544468  HIT:    5053557  MISS:     490911  HIT %:    91.1459  MISS %:    8.85407  MPKI: 9.81822
ITLB TRANSLATION FROM L1D PREFETCHER INSTRUCTION	ACCESS:     116849  HIT:     116849  MISS:          0  HIT %:        100  MISS %:          0  MPKI: 0

ITLB AVERAGE MISS LATENCY: 9.04625 cycles
ITLB RQ	ACCESS:    7586550	FORWARD:          0	MERGED:    1433499	TO_CACHE:    6153051

DTLB TOTAL     ACCESS:    9174695  HIT:    8704402  MISS:     470293  HIT %:     94.874  MISS %:    5.12598   MPKI: 9.40586
DTLB LOAD TRANSLATION DATA	ACCESS:    9174695  HIT:    8704402  MISS:     470293  HIT %:     94.874  MISS %:    5.12598  MPKI: 9.40586

DTLB AVERAGE MISS LATENCY: 9.31632 cycles
DTLB RQ	ACCESS:   13495682	FORWARD:          0	MERGED:    4286507	TO_CACHE:    9209175

STLB TOTAL     ACCESS:    1212910  HIT:    1210866  MISS:       2044  HIT %:    99.8315  MISS %:    0.16852   MPKI: 0.04088
STLB LOAD TRANSLATION INSTRUCTION	ACCESS:     490911  HIT:     490659  MISS:        252  HIT %:    99.9487  MISS %:  0.0513331  MPKI: 0.00504
STLB LOAD TRANSLATION DATA	ACCESS:     469993  HIT:     468222  MISS:       1771  HIT %:    99.6232  MISS %:   0.376814  MPKI: 0.03542
STLB TRANSLATION FROM L1D PREFETCHER DATA	ACCESS:     252006  HIT:     251985  MISS:         21  HIT %:    99.9917  MISS %: 0.00833313  MPKI: 0.00042

STLB AVERAGE MISS LATENCY: 71.1086 cycles
STLB RQ	ACCESS:    1333769	FORWARD:          0	MERGED:     120807	TO_CACHE:    1212962

STLB Hit, L1D data hit: 0
STLB Hit, L2C data hit: 0
STLB Hit, LLC data hit: 0
STLB Hit, LLC data miss: 0
STLB STLB hints to L2: 0
L1D TOTAL     ACCESS:   13261759  HIT:   12156350  MISS:    1105409  HIT %:    91.6647  MISS %:    8.33531   MPKI: 22.1082
L1D LOAD DATA	ACCESS:    6708872  HIT:    5981705  MISS:     727167  HIT %:    89.1611  MISS %:    10.8389  MPKI: 14.5433
L1D RFO DATA	ACCESS:    6219777  HIT:    5935628  MISS:     284149  HIT %:    95.4315  MISS %:    4.56848  MPKI: 5.68298
L1D PREFETCH DATA	ACCESS:     333110  HIT:     239017  MISS:      94093  HIT %:    71.7532  MISS %:    28.2468  MPKI: 1.88186

L1D PREFETCH  REQUESTED:     745413  ISSUED:     745413  USEFUL:      32980  USELESS:      68642
L1D USEFUL LOAD PREFETCHES:      32980 PREFETCH ISSUED TO LOWER LEVEL:     101710  ACCURACY: 32.4255
 TIMELY PREFETCHES:      32980 LATE PREFETCHES: 7538 DROPPED PREFETCHES: 12
L1D AVERAGE MISS LATENCY: 238038 cycles
L1D RQ	ACCESS:   10805627	FORWARD:          0	MERGED:    3899428	TO_CACHE:    6741817
L1D WQ	ACCESS:    6936838	FORWARD:     164669	MERGED:     182973	TO_CACHE:    6753865
L1D PQ	ACCESS:     372850	FORWARD:          0	MERGED:          0	TO_CACHE:     372563

L1D UNIQUE REGIONS ACCESSED: 0
L1D REGIONS CONFLICTS: 0
L1D Cross Page Prefetch Requests: 7097
L1D Same Page Prefetch Requests: 750821
L1D ROI Sum of L1D PQ occupancy: 4729941
L1D PREFETCHES PUSHED FROM L2C: 0
L1I TOTAL     ACCESS:    6981996  HIT:    4234144  MISS:    2747852  HIT %:    60.6437  MISS %:    39.3563   MPKI: 54.957
L1I LOAD INSTRUCTION	ACCESS:    6438025  HIT:    3690173  MISS:    2747852  HIT %:    57.3184  MISS %:    42.6816  MPKI: 54.957
L1I PREFETCH INSTRUCTION	ACCESS:     543971  HIT:     543971  MISS:          0  HIT %:        100  MISS %:          0  MPKI: 0

L1I PREFETCH  REQUESTED:    1259933  ISSUED:    1259933  USEFUL:          0  USELESS:          0
L1I USEFUL LOAD PREFETCHES:          0 PREFETCH ISSUED TO LOWER LEVEL:          0  ACCURACY: -nan
 TIMELY PREFETCHES:          0 LATE PREFETCHES: 0 DROPPED PREFETCHES: 0
L1I AVERAGE MISS LATENCY: 17.696 cycles
L1I RQ	ACCESS:    9467926	FORWARD:          0	MERGED:    2786939	TO_CACHE:    6680987
L1I PQ	ACCESS:    1259933	FORWARD:          0	MERGED:     354370	TO_CACHE:     905563

L1BTB TOTAL     ACCESS:    5672615  HIT:    2059750  MISS:    3612865  HIT %:    36.3104  MISS %:    63.6896   MPKI: 72.2573
L1BTB BRANCH_DIRECT_JUMP	ACCESS:     549908 HIT:     146846 MISS:     403062 AVERAGE STALL: 42.0388 AVERAGE FETCH STALL: 18.8417 AVERAGE FETCH QUEUE STALL: 12.6776 AVERAGE DECODE STALL: 9.68966 AVERAGE EXECUTE STALL: 5.96712e+14
L1BTB BRANCH_INDIRECT	ACCESS:     183773 HIT:      66657 MISS:     117116 AVERAGE STALL: 94.4557 AVERAGE FETCH STALL: 12.9161 AVERAGE FETCH QUEUE STALL: 10.9172 AVERAGE DECODE STALL: 8.36793 AVERAGE EXECUTE STALL: 61.3084
L1BTB BRANCH_CONDITIONAL	ACCESS:    2717908 HIT:    1429377 MISS:    1288531 AVERAGE STALL: 41.8031 AVERAGE FETCH STALL: 22.1885 AVERAGE FETCH QUEUE STALL: 10.5087 AVERAGE DECODE STALL: 8.36303 AVERAGE EXECUTE STALL: 2.2661e+14
L1BTB BRANCH_DIRECT_CALL	ACCESS:     939715 HIT:     105743 MISS:     833972 AVERAGE STALL: 43.7653 AVERAGE FETCH STALL: 22.6534 AVERAGE FETCH QUEUE STALL: 11.4322 AVERAGE DECODE STALL: 8.9211 AVERAGE EXECUTE STALL: 1.73734e+14
L1BTB BRANCH_INDIRECT_CALL	ACCESS:     170793 HIT:      20997 MISS:     149796 AVERAGE STALL: 124.929 AVERAGE FETCH STALL: 17.5356 AVERAGE FETCH QUEUE STALL: 9.34053 AVERAGE DECODE STALL: 7.9435 AVERAGE EXECUTE STALL: 89.5819
L1BTB BRANCH_RETURN	ACCESS:    1110518 HIT:     290130 MISS:     820388 AVERAGE STALL: 42.2282 AVERAGE FETCH STALL: 18.8042 AVERAGE FETCH QUEUE STALL: 7.36267 AVERAGE DECODE STALL: 6.78605 AVERAGE EXECUTE STALL: 2.46647e+14
L1BTB BRANCH_OTHER ACCESS:          0 HIT:          0 MISS:          0 AVERAGE STALL: -nan AVERAGE FETCH STALL: -nan AVERAGE FETCH QUEUE STALL: -nan AVERAGE DECODE STALL: -nan AVERAGE EXECUTE STALL: -nan
L1BTB TOTAL ROB OCCUPANCY AT BTB MISS: 11.3747

L2BTB TOTAL     ACCESS:    3587346  HIT:    3266746  MISS:     320600  HIT %:     91.063  MISS %:    8.93697   MPKI: 6.412
L2BTB BRANCH_DIRECT_JUMP	ACCESS:     398816 HIT:     372140 MISS:      26676 AVERAGE STALL: 42.0388 AVERAGE FETCH STALL: 18.8417 AVERAGE FETCH QUEUE STALL: 12.6776 AVERAGE DECODE STALL: 9.68966 AVERAGE EXECUTE STALL: 5.96712e+14
L2BTB BRANCH_INDIRECT	ACCESS:     106883 HIT:     100594 MISS:       6289 AVERAGE STALL: 94.4557 AVERAGE FETCH STALL: 12.9161 AVERAGE FETCH QUEUE STALL: 10.9172 AVERAGE DECODE STALL: 8.36793 AVERAGE EXECUTE STALL: 61.3084
L2BTB BRANCH_CONDITIONAL	ACCESS:    1288531 HIT:    1206668 MISS:      81863 AVERAGE STALL: 41.8031 AVERAGE FETCH STALL: 22.1885 AVERAGE FETCH QUEUE STALL: 10.5087 AVERAGE DECODE STALL: 8.36303 AVERAGE EXECUTE STALL: 2.2661e+14
L2BTB BRANCH_DIRECT_CALL	ACCESS:     833972 HIT:     727763 MISS:     106209 AVERAGE STALL: 43.7653 AVERAGE FETCH STALL: 22.6534 AVERAGE FETCH QUEUE STALL: 11.4322 AVERAGE DECODE STALL: 8.9211 AVERAGE EXECUTE STALL: 1.73734e+14
L2BTB BRANCH_INDIRECT_CALL	ACCESS:     140159 HIT:     114009 MISS:      26150 AVERAGE STALL: 124.929 AVERAGE FETCH STALL: 17.5356 AVERAGE FETCH QUEUE STALL: 9.34053 AVERAGE DECODE STALL: 7.9435 AVERAGE EXECUTE STALL: 89.5819
L2BTB BRANCH_RETURN	ACCESS:     818985 HIT:     745572 MISS:      73413 AVERAGE STALL: 42.2282 AVERAGE FETCH STALL: 18.8042 AVERAGE FETCH QUEUE STALL: 7.36267 AVERAGE DECODE STALL: 6.78605 AVERAGE EXECUTE STALL: 2.46647e+14
L2BTB BRANCH_OTHER ACCESS:          0 HIT:          0 MISS:          0 AVERAGE STALL: -nan AVERAGE FETCH STALL: -nan AVERAGE FETCH QUEUE STALL: -nan AVERAGE DECODE STALL: -nan AVERAGE EXECUTE STALL: -nan
L2BTB TOTAL ROB OCCUPANCY AT BTB MISS: 128.182

L2C TOTAL     ACCESS:    4456671  HIT:    3933359  MISS:     523312  HIT %:    88.2578  MISS %:    11.7422   MPKI: 10.4662
L2C LOAD INSTRUCTION	ACCESS:    2747851  HIT:    2449872  MISS:     297979  HIT %:    89.1559  MISS %:    10.8441  MPKI: 5.95958
L2C LOAD TRANSLATION INSTRUCTION	ACCESS:        283  HIT:         56  MISS:        227  HIT %:     19.788  MISS %:     80.212  MPKI: 0.00454
L2C LOAD DATA	ACCESS:     719596  HIT:     642631  MISS:      76965  HIT %:    89.3044  MISS %:    10.6956  MPKI: 1.5393
L2C RFO DATA	ACCESS:     284047  HIT:     226786  MISS:      57261  HIT %:     79.841  MISS %:     20.159  MPKI: 1.14522
L2C PREFETCH DATA	ACCESS:     186387  HIT:     112590  MISS:      73797  HIT %:    60.4066  MISS %:    39.5934  MPKI: 1.47594
L2C WRITEBACK DATA	ACCESS:     516613  HIT:     500941  MISS:      15672  HIT %:    96.9664  MISS %:    3.03361  MPKI: 0.31344
L2C LOAD TRANSLATION DATA	ACCESS:       1847  HIT:        455  MISS:       1392  HIT %:    24.6345  MISS %:    75.3655  MPKI: 0.02784
L2C TRANSLATION FROM L1D PREFETCHER DATA	ACCESS:         47  HIT:         28  MISS:         19  HIT %:    59.5745  MISS %:    40.4255  MPKI: 0.00038

L2C PREFETCH  REQUESTED:      92939  ISSUED:      92939  USEFUL:       8993  USELESS:      65361
L2C USEFUL LOAD PREFETCHES:       8993 PREFETCH ISSUED TO LOWER LEVEL:      74309  ACCURACY: 12.1022
 TIMELY PREFETCHES:       8993 LATE PREFETCHES: 512 DROPPED PREFETCHES: 0
L2C AVERAGE MISS LATENCY: 37.4485 cycles
L2C RQ	ACCESS:    3753727	FORWARD:          0	MERGED:          0	TO_CACHE:    3753671
L2C WQ	ACCESS:     516613	FORWARD:         56	MERGED:          0	TO_CACHE:     516613
L2C PQ	ACCESS:     194649	FORWARD:          0	MERGED:       4000	TO_CACHE:     190649

L2C Dense regions hint from L2: 0
PSCL5 TOTAL     ACCESS:       4116  HIT:       2058  MISS:       2058  HIT %:         50  MISS %:         50   MPKI: 0.04116
PSCL5 LOAD TRANSLATION INSTRUCTION	ACCESS:       4022  HIT:       2011  MISS:       2011  HIT %:         50  MISS %:         50  MPKI: 0.04022
PSCL5 TRANSLATION FROM L1D PREFETCHER INSTRUCTION	ACCESS:         94  HIT:         47  MISS:         47  HIT %:         50  MISS %:         50  MPKI: 0.00094


PSCL4 TOTAL     ACCESS:       3508  HIT:       1749  MISS:       1759  HIT %:    49.8575  MISS %:    50.1425   MPKI: 0.03518
PSCL4 LOAD TRANSLATION INSTRUCTION	ACCESS:       1758  HIT:       1710  MISS:         48  HIT %:    97.2696  MISS %:    2.73038  MPKI: 0.00096
PSCL4 TRANSLATION FROM L1D PREFETCHER INSTRUCTION	ACCESS:         39  HIT:         39  MISS:          0  HIT %:        100  MISS %:          0  MPKI: 0
PSCL4 LOAD TRANSLATION DATA	ACCESS:       1672  HIT:          0  MISS:       1672  HIT %:          0  MISS %:        100  MPKI: 0.03344
PSCL4 TRANSLATION FROM L1D PREFETCHER DATA	ACCESS:         39  HIT:          0  MISS:         39  HIT %:          0  MISS %:        100  MPKI: 0.00078


PSCL3 TOTAL     ACCESS:       3552  HIT:       1771  MISS:       1781  HIT %:    49.8592  MISS %:    50.1408   MPKI: 0.03562
PSCL3 LOAD TRANSLATION INSTRUCTION	ACCESS:       1780  HIT:       1732  MISS:         48  HIT %:    97.3034  MISS %:    2.69663  MPKI: 0.00096
PSCL3 TRANSLATION FROM L1D PREFETCHER INSTRUCTION	ACCESS:         39  HIT:         39  MISS:          0  HIT %:        100  MISS %:          0  MPKI: 0
PSCL3 LOAD TRANSLATION DATA	ACCESS:       1694  HIT:          0  MISS:       1694  HIT %:          0  MISS %:        100  MPKI: 0.03388
PSCL3 TRANSLATION FROM L1D PREFETCHER DATA	ACCESS:         39  HIT:          0  MISS:         39  HIT %:          0  MISS %:        100  MPKI: 0.00078


PSCL2 TOTAL     ACCESS:       4017  HIT:       1959  MISS:       2058  HIT %:    48.7677  MISS %:    51.2323   MPKI: 0.04116
PSCL2 LOAD TRANSLATION INSTRUCTION	ACCESS:       2163  HIT:       1912  MISS:        251  HIT %:    88.3957  MISS %:    11.6043  MPKI: 0.00502
PSCL2 TRANSLATION FROM L1D PREFETCHER INSTRUCTION	ACCESS:         47  HIT:         47  MISS:          0  HIT %:        100  MISS %:          0  MPKI: 0
PSCL2 LOAD TRANSLATION DATA	ACCESS:       1760  HIT:          0  MISS:       1760  HIT %:          0  MISS %:        100  MPKI: 0.0352
PSCL2 TRANSLATION FROM L1D PREFETCHER DATA	ACCESS:         47  HIT:          0  MISS:         47  HIT %:          0  MISS %:        100  MPKI: 0.00094


LLC TOTAL     ACCESS:     589261  HIT:     561219  MISS:      28042  HIT %:    95.2412  MISS %:    4.75884   MPKI: 0.56084
LLC LOAD INSTRUCTION	ACCESS:     297979  HIT:     297143  MISS:        836  HIT %:    99.7194  MISS %:   0.280557  MPKI: 0.01672
LLC LOAD TRANSLATION INSTRUCTION	ACCESS:        227  HIT:        197  MISS:         30  HIT %:    86.7841  MISS %:    13.2159  MPKI: 0.0006
LLC LOAD DATA	ACCESS:      76459  HIT:      73088  MISS:       3371  HIT %:    95.5911  MISS %:     4.4089  MPKI: 0.06742
LLC RFO DATA	ACCESS:      57255  HIT:      43651  MISS:      13604  HIT %:    76.2396  MISS %:    23.7604  MPKI: 0.27208
LLC PREFETCH DATA	ACCESS:      74309  HIT:      64472  MISS:       9837  HIT %:     86.762  MISS %:     13.238  MPKI: 0.19674
LLC WRITEBACK DATA	ACCESS:      81621  HIT:      81334  MISS:        287  HIT %:    99.6484  MISS %:   0.351625  MPKI: 0.00574
LLC LOAD TRANSLATION DATA	ACCESS:       1392  HIT:       1315  MISS:         77  HIT %:    94.4684  MISS %:    5.53161  MPKI: 0.00154
LLC TRANSLATION FROM L1D PREFETCHER DATA	ACCESS:         19  HIT:         19  MISS:          0  HIT %:        100  MISS %:          0  MPKI: 0

LLC AVERAGE MISS LATENCY: 154.332 cycles
LLC RQ	ACCESS:     433331	FORWARD:          0	MERGED:          0	TO_CACHE:     433331
LLC WQ	ACCESS:      81621	FORWARD:          0	MERGED:          0	TO_CACHE:      81621
LLC PQ	ACCESS:      74309	FORWARD:          0	MERGED:          0	TO_CACHE:      74309

LLC Dense regions hint to LLC: 0

RAW hits: 1829256
Loads Generated: 12634884
Loads sent to L1D: 10805627
Stores Generated: 6936813
Stores sent to L1D: 6936838
Major fault: 0 Minor fault: 2579
Allocated PAGES: 2579

stream: 
stream:times selected: 1194769
stream:pref_filled: 121391
stream:pref_useful: 23520
stream:pref_late: 6757
stream:misses: 8385
stream:misses_by_poll: 0

CS: 
CS:times selected: 180120
CS:pref_filled: 60211
CS:pref_useful: 36806
CS:pref_late: 6762
CS:misses: 15698
CS:misses_by_poll: 3

CPLX: 
CPLX:times selected: 1013345
CPLX:pref_filled: 19167
CPLX:pref_useful: 4414
CPLX:pref_late: 3000
CPLX:misses: 92005
CPLX:misses_by_poll: 3

NL_L1: 
NL:times selected: 21572
NL:pref_filled: 608
NL:pref_useful: 239
NL:pref_late: 368
NL:misses: 1717
NL:misses_by_poll: 0

total selections: 2409806
total_filled: 94093
total_useful: 32980
total_late: 18219
total_polluted: 6
total_misses_after_warmup: 760109
conflicts: 5581104

test: 120018

DRAM Statistics
 CHANNEL 0
 RQ ROW_BUFFER_HIT:      10226  ROW_BUFFER_MISS:      17528
 DBUS_CONGESTED:         10
 WQ ROW_BUFFER_HIT:       1380  ROW_BUFFER_MISS:      12299  FULL:          0

 AVG_CONGESTED_CYCLE: 5

CPU 0 Branch Prediction Accuracy: 99.8211% MPKI: 0.32714 Average ROB Occupancy at Mispredict: 153.513
Branch types
NOT_BRANCH: 40856049 81.7121%
BRANCH_DIRECT_JUMP: 549908 1.09982%
BRANCH_INDIRECT: 183773 0.367546%
BRANCH_CONDITIONAL: 6188804 12.3776%
BRANCH_DIRECT_CALL: 939715 1.87943%
BRANCH_INDIRECT_CALL: 170793 0.341586%
BRANCH_RETURN: 1110518 2.22104%
BRANCH_OTHER: 0 0%

DRAM PAGES: 1048576
Allocated PAGES: 2579
Average_ROB_Occupancy: 153.783
Average_Decode_Occupancy: 19.529
Average_FTQ_Occupancy: 8.5924
Indirect max targets: 14 Average targets: 1.15017
Branch_type:  BRANCH_DIRECT_JUMP:  Count Percentage: 3.32786 6.69666 3.79685 7.96304 2.23298 6.01588 1.27011 68.6966 
Branch_type:  BRANCH_INDIRECT:  Count Percentage: 6.17441 3.43917 8.16997 9.6987 3.33358 2.79908 3.06183 63.3233 
Branch_type:  BRANCH_CONDITIONAL:  Count Percentage: 21.9558 2.44348 1.50196 4.35999 1.6661 3.6369 1.04507 63.3907 
Branch_type:  BRANCH_DIRECT_CALL:  Count Percentage: 0.38978 1.25354 0.766385 4.06738 2.11736 2.88518 1.06814 87.4522 
Branch_type:  BRANCH_INDIRECT_CALL:  Count Percentage: 9.52462 0 2.98531 0 0 2.42421 3.27608 81.7898 
Branch_type:  BRANCH_RETURN:  Count Percentage: 3.72964 1.37935 1.03977 4.73935 4.4031 3.8833 1.45137 79.3741 
Branch_type:  BRANCH_DIRECT_JUMP:  Total Count: 36501 73451 41645 87341 24492 65984 13931 753485 
Branch_type:  BRANCH_INDIRECT:  Total Count: 22630 12605 29944 35547 12218 10259 11222 232088 
Branch_type:  BRANCH_CONDITIONAL:  Total Count: 2714179 302063 185672 538982 205963 449594 129191 7836359 
Branch_type:  BRANCH_DIRECT_CALL:  Total Count: 7337 23596 14426 76562 39856 54309 20106 1646151 
Branch_type:  BRANCH_INDIRECT_CALL:  Total Count: 32626 0 10226 0 0 8304 11222 280166 
Branch_type:  BRANCH_RETURN:  Total Count: 83010 30700 23142 105483 97999 86430 32303 1766617 
Number of unique branch instructions: 9828
Upper 32 bits: 
aaaa
ffff
ffff0000
Unique upper 32 bits: 3
Unique upper 36 bits: 3
Unique upper 40 bits: 5
Unique upper 44 bits: 32
Unique upper 48 bits: 153
Variant_0 : 1133 0.276611
Variant_1 : 2676 0.65332
Variant_2 : 0 0
Variant_3 : 0 0
Offset_3 4041
Offset_4 242
Offset_5 448
Offset_6 499
Offset_7 578
Offset_8 507
Offset_9 464
Offset_10 377
Offset_11 313
Offset_12 283
Offset_13 199
Offset_14 228
Offset_15 189
Offset_16 219
Offset_17 142
Offset_18 126
Offset_19 235
Offset_20 139
Offset_21 235
Offset_22 389
Offset_23 241
Offset_24 324
Offset_25 88
Offset_47 80
Offset_64 2
decode_dispatch_called: 20844701 51.0693
Dispatch_width: 0 10654033 51.1115 26.1023
Dispatch_width: 1 583339 2.7985 1.42917
Dispatch_width: 2 619226 2.97066 1.5171
Dispatch_width: 3 405899 1.94725 0.994448
Dispatch_width: 4 2137208 10.253 5.23614
Dispatch_width: 5 258575 1.24048 0.633506
Dispatch_width: 6 6186421 29.6786 15.1567
Empty_decode_cycles: 19971815 48.9307
ROB_full_cycles: 3276277 8.02684
Starvation_cycles_per_kilo_instr: 313.538
Starvation_cycles_per_kilo_instr_3: 289.58
Starvation_cycles_per_kilo_instr_0: 273.496
Branch_type_1  (3,1)  (4,7)  (5,36)  (6,69)  (7,114)  (8,127)  (9,123)  (10,98)  (11,70)  (12,51)  (13,5)  (14,2)  (15,3)  (16,4)  (18,1)  (19,4)  (20,2)  (21,1)  (22,3)  (23,2)  (24,10)  (25,12) 
Branch_type_2  (3,1)  (5,1)  (8,3)  (9,3)  (12,1)  (13,1)  (14,1)  (16,3)  (17,2)  (20,2)  (21,2)  (23,5)  (24,1)  (47,36) 
Branch_type_3  (3,4039)  (4,235)  (5,407)  (6,414)  (7,433)  (8,317)  (9,255)  (10,152)  (11,128)  (12,58)  (13,4)  (64,2) 
Branch_type_4  (6,4)  (7,8)  (8,26)  (9,51)  (10,60)  (11,59)  (12,95)  (13,86)  (14,101)  (15,89)  (16,98)  (17,63)  (18,57)  (19,114)  (20,72)  (21,124)  (22,207)  (23,136)  (24,186)  (25,72) 
Branch_type_5  (8,2)  (9,1)  (10,3)  (11,5)  (12,3)  (13,14)  (14,16)  (15,11)  (16,20)  (17,11)  (18,16)  (19,12)  (20,10)  (21,13)  (22,42)  (23,26)  (24,36) 
Branch_type_6  (5,4)  (6,12)  (7,23)  (8,32)  (9,31)  (10,64)  (11,51)  (12,75)  (13,89)  (14,108)  (15,86)  (16,94)  (17,66)  (18,52)  (19,105)  (20,53)  (21,95)  (22,137)  (23,72)  (24,91)  (25,4)  (47,44) 
Unique trigger count: 
Variant_0_evicts_0 : 0
Variant_0_evicts_1 : 0
Variant_0_evicts_2 : 0
Variant_0_evicts_3 : 0
Variant_1_evicts_0 : 0
Variant_1_evicts_1 : 0
Variant_1_evicts_2 : 0
Variant_1_evicts_3 : 0
Variant_2_evicts_0 : 0
Variant_2_evicts_1 : 0
Variant_2_evicts_2 : 0
Variant_2_evicts_3 : 0
Variant_3_evicts_0 : 0
Variant_3_evicts_1 : 0
Variant_3_evicts_2 : 0
Variant_3_evicts_3 : 0
BTB PER SET UNIQUE ADDR: 2 7 4 5 5 5 6 5 2 6 5 4 3 4 9 9 3 4 3 2 4 7 7 9 3 8 3 4 5 6 6 5 4 9 5 6 6 4 5 9 4 7 3 4 5 5 4 4 6 7 9 5 6 2 2 7 5 3 6 5 4 7 4 4 5 2 4 4 3 7 6 6 5 7 5 9 3 5 5 5 10 7 6 7 7 3 6 3 6 7 6 7 7 5 3 1 5 3 4 6 5 4 4 5 4 4 4 5 6 6 6 2 2 8 2 5 4 4 4 10 6 3 5 3 7 7 2 6 5 2 2 5 4 6 9 6 5 2 7 4 3 4 8 6 3 7 5 5 5 7 3 2 2 11 2 4 6 4 6 4 2 7 4 5 8 3 1 4 7 8 7 6 4 4 4 5 2 6 5 5 4 4 4 8 4 5 4 5 4 6 4 3 5 7 1 4 6 6 6 4 5 7 3 5 1 7 3 3 5 3 2 3 6 5 5 5 6 4 4 6 3 9 5 8 6 10 6 3 7 10 3 6 6 9 4 6 3 7 3 7 5 5 4 4 5 4 3 3 5 6 3 7 4 4 5 5 4 5 7 1 8 6 3 5 4 4 3 6 5 5 7 7 5 6 6 5 6 2 5 8 8 2 4 7 3 5 11 6 7 5 4 4 10 7 7 5 5 3 6 5 11 3 5 8 3 3 6 8 6 3 7 3 5 6 5 5 5 6 6 3 6 8 2 4 10 5 3 4 2 8 4 10 3 5 6 4 6 8 6 7 3 5 5 3 5 5 4 5 2 4 6 5 3 2 7 4 4 6 5 5 10 5 2 7 4 10 5 6 4 3 8 7 10 4 5 4 7 5 4 1 5 5 4 5 9 4 2 6 4 5 5 2 3 6 4 4 5 2 5 3 7 5 7 5 4 10 10 4 8 3 4 4 1 5 6 2 4 4 5 6 6 0 4 6 6 4 5 9 5 6 8 3 3 4 6 1 4 4 2 4 8 6 3 3 5 0 3 5 6 5 9 3 6 4 5 2 7 2 9 4 4 5 4 11 1 7 5 5 3 5 4 8 2 5 3 8 3 2 3 8 4 3 6 4 3 4 3 6 6 6 6 6 5 4 5 4 4 4 2 9 3 3 4 4 4 6 5 2 2 3 6 2 4 3 5 5 9 6 6 4 5 5 8 3 6 11 2 3 5 3 7 8 3 2 4 5 5 8 5 6 3 7 8 11 5 4 7 11 4 3 3 6 2 5 5 7 7 0 4 4 3 3 5 6 3 3 4 4 9 3 4 4 1 7 3 6 7 2 6 5 0 7 3 9 3 3 3 2 5 7 5 6 6 5 3 5 10 8 3 4 9 2 4 2 4 11 8 0 4 4 4 3 5 7 1 3 9 4 9 7 3 4 5 2 6 5 2 5 6 4 4 8 4 5 7 5 3 8 5 10 2 6 4 2 3 7 5 4 4 6 6 5 5 8 5 7 5 4 2 4 3 5 5 7 5 4 4 9 7 6 8 5 8 4 7 4 4 5 4 8 6 7 3 6 9 8 3 4 8 4 7 2 4 6 4 9 5 7 5 9 7 5 5 3 10 4 3 6 7 7 4 1 3 5 5 5 7 6 3 3 6 6 3 8 7 7 9 7 3 8 3 5 7 3 7 2 5 6 2 7 4 11 6 5 6 3 8 3 5 5 7 3 6 5 8 8 9 1 2 7 6 5 6 6 10 5 7 11 6 3 7 4 1 6 8 4 4 6 3 5 7 3 4 4 10 5 4 8 5 7 7 4 5 4 6 6 7 3 6 3 7 5 7 4 4 3 5 3 6 6 6 2 0 5 6 3 9 4 7 5 7 5 4 4 5 6 5 6 10 5 6 6 4 6 5 4 6 4 2 5 1 8 5 4 5 4 4 6 4 4 3 6 3 3 6 3 10 7 4 3 0 5 3 6 6 5 6 6 5 4 3 5 5 3 2 3 4 6 1 6 6 5 6 4 5 6 6 10 1 0 9 2 4 1 4 6 4 9 7 2 7 3 6 5 3 1 5 6 7 9 7 5 5 5 7 9 6 6 7 6 8 0 6 6 3 2 6 6 6 4 3 7 7 5 5 6 3 4 1 5 6 5 4 2 5 3 3 2 8 2 9 8 3 2 9 5 8 3 5 2 5 4 6 5 6 3 6 4 2 3 5 1 3 6 2 3 2 10 5 7 4 5 8 4 8 3 3 5 6 3 3 5 5 11 6 4 5 3 2 3 5 4 8 3 4 3 5 8 4 4 4 7 7 5 4 5 5 6 3 4 5 3 4 7 7 4 6 7 3 4 6 2 5 5 4 7 7 5 3 4 5 5 4 6 8 4 6 6 3 4 6 5 5 4 2 7 8 7 4 3 2 7 4 5 3 6 9 5 7 4 1 5 3 7 8 4 5 6 7 4 8 2 4 5 6 5 4 3 2 7 7 8 6 5 6 3 3 3 4 3 5 11 6 7 3 6 3 5 3 1 6 5 4 3 8 3 5 6 3 5 5 5 4 8 2 6 5 8 4 2 6 5 6 2 5 4 3 5 3 6 7 9 5 3 4 5 2 5 4 4 3 5 1 4 4 4 5 9 7 4 4 2 7 5 3 3 6 4 5 8 8 4 5 4 5 9 4 7 2 4 7 1 10 4 3 4 5 3 7 8 9 6 4 1 7 4 7 6 4 3 6 3 4 3 6 5 4 1 7 4 5 2 6 7 1 6 6 3 7 6 8 2 5 3 5 6 6 5 5 4 5 2 3 2 7 5 3 6 5 3 5 5 4 4 6 5 9 3 2 5 3 7 2 3 3 3 2 3 2 6 3 4 5 4 5 2 6 7 4 9 5 4 8 3 5 6 6 5 7 5 7 5 5 9 4 4 5 4 10 8 6 5 5 10 4 5 7 4 5 6 2 6 4 6 7 5 7 8 8 8 10 5 3 5 10 4 4 4 4 3 3 6 3 5 5 1 5 4 5 9 4 6 3 6 6 4 5 6 4 5 6 5 6 6 8 11 4 6 8 5 5 3 5 6 4 2 6 1 4 4 4 8 7 7 6 2 4 5 5 7 3 5 3 13 7 7 4 5 3 5 2 5 3 5 5 3 5 5 3 2 2 4 8 7 1 5 6 4 5 3 8 4 8 2 2 5 7 6 3 5 3 5 9 4 9 6 4 2 2 5 6 6 4 7 6 8 6 4 3 8 6 3 5 5 10 6 6 8 5 3 5 7 6 4 5 5 8 4 7 4 3 5 1 6 4 4 5 4 9 4 5 4 5 5 7 7 2 4 3 8 4 6 6 1 4 2 8 5 5 10 5 6 4 7 7 4 4 4 4 5 2 5 5 8 4 9 6 6 6 1 6 2 10 7 6 4 8 5 5 3 6 5 10 3 3 7 6 7 6 11 9 1 3 6 8 4 11 6 6 1 4 6 5 2 5 6 4 3 2 5 5 3 6 5 4 5 5 7 3 2 4 5 5 4 3 3 4 8 5 4 3 8 6 4 2 4 3 8 6 6 8 4 7 4 1 6 4 8 7 3 5 4 4 6 5 8 8 6 4 8 5 5 3 5 6 3 3 6 4 6 5 6 5 6 4 6 8 6 8 6 4 5 8 5 3 6 4 4 8 4 4 7 6 8 4 5 3 2 3 4 3 6 7 4 7 5 6 4 6 5 4 6 9 3 6 7 5 4 5 8 5 4 4 3 3 4 4 5 6 4 3 6 3 6 6 3 5 5 2 2 6 4 3 2 5 3 0 5 5 4 6 4 6 1 1 4 5 5 13 2 4 8 3 2 5 3 1 5 3 5 3 5 4 2 4 8 7 3 4 4 2 1 6 4 5 3 4 6 4 6 2 3 3 8 8 5 7 5 4 3 3 2 5 5 3 6 2 5 8 7 4 3 7 4 1 6 5 7 5 5 6 3 3 3 3 6 1 1 4 4 6 8 3 7 5 5 7 5 7 4 2 4 6 10 0 6 5 8 4 9 5 9 1 6 10 7 5 6 2 6 3 7 3 5 4 6 7 4 4 6 4 5 2 4 1 1 4 2 7 2 4 4 5 2 6 3 3 8 1 6 3 3 7 6 6 7 5 4 5 4 4 7 4 1 3 5 5 4 3 7 4 4 2 3 5 4 5 4 4 6 3 4 4 5 5 3 5 6 3 5 2 4 7 3 4 5 1 5 5 3 3 7 4 6 4 4 4 7 3 8 2 6 3 5 5 8 4 5 3 1 4 3 1 5 2 9 1 6 2 8 3 2 3 5 4 5 2 1 3 8 2 5 3 4 3 7 4 1 4 6 4 6 7 2 4 7 2 5 8 4 1 1 7 9 1 5 7 7 4 4 5 5 9 6 6 6 4 1 5 3 5 6 5 8 8 9 4 4 2 7 4 6 6 5 6 8 5 7 6 8 6 5 3 6 5 5 5 4 3 8 2 7 6 10 6 3 5 8 3 5 5 4 2 2 8 8 3 7 2 6 3 4 8 6 4 4 1 2 7 5 0 4 5 8 3 4 5 8 7 6 4 9 6 5 5 9 6 5 5 2 2 11 5 2 5 4 4 14 4 4 3 7 3 5 3 3 7 6 
BTB PER SET COUNT: 2 1790 67 622 185 103 346 244 2 843 800 387 3 1500 942 168 245 164 3 2 283 664 660 374 422 1034 178 240 399 462 407 162 171 869 509 210 647 257 161 1343 12 1701 3 8 933 860 6 90 319 768 708 7 865 2 2 340 509 1168 580 96 1178 708 166 9 16 5 183 221 3 666 1246 144 286 975 19 973 4 321 850 210 973 255 179 425 225 3 529 3 595 1675 420 522 591 331 3 1 241 3 165 506 359 212 87 8 9 4 125 209 662 590 99 2 2 1066 4 9 287 9 314 1993 407 218 1662 3 332 854 2 359 1095 2 2 133 4 238 300 382 180 2 443 663 8 938 867 238 3 359 6 8 73 597 150 453 4 890 2 486 310 971 375 246 2 122 6 481 599 65 1 5 220 294 296 425 253 124 304 85 2 297 6 409 112 223 110 478 256 129 32 10 8 53 40 3 643 306 1 363 127 670 940 5 202 142 105 161 1 437 3 479 225 3 7 5 453 577 245 197 898 288 4 242 3 419 249 716 383 1083 335 40 334 1038 453 148 24 4453 14 277 4 55 240 754 464 208 330 142 183 231 141 3 5 239 179 698 8 207 392 17 1796 186 315 1 396 193 243 271 20 382 4 479 451 74 193 290 12 207 357 210 127 264 144 624 597 2 375 441 3 145 1293 273 379 32 6 4 1197 470 506 185 14 3 338 6 875 243 1464 329 5 3 83 99 108 11 168 3 231 206 8 161 24 308 130 3 515 164 197 228 919 199 335 201 2 444 6 916 194 482 145 261 716 178 150 408 3 245 289 3 761 240 250 510 2 158 441 7 69 2 474 4 399 537 409 128 1146 408 2 759 145 2560 507 1028 4 369 857 624 1213 10 224 176 744 208 173 1 33 1054 26 716 889 9 2 261 4 8 197 2 3 113 209 4 410 3 261 157 1099 414 262 5 360 900 2223 402 209 17 4 106 1 191 778 5 353 406 237 139 455 0 4 296 101 400 418 478 962 146 1050 55 4 173 226 1 4 8 2 5 1006 250 3 4 744 0 2424 43 373 158 1078 880 284 186 43 2 319 2 654 249 837 6 41 1106 1 611 171 5 6 343 189 1139 2 361 954 297 124 3 3 666 54 336 335 416 7 4 180 432 623 422 1283 451 106 238 187 946 447 199 70 298 3 98 5 239 75 505 171 100 2 4 952 2 864 1061 8 58 570 973 476 295 292 193 901 3 123 1047 6 3 166 6 1441 482 3 4 5 132 765 533 6 15 144 464 910 1207 261 1463 868 946 248 176 3 1766 1004 5 213 21 1106 0 4 70 566 7742 638 410 123 3 1567 111 2046 207 255 272 1 1010 3 621 659 2 169 5 0 156 3 442 3 139 225 2 8 1508 7 359 357 917 248 1463 738 458 3 49 440 6 229 2 37 1093 1272 0 112 103 4 3 971 454 1 41 781 369 11074 557 149 141 102 4 220 247 223 10 157 7 607 1230 95 415 604 569 3 391 156 1610 2 262 459 2 5 332 221 188 5 464 396 6 214 1006 6 122 242 78 2 5 258 74 6 32 554 816 6 1212 147 978 526 447 257 5 655 47 155 1128 114 784 435 276 36 1182 366 497 194 1466 24 5 444 2 151 541 4 841 6 920 11 733 211 713 13 3 660 5 4 215 442 565 7 2 244 288 63 838 265 139 3 3 362 283 838 505 602 532 818 395 324 472 314 265 461 112 18 2 6 111 2 2189 207 810 272 161 155 16 55 200 7 634 2202 3 239 187 50 465 721 1 2 733 178 12 82 175 298 143 218 3011 481 3 114 213 3 74 686 254 8 769 73 155 592 3 4 214 851 376 553 599 313 860 256 329 75 192 223 521 110 230 405 76 109 6 504 428 69 3 7 3 9 138 454 2 0 275 264 225 1253 305 251 5 531 308 4 140 184 1017 352 542 1584 363 530 180 92 559 5 88 1056 4 2 44 11 695 340 4 229 7 214 897 95 1106 3 260 3 245 458 67 602 336 188 4 0 235 3 401 790 14 137 191 561 4 623 182 127 4 2 3 1164 801 1 361 309 790 263 4 5 709 214 1053 1 0 1479 2 144 1 8 392 396 666 626 241 255 112 463 858 3 1 5 84 230 930 271 231 299 286 512 651 9 24 996 483 1326 0 338 191 3 2 1461 304 179 172 5 378 1292 287 116 202 3 964 1 441 485 179 5 2 749 64 3 2 481 2 644 1106 3 2 1981 359 1194 3 1851 231 175 252 251 145 191 9 704 226 2 135 132 1 3 386 2 3 66 1193 195 62 221 9 451 14 492 3 4 964 261 3 3 512 115 916 168 6 131 1463 2 3 10 22 231 1269 4 3 392 1964 962 328 4 449 423 265 87 24 162 1108 5 87 443 425 213 50 341 349 641 726 7 100 278 2 216 322 116 501 268 118 1460 4 100 181 5 239 572 453 683 64 13 7 465 437 165 127 2 160 599 703 218 3 2 357 194 515 252 150 737 642 257 295 1 437 5 625 610 4 20 115 122 8 994 2 121 339 438 349 11 137 2 373 864 840 360 77 335 531 128 3 94 3 163 883 332 1474 384 561 51 83 3 1 133 444 474 409 274 3 114 315 6 10 149 177 424 120 2 520 260 25 5 3 113 284 156 3 112 158 3 514 3 341 570 16086 381 270 156 45 2 371 4 5 3 132 1 171 186 547 5 518 1072 63 4 2 123 512 3 3 294 70 12 383 353 4 431 4 205 600 6 27 3 4 370 1 644 99 3 7 75 258 411 429 628 272 219 1 1340 503 766 378 468 157 415 116 6 6 640 401 161 1 249 385 770 2 588 1790 1 218 604 3 234 245 398 5 332 3 293 122 444 133 15 87 386 2 85 2 693 141 5 338 171 3 103 560 4 11 18 129 22 3 115 304 412 105 2 184 96 3 2 3 2 187 3 243 205 5 287 2 299 137 224 738 169 4 474 3 205 423 168 192 571 7 227 5 10 349 4 911 237 486 1997 264 129 446 6 1012 219 494 546 127 331 594 3 60 6 478 677 305 429 641 781 468 520 343 3 165 502 7 6 4 275 4 3 386 4 317 171 1 122 1465 51 1628 179 123 4 661 351 4 5 372 157 418 242 6 126 135 742 641 66 329 1228 524 783 3 9 359 18 2 374 1 4 6 410 526 823 251 18 2 87 5 65 645 3 150 142 1286 445 225 282 84 3 534 2 415 3 6 340 231 257 231 8 212 2 5 421 18 1 152 529 13 12 3 604 290 163 2 4 127 872 512 5 475 3 240 933 47 538 1141 6 2 2 627 665 234 71 124 36 484 429 4 85 2646 1481 3 208 3128 876 804 347 36 177 10 218 502 193 105 67 58 612 100 333 9 3 223 1 599 310 5 10 307 498 4 238 4 13 7 681 151 2 6 5 874 153 360 416 2 4 2 407 185 456 1225 158 665 963 547 379 240 15 162 4 350 2 127 218 431 221 1235 607 209 254 1 1119 945 784 385 353 4 1216 453 125 3 337 390 1454 3 3 1221 11 281 743 1444 1027 1 3 1216 607 448 1153 283 972 1 161 8 871 2 163 380 4 19 4 540 79 4 265 8 4 367 228 739 44 2 627 98 169 14 3 3 57 568 253 549 441 805 412 305 2 153 2922 807 483 183 830 5 149 213 1 294 4 1199 8 1459 579 4 12 229 6 646 940 8 137 352 71 56 3 541 574 6 3 582 40 108 158 364 326 523 253 528 720 9 1087 22 195 272 686 137 80 12 4 230 451 4 5 386 488 668 350 213 138 2 3 4 86 94 439 4 375 275 869 4 570 147 4 274 475 248 494 724 366 231 5 476 12 250 210 211 7 234 262 136 800 619 193 213 4 37 389 3 525 315 2 133 160 126 3 4 395 170 0 370 5 274 120 4 249 1 1 80 5 262 1746 6 48 1232 3 2 372 4 1 186 665 291 147 183 63 2 11 863 243 3 4 11 2 1 710 110 145 234 4 338 155 233 5 3 6 626 293 162 417 297 15 260 6 2 113 147 3 453 2 6 451 302 221 3 380 11 2 522 171 471 97 373 440 5 3 94 20 374 1 1 5 277 294 983 3 1165 121 335 388 332 982 410 2 4 330 812 0 234 232 172 4 1648 296 344 1 487 1980 312 86 215 2 1061 3 398 3 240 228 10 68 6 86 539 4 337 806 4 1 1 4 2 672 2 320 405 52 2 324 3 6 65 1 394 110 303 300 523 772 410 198 62 388 4 168 752 4 1 75 13 200 881 61 638 442 473 2 314 153 1140 759 265 5 910 3 4 55 260 574 3 307 15 158 348 2 5 489 293 139 268 1 481 5129 296 66 726 4 791 330 4 305 891 224 929 477 282 269 8 262 262 12 5 3 1 11 3 1 1666 6 491 1 89 342 277 3 216 270 6 9 243 2 1 3 776 2 78 1462 658 3 141 156 1 198 917 9 258 587 2 415 888 3 821 326 55 1 1 205 782 2 164 351 270 4 148 447 252 537 216 800 497 4 1 125 176 199 728 280 300 1222 374 53 78 2 563 85 275 280 393 297 1304 463 708 886 513 744 905 119 449 3081 693 10 243 107 471 2 866 365 1035 69 213 387 808 444 486 486 5 2 2 832 1392 7 1111 39 240 4 142 518 476 107 159 1342 248 158 327 0 11 211 585 3 245 220 835 704 602 185 932 402 1246 6 570 1843 12 1499 2 2 1754 1337 2 230 287 148 1784 206 292 3 588 181 5 142 224 596 85 
To predecode: 0
Predecoding something: 0
Predecode request dropped: 0
sizeofblock_0 0
sizeofblock_1 212974
sizeofblock_2 210359
sizeofblock_3 0
sizeofblock_4 0
sizeofblock_5 0
sizeofblock_6 0
sizeofblock_7 0
sizeofblock_8 0
Variant_0 Correct: 1387743 Incorrect: 0 Accuracy: 1
Variant_1 Correct: 5419463 Incorrect: 0 Accuracy: 1
Variant_2 Correct: 0 Incorrect: 0 Accuracy: -nan
Variant_3 Correct: 0 Incorrect: 0 Accuracy: -nan
