
*** ChampSim Multicore Out-of-Order Simulator ***

Warmup Instructions: 50000000
Simulation Instructions: 50000000
Number of CPUs: 1
LLC sets: 2048
LLC ways: 16
Off-chip DRAM Size: 4096 MB Channels: 1 Width: 64-bit Data Rate: 6400 MT/s
CPU 0 runs ./micro_traces/srv82.trace.gz
.gz
ITLB has LRU replacement policy
DTLB has LRU replacement policy
STLB has LRU replacement policy
FDIP Prefetcher at L1I
L1I has LRU replacement policy
L1D has LRU replacement policy
Initialize SRRIP state for L2C
Initialize DRRIP state for LLC
Heartbeat_Variant_0 : 1069 0.260986 per_variant_size: 0 1069 0 0 0 0 0 0 0 
Heartbeat_Variant_1 : 2284 0.557617 per_variant_size: 0 457 1827 0 0 0 0 0 0 
Heartbeat_Variant_2 : 0 0 per_variant_size: 0 0 0 0 0 0 0 0 0 
Heartbeat_Variant_3 : 0 0 per_variant_size: 0 0 0 0 0 0 0 0 0 
Heartbeat_Variant_0_evicts 0 : 21814 1 : 18261 2 : 0 3 : 0 
Heartbeat_Variant_1_evicts 0 : 18327 1 : 0 2 : 0 3 : 0 
Heartbeat_Variant_2_evicts 0 : 0 1 : 0 2 : 0 3 : 0 
Heartbeat_Variant_3_evicts 0 : 0 1 : 0 2 : 0 3 : 0 
Heartbeat CPU 0 instructions: 10000000 cycles: 2797607 heartbeat IPC: 3.57448 cumulative IPC: 3.57448 (Simulation time: 0 hr 2 min 13 sec) 
Heartbeat_Variant_0 : 1096 0.267578 per_variant_size: 0 1096 0 0 0 0 0 0 0 
Heartbeat_Variant_1 : 2318 0.565918 per_variant_size: 0 420 1898 0 0 0 0 0 0 
Heartbeat_Variant_2 : 0 0 per_variant_size: 0 0 0 0 0 0 0 0 0 
Heartbeat_Variant_3 : 0 0 per_variant_size: 0 0 0 0 0 0 0 0 0 
Heartbeat_Variant_0_evicts 0 : 22017 1 : 18395 2 : 0 3 : 0 
Heartbeat_Variant_1_evicts 0 : 18385 1 : 0 2 : 0 3 : 0 
Heartbeat_Variant_2_evicts 0 : 0 1 : 0 2 : 0 3 : 0 
Heartbeat_Variant_3_evicts 0 : 0 1 : 0 2 : 0 3 : 0 
Heartbeat CPU 0 instructions: 20000002 cycles: 5594180 heartbeat IPC: 3.57581 cumulative IPC: 3.57514 (Simulation time: 0 hr 4 min 6 sec) 
Heartbeat_Variant_0 : 1079 0.263428 per_variant_size: 0 1079 0 0 0 0 0 0 0 
Heartbeat_Variant_1 : 2339 0.571045 per_variant_size: 0 428 1911 0 0 0 0 0 0 
Heartbeat_Variant_2 : 0 0 per_variant_size: 0 0 0 0 0 0 0 0 0 
Heartbeat_Variant_3 : 0 0 per_variant_size: 0 0 0 0 0 0 0 0 0 
Heartbeat_Variant_0_evicts 0 : 21908 1 : 18263 2 : 0 3 : 0 
Heartbeat_Variant_1_evicts 0 : 18280 1 : 0 2 : 0 3 : 0 
Heartbeat_Variant_2_evicts 0 : 0 1 : 0 2 : 0 3 : 0 
Heartbeat_Variant_3_evicts 0 : 0 1 : 0 2 : 0 3 : 0 
Heartbeat CPU 0 instructions: 30000002 cycles: 8390803 heartbeat IPC: 3.57574 cumulative IPC: 3.57534 (Simulation time: 0 hr 6 min 14 sec) 
Heartbeat_Variant_0 : 1096 0.267578 per_variant_size: 0 1096 0 0 0 0 0 0 0 
Heartbeat_Variant_1 : 2325 0.567627 per_variant_size: 0 427 1898 0 0 0 0 0 0 
Heartbeat_Variant_2 : 0 0 per_variant_size: 0 0 0 0 0 0 0 0 0 
Heartbeat_Variant_3 : 0 0 per_variant_size: 0 0 0 0 0 0 0 0 0 
Heartbeat_Variant_0_evicts 0 : 22155 1 : 18579 2 : 0 3 : 0 
Heartbeat_Variant_1_evicts 0 : 18562 1 : 0 2 : 0 3 : 0 
Heartbeat_Variant_2_evicts 0 : 0 1 : 0 2 : 0 3 : 0 
Heartbeat_Variant_3_evicts 0 : 0 1 : 0 2 : 0 3 : 0 
Heartbeat CPU 0 instructions: 40000000 cycles: 11187962 heartbeat IPC: 3.57506 cumulative IPC: 3.57527 (Simulation time: 0 hr 8 min 10 sec) 
Heartbeat_Variant_0 : 1108 0.270508 per_variant_size: 0 1108 0 0 0 0 0 0 0 
Heartbeat_Variant_1 : 2349 0.573486 per_variant_size: 0 419 1930 0 0 0 0 0 0 
Heartbeat_Variant_2 : 0 0 per_variant_size: 0 0 0 0 0 0 0 0 0 
Heartbeat_Variant_3 : 0 0 per_variant_size: 0 0 0 0 0 0 0 0 0 
Heartbeat_Variant_0_evicts 0 : 21341 1 : 17760 2 : 0 3 : 0 
Heartbeat_Variant_1_evicts 0 : 17754 1 : 0 2 : 0 3 : 0 
Heartbeat_Variant_2_evicts 0 : 0 1 : 0 2 : 0 3 : 0 
Heartbeat_Variant_3_evicts 0 : 0 1 : 0 2 : 0 3 : 0 
Heartbeat CPU 0 instructions: 50000000 cycles: 13984402 heartbeat IPC: 3.57598 cumulative IPC: 3.57541 (Simulation time: 0 hr 10 min 24 sec) 

Warmup complete CPU 0 instructions: 50000004 cycles: 13984403 (Simulation time: 0 hr 10 min 24 sec) 

Cycle: 20000000 FTQ IN: 56803187 FTQ occupancy: 18.1908 DECODE IN: 56803178 DECODE occupancy: 46.5837 ROB IN: 56803144 ROB occupancy: 281.014 ROB OUT: 56803061
Heartbeat_Variant_0 : 1105 0.269775 per_variant_size: 0 1105 0 0 0 0 0 0 0 
Heartbeat_Variant_1 : 2352 0.574219 per_variant_size: 0 434 1918 0 0 0 0 0 0 
Heartbeat_Variant_2 : 0 0 per_variant_size: 0 0 0 0 0 0 0 0 0 
Heartbeat_Variant_3 : 0 0 per_variant_size: 0 0 0 0 0 0 0 0 0 
Heartbeat_Variant_0_evicts 0 : 21792 1 : 18510 2 : 0 3 : 0 
Heartbeat_Variant_1_evicts 0 : 18513 1 : 0 2 : 0 3 : 0 
Heartbeat_Variant_2_evicts 0 : 0 1 : 0 2 : 0 3 : 0 
Heartbeat_Variant_3_evicts 0 : 0 1 : 0 2 : 0 3 : 0 
Heartbeat CPU 0 instructions: 60000003 cycles: 22788304 heartbeat IPC: 1.13586 cumulative IPC: 1.13586 (Simulation time: 0 hr 12 min 27 sec) 
Cycle: 30000000 FTQ IN: 11202008 FTQ occupancy: 7.2145 DECODE IN: 11201987 DECODE occupancy: 15.6405 ROB IN: 11202017 ROB occupancy: 123.777 ROB OUT: 11201976
Heartbeat_Variant_0 : 1099 0.268311 per_variant_size: 0 1099 0 0 0 0 0 0 0 
Heartbeat_Variant_1 : 2361 0.576416 per_variant_size: 0 439 1922 0 0 0 0 0 0 
Heartbeat_Variant_2 : 0 0 per_variant_size: 0 0 0 0 0 0 0 0 0 
Heartbeat_Variant_3 : 0 0 per_variant_size: 0 0 0 0 0 0 0 0 0 
Heartbeat_Variant_0_evicts 0 : 22017 1 : 18878 2 : 0 3 : 0 
Heartbeat_Variant_1_evicts 0 : 18884 1 : 0 2 : 0 3 : 0 
Heartbeat_Variant_2_evicts 0 : 0 1 : 0 2 : 0 3 : 0 
Heartbeat_Variant_3_evicts 0 : 0 1 : 0 2 : 0 3 : 0 
Heartbeat CPU 0 instructions: 70000000 cycles: 31755142 heartbeat IPC: 1.11522 cumulative IPC: 1.12545 (Simulation time: 0 hr 14 min 25 sec) 
Cycle: 40000000 FTQ IN: 11322488 FTQ occupancy: 7.06476 DECODE IN: 11322504 DECODE occupancy: 15.3821 ROB IN: 11322500 ROB occupancy: 123.978 ROB OUT: 11322594
Heartbeat_Variant_0 : 1090 0.266113 per_variant_size: 0 1090 0 0 0 0 0 0 0 
Heartbeat_Variant_1 : 2370 0.578613 per_variant_size: 0 431 1939 0 0 0 0 0 0 
Heartbeat_Variant_2 : 0 0 per_variant_size: 0 0 0 0 0 0 0 0 0 
Heartbeat_Variant_3 : 0 0 per_variant_size: 0 0 0 0 0 0 0 0 0 
Heartbeat_Variant_0_evicts 0 : 22076 1 : 18909 2 : 0 3 : 0 
Heartbeat_Variant_1_evicts 0 : 18918 1 : 0 2 : 0 3 : 0 
Heartbeat_Variant_2_evicts 0 : 0 1 : 0 2 : 0 3 : 0 
Heartbeat_Variant_3_evicts 0 : 0 1 : 0 2 : 0 3 : 0 
Heartbeat CPU 0 instructions: 80000000 cycles: 40593791 heartbeat IPC: 1.13139 cumulative IPC: 1.12742 (Simulation time: 0 hr 16 min 12 sec) 
Heartbeat_Variant_0 : 1092 0.266602 per_variant_size: 0 1092 0 0 0 0 0 0 0 
Heartbeat_Variant_1 : 2374 0.57959 per_variant_size: 0 439 1935 0 0 0 0 0 0 
Heartbeat_Variant_2 : 0 0 per_variant_size: 0 0 0 0 0 0 0 0 0 
Heartbeat_Variant_3 : 0 0 per_variant_size: 0 0 0 0 0 0 0 0 0 
Heartbeat_Variant_0_evicts 0 : 22064 1 : 19046 2 : 0 3 : 0 
Heartbeat_Variant_1_evicts 0 : 19044 1 : 0 2 : 0 3 : 0 
Heartbeat_Variant_2_evicts 0 : 0 1 : 0 2 : 0 3 : 0 
Heartbeat_Variant_3_evicts 0 : 0 1 : 0 2 : 0 3 : 0 
Heartbeat CPU 0 instructions: 90000000 cycles: 49584870 heartbeat IPC: 1.11221 cumulative IPC: 1.12358 (Simulation time: 0 hr 18 min 8 sec) 
Cycle: 50000000 FTQ IN: 11142129 FTQ occupancy: 7.19303 DECODE IN: 11142143 DECODE occupancy: 15.5817 ROB IN: 11142151 ROB occupancy: 122.783 ROB OUT: 11142152
Heartbeat_Variant_0 : 1103 0.269287 per_variant_size: 0 1103 0 0 0 0 0 0 0 
Heartbeat_Variant_1 : 2363 0.576904 per_variant_size: 0 434 1929 0 0 0 0 0 0 
Heartbeat_Variant_2 : 0 0 per_variant_size: 0 0 0 0 0 0 0 0 0 
Heartbeat_Variant_3 : 0 0 per_variant_size: 0 0 0 0 0 0 0 0 0 
Heartbeat_Variant_0_evicts 0 : 22145 1 : 18844 2 : 0 3 : 0 
Heartbeat_Variant_1_evicts 0 : 18833 1 : 0 2 : 0 3 : 0 
Heartbeat_Variant_2_evicts 0 : 0 1 : 0 2 : 0 3 : 0 
Heartbeat_Variant_3_evicts 0 : 0 1 : 0 2 : 0 3 : 0 
Heartbeat CPU 0 instructions: 100000000 cycles: 58422279 heartbeat IPC: 1.13155 cumulative IPC: 1.12517 (Simulation time: 0 hr 20 min 7 sec) 
Finished CPU 0 instructions: 50000003 cycles: 44437889 cumulative IPC: 1.12517 (Simulation time: 0 hr 20 min 7 sec) 

ChampSim completed all CPUs

Region of Interest Statistics

CPU 0 cumulative IPC: 1.12517 instructions: 50000003 cycles: 44437889
 Fetch stage stalled: 70.4137  Sim cycles: 44437889 fetch stall cycle: 31290370
 Empty decode stage: 58.3637  Sim cycles: 44437889 fetch stall cycle: 25935590
ITLB TOTAL     ACCESS:    5614649  HIT:    5124105  MISS:     490544  HIT %:    91.2631  MISS %:    8.73686   MPKI: 9.81088
ITLB LOAD TRANSLATION INSTRUCTION	ACCESS:    5508624  HIT:    5018080  MISS:     490544  HIT %:     91.095  MISS %:    8.90502  MPKI: 9.81088
ITLB TRANSLATION FROM L1D PREFETCHER INSTRUCTION	ACCESS:     106025  HIT:     106025  MISS:          0  HIT %:        100  MISS %:          0  MPKI: 0

ITLB AVERAGE MISS LATENCY: 9.04975 cycles
ITLB RQ	ACCESS:    7447301	FORWARD:          0	MERGED:    1339236	TO_CACHE:    6108065

DTLB TOTAL     ACCESS:    9312430  HIT:    8841989  MISS:     470441  HIT %:    94.9482  MISS %:    5.05175   MPKI: 9.40882
DTLB LOAD TRANSLATION DATA	ACCESS:    9312430  HIT:    8841989  MISS:     470441  HIT %:    94.9482  MISS %:    5.05175  MPKI: 9.40882

DTLB AVERAGE MISS LATENCY: 9.32008 cycles
DTLB RQ	ACCESS:   13591165	FORWARD:          0	MERGED:    4244760	TO_CACHE:    9346405

STLB TOTAL     ACCESS:    1210731  HIT:    1208685  MISS:       2046  HIT %:     99.831  MISS %:   0.168989   MPKI: 0.04092
STLB LOAD TRANSLATION INSTRUCTION	ACCESS:     490544  HIT:     490292  MISS:        252  HIT %:    99.9486  MISS %:  0.0513715  MPKI: 0.00504
STLB LOAD TRANSLATION DATA	ACCESS:     470284  HIT:     468511  MISS:       1773  HIT %:     99.623  MISS %:   0.377006  MPKI: 0.03546
STLB TRANSLATION FROM L1D PREFETCHER DATA	ACCESS:     249903  HIT:     249882  MISS:         21  HIT %:    99.9916  MISS %: 0.00840326  MPKI: 0.00042

STLB AVERAGE MISS LATENCY: 72.8069 cycles
STLB RQ	ACCESS:    1333107	FORWARD:          0	MERGED:     122324	TO_CACHE:    1210783

STLB Hit, L1D data hit: 0
STLB Hit, L2C data hit: 0
STLB Hit, LLC data hit: 0
STLB Hit, LLC data miss: 0
STLB STLB hints to L2: 0
L1D TOTAL     ACCESS:   13356518  HIT:   12252240  MISS:    1104278  HIT %:    91.7323  MISS %:    8.26771   MPKI: 22.0856
L1D LOAD DATA	ACCESS:    6796516  HIT:    6069896  MISS:     726620  HIT %:    89.3089  MISS %:    10.6911  MPKI: 14.5324
L1D RFO DATA	ACCESS:    6227425  HIT:    5943091  MISS:     284334  HIT %:    95.4342  MISS %:    4.56584  MPKI: 5.68668
L1D PREFETCH DATA	ACCESS:     332577  HIT:     239253  MISS:      93324  HIT %:    71.9391  MISS %:    28.0609  MPKI: 1.86648

L1D PREFETCH  REQUESTED:     744558  ISSUED:     744558  USEFUL:      32995  USELESS:      67939
L1D USEFUL LOAD PREFETCHES:      32995 PREFETCH ISSUED TO LOWER LEVEL:     100993  ACCURACY: 32.6706
 TIMELY PREFETCHES:      32995 LATE PREFETCHES: 7617 DROPPED PREFETCHES: 11
L1D AVERAGE MISS LATENCY: 251098 cycles
L1D RQ	ACCESS:   10884131	FORWARD:          0	MERGED:    3895500	TO_CACHE:    6828500
L1D WQ	ACCESS:    6936838	FORWARD:     160447	MERGED:     174173	TO_CACHE:    6762665
L1D PQ	ACCESS:     372437	FORWARD:          0	MERGED:          0	TO_CACHE:     372121

L1D UNIQUE REGIONS ACCESSED: 0
L1D REGIONS CONFLICTS: 0
L1D Cross Page Prefetch Requests: 7183
L1D Same Page Prefetch Requests: 750828
L1D ROI Sum of L1D PQ occupancy: 4727086
L1D PREFETCHES PUSHED FROM L2C: 0
L1I TOTAL     ACCESS:    6936611  HIT:    4188198  MISS:    2748413  HIT %:    60.3782  MISS %:    39.6218   MPKI: 54.9683
L1I LOAD INSTRUCTION	ACCESS:    6445729  HIT:    3697316  MISS:    2748413  HIT %:    57.3607  MISS %:    42.6393  MPKI: 54.9683
L1I PREFETCH INSTRUCTION	ACCESS:     490882  HIT:     490882  MISS:          0  HIT %:        100  MISS %:          0  MPKI: 0

L1I PREFETCH  REQUESTED:    1096693  ISSUED:    1096693  USEFUL:          0  USELESS:          0
L1I USEFUL LOAD PREFETCHES:          0 PREFETCH ISSUED TO LOWER LEVEL:          0  ACCURACY: -nan
 TIMELY PREFETCHES:          0 LATE PREFETCHES: 0 DROPPED PREFETCHES: 0
L1I AVERAGE MISS LATENCY: 17.8059 cycles
L1I RQ	ACCESS:    9453650	FORWARD:          0	MERGED:    2790035	TO_CACHE:    6663615
L1I PQ	ACCESS:    1096693	FORWARD:          0	MERGED:     313007	TO_CACHE:     783686

L1BTB TOTAL     ACCESS:    5672610  HIT:    2059745  MISS:    3612865  HIT %:    36.3104  MISS %:    63.6896   MPKI: 72.2573
L1BTB BRANCH_DIRECT_JUMP	ACCESS:     549908 HIT:     146851 MISS:     403057 AVERAGE STALL: 37.6085 AVERAGE FETCH STALL: 19.9343 AVERAGE FETCH QUEUE STALL: 9.02193 AVERAGE DECODE STALL: 7.85374 AVERAGE EXECUTE STALL: 3.8636e+14
L1BTB BRANCH_INDIRECT	ACCESS:     183773 HIT:      66658 MISS:     117115 AVERAGE STALL: 93.2839 AVERAGE FETCH STALL: 14.4565 AVERAGE FETCH QUEUE STALL: 10.2037 AVERAGE DECODE STALL: 7.74842 AVERAGE EXECUTE STALL: 59.9315
L1BTB BRANCH_CONDITIONAL	ACCESS:    2717903 HIT:    1429365 MISS:    1288538 AVERAGE STALL: 38.3856 AVERAGE FETCH STALL: 22.7747 AVERAGE FETCH QUEUE STALL: 7.75364 AVERAGE DECODE STALL: 7.10743 AVERAGE EXECUTE STALL: 1.65039e+14
L1BTB BRANCH_DIRECT_CALL	ACCESS:     939715 HIT:     105743 MISS:     833972 AVERAGE STALL: 39.6321 AVERAGE FETCH STALL: 22.202 AVERAGE FETCH QUEUE STALL: 8.81251 AVERAGE DECODE STALL: 7.85469 AVERAGE EXECUTE STALL: 1.07113e+14
L1BTB BRANCH_INDIRECT_CALL	ACCESS:     170793 HIT:      20999 MISS:     149794 AVERAGE STALL: 116.933 AVERAGE FETCH STALL: 19.5878 AVERAGE FETCH QUEUE STALL: 6.79978 AVERAGE DECODE STALL: 7.13278 AVERAGE EXECUTE STALL: 82.8833
L1BTB BRANCH_RETURN	ACCESS:    1110518 HIT:     290129 MISS:     820389 AVERAGE STALL: 38.8876 AVERAGE FETCH STALL: 19.5598 AVERAGE FETCH QUEUE STALL: 6.27702 AVERAGE DECODE STALL: 5.89521 AVERAGE EXECUTE STALL: 2.00395e+14
L1BTB BRANCH_OTHER ACCESS:          0 HIT:          0 MISS:          0 AVERAGE STALL: -nan AVERAGE FETCH STALL: -nan AVERAGE FETCH QUEUE STALL: -nan AVERAGE DECODE STALL: -nan AVERAGE EXECUTE STALL: -nan
L1BTB TOTAL ROB OCCUPANCY AT BTB MISS: 13.2491

L2BTB TOTAL     ACCESS:    3587351  HIT:    3125942  MISS:     461409  HIT %:    87.1379  MISS %:    12.8621   MPKI: 9.22818
L2BTB BRANCH_DIRECT_JUMP	ACCESS:     398818 HIT:     355299 MISS:      43519 AVERAGE STALL: 37.6085 AVERAGE FETCH STALL: 19.9343 AVERAGE FETCH QUEUE STALL: 9.02193 AVERAGE DECODE STALL: 7.85374 AVERAGE EXECUTE STALL: 3.8636e+14
L2BTB BRANCH_INDIRECT	ACCESS:     106880 HIT:      98115 MISS:       8765 AVERAGE STALL: 93.2839 AVERAGE FETCH STALL: 14.4565 AVERAGE FETCH QUEUE STALL: 10.2037 AVERAGE DECODE STALL: 7.74842 AVERAGE EXECUTE STALL: 59.9315
L2BTB BRANCH_CONDITIONAL	ACCESS:    1288538 HIT:    1176178 MISS:     112360 AVERAGE STALL: 38.3856 AVERAGE FETCH STALL: 22.7747 AVERAGE FETCH QUEUE STALL: 7.75364 AVERAGE DECODE STALL: 7.10743 AVERAGE EXECUTE STALL: 1.65039e+14
L2BTB BRANCH_DIRECT_CALL	ACCESS:     833972 HIT:     661720 MISS:     172252 AVERAGE STALL: 39.6321 AVERAGE FETCH STALL: 22.202 AVERAGE FETCH QUEUE STALL: 8.81251 AVERAGE DECODE STALL: 7.85469 AVERAGE EXECUTE STALL: 1.07113e+14
L2BTB BRANCH_INDIRECT_CALL	ACCESS:     140157 HIT:     106321 MISS:      33836 AVERAGE STALL: 116.933 AVERAGE FETCH STALL: 19.5878 AVERAGE FETCH QUEUE STALL: 6.79978 AVERAGE DECODE STALL: 7.13278 AVERAGE EXECUTE STALL: 82.8833
L2BTB BRANCH_RETURN	ACCESS:     818986 HIT:     728309 MISS:      90677 AVERAGE STALL: 38.8876 AVERAGE FETCH STALL: 19.5598 AVERAGE FETCH QUEUE STALL: 6.27702 AVERAGE DECODE STALL: 5.89521 AVERAGE EXECUTE STALL: 2.00395e+14
L2BTB BRANCH_OTHER ACCESS:          0 HIT:          0 MISS:          0 AVERAGE STALL: -nan AVERAGE FETCH STALL: -nan AVERAGE FETCH QUEUE STALL: -nan AVERAGE DECODE STALL: -nan AVERAGE EXECUTE STALL: -nan
L2BTB TOTAL ROB OCCUPANCY AT BTB MISS: 103.741

L2C TOTAL     ACCESS:    4459937  HIT:    3912661  MISS:     547276  HIT %:    87.7291  MISS %:    12.2709   MPKI: 10.9455
L2C LOAD INSTRUCTION	ACCESS:    2748412  HIT:    2439250  MISS:     309162  HIT %:    88.7512  MISS %:    11.2488  MPKI: 6.18324
L2C LOAD TRANSLATION INSTRUCTION	ACCESS:        282  HIT:         47  MISS:        235  HIT %:    16.6667  MISS %:    83.3333  MPKI: 0.0047
L2C LOAD DATA	ACCESS:     718953  HIT:     639237  MISS:      79716  HIT %:    88.9122  MISS %:    11.0878  MPKI: 1.59432
L2C RFO DATA	ACCESS:     284269  HIT:     222457  MISS:      61812  HIT %:    78.2558  MISS %:    21.7442  MPKI: 1.23624
L2C PREFETCH DATA	ACCESS:     189693  HIT:     113766  MISS:      75927  HIT %:    59.9737  MISS %:    40.0263  MPKI: 1.51854
L2C WRITEBACK DATA	ACCESS:     516436  HIT:     497361  MISS:      19075  HIT %:    96.3064  MISS %:    3.69358  MPKI: 0.3815
L2C LOAD TRANSLATION DATA	ACCESS:       1845  HIT:        516  MISS:       1329  HIT %:    27.9675  MISS %:    72.0325  MPKI: 0.02658
L2C TRANSLATION FROM L1D PREFETCHER DATA	ACCESS:         47  HIT:         27  MISS:         20  HIT %:    57.4468  MISS %:    42.5532  MPKI: 0.0004

L2C PREFETCH  REQUESTED:      95973  ISSUED:      95973  USEFUL:      10179  USELESS:      66195
L2C USEFUL LOAD PREFETCHES:      10179 PREFETCH ISSUED TO LOWER LEVEL:      76296  ACCURACY: 13.3415
 TIMELY PREFETCHES:      10179 LATE PREFETCHES: 369 DROPPED PREFETCHES: 0
L2C AVERAGE MISS LATENCY: 37.0723 cycles
L2C RQ	ACCESS:    3753871	FORWARD:          0	MERGED:          0	TO_CACHE:    3753808
L2C WQ	ACCESS:     516436	FORWARD:         63	MERGED:          0	TO_CACHE:     516436
L2C PQ	ACCESS:     196966	FORWARD:          0	MERGED:       3715	TO_CACHE:     193251

L2C Dense regions hint from L2: 0
PSCL5 TOTAL     ACCESS:       4116  HIT:       2058  MISS:       2058  HIT %:         50  MISS %:         50   MPKI: 0.04116
PSCL5 LOAD TRANSLATION INSTRUCTION	ACCESS:       4022  HIT:       2011  MISS:       2011  HIT %:         50  MISS %:         50  MPKI: 0.04022
PSCL5 TRANSLATION FROM L1D PREFETCHER INSTRUCTION	ACCESS:         94  HIT:         47  MISS:         47  HIT %:         50  MISS %:         50  MPKI: 0.00094


PSCL4 TOTAL     ACCESS:       3508  HIT:       1749  MISS:       1759  HIT %:    49.8575  MISS %:    50.1425   MPKI: 0.03518
PSCL4 LOAD TRANSLATION INSTRUCTION	ACCESS:       1757  HIT:       1709  MISS:         48  HIT %:    97.2681  MISS %:    2.73193  MPKI: 0.00096
PSCL4 TRANSLATION FROM L1D PREFETCHER INSTRUCTION	ACCESS:         40  HIT:         40  MISS:          0  HIT %:        100  MISS %:          0  MPKI: 0
PSCL4 LOAD TRANSLATION DATA	ACCESS:       1671  HIT:          0  MISS:       1671  HIT %:          0  MISS %:        100  MPKI: 0.03342
PSCL4 TRANSLATION FROM L1D PREFETCHER DATA	ACCESS:         40  HIT:          0  MISS:         40  HIT %:          0  MISS %:        100  MPKI: 0.0008


PSCL3 TOTAL     ACCESS:       3552  HIT:       1771  MISS:       1781  HIT %:    49.8592  MISS %:    50.1408   MPKI: 0.03562
PSCL3 LOAD TRANSLATION INSTRUCTION	ACCESS:       1779  HIT:       1731  MISS:         48  HIT %:    97.3019  MISS %:    2.69815  MPKI: 0.00096
PSCL3 TRANSLATION FROM L1D PREFETCHER INSTRUCTION	ACCESS:         40  HIT:         40  MISS:          0  HIT %:        100  MISS %:          0  MPKI: 0
PSCL3 LOAD TRANSLATION DATA	ACCESS:       1693  HIT:          0  MISS:       1693  HIT %:          0  MISS %:        100  MPKI: 0.03386
PSCL3 TRANSLATION FROM L1D PREFETCHER DATA	ACCESS:         40  HIT:          0  MISS:         40  HIT %:          0  MISS %:        100  MPKI: 0.0008


PSCL2 TOTAL     ACCESS:       4020  HIT:       1962  MISS:       2058  HIT %:     48.806  MISS %:     51.194   MPKI: 0.04116
PSCL2 LOAD TRANSLATION INSTRUCTION	ACCESS:       2166  HIT:       1915  MISS:        251  HIT %:    88.4118  MISS %:    11.5882  MPKI: 0.00502
PSCL2 TRANSLATION FROM L1D PREFETCHER INSTRUCTION	ACCESS:         47  HIT:         47  MISS:          0  HIT %:        100  MISS %:          0  MPKI: 0
PSCL2 LOAD TRANSLATION DATA	ACCESS:       1760  HIT:          0  MISS:       1760  HIT %:          0  MISS %:        100  MPKI: 0.0352
PSCL2 TRANSLATION FROM L1D PREFETCHER DATA	ACCESS:         47  HIT:          0  MISS:         47  HIT %:          0  MISS %:        100  MPKI: 0.00094


LLC TOTAL     ACCESS:     615849  HIT:     587760  MISS:      28089  HIT %:     95.439  MISS %:    4.56102   MPKI: 0.56178
LLC LOAD INSTRUCTION	ACCESS:     309162  HIT:     308359  MISS:        803  HIT %:    99.7403  MISS %:   0.259734  MPKI: 0.01606
LLC LOAD TRANSLATION INSTRUCTION	ACCESS:        235  HIT:        204  MISS:         31  HIT %:    86.8085  MISS %:    13.1915  MPKI: 0.00062
LLC LOAD DATA	ACCESS:      79350  HIT:      75997  MISS:       3353  HIT %:    95.7744  MISS %:    4.22558  MPKI: 0.06706
LLC RFO DATA	ACCESS:      61803  HIT:      48174  MISS:      13629  HIT %:    77.9477  MISS %:    22.0523  MPKI: 0.27258
LLC PREFETCH DATA	ACCESS:      76296  HIT:      66414  MISS:       9882  HIT %:    87.0478  MISS %:    12.9522  MPKI: 0.19764
LLC WRITEBACK DATA	ACCESS:      87654  HIT:      87353  MISS:        301  HIT %:    99.6566  MISS %:   0.343396  MPKI: 0.00602
LLC LOAD TRANSLATION DATA	ACCESS:       1329  HIT:       1240  MISS:         89  HIT %:    93.3032  MISS %:    6.69676  MPKI: 0.00178
LLC TRANSLATION FROM L1D PREFETCHER DATA	ACCESS:         20  HIT:         19  MISS:          1  HIT %:         95  MISS %:          5  MPKI: 2e-05

LLC AVERAGE MISS LATENCY: 156.773 cycles
LLC RQ	ACCESS:     451905	FORWARD:          0	MERGED:          0	TO_CACHE:     451899
LLC WQ	ACCESS:      87654	FORWARD:          6	MERGED:          0	TO_CACHE:      87654
LLC PQ	ACCESS:      76296	FORWARD:          0	MERGED:          0	TO_CACHE:      76296

LLC Dense regions hint to LLC: 0

RAW hits: 1750750
Loads Generated: 12634883
Loads sent to L1D: 10884131
Stores Generated: 6936813
Stores sent to L1D: 6936838
Major fault: 0 Minor fault: 2579
Allocated PAGES: 2579

stream: 
stream:times selected: 1191949
stream:pref_filled: 121192
stream:pref_useful: 23488
stream:pref_late: 6554
stream:misses: 8356
stream:misses_by_poll: 0

CS: 
CS:times selected: 177251
CS:pref_filled: 60196
CS:pref_useful: 36875
CS:pref_late: 6903
CS:misses: 15913
CS:misses_by_poll: 3

CPLX: 
CPLX:times selected: 1013521
CPLX:pref_filled: 19110
CPLX:pref_useful: 4384
CPLX:pref_late: 2999
CPLX:misses: 91956
CPLX:misses_by_poll: 3

NL_L1: 
NL:times selected: 21575
NL:pref_filled: 625
NL:pref_useful: 253
NL:pref_late: 386
NL:misses: 1760
NL:misses_by_poll: 0

total selections: 2404296
total_filled: 93324
total_useful: 32995
total_late: 18208
total_polluted: 6
total_misses_after_warmup: 758602
conflicts: 5626043

test: 119773

DRAM Statistics
 CHANNEL 0
 RQ ROW_BUFFER_HIT:      10212  ROW_BUFFER_MISS:      17560
 DBUS_CONGESTED:         13
 WQ ROW_BUFFER_HIT:       1405  ROW_BUFFER_MISS:      12339  FULL:          0

 AVG_CONGESTED_CYCLE: 5

CPU 0 Branch Prediction Accuracy: 99.8211% MPKI: 0.32714 Average ROB Occupancy at Mispredict: 139.487
Branch types
NOT_BRANCH: 40856049 81.7121%
BRANCH_DIRECT_JUMP: 549908 1.09982%
BRANCH_INDIRECT: 183773 0.367546%
BRANCH_CONDITIONAL: 6188804 12.3776%
BRANCH_DIRECT_CALL: 939715 1.87943%
BRANCH_INDIRECT_CALL: 170793 0.341586%
BRANCH_RETURN: 1110518 2.22104%
BRANCH_OTHER: 0 0%

DRAM PAGES: 1048576
Allocated PAGES: 2579
Average_ROB_Occupancy: 124.706
Average_Decode_Occupancy: 15.4728
Average_FTQ_Occupancy: 7.11698
Indirect max targets: 14 Average targets: 1.15017
Branch_type:  BRANCH_DIRECT_JUMP:  Count Percentage: 3.32786 6.69666 3.79685 7.96304 2.23298 6.01588 1.27011 68.6966 
Branch_type:  BRANCH_INDIRECT:  Count Percentage: 6.17441 3.43917 8.16997 9.6987 3.33358 2.79908 3.06183 63.3233 
Branch_type:  BRANCH_CONDITIONAL:  Count Percentage: 21.9558 2.44348 1.50196 4.35999 1.6661 3.6369 1.04507 63.3907 
Branch_type:  BRANCH_DIRECT_CALL:  Count Percentage: 0.38978 1.25354 0.766385 4.06738 2.11736 2.88518 1.06814 87.4522 
Branch_type:  BRANCH_INDIRECT_CALL:  Count Percentage: 9.52462 0 2.98531 0 0 2.42421 3.27608 81.7898 
Branch_type:  BRANCH_RETURN:  Count Percentage: 3.72964 1.37935 1.03977 4.73935 4.4031 3.8833 1.45137 79.3741 
Branch_type:  BRANCH_DIRECT_JUMP:  Total Count: 36501 73451 41645 87341 24492 65984 13931 753485 
Branch_type:  BRANCH_INDIRECT:  Total Count: 22630 12605 29944 35547 12218 10259 11222 232088 
Branch_type:  BRANCH_CONDITIONAL:  Total Count: 2714179 302063 185672 538982 205963 449594 129191 7836359 
Branch_type:  BRANCH_DIRECT_CALL:  Total Count: 7337 23596 14426 76562 39856 54309 20106 1646151 
Branch_type:  BRANCH_INDIRECT_CALL:  Total Count: 32626 0 10226 0 0 8304 11222 280166 
Branch_type:  BRANCH_RETURN:  Total Count: 83010 30700 23142 105483 97999 86430 32303 1766617 
Number of unique branch instructions: 9828
Upper 32 bits: 
aaaa
ffff
ffff0000
Unique upper 32 bits: 3
Unique upper 36 bits: 3
Unique upper 40 bits: 5
Unique upper 44 bits: 32
Unique upper 48 bits: 153
Variant_0 : 1103 0.269287
Variant_1 : 2363 0.576904
Variant_2 : 0 0
Variant_3 : 0 0
Offset_3 4041
Offset_4 242
Offset_5 448
Offset_6 499
Offset_7 578
Offset_8 507
Offset_9 464
Offset_10 377
Offset_11 313
Offset_12 283
Offset_13 199
Offset_14 228
Offset_15 189
Offset_16 219
Offset_17 142
Offset_18 126
Offset_19 235
Offset_20 139
Offset_21 235
Offset_22 389
Offset_23 241
Offset_24 324
Offset_25 88
Offset_47 80
Offset_64 2
decode_dispatch_called: 19989314 44.9826
Dispatch_width: 0 9933135 49.6922 22.3529
Dispatch_width: 1 548888 2.74591 1.23518
Dispatch_width: 2 647582 3.23964 1.45727
Dispatch_width: 3 409933 2.05076 0.922485
Dispatch_width: 4 1739638 8.70284 3.91476
Dispatch_width: 5 293510 1.46833 0.660495
Dispatch_width: 6 6416628 32.1003 14.4395
Empty_decode_cycles: 24448575 55.0174
ROB_full_cycles: 2507253 5.64215
Starvation_cycles_per_kilo_instr: 355.14
Starvation_cycles_per_kilo_instr_3: 334.809
Starvation_cycles_per_kilo_instr_0: 318.745
Branch_type_1  (3,1)  (4,7)  (5,36)  (6,69)  (7,114)  (8,127)  (9,123)  (10,98)  (11,70)  (12,51)  (13,5)  (14,2)  (15,3)  (16,4)  (18,1)  (19,4)  (20,2)  (21,1)  (22,3)  (23,2)  (24,10)  (25,12) 
Branch_type_2  (3,1)  (5,1)  (8,3)  (9,3)  (12,1)  (13,1)  (14,1)  (16,3)  (17,2)  (20,2)  (21,2)  (23,5)  (24,1)  (47,36) 
Branch_type_3  (3,4039)  (4,235)  (5,407)  (6,414)  (7,433)  (8,317)  (9,255)  (10,152)  (11,128)  (12,58)  (13,4)  (64,2) 
Branch_type_4  (6,4)  (7,8)  (8,26)  (9,51)  (10,60)  (11,59)  (12,95)  (13,86)  (14,101)  (15,89)  (16,98)  (17,63)  (18,57)  (19,114)  (20,72)  (21,124)  (22,207)  (23,136)  (24,186)  (25,72) 
Branch_type_5  (8,2)  (9,1)  (10,3)  (11,5)  (12,3)  (13,14)  (14,16)  (15,11)  (16,20)  (17,11)  (18,16)  (19,12)  (20,10)  (21,13)  (22,42)  (23,26)  (24,36) 
Branch_type_6  (5,4)  (6,12)  (7,23)  (8,32)  (9,31)  (10,64)  (11,51)  (12,75)  (13,89)  (14,108)  (15,86)  (16,94)  (17,66)  (18,52)  (19,105)  (20,53)  (21,95)  (22,137)  (23,72)  (24,91)  (25,4)  (47,44) 
Unique trigger count: 
Variant_0_evicts_0 : 0
Variant_0_evicts_1 : 0
Variant_0_evicts_2 : 0
Variant_0_evicts_3 : 0
Variant_1_evicts_0 : 0
Variant_1_evicts_1 : 0
Variant_1_evicts_2 : 0
Variant_1_evicts_3 : 0
Variant_2_evicts_0 : 0
Variant_2_evicts_1 : 0
Variant_2_evicts_2 : 0
Variant_2_evicts_3 : 0
Variant_3_evicts_0 : 0
Variant_3_evicts_1 : 0
Variant_3_evicts_2 : 0
Variant_3_evicts_3 : 0
BTB PER SET UNIQUE ADDR: 4 7 6 4 3 3 7 9 10 2 5 2 8 5 4 4 6 4 8 8 5 8 6 8 8 11 1 7 6 5 9 10 6 4 7 4 4 6 6 3 7 5 5 10 9 6 5 11 11 6 5 3 13 2 2 7 5 5 8 8 4 10 4 8 5 10 7 7 5 7 6 2 6 4 6 7 6 14 6 4 8 7 7 6 7 8 7 8 8 11 10 8 9 6 7 4 11 7 4 5 8 5 9 9 5 8 6 8 7 5 6 4 4 8 5 11 3 8 6 2 7 8 4 2 6 4 4 6 10 7 10 3 11 5 8 5 5 2 6 7 8 7 6 7 3 10 3 8 10 6 7 11 6 10 4 8 6 8 7 10 9 6 10 5 10 5 3 4 12 5 4 3 7 6 3 2 5 6 9 4 6 5 8 6 6 11 5 5 6 8 5 8 6 6 6 10 10 3 9 6 4 6 8 3 8 4 5 7 6 2 3 6 9 9 6 6 4 9 7 6 6 2 6 6 6 8 12 7 2 9 13 8 4 2 6 8 9 6 3 4 4 3 9 7 14 10 1 5 5 5 9 10 6 6 5 11 4 6 9 5 8 5 7 4 9 14 5 4 7 5 7 6 4 8 10 7 6 3 4 8 7 4 9 5 9 9 6 7 8 4 5 7 4 11 6 3 5 10 5 6 6 6 4 4 7 4 6 4 10 9 5 3 8 3 6 4 9 13 6 2 6 11 5 8 5 5 5 9 3 0 7 2 5 7 9 5 7 8 7 1 6 6 2 8 6 6 3 8 9 4 4 10 9 6 8 7 7 2 7 5 6 10 6 8 10 8 4 3 4 5 7 4 7 5 7 4 11 6 5 10 10 7 7 13 6 4 8 5 5 3 9 6 8 4 7 4 5 6 2 8 6 4 6 6 5 6 7 4 4 3 4 4 9 4 2 5 8 4 2 6 2 5 5 7 10 6 4 2 4 8 3 4 14 5 8 10 6 6 6 4 4 6 8 3 6 8 4 6 5 4 6 3 4 1 9 3 4 7 9 5 5 4 6 11 6 5 11 4 6 7 2 6 8 8 5 3 9 5 2 3 5 2 3 4 3 7 8 3 6 2 10 4 5 8 2 10 4 7 5 4 11 3 4 4 2 5 5 3 2 6 8 3 5 9 3 3 2 10 5 8 6 4 7 4 11 8 4 8 9 7 4 6 4 8 5 6 4 1 6 4 4 8 9 3 8 5 9 13 12 11 5 8 7 7 2 6 8 3 5 3 10 4 8 4 5 5 9 8 9 7 7 4 9 11 6 7 7 11 3 9 12 5 1 6 4 3 3 13 7 5 7 7 3 5 4 5 6 5 4 4 8 5 9 9 7 5 4 9 8 5 8 6 6 6 8 4 7 5 5 7 7 6 9 4 5 9 7 8 4 6 8 7 6 6 7 5 5 4 5 3 10 8 4 5 2 3 6 7 8 6 8 4 10 3 5 2 10 5 6 8 11 3 6 11 7 7 7 5 5 9 7 6 6 6 11 8 6 6 8 6 7 10 8 6 8 8 6 8 7 6 3 7 3 4 4 6 10 7 7 6 3 10 4 5 6 9 4 4 5 5 7 7 6 6 5 7 10 6 1 8 4 3 5 3 4 1 4 9 2 11 7 10 7 3 6 7 6 3 6 4 4 8 5 10 4 3 5 3 5 6 6 3 5 6 2 5 4 10 9 4 4 6 6 7 7 6 14 6 6 3 10 7 0 5 7 5 6 10 3 3 7 5 4 6 10 9 9 6 3 8 3 9 4 6 6 12 11 4 5 5 12 4 8 3 8 6 7 9 4 5 3 5 6 3 4 7 1 5 5 10 6 4 9 4 5 4 5 3 7 6 7 3 7 4 10 5 4 4 6 4 5 4 5 5 4 7 8 5 5 4 8 7 6 8 5 9 7 4 7 5 6 7 4 4 12 5 5 8 9 8 4 6 6 9 7 2 2 5 7 4 3 6 5 6 9 5 7 4 4 8 8 4 4 6 5 3 8 10 4 3 12 7 4 5 9 6 5 11 6 7 9 6 4 3 2 7 5 3 7 6 8 6 9 6 8 8 6 4 5 10 5 4 10 10 5 8 10 10 2 9 8 8 4 4 6 7 9 7 7 3 9 1 13 8 3 6 9 11 6 9 5 7 10 5 3 8 10 8 8 4 2 6 3 9 11 6 7 5 4 7 11 6 4 6 5 6 4 3 8 6 8 7 7 11 5 9 7 11 5 6 3 4 6 4 6 6 7 4 5 5 8 3 9 6 10 4 9 4 3 6 10 6 13 5 
BTB PER SET COUNT: 4 7 6 4 3 3 7 2011 5356 4 5 2 1514 5 4 5 8 4 53 3460 6 8 8 98 4848 2698 1 8 1466 5 3969 1411 1504 4 8 8 2923 6 6 3 27 5 7 2783 3010 7 5 4678 4111 7 5 3 10194 2 2 1503 5 5 1009 1772 4 3017 6 37 5 1276 435 22 5 752 747 2 6 4 6 9 507 6910 12 4 954 8 998 6 1007 10 7 41 8087 2173 1787 483 3008 6 7 6 2256 7 4 5 16 5 18 3227 5 16 6 2010 2007 5 2001 6 4 1030 5 4579 3 8 6 2 7 28 4 2 510 4 4 6 7222 11 2047 3 8657 6 3001 5 5 2 6 1994 16 11 6 7 3 834 3 8 1284 2500 7 6404 6 9979 4 820 6 2011 8 1435 4770 7 3354 5 1028 2883 3 4 7308 5 4 3 11 105 4 2 5 506 2168 4 6 5 5387 6 6 6820 5 5 2883 22 5 2758 6 6 6 28 978 3 25 6 4 7 9 4 14 4 5 3936 6 4 4 8 138 17 6 6 4 262 8 6 6 2 6 6 6 1995 5656 3244 2 3630 7719 953 4 2 14 2499 2005 6 3 4 4 3 6385 7 7341 2634 1 5 5 5 21 4061 6 6 5 2952 4 6 2301 5 2206 5 7 4 2206 6923 964 4 2012 5 1877 6 4 2002 1026 749 6 3 4 2508 9 4 1255 6 2886 3506 6 502 23 4 5 7 504 2520 3002 11 5 3853 5 6 6 7 4 4 8 4 6 4 4337 1627 5 3 2163 3 6 5 1013 3930 2008 2 6 1367 5 14 5 5 5 1186 4 0 2245 2 5 8 5385 5 1509 12 7 1 6 6 2 2443 1007 826 3 13 253 4 4 859 13 965 8 11 11 3 2137 49 6 1090 6 1887 997 646 6 3 4 6 7 4 15 5 22 4 5938 6 5 2148 2510 2500 7 6587 8 4 40 5 7 3 1500 6 2500 6 7 6 1466 14 3 9 6 4 1502 6 727 8 2928 5 4 2762 4 5 1486 6 1459 5 142 4 3 1438 2 5 5 12 1025 7 6 2 4 606 130 4 6627 5 1640 2170 6 6 6 4 5 6 1413 3 8 22 4 1962 5 4 6 4 5 1 1689 4 4 13 553 5 1004 4 14 578 28 5 3511 4 6 7 2 22 1954 510 257 3 25514 5 2 3 5 2 3 504 4 136 1774 397 6 2 1111 4 5 1232 2 5798 4 26 5 5 3738 15 4 5 2 5 5 3 2 6 22 3 5 24 3 3 2 11216 5 1259 6 1464 9 435 153 2001 4 1006 1692 18 4 6 4 18 5 1008 6 1 8 4 4 2005 31 6 13 6 56 2393 3148 7993 5 3876 10 9 2 6 969 3 5 3 5198 6 2006 4 5 6 1023 26 2006 42 2124 4 2539 5451 1502 1506 10 5419 3 4529 10029 51 1 1502 1466 3 3 6600 17 5 7 2504 3 964 1921 5 6 5 4 4 1723 6 4747 1182 10 3000 4 3004 12 5 3004 8 6 6 8 4 2542 7 5 7 7 1415 4499 4 1793 1014 31 2008 11 1502 1507 1467 6 10 7 5 5 4 5 3 7318 752 4 5 2 3 7 7 1083 6 12 4 8273 3 5 2 1934 5 1506 3005 12799 3 6 6385 7 1506 2940 1006 25 2010 1009 8 6 8 6864 3121 508 6 2479 6 7 6530 23 1007 17534 1227 21 4460 1474 6 4 1259 3 4 4 6 6845 7 7 77 3 3098 4 5 267 4247 4 1465 5 1465 180 9 8 8 1006 7 1644 1175 1 2005 4 3 5 3 4 1 4 1055 2 6422 1503 4045 966 3 8 7 6 3 6 4 4 521 5 8258 4 3 1005 3 5 1005 6 3 5 551 2 5 4 4300 6261 963 4 6 966 15 2855 6 9248 7 10 3 275 9 0 160 9 1467 6 2695 3 3 2503 5 4 6 2017 1811 1129 14 435 1006 4 1839 4 6 245 7039 3135 4 5 5 4526 5 1733 5 2023 2426 10 22 4 7 3 5 6 463 4 9 2 5 7 3556 6 4 508 397 5 10 964 4 1502 86 748 3 790 4 7831 6 4 4 6 4 337 4 5 1467 4 13 1029 5 5 4 3505 1548 7 10 5 9427 37 4 1509 12 6 7 4 4 8799 998 5 2022 3505 8 4 6 6 1437 7 2 3 5 9 4 3 6 7 6 3098 12 1509 4 4 9 12 4 4 6 5 3 22 4002 4 3 5207 1879 148 36 778 6 5 3454 6 7 1985 6 4 3 2 7 5 1004 4999 1755 39 6 2015 6 1043 1621 7 4 5 1061 6 504 3995 1963 5 1010 4906 2943 3 3503 473 8 4 964 6 1506 16 261 7 3 3743 1 7074 12 3 6 2075 8347 14 3503 5 509 7346 6 5 979 154 530 977 7 2 6 3 391 2553 6 966 5 4 7 2768 7 505 7 5 8 4 3 12 7 3547 10 2504 3053 5 1528 9 5504 10 8 3 4 11 4 11 7 1010 4 5 5 3013 3 7229 391 3014 6 1062 6 3 6 1531 6 3715 8 
To predecode: 0
Predecoding something: 0
Predecode request dropped: 0
sizeofblock_0 0
sizeofblock_1 221761
sizeofblock_2 348304
sizeofblock_3 0
sizeofblock_4 0
sizeofblock_5 0
sizeofblock_6 0
sizeofblock_7 0
sizeofblock_8 0
Variant_0 Correct: 0 Incorrect: 0 Accuracy: -nan
Variant_1 Correct: 0 Incorrect: 0 Accuracy: -nan
Variant_2 Correct: 0 Incorrect: 0 Accuracy: -nan
Variant_3 Correct: 0 Incorrect: 0 Accuracy: -nan
