
*** ChampSim Multicore Out-of-Order Simulator ***

Warmup Instructions: 50000000
Simulation Instructions: 50000000
Number of CPUs: 1
LLC sets: 2048
LLC ways: 16
Off-chip DRAM Size: 4096 MB Channels: 1 Width: 64-bit Data Rate: 6400 MT/s
CPU 0 runs ./micro_traces/srv82.trace.gz
.gz
ITLB has LRU replacement policy
DTLB has LRU replacement policy
STLB has LRU replacement policy
FDIP Prefetcher at L1I
L1I has LRU replacement policy
L1D has LRU replacement policy
Initialize SRRIP state for L2C
Initialize DRRIP state for LLC
Heartbeat CPU 0 instructions: 10000000 cycles: 2797607 heartbeat IPC: 3.57448 cumulative IPC: 3.57448 (Simulation time: 0 hr 2 min 28 sec) 
Heartbeat CPU 0 instructions: 20000002 cycles: 5594180 heartbeat IPC: 3.57581 cumulative IPC: 3.57514 (Simulation time: 0 hr 4 min 19 sec) 
Heartbeat CPU 0 instructions: 30000002 cycles: 8390803 heartbeat IPC: 3.57574 cumulative IPC: 3.57534 (Simulation time: 0 hr 6 min 8 sec) 
Heartbeat CPU 0 instructions: 40000000 cycles: 11187962 heartbeat IPC: 3.57506 cumulative IPC: 3.57527 (Simulation time: 0 hr 8 min 5 sec) 
Heartbeat CPU 0 instructions: 50000000 cycles: 13984402 heartbeat IPC: 3.57598 cumulative IPC: 3.57541 (Simulation time: 0 hr 9 min 54 sec) 

Warmup complete CPU 0 instructions: 50000004 cycles: 13984403 (Simulation time: 0 hr 9 min 54 sec) 

Cycle: 20000000 FTQ IN: 58565032 FTQ occupancy: 21.4803 DECODE IN: 58564879 DECODE occupancy: 55.1558 ROB IN: 58564833 ROB occupancy: 323.661 ROB OUT: 58564666
Heartbeat CPU 0 instructions: 60000000 cycles: 20997244 heartbeat IPC: 1.42596 cumulative IPC: 1.42596 (Simulation time: 0 hr 12 min 23 sec) 
Heartbeat CPU 0 instructions: 70000000 cycles: 28070909 heartbeat IPC: 1.41369 cumulative IPC: 1.4198 (Simulation time: 0 hr 14 min 42 sec) 
Cycle: 30000000 FTQ IN: 14199782 FTQ occupancy: 17.9354 DECODE IN: 14199838 DECODE occupancy: 43.4714 ROB IN: 14199824 ROB occupancy: 265.113 ROB OUT: 14199639
Heartbeat CPU 0 instructions: 80000000 cycles: 35041543 heartbeat IPC: 1.43459 cumulative IPC: 1.42469 (Simulation time: 0 hr 17 min 0 sec) 
Cycle: 40000000 FTQ IN: 14222865 FTQ occupancy: 18.1476 DECODE IN: 14222836 DECODE occupancy: 44.0524 ROB IN: 14222836 ROB occupancy: 268.98 ROB OUT: 14222840
Heartbeat CPU 0 instructions: 90000000 cycles: 42112374 heartbeat IPC: 1.41426 cumulative IPC: 1.42207 (Simulation time: 0 hr 19 min 42 sec) 
Heartbeat CPU 0 instructions: 100000000 cycles: 49081213 heartbeat IPC: 1.43496 cumulative IPC: 1.42463 (Simulation time: 0 hr 24 min 25 sec) 
Finished CPU 0 instructions: 50000003 cycles: 35096816 cumulative IPC: 1.42463 (Simulation time: 0 hr 24 min 25 sec) 

ChampSim completed all CPUs

Region of Interest Statistics

CPU 0 cumulative IPC: 1.42463 instructions: 50000003 cycles: 35096816
 Fetch stage stalled: 23.7955  Sim cycles: 35096816 fetch stall cycle: 8351468
 Empty decode stage: 13.3383  Sim cycles: 35096816 fetch stall cycle: 4681328
ITLB TOTAL     ACCESS:    5946923  HIT:    5457095  MISS:     489828  HIT %:    91.7633  MISS %:    8.23666   MPKI: 9.79656
ITLB LOAD TRANSLATION INSTRUCTION	ACCESS:    5793883  HIT:    5304055  MISS:     489828  HIT %:    91.5458  MISS %:    8.45423  MPKI: 9.79656
ITLB TRANSLATION FROM L1D PREFETCHER INSTRUCTION	ACCESS:     153040  HIT:     153040  MISS:          0  HIT %:        100  MISS %:          0  MPKI: 0

ITLB AVERAGE MISS LATENCY: 9.05888 cycles
ITLB RQ	ACCESS:    7925263	FORWARD:          0	MERGED:    1442057	TO_CACHE:    6483206

DTLB TOTAL     ACCESS:    8940687  HIT:    8471045  MISS:     469642  HIT %:    94.7471  MISS %:    5.25286   MPKI: 9.39284
DTLB LOAD TRANSLATION DATA	ACCESS:    8940687  HIT:    8471045  MISS:     469642  HIT %:    94.7471  MISS %:    5.25286  MPKI: 9.39284

DTLB AVERAGE MISS LATENCY: 9.32415 cycles
DTLB RQ	ACCESS:   13313399	FORWARD:          0	MERGED:    4335420	TO_CACHE:    8977979

STLB TOTAL     ACCESS:    1210626  HIT:    1208582  MISS:       2044  HIT %:    99.8312  MISS %:   0.168838   MPKI: 0.04088
STLB LOAD TRANSLATION INSTRUCTION	ACCESS:     489828  HIT:     489577  MISS:        251  HIT %:    99.9488  MISS %:  0.0512425  MPKI: 0.00502
STLB LOAD TRANSLATION DATA	ACCESS:     469642  HIT:     467869  MISS:       1773  HIT %:    99.6225  MISS %:   0.377522  MPKI: 0.03546
STLB TRANSLATION FROM L1D PREFETCHER DATA	ACCESS:     251156  HIT:     251136  MISS:         20  HIT %:     99.992  MISS %: 0.00796318  MPKI: 0.0004

STLB AVERAGE MISS LATENCY: 73.3028 cycles
STLB RQ	ACCESS:    1332853	FORWARD:          0	MERGED:     122175	TO_CACHE:    1210678

STLB Hit, L1D data hit: 0
STLB Hit, L2C data hit: 0
STLB Hit, LLC data hit: 0
STLB Hit, LLC data miss: 0
STLB STLB hints to L2: 0
L1D TOTAL     ACCESS:   13066053  HIT:   11959654  MISS:    1106399  HIT %:    91.5323  MISS %:    8.46774   MPKI: 22.128
L1D LOAD DATA	ACCESS:    6540187  HIT:    5812466  MISS:     727721  HIT %:    88.8731  MISS %:    11.1269  MPKI: 14.5544
L1D RFO DATA	ACCESS:    6192272  HIT:    5908271  MISS:     284001  HIT %:    95.4136  MISS %:    4.58638  MPKI: 5.68002
L1D PREFETCH DATA	ACCESS:     333594  HIT:     238917  MISS:      94677  HIT %:    71.6191  MISS %:    28.3809  MPKI: 1.89354

L1D PREFETCH  REQUESTED:     747232  ISSUED:     747232  USEFUL:      32973  USELESS:      69381
L1D USEFUL LOAD PREFETCHES:      32973 PREFETCH ISSUED TO LOWER LEVEL:     102422  ACCURACY: 32.1933
 TIMELY PREFETCHES:      32973 LATE PREFETCHES: 7684 DROPPED PREFETCHES: 12
L1D AVERAGE MISS LATENCY: 221785 cycles
L1D RQ	ACCESS:   10680155	FORWARD:          0	MERGED:    3943806	TO_CACHE:    6575561
L1D WQ	ACCESS:    6936838	FORWARD:     161258	MERGED:     199000	TO_CACHE:    6737838
L1D PQ	ACCESS:     373851	FORWARD:          0	MERGED:          0	TO_CACHE:     373381

L1D UNIQUE REGIONS ACCESSED: 0
L1D REGIONS CONFLICTS: 0
L1D Cross Page Prefetch Requests: 7034
L1D Same Page Prefetch Requests: 752391
L1D ROI Sum of L1D PQ occupancy: 4739674
L1D PREFETCHES PUSHED FROM L2C: 0
L1I TOTAL     ACCESS:    7113321  HIT:    4365930  MISS:    2747391  HIT %:    61.3768  MISS %:    38.6232   MPKI: 54.9478
L1I LOAD INSTRUCTION	ACCESS:    6431730  HIT:    3684339  MISS:    2747391  HIT %:    57.2838  MISS %:    42.7162  MPKI: 54.9478
L1I PREFETCH INSTRUCTION	ACCESS:     681591  HIT:     681591  MISS:          0  HIT %:        100  MISS %:          0  MPKI: 0

L1I PREFETCH  REQUESTED:    1675754  ISSUED:    1675754  USEFUL:          0  USELESS:          0
L1I USEFUL LOAD PREFETCHES:          0 PREFETCH ISSUED TO LOWER LEVEL:          0  ACCURACY: -nan
 TIMELY PREFETCHES:          0 LATE PREFETCHES: 0 DROPPED PREFETCHES: 0
L1I AVERAGE MISS LATENCY: 17.8895 cycles
L1I RQ	ACCESS:    9832436	FORWARD:          0	MERGED:    3148368	TO_CACHE:    6684068
L1I PQ	ACCESS:    1675754	FORWARD:          0	MERGED:     434559	TO_CACHE:    1241195

L1BTB TOTAL     ACCESS:    5365919  HIT:    5333312  MISS:      32607  HIT %:    99.3923  MISS %:   0.607669   MPKI: 0.65214
L1BTB BRANCH_DIRECT_JUMP	ACCESS:     549911  HIT:     549911  MISS:          0	AVERAGE STALL: -nan
L1BTB BRANCH_INDIRECT	ACCESS:     183773  HIT:     170966  MISS:      12807	AVERAGE STALL: 125.451
L1BTB BRANCH_CONDITIONAL	ACCESS:    2411200  HIT:    2411200  MISS:          0	AVERAGE STALL: -nan
L1BTB BRANCH_DIRECT_CALL	ACCESS:     939721  HIT:     939721  MISS:          0	AVERAGE STALL: -nan
L1BTB BRANCH_INDIRECT_CALL	ACCESS:     170793  HIT:     150993  MISS:      19800	AVERAGE STALL: 164.355
L1BTB BRANCH_RETURN	ACCESS:    1110521  HIT:    1110521  MISS:          0	AVERAGE STALL: -nan
L1BTB BRANCH_OTHER ACCESS:          0  HIT:          0  MISS:          0	AVERAGE STALL: -nan
L1BTB TOTAL ROB OCCUPANCY AT BTB MISS: 124.227

L2BTB BRANCH_DIRECT_JUMP	ACCESS:          0  HIT:          0  MISS:          0	AVERAGE STALL: -nan
L2BTB BRANCH_INDIRECT	ACCESS:          0  HIT:          0  MISS:          0	AVERAGE STALL: 125.451
L2BTB BRANCH_CONDITIONAL	ACCESS:          0  HIT:          0  MISS:          0	AVERAGE STALL: -nan
L2BTB BRANCH_DIRECT_CALL	ACCESS:          0  HIT:          0  MISS:          0	AVERAGE STALL: -nan
L2BTB BRANCH_INDIRECT_CALL	ACCESS:          0  HIT:          0  MISS:          0	AVERAGE STALL: 164.355
L2BTB BRANCH_RETURN	ACCESS:          0  HIT:          0  MISS:          0	AVERAGE STALL: -nan
L2BTB BRANCH_OTHER ACCESS:          0  HIT:          0  MISS:          0	AVERAGE STALL: -nan
L2BTB TOTAL ROB OCCUPANCY AT BTB MISS: inf

L2C TOTAL     ACCESS:    4461250  HIT:    3913313  MISS:     547937  HIT %:    87.7179  MISS %:    12.2821   MPKI: 10.9587
L2C LOAD INSTRUCTION	ACCESS:    2747393  HIT:    2438839  MISS:     308554  HIT %:    88.7692  MISS %:    11.2308  MPKI: 6.17108
L2C LOAD TRANSLATION INSTRUCTION	ACCESS:        281  HIT:         48  MISS:        233  HIT %:    17.0819  MISS %:    82.9181  MPKI: 0.00466
L2C LOAD DATA	ACCESS:     719978  HIT:     639783  MISS:      80195  HIT %:    88.8615  MISS %:    11.1385  MPKI: 1.6039
L2C RFO DATA	ACCESS:     283915  HIT:     221886  MISS:      62029  HIT %:    78.1523  MISS %:    21.8477  MPKI: 1.24058
L2C PREFETCH DATA	ACCESS:     191019  HIT:     114736  MISS:      76283  HIT %:    60.0652  MISS %:    39.9348  MPKI: 1.52566
L2C WRITEBACK DATA	ACCESS:     516771  HIT:     497482  MISS:      19289  HIT %:    96.2674  MISS %:     3.7326  MPKI: 0.38578
L2C LOAD TRANSLATION DATA	ACCESS:       1847  HIT:        512  MISS:       1335  HIT %:    27.7206  MISS %:    72.2794  MPKI: 0.0267
L2C TRANSLATION FROM L1D PREFETCHER DATA	ACCESS:         46  HIT:         27  MISS:         19  HIT %:    58.6957  MISS %:    41.3043  MPKI: 0.00038

L2C PREFETCH  REQUESTED:      96382  ISSUED:      96382  USEFUL:       9798  USELESS:      66977
L2C USEFUL LOAD PREFETCHES:       9798 PREFETCH ISSUED TO LOWER LEVEL:      76732  ACCURACY: 12.7691
 TIMELY PREFETCHES:       9798 LATE PREFETCHES: 449 DROPPED PREFETCHES: 0
L2C AVERAGE MISS LATENCY: 37.0411 cycles
L2C RQ	ACCESS:    3753551	FORWARD:          0	MERGED:          0	TO_CACHE:    3753467
L2C WQ	ACCESS:     516771	FORWARD:         84	MERGED:          0	TO_CACHE:     516771
L2C PQ	ACCESS:     198804	FORWARD:          0	MERGED:       3584	TO_CACHE:     195220

L2C Dense regions hint from L2: 0
PSCL5 TOTAL     ACCESS:       4116  HIT:       2058  MISS:       2058  HIT %:         50  MISS %:         50   MPKI: 0.04116
PSCL5 LOAD TRANSLATION INSTRUCTION	ACCESS:       4024  HIT:       2012  MISS:       2012  HIT %:         50  MISS %:         50  MPKI: 0.04024
PSCL5 TRANSLATION FROM L1D PREFETCHER INSTRUCTION	ACCESS:         92  HIT:         46  MISS:         46  HIT %:         50  MISS %:         50  MPKI: 0.00092


PSCL4 TOTAL     ACCESS:       3500  HIT:       1745  MISS:       1755  HIT %:    49.8571  MISS %:    50.1429   MPKI: 0.0351
PSCL4 LOAD TRANSLATION INSTRUCTION	ACCESS:       1741  HIT:       1705  MISS:         36  HIT %:    97.9322  MISS %:    2.06778  MPKI: 0.00072
PSCL4 TRANSLATION FROM L1D PREFETCHER INSTRUCTION	ACCESS:         40  HIT:         40  MISS:          0  HIT %:        100  MISS %:          0  MPKI: 0
PSCL4 LOAD TRANSLATION DATA	ACCESS:       1679  HIT:          0  MISS:       1679  HIT %:          0  MISS %:        100  MPKI: 0.03358
PSCL4 TRANSLATION FROM L1D PREFETCHER DATA	ACCESS:         40  HIT:          0  MISS:         40  HIT %:          0  MISS %:        100  MPKI: 0.0008


PSCL3 TOTAL     ACCESS:       3530  HIT:       1760  MISS:       1770  HIT %:    49.8584  MISS %:    50.1416   MPKI: 0.0354
PSCL3 LOAD TRANSLATION INSTRUCTION	ACCESS:       1756  HIT:       1720  MISS:         36  HIT %:    97.9499  MISS %:    2.05011  MPKI: 0.00072
PSCL3 TRANSLATION FROM L1D PREFETCHER INSTRUCTION	ACCESS:         40  HIT:         40  MISS:          0  HIT %:        100  MISS %:          0  MPKI: 0
PSCL3 LOAD TRANSLATION DATA	ACCESS:       1694  HIT:          0  MISS:       1694  HIT %:          0  MISS %:        100  MPKI: 0.03388
PSCL3 TRANSLATION FROM L1D PREFETCHER DATA	ACCESS:         40  HIT:          0  MISS:         40  HIT %:          0  MISS %:        100  MPKI: 0.0008


PSCL2 TOTAL     ACCESS:       4020  HIT:       1962  MISS:       2058  HIT %:     48.806  MISS %:     51.194   MPKI: 0.04116
PSCL2 LOAD TRANSLATION INSTRUCTION	ACCESS:       2166  HIT:       1916  MISS:        250  HIT %:     88.458  MISS %:     11.542  MPKI: 0.005
PSCL2 TRANSLATION FROM L1D PREFETCHER INSTRUCTION	ACCESS:         46  HIT:         46  MISS:          0  HIT %:        100  MISS %:          0  MPKI: 0
PSCL2 LOAD TRANSLATION DATA	ACCESS:       1762  HIT:          0  MISS:       1762  HIT %:          0  MISS %:        100  MPKI: 0.03524
PSCL2 TRANSLATION FROM L1D PREFETCHER DATA	ACCESS:         46  HIT:          0  MISS:         46  HIT %:          0  MISS %:        100  MPKI: 0.00092


LLC TOTAL     ACCESS:     616440  HIT:     588292  MISS:      28148  HIT %:    95.4338  MISS %:    4.56622   MPKI: 0.56296
LLC LOAD INSTRUCTION	ACCESS:     308554  HIT:     307731  MISS:        823  HIT %:    99.7333  MISS %:   0.266728  MPKI: 0.01646
LLC LOAD TRANSLATION INSTRUCTION	ACCESS:        233  HIT:        203  MISS:         30  HIT %:    87.1245  MISS %:    12.8755  MPKI: 0.0006
LLC LOAD DATA	ACCESS:      79751  HIT:      76406  MISS:       3345  HIT %:    95.8057  MISS %:     4.1943  MPKI: 0.0669
LLC RFO DATA	ACCESS:      62018  HIT:      48389  MISS:      13629  HIT %:    78.0241  MISS %:    21.9759  MPKI: 0.27258
LLC PREFETCH DATA	ACCESS:      76732  HIT:      66804  MISS:       9928  HIT %:    87.0615  MISS %:    12.9385  MPKI: 0.19856
LLC WRITEBACK DATA	ACCESS:      87798  HIT:      87496  MISS:        302  HIT %:     99.656  MISS %:   0.343971  MPKI: 0.00604
LLC LOAD TRANSLATION DATA	ACCESS:       1335  HIT:       1245  MISS:         90  HIT %:    93.2584  MISS %:    6.74157  MPKI: 0.0018
LLC TRANSLATION FROM L1D PREFETCHER DATA	ACCESS:         19  HIT:         18  MISS:          1  HIT %:    94.7368  MISS %:    5.26316  MPKI: 2e-05

LLC AVERAGE MISS LATENCY: 156.436 cycles
LLC RQ	ACCESS:     451916	FORWARD:          0	MERGED:          0	TO_CACHE:     451910
LLC WQ	ACCESS:      87798	FORWARD:          6	MERGED:          0	TO_CACHE:      87798
LLC PQ	ACCESS:      76732	FORWARD:          0	MERGED:          0	TO_CACHE:      76732

LLC Dense regions hint to LLC: 0

RAW hits: 1954729
Loads Generated: 12634884
Loads sent to L1D: 10680155
Stores Generated: 6936813
Stores sent to L1D: 6936838
Major fault: 0 Minor fault: 2579
Allocated PAGES: 2579

stream: 
stream:times selected: 1192475
stream:pref_filled: 122095
stream:pref_useful: 23469
stream:pref_late: 6524
stream:misses: 8278
stream:misses_by_poll: 0

CS: 
CS:times selected: 177841
CS:pref_filled: 60157
CS:pref_useful: 36692
CS:pref_late: 6975
CS:misses: 15884
CS:misses_by_poll: 1

CPLX: 
CPLX:times selected: 1013424
CPLX:pref_filled: 19672
CPLX:pref_useful: 4521
CPLX:pref_late: 3078
CPLX:misses: 92606
CPLX:misses_by_poll: 2

NL_L1: 
NL:times selected: 21446
NL:pref_filled: 605
NL:pref_useful: 237
NL:pref_late: 379
NL:misses: 1723
NL:misses_by_poll: 0

total selections: 2405186
total_filled: 94677
total_useful: 32973
total_late: 18275
total_polluted: 3
total_misses_after_warmup: 763092
conflicts: 5505388

test: 120850

DRAM Statistics
 CHANNEL 0
 RQ ROW_BUFFER_HIT:      10204  ROW_BUFFER_MISS:      17628
 DBUS_CONGESTED:          9
 WQ ROW_BUFFER_HIT:       1436  ROW_BUFFER_MISS:      12381  FULL:          0

 AVG_CONGESTED_CYCLE: 5

CPU 0 Branch Prediction Accuracy: 99.8211% MPKI: 0.32714 Average ROB Occupancy at Mispredict: 192.6
Branch types
NOT_BRANCH: 40856189 81.7124%
BRANCH_DIRECT_JUMP: 549911 1.09982%
BRANCH_INDIRECT: 183773 0.367546%
BRANCH_CONDITIONAL: 6188839 12.3777%
BRANCH_DIRECT_CALL: 939721 1.87944%
BRANCH_INDIRECT_CALL: 170793 0.341586%
BRANCH_RETURN: 1110521 2.22104%
BRANCH_OTHER: 0 0%

DRAM PAGES: 1048576
Allocated PAGES: 2579
Average_ROB_Occupancy: 268.105
Average_Decode_Occupancy: 43.7833
Average_FTQ_Occupancy: 18.0222
Indirect max targets: 14 Average targets: 1.15017
Branch_type:  BRANCH_DIRECT_JUMP:  Count Percentage: 3.32785 6.69664 3.79684 7.96302 2.23297 6.01587 1.27011 68.6967 
Branch_type:  BRANCH_INDIRECT:  Count Percentage: 6.17441 3.43917 8.16997 9.6987 3.33358 2.79908 3.06183 63.3233 
Branch_type:  BRANCH_CONDITIONAL:  Count Percentage: 21.9949 2.44347 4.1186 4.35998 1.66609 3.63689 1.04506 60.735 
Branch_type:  BRANCH_DIRECT_CALL:  Count Percentage: 0.389779 1.25354 0.766383 4.06736 2.11735 2.88517 1.06813 87.4523 
Branch_type:  BRANCH_INDIRECT_CALL:  Count Percentage: 9.52462 0 2.98531 0 0 2.42421 3.27608 81.7898 
Branch_type:  BRANCH_RETURN:  Count Percentage: 3.94705 1.37935 1.03977 4.73935 4.40309 3.8833 1.45137 79.1567 
Branch_type:  BRANCH_DIRECT_JUMP:  Total Count: 36501 73451 41645 87341 24492 65984 13931 753488 
Branch_type:  BRANCH_INDIRECT:  Total Count: 22630 12605 29944 35547 12218 10259 11222 232088 
Branch_type:  BRANCH_CONDITIONAL:  Total Count: 2719018 302063 509143 538982 205963 449594 129191 7508084 
Branch_type:  BRANCH_DIRECT_CALL:  Total Count: 7337 23596 14426 76562 39856 54309 20106 1646157 
Branch_type:  BRANCH_INDIRECT_CALL:  Total Count: 32626 0 10226 0 0 8304 11222 280166 
Branch_type:  BRANCH_RETURN:  Total Count: 87849 30700 23142 105483 97999 86430 32303 1761781 
Number of unique branch instructions: 9828
Upper 32 bits: 
aaaa
ffff
ffff0000
Unique upper 32 bits: 3
Unique upper 36 bits: 3
Unique upper 40 bits: 5
Unique upper 44 bits: 32
Unique upper 48 bits: 153
Offset_3 4041
Offset_4 242
Offset_5 448
Offset_6 499
Offset_7 578
Offset_8 507
Offset_9 464
Offset_10 377
Offset_11 313
Offset_12 283
Offset_13 199
Offset_14 228
Offset_15 189
Offset_16 219
Offset_17 142
Offset_18 126
Offset_19 235
Offset_20 139
Offset_21 235
Offset_22 389
Offset_23 241
Offset_24 324
Offset_25 88
Offset_47 80
Offset_64 2
decode_dispatch_called: 27364607 77.9689
Dispatch_width: 0 14986314 54.7653 42.6999
Dispatch_width: 1 1066717 3.89816 3.03936
Dispatch_width: 2 827555 3.02418 2.35792
Dispatch_width: 3 484893 1.77197 1.38159
Dispatch_width: 4 7057492 25.7906 20.1086
Dispatch_width: 5 56532 0.206588 0.161074
Dispatch_width: 6 2885104 10.5432 8.22042
Empty_decode_cycles: 7732209 22.0311
ROB_full_cycles: 11414322 32.5224
Starvation_cycles_per_kilo_instr: 207.974
Starvation_cycles_per_kilo_instr_3: 136.834
Starvation_cycles_per_kilo_instr_0: 113.042
Branch_type_1  (3,1)  (4,7)  (5,36)  (6,69)  (7,114)  (8,127)  (9,123)  (10,98)  (11,70)  (12,51)  (13,5)  (14,2)  (15,3)  (16,4)  (18,1)  (19,4)  (20,2)  (21,1)  (22,3)  (23,2)  (24,10)  (25,12) 
Branch_type_2  (3,1)  (5,1)  (8,3)  (9,3)  (12,1)  (13,1)  (14,1)  (16,3)  (17,2)  (20,2)  (21,2)  (23,5)  (24,1)  (47,36) 
Branch_type_3  (3,4039)  (4,235)  (5,407)  (6,414)  (7,433)  (8,317)  (9,255)  (10,152)  (11,128)  (12,58)  (13,4)  (64,2) 
Branch_type_4  (6,4)  (7,8)  (8,26)  (9,51)  (10,60)  (11,59)  (12,95)  (13,86)  (14,101)  (15,89)  (16,98)  (17,63)  (18,57)  (19,114)  (20,72)  (21,124)  (22,207)  (23,136)  (24,186)  (25,72) 
Branch_type_5  (8,2)  (9,1)  (10,3)  (11,5)  (12,3)  (13,14)  (14,16)  (15,11)  (16,20)  (17,11)  (18,16)  (19,12)  (20,10)  (21,13)  (22,42)  (23,26)  (24,36) 
Branch_type_6  (5,4)  (6,12)  (7,23)  (8,32)  (9,31)  (10,64)  (11,51)  (12,75)  (13,89)  (14,108)  (15,86)  (16,94)  (17,66)  (18,52)  (19,105)  (20,53)  (21,95)  (22,137)  (23,72)  (24,91)  (25,4)  (47,44) 
Unique trigger count: 
BTB PER SET UNIQUE ADDR: 0 0 0 0 0 0 0 0 0 0 0 0 0 0 0 0 0 0 0 0 0 0 0 0 0 0 0 0 0 0 0 0 0 0 0 0 0 0 0 0 0 0 0 0 0 0 0 0 0 0 0 0 0 0 0 0 0 0 0 0 0 0 0 0 0 0 0 0 0 0 0 0 0 0 0 0 0 0 0 0 0 0 0 0 0 0 0 0 0 0 0 0 0 0 0 0 0 0 0 0 0 0 0 0 0 0 0 0 0 0 0 0 0 0 0 0 0 0 0 0 0 0 0 0 0 0 0 0 0 0 0 0 0 0 0 0 0 0 0 0 0 0 0 0 0 0 0 0 0 0 0 0 0 0 0 0 0 0 0 0 0 0 0 0 0 0 0 0 0 0 0 0 0 0 0 0 0 0 0 0 0 0 0 0 0 0 0 0 0 0 0 0 0 0 0 0 0 0 0 0 0 0 0 0 0 0 0 0 0 0 0 0 0 0 0 0 0 0 0 0 0 0 0 0 0 0 0 0 0 0 0 0 0 0 0 0 0 0 0 0 0 0 0 0 0 0 0 0 0 0 0 0 0 0 0 0 0 0 0 0 0 0 0 0 0 0 0 0 0 0 0 0 0 0 0 0 0 0 0 0 0 0 0 0 0 0 0 0 0 0 0 0 0 0 0 0 0 0 0 0 0 0 0 0 0 0 0 0 0 0 0 0 0 0 0 0 0 0 0 0 0 0 0 0 0 0 0 0 0 0 0 0 0 0 0 0 0 0 0 0 0 0 0 0 0 0 0 0 0 0 0 0 0 0 0 0 0 0 0 0 0 0 0 0 0 0 0 0 0 0 0 0 0 0 0 0 0 0 0 0 0 0 0 0 0 0 0 0 0 0 0 0 0 0 0 0 0 0 0 0 0 0 0 0 0 0 0 0 0 0 0 0 0 0 0 0 0 0 0 0 0 0 0 0 0 0 0 0 0 0 0 0 0 0 0 0 0 0 0 0 0 0 0 0 0 0 0 0 0 0 0 0 0 0 0 0 0 0 0 0 0 0 0 0 0 0 0 0 0 0 0 0 0 0 0 0 0 0 0 0 0 0 0 0 0 0 0 0 0 0 0 0 0 0 0 0 0 0 0 0 0 0 0 0 0 0 0 0 0 0 0 0 0 0 0 0 0 0 0 0 0 0 0 0 0 0 0 0 0 0 0 0 0 0 0 0 0 0 0 0 0 0 0 0 0 0 0 0 0 0 0 0 0 0 0 0 0 0 0 0 0 0 0 0 0 0 0 0 0 0 0 0 0 0 0 0 0 0 0 0 0 0 0 0 0 0 0 0 0 0 0 0 0 0 0 0 0 0 0 0 0 0 0 0 0 0 0 0 0 0 0 0 0 0 0 0 0 0 0 0 0 0 0 0 0 0 0 0 0 0 0 0 0 0 0 0 0 0 0 0 0 0 0 0 0 0 0 0 0 0 0 0 0 0 0 0 0 0 0 0 0 0 0 0 0 0 0 0 0 0 0 0 0 0 0 0 0 0 0 0 0 0 0 0 0 0 0 0 0 0 0 0 0 0 0 0 0 0 0 0 0 0 0 0 0 0 0 0 0 0 0 0 0 0 0 0 0 0 0 0 0 0 0 0 0 0 0 0 0 0 0 0 0 0 0 0 0 0 0 0 0 0 0 0 0 0 0 0 0 0 0 0 0 0 0 0 0 0 0 0 0 0 0 0 0 0 0 0 0 0 0 0 0 0 0 0 0 0 0 0 0 0 0 0 0 0 0 0 0 0 0 0 0 0 0 0 0 0 0 0 0 0 0 0 0 0 0 0 0 0 0 0 0 0 0 0 0 0 0 0 0 0 0 0 0 0 0 0 0 0 0 0 0 0 0 0 0 0 0 0 0 0 0 0 0 0 0 0 0 0 0 0 0 0 0 0 0 0 0 0 0 0 0 0 0 0 0 0 0 0 0 0 0 0 0 0 0 0 0 0 0 0 0 0 0 0 0 0 0 0 0 0 0 0 0 0 0 0 0 0 0 0 0 0 0 0 0 0 0 0 0 0 0 0 0 0 0 0 0 0 0 0 0 0 0 0 0 0 0 0 0 0 0 0 0 0 0 0 0 0 0 0 0 0 0 0 0 0 0 0 0 0 0 0 0 0 0 0 0 0 0 0 0 0 0 0 0 0 0 0 0 0 0 0 0 0 0 0 0 0 0 0 0 0 0 0 0 0 0 0 0 0 0 0 0 0 0 0 0 0 0 0 0 0 0 0 0 0 0 0 0 0 0 0 0 0 0 0 0 0 0 0 0 0 0 0 0 0 0 0 0 0 0 0 0 0 0 0 0 0 0 0 0 0 0 0 0 0 0 0 0 0 0 0 0 0 0 0 0 0 0 0 0 0 0 0 0 0 0 0 0 0 0 0 0 0 0 0 0 0 0 0 0 0 0 0 0 0 0 0 0 0 0 0 0 0 0 0 0 0 0 0 0 0 0 0 0 0 0 0 0 0 0 0 0 0 0 0 0 0 0 0 0 0 0 0 0 0 0 0 0 0 0 0 0 0 0 0 0 0 0 0 0 0 0 0 0 0 0 0 0 0 0 0 0 0 0 0 0 0 0 0 0 0 0 0 0 0 0 0 0 0 0 0 0 0 0 0 0 0 0 0 0 0 0 0 0 0 0 0 0 0 0 0 0 0 0 0 0 0 0 0 0 0 0 0 0 0 0 0 0 0 0 0 0 0 0 0 0 0 0 0 0 0 0 0 0 0 0 0 0 0 0 0 0 0 0 0 0 0 0 0 0 0 0 0 0 0 0 0 0 0 0 0 0 0 0 0 0 0 0 0 0 0 0 0 0 0 0 0 0 0 0 0 0 0 0 0 0 0 0 0 0 0 0 0 0 0 0 0 0 0 0 0 0 0 0 0 0 0 0 0 0 0 0 0 0 0 0 0 0 0 0 0 0 0 0 0 0 0 0 0 0 0 0 0 0 0 0 0 0 0 0 0 0 0 0 0 0 0 0 0 0 0 0 0 0 0 0 0 0 0 0 0 0 0 0 0 0 0 0 0 0 0 0 0 0 0 0 0 0 0 0 0 0 0 0 0 0 0 0 0 0 0 0 0 0 0 0 0 0 0 0 0 0 0 0 0 0 0 0 0 0 0 0 0 0 0 0 0 0 0 0 0 0 0 0 0 0 0 0 0 0 0 0 0 0 0 0 0 0 0 0 0 0 0 0 0 0 0 0 0 0 0 0 0 0 0 0 0 0 0 0 0 0 0 0 0 0 0 0 0 0 0 0 0 0 0 0 0 0 0 0 0 0 0 0 0 0 0 0 0 0 0 0 0 0 0 0 0 0 0 0 0 0 0 0 0 0 0 0 0 0 0 0 0 0 0 0 0 0 0 0 0 0 0 0 0 0 0 0 0 0 0 0 0 0 0 0 0 0 0 0 0 0 0 0 0 0 0 0 0 0 0 0 0 0 0 0 0 0 0 0 0 0 0 0 0 0 0 0 0 0 0 0 0 0 0 0 0 0 0 0 0 0 0 0 0 0 0 0 0 0 0 0 0 0 0 0 0 0 0 0 0 0 0 0 0 0 0 0 0 0 0 0 0 0 0 0 0 0 0 0 0 0 0 0 0 0 0 0 0 0 0 0 0 0 0 0 0 0 0 0 0 0 0 0 0 0 0 0 0 0 0 0 0 0 0 0 0 0 0 0 0 0 0 0 0 0 0 0 0 0 0 0 0 0 0 0 0 0 0 0 0 0 0 0 0 0 0 0 0 0 0 0 0 0 0 0 0 0 0 0 0 0 0 0 0 0 0 0 0 0 0 0 0 0 0 0 0 0 0 0 0 0 0 0 0 0 0 0 0 0 0 0 0 0 0 0 0 0 0 0 0 0 0 0 0 0 0 0 0 0 0 0 0 0 0 0 0 0 0 0 0 0 0 0 0 0 0 0 0 0 0 0 0 0 0 0 0 0 0 0 0 0 0 0 0 0 0 0 0 0 0 0 0 0 0 0 0 0 0 0 0 0 0 0 0 0 0 0 0 0 0 0 0 0 0 0 0 0 0 0 0 0 0 0 0 0 0 0 0 0 0 0 0 0 0 0 0 0 0 0 0 0 0 0 0 0 0 0 0 0 0 0 0 0 0 0 0 0 0 0 0 0 0 0 0 0 0 0 0 0 0 0 0 0 0 0 0 0 0 0 0 0 0 0 0 0 0 0 0 0 0 0 0 0 0 0 0 0 0 0 0 0 0 0 0 0 0 0 0 0 0 0 0 0 0 0 0 0 0 0 0 0 0 0 0 0 0 0 0 0 0 0 0 0 0 0 0 0 0 0 0 0 0 0 0 0 0 0 0 0 0 0 0 0 0 0 0 0 0 0 0 0 0 0 0 0 0 0 0 0 0 0 0 0 0 0 0 0 0 0 0 0 0 0 0 0 0 0 0 0 0 0 0 0 0 0 0 0 0 0 0 0 0 0 0 0 0 0 0 0 0 0 0 0 0 0 0 0 0 0 0 0 0 0 0 0 0 0 0 0 0 0 0 0 0 0 0 0 0 0 0 0 0 0 0 0 0 0 0 0 0 0 0 0 0 
BTB PER SET COUNT: 0 0 0 0 0 0 0 0 0 0 0 0 0 0 0 0 0 0 0 0 0 0 0 0 0 0 0 0 0 0 0 0 0 0 0 0 0 0 0 0 0 0 0 0 0 0 0 0 0 0 0 0 0 0 0 0 0 0 0 0 0 0 0 0 0 0 0 0 0 0 0 0 0 0 0 0 0 0 0 0 0 0 0 0 0 0 0 0 0 0 0 0 0 0 0 0 0 0 0 0 0 0 0 0 0 0 0 0 0 0 0 0 0 0 0 0 0 0 0 0 0 0 0 0 0 0 0 0 0 0 0 0 0 0 0 0 0 0 0 0 0 0 0 0 0 0 0 0 0 0 0 0 0 0 0 0 0 0 0 0 0 0 0 0 0 0 0 0 0 0 0 0 0 0 0 0 0 0 0 0 0 0 0 0 0 0 0 0 0 0 0 0 0 0 0 0 0 0 0 0 0 0 0 0 0 0 0 0 0 0 0 0 0 0 0 0 0 0 0 0 0 0 0 0 0 0 0 0 0 0 0 0 0 0 0 0 0 0 0 0 0 0 0 0 0 0 0 0 0 0 0 0 0 0 0 0 0 0 0 0 0 0 0 0 0 0 0 0 0 0 0 0 0 0 0 0 0 0 0 0 0 0 0 0 0 0 0 0 0 0 0 0 0 0 0 0 0 0 0 0 0 0 0 0 0 0 0 0 0 0 0 0 0 0 0 0 0 0 0 0 0 0 0 0 0 0 0 0 0 0 0 0 0 0 0 0 0 0 0 0 0 0 0 0 0 0 0 0 0 0 0 0 0 0 0 0 0 0 0 0 0 0 0 0 0 0 0 0 0 0 0 0 0 0 0 0 0 0 0 0 0 0 0 0 0 0 0 0 0 0 0 0 0 0 0 0 0 0 0 0 0 0 0 0 0 0 0 0 0 0 0 0 0 0 0 0 0 0 0 0 0 0 0 0 0 0 0 0 0 0 0 0 0 0 0 0 0 0 0 0 0 0 0 0 0 0 0 0 0 0 0 0 0 0 0 0 0 0 0 0 0 0 0 0 0 0 0 0 0 0 0 0 0 0 0 0 0 0 0 0 0 0 0 0 0 0 0 0 0 0 0 0 0 0 0 0 0 0 0 0 0 0 0 0 0 0 0 0 0 0 0 0 0 0 0 0 0 0 0 0 0 0 0 0 0 0 0 0 0 0 0 0 0 0 0 0 0 0 0 0 0 0 0 0 0 0 0 0 0 0 0 0 0 0 0 0 0 0 0 0 0 0 0 0 0 0 0 0 0 0 0 0 0 0 0 0 0 0 0 0 0 0 0 0 0 0 0 0 0 0 0 0 0 0 0 0 0 0 0 0 0 0 0 0 0 0 0 0 0 0 0 0 0 0 0 0 0 0 0 0 0 0 0 0 0 0 0 0 0 0 0 0 0 0 0 0 0 0 0 0 0 0 0 0 0 0 0 0 0 0 0 0 0 0 0 0 0 0 0 0 0 0 0 0 0 0 0 0 0 0 0 0 0 0 0 0 0 0 0 0 0 0 0 0 0 0 0 0 0 0 0 0 0 0 0 0 0 0 0 0 0 0 0 0 0 0 0 0 0 0 0 0 0 0 0 0 0 0 0 0 0 0 0 0 0 0 0 0 0 0 0 0 0 0 0 0 0 0 0 0 0 0 0 0 0 0 0 0 0 0 0 0 0 0 0 0 0 0 0 0 0 0 0 0 0 0 0 0 0 0 0 0 0 0 0 0 0 0 0 0 0 0 0 0 0 0 0 0 0 0 0 0 0 0 0 0 0 0 0 0 0 0 0 0 0 0 0 0 0 0 0 0 0 0 0 0 0 0 0 0 0 0 0 0 0 0 0 0 0 0 0 0 0 0 0 0 0 0 0 0 0 0 0 0 0 0 0 0 0 0 0 0 0 0 0 0 0 0 0 0 0 0 0 0 0 0 0 0 0 0 0 0 0 0 0 0 0 0 0 0 0 0 0 0 0 0 0 0 0 0 0 0 0 0 0 0 0 0 0 0 0 0 0 0 0 0 0 0 0 0 0 0 0 0 0 0 0 0 0 0 0 0 0 0 0 0 0 0 0 0 0 0 0 0 0 0 0 0 0 0 0 0 0 0 0 0 0 0 0 0 0 0 0 0 0 0 0 0 0 0 0 0 0 0 0 0 0 0 0 0 0 0 0 0 0 0 0 0 0 0 0 0 0 0 0 0 0 0 0 0 0 0 0 0 0 0 0 0 0 0 0 0 0 0 0 0 0 0 0 0 0 0 0 0 0 0 0 0 0 0 0 0 0 0 0 0 0 0 0 0 0 0 0 0 0 0 0 0 0 0 0 0 0 0 0 0 0 0 0 0 0 0 0 0 0 0 0 0 0 0 0 0 0 0 0 0 0 0 0 0 0 0 0 0 0 0 0 0 0 0 0 0 0 0 0 0 0 0 0 0 0 0 0 0 0 0 0 0 0 0 0 0 0 0 0 0 0 0 0 0 0 0 0 0 0 0 0 0 0 0 0 0 0 0 0 0 0 0 0 0 0 0 0 0 0 0 0 0 0 0 0 0 0 0 0 0 0 0 0 0 0 0 0 0 0 0 0 0 0 0 0 0 0 0 0 0 0 0 0 0 0 0 0 0 0 0 0 0 0 0 0 0 0 0 0 0 0 0 0 0 0 0 0 0 0 0 0 0 0 0 0 0 0 0 0 0 0 0 0 0 0 0 0 0 0 0 0 0 0 0 0 0 0 0 0 0 0 0 0 0 0 0 0 0 0 0 0 0 0 0 0 0 0 0 0 0 0 0 0 0 0 0 0 0 0 0 0 0 0 0 0 0 0 0 0 0 0 0 0 0 0 0 0 0 0 0 0 0 0 0 0 0 0 0 0 0 0 0 0 0 0 0 0 0 0 0 0 0 0 0 0 0 0 0 0 0 0 0 0 0 0 0 0 0 0 0 0 0 0 0 0 0 0 0 0 0 0 0 0 0 0 0 0 0 0 0 0 0 0 0 0 0 0 0 0 0 0 0 0 0 0 0 0 0 0 0 0 0 0 0 0 0 0 0 0 0 0 0 0 0 0 0 0 0 0 0 0 0 0 0 0 0 0 0 0 0 0 0 0 0 0 0 0 0 0 0 0 0 0 0 0 0 0 0 0 0 0 0 0 0 0 0 0 0 0 0 0 0 0 0 0 0 0 0 0 0 0 0 0 0 0 0 0 0 0 0 0 0 0 0 0 0 0 0 0 0 0 0 0 0 0 0 0 0 0 0 0 0 0 0 0 0 0 0 0 0 0 0 0 0 0 0 0 0 0 0 0 0 0 0 0 0 0 0 0 0 0 0 0 0 0 0 0 0 0 0 0 0 0 0 0 0 0 0 0 0 0 0 0 0 0 0 0 0 0 0 0 0 0 0 0 0 0 0 0 0 0 0 0 0 0 0 0 0 0 0 0 0 0 0 0 0 0 0 0 0 0 0 0 0 0 0 0 0 0 0 0 0 0 0 0 0 0 0 0 0 0 0 0 0 0 0 0 0 0 0 0 0 0 0 0 0 0 0 0 0 0 0 0 0 0 0 0 0 0 0 0 0 0 0 0 0 0 0 0 0 0 0 0 0 0 0 0 0 0 0 0 0 0 0 0 0 0 0 0 0 0 0 0 0 0 0 0 0 0 0 0 0 0 0 0 0 0 0 0 0 0 0 0 0 0 0 0 0 0 0 0 0 0 0 0 0 0 0 0 0 0 0 0 0 0 0 0 0 0 0 0 0 0 0 0 0 0 0 0 0 0 0 0 0 0 0 0 0 0 0 0 0 0 0 0 0 0 0 0 0 0 0 0 0 0 0 0 0 0 0 0 0 0 0 0 0 0 0 0 0 0 0 0 0 0 0 0 0 0 0 0 0 0 0 0 0 0 0 0 0 0 0 0 0 0 0 0 0 0 0 0 0 0 0 0 0 0 0 0 0 0 0 0 0 0 0 0 0 0 0 0 0 0 0 0 0 0 0 0 0 0 0 0 0 0 0 0 0 0 0 0 0 0 0 0 0 0 0 0 0 0 0 0 0 0 0 0 0 0 0 0 0 0 0 0 0 0 0 0 0 0 0 0 0 0 0 0 0 0 0 0 0 0 0 0 0 0 0 0 0 0 0 0 0 0 0 0 0 0 0 0 0 0 0 0 0 0 0 0 0 0 0 0 0 0 0 0 0 0 0 0 0 0 0 0 0 0 0 0 0 0 0 0 0 0 0 0 0 0 0 0 0 0 0 0 0 0 0 0 0 0 0 0 0 0 0 0 0 0 0 0 0 0 0 0 0 0 0 0 0 0 0 0 0 0 0 0 0 0 0 0 0 0 0 0 0 0 0 0 0 0 0 0 0 0 0 0 0 0 0 0 0 0 0 0 0 0 0 0 0 0 0 0 0 0 0 0 0 0 0 0 0 0 0 0 0 0 0 0 0 0 0 0 0 0 0 0 0 0 0 0 0 0 0 0 0 0 0 0 0 0 0 0 0 0 0 0 0 0 0 0 0 0 0 0 0 0 0 0 0 0 0 0 0 0 0 0 0 0 0 0 0 0 0 0 0 0 0 0 0 0 0 
