
*** ChampSim Multicore Out-of-Order Simulator ***

Warmup Instructions: 50000000
Simulation Instructions: 50000000
Number of CPUs: 1
LLC sets: 2048
LLC ways: 16
Off-chip DRAM Size: 4096 MB Channels: 1 Width: 64-bit Data Rate: 6400 MT/s
CPU 0 runs ./micro_traces/srv82.trace.gz
.gz
ITLB has LRU replacement policy
DTLB has LRU replacement policy
STLB has LRU replacement policy
FDIP Prefetcher at L1I
L1I has LRU replacement policy
L1D has LRU replacement policy
Initialize SRRIP state for L2C
Initialize DRRIP state for LLC
Heartbeat CPU 0 instructions: 10000000 cycles: 2797655 heartbeat IPC: 3.57442 cumulative IPC: 3.57442 (Simulation time: 0 hr 1 min 41 sec) 
Heartbeat CPU 0 instructions: 20000002 cycles: 5594182 heartbeat IPC: 3.57586 cumulative IPC: 3.57514 (Simulation time: 0 hr 3 min 14 sec) 
Heartbeat CPU 0 instructions: 30000002 cycles: 8390769 heartbeat IPC: 3.57579 cumulative IPC: 3.57536 (Simulation time: 0 hr 4 min 52 sec) 
Heartbeat CPU 0 instructions: 40000000 cycles: 11187840 heartbeat IPC: 3.57517 cumulative IPC: 3.57531 (Simulation time: 0 hr 6 min 32 sec) 
Heartbeat CPU 0 instructions: 50000000 cycles: 13984130 heartbeat IPC: 3.57617 cumulative IPC: 3.57548 (Simulation time: 0 hr 8 min 8 sec) 

Warmup complete CPU 0 instructions: 50000004 cycles: 13984131 (Simulation time: 0 hr 8 min 8 sec) 

Cycle: 20000000 FTQ IN: 58351781 FTQ occupancy: 20.1194 DECODE IN: 58351696 DECODE occupancy: 52.5918 ROB IN: 58351680 ROB occupancy: 316.131 ROB OUT: 58351680
Heartbeat CPU 0 instructions: 60000000 cycles: 21181614 heartbeat IPC: 1.38937 cumulative IPC: 1.38937 (Simulation time: 0 hr 9 min 57 sec) 
Heartbeat CPU 0 instructions: 70000000 cycles: 28456207 heartbeat IPC: 1.37465 cumulative IPC: 1.38197 (Simulation time: 0 hr 11 min 43 sec) 
Cycle: 30000000 FTQ IN: 13792143 FTQ occupancy: 13.5598 DECODE IN: 13792163 DECODE occupancy: 35.2094 ROB IN: 13792119 ROB occupancy: 239.426 ROB OUT: 13791771
Heartbeat CPU 0 instructions: 80000000 cycles: 35650470 heartbeat IPC: 1.39 cumulative IPC: 1.38464 (Simulation time: 0 hr 13 min 32 sec) 
Cycle: 40000000 FTQ IN: 13807411 FTQ occupancy: 13.6309 DECODE IN: 13807378 DECODE occupancy: 35.5437 ROB IN: 13807438 ROB occupancy: 240.882 ROB OUT: 13807639
Heartbeat CPU 0 instructions: 90000000 cycles: 42926995 heartbeat IPC: 1.37428 cumulative IPC: 1.38203 (Simulation time: 0 hr 15 min 29 sec) 
Cycle: 50000000 FTQ IN: 13895920 FTQ occupancy: 13.5152 DECODE IN: 13895915 DECODE occupancy: 35.3276 ROB IN: 13895855 ROB occupancy: 241.459 ROB OUT: 13895650
Heartbeat CPU 0 instructions: 100000000 cycles: 50111369 heartbeat IPC: 1.39191 cumulative IPC: 1.384 (Simulation time: 0 hr 18 min 36 sec) 
Finished CPU 0 instructions: 50000003 cycles: 36127244 cumulative IPC: 1.384 (Simulation time: 0 hr 18 min 36 sec) 

ChampSim completed all CPUs

Region of Interest Statistics

CPU 0 cumulative IPC: 1.384 instructions: 50000003 cycles: 36127244
 Fetch stage stalled: 52.4284  Sim cycles: 36127244 fetch stall cycle: 18940945
 Empty decode stage: 32.4355  Sim cycles: 36127244 fetch stall cycle: 11718053
ITLB TOTAL     ACCESS:    5872001  HIT:    5381372  MISS:     490629  HIT %:    91.6446  MISS %:     8.3554   MPKI: 9.81258
ITLB LOAD TRANSLATION INSTRUCTION	ACCESS:    5745774  HIT:    5255145  MISS:     490629  HIT %:     91.461  MISS %:    8.53895  MPKI: 9.81258
ITLB TRANSLATION FROM L1D PREFETCHER INSTRUCTION	ACCESS:     126227  HIT:     126227  MISS:          0  HIT %:        100  MISS %:          0  MPKI: 0

ITLB AVERAGE MISS LATENCY: 9.05585 cycles
ITLB RQ	ACCESS:    8012224	FORWARD:          0	MERGED:    1700417	TO_CACHE:    6311807

DTLB TOTAL     ACCESS:    8966346  HIT:    8496349  MISS:     469997  HIT %:    94.7582  MISS %:    5.24179   MPKI: 9.39994
DTLB LOAD TRANSLATION DATA	ACCESS:    8966346  HIT:    8496349  MISS:     469997  HIT %:    94.7582  MISS %:    5.24179  MPKI: 9.39994

DTLB AVERAGE MISS LATENCY: 9.33209 cycles
DTLB RQ	ACCESS:   13337552	FORWARD:          0	MERGED:    4334528	TO_CACHE:    9003024

STLB TOTAL     ACCESS:    1212013  HIT:    1209970  MISS:       2043  HIT %:    99.8314  MISS %:   0.168563   MPKI: 0.04086
STLB LOAD TRANSLATION INSTRUCTION	ACCESS:     490629  HIT:     490378  MISS:        251  HIT %:    99.9488  MISS %:  0.0511588  MPKI: 0.00502
STLB LOAD TRANSLATION DATA	ACCESS:     469997  HIT:     468226  MISS:       1771  HIT %:    99.6232  MISS %:   0.376811  MPKI: 0.03542
STLB TRANSLATION FROM L1D PREFETCHER DATA	ACCESS:     251387  HIT:     251366  MISS:         21  HIT %:    99.9916  MISS %: 0.00835365  MPKI: 0.00042

STLB AVERAGE MISS LATENCY: 74.7239 cycles
STLB RQ	ACCESS:    1333638	FORWARD:          0	MERGED:     121575	TO_CACHE:    1212063

STLB Hit, L1D data hit: 0
STLB Hit, L2C data hit: 0
STLB Hit, LLC data hit: 0
STLB Hit, LLC data miss: 0
STLB STLB hints to L2: 0
L1D TOTAL     ACCESS:   13091677  HIT:   11985983  MISS:    1105694  HIT %:    91.5542  MISS %:    8.44578   MPKI: 22.1139
L1D LOAD DATA	ACCESS:    6561260  HIT:    5833941  MISS:     727319  HIT %:    88.9149  MISS %:    11.0851  MPKI: 14.5464
L1D RFO DATA	ACCESS:    6197788  HIT:    5913426  MISS:     284362  HIT %:    95.4119  MISS %:    4.58812  MPKI: 5.68724
L1D PREFETCH DATA	ACCESS:     332629  HIT:     238616  MISS:      94013  HIT %:    71.7364  MISS %:    28.2636  MPKI: 1.88026

L1D PREFETCH  REQUESTED:     746343  ISSUED:     746343  USEFUL:      33292  USELESS:      68782
L1D USEFUL LOAD PREFETCHES:      33292 PREFETCH ISSUED TO LOWER LEVEL:     102145  ACCURACY: 32.5929
 TIMELY PREFETCHES:      33292 LATE PREFETCHES: 8067 DROPPED PREFETCHES: 13
L1D AVERAGE MISS LATENCY: 236688 cycles
L1D RQ	ACCESS:   10692528	FORWARD:          0	MERGED:    3935747	TO_CACHE:    6595987
L1D WQ	ACCESS:    6936838	FORWARD:     161117	MERGED:     195273	TO_CACHE:    6741565
L1D PQ	ACCESS:     373333	FORWARD:          0	MERGED:          0	TO_CACHE:     373010

L1D UNIQUE REGIONS ACCESSED: 0
L1D REGIONS CONFLICTS: 0
L1D Cross Page Prefetch Requests: 7094
L1D Same Page Prefetch Requests: 751958
L1D ROI Sum of L1D PQ occupancy: 4734782
L1D PREFETCHES PUSHED FROM L2C: 0
L1I TOTAL     ACCESS:    7171432  HIT:    4423499  MISS:    2747933  HIT %:    61.6822  MISS %:    38.3178   MPKI: 54.9587
L1I LOAD INSTRUCTION	ACCESS:    6496879  HIT:    3748946  MISS:    2747933  HIT %:    57.7038  MISS %:    42.2962  MPKI: 54.9587
L1I PREFETCH INSTRUCTION	ACCESS:     674553  HIT:     674553  MISS:          0  HIT %:        100  MISS %:          0  MPKI: 0

L1I PREFETCH  REQUESTED:    1627786  ISSUED:    1627786  USEFUL:          0  USELESS:          0
L1I USEFUL LOAD PREFETCHES:          0 PREFETCH ISSUED TO LOWER LEVEL:          0  ACCURACY: -nan
 TIMELY PREFETCHES:          0 LATE PREFETCHES: 0 DROPPED PREFETCHES: 0
L1I AVERAGE MISS LATENCY: 17.586 cycles
L1I RQ	ACCESS:    9509679	FORWARD:          0	MERGED:    2689896	TO_CACHE:    6819783
L1I PQ	ACCESS:    1627786	FORWARD:          0	MERGED:     435345	TO_CACHE:    1192441

L1BTB TOTAL     ACCESS:    5672617  HIT:    2059757  MISS:    3612860  HIT %:    36.3105  MISS %:    63.6895   MPKI: 72.2572
L1BTB BRANCH_DIRECT_JUMP	ACCESS:     549908  HIT:     146843  MISS:     403065	AVERAGE STALL: 50.647
L1BTB BRANCH_INDIRECT	ACCESS:     183773  HIT:      66657  MISS:     117116	AVERAGE STALL: 104.541
L1BTB BRANCH_CONDITIONAL	ACCESS:    2717910  HIT:    1429385  MISS:    1288525	AVERAGE STALL: 74.4359
L1BTB BRANCH_DIRECT_CALL	ACCESS:     939715  HIT:     105741  MISS:     833974	AVERAGE STALL: 110.111
L1BTB BRANCH_INDIRECT_CALL	ACCESS:     170793  HIT:      21000  MISS:     149793	AVERAGE STALL: 135.274
L1BTB BRANCH_RETURN	ACCESS:    1110518  HIT:     290131  MISS:     820387	AVERAGE STALL: 48.2462
L1BTB BRANCH_OTHER ACCESS:          0  HIT:          0  MISS:          0	AVERAGE STALL: -nan
L1BTB TOTAL ROB OCCUPANCY AT BTB MISS: 1.92228

L2BTB TOTAL     ACCESS:    3587342  HIT:    3532809  MISS:      54533  HIT %:    98.4798  MISS %:    1.52015   MPKI: 1.09066
L2BTB BRANCH_DIRECT_JUMP	ACCESS:     398816  HIT:     396046  MISS:       2770	AVERAGE STALL: 50.647
L2BTB BRANCH_INDIRECT	ACCESS:     106886  HIT:     104309  MISS:       2577	AVERAGE STALL: 104.541
L2BTB BRANCH_CONDITIONAL	ACCESS:    1288525  HIT:    1288474  MISS:         51	AVERAGE STALL: 74.4359
L2BTB BRANCH_DIRECT_CALL	ACCESS:     833974  HIT:     833954  MISS:         20	AVERAGE STALL: 110.111
L2BTB BRANCH_INDIRECT_CALL	ACCESS:     140157  HIT:     129996  MISS:      10161	AVERAGE STALL: 135.274
L2BTB BRANCH_RETURN	ACCESS:     818984  HIT:     780030  MISS:      38954	AVERAGE STALL: 48.2462
L2BTB BRANCH_OTHER ACCESS:          0  HIT:          0  MISS:          0	AVERAGE STALL: -nan
L2BTB TOTAL ROB OCCUPANCY AT BTB MISS: 127.353

L2C TOTAL     ACCESS:    4459523  HIT:    3928806  MISS:     530717  HIT %:    88.0992  MISS %:    11.9008   MPKI: 10.6143
L2C LOAD INSTRUCTION	ACCESS:    2747932  HIT:    2454184  MISS:     293748  HIT %:    89.3102  MISS %:    10.6898  MPKI: 5.87496
L2C LOAD TRANSLATION INSTRUCTION	ACCESS:        281  HIT:         63  MISS:        218  HIT %:    22.4199  MISS %:    77.5801  MPKI: 0.00436
L2C LOAD DATA	ACCESS:     719215  HIT:     636904  MISS:      82311  HIT %:    88.5554  MISS %:    11.4446  MPKI: 1.64622
L2C RFO DATA	ACCESS:     284274  HIT:     224538  MISS:      59736  HIT %:    78.9865  MISS %:    21.0135  MPKI: 1.19472
L2C PREFETCH DATA	ACCESS:     189235  HIT:     113717  MISS:      75518  HIT %:     60.093  MISS %:     39.907  MPKI: 1.51036
L2C WRITEBACK DATA	ACCESS:     516692  HIT:     498910  MISS:      17782  HIT %:    96.5585  MISS %:    3.44151  MPKI: 0.35564
L2C LOAD TRANSLATION DATA	ACCESS:       1847  HIT:        461  MISS:       1386  HIT %:    24.9594  MISS %:    75.0406  MPKI: 0.02772
L2C TRANSLATION FROM L1D PREFETCHER DATA	ACCESS:         47  HIT:         29  MISS:         18  HIT %:    61.7021  MISS %:    38.2979  MPKI: 0.00036

L2C PREFETCH  REQUESTED:      95815  ISSUED:      95815  USEFUL:       9746  USELESS:      66403
L2C USEFUL LOAD PREFETCHES:       9746 PREFETCH ISSUED TO LOWER LEVEL:      76063  ACCURACY: 12.8131
 TIMELY PREFETCHES:       9746 LATE PREFETCHES: 545 DROPPED PREFETCHES: 0
L2C AVERAGE MISS LATENCY: 37.3645 cycles
L2C RQ	ACCESS:    3753656	FORWARD:          0	MERGED:          0	TO_CACHE:    3753596
L2C WQ	ACCESS:     516692	FORWARD:         60	MERGED:          0	TO_CACHE:     516692
L2C PQ	ACCESS:     197960	FORWARD:          0	MERGED:       4000	TO_CACHE:     193960

L2C Dense regions hint from L2: 0
PSCL5 TOTAL     ACCESS:       4118  HIT:       2059  MISS:       2059  HIT %:         50  MISS %:         50   MPKI: 0.04118
PSCL5 LOAD TRANSLATION INSTRUCTION	ACCESS:       4024  HIT:       2012  MISS:       2012  HIT %:         50  MISS %:         50  MPKI: 0.04024
PSCL5 TRANSLATION FROM L1D PREFETCHER INSTRUCTION	ACCESS:         94  HIT:         47  MISS:         47  HIT %:         50  MISS %:         50  MPKI: 0.00094


PSCL4 TOTAL     ACCESS:       3508  HIT:       1749  MISS:       1759  HIT %:    49.8575  MISS %:    50.1425   MPKI: 0.03518
PSCL4 LOAD TRANSLATION INSTRUCTION	ACCESS:       1757  HIT:       1709  MISS:         48  HIT %:    97.2681  MISS %:    2.73193  MPKI: 0.00096
PSCL4 TRANSLATION FROM L1D PREFETCHER INSTRUCTION	ACCESS:         40  HIT:         40  MISS:          0  HIT %:        100  MISS %:          0  MPKI: 0
PSCL4 LOAD TRANSLATION DATA	ACCESS:       1671  HIT:          0  MISS:       1671  HIT %:          0  MISS %:        100  MPKI: 0.03342
PSCL4 TRANSLATION FROM L1D PREFETCHER DATA	ACCESS:         40  HIT:          0  MISS:         40  HIT %:          0  MISS %:        100  MPKI: 0.0008


PSCL3 TOTAL     ACCESS:       3552  HIT:       1771  MISS:       1781  HIT %:    49.8592  MISS %:    50.1408   MPKI: 0.03562
PSCL3 LOAD TRANSLATION INSTRUCTION	ACCESS:       1779  HIT:       1731  MISS:         48  HIT %:    97.3019  MISS %:    2.69815  MPKI: 0.00096
PSCL3 TRANSLATION FROM L1D PREFETCHER INSTRUCTION	ACCESS:         40  HIT:         40  MISS:          0  HIT %:        100  MISS %:          0  MPKI: 0
PSCL3 LOAD TRANSLATION DATA	ACCESS:       1693  HIT:          0  MISS:       1693  HIT %:          0  MISS %:        100  MPKI: 0.03386
PSCL3 TRANSLATION FROM L1D PREFETCHER DATA	ACCESS:         40  HIT:          0  MISS:         40  HIT %:          0  MISS %:        100  MPKI: 0.0008


PSCL2 TOTAL     ACCESS:       4022  HIT:       1963  MISS:       2059  HIT %:    48.8066  MISS %:    51.1934   MPKI: 0.04118
PSCL2 LOAD TRANSLATION INSTRUCTION	ACCESS:       2166  HIT:       1916  MISS:        250  HIT %:     88.458  MISS %:     11.542  MPKI: 0.005
PSCL2 TRANSLATION FROM L1D PREFETCHER INSTRUCTION	ACCESS:         47  HIT:         47  MISS:          0  HIT %:        100  MISS %:          0  MPKI: 0
PSCL2 LOAD TRANSLATION DATA	ACCESS:       1762  HIT:          0  MISS:       1762  HIT %:          0  MISS %:        100  MPKI: 0.03524
PSCL2 TRANSLATION FROM L1D PREFETCHER DATA	ACCESS:         47  HIT:          0  MISS:         47  HIT %:          0  MISS %:        100  MPKI: 0.00094


LLC TOTAL     ACCESS:     598154  HIT:     570132  MISS:      28022  HIT %:    95.3153  MISS %:    4.68475   MPKI: 0.56044
LLC LOAD INSTRUCTION	ACCESS:     293748  HIT:     292954  MISS:        794  HIT %:    99.7297  MISS %:     0.2703  MPKI: 0.01588
LLC LOAD TRANSLATION INSTRUCTION	ACCESS:        218  HIT:        191  MISS:         27  HIT %:    87.6147  MISS %:    12.3853  MPKI: 0.00054
LLC LOAD DATA	ACCESS:      81785  HIT:      78395  MISS:       3390  HIT %:     95.855  MISS %:    4.14501  MPKI: 0.0678
LLC RFO DATA	ACCESS:      59716  HIT:      46096  MISS:      13620  HIT %:     77.192  MISS %:     22.808  MPKI: 0.2724
LLC PREFETCH DATA	ACCESS:      76063  HIT:      66226  MISS:       9837  HIT %:    87.0673  MISS %:    12.9327  MPKI: 0.19674
LLC WRITEBACK DATA	ACCESS:      85220  HIT:      84953  MISS:        267  HIT %:    99.6867  MISS %:   0.313307  MPKI: 0.00534
LLC LOAD TRANSLATION DATA	ACCESS:       1386  HIT:       1299  MISS:         87  HIT %:    93.7229  MISS %:    6.27706  MPKI: 0.00174
LLC TRANSLATION FROM L1D PREFETCHER DATA	ACCESS:         18  HIT:         18  MISS:          0  HIT %:        100  MISS %:          0  MPKI: 0

LLC AVERAGE MISS LATENCY: 157.028 cycles
LLC RQ	ACCESS:     436872	FORWARD:          0	MERGED:          0	TO_CACHE:     436871
LLC WQ	ACCESS:      85220	FORWARD:          1	MERGED:          0	TO_CACHE:      85220
LLC PQ	ACCESS:      76063	FORWARD:          0	MERGED:          0	TO_CACHE:      76063

LLC Dense regions hint to LLC: 0

RAW hits: 1942355
Loads Generated: 12634884
Loads sent to L1D: 10692528
Stores Generated: 6936813
Stores sent to L1D: 6936838
Major fault: 0 Minor fault: 2579
Allocated PAGES: 2579

stream: 
stream:times selected: 1194174
stream:pref_filled: 121497
stream:pref_useful: 23814
stream:pref_late: 6754
stream:misses: 8290
stream:misses_by_poll: 0

CS: 
CS:times selected: 179788
CS:pref_filled: 59647
CS:pref_useful: 36235
CS:pref_late: 7191
CS:misses: 16077
CS:misses_by_poll: 0

CPLX: 
CPLX:times selected: 1013118
CPLX:pref_filled: 19348
CPLX:pref_useful: 4373
CPLX:pref_late: 3125
CPLX:misses: 92334
CPLX:misses_by_poll: 2

NL_L1: 
NL:times selected: 21471
NL:pref_filled: 651
NL:pref_useful: 256
NL:pref_late: 367
NL:misses: 1717
NL:misses_by_poll: 0

total selections: 2408551
total_filled: 94013
total_useful: 33292
total_late: 18804
total_polluted: 2
total_misses_after_warmup: 762043
conflicts: 5512569

test: 120111

DRAM Statistics
 CHANNEL 0
 RQ ROW_BUFFER_HIT:      10139  ROW_BUFFER_MISS:      17595
 DBUS_CONGESTED:          4
 WQ ROW_BUFFER_HIT:       1329  ROW_BUFFER_MISS:      12253  FULL:          0

 AVG_CONGESTED_CYCLE: 5

CPU 0 Branch Prediction Accuracy: 99.8211% MPKI: 0.32714 Average ROB Occupancy at Mispredict: 194.995
Branch types
NOT_BRANCH: 40856049 81.7121%
BRANCH_DIRECT_JUMP: 549908 1.09982%
BRANCH_INDIRECT: 183773 0.367546%
BRANCH_CONDITIONAL: 6188804 12.3776%
BRANCH_DIRECT_CALL: 939715 1.87943%
BRANCH_INDIRECT_CALL: 170793 0.341586%
BRANCH_RETURN: 1110518 2.22104%
BRANCH_OTHER: 0 0%

DRAM PAGES: 1048576
Allocated PAGES: 2579
Average_ROB_Occupancy: 241.795
Average_Decode_Occupancy: 35.324
Average_FTQ_Occupancy: 13.538
Indirect max targets: 14 Average targets: 1.15017
Branch_type:  BRANCH_DIRECT_JUMP:  Count Percentage: 3.32786 6.69666 3.79685 7.96304 2.23298 6.01588 1.27011 68.6966 
Branch_type:  BRANCH_INDIRECT:  Count Percentage: 6.17441 3.43917 8.16997 9.6987 3.33358 2.79908 3.06183 63.3233 
Branch_type:  BRANCH_CONDITIONAL:  Count Percentage: 21.9558 2.44348 1.50196 4.35999 1.6661 3.6369 1.04507 63.3907 
Branch_type:  BRANCH_DIRECT_CALL:  Count Percentage: 0.38978 1.25354 0.766385 4.06738 2.11736 2.88518 1.06814 87.4522 
Branch_type:  BRANCH_INDIRECT_CALL:  Count Percentage: 9.52462 0 2.98531 0 0 2.42421 3.27608 81.7898 
Branch_type:  BRANCH_RETURN:  Count Percentage: 3.72964 1.37935 1.03977 4.73935 4.4031 3.8833 1.45137 79.3741 
Branch_type:  BRANCH_DIRECT_JUMP:  Total Count: 36501 73451 41645 87341 24492 65984 13931 753485 
Branch_type:  BRANCH_INDIRECT:  Total Count: 22630 12605 29944 35547 12218 10259 11222 232088 
Branch_type:  BRANCH_CONDITIONAL:  Total Count: 2714179 302063 185672 538982 205963 449594 129191 7836359 
Branch_type:  BRANCH_DIRECT_CALL:  Total Count: 7337 23596 14426 76562 39856 54309 20106 1646151 
Branch_type:  BRANCH_INDIRECT_CALL:  Total Count: 32626 0 10226 0 0 8304 11222 280166 
Branch_type:  BRANCH_RETURN:  Total Count: 83010 30700 23142 105483 97999 86430 32303 1766617 
Number of unique branch instructions: 9828
Upper 32 bits: 
aaaa
ffff
ffff0000
Unique upper 32 bits: 3
Unique upper 36 bits: 3
Unique upper 40 bits: 5
Unique upper 44 bits: 32
Unique upper 48 bits: 153
Offset_3 4041
Offset_4 242
Offset_5 448
Offset_6 499
Offset_7 578
Offset_8 507
Offset_9 464
Offset_10 377
Offset_11 313
Offset_12 283
Offset_13 199
Offset_14 228
Offset_15 189
Offset_16 219
Offset_17 142
Offset_18 126
Offset_19 235
Offset_20 139
Offset_21 235
Offset_22 389
Offset_23 241
Offset_24 324
Offset_25 88
Offset_47 80
Offset_64 2
decode_dispatch_called: 25829331 71.4954
Dispatch_width: 0 13871405 53.7041 38.396
Dispatch_width: 1 986120 3.81783 2.72957
Dispatch_width: 2 842207 3.26066 2.33122
Dispatch_width: 3 497489 1.92606 1.37705
Dispatch_width: 4 5909520 22.8791 16.3575
Dispatch_width: 5 136900 0.530018 0.378938
Dispatch_width: 6 3585690 13.8822 9.92517
Empty_decode_cycles: 10297913 28.5046
ROB_full_cycles: 9315963 25.7865
Starvation_cycles_per_kilo_instr: 232.256
Starvation_cycles_per_kilo_instr_3: 171.792
Starvation_cycles_per_kilo_instr_0: 148.534
Branch_type_1  (3,1)  (4,7)  (5,36)  (6,69)  (7,114)  (8,127)  (9,123)  (10,98)  (11,70)  (12,51)  (13,5)  (14,2)  (15,3)  (16,4)  (18,1)  (19,4)  (20,2)  (21,1)  (22,3)  (23,2)  (24,10)  (25,12) 
Branch_type_2  (3,1)  (5,1)  (8,3)  (9,3)  (12,1)  (13,1)  (14,1)  (16,3)  (17,2)  (20,2)  (21,2)  (23,5)  (24,1)  (47,36) 
Branch_type_3  (3,4039)  (4,235)  (5,407)  (6,414)  (7,433)  (8,317)  (9,255)  (10,152)  (11,128)  (12,58)  (13,4)  (64,2) 
Branch_type_4  (6,4)  (7,8)  (8,26)  (9,51)  (10,60)  (11,59)  (12,95)  (13,86)  (14,101)  (15,89)  (16,98)  (17,63)  (18,57)  (19,114)  (20,72)  (21,124)  (22,207)  (23,136)  (24,186)  (25,72) 
Branch_type_5  (8,2)  (9,1)  (10,3)  (11,5)  (12,3)  (13,14)  (14,16)  (15,11)  (16,20)  (17,11)  (18,16)  (19,12)  (20,10)  (21,13)  (22,42)  (23,26)  (24,36) 
Branch_type_6  (5,4)  (6,12)  (7,23)  (8,32)  (9,31)  (10,64)  (11,51)  (12,75)  (13,89)  (14,108)  (15,86)  (16,94)  (17,66)  (18,52)  (19,105)  (20,53)  (21,95)  (22,137)  (23,72)  (24,91)  (25,4)  (47,44) 
Unique trigger count: 
BTB PER SET UNIQUE ADDR: 3 3 3 5 2 2 3 4 2 6 4 4 4 4 6 3 4 4 2 3 2 3 4 5 4 3 3 3 3 4 3 3 2 4 4 2 3 3 3 3 3 4 3 4 1 2 2 4 4 3 3 2 3 1 2 3 4 3 2 5 3 4 2 3 5 2 3 4 4 5 2 3 3 3 5 3 4 2 4 4 4 4 4 6 3 3 4 5 5 2 3 6 4 3 3 1 4 4 3 4 4 4 3 3 4 4 3 3 2 3 5 2 2 3 4 2 3 3 3 5 3 4 4 4 5 4 3 3 5 3 4 2 3 2 4 4 4 2 2 4 3 3 3 4 3 3 4 2 5 3 5 3 2 4 3 3 4 4 5 3 5 3 1 3 3 3 2 3 3 3 3 4 5 4 4 5 2 4 2 2 2 2 4 4 3 2 3 3 4 3 2 4 4 2 2 4 4 5 3 2 3 3 4 4 1 4 2 2 3 3 4 3 4 3 3 4 4 3 4 3 5 3 4 2 3 2 3 2 4 4 1 6 3 2 3 4 3 4 4 4 3 4 5 3 4 2 3 3 4 3 1 5 3 4 3 5 3 4 4 2 5 4 3 4 4 4 5 4 2 4 4 2 4 4 4 4 5 3 3 4 4 3 5 4 4 4 4 5 4 4 3 4 4 2 3 4 4 4 3 3 4 2 3 4 3 2 4 5 4 2 3 4 5 3 3 3 4 3 2 2 4 3 3 2 7 4 2 2 3 2 1 3 2 4 2 5 4 3 4 3 4 4 4 2 3 6 3 4 3 5 4 3 3 3 3 4 4 3 3 4 3 3 3 4 2 4 5 5 3 1 3 3 3 3 3 3 4 3 4 3 3 4 3 3 2 4 4 3 3 3 3 3 3 4 2 4 3 2 2 3 6 3 3 2 2 4 3 3 4 4 4 2 2 3 4 3 4 3 4 2 4 3 2 4 3 3 3 4 2 2 3 2 3 3 2 2 3 2 2 3 2 4 2 2 3 2 4 2 4 5 4 1 5 4 4 3 3 3 3 3 3 2 4 3 3 4 4 3 5 4 3 5 4 4 3 4 2 2 4 4 4 3 4 2 1 5 3 4 4 5 6 4 4 3 3 5 3 3 3 4 3 3 2 3 4 4 3 2 4 4 3 3 3 4 2 3 5 2 5 5 4 4 2 3 4 3 2 4 3 3 2 4 5 4 3 3 2 3 3 2 4 5 4 5 2 4 4 4 3 2 4 4 4 4 3 4 4 2 5 2 3 3 4 4 3 2 4 4 3 3 3 3 1 4 3 3 4 3 3 3 2 3 3 3 4 3 3 2 3 3 3 2 3 3 3 4 4 4 4 4 3 3 3 2 2 3 3 2 3 1 4 3 4 3 2 3 4 4 4 5 4 1 4 3 3 4 1 4 3 6 3 5 4 3 2 2 3 4 4 4 4 4 1 2 6 4 2 3 2 3 4 4 5 4 4 6 3 3 3 3 4 3 3 3 3 4 3 3 3 4 4 3 3 4 3 3 4 3 4 4 2 5 2 4 3 4 2 3 3 3 3 2 4 3 3 3 3 3 2 4 2 4 3 2 4 4 2 2 3 4 3 2 4 3 4 4 3 2 3 4 4 4 3 4 5 2 4 3 1 3 3 4 2 5 4 5 4 2 3 3 4 4 5 3 3 3 5 3 3 3 6 5 3 3 3 3 2 4 3 3 5 4 3 3 4 4 4 3 3 5 4 2 3 4 3 4 4 5 2 4 3 4 3 4 5 3 4 3 6 4 3 4 4 3 4 5 3 2 4 2 3 5 4 3 4 3 4 3 3 4 4 2 1 3 2 3 3 2 5 4 4 4 5 4 3 2 4 2 4 4 4 3 3 3 5 6 5 4 3 3 3 3 3 3 4 3 3 4 2 3 3 3 3 4 4 2 3 2 2 3 2 4 4 5 5 2 2 4 5 5 4 3 4 3 3 4 3 3 4 4 3 3 3 4 3 3 3 3 2 2 4 3 2 3 2 3 3 2 3 3 4 2 4 3 2 2 5 3 3 3 4 2 4 3 4 4 3 2 3 2 2 2 3 4 4 4 3 3 4 4 3 4 3 6 2 3 6 3 2 3 3 3 3 5 2 2 3 3 5 4 5 3 3 3 3 3 2 4 3 2 4 4 3 3 4 3 3 3 2 4 2 3 1 3 4 4 2 2 4 3 3 3 2 3 3 3 4 3 5 3 4 2 4 5 4 3 2 4 2 3 5 3 3 3 4 5 3 3 3 3 3 3 3 4 3 5 3 3 3 3 2 4 3 3 5 3 4 4 3 1 3 4 4 2 5 3 3 4 3 3 3 3 2 4 4 3 4 5 3 3 3 2 4 4 3 2 5 4 4 4 4 3 4 3 3 2 3 3 4 3 3 4 3 4 5 4 3 3 4 3 3 3 4 2 3 3 4 3 3 4 3 4 4 4 3 3 4 4 4 2 4 3 4 4 3 2 3 3 3 2 2 3 4 2 4 2 5 3 3 5 3 3 1 2 4 3 3 6 2 4 3 3 5 2 2 3 3 2 3 2 5 4 3 2 2 4 3 3 4 3 3 2 2 4 3 1 3 3 3 3 3 4 4 3 2 3 3 6 2 3 3 2 4 3 2 2 3 2 4 4 2 3 3 4 4 5 5 2 3 4 6 2 3 2 2 3 4 3 4 1 3 3 2 3 4 2 4 1 3 2 6 4 3 5 3 4 5 3 3 5 3 2 3 3 2 3 2 3 4 4 3 2 2 2 4 4 3 3 4 2 4 4 3 3 2 3 4 2 3 4 2 4 3 3 4 1 2 4 2 3 3 4 3 4 3 4 3 4 2 3 3 4 2 2 4 4 4 4 5 2 4 4 5 3 4 4 3 2 3 4 3 4 4 3 3 4 4 4 2 3 4 3 3 3 4 4 4 3 4 5 2 5 5 2 4 4 4 3 3 4 5 2 3 4 5 2 3 3 3 4 3 3 3 5 2 4 2 4 4 5 3 3 2 3 4 5 3 3 6 3 4 3 3 3 3 3 4 2 5 5 3 4 4 2 3 3 2 3 4 4 2 6 1 3 3 4 4 3 2 4 4 3 3 3 3 3 3 3 3 3 3 4 2 2 1 3 4 5 3 2 4 3 4 3 2 4 4 3 4 3 2 3 4 3 3 2 3 5 2 4 2 2 4 4 3 3 3 4 4 4 2 3 3 3 4 3 4 3 3 3 3 4 2 2 3 3 4 3 2 3 2 2 1 3 2 3 2 2 3 4 3 4 3 2 4 2 4 2 3 4 3 2 3 3 4 3 3 3 4 4 3 3 2 5 4 3 4 2 3 4 2 3 2 2 6 5 4 3 3 4 3 4 2 4 4 2 3 3 4 4 4 3 5 2 3 3 4 3 3 4 3 2 3 3 3 2 2 3 3 4 5 3 4 3 3 3 5 2 2 4 3 3 3 2 3 3 3 4 3 2 3 3 4 4 3 3 3 3 3 2 5 5 2 3 2 4 2 4 5 5 5 3 4 2 2 4 4 2 3 3 2 1 2 4 4 3 4 3 3 3 3 3 5 3 3 2 2 3 3 4 5 4 2 3 4 3 3 3 4 3 4 5 4 3 4 4 4 4 3 5 3 5 2 1 3 5 3 3 3 4 4 3 4 5 3 3 4 2 5 3 2 2 4 4 4 4 3 2 4 4 4 4 3 3 3 3 6 3 3 4 3 2 4 4 4 4 3 4 5 2 3 3 3 2 3 4 3 2 5 3 3 3 3 2 3 2 5 4 3 3 2 4 4 3 2 4 3 4 4 3 3 4 4 2 3 5 4 2 5 3 3 3 4 4 3 4 3 2 3 4 4 2 4 1 5 4 4 4 3 0 4 3 4 3 3 4 4 3 3 4 5 5 3 4 2 4 4 3 3 5 4 3 3 2 4 4 1 2 2 3 4 3 3 4 3 3 5 4 2 2 4 3 3 5 2 4 3 4 3 3 3 4 3 4 2 3 4 3 2 2 2 4 3 3 3 3 3 4 4 4 3 2 4 3 3 4 4 2 3 3 3 4 3 3 3 3 4 4 2 3 3 4 3 2 4 4 3 4 3 2 4 3 3 1 7 3 3 5 4 3 2 3 4 3 3 2 2 3 2 2 2 3 4 2 3 3 3 2 3 4 2 3 4 3 2 2 2 5 4 1 2 3 4 3 3 3 3 5 2 5 1 3 3 3 3 4 3 2 3 4 3 3 2 4 2 3 3 4 4 3 3 3 4 3 2 4 3 1 3 3 4 4 4 3 3 3 3 3 3 3 5 2 4 4 3 4 2 4 3 5 2 2 3 4 4 5 4 4 3 3 3 2 3 3 4 4 4 2 3 2 3 5 2 3 4 4 5 3 2 4 6 3 4 3 3 3 4 4 4 3 4 3 4 2 3 2 4 3 1 5 2 4 4 4 4 3 3 2 3 4 3 3 4 4 4 3 4 3 2 4 4 2 4 4 3 5 4 2 4 3 0 5 4 4 3 3 2 2 5 2 4 4 3 3 3 4 4 4 3 4 3 3 4 4 4 3 4 4 4 4 3 3 4 3 1 3 4 2 
BTB PER SET COUNT: 3 1464 1464 5 3 2 3 4 2 507 4 4 4 4 6 3 4 4 2 3 2 3 4 5 506 3 3 3 3 4 3 3 2 5 504 2 3 3 3 3 3 4 3 6 1 2 2 4 4 3 3 2 4 1 2 3 504 1003 2 7 962 4 3 3 5 2 6 4 4 5 2 3 4 3 5 149 4 2 6 5 4 4 7 6 3 3 4 5 332 2 145 6 4 3 3 1 4 4 3 4 5 5 3 3 4 4 3 3 2 3 5 2 2 3 8 2 3 4 3 1465 7 4 1003 4 5 4 3 3 437 3 4 2 3 2 5 4 5 2 2 5 3 3 3 4 4 3 4 2 5 7 5 463 3 4 3 963 4 4 5 3 5 3 2 3 3 3 434 3 3 3 3 6 95 4 4 5 2 4 2 2 2 2 5 5 3 2 3 4 4 3 2 4 4 2 2 463 4 1002 601 2 5 1464 6 4 1 4 2 2 4 3 9 5 4 3 3 4 4 503 5 3 5 3 4 4 3 3 3 2 634 5 250 8 3 2 3 4 3 4 4 4 3 4 5 3 5 2 7883 84 4 3 1 5 7 4 4 7 3 4 5 2 5 4 3 4 5 4 5 4 2 4 4 2 5 4 4 5 948 3 3 4 5 3 5 4 4 4 4 5 4 4 3 5 5 2 3 6 4 4 4 3 4 2 1465 4 3 2 4 5 5 2 3 5 7 3 3 3 5 3 2 2 4 3 4 2 7 4 2 2 3 2 1 4 2 5 2 5 4 3 4 3 4 4 4 2 3 7 3 4 3 5 4 3 3 3 3 385 5 3 3 14 3 275 3 5 2 2425 5 5 962 1 3 3 1463 4 3 3 4 3 4 5 5 4 1221 3 2 4 5 5 3 3 3 3 3 5 2 4 1344 2 2 3 7 3 3 2 2 4 3 3 4 4 5 2 2 3 4 3 4 3 4 2 4 3 2 4 3 3 3 4 2 2 3 2 3 3 2 2 3 3 2 3 2 5 2 2 396 2 1466 37 4 5 5 1002 6 4 4 4 3 3 1002 3 1004 2 8 3 10 4 4 6 20 4 3 41 4 4 962 4 2 2 6 4 4 3 4 2 1 5 3 4 85 6 9 4 7 3 3 964 3 3 3 4 3 3 2 3 4 4 4 2 4 5 3 3 1004 2003 2 3 5 503 5 6 4 4 2 3 4 3 2 6 3 4 1462 4 6 14 3 3 3 3 3 2 4 5 6 5 2 1463 4 5 3 2 10 4 1007 4 3 4 504 2 5 2 1004 3 4 4 3 2 1003 5 1004 4 3 3 1 4 3 3 5 4 3 3 7 3 3 3 8 3 3 2 3 3 3 2 3 1004 1003 4 7 4 4 5 3 3 1004 2 4 3 1002 2 3 1 4 3 963 3 2 3 4 4 14613 5 4 1 4 5 3 4 1 4 3 6 4 6 4 4 2 2 3 4 4 4 4 4 1 2 8 4 2 3 3 3 4 963 5 4 4 6 3 4 3 3 5 3 3 3 3 4 5 3 3 4 4 3 3 2923 3 1461 4 4 4 5 2 5 2 4 3 4 2 1463 3 3 3 2 4 3 3 3 3 3 2 4 2 5 3 2 4 4 2 2 3 4 4 4 4 3 4 1005 3 2 3 5 4 4 4 5 5 2 4 3 1 3 3 4 2 5 4 5 4 2 3 3 4 4 10 3 3 3 5 3 3 3 6 5 3 3 4 3 2 5 186 3 7 6 3 37 4 4 4 504 3 5 4 2 5 4 3 4 4 5 2 4 4 4 3 4 5 3 4 3 6 4 4 4 4 3 4 964 3 2 4 2 3 486 4 3 5 3 4 3 3 4 5 2 2 3 2 3 3 2 5 4 4 4 5 6 3 2 4 2 4 508 4 3 3 3 5 6 6 4 3 3 4 3 3 3 4 3 3 4 2 962 3 3 3 6 4 2 3 2 2 4 2 4 4 5 5 2 2 5 7 5 4 3 4 3 3 4 3 3 4 4 3 3 3 4 3 3 3 3 2 2 1464 3 2 3 2 3 384 2 3 3 4 2 4 1004 2 2 5 5 3 3 5 2 6 3 5 15 3 2 3 2 502 961 3 4 4 4 1463 3 6 4 3 9 3 10 2 3 9 3 2 4 3 3 3 7 2 2 3 3 5 4 5 3 3 3 504 3 2 4 2004 2 5 5 3 3 4 3 503 3 2 8 2 3 1 5 6 4 3 2 4 3 3 3 2 4 3 5 6 47 7 3 5 2 4 7 4 3 2 4 2 31 5 3 4 3 4 5 3 3 3 3 3 3 4 4 3 5 3 3 5 3 2 5 3 3 5 3 4 6 3 1 3 4 4 2 6 3 3 4 3 3 3 503 2 4 4 7 24 5 3 3 3 2 4 4 3 2 5 178 1466 5 5 3 4 3 3 2 3 3 5 3 3 4 3 4 50 4 5 3 4 3 3 3 4 2 3 3 7 79 3 6 3 4 5 4 3 3 17 4 4 2 4 3 6 4 384 241 50 3 3 2 2 3 4 2 4 2 5 12 6 6 222 3 1 2 4 3 4 7 2 5 3 3 5 2 2 3 3 2 3 2 5 20451 3 2 2 6 3 3 4 5 3 2 2 5 3 1 3 4 3 3 3 4 5 4 2 3 3 7 2 3 503 2 4 3 2 2 4 2 5 4 2 3 3 4 6 6 5 2 5 4 6 2 3 2 1932 4 4 3 4 1 3 3 2 3 4 2 4 1 3 383 611 4 3 1465 3 4 6 3 3 5 3 2 3 4 2 3 2 3 4 4 3 2 2 2 4 4 3 3 4 2 4 6 3 3 2 3 1465 2 3 4 2 4 4 452 5 1 2 4 2 3 3 50 3 5 3 4 3 7 2 3 3 4 2 3 4 4 5 4 5 2 4 127 5 3 5 4 3 2 3 4 4 4 4 4 3 4 4 4 2 3 5 3 3 3 4 182 5 3 4 6 2 5 5 2 5 7 6 3 3 5 5 2 3 4 464 2 3 243 3 5 3 5 4 10 2 4 2 5 4 386 3 3 2 3 5 6 3 3 44 5 2928 3 3 384 923 3 4 2 5 6 3 4 4 2 3 3 2 4 4 4 2 6 1 3 3 963 5 3 2 505 4 858 3 3 3 3 4 3 3 1002 7 6 2 2 1 3 4 5 3 2 4 5 4 3 2 4 4 4 4 4 2 3 5 3 3 2 3 5 2 4 2 2 4 4 962 4 3 5 4 1923 2 3 3 1922 4 3 4 3 3 3 3 5 3 2 3 3 4 3 2 3 2 2 1 3 2 3 2 2 3 4 3 4 3 2 4 2 4 2 3 4 3 2 3 5 4 3 3 3 10 4 3 3 2 5 4 3 4 2 3 4 2 3 2 4 6 5 4 3 3 5 257 4 2 4 4 2 3 3 4 6 4 3 6 2 3 504 4 3 3 4 3 2 3 3 3 2 3 3 962 4 5 3 4 3 3 3 5 2 4 4 3 4 3 2 3 4 4 4 3 2 3 3 5 5 4 3 3 3 3 2 5 6 2 3 2 4 2 504 6 961 5 5 5 2 2 4 4 2 3 1463 2 1 28 4 13 3 5 3 3 3 3 3 7 3 3 2 2 4 3 5 6 5 2 3 4 3 4 3 4 3 207 11 5 3 4 4 4 4 1002 5 3 5 2 1 3 8 3 3 3 4 4 3 4 6 3 3 4 2 5 3 2 2 4 4 4 4 3 2 4 4 4 4 3 3 5 3 7 3 3 867 3 2 4 4 4 4 3 6 6 2 3 3 3 2 5 4 3 2 8 3 3 3 3 2 3 2 6 4 175 3 2 4 4 3 2 5 3 4 4 3 3 6 4 2 3 6 177 2 5 3 4 3 4 5 3 4 3 2 3 5 4 2 7 1 6 5 5 5 3 0 4 3 8 3 3 4 4 3 3 4 6 7 6 4 3 4 130 3 3 8 5 3 3 2 4 4 1 2 2 5 4 961 3 4 3 3 9 4 2 2 6 3 3 5 2 4 3 4 3 504 3 4 3 4 2 4 131 3 2 2 2 4 3 3 4 5 4 4 4 4 3 2 963 3 3 4 4 2 3 3 3 4 3 3 5 3 5 96 4 3 3 4 3 961 5 6 3 4 3 2 504 3 3 637 8 4 3 6 5 101 4 8 4 4 3 1462 2 3 2 2 2 1356 4 2 5 3 3 2 3 5 2 4 4 3 2 2 2 6 8 5 2 3 7 3 3 3 3 964 2 6 2 3 3 3 3 4 3 2 3 8 3 3 2 4 2 102 3 4 1465 3 3 3 105 3 2 4 3 1 3 3 4 4 1465 3 3 3 4 3 4 3 6 2 4 4 3 4 2 4 3 5 2 544 3 4 5 5 7 4 3 3 3 2 3 18 4 4 4 2 3 2 3 6 2 33 5 4 5 3 2 4 6 3 6 3 3 3 4 4 5 3 4 23 4 2 3998 2 4 3 501 5 2 4 4 6 4 4 3 2 3 4 3 3 4 4 4 3 4 3 2 5 4 2 5 4 3 5 1345 2 4 3 0 6 4 4 3 3 2 2 5 1462 6 4 3 1463 3 4 4 4 4 4 3 3 1004 4 4 3 4 4 5 4 3 3 4 3 2 3 4 802 
