
*** ChampSim Multicore Out-of-Order Simulator ***

Warmup Instructions: 50000000
Simulation Instructions: 50000000
Number of CPUs: 1
LLC sets: 2048
LLC ways: 16
Off-chip DRAM Size: 4096 MB Channels: 1 Width: 64-bit Data Rate: 6400 MT/s
CPU 0 runs ./micro_traces/srv82.trace.gz
.gz
ITLB has LRU replacement policy
DTLB has LRU replacement policy
STLB has LRU replacement policy
FDIP Prefetcher at L1I
L1I has LRU replacement policy
L1D has LRU replacement policy
Initialize SRRIP state for L2C
Initialize DRRIP state for LLC
Heartbeat CPU 0 instructions: 10000000 cycles: 2797620 heartbeat IPC: 3.57447 cumulative IPC: 3.57447 (Simulation time: 0 hr 2 min 29 sec) 
Heartbeat CPU 0 instructions: 20000002 cycles: 5594210 heartbeat IPC: 3.57578 cumulative IPC: 3.57513 (Simulation time: 0 hr 4 min 29 sec) 
Heartbeat CPU 0 instructions: 30000002 cycles: 8390854 heartbeat IPC: 3.57571 cumulative IPC: 3.57532 (Simulation time: 0 hr 6 min 36 sec) 
Heartbeat CPU 0 instructions: 40000000 cycles: 11187930 heartbeat IPC: 3.57516 cumulative IPC: 3.57528 (Simulation time: 0 hr 8 min 30 sec) 
Heartbeat CPU 0 instructions: 50000000 cycles: 13984357 heartbeat IPC: 3.57599 cumulative IPC: 3.57542 (Simulation time: 0 hr 10 min 27 sec) 

Warmup complete CPU 0 instructions: 50000004 cycles: 13984358 (Simulation time: 0 hr 10 min 27 sec) 

Cycle: 20000000 FTQ IN: 58306239 FTQ occupancy: 17.7371 DECODE IN: 58306239 DECODE occupancy: 47.68 ROB IN: 58306239 ROB occupancy: 308.746 ROB OUT: 58306229
Heartbeat CPU 0 instructions: 60000000 cycles: 21222574 heartbeat IPC: 1.38156 cumulative IPC: 1.38156 (Simulation time: 0 hr 12 min 14 sec) 
Heartbeat CPU 0 instructions: 70000000 cycles: 28519789 heartbeat IPC: 1.37039 cumulative IPC: 1.37595 (Simulation time: 0 hr 14 min 4 sec) 
Cycle: 30000000 FTQ IN: 13733022 FTQ occupancy: 5.68292 DECODE IN: 13733022 DECODE occupancy: 19.1972 ROB IN: 13733022 ROB occupancy: 215.303 ROB OUT: 13732853
Heartbeat CPU 0 instructions: 80000000 cycles: 35756296 heartbeat IPC: 1.38188 cumulative IPC: 1.37792 (Simulation time: 0 hr 15 min 53 sec) 
Cycle: 40000000 FTQ IN: 13808732 FTQ occupancy: 5.64745 DECODE IN: 13808593 DECODE occupancy: 19.2517 ROB IN: 13808533 ROB occupancy: 216.276 ROB OUT: 13808360
Heartbeat CPU 0 instructions: 90000000 cycles: 43066736 heartbeat IPC: 1.36791 cumulative IPC: 1.3754 (Simulation time: 0 hr 17 min 44 sec) 
Cycle: 50000000 FTQ IN: 13741110 FTQ occupancy: 5.67536 DECODE IN: 13741219 DECODE occupancy: 19.3457 ROB IN: 13741269 ROB occupancy: 216.665 ROB OUT: 13741545
Heartbeat CPU 0 instructions: 100000000 cycles: 50298714 heartbeat IPC: 1.38275 cumulative IPC: 1.37687 (Simulation time: 0 hr 19 min 24 sec) 
Finished CPU 0 instructions: 50000003 cycles: 36314362 cumulative IPC: 1.37687 (Simulation time: 0 hr 19 min 24 sec) 

ChampSim completed all CPUs

Region of Interest Statistics

CPU 0 cumulative IPC: 1.37687 instructions: 50000003 cycles: 36314362
 Fetch stage stalled: 63.9957  Sim cycles: 36314362 fetch stall cycle: 23239643
 Empty decode stage: 48.6486  Sim cycles: 36314362 fetch stall cycle: 17666417
ITLB TOTAL     ACCESS:    5574962  HIT:    5084419  MISS:     490543  HIT %:     91.201  MISS %:    8.79904   MPKI: 9.81086
ITLB LOAD TRANSLATION INSTRUCTION	ACCESS:    5458078  HIT:    4967535  MISS:     490543  HIT %:    91.0125  MISS %:    8.98747  MPKI: 9.81086
ITLB TRANSLATION FROM L1D PREFETCHER INSTRUCTION	ACCESS:     116884  HIT:     116884  MISS:          0  HIT %:        100  MISS %:          0  MPKI: 0

ITLB AVERAGE MISS LATENCY: 9.04911 cycles
ITLB RQ	ACCESS:    7410586	FORWARD:          0	MERGED:    1350823	TO_CACHE:    6059763

DTLB TOTAL     ACCESS:    8993599  HIT:    8523753  MISS:     469846  HIT %:    94.7758  MISS %:    5.22423   MPKI: 9.39692
DTLB LOAD TRANSLATION DATA	ACCESS:    8993599  HIT:    8523753  MISS:     469846  HIT %:    94.7758  MISS %:    5.22423  MPKI: 9.39692

DTLB AVERAGE MISS LATENCY: 9.32175 cycles
DTLB RQ	ACCESS:   13351251	FORWARD:          0	MERGED:    4321837	TO_CACHE:    9029414

STLB TOTAL     ACCESS:    1210497  HIT:    1208452  MISS:       2045  HIT %:    99.8311  MISS %:   0.168939   MPKI: 0.0409
STLB LOAD TRANSLATION INSTRUCTION	ACCESS:     490543  HIT:     490291  MISS:        252  HIT %:    99.9486  MISS %:  0.0513716  MPKI: 0.00504
STLB LOAD TRANSLATION DATA	ACCESS:     469727  HIT:     467952  MISS:       1775  HIT %:    99.6221  MISS %:   0.377879  MPKI: 0.0355
STLB TRANSLATION FROM L1D PREFETCHER DATA	ACCESS:     250227  HIT:     250209  MISS:         18  HIT %:    99.9928  MISS %: 0.00719347  MPKI: 0.00036

STLB AVERAGE MISS LATENCY: 71.9853 cycles
STLB RQ	ACCESS:    1333256	FORWARD:          0	MERGED:     122704	TO_CACHE:    1210552

STLB Hit, L1D data hit: 0
STLB Hit, L2C data hit: 0
STLB Hit, LLC data hit: 0
STLB Hit, LLC data miss: 0
STLB STLB hints to L2: 0
L1D TOTAL     ACCESS:   13107738  HIT:   12002409  MISS:    1105329  HIT %:    91.5674  MISS %:    8.43264   MPKI: 22.1066
L1D LOAD DATA	ACCESS:    6571360  HIT:    5843426  MISS:     727934  HIT %:    88.9226  MISS %:    11.0774  MPKI: 14.5587
L1D RFO DATA	ACCESS:    6203496  HIT:    5920107  MISS:     283389  HIT %:    95.4318  MISS %:    4.56821  MPKI: 5.66778
L1D PREFETCH DATA	ACCESS:     332882  HIT:     238876  MISS:      94006  HIT %:      71.76  MISS %:      28.24  MPKI: 1.88012

L1D PREFETCH  REQUESTED:     746157  ISSUED:     746157  USEFUL:      32886  USELESS:      68769
L1D USEFUL LOAD PREFETCHES:      32886 PREFETCH ISSUED TO LOWER LEVEL:     101722  ACCURACY: 32.3293
 TIMELY PREFETCHES:      32886 LATE PREFETCHES: 7658 DROPPED PREFETCHES: 10
L1D AVERAGE MISS LATENCY: 225410 cycles
L1D RQ	ACCESS:   10712402	FORWARD:          0	MERGED:    3944073	TO_CACHE:    6606074
L1D WQ	ACCESS:    6936838	FORWARD:     162682	MERGED:     191661	TO_CACHE:    6745177
L1D PQ	ACCESS:     373292	FORWARD:          0	MERGED:          0	TO_CACHE:     372865

L1D UNIQUE REGIONS ACCESSED: 0
L1D REGIONS CONFLICTS: 0
L1D Cross Page Prefetch Requests: 7080
L1D Same Page Prefetch Requests: 752408
L1D ROI Sum of L1D PQ occupancy: 4734986
L1D PREFETCHES PUSHED FROM L2C: 0
L1I TOTAL     ACCESS:    6855119  HIT:    4106942  MISS:    2748177  HIT %:    59.9106  MISS %:    40.0894   MPKI: 54.9635
L1I LOAD INSTRUCTION	ACCESS:    6345369  HIT:    3597192  MISS:    2748177  HIT %:      56.69  MISS %:      43.31  MPKI: 54.9635
L1I PREFETCH INSTRUCTION	ACCESS:     509750  HIT:     509750  MISS:          0  HIT %:        100  MISS %:          0  MPKI: 0

L1I PREFETCH  REQUESTED:    1112983  ISSUED:    1112983  USEFUL:          0  USELESS:          0
L1I USEFUL LOAD PREFETCHES:          0 PREFETCH ISSUED TO LOWER LEVEL:          0  ACCURACY: -nan
 TIMELY PREFETCHES:          0 LATE PREFETCHES: 0 DROPPED PREFETCHES: 0
L1I AVERAGE MISS LATENCY: 17.7811 cycles
L1I RQ	ACCESS:    9434856	FORWARD:          0	MERGED:    2821366	TO_CACHE:    6613490
L1I PQ	ACCESS:    1112983	FORWARD:          0	MERGED:     315887	TO_CACHE:     797096

L1BTB TOTAL     ACCESS:    5672565  HIT:    2059677  MISS:    3612888  HIT %:    36.3094  MISS %:    63.6906   MPKI: 72.2578
L1BTB BRANCH_DIRECT_JUMP	ACCESS:     549908  HIT:     146838  MISS:     403070	AVERAGE STALL: 24.8112
L1BTB BRANCH_INDIRECT	ACCESS:     183773  HIT:      66657  MISS:     117116	AVERAGE STALL: 91.2152
L1BTB BRANCH_CONDITIONAL	ACCESS:    2717858  HIT:    1429314  MISS:    1288544	AVERAGE STALL: 22.5423
L1BTB BRANCH_DIRECT_CALL	ACCESS:     939715  HIT:     105741  MISS:     833974	AVERAGE STALL: 25.3258
L1BTB BRANCH_INDIRECT_CALL	ACCESS:     170793  HIT:      20999  MISS:     149794	AVERAGE STALL: 123.882
L1BTB BRANCH_RETURN	ACCESS:    1110518  HIT:     290128  MISS:     820390	AVERAGE STALL: 25.1223
L1BTB BRANCH_OTHER ACCESS:          0  HIT:          0  MISS:          0	AVERAGE STALL: -nan
L1BTB TOTAL ROB OCCUPANCY AT BTB MISS: 23.3962

L2BTB TOTAL     ACCESS:    3587377  HIT:    3148370  MISS:     439007  HIT %:    87.7625  MISS %:    12.2375   MPKI: 8.78014
L2BTB BRANCH_DIRECT_JUMP	ACCESS:     398820  HIT:     349501  MISS:      49319	AVERAGE STALL: 24.8112
L2BTB BRANCH_INDIRECT	ACCESS:     106895  HIT:     101678  MISS:       5217	AVERAGE STALL: 91.2152
L2BTB BRANCH_CONDITIONAL	ACCESS:    1288544  HIT:    1143255  MISS:     145289	AVERAGE STALL: 22.5423
L2BTB BRANCH_DIRECT_CALL	ACCESS:     833974  HIT:     716926  MISS:     117048	AVERAGE STALL: 25.3258
L2BTB BRANCH_INDIRECT_CALL	ACCESS:     140157  HIT:     118407  MISS:      21750	AVERAGE STALL: 123.882
L2BTB BRANCH_RETURN	ACCESS:     818987  HIT:     718603  MISS:     100384	AVERAGE STALL: 25.1223
L2BTB BRANCH_OTHER ACCESS:          0  HIT:          0  MISS:          0	AVERAGE STALL: -nan
L2BTB TOTAL ROB OCCUPANCY AT BTB MISS: 192.543

L2C TOTAL     ACCESS:    4463997  HIT:    3920939  MISS:     543058  HIT %:    87.8347  MISS %:    12.1653   MPKI: 10.8612
L2C LOAD INSTRUCTION	ACCESS:    2748176  HIT:    2442835  MISS:     305341  HIT %:    88.8893  MISS %:    11.1107  MPKI: 6.10682
L2C LOAD TRANSLATION INSTRUCTION	ACCESS:        283  HIT:         48  MISS:        235  HIT %:    16.9611  MISS %:    83.0389  MPKI: 0.0047
L2C LOAD DATA	ACCESS:     720238  HIT:     638135  MISS:      82103  HIT %:    88.6006  MISS %:    11.3994  MPKI: 1.64206
L2C RFO DATA	ACCESS:     283301  HIT:     223240  MISS:      60061  HIT %:    78.7996  MISS %:    21.2004  MPKI: 1.20122
L2C PREFETCH DATA	ACCESS:     193274  HIT:     117703  MISS:      75571  HIT %:    60.8996  MISS %:    39.1004  MPKI: 1.51142
L2C WRITEBACK DATA	ACCESS:     516832  HIT:     498410  MISS:      18422  HIT %:    96.4356  MISS %:    3.56441  MPKI: 0.36844
L2C LOAD TRANSLATION DATA	ACCESS:       1851  HIT:        544  MISS:       1307  HIT %:    29.3895  MISS %:    70.6105  MPKI: 0.02614
L2C TRANSLATION FROM L1D PREFETCHER DATA	ACCESS:         42  HIT:         24  MISS:         18  HIT %:    57.1429  MISS %:    42.8571  MPKI: 0.00036

L2C PREFETCH  REQUESTED:      99425  ISSUED:      99425  USEFUL:       9760  USELESS:      66527
L2C USEFUL LOAD PREFETCHES:       9760 PREFETCH ISSUED TO LOWER LEVEL:      76225  ACCURACY: 12.8042
 TIMELY PREFETCHES:       9760 LATE PREFETCHES: 654 DROPPED PREFETCHES: 0
L2C AVERAGE MISS LATENCY: 37.214 cycles
L2C RQ	ACCESS:    3753959	FORWARD:          0	MERGED:          0	TO_CACHE:    3753891
L2C WQ	ACCESS:     516832	FORWARD:         68	MERGED:          0	TO_CACHE:     516832
L2C PQ	ACCESS:     201147	FORWARD:          0	MERGED:       3590	TO_CACHE:     197557

L2C Dense regions hint from L2: 0
PSCL5 TOTAL     ACCESS:       4114  HIT:       2057  MISS:       2057  HIT %:         50  MISS %:         50   MPKI: 0.04114
PSCL5 LOAD TRANSLATION INSTRUCTION	ACCESS:       4030  HIT:       2015  MISS:       2015  HIT %:         50  MISS %:         50  MPKI: 0.0403
PSCL5 TRANSLATION FROM L1D PREFETCHER INSTRUCTION	ACCESS:         84  HIT:         42  MISS:         42  HIT %:         50  MISS %:         50  MPKI: 0.00084


PSCL4 TOTAL     ACCESS:       3508  HIT:       1749  MISS:       1759  HIT %:    49.8575  MISS %:    50.1425   MPKI: 0.03518
PSCL4 LOAD TRANSLATION INSTRUCTION	ACCESS:       1762  HIT:       1714  MISS:         48  HIT %:    97.2758  MISS %:    2.72418  MPKI: 0.00096
PSCL4 TRANSLATION FROM L1D PREFETCHER INSTRUCTION	ACCESS:         35  HIT:         35  MISS:          0  HIT %:        100  MISS %:          0  MPKI: 0
PSCL4 LOAD TRANSLATION DATA	ACCESS:       1676  HIT:          0  MISS:       1676  HIT %:          0  MISS %:        100  MPKI: 0.03352
PSCL4 TRANSLATION FROM L1D PREFETCHER DATA	ACCESS:         35  HIT:          0  MISS:         35  HIT %:          0  MISS %:        100  MPKI: 0.0007


PSCL3 TOTAL     ACCESS:       3552  HIT:       1771  MISS:       1781  HIT %:    49.8592  MISS %:    50.1408   MPKI: 0.03562
PSCL3 LOAD TRANSLATION INSTRUCTION	ACCESS:       1784  HIT:       1736  MISS:         48  HIT %:    97.3094  MISS %:    2.69058  MPKI: 0.00096
PSCL3 TRANSLATION FROM L1D PREFETCHER INSTRUCTION	ACCESS:         35  HIT:         35  MISS:          0  HIT %:        100  MISS %:          0  MPKI: 0
PSCL3 LOAD TRANSLATION DATA	ACCESS:       1698  HIT:          0  MISS:       1698  HIT %:          0  MISS %:        100  MPKI: 0.03396
PSCL3 TRANSLATION FROM L1D PREFETCHER DATA	ACCESS:         35  HIT:          0  MISS:         35  HIT %:          0  MISS %:        100  MPKI: 0.0007


PSCL2 TOTAL     ACCESS:       4015  HIT:       1958  MISS:       2057  HIT %:    48.7671  MISS %:    51.2329   MPKI: 0.04114
PSCL2 LOAD TRANSLATION INSTRUCTION	ACCESS:       2167  HIT:       1916  MISS:        251  HIT %:    88.4172  MISS %:    11.5828  MPKI: 0.00502
PSCL2 TRANSLATION FROM L1D PREFETCHER INSTRUCTION	ACCESS:         42  HIT:         42  MISS:          0  HIT %:        100  MISS %:          0  MPKI: 0
PSCL2 LOAD TRANSLATION DATA	ACCESS:       1764  HIT:          0  MISS:       1764  HIT %:          0  MISS %:        100  MPKI: 0.03528
PSCL2 TRANSLATION FROM L1D PREFETCHER DATA	ACCESS:         42  HIT:          0  MISS:         42  HIT %:          0  MISS %:        100  MPKI: 0.00084


LLC TOTAL     ACCESS:     609806  HIT:     581716  MISS:      28090  HIT %:    95.3936  MISS %:    4.60638   MPKI: 0.5618
LLC LOAD INSTRUCTION	ACCESS:     305341  HIT:     304529  MISS:        812  HIT %:    99.7341  MISS %:   0.265932  MPKI: 0.01624
LLC LOAD TRANSLATION INSTRUCTION	ACCESS:        235  HIT:        210  MISS:         25  HIT %:    89.3617  MISS %:    10.6383  MPKI: 0.0005
LLC LOAD DATA	ACCESS:      81458  HIT:      78129  MISS:       3329  HIT %:    95.9132  MISS %:    4.08677  MPKI: 0.06658
LLC RFO DATA	ACCESS:      60049  HIT:      46434  MISS:      13615  HIT %:    77.3268  MISS %:    22.6732  MPKI: 0.2723
LLC PREFETCH DATA	ACCESS:      76225  HIT:      66282  MISS:       9943  HIT %:    86.9557  MISS %:    13.0443  MPKI: 0.19886
LLC WRITEBACK DATA	ACCESS:      85173  HIT:      84892  MISS:        281  HIT %:    99.6701  MISS %:   0.329917  MPKI: 0.00562
LLC LOAD TRANSLATION DATA	ACCESS:       1307  HIT:       1223  MISS:         84  HIT %:    93.5731  MISS %:    6.42693  MPKI: 0.00168
LLC TRANSLATION FROM L1D PREFETCHER DATA	ACCESS:         18  HIT:         17  MISS:          1  HIT %:    94.4444  MISS %:    5.55556  MPKI: 2e-05

LLC AVERAGE MISS LATENCY: 157.914 cycles
LLC RQ	ACCESS:     448411	FORWARD:          0	MERGED:          0	TO_CACHE:     448408
LLC WQ	ACCESS:      85173	FORWARD:          3	MERGED:          0	TO_CACHE:      85173
LLC PQ	ACCESS:      76225	FORWARD:          0	MERGED:          0	TO_CACHE:      76225

LLC Dense regions hint to LLC: 0

RAW hits: 1922481
Loads Generated: 12634884
Loads sent to L1D: 10712402
Stores Generated: 6936813
Stores sent to L1D: 6936838
Major fault: 0 Minor fault: 2579
Allocated PAGES: 2579

stream: 
stream:times selected: 1192116
stream:pref_filled: 121396
stream:pref_useful: 23630
stream:pref_late: 6540
stream:misses: 8285
stream:misses_by_poll: 0

CS: 
CS:times selected: 178442
CS:pref_filled: 60653
CS:pref_useful: 36533
CS:pref_late: 6925
CS:misses: 15885
CS:misses_by_poll: 4

CPLX: 
CPLX:times selected: 1012430
CPLX:pref_filled: 19426
CPLX:pref_useful: 4475
CPLX:pref_late: 3053
CPLX:misses: 92386
CPLX:misses_by_poll: 2

NL_L1: 
NL:times selected: 21325
NL:pref_filled: 681
NL:pref_useful: 296
NL:pref_late: 350
NL:misses: 1707
NL:misses_by_poll: 0

total selections: 2404313
total_filled: 94006
total_useful: 32886
total_late: 18228
total_polluted: 6
total_misses_after_warmup: 762645
conflicts: 5521538

test: 120050

DRAM Statistics
 CHANNEL 0
 RQ ROW_BUFFER_HIT:      10246  ROW_BUFFER_MISS:      17552
 DBUS_CONGESTED:         17
 WQ ROW_BUFFER_HIT:       1263  ROW_BUFFER_MISS:      12483  FULL:          0

 AVG_CONGESTED_CYCLE: 6

CPU 0 Branch Prediction Accuracy: 99.8211% MPKI: 0.32714 Average ROB Occupancy at Mispredict: 188.549
Branch types
NOT_BRANCH: 40856049 81.7121%
BRANCH_DIRECT_JUMP: 549908 1.09982%
BRANCH_INDIRECT: 183773 0.367546%
BRANCH_CONDITIONAL: 6188804 12.3776%
BRANCH_DIRECT_CALL: 939715 1.87943%
BRANCH_INDIRECT_CALL: 170793 0.341586%
BRANCH_RETURN: 1110518 2.22104%
BRANCH_OTHER: 0 0%

DRAM PAGES: 1048576
Allocated PAGES: 2579
Average_ROB_Occupancy: 217.286
Average_Decode_Occupancy: 19.2015
Average_FTQ_Occupancy: 5.64154
Indirect max targets: 14 Average targets: 1.15017
Branch_type:  BRANCH_DIRECT_JUMP:  Count Percentage: 3.32786 6.69666 3.79685 7.96304 2.23298 6.01588 1.27011 68.6966 
Branch_type:  BRANCH_INDIRECT:  Count Percentage: 6.17441 3.43917 8.16997 9.6987 3.33358 2.79908 3.06183 63.3233 
Branch_type:  BRANCH_CONDITIONAL:  Count Percentage: 21.9558 2.44348 1.50196 4.35999 1.6661 3.6369 1.04507 63.3907 
Branch_type:  BRANCH_DIRECT_CALL:  Count Percentage: 0.38978 1.25354 0.766385 4.06738 2.11736 2.88518 1.06814 87.4522 
Branch_type:  BRANCH_INDIRECT_CALL:  Count Percentage: 9.52462 0 2.98531 0 0 2.42421 3.27608 81.7898 
Branch_type:  BRANCH_RETURN:  Count Percentage: 3.72964 1.37935 1.03977 4.73935 4.4031 3.8833 1.45137 79.3741 
Branch_type:  BRANCH_DIRECT_JUMP:  Total Count: 36501 73451 41645 87341 24492 65984 13931 753485 
Branch_type:  BRANCH_INDIRECT:  Total Count: 22630 12605 29944 35547 12218 10259 11222 232088 
Branch_type:  BRANCH_CONDITIONAL:  Total Count: 2714179 302063 185672 538982 205963 449594 129191 7836359 
Branch_type:  BRANCH_DIRECT_CALL:  Total Count: 7337 23596 14426 76562 39856 54309 20106 1646151 
Branch_type:  BRANCH_INDIRECT_CALL:  Total Count: 32626 0 10226 0 0 8304 11222 280166 
Branch_type:  BRANCH_RETURN:  Total Count: 83010 30700 23142 105483 97999 86430 32303 1766617 
Number of unique branch instructions: 9828
Upper 32 bits: 
aaaa
ffff
ffff0000
Unique upper 32 bits: 3
Unique upper 36 bits: 3
Unique upper 40 bits: 5
Unique upper 44 bits: 32
Unique upper 48 bits: 153
Offset_3 4041
Offset_4 242
Offset_5 448
Offset_6 499
Offset_7 578
Offset_8 507
Offset_9 464
Offset_10 377
Offset_11 313
Offset_12 283
Offset_13 199
Offset_14 228
Offset_15 189
Offset_16 219
Offset_17 142
Offset_18 126
Offset_19 235
Offset_20 139
Offset_21 235
Offset_22 389
Offset_23 241
Offset_24 324
Offset_25 88
Offset_47 80
Offset_64 2
decode_dispatch_called: 22869867 62.9775
Dispatch_width: 0 11370617 49.7188 31.3116
Dispatch_width: 1 895521 3.91572 2.46602
Dispatch_width: 2 1036263 4.53113 2.85359
Dispatch_width: 3 683985 2.99077 1.88351
Dispatch_width: 4 3955014 17.2936 10.891
Dispatch_width: 5 411139 1.79773 1.13217
Dispatch_width: 6 4517328 19.7523 12.4395
Empty_decode_cycles: 13444495 37.0225
ROB_full_cycles: 5958022 16.4068
Starvation_cycles_per_kilo_instr: 258.39
Starvation_cycles_per_kilo_instr_3: 214.729
Starvation_cycles_per_kilo_instr_0: 188.571
Branch_type_1  (3,1)  (4,7)  (5,36)  (6,69)  (7,114)  (8,127)  (9,123)  (10,98)  (11,70)  (12,51)  (13,5)  (14,2)  (15,3)  (16,4)  (18,1)  (19,4)  (20,2)  (21,1)  (22,3)  (23,2)  (24,10)  (25,12) 
Branch_type_2  (3,1)  (5,1)  (8,3)  (9,3)  (12,1)  (13,1)  (14,1)  (16,3)  (17,2)  (20,2)  (21,2)  (23,5)  (24,1)  (47,36) 
Branch_type_3  (3,4039)  (4,235)  (5,407)  (6,414)  (7,433)  (8,317)  (9,255)  (10,152)  (11,128)  (12,58)  (13,4)  (64,2) 
Branch_type_4  (6,4)  (7,8)  (8,26)  (9,51)  (10,60)  (11,59)  (12,95)  (13,86)  (14,101)  (15,89)  (16,98)  (17,63)  (18,57)  (19,114)  (20,72)  (21,124)  (22,207)  (23,136)  (24,186)  (25,72) 
Branch_type_5  (8,2)  (9,1)  (10,3)  (11,5)  (12,3)  (13,14)  (14,16)  (15,11)  (16,20)  (17,11)  (18,16)  (19,12)  (20,10)  (21,13)  (22,42)  (23,26)  (24,36) 
Branch_type_6  (5,4)  (6,12)  (7,23)  (8,32)  (9,31)  (10,64)  (11,51)  (12,75)  (13,89)  (14,108)  (15,86)  (16,94)  (17,66)  (18,52)  (19,105)  (20,53)  (21,95)  (22,137)  (23,72)  (24,91)  (25,4)  (47,44) 
aaaaab1fc620: 2ac9e77e 2aca717c 2aca8eff 2acaf6bc 2acaf9aa 2acaf9f1 2acb1abc 2acb1b7f 2acd4e22 2acdb712 2acf5f9e 2ad0ef44 2ad3f15c 2ad414e6 2ad60e42 2ad8609c 2ad99830 2ada35cc 2ada4676 2ada6612 2adf183e 2adf30e5 2adf5602 2adf785c 2ae11572 2aeb2dcf 2aee101b 2aee1ae1 2b156a8c 2b156b61 2b156bea 2b167f35 2b177656 2b17feec 2b1a3e5a 
aaaaac68f310: 2ac9ec8c 2ac9fb44 2ac9fbd2 2aca59ab 2acac04c 2acaf6e0 2acaf6ec 2acaf6f9 2acaf700 2acaf708 2acf2d90 2ad3cfbd 2ad3cfc4 2ad3d000 2ad3f35f 2ad4955d 2ad49571 2ad4f3f2 2ad4f400 2ad5f240 2ad5f37c 2ad5f86a 2ad5f86f 2ad5f880 2ad5fc0d 2ad5fc14 2ad5fc21 2ad5fe1b 2ad873bb 2ad873e3 2ad8a6b2 2ad9086e 2ad93096 2ad9bbb2 2ada152c 2ada1554 2ada3332 2ada5522 2adf3130 2adf313c 2adf3a3f 2adf3bd9 2adf5788 2adf7a8d 2ae07f6b 2ae0857a 2ae0857e 2ae08630 2ae08634 2ae08637 2ae08642 2ae0866f 2ae086e4 2ae086ec 2ae08717 2ae0871b 2aee0170 2aee1d38 2aee75f4 2aee7662 2aee85ca 2aee85e4 2aee8eef 2af70b84 2af74e8f 2b17d843 
aaaaac690ef0: 2aca598b 2acb111b 2acb175f 2acb1772 2acbfaf4 2acbfb00 2acf374f 2acf6d43 2acfa5c8 2ad3baf1 2ad3d4ac 2ad3d4b8 2ad3f1cf 2ad486b2 2ad5a59b 2ad5fc64 2ad5fcf9 2ad6121c 2ad906e9 2ad907bf 2ad9bada 2ada16ce 2ada1ad5 2ada43df 2ada64c0 2ada72ee 2adeb71a 2adf3bcb 2adf7a38 2adf7c6a 2adf8872 2adf8880 2adf9959 2adf9abe 2ae07f78 2ae08503 2ae08754 2ae12e80 2aea3bea 2aecb509 2aee00b0 2aee2bdd 2aee5467 2aee5601 2aee8f20 2af703fd 2af7048b 2af74e74 
Unique trigger count: 
1 9376
2 494
3 84
4 28
5 9
6 9
7 6
8 1
9 3
10 1
11 1
12 2
13 3
16 2
17 2
19 3
35 1
48 1
66 1
BTB PER SET UNIQUE ADDR: 2 4 3 2 1 0 3 2 4 0 2 0 5 3 1 3 3 2 4 4 3 4 2 3 4 5 1 4 3 2 6 6 4 3 4 2 1 5 5 2 3 4 3 7 6 2 4 3 6 3 3 2 3 1 0 3 4 3 3 3 1 4 2 3 1 4 5 2 3 5 5 1 1 4 2 3 3 7 2 3 2 3 1 4 3 4 2 5 3 3 6 4 3 5 3 0 4 3 1 3 4 2 3 3 3 2 1 2 3 2 2 1 3 6 2 6 2 5 4 1 4 4 2 0 1 2 2 1 6 6 5 2 4 2 5 3 2 1 3 3 5 3 3 3 1 4 2 5 4 3 3 8 3 5 2 0 3 3 4 2 3 5 4 4 5 3 2 2 8 1 2 2 4 2 1 1 3 5 5 1 3 3 6 3 4 6 3 1 2 3 5 3 3 4 4 4 3 3 3 6 3 2 4 1 3 3 2 4 2 1 2 4 5 4 3 2 3 5 4 0 1 1 2 3 3 2 3 3 0 3 8 3 3 1 3 3 3 3 1 2 1 0 5 3 9 7 1 1 3 3 3 2 1 3 2 6 3 4 4 3 4 4 4 2 3 6 3 1 4 2 3 2 2 3 4 2 2 1 3 3 4 2 5 2 5 5 3 3 1 1 0 3 1 6 1 1 4 3 1 2 3 3 1 2 4 2 4 2 5 5 3 1 3 2 5 1 6 6 2 1 3 7 3 5 2 2 1 6 1 0 4 0 2 5 5 2 3 4 5 0 4 0 1 4 4 2 1 5 4 3 3 6 4 3 5 3 2 0 4 1 2 5 2 4 6 5 1 1 2 2 2 2 3 4 4 4 3 3 3 4 6 3 2 6 3 2 5 2 4 1 5 5 4 2 3 1 5 0 1 4 4 2 3 2 2 4 3 2 1 1 1 3 4 3 2 2 5 3 1 3 1 1 3 4 4 3 3 0 2 5 1 2 8 3 5 5 3 3 3 0 2 4 5 3 4 6 2 3 3 2 4 3 1 1 5 1 1 3 7 2 3 3 4 6 2 3 5 3 3 3 0 4 4 3 3 1 4 5 1 1 2 1 2 2 0 4 3 0 5 1 4 2 4 4 1 5 3 3 2 1 5 1 1 2 1 2 2 2 2 3 3 2 2 6 2 1 2 5 4 5 3 4 4 2 6 5 0 5 6 3 4 3 3 6 4 4 1 1 4 1 2 5 6 2 5 2 7 3 6 9 3 6 3 6 1 3 3 1 2 3 7 2 5 2 2 1 4 2 2 7 3 2 3 7 2 2 3 3 1 5 4 2 1 0 1 0 0 9 4 2 5 6 1 1 2 3 4 2 2 1 3 2 4 6 1 4 3 4 2 2 5 2 2 2 2 2 2 0 3 1 4 3 6 2 2 3 2 5 2 3 5 4 3 2 5 2 2 3 2 2 7 1 4 3 0 0 3 3 3 3 4 2 5 2 3 0 4 3 2 3 5 2 5 4 5 3 5 2 1 3 5 3 4 3 5 6 3 3 3 3 3 2 4 2 5 3 5 3 4 3 1 4 2 2 2 3 6 4 5 3 0 6 0 3 3 2 4 1 3 1 3 3 3 2 2 1 7 2 0 3 2 0 1 1 1 1 1 4 2 4 5 5 2 2 2 4 4 3 2 2 1 3 2 4 2 1 3 2 2 2 0 2 1 3 2 2 2 6 4 1 3 3 1 5 4 4 8 3 2 2 5 4 0 3 3 4 5 2 1 3 3 4 0 3 8 6 3 3 0 2 2 4 1 1 4 7 7 2 2 3 5 3 4 3 5 3 3 5 1 2 1 4 4 0 4 4 1 2 0 4 4 2 4 2 2 1 2 2 4 4 3 1 3 2 5 2 2 1 5 2 2 1 3 3 1 4 6 4 4 2 6 2 5 4 4 4 3 2 4 4 2 6 2 1 8 3 2 4 5 3 1 3 3 6 4 0 2 2 5 4 3 5 3 4 5 3 2 2 2 5 4 3 3 3 2 1 6 3 1 1 5 2 1 3 4 5 3 5 3 4 5 4 0 3 1 5 0 0 5 2 5 4 5 3 4 1 3 2 5 6 4 4 8 7 5 4 6 4 1 6 4 2 0 4 4 5 5 5 3 2 6 0 5 5 2 3 6 5 4 2 2 3 4 5 2 5 9 4 6 3 2 4 0 5 6 1 6 5 1 3 6 5 3 5 2 1 2 2 3 2 5 4 2 7 5 3 4 5 3 5 1 2 5 2 2 5 4 3 2 3 5 2 4 4 5 2 5 2 2 3 5 2 9 5 2 3 3 2 2 3 4 7 6 2 3 2 3 2 3 1 3 2 4 4 2 4 4 5 4 6 0 3 3 3 3 4 2 1 3 2 3 1 1 1 4 1 2 3 3 4 1 8 5 3 2 1 10 1 2 4 1 2 5 5 3 6 2 5 4 6 2 5 2 2 1 1 5 0 4 4 3 7 4 1 6 4 6 2 4 4 5 3 5 8 4 4 6 1 4 4 7 4 3 2 4 3 6 6 2 6 5 6 4 3 4 3 1 2 3 5 1 3 2 1 3 4 2 2 5 2 2 5 4 1 5 1 7 3 3 2 3 1 3 4 3 4 3 4 2 6 1 3 6 3 4 3 3 5 2 8 3 5 3 8 6 1 6 1 5 2 1 2 4 4 2 1 3 4 2 1 2 1 4 3 3 2 2 3 2 5 2 4 4 5 0 5 3 2 2 6 7 0 6 0 1 4 4 2 5 1 3 3 4 1 1 2 4 5 3 4 1 4 3 6 5 1 4 3 3 6 9 4 2 6 5 5 1 1 3 5 6 3 2 2 3 3 4 4 5 3 0 4 2 2 6 8 5 3 3 5 1 2 5 2 4 1 3 2 6 8 2 3 3 3 4 4 2 5 6 5 4 2 1 5 3 2 4 3 4 4 3 4 7 3 5 4 3 5 5 2 1 7 4 4 3 3 3 2 3 2 2 2 5 4 2 2 5 1 1 3 3 7 4 1 3 4 2 3 3 3 4 3 2 0 3 2 3 2 4 3 4 4 2 1 2 6 1 4 2 4 2 3 5 1 1 4 5 3 3 4 5 2 3 4 4 5 4 4 4 3 3 2 2 3 5 2 4 1 3 0 8 3 2 6 4 4 5 7 3 2 3 3 1 2 4 1 4 2 4 3 0 6 1 4 2 2 3 4 3 2 4 2 3 2 3 1 5 1 0 3 3 1 1 3 1 4 2 3 6 3 1 2 2 3 2 2 6 2 3 5 3 3 3 4 2 2 3 0 2 2 2 3 2 2 2 0 3 0 4 2 3 4 2 3 2 1 2 5 4 2 6 1 3 4 2 2 4 5 2 2 5 0 1 2 3 1 1 2 3 3 5 3 1 1 6 2 1 4 1 5 1 4 3 3 6 2 3 2 1 3 3 1 0 3 5 1 3 3 1 2 0 5 1 3 3 0 3 2 5 3 4 3 3 4 0 3 1 2 1 2 3 0 2 3 2 3 3 1 3 3 2 10 6 2 2 2 4 1 1 3 5 2 3 0 3 2 3 2 3 4 5 6 7 0 4 2 6 4 4 5 4 8 2 4 8 3 0 6 3 3 3 4 3 3 2 1 2 4 2 2 2 3 2 3 5 3 5 3 6 1 1 5 6 3 3 4 4 4 6 2 5 5 2 6 3 3 3 2 3 6 5 3 2 3 3 3 3 4 2 3 3 1 3 1 3 7 0 2 2 3 3 4 5 3 4 2 5 1 2 2 6 2 4 5 6 1 1 7 2 4 2 3 4 6 2 3 2 3 6 2 3 3 5 3 4 8 4 4 3 5 1 5 3 3 2 3 1 2 2 3 4 3 2 3 3 4 4 2 3 7 0 3 2 4 4 4 3 4 3 6 3 4 1 5 2 3 4 2 3 0 3 5 0 7 2 5 5 1 4 3 2 0 4 2 3 5 3 6 2 2 2 1 3 4 6 1 4 3 0 3 2 4 5 3 1 3 5 2 3 2 6 3 4 1 5 3 0 2 4 1 1 8 2 0 4 1 4 3 2 3 6 3 3 6 1 5 3 5 2 5 4 2 3 2 7 1 4 0 3 3 4 4 3 3 2 1 2 3 0 3 0 3 5 6 2 2 5 2 3 3 3 1 3 2 4 2 4 2 5 3 2 3 1 2 3 3 2 2 3 3 2 1 1 2 2 5 1 4 1 5 4 2 3 1 4 1 2 3 4 2 3 4 4 5 3 3 3 3 3 2 0 3 2 0 0 1 2 2 4 2 5 2 2 3 4 1 1 3 3 2 2 7 3 2 7 5 3 2 5 1 2 6 3 3 4 2 4 0 1 2 5 3 2 4 3 2 4 3 4 7 3 2 0 4 1 0 2 3 0 4 4 6 1 3 4 6 4 0 2 2 4 2 4 1 3 1 8 3 1 3 3 6 2 7 3 4 6 0 1 3 1 4 2 1 0 2 3 4 5 5 1 0 3 4 5 1 1 1 3 5 2 1 5 4 3 3 5 4 0 6 3 6 2 1 2 2 1 2 4 1 3 1 3 2 3 1 5 2 5 2 4 2 1 3 5 4 4 0 
BTB PER SET COUNT: 2 4 3 2 1 0 3 2 4 0 2 0 2502 3 1 3 3 2 4 1463 3 4 3 3 4 12 1 5 1463 2 3003 22 5 3 5 2 2920 750 745 2 3 4 4 2252 5265 2 4 3 1635 4 3 2 3 1 0 3 4 3 3 3 1 4 2 3 1 385 538 2 3 1006 746 1 1 4 2 4 504 759 2 3 2 3 1 4 3 5 2 9 3 3 2569 463 3 3801 3 0 4 3 1 3 4 2 3 3 3 2 1 2 3 2 2 1 3 2000 2 1846 2 8 4 1 4 4 2 0 1 2 2 1 2527 10 2006 2 4 3 1003 3 2 1 3 3 684 5 3 3 1 6 2 4293 4 3 3 6724 3 2504 2 0 3 3 4 2 3 996 4 4 6 1922 2 2 8220 1 2 2 4 2 1 1 3 8 970 1 3 3 6841 3 4 10 3 1 2 3 46 4 3 4 4 8 3 3 4 8 3 3 4 1 7 3 2 1464 2 1 3 6 16 4 3 2 3 345 4 0 1 1 2 3 3 2 3 37 0 3 5780 3 3 1 3 3 4 3 1 2 1 0 2498 3 9220 2087 1 1 3 3 3 2 1 3 2 2170 3 4 4 3 5 4 4 2 1463 1423 3 1 4 2 3 2 2 3 4 2 2 1 3 3 5 2 1998 2 749 2503 3 3 1 1 0 3 1 16 1 1 4 3 1 2 3 3 1 2 4 2 4 2 1999 996 3 1 4 2 992 1 2504 1242 2 1 3 2243 3 7 2 2 1 269 1 0 1003 0 2 15 1510 2 1003 4 24 0 4 0 1 1005 1005 2 1 6 5 3 3 114 4 3 58 3 2 0 4 1 2 7 2 5 2538 769 1 1 2 2 2 2 3 4 4 4 3 3 3 5 28 3 2 773 5 2 11 2 4 1 20 7 4 2 3 1 3302 0 2 4 4 2 3 2 2 5 1464 3 1 960 1 3 5 4 961 2 148 3 1 94 1 1 3 5 4 3 5 0 2 7 128 2 2758 3 983 2498 3 3 3 0 3 4 1243 3 4 1002 2 3 3 2 4 4 1 1 2000 2 1 3 1523 2 3 3 4 2014 2 3 5 3 3 3 0 5 34 503 3 1 4 992 1 1 2 1 2 502 0 4 3 0 29 1 4 2 4 4 1 22 3 3 2 1 1999 11 1 3 1 2 2 2 2 3 3 2 2 34 2 1 2 2499 4 513 3 1464 5 2 18 1500 0 2000 4806 3 4 3 3 23 4 505 2 1 5 1 2 1503 195 5 12 3 69 3 1014 9296 3 1516 6 2994 1 3 5 1 2 3 6799 2 2000 2 2 1 4 2 2 3028 3 2 3 5310 2 2 3 3 1 24 4 48 1 0 3 0 0 4009 5 2 1999 3002 1 1 961 3 4 2 2 1 4 2 6 1491 1 4 3 4 3 2 2498 2 2 2 2 2 922 0 3 1 4 503 3501 2 4 3 2 12 2 3 2001 1464 3 6 1002 2 2 3 2 2 3011 1 4 3 0 0 3 3 3 3 4 2 10 2 3 0 4 3 2 3 7894 2 24 4 2005 3 2934 1003 1 3 749 3 4 5 1500 3085 3 3 5 3 3 2 4 1003 1503 3 11 1463 4 3 2 1006 2 2 2 3 2004 4 15 39 0 2501 0 3 3 1003 4 1 3 1 3 3 5 2 1003 1 2475 2 0 3 2 0 1 1 1 1 1 4 2 4 1501 9 961 2 2 4 4 3 2 2 1 3 2 4 2 1 503 2 2 1001 0 2 1 5 2 2 2 2998 4 1 3 3 1 15 4 4 5807 3 4 2 7 5 0 101 3 6 2843 4 1 3 3 4 0 3 3162 4805 4 4 0 2 3 51 1 1 4 2240 2023 2 2 3 11 4 4 5 2007 3 4 20 1 4 1 4 4 0 4 6 2 2 0 4 4 2 4 2 2 1 2 3 4 84 3 1 3 2 2005 3 2 1 1501 2 2 1 3 1465 1 7 2017 4 4 2 2503 2 2000 6 4 4 4 2 4 4 2 4837 2 1 6218 962 2 5 1503 3 1 3 3 2306 4 0 3 2 24 4 3 4798 5 4 68 4 2 2 2 7 6 3 3 3 2 1 750 3 1 1 1620 2 1 32 6 2299 3 992 3 4 43 4 0 3 1 1501 0 0 1002 2 46 4 1501 3 6 1 4 2 1999 94 5 504 5304 3804 1501 4 2107 5 2 28 4 2 0 964 4 2503 29 1501 3 2 776 0 310 8 2 3 1416 2001 4 3 2 504 5 4803 3 18 1045 4 2009 6 2 4 0 388 26 1 7259 19 1 3 2008 15 504 8 2 2 2 2 3 3 1728 5 2 3502 7 3 4 1998 3 26 1 2 7 2 2 20 4 3 2 3 2013 2 2425 385 1746 4 22 4 2 3 1623 2 5059 24 2 3 3 2 2 3 4 3000 2002 4 3 2 4 2 3 2 4 2 5 4 3 4 5 2004 4 1511 0 3 3 3 1464 387 2 1 3 6 3 1 1 1 6 1 2 3 3 5 1 4003 1502 3 2 1 11186 1 2 4 1 2 2000 113 3 5300 3 24 4 2504 3 28 2 2 1 1 27 0 4 4 3 2019 4 1 2088 4 2503 2 504 4 11 3 2498 1885 4 4 2502 1 4 6 4804 4 3 2 4 3 1506 1994 2 2502 1506 2161 4 3 4 4 1 2 3 2004 1 3 2 1 3 6 2 2 516 2 2 19 5 1 9 1 5450 3 3 2 3 1 3 4 3 4 3 4 2 22 1 3 1770 3 4 3 3 2007 2 5816 3 1501 3 2645 7261 1 5299 1 19 2 1 2 504 4 2 1 5 103 3 1 2 501 4 3 3 2 2 3 2 1501 2 4 4 16 0 1999 3 2 2 40 7266 0 33 0 1 4 4 3 24 1 3 1002 4 2 1 2 4 16 3 4 1 4 3 7302 14 1 4 3 3 2993 10262 1933 2 7260 19 2000 1 1 4 2000 2498 3 2 2 3 3 4 4 13 3 0 4 2 2 3398 7887 3803 3 3 408 1 2 18 2 4 1 3 2 3003 6558 961 3 4 3 4 4 2 2000 2003 2498 4 2 1 17 3 2 6 4 4 4 3 4 2013 3 2000 4 503 1999 2502 6 1 3085 4 4 3 4 3 2 3 2 2 2 19 4 2 2 984 1 1 4 3 3004 9 1 3 4 2 3 3 3 4 3 3 0 3 2 3 2 4 3 9 4 2 1 2 1004 1 4 2 5 2 4 362 1 1 4 9 962 3 4 2507 3 3 48 4 14 4 4 4 4 5 2 2 4 2002 2 4 1 3 0 5727 3 2 2996 4 4 2497 6767 3 2 4 3 2 2 4 1 4 4 4 5 0 3829 1 4 2 2 3 4 4 3 1464 2 3 1343 3 2 489 1 0 3 3 1 2 1344 1 4 2 3 2004 4 1 2 2 3 2 2 2998 2 3 64 3 3 3 4 2 2 4 0 4 2 2 962 2 2 2 0 4 0 4 2 3 4 2 3 1001 1 6 7 24 2 2504 1 3 4 2 2 5 10 128 2 21450 0 1 2 3 1 1 2 4 3 2090 397 1 1 1337 2 1 4 1 2500 1 4 3 4 1984 4 3 2 1 3 3 1 0 3 6 1 3 3 1 2 0 3802 1 3 3 0 3 433 2003 3 4 3 3 4 0 3 1 2 1 2 4 0 2 3 2 3 7 1 3 3 2 3757 3003 2 2 2 4 1 1 3 1704 2 3 0 3 3 3 2 3 5 2498 18 5797 0 4 2 2250 4 4 15 4 3499 2 4 8289 3 0 3000 1463 3 3 4 3 3 2 1 2 963 2 2 2 3 2 3 1780 4 2000 3 1015 2998 1 1282 6800 3 6 6 4 4 3302 2 1661 2001 2 2005 3 252 384 2 1463 1507 15 186 7 3 3 3 3 4 2 3 3 1 3 1 3 2613 0 2 2 3 4 4 523 3 4 2 3841 1 2 2 1503 2 1504 1505 3003 1 1 6255 2 1004 2 3 5 2003 503 5 2 3 2999 2 505 3 4438 3 4 8727 4 4 14614 2997 1 2000 1463 3 2 3 1 2 2 3 4 3 2 4 3 4 4 2 149 3502 0 1464 2 1464 177 5 3 4 3 2381 3 804 1 2497 2 3 4 2 3 0 3 3055 0 5299 4 1281 2504 1 5 3 2 0 4 2 3 2299 3 4838 2 2 2 1 3 4 7299 1 4 545 0 3 2 4 2000 962 1 3 1962 2 3 2 2252 4 4 1 24 3 0 2 5 1461 1 3943 2 0 4 1 4 3 2 3 2441 3 435 2499 1 2498 3 2000 241 1999 89 2 3 2 4019 1 178 0 4 1462 5 4 3 3 2 1 2 463 0 3 0 3 9 3063 2 2 751 395 3 8 962 1 3 2 4 2 4 2 151 3 2 3 1 2 175 3 2 2 3 3 2 1 1 2 2 1470 1 4 1 3802 4 2 3 8 4 1 2 3 4 2 3 1003 4 1002 3 3 3 3 3 2 0 3 2 0 0 1 2 2 4 8 2497 2 2 3 4 1 1 3 3 2 2 3097 3 2 3249 2498 147 2 5 1 2 28 3 3 4 2 4 0 1 2 8 1004 2 4 3 2 4 3 4 2622 3 2 0 4 1 0 2 3 0 4 1465 1017 1 3 4 2470 4 0 2 2 6 2 4 1 3 1 3934 4 1 3 3 2505 6 3497 3 5 5055 0 1 3 1 4 3 1 0 2 3 4 19 8 1 0 3 4 1501 1 1 1 3 2503 2 1 15 4 3 4 1998 4 0 2508 3 2002 7 1 2 2 1 2 8 1 3 1 3 2 4 1 19 4 230 2 4 2 1 3 1491 4 4 0 
