
*** ChampSim Multicore Out-of-Order Simulator ***

Warmup Instructions: 50000000
Simulation Instructions: 50000000
Number of CPUs: 1
LLC sets: 2048
LLC ways: 16
Off-chip DRAM Size: 4096 MB Channels: 1 Width: 64-bit Data Rate: 6400 MT/s
CPU 0 runs ./micro_traces/srv92.trace.gz
.gz
ITLB has LRU replacement policy
DTLB has LRU replacement policy
STLB has LRU replacement policy
CPU 0 L1I next line prefetcher
L1I has LRU replacement policy
L1D has LRU replacement policy
Initialize SRRIP state for L2C
Initialize DRRIP state for LLC
Heartbeat CPU 0 instructions: 10000003 cycles: 2798184 heartbeat IPC: 3.57375 cumulative IPC: 3.57375 (Simulation time: 0 hr 1 min 39 sec) 
Heartbeat CPU 0 instructions: 20000003 cycles: 5595107 heartbeat IPC: 3.57536 cumulative IPC: 3.57455 (Simulation time: 0 hr 3 min 17 sec) 
Heartbeat CPU 0 instructions: 30000000 cycles: 8392460 heartbeat IPC: 3.57481 cumulative IPC: 3.57464 (Simulation time: 0 hr 4 min 54 sec) 
Heartbeat CPU 0 instructions: 40000003 cycles: 11189986 heartbeat IPC: 3.57459 cumulative IPC: 3.57463 (Simulation time: 0 hr 6 min 33 sec) 
Heartbeat CPU 0 instructions: 50000000 cycles: 13987235 heartbeat IPC: 3.57494 cumulative IPC: 3.57469 (Simulation time: 0 hr 8 min 11 sec) 

Warmup complete CPU 0 instructions: 50000004 cycles: 13987236 (Simulation time: 0 hr 8 min 11 sec) 

Cycle: 20000000 FTQ IN: 57654247 FTQ occupancy: 17.8847 DECODE IN: 57654203 DECODE occupancy: 47.1514 ROB IN: 57654143 ROB occupancy: 295.707 ROB OUT: 57653791
Heartbeat CPU 0 instructions: 60000002 cycles: 21841545 heartbeat IPC: 1.27319 cumulative IPC: 1.27319 (Simulation time: 0 hr 9 min 37 sec) 
Heartbeat CPU 0 instructions: 70000001 cycles: 29782020 heartbeat IPC: 1.25937 cumulative IPC: 1.26624 (Simulation time: 0 hr 11 min 3 sec) 
Cycle: 30000000 FTQ IN: 12624342 FTQ occupancy: 6.09885 DECODE IN: 12624364 DECODE occupancy: 17.3153 ROB IN: 12624424 ROB occupancy: 173.754 ROB OUT: 12624424
Heartbeat CPU 0 instructions: 80000002 cycles: 37777647 heartbeat IPC: 1.25068 cumulative IPC: 1.26101 (Simulation time: 0 hr 12 min 29 sec) 
Cycle: 40000000 FTQ IN: 12565698 FTQ occupancy: 5.96924 DECODE IN: 12565720 DECODE occupancy: 17.0293 ROB IN: 12565712 ROB occupancy: 173.632 ROB OUT: 12565712
Heartbeat CPU 0 instructions: 90000003 cycles: 45603486 heartbeat IPC: 1.27782 cumulative IPC: 1.26517 (Simulation time: 0 hr 13 min 53 sec) 
Cycle: 50000000 FTQ IN: 12734425 FTQ occupancy: 5.96447 DECODE IN: 12734394 DECODE occupancy: 17.2761 ROB IN: 12734398 ROB occupancy: 176.818 ROB OUT: 12734528
Heartbeat CPU 0 instructions: 100000000 cycles: 53552727 heartbeat IPC: 1.25798 cumulative IPC: 1.26373 (Simulation time: 0 hr 15 min 15 sec) 
Finished CPU 0 instructions: 50000001 cycles: 39565494 cumulative IPC: 1.26373 (Simulation time: 0 hr 15 min 15 sec) 

ChampSim completed all CPUs

Region of Interest Statistics

CPU 0 cumulative IPC: 1.26373 instructions: 50000001 cycles: 39565494
 Fetch stage stalled: 66.4566  Sim cycles: 39565494 fetch stall cycle: 26293882
 Empty decode stage: 49.2052  Sim cycles: 39565494 fetch stall cycle: 19468297
ITLB TOTAL     ACCESS:    7554735  HIT:    6942673  MISS:     612062  HIT %:    91.8983  MISS %:     8.1017   MPKI: 12.2412
ITLB LOAD TRANSLATION INSTRUCTION	ACCESS:    5821729  HIT:    5690254  MISS:     131475  HIT %:    97.7417  MISS %:    2.25835  MPKI: 2.6295
ITLB TRANSLATION FROM L1D PREFETCHER INSTRUCTION	ACCESS:    1733006  HIT:    1252419  MISS:     480587  HIT %:    72.2686  MISS %:    27.7314  MPKI: 9.61174

ITLB AVERAGE MISS LATENCY: 150923 cycles
ITLB RQ	ACCESS:   11462562	FORWARD:          0	MERGED:    3753401	TO_CACHE:    7709161

DTLB TOTAL     ACCESS:    9114915  HIT:    8646019  MISS:     468896  HIT %:    94.8557  MISS %:    5.14427   MPKI: 9.37792
DTLB LOAD TRANSLATION DATA	ACCESS:    9114915  HIT:    8646019  MISS:     468896  HIT %:    94.8557  MISS %:    5.14427  MPKI: 9.37792

DTLB AVERAGE MISS LATENCY: 9.38205 cycles
DTLB RQ	ACCESS:   13447479	FORWARD:          0	MERGED:    4297464	TO_CACHE:    9150015

STLB TOTAL     ACCESS:    1331718  HIT:    1329435  MISS:       2283  HIT %:    99.8286  MISS %:   0.171433   MPKI: 0.04566
STLB LOAD TRANSLATION INSTRUCTION	ACCESS:     128831  HIT:     128616  MISS:        215  HIT %:    99.8331  MISS %:   0.166885  MPKI: 0.0043
STLB TRANSLATION FROM L1D PREFETCHER INSTRUCTION	ACCESS:     483231  HIT:     483155  MISS:         76  HIT %:    99.9843  MISS %:  0.0157275  MPKI: 0.00152
STLB LOAD TRANSLATION DATA	ACCESS:     468895  HIT:     466935  MISS:       1960  HIT %:     99.582  MISS %:   0.418004  MPKI: 0.0392
STLB TRANSLATION FROM L1D PREFETCHER DATA	ACCESS:     250761  HIT:     250729  MISS:         32  HIT %:    99.9872  MISS %:  0.0127612  MPKI: 0.00064

STLB AVERAGE MISS LATENCY: 79.9063 cycles
STLB RQ	ACCESS:    1457696	FORWARD:          0	MERGED:     122193	TO_CACHE:    1335503

STLB Hit, L1D data hit: 0
STLB Hit, L2C data hit: 0
STLB Hit, LLC data hit: 0
STLB Hit, LLC data miss: 0
STLB STLB hints to L2: 0
L1D TOTAL     ACCESS:   13188660  HIT:   12072662  MISS:    1115998  HIT %:    91.5382  MISS %:     8.4618   MPKI: 22.32
L1D LOAD DATA	ACCESS:    6648968  HIT:    5912653  MISS:     736315  HIT %:    88.9259  MISS %:    11.0741  MPKI: 14.7263
L1D RFO DATA	ACCESS:    6210417  HIT:    5924283  MISS:     286134  HIT %:    95.3927  MISS %:    4.60732  MPKI: 5.72268
L1D PREFETCH DATA	ACCESS:     329275  HIT:     235726  MISS:      93549  HIT %:    71.5894  MISS %:    28.4106  MPKI: 1.87098

L1D PREFETCH  REQUESTED:     746502  ISSUED:     746502  USEFUL:      33988  USELESS:      68500
L1D USEFUL LOAD PREFETCHES:      33988 PREFETCH ISSUED TO LOWER LEVEL:     102621  ACCURACY: 33.1199
 TIMELY PREFETCHES:      33988 LATE PREFETCHES: 8919 DROPPED PREFETCHES: 7
L1D AVERAGE MISS LATENCY: 281207 cycles
L1D RQ	ACCESS:   10769059	FORWARD:          0	MERGED:    3916000	TO_CACHE:    6689808
L1D WQ	ACCESS:    6943889	FORWARD:     163743	MERGED:     186218	TO_CACHE:    6757671
L1D PQ	ACCESS:     373497	FORWARD:          0	MERGED:          0	TO_CACHE:     373005

L1D UNIQUE REGIONS ACCESSED: 0
L1D REGIONS CONFLICTS: 0
L1D Cross Page Prefetch Requests: 7042
L1D Same Page Prefetch Requests: 756441
L1D ROI Sum of L1D PQ occupancy: 4758905
L1D PREFETCHES PUSHED FROM L2C: 0
L1I TOTAL     ACCESS:   11091492  HIT:    7449578  MISS:    3641914  HIT %:    67.1648  MISS %:    32.8352   MPKI: 72.8383
L1I LOAD INSTRUCTION	ACCESS:    6567246  HIT:    6003009  MISS:     564237  HIT %:    91.4083  MISS %:    8.59168  MPKI: 11.2847
L1I PREFETCH INSTRUCTION	ACCESS:    4524246  HIT:    1446569  MISS:    3077677  HIT %:    31.9737  MISS %:    68.0263  MPKI: 61.5535

L1I PREFETCH  REQUESTED:    5167146  ISSUED:    5166679  USEFUL:    2364460  USELESS:     795216
L1I USEFUL LOAD PREFETCHES:    2364460 PREFETCH ISSUED TO LOWER LEVEL:    3159591  ACCURACY: 74.8344
 TIMELY PREFETCHES:    2364460 LATE PREFETCHES: 81920 DROPPED PREFETCHES: 10111
L1I AVERAGE MISS LATENCY: 749234 cycles
L1I RQ	ACCESS:    9443003	FORWARD:          0	MERGED:    2833278	TO_CACHE:    6609725
L1I PQ	ACCESS:    5166679	FORWARD:          0	MERGED:     313842	TO_CACHE:    4852837

L1BTB TOTAL     ACCESS:    5671895  HIT:    2048670  MISS:    3623225  HIT %:    36.1197  MISS %:    63.8803   MPKI: 72.4645
L1BTB BRANCH_DIRECT_JUMP	ACCESS:     548684  HIT:     145260  MISS:     403424	AVERAGE STALL: 25.4545
L1BTB BRANCH_INDIRECT	ACCESS:     183200  HIT:      66229  MISS:     116971	AVERAGE STALL: 109.002
L1BTB BRANCH_CONDITIONAL	ACCESS:    2711628  HIT:    1420403  MISS:    1291225	AVERAGE STALL: 27.2865
L1BTB BRANCH_DIRECT_CALL	ACCESS:     942902  HIT:     105458  MISS:     837444	AVERAGE STALL: 28.2392
L1BTB BRANCH_INDIRECT_CALL	ACCESS:     171292  HIT:      21140  MISS:     150152	AVERAGE STALL: 124.495
L1BTB BRANCH_RETURN	ACCESS:    1114189  HIT:     290180  MISS:     824009	AVERAGE STALL: 29.8738
L1BTB BRANCH_OTHER ACCESS:          0  HIT:          0  MISS:          0	AVERAGE STALL: -nan
L1BTB TOTAL ROB OCCUPANCY AT BTB MISS: 16.8743

L2BTB1 TOTAL     ACCESS:    3597740  HIT:    3187471  MISS:     410269  HIT %:    88.5965  MISS %:    11.4035   MPKI: 8.20538
L2BTB1 BRANCH_DIRECT_JUMP	ACCESS:     399229  HIT:     362395  MISS:      36834	AVERAGE STALL: 25.4545
L2BTB1 BRANCH_INDIRECT	ACCESS:     106659  HIT:      84370  MISS:      22289	AVERAGE STALL: 109.002
L2BTB1 BRANCH_CONDITIONAL	ACCESS:    1291225  HIT:    1181036  MISS:     110189	AVERAGE STALL: 27.2865
L2BTB1 BRANCH_DIRECT_CALL	ACCESS:     837444  HIT:     721806  MISS:     115638	AVERAGE STALL: 28.2392
L2BTB1 BRANCH_INDIRECT_CALL	ACCESS:     140576  HIT:     116010  MISS:      24566	AVERAGE STALL: 124.495
L2BTB1 BRANCH_RETURN	ACCESS:     822607  HIT:     721854  MISS:     100753	AVERAGE STALL: 29.8738
L2BTB1 BRANCH_OTHER ACCESS:          0  HIT:          0  MISS:          0	AVERAGE STALL: -nan
L2BTB1 TOTAL ROB OCCUPANCY AT BTB MISS: 149.022

L2C TOTAL     ACCESS:    6603970  HIT:    5582696  MISS:    1021274  HIT %:    84.5355  MISS %:    15.4645   MPKI: 20.4255
L2C LOAD INSTRUCTION	ACCESS:     482317  HIT:     390946  MISS:      91371  HIT %:    81.0558  MISS %:    18.9442  MPKI: 1.82742
L2C PREFETCH INSTRUCTION	ACCESS:    3159596  HIT:    2785487  MISS:     374109  HIT %:    88.1596  MISS %:    11.8404  MPKI: 7.48218
L2C LOAD TRANSLATION INSTRUCTION	ACCESS:        245  HIT:         70  MISS:        175  HIT %:    28.5714  MISS %:    71.4286  MPKI: 0.0035
L2C TRANSLATION FROM L1D PREFETCHER INSTRUCTION	ACCESS:       4351  HIT:       4221  MISS:        130  HIT %:    97.0122  MISS %:    2.98782  MPKI: 0.0026
L2C LOAD DATA	ACCESS:     727325  HIT:     578011  MISS:     149314  HIT %:    79.4708  MISS %:    20.5292  MPKI: 2.98628
L2C RFO DATA	ACCESS:     285958  HIT:     185460  MISS:     100498  HIT %:    64.8557  MISS %:    35.1443  MPKI: 2.00996
L2C PREFETCH DATA	ACCESS:    1420929  HIT:    1163836  MISS:     257093  HIT %:    81.9067  MISS %:    18.0933  MPKI: 5.14186
L2C WRITEBACK DATA	ACCESS:     521141  HIT:     474130  MISS:      47011  HIT %:    90.9792  MISS %:    9.02078  MPKI: 0.94022
L2C LOAD TRANSLATION DATA	ACCESS:       2043  HIT:        501  MISS:       1542  HIT %:    24.5228  MISS %:    75.4772  MPKI: 0.03084
L2C TRANSLATION FROM L1D PREFETCHER DATA	ACCESS:         65  HIT:         34  MISS:         31  HIT %:    52.3077  MISS %:    47.6923  MPKI: 0.00062

L2C PREFETCH  REQUESTED:    3267641  ISSUED:    3267641  USEFUL:      31546  USELESS:     602432
L2C USEFUL LOAD PREFETCHES:      31546 PREFETCH ISSUED TO LOWER LEVEL:     633009  ACCURACY: 4.9835
 TIMELY PREFETCHES:      31546 LATE PREFETCHES: 1807 DROPPED PREFETCHES: 0
L2C AVERAGE MISS LATENCY: 33.5498 cycles
L2C RQ	ACCESS:    1502398	FORWARD:          0	MERGED:          0	TO_CACHE:    1502304
L2C WQ	ACCESS:     521141	FORWARD:         94	MERGED:          0	TO_CACHE:     521141
L2C PQ	ACCESS:    6529853	FORWARD:          0	MERGED:    1929506	TO_CACHE:    4600347

L2C Dense regions hint from L2: 0
PSCL5 TOTAL     ACCESS:      12058  HIT:       6029  MISS:       6029  HIT %:         50  MISS %:         50   MPKI: 0.12058
PSCL5 LOAD TRANSLATION INSTRUCTION	ACCESS:       4310  HIT:       2155  MISS:       2155  HIT %:         50  MISS %:         50  MPKI: 0.0431
PSCL5 TRANSLATION FROM L1D PREFETCHER INSTRUCTION	ACCESS:       7748  HIT:       3874  MISS:       3874  HIT %:         50  MISS %:         50  MPKI: 0.07748


PSCL4 TOTAL     ACCESS:      11282  HIT:       5636  MISS:       5646  HIT %:    49.9557  MISS %:    50.0443   MPKI: 0.11292
PSCL4 LOAD TRANSLATION INSTRUCTION	ACCESS:       2754  HIT:       1990  MISS:        764  HIT %:    72.2585  MISS %:    27.7415  MPKI: 0.01528
PSCL4 TRANSLATION FROM L1D PREFETCHER INSTRUCTION	ACCESS:       5137  HIT:       3646  MISS:       1491  HIT %:    70.9753  MISS %:    29.0247  MPKI: 0.02982
PSCL4 LOAD TRANSLATION DATA	ACCESS:       1236  HIT:          0  MISS:       1236  HIT %:          0  MISS %:        100  MPKI: 0.02472
PSCL4 TRANSLATION FROM L1D PREFETCHER DATA	ACCESS:       2155  HIT:          0  MISS:       2155  HIT %:          0  MISS %:        100  MPKI: 0.0431


PSCL3 TOTAL     ACCESS:      11348  HIT:       5669  MISS:       5679  HIT %:    49.9559  MISS %:    50.0441   MPKI: 0.11358
PSCL3 LOAD TRANSLATION INSTRUCTION	ACCESS:       2787  HIT:       2023  MISS:        764  HIT %:     72.587  MISS %:     27.413  MPKI: 0.01528
PSCL3 TRANSLATION FROM L1D PREFETCHER INSTRUCTION	ACCESS:       5137  HIT:       3646  MISS:       1491  HIT %:    70.9753  MISS %:    29.0247  MPKI: 0.02982
PSCL3 LOAD TRANSLATION DATA	ACCESS:       1269  HIT:          0  MISS:       1269  HIT %:          0  MISS %:        100  MPKI: 0.02538
PSCL3 TRANSLATION FROM L1D PREFETCHER DATA	ACCESS:       2155  HIT:          0  MISS:       2155  HIT %:          0  MISS %:        100  MPKI: 0.0431


PSCL2 TOTAL     ACCESS:      10873  HIT:       5370  MISS:       5503  HIT %:    49.3884  MISS %:    50.6116   MPKI: 0.11006
PSCL2 LOAD TRANSLATION INSTRUCTION	ACCESS:       2282  HIT:       2036  MISS:        246  HIT %:      89.22  MISS %:      10.78  MPKI: 0.00492
PSCL2 TRANSLATION FROM L1D PREFETCHER INSTRUCTION	ACCESS:       6604  HIT:       3334  MISS:       3270  HIT %:    50.4846  MISS %:    49.5154  MPKI: 0.0654
PSCL2 LOAD TRANSLATION DATA	ACCESS:       1923  HIT:          0  MISS:       1923  HIT %:          0  MISS %:        100  MPKI: 0.03846
PSCL2 TRANSLATION FROM L1D PREFETCHER DATA	ACCESS:         64  HIT:          0  MISS:         64  HIT %:          0  MISS %:        100  MPKI: 0.00128


LLC TOTAL     ACCESS:    1120547  HIT:    1089145  MISS:      31402  HIT %:    97.1976  MISS %:    2.80238   MPKI: 0.62804
LLC LOAD INSTRUCTION	ACCESS:      90527  HIT:      89796  MISS:        731  HIT %:    99.1925  MISS %:   0.807494  MPKI: 0.01462
LLC PREFETCH INSTRUCTION	ACCESS:     372120  HIT:     371450  MISS:        670  HIT %:      99.82  MISS %:   0.180049  MPKI: 0.0134
LLC LOAD TRANSLATION INSTRUCTION	ACCESS:        175  HIT:        139  MISS:         36  HIT %:    79.4286  MISS %:    20.5714  MPKI: 0.00072
LLC TRANSLATION FROM L1D PREFETCHER INSTRUCTION	ACCESS:        130  HIT:        115  MISS:         15  HIT %:    88.4615  MISS %:    11.5385  MPKI: 0.0003
LLC LOAD DATA	ACCESS:     148369  HIT:     144333  MISS:       4036  HIT %:    97.2798  MISS %:    2.72024  MPKI: 0.08072
LLC RFO DATA	ACCESS:     100472  HIT:      85959  MISS:      14513  HIT %:    85.5552  MISS %:    14.4448  MPKI: 0.29026
LLC PREFETCH DATA	ACCESS:     260884  HIT:     249887  MISS:      10997  HIT %:    95.7847  MISS %:    4.21528  MPKI: 0.21994
LLC WRITEBACK DATA	ACCESS:     146297  HIT:     146026  MISS:        271  HIT %:    99.8148  MISS %:    0.18524  MPKI: 0.00542
LLC LOAD TRANSLATION DATA	ACCESS:       1542  HIT:       1410  MISS:        132  HIT %:    91.4397  MISS %:    8.56031  MPKI: 0.00264
LLC TRANSLATION FROM L1D PREFETCHER DATA	ACCESS:         31  HIT:         30  MISS:          1  HIT %:    96.7742  MISS %:    3.22581  MPKI: 2e-05

LLC AVERAGE MISS LATENCY: 158.767 cycles
LLC RQ	ACCESS:     341254	FORWARD:          0	MERGED:          0	TO_CACHE:     341246
LLC WQ	ACCESS:     146297	FORWARD:         13	MERGED:          0	TO_CACHE:     146297
LLC PQ	ACCESS:     633009	FORWARD:          0	MERGED:          0	TO_CACHE:     633004

LLC Dense regions hint to LLC: 0

RAW hits: 1866481
Loads Generated: 12635540
Loads sent to L1D: 10769059
Stores Generated: 6943879
Stores sent to L1D: 6943889
Major fault: 0 Minor fault: 2651
Allocated PAGES: 2651
I-Shadow cache 408 bytes
Touched + WorthPF tables 12288 bytes 
MMA filter 174 bytes 
FNL filter 272 bytes 
TOTAL PREFETCHER STORAGE SIZE: 31318 bytes
CPU 0 L1I next line prefetcher final stats

stream: 
stream:times selected: 1197579
stream:pref_filled: 116391
stream:pref_useful: 21530
stream:pref_late: 7949
stream:misses: 8267
stream:misses_by_poll: 0

CS: 
CS:times selected: 179526
CS:pref_filled: 54815
CS:pref_useful: 31394
CS:pref_late: 13322
CS:misses: 22395
CS:misses_by_poll: 0

CPLX: 
CPLX:times selected: 1016899
CPLX:pref_filled: 19364
CPLX:pref_useful: 3833
CPLX:pref_late: 3553
CPLX:misses: 96223
CPLX:misses_by_poll: 0

NL_L1: 
NL:times selected: 21088
NL:pref_filled: 594
NL:pref_useful: 236
NL:pref_late: 433
NL:misses: 1764
NL:misses_by_poll: 0

total selections: 2415092
total_filled: 93549
total_useful: 33988
total_late: 26780
total_polluted: 0
total_misses_after_warmup: 777160
conflicts: 5562867

test: 119141

DRAM Statistics
 CHANNEL 0
 RQ ROW_BUFFER_HIT:      11041  ROW_BUFFER_MISS:      20083
 DBUS_CONGESTED:          8
 WQ ROW_BUFFER_HIT:       1726  ROW_BUFFER_MISS:      13338  FULL:          0

 AVG_CONGESTED_CYCLE: 3

CPU 0 Branch Prediction Accuracy: 99.809% MPKI: 0.34924 Average ROB Occupancy at Mispredict: 163.707
Branch types
NOT_BRANCH: 40855985 81.712%
BRANCH_DIRECT_JUMP: 548684 1.09737%
BRANCH_INDIRECT: 183200 0.3664%
BRANCH_CONDITIONAL: 6183281 12.3666%
BRANCH_DIRECT_CALL: 942902 1.8858%
BRANCH_INDIRECT_CALL: 171292 0.342584%
BRANCH_RETURN: 1114189 2.22838%
BRANCH_OTHER: 0 0%

DRAM PAGES: 1048576
Allocated PAGES: 2651
Average_ROB_Occupancy: 175.781
Average_Decode_Occupancy: 17.2534
Average_FTQ_Occupancy: 6.03823
Indirect max targets: 14 Average targets: 1.17666
Branch_type:  BRANCH_DIRECT_JUMP:  Count Percentage: 4.44429 6.96901 3.76375 3.23078 2.76627 12.4918 6.26359 60.0705 
Branch_type:  BRANCH_INDIRECT:  Count Percentage: 13.751 3.48842 2.59115 0 1.33267 27.7647 15.4901 35.582 
Branch_type:  BRANCH_CONDITIONAL:  Count Percentage: 25.3211 3.08895 1.64601 5.86439 1.34031 9.25991 3.19717 50.2821 
Branch_type:  BRANCH_DIRECT_CALL:  Count Percentage: 0.870416 1.25838 0.755824 2.65565 2.66315 5.11673 2.21775 84.4621 
Branch_type:  BRANCH_INDIRECT_CALL:  Count Percentage: 9.55196 0 2.99309 0.00087748 0.882745 3.42305 1.00062 82.1477 
Branch_type:  BRANCH_RETURN:  Count Percentage: 9.95664 1.41934 0.733937 5.7703 2.23114 11.9223 2.80752 65.1588 
Branch_type:  BRANCH_DIRECT_JUMP:  Total Count: 48757 76455 41291 35444 30348 137044 68716 659016 
Branch_type:  BRANCH_INDIRECT:  Total Count: 50405 12787 9498 0 4885 101773 56780 130428 
Branch_type:  BRANCH_CONDITIONAL:  Total Count: 3130030 381835 203469 724917 165680 1144648 395213 6215536 
Branch_type:  BRANCH_DIRECT_CALL:  Total Count: 16369 23665 14214 49942 50083 96225 41707 1588391 
Branch_type:  BRANCH_INDIRECT_CALL:  Total Count: 32657 0 10233 3 3018 11703 3421 280853 
Branch_type:  BRANCH_RETURN:  Total Count: 221371 31557 16318 128294 49606 265075 62421 1448709 
Number of unique branch instructions: 10830
Upper 32 bits: 
aaaa
ffff
ffff0000
Unique upper 32 bits: 3
Unique upper 36 bits: 3
Unique upper 40 bits: 5
Unique upper 44 bits: 32
Unique upper 48 bits: 158
Offset_3 4484
Offset_4 257
Offset_5 485
Offset_6 540
Offset_7 639
Offset_8 582
Offset_9 525
Offset_10 428
Offset_11 356
Offset_12 326
Offset_13 238
Offset_14 247
Offset_15 191
Offset_16 234
Offset_17 173
Offset_18 151
Offset_19 262
Offset_20 141
Offset_21 235
Offset_22 413
Offset_23 241
Offset_24 353
Offset_25 117
Offset_47 94
decode_dispatch_called: 21796176 55.0889
Dispatch_width: 0 10848393 49.772 27.4188
Dispatch_width: 1 750114 3.44149 1.89588
Dispatch_width: 2 915963 4.2024 2.31506
Dispatch_width: 3 608018 2.78956 1.53674
Dispatch_width: 4 3027069 13.8881 7.65078
Dispatch_width: 5 394407 1.80952 0.996846
Dispatch_width: 6 5252212 24.0969 13.2747
Empty_decode_cycles: 17769318 44.9111
ROB_full_cycles: 4524193 11.4347
Starvation_cycles_per_kilo_instr: 297.891
Starvation_cycles_per_kilo_instr_3: 263.676
Starvation_cycles_per_kilo_instr_0: 240.935
Branch_type_1  (3,1)  (4,9)  (5,39)  (6,73)  (7,126)  (8,150)  (9,140)  (10,111)  (11,81)  (12,55)  (13,12)  (14,2)  (15,3)  (16,4)  (18,1)  (19,5)  (20,2)  (21,1)  (22,3)  (23,2)  (24,10)  (25,12) 
Branch_type_2  (3,1)  (4,1)  (5,1)  (8,4)  (9,4)  (10,1)  (12,1)  (13,1)  (14,1)  (16,3)  (17,2)  (20,2)  (21,2)  (23,5)  (24,1)  (47,43) 
Branch_type_3  (3,4482)  (4,247)  (5,441)  (6,451)  (7,483)  (8,361)  (9,286)  (10,174)  (11,142)  (12,62)  (13,10) 
Branch_type_4  (6,3)  (7,8)  (8,25)  (9,56)  (10,68)  (11,68)  (12,116)  (13,100)  (14,112)  (15,90)  (16,104)  (17,79)  (18,66)  (19,128)  (20,72)  (21,124)  (22,218)  (23,136)  (24,208)  (25,101) 
Branch_type_5  (8,3)  (9,1)  (10,4)  (11,5)  (12,3)  (13,14)  (14,16)  (15,11)  (16,22)  (17,13)  (18,23)  (19,14)  (20,11)  (21,13)  (22,43)  (23,26)  (24,38) 
Branch_type_6  (5,4)  (6,13)  (7,22)  (8,39)  (9,38)  (10,70)  (11,60)  (12,89)  (13,101)  (14,116)  (15,87)  (16,101)  (17,79)  (18,61)  (19,115)  (20,54)  (21,95)  (22,149)  (23,72)  (24,96)  (25,4)  (47,51) 
Unique trigger count: 
L2BTB1 768 4
L2BTB2 768 4
L2BTB3 768 4
L2BTB4 112 4
