
*** ChampSim Multicore Out-of-Order Simulator ***

Warmup Instructions: 50000000
Simulation Instructions: 50000000
Number of CPUs: 1
LLC sets: 2048
LLC ways: 16
Off-chip DRAM Size: 4096 MB Channels: 1 Width: 64-bit Data Rate: 6400 MT/s
CPU 0 runs ./micro_traces/srv92.trace.gz
.gz
ITLB has LRU replacement policy
DTLB has LRU replacement policy
STLB has LRU replacement policy
FDIP Prefetcher at L1I
L1I has LRU replacement policy
L1D has LRU replacement policy
Initialize SRRIP state for L2C
Initialize DRRIP state for LLC
Heartbeat_Variant_0 : 1304 0.15918 per_variant_size: 0 1304 0 0 0 0 0 0 0 
Heartbeat_Variant_1 : 2781 0.339478 per_variant_size: 0 1043 1738 0 0 0 0 0 0 
Heartbeat_Variant_2 : 0 0 per_variant_size: 0 0 0 0 0 0 0 0 0 
Heartbeat_Variant_3 : 0 0 per_variant_size: 0 0 0 0 0 0 0 0 0 
Heartbeat_Variant_0_evicts 0 : 7778 1 : 1675 2 : 0 3 : 0 
Heartbeat_Variant_1_evicts 0 : 1682 1 : 0 2 : 0 3 : 0 
Heartbeat_Variant_2_evicts 0 : 0 1 : 0 2 : 0 3 : 0 
Heartbeat_Variant_3_evicts 0 : 0 1 : 0 2 : 0 3 : 0 
Heartbeat CPU 0 instructions: 10000003 cycles: 2797598 heartbeat IPC: 3.5745 cumulative IPC: 3.5745 (Simulation time: 0 hr 1 min 41 sec) 
Heartbeat_Variant_0 : 1303 0.159058 per_variant_size: 0 1303 0 0 0 0 0 0 0 
Heartbeat_Variant_1 : 2787 0.34021 per_variant_size: 0 1037 1750 0 0 0 0 0 0 
Heartbeat_Variant_2 : 0 0 per_variant_size: 0 0 0 0 0 0 0 0 0 
Heartbeat_Variant_3 : 0 0 per_variant_size: 0 0 0 0 0 0 0 0 0 
Heartbeat_Variant_0_evicts 0 : 7984 1 : 1733 2 : 0 3 : 0 
Heartbeat_Variant_1_evicts 0 : 1734 1 : 0 2 : 0 3 : 0 
Heartbeat_Variant_2_evicts 0 : 0 1 : 0 2 : 0 3 : 0 
Heartbeat_Variant_3_evicts 0 : 0 1 : 0 2 : 0 3 : 0 
Heartbeat CPU 0 instructions: 20000003 cycles: 5593674 heartbeat IPC: 3.57644 cumulative IPC: 3.57547 (Simulation time: 0 hr 3 min 17 sec) 
Heartbeat_Variant_0 : 1365 0.166626 per_variant_size: 0 1365 0 0 0 0 0 0 0 
Heartbeat_Variant_1 : 2899 0.353882 per_variant_size: 0 1023 1876 0 0 0 0 0 0 
Heartbeat_Variant_2 : 0 0 per_variant_size: 0 0 0 0 0 0 0 0 0 
Heartbeat_Variant_3 : 0 0 per_variant_size: 0 0 0 0 0 0 0 0 0 
Heartbeat_Variant_0_evicts 0 : 8098 1 : 1788 2 : 0 3 : 0 
Heartbeat_Variant_1_evicts 0 : 1785 1 : 0 2 : 0 3 : 0 
Heartbeat_Variant_2_evicts 0 : 0 1 : 0 2 : 0 3 : 0 
Heartbeat_Variant_3_evicts 0 : 0 1 : 0 2 : 0 3 : 0 
Heartbeat CPU 0 instructions: 30000000 cycles: 8390083 heartbeat IPC: 3.57601 cumulative IPC: 3.57565 (Simulation time: 0 hr 4 min 51 sec) 
Heartbeat_Variant_0 : 1365 0.166626 per_variant_size: 0 1365 0 0 0 0 0 0 0 
Heartbeat_Variant_1 : 2901 0.354126 per_variant_size: 0 1023 1878 0 0 0 0 0 0 
Heartbeat_Variant_2 : 0 0 per_variant_size: 0 0 0 0 0 0 0 0 0 
Heartbeat_Variant_3 : 0 0 per_variant_size: 0 0 0 0 0 0 0 0 0 
Heartbeat_Variant_0_evicts 0 : 8105 1 : 1717 2 : 0 3 : 0 
Heartbeat_Variant_1_evicts 0 : 1717 1 : 0 2 : 0 3 : 0 
Heartbeat_Variant_2_evicts 0 : 0 1 : 0 2 : 0 3 : 0 
Heartbeat_Variant_3_evicts 0 : 0 1 : 0 2 : 0 3 : 0 
Heartbeat CPU 0 instructions: 40000003 cycles: 11187165 heartbeat IPC: 3.57516 cumulative IPC: 3.57553 (Simulation time: 0 hr 6 min 20 sec) 
Heartbeat_Variant_0 : 1374 0.167725 per_variant_size: 0 1374 0 0 0 0 0 0 0 
Heartbeat_Variant_1 : 2935 0.358276 per_variant_size: 0 1027 1908 0 0 0 0 0 0 
Heartbeat_Variant_2 : 0 0 per_variant_size: 0 0 0 0 0 0 0 0 0 
Heartbeat_Variant_3 : 0 0 per_variant_size: 0 0 0 0 0 0 0 0 0 
Heartbeat_Variant_0_evicts 0 : 7914 1 : 1587 2 : 0 3 : 0 
Heartbeat_Variant_1_evicts 0 : 1593 1 : 0 2 : 0 3 : 0 
Heartbeat_Variant_2_evicts 0 : 0 1 : 0 2 : 0 3 : 0 
Heartbeat_Variant_3_evicts 0 : 0 1 : 0 2 : 0 3 : 0 
Heartbeat CPU 0 instructions: 50000000 cycles: 13983709 heartbeat IPC: 3.57584 cumulative IPC: 3.57559 (Simulation time: 0 hr 7 min 43 sec) 

Warmup complete CPU 0 instructions: 50000004 cycles: 13983710 (Simulation time: 0 hr 7 min 43 sec) 

Cycle: 20000000 FTQ IN: 58204357 FTQ occupancy: 19.6037 DECODE IN: 58204323 DECODE occupancy: 51.0757 ROB IN: 58204276 ROB occupancy: 309.909 ROB OUT: 58204130
Heartbeat_Variant_0 : 1374 0.167725 per_variant_size: 0 1374 0 0 0 0 0 0 0 
Heartbeat_Variant_1 : 2935 0.358276 per_variant_size: 0 1028 1907 0 0 0 0 0 0 
Heartbeat_Variant_2 : 0 0 per_variant_size: 0 0 0 0 0 0 0 0 0 
Heartbeat_Variant_3 : 0 0 per_variant_size: 0 0 0 0 0 0 0 0 0 
Heartbeat_Variant_0_evicts 0 : 8049 1 : 1641 2 : 0 3 : 0 
Heartbeat_Variant_1_evicts 0 : 1641 1 : 0 2 : 0 3 : 0 
Heartbeat_Variant_2_evicts 0 : 0 1 : 0 2 : 0 3 : 0 
Heartbeat_Variant_3_evicts 0 : 0 1 : 0 2 : 0 3 : 0 
Heartbeat CPU 0 instructions: 60000002 cycles: 21313419 heartbeat IPC: 1.36431 cumulative IPC: 1.36431 (Simulation time: 0 hr 9 min 19 sec) 
Heartbeat_Variant_0 : 1377 0.168091 per_variant_size: 0 1377 0 0 0 0 0 0 0 
Heartbeat_Variant_1 : 2935 0.358276 per_variant_size: 0 1026 1909 0 0 0 0 0 0 
Heartbeat_Variant_2 : 0 0 per_variant_size: 0 0 0 0 0 0 0 0 0 
Heartbeat_Variant_3 : 0 0 per_variant_size: 0 0 0 0 0 0 0 0 0 
Heartbeat_Variant_0_evicts 0 : 8128 1 : 1617 2 : 0 3 : 0 
Heartbeat_Variant_1_evicts 0 : 1614 1 : 0 2 : 0 3 : 0 
Heartbeat_Variant_2_evicts 0 : 0 1 : 0 2 : 0 3 : 0 
Heartbeat_Variant_3_evicts 0 : 0 1 : 0 2 : 0 3 : 0 
Heartbeat CPU 0 instructions: 70000001 cycles: 28729731 heartbeat IPC: 1.34838 cumulative IPC: 1.3563 (Simulation time: 0 hr 10 min 52 sec) 
Cycle: 30000000 FTQ IN: 13530196 FTQ occupancy: 11.8835 DECODE IN: 13530198 DECODE occupancy: 30.2883 ROB IN: 13530185 ROB occupancy: 218.771 ROB OUT: 13530259
Heartbeat_Variant_0 : 1456 0.177734 per_variant_size: 0 1456 0 0 0 0 0 0 0 
Heartbeat_Variant_1 : 3115 0.380249 per_variant_size: 0 1031 2084 0 0 0 0 0 0 
Heartbeat_Variant_2 : 0 0 per_variant_size: 0 0 0 0 0 0 0 0 0 
Heartbeat_Variant_3 : 0 0 per_variant_size: 0 0 0 0 0 0 0 0 0 
Heartbeat_Variant_0_evicts 0 : 8070 1 : 1575 2 : 0 3 : 0 
Heartbeat_Variant_1_evicts 0 : 1580 1 : 0 2 : 0 3 : 0 
Heartbeat_Variant_2_evicts 0 : 0 1 : 0 2 : 0 3 : 0 
Heartbeat_Variant_3_evicts 0 : 0 1 : 0 2 : 0 3 : 0 
Heartbeat CPU 0 instructions: 80000002 cycles: 36225362 heartbeat IPC: 1.33411 cumulative IPC: 1.34882 (Simulation time: 0 hr 12 min 23 sec) 
Cycle: 40000000 FTQ IN: 13434849 FTQ occupancy: 11.6185 DECODE IN: 13434881 DECODE occupancy: 29.8495 ROB IN: 13434941 ROB occupancy: 218.371 ROB OUT: 13434982
Heartbeat_Variant_0 : 1457 0.177856 per_variant_size: 0 1457 0 0 0 0 0 0 0 
Heartbeat_Variant_1 : 3114 0.380127 per_variant_size: 0 1029 2085 0 0 0 0 0 0 
Heartbeat_Variant_2 : 0 0 per_variant_size: 0 0 0 0 0 0 0 0 0 
Heartbeat_Variant_3 : 0 0 per_variant_size: 0 0 0 0 0 0 0 0 0 
Heartbeat_Variant_0_evicts 0 : 8099 1 : 1609 2 : 0 3 : 0 
Heartbeat_Variant_1_evicts 0 : 1608 1 : 0 2 : 0 3 : 0 
Heartbeat_Variant_2_evicts 0 : 0 1 : 0 2 : 0 3 : 0 
Heartbeat_Variant_3_evicts 0 : 0 1 : 0 2 : 0 3 : 0 
Heartbeat CPU 0 instructions: 90000002 cycles: 43521164 heartbeat IPC: 1.37065 cumulative IPC: 1.35421 (Simulation time: 0 hr 13 min 54 sec) 
Cycle: 50000000 FTQ IN: 13672111 FTQ occupancy: 11.5903 DECODE IN: 13672039 DECODE occupancy: 29.7346 ROB IN: 13672039 ROB occupancy: 220.145 ROB OUT: 13672053
Heartbeat_Variant_0 : 1470 0.179443 per_variant_size: 0 1470 0 0 0 0 0 0 0 
Heartbeat_Variant_1 : 3157 0.385376 per_variant_size: 0 1015 2142 0 0 0 0 0 0 
Heartbeat_Variant_2 : 0 0 per_variant_size: 0 0 0 0 0 0 0 0 0 
Heartbeat_Variant_3 : 0 0 per_variant_size: 0 0 0 0 0 0 0 0 0 
Heartbeat_Variant_0_evicts 0 : 8156 1 : 1621 2 : 0 3 : 0 
Heartbeat_Variant_1_evicts 0 : 1621 1 : 0 2 : 0 3 : 0 
Heartbeat_Variant_2_evicts 0 : 0 1 : 0 2 : 0 3 : 0 
Heartbeat_Variant_3_evicts 0 : 0 1 : 0 2 : 0 3 : 0 
Heartbeat CPU 0 instructions: 100000000 cycles: 50940385 heartbeat IPC: 1.34785 cumulative IPC: 1.35294 (Simulation time: 0 hr 15 min 9 sec) 
Finished CPU 0 instructions: 50000000 cycles: 36956676 cumulative IPC: 1.35294 (Simulation time: 0 hr 15 min 9 sec) 

ChampSim completed all CPUs

Region of Interest Statistics

CPU 0 cumulative IPC: 1.35294 instructions: 50000000 cycles: 36956676
 Fetch stage stalled: 57.3056  Sim cycles: 36956676 fetch stall cycle: 21178251
 Empty decode stage: 40.1375  Sim cycles: 36956676 fetch stall cycle: 14833479
ITLB TOTAL     ACCESS:    5820857  HIT:    5328163  MISS:     492694  HIT %:    91.5357  MISS %:    8.46429   MPKI: 9.85388
ITLB LOAD TRANSLATION INSTRUCTION	ACCESS:    5704247  HIT:    5211553  MISS:     492694  HIT %:    91.3627  MISS %:    8.63732  MPKI: 9.85388
ITLB TRANSLATION FROM L1D PREFETCHER INSTRUCTION	ACCESS:     116610  HIT:     116610  MISS:          0  HIT %:        100  MISS %:          0  MPKI: 0

ITLB AVERAGE MISS LATENCY: 9.06382 cycles
ITLB RQ	ACCESS:    7927637	FORWARD:          0	MERGED:    1657087	TO_CACHE:    6270550

DTLB TOTAL     ACCESS:    9011640  HIT:    8542990  MISS:     468650  HIT %:    94.7995  MISS %:     5.2005   MPKI: 9.373
DTLB LOAD TRANSLATION DATA	ACCESS:    9011640  HIT:    8542990  MISS:     468650  HIT %:    94.7995  MISS %:     5.2005  MPKI: 9.373

DTLB AVERAGE MISS LATENCY: 9.3643 cycles
DTLB RQ	ACCESS:   13368324	FORWARD:          0	MERGED:    4319914	TO_CACHE:    9048410

STLB TOTAL     ACCESS:    1212049  HIT:    1209753  MISS:       2296  HIT %:    99.8106  MISS %:   0.189431   MPKI: 0.04592
STLB LOAD TRANSLATION INSTRUCTION	ACCESS:     492694  HIT:     492385  MISS:        309  HIT %:    99.9373  MISS %:  0.0627164  MPKI: 0.00618
STLB LOAD TRANSLATION DATA	ACCESS:     468649  HIT:     466693  MISS:       1956  HIT %:    99.5826  MISS %:    0.41737  MPKI: 0.03912
STLB TRANSLATION FROM L1D PREFETCHER DATA	ACCESS:     250706  HIT:     250675  MISS:         31  HIT %:    99.9876  MISS %:  0.0123651  MPKI: 0.00062

STLB AVERAGE MISS LATENCY: 75.7744 cycles
STLB RQ	ACCESS:    1333062	FORWARD:          0	MERGED:     120962	TO_CACHE:    1212100

STLB Hit, L1D data hit: 0
STLB Hit, L2C data hit: 0
STLB Hit, LLC data hit: 0
STLB Hit, LLC data miss: 0
STLB STLB hints to L2: 0
L1D TOTAL     ACCESS:   13117292  HIT:   12001367  MISS:    1115925  HIT %:    91.4927  MISS %:    8.50728   MPKI: 22.3185
L1D LOAD DATA	ACCESS:    6580180  HIT:    5845156  MISS:     735024  HIT %:    88.8297  MISS %:    11.1703  MPKI: 14.7005
L1D RFO DATA	ACCESS:    6207104  HIT:    5920740  MISS:     286364  HIT %:    95.3865  MISS %:    4.61349  MPKI: 5.72728
L1D PREFETCH DATA	ACCESS:     330008  HIT:     235471  MISS:      94537  HIT %:    71.3531  MISS %:    28.6469  MPKI: 1.89074

L1D PREFETCH  REQUESTED:     743896  ISSUED:     743896  USEFUL:      33912  USELESS:      68303
L1D USEFUL LOAD PREFETCHES:      33912 PREFETCH ISSUED TO LOWER LEVEL:     102288  ACCURACY: 33.1534
 TIMELY PREFETCHES:      33912 LATE PREFETCHES: 7666 DROPPED PREFETCHES: 10
L1D AVERAGE MISS LATENCY: 231740 cycles
L1D RQ	ACCESS:   10716388	FORWARD:          0	MERGED:    3934151	TO_CACHE:    6616754
L1D WQ	ACCESS:    6943889	FORWARD:     165941	MERGED:     192319	TO_CACHE:    6751570
L1D PQ	ACCESS:     372177	FORWARD:          0	MERGED:          0	TO_CACHE:     371719

L1D UNIQUE REGIONS ACCESSED: 0
L1D REGIONS CONFLICTS: 0
L1D Cross Page Prefetch Requests: 7149
L1D Same Page Prefetch Requests: 755080
L1D ROI Sum of L1D PQ occupancy: 4740402
L1D PREFETCHES PUSHED FROM L2C: 0
L1I TOTAL     ACCESS:    7133781  HIT:    4376192  MISS:    2757589  HIT %:    61.3446  MISS %:    38.6554   MPKI: 55.1518
L1I LOAD INSTRUCTION	ACCESS:    6485901  HIT:    3728312  MISS:    2757589  HIT %:    57.4833  MISS %:    42.5167  MPKI: 55.1518
L1I PREFETCH INSTRUCTION	ACCESS:     647880  HIT:     647880  MISS:          0  HIT %:        100  MISS %:          0  MPKI: 0

L1I PREFETCH  REQUESTED:    1551254  ISSUED:    1551254  USEFUL:          0  USELESS:          0
L1I USEFUL LOAD PREFETCHES:          0 PREFETCH ISSUED TO LOWER LEVEL:          0  ACCURACY: -nan
 TIMELY PREFETCHES:          0 LATE PREFETCHES: 0 DROPPED PREFETCHES: 0
L1I AVERAGE MISS LATENCY: 17.3423 cycles
L1I RQ	ACCESS:    9487323	FORWARD:          0	MERGED:    2680614	TO_CACHE:    6806709
L1I PQ	ACCESS:    1551254	FORWARD:          0	MERGED:     430326	TO_CACHE:    1120928

L1BTB TOTAL     ACCESS:    5671936  HIT:    2048676  MISS:    3623260  HIT %:    36.1195  MISS %:    63.8805   MPKI: 72.4652
L1BTB BRANCH_DIRECT_JUMP	ACCESS:     548685 HIT:     145258 MISS:     403427 AVERAGE STALL: 44.0299 AVERAGE FETCH STALL: 18.6726 AVERAGE FETCH QUEUE STALL: 11.0007 AVERAGE DECODE STALL: 13.4887 AVERAGE EXECUTE STALL: 1.60728e+15
L1BTB BRANCH_INDIRECT	ACCESS:     183200 HIT:      66213 MISS:     116987 AVERAGE STALL: 108.314 AVERAGE FETCH STALL: 11.4974 AVERAGE FETCH QUEUE STALL: 14.233 AVERAGE DECODE STALL: 12.1645 AVERAGE EXECUTE STALL: 69.4561
L1BTB BRANCH_CONDITIONAL	ACCESS:    2711665 HIT:    1420420 MISS:    1291245 AVERAGE STALL: 47.3835 AVERAGE FETCH STALL: 24.268 AVERAGE FETCH QUEUE STALL: 12.1304 AVERAGE DECODE STALL: 10.2609 AVERAGE EXECUTE STALL: 1.61927e+15
L1BTB BRANCH_DIRECT_CALL	ACCESS:     942904 HIT:     105459 MISS:     837445 AVERAGE STALL: 57.3369 AVERAGE FETCH STALL: 22.6299 AVERAGE FETCH QUEUE STALL: 17.9713 AVERAGE DECODE STALL: 16.0052 AVERAGE EXECUTE STALL: 8.841e+14
L1BTB BRANCH_INDIRECT_CALL	ACCESS:     171292 HIT:      21142 MISS:     150150 AVERAGE STALL: 130.053 AVERAGE FETCH STALL: 13.3121 AVERAGE FETCH QUEUE STALL: 11.5056 AVERAGE DECODE STALL: 9.80156 AVERAGE EXECUTE STALL: 94.9253
L1BTB BRANCH_RETURN	ACCESS:    1114190 HIT:     290184 MISS:     824006 AVERAGE STALL: 44.1499 AVERAGE FETCH STALL: 16.8745 AVERAGE FETCH QUEUE STALL: 4.3758 AVERAGE DECODE STALL: 6.03664 AVERAGE EXECUTE STALL: 4.07906e+14
L1BTB BRANCH_OTHER ACCESS:          0 HIT:          0 MISS:          0 AVERAGE STALL: -nan AVERAGE FETCH STALL: -nan AVERAGE FETCH QUEUE STALL: -nan AVERAGE DECODE STALL: -nan AVERAGE EXECUTE STALL: -nan
L1BTB TOTAL ROB OCCUPANCY AT BTB MISS: 4.07758

L2BTB TOTAL     ACCESS:    3597779  HIT:    3498726  MISS:      99053  HIT %:    97.2468  MISS %:    2.75317   MPKI: 1.98106
L2BTB BRANCH_DIRECT_JUMP	ACCESS:     399232 HIT:     391897 MISS:       7335 AVERAGE STALL: 44.0299 AVERAGE FETCH STALL: 18.6726 AVERAGE FETCH QUEUE STALL: 11.0007 AVERAGE DECODE STALL: 13.4887 AVERAGE EXECUTE STALL: 1.60728e+15
L2BTB BRANCH_INDIRECT	ACCESS:     106680 HIT:     103490 MISS:       3190 AVERAGE STALL: 108.314 AVERAGE FETCH STALL: 11.4974 AVERAGE FETCH QUEUE STALL: 14.233 AVERAGE DECODE STALL: 12.1645 AVERAGE EXECUTE STALL: 69.4561
L2BTB BRANCH_CONDITIONAL	ACCESS:    1291245 HIT:    1279638 MISS:      11607 AVERAGE STALL: 47.3835 AVERAGE FETCH STALL: 24.268 AVERAGE FETCH QUEUE STALL: 12.1304 AVERAGE DECODE STALL: 10.2609 AVERAGE EXECUTE STALL: 1.61927e+15
L2BTB BRANCH_DIRECT_CALL	ACCESS:     837445 HIT:     816509 MISS:      20936 AVERAGE STALL: 57.3369 AVERAGE FETCH STALL: 22.6299 AVERAGE FETCH QUEUE STALL: 17.9713 AVERAGE DECODE STALL: 16.0052 AVERAGE EXECUTE STALL: 8.841e+14
L2BTB BRANCH_INDIRECT_CALL	ACCESS:     140573 HIT:     128473 MISS:      12100 AVERAGE STALL: 130.053 AVERAGE FETCH STALL: 13.3121 AVERAGE FETCH QUEUE STALL: 11.5056 AVERAGE DECODE STALL: 9.80156 AVERAGE EXECUTE STALL: 94.9253
L2BTB BRANCH_RETURN	ACCESS:     822604 HIT:     778719 MISS:      43885 AVERAGE STALL: 44.1499 AVERAGE FETCH STALL: 16.8745 AVERAGE FETCH QUEUE STALL: 4.3758 AVERAGE DECODE STALL: 6.03664 AVERAGE EXECUTE STALL: 4.07906e+14
L2BTB BRANCH_OTHER ACCESS:          0 HIT:          0 MISS:          0 AVERAGE STALL: -nan AVERAGE FETCH STALL: -nan AVERAGE FETCH QUEUE STALL: -nan AVERAGE DECODE STALL: -nan AVERAGE EXECUTE STALL: -nan
L2BTB TOTAL ROB OCCUPANCY AT BTB MISS: 149.154

L2C TOTAL     ACCESS:    4478976  HIT:    3961941  MISS:     517035  HIT %:    88.4564  MISS %:    11.5436   MPKI: 10.3407
L2C LOAD INSTRUCTION	ACCESS:    2757589  HIT:    2488555  MISS:     269034  HIT %:    90.2439  MISS %:    9.75613  MPKI: 5.38068
L2C LOAD TRANSLATION INSTRUCTION	ACCESS:        349  HIT:         93  MISS:        256  HIT %:    26.6476  MISS %:    73.3524  MPKI: 0.00512
L2C LOAD DATA	ACCESS:     727344  HIT:     646962  MISS:      80382  HIT %:    88.9486  MISS %:    11.0514  MPKI: 1.60764
L2C RFO DATA	ACCESS:     286258  HIT:     216237  MISS:      70021  HIT %:    75.5392  MISS %:    24.4608  MPKI: 1.40042
L2C PREFETCH DATA	ACCESS:     184044  HIT:     109746  MISS:      74298  HIT %:    59.6303  MISS %:    40.3697  MPKI: 1.48596
L2C WRITEBACK DATA	ACCESS:     521293  HIT:     499692  MISS:      21601  HIT %:    95.8563  MISS %:    4.14373  MPKI: 0.43202
L2C LOAD TRANSLATION DATA	ACCESS:       2033  HIT:        616  MISS:       1417  HIT %:       30.3  MISS %:       69.7  MPKI: 0.02834
L2C TRANSLATION FROM L1D PREFETCHER DATA	ACCESS:         66  HIT:         40  MISS:         26  HIT %:    60.6061  MISS %:    39.3939  MPKI: 0.00052

L2C PREFETCH  REQUESTED:      90590  ISSUED:      90590  USEFUL:       8266  USELESS:      66637
L2C USEFUL LOAD PREFETCHES:       8266 PREFETCH ISSUED TO LOWER LEVEL:      74878  ACCURACY: 11.0393
 TIMELY PREFETCHES:       8266 LATE PREFETCHES: 580 DROPPED PREFETCHES: 0
L2C AVERAGE MISS LATENCY: 37.9668 cycles
L2C RQ	ACCESS:    3773674	FORWARD:          0	MERGED:          0	TO_CACHE:    3773639
L2C WQ	ACCESS:     521293	FORWARD:         35	MERGED:          0	TO_CACHE:     521293
L2C PQ	ACCESS:     192878	FORWARD:          0	MERGED:       3549	TO_CACHE:     189329

L2C Dense regions hint from L2: 0
PSCL5 TOTAL     ACCESS:       4622  HIT:       2311  MISS:       2311  HIT %:         50  MISS %:         50   MPKI: 0.04622
PSCL5 LOAD TRANSLATION INSTRUCTION	ACCESS:       4492  HIT:       2246  MISS:       2246  HIT %:         50  MISS %:         50  MPKI: 0.04492
PSCL5 TRANSLATION FROM L1D PREFETCHER INSTRUCTION	ACCESS:        130  HIT:         65  MISS:         65  HIT %:         50  MISS %:         50  MPKI: 0.0013


PSCL4 TOTAL     ACCESS:       4477  HIT:       2234  MISS:       2243  HIT %:    49.8995  MISS %:    50.1005   MPKI: 0.04486
PSCL4 LOAD TRANSLATION INSTRUCTION	ACCESS:       2317  HIT:       2178  MISS:        139  HIT %:    94.0009  MISS %:    5.99914  MPKI: 0.00278
PSCL4 TRANSLATION FROM L1D PREFETCHER INSTRUCTION	ACCESS:         56  HIT:         56  MISS:          0  HIT %:        100  MISS %:          0  MPKI: 0
PSCL4 LOAD TRANSLATION DATA	ACCESS:       2048  HIT:          0  MISS:       2048  HIT %:          0  MISS %:        100  MPKI: 0.04096
PSCL4 TRANSLATION FROM L1D PREFETCHER DATA	ACCESS:         56  HIT:          0  MISS:         56  HIT %:          0  MISS %:        100  MPKI: 0.00112


PSCL3 TOTAL     ACCESS:       4543  HIT:       2267  MISS:       2276  HIT %:    49.9009  MISS %:    50.0991   MPKI: 0.04552
PSCL3 LOAD TRANSLATION INSTRUCTION	ACCESS:       2350  HIT:       2211  MISS:        139  HIT %:    94.0851  MISS %:    5.91489  MPKI: 0.00278
PSCL3 TRANSLATION FROM L1D PREFETCHER INSTRUCTION	ACCESS:         56  HIT:         56  MISS:          0  HIT %:        100  MISS %:          0  MPKI: 0
PSCL3 LOAD TRANSLATION DATA	ACCESS:       2081  HIT:          0  MISS:       2081  HIT %:          0  MISS %:        100  MPKI: 0.04162
PSCL3 TRANSLATION FROM L1D PREFETCHER DATA	ACCESS:         56  HIT:          0  MISS:         56  HIT %:          0  MISS %:        100  MPKI: 0.00112


PSCL2 TOTAL     ACCESS:       4499  HIT:       2188  MISS:       2311  HIT %:     48.633  MISS %:     51.367   MPKI: 0.04622
PSCL2 LOAD TRANSLATION INSTRUCTION	ACCESS:       2435  HIT:       2124  MISS:        311  HIT %:    87.2279  MISS %:    12.7721  MPKI: 0.00622
PSCL2 TRANSLATION FROM L1D PREFETCHER INSTRUCTION	ACCESS:         64  HIT:         64  MISS:          0  HIT %:        100  MISS %:          0  MPKI: 0
PSCL2 LOAD TRANSLATION DATA	ACCESS:       1936  HIT:          0  MISS:       1936  HIT %:          0  MISS %:        100  MPKI: 0.03872
PSCL2 TRANSLATION FROM L1D PREFETCHER DATA	ACCESS:         64  HIT:          0  MISS:         64  HIT %:          0  MISS %:        100  MPKI: 0.00128


LLC TOTAL     ACCESS:     588913  HIT:     558855  MISS:      30058  HIT %:     94.896  MISS %:    5.10398   MPKI: 0.60116
LLC LOAD INSTRUCTION	ACCESS:     269034  HIT:     267632  MISS:       1402  HIT %:    99.4789  MISS %:   0.521124  MPKI: 0.02804
LLC LOAD TRANSLATION INSTRUCTION	ACCESS:        256  HIT:        211  MISS:         45  HIT %:    82.4219  MISS %:    17.5781  MPKI: 0.0009
LLC LOAD DATA	ACCESS:      79837  HIT:      76096  MISS:       3741  HIT %:    95.3142  MISS %:     4.6858  MPKI: 0.07482
LLC RFO DATA	ACCESS:      69982  HIT:      55574  MISS:      14408  HIT %:    79.4118  MISS %:    20.5882  MPKI: 0.28816
LLC PREFETCH DATA	ACCESS:      74878  HIT:      64849  MISS:      10029  HIT %:    86.6062  MISS %:    13.3938  MPKI: 0.20058
LLC WRITEBACK DATA	ACCESS:      93483  HIT:      93162  MISS:        321  HIT %:    99.6566  MISS %:   0.343378  MPKI: 0.00642
LLC LOAD TRANSLATION DATA	ACCESS:       1417  HIT:       1305  MISS:        112  HIT %:     92.096  MISS %:    7.90402  MPKI: 0.00224
LLC TRANSLATION FROM L1D PREFETCHER DATA	ACCESS:         26  HIT:         26  MISS:          0  HIT %:        100  MISS %:          0  MPKI: 0

LLC AVERAGE MISS LATENCY: 157.358 cycles
LLC RQ	ACCESS:     420556	FORWARD:          0	MERGED:          0	TO_CACHE:     420552
LLC WQ	ACCESS:      93483	FORWARD:          4	MERGED:          0	TO_CACHE:      93483
LLC PQ	ACCESS:      74878	FORWARD:          0	MERGED:          0	TO_CACHE:      74878

LLC Dense regions hint to LLC: 0

RAW hits: 1919159
Loads Generated: 12635545
Loads sent to L1D: 10716388
Stores Generated: 6943879
Stores sent to L1D: 6943889
Major fault: 0 Minor fault: 2651
Allocated PAGES: 2651

stream: 
stream:times selected: 1197873
stream:pref_filled: 121680
stream:pref_useful: 24070
stream:pref_late: 6992
stream:misses: 8219
stream:misses_by_poll: 0

CS: 
CS:times selected: 181648
CS:pref_filled: 60863
CS:pref_useful: 37493
CS:pref_late: 6707
CS:misses: 16090
CS:misses_by_poll: 1

CPLX: 
CPLX:times selected: 1015125
CPLX:pref_filled: 19099
CPLX:pref_useful: 4376
CPLX:pref_late: 3126
CPLX:misses: 93709
CPLX:misses_by_poll: 0

NL_L1: 
NL:times selected: 21271
NL:pref_filled: 733
NL:pref_useful: 357
NL:pref_late: 286
NL:misses: 1716
NL:misses_by_poll: 0

total selections: 2415917
total_filled: 94537
total_useful: 33912
total_late: 18428
total_polluted: 1
total_misses_after_warmup: 771602
conflicts: 5525894

test: 119036

DRAM Statistics
 CHANNEL 0
 RQ ROW_BUFFER_HIT:      11032  ROW_BUFFER_MISS:      18704
 DBUS_CONGESTED:         14
 WQ ROW_BUFFER_HIT:       1551  ROW_BUFFER_MISS:      12812  FULL:          0

 AVG_CONGESTED_CYCLE: 5

CPU 0 Branch Prediction Accuracy: 99.809% MPKI: 0.34924 Average ROB Occupancy at Mispredict: 174.36
Branch types
NOT_BRANCH: 40856148 81.7123%
BRANCH_DIRECT_JUMP: 548685 1.09737%
BRANCH_INDIRECT: 183200 0.3664%
BRANCH_CONDITIONAL: 6183325 12.3666%
BRANCH_DIRECT_CALL: 942904 1.88581%
BRANCH_INDIRECT_CALL: 171292 0.342584%
BRANCH_RETURN: 1114190 2.22838%
BRANCH_OTHER: 0 0%

DRAM PAGES: 1048576
Allocated PAGES: 2651
Average_ROB_Occupancy: 220.385
Average_Decode_Occupancy: 29.9984
Average_FTQ_Occupancy: 11.7245
Indirect max targets: 14 Average targets: 1.17666
Branch_type:  BRANCH_DIRECT_JUMP:  Count Percentage: 4.44428 6.969 3.76375 3.23078 2.76627 11.9589 6.26358 60.6034 
Branch_type:  BRANCH_INDIRECT:  Count Percentage: 13.751 3.48842 2.59115 0 1.33267 27.7647 15.4901 35.582 
Branch_type:  BRANCH_CONDITIONAL:  Count Percentage: 25.3214 3.08894 1.64601 5.86437 1.3403 8.97612 3.19716 50.5657 
Branch_type:  BRANCH_DIRECT_CALL:  Count Percentage: 0.870415 1.25838 0.755823 2.65564 2.66314 4.80586 2.21775 84.773 
Branch_type:  BRANCH_INDIRECT_CALL:  Count Percentage: 9.55196 0 2.99309 0.00087748 0.882745 3.42305 1.00062 82.1477 
Branch_type:  BRANCH_RETURN:  Count Percentage: 9.95663 1.41934 0.733937 5.7703 2.23114 11.6594 2.80752 65.4218 
Branch_type:  BRANCH_DIRECT_JUMP:  Total Count: 48757 76455 41291 35444 30348 131198 68716 664863 
Branch_type:  BRANCH_INDIRECT:  Total Count: 50405 12787 9498 0 4885 101773 56780 130428 
Branch_type:  BRANCH_CONDITIONAL:  Total Count: 3130068 381835 203469 724917 165680 1109572 395213 6250618 
Branch_type:  BRANCH_DIRECT_CALL:  Total Count: 16369 23665 14214 49942 50083 90379 41707 1594239 
Branch_type:  BRANCH_INDIRECT_CALL:  Total Count: 32657 0 10233 3 3018 11703 3421 280853 
Branch_type:  BRANCH_RETURN:  Total Count: 221371 31557 16318 128294 49606 259229 62421 1454556 
Number of unique branch instructions: 10830
Upper 32 bits: 
aaaa
ffff
ffff0000
Unique upper 32 bits: 3
Unique upper 36 bits: 3
Unique upper 40 bits: 5
Unique upper 44 bits: 32
Unique upper 48 bits: 158
Variant_0 : 1470 0.179443
Variant_1 : 3157 0.385376
Variant_2 : 0 0
Variant_3 : 0 0
Offset_3 4484
Offset_4 257
Offset_5 485
Offset_6 540
Offset_7 639
Offset_8 582
Offset_9 525
Offset_10 428
Offset_11 356
Offset_12 326
Offset_13 238
Offset_14 247
Offset_15 191
Offset_16 234
Offset_17 173
Offset_18 151
Offset_19 262
Offset_20 141
Offset_21 235
Offset_22 413
Offset_23 241
Offset_24 353
Offset_25 117
Offset_47 94
decode_dispatch_called: 24217514 65.5295
Dispatch_width: 0 12822349 52.9466 34.6956
Dispatch_width: 1 848468 3.50353 2.29585
Dispatch_width: 2 783107 3.23364 2.11899
Dispatch_width: 3 470028 1.94086 1.27184
Dispatch_width: 4 4701541 19.4138 12.7218
Dispatch_width: 5 183218 0.756552 0.495764
Dispatch_width: 6 4408803 18.205 11.9297
Empty_decode_cycles: 12739162 34.4705
ROB_full_cycles: 7460361 20.1868
Starvation_cycles_per_kilo_instr: 250.875
Starvation_cycles_per_kilo_instr_3: 202.028
Starvation_cycles_per_kilo_instr_0: 181.011
Branch_type_1  (3,1)  (4,9)  (5,39)  (6,73)  (7,126)  (8,150)  (9,140)  (10,111)  (11,81)  (12,55)  (13,12)  (14,2)  (15,3)  (16,4)  (18,1)  (19,5)  (20,2)  (21,1)  (22,3)  (23,2)  (24,10)  (25,12) 
Branch_type_2  (3,1)  (4,1)  (5,1)  (8,4)  (9,4)  (10,1)  (12,1)  (13,1)  (14,1)  (16,3)  (17,2)  (20,2)  (21,2)  (23,5)  (24,1)  (47,43) 
Branch_type_3  (3,4482)  (4,247)  (5,441)  (6,451)  (7,483)  (8,361)  (9,286)  (10,174)  (11,142)  (12,62)  (13,10) 
Branch_type_4  (6,3)  (7,8)  (8,25)  (9,56)  (10,68)  (11,68)  (12,116)  (13,100)  (14,112)  (15,90)  (16,104)  (17,79)  (18,66)  (19,128)  (20,72)  (21,124)  (22,218)  (23,136)  (24,208)  (25,101) 
Branch_type_5  (8,3)  (9,1)  (10,4)  (11,5)  (12,3)  (13,14)  (14,16)  (15,11)  (16,22)  (17,13)  (18,23)  (19,14)  (20,11)  (21,13)  (22,43)  (23,26)  (24,38) 
Branch_type_6  (5,4)  (6,13)  (7,22)  (8,39)  (9,38)  (10,70)  (11,60)  (12,89)  (13,101)  (14,116)  (15,87)  (16,101)  (17,79)  (18,61)  (19,115)  (20,54)  (21,95)  (22,149)  (23,72)  (24,96)  (25,4)  (47,51) 
Unique trigger count: 
Variant_0_evicts_0 : 0
Variant_0_evicts_1 : 0
Variant_0_evicts_2 : 0
Variant_0_evicts_3 : 0
Variant_1_evicts_0 : 0
Variant_1_evicts_1 : 0
Variant_1_evicts_2 : 0
Variant_1_evicts_3 : 0
Variant_2_evicts_0 : 0
Variant_2_evicts_1 : 0
Variant_2_evicts_2 : 0
Variant_2_evicts_3 : 0
Variant_3_evicts_0 : 0
Variant_3_evicts_1 : 0
Variant_3_evicts_2 : 0
Variant_3_evicts_3 : 0
BTB PER SET UNIQUE ADDR: 3 4 3 3 1 1 3 2 4 0 2 0 5 3 1 3 3 2 4 5 3 4 2 3 4 5 2 3 3 3 6 6 4 4 5 2 1 6 6 2 4 4 4 7 6 4 4 4 6 3 3 2 3 1 0 3 4 3 3 3 1 4 2 3 1 4 6 4 3 5 5 1 1 4 2 3 3 7 2 4 2 2 1 4 3 4 2 5 3 3 6 5 3 5 3 0 3 4 2 3 4 4 3 3 4 2 1 2 3 2 2 2 3 6 2 6 2 5 4 1 5 4 2 0 1 2 2 2 7 6 6 2 3 3 6 4 2 2 3 3 5 4 4 2 2 4 3 5 5 5 3 9 3 5 4 1 4 4 3 3 5 6 5 4 7 6 2 2 9 3 2 3 5 3 1 2 4 5 6 1 3 5 7 4 7 6 4 1 2 3 6 3 3 4 4 4 4 3 2 5 3 2 3 2 3 3 2 5 3 1 2 4 5 3 4 2 2 5 3 0 1 3 2 4 3 2 4 3 0 4 8 4 2 4 4 4 5 1 2 3 1 0 6 4 12 7 1 3 4 3 3 1 1 4 2 7 3 5 4 3 4 4 4 2 3 7 3 2 4 2 3 2 2 3 4 2 1 1 3 3 4 3 6 2 5 5 3 3 1 1 0 3 1 5 2 1 5 3 2 2 3 3 2 2 3 2 4 2 8 5 4 1 3 2 5 2 7 6 2 4 4 6 3 4 2 3 2 7 1 2 5 0 2 5 5 2 3 4 6 0 4 0 1 5 5 3 1 4 4 5 4 8 6 3 5 3 2 0 5 1 2 5 2 4 7 5 1 1 2 1 3 2 2 4 4 4 3 4 3 4 5 3 1 5 3 2 5 2 6 1 5 4 4 2 3 1 5 0 1 4 4 2 5 2 2 4 4 3 1 1 1 3 6 4 2 3 6 3 1 3 1 1 4 4 4 6 2 0 2 5 2 2 9 3 5 5 3 3 4 0 3 4 5 4 5 6 2 4 3 2 4 3 1 3 5 1 1 4 7 3 3 3 5 6 1 3 5 2 3 3 0 4 5 2 2 1 4 5 2 1 2 1 2 2 0 4 3 0 6 1 5 2 3 4 1 6 3 3 3 1 5 1 1 1 2 2 2 2 2 3 4 2 5 8 2 1 2 5 4 6 4 5 4 3 6 6 1 7 6 4 6 3 4 6 3 4 2 1 4 1 2 5 7 3 6 2 8 3 7 9 4 6 4 6 1 3 3 1 4 4 7 3 5 3 2 1 4 3 3 7 4 2 3 8 3 2 3 4 1 5 5 2 2 0 1 0 0 9 5 3 6 8 2 2 3 3 6 3 5 3 7 3 6 8 4 4 3 4 2 2 5 3 3 3 2 3 2 0 3 1 5 3 8 2 2 4 3 5 2 3 5 4 4 3 5 5 3 5 3 3 8 1 4 4 1 0 4 4 3 5 4 2 5 2 3 1 5 3 2 3 6 2 5 4 6 4 5 3 2 4 5 5 4 4 5 7 3 3 3 3 4 2 6 2 5 3 5 4 4 3 1 5 2 3 3 3 6 4 5 5 0 6 0 3 3 3 3 1 3 1 3 4 3 1 2 1 8 2 0 3 2 0 1 1 1 3 1 4 2 4 6 5 2 1 3 5 8 3 2 2 2 3 2 4 2 2 4 2 4 2 0 2 1 4 2 2 3 6 4 1 3 3 1 5 4 4 8 2 2 2 4 3 0 3 3 4 5 2 2 3 5 4 0 3 8 6 3 5 0 3 2 4 1 1 4 7 7 2 3 2 6 3 5 3 4 4 3 5 1 2 1 3 4 0 5 3 1 2 0 4 5 2 4 2 2 3 3 3 4 4 3 1 3 2 5 3 2 2 5 3 2 2 3 4 2 5 7 5 5 2 6 3 5 4 5 5 4 2 4 5 2 6 2 1 9 3 3 4 5 4 2 4 3 6 4 0 2 3 5 4 3 6 4 5 6 3 2 3 3 4 5 2 3 4 3 1 6 4 2 1 5 2 2 4 5 5 4 5 3 5 5 4 1 3 1 6 0 3 6 2 6 5 5 3 4 1 3 2 5 9 5 4 9 7 6 4 6 5 2 6 4 2 1 4 4 6 5 5 4 4 6 2 5 4 3 4 6 6 4 2 3 2 4 5 2 6 9 5 6 3 3 3 0 5 6 1 7 5 1 3 7 5 3 5 2 1 2 4 4 3 5 4 2 7 4 5 4 5 3 5 3 3 4 3 2 5 4 3 4 4 5 3 4 3 6 2 5 3 2 5 5 2 10 5 3 3 3 2 2 3 4 7 6 2 3 2 3 2 3 1 3 2 4 4 2 4 6 5 4 6 0 3 3 4 4 4 2 1 3 2 3 1 2 1 4 1 3 3 3 5 2 8 5 3 2 1 10 1 2 4 1 2 6 5 3 8 3 5 5 5 3 5 3 2 1 1 5 1 4 4 3 8 5 1 7 4 6 2 3 4 5 3 5 7 4 4 6 1 5 5 7 4 3 3 4 3 6 6 3 6 7 6 4 3 5 5 1 2 4 5 1 3 2 1 3 5 2 3 5 2 2 5 4 2 5 1 8 3 3 2 3 1 3 5 3 4 3 4 2 6 2 3 7 3 4 5 3 5 2 8 4 5 3 8 6 2 6 1 5 2 1 2 4 4 3 1 3 4 3 1 2 3 4 4 3 3 3 4 2 5 2 5 4 5 0 5 3 3 2 6 8 1 8 0 1 4 5 2 5 1 4 3 4 1 1 2 4 5 3 4 1 4 4 6 5 1 4 3 3 6 10 4 3 7 6 5 1 1 3 5 6 3 2 2 4 3 4 4 5 3 1 4 2 3 6 8 5 3 3 6 1 3 7 3 4 1 3 2 6 9 4 3 3 3 4 5 2 5 6 6 6 2 1 5 5 2 4 3 4 4 4 4 7 3 5 4 3 5 5 3 1 7 4 4 3 3 3 2 3 3 2 2 5 4 3 3 5 2 1 3 3 8 5 2 3 4 2 4 3 3 4 3 2 1 4 2 4 2 5 3 4 4 2 1 2 6 1 4 2 4 2 4 6 2 1 5 5 4 3 4 5 2 3 4 5 5 4 4 4 3 3 3 2 3 5 2 4 1 4 0 8 3 3 6 4 4 5 7 3 2 3 3 2 3 4 1 4 2 4 3 0 5 1 6 3 3 3 5 3 2 5 3 4 2 4 1 6 3 0 3 4 1 1 4 1 5 3 3 6 3 2 2 2 3 2 2 7 2 3 6 3 3 3 4 2 2 5 0 2 3 4 3 2 2 2 0 4 0 4 2 5 4 3 3 2 1 2 5 4 2 7 1 3 4 2 2 5 5 2 2 6 0 1 2 3 1 1 2 3 3 5 3 1 1 8 3 1 4 1 7 1 4 3 3 6 2 4 2 1 3 3 1 3 3 5 2 3 3 1 3 0 5 2 3 3 0 4 3 5 3 6 3 3 4 2 3 2 2 2 3 5 0 2 3 3 3 4 1 3 3 2 11 7 2 3 3 4 2 1 3 6 2 3 0 3 2 4 2 3 5 6 6 8 0 4 2 8 4 4 5 3 8 2 4 8 3 0 6 4 3 3 6 3 3 2 1 2 5 2 2 3 3 2 4 6 3 5 4 6 1 1 5 6 3 3 5 5 4 6 2 5 5 2 6 4 3 3 2 3 7 5 3 2 3 3 3 4 4 2 3 3 2 3 1 3 7 0 2 2 3 3 4 5 3 4 3 6 1 2 3 6 2 4 5 7 1 1 7 2 4 2 3 4 7 2 3 2 5 7 3 5 3 5 3 5 10 4 4 4 5 2 5 4 3 2 3 1 2 2 4 4 3 2 4 3 6 6 3 4 9 0 3 2 4 4 4 3 4 3 6 3 4 1 5 3 3 4 3 3 0 2 5 0 7 2 6 6 1 4 3 3 0 5 3 3 6 3 6 2 3 2 2 3 5 7 1 3 3 0 3 2 4 6 3 2 4 5 2 3 2 6 4 4 1 5 3 0 2 4 1 1 8 2 0 4 2 4 3 2 3 6 3 3 6 1 5 4 6 2 6 5 3 3 2 7 1 4 1 3 3 4 4 3 4 2 1 2 5 0 3 0 3 5 6 2 2 5 2 3 2 3 1 3 2 4 2 4 2 5 3 2 3 1 2 3 3 4 2 3 4 2 1 1 2 2 5 1 5 1 6 4 3 3 2 5 1 2 3 5 4 3 4 5 6 3 3 3 4 3 2 0 3 2 0 2 1 2 2 4 2 5 2 2 3 4 1 2 4 3 2 3 9 2 2 7 7 4 2 5 2 3 6 3 4 5 3 4 1 2 4 6 4 2 4 3 2 4 3 5 7 4 3 0 4 1 0 2 3 0 4 4 6 1 3 4 7 5 0 2 2 4 2 5 2 3 3 8 3 2 2 3 8 2 7 3 3 7 0 1 3 1 4 4 2 0 2 3 4 6 5 1 0 3 4 6 1 2 1 3 7 2 1 5 5 3 3 5 4 1 6 2 6 1 1 2 2 2 2 5 1 3 3 3 3 4 1 5 3 4 3 4 2 1 3 6 4 4 0 
BTB PER SET COUNT: 3 4 3 5 1 2 3 2 4 0 2 0 5 3 1 3 3 3 4 1474 3 5 3 3 4 6 2 4 1464 3 7 8 4 4 6 2 2924 6 9 2 5 4 8 973 969 4 4 4 6 3 3 2 3 1 0 3 7 3 4 3 1 5 2 3 1 375 12 5 3 5 5 1 2 4 4 3 503 736 3 4 2 2 1 4 3 5 2 6 3 3 11 467 5 5 3 0 3 8 2 3 4 4 8 3 4 2 1 2 3 2 2 2 3 6 2 7 2 5 4 1 5 5 2 0 1 2 3 2 10 9 508 2 3 5 8 4 2 2 3 3 6 6 6 2 2 17 5 5 5 5 3 1101 3 5 13 1 4 4 3 5 7 6 5 4 15 2892 2 2 2886 3 2 3 5 3 1 5 4 5 969 1 3 5 2008 4 9 7 6 1 2 3 7 3 4 4 4 8 4 3 3 7 3 2 3 2 5 3 2 2616 3 1 2 9 5 3 5 2 3 8 3 0 1 3 2 4 3 2 9 27 0 4 1895 4 2 6 4 4 6 1 2 3 1 0 6 4 1273 7 1 4 4 3 4 1 1 4 2 8 6 5 4 4 6 4 4 2 2925 7 3 2 4 2 3 2 3 3 4 2 1 1 3 3 9 3 8 2 6 1504 3 3 1 1 0 3 1 5 6 1 13 3 3 3 3 3 2 2 4 2 4 2 2010 6 5 1 3 2 5 4 8 6 2 6 4 7 3 6 2 3 2 10 1 2 1402 0 2 5 966 3 1398 4 6 0 4 0 1 1005 1005 3 1 4 5 9 4 9 7 4 5 6 2 0 5 2 3 5 2 4 11 8 1 2 2 1 4 2 2 4 4 4 4 4 3 4 5 3 1 5 5 2 6 2 6 1 6 4 4 2 3 1 1887 0 1 4 4 2 6 2 2 5 1465 3 2 962 1 3 6 5 1461 3 282 3 1 91 1 1 4 5 5 6 7 0 2 7 146 2 999 3 5 5 3 3 6 0 5 4 5 4 7 8 2 4 3 2 4 3 1 4 6 2 1 4 507 3 3 3 5 6 1 4 5 2 4 3 0 5 35 501 3 1 5 5 2 1 2 1 2 501 0 4 4 0 6 1 5 2 4 4 1 9 4 4 3 1 5 14 1 2 2 2 2 2 2 3 4 2 5 13 4 1 2 5 6 509 5 1466 5 3 6 6 1 9 6 4 6 3 4 11 3 505 3 1 8 1 2 5 7 6 9 3 12 5 7 2578 4 7 6 8 2 3 8 1 4 4 7 3 7 5 2 1 4 3 3 46 4 4 3 39 3 2 3 4 2 7 5 42 2 0 1 0 0 2454 6 3 6 20 4 2 964 5 6 3 5 3 8 3 6 10 4 4 3 4 4 2 5 3 3 3 2 3 931 0 3 1 8 1003 14 2 2 4 3 5 2 3 1005 1465 4 3 5 6 3 5 3 3 1510 1 4 4 1 0 7 4 3 8 4 2 5 2 3 1 5 3 2 3 7893 4 5 4 6 5 2929 1005 2 4 6 5 5 8 5 1625 3 3 6 5 5 5 6 1002 5 3 5 1465 4 3 2 1009 4 5 3 3 7 4 7 74 0 7 0 3 3 1005 3 1 3 2 3 4 5 1 1002 1 1478 2 0 3 2 0 1 1 2 5 1 5 2 4 6 5 964 1 3 5 12 4 2 2 2 3 2 4 2 2 1006 2 4 1002 0 2 1 5 2 2 3 7 4 1 3 5 1 5 5 4 29 2 5 2 4 3 0 254 3 6 6 4 3 3 5 7 0 4 23 6 4 5 0 3 3 54 1 1 5 1206 21 2 3 2 7 3 5 5 2004 6 4 6 1 5 1 3 4 0 7 4 1 2 0 4 7 2 4 2 3 3 3 3 4 130 3 1 3 2 5 6 2 2 5 3 2 2 3 1472 2 13 15 6 5 4 1503 3 5 6 5 5 4 2 4 5 2 6 2 1 1475 974 5 5 5 5 2 4 3 7 4 0 3 5 5 4 3 6 5 5 8 3 2 5 3 5 7 2 3 4 3 2 8 4 2 1 5 2 2 78 7 6 4 5 4 7 7 4 1 3 1 7 0 3 6 2 6 5 5 3 8 1 3 2 5 11 5 504 1256 930 8 4 60 9 2 8 4 2 1 965 7 7 5 253 5 4 6 2 5 4 3 4 15 12 4 2 3 503 4 8 6 6 21 5 6 3 3 5 0 749 6 1 969 6 1 3 7 5 529 5 2 3 3 7 5 5 5 6 2 7 4 5 4 7 3 9 3 3 4 3 2 5 4 5 4 6 2008 3 2427 374 1007 3 5 5 2 8 6 5 1330 5 3 3 3 2 2 3 4 30 7 3 3 2 4 2 3 2 3 2 4 4 2 5 8 5 4 6 0 3 3 4 1465 377 2 1 3 2 3 1 2 1 6 1 4 3 3 9 2 8 6 4 2 1 1535 1 2 4 1 2 6 108 5 8 3 5 5 5 4 5 3 2 1 1 5 1 4 4 3 27 5 1 7 4 6 2 1004 4 5 3 5 385 4 5 6 2 7 6 7 5 3 3 4 3 7 8 4 8 7 6 4 3 5 9 1 3 4 5 1 3 2 1 3 6 4 4 509 3 3 5 4 2 6 1 24 5 3 2 3 1 3 6 4 4 3 4 2 7 3 3 7 3 6 10 3 5 2 822 4 5 3 30 6 2 968 1 5 2 1 2 1005 6 4 1 3 141 4 1 2 503 4 4 3 3 3 4 2 5 2 6 5 5 0 6 3 3 2 9 970 1 19 0 1 4 5 3 6 1 4 1502 6 1 1 2 6 7 3 4 1 4 5 6 5 1 5 3 3 6 1515 1943 5 1468 7 5 1 1 4 5 8 3 2 2 5 3 4 4 6 3 1 4 2 3 8 1571 5 3 3 6 1 3 7 3 4 1 3 4 6 1668 966 4 3 3 5 5 2 5 6 7 8 2 1 22 5 2 18 3 4 4 4 4 7 3 6 4 503 5 2501 11 1 1645 4 4 3 4 3 5 3 3 2 2 5 4 4 3 5 2 1 3 3 17 9 2 3 4 2 4 4 3 5 3 4 1 4 2 4 3 5 3 7 4 2 1 2 6 1 4 2 4 2 4 7 2 1 5 5 965 3 4 7 2 3 46 5 5 5 4 4 3 3 3 2 3 7 6 5 1 5 0 1276 5 3 6 4 4 5 1237 3 2 3 3 2 3 5 2 7 4 6 5 0 7 1 7 4 5 5 7 3 2 1466 3 4 1335 17 1 469 4 0 3 6 1 1 1338 1 6 3 3 7 4 4 2 2 3 2 2 2012 2 3 16 5 3 3 5 2 2 9 0 4 5 4 967 2 2 2 0 5 0 4 2 5 4 3 3 1002 1 24 7 35 2 1505 1 3 6 2 2 7 11 113 2 20482 0 1 2 3 1 1 2 3 3 520 392 1 1 38 3 1 4 1 13 1 4 4 4 36 2 16 2 1 3 3 1 3 3 6 5 3 5 1 3 0 5 2 3 6 0 7 760 5 3 6 3 3 4 2 4 2 2 2 3 5 0 2 3 4 3 19 1 3 3 2 778 7 2 5 3 4 2 1 3 968 2 3 0 3 2 4 2 3 6 6 9 15 0 4 2 15 4 5 6 3 1506 2 5 4808 3 0 2003 1465 3 3 6 3 3 3 1 2 967 4 2 3 3 2 4 8 6 5 4 12 3001 1 7 6 5 3 9 5 4 6 4 5 5 2 6 4 425 376 2 1464 8 9 199 7 3 3 3 6 4 2 3 5 2 4 1 3 8 0 2 2 3 4 5 506 3 4 3 6 1 2 3 7 2 2004 6 7 1 1 8 2 1004 2 3 4 7 1004 4 2 5 7 3 508 3 861 3 5 5390 5 4 14624 1504 2 379 1465 5 2 3 1 2 2 4 4 3 2 4 3 6 6 3 322 20 0 1465 2 1465 99 5 3 4 5 6 3 922 1 5 6 3 4 3 3 0 2 824 0 1006 2 8 11 1 6 3 4 0 5 3 6 7 3 6 2 5 2 3 4 5 14 1 3 564 0 5 2 6 6 965 2 4 966 2 4 2 731 4 4 1 8 3 0 2 4 1462 1 2026 2 0 4 4 4 3 4 3 8 3 483 6 1 5 4 10 201 10 158 3 3 2 7 3 348 1 5 2426 5 4 3 4 2 2 2 467 0 3 0 3 5 6 2 2 6 669 3 3 1425 1 3 2 5 2 4 2 31 3 2 3 1 2 235 3 4 2 3 4 2 1 1 2 2 5 1 5 1 3810 4 3 3 7 8 1 2 3 5 4 5 1505 7 8 3 3 3 5 3 2 0 3 4 0 2 1 2 2 4 4 5 2 2 3 4 1 2 4 3 2 3 18 2 2 1214 19 121 2 6 4 3 6 3 7 6 4 4 1 4 6 8 1005 2 4 3 2 5 5 6 1477 4 5 0 4 1 0 2 4 0 5 1468 6 1 3 4 17 5 0 3 2 6 2 5 2 5 3 2896 3 4 4 3 516 7 1268 3 3 1252 0 1 3 1 4 4 2 0 2 3 4 7 5 2 0 3 4 6 1 2 1 3 10 2 1 6 5 3 4 5 4 1 29 2 33 1 1 2 2 2 4 5 2 3 3 3 4 4 1 5 3 229 3 4 2 1 3 1483 4 4 0 
To predecode: 0
Predecoding something: 0
Predecode request dropped: 0
sizeofblock_0 0
sizeofblock_1 66068
sizeofblock_2 96705
sizeofblock_3 0
sizeofblock_4 0
sizeofblock_5 0
sizeofblock_6 0
sizeofblock_7 0
sizeofblock_8 0
Variant_0 Correct: 0 Incorrect: 0 Accuracy: -nan
Variant_1 Correct: 0 Incorrect: 0 Accuracy: -nan
Variant_2 Correct: 0 Incorrect: 0 Accuracy: -nan
Variant_3 Correct: 0 Incorrect: 0 Accuracy: -nan
