
*** ChampSim Multicore Out-of-Order Simulator ***

Warmup Instructions: 50000000
Simulation Instructions: 50000000
Number of CPUs: 1
LLC sets: 2048
LLC ways: 16
Off-chip DRAM Size: 4096 MB Channels: 1 Width: 64-bit Data Rate: 6400 MT/s
CPU 0 runs ./micro_traces/srv92.trace.gz
.gz
ITLB has LRU replacement policy
DTLB has LRU replacement policy
STLB has LRU replacement policy
FDIP Prefetcher at L1I
L1I has LRU replacement policy
L1D has LRU replacement policy
Initialize SRRIP state for L2C
Initialize DRRIP state for LLC
Heartbeat CPU 0 instructions: 10000003 cycles: 2797598 heartbeat IPC: 3.5745 cumulative IPC: 3.5745 (Simulation time: 0 hr 2 min 26 sec) 
Heartbeat CPU 0 instructions: 20000003 cycles: 5593674 heartbeat IPC: 3.57644 cumulative IPC: 3.57547 (Simulation time: 0 hr 4 min 21 sec) 
Heartbeat CPU 0 instructions: 30000000 cycles: 8390083 heartbeat IPC: 3.57601 cumulative IPC: 3.57565 (Simulation time: 0 hr 6 min 24 sec) 
Heartbeat CPU 0 instructions: 40000003 cycles: 11187165 heartbeat IPC: 3.57516 cumulative IPC: 3.57553 (Simulation time: 0 hr 8 min 25 sec) 
Heartbeat CPU 0 instructions: 50000000 cycles: 13983709 heartbeat IPC: 3.57584 cumulative IPC: 3.57559 (Simulation time: 0 hr 10 min 20 sec) 

Warmup complete CPU 0 instructions: 50000004 cycles: 13983710 (Simulation time: 0 hr 10 min 20 sec) 

Cycle: 20000000 FTQ IN: 58615460 FTQ occupancy: 21.4737 DECODE IN: 58615332 DECODE occupancy: 55.2172 ROB IN: 58615272 ROB occupancy: 324.326 ROB OUT: 58614924
Heartbeat CPU 0 instructions: 60000002 cycles: 20970708 heartbeat IPC: 1.43123 cumulative IPC: 1.43123 (Simulation time: 0 hr 12 min 44 sec) 
Heartbeat CPU 0 instructions: 70000001 cycles: 28027490 heartbeat IPC: 1.41708 cumulative IPC: 1.42412 (Simulation time: 0 hr 15 min 25 sec) 
Cycle: 30000000 FTQ IN: 14213222 FTQ occupancy: 18.0039 DECODE IN: 14213207 DECODE occupancy: 43.9594 ROB IN: 14213258 ROB occupancy: 267.537 ROB OUT: 14213453
Heartbeat CPU 0 instructions: 80000002 cycles: 35154748 heartbeat IPC: 1.40306 cumulative IPC: 1.41703 (Simulation time: 0 hr 17 min 43 sec) 
Cycle: 40000000 FTQ IN: 14136375 FTQ occupancy: 17.9242 DECODE IN: 14136411 DECODE occupancy: 43.8979 ROB IN: 14136420 ROB occupancy: 267.412 ROB OUT: 14136454
Heartbeat CPU 0 instructions: 90000002 cycles: 42101414 heartbeat IPC: 1.43954 cumulative IPC: 1.42259 (Simulation time: 0 hr 20 min 54 sec) 
Heartbeat CPU 0 instructions: 100000000 cycles: 49166154 heartbeat IPC: 1.41548 cumulative IPC: 1.42116 (Simulation time: 0 hr 25 min 39 sec) 
Finished CPU 0 instructions: 50000001 cycles: 35182447 cumulative IPC: 1.42116 (Simulation time: 0 hr 25 min 39 sec) 

ChampSim completed all CPUs

Region of Interest Statistics

CPU 0 cumulative IPC: 1.42116 instructions: 50000001 cycles: 35182447
 Fetch stage stalled: 23.9396  Sim cycles: 35182447 fetch stall cycle: 8422530
 Empty decode stage: 12.6654  Sim cycles: 35182447 fetch stall cycle: 4456003
ITLB TOTAL     ACCESS:    5944559  HIT:    5452685  MISS:     491874  HIT %:    91.7256  MISS %:    8.27436   MPKI: 9.83748
ITLB LOAD TRANSLATION INSTRUCTION	ACCESS:    5789872  HIT:    5297998  MISS:     491874  HIT %:    91.5046  MISS %:    8.49542  MPKI: 9.83748
ITLB TRANSLATION FROM L1D PREFETCHER INSTRUCTION	ACCESS:     154687  HIT:     154687  MISS:          0  HIT %:        100  MISS %:          0  MPKI: 0

ITLB AVERAGE MISS LATENCY: 9.06992 cycles
ITLB RQ	ACCESS:    7927956	FORWARD:          0	MERGED:    1440374	TO_CACHE:    6487582

DTLB TOTAL     ACCESS:    8956996  HIT:    8488681  MISS:     468315  HIT %:    94.7715  MISS %:    5.22848   MPKI: 9.3663
DTLB LOAD TRANSLATION DATA	ACCESS:    8956996  HIT:    8488681  MISS:     468315  HIT %:    94.7715  MISS %:    5.22848  MPKI: 9.3663

DTLB AVERAGE MISS LATENCY: 9.35961 cycles
DTLB RQ	ACCESS:   13322471	FORWARD:          0	MERGED:    4328538	TO_CACHE:    8993933

STLB TOTAL     ACCESS:    1209931  HIT:    1207634  MISS:       2297  HIT %:    99.8102  MISS %:   0.189846   MPKI: 0.04594
STLB LOAD TRANSLATION INSTRUCTION	ACCESS:     491874  HIT:     491565  MISS:        309  HIT %:    99.9372  MISS %:   0.062821  MPKI: 0.00618
STLB LOAD TRANSLATION DATA	ACCESS:     468314  HIT:     466357  MISS:       1957  HIT %:    99.5821  MISS %:   0.417882  MPKI: 0.03914
STLB TRANSLATION FROM L1D PREFETCHER DATA	ACCESS:     249743  HIT:     249712  MISS:         31  HIT %:    99.9876  MISS %:  0.0124128  MPKI: 0.00062

STLB AVERAGE MISS LATENCY: 75.495 cycles
STLB RQ	ACCESS:    1331810	FORWARD:          0	MERGED:     121827	TO_CACHE:    1209983

STLB Hit, L1D data hit: 0
STLB Hit, L2C data hit: 0
STLB Hit, LLC data hit: 0
STLB Hit, LLC data miss: 0
STLB STLB hints to L2: 0
L1D TOTAL     ACCESS:   13071665  HIT:   11955591  MISS:    1116074  HIT %:    91.4619  MISS %:    8.53812   MPKI: 22.3215
L1D LOAD DATA	ACCESS:    6542177  HIT:    5806456  MISS:     735721  HIT %:    88.7542  MISS %:    11.2458  MPKI: 14.7144
L1D RFO DATA	ACCESS:    6199209  HIT:    5913918  MISS:     285291  HIT %:    95.3979  MISS %:    4.60205  MPKI: 5.70582
L1D PREFETCH DATA	ACCESS:     330279  HIT:     235217  MISS:      95062  HIT %:    71.2177  MISS %:    28.7823  MPKI: 1.90124

L1D PREFETCH  REQUESTED:     743709  ISSUED:     743709  USEFUL:      33957  USELESS:      68768
L1D USEFUL LOAD PREFETCHES:      33957 PREFETCH ISSUED TO LOWER LEVEL:     102798  ACCURACY: 33.0327
 TIMELY PREFETCHES:      33957 LATE PREFETCHES: 7649 DROPPED PREFETCHES: 10
L1D AVERAGE MISS LATENCY: 223929 cycles
L1D RQ	ACCESS:   10686816	FORWARD:          0	MERGED:    3944815	TO_CACHE:    6577866
L1D WQ	ACCESS:    6943889	FORWARD:     164600	MERGED:     199284	TO_CACHE:    6744605
L1D PQ	ACCESS:     372087	FORWARD:          0	MERGED:          0	TO_CACHE:     371622

L1D UNIQUE REGIONS ACCESSED: 0
L1D REGIONS CONFLICTS: 0
L1D Cross Page Prefetch Requests: 7164
L1D Same Page Prefetch Requests: 754975
L1D ROI Sum of L1D PQ occupancy: 4734807
L1D PREFETCHES PUSHED FROM L2C: 0
L1I TOTAL     ACCESS:    7111697  HIT:    4354456  MISS:    2757241  HIT %:    61.2295  MISS %:    38.7705   MPKI: 55.1448
L1I LOAD INSTRUCTION	ACCESS:    6430857  HIT:    3673616  MISS:    2757241  HIT %:    57.1248  MISS %:    42.8752  MPKI: 55.1448
L1I PREFETCH INSTRUCTION	ACCESS:     680840  HIT:     680840  MISS:          0  HIT %:        100  MISS %:          0  MPKI: 0

L1I PREFETCH  REQUESTED:    1676182  ISSUED:    1676182  USEFUL:          0  USELESS:          0
L1I USEFUL LOAD PREFETCHES:          0 PREFETCH ISSUED TO LOWER LEVEL:          0  ACCURACY: -nan
 TIMELY PREFETCHES:          0 LATE PREFETCHES: 0 DROPPED PREFETCHES: 0
L1I AVERAGE MISS LATENCY: 17.4799 cycles
L1I RQ	ACCESS:    9841829	FORWARD:          0	MERGED:    3156645	TO_CACHE:    6685184
L1I PQ	ACCESS:    1676182	FORWARD:          0	MERGED:     433410	TO_CACHE:    1242772

L1BTB TOTAL     ACCESS:    5368245  HIT:    5335587  MISS:      32658  HIT %:    99.3916  MISS %:   0.608355   MPKI: 0.65316
L1BTB BRANCH_DIRECT_JUMP	ACCESS:     548684  HIT:     548684  MISS:          0	AVERAGE STALL: -nan
L1BTB BRANCH_INDIRECT	ACCESS:     183200  HIT:     170207  MISS:      12993	AVERAGE STALL: 124.68
L1BTB BRANCH_CONDITIONAL	ACCESS:    2407976  HIT:    2407976  MISS:          0	AVERAGE STALL: -nan
L1BTB BRANCH_DIRECT_CALL	ACCESS:     942904  HIT:     942904  MISS:          0	AVERAGE STALL: -nan
L1BTB BRANCH_INDIRECT_CALL	ACCESS:     171292  HIT:     151627  MISS:      19665	AVERAGE STALL: 162.403
L1BTB BRANCH_RETURN	ACCESS:    1114189  HIT:    1114189  MISS:          0	AVERAGE STALL: -nan
L1BTB BRANCH_OTHER ACCESS:          0  HIT:          0  MISS:          0	AVERAGE STALL: -nan
L1BTB TOTAL ROB OCCUPANCY AT BTB MISS: 126.478

L2BTB BRANCH_DIRECT_JUMP	ACCESS:          0  HIT:          0  MISS:          0	AVERAGE STALL: -nan
L2BTB BRANCH_INDIRECT	ACCESS:          0  HIT:          0  MISS:          0	AVERAGE STALL: 124.68
L2BTB BRANCH_CONDITIONAL	ACCESS:          0  HIT:          0  MISS:          0	AVERAGE STALL: -nan
L2BTB BRANCH_DIRECT_CALL	ACCESS:          0  HIT:          0  MISS:          0	AVERAGE STALL: -nan
L2BTB BRANCH_INDIRECT_CALL	ACCESS:          0  HIT:          0  MISS:          0	AVERAGE STALL: 162.403
L2BTB BRANCH_RETURN	ACCESS:          0  HIT:          0  MISS:          0	AVERAGE STALL: -nan
L2BTB BRANCH_OTHER ACCESS:          0  HIT:          0  MISS:          0	AVERAGE STALL: -nan
L2BTB TOTAL ROB OCCUPANCY AT BTB MISS: inf

L2C TOTAL     ACCESS:    4478228  HIT:    3960809  MISS:     517419  HIT %:    88.4459  MISS %:    11.5541   MPKI: 10.3484
L2C LOAD INSTRUCTION	ACCESS:    2757241  HIT:    2488360  MISS:     268881  HIT %:    90.2482  MISS %:    9.75181  MPKI: 5.37762
L2C LOAD TRANSLATION INSTRUCTION	ACCESS:        349  HIT:         95  MISS:        254  HIT %:    27.2206  MISS %:    72.7794  MPKI: 0.00508
L2C LOAD DATA	ACCESS:     728054  HIT:     647831  MISS:      80223  HIT %:    88.9812  MISS %:    11.0188  MPKI: 1.60446
L2C RFO DATA	ACCESS:     285183  HIT:     215164  MISS:      70019  HIT %:    75.4477  MISS %:    24.5523  MPKI: 1.40038
L2C PREFETCH DATA	ACCESS:     184127  HIT:     109063  MISS:      75064  HIT %:    59.2325  MISS %:    40.7675  MPKI: 1.50128
L2C WRITEBACK DATA	ACCESS:     521173  HIT:     499641  MISS:      21532  HIT %:    95.8686  MISS %:    4.13145  MPKI: 0.43064
L2C LOAD TRANSLATION DATA	ACCESS:       2033  HIT:        617  MISS:       1416  HIT %:    30.3492  MISS %:    69.6508  MPKI: 0.02832
L2C TRANSLATION FROM L1D PREFETCHER DATA	ACCESS:         68  HIT:         38  MISS:         30  HIT %:    55.8824  MISS %:    44.1176  MPKI: 0.0006

L2C PREFETCH  REQUESTED:      90203  ISSUED:      90203  USEFUL:       8198  USELESS:      67456
L2C USEFUL LOAD PREFETCHES:       8198 PREFETCH ISSUED TO LOWER LEVEL:      75609  ACCURACY: 10.8426
 TIMELY PREFETCHES:       8198 LATE PREFETCHES: 545 DROPPED PREFETCHES: 0
L2C AVERAGE MISS LATENCY: 37.9478 cycles
L2C RQ	ACCESS:    3772967	FORWARD:          0	MERGED:          0	TO_CACHE:    3772928
L2C WQ	ACCESS:     521173	FORWARD:         39	MERGED:          0	TO_CACHE:     521173
L2C PQ	ACCESS:     193001	FORWARD:          0	MERGED:       3477	TO_CACHE:     189524

L2C Dense regions hint from L2: 0
PSCL5 TOTAL     ACCESS:       4624  HIT:       2312  MISS:       2312  HIT %:         50  MISS %:         50   MPKI: 0.04624
PSCL5 LOAD TRANSLATION INSTRUCTION	ACCESS:       4492  HIT:       2246  MISS:       2246  HIT %:         50  MISS %:         50  MPKI: 0.04492
PSCL5 TRANSLATION FROM L1D PREFETCHER INSTRUCTION	ACCESS:        132  HIT:         66  MISS:         66  HIT %:         50  MISS %:         50  MPKI: 0.00132


PSCL4 TOTAL     ACCESS:       4479  HIT:       2235  MISS:       2244  HIT %:    49.8995  MISS %:    50.1005   MPKI: 0.04488
PSCL4 LOAD TRANSLATION INSTRUCTION	ACCESS:       2316  HIT:       2177  MISS:        139  HIT %:    93.9983  MISS %:    6.00173  MPKI: 0.00278
PSCL4 TRANSLATION FROM L1D PREFETCHER INSTRUCTION	ACCESS:         58  HIT:         58  MISS:          0  HIT %:        100  MISS %:          0  MPKI: 0
PSCL4 LOAD TRANSLATION DATA	ACCESS:       2047  HIT:          0  MISS:       2047  HIT %:          0  MISS %:        100  MPKI: 0.04094
PSCL4 TRANSLATION FROM L1D PREFETCHER DATA	ACCESS:         58  HIT:          0  MISS:         58  HIT %:          0  MISS %:        100  MPKI: 0.00116


PSCL3 TOTAL     ACCESS:       4545  HIT:       2268  MISS:       2277  HIT %:     49.901  MISS %:     50.099   MPKI: 0.04554
PSCL3 LOAD TRANSLATION INSTRUCTION	ACCESS:       2349  HIT:       2210  MISS:        139  HIT %:    94.0826  MISS %:    5.91741  MPKI: 0.00278
PSCL3 TRANSLATION FROM L1D PREFETCHER INSTRUCTION	ACCESS:         58  HIT:         58  MISS:          0  HIT %:        100  MISS %:          0  MPKI: 0
PSCL3 LOAD TRANSLATION DATA	ACCESS:       2080  HIT:          0  MISS:       2080  HIT %:          0  MISS %:        100  MPKI: 0.0416
PSCL3 TRANSLATION FROM L1D PREFETCHER DATA	ACCESS:         58  HIT:          0  MISS:         58  HIT %:          0  MISS %:        100  MPKI: 0.00116


PSCL2 TOTAL     ACCESS:       4499  HIT:       2188  MISS:       2311  HIT %:     48.633  MISS %:     51.367   MPKI: 0.04622
PSCL2 LOAD TRANSLATION INSTRUCTION	ACCESS:       2435  HIT:       2124  MISS:        311  HIT %:    87.2279  MISS %:    12.7721  MPKI: 0.00622
PSCL2 TRANSLATION FROM L1D PREFETCHER INSTRUCTION	ACCESS:         64  HIT:         64  MISS:          0  HIT %:        100  MISS %:          0  MPKI: 0
PSCL2 LOAD TRANSLATION DATA	ACCESS:       1936  HIT:          0  MISS:       1936  HIT %:          0  MISS %:        100  MPKI: 0.03872
PSCL2 TRANSLATION FROM L1D PREFETCHER DATA	ACCESS:         64  HIT:          0  MISS:         64  HIT %:          0  MISS %:        100  MPKI: 0.00128


LLC TOTAL     ACCESS:     589393  HIT:     559323  MISS:      30070  HIT %:    94.8981  MISS %:    5.10186   MPKI: 0.6014
LLC LOAD INSTRUCTION	ACCESS:     268881  HIT:     267486  MISS:       1395  HIT %:    99.4812  MISS %:   0.518817  MPKI: 0.0279
LLC LOAD TRANSLATION INSTRUCTION	ACCESS:        254  HIT:        209  MISS:         45  HIT %:    82.2835  MISS %:    17.7165  MPKI: 0.0009
LLC LOAD DATA	ACCESS:      79699  HIT:      75970  MISS:       3729  HIT %:    95.3211  MISS %:    4.67885  MPKI: 0.07458
LLC RFO DATA	ACCESS:      69992  HIT:      55564  MISS:      14428  HIT %:    79.3862  MISS %:    20.6138  MPKI: 0.28856
LLC PREFETCH DATA	ACCESS:      75609  HIT:      65568  MISS:      10041  HIT %:    86.7198  MISS %:    13.2802  MPKI: 0.20082
LLC WRITEBACK DATA	ACCESS:      93512  HIT:      93192  MISS:        320  HIT %:    99.6578  MISS %:   0.342202  MPKI: 0.0064
LLC LOAD TRANSLATION DATA	ACCESS:       1416  HIT:       1306  MISS:        110  HIT %:    92.2316  MISS %:    7.76836  MPKI: 0.0022
LLC TRANSLATION FROM L1D PREFETCHER DATA	ACCESS:         30  HIT:         28  MISS:          2  HIT %:    93.3333  MISS %:    6.66667  MPKI: 4e-05

LLC AVERAGE MISS LATENCY: 156.764 cycles
LLC RQ	ACCESS:     420278	FORWARD:          0	MERGED:          0	TO_CACHE:     420272
LLC WQ	ACCESS:      93512	FORWARD:          6	MERGED:          0	TO_CACHE:      93512
LLC PQ	ACCESS:      75609	FORWARD:          0	MERGED:          0	TO_CACHE:      75609

LLC Dense regions hint to LLC: 0

RAW hits: 1948731
Loads Generated: 12635545
Loads sent to L1D: 10686816
Stores Generated: 6943879
Stores sent to L1D: 6943889
Major fault: 0 Minor fault: 2651
Allocated PAGES: 2651

stream: 
stream:times selected: 1194172
stream:pref_filled: 121512
stream:pref_useful: 23950
stream:pref_late: 6950
stream:misses: 8181
stream:misses_by_poll: 0

CS: 
CS:times selected: 178405
CS:pref_filled: 60962
CS:pref_useful: 37584
CS:pref_late: 6767
CS:misses: 16011
CS:misses_by_poll: 0

CPLX: 
CPLX:times selected: 1014688
CPLX:pref_filled: 19630
CPLX:pref_useful: 4431
CPLX:pref_late: 3222
CPLX:misses: 93718
CPLX:misses_by_poll: 0

NL_L1: 
NL:times selected: 21223
NL:pref_filled: 769
NL:pref_useful: 368
NL:pref_late: 291
NL:misses: 1684
NL:misses_by_poll: 0

total selections: 2408488
total_filled: 95062
total_useful: 33957
total_late: 18411
total_polluted: 0
total_misses_after_warmup: 771411
conflicts: 5509849

test: 119175

DRAM Statistics
 CHANNEL 0
 RQ ROW_BUFFER_HIT:      11011  ROW_BUFFER_MISS:      18734
 DBUS_CONGESTED:         11
 WQ ROW_BUFFER_HIT:       1511  ROW_BUFFER_MISS:      12864  FULL:          0

 AVG_CONGESTED_CYCLE: 5

CPU 0 Branch Prediction Accuracy: 99.809% MPKI: 0.34924 Average ROB Occupancy at Mispredict: 179.434
Branch types
NOT_BRANCH: 40856109 81.7122%
BRANCH_DIRECT_JUMP: 548684 1.09737%
BRANCH_INDIRECT: 183200 0.3664%
BRANCH_CONDITIONAL: 6183322 12.3666%
BRANCH_DIRECT_CALL: 942904 1.88581%
BRANCH_INDIRECT_CALL: 171292 0.342584%
BRANCH_RETURN: 1114189 2.22838%
BRANCH_OTHER: 0 0%

DRAM PAGES: 1048576
Allocated PAGES: 2651
Average_ROB_Occupancy: 268.936
Average_Decode_Occupancy: 43.9452
Average_FTQ_Occupancy: 17.9672
Indirect max targets: 14 Average targets: 1.17666
Branch_type:  BRANCH_DIRECT_JUMP:  Count Percentage: 4.44429 6.96901 3.76375 3.23078 2.76627 12.4918 6.26359 60.0705 
Branch_type:  BRANCH_INDIRECT:  Count Percentage: 13.751 3.48842 2.59115 0 1.33267 27.7647 15.4901 35.582 
Branch_type:  BRANCH_CONDITIONAL:  Count Percentage: 25.3214 3.08894 1.64601 5.86437 1.3403 9.118 3.19716 50.4238 
Branch_type:  BRANCH_DIRECT_CALL:  Count Percentage: 0.870415 1.25838 0.755823 2.65564 2.66314 4.80586 2.21775 84.773 
Branch_type:  BRANCH_INDIRECT_CALL:  Count Percentage: 9.55196 0 2.99309 0.00087748 0.882745 3.42305 1.00062 82.1477 
Branch_type:  BRANCH_RETURN:  Count Percentage: 9.95664 1.41934 0.733937 5.7703 2.23114 11.9223 2.80752 65.1588 
Branch_type:  BRANCH_DIRECT_JUMP:  Total Count: 48757 76455 41291 35444 30348 137044 68716 659016 
Branch_type:  BRANCH_INDIRECT:  Total Count: 50405 12787 9498 0 4885 101773 56780 130428 
Branch_type:  BRANCH_CONDITIONAL:  Total Count: 3130068 381835 203469 724917 165680 1127110 395213 6233077 
Branch_type:  BRANCH_DIRECT_CALL:  Total Count: 16369 23665 14214 49942 50083 90379 41707 1594239 
Branch_type:  BRANCH_INDIRECT_CALL:  Total Count: 32657 0 10233 3 3018 11703 3421 280853 
Branch_type:  BRANCH_RETURN:  Total Count: 221371 31557 16318 128294 49606 265075 62421 1448709 
Number of unique branch instructions: 10830
Upper 32 bits: 
aaaa
ffff
ffff0000
Unique upper 32 bits: 3
Unique upper 36 bits: 3
Unique upper 40 bits: 5
Unique upper 44 bits: 32
Unique upper 48 bits: 158
Offset_3 4484
Offset_4 257
Offset_5 485
Offset_6 540
Offset_7 639
Offset_8 582
Offset_9 525
Offset_10 428
Offset_11 356
Offset_12 326
Offset_13 238
Offset_14 247
Offset_15 191
Offset_16 234
Offset_17 173
Offset_18 151
Offset_19 262
Offset_20 141
Offset_21 235
Offset_22 413
Offset_23 241
Offset_24 353
Offset_25 117
Offset_47 94
decode_dispatch_called: 27472122 78.0847
Dispatch_width: 0 15012393 54.6459 42.6701
Dispatch_width: 1 1090193 3.96836 3.09868
Dispatch_width: 2 853878 3.10816 2.427
Dispatch_width: 3 497477 1.81084 1.41399
Dispatch_width: 4 7170191 26.0999 20.38
Dispatch_width: 5 59387 0.216172 0.168797
Dispatch_width: 6 2788603 10.1507 7.92612
Empty_decode_cycles: 7710325 21.9153
ROB_full_cycles: 11693862 33.2378
Starvation_cycles_per_kilo_instr: 207
Starvation_cycles_per_kilo_instr_3: 134.704
Starvation_cycles_per_kilo_instr_0: 110.289
Branch_type_1  (3,1)  (4,9)  (5,39)  (6,73)  (7,126)  (8,150)  (9,140)  (10,111)  (11,81)  (12,55)  (13,12)  (14,2)  (15,3)  (16,4)  (18,1)  (19,5)  (20,2)  (21,1)  (22,3)  (23,2)  (24,10)  (25,12) 
Branch_type_2  (3,1)  (4,1)  (5,1)  (8,4)  (9,4)  (10,1)  (12,1)  (13,1)  (14,1)  (16,3)  (17,2)  (20,2)  (21,2)  (23,5)  (24,1)  (47,43) 
Branch_type_3  (3,4482)  (4,247)  (5,441)  (6,451)  (7,483)  (8,361)  (9,286)  (10,174)  (11,142)  (12,62)  (13,10) 
Branch_type_4  (6,3)  (7,8)  (8,25)  (9,56)  (10,68)  (11,68)  (12,116)  (13,100)  (14,112)  (15,90)  (16,104)  (17,79)  (18,66)  (19,128)  (20,72)  (21,124)  (22,218)  (23,136)  (24,208)  (25,101) 
Branch_type_5  (8,3)  (9,1)  (10,4)  (11,5)  (12,3)  (13,14)  (14,16)  (15,11)  (16,22)  (17,13)  (18,23)  (19,14)  (20,11)  (21,13)  (22,43)  (23,26)  (24,38) 
Branch_type_6  (5,4)  (6,13)  (7,22)  (8,39)  (9,38)  (10,70)  (11,60)  (12,89)  (13,101)  (14,116)  (15,87)  (16,101)  (17,79)  (18,61)  (19,115)  (20,54)  (21,95)  (22,149)  (23,72)  (24,96)  (25,4)  (47,51) 
Unique trigger count: 
BTB PER SET UNIQUE ADDR: 0 0 0 0 0 0 0 0 0 0 0 0 0 0 0 0 0 0 0 0 0 0 0 0 0 0 0 0 0 0 0 0 0 0 0 0 0 0 0 0 0 0 0 0 0 0 0 0 0 0 0 0 0 0 0 0 0 0 0 0 0 0 0 0 0 0 0 0 0 0 0 0 0 0 0 0 0 0 0 0 0 0 0 0 0 0 0 0 0 0 0 0 0 0 0 0 0 0 0 0 0 0 0 0 0 0 0 0 0 0 0 0 0 0 0 0 0 0 0 0 0 0 0 0 0 0 0 0 0 0 0 0 0 0 0 0 0 0 0 0 0 0 0 0 0 0 0 0 0 0 0 0 0 0 0 0 0 0 0 0 0 0 0 0 0 0 0 0 0 0 0 0 0 0 0 0 0 0 0 0 0 0 0 0 0 0 0 0 0 0 0 0 0 0 0 0 0 0 0 0 0 0 0 0 0 0 0 0 0 0 0 0 0 0 0 0 0 0 0 0 0 0 0 0 0 0 0 0 0 0 0 0 0 0 0 0 0 0 0 0 0 0 0 0 0 0 0 0 0 0 0 0 0 0 0 0 0 0 0 0 0 0 0 0 0 0 0 0 0 0 0 0 0 0 0 0 0 0 0 0 0 0 0 0 0 0 0 0 0 0 0 0 0 0 0 0 0 0 0 0 0 0 0 0 0 0 0 0 0 0 0 0 0 0 0 0 0 0 0 0 0 0 0 0 0 0 0 0 0 0 0 0 0 0 0 0 0 0 0 0 0 0 0 0 0 0 0 0 0 0 0 0 0 0 0 0 0 0 0 0 0 0 0 0 0 0 0 0 0 0 0 0 0 0 0 0 0 0 0 0 0 0 0 0 0 0 0 0 0 0 0 0 0 0 0 0 0 0 0 0 0 0 0 0 0 0 0 0 0 0 0 0 0 0 0 0 0 0 0 0 0 0 0 0 0 0 0 0 0 0 0 0 0 0 0 0 0 0 0 0 0 0 0 0 0 0 0 0 0 0 0 0 0 0 0 0 0 0 0 0 0 0 0 0 0 0 0 0 0 0 0 0 0 0 0 0 0 0 0 0 0 0 0 0 0 0 0 0 0 0 0 0 0 0 0 0 0 0 0 0 0 0 0 0 0 0 0 0 0 0 0 0 0 0 0 0 0 0 0 0 0 0 0 0 0 0 0 0 0 0 0 0 0 0 0 0 0 0 0 0 0 0 0 0 0 0 0 0 0 0 0 0 0 0 0 0 0 0 0 0 0 0 0 0 0 0 0 0 0 0 0 0 0 0 0 0 0 0 0 0 0 0 0 0 0 0 0 0 0 0 0 0 0 0 0 0 0 0 0 0 0 0 0 0 0 0 0 0 0 0 0 0 0 0 0 0 0 0 0 0 0 0 0 0 0 0 0 0 0 0 0 0 0 0 0 0 0 0 0 0 0 0 0 0 0 0 0 0 0 0 0 0 0 0 0 0 0 0 0 0 0 0 0 0 0 0 0 0 0 0 0 0 0 0 0 0 0 0 0 0 0 0 0 0 0 0 0 0 0 0 0 0 0 0 0 0 0 0 0 0 0 0 0 0 0 0 0 0 0 0 0 0 0 0 0 0 0 0 0 0 0 0 0 0 0 0 0 0 0 0 0 0 0 0 0 0 0 0 0 0 0 0 0 0 0 0 0 0 0 0 0 0 0 0 0 0 0 0 0 0 0 0 0 0 0 0 0 0 0 0 0 0 0 0 0 0 0 0 0 0 0 0 0 0 0 0 0 0 0 0 0 0 0 0 0 0 0 0 0 0 0 0 0 0 0 0 0 0 0 0 0 0 0 0 0 0 0 0 0 0 0 0 0 0 0 0 0 0 0 0 0 0 0 0 0 0 0 0 0 0 0 0 0 0 0 0 0 0 0 0 0 0 0 0 0 0 0 0 0 0 0 0 0 0 0 0 0 0 0 0 0 0 0 0 0 0 0 0 0 0 0 0 0 0 0 0 0 0 0 0 0 0 0 0 0 0 0 0 0 0 0 0 0 0 0 0 0 0 0 0 0 0 0 0 0 0 0 0 0 0 0 0 0 0 0 0 0 0 0 0 0 0 0 0 0 0 0 0 0 0 0 0 0 0 0 0 0 0 0 0 0 0 0 0 0 0 0 0 0 0 0 0 0 0 0 0 0 0 0 0 0 0 0 0 0 0 0 0 0 0 0 0 0 0 0 0 0 0 0 0 0 0 0 0 0 0 0 0 0 0 0 0 0 0 0 0 0 0 0 0 0 0 0 0 0 0 0 0 0 0 0 0 0 0 0 0 0 0 0 0 0 0 0 0 0 0 0 0 0 0 0 0 0 0 0 0 0 0 0 0 0 0 0 0 0 0 0 0 0 0 0 0 0 0 0 0 0 0 0 0 0 0 0 0 0 0 0 0 0 0 0 0 0 0 0 0 0 0 0 0 0 0 0 0 0 0 0 0 0 0 0 0 0 0 0 0 0 0 0 0 0 0 0 0 0 0 0 0 0 0 0 0 0 0 0 0 0 0 0 0 0 0 0 0 0 0 0 0 0 0 0 0 0 0 0 0 0 0 0 0 0 0 0 0 0 0 0 0 0 0 0 0 0 0 0 0 0 0 0 0 0 0 0 0 0 0 0 0 0 0 0 0 0 0 0 0 0 0 0 0 0 0 0 0 0 0 0 0 0 0 0 0 0 0 0 0 0 0 0 0 0 0 0 0 0 0 0 0 0 0 0 0 0 0 0 0 0 0 0 0 0 0 0 0 0 0 0 0 0 0 0 0 0 0 0 0 0 0 0 0 0 0 0 0 0 0 0 0 0 0 0 0 0 0 0 0 0 0 0 0 0 0 0 0 0 0 0 0 0 0 0 0 0 0 0 0 0 0 0 0 0 0 0 0 0 0 0 0 0 0 0 0 0 0 0 0 0 0 0 0 0 0 0 0 0 0 0 0 0 0 0 0 0 0 0 0 0 0 0 0 0 0 0 0 0 0 0 0 0 0 0 0 0 0 0 0 0 0 0 0 0 0 0 0 0 0 0 0 0 0 0 0 0 0 0 0 0 0 0 0 0 0 0 0 0 0 0 0 0 0 0 0 0 0 0 0 0 0 0 0 0 0 0 0 0 0 0 0 0 0 0 0 0 0 0 0 0 0 0 0 0 0 0 0 0 0 0 0 0 0 0 0 0 0 0 0 0 0 0 0 0 0 0 0 0 0 0 0 0 0 0 0 0 0 0 0 0 0 0 0 0 0 0 0 0 0 0 0 0 0 0 0 0 0 0 0 0 0 0 0 0 0 0 0 0 0 0 0 0 0 0 0 0 0 0 0 0 0 0 0 0 0 0 0 0 0 0 0 0 0 0 0 0 0 0 0 0 0 0 0 0 0 0 0 0 0 0 0 0 0 0 0 0 0 0 0 0 0 0 0 0 0 0 0 0 0 0 0 0 0 0 0 0 0 0 0 0 0 0 0 0 0 0 0 0 0 0 0 0 0 0 0 0 0 0 0 0 0 0 0 0 0 0 0 0 0 0 0 0 0 0 0 0 0 0 0 0 0 0 0 0 0 0 0 0 0 0 0 0 0 0 0 0 0 0 0 0 0 0 0 0 0 0 0 0 0 0 0 0 0 0 0 0 0 0 0 0 0 0 0 0 0 0 0 0 0 0 0 0 0 0 0 0 0 0 0 0 0 0 0 0 0 0 0 0 0 0 0 0 0 0 0 0 0 0 0 0 0 0 0 0 0 0 0 0 0 0 0 0 0 0 0 0 0 0 0 0 0 0 0 0 0 0 0 0 0 0 0 0 0 0 0 0 0 0 0 0 0 0 0 0 0 0 0 0 0 0 0 0 0 0 0 0 0 0 0 0 0 0 0 0 0 0 0 0 0 0 0 0 0 0 0 0 0 0 0 0 0 0 0 0 0 0 0 0 0 0 0 0 0 0 0 0 0 0 0 0 0 0 0 0 0 0 0 0 0 0 0 0 0 0 0 0 0 0 0 0 0 0 0 0 0 0 0 0 0 0 0 0 0 0 0 0 0 0 0 0 0 0 0 0 0 0 0 0 0 0 0 0 0 0 0 0 0 0 0 0 0 0 0 0 0 0 0 0 0 0 0 0 0 0 0 0 0 0 0 0 0 0 0 0 0 0 0 0 0 0 0 0 0 0 0 0 0 0 0 0 0 0 0 0 0 0 0 0 0 0 0 0 0 0 0 0 0 0 0 0 0 0 0 0 0 0 0 0 0 0 0 0 0 0 0 0 0 0 0 0 0 0 0 0 0 0 0 0 0 0 0 0 0 0 0 0 0 0 0 0 0 0 0 0 0 0 0 0 0 0 0 0 0 0 0 0 0 0 0 0 0 0 0 0 0 0 0 0 0 0 0 0 0 0 0 0 0 0 0 0 0 0 0 0 0 0 0 0 0 0 0 0 0 0 0 0 0 0 0 0 0 0 0 0 0 0 0 0 0 0 0 0 0 0 0 0 0 0 0 0 0 0 0 0 0 0 0 0 0 0 0 0 0 0 0 0 0 0 0 0 0 0 0 0 0 0 0 0 0 0 0 0 0 0 0 0 0 0 0 0 0 
BTB PER SET COUNT: 0 0 0 0 0 0 0 0 0 0 0 0 0 0 0 0 0 0 0 0 0 0 0 0 0 0 0 0 0 0 0 0 0 0 0 0 0 0 0 0 0 0 0 0 0 0 0 0 0 0 0 0 0 0 0 0 0 0 0 0 0 0 0 0 0 0 0 0 0 0 0 0 0 0 0 0 0 0 0 0 0 0 0 0 0 0 0 0 0 0 0 0 0 0 0 0 0 0 0 0 0 0 0 0 0 0 0 0 0 0 0 0 0 0 0 0 0 0 0 0 0 0 0 0 0 0 0 0 0 0 0 0 0 0 0 0 0 0 0 0 0 0 0 0 0 0 0 0 0 0 0 0 0 0 0 0 0 0 0 0 0 0 0 0 0 0 0 0 0 0 0 0 0 0 0 0 0 0 0 0 0 0 0 0 0 0 0 0 0 0 0 0 0 0 0 0 0 0 0 0 0 0 0 0 0 0 0 0 0 0 0 0 0 0 0 0 0 0 0 0 0 0 0 0 0 0 0 0 0 0 0 0 0 0 0 0 0 0 0 0 0 0 0 0 0 0 0 0 0 0 0 0 0 0 0 0 0 0 0 0 0 0 0 0 0 0 0 0 0 0 0 0 0 0 0 0 0 0 0 0 0 0 0 0 0 0 0 0 0 0 0 0 0 0 0 0 0 0 0 0 0 0 0 0 0 0 0 0 0 0 0 0 0 0 0 0 0 0 0 0 0 0 0 0 0 0 0 0 0 0 0 0 0 0 0 0 0 0 0 0 0 0 0 0 0 0 0 0 0 0 0 0 0 0 0 0 0 0 0 0 0 0 0 0 0 0 0 0 0 0 0 0 0 0 0 0 0 0 0 0 0 0 0 0 0 0 0 0 0 0 0 0 0 0 0 0 0 0 0 0 0 0 0 0 0 0 0 0 0 0 0 0 0 0 0 0 0 0 0 0 0 0 0 0 0 0 0 0 0 0 0 0 0 0 0 0 0 0 0 0 0 0 0 0 0 0 0 0 0 0 0 0 0 0 0 0 0 0 0 0 0 0 0 0 0 0 0 0 0 0 0 0 0 0 0 0 0 0 0 0 0 0 0 0 0 0 0 0 0 0 0 0 0 0 0 0 0 0 0 0 0 0 0 0 0 0 0 0 0 0 0 0 0 0 0 0 0 0 0 0 0 0 0 0 0 0 0 0 0 0 0 0 0 0 0 0 0 0 0 0 0 0 0 0 0 0 0 0 0 0 0 0 0 0 0 0 0 0 0 0 0 0 0 0 0 0 0 0 0 0 0 0 0 0 0 0 0 0 0 0 0 0 0 0 0 0 0 0 0 0 0 0 0 0 0 0 0 0 0 0 0 0 0 0 0 0 0 0 0 0 0 0 0 0 0 0 0 0 0 0 0 0 0 0 0 0 0 0 0 0 0 0 0 0 0 0 0 0 0 0 0 0 0 0 0 0 0 0 0 0 0 0 0 0 0 0 0 0 0 0 0 0 0 0 0 0 0 0 0 0 0 0 0 0 0 0 0 0 0 0 0 0 0 0 0 0 0 0 0 0 0 0 0 0 0 0 0 0 0 0 0 0 0 0 0 0 0 0 0 0 0 0 0 0 0 0 0 0 0 0 0 0 0 0 0 0 0 0 0 0 0 0 0 0 0 0 0 0 0 0 0 0 0 0 0 0 0 0 0 0 0 0 0 0 0 0 0 0 0 0 0 0 0 0 0 0 0 0 0 0 0 0 0 0 0 0 0 0 0 0 0 0 0 0 0 0 0 0 0 0 0 0 0 0 0 0 0 0 0 0 0 0 0 0 0 0 0 0 0 0 0 0 0 0 0 0 0 0 0 0 0 0 0 0 0 0 0 0 0 0 0 0 0 0 0 0 0 0 0 0 0 0 0 0 0 0 0 0 0 0 0 0 0 0 0 0 0 0 0 0 0 0 0 0 0 0 0 0 0 0 0 0 0 0 0 0 0 0 0 0 0 0 0 0 0 0 0 0 0 0 0 0 0 0 0 0 0 0 0 0 0 0 0 0 0 0 0 0 0 0 0 0 0 0 0 0 0 0 0 0 0 0 0 0 0 0 0 0 0 0 0 0 0 0 0 0 0 0 0 0 0 0 0 0 0 0 0 0 0 0 0 0 0 0 0 0 0 0 0 0 0 0 0 0 0 0 0 0 0 0 0 0 0 0 0 0 0 0 0 0 0 0 0 0 0 0 0 0 0 0 0 0 0 0 0 0 0 0 0 0 0 0 0 0 0 0 0 0 0 0 0 0 0 0 0 0 0 0 0 0 0 0 0 0 0 0 0 0 0 0 0 0 0 0 0 0 0 0 0 0 0 0 0 0 0 0 0 0 0 0 0 0 0 0 0 0 0 0 0 0 0 0 0 0 0 0 0 0 0 0 0 0 0 0 0 0 0 0 0 0 0 0 0 0 0 0 0 0 0 0 0 0 0 0 0 0 0 0 0 0 0 0 0 0 0 0 0 0 0 0 0 0 0 0 0 0 0 0 0 0 0 0 0 0 0 0 0 0 0 0 0 0 0 0 0 0 0 0 0 0 0 0 0 0 0 0 0 0 0 0 0 0 0 0 0 0 0 0 0 0 0 0 0 0 0 0 0 0 0 0 0 0 0 0 0 0 0 0 0 0 0 0 0 0 0 0 0 0 0 0 0 0 0 0 0 0 0 0 0 0 0 0 0 0 0 0 0 0 0 0 0 0 0 0 0 0 0 0 0 0 0 0 0 0 0 0 0 0 0 0 0 0 0 0 0 0 0 0 0 0 0 0 0 0 0 0 0 0 0 0 0 0 0 0 0 0 0 0 0 0 0 0 0 0 0 0 0 0 0 0 0 0 0 0 0 0 0 0 0 0 0 0 0 0 0 0 0 0 0 0 0 0 0 0 0 0 0 0 0 0 0 0 0 0 0 0 0 0 0 0 0 0 0 0 0 0 0 0 0 0 0 0 0 0 0 0 0 0 0 0 0 0 0 0 0 0 0 0 0 0 0 0 0 0 0 0 0 0 0 0 0 0 0 0 0 0 0 0 0 0 0 0 0 0 0 0 0 0 0 0 0 0 0 0 0 0 0 0 0 0 0 0 0 0 0 0 0 0 0 0 0 0 0 0 0 0 0 0 0 0 0 0 0 0 0 0 0 0 0 0 0 0 0 0 0 0 0 0 0 0 0 0 0 0 0 0 0 0 0 0 0 0 0 0 0 0 0 0 0 0 0 0 0 0 0 0 0 0 0 0 0 0 0 0 0 0 0 0 0 0 0 0 0 0 0 0 0 0 0 0 0 0 0 0 0 0 0 0 0 0 0 0 0 0 0 0 0 0 0 0 0 0 0 0 0 0 0 0 0 0 0 0 0 0 0 0 0 0 0 0 0 0 0 0 0 0 0 0 0 0 0 0 0 0 0 0 0 0 0 0 0 0 0 0 0 0 0 0 0 0 0 0 0 0 0 0 0 0 0 0 0 0 0 0 0 0 0 0 0 0 0 0 0 0 0 0 0 0 0 0 0 0 0 0 0 0 0 0 0 0 0 0 0 0 0 0 0 0 0 0 0 0 0 0 0 0 0 0 0 0 0 0 0 0 0 0 0 0 0 0 0 0 0 0 0 0 0 0 0 0 0 0 0 0 0 0 0 0 0 0 0 0 0 0 0 0 0 0 0 0 0 0 0 0 0 0 0 0 0 0 0 0 0 0 0 0 0 0 0 0 0 0 0 0 0 0 0 0 0 0 0 0 0 0 0 0 0 0 0 0 0 0 0 0 0 0 0 0 0 0 0 0 0 0 0 0 0 0 0 0 0 0 0 0 0 0 0 0 0 0 0 0 0 0 0 0 0 0 0 0 0 0 0 0 0 0 0 0 0 0 0 0 0 0 0 0 0 0 0 0 0 0 0 0 0 0 0 0 0 0 0 0 0 0 0 0 0 0 0 0 0 0 0 0 0 0 0 0 0 0 0 0 0 0 0 0 0 0 0 0 0 0 0 0 0 0 0 0 0 0 0 0 0 0 0 0 0 0 0 0 0 0 0 0 0 0 0 0 0 0 0 0 0 0 0 0 0 0 0 0 0 0 0 0 0 0 0 0 0 0 0 0 0 0 0 0 0 0 0 0 0 0 0 0 0 0 0 0 0 0 0 0 0 0 0 0 0 0 0 0 0 0 0 0 0 0 0 0 0 0 0 0 0 0 0 0 0 0 0 0 0 0 0 0 0 0 0 0 0 0 0 0 0 0 0 0 0 0 0 0 0 0 0 0 0 0 0 0 0 0 0 0 0 0 0 0 0 0 0 0 0 0 0 0 0 0 0 0 0 0 0 0 0 0 0 0 0 0 0 0 0 0 0 0 0 0 0 0 0 0 0 0 0 0 0 0 0 0 0 0 0 0 0 0 0 0 0 0 0 0 0 0 0 0 0 0 0 0 0 0 0 0 0 0 0 0 0 0 0 0 0 0 0 0 0 0 0 0 0 0 0 0 0 0 0 0 0 0 0 0 0 0 0 0 0 0 0 0 0 0 0 0 0 0 0 0 0 0 0 0 0 0 0 0 0 0 0 0 0 0 0 0 0 0 0 0 0 0 
