
*** ChampSim Multicore Out-of-Order Simulator ***

Warmup Instructions: 50000000
Simulation Instructions: 50000000
Number of CPUs: 1
LLC sets: 2048
LLC ways: 16
Off-chip DRAM Size: 4096 MB Channels: 1 Width: 64-bit Data Rate: 6400 MT/s
CPU 0 runs ./micro_traces/srv92.trace.gz
.gz
ITLB has LRU replacement policy
DTLB has LRU replacement policy
STLB has LRU replacement policy
FDIP Prefetcher at L1I
L1I has LRU replacement policy
L1D has LRU replacement policy
Initialize SRRIP state for L2C
Initialize DRRIP state for LLC
Heartbeat_Variant_0 : 1077 0.350586 per_variant_size: 0 1077 0 0 0 0 0 0 0 
Heartbeat_Variant_1 : 960 0.3125 per_variant_size: 0 387 573 0 0 0 0 0 0 
Heartbeat_Variant_2 : 1029 0.334961 per_variant_size: 0 349 271 205 204 0 0 0 0 
Heartbeat_Variant_3 : 0 0 per_variant_size: 0 0 0 0 0 0 0 0 0 
Heartbeat_Variant_0_evicts 0 : 15266 1 : 9259 2 : 9080 3 : 0 
Heartbeat_Variant_1_evicts 0 : 9227 1 : 0 2 : 8334 3 : 0 
Heartbeat_Variant_2_evicts 0 : 9044 1 : 8327 2 : 0 3 : 0 
Heartbeat_Variant_3_evicts 0 : 0 1 : 0 2 : 0 3 : 0 
Heartbeat CPU 0 instructions: 10000003 cycles: 2797527 heartbeat IPC: 3.57459 cumulative IPC: 3.57459 (Simulation time: 0 hr 2 min 11 sec) 
Heartbeat_Variant_0 : 1076 0.35026 per_variant_size: 0 1076 0 0 0 0 0 0 0 
Heartbeat_Variant_1 : 965 0.314128 per_variant_size: 0 415 550 0 0 0 0 0 0 
Heartbeat_Variant_2 : 1026 0.333984 per_variant_size: 0 343 292 194 197 0 0 0 0 
Heartbeat_Variant_3 : 0 0 per_variant_size: 0 0 0 0 0 0 0 0 0 
Heartbeat_Variant_0_evicts 0 : 15970 1 : 9376 2 : 9477 3 : 0 
Heartbeat_Variant_1_evicts 0 : 9371 1 : 0 2 : 8496 3 : 0 
Heartbeat_Variant_2_evicts 0 : 9483 1 : 8486 2 : 0 3 : 0 
Heartbeat_Variant_3_evicts 0 : 0 1 : 0 2 : 0 3 : 0 
Heartbeat CPU 0 instructions: 20000003 cycles: 5593570 heartbeat IPC: 3.57648 cumulative IPC: 3.57553 (Simulation time: 0 hr 3 min 57 sec) 
Heartbeat_Variant_0 : 1075 0.349935 per_variant_size: 0 1075 0 0 0 0 0 0 0 
Heartbeat_Variant_1 : 957 0.311523 per_variant_size: 0 386 571 0 0 0 0 0 0 
Heartbeat_Variant_2 : 1037 0.337565 per_variant_size: 0 335 284 220 198 0 0 0 0 
Heartbeat_Variant_3 : 0 0 per_variant_size: 0 0 0 0 0 0 0 0 0 
Heartbeat_Variant_0_evicts 0 : 16020 1 : 9720 2 : 9776 3 : 0 
Heartbeat_Variant_1_evicts 0 : 9847 1 : 0 2 : 8776 3 : 0 
Heartbeat_Variant_2_evicts 0 : 9650 1 : 8912 2 : 0 3 : 0 
Heartbeat_Variant_3_evicts 0 : 0 1 : 0 2 : 0 3 : 0 
Heartbeat CPU 0 instructions: 30000000 cycles: 8389956 heartbeat IPC: 3.57604 cumulative IPC: 3.5757 (Simulation time: 0 hr 6 min 1 sec) 
Heartbeat_Variant_0 : 1065 0.34668 per_variant_size: 0 1065 0 0 0 0 0 0 0 
Heartbeat_Variant_1 : 949 0.308919 per_variant_size: 0 402 547 0 0 0 0 0 0 
Heartbeat_Variant_2 : 1055 0.343424 per_variant_size: 0 364 288 211 192 0 0 0 0 
Heartbeat_Variant_3 : 0 0 per_variant_size: 0 0 0 0 0 0 0 0 0 
Heartbeat_Variant_0_evicts 0 : 15550 1 : 9369 2 : 9327 3 : 0 
Heartbeat_Variant_1_evicts 0 : 9296 1 : 0 2 : 8623 3 : 0 
Heartbeat_Variant_2_evicts 0 : 9410 1 : 8558 2 : 0 3 : 0 
Heartbeat_Variant_3_evicts 0 : 0 1 : 0 2 : 0 3 : 0 
Heartbeat CPU 0 instructions: 40000003 cycles: 11186965 heartbeat IPC: 3.57525 cumulative IPC: 3.57559 (Simulation time: 0 hr 8 min 1 sec) 
Heartbeat_Variant_0 : 1075 0.349935 per_variant_size: 0 1075 0 0 0 0 0 0 0 
Heartbeat_Variant_1 : 973 0.316732 per_variant_size: 0 417 556 0 0 0 0 0 0 
Heartbeat_Variant_2 : 1021 0.332357 per_variant_size: 0 326 287 194 214 0 0 0 0 
Heartbeat_Variant_3 : 0 0 per_variant_size: 0 0 0 0 0 0 0 0 0 
Heartbeat_Variant_0_evicts 0 : 15338 1 : 9099 2 : 9030 3 : 0 
Heartbeat_Variant_1_evicts 0 : 9043 1 : 0 2 : 8340 3 : 0 
Heartbeat_Variant_2_evicts 0 : 9076 1 : 8260 2 : 0 3 : 0 
Heartbeat_Variant_3_evicts 0 : 0 1 : 0 2 : 0 3 : 0 
Heartbeat CPU 0 instructions: 50000000 cycles: 13983511 heartbeat IPC: 3.57584 cumulative IPC: 3.57564 (Simulation time: 0 hr 9 min 57 sec) 

Warmup complete CPU 0 instructions: 50000004 cycles: 13983512 (Simulation time: 0 hr 9 min 57 sec) 

Cycle: 20000000 FTQ IN: 56540412 FTQ occupancy: 17.9014 DECODE IN: 56540384 DECODE occupancy: 45.7852 ROB IN: 56540384 ROB occupancy: 276.483 ROB OUT: 56540384
Heartbeat_Variant_0 : 1088 0.354167 per_variant_size: 0 1088 0 0 0 0 0 0 0 
Heartbeat_Variant_1 : 964 0.313802 per_variant_size: 0 427 537 0 0 0 0 0 0 
Heartbeat_Variant_2 : 1017 0.331055 per_variant_size: 0 325 288 219 185 0 0 0 0 
Heartbeat_Variant_3 : 0 0 per_variant_size: 0 0 0 0 0 0 0 0 0 
Heartbeat_Variant_0_evicts 0 : 15873 1 : 9283 2 : 9453 3 : 0 
Heartbeat_Variant_1_evicts 0 : 9195 1 : 0 2 : 8388 3 : 0 
Heartbeat_Variant_2_evicts 0 : 9528 1 : 8309 2 : 0 3 : 0 
Heartbeat_Variant_3_evicts 0 : 0 1 : 0 2 : 0 3 : 0 
Heartbeat CPU 0 instructions: 60000002 cycles: 23196648 heartbeat IPC: 1.08541 cumulative IPC: 1.08541 (Simulation time: 0 hr 11 min 46 sec) 
Cycle: 30000000 FTQ IN: 10867318 FTQ occupancy: 6.1374 DECODE IN: 10867306 DECODE occupancy: 12.8633 ROB IN: 10867272 ROB occupancy: 110.156 ROB OUT: 10867182
Heartbeat_Variant_0 : 1088 0.354167 per_variant_size: 0 1088 0 0 0 0 0 0 0 
Heartbeat_Variant_1 : 951 0.30957 per_variant_size: 0 364 587 0 0 0 0 0 0 
Heartbeat_Variant_2 : 1030 0.335286 per_variant_size: 0 339 273 195 223 0 0 0 0 
Heartbeat_Variant_3 : 0 0 per_variant_size: 0 0 0 0 0 0 0 0 0 
Heartbeat_Variant_0_evicts 0 : 15752 1 : 9460 2 : 9272 3 : 0 
Heartbeat_Variant_1_evicts 0 : 9401 1 : 0 2 : 8635 3 : 0 
Heartbeat_Variant_2_evicts 0 : 9331 1 : 8589 2 : 0 3 : 0 
Heartbeat_Variant_3_evicts 0 : 0 1 : 0 2 : 0 3 : 0 
Heartbeat CPU 0 instructions: 70000001 cycles: 32599560 heartbeat IPC: 1.0635 cumulative IPC: 1.07434 (Simulation time: 0 hr 13 min 36 sec) 
Cycle: 40000000 FTQ IN: 10624673 FTQ occupancy: 6.18938 DECODE IN: 10624713 DECODE occupancy: 12.8326 ROB IN: 10624747 ROB occupancy: 108.209 ROB OUT: 10624514
Heartbeat_Variant_0 : 1063 0.346029 per_variant_size: 0 1063 0 0 0 0 0 0 0 
Heartbeat_Variant_1 : 976 0.317708 per_variant_size: 0 411 565 0 0 0 0 0 0 
Heartbeat_Variant_2 : 1032 0.335938 per_variant_size: 0 363 256 212 201 0 0 0 0 
Heartbeat_Variant_3 : 0 0 per_variant_size: 0 0 0 0 0 0 0 0 0 
Heartbeat_Variant_0_evicts 0 : 15630 1 : 9495 2 : 9516 3 : 0 
Heartbeat_Variant_1_evicts 0 : 9504 1 : 0 2 : 8675 3 : 0 
Heartbeat_Variant_2_evicts 0 : 9532 1 : 8660 2 : 0 3 : 0 
Heartbeat_Variant_3_evicts 0 : 0 1 : 0 2 : 0 3 : 0 
Heartbeat CPU 0 instructions: 80000002 cycles: 42062666 heartbeat IPC: 1.05674 cumulative IPC: 1.06841 (Simulation time: 0 hr 15 min 26 sec) 
Cycle: 50000000 FTQ IN: 10629941 FTQ occupancy: 6.00928 DECODE IN: 10629908 DECODE occupancy: 12.5004 ROB IN: 10629908 ROB occupancy: 108.756 ROB OUT: 10630231
Heartbeat_Variant_0 : 1076 0.35026 per_variant_size: 0 1076 0 0 0 0 0 0 0 
Heartbeat_Variant_1 : 971 0.316081 per_variant_size: 0 409 562 0 0 0 0 0 0 
Heartbeat_Variant_2 : 1024 0.333333 per_variant_size: 0 344 263 229 188 0 0 0 0 
Heartbeat_Variant_3 : 0 0 per_variant_size: 0 0 0 0 0 0 0 0 0 
Heartbeat_Variant_0_evicts 0 : 15640 1 : 9222 2 : 9223 3 : 0 
Heartbeat_Variant_1_evicts 0 : 9181 1 : 0 2 : 8320 3 : 0 
Heartbeat_Variant_2_evicts 0 : 9251 1 : 8284 2 : 0 3 : 0 
Heartbeat_Variant_3_evicts 0 : 0 1 : 0 2 : 0 3 : 0 
Heartbeat CPU 0 instructions: 90000003 cycles: 51228719 heartbeat IPC: 1.09098 cumulative IPC: 1.07396 (Simulation time: 0 hr 17 min 6 sec) 
Cycle: 60000000 FTQ IN: 10782704 FTQ occupancy: 6.05165 DECODE IN: 10782735 DECODE occupancy: 12.5905 ROB IN: 10782735 ROB occupancy: 108.078 ROB OUT: 10782735
Heartbeat_Variant_0 : 1060 0.345052 per_variant_size: 0 1060 0 0 0 0 0 0 0 
Heartbeat_Variant_1 : 979 0.318685 per_variant_size: 0 395 584 0 0 0 0 0 0 
Heartbeat_Variant_2 : 1032 0.335938 per_variant_size: 0 331 280 193 228 0 0 0 0 
Heartbeat_Variant_3 : 0 0 per_variant_size: 0 0 0 0 0 0 0 0 0 
Heartbeat_Variant_0_evicts 0 : 15788 1 : 9506 2 : 9345 3 : 0 
Heartbeat_Variant_1_evicts 0 : 9473 1 : 0 2 : 8866 3 : 0 
Heartbeat_Variant_2_evicts 0 : 9394 1 : 8825 2 : 0 3 : 0 
Heartbeat_Variant_3_evicts 0 : 0 1 : 0 2 : 0 3 : 0 
Heartbeat CPU 0 instructions: 100000000 cycles: 60634527 heartbeat IPC: 1.06317 cumulative IPC: 1.07179 (Simulation time: 0 hr 18 min 50 sec) 
Finished CPU 0 instructions: 50000000 cycles: 46651016 cumulative IPC: 1.07179 (Simulation time: 0 hr 18 min 50 sec) 

ChampSim completed all CPUs

Region of Interest Statistics

CPU 0 cumulative IPC: 1.07179 instructions: 50000000 cycles: 46651016
 Fetch stage stalled: 72.9005  Sim cycles: 46651016 fetch stall cycle: 34008843
 Empty decode stage: 64.934  Sim cycles: 46651016 fetch stall cycle: 30292381
ITLB TOTAL     ACCESS:    5741926  HIT:    5249122  MISS:     492804  HIT %:    91.4174  MISS %:    8.58256   MPKI: 9.85608
ITLB LOAD TRANSLATION INSTRUCTION	ACCESS:    5640659  HIT:    5147855  MISS:     492804  HIT %:    91.2634  MISS %:    8.73664  MPKI: 9.85608
ITLB TRANSLATION FROM L1D PREFETCHER INSTRUCTION	ACCESS:     101267  HIT:     101267  MISS:          0  HIT %:        100  MISS %:          0  MPKI: 0

ITLB AVERAGE MISS LATENCY: 9.0571 cycles
ITLB RQ	ACCESS:    7531504	FORWARD:          0	MERGED:    1353631	TO_CACHE:    6177873

DTLB TOTAL     ACCESS:    9421025  HIT:    8950809  MISS:     470216  HIT %:    95.0089  MISS %:    4.99113   MPKI: 9.40432
DTLB LOAD TRANSLATION DATA	ACCESS:    9421025  HIT:    8950809  MISS:     470216  HIT %:    95.0089  MISS %:    4.99113  MPKI: 9.40432

DTLB AVERAGE MISS LATENCY: 9.34795 cycles
DTLB RQ	ACCESS:   13681787	FORWARD:          0	MERGED:    4227470	TO_CACHE:    9454317

STLB TOTAL     ACCESS:    1214727  HIT:    1212430  MISS:       2297  HIT %:    99.8109  MISS %:   0.189096   MPKI: 0.04594
STLB LOAD TRANSLATION INSTRUCTION	ACCESS:     492804  HIT:     492495  MISS:        309  HIT %:    99.9373  MISS %:  0.0627024  MPKI: 0.00618
STLB LOAD TRANSLATION DATA	ACCESS:     470098  HIT:     468146  MISS:       1952  HIT %:    99.5848  MISS %:   0.415233  MPKI: 0.03904
STLB TRANSLATION FROM L1D PREFETCHER DATA	ACCESS:     251825  HIT:     251789  MISS:         36  HIT %:    99.9857  MISS %:  0.0142956  MPKI: 0.00072

STLB AVERAGE MISS LATENCY: 73.0675 cycles
STLB RQ	ACCESS:    1334923	FORWARD:          0	MERGED:     120148	TO_CACHE:    1214775

STLB Hit, L1D data hit: 0
STLB Hit, L2C data hit: 0
STLB Hit, LLC data hit: 0
STLB Hit, LLC data miss: 0
STLB STLB hints to L2: 0
L1D TOTAL     ACCESS:   13451074  HIT:   12335675  MISS:    1115399  HIT %:    91.7077  MISS %:    8.29227   MPKI: 22.308
L1D LOAD DATA	ACCESS:    6875404  HIT:    6141348  MISS:     734056  HIT %:    89.3234  MISS %:    10.6766  MPKI: 14.6811
L1D RFO DATA	ACCESS:    6244546  HIT:    5957683  MISS:     286863  HIT %:    95.4062  MISS %:    4.59382  MPKI: 5.73726
L1D PREFETCH DATA	ACCESS:     331124  HIT:     236644  MISS:      94480  HIT %:    71.4669  MISS %:    28.5331  MPKI: 1.8896

L1D PREFETCH  REQUESTED:     744043  ISSUED:     744043  USEFUL:      33997  USELESS:      68062
L1D USEFUL LOAD PREFETCHES:      33997 PREFETCH ISSUED TO LOWER LEVEL:     102136  ACCURACY: 33.286
 TIMELY PREFETCHES:      33997 LATE PREFETCHES: 7566 DROPPED PREFETCHES: 8
L1D AVERAGE MISS LATENCY: 264286 cycles
L1D RQ	ACCESS:   10938413	FORWARD:          0	MERGED:    3867404	TO_CACHE:    6906990
L1D WQ	ACCESS:    6943889	FORWARD:     164254	MERGED:     169092	TO_CACHE:    6774797
L1D PQ	ACCESS:     372139	FORWARD:          0	MERGED:          0	TO_CACHE:     371904

L1D UNIQUE REGIONS ACCESSED: 0
L1D REGIONS CONFLICTS: 0
L1D Cross Page Prefetch Requests: 7175
L1D Same Page Prefetch Requests: 754957
L1D ROI Sum of L1D PQ occupancy: 4735259
L1D PREFETCHES PUSHED FROM L2C: 0
L1I TOTAL     ACCESS:    7032122  HIT:    4274437  MISS:    2757685  HIT %:    60.7845  MISS %:    39.2155   MPKI: 55.1537
L1I LOAD INSTRUCTION	ACCESS:    6552157  HIT:    3794472  MISS:    2757685  HIT %:    57.9118  MISS %:    42.0882  MPKI: 55.1537
L1I PREFETCH INSTRUCTION	ACCESS:     479965  HIT:     479965  MISS:          0  HIT %:        100  MISS %:          0  MPKI: 0

L1I PREFETCH  REQUESTED:    1048668  ISSUED:    1048668  USEFUL:          0  USELESS:          0
L1I USEFUL LOAD PREFETCHES:          0 PREFETCH ISSUED TO LOWER LEVEL:          0  ACCURACY: -nan
 TIMELY PREFETCHES:          0 LATE PREFETCHES: 0 DROPPED PREFETCHES: 0
L1I AVERAGE MISS LATENCY: 17.3612 cycles
L1I RQ	ACCESS:    9436365	FORWARD:          0	MERGED:    2650496	TO_CACHE:    6785869
L1I PQ	ACCESS:    1048668	FORWARD:          0	MERGED:     303033	TO_CACHE:     745635

L1BTB TOTAL     ACCESS:    5672017  HIT:    2048738  MISS:    3623279  HIT %:    36.1201  MISS %:    63.8799   MPKI: 72.4656
L1BTB BRANCH_DIRECT_JUMP	ACCESS:     548685  HIT:     145260  MISS:     403425	AVERAGE STALL: 33.9441
L1BTB BRANCH_INDIRECT	ACCESS:     183200  HIT:      66213  MISS:     116987	AVERAGE STALL: 80.2371
L1BTB BRANCH_CONDITIONAL	ACCESS:    2711746  HIT:    1420479  MISS:    1291267	AVERAGE STALL: 34.9648
L1BTB BRANCH_DIRECT_CALL	ACCESS:     942904  HIT:     105462  MISS:     837442	AVERAGE STALL: 36.8654
L1BTB BRANCH_INDIRECT_CALL	ACCESS:     171292  HIT:      21141  MISS:     150151	AVERAGE STALL: 105.476
L1BTB BRANCH_RETURN	ACCESS:    1114190  HIT:     290183  MISS:     824007	AVERAGE STALL: 36.0716
L1BTB BRANCH_OTHER ACCESS:          0  HIT:          0  MISS:          0	AVERAGE STALL: -nan
L1BTB TOTAL ROB OCCUPANCY AT BTB MISS: 13.0205

L2BTB TOTAL     ACCESS:    3597792  HIT:    3069336  MISS:     528456  HIT %:    85.3117  MISS %:    14.6883   MPKI: 10.5691
L2BTB BRANCH_DIRECT_JUMP	ACCESS:     399233  HIT:     342166  MISS:      57067	AVERAGE STALL: 33.9441
L2BTB BRANCH_INDIRECT	ACCESS:     106671  HIT:      97858  MISS:       8813	AVERAGE STALL: 80.2371
L2BTB BRANCH_CONDITIONAL	ACCESS:    1291267  HIT:    1129665  MISS:     161602	AVERAGE STALL: 34.9648
L2BTB BRANCH_DIRECT_CALL	ACCESS:     837442  HIT:     679724  MISS:     157718	AVERAGE STALL: 36.8654
L2BTB BRANCH_INDIRECT_CALL	ACCESS:     140574  HIT:     107424  MISS:      33150	AVERAGE STALL: 105.476
L2BTB BRANCH_RETURN	ACCESS:     822605  HIT:     712499  MISS:     110106	AVERAGE STALL: 36.0716
L2BTB BRANCH_OTHER ACCESS:          0  HIT:          0  MISS:          0	AVERAGE STALL: -nan
L2BTB TOTAL ROB OCCUPANCY AT BTB MISS: 89.273

L2C TOTAL     ACCESS:    4477075  HIT:    3962799  MISS:     514276  HIT %:    88.5131  MISS %:    11.4869   MPKI: 10.2855
L2C LOAD INSTRUCTION	ACCESS:    2757685  HIT:    2484566  MISS:     273119  HIT %:    90.0961  MISS %:    9.90392  MPKI: 5.46238
L2C LOAD TRANSLATION INSTRUCTION	ACCESS:        349  HIT:        101  MISS:        248  HIT %:    28.9398  MISS %:    71.0602  MPKI: 0.00496
L2C LOAD DATA	ACCESS:     726468  HIT:     647994  MISS:      78474  HIT %:    89.1979  MISS %:    10.8021  MPKI: 1.56948
L2C RFO DATA	ACCESS:     286753  HIT:     218889  MISS:      67864  HIT %:    76.3336  MISS %:    23.6664  MPKI: 1.35728
L2C PREFETCH DATA	ACCESS:     182639  HIT:     109818  MISS:      72821  HIT %:    60.1285  MISS %:    39.8715  MPKI: 1.45642
L2C WRITEBACK DATA	ACCESS:     521083  HIT:     500751  MISS:      20332  HIT %:    96.0981  MISS %:    3.90187  MPKI: 0.40664
L2C LOAD TRANSLATION DATA	ACCESS:       2030  HIT:        636  MISS:       1394  HIT %:      31.33  MISS %:      68.67  MPKI: 0.02788
L2C TRANSLATION FROM L1D PREFETCHER DATA	ACCESS:         68  HIT:         44  MISS:         24  HIT %:    64.7059  MISS %:    35.2941  MPKI: 0.00048

L2C PREFETCH  REQUESTED:      88680  ISSUED:      88680  USEFUL:       8141  USELESS:      65158
L2C USEFUL LOAD PREFETCHES:       8141 PREFETCH ISSUED TO LOWER LEVEL:      73204  ACCURACY: 11.121
 TIMELY PREFETCHES:       8141 LATE PREFETCHES: 383 DROPPED PREFETCHES: 0
L2C AVERAGE MISS LATENCY: 38.023 cycles
L2C RQ	ACCESS:    3773396	FORWARD:          0	MERGED:          0	TO_CACHE:    3773353
L2C WQ	ACCESS:     521083	FORWARD:         43	MERGED:          0	TO_CACHE:     521083
L2C PQ	ACCESS:     190816	FORWARD:          0	MERGED:       3235	TO_CACHE:     187581

L2C Dense regions hint from L2: 0
PSCL5 TOTAL     ACCESS:       4620  HIT:       2310  MISS:       2310  HIT %:         50  MISS %:         50   MPKI: 0.0462
PSCL5 LOAD TRANSLATION INSTRUCTION	ACCESS:       4486  HIT:       2243  MISS:       2243  HIT %:         50  MISS %:         50  MPKI: 0.04486
PSCL5 TRANSLATION FROM L1D PREFETCHER INSTRUCTION	ACCESS:        134  HIT:         67  MISS:         67  HIT %:         50  MISS %:         50  MPKI: 0.00134


PSCL4 TOTAL     ACCESS:       4477  HIT:       2234  MISS:       2243  HIT %:    49.8995  MISS %:    50.1005   MPKI: 0.04486
PSCL4 LOAD TRANSLATION INSTRUCTION	ACCESS:       2315  HIT:       2176  MISS:        139  HIT %:    93.9957  MISS %:    6.00432  MPKI: 0.00278
PSCL4 TRANSLATION FROM L1D PREFETCHER INSTRUCTION	ACCESS:         58  HIT:         58  MISS:          0  HIT %:        100  MISS %:          0  MPKI: 0
PSCL4 LOAD TRANSLATION DATA	ACCESS:       2046  HIT:          0  MISS:       2046  HIT %:          0  MISS %:        100  MPKI: 0.04092
PSCL4 TRANSLATION FROM L1D PREFETCHER DATA	ACCESS:         58  HIT:          0  MISS:         58  HIT %:          0  MISS %:        100  MPKI: 0.00116


PSCL3 TOTAL     ACCESS:       4543  HIT:       2267  MISS:       2276  HIT %:    49.9009  MISS %:    50.0991   MPKI: 0.04552
PSCL3 LOAD TRANSLATION INSTRUCTION	ACCESS:       2348  HIT:       2209  MISS:        139  HIT %:    94.0801  MISS %:    5.91993  MPKI: 0.00278
PSCL3 TRANSLATION FROM L1D PREFETCHER INSTRUCTION	ACCESS:         58  HIT:         58  MISS:          0  HIT %:        100  MISS %:          0  MPKI: 0
PSCL3 LOAD TRANSLATION DATA	ACCESS:       2079  HIT:          0  MISS:       2079  HIT %:          0  MISS %:        100  MPKI: 0.04158
PSCL3 TRANSLATION FROM L1D PREFETCHER DATA	ACCESS:         58  HIT:          0  MISS:         58  HIT %:          0  MISS %:        100  MPKI: 0.00116


PSCL2 TOTAL     ACCESS:       4497  HIT:       2187  MISS:       2310  HIT %:    48.6324  MISS %:    51.3676   MPKI: 0.0462
PSCL2 LOAD TRANSLATION INSTRUCTION	ACCESS:       2432  HIT:       2121  MISS:        311  HIT %:    87.2122  MISS %:    12.7878  MPKI: 0.00622
PSCL2 TRANSLATION FROM L1D PREFETCHER INSTRUCTION	ACCESS:         66  HIT:         66  MISS:          0  HIT %:        100  MISS %:          0  MPKI: 0
PSCL2 LOAD TRANSLATION DATA	ACCESS:       1933  HIT:          0  MISS:       1933  HIT %:          0  MISS %:        100  MPKI: 0.03866
PSCL2 TRANSLATION FROM L1D PREFETCHER DATA	ACCESS:         66  HIT:          0  MISS:         66  HIT %:          0  MISS %:        100  MPKI: 0.00132


LLC TOTAL     ACCESS:     584797  HIT:     554777  MISS:      30020  HIT %:    94.8666  MISS %:    5.13341   MPKI: 0.6004
LLC LOAD INSTRUCTION	ACCESS:     273119  HIT:     271685  MISS:       1434  HIT %:     99.475  MISS %:   0.525046  MPKI: 0.02868
LLC LOAD TRANSLATION INSTRUCTION	ACCESS:        248  HIT:        202  MISS:         46  HIT %:    81.4516  MISS %:    18.5484  MPKI: 0.00092
LLC LOAD DATA	ACCESS:      78111  HIT:      74447  MISS:       3664  HIT %:    95.3092  MISS %:    4.69076  MPKI: 0.07328
LLC RFO DATA	ACCESS:      67843  HIT:      53382  MISS:      14461  HIT %:    78.6846  MISS %:    21.3154  MPKI: 0.28922
LLC PREFETCH DATA	ACCESS:      73204  HIT:      63232  MISS:       9972  HIT %:    86.3778  MISS %:    13.6222  MPKI: 0.19944
LLC WRITEBACK DATA	ACCESS:      90854  HIT:      90512  MISS:        342  HIT %:    99.6236  MISS %:   0.376428  MPKI: 0.00684
LLC LOAD TRANSLATION DATA	ACCESS:       1394  HIT:       1293  MISS:        101  HIT %:    92.7547  MISS %:    7.24534  MPKI: 0.00202
LLC TRANSLATION FROM L1D PREFETCHER DATA	ACCESS:         24  HIT:         24  MISS:          0  HIT %:        100  MISS %:          0  MPKI: 0

LLC AVERAGE MISS LATENCY: 156.432 cycles
LLC RQ	ACCESS:     420740	FORWARD:          0	MERGED:          0	TO_CACHE:     420739
LLC WQ	ACCESS:      90854	FORWARD:          1	MERGED:          0	TO_CACHE:      90854
LLC PQ	ACCESS:      73204	FORWARD:          0	MERGED:          0	TO_CACHE:      73204

LLC Dense regions hint to LLC: 0

RAW hits: 1697134
Loads Generated: 12635545
Loads sent to L1D: 10938413
Stores Generated: 6943879
Stores sent to L1D: 6943889
Major fault: 0 Minor fault: 2651
Allocated PAGES: 2651

stream: 
stream:times selected: 1196913
stream:pref_filled: 121125
stream:pref_useful: 24005
stream:pref_late: 6962
stream:misses: 8124
stream:misses_by_poll: 0

CS: 
CS:times selected: 180166
CS:pref_filled: 61222
CS:pref_useful: 37788
CS:pref_late: 6687
CS:misses: 15894
CS:misses_by_poll: 0

CPLX: 
CPLX:times selected: 1015675
CPLX:pref_filled: 19517
CPLX:pref_useful: 4539
CPLX:pref_late: 3129
CPLX:misses: 93206
CPLX:misses_by_poll: 0

NL_L1: 
NL:times selected: 21461
NL:pref_filled: 761
NL:pref_useful: 395
NL:pref_late: 280
NL:misses: 1696
NL:misses_by_poll: 0

total selections: 2414215
total_filled: 94480
total_useful: 33997
total_late: 18367
total_polluted: 0
total_misses_after_warmup: 765646
conflicts: 5663413

test: 118676

DRAM Statistics
 CHANNEL 0
 RQ ROW_BUFFER_HIT:      10869  ROW_BUFFER_MISS:      18800
 DBUS_CONGESTED:         10
 WQ ROW_BUFFER_HIT:       1701  ROW_BUFFER_MISS:      13086  FULL:          0

 AVG_CONGESTED_CYCLE: 6

CPU 0 Branch Prediction Accuracy: 99.809% MPKI: 0.34924 Average ROB Occupancy at Mispredict: 118.455
Branch types
NOT_BRANCH: 40856148 81.7123%
BRANCH_DIRECT_JUMP: 548685 1.09737%
BRANCH_INDIRECT: 183200 0.3664%
BRANCH_CONDITIONAL: 6183325 12.3666%
BRANCH_DIRECT_CALL: 942904 1.88581%
BRANCH_INDIRECT_CALL: 171292 0.342584%
BRANCH_RETURN: 1114190 2.22838%
BRANCH_OTHER: 0 0%

DRAM PAGES: 1048576
Allocated PAGES: 2651
Average_ROB_Occupancy: 109.999
Average_Decode_Occupancy: 12.7457
Average_FTQ_Occupancy: 6.12075
Indirect max targets: 14 Average targets: 1.17666
Branch_type:  BRANCH_DIRECT_JUMP:  Count Percentage: 4.44428 6.969 3.76375 3.23078 2.76627 11.9589 6.26358 60.6034 
Branch_type:  BRANCH_INDIRECT:  Count Percentage: 13.751 3.48842 2.59115 0 1.33267 27.7647 15.4901 35.582 
Branch_type:  BRANCH_CONDITIONAL:  Count Percentage: 25.3214 3.08894 1.64601 5.86437 1.3403 8.97612 3.19716 50.5657 
Branch_type:  BRANCH_DIRECT_CALL:  Count Percentage: 0.870415 1.25838 0.755823 2.65564 2.66314 4.80586 2.21775 84.773 
Branch_type:  BRANCH_INDIRECT_CALL:  Count Percentage: 9.55196 0 2.99309 0.00087748 0.882745 3.42305 1.00062 82.1477 
Branch_type:  BRANCH_RETURN:  Count Percentage: 9.95663 1.41934 0.733937 5.7703 2.23114 11.6594 2.80752 65.4218 
Branch_type:  BRANCH_DIRECT_JUMP:  Total Count: 48757 76455 41291 35444 30348 131198 68716 664863 
Branch_type:  BRANCH_INDIRECT:  Total Count: 50405 12787 9498 0 4885 101773 56780 130428 
Branch_type:  BRANCH_CONDITIONAL:  Total Count: 3130068 381835 203469 724917 165680 1109572 395213 6250618 
Branch_type:  BRANCH_DIRECT_CALL:  Total Count: 16369 23665 14214 49942 50083 90379 41707 1594239 
Branch_type:  BRANCH_INDIRECT_CALL:  Total Count: 32657 0 10233 3 3018 11703 3421 280853 
Branch_type:  BRANCH_RETURN:  Total Count: 221371 31557 16318 128294 49606 259229 62421 1454556 
Number of unique branch instructions: 10830
Upper 32 bits: 
aaaa
ffff
ffff0000
Unique upper 32 bits: 3
Unique upper 36 bits: 3
Unique upper 40 bits: 5
Unique upper 44 bits: 32
Unique upper 48 bits: 158
Variant_0 : 1060 0.345052
Variant_1 : 979 0.318685
Variant_2 : 1032 0.335938
Variant_3 : 0 0
Offset_3 4484
Offset_4 257
Offset_5 485
Offset_6 540
Offset_7 639
Offset_8 582
Offset_9 525
Offset_10 428
Offset_11 356
Offset_12 326
Offset_13 238
Offset_14 247
Offset_15 191
Offset_16 234
Offset_17 173
Offset_18 151
Offset_19 262
Offset_20 141
Offset_21 235
Offset_22 413
Offset_23 241
Offset_24 353
Offset_25 117
Offset_47 94
decode_dispatch_called: 20340874 43.6022
Dispatch_width: 0 10269151 50.4853 22.0127
Dispatch_width: 1 552625 2.71682 1.18459
Dispatch_width: 2 699481 3.4388 1.49939
Dispatch_width: 3 483489 2.37693 1.0364
Dispatch_width: 4 1524814 7.49631 3.26855
Dispatch_width: 5 369356 1.81583 0.791743
Dispatch_width: 6 6441958 31.67 13.8088
Empty_decode_cycles: 26310142 56.3978
ROB_full_cycles: 1948259 4.17624
Starvation_cycles_per_kilo_instr: 382.608
Starvation_cycles_per_kilo_instr_3: 363.666
Starvation_cycles_per_kilo_instr_0: 346.31
Branch_type_1  (3,1)  (4,9)  (5,39)  (6,73)  (7,126)  (8,150)  (9,140)  (10,111)  (11,81)  (12,55)  (13,12)  (14,2)  (15,3)  (16,4)  (18,1)  (19,5)  (20,2)  (21,1)  (22,3)  (23,2)  (24,10)  (25,12) 
Branch_type_2  (3,1)  (4,1)  (5,1)  (8,4)  (9,4)  (10,1)  (12,1)  (13,1)  (14,1)  (16,3)  (17,2)  (20,2)  (21,2)  (23,5)  (24,1)  (47,43) 
Branch_type_3  (3,4482)  (4,247)  (5,441)  (6,451)  (7,483)  (8,361)  (9,286)  (10,174)  (11,142)  (12,62)  (13,10) 
Branch_type_4  (6,3)  (7,8)  (8,25)  (9,56)  (10,68)  (11,68)  (12,116)  (13,100)  (14,112)  (15,90)  (16,104)  (17,79)  (18,66)  (19,128)  (20,72)  (21,124)  (22,218)  (23,136)  (24,208)  (25,101) 
Branch_type_5  (8,3)  (9,1)  (10,4)  (11,5)  (12,3)  (13,14)  (14,16)  (15,11)  (16,22)  (17,13)  (18,23)  (19,14)  (20,11)  (21,13)  (22,43)  (23,26)  (24,38) 
Branch_type_6  (5,4)  (6,13)  (7,22)  (8,39)  (9,38)  (10,70)  (11,60)  (12,89)  (13,101)  (14,116)  (15,87)  (16,101)  (17,79)  (18,61)  (19,115)  (20,54)  (21,95)  (22,149)  (23,72)  (24,96)  (25,4)  (47,51) 
Unique trigger count: 
Variant_0_evicts_0 : 0
Variant_0_evicts_1 : 0
Variant_0_evicts_2 : 0
Variant_0_evicts_3 : 0
Variant_1_evicts_0 : 0
Variant_1_evicts_1 : 0
Variant_1_evicts_2 : 0
Variant_1_evicts_3 : 0
Variant_2_evicts_0 : 0
Variant_2_evicts_1 : 0
Variant_2_evicts_2 : 0
Variant_2_evicts_3 : 0
Variant_3_evicts_0 : 0
Variant_3_evicts_1 : 0
Variant_3_evicts_2 : 0
Variant_3_evicts_3 : 0
BTB PER SET UNIQUE ADDR: 45 51 44 58 49 40 36 38 42 46 46 59 42 47 46 40 44 44 43 53 44 37 40 39 47 52 49 56 41 40 50 49 62 38 51 52 56 44 36 40 40 40 45 58 47 44 43 41 60 52 42 47 47 62 38 36 46 41 36 47 45 56 47 49 52 50 41 44 54 45 48 40 56 39 40 41 37 53 42 66 44 40 45 51 44 45 55 52 50 68 48 41 48 43 31 52 46 36 51 47 66 50 44 50 47 42 46 35 35 43 37 53 53 36 44 41 51 51 52 45 48 40 49 36 45 41 35 51 61 42 39 47 44 50 40 55 28 57 41 62 42 59 39 44 45 45 53 47 50 45 48 54 40 45 38 53 47 46 42 54 43 40 57 61 49 44 49 50 46 38 48 54 40 54 49 45 46 42 46 54 40 50 44 51 47 55 33 51 51 42 49 38 43 52 47 48 46 42 53 48 47 52 43 46 47 43 49 43 56 50 49 63 38 51 47 51 42 56 49 56 39 50 46 46 43 44 53 41 40 53 50 34 53 59 43 56 56 48 39 50 43 48 57 53 50 41 40 43 37 42 40 41 42 48 46 40 19 18 18 20 25 18 7 24 22 13 21 19 19 22 21 23 17 14 15 16 22 28 21 22 16 25 16 18 25 18 18 34 33 29 26 18 25 27 18 29 25 28 25 23 19 21 20 35 23 30 27 21 31 23 23 29 21 35 28 13 28 21 20 29 19 25 18 22 28 30 23 18 23 16 22 30 19 20 21 26 16 17 16 36 25 25 16 27 27 26 18 24 21 23 25 24 26 24 25 26 23 27 18 17 21 31 19 31 23 25 13 24 27 23 25 15 26 26 18 31 24 28 22 25 23 25 18 19 21 22 27 32 24 24 31 18 26 28 19 18 18 19 32 24 21 22 24 26 27 31 27 26 21 23 25 21 19 28 21 22 23 30 39 30 20 29 24 26 25 20 26 19 25 22 32 21 21 23 29 28 27 19 21 23 28 21 21 28 33 22 18 25 30 26 28 38 25 17 31 32 25 28 19 33 16 23 21 28 33 19 25 24 27 26 24 28 28 22 23 33 26 35 16 25 35 29 21 26 17 27 34 30 28 25 21 25 19 17 20 20 26 25 21 25 22 29 20 35 21 19 19 31 26 27 25 32 21 23 24 28 21 30 19 17 18 21 25 16 22 34 38 15 15 30 28 26 25 23 25 30 22 24 26 23 27 20 26 24 29 32 16 29 17 22 24 33 26 24 19 24 23 25 32 27 20 31 23 23 23 29 24 29 24 31 27 24 29 34 23 28 30 29 21 25 22 26 13 26 26 27 22 23 35 25 18 23 22 16 26 19 16 23 22 21 25 22 22 14 23 24 33 21 23 23 32 25 20 19 10 29 19 27 22 24 28 27 18 20 20 32 21 29 19 24 18 27 30 24 24 21 27 29 21 27 22 30 27 30 30 26 21 26 33 20 17 27 17 19 29 24 24 24 26 23 24 13 27 31 21 26 21 20 19 20 24 23 21 26 35 21 27 26 29 31 20 32 18 28 27 23 20 23 28 28 24 25 24 15 17 21 17 28 21 26 14 26 27 32 12 28 23 18 21 14 21 23 17 22 19 19 30 25 19 30 27 24 23 21 20 21 24 22 20 19 25 22 25 18 21 27 24 31 36 22 22 19 21 24 34 31 21 23 23 21 24 19 23 23 20 24 34 23 20 20 24 14 17 24 22 28 16 24 
BTB PER SET COUNT: 2077 2343 3559 2698 2598 1715 1824 1629 2093 2221 1558 3202 16522 3196 2225 1509 2244 2103 1923 2312 2099 1306 1933 2120 1926 2474 2567 3027 2196 2045 2264 2904 2971 1855 2273 2569 2754 2188 1472 2351 1530 1688 1838 4168 2261 1862 2317 2556 3341 2734 2272 2774 2265 2892 1580 1700 2198 1803 1821 2169 2047 3258 2344 2497 2517 2517 1489 2799 2563 2124 2594 2302 2443 2020 1690 1771 1898 2681 1686 2811 2181 3161 2494 2322 1661 2757 2575 2464 2857 3215 2245 1912 2650 2300 1202 2200 2333 1589 2071 3945 3790 2380 1568 2519 3711 1492 2058 1324 1576 1737 2527 2910 2999 1320 2046 2017 2390 2845 3448 2360 2346 1706 2210 1781 2156 2440 1253 2456 3545 2048 2063 3008 2181 2248 2148 2889 1573 2227 1581 2970 1929 2770 1815 1618 2093 2152 2844 2211 2660 2622 1816 2237 1886 2281 948 2728 2080 2379 1287 2925 1773 1831 2756 2762 2776 2369 1693 3202 2077 1738 2681 2460 1560 3054 2456 1715 1898 1534 2256 2940 1664 2315 2555 3183 2196 4099 970 2322 2668 1876 2213 1843 2013 2814 2396 1918 2292 1772 2378 2245 2251 2471 2215 2621 1884 2150 3196 2015 2698 2372 2934 3216 1723 3023 2117 3589 1856 3304 3625 2699 1730 2139 2278 2922 2051 2171 2283 2256 1789 2826 1940 1644 2379 3362 1936 3726 2292 2436 2239 2341 2349 2576 3344 2985 2184 2010 1730 2127 1438 1687 1581 1587 1639 2461 2219 2205 605 709 590 725 935 559 143 1051 563 399 786 651 1546 788 682 882 528 309 725 319 898 956 632 1057 285 1056 847 765 754 635 317 1667 1010 911 801 434 544 1368 476 1240 1546 1152 684 1267 553 646 309 1524 582 1206 1007 760 1500 1487 1111 1161 575 1376 2460 908 1108 923 816 1319 470 2464 336 682 1280 1433 1081 554 575 411 841 1110 480 477 645 1064 378 1454 379 1600 879 1874 467 1026 1151 835 411 880 571 904 994 505 875 560 590 686 688 1210 454 548 690 1182 568 1098 629 1852 253 808 1018 796 769 711 927 1131 938 1020 752 974 697 1269 967 621 617 379 567 579 2868 1179 682 1195 1178 303 807 1635 485 552 437 805 1435 1177 716 716 815 622 1152 1009 1035 824 746 1032 1131 317 536 1463 625 857 760 2535 1773 1033 657 1055 738 879 761 578 1581 574 815 910 1195 805 564 717 1470 1190 918 989 538 712 1469 755 527 1069 2073 770 867 994 1128 1054 1752 2537 962 545 1159 2070 951 981 670 1188 505 680 628 1308 1405 721 6358 692 924 1037 905 1144 793 811 715 1499 873 1615 566 1083 1602 1282 582 870 700 1061 1580 1138 2112 803 991 807 4749 523 416 781 1170 2089 752 699 637 1333 684 1375 716 409 573 1535 1013 731 927 2526 1652 1433 657 1319 599 1260 577 723 379 856 740 613 902 1514 2153 1085 664 2282 1627 1058 879 743 1143 1238 994 1593 879 1066 1111 642 873 1033 924 1421 325 797 573 1056 913 1389 1335 1011 643 518 877 639 1305 1048 515 1432 756 752 1254 1162 951 1052 945 1186 1483 887 861 1285 2694 967 1220 1323 898 884 1041 1122 396 2683 805 1220 1094 847 1605 1016 1021 625 812 429 1012 549 946 1396 842 480 418 948 812 346 1113 775 1173 3068 458 721 1324 1464 1249 348 213 983 305 1017 1036 1308 1251 792 410 685 623 1132 625 1206 1910 660 339 1511 1349 836 774 901 948 1455 520 1323 815 1065 990 781 1371 906 1100 1139 1681 417 344 812 373 584 2337 912 683 658 1361 1376 692 275 1369 1106 4876 944 616 1300 1371 756 811 669 774 971 1666 836 835 901 1096 1344 780 974 887 729 1538 756 642 674 1109 1027 570 814 805 406 2735 710 757 2097 807 744 1315 1057 1422 1095 178 1016 740 617 349 374 784 935 817 657 765 616 1493 890 650 1189 1049 1043 591 1224 1783 718 675 918 1448 993 1022 7376 759 552 613 1134 992 1140 1322 470 1097 425 825 900 1254 968 1671 540 783 674 1895 628 1127 2574 1517 809 1263 1235 549 536 984 451 271 1054 1873 1324 381 1206 
To predecode: 0
Predecoding something: 0
Predecode request dropped: 0
sizeofblock_0 0
sizeofblock_1 383636
sizeofblock_2 247877
sizeofblock_3 90060
sizeofblock_4 50012
sizeofblock_5 0
sizeofblock_6 0
sizeofblock_7 0
sizeofblock_8 0
Variant_0 Correct: 1320160 Incorrect: 0 Accuracy: 1
Variant_1 Correct: 1789523 Incorrect: 0 Accuracy: 1
Variant_2 Correct: 3275506 Incorrect: 0 Accuracy: 1
Variant_3 Correct: 0 Incorrect: 0 Accuracy: -nan
