
*** ChampSim Multicore Out-of-Order Simulator ***

Warmup Instructions: 10000000
Simulation Instructions: 10000000
Number of CPUs: 1
LLC sets: 2048
LLC ways: 16
Off-chip DRAM Size: 4096 MB Channels: 1 Width: 64-bit Data Rate: 6400 MT/s
CPU 0 runs /media/ashish/Windows1/Ashish/traces/public/spec_gobmk_001.champsimtrace.xz
.xz
ITLB has LRU replacement policy
DTLB has LRU replacement policy
STLB has LRU replacement policy
FDIP Prefetcher at L1I
L1I has LRU replacement policy
L1D has LRU replacement policy
Initialize SRRIP state for L2C
Initialize DRRIP state for LLC
Heartbeat CPU 0 instructions: 10000001 cycles: 2963140 heartbeat IPC: 3.3748 cumulative IPC: 3.3748 (Simulation time: 0 hr 4 min 29 sec) 

Warmup complete CPU 0 instructions: 10000001 cycles: 2963140 (Simulation time: 0 hr 4 min 29 sec) 

Cycle: 10000000 FTQ IN: 15075094 FTQ occupancy: 11.0313 DECODE IN: 15075094 DECODE occupancy: 30.7369 ROB IN: 15075094 ROB occupancy: 254.679 ROB OUT: 15074886
Heartbeat CPU 0 instructions: 20000002 cycles: 17366842 heartbeat IPC: 0.694266 cumulative IPC: 0.694266 (Simulation time: 0 hr 6 min 53 sec) 
Finished CPU 0 instructions: 10000001 cycles: 14403702 cumulative IPC: 0.694266 (Simulation time: 0 hr 6 min 53 sec) 

ChampSim completed all CPUs

Region of Interest Statistics

CPU 0 cumulative IPC: 0.694266 instructions: 10000001 cycles: 14403702
 Fetch stage stalled: 73.4312  Sim cycles: 14403702 fetch stall cycle: 10576816
 Empty decode stage: 24.713  Sim cycles: 14403702 fetch stall cycle: 3559585
ITLB TOTAL     ACCESS:    1087231  HIT:    1084743  MISS:       2488  HIT %:    99.7712  MISS %:   0.228838   MPKI: 0.2488
ITLB LOAD TRANSLATION INSTRUCTION	ACCESS:    1051541  HIT:    1049053  MISS:       2488  HIT %:    99.7634  MISS %:   0.236605  MPKI: 0.2488
ITLB TRANSLATION FROM L1D PREFETCHER INSTRUCTION	ACCESS:      35690  HIT:      35690  MISS:          0  HIT %:        100  MISS %:          0  MPKI: 0

ITLB AVERAGE MISS LATENCY: 33.4116 cycles
ITLB RQ	ACCESS:    1311548	FORWARD:          0	MERGED:     222441	TO_CACHE:    1089107

DTLB TOTAL     ACCESS:    1654342  HIT:    1642019  MISS:      12323  HIT %:    99.2551  MISS %:   0.744888   MPKI: 1.2323
DTLB LOAD TRANSLATION DATA	ACCESS:    1654342  HIT:    1642019  MISS:      12323  HIT %:    99.2551  MISS %:   0.744888  MPKI: 1.2323

DTLB AVERAGE MISS LATENCY: 26.2741 cycles
DTLB RQ	ACCESS:    2082004	FORWARD:          0	MERGED:     424747	TO_CACHE:    1657257

STLB TOTAL     ACCESS:     168611  HIT:     166763  MISS:       1848  HIT %:     98.904  MISS %:    1.09601   MPKI: 0.1848
STLB LOAD TRANSLATION INSTRUCTION	ACCESS:       2488  HIT:       2104  MISS:        384  HIT %:    84.5659  MISS %:    15.4341  MPKI: 0.0384
STLB LOAD TRANSLATION DATA	ACCESS:      12323  HIT:      10860  MISS:       1463  HIT %:    88.1279  MISS %:    11.8721  MPKI: 0.1463
STLB TRANSLATION FROM L1D PREFETCHER DATA	ACCESS:     153800  HIT:     153799  MISS:          1  HIT %:    99.9993  MISS %: 0.000650195  MPKI: 0.0001

STLB AVERAGE MISS LATENCY: 147.277 cycles
STLB RQ	ACCESS:     225813	FORWARD:          0	MERGED:      57171	TO_CACHE:     168642

STLB Hit, L1D data hit: 0
STLB Hit, L2C data hit: 0
STLB Hit, LLC data hit: 0
STLB Hit, LLC data miss: 0
STLB STLB hints to L2: 0
L1D TOTAL     ACCESS:    2241360  HIT:    2147749  MISS:      93611  HIT %:    95.8235  MISS %:    4.17653   MPKI: 9.3611
L1D LOAD DATA	ACCESS:    1297274  HIT:    1265842  MISS:      31432  HIT %:    97.5771  MISS %:    2.42293  MPKI: 3.1432
L1D RFO DATA	ACCESS:     735934  HIT:     711178  MISS:      24756  HIT %:    96.6361  MISS %:    3.36389  MPKI: 2.4756
L1D PREFETCH DATA	ACCESS:     208152  HIT:     170729  MISS:      37423  HIT %:    82.0213  MISS %:    17.9787  MPKI: 3.7423

L1D PREFETCH  REQUESTED:     422006  ISSUED:     422006  USEFUL:      12883  USELESS:      26049
L1D USEFUL LOAD PREFETCHES:      12883 PREFETCH ISSUED TO LOWER LEVEL:      38914  ACCURACY: 33.1063
 TIMELY PREFETCHES:      12883 LATE PREFETCHES: 1489 DROPPED PREFETCHES: 30
L1D AVERAGE MISS LATENCY: 201058 cycles
L1D RQ	ACCESS:    1850829	FORWARD:          0	MERGED:     539425	TO_CACHE:    1298800
L1D WQ	ACCESS:     807645	FORWARD:      12606	MERGED:      24441	TO_CACHE:     783204
L1D PQ	ACCESS:     211004	FORWARD:          0	MERGED:          0	TO_CACHE:     211002

L1D UNIQUE REGIONS ACCESSED: 0
L1D REGIONS CONFLICTS: 0
L1D Cross Page Prefetch Requests: 2764
L1D Same Page Prefetch Requests: 471469
L1D ROI Sum of L1D PQ occupancy: 2739308
L1D PREFETCHES PUSHED FROM L2C: 0
L1I TOTAL     ACCESS:    1296914  HIT:    1227946  MISS:      68968  HIT %:    94.6821  MISS %:    5.31785   MPKI: 6.8968
L1I LOAD INSTRUCTION	ACCESS:    1144674  HIT:    1075706  MISS:      68968  HIT %:    93.9749  MISS %:    6.02512  MPKI: 6.8968
L1I PREFETCH INSTRUCTION	ACCESS:     152240  HIT:     152240  MISS:          0  HIT %:        100  MISS %:          0  MPKI: 0

L1I PREFETCH  REQUESTED:     244756  ISSUED:     244756  USEFUL:          0  USELESS:          0
L1I USEFUL LOAD PREFETCHES:          0 PREFETCH ISSUED TO LOWER LEVEL:          0  ACCURACY: -nan
 TIMELY PREFETCHES:          0 LATE PREFETCHES: 0 DROPPED PREFETCHES: 0
L1I AVERAGE MISS LATENCY: 29.8203 cycles
L1I RQ	ACCESS:    1823483	FORWARD:          0	MERGED:     672583	TO_CACHE:    1150900
L1I PQ	ACCESS:     244756	FORWARD:          0	MERGED:      84108	TO_CACHE:     160648

L1BTB TOTAL     ACCESS:    1267512  HIT:     885681  MISS:     381831  HIT %:    69.8756  MISS %:    30.1244   MPKI: 38.1831
L1BTB BRANCH_DIRECT_JUMP	ACCESS:      84456 HIT:      36167 MISS:      48289 AVERAGE STALL: 92.5192 AVERAGE FETCH STALL: 76.3314 AVERAGE FETCH QUEUE STALL: 10.4482 AVERAGE DECODE STALL: 4.91124 AVERAGE EXECUTE STALL: 2.72881e+16
L1BTB BRANCH_INDIRECT	ACCESS:        916 HIT:        510 MISS:        406 AVERAGE STALL: 151.455 AVERAGE FETCH STALL: 99.5455 AVERAGE FETCH QUEUE STALL: 7.31818 AVERAGE DECODE STALL: 4.36364 AVERAGE EXECUTE STALL: 39.3485
L1BTB BRANCH_CONDITIONAL	ACCESS:    1003266 HIT:     789930 MISS:     213336 AVERAGE STALL: 96.8615 AVERAGE FETCH STALL: 81.2423 AVERAGE FETCH QUEUE STALL: 9.39826 AVERAGE DECODE STALL: 5.42661 AVERAGE EXECUTE STALL: 8.43473e+15
L1BTB BRANCH_DIRECT_CALL	ACCESS:      85982 HIT:      23572 MISS:      62410 AVERAGE STALL: 125.382 AVERAGE FETCH STALL: 111.414 AVERAGE FETCH QUEUE STALL: 8.28661 AVERAGE DECODE STALL: 4.90562 AVERAGE EXECUTE STALL: 1.28013e+16
L1BTB BRANCH_INDIRECT_CALL	ACCESS:       3453 HIT:       2035 MISS:       1418 AVERAGE STALL: 195.129 AVERAGE FETCH STALL: 13.7992 AVERAGE FETCH QUEUE STALL: 11.4861 AVERAGE DECODE STALL: 15.0317 AVERAGE EXECUTE STALL: 153.65
L1BTB BRANCH_RETURN	ACCESS:      89439 HIT:      33467 MISS:      55972 AVERAGE STALL: 117.142 AVERAGE FETCH STALL: 69.6911 AVERAGE FETCH QUEUE STALL: 10.5356 AVERAGE DECODE STALL: 5.57472 AVERAGE EXECUTE STALL: 1.85023e+16
L1BTB BRANCH_OTHER ACCESS:          0 HIT:          0 MISS:          0 AVERAGE STALL: -nan AVERAGE FETCH STALL: -nan AVERAGE FETCH QUEUE STALL: -nan AVERAGE DECODE STALL: -nan AVERAGE EXECUTE STALL: -nan
L1BTB TOTAL ROB OCCUPANCY AT BTB MISS: 1.33167

L2BTB TOTAL     ACCESS:     381183  HIT:     372332  MISS:       8851  HIT %:     97.678  MISS %:    2.32198   MPKI: 0.8851
L2BTB BRANCH_DIRECT_JUMP	ACCESS:      48289 HIT:      47264 MISS:       1025 AVERAGE STALL: 92.5192 AVERAGE FETCH STALL: 76.3314 AVERAGE FETCH QUEUE STALL: 10.4482 AVERAGE DECODE STALL: 4.91124 AVERAGE EXECUTE STALL: 2.72881e+16
L2BTB BRANCH_INDIRECT	ACCESS:        390 HIT:        312 MISS:         78 AVERAGE STALL: 151.455 AVERAGE FETCH STALL: 99.5455 AVERAGE FETCH QUEUE STALL: 7.31818 AVERAGE DECODE STALL: 4.36364 AVERAGE EXECUTE STALL: 39.3485
L2BTB BRANCH_CONDITIONAL	ACCESS:     213336 HIT:     209580 MISS:       3756 AVERAGE STALL: 96.8615 AVERAGE FETCH STALL: 81.2423 AVERAGE FETCH QUEUE STALL: 9.39826 AVERAGE DECODE STALL: 5.42661 AVERAGE EXECUTE STALL: 8.43473e+15
L2BTB BRANCH_DIRECT_CALL	ACCESS:      62410 HIT:      60088 MISS:       2322 AVERAGE STALL: 125.382 AVERAGE FETCH STALL: 111.414 AVERAGE FETCH QUEUE STALL: 8.28661 AVERAGE DECODE STALL: 4.90562 AVERAGE EXECUTE STALL: 1.28013e+16
L2BTB BRANCH_INDIRECT_CALL	ACCESS:        879 HIT:        606 MISS:        273 AVERAGE STALL: 195.129 AVERAGE FETCH STALL: 13.7992 AVERAGE FETCH QUEUE STALL: 11.4861 AVERAGE DECODE STALL: 15.0317 AVERAGE EXECUTE STALL: 153.65
L2BTB BRANCH_RETURN	ACCESS:      55879 HIT:      54482 MISS:       1397 AVERAGE STALL: 117.142 AVERAGE FETCH STALL: 69.6911 AVERAGE FETCH QUEUE STALL: 10.5356 AVERAGE DECODE STALL: 5.57472 AVERAGE EXECUTE STALL: 1.85023e+16
L2BTB BRANCH_OTHER ACCESS:          0 HIT:          0 MISS:          0 AVERAGE STALL: -nan AVERAGE FETCH STALL: -nan AVERAGE FETCH QUEUE STALL: -nan AVERAGE DECODE STALL: -nan AVERAGE EXECUTE STALL: -nan
L2BTB TOTAL ROB OCCUPANCY AT BTB MISS: 57.4482

L2C TOTAL     ACCESS:     211963  HIT:     157921  MISS:      54042  HIT %:     74.504  MISS %:     25.496   MPKI: 5.4042
L2C LOAD INSTRUCTION	ACCESS:      68968  HIT:      58766  MISS:      10202  HIT %:    85.2076  MISS %:    14.7924  MPKI: 1.0202
L2C LOAD TRANSLATION INSTRUCTION	ACCESS:        394  HIT:        234  MISS:        160  HIT %:    59.3909  MISS %:    40.6091  MPKI: 0.016
L2C LOAD DATA	ACCESS:      29941  HIT:      17527  MISS:      12414  HIT %:    58.5385  MISS %:    41.4615  MPKI: 1.2414
L2C RFO DATA	ACCESS:      24754  HIT:      13823  MISS:      10931  HIT %:    55.8415  MISS %:    44.1585  MPKI: 1.0931
L2C PREFETCH DATA	ACCESS:      53787  HIT:      34811  MISS:      18976  HIT %:    64.7201  MISS %:    35.2799  MPKI: 1.8976
L2C WRITEBACK DATA	ACCESS:      32583  HIT:      32127  MISS:        456  HIT %:    98.6005  MISS %:     1.3995  MPKI: 0.0456
L2C LOAD TRANSLATION DATA	ACCESS:       1504  HIT:        610  MISS:        894  HIT %:    40.5585  MISS %:    59.4415  MPKI: 0.0894
L2C TRANSLATION FROM L1D PREFETCHER DATA	ACCESS:         32  HIT:         23  MISS:          9  HIT %:     71.875  MISS %:     28.125  MPKI: 0.0009

L2C PREFETCH  REQUESTED:      22151  ISSUED:      22151  USEFUL:       2228  USELESS:      16808
L2C USEFUL LOAD PREFETCHES:       2228 PREFETCH ISSUED TO LOWER LEVEL:      19132  ACCURACY: 11.6454
 TIMELY PREFETCHES:       2228 LATE PREFETCHES: 156 DROPPED PREFETCHES: 0
L2C AVERAGE MISS LATENCY: 99.8402 cycles
L2C RQ	ACCESS:     125595	FORWARD:          0	MERGED:          0	TO_CACHE:     125593
L2C WQ	ACCESS:      32583	FORWARD:          2	MERGED:          0	TO_CACHE:      32583
L2C PQ	ACCESS:      61065	FORWARD:          0	MERGED:       5195	TO_CACHE:      55870

L2C Dense regions hint from L2: 0
PSCL5 TOTAL     ACCESS:       3754  HIT:       1877  MISS:       1877  HIT %:         50  MISS %:         50   MPKI: 0.1877
PSCL5 LOAD TRANSLATION INSTRUCTION	ACCESS:       3694  HIT:       1847  MISS:       1847  HIT %:         50  MISS %:         50  MPKI: 0.1847
PSCL5 TRANSLATION FROM L1D PREFETCHER INSTRUCTION	ACCESS:         60  HIT:         30  MISS:         30  HIT %:         50  MISS %:         50  MPKI: 0.003


PSCL4 TOTAL     ACCESS:       3544  HIT:       1771  MISS:       1773  HIT %:    49.9718  MISS %:    50.0282   MPKI: 0.1773
PSCL4 LOAD TRANSLATION INSTRUCTION	ACCESS:       3006  HIT:       1741  MISS:       1265  HIT %:    57.9175  MISS %:    42.0825  MPKI: 0.1265
PSCL4 TRANSLATION FROM L1D PREFETCHER INSTRUCTION	ACCESS:         34  HIT:         30  MISS:          4  HIT %:    88.2353  MISS %:    11.7647  MPKI: 0.0004
PSCL4 LOAD TRANSLATION DATA	ACCESS:        478  HIT:          0  MISS:        478  HIT %:          0  MISS %:        100  MPKI: 0.0478
PSCL4 TRANSLATION FROM L1D PREFETCHER DATA	ACCESS:         26  HIT:          0  MISS:         26  HIT %:          0  MISS %:        100  MPKI: 0.0026


PSCL3 TOTAL     ACCESS:       3733  HIT:       1864  MISS:       1869  HIT %:     49.933  MISS %:     50.067   MPKI: 0.1869
PSCL3 LOAD TRANSLATION INSTRUCTION	ACCESS:       3329  HIT:       1834  MISS:       1495  HIT %:    55.0916  MISS %:    44.9084  MPKI: 0.1495
PSCL3 TRANSLATION FROM L1D PREFETCHER INSTRUCTION	ACCESS:         34  HIT:         30  MISS:          4  HIT %:    88.2353  MISS %:    11.7647  MPKI: 0.0004
PSCL3 LOAD TRANSLATION DATA	ACCESS:        344  HIT:          0  MISS:        344  HIT %:          0  MISS %:        100  MPKI: 0.0344
PSCL3 TRANSLATION FROM L1D PREFETCHER DATA	ACCESS:         26  HIT:          0  MISS:         26  HIT %:          0  MISS %:        100  MPKI: 0.0026


PSCL2 TOTAL     ACCESS:       3666  HIT:       1790  MISS:       1876  HIT %:    48.8271  MISS %:    51.1729   MPKI: 0.1876
PSCL2 LOAD TRANSLATION INSTRUCTION	ACCESS:       2163  HIT:       1761  MISS:        402  HIT %:    81.4147  MISS %:    18.5853  MPKI: 0.0402
PSCL2 TRANSLATION FROM L1D PREFETCHER INSTRUCTION	ACCESS:         30  HIT:         29  MISS:          1  HIT %:    96.6667  MISS %:    3.33333  MPKI: 0.0001
PSCL2 LOAD TRANSLATION DATA	ACCESS:       1445  HIT:          0  MISS:       1445  HIT %:          0  MISS %:        100  MPKI: 0.1445
PSCL2 TRANSLATION FROM L1D PREFETCHER DATA	ACCESS:         28  HIT:          0  MISS:         28  HIT %:          0  MISS %:        100  MPKI: 0.0028


LLC TOTAL     ACCESS:      68157  HIT:      42026  MISS:      26131  HIT %:    61.6606  MISS %:    38.3394   MPKI: 2.6131
LLC LOAD INSTRUCTION	ACCESS:      10202  HIT:       5401  MISS:       4801  HIT %:    52.9406  MISS %:    47.0594  MPKI: 0.4801
LLC LOAD TRANSLATION INSTRUCTION	ACCESS:        160  HIT:         76  MISS:         84  HIT %:       47.5  MISS %:       52.5  MPKI: 0.0084
LLC LOAD DATA	ACCESS:      12259  HIT:       7154  MISS:       5105  HIT %:    58.3571  MISS %:    41.6429  MPKI: 0.5105
LLC RFO DATA	ACCESS:      10930  HIT:       2510  MISS:       8420  HIT %:    22.9643  MISS %:    77.0357  MPKI: 0.842
LLC PREFETCH DATA	ACCESS:      19132  HIT:      12187  MISS:       6945  HIT %:    63.6996  MISS %:    36.3004  MPKI: 0.6945
LLC WRITEBACK DATA	ACCESS:      14571  HIT:      14085  MISS:        486  HIT %:    96.6646  MISS %:    3.33539  MPKI: 0.0486
LLC LOAD TRANSLATION DATA	ACCESS:        894  HIT:        611  MISS:        283  HIT %:    68.3445  MISS %:    31.6555  MPKI: 0.0283
LLC TRANSLATION FROM L1D PREFETCHER DATA	ACCESS:          9  HIT:          2  MISS:          7  HIT %:    22.2222  MISS %:    77.7778  MPKI: 0.0007

LLC AVERAGE MISS LATENCY: 143.544 cycles
LLC RQ	ACCESS:      34454	FORWARD:          0	MERGED:          0	TO_CACHE:      34454
LLC WQ	ACCESS:      14571	FORWARD:          0	MERGED:          0	TO_CACHE:      14571
LLC PQ	ACCESS:      19132	FORWARD:          0	MERGED:          0	TO_CACHE:      19132

LLC Dense regions hint to LLC: 0

RAW hits: 150313
Loads Generated: 2001145
Loads sent to L1D: 1850829
Stores Generated: 807649
Stores sent to L1D: 807645
Major fault: 0 Minor fault: 3088
Allocated PAGES: 3088

stream: 
stream:times selected: 735182
stream:pref_filled: 43785
stream:pref_useful: 8181
stream:pref_late: 302
stream:misses: 4420
stream:misses_by_poll: 0

CS: 
CS:times selected: 119922
CS:pref_filled: 15398
CS:pref_useful: 13406
CS:pref_late: 1045
CS:misses: 1735
CS:misses_by_poll: 40

CPLX: 
CPLX:times selected: 613488
CPLX:pref_filled: 21103
CPLX:pref_useful: 1920
CPLX:pref_late: 255
CPLX:misses: 19474
CPLX:misses_by_poll: 19

NL_L1: 
NL:times selected: 9796
NL:pref_filled: 906
NL:pref_useful: 245
NL:pref_late: 59
NL:misses: 472
NL:misses_by_poll: 0

total selections: 1478388
total_filled: 37423
total_useful: 12883
total_late: 1814
total_polluted: 59
total_misses_after_warmup: 32958
conflicts: 651755

test: 205501

DRAM Statistics
 CHANNEL 0
 RQ ROW_BUFFER_HIT:      10098  ROW_BUFFER_MISS:      15546
 DBUS_CONGESTED:         13
 WQ ROW_BUFFER_HIT:       2073  ROW_BUFFER_MISS:       5136  FULL:          0

 AVG_CONGESTED_CYCLE: 3

CPU 0 Branch Prediction Accuracy: 93.3995% MPKI: 12.3675 Average ROB Occupancy at Mispredict: 128.02
Branch types
NOT_BRANCH: 8126060 81.2606%
BRANCH_DIRECT_JUMP: 84456 0.84456%
BRANCH_INDIRECT: 916 0.00916%
BRANCH_CONDITIONAL: 1609469 16.0947%
BRANCH_DIRECT_CALL: 85982 0.85982%
BRANCH_INDIRECT_CALL: 3453 0.03453%
BRANCH_RETURN: 89439 0.89439%
BRANCH_OTHER: 0 0%

DRAM PAGES: 1048576
Allocated PAGES: 3088
Average_ROB_Occupancy: 196.913
Average_Decode_Occupancy: 16.6189
Average_FTQ_Occupancy: 5.37248
Indirect max targets: 44 Average targets: 1.8869
Branch_type:  BRANCH_DIRECT_JUMP:  Count Percentage: 8.91 6.23006 10.4872 10.8056 3.66155 1.37742 0.545001 57.9832 
Branch_type:  BRANCH_INDIRECT:  Count Percentage: 12.3557 6.35104 0 5.6582 0 0.692841 0.577367 74.3649 
Branch_type:  BRANCH_CONDITIONAL:  Count Percentage: 45.0605 8.21795 5.98014 6.71308 1.92226 3.7326 0.738297 27.6351 
Branch_type:  BRANCH_DIRECT_CALL:  Count Percentage: 0.171102 1.43626 2.20622 11.5525 4.15579 8.26475 0.734367 71.479 
Branch_type:  BRANCH_INDIRECT_CALL:  Count Percentage: 0 0.573713 58.5188 0.764951 0 1.37344 0.0869263 38.6822 
Branch_type:  BRANCH_RETURN:  Count Percentage: 4.74116 1.61625 5.8075 11.6742 11.3478 4.85472 8.80808 51.1503 
Branch_type:  BRANCH_DIRECT_JUMP:  Total Count: 14632 10231 17222 17745 6013 2262 895 95220 
Branch_type:  BRANCH_INDIRECT:  Total Count: 107 55 0 49 0 6 5 644 
Branch_type:  BRANCH_CONDITIONAL:  Total Count: 1456371 265607 193280 216969 62128 120639 23862 893177 
Branch_type:  BRANCH_DIRECT_CALL:  Total Count: 274 2300 3533 18500 6655 13235 1176 114465 
Branch_type:  BRANCH_INDIRECT_CALL:  Total Count: 0 33 3366 44 0 79 5 2225 
Branch_type:  BRANCH_RETURN:  Total Count: 7932 2704 9716 19531 18985 8122 14736 85575 
Number of unique branch instructions: 14767
Upper 32 bits: 
0
ffff
ffff0000
Unique upper 32 bits: 3
Unique upper 36 bits: 3
Unique upper 40 bits: 3
Unique upper 44 bits: 14
Unique upper 48 bits: 80
Offset_0 1
Offset_3 6866
Offset_4 350
Offset_5 861
Offset_6 917
Offset_7 965
Offset_8 919
Offset_9 924
Offset_10 774
Offset_11 679
Offset_12 326
Offset_13 341
Offset_14 277
Offset_15 292
Offset_16 427
Offset_17 454
Offset_18 661
Offset_19 394
Offset_20 464
Offset_21 274
Offset_22 175
Offset_23 107
Offset_24 147
Offset_48 82
decode_dispatch_called: 5776822 40.1065
Dispatch_width: 0 3457801 59.8565 24.0063
Dispatch_width: 1 280125 4.84912 1.94481
Dispatch_width: 2 201695 3.49145 1.4003
Dispatch_width: 3 138157 2.39157 0.959177
Dispatch_width: 4 609760 10.5553 4.23336
Dispatch_width: 5 72785 1.25995 0.505321
Dispatch_width: 6 1016499 17.5962 7.05721
Empty_decode_cycles: 8626880 59.8935
ROB_full_cycles: 2562310 17.7892
Starvation_cycles_per_kilo_instr: 541.245
Starvation_cycles_per_kilo_instr_3: 507.117
Starvation_cycles_per_kilo_instr_0: 476.119
Branch_type_1  (4,35)  (5,132)  (6,95)  (7,147)  (8,187)  (9,240)  (10,181)  (11,149)  (12,60)  (13,34)  (14,3)  (15,1)  (16,1)  (17,8)  (18,6)  (19,5) 
Branch_type_2  (3,1)  (4,2)  (6,4)  (7,2)  (8,5)  (9,4)  (10,1)  (11,3)  (12,4)  (13,2)  (16,2)  (17,4)  (20,1)  (21,1)  (48,35) 
Branch_type_3  (0,1)  (3,6865)  (4,313)  (5,720)  (6,802)  (7,786)  (8,645)  (9,561)  (10,431)  (11,338)  (12,99)  (13,55) 
Branch_type_4  (6,4)  (7,12)  (8,36)  (9,60)  (10,86)  (11,102)  (12,84)  (13,129)  (14,152)  (15,159)  (16,220)  (17,280)  (18,406)  (19,235)  (20,326)  (21,147)  (22,106)  (23,69)  (24,120) 
Branch_type_5  (8,1)  (10,4)  (11,4)  (12,1)  (13,4)  (14,8)  (15,5)  (16,18)  (17,10)  (18,10)  (19,14)  (20,7)  (21,13)  (22,6)  (23,11)  (24,1)  (48,2) 
Branch_type_6  (5,9)  (6,12)  (7,18)  (8,45)  (9,59)  (10,71)  (11,83)  (12,78)  (13,117)  (14,114)  (15,127)  (16,186)  (17,152)  (18,239)  (19,141)  (20,130)  (21,113)  (22,63)  (23,27)  (24,26)  (48,45) 
4075b0: 10a574 10a59b 11735a 11991e 119b88 119e83 11a4bf 11a7cf 11abfb 11dc2f 11dc3f 124324 124662 12544f 1254c0 12593f 125ac7 125b12 125c73 125d21 125e50 125ebb 1261cd 1262fe 12643f 126779 126b37 126bdf 126dd5 1274a0 127570 1277c6 1277c9 133478 133566 1335b6 
40f500: 10e0dc 10e31d 1109bc 12488c 125025 12521f 1253a6 125b8a 125e1c 125f7c 126010 126378 12637c 126564 126876 126985 126aec 126ec9 126f72 126f85 12700a 1272dc 127362 1273cf 133649 133848 
4152a0: 10dba4 110da6 110eaf 1116b3 11183b 120487 120bd3 120e01 120e76 1220ea 12215e 1221a0 1225cb 1234bf 1234d8 123538 12353b 123541 123547 123549 12354a 12354f 1235a4 1246b9 12470f 124ca0 124e65 124f0b 124fb9 1251ff 125b38 125e54 125e57 125e6d 1260bb 12614c 126175 1265c4 1268ef 126f34 127120 12780a 127813 133528 133533 133546 
4172f0: 106ed3 1070a7 109c91 109cb0 10a145 10a174 10a5a4 10b4ad 10b567 10b5c7 10beef 10d287 10d5e4 110710 111816 111a4e 111c29 113616 113ae4 114444 1152f1 116026 11be5c 11bfc8 11e270 1213f2 122126 
417d70: 106ed7 1070a4 107141 107146 107352 10a5ed 10a6a5 10ab66 10ac21 10ac44 10ad30 10ad34 10b4a9 10b59e 10b5ad 10b78e 10beeb 10d564 10d7c0 10e38f 111c92 111d92 112d4e 11353f 113642 113afe 114272 115188 11519c 1151a4 1151d8 1151e6 1160ed 1160f1 11abcf 11beaf 11bf8d 
417f80: 1070ab 1085de 10868c 109c95 10b4b1 10b570 10b5cb 10bef4 10d28b 10d5d4 10d5d7 110714 111820 111c86 113aea 11444b 11602a 11bfcc 11e275 1213f6 
436df4: 10a443 10a45b 117d03 117d26 11853a 118603 119331 11958f 119939 119aa4 119b76 119e72 119e8c 119f27 119f3e 119fba 119fc0 11a042 11a04a 11a25e 11a39e 11a432 11a564 11a731 11ac14 11b07a 11be48 11be64 11bef8 11c759 11ca0a 11ce56 11ce8f 11cec7 11d316 11d6c5 11d989 11d991 11d9c5 11da0d 11da4a 11da52 11da93 11dacb 11db7b 11db93 11dbcb 11dc56 11dc73 120491 1225b4 
436e64: 108762 109fb7 10a00a 10a47c 10a57b 10a5a1 1164e9 1164f7 11652f 11735e 11743f 11746e 11894a 118b03 118b5b 118bad 118be1 118cdc 118d14 118e78 1190a6 1190ff 11912d 11915e 1191af 1192f5 119b91 11a371 11a3dd 11a411 11a4c5 11a519 11a747 11a764 11a787 11a7cc 11a7d4 11b83f 11b9da 11c26f 11d29a 11d50b 11d574 11d58c 11d68e 11d6ef 
437c20: 118ccf 118cd2 118cd5 118cf6 118d36 118d3d 118e74 119094 1190a0 1190f8 11911e 119132 119139 11914c 119158 1191a6 1191a9 1192e6 1192fa 119301 119317 119a8d 119ba3 119ba7 119e54 119fac 11ce3e 11ce7e 11ce94 11ce9b 11ceb6 11cecc 11d288 11d294 11d306 11d31c 11d4de 11d52d 11d588 11d67c 11d688 11d69f 11d6e6 11d6e9 
46ae00: 106eda 1070a9 107107 10731a 1085d4 1085d8 108682 108686 109c93 109ef4 109ef7 10b07d 10b087 10b4af 10b569 10b5c9 10bef1 10d289 10d5d1 10ff76 1106d2 110712 111818 111a69 111c2c 11341a 113ae8 114446 1151bd 11520e 11526b 116021 116028 1192a5 11be35 11bfca 11e272 1213f4 121fc5 122129 
4cd570: 10db9f 10e035 10e055 10e06e 10e084 10e2b4 10e4a2 10e4d1 10e4da 11d9c7 11da0f 120492 1234b0 1234ef 123511 12354d 1235a2 1277ce 1277d3 1336fb 
586d00: 10e1be 10e1c2 10e2d5 10e2d9 10e2dd 10e36e 10ee01 10ff7e 10ffbe 10ffc3 10ffc8 11020c 110210 110214 110a03 110afc 110b09 111670 11167d 124732 1274c0 127592 133581 1335d1 133613 133617 13361b 1337ff 133803 133807 133e4c 133e50 133f5f 133f63 
ffff0000080fb208: 20224ea 202f4ab 202f4e9 202f4f1 205eeaa 2064486 20644c5 206459e 20645a1 2064abd 2064ada 2064caf 2064e5d 2064e85 20654ff 20660cb 206613f 20661b2 206622f 2075d3e 2076464 
ffff0000081b5d30: 202f09b 202f3a1 202f411 202f42d 202f46a 203648e 20375a3 205278e 206465c 2064b78 2064df5 2064f4e 20660a6 20660e9 2066190 2066203 206620e 2074e77 2076399 20763fc 2078149 20781a9 207a641 207adfe 207ba53 207fff0 2088727 
ffff000008991380: 202f3d0 202f5c0 2032140 203217c 2032e40 20383cb 20383fd 2038cc4 2039089 204589a 2045974 204921a 2055562 2055564 20595ff 2061588 2061aec 20623c4 206275e 2062a5d 2062d38 2062d68 2063029 2063039 2063423 20635d1 2063621 20636b7 2063716 20637b6 2064cda 2065322 20660b2 2076146 207633a 20763ac 2079c18 2079ea9 207a172 207a174 207a6a2 207a90e 207ab1c 207b589 207b828 207ba6e 207bb93 207bc56 207bc91 207fffb 2132c2c 226366e 
ffff0000089913f0: 20243dc 20265a5 2032989 20383f6 2038c48 2038ec4 2038f36 203901e 203c636 203e252 203e27d 203e2bd 203e4a5 203e4cd 203e4fc 2044281 20451e9 204725c 2059eec 205b9c4 205ba71 213a363 213ac37 213ac98 2141643 
ffff000008991460: 20243e3 20265bd 2032993 2038ca1 2038ecb 2038f70 2039048 2039de9 203c66a 203e25b 203e288 203e2c7 203e4b3 203e4d6 203e502 203e9d4 20438c6 204522b 204735c 205ba10 205ba49 205ba81 213a36a 213ac3d 213acb7 2141659 226428a 
Unique trigger count: 
1 13628
2 1305
3 249
4 114
5 47
6 25
7 22
8 9
9 8
10 5
11 10
12 6
13 4
14 2
15 3
16 2
17 1
18 1
19 1
20 2
21 1
25 1
26 1
27 3
34 1
36 1
37 1
40 1
44 1
46 2
51 1
52 1
BTB PER SET UNIQUE ADDR: 4 2 4 5 5 1 3 3 2 3 3 5 5 3 8 2 4 2 5 8 4 6 7 2 7 4 3 5 5 4 6 3 2 7 2 6 2 4 4 3 3 2 2 2 1 8 3 6 6 2 6 3 3 6 6 3 5 4 5 9 4 3 5 6 3 2 6 3 8 7 7 5 6 1 2 10 4 3 6 4 3 4 6 6 3 9 2 0 5 10 5 2 2 6 6 3 3 4 5 8 8 6 5 5 2 8 5 4 11 8 4 10 5 3 4 3 6 2 6 5 6 9 4 9 10 7 2 5 3 5 7 6 7 3 5 2 3 5 3 3 3 9 5 3 4 5 4 3 2 6 5 1 2 5 1 5 5 1 7 6 6 4 3 7 5 4 5 2 3 6 5 9 4 7 5 4 3 5 10 4 2 2 2 5 5 9 4 0 2 6 3 7 3 3 8 2 1 5 2 3 6 6 7 7 5 6 4 3 2 4 3 6 4 1 7 3 8 2 2 5 1 4 3 6 5 3 5 9 4 6 5 3 5 5 12 5 4 4 2 9 9 5 4 6 3 3 2 2 6 5 6 8 2 3 3 3 5 4 6 4 4 7 7 7 3 7 6 6 4 5 4 5 5 5 4 1 6 5 4 2 7 5 4 5 1 4 4 3 4 8 4 0 6 4 6 5 6 1 2 3 9 2 4 5 2 5 3 5 1 3 3 4 3 5 7 1 4 4 3 4 1 2 5 3 5 6 6 4 3 3 5 3 3 3 9 2 2 4 4 5 1 3 6 4 3 6 3 5 2 3 8 6 4 8 4 3 3 8 6 3 6 7 4 9 7 6 5 5 7 8 3 5 5 5 6 8 6 5 7 10 3 5 4 6 9 5 3 9 9 5 5 1 2 5 4 4 5 2 9 2 3 4 5 5 3 1 9 7 4 4 4 1 6 6 6 7 2 5 4 4 2 5 5 7 3 7 7 2 1 6 5 6 6 4 8 5 10 5 7 1 5 6 2 8 5 6 1 5 7 6 4 3 4 3 2 3 5 4 5 6 5 3 6 4 3 3 7 6 6 4 5 5 3 5 8 4 2 1 3 4 11 6 4 3 9 1 5 4 9 3 4 3 7 10 2 5 7 7 7 7 7 4 4 4 8 9 4 4 7 7 7 3 4 4 4 4 2 5 4 9 6 1 10 3 8 4 3 3 4 1 5 4 7 5 10 5 6 5 3 3 8 6 11 4 2 4 7 3 2 4 3 3 10 5 4 4 4 4 7 10 6 4 4 4 1 4 2 6 3 5 4 5 2 6 5 6 3 3 6 7 9 6 2 8 9 3 2 2 5 7 6 5 7 6 5 4 4 4 6 9 4 1 9 3 5 6 7 3 3 3 4 4 8 4 5 6 4 6 4 6 3 9 2 4 4 2 6 6 7 6 4 4 9 3 8 5 5 6 2 5 2 6 1 2 7 4 7 6 1 3 2 6 4 7 3 4 5 3 0 5 2 6 6 5 4 6 5 4 7 2 6 2 7 5 2 7 5 5 3 5 3 7 2 7 10 5 4 9 8 5 3 5 3 3 5 4 6 5 2 3 3 4 3 3 3 4 2 10 6 3 4 5 7 5 6 6 6 6 4 10 5 1 4 4 5 4 2 4 3 3 2 4 5 8 5 3 8 4 3 7 4 5 3 3 3 7 7 6 8 5 5 2 4 3 4 4 9 5 1 10 4 3 4 3 5 1 6 5 2 8 6 4 2 5 4 4 2 6 3 4 0 7 7 4 5 7 7 7 8 6 7 3 3 4 7 7 1 4 4 10 4 7 8 5 5 3 4 5 2 7 3 3 5 10 4 6 7 5 4 6 9 10 3 8 8 5 5 6 11 3 4 8 4 7 4 6 5 4 7 6 4 3 8 3 3 8 3 8 6 5 2 3 6 7 4 1 4 6 6 4 5 5 5 3 2 5 2 3 7 6 3 8 3 2 4 3 7 1 4 4 7 5 6 3 7 5 8 9 4 0 7 1 7 3 4 4 8 4 5 4 5 4 4 2 5 4 6 4 7 2 5 4 5 4 4 7 5 2 7 8 8 3 4 2 3 8 5 4 4 1 7 5 4 3 7 5 6 4 9 8 3 5 2 2 4 4 3 4 8 8 4 3 7 3 6 2 6 5 7 9 4 5 4 5 4 6 4 10 10 10 4 3 6 5 4 5 7 10 2 7 11 7 6 5 7 5 5 8 6 4 5 7 3 8 1 7 4 4 1 2 5 6 11 8 5 4 2 8 2 6 3 7 4 7 4 5 11 3 7 7 1 4 3 5 5 10 9 7 5 5 8 8 12 5 6 4 5 3 10 5 3 7 3 4 7 6 3 7 4 4 5 4 2 3 5 7 4 7 8 8 7 6 3 4 7 6 4 6 4 8 6 4 4 10 4 2 7 7 5 5 8 4 7 9 3 8 8 5 7 4 3 4 5 6 6 1 4 7 3 5 5 2 2 4 9 4 6 5 6 3 8 7 5 8 6 2 1 2 7 7 4 3 4 9 6 2 5 6 7 2 3 1 4 4 8 2 5 11 7 6 7 8 9 5 4 6 3 2 4 5 3 5 5 3 4 6 2 6 4 2 6 6 4 7 2 3 5 9 3 2 2 5 8 2 8 4 3 8 3 6 1 5 5 6 6 7 4 5 2 3 4 2 8 3 5 3 5 3 7 9 5 6 2 7 5 7 3 4 5 4 2 6 5 6 2 5 2 4 6 9 8 7 5 1 6 1 6 7 7 4 8 5 3 8 4 6 5 5 6 6 2 10 5 5 8 6 5 5 2 7 6 5 7 5 9 2 5 3 3 7 5 6 4 5 6 3 8 8 7 4 4 5 8 6 4 4 2 2 10 4 6 6 8 8 6 4 11 4 6 8 7 3 4 4 5 3 6 2 5 8 11 2 4 3 8 4 5 8 10 4 12 2 3 9 7 8 9 8 4 5 2 5 4 5 2 2 2 6 2 5 6 7 6 5 2 5 10 6 8 6 6 5 10 5 5 5 8 9 6 5 7 8 5 8 2 3 2 6 10 6 4 5 3 6 7 5 9 0 5 8 1 4 6 6 6 6 9 4 5 4 8 7 9 7 4 6 8 6 2 6 5 5 5 8 9 7 3 4 7 5 7 8 8 7 10 6 4 6 10 8 4 10 6 7 5 6 6 8 10 7 8 4 8 8 7 7 9 6 8 1 4 8 3 9 5 9 4 7 6 4 3 3 6 8 6 9 6 10 3 9 9 7 8 7 5 9 5 3 8 4 7 8 6 10 8 5 6 4 3 4 7 7 7 8 6 6 5 4 3 3 2 9 9 12 6 12 0 9 4 5 5 8 6 4 8 3 6 7 8 11 9 1 8 6 10 7 6 6 3 8 5 10 9 9 4 7 10 12 4 7 7 6 5 9 5 3 6 5 5 4 9 10 5 5 2 10 3 5 4 3 7 5 9 3 4 3 4 3 2 3 2 6 4 7 7 5 3 7 4 10 2 8 7 4 6 8 4 6 6 2 11 1 4 3 7 1 5 4 5 4 6 5 11 5 5 9 6 6 7 4 7 8 5 9 11 8 5 2 12 7 4 4 5 8 5 8 3 2 6 5 5 5 9 7 5 4 3 2 5 4 5 8 5 4 0 3 5 4 4 3 4 6 4 0 8 5 2 4 9 1 5 5 7 2 5 6 5 6 2 3 4 5 8 5 3 5 2 6 4 8 3 6 5 3 7 7 7 5 7 3 5 8 4 5 7 4 7 4 5 4 4 2 7 6 3 5 6 5 5 5 6 3 4 10 7 1 8 7 3 5 6 5 2 5 5 12 6 7 3 4 7 5 5 5 2 3 6 9 6 6 3 3 3 7 9 5 8 8 2 1 5 3 6 7 13 7 9 3 9 6 6 10 4 10 4 5 8 5 7 6 6 1 6 5 6 4 8 1 5 4 10 3 3 6 5 4 7 4 4 8 3 6 9 5 5 2 7 10 8 5 4 5 3 5 2 5 4 5 5 3 2 7 5 8 2 2 7 4 6 5 9 4 9 5 3 3 9 6 3 2 5 2 3 0 8 5 5 6 4 5 9 4 9 6 8 3 10 3 6 6 2 7 5 4 5 9 2 5 9 4 6 6 6 5 6 3 2 2 11 5 2 11 7 3 5 5 4 4 5 10 3 5 10 10 5 6 5 6 3 7 4 6 7 5 10 4 5 3 2 8 8 3 8 5 3 2 5 4 6 6 5 5 5 5 5 4 6 3 8 6 4 6 4 7 6 9 5 3 6 6 9 8 6 8 7 6 4 2 8 4 9 3 7 3 4 4 5 7 10 5 8 3 8 2 8 5 3 10 6 2 6 4 5 2 5 3 10 3 4 8 7 5 2 3 5 4 2 3 3 4 3 4 4 3 5 2 7 2 2 0 5 6 4 2 2 6 4 4 5 3 4 4 1 5 2 6 2 1 7 4 5 5 4 2 3 4 6 3 1 5 5 5 3 4 3 6 2 5 8 6 4 4 5 2 6 3 7 3 4 4 4 2 6 6 6 5 2 5 7 6 4 4 4 3 5 4 3 8 6 1 2 3 4 5 3 3 3 6 
BTB PER SET COUNT: 241 69 36 16 10 2 15 4 2 6 12 25 26 5 420 13 48 2 13 68 31 9 148 2 23 18 24 38 8 4 13 3 3 11 3 17 19 53 23 4 10 2 181 13 1 35 3 371 7 9 302 6 284 82 19 16 35 5 91 52 9 22 8 91 9 27 18 6 57 18 8 365 15 2 13 33 17 8 8 11 53 8 10 54 5 302 2 0 15 27 24 3 7 160 11 16 3 10 28 125 29 12 9 12 16 17 128 5 22 22 15 29 36 16 18 18 25 2 8 7 23 20 6 13 17 458 18 47 9 33 22 41 42 9 6 2 15 43 3 7 4 98 11 13 4 10 15 27 4 17 12 3 7 27 1 8 31 1 19 16 13 6 15 10 11 6 154 4 6 10 17 19 6 26 13 8 3 6 37 84 24 5 4 7 17 14 41 0 2 8 5 11 16 6 17 2 1 270 2 6 43 15 42 25 20 13 9 30 8 19 8 22 15 2 32 15 61 6 2 16 4 8 4 155 24 89 5 57 12 157 5 99 21 1363 322 3532 5 118 67 56 68 11 7 480 8 3 11 39 126 8 20 291 3 25 4 3 36 10 22 4 6 45 35 11 5 602 433 12 44 35 10 12 13 7 55 3 9 5 10 2 8 26 6 9 1 16 9 51 68 20 5 0 12 17 366 9 25 4 33 6 57 2 9 99 3 24 3 13 5 9 27 20 121 48 19 1 15 6 5 9 2 2 47 7 17 16 14 5 11 10 18 16 4 13 30 2 6 13 26 117 14 4 93 6 7 31 3 10 19 3 15 10 12 24 27 10 7 13 14 12 46 33 55 21 12 14 5 6 57 36 8 14 8 117 290 34 56 5 12 41 4 328 15 11 11 14 10 17 50 8 14 1 2 16 5 11 18 2 16 3 5 23 9 8 3 3 32 15 48 10 5 1 14 17 36 10 5 16 26 5 3 12 16 35 6 19 70 8 1 580 38 78 952 11 38 51 46 12 20 3 164 14 2 22 82 27 2 39 104 30 18 6 29 4 12 5 9 9 12 8 8 8 33 9 4 10 52 18 21 5 19 1075 75 18 21 4 3 1 14 5 39 6 62 580 47 3 328 14 39 12 118 7 45 302 4 10 177 31 55 26 85 5 9 27 25 39 25 6 24 23 11 4 91 20 8 17 2 15 19 30 72 1 38 4 38 21 18 5 14 1 28 6 33 36 54 9 26 45 12 17 108 431 37 4 5 10 29 11 12 7 3 5 17 26 6 5 127 25 149 34 32 10 5 6 2 10 2 90 84 8 25 26 3 87 9 65 9 5 73 16 48 14 3 111 21 8 2 3 33 130 52 5 22 52 10 29 5 19 16 163 12 17 22 21 19 96 16 16 24 3 36 116 49 27 92 9 439 26 34 44 36 29 5 13 7 4 43 8 105 13 25 7 61 270 17 11 9 48 4 8 3 30 1 6 9 15 99 32 2 3 4 19 8 14 3 5 68 3 0 9 4 76 13 18 5 13 11 6 22 5 9 6 8 10 16 18 5 8 48 141 102 18 9 26 63 33 6 23 11 25 5 12 47 9 7 27 74 19 2 3 7 19 7 60 13 21 4 42 60 8 9 14 41 26 28 26 9 68 8 20 29 1 5 28 11 24 2 13 9 3 8 5 40 37 6 5 54 74 23 26 24 27 51 22 16 31 34 17 65 18 13 2 13 7 7 9 72 80 21 70 95 8 6 71 19 98 67 25 44 17 75 13 2 21 30 10 9 15 12 48 0 29 266 215 10 44 31 21 94 42 72 32 3 36 173 74 38 7 22 88 9 35 21 73 13 324 222 9 5 11 13 5 95 82 6 23 44 18 116 24 43 269 11 22 68 11 390 130 199 22 24 199 21 22 45 25 10 28 54 55 12 22 13 48 4 70 15 51 16 32 2 22 30 21 14 3 33 38 86 21 12 12 8 7 4 10 50 7 17 25 7 27 5 8 21 3 73 71 31 6 25 22 77 25 569 33 23 78 86 0 25 1 30 9 9 12 28 4 14 14 5 5 9 8 17 13 8 9 15 4 11 6 42 20 23 16 19 5 19 35 21 5 12 3 20 60 12 294 5 8 72 18 6 13 368 314 108 17 17 95 6 24 2 14 13 8 34 6 21 15 4 12 46 6 22 2 9 23 17 29 12 111 189 93 7 106 9 44 26 86 6 6 8 8 23 118 18 129 2 126 79 63 46 71 18 14 403 939 14 68 13 158 91 12 1 58 18 4 1 10 28 9 72 16 13 21 37 46 89 23 4 79 8 17 72 56 24 17 67 32 2 30 5 15 15 34 14 8 14 12 25 214 37 10 29 17 380 9 17 20 11 50 4 35 16 38 5 22 5 11 16 4 4 3 15 11 14 9 11 31 11 9 3 5 8 23 6 14 9 43 56 6 38 38 154 3 186 86 45 8 25 33 10 37 9 19 49 8 32 7 7 19 15 21 15 25 8 13 5 12 35 4 12 8 24 6 29 7 13 9 24 22 24 13 12 7 2 3 22 91 5 4 16 34 48 3 11 23 21 2 6 1 15 17 27 3 37 34 16 7 26 40 15 14 6 14 11 7 10 11 18 23 17 5 7 119 2 398 65 16 19 62 7 13 3 3 8 179 6 20 3 98 97 33 69 65 6 76 3 262 5 22 20 51 10 17 131 27 6 18 11 2 18 5 8 8 32 6 48 15 5 10 2 324 18 19 9 9 33 11 5 18 506 18 2 9 16 9 23 24 26 27 96 3 103 1 144 15 23 6 31 12 10 33 9 29 26 25 17 13 2 20 21 9 29 9 11 13 3 15 22 129 22 147 40 2 6 17 21 24 8 42 7 54 59 4 23 168 34 13 33 11 12 9 7 8 5 17 35 6 25 19 28 29 7 10 24 5 22 16 16 20 4 22 14 12 18 10 20 39 17 4 10 6 21 6 13 38 31 30 32 7 3 93 12 32 50 35 17 324 4 172 38 24 2 2 2 18 16 8 17 25 15 16 3 11 40 9 12 59 115 18 126 14 42 11 15 19 9 161 13 23 13 18 2 11 18 7 27 12 6 17 14 17 29 11 26 0 17 45 3 12 28 9 54 34 25 8 45 4 136 27 95 49 8 9 14 18 2 89 8 104 6 20 21 10 9 10 17 18 30 15 33 12 31 16 5 7 27 21 6 40 9 22 7 67 20 26 29 28 14 16 13 19 58 10 21 10 48 1 19 11 8 12 9 22 6 20 8 16 5 7 11 23 69 43 16 12 6 17 19 14 11 19 15 42 8 12 27 28 20 24 9 21 25 10 14 9 7 4 13 27 26 46 28 8 7 10 3 35 3 16 16 144 42 131 0 25 4 11 6 21 8 7 12 10 160 9 102 28 33 1 19 20 39 10 13 21 4 15 8 50 19 14 6 12 26 27 9 13 25 20 8 19 10 146 14 14 8 8 53 26 25 13 2 16 4 9 6 3 7 8 46 8 6 8 8 3 3 6 3 47 4 17 41 5 7 46 19 51 3 52 17 17 9 26 4 19 72 3 48 1 8 6 36 1 38 7 56 5 20 17 47 20 82 23 56 13 29 19 10 22 28 18 93 10 6 5 34 20 8 13 7 18 11 10 7 12 31 22 22 5 11 14 9 5 8 2 22 8 5 48 15 19 0 3 19 12 6 6 12 18 23 0 16 7 2 4 14 1 8 41 30 4 7 22 6 10 2 5 9 8 12 10 9 9 7 17 5 33 3 12 16 5 12 81 48 20 10 3 6 15 9 9 15 16 14 282 13 5 7 33 20 19 9 373 6 43 13 5 37 3 4 117 28 1 30 8 3 7 10 10 2 18 6 24 8 56 6 6 53 9 14 8 20 3 15 29 8 6 7 13 11 29 17 6 12 12 11 2 7 3 8 32 72 17 21 4 12 12 34 45 5 18 4 7 23 19 34 8 14 1 35 17 40 4 53 1 92 4 338 3 13 29 6 4 13 5 4 32 4 9 14 6 8 3 46 21 23 5 4 7 3 16 104 7 15 35 6 3 4 15 8 20 4 2 14 5 13 20 25 8 35 9 3 7 153 19 3 2 7 2 3 0 47 8 7 6 8 13 33 6 19 8 13 16 55 3 8 19 7 10 14 6 32 15 2 13 17 8 7 29 25 32 16 12 2 3 35 11 2 100 69 12 8 13 4 4 7 20 8 7 18 45 23 9 18 18 3 20 5 211 31 29 21 94 18 30 3 11 18 3 28 8 19 34 19 9 12 20 13 24 15 8 16 7 9 3 45 17 19 9 4 102 11 25 49 5 9 13 25 11 26 24 11 18 9 16 14 13 19 3 11 8 7 7 10 38 29 10 123 3 15 2 23 201 3 26 23 2 110 30 25 2 5 4 18 39 54 20 9 16 15 3 27 9 7 3 8 19 9 25 6 12 27 7 15 2 98 0 11 32 8 4 8 15 5 8 10 11 11 11 1 13 2 11 67 1 55 39 28 7 7 2 25 4 8 3 1 65 14 11 14 7 3 24 3 12 27 10 8 9 55 2 25 21 22 16 6 6 10 4 29 8 27 8 3 8 11 16 26 9 9 11 90 4 4 143 8 1 25 27 86 7 11 3 3 13 
