
*** ChampSim Multicore Out-of-Order Simulator ***

Warmup Instructions: 10000000
Simulation Instructions: 10000000
Number of CPUs: 1
LLC sets: 2048
LLC ways: 16
Off-chip DRAM Size: 4096 MB Channels: 1 Width: 64-bit Data Rate: 6400 MT/s
CPU 0 runs /media/ashish/Windows1/Ashish/traces/public/server_019.champsimtrace.xz
.xz
ITLB has LRU replacement policy
DTLB has LRU replacement policy
STLB has LRU replacement policy
FDIP Prefetcher at L1I
L1I has LRU replacement policy
L1D has LRU replacement policy
Initialize SRRIP state for L2C
Initialize DRRIP state for LLC
Heartbeat CPU 0 instructions: 10000002 cycles: 3147093 heartbeat IPC: 3.17754 cumulative IPC: 3.17754 (Simulation time: 0 hr 4 min 54 sec) 

Warmup complete CPU 0 instructions: 10000002 cycles: 3147093 (Simulation time: 0 hr 4 min 54 sec) 

Cycle: 10000000 FTQ IN: 13768716 FTQ occupancy: 19.0094 DECODE IN: 13768574 DECODE occupancy: 48.975 ROB IN: 13768514 ROB occupancy: 314.583 ROB OUT: 13768162
Cycle: 20000000 FTQ IN: 5383551 FTQ occupancy: 17.3305 DECODE IN: 5383579 DECODE occupancy: 44.6991 ROB IN: 5383579 ROB occupancy: 301.349 ROB OUT: 5383579
Heartbeat CPU 0 instructions: 20000000 cycles: 21475676 heartbeat IPC: 0.545596 cumulative IPC: 0.545596 (Simulation time: 0 hr 8 min 34 sec) 
Finished CPU 0 instructions: 10000002 cycles: 18328584 cumulative IPC: 0.545596 (Simulation time: 0 hr 8 min 34 sec) 

ChampSim completed all CPUs

Region of Interest Statistics

CPU 0 cumulative IPC: 0.545596 instructions: 10000002 cycles: 18328584
 Fetch stage stalled: 33.121  Sim cycles: 18328584 fetch stall cycle: 6070603
 Empty decode stage: 10.9906  Sim cycles: 18328584 fetch stall cycle: 2014413
ITLB TOTAL     ACCESS:    1243861  HIT:    1167555  MISS:      76306  HIT %:    93.8654  MISS %:    6.13461   MPKI: 7.6306
ITLB LOAD TRANSLATION INSTRUCTION	ACCESS:    1225312  HIT:    1149006  MISS:      76306  HIT %:    93.7725  MISS %:    6.22748  MPKI: 7.6306
ITLB TRANSLATION FROM L1D PREFETCHER INSTRUCTION	ACCESS:      18549  HIT:      18549  MISS:          0  HIT %:        100  MISS %:          0  MPKI: 0

ITLB AVERAGE MISS LATENCY: 9.55806 cycles
ITLB RQ	ACCESS:    1649632	FORWARD:          0	MERGED:     318717	TO_CACHE:    1330915

DTLB TOTAL     ACCESS:    2089074  HIT:    2006597  MISS:      82477  HIT %:     96.052  MISS %:    3.94802   MPKI: 8.2477
DTLB LOAD TRANSLATION DATA	ACCESS:    2089074  HIT:    2006597  MISS:      82477  HIT %:     96.052  MISS %:    3.94802  MPKI: 8.2477

DTLB AVERAGE MISS LATENCY: 18.4797 cycles
DTLB RQ	ACCESS:    3176509	FORWARD:          0	MERGED:    1070839	TO_CACHE:    2105670

STLB TOTAL     ACCESS:     286820  HIT:     282518  MISS:       4302  HIT %:    98.5001  MISS %:     1.4999   MPKI: 0.4302
STLB LOAD TRANSLATION INSTRUCTION	ACCESS:      76306  HIT:      76217  MISS:         89  HIT %:    99.8834  MISS %:   0.116636  MPKI: 0.0089
STLB LOAD TRANSLATION DATA	ACCESS:      82477  HIT:      78579  MISS:       3898  HIT %:    95.2738  MISS %:    4.72617  MPKI: 0.3898
STLB TRANSLATION FROM L1D PREFETCHER DATA	ACCESS:     128037  HIT:     127722  MISS:        315  HIT %:     99.754  MISS %:   0.246023  MPKI: 0.0315

STLB AVERAGE MISS LATENCY: 192.96 cycles
STLB RQ	ACCESS:     299547	FORWARD:          0	MERGED:      12646	TO_CACHE:     286901

STLB Hit, L1D data hit: 0
STLB Hit, L2C data hit: 0
STLB Hit, LLC data hit: 0
STLB Hit, LLC data miss: 0
STLB STLB hints to L2: 0
L1D TOTAL     ACCESS:    2775547  HIT:    2394771  MISS:     380776  HIT %:     86.281  MISS %:     13.719   MPKI: 38.0776
L1D LOAD DATA	ACCESS:    1413661  HIT:    1301789  MISS:     111872  HIT %:    92.0864  MISS %:    7.91364  MPKI: 11.1872
L1D RFO DATA	ACCESS:    1234572  HIT:    1033991  MISS:     200581  HIT %:     83.753  MISS %:     16.247  MPKI: 20.0581
L1D PREFETCH DATA	ACCESS:     127314  HIT:      58991  MISS:      68323  HIT %:     46.335  MISS %:     53.665  MPKI: 6.8323

L1D PREFETCH  REQUESTED:     281648  ISSUED:     281648  USEFUL:      67439  USELESS:      12416
L1D USEFUL LOAD PREFETCHES:      67439 PREFETCH ISSUED TO LOWER LEVEL:      79879  ACCURACY: 84.4264
 TIMELY PREFETCHES:      67439 LATE PREFETCHES: 11536 DROPPED PREFETCHES: 40
L1D AVERAGE MISS LATENCY: 376467 cycles
L1D RQ	ACCESS:    2181472	FORWARD:          0	MERGED:     737556	TO_CACHE:    1420284
L1D WQ	ACCESS:    1777102	FORWARD:      23752	MERGED:      20877	TO_CACHE:    1756225
L1D PQ	ACCESS:     140884	FORWARD:          0	MERGED:          0	TO_CACHE:     140764

L1D UNIQUE REGIONS ACCESSED: 0
L1D REGIONS CONFLICTS: 0
L1D Cross Page Prefetch Requests: 2764
L1D Same Page Prefetch Requests: 276076
L1D ROI Sum of L1D PQ occupancy: 2183625
L1D PREFETCHES PUSHED FROM L2C: 0
L1I TOTAL     ACCESS:    1518875  HIT:    1034765  MISS:     484110  HIT %:    68.1271  MISS %:    31.8729   MPKI: 48.411
L1I LOAD INSTRUCTION	ACCESS:    1370531  HIT:     886421  MISS:     484110  HIT %:    64.6772  MISS %:    35.3228  MPKI: 48.411
L1I PREFETCH INSTRUCTION	ACCESS:     148344  HIT:     148344  MISS:          0  HIT %:        100  MISS %:          0  MPKI: 0

L1I PREFETCH  REQUESTED:     300424  ISSUED:     300424  USEFUL:          0  USELESS:          0
L1I USEFUL LOAD PREFETCHES:          0 PREFETCH ISSUED TO LOWER LEVEL:          0  ACCURACY: -nan
 TIMELY PREFETCHES:          0 LATE PREFETCHES: 0 DROPPED PREFETCHES: 0
L1I AVERAGE MISS LATENCY: 17.084 cycles
L1I RQ	ACCESS:    1851400	FORWARD:          0	MERGED:     434465	TO_CACHE:    1416935
L1I PQ	ACCESS:     300424	FORWARD:          0	MERGED:      67727	TO_CACHE:     232697

L1BTB TOTAL     ACCESS:    1004843  HIT:     337454  MISS:     667389  HIT %:    33.5828  MISS %:    66.4172   MPKI: 66.7389
L1BTB BRANCH_DIRECT_JUMP	ACCESS:      88768 HIT:      11042 MISS:      77726 AVERAGE STALL: 206.622 AVERAGE FETCH STALL: 42.6216 AVERAGE FETCH QUEUE STALL: 42.6216 AVERAGE DECODE STALL: 120.378 AVERAGE EXECUTE STALL: 2.4928e+17
L1BTB BRANCH_INDIRECT	ACCESS:      10235 HIT:       5051 MISS:       5184 AVERAGE STALL: 492.439 AVERAGE FETCH STALL: 18.0152 AVERAGE FETCH QUEUE STALL: 85.5152 AVERAGE DECODE STALL: 98.9091 AVERAGE EXECUTE STALL: 289
L1BTB BRANCH_CONDITIONAL	ACCESS:     539446 HIT:     267691 MISS:     271755 AVERAGE STALL: 115.082 AVERAGE FETCH STALL: 47.0604 AVERAGE FETCH QUEUE STALL: 35.1978 AVERAGE DECODE STALL: 31.8516 AVERAGE EXECUTE STALL: 1.01356e+17
L1BTB BRANCH_DIRECT_CALL	ACCESS:     151078 HIT:      15087 MISS:     135991 AVERAGE STALL: 164.16 AVERAGE FETCH STALL: 12.0027 AVERAGE FETCH QUEUE STALL: 95.4541 AVERAGE DECODE STALL: 55.7111 AVERAGE EXECUTE STALL: 2.45629e+16
L1BTB BRANCH_INDIRECT_CALL	ACCESS:      32118 HIT:       4142 MISS:      27976 AVERAGE STALL: 223.858 AVERAGE FETCH STALL: 8.34157 AVERAGE FETCH QUEUE STALL: 47.2464 AVERAGE DECODE STALL: 31.4008 AVERAGE EXECUTE STALL: 136.199
L1BTB BRANCH_RETURN	ACCESS:     183198 HIT:      34441 MISS:     148757 AVERAGE STALL: 88.1475 AVERAGE FETCH STALL: 18.2091 AVERAGE FETCH QUEUE STALL: 4.06302 AVERAGE DECODE STALL: 6.63741 AVERAGE EXECUTE STALL: 8.29738e+14
L1BTB BRANCH_OTHER ACCESS:          0 HIT:          0 MISS:          0 AVERAGE STALL: -nan AVERAGE FETCH STALL: -nan AVERAGE FETCH QUEUE STALL: -nan AVERAGE DECODE STALL: -nan AVERAGE EXECUTE STALL: -nan
L1BTB TOTAL ROB OCCUPANCY AT BTB MISS: 4.58323

L2BTB TOTAL     ACCESS:     662716  HIT:     638161  MISS:      24555  HIT %:    96.2948  MISS %:    3.70521   MPKI: 2.4555
L2BTB BRANCH_DIRECT_JUMP	ACCESS:      77726 HIT:      77648 MISS:         78 AVERAGE STALL: 206.622 AVERAGE FETCH STALL: 42.6216 AVERAGE FETCH QUEUE STALL: 42.6216 AVERAGE DECODE STALL: 120.378 AVERAGE EXECUTE STALL: 2.4928e+17
L2BTB BRANCH_INDIRECT	ACCESS:       5135 HIT:       5118 MISS:         17 AVERAGE STALL: 492.439 AVERAGE FETCH STALL: 18.0152 AVERAGE FETCH QUEUE STALL: 85.5152 AVERAGE DECODE STALL: 98.9091 AVERAGE EXECUTE STALL: 289
L2BTB BRANCH_CONDITIONAL	ACCESS:     271755 HIT:     271562 MISS:        193 AVERAGE STALL: 115.082 AVERAGE FETCH STALL: 47.0604 AVERAGE FETCH QUEUE STALL: 35.1978 AVERAGE DECODE STALL: 31.8516 AVERAGE EXECUTE STALL: 1.01356e+17
L2BTB BRANCH_DIRECT_CALL	ACCESS:     135368 HIT:     135239 MISS:        129 AVERAGE STALL: 164.16 AVERAGE FETCH STALL: 12.0027 AVERAGE FETCH QUEUE STALL: 95.4541 AVERAGE DECODE STALL: 55.7111 AVERAGE EXECUTE STALL: 2.45629e+16
L2BTB BRANCH_INDIRECT_CALL	ACCESS:      24110 HIT:      22071 MISS:       2039 AVERAGE STALL: 223.858 AVERAGE FETCH STALL: 8.34157 AVERAGE FETCH QUEUE STALL: 47.2464 AVERAGE DECODE STALL: 31.4008 AVERAGE EXECUTE STALL: 136.199
L2BTB BRANCH_RETURN	ACCESS:     148622 HIT:     126523 MISS:      22099 AVERAGE STALL: 88.1475 AVERAGE FETCH STALL: 18.2091 AVERAGE FETCH QUEUE STALL: 4.06302 AVERAGE DECODE STALL: 6.63741 AVERAGE EXECUTE STALL: 8.29738e+14
L2BTB BRANCH_OTHER ACCESS:          0 HIT:          0 MISS:          0 AVERAGE STALL: -nan AVERAGE FETCH STALL: -nan AVERAGE FETCH QUEUE STALL: -nan AVERAGE DECODE STALL: -nan AVERAGE EXECUTE STALL: -nan
L2BTB TOTAL ROB OCCUPANCY AT BTB MISS: 124.569

L2C TOTAL     ACCESS:    1184072  HIT:     790104  MISS:     393968  HIT %:    66.7277  MISS %:    33.2723   MPKI: 39.3968
L2C LOAD INSTRUCTION	ACCESS:     484111  HIT:     451105  MISS:      33006  HIT %:    93.1821  MISS %:    6.81786  MPKI: 3.3006
L2C LOAD TRANSLATION INSTRUCTION	ACCESS:        132  HIT:         28  MISS:        104  HIT %:    21.2121  MISS %:    78.7879  MPKI: 0.0104
L2C LOAD DATA	ACCESS:     100331  HIT:      44873  MISS:      55458  HIT %:     44.725  MISS %:     55.275  MPKI: 5.5458
L2C RFO DATA	ACCESS:     200560  HIT:       8998  MISS:     191562  HIT %:    4.48644  MISS %:    95.5136  MPKI: 19.1562
L2C PREFETCH DATA	ACCESS:     157789  HIT:      54549  MISS:     103240  HIT %:    34.5709  MISS %:    65.4291  MPKI: 10.324
L2C WRITEBACK DATA	ACCESS:     236234  HIT:     228042  MISS:       8192  HIT %:    96.5323  MISS %:    3.46775  MPKI: 0.8192
L2C LOAD TRANSLATION DATA	ACCESS:       4506  HIT:       2204  MISS:       2302  HIT %:    48.9126  MISS %:    51.0874  MPKI: 0.2302
L2C TRANSLATION FROM L1D PREFETCHER DATA	ACCESS:        409  HIT:        305  MISS:        104  HIT %:    74.5721  MISS %:    25.4279  MPKI: 0.0104

L2C PREFETCH  REQUESTED:     135250  ISSUED:     135250  USEFUL:      13994  USELESS:      91035
L2C USEFUL LOAD PREFETCHES:      13994 PREFETCH ISSUED TO LOWER LEVEL:     104212  ACCURACY: 13.4284
 TIMELY PREFETCHES:      13994 LATE PREFETCHES: 972 DROPPED PREFETCHES: 0
L2C AVERAGE MISS LATENCY: 183.578 cycles
L2C RQ	ACCESS:     790060	FORWARD:          0	MERGED:          0	TO_CACHE:     790054
L2C WQ	ACCESS:     236234	FORWARD:          6	MERGED:          0	TO_CACHE:     236234
L2C PQ	ACCESS:     215129	FORWARD:          0	MERGED:       9923	TO_CACHE:     205206

L2C Dense regions hint from L2: 0
PSCL5 TOTAL     ACCESS:       8684  HIT:       4342  MISS:       4342  HIT %:         50  MISS %:         50   MPKI: 0.4342
PSCL5 LOAD TRANSLATION INSTRUCTION	ACCESS:       7892  HIT:       3946  MISS:       3946  HIT %:         50  MISS %:         50  MPKI: 0.3946
PSCL5 TRANSLATION FROM L1D PREFETCHER INSTRUCTION	ACCESS:        792  HIT:        396  MISS:        396  HIT %:         50  MISS %:         50  MPKI: 0.0396


PSCL4 TOTAL     ACCESS:       8504  HIT:       4247  MISS:       4257  HIT %:    49.9412  MISS %:    50.0588   MPKI: 0.4257
PSCL4 LOAD TRANSLATION INSTRUCTION	ACCESS:       3927  HIT:       3856  MISS:         71  HIT %:     98.192  MISS %:      1.808  MPKI: 0.0071
PSCL4 TRANSLATION FROM L1D PREFETCHER INSTRUCTION	ACCESS:        391  HIT:        391  MISS:          0  HIT %:        100  MISS %:          0  MPKI: 0
PSCL4 LOAD TRANSLATION DATA	ACCESS:       3795  HIT:          0  MISS:       3795  HIT %:          0  MISS %:        100  MPKI: 0.3795
PSCL4 TRANSLATION FROM L1D PREFETCHER DATA	ACCESS:        391  HIT:          0  MISS:        391  HIT %:          0  MISS %:        100  MPKI: 0.0391


PSCL3 TOTAL     ACCESS:       8158  HIT:       4052  MISS:       4106  HIT %:     49.669  MISS %:     50.331   MPKI: 0.4106
PSCL3 LOAD TRANSLATION INSTRUCTION	ACCESS:       3733  HIT:       3656  MISS:         77  HIT %:    97.9373  MISS %:    2.06268  MPKI: 0.0077
PSCL3 TRANSLATION FROM L1D PREFETCHER INSTRUCTION	ACCESS:        396  HIT:        396  MISS:          0  HIT %:        100  MISS %:          0  MPKI: 0
PSCL3 LOAD TRANSLATION DATA	ACCESS:       3633  HIT:          0  MISS:       3633  HIT %:          0  MISS %:        100  MPKI: 0.3633
PSCL3 TRANSLATION FROM L1D PREFETCHER DATA	ACCESS:        396  HIT:          0  MISS:        396  HIT %:          0  MISS %:        100  MPKI: 0.0396


PSCL2 TOTAL     ACCESS:       8035  HIT:       3696  MISS:       4339  HIT %:    45.9988  MISS %:    54.0012   MPKI: 0.4339
PSCL2 LOAD TRANSLATION INSTRUCTION	ACCESS:       3402  HIT:       3313  MISS:         89  HIT %:    97.3839  MISS %:    2.61611  MPKI: 0.0089
PSCL2 TRANSLATION FROM L1D PREFETCHER INSTRUCTION	ACCESS:        383  HIT:        383  MISS:          0  HIT %:        100  MISS %:          0  MPKI: 0
PSCL2 LOAD TRANSLATION DATA	ACCESS:       3867  HIT:          0  MISS:       3867  HIT %:          0  MISS %:        100  MPKI: 0.3867
PSCL2 TRANSLATION FROM L1D PREFETCHER DATA	ACCESS:        383  HIT:          0  MISS:        383  HIT %:          0  MISS %:        100  MPKI: 0.0383


LLC TOTAL     ACCESS:     606287  HIT:     365890  MISS:     240397  HIT %:    60.3493  MISS %:    39.6507   MPKI: 24.0397
LLC LOAD INSTRUCTION	ACCESS:      33006  HIT:      31742  MISS:       1264  HIT %:    96.1704  MISS %:    3.82961  MPKI: 0.1264
LLC LOAD TRANSLATION INSTRUCTION	ACCESS:        104  HIT:         33  MISS:         71  HIT %:    31.7308  MISS %:    68.2692  MPKI: 0.0071
LLC LOAD DATA	ACCESS:      54768  HIT:      44080  MISS:      10688  HIT %:     80.485  MISS %:     19.515  MPKI: 1.0688
LLC RFO DATA	ACCESS:     191280  HIT:      34685  MISS:     156595  HIT %:    18.1331  MISS %:    81.8669  MPKI: 15.6595
LLC PREFETCH DATA	ACCESS:     104212  HIT:      36606  MISS:      67606  HIT %:    35.1265  MISS %:    64.8735  MPKI: 6.7606
LLC WRITEBACK DATA	ACCESS:     220511  HIT:     217815  MISS:       2696  HIT %:    98.7774  MISS %:    1.22261  MPKI: 0.2696
LLC LOAD TRANSLATION DATA	ACCESS:       2302  HIT:        903  MISS:       1399  HIT %:    39.2268  MISS %:    60.7732  MPKI: 0.1399
LLC TRANSLATION FROM L1D PREFETCHER DATA	ACCESS:        104  HIT:         26  MISS:         78  HIT %:         25  MISS %:         75  MPKI: 0.0078

LLC AVERAGE MISS LATENCY: 250.889 cycles
LLC RQ	ACCESS:     281564	FORWARD:          0	MERGED:          0	TO_CACHE:     281564
LLC WQ	ACCESS:     220511	FORWARD:          0	MERGED:          0	TO_CACHE:     220511
LLC PQ	ACCESS:     104212	FORWARD:          0	MERGED:          0	TO_CACHE:     104212

LLC Dense regions hint to LLC: 0

RAW hits: 312673
Loads Generated: 2494148
Loads sent to L1D: 2181472
Stores Generated: 1777099
Stores sent to L1D: 1777102
Major fault: 0 Minor fault: 6720
Allocated PAGES: 6720

stream: 
stream:times selected: 743936
stream:pref_filled: 19047
stream:pref_useful: 4368
stream:pref_late: 1424
stream:misses: 2445
stream:misses_by_poll: 0

CS: 
CS:times selected: 688119
CS:pref_filled: 120415
CS:pref_useful: 116115
CS:pref_late: 9216
CS:misses: 10119
CS:misses_by_poll: 96

CPLX: 
CPLX:times selected: 54887
CPLX:pref_filled: 4793
CPLX:pref_useful: 472
CPLX:pref_late: 69
CPLX:misses: 8041
CPLX:misses_by_poll: 1

NL_L1: 
NL:times selected: 8343
NL:pref_filled: 958
NL:pref_useful: 656
NL:pref_late: 757
NL:misses: 1119
NL:misses_by_poll: 0

total selections: 1495285
total_filled: 68323
total_useful: 67439
total_late: 12020
total_polluted: 97
total_misses_after_warmup: 118493
conflicts: 1018249

test: 28657

DRAM Statistics
 CHANNEL 0
 RQ ROW_BUFFER_HIT:      85621  ROW_BUFFER_MISS:     152062
 DBUS_CONGESTED:         85
 WQ ROW_BUFFER_HIT:      46663  ROW_BUFFER_MISS:     121143  FULL:          0

 AVG_CONGESTED_CYCLE: 3

CPU 0 Branch Prediction Accuracy: 99.808% MPKI: 0.3148 Average ROB Occupancy at Mispredict: 237.443
Branch types
NOT_BRANCH: 8360118 83.6012%
BRANCH_DIRECT_JUMP: 88768 0.88768%
BRANCH_INDIRECT: 10235 0.10235%
BRANCH_CONDITIONAL: 1174042 11.7404%
BRANCH_DIRECT_CALL: 151078 1.51078%
BRANCH_INDIRECT_CALL: 32118 0.32118%
BRANCH_RETURN: 183198 1.83198%
BRANCH_OTHER: 0 0%

DRAM PAGES: 1048576
Allocated PAGES: 6720
Average_ROB_Occupancy: 295.751
Average_Decode_Occupancy: 43.513
Average_FTQ_Occupancy: 16.868
Indirect max targets: 5 Average targets: 1.13187
Branch_type:  BRANCH_DIRECT_JUMP:  Count Percentage: 0.256152 1.68328 1.67034 3.36037 10.2264 1.63712 0.146372 81.02 
Branch_type:  BRANCH_INDIRECT:  Count Percentage: 0 14.2387 10.1537 0 36.6622 0 0 38.9454 
Branch_type:  BRANCH_CONDITIONAL:  Count Percentage: 21.2978 0.808136 3.04637 1.73647 4.74795 7.51273 0.550102 60.3004 
Branch_type:  BRANCH_DIRECT_CALL:  Count Percentage: 0.10679 0.721739 0.222836 2.32755 5.10904 5.10937 0.270115 86.1326 
Branch_type:  BRANCH_INDIRECT_CALL:  Count Percentage: 11.907 0.29398 12.5976 0 0 0.0139991 0 75.1874 
Branch_type:  BRANCH_RETURN:  Count Percentage: 1.4446 1.45114 2.92382 3.19148 2.85132 6.33635 1.85591 79.9454 
Branch_type:  BRANCH_DIRECT_JUMP:  Total Count: 455 2990 2967 5969 18165 2908 260 143915 
Branch_type:  BRANCH_INDIRECT:  Total Count: 0 2900 2068 0 7467 0 0 7932 
Branch_type:  BRANCH_CONDITIONAL:  Total Count: 500019 18973 71521 40768 111470 176380 12915 1415702 
Branch_type:  BRANCH_DIRECT_CALL:  Total Count: 323 2183 674 7040 15453 15454 817 260520 
Branch_type:  BRANCH_INDIRECT_CALL:  Total Count: 7655 189 8099 0 0 9 0 48338 
Branch_type:  BRANCH_RETURN:  Total Count: 5300 5324 10727 11709 10461 23247 6809 293306 
Number of unique branch instructions: 4381
Upper 32 bits: 
aaaa
ffff
ffff0000
Unique upper 32 bits: 3
Unique upper 36 bits: 3
Unique upper 40 bits: 3
Unique upper 44 bits: 15
Unique upper 48 bits: 73
Offset_3 1859
Offset_4 83
Offset_5 219
Offset_6 228
Offset_7 292
Offset_8 253
Offset_9 243
Offset_10 194
Offset_11 145
Offset_12 111
Offset_13 87
Offset_14 96
Offset_15 92
Offset_16 110
Offset_17 142
Offset_18 62
Offset_19 140
Offset_20 60
Offset_21 53
Offset_22 51
Offset_23 6
Offset_24 151
Offset_47 33
decode_dispatch_called: 14266018 77.8348
Dispatch_width: 0 11520369 80.7539 62.8547
Dispatch_width: 1 441296 3.09334 2.40769
Dispatch_width: 2 265393 1.86032 1.44797
Dispatch_width: 3 123345 0.864607 0.672965
Dispatch_width: 4 1402615 9.83186 7.65261
Dispatch_width: 5 30902 0.216613 0.1686
Dispatch_width: 6 482098 3.37935 2.63031
Empty_decode_cycles: 4062566 22.1652
ROB_full_cycles: 11012480 60.0836
Starvation_cycles_per_kilo_instr: 341.7
Starvation_cycles_per_kilo_instr_3: 270.024
Starvation_cycles_per_kilo_instr_0: 228.523
Branch_type_1  (4,5)  (5,11)  (6,44)  (7,46)  (8,57)  (9,66)  (10,40)  (11,25)  (12,9)  (13,2)  (14,1)  (16,1)  (17,3)  (18,2)  (20,1) 
Branch_type_2  (13,1)  (47,14) 
Branch_type_3  (3,1859)  (4,78)  (5,207)  (6,179)  (7,227)  (8,167)  (9,129)  (10,96)  (11,50)  (12,15) 
Branch_type_4  (7,3)  (8,10)  (9,29)  (10,28)  (11,35)  (12,43)  (13,41)  (14,45)  (15,37)  (16,58)  (17,68)  (18,22)  (19,65)  (20,31)  (21,28)  (22,24)  (23,2)  (24,85) 
Branch_type_5  (7,1)  (9,1)  (10,1)  (11,2)  (12,4)  (13,4)  (14,2)  (15,11)  (16,5)  (17,7)  (18,8)  (19,8)  (20,5)  (21,2)  (22,5)  (23,1)  (24,13) 
Branch_type_6  (5,1)  (6,5)  (7,15)  (8,19)  (9,18)  (10,29)  (11,33)  (12,40)  (13,39)  (14,48)  (15,44)  (16,46)  (17,64)  (18,30)  (19,67)  (20,23)  (21,23)  (22,22)  (23,3)  (24,53)  (47,19) 
Unique trigger count: 
1 4209
2 211
3 27
4 11
5 6
6 3
13 1
15 1
16 1
BTB PER SET UNIQUE ADDR: 0 4 0 0 3 1 1 1 2 1 1 0 0 0 2 1 2 1 0 0 1 3 2 1 1 1 1 1 1 0 2 2 2 2 2 1 1 1 3 0 3 2 2 2 2 1 3 0 2 1 0 2 2 2 1 1 2 4 2 0 0 0 3 1 0 3 1 1 1 2 2 0 0 0 2 1 1 3 1 0 1 2 1 2 3 3 2 4 2 2 1 1 1 3 3 1 0 2 3 0 2 1 1 3 0 1 0 0 2 2 0 1 0 1 0 1 0 0 0 0 1 1 1 0 0 0 1 0 2 1 1 1 1 1 1 0 1 0 1 0 0 0 0 2 0 2 1 2 0 0 0 2 0 1 1 0 2 2 1 1 0 2 0 3 2 0 1 0 4 0 0 1 1 2 0 0 1 2 3 0 3 4 2 2 4 1 0 4 1 2 1 1 2 0 1 2 0 1 0 2 0 0 2 1 3 1 0 2 2 0 1 3 1 2 0 1 2 3 0 0 1 0 2 1 2 2 0 0 1 0 0 1 0 0 0 0 3 0 0 2 0 1 1 1 2 0 0 0 0 0 1 0 1 1 0 1 1 4 2 1 4 2 2 1 3 3 2 0 0 1 1 0 2 1 1 2 2 0 0 0 4 0 0 2 2 2 3 2 1 1 0 2 0 3 0 0 2 1 3 0 2 0 1 2 1 0 0 0 2 1 2 0 2 1 1 1 2 2 0 0 0 4 2 2 2 2 3 4 1 1 4 0 2 4 2 0 0 1 2 0 0 1 1 2 2 0 2 0 1 2 2 2 2 0 0 4 0 1 3 0 1 3 3 2 4 2 1 2 1 1 1 1 2 2 3 2 3 1 1 1 2 1 1 2 4 1 4 1 3 1 2 2 0 0 3 1 1 0 1 2 0 0 0 0 1 3 3 1 2 2 1 1 0 4 1 0 4 1 0 1 1 0 1 2 1 2 2 1 0 1 1 0 4 0 3 2 0 3 1 2 2 3 3 2 3 2 2 1 2 1 0 1 1 1 1 1 2 3 1 1 3 0 2 2 2 2 2 0 1 0 1 1 2 1 3 2 1 3 1 2 1 3 1 1 0 2 2 0 2 3 1 2 1 2 1 1 1 3 0 1 0 2 0 2 1 0 1 3 0 2 0 0 0 0 1 0 1 4 1 1 0 2 2 2 1 1 0 4 1 1 1 0 1 4 1 3 1 1 2 1 0 0 2 1 1 2 2 1 2 2 2 2 2 3 0 1 2 0 0 1 3 2 3 0 1 0 0 0 1 2 3 3 1 1 1 1 1 0 0 1 0 0 1 0 3 0 0 2 3 2 2 2 1 0 2 1 3 0 1 0 1 1 2 4 1 0 1 3 1 1 1 1 1 0 1 1 1 0 4 0 3 2 2 0 3 1 1 1 0 0 3 3 0 1 3 2 1 1 0 0 4 0 2 1 0 1 1 2 2 2 2 0 0 2 1 4 2 1 0 1 4 1 1 1 2 3 5 3 0 3 1 2 3 5 1 1 3 4 2 2 2 0 2 1 2 1 2 1 2 4 2 2 2 0 3 0 2 1 1 2 2 3 1 0 2 1 2 2 2 0 2 3 2 1 1 0 3 0 0 2 1 0 0 0 0 0 2 1 1 3 2 3 2 0 1 2 1 3 1 1 1 1 2 1 2 1 0 1 3 0 0 2 1 0 3 2 0 2 1 2 3 1 1 3 2 2 7 0 1 1 2 4 0 0 3 2 1 2 0 1 1 3 0 1 3 2 3 4 0 0 1 1 1 2 2 1 4 2 3 1 1 0 1 0 0 2 2 1 2 4 2 3 2 1 0 2 0 0 1 1 1 2 0 1 2 1 3 1 0 0 1 2 2 0 2 1 0 2 2 0 2 0 3 3 0 1 3 2 3 1 1 2 4 1 1 2 1 2 2 0 1 1 2 2 3 2 1 2 1 0 0 0 1 5 0 1 2 2 1 1 3 3 1 5 3 1 0 3 2 1 2 1 2 2 1 1 3 1 2 0 1 3 2 4 3 1 0 5 2 4 2 1 2 1 1 3 0 2 1 1 3 1 1 0 1 1 1 1 5 1 0 3 5 3 4 3 2 4 1 2 2 1 0 1 1 2 2 1 0 1 2 4 1 0 3 3 0 1 4 2 0 1 3 3 1 1 4 4 0 2 2 0 1 1 0 1 3 3 0 0 4 2 2 2 4 1 1 2 3 0 1 4 2 3 2 2 3 1 2 2 1 2 3 0 1 2 2 3 3 3 1 2 3 1 3 2 4 2 2 1 3 2 7 1 0 2 2 0 0 2 2 3 1 0 1 3 1 2 5 0 0 1 2 2 0 0 1 3 1 1 1 1 2 0 1 4 0 2 1 1 0 0 0 0 0 0 0 0 2 2 0 1 0 0 0 1 3 0 1 4 0 0 1 2 1 3 1 2 0 1 0 4 1 1 1 1 1 1 3 2 1 1 1 0 0 2 0 1 2 2 3 2 0 1 2 0 0 0 1 4 2 0 1 3 1 0 0 1 0 0 0 3 1 5 0 1 1 0 0 3 1 0 1 0 3 1 1 1 2 1 0 3 2 3 1 0 2 2 1 3 0 1 0 0 1 0 0 1 3 3 0 1 1 2 1 3 0 3 1 4 2 0 2 3 3 0 1 0 1 1 1 1 2 1 0 0 1 2 0 0 3 1 2 2 1 0 1 0 0 2 2 3 2 2 1 3 1 1 2 2 4 2 2 0 0 3 2 1 2 0 2 2 1 1 2 0 2 4 0 3 0 1 3 2 3 0 3 1 1 0 2 2 2 4 3 1 1 1 3 1 1 2 0 0 3 1 1 4 1 0 0 1 0 1 2 1 1 1 3 1 1 0 1 2 3 0 3 1 0 4 2 1 2 2 2 2 2 3 5 5 4 3 0 2 2 0 1 1 1 1 0 1 2 1 0 4 3 2 2 1 0 4 1 1 1 4 1 4 2 2 2 1 4 2 2 2 3 1 2 1 0 6 3 2 3 2 4 1 1 1 5 0 0 1 2 1 2 1 1 5 1 1 2 1 0 2 2 2 1 2 1 4 0 3 1 2 0 2 2 4 4 4 1 1 1 1 4 3 1 4 1 0 1 4 3 2 3 0 2 3 9 3 2 3 3 1 0 2 1 1 3 1 0 2 1 3 0 1 2 2 2 2 1 1 2 2 1 0 1 1 3 0 1 2 1 0 1 1 0 0 3 0 1 3 2 2 1 1 3 1 2 0 2 1 3 0 3 2 1 3 1 1 1 2 0 0 1 1 1 2 3 1 0 1 2 0 3 1 0 2 3 1 1 1 0 3 2 3 2 1 2 1 2 3 1 1 2 2 2 1 1 2 0 1 0 0 1 4 0 0 2 2 0 1 1 3 1 1 0 3 1 1 0 0 1 1 1 1 0 1 0 3 2 0 2 3 2 1 0 1 2 0 2 1 2 1 2 2 1 2 1 1 1 0 1 2 1 0 1 1 1 1 0 2 2 0 0 1 2 1 0 3 0 0 2 1 2 1 0 0 6 3 0 0 3 2 1 1 3 2 1 3 1 0 3 0 3 1 1 2 1 2 1 2 7 2 0 2 1 1 1 1 2 0 1 0 1 1 1 0 2 1 2 2 2 2 1 0 1 1 2 3 2 0 1 2 1 1 1 0 2 2 0 0 2 0 1 0 1 4 1 0 0 0 1 1 0 0 0 1 1 0 0 0 1 2 1 2 0 1 1 1 4 3 0 1 2 1 0 0 1 1 2 1 0 4 1 2 0 0 0 2 2 2 1 3 2 3 0 0 2 1 1 0 3 4 1 3 2 1 1 3 2 0 0 1 2 3 0 2 2 3 1 0 1 1 2 2 1 1 0 0 0 2 1 1 0 2 0 2 1 1 1 2 2 2 1 1 0 0 1 0 1 3 1 1 1 0 1 2 3 1 0 1 2 1 2 2 2 0 1 1 2 1 2 1 1 1 1 3 1 2 1 3 1 2 3 2 2 1 1 1 1 1 0 1 1 0 0 1 2 2 0 0 0 0 0 2 1 1 1 0 2 1 0 2 1 0 0 2 1 2 2 1 3 2 1 0 2 1 2 2 2 1 1 2 1 0 1 0 0 1 1 2 1 3 3 2 1 1 2 1 3 1 1 1 1 0 1 1 0 2 3 0 1 0 2 0 2 0 0 0 1 0 0 2 0 2 0 0 0 1 0 0 1 0 2 1 0 2 0 1 2 0 0 0 0 1 3 2 0 0 2 0 0 2 0 1 0 3 1 1 0 1 0 1 0 0 1 1 0 5 0 0 2 1 3 3 2 1 1 1 0 0 0 1 1 1 0 0 0 1 1 1 4 1 0 1 1 2 1 2 0 2 1 0 1 0 0 2 1 0 0 0 0 0 0 0 1 0 1 0 1 0 1 0 0 1 0 1 1 3 0 0 1 2 3 2 1 1 2 2 1 2 2 2 2 1 2 0 1 0 0 0 1 3 0 0 2 2 1 0 2 0 1 0 2 2 0 0 1 3 2 1 0 0 0 0 0 0 0 2 1 1 4 1 3 1 1 0 1 1 0 2 5 0 2 1 
BTB PER SET COUNT: 0 4 0 0 3 2 1 1 2 1 1 0 0 0 2 1 2 1 0 0 1 3 2 1 1 1 1 1 956 0 2 2 2 2 2 1 1 1 3 0 3 2 2 2 22 1 3 0 2 1 0 2 2 2 1 1 26 6 2 0 0 0 3 1 0 26 1 1 1 2 2 0 0 0 2 1 957 3 1 0 1 2 1 2 3 4 2 4 2 2 1 2 1 3 3 1 0 2 3 0 2 1 1 3 0 1 0 0 2 2 0 1 0 1 0 1 0 0 0 0 1 1 1 0 0 0 1 0 3 1 956 2 1 1 1 0 1 0 46 0 0 0 0 3 0 2 1 2 0 0 0 2 0 1 1 0 2 2 1 1 0 2 0 3 2 0 1 0 4 0 0 1 1 2 0 0 1 19 3 0 3 4 2 2 4 1 0 4 1 2 1 1 2 0 1 2 0 1 0 2 0 0 3 1 3 1 0 2 3 0 1 3 1 2 0 1 2 3 0 0 1 0 2 1 99 2 0 0 1 0 0 1 0 0 0 0 3 0 0 3 0 1 1 1 2 0 0 0 0 0 1 0 1 1 0 1 1 4 2 1 21 2 2 1 959 3 2 0 0 1 1 0 19 1 1 2 2 0 0 0 9 0 0 2 2 2 3 2 1 1 0 2 0 3 0 0 2 1 8 0 2 0 1 2 1 0 0 0 4 1 2 0 2 1 1 1 2 2 0 0 0 4 2 2 2 2 3 4 1 1 4 0 4 4 958 0 0 1 2 0 0 1 1 2 2 0 2 0 1 2 2 2 2 0 0 4 0 1 3 0 1 3 3 2 4 47 1 2 1 1 1 1 2 2 3 2 3 1 1 1 2 1 1 2 4 1 4 1 3 1 2 2 0 0 3 1 956 0 1 2 0 0 0 0 1 3 958 1 283 2 1 1 0 4 2 0 4 1 0 51 1 0 1 3 1 2 2 1 0 1 1 0 4 0 3 2 0 3 1 3 2 3 3 6 3 2 2 1 2 1 0 1 1 1 1 1 2 3 1 1 3 0 2 2 3 2 2 0 1 0 1 1 2 1 3 2 1 3 1 2 1 4 1 866 0 2 2 0 2 3 1 2 1 2 1 1 1 3 0 1 0 2 0 2 1 0 1 8 0 2 0 0 0 0 2 0 1 4 1 866 0 957 2 2 1 1 0 4 1 1 1 0 1 4 1 3 1 1 104 1 0 0 2 1 1 2 3 1 2 2 2 2 2 3 0 1 2 0 0 2 959 2 3 0 1 0 0 0 1 2 3 3 1 1 1 1 1 0 0 1 0 0 1 0 4 0 0 2 3 2 4 2 1 0 153 1 1936 0 1 0 1 1 2 4 1 0 2 3 1 1 1 1 1 0 1 1 4 0 4 0 3 958 2 0 4 1 1 2 0 0 958 958 0 1 3 2 1 1 0 0 4 0 2 1 0 1 1 2 2 2 2 0 0 3 1 7 2 1 0 1 4 1 1 1 2 3 962 3 0 3 1 2 3 6 1 1 925 4 2 2 2 0 2 1 2 1 2 956 2 4 2 2 2 0 21 0 2 1 1 2 2 3 1 0 2 1 2 2 2 0 2 3 2 1 1 0 958 0 0 2 1 0 0 0 0 0 2 1 1 3 2 3 25 0 1 2 1 4 1 2 1 1 2 1 2 1 0 4 3 0 0 2 1 0 3 2 0 2 1 3 3 1 1 3 2 2 11 0 1 1 2 4 0 0 3 2 1 2 0 1 1 3 0 1 3 2 3 5 0 0 1 1 1 2 2 1 4 2 4 1 1 0 1 0 0 2 3 1 2 4 2 3 2 1 0 2 0 0 1 1 1 2 0 1 2 1 4 1 0 0 1 2 2 0 2 1 0 2 2 0 93 0 3 980 0 1 3 2 30 1 1 2 4 1 1 2 1 3 2 0 1 1 2 2 4 958 1 2 1 0 0 0 1 6 0 1 2 2 1 1 3 3 1 6 3 1 0 3 2 1 2 1 2 2 1 1 3 1 2 0 1 3 2 43 3 1 0 6 3 7 2 1 2 1 1 3 0 2 1 1 48 1 1 0 1 1 1 1 2173 1 0 1079 972 4 4 3 2 4 1 2 2 1 0 24 1 2 2 1 0 1 2 4 1 0 3 4 0 1 4 3 0 1 3 3 1 1 4 4 0 2 2 0 1 24 0 1 52 3 0 0 4 2 3 2 4 1 1 2 3 0 1 48 2 26 2 2 3 1 2 2 1 2 3 0 1 2 2 100 94 5 1 2 25 24 3 2 4 2 2 1 3 2 24 1 0 3 2 0 0 3 2 4 1 0 1 3 1 8 6 0 0 1 2 2 0 0 1 3 1 50 1 1 2 0 956 27 0 2 1 1 0 0 0 0 0 0 0 0 2 2 0 2 0 0 0 98 3 0 1 4 0 0 1 2 1 3 1 2 0 1 0 4 1 1 1 1 1 1 3 2 1 1 1 0 0 3 0 1 958 2 3 2 0 1 3 0 0 0 1 4 2 0 1 5 1 0 0 1 0 0 0 3 1 6 0 1 1 0 0 3 1 0 1 0 4 1 25 1 2 1 0 3 2 3 1 0 2 3 1 3 0 1 0 0 1 0 0 1 3 3 0 1 1 2 1 3 0 3 1 4 2 0 2 3 3 0 25 0 1 1 1 1 5 1 0 0 1 3 0 0 3 957 2 98 2 0 1 0 0 3 2 3 2 2 1 3 1 1 2 2 24 2 2 0 0 3 2 1 2 0 2 2 1 1 2 0 2 95 0 3 0 1 3 2 3 0 3 1 1 0 2 145 2 959 3 1 1 1 3 1 1 2 0 0 3 1 1 4 1 0 0 1 0 1 2 1 1 1 3 1 1 0 1 2 3 0 3 1 0 959 958 1 2 2 2 2 2 3 56 150 4 3 0 2 2 0 1 1 1 1 0 1 2 1 0 1035 868 2 2 1 0 163 1 1 1 217 1 4 3 181 2 1 4 178 2 2 10 1 26 19 0 174 3 2 3 2 4 1 1 1 6 0 0 1 2 1 2 1 1 7 1 2 3 1 0 2 2 2 1 3 1 4 0 47 1 2 0 2 2 4 4 4 1 1 1 1 4 3 1 51 1 0 1 4 3 2 3 0 2 3 1166 3 2 3 3 1 0 2 1 1 3 1 0 19 1 3 0 1 2 2 2 2 1 1 2 5 2 0 1 1 958 0 1 46 1 0 1 1 0 0 3 0 5 47 2 958 1 3 3 1 2 0 2 1 3 0 3 2 1 3 1 1 1 2 0 0 1 1 1 3 3 21 0 1 31 0 3 1 0 2 15 1 1 1 0 3 2 3 14 1 2 1 12 66 1 1 3 2 13 1 15 2 0 1 0 0 1 4 0 0 2 2 0 1 1 13 1 1 0 3 1 1 0 0 1 1 1 1 0 1 0 15 2 0 2 3 3 1 0 1 2 0 2 1 2 1 2 2 1 6 1 1 1 0 1 2 1 0 1 1 1 1 0 2 2 0 0 1 2 1 0 3 0 0 2 1 958 2 0 0 1141 3 0 0 3 2 1 1 3 2 1 3 1 0 3 0 3 1 1 2 1 2 1 2 332 2 0 2 957 1 1 1 2 0 1 0 1 957 1 0 2 1 2 7 2 2 1 0 1 1 2 3 2 0 1 2 1 1 1 0 2 2 0 0 3 0 24 0 956 4 1 0 0 0 1 1 0 0 0 1 1 0 0 0 1 2 1 2 0 1 1 1 959 3 0 1 2 1 0 0 1 1 957 1 0 4 1 2 0 0 0 2 2 9 1 3 2 3 0 0 957 1 1 0 3 4 1 3 7657 1 1 26 957 0 0 1 2 3 0 2 2 3 1 0 1 1 2 2 1 1 0 0 0 957 1 1 0 2 0 2 1 1 1 2 2 2 1 2 0 0 1 0 1 3 1 1 1 0 1 2 3 1 0 1 2 1 21 2 2 0 1 1 2 1 2 2 1 1 1 3 1 6 1 26 2 17 20 5 2 6 1 1 1 1 0 1 1 0 0 956 2 2 0 0 0 0 0 2 1 1 1 0 2 1 0 99 1 0 0 2 1 2 2 1 3 2 1 0 2 1 2 2 2 1 1 7 1 0 1 0 0 1 1 2 1 4 3 2 1 1 958 1 3 3 1 1 1 0 1 1 0 2 3 0 1 0 2 0 2 0 0 0 1 0 0 2 0 2 0 0 0 1 0 0 1 0 2 1 0 2 0 1 2 0 0 0 0 1 3 2 0 0 2 0 0 6 0 1 0 3 1 1 0 1 0 1 0 0 1 1 0 6 0 0 2 1 3 5 2 1 1 1 0 0 0 1 1 1 0 0 0 1 1 1 4 2 0 1 1 2 1 2 0 2 1 0 1 0 0 2 1 0 0 0 0 0 0 0 1 0 1 0 1 0 1 0 0 1 0 1 1 3 0 0 1 2 3 2 1 1 2 29 1 2 2 2 2 1 2 0 1 0 0 0 1 3 0 0 2 2 1 0 2 0 1 0 2 2 0 0 1 3 2 1 0 0 0 0 0 0 0 2 1 1 4 1 3 1 1 0 1 3 0 2 982 0 2 1 
