
*** ChampSim Multicore Out-of-Order Simulator ***

Warmup Instructions: 10000000
Simulation Instructions: 10000000
Number of CPUs: 1
LLC sets: 2048
LLC ways: 16
Off-chip DRAM Size: 4096 MB Channels: 1 Width: 64-bit Data Rate: 6400 MT/s
CPU 0 runs /media/ashish/Windows/Ashish/traces/public/client_001.champsimtrace.xz
.xz
ITLB has LRU replacement policy
DTLB has LRU replacement policy
STLB has LRU replacement policy
FDIP Prefetcher at L1I
L1I has LRU replacement policy
L1D has LRU replacement policy
Initialize SRRIP state for L2C
Initialize DRRIP state for LLC
Heartbeat CPU 0 instructions: 10000003 cycles: 2866546 heartbeat IPC: 3.48852 cumulative IPC: 3.48852 (Simulation time: 0 hr 0 min 56 sec) 

Warmup complete CPU 0 instructions: 10000003 cycles: 2866546 (Simulation time: 0 hr 0 min 56 sec) 

Cycle: 10000000 FTQ IN: 15907209 FTQ occupancy: 10.9082 DECODE IN: 15907173 DECODE occupancy: 28.6002 ROB IN: 15907170 ROB occupancy: 218.144 ROB OUT: 15907092
Heartbeat CPU 0 instructions: 20000001 cycles: 14453772 heartbeat IPC: 0.863019 cumulative IPC: 0.863019 (Simulation time: 0 hr 1 min 44 sec) 
Finished CPU 0 instructions: 10000002 cycles: 11587227 cumulative IPC: 0.863019 (Simulation time: 0 hr 1 min 44 sec) 

ChampSim completed all CPUs

Region of Interest Statistics

CPU 0 cumulative IPC: 0.863019 instructions: 10000002 cycles: 11587227
 Fetch stage stalled: 71.6618  Sim cycles: 11587227 fetch stall cycle: 8303613
 Empty decode stage: 35.1702  Sim cycles: 11587227 fetch stall cycle: 4075255
ITLB TOTAL     ACCESS:    1099065  HIT:    1089784  MISS:       9281  HIT %:    99.1556  MISS %:   0.844445   MPKI: 0.9281
ITLB LOAD TRANSLATION INSTRUCTION	ACCESS:    1066079  HIT:    1056798  MISS:       9281  HIT %:    99.1294  MISS %:   0.870573  MPKI: 0.9281
ITLB TRANSLATION FROM L1D PREFETCHER INSTRUCTION	ACCESS:      32986  HIT:      32986  MISS:          0  HIT %:        100  MISS %:          0  MPKI: 0

ITLB AVERAGE MISS LATENCY: 11.6773 cycles
ITLB RQ	ACCESS:    1292306	FORWARD:          0	MERGED:     187603	TO_CACHE:    1104703

DTLB TOTAL     ACCESS:    1879160  HIT:    1772902  MISS:     106258  HIT %:    94.3455  MISS %:    5.65455   MPKI: 10.6258
DTLB LOAD TRANSLATION DATA	ACCESS:    1879160  HIT:    1772902  MISS:     106258  HIT %:    94.3455  MISS %:    5.65455  MPKI: 10.6258

DTLB AVERAGE MISS LATENCY: 9.85621 cycles
DTLB RQ	ACCESS:    2300192	FORWARD:          0	MERGED:     413563	TO_CACHE:    1886629

STLB TOTAL     ACCESS:     298525  HIT:     297838  MISS:        687  HIT %:    99.7699  MISS %:   0.230131   MPKI: 0.0687
STLB LOAD TRANSLATION INSTRUCTION	ACCESS:       9281  HIT:       9143  MISS:        138  HIT %:    98.5131  MISS %:    1.48691  MPKI: 0.0138
STLB LOAD TRANSLATION DATA	ACCESS:     106258  HIT:     105709  MISS:        549  HIT %:    99.4833  MISS %:   0.516667  MPKI: 0.0549
STLB TRANSLATION FROM L1D PREFETCHER DATA	ACCESS:     182986  HIT:     182986  MISS:          0  HIT %:        100  MISS %:          0  MPKI: 0

STLB AVERAGE MISS LATENCY: 151.042 cycles
STLB RQ	ACCESS:     354470	FORWARD:          0	MERGED:      55943	TO_CACHE:     298527

STLB Hit, L1D data hit: 0
STLB Hit, L2C data hit: 0
STLB Hit, LLC data hit: 0
STLB Hit, LLC data miss: 0
STLB STLB hints to L2: 0
L1D TOTAL     ACCESS:    2504837  HIT:    2344088  MISS:     160749  HIT %:    93.5825  MISS %:    6.41754   MPKI: 16.0749
L1D LOAD DATA	ACCESS:    1607059  HIT:    1508549  MISS:      98510  HIT %:    93.8702  MISS %:    6.12983  MPKI: 9.851
L1D RFO DATA	ACCESS:     662899  HIT:     655324  MISS:       7575  HIT %:    98.8573  MISS %:    1.14271  MPKI: 0.7575
L1D PREFETCH DATA	ACCESS:     234879  HIT:     180215  MISS:      54664  HIT %:    76.7267  MISS %:    23.2733  MPKI: 5.4664

L1D PREFETCH  REQUESTED:     477876  ISSUED:     477876  USEFUL:      12542  USELESS:      43269
L1D USEFUL LOAD PREFETCHES:      12542 PREFETCH ISSUED TO LOWER LEVEL:      55637  ACCURACY: 22.5426
 TIMELY PREFETCHES:      12542 LATE PREFETCHES: 966 DROPPED PREFETCHES: 2
L1D AVERAGE MISS LATENCY: 44851.4 cycles
L1D RQ	ACCESS:    2800484	FORWARD:          0	MERGED:    1174863	TO_CACHE:    1615123
L1D WQ	ACCESS:     718583	FORWARD:      10512	MERGED:      33514	TO_CACHE:     685069
L1D PQ	ACCESS:     238945	FORWARD:          0	MERGED:          0	TO_CACHE:     238931

L1D UNIQUE REGIONS ACCESSED: 0
L1D REGIONS CONFLICTS: 0
L1D Cross Page Prefetch Requests: 4094
L1D Same Page Prefetch Requests: 333484
L1D ROI Sum of L1D PQ occupancy: 3119034
L1D PREFETCHES PUSHED FROM L2C: 0
L1I TOTAL     ACCESS:    1292023  HIT:    1250284  MISS:      41739  HIT %:    96.7695  MISS %:    3.23052   MPKI: 4.1739
L1I LOAD INSTRUCTION	ACCESS:    1182141  HIT:    1140402  MISS:      41739  HIT %:    96.4692  MISS %:     3.5308  MPKI: 4.1739
L1I PREFETCH INSTRUCTION	ACCESS:     109882  HIT:     109882  MISS:          0  HIT %:        100  MISS %:          0  MPKI: 0

L1I PREFETCH  REQUESTED:     169768  ISSUED:     169768  USEFUL:          0  USELESS:          0
L1I USEFUL LOAD PREFETCHES:          0 PREFETCH ISSUED TO LOWER LEVEL:          0  ACCURACY: -nan
 TIMELY PREFETCHES:          0 LATE PREFETCHES: 0 DROPPED PREFETCHES: 0
L1I AVERAGE MISS LATENCY: 26.4429 cycles
L1I RQ	ACCESS:    1914067	FORWARD:          0	MERGED:     731815	TO_CACHE:    1182252
L1I PQ	ACCESS:     169768	FORWARD:          0	MERGED:      59714	TO_CACHE:     110054

L1BTB TOTAL     ACCESS:    1335319  HIT:    1095962  MISS:     239357  HIT %:    82.0749  MISS %:    17.9251   MPKI: 23.9357
L1BTB BRANCH_DIRECT_JUMP	ACCESS:      99417 HIT:      69797 MISS:      29620 AVERAGE STALL: 17.4841 AVERAGE FETCH STALL: 10.157 AVERAGE FETCH QUEUE STALL: 1.22898 AVERAGE DECODE STALL: 5.44789 AVERAGE EXECUTE STALL: 6.32431e+14
L1BTB BRANCH_INDIRECT	ACCESS:       7937 HIT:       2627 MISS:       5310 AVERAGE STALL: 49.7806 AVERAGE FETCH STALL: 12.8216 AVERAGE FETCH QUEUE STALL: 0.668836 AVERAGE DECODE STALL: 4.39835 AVERAGE EXECUTE STALL: 30.9715
L1BTB BRANCH_CONDITIONAL	ACCESS:     932066 HIT:     844605 MISS:      87461 AVERAGE STALL: 18.5374 AVERAGE FETCH STALL: 9.57282 AVERAGE FETCH QUEUE STALL: 2.02602 AVERAGE DECODE STALL: 6.24375 AVERAGE EXECUTE STALL: 2.29346e+14
L1BTB BRANCH_DIRECT_CALL	ACCESS:      86566 HIT:      49683 MISS:      36883 AVERAGE STALL: 21.7458 AVERAGE FETCH STALL: 10.82 AVERAGE FETCH QUEUE STALL: 2.42891 AVERAGE DECODE STALL: 7.90233 AVERAGE EXECUTE STALL: 5.07085e+14
L1BTB BRANCH_INDIRECT_CALL	ACCESS:      61370 HIT:      32059 MISS:      29311 AVERAGE STALL: 57.7215 AVERAGE FETCH STALL: 7.73723 AVERAGE FETCH QUEUE STALL: 1.30099 AVERAGE DECODE STALL: 5.44711 AVERAGE EXECUTE STALL: 42.5882
L1BTB BRANCH_RETURN	ACCESS:     147963 HIT:      97191 MISS:      50772 AVERAGE STALL: 59.8554 AVERAGE FETCH STALL: 30.5783 AVERAGE FETCH QUEUE STALL: 1.48749 AVERAGE DECODE STALL: 5.07322 AVERAGE EXECUTE STALL: 1.70961e+16
L1BTB BRANCH_OTHER ACCESS:          0 HIT:          0 MISS:          0 AVERAGE STALL: -nan AVERAGE FETCH STALL: -nan AVERAGE FETCH QUEUE STALL: -nan AVERAGE DECODE STALL: -nan AVERAGE EXECUTE STALL: -nan
L1BTB TOTAL ROB OCCUPANCY AT BTB MISS: 83.9303

L2BTB TOTAL     ACCESS:     226347  HIT:      49562  MISS:     176785  HIT %:    21.8965  MISS %:    78.1035   MPKI: 17.6785
L2BTB BRANCH_DIRECT_JUMP	ACCESS:      29620 HIT:          0 MISS:      29620 AVERAGE STALL: 17.4841 AVERAGE FETCH STALL: 10.157 AVERAGE FETCH QUEUE STALL: 1.22898 AVERAGE DECODE STALL: 5.44789 AVERAGE EXECUTE STALL: 6.32431e+14
L2BTB BRANCH_INDIRECT	ACCESS:       4472 HIT:          0 MISS:       4472 AVERAGE STALL: 49.7806 AVERAGE FETCH STALL: 12.8216 AVERAGE FETCH QUEUE STALL: 0.668836 AVERAGE DECODE STALL: 4.39835 AVERAGE EXECUTE STALL: 30.9715
L2BTB BRANCH_CONDITIONAL	ACCESS:      87461 HIT:          0 MISS:      87461 AVERAGE STALL: 18.5374 AVERAGE FETCH STALL: 9.57282 AVERAGE FETCH QUEUE STALL: 2.02602 AVERAGE DECODE STALL: 6.24375 AVERAGE EXECUTE STALL: 2.29346e+14
L2BTB BRANCH_DIRECT_CALL	ACCESS:      36883 HIT:          0 MISS:      36883 AVERAGE STALL: 21.7458 AVERAGE FETCH STALL: 10.82 AVERAGE FETCH QUEUE STALL: 2.42891 AVERAGE DECODE STALL: 7.90233 AVERAGE EXECUTE STALL: 5.07085e+14
L2BTB BRANCH_INDIRECT_CALL	ACCESS:      17279 HIT:          0 MISS:      17279 AVERAGE STALL: 57.7215 AVERAGE FETCH STALL: 7.73723 AVERAGE FETCH QUEUE STALL: 1.30099 AVERAGE DECODE STALL: 5.44711 AVERAGE EXECUTE STALL: 42.5882
L2BTB BRANCH_RETURN	ACCESS:      50632 HIT:      49562 MISS:       1070 AVERAGE STALL: 59.8554 AVERAGE FETCH STALL: 30.5783 AVERAGE FETCH QUEUE STALL: 1.48749 AVERAGE DECODE STALL: 5.07322 AVERAGE EXECUTE STALL: 1.70961e+16
L2BTB BRANCH_OTHER ACCESS:          0 HIT:          0 MISS:          0 AVERAGE STALL: -nan AVERAGE FETCH STALL: -nan AVERAGE FETCH QUEUE STALL: -nan AVERAGE DECODE STALL: -nan AVERAGE EXECUTE STALL: -nan
L2BTB TOTAL ROB OCCUPANCY AT BTB MISS: 113.637

L2C TOTAL     ACCESS:     239316  HIT:     177423  MISS:      61893  HIT %:    74.1375  MISS %:    25.8625   MPKI: 6.1893
L2C LOAD INSTRUCTION	ACCESS:      41739  HIT:      37605  MISS:       4134  HIT %:    90.0956  MISS %:    9.90441  MPKI: 0.4134
L2C LOAD TRANSLATION INSTRUCTION	ACCESS:        142  HIT:         41  MISS:        101  HIT %:    28.8732  MISS %:    71.1268  MPKI: 0.0101
L2C LOAD DATA	ACCESS:      97543  HIT:      69958  MISS:      27585  HIT %:    71.7202  MISS %:    28.2798  MPKI: 2.7585
L2C RFO DATA	ACCESS:       7568  HIT:       2427  MISS:       5141  HIT %:    32.0692  MISS %:    67.9308  MPKI: 0.5141
L2C PREFETCH DATA	ACCESS:      72369  HIT:      47974  MISS:      24395  HIT %:    66.2908  MISS %:    33.7092  MPKI: 2.4395
L2C WRITEBACK DATA	ACCESS:      19367  HIT:      19127  MISS:        240  HIT %:    98.7608  MISS %:    1.23922  MPKI: 0.024
L2C LOAD TRANSLATION DATA	ACCESS:        586  HIT:        290  MISS:        296  HIT %:    49.4881  MISS %:    50.5119  MPKI: 0.0296
L2C TRANSLATION FROM L1D PREFETCHER DATA	ACCESS:          2  HIT:          1  MISS:          1  HIT %:         50  MISS %:         50  MPKI: 0.0001

L2C PREFETCH  REQUESTED:      19016  ISSUED:      19016  USEFUL:       6589  USELESS:      19995
L2C USEFUL LOAD PREFETCHES:       6589 PREFETCH ISSUED TO LOWER LEVEL:      24616  ACCURACY: 26.7671
 TIMELY PREFETCHES:       6589 LATE PREFETCHES: 221 DROPPED PREFETCHES: 0
L2C AVERAGE MISS LATENCY: 72.9048 cycles
L2C RQ	ACCESS:     147581	FORWARD:          0	MERGED:          0	TO_CACHE:     147580
L2C WQ	ACCESS:      19367	FORWARD:          1	MERGED:          0	TO_CACHE:      19367
L2C PQ	ACCESS:      74653	FORWARD:          0	MERGED:        360	TO_CACHE:      74293

L2C Dense regions hint from L2: 0
PSCL5 TOTAL     ACCESS:       1378  HIT:        689  MISS:        689  HIT %:         50  MISS %:         50   MPKI: 0.0689
PSCL5 LOAD TRANSLATION INSTRUCTION	ACCESS:       1374  HIT:        687  MISS:        687  HIT %:         50  MISS %:         50  MPKI: 0.0687
PSCL5 TRANSLATION FROM L1D PREFETCHER INSTRUCTION	ACCESS:          4  HIT:          2  MISS:          2  HIT %:         50  MISS %:         50  MPKI: 0.0002


PSCL4 TOTAL     ACCESS:       1378  HIT:        689  MISS:        689  HIT %:         50  MISS %:         50   MPKI: 0.0689
PSCL4 LOAD TRANSLATION INSTRUCTION	ACCESS:       1179  HIT:        687  MISS:        492  HIT %:    58.2697  MISS %:    41.7303  MPKI: 0.0492
PSCL4 TRANSLATION FROM L1D PREFETCHER INSTRUCTION	ACCESS:          4  HIT:          2  MISS:          2  HIT %:         50  MISS %:         50  MPKI: 0.0002
PSCL4 LOAD TRANSLATION DATA	ACCESS:        195  HIT:          0  MISS:        195  HIT %:          0  MISS %:        100  MPKI: 0.0195


PSCL3 TOTAL     ACCESS:       1366  HIT:        682  MISS:        684  HIT %:    49.9268  MISS %:    50.0732   MPKI: 0.0684
PSCL3 LOAD TRANSLATION INSTRUCTION	ACCESS:        680  HIT:        680  MISS:          0  HIT %:        100  MISS %:          0  MPKI: 0
PSCL3 TRANSLATION FROM L1D PREFETCHER INSTRUCTION	ACCESS:          2  HIT:          2  MISS:          0  HIT %:        100  MISS %:          0  MPKI: 0
PSCL3 LOAD TRANSLATION DATA	ACCESS:        682  HIT:          0  MISS:        682  HIT %:          0  MISS %:        100  MPKI: 0.0682
PSCL3 TRANSLATION FROM L1D PREFETCHER DATA	ACCESS:          2  HIT:          0  MISS:          2  HIT %:          0  MISS %:        100  MPKI: 0.0002


PSCL2 TOTAL     ACCESS:       1339  HIT:        650  MISS:        689  HIT %:    48.5437  MISS %:    51.4563   MPKI: 0.0689
PSCL2 LOAD TRANSLATION INSTRUCTION	ACCESS:        723  HIT:        648  MISS:         75  HIT %:    89.6266  MISS %:    10.3734  MPKI: 0.0075
PSCL2 TRANSLATION FROM L1D PREFETCHER INSTRUCTION	ACCESS:          2  HIT:          2  MISS:          0  HIT %:        100  MISS %:          0  MPKI: 0
PSCL2 LOAD TRANSLATION DATA	ACCESS:        612  HIT:          0  MISS:        612  HIT %:          0  MISS %:        100  MPKI: 0.0612
PSCL2 TRANSLATION FROM L1D PREFETCHER DATA	ACCESS:          2  HIT:          0  MISS:          2  HIT %:          0  MISS %:        100  MPKI: 0.0002


LLC TOTAL     ACCESS:      71936  HIT:      54502  MISS:      17434  HIT %:    75.7646  MISS %:    24.2354   MPKI: 1.7434
LLC LOAD INSTRUCTION	ACCESS:       4134  HIT:       1854  MISS:       2280  HIT %:    44.8476  MISS %:    55.1524  MPKI: 0.228
LLC LOAD TRANSLATION INSTRUCTION	ACCESS:        101  HIT:         32  MISS:         69  HIT %:    31.6832  MISS %:    68.3168  MPKI: 0.0069
LLC LOAD DATA	ACCESS:      27370  HIT:      21925  MISS:       5445  HIT %:     80.106  MISS %:     19.894  MPKI: 0.5445
LLC RFO DATA	ACCESS:       5135  HIT:        640  MISS:       4495  HIT %:    12.4635  MISS %:    87.5365  MPKI: 0.4495
LLC PREFETCH DATA	ACCESS:      24616  HIT:      20014  MISS:       4602  HIT %:    81.3048  MISS %:    18.6952  MPKI: 0.4602
LLC WRITEBACK DATA	ACCESS:      10283  HIT:       9913  MISS:        370  HIT %:    96.4018  MISS %:    3.59817  MPKI: 0.037
LLC LOAD TRANSLATION DATA	ACCESS:        296  HIT:        123  MISS:        173  HIT %:    41.5541  MISS %:    58.4459  MPKI: 0.0173
LLC TRANSLATION FROM L1D PREFETCHER DATA	ACCESS:          1  HIT:          1  MISS:          0  HIT %:        100  MISS %:          0  MPKI: 0

LLC AVERAGE MISS LATENCY: 152.891 cycles
LLC RQ	ACCESS:      37037	FORWARD:          0	MERGED:          0	TO_CACHE:      37037
LLC WQ	ACCESS:      10283	FORWARD:          0	MERGED:          0	TO_CACHE:      10283
LLC PQ	ACCESS:      24616	FORWARD:          0	MERGED:          0	TO_CACHE:      24616

LLC Dense regions hint to LLC: 0

RAW hits: 202215
Loads Generated: 3002698
Loads sent to L1D: 2800484
Stores Generated: 718576
Stores sent to L1D: 718583
Major fault: 0 Minor fault: 1934
Allocated PAGES: 1934

stream: 
stream:times selected: 410034
stream:pref_filled: 52445
stream:pref_useful: 13860
stream:pref_late: 929
stream:misses: 7492
stream:misses_by_poll: 0

CS: 
CS:times selected: 26294
CS:pref_filled: 7595
CS:pref_useful: 3517
CS:pref_late: 51
CS:misses: 1312
CS:misses_by_poll: 2

CPLX: 
CPLX:times selected: 378586
CPLX:pref_filled: 16733
CPLX:pref_useful: 2198
CPLX:pref_late: 67
CPLX:misses: 28244
CPLX:misses_by_poll: 5

NL_L1: 
NL:times selected: 11245
NL:pref_filled: 1843
NL:pref_useful: 370
NL:pref_late: 32
NL:misses: 663
NL:misses_by_poll: 0

total selections: 826159
total_filled: 54664
total_useful: 12542
total_late: 1248
total_polluted: 7
total_misses_after_warmup: 106576
conflicts: 998193

test: 191187

DRAM Statistics
 CHANNEL 0
 RQ ROW_BUFFER_HIT:       3097  ROW_BUFFER_MISS:      13967
 DBUS_CONGESTED:         19
 WQ ROW_BUFFER_HIT:       1671  ROW_BUFFER_MISS:       8095  FULL:          0

 AVG_CONGESTED_CYCLE: 3

CPU 0 Branch Prediction Accuracy: 97.7685% MPKI: 4.379 Average ROB Occupancy at Mispredict: 86.3405
Branch types
NOT_BRANCH: 8037288 80.3729%
BRANCH_DIRECT_JUMP: 99417 0.99417%
BRANCH_INDIRECT: 7937 0.07937%
BRANCH_CONDITIONAL: 1559064 15.5906%
BRANCH_DIRECT_CALL: 86566 0.86566%
BRANCH_INDIRECT_CALL: 61370 0.6137%
BRANCH_RETURN: 147963 1.47963%
BRANCH_OTHER: 0 0%

DRAM PAGES: 1048576
Allocated PAGES: 1934
Average_ROB_Occupancy: 165.867
Average_Decode_Occupancy: 14.525
Average_FTQ_Occupancy: 4.94605
Indirect max targets: 70 Average targets: 3.90456
Branch_type:  BRANCH_DIRECT_JUMP:  Count Percentage: 0.786483 14.2341 0.847569 6.23241 7.47377 8.00554 0.279796 62.1403 
Branch_type:  BRANCH_INDIRECT:  Count Percentage: 0.909872 0 10.7823 3.64665 3.73263 8.54707 0 72.3814 
Branch_type:  BRANCH_CONDITIONAL:  Count Percentage: 36.0915 8.29517 4.71719 1.20226 6.81678 8.6243 0.596375 33.6564 
Branch_type:  BRANCH_DIRECT_CALL:  Count Percentage: 2.43375 11.7952 1.69987 0.394305 9.21245 8.93269 1.2118 64.3199 
Branch_type:  BRANCH_INDIRECT_CALL:  Count Percentage: 0.632839 16.9327 5.47377 0.624235 35.6732 16.8457 0 23.8175 
Branch_type:  BRANCH_RETURN:  Count Percentage: 2.74382 6.50167 5.5459 10.0301 7.85073 16.2712 0.67205 50.3845 
Branch_type:  BRANCH_DIRECT_JUMP:  Total Count: 1442 26098 1554 11427 13703 14678 513 113933 
Branch_type:  BRANCH_INDIRECT:  Total Count: 127 0 1505 509 521 1193 0 10103 
Branch_type:  BRANCH_CONDITIONAL:  Total Count: 1100644 252969 143855 36664 207884 263006 18187 1026384 
Branch_type:  BRANCH_DIRECT_CALL:  Total Count: 4802 23273 3354 778 18177 17625 2391 126909 
Branch_type:  BRANCH_INDIRECT_CALL:  Total Count: 662 17713 5726 653 37317 17622 0 24915 
Branch_type:  BRANCH_RETURN:  Total Count: 8288 19639 16752 30297 23714 49149 2030 152192 
Number of unique branch instructions: 7063
Upper 32 bits: 
ffff
ffff0000
Unique upper 32 bits: 2
Unique upper 36 bits: 3
Unique upper 40 bits: 4
Unique upper 44 bits: 22
Unique upper 48 bits: 129
Offset_3 3752
Offset_4 215
Offset_5 345
Offset_6 404
Offset_7 357
Offset_8 328
Offset_9 282
Offset_10 259
Offset_11 172
Offset_12 88
Offset_13 74
Offset_14 99
Offset_15 104
Offset_16 100
Offset_17 67
Offset_18 139
Offset_19 156
Offset_20 152
Offset_21 223
Offset_22 373
Offset_23 370
Offset_24 61
Offset_28 19
decode_dispatch_called: 4749943 40.9929
Dispatch_width: 0 2462038 51.833 21.2479
Dispatch_width: 1 178550 3.75899 1.54092
Dispatch_width: 2 211501 4.45271 1.82529
Dispatch_width: 3 128455 2.70435 1.10859
Dispatch_width: 4 763571 16.0754 6.58976
Dispatch_width: 5 76405 1.60855 0.65939
Dispatch_width: 6 929423 19.567 8.0211
Empty_decode_cycles: 6837284 59.0071
ROB_full_cycles: 1610300 13.8972
Starvation_cycles_per_kilo_instr: 452.375
Starvation_cycles_per_kilo_instr_3: 410.376
Starvation_cycles_per_kilo_instr_0: 384.451
Branch_type_1  (3,37)  (4,38)  (5,44)  (6,38)  (7,118)  (8,119)  (9,86)  (10,80)  (11,54)  (12,18)  (13,10)  (14,1)  (15,5)  (16,6)  (20,1)  (21,2)  (22,5)  (23,8) 
Branch_type_2  (3,2)  (4,2)  (5,14)  (6,20)  (7,1)  (8,1)  (9,3)  (10,1)  (12,1)  (13,2)  (14,6)  (15,7)  (16,7)  (17,6)  (18,3)  (21,8)  (22,7)  (23,2)  (24,14) 
Branch_type_3  (3,3713)  (4,175)  (5,286)  (6,344)  (7,232)  (8,197)  (9,172)  (10,140)  (11,72)  (12,24)  (13,5) 
Branch_type_4  (6,1)  (7,1)  (8,3)  (9,11)  (10,16)  (11,16)  (12,22)  (13,22)  (14,31)  (15,20)  (16,47)  (17,31)  (18,68)  (19,77)  (20,79)  (21,104)  (22,113)  (23,68)  (24,12) 
Branch_type_5  (8,2)  (10,4)  (11,3)  (12,2)  (13,3)  (14,6)  (15,7)  (16,2)  (18,3)  (19,5)  (20,4)  (21,17)  (22,43)  (23,70)  (24,15)  (28,10) 
Branch_type_6  (5,1)  (6,1)  (7,5)  (8,6)  (9,10)  (10,18)  (11,27)  (12,21)  (13,32)  (14,55)  (15,65)  (16,38)  (17,30)  (18,65)  (19,74)  (20,68)  (21,92)  (22,205)  (23,222)  (24,20)  (28,9) 
Unique trigger count: 
1 7058
2 198
3 67
4 17
5 9
6 3
7 3
8 1
11 1
12 1
14 1
15 1
BTB PER SET UNIQUE ADDR: 2 0 0 1 0 1 1 0 2 2 1 1 0 2 0 1 1 0 3 3 1 0 0 3 0 0 1 1 1 1 0 3 1 0 2 0 0 2 1 0 0 1 2 1 2 0 4 1 3 0 3 2 2 2 1 1 0 2 0 2 0 1 4 0 2 2 0 3 1 0 2 1 1 1 0 1 1 2 1 2 1 2 1 2 1 3 1 0 1 1 2 3 0 1 1 1 1 3 2 0 2 1 0 1 0 2 0 2 0 1 0 1 1 0 1 0 0 1 0 1 1 0 0 0 0 1 0 0 1 1 1 2 0 0 2 1 0 0 1 0 0 0 0 1 0 1 2 1 2 1 1 1 0 1 0 0 0 1 0 0 0 1 0 0 0 0 1 0 0 2 0 1 2 1 1 1 0 1 0 1 1 1 1 0 0 0 1 2 2 2 1 2 0 2 1 2 0 2 2 0 5 0 2 0 0 1 3 1 1 5 2 1 0 2 2 1 1 0 1 0 4 1 2 3 0 0 1 3 0 1 1 1 2 0 1 1 1 2 2 0 2 2 4 1 0 3 0 0 2 1 1 1 2 5 1 1 0 3 1 1 2 2 3 0 4 1 2 1 0 2 1 3 3 2 3 0 2 1 0 3 0 2 1 1 0 2 0 2 2 0 1 0 0 0 2 2 0 0 1 0 0 1 0 1 2 2 1 1 1 0 1 0 0 2 1 0 0 0 1 2 0 0 1 2 1 1 0 1 0 3 1 2 1 1 3 1 1 0 3 2 1 2 1 1 1 1 0 1 0 2 3 3 3 2 2 2 1 1 0 1 0 2 2 0 1 1 3 0 3 0 2 0 1 0 3 2 0 2 6 0 0 3 2 1 3 1 1 1 1 2 3 0 2 0 1 2 1 3 2 1 1 0 0 0 0 3 2 1 2 1 1 4 3 1 1 1 3 0 2 1 1 0 0 1 0 0 1 2 1 0 3 2 1 1 3 0 2 0 0 1 2 0 2 1 1 1 0 1 1 0 1 1 0 0 0 0 1 1 1 1 0 2 0 1 2 1 1 0 1 1 1 2 3 0 1 4 1 2 2 0 1 1 1 1 0 0 0 2 0 1 0 1 2 0 2 1 3 3 3 0 2 3 1 0 3 0 2 0 3 0 2 1 0 2 2 3 3 1 0 1 1 1 0 1 2 1 1 1 0 2 1 2 0 1 0 2 1 2 1 3 0 0 2 3 0 2 0 1 2 0 2 0 0 0 1 1 2 2 1 1 2 2 1 2 1 0 3 2 1 0 0 1 1 1 0 2 0 1 0 0 1 0 3 1 1 1 0 1 1 2 0 1 2 1 2 0 2 1 3 2 1 1 2 2 1 1 1 1 2 0 0 2 1 0 1 1 0 3 0 2 1 3 1 1 1 2 3 1 3 3 0 1 4 2 0 2 2 0 3 0 0 0 0 0 1 0 0 2 1 0 1 2 0 1 2 0 0 0 2 0 1 1 1 2 0 2 0 1 0 1 0 0 2 0 2 2 0 0 2 2 0 1 0 1 1 1 1 2 0 0 3 1 2 0 3 0 0 1 1 2 0 1 1 3 1 1 4 0 3 1 3 1 0 2 1 1 1 1 2 2 1 2 1 1 0 1 0 0 0 1 2 1 2 0 0 1 2 1 2 2 1 1 2 2 4 0 3 2 1 0 0 0 0 1 2 1 1 1 2 0 1 1 2 1 1 0 0 1 0 0 1 1 0 2 0 1 0 1 0 2 0 0 2 3 1 1 2 0 2 1 1 1 1 0 0 1 0 2 1 0 0 1 1 0 1 0 0 1 2 0 0 1 0 1 0 0 0 1 2 0 2 1 0 1 0 0 1 1 0 1 2 1 1 2 1 1 1 3 2 0 1 1 1 2 2 1 0 3 1 1 2 1 1 0 0 1 2 2 3 1 2 0 1 0 1 1 1 0 2 1 2 0 1 3 1 0 1 5 0 0 1 0 2 1 0 1 0 1 1 1 1 1 1 1 0 1 0 1 0 0 1 1 1 0 1 1 2 0 2 2 1 1 1 1 1 0 0 2 1 1 1 2 1 3 1 2 0 2 1 1 1 2 2 0 2 0 2 0 2 0 1 1 1 0 0 2 1 2 2 0 2 2 2 0 3 0 3 0 3 1 2 2 2 1 0 1 1 2 2 3 1 1 1 0 1 1 0 1 1 1 1 0 2 0 1 2 1 1 2 2 2 2 1 0 4 1 0 2 2 1 0 2 1 2 4 1 3 1 0 1 3 1 2 0 0 2 2 2 0 3 2 2 1 4 1 1 4 1 2 1 6 1 1 2 2 1 0 1 3 1 1 3 0 2 1 0 0 1 1 1 2 1 1 3 0 1 0 2 2 1 1 2 2 0 2 2 0 2 2 1 1 3 1 0 0 1 0 1 2 1 1 2 0 1 3 1 1 2 1 0 2 1 1 2 2 1 0 2 1 1 3 1 2 0 0 0 2 1 1 1 1 2 1 3 1 0 1 0 0 1 0 1 0 0 0 0 1 2 0 0 4 1 1 0 0 0 0 2 0 0 1 1 3 3 0 1 0 1 0 1 1 0 1 0 0 0 0 1 3 0 2 0 1 1 2 1 0 1 0 1 2 1 0 2 2 1 1 1 1 2 1 1 0 2 0 0 2 0 1 0 1 2 3 1 0 5 1 1 0 2 2 0 1 1 0 0 1 0 1 0 1 1 1 1 0 0 1 0 0 1 1 2 1 0 0 0 0 3 2 0 0 1 0 3 1 1 0 2 1 2 2 0 1 1 0 3 1 0 0 1 2 0 0 1 2 1 2 0 0 1 2 1 1 0 1 0 1 1 0 1 1 1 0 0 0 1 1 3 1 0 1 0 0 1 1 0 0 1 2 2 0 1 1 0 1 1 1 0 1 1 0 0 0 1 1 1 1 1 1 0 0 1 0 0 0 0 0 0 1 1 1 0 1 0 1 1 0 1 0 0 1 0 0 0 1 1 2 1 0 1 1 3 0 0 1 0 0 1 2 0 1 0 2 1 1 1 1 0 1 0 0 4 2 0 2 0 2 1 0 2 0 1 0 0 0 2 1 2 1 1 1 1 1 2 1 0 1 0 2 0 0 1 0 1 2 2 0 2 0 0 1 1 0 1 1 1 1 0 0 1 1 3 2 3 2 4 0 0 1 2 2 0 1 1 0 1 2 1 1 2 2 2 1 2 0 1 2 0 0 0 0 0 1 2 1 0 1 0 2 1 0 2 1 0 1 2 1 0 1 0 0 2 1 0 0 2 3 1 1 1 0 1 1 4 2 0 2 0 4 2 0 0 1 2 1 1 0 1 1 1 2 2 1 0 1 3 0 0 0 2 2 1 0 1 0 0 1 1 1 1 0 1 0 0 0 1 0 1 0 1 0 1 2 0 3 1 1 1 2 1 0 0 0 1 0 3 0 0 0 1 0 1 1 1 1 1 1 0 2 1 2 2 1 1 1 0 2 1 1 2 0 0 3 0 1 0 2 0 0 1 0 1 0 0 2 0 0 1 0 1 3 0 0 4 1 0 2 1 0 0 0 1 1 0 1 4 1 1 0 0 2 0 0 2 3 0 1 0 1 1 0 2 2 0 1 0 0 1 1 3 3 2 1 1 1 1 1 0 0 4 1 1 2 0 1 0 0 0 0 0 1 0 1 0 1 0 0 1 1 2 0 3 2 1 1 0 1 1 1 3 2 0 2 1 2 0 1 0 0 0 0 1 1 2 1 1 1 3 3 2 2 2 0 1 2 1 1 2 1 0 0 0 2 1 1 0 2 0 1 2 3 1 1 4 0 2 1 3 0 1 3 1 0 2 3 0 2 1 3 0 0 1 2 2 3 1 4 1 2 0 2 1 1 2 1 0 2 1 0 1 1 1 0 3 1 1 1 0 3 2 0 0 1 1 1 1 0 1 0 0 0 0 0 0 0 0 1 0 0 1 0 1 0 1 0 1 1 2 0 1 0 1 2 4 0 0 1 1 0 1 2 2 0 0 1 2 1 0 0 1 0 1 1 0 2 1 0 0 0 1 2 0 1 0 2 0 1 1 1 1 0 2 1 0 2 1 1 0 2 0 0 3 0 0 0 0 1 0 0 3 1 2 1 0 0 1 2 0 1 1 1 2 3 1 1 2 1 1 0 0 0 2 1 0 0 1 0 0 0 0 1 0 1 2 1 0 0 1 1 1 2 2 0 1 0 0 0 1 1 1 2 1 0 1 0 0 1 1 0 0 0 2 2 1 0 1 2 1 1 3 1 0 1 0 0 2 1 1 3 2 2 1 2 3 1 0 0 1 3 2 1 2 1 2 0 1 1 0 1 2 0 1 1 0 2 0 1 1 1 3 1 0 1 1 1 1 0 0 2 1 1 3 0 3 1 1 0 2 3 2 0 3 0 0 2 1 3 0 1 0 3 0 1 0 1 0 2 1 0 3 4 0 0 1 0 0 2 2 1 1 2 1 1 0 1 2 1 0 1 1 2 1 0 2 0 0 0 1 0 0 2 3 1 1 1 1 1 1 0 0 1 1 2 1 2 1 2 1 2 0 3 2 1 1 1 1 0 0 2 1 1 1 2 1 1 1 0 1 1 2 1 0 0 0 0 3 2 1 4 0 1 0 3 1 0 1 1 2 2 2 2 1 1 3 0 0 2 1 1 0 3 0 1 2 2 1 2 1 0 1 1 2 1 2 0 1 0 3 0 2 1 0 1 5 1 0 1 0 2 2 0 1 0 3 0 1 1 4 0 1 0 0 1 0 1 2 0 1 0 2 2 1 2 1 1 1 4 0 3 3 3 1 2 0 2 1 2 1 1 0 1 2 1 1 2 2 2 0 2 5 1 1 1 0 3 2 4 2 1 0 0 1 0 0 1 2 2 0 1 1 0 1 3 2 2 2 3 0 3 1 1 3 4 1 0 0 1 1 0 1 1 1 1 2 1 0 1 1 3 2 1 1 1 1 2 2 1 1 0 0 0 2 1 1 1 1 2 0 1 2 1 0 1 1 3 3 1 0 0 3 2 1 1 0 2 0 0 2 1 2 1 0 1 2 0 0 0 1 1 2 0 3 1 1 0 1 0 1 1 2 0 1 1 1 0 2 2 1 0 0 0 0 0 2 0 2 0 1 1 3 1 0 1 0 1 3 0 1 0 0 1 1 1 2 0 0 1 1 0 2 0 0 2 2 2 1 2 0 1 3 1 1 0 2 2 0 0 0 1 2 0 1 0 0 0 2 1 1 0 2 0 1 3 2 2 1 2 4 1 1 4 2 1 4 1 2 0 1 2 0 1 0 1 1 2 1 1 0 4 0 1 1 0 2 1 2 0 2 0 2 0 3 1 2 0 2 1 3 2 2 2 4 1 1 1 0 2 1 1 1 2 2 2 2 1 0 2 5 2 2 1 2 1 2 3 2 0 1 0 1 2 0 1 1 3 4 1 0 1 0 0 3 0 2 1 1 0 1 1 5 2 2 2 1 2 0 2 0 2 0 0 1 1 2 2 2 2 0 0 1 0 2 0 1 2 2 2 2 1 1 0 1 0 1 1 1 0 1 1 1 1 2 2 0 2 0 0 4 1 2 1 0 0 1 0 0 0 2 2 1 2 1 1 1 2 3 0 0 1 1 2 4 0 1 1 2 0 3 1 2 0 0 2 1 0 1 1 1 1 3 1 1 0 1 0 2 1 0 1 1 1 3 0 0 0 0 0 1 1 2 2 0 3 0 0 0 1 2 2 1 3 0 0 2 0 3 1 2 1 0 1 2 3 1 0 4 1 0 1 1 3 1 2 2 0 1 0 1 1 0 1 1 2 0 0 1 0 1 4 2 1 2 1 1 1 1 1 0 2 2 2 3 1 4 2 0 1 1 0 1 2 2 1 1 0 3 0 1 1 2 1 2 2 0 0 1 0 1 1 2 2 2 3 2 2 0 3 0 3 2 1 1 0 0 0 0 0 1 0 0 1 2 0 2 1 1 0 0 2 0 0 1 1 0 0 1 1 0 0 1 0 2 2 1 0 1 3 1 2 0 0 1 1 2 3 2 1 0 1 1 0 1 3 0 2 0 1 3 2 1 1 0 0 2 1 1 1 0 0 0 1 0 0 1 0 0 2 2 2 1 0 1 1 1 0 1 0 1 0 2 2 1 3 1 1 1 0 2 1 2 1 0 2 2 0 0 1 0 1 0 1 2 0 1 0 3 0 0 1 1 0 0 0 0 0 1 0 0 0 0 1 0 0 1 2 2 1 2 2 1 0 1 1 1 1 2 0 0 1 2 3 0 0 0 0 0 0 1 0 2 0 0 1 1 0 0 0 0 0 1 1 0 0 1 1 1 0 1 0 1 1 2 1 1 0 0 1 0 0 2 0 1 1 0 0 1 0 0 0 2 2 0 1 2 0 0 0 1 0 1 0 0 0 1 0 0 1 2 0 3 3 1 0 2 1 2 1 2 0 1 3 2 2 1 2 1 0 1 1 1 1 3 1 4 0 2 1 2 1 1 2 0 2 1 2 0 0 1 0 1 0 2 1 0 2 0 1 0 0 2 1 3 0 1 2 1 1 1 1 0 0 0 0 1 0 0 4 0 1 3 0 2 2 0 0 1 1 1 0 2 1 1 1 2 0 3 0 3 0 1 1 1 1 3 3 2 1 2 3 0 1 1 1 2 2 0 2 2 2 2 2 1 5 0 3 2 1 3 2 2 2 0 0 1 1 1 0 0 0 1 0 5 2 1 1 2 1 1 1 1 3 1 1 1 0 1 1 2 1 2 0 0 1 1 2 2 2 1 3 1 0 1 2 1 0 1 2 2 2 0 3 1 1 1 0 4 1 1 1 3 0 3 0 1 2 4 1 1 1 0 2 0 2 0 2 2 0 2 1 0 0 3 3 0 0 3 2 0 1 3 1 1 3 0 0 1 2 1 1 0 0 1 0 1 0 0 2 0 0 1 1 1 0 0 1 0 2 0 1 0 1 1 0 0 0 0 1 1 1 0 0 1 0 0 0 3 1 1 1 1 0 1 2 2 2 2 0 0 1 1 1 3 0 1 2 3 0 1 3 2 1 1 0 0 2 1 0 2 1 0 1 0 0 2 2 0 0 0 4 0 0 1 0 0 1 1 3 0 1 0 0 0 0 2 0 1 0 0 2 0 0 0 1 1 2 1 0 0 2 0 2 0 2 0 0 1 1 1 1 1 1 0 0 0 0 0 0 0 1 1 0 0 1 0 0 2 1 0 1 2 0 1 0 0 0 0 0 1 0 1 1 1 0 0 0 0 0 2 0 1 0 1 0 0 0 0 1 0 0 1 0 1 0 2 0 0 0 1 0 0 1 0 0 1 0 1 0 1 0 1 0 0 0 0 2 0 2 0 0 0 0 3 0 2 2 0 1 1 0 0 0 1 0 1 1 0 1 0 0 0 0 0 0 1 0 0 0 0 0 0 0 1 0 2 1 1 0 0 0 1 2 1 1 1 0 0 1 0 1 0 0 0 2 0 0 0 1 0 0 0 1 1 0 0 0 1 1 0 0 1 0 1 1 1 1 0 0 2 0 0 2 1 0 2 2 1 2 0 3 0 1 1 1 2 0 0 2 2 1 1 1 0 3 2 0 0 0 1 0 1 2 1 0 3 1 4 0 3 1 2 2 1 0 3 0 2 1 1 0 2 2 1 0 1 0 2 0 1 0 1 1 1 4 0 1 2 1 5 0 3 1 1 0 3 1 0 1 1 0 2 0 0 0 1 1 0 0 2 1 0 0 1 0 1 1 0 1 1 0 0 1 1 1 0 1 1 1 1 1 0 1 2 0 1 0 0 0 3 0 1 1 2 1 1 0 0 2 1 1 1 0 1 0 1 0 1 0 0 0 2 0 0 1 1 1 0 0 0 0 1 1 0 0 0 0 2 1 0 1 1 0 0 2 1 0 0 0 0 0 0 1 0 0 1 0 2 1 0 1 0 2 0 2 0 1 0 0 1 1 1 0 0 1 0 1 1 0 1 1 0 1 1 2 0 0 0 2 1 0 2 0 0 0 1 0 0 1 0 0 1 0 2 1 0 2 2 0 2 0 0 1 1 1 1 1 1 1 1 0 1 0 1 0 2 0 1 0 0 0 0 1 1 0 0 0 1 0 3 0 1 0 1 0 2 1 2 0 2 1 0 1 0 2 0 2 0 1 0 0 3 0 1 1 2 0 2 0 1 2 1 1 2 1 1 1 1 0 2 0 2 1 0 1 1 1 1 1 2 0 3 0 2 0 0 0 1 2 0 1 0 0 0 2 0 0 0 0 0 0 0 0 0 0 1 1 0 0 0 0 0 1 1 0 0 1 1 0 0 0 1 0 1 0 0 1 3 1 0 1 2 0 0 2 1 0 1 1 2 0 1 1 0 0 1 2 0 2 0 1 2 0 0 0 0 0 0 0 1 2 1 1 1 1 0 2 0 1 1 1 2 1 0 2 0 2 1 1 0 2 0 0 2 0 1 0 2 1 1 0 1 0 3 1 1 0 1 2 2 2 2 0 1 4 0 2 1 2 0 1 0 3 1 1 3 0 1 0 0 1 1 0 1 3 0 2 2 1 0 0 0 1 1 2 1 2 1 1 2 1 1 2 1 1 1 3 0 0 0 0 2 0 0 1 0 1 0 2 0 2 1 0 2 1 0 0 1 1 2 1 4 1 0 0 3 1 2 2 0 0 1 0 1 1 0 0 1 1 0 1 0 0 1 1 1 1 1 0 3 1 2 0 0 1 0 0 2 2 0 0 0 4 2 2 0 1 1 1 0 2 0 2 3 1 0 3 2 0 1 1 1 1 0 0 1 0 1 1 1 2 2 0 1 2 1 2 1 1 1 0 3 0 0 1 2 0 3 0 2 1 2 0 1 1 2 2 0 0 2 0 1 0 2 1 0 3 0 1 0 1 0 0 1 1 1 0 0 1 2 2 1 1 0 2 0 0 0 2 0 0 0 3 1 1 1 1 1 0 0 1 0 2 2 0 1 1 1 3 2 4 0 0 2 2 2 1 1 0 2 2 1 1 2 3 2 3 0 1 1 2 0 0 1 0 3 0 2 0 2 0 0 2 4 0 2 1 1 1 1 0 2 2 1 1 1 2 0 0 1 2 0 1 0 1 0 1 0 0 1 2 1 1 1 2 3 0 0 
BTB PER SET COUNT: 111 0 0 62 0 34 4 0 18 6 162 78 0 196 0 1 2 0 1853 841 43 0 0 174 0 0 2 16 1 170 0 245 9 0 5 0 0 14 50 0 0 171 487 4 174 0 208 360 201 0 180 56 172 29 156 21 0 36 0 265 0 22 206 0 563 185 0 70 3 0 346 4 24 162 0 22 128 8 43 50 50 300 4 154 12 7 27 0 122 2 70 277 0 4 23 4 150 154 24 0 38 16 0 27 0 31 0 490 0 48 0 47 6 0 16 0 0 132 0 1 16 0 0 0 0 64 0 0 2 4 15 582 0 0 8 300 0 0 1 0 0 0 0 124 0 4 26 4 17 9 4 9 0 12 0 0 0 16 0 0 0 28 0 0 0 0 2 0 0 136 0 143 3 4 2 49 0 10559 0 2 138 1 4 0 0 0 4 86 3 10 2 189 0 1834 22 18 0 8 203 0 259 0 63 0 0 44 20 166 2 147 742 166 0 4 346 1097 2 0 221 0 155 16 5 13 0 0 2 49 0 64 1 4 131 0 554 4 16 67 45 0 3 173 35 548 0 2233 0 0 45 490 1 544 439 149 22 2 0 8 1 4 3 27 418 0 11 2 86 2 0 176 215 321 17 173 1257 0 215 528 0 482 0 243 3 120 0 31 0 2725 68 0 10 0 0 0 40 713 0 0 66 0 0 124 0 3 410 552 173 249 13 0 68 0 0 45 146 0 0 0 120 9 0 0 9 51 5 43 0 9 0 178 58 152 9 106 64 146 1 0 1157 1574 12 301 4 62 16 1351 0 4 0 745 129 715 196 147 164 67 216 1 0 1 0 134 5 0 9 43 146 0 121 0 6 0 12 0 54 5 0 14 697 0 0 1035 68 400 8 25 4 85 1 58 466 0 65 0 60 1486 138 77 58 1 15 0 0 0 0 4 13 126 9 938 126 627 235 873 9 12 140 0 154 12 9 0 0 132 0 0 146 46 358 0 8 130 2 43 647 0 131 0 0 5 567 0 71 657 158 52 0 69 682 0 28 288 0 0 0 0 3 28 43 10 0 71 0 10 55 43 5 0 150 4 182 188 181 0 324 128 4 189 88 0 6 4 40 12 0 0 0 2 0 3 0 684 546 0 23 4 453 72 616 0 4 4 1 0 21 0 61 0 62 0 128 1 0 47 461 4 10 122 0 10 2 1 0 52 168 737 4 46 0 118 4 38 0 43 0 27 4 4 122 71 0 0 49 172 0 245 0 51 126 0 135 0 0 0 4 1 80 74 2 4 60 15 68 417 34 0 229 18 607 0 0 2 4 170 0 19 0 42 0 0 780 0 23 1 169 3 0 2 70 6 0 1 6 2 93 0 81 78 63 44 159 63 4 8 17 125 43 2 783 0 0 155 121 0 2 173 0 449 0 118 24 366 2 1 62 17 165 12 49 177 0 17 815 34 0 197 6 0 24 0 0 0 0 0 4 0 0 2 4 0 1 132 0 203 151 0 0 0 7 0 17 43 2 5 0 13 0 1 0 2 0 0 15 0 48 19 0 0 6 5 0 4 0 1 4 4 11 130 0 0 72 2 138 0 334 0 0 4 10 198 0 11 182 18 3 10 235 0 896 333 90 12 0 133 3 4 6 79 5 47 4 47 43 241 0 173 0 0 0 5 126 10 45 0 0 2 165 8 9 4 110 1 57 74 298 0 115 814 230 0 0 0 0 8 18 2 787 230 198 0 28 8 149 8 150 0 0 1 0 0 72 4 0 307 0 24 0 5 0 962 0 0 5 44 28 58 12 0 10 166 26 1 32 0 0 121 0 231 63 0 0 2 5 0 2 0 0 1 48 0 0 108 0 34 0 0 0 188 122 0 4 3 0 4 0 0 1 1 0 1 171 1 164 3 41 4 2 274 87 0 4 1 41 176 32 2 0 514 2 195 50 4 2 0 0 2333 171 236 1213 8 10 0 28 0 3 139 1 0 7 1 247 0 2 7 55 0 20 465 0 0 441 0 203 8 0 1 0 171 27 667 5 27 7 864 0 27 0 122 0 0 108 707 4 0 2 865 10 0 50 7 212 4 534 11 3 0 0 1260 2 1 1 352 2 35 55 535 0 112 2 140 1 105 390 0 560 0 4 0 5 0 3 526 12 0 0 610 4 270 95 0 418 3 299 0 17 0 159 0 163 2 323 3 194 2 0 104 1 81 16 124 2 133 37 0 1 116 0 3 8 27 15 0 157 0 2 249 9 80 156 77 11 90 151 0 208 72 0 99 13 121 0 291 153 290 247 12 8 12 0 503 12 67 152 0 0 3 128 73 0 188 5 145 1 451 1 3 82 3 73 8 74 4 121 4 33 1 0 1 220 1 165 11 0 137 4 0 0 4 2 76 3 80 2 11 0 1081 0 14 20 2 92 4 2 0 15 43 0 20 8 77 6 100 5 0 0 77 0 5 16 4 25 8 0 4 18 73 5 29 5 0 5 8 89 36 10 2 0 4 20 36 192 1 101 0 0 0 6 4 1 158 1 23 3 170 4 0 4 0 0 167 0 2 0 0 0 0 1 538 0 0 154 2 81 0 0 0 0 210 0 0 4 1 119 125 0 8 0 2 0 1 3 0 1 0 0 0 0 194 13 0 5 0 4 1 5 2 0 12 0 4 5 91 0 590 171 8 1 1 2 83 8 131 0 12 0 0 96 0 1 0 209 9 161 2 0 164 15 2 0 3 5 0 1 1 0 0 41 0 2 0 2 2 1 2 0 0 1 0 0 1 4 6 4 0 0 0 0 206 26 0 0 2 0 190 1 8 0 3 8 4 11 0 1 2 0 179 2 0 0 32 2055 0 0 1 180 2 6 0 0 1 1912 3 4 0 1 0 8 1 0 4 8 346 0 0 0 795 2 3 4 0 2 0 0 8 2 0 0 150 4 6 0 1 1 0 2 1 2 0 174 2 0 0 0 1 2 1 4 1 1 0 0 2 0 0 0 0 0 0 174 2 2 0 1 0 1 2 0 864 0 0 1 0 0 0 2 175 574 43 0 64 2 897 0 0 118 0 0 2 6 0 2 0 5 4 2 245 1 0 5 0 0 254 804 0 656 0 59 1 0 44 0 1 0 0 0 6 8 168 4 3 166 2 1 2 4 0 43 0 72 0 0 162 0 2 6 10 0 64 0 0 12 1 0 8 12 5 60 0 0 59 134 15 5 128 62 122 0 0 49 20 6 0 7 43 0 11 10 2 8 45 171 171 170 33 0 1 172 0 0 0 0 0 2 342 3 0 126 0 173 170 0 283 673 0 165 14 3 0 171 0 0 7 36 0 0 4 343 170 170 38 0 8 13 204 21 0 11 0 59 287 0 0 166 172 49 2 0 177 2 131 68 4 83 0 1 165 0 0 0 67 214 64 0 1 0 0 2610 170 130 5 0 170 0 0 0 3 0 170 0 6 0 1 4 0 178 3 238 10 989 3 0 0 0 4 0 342 0 0 0 74 0 171 2 5 2 2 2 0 21 192 4 4 2 2 2 0 3 44 170 7 0 0 22 0 2073 0 10 0 0 2 0 5 0 0 11 0 0 196 0 8 543 0 0 60 171 0 3 8 0 0 0 2 1 0 8 17 175 3 0 0 5 0 0 15 172 0 2 0 1 12 0 6 13 0 174 0 0 1 12 617 180 2 1 170 2 170 432 0 0 1160 7 1 151 0 1 0 0 0 0 0 27 0 96 0 261 0 0 336 1 19 0 394 49 207 1 0 232 4 2 579 9 0 175 43 174 0 174 0 0 0 0 1 4 47 8 5 1 10 388 737 1115 82 0 166 48 5 4 170 4 0 0 0 156 2039 4 0 14 0 2 14 8 25 9 722 0 266 112 398 0 170 672 2 0 43 235 0 74 1 1088 0 0 43 175 137 47 170 977 2 204 0 203 170 1 25 1 0 9 813 0 1 2 7 0 23 718 2 1124 0 303 22 0 0 14 117 4 170 0 316 0 0 0 0 0 0 0 0 129 0 0 268 0 42 0 4 0 2 126 2 0 1 0 8 317 792 0 0 63 4 0 129 5 1026 0 0 4 191 122 0 0 161 0 4 119 0 320 3 0 0 0 126 1598 0 461 0 995 0 69 248 158 2 0 162 241 0 6 171 456 0 104 0 0 8 0 0 0 0 4 0 0 3549 7 6 55 0 0 64 344 0 5 1 2 14 53 2 130 221 1 77 0 0 0 16 128 0 0 171 0 0 0 0 4 0 2 534 30 0 0 121 8 3 42 101 0 1 0 0 0 2 162 2 129 2 0 4 0 0 4 402 0 0 0 711 4 4 0 1 128 346 712 130 33 0 16 0 0 6 106 2 304 224 408 296 271 1270 130 0 0 554 1035 411 4 27 181 5 0 2 2 0 166 6 0 33 153 0 5 0 167 2 4 878 174 0 51 1 4 3 0 0 46 4 8 5 0 791 1253 4 0 233 1184 12 0 153 0 0 107 166 211 0 4 0 3 0 12 0 3 0 17 1 0 878 158 0 0 6 0 0 316 13 166 64 817 10 17 0 53 154 20 0 1 2 15 1 0 9 0 0 0 4 0 0 263 878 157 11 33 4 94 10 0 0 1 12 19 64 16 1 16 12 43 0 99 66 123 13 4 12 0 0 126 1 170 4 500 89 620 1 0 1 4 208 4 0 0 0 0 381 38 1 1141 0 170 0 262 3 0 1 92 430 187 171 233 145 99 274 0 0 171 2 173 0 354 0 1 182 7 4 6 170 0 170 1 149 41 225 0 6 0 298 0 2 4 0 126 51 17 0 56 0 29 5 0 5 0 8 0 2 12 49 0 1 0 0 1 0 40 21 0 185 0 559 321 8 5 4 1 4 490 0 516 301 317 1 256 0 2 1 191 1 130 0 1368 65 41 2 13 171 590 0 3 810 1 5 4 0 677 4 786 53 5 0 0 2 0 0 212 866 168 0 8 93 0 1 318 116 49 173 339 0 1007 1 12 5 251 2 0 0 1 170 0 4 278 1 28 13 83 0 96 6 192 210 166 166 1 1 995 156 43 2 0 0 0 5 2 5 4 2 13 0 166 2 1 0 1 4 377 9 2 0 0 181 71 1 49 0 42 0 0 5 457 881 2 0 12 7 0 0 0 1 1 168 0 180 104 12 0 2 0 2 1 1039 0 4 30 1 0 68 144 164 0 0 0 0 0 147 0 2 0 4 12 21 21 0 2 0 34 13 0 985 0 0 198 54 860 88 0 0 12 1 0 300 0 0 17 20 21 35 39 0 1 25 90 25 0 888 44 0 0 0 78 7 0 25 0 0 0 484 1 198 0 527 0 1 235 124 171 38 17 228 52 77 880 3303 70 239 1 300 0 218 786 0 4 0 170 24 401 552 135 0 205 0 12 410 0 3 255 295 0 205 0 531 0 14 250 13 0 84 95 7 499 2 599 588 1 2 2 0 35 165 32 9 172 55 174 38 17 0 366 682 176 32 170 16 2 715 1044 346 0 176 0 403 290 0 190 80 692 638 79 0 184 0 0 7 0 182 1 4 0 506 1090 243 644 44 123 1 57 0 584 0 37 0 0 29 140 5 140 74 13 0 0 868 0 130 0 7 64 2 797 8 283 77 0 339 0 10 2 6 0 2 5 8 4 3 71 0 105 0 0 447 24 2 3 0 0 39 0 0 0 668 85 4 5 4 7 8 92 130 0 0 4 2 870 49 0 1 154 738 0 12 2 39 0 0 5 4 0 337 95 3 4 11 4 2 0 828 0 65 1 0 1 121 8 149 0 0 0 0 0 3 8 490 561 0 385 0 0 0 7 118 317 530 18 0 0 734 0 12 2 11 4 0 6 1337 525 2 0 764 190 0 16 2 7 1 153 69 0 45 0 4 53 0 1 697 34 0 0 30 0 1 216 41 4 4 1 37 2 3 4 0 3 20 124 38 4 91 827 0 4 2 0 4 4 10 1 12 0 186 0 11 36 184 56 5 39 0 0 43 0 70 7 34 68 4 7 2 241 0 183 0 190 3 4 1 0 0 0 0 0 43 0 0 45 69 0 369 333 40 0 0 118 0 0 34 4 0 0 5 643 0 0 194 0 14 286 4 0 2 20 2 6 0 0 142 377 3 270 6 17 0 13 91 0 1 115 0 363 0 1 43 6 2 2 0 0 239 2 4 4 0 0 0 4 0 0 4 0 0 868 430 4 317 0 143 316 4 0 2 0 64 0 8 11 129 10 4 9 4 0 87 60 4 64 0 2 61 0 0 60 0 1 0 4 69 0 92 0 131 0 0 1 1 0 0 0 0 0 62 0 0 0 0 122 0 0 4 376 68 4 80 126 4 0 4 144 1 4 126 0 0 5 4 7 0 0 0 0 0 0 62 0 717 0 0 4 3 0 0 0 0 0 2 2 0 0 1 5 4 0 20 0 4 1 2 1 2 0 0 2 0 0 61 0 1 4 0 0 150 0 0 0 2 6 0 1 12 0 0 0 170 0 2 0 0 0 2 0 0 66 318 0 325 4 122 0 5 192 175 17 139 0 4 230 13 441 1 123 4 0 2 8 1 17 107 32 227 0 9 4 17 316 2 180 0 3 1 254 0 0 13 0 340 0 2 13 0 6 0 90 0 0 7 2 20 0 2 2 1 2 2 7 0 0 0 0 2 0 0 10 0 1 5 0 786 6 0 0 480 1 1 0 155 4 172 60 506 0 9 0 19 0 574 2 1 495 12 76 7 60 5 7 0 1 4 1 12 19 0 98 180 5 265 2 1 23 0 12 9 1 68 2 7 4 0 0 9 2 1 0 0 0 170 0 702 109 4 242 12 938 1 4 4 440 1 1 170 0 5 1099 180 2 574 0 0 4 1 163 14 372 1 9 43 0 65 174 1 0 9 70 1140 3 0 103 4 943 617 0 63 1 178 242 62 0 262 0 5 6 13 7 806 6 0 21 0 91 0 5 103 0 126 53 0 0 1165 9 0 0 62 45 0 1 176 2 1 112 0 0 54 34 126 45 0 0 64 0 1 0 0 2341 0 0 126 8 117 0 0 16 0 23 0 125 0 16 2 0 0 0 0 4 122 126 0 0 4 0 0 0 170 4 8 4 4 0 4 169 165 5 6 0 0 260 1 2 133 0 170 44 174 0 3 300 28 162 170 0 0 3 606 0 7 3 0 4 0 0 127 174 0 0 0 183 0 0 170 0 0 170 2 175 0 170 0 0 0 0 518 0 162 0 0 449 0 0 0 4 1 772 170 0 0 24 0 125 0 277 0 0 170 284 271 118 4 170 0 0 0 0 0 0 0 32 2 0 0 125 0 0 68 1 0 4 127 0 32 0 0 0 0 0 1 0 2 125 4 0 0 0 0 0 171 0 4 0 170 0 0 0 0 174 0 0 2 0 1 0 5 0 0 0 1 0 0 301 0 0 2 0 170 0 4 0 170 0 0 0 0 559 0 651 0 0 0 0 7 0 412 174 0 2 170 0 0 0 1 0 43 1 0 2 0 0 0 0 0 0 43 0 0 0 0 0 0 0 177 0 129 4 1 0 0 0 43 668 1 20 4 0 0 4 0 4 0 0 0 5 0 0 0 2 0 0 0 1 4 0 0 0 1 2 0 0 122 0 43 2 1 1 0 0 63 0 0 356 513 0 585 780 4 89 0 280 0 261 1 64 9 0 0 8 520 176 4 140 0 767 6 0 0 0 206 0 16 74 1 0 150 46 241 0 19 126 5 1131 134 0 191 0 3 45 1 0 14 187 1 0 16 0 107 0 167 0 297 170 52 328 0 57 3 305 112 0 224 48 1 0 246 1 0 4 121 0 62 0 0 0 13 982 0 0 14 8 0 0 1 0 12 33 0 52 4 0 0 4 670 12 0 1 3 33 1 4 0 1 46 0 125 0 0 0 6 0 12 4 173 4 99 0 0 3 114 4 41 0 33 0 4 0 4 0 0 0 4 0 0 7 8 1 0 0 0 0 4 8 0 0 0 0 3 1 0 12 48 0 0 5 2 0 0 0 0 0 0 43 0 0 1 0 2 28 0 2 0 6 0 57 0 889 0 0 260 33 43 0 0 43 0 4 4 0 128 632 0 1 2 216 0 0 0 37 33 0 33 0 0 0 4 0 0 86 0 0 10 0 7 8 0 174 37 0 14 0 0 1 1 25 14 3 1 4 125 0 27 0 3 0 556 0 2 0 0 0 0 224 1036 0 0 0 2 0 6 0 1 0 879 0 161 12 7 0 3 1 0 3 0 3 0 5 0 16 0 0 25 0 56 2 81 0 60 0 43 3 1 2 3 2 1 4 1 0 2 0 14 2 0 1 1 4 1 13 25 0 10 0 3 0 0 0 4 44 0 2 0 0 0 2 0 0 0 0 0 0 0 0 0 0 4 3 0 0 0 0 0 5 2 0 0 355 2 0 0 0 44 0 24 0 0 820 95 12 0 11 2 0 0 34 1 0 2 4 3 0 25 4 0 0 1 54 0 53 0 43 5 0 0 0 0 0 0 0 25 1181 4 4 4 1 0 298 0 1 4 1 159 179 0 13 0 8 2 4 0 32 0 0 5 0 93 0 16 812 4 0 181 0 189 1 4 0 183 187 47 15 131 0 43 22 0 47 1 110 0 4 0 49 5 4 29 0 4 0 0 4 4 0 4 486 0 187 17 4 0 0 0 3 4 435 184 349 4 4 16 170 820 155 205 4 4 264 0 0 0 0 794 0 0 1 0 21 0 39 0 911 1 0 41 2 0 0 3 791 100 1 691 8 0 0 1123 21 97 2 0 0 79 0 1 1 0 0 4 226 0 58 0 0 1131 1 1 6 49 0 55 1 755 0 0 12 0 0 2 821 0 0 0 113 176 2 0 580 82 4 0 294 0 8 451 6 0 237 5 0 4 4 504 1 0 0 4 0 493 82 1 54 129 0 8 1095 4 5 1 70 39 0 34 0 0 2 3086 0 13 0 9 668 6 0 3 3 1727 5 0 0 18 0 60 0 6 10 0 69 0 4 0 1 0 0 126 10 1 0 0 10 348 3 4 1 0 8 0 0 0 61 0 0 0 15 1 2 44 1 2 0 0 92 0 348 63 0 1 739 126 78 4 175 0 0 815 214 6 44 9 0 469 6 5 19 4 306 320 113 0 1 65 126 0 0 4 0 85 0 6 0 154 0 0 1160 1740 0 130 4 127 338 81 0 13 6 150 173 10 84 0 0 150 70 0 1 0 4 0 31 0 0 4 1299 1 1 50 455 59 0 0 
