
*** ChampSim Multicore Out-of-Order Simulator ***

Warmup Instructions: 50000000
Simulation Instructions: 50000000
Number of CPUs: 1
LLC sets: 2048
LLC ways: 16
Off-chip DRAM Size: 4096 MB Channels: 1 Width: 64-bit Data Rate: 6400 MT/s
CPU 0 runs ./micro_traces/srv170.trace.gz
.gz
ITLB has LRU replacement policy
DTLB has LRU replacement policy
STLB has LRU replacement policy
CPU 0 L1I next line prefetcher
./conditional/srv170.cond
L1I has LRU replacement policy
L1D has LRU replacement policy
Initialize SRRIP state for L2C
Initialize DRRIP state for LLC
Heartbeat_Variant_0 : 1324 0.323242 per_variant_size: 0 1324 0 0 0 0 0 0 0 
Heartbeat_Variant_1 : 1234 0.30127 per_variant_size: 0 614 620 0 0 0 0 0 0 
Heartbeat_Variant_2 : 1295 0.316162 per_variant_size: 0 507 356 340 92 0 0 0 0 
Heartbeat_Variant_3 : 0 0 per_variant_size: 0 0 0 0 0 0 0 0 0 
Heartbeat_Variant_0_evicts 0 : 5959 1 : 241 2 : 265 3 : 0 
Heartbeat_Variant_1_evicts 0 : 217 1 : 0 2 : 432 3 : 0 
Heartbeat_Variant_2_evicts 0 : 260 1 : 407 2 : 0 3 : 0 
Heartbeat_Variant_3_evicts 0 : 0 1 : 0 2 : 0 3 : 0 
Heartbeat CPU 0 instructions: 10000003 cycles: 2797693 heartbeat IPC: 3.57437 cumulative IPC: 3.57437 (Simulation time: 0 hr 1 min 36 sec) 
Heartbeat_Variant_0 : 1373 0.335205 per_variant_size: 0 1373 0 0 0 0 0 0 0 
Heartbeat_Variant_1 : 1297 0.31665 per_variant_size: 0 596 701 0 0 0 0 0 0 
Heartbeat_Variant_2 : 1350 0.32959 per_variant_size: 0 511 355 392 92 0 0 0 0 
Heartbeat_Variant_3 : 0 0 per_variant_size: 0 0 0 0 0 0 0 0 0 
Heartbeat_Variant_0_evicts 0 : 5816 1 : 337 2 : 312 3 : 0 
Heartbeat_Variant_1_evicts 0 : 358 1 : 0 2 : 520 3 : 0 
Heartbeat_Variant_2_evicts 0 : 291 1 : 538 2 : 0 3 : 0 
Heartbeat_Variant_3_evicts 0 : 0 1 : 0 2 : 0 3 : 0 
Heartbeat CPU 0 instructions: 20000003 cycles: 5595379 heartbeat IPC: 3.57438 cumulative IPC: 3.57438 (Simulation time: 0 hr 3 min 13 sec) 
Heartbeat_Variant_0 : 1380 0.336914 per_variant_size: 0 1380 0 0 0 0 0 0 0 
Heartbeat_Variant_1 : 1311 0.320068 per_variant_size: 0 616 695 0 0 0 0 0 0 
Heartbeat_Variant_2 : 1350 0.32959 per_variant_size: 0 500 361 408 81 0 0 0 0 
Heartbeat_Variant_3 : 0 0 per_variant_size: 0 0 0 0 0 0 0 0 0 
Heartbeat_Variant_0_evicts 0 : 5664 1 : 97 2 : 100 3 : 0 
Heartbeat_Variant_1_evicts 0 : 106 1 : 0 2 : 294 3 : 0 
Heartbeat_Variant_2_evicts 0 : 86 1 : 293 2 : 0 3 : 0 
Heartbeat_Variant_3_evicts 0 : 0 1 : 0 2 : 0 3 : 0 
Heartbeat CPU 0 instructions: 30000001 cycles: 8391872 heartbeat IPC: 3.57591 cumulative IPC: 3.57489 (Simulation time: 0 hr 4 min 53 sec) 
Heartbeat_Variant_0 : 1379 0.33667 per_variant_size: 0 1379 0 0 0 0 0 0 0 
Heartbeat_Variant_1 : 1303 0.318115 per_variant_size: 0 613 690 0 0 0 0 0 0 
Heartbeat_Variant_2 : 1363 0.332764 per_variant_size: 0 519 355 411 78 0 0 0 0 
Heartbeat_Variant_3 : 0 0 per_variant_size: 0 0 0 0 0 0 0 0 0 
Heartbeat_Variant_0_evicts 0 : 5596 1 : 78 2 : 84 3 : 0 
Heartbeat_Variant_1_evicts 0 : 80 1 : 0 2 : 279 3 : 0 
Heartbeat_Variant_2_evicts 0 : 83 1 : 290 2 : 0 3 : 0 
Heartbeat_Variant_3_evicts 0 : 0 1 : 0 2 : 0 3 : 0 
Heartbeat CPU 0 instructions: 40000002 cycles: 11188925 heartbeat IPC: 3.57519 cumulative IPC: 3.57496 (Simulation time: 0 hr 6 min 34 sec) 
Heartbeat_Variant_0 : 1383 0.337646 per_variant_size: 0 1383 0 0 0 0 0 0 0 
Heartbeat_Variant_1 : 1310 0.319824 per_variant_size: 0 607 703 0 0 0 0 0 0 
Heartbeat_Variant_2 : 1356 0.331055 per_variant_size: 0 499 368 399 90 0 0 0 0 
Heartbeat_Variant_3 : 0 0 per_variant_size: 0 0 0 0 0 0 0 0 0 
Heartbeat_Variant_0_evicts 0 : 5706 1 : 77 2 : 85 3 : 0 
Heartbeat_Variant_1_evicts 0 : 80 1 : 0 2 : 278 3 : 0 
Heartbeat_Variant_2_evicts 0 : 80 1 : 275 2 : 0 3 : 0 
Heartbeat_Variant_3_evicts 0 : 0 1 : 0 2 : 0 3 : 0 
Heartbeat CPU 0 instructions: 50000001 cycles: 13986823 heartbeat IPC: 3.57411 cumulative IPC: 3.57479 (Simulation time: 0 hr 8 min 16 sec) 

Warmup complete CPU 0 instructions: 50000001 cycles: 13986823 (Simulation time: 0 hr 8 min 16 sec) 

Cycle: 20000000 FTQ IN: 58238152 FTQ occupancy: 19.4791 DECODE IN: 58238152 DECODE occupancy: 50.9875 ROB IN: 58238152 ROB occupancy: 312.552 ROB OUT: 58238144
Heartbeat_Variant_0 : 1382 0.337402 per_variant_size: 0 1382 0 0 0 0 0 0 0 
Heartbeat_Variant_1 : 1308 0.319336 per_variant_size: 0 608 700 0 0 0 0 0 0 
Heartbeat_Variant_2 : 1359 0.331787 per_variant_size: 0 498 372 390 99 0 0 0 0 
Heartbeat_Variant_3 : 0 0 per_variant_size: 0 0 0 0 0 0 0 0 0 
Heartbeat_Variant_0_evicts 0 : 5678 1 : 8 2 : 11 3 : 0 
Heartbeat_Variant_1_evicts 0 : 14 1 : 0 2 : 207 3 : 0 
Heartbeat_Variant_2_evicts 0 : 6 1 : 215 2 : 0 3 : 0 
Heartbeat_Variant_3_evicts 0 : 0 1 : 0 2 : 0 3 : 0 
Heartbeat CPU 0 instructions: 60000001 cycles: 21292499 heartbeat IPC: 1.3688 cumulative IPC: 1.3688 (Simulation time: 0 hr 10 min 2 sec) 
Heartbeat_Variant_0 : 1386 0.338379 per_variant_size: 0 1386 0 0 0 0 0 0 0 
Heartbeat_Variant_1 : 1310 0.319824 per_variant_size: 0 604 706 0 0 0 0 0 0 
Heartbeat_Variant_2 : 1355 0.330811 per_variant_size: 0 486 382 377 110 0 0 0 0 
Heartbeat_Variant_3 : 0 0 per_variant_size: 0 0 0 0 0 0 0 0 0 
Heartbeat_Variant_0_evicts 0 : 5717 1 : 101 2 : 102 3 : 0 
Heartbeat_Variant_1_evicts 0 : 103 1 : 0 2 : 271 3 : 0 
Heartbeat_Variant_2_evicts 0 : 96 1 : 272 2 : 0 3 : 0 
Heartbeat_Variant_3_evicts 0 : 0 1 : 0 2 : 0 3 : 0 
Heartbeat CPU 0 instructions: 70000002 cycles: 28712770 heartbeat IPC: 1.34766 cumulative IPC: 1.35815 (Simulation time: 0 hr 11 min 51 sec) 
Cycle: 30000000 FTQ IN: 13526526 FTQ occupancy: 11.2957 DECODE IN: 13526508 DECODE occupancy: 29.5456 ROB IN: 13526500 ROB occupancy: 226.703 ROB OUT: 13526212
Heartbeat_Variant_0 : 1387 0.338623 per_variant_size: 0 1387 0 0 0 0 0 0 0 
Heartbeat_Variant_1 : 1311 0.320068 per_variant_size: 0 606 705 0 0 0 0 0 0 
Heartbeat_Variant_2 : 1353 0.330322 per_variant_size: 0 484 383 381 105 0 0 0 0 
Heartbeat_Variant_3 : 0 0 per_variant_size: 0 0 0 0 0 0 0 0 0 
Heartbeat_Variant_0_evicts 0 : 5640 1 : 19 2 : 20 3 : 0 
Heartbeat_Variant_1_evicts 0 : 18 1 : 0 2 : 211 3 : 0 
Heartbeat_Variant_2_evicts 0 : 20 1 : 209 2 : 0 3 : 0 
Heartbeat_Variant_3_evicts 0 : 0 1 : 0 2 : 0 3 : 0 
Heartbeat CPU 0 instructions: 80000002 cycles: 36019555 heartbeat IPC: 1.36859 cumulative IPC: 1.36161 (Simulation time: 0 hr 13 min 35 sec) 
Cycle: 40000000 FTQ IN: 13520964 FTQ occupancy: 11.3103 DECODE IN: 13520931 DECODE occupancy: 29.6938 ROB IN: 13520939 ROB occupancy: 227.065 ROB OUT: 13521004
Heartbeat_Variant_0 : 1392 0.339844 per_variant_size: 0 1392 0 0 0 0 0 0 0 
Heartbeat_Variant_1 : 1317 0.321533 per_variant_size: 0 620 697 0 0 0 0 0 0 
Heartbeat_Variant_2 : 1348 0.329102 per_variant_size: 0 464 394 391 99 0 0 0 0 
Heartbeat_Variant_3 : 0 0 per_variant_size: 0 0 0 0 0 0 0 0 0 
Heartbeat_Variant_0_evicts 0 : 5726 1 : 161 2 : 128 3 : 0 
Heartbeat_Variant_1_evicts 0 : 156 1 : 0 2 : 356 3 : 0 
Heartbeat_Variant_2_evicts 0 : 130 1 : 348 2 : 0 3 : 0 
Heartbeat_Variant_3_evicts 0 : 0 1 : 0 2 : 0 3 : 0 
Heartbeat CPU 0 instructions: 90000000 cycles: 43462639 heartbeat IPC: 1.34353 cumulative IPC: 1.35704 (Simulation time: 0 hr 15 min 20 sec) 
Cycle: 50000000 FTQ IN: 13670963 FTQ occupancy: 11.1925 DECODE IN: 13671007 DECODE occupancy: 29.3672 ROB IN: 13670947 ROB occupancy: 225.672 ROB OUT: 13671041
Heartbeat_Variant_0 : 1391 0.3396 per_variant_size: 0 1391 0 0 0 0 0 0 0 
Heartbeat_Variant_1 : 1321 0.32251 per_variant_size: 0 620 701 0 0 0 0 0 0 
Heartbeat_Variant_2 : 1346 0.328613 per_variant_size: 0 455 404 392 95 0 0 0 0 
Heartbeat_Variant_3 : 0 0 per_variant_size: 0 0 0 0 0 0 0 0 0 
Heartbeat_Variant_0_evicts 0 : 5666 1 : 25 2 : 33 3 : 0 
Heartbeat_Variant_1_evicts 0 : 25 1 : 0 2 : 219 3 : 0 
Heartbeat_Variant_2_evicts 0 : 34 1 : 215 2 : 0 3 : 0 
Heartbeat_Variant_3_evicts 0 : 0 1 : 0 2 : 0 3 : 0 
Heartbeat CPU 0 instructions: 100000000 cycles: 50762820 heartbeat IPC: 1.36983 cumulative IPC: 1.35958 (Simulation time: 0 hr 17 min 2 sec) 
Finished CPU 0 instructions: 50000003 cycles: 36775998 cumulative IPC: 1.35958 (Simulation time: 0 hr 17 min 2 sec) 

ChampSim completed all CPUs

Region of Interest Statistics

CPU 0 cumulative IPC: 1.35958 instructions: 50000003 cycles: 36775998
 Fetch stage stalled: 57.4191  Sim cycles: 36775998 fetch stall cycle: 21116436
 Empty decode stage: 41.1982  Sim cycles: 36775998 fetch stall cycle: 15151038
ITLB TOTAL     ACCESS:    6891747  HIT:    6387121  MISS:     504626  HIT %:    92.6778  MISS %:    7.32218   MPKI: 10.0925
ITLB LOAD TRANSLATION INSTRUCTION	ACCESS:    5667008  HIT:    5186423  MISS:     480585  HIT %:    91.5196  MISS %:     8.4804  MPKI: 9.6117
ITLB TRANSLATION FROM L1D PREFETCHER INSTRUCTION	ACCESS:    1224739  HIT:    1200698  MISS:      24041  HIT %:    98.0371  MISS %:    1.96295  MPKI: 0.48082

ITLB AVERAGE MISS LATENCY: 75807.6 cycles
ITLB RQ	ACCESS:   10159616	FORWARD:          0	MERGED:    2782795	TO_CACHE:    7376821

DTLB TOTAL     ACCESS:    8977531  HIT:    8507076  MISS:     470455  HIT %:    94.7596  MISS %:    5.24036   MPKI: 9.4091
DTLB LOAD TRANSLATION DATA	ACCESS:    8977531  HIT:    8507076  MISS:     470455  HIT %:    94.7596  MISS %:    5.24036  MPKI: 9.4091

DTLB AVERAGE MISS LATENCY: 9.33593 cycles
DTLB RQ	ACCESS:   13339801	FORWARD:          0	MERGED:    4325396	TO_CACHE:    9014405

STLB TOTAL     ACCESS:    1226746  HIT:    1224593  MISS:       2153  HIT %:    99.8245  MISS %:   0.175505   MPKI: 0.04306
STLB LOAD TRANSLATION INSTRUCTION	ACCESS:     479419  HIT:     479209  MISS:        210  HIT %:    99.9562  MISS %:   0.043803  MPKI: 0.0042
STLB TRANSLATION FROM L1D PREFETCHER INSTRUCTION	ACCESS:      25207  HIT:      25100  MISS:        107  HIT %:    99.5755  MISS %:   0.424485  MPKI: 0.00214
STLB LOAD TRANSLATION DATA	ACCESS:     470455  HIT:     468638  MISS:       1817  HIT %:    99.6138  MISS %:   0.386222  MPKI: 0.03634
STLB TRANSLATION FROM L1D PREFETCHER DATA	ACCESS:     251665  HIT:     251646  MISS:         19  HIT %:    99.9925  MISS %: 0.00754972  MPKI: 0.00038

STLB AVERAGE MISS LATENCY: 69.4069 cycles
STLB RQ	ACCESS:    1389357	FORWARD:          0	MERGED:     121015	TO_CACHE:    1268342

STLB Hit, L1D data hit: 0
STLB Hit, L2C data hit: 0
STLB Hit, LLC data hit: 0
STLB Hit, LLC data miss: 0
STLB STLB hints to L2: 0
L1D TOTAL     ACCESS:   13085622  HIT:   11977207  MISS:    1108415  HIT %:    91.5295  MISS %:    8.47048   MPKI: 22.1683
L1D LOAD DATA	ACCESS:    6562535  HIT:    5833409  MISS:     729126  HIT %:    88.8896  MISS %:    11.1104  MPKI: 14.5825
L1D RFO DATA	ACCESS:    6191275  HIT:    5906121  MISS:     285154  HIT %:    95.3943  MISS %:    4.60574  MPKI: 5.70308
L1D PREFETCH DATA	ACCESS:     331812  HIT:     237677  MISS:      94135  HIT %:      71.63  MISS %:      28.37  MPKI: 1.8827

L1D PREFETCH  REQUESTED:     745889  ISSUED:     745889  USEFUL:      33440  USELESS:      68759
L1D USEFUL LOAD PREFETCHES:      33440 PREFETCH ISSUED TO LOWER LEVEL:     102264  ACCURACY: 32.6997
 TIMELY PREFETCHES:      33440 LATE PREFETCHES: 8046 DROPPED PREFETCHES: 7
L1D AVERAGE MISS LATENCY: 234317 cycles
L1D RQ	ACCESS:   10702881	FORWARD:          0	MERGED:    3938493	TO_CACHE:    6600446
L1D WQ	ACCESS:    6936507	FORWARD:     164379	MERGED:     197152	TO_CACHE:    6739355
L1D PQ	ACCESS:     373163	FORWARD:          0	MERGED:          0	TO_CACHE:     372726

L1D UNIQUE REGIONS ACCESSED: 0
L1D REGIONS CONFLICTS: 0
L1D Cross Page Prefetch Requests: 6777
L1D Same Page Prefetch Requests: 750912
L1D ROI Sum of L1D PQ occupancy: 4737261
L1D PREFETCHES PUSHED FROM L2C: 0
L1I TOTAL     ACCESS:    8791502  HIT:    5488116  MISS:    3303386  HIT %:    62.4252  MISS %:    37.5748   MPKI: 66.0677
L1I LOAD INSTRUCTION	ACCESS:    6558969  HIT:    4460234  MISS:    2098735  HIT %:    68.0021  MISS %:    31.9979  MPKI: 41.9747
L1I PREFETCH INSTRUCTION	ACCESS:    2232533  HIT:    1027882  MISS:    1204651  HIT %:    46.0411  MISS %:    53.9589  MPKI: 24.093

L1I PREFETCH  REQUESTED:    3931364  ISSUED:    3928064  USEFUL:     938824  USELESS:     491323
L1I USEFUL LOAD PREFETCHES:     938824 PREFETCH ISSUED TO LOWER LEVEL:    1430151  ACCURACY: 65.6451
 TIMELY PREFETCHES:     938824 LATE PREFETCHES: 225500 DROPPED PREFETCHES: 93977
L1I AVERAGE MISS LATENCY: 2.20642e+06 cycles
L1I RQ	ACCESS:    9490427	FORWARD:          0	MERGED:    2732850	TO_CACHE:    6757577
L1I PQ	ACCESS:    3928064	FORWARD:          0	MERGED:     526025	TO_CACHE:    3402039

L1BTB TOTAL     ACCESS:    5670414  HIT:    2055064  MISS:    3615350  HIT %:    36.2419  MISS %:    63.7581   MPKI: 72.307
L1BTB BRANCH_DIRECT_JUMP	ACCESS:     548869  HIT:     145851  MISS:     403018	AVERAGE STALL: 47.8796
L1BTB BRANCH_INDIRECT	ACCESS:     183338  HIT:      66386  MISS:     116952	AVERAGE STALL: 97.4356
L1BTB BRANCH_CONDITIONAL	ACCESS:    2712449  HIT:    1424030  MISS:    1288419	AVERAGE STALL: 64.2587
L1BTB BRANCH_DIRECT_CALL	ACCESS:     941349  HIT:     106109  MISS:     835240	AVERAGE STALL: 66.4307
L1BTB BRANCH_INDIRECT_CALL	ACCESS:     171529  HIT:      21638  MISS:     149891	AVERAGE STALL: 126.573
L1BTB BRANCH_RETURN	ACCESS:    1112880  HIT:     291050  MISS:     821830	AVERAGE STALL: 45.4606
L1BTB BRANCH_OTHER ACCESS:          0  HIT:          0  MISS:          0	AVERAGE STALL: -nan
L1BTB TOTAL ROB OCCUPANCY AT BTB MISS: 5.16433

L2BTB TOTAL     ACCESS:    3589770  HIT:    3483682  MISS:     106088  HIT %:    97.0447  MISS %:    2.95529   MPKI: 2.12176
L2BTB BRANCH_DIRECT_JUMP	ACCESS:     398766  HIT:     391982  MISS:       6784	AVERAGE STALL: 47.8796
L2BTB BRANCH_INDIRECT	ACCESS:     106681  HIT:     103971  MISS:       2710	AVERAGE STALL: 97.4356
L2BTB BRANCH_CONDITIONAL	ACCESS:    1288419  HIT:    1264685  MISS:      23734	AVERAGE STALL: 64.2587
L2BTB BRANCH_DIRECT_CALL	ACCESS:     835240  HIT:     833500  MISS:       1740	AVERAGE STALL: 66.4307
L2BTB BRANCH_INDIRECT_CALL	ACCESS:     140257  HIT:     129997  MISS:      10260	AVERAGE STALL: 126.573
L2BTB BRANCH_RETURN	ACCESS:     820407  HIT:     759547  MISS:      60860	AVERAGE STALL: 45.4606
L2BTB BRANCH_OTHER ACCESS:          0  HIT:          0  MISS:          0	AVERAGE STALL: -nan
L2BTB TOTAL ROB OCCUPANCY AT BTB MISS: 175.994

L2C TOTAL     ACCESS:    5694514  HIT:    4867412  MISS:     827102  HIT %:    85.4755  MISS %:    14.5245   MPKI: 16.542
L2C LOAD INSTRUCTION	ACCESS:    1873235  HIT:    1645604  MISS:     227631  HIT %:    87.8482  MISS %:    12.1518  MPKI: 4.55262
L2C PREFETCH INSTRUCTION	ACCESS:    1430151  HIT:    1249618  MISS:     180533  HIT %:    87.3766  MISS %:    12.6234  MPKI: 3.61066
L2C LOAD TRANSLATION INSTRUCTION	ACCESS:        234  HIT:         62  MISS:        172  HIT %:    26.4957  MISS %:    73.5043  MPKI: 0.00344
L2C TRANSLATION FROM L1D PREFETCHER INSTRUCTION	ACCESS:      56474  HIT:      35819  MISS:      20655  HIT %:    63.4256  MISS %:    36.5744  MPKI: 0.4131
L2C LOAD DATA	ACCESS:     721055  HIT:     601416  MISS:     119639  HIT %:    83.4078  MISS %:    16.5922  MPKI: 2.39278
L2C RFO DATA	ACCESS:     285043  HIT:     213963  MISS:      71080  HIT %:    75.0634  MISS %:    24.9366  MPKI: 1.4216
L2C PREFETCH DATA	ACCESS:     808174  HIT:     629930  MISS:     178244  HIT %:    77.9448  MISS %:    22.0552  MPKI: 3.56488
L2C WRITEBACK DATA	ACCESS:     518230  HIT:     490541  MISS:      27689  HIT %:     94.657  MISS %:    5.34299  MPKI: 0.55378
L2C LOAD TRANSLATION DATA	ACCESS:       1877  HIT:        436  MISS:       1441  HIT %:    23.2286  MISS %:    76.7714  MPKI: 0.02882
L2C TRANSLATION FROM L1D PREFETCHER DATA	ACCESS:         41  HIT:         23  MISS:         18  HIT %:    56.0976  MISS %:    43.9024  MPKI: 0.00036

L2C PREFETCH  REQUESTED:    1503681  ISSUED:    1503681  USEFUL:      31155  USELESS:     350770
L2C USEFUL LOAD PREFETCHES:      31155 PREFETCH ISSUED TO LOWER LEVEL:     360419  ACCURACY: 8.64411
 TIMELY PREFETCHES:      31155 LATE PREFETCHES: 1642 DROPPED PREFETCHES: 0
L2C AVERAGE MISS LATENCY: 35.1093 cycles
L2C RQ	ACCESS:    2938012	FORWARD:          0	MERGED:          0	TO_CACHE:    2937959
L2C WQ	ACCESS:     518231	FORWARD:         53	MERGED:          0	TO_CACHE:     518231
L2C PQ	ACCESS:    3036096	FORWARD:          0	MERGED:     783178	TO_CACHE:    2252918

L2C Dense regions hint from L2: 0
PSCL5 TOTAL     ACCESS:      87422  HIT:      43711  MISS:      43711  HIT %:         50  MISS %:         50   MPKI: 0.87422
PSCL5 LOAD TRANSLATION INSTRUCTION	ACCESS:       4028  HIT:       2014  MISS:       2014  HIT %:         50  MISS %:         50  MPKI: 0.04028
PSCL5 TRANSLATION FROM L1D PREFETCHER INSTRUCTION	ACCESS:      83394  HIT:      41697  MISS:      41697  HIT %:         50  MISS %:         50  MPKI: 0.83394


PSCL4 TOTAL     ACCESS:      84588  HIT:      42289  MISS:      42299  HIT %:    49.9941  MISS %:    50.0059   MPKI: 0.84598
PSCL4 LOAD TRANSLATION INSTRUCTION	ACCESS:       3249  HIT:       1901  MISS:       1348  HIT %:    58.5103  MISS %:    41.4897  MPKI: 0.02696
PSCL4 TRANSLATION FROM L1D PREFETCHER INSTRUCTION	ACCESS:      71135  HIT:      40388  MISS:      30747  HIT %:    56.7766  MISS %:    43.2234  MPKI: 0.61494
PSCL4 LOAD TRANSLATION DATA	ACCESS:        563  HIT:          0  MISS:        563  HIT %:          0  MISS %:        100  MPKI: 0.01126
PSCL4 TRANSLATION FROM L1D PREFETCHER DATA	ACCESS:       9641  HIT:          0  MISS:       9641  HIT %:          0  MISS %:        100  MPKI: 0.19282


PSCL3 TOTAL     ACCESS:      84728  HIT:      42359  MISS:      42369  HIT %:    49.9941  MISS %:    50.0059   MPKI: 0.84738
PSCL3 LOAD TRANSLATION INSTRUCTION	ACCESS:       3319  HIT:       1971  MISS:       1348  HIT %:    59.3854  MISS %:    40.6146  MPKI: 0.02696
PSCL3 TRANSLATION FROM L1D PREFETCHER INSTRUCTION	ACCESS:      71135  HIT:      40388  MISS:      30747  HIT %:    56.7766  MISS %:    43.2234  MPKI: 0.61494
PSCL3 LOAD TRANSLATION DATA	ACCESS:        633  HIT:          0  MISS:        633  HIT %:          0  MISS %:        100  MPKI: 0.01266
PSCL3 TRANSLATION FROM L1D PREFETCHER DATA	ACCESS:       9641  HIT:          0  MISS:       9641  HIT %:          0  MISS %:        100  MPKI: 0.19282


PSCL2 TOTAL     ACCESS:      61110  HIT:      30505  MISS:      30605  HIT %:    49.9182  MISS %:    50.0818   MPKI: 0.6121
PSCL2 LOAD TRANSLATION INSTRUCTION	ACCESS:       2157  HIT:       1930  MISS:        227  HIT %:    89.4761  MISS %:    10.5239  MPKI: 0.00454
PSCL2 TRANSLATION FROM L1D PREFETCHER INSTRUCTION	ACCESS:      56315  HIT:      28575  MISS:      27740  HIT %:    50.7414  MISS %:    49.2586  MPKI: 0.5548
PSCL2 LOAD TRANSLATION DATA	ACCESS:       1803  HIT:          0  MISS:       1803  HIT %:          0  MISS %:        100  MPKI: 0.03606
PSCL2 TRANSLATION FROM L1D PREFETCHER DATA	ACCESS:        835  HIT:          0  MISS:        835  HIT %:          0  MISS %:        100  MPKI: 0.0167


LLC TOTAL     ACCESS:     905105  HIT:     873364  MISS:      31741  HIT %:    96.4931  MISS %:    3.50689   MPKI: 0.63482
LLC LOAD INSTRUCTION	ACCESS:     226663  HIT:     226149  MISS:        514  HIT %:    99.7732  MISS %:   0.226768  MPKI: 0.01028
LLC PREFETCH INSTRUCTION	ACCESS:     179147  HIT:     177731  MISS:       1416  HIT %:    99.2096  MISS %:   0.790412  MPKI: 0.02832
LLC LOAD TRANSLATION INSTRUCTION	ACCESS:        172  HIT:        167  MISS:          5  HIT %:     97.093  MISS %:    2.90698  MPKI: 0.0001
LLC TRANSLATION FROM L1D PREFETCHER INSTRUCTION	ACCESS:      20655  HIT:      20562  MISS:         93  HIT %:    99.5497  MISS %:   0.450254  MPKI: 0.00186
LLC LOAD DATA	ACCESS:     118990  HIT:     115119  MISS:       3871  HIT %:    96.7468  MISS %:    3.25321  MPKI: 0.07742
LLC RFO DATA	ACCESS:      71050  HIT:      57206  MISS:      13844  HIT %:    80.5151  MISS %:    19.4849  MPKI: 0.27688
LLC PREFETCH DATA	ACCESS:     181272  HIT:     169680  MISS:      11592  HIT %:    93.6052  MISS %:    6.39481  MPKI: 0.23184
LLC WRITEBACK DATA	ACCESS:     105697  HIT:     105364  MISS:        333  HIT %:    99.6849  MISS %:   0.315052  MPKI: 0.00666
LLC LOAD TRANSLATION DATA	ACCESS:       1441  HIT:       1369  MISS:         72  HIT %:    95.0035  MISS %:    4.99653  MPKI: 0.00144
LLC TRANSLATION FROM L1D PREFETCHER DATA	ACCESS:         18  HIT:         17  MISS:          1  HIT %:    94.4444  MISS %:    5.55556  MPKI: 2e-05

LLC AVERAGE MISS LATENCY: 158.079 cycles
LLC RQ	ACCESS:     438993	FORWARD:          0	MERGED:          0	TO_CACHE:     438988
LLC WQ	ACCESS:     105697	FORWARD:          5	MERGED:          0	TO_CACHE:     105697
LLC PQ	ACCESS:     360419	FORWARD:          0	MERGED:          0	TO_CACHE:     360419

LLC Dense regions hint to LLC: 0

RAW hits: 1927569
Loads Generated: 12630450
Loads sent to L1D: 10702881
Stores Generated: 6936511
Stores sent to L1D: 6936507
Major fault: 0 Minor fault: 2597
Allocated PAGES: 2597
I-Shadow cache 408 bytes
Touched + WorthPF tables 12288 bytes 
MMA filter 42 bytes 
FNL filter 272 bytes 
TOTAL PREFETCHER STORAGE SIZE: 19922 bytes
CPU 0 L1I next line prefetcher final stats

stream: 
stream:times selected: 1191146
stream:pref_filled: 119692
stream:pref_useful: 22784
stream:pref_late: 8139
stream:misses: 8368
stream:misses_by_poll: 0

CS: 
CS:times selected: 179736
CS:pref_filled: 56731
CS:pref_useful: 33215
CS:pref_late: 10303
CS:misses: 19440
CS:misses_by_poll: 2

CPLX: 
CPLX:times selected: 1010283
CPLX:pref_filled: 19024
CPLX:pref_useful: 3843
CPLX:pref_late: 3805
CPLX:misses: 94382
CPLX:misses_by_poll: 1

NL_L1: 
NL:times selected: 20994
NL:pref_filled: 612
NL:pref_useful: 240
NL:pref_late: 381
NL:misses: 1744
NL:misses_by_poll: 0

total selections: 2402159
total_filled: 94135
total_useful: 33440
total_late: 23905
total_polluted: 3
total_misses_after_warmup: 767043
conflicts: 5520513

test: 117241

DRAM Statistics
 CHANNEL 0
 RQ ROW_BUFFER_HIT:      10550  ROW_BUFFER_MISS:      20843
 DBUS_CONGESTED:          8
 WQ ROW_BUFFER_HIT:       1515  ROW_BUFFER_MISS:      13268  FULL:          0

 AVG_CONGESTED_CYCLE: 6

CPU 0 Branch Prediction Accuracy: 99.8181% MPKI: 0.33268 Average ROB Occupancy at Mispredict: 186.137
Branch types
NOT_BRANCH: 40857586 81.7152%
BRANCH_DIRECT_JUMP: 548869 1.09774%
BRANCH_INDIRECT: 183338 0.366676%
BRANCH_CONDITIONAL: 6184448 12.3689%
BRANCH_DIRECT_CALL: 941349 1.8827%
BRANCH_INDIRECT_CALL: 171529 0.343058%
BRANCH_RETURN: 1112880 2.22576%
BRANCH_OTHER: 0 0%

DRAM PAGES: 1048576
Allocated PAGES: 2597
Average_ROB_Occupancy: 228.023
Average_Decode_Occupancy: 29.5936
Average_FTQ_Occupancy: 11.269
Indirect max targets: 14 Average targets: 1.17572
Branch_type:  BRANCH_DIRECT_JUMP:  Count Percentage: 3.92246 5.30897 4.66871 8.47689 1.69925 5.97486 1.21376 68.7351 
Branch_type:  BRANCH_INDIRECT:  Count Percentage: 11.7669 3.44494 2.58063 0 3.34462 4.01431 1.99868 72.85 
Branch_type:  BRANCH_CONDITIONAL:  Count Percentage: 21.6459 2.24548 2.31277 4.5873 2.01352 4.35451 0.68505 62.1555 
Branch_type:  BRANCH_DIRECT_CALL:  Count Percentage: 0.748942 1.28915 1.44277 4.18032 2.6183 2.36485 0.620998 86.7347 
Branch_type:  BRANCH_INDIRECT_CALL:  Count Percentage: 9.51898 0.579353 2.98269 4.84018 1.25454 2.99347 0.996755 76.834 
Branch_type:  BRANCH_RETURN:  Count Percentage: 4.17794 0.85545 1.78272 4.80081 4.19028 4.6252 1.17379 78.3938 
Branch_type:  BRANCH_DIRECT_JUMP:  Total Count: 43007 58209 51189 92943 18631 65510 13308 753631 
Branch_type:  BRANCH_INDIRECT:  Total Count: 43048 12603 9441 0 12236 14686 7312 266515 
Branch_type:  BRANCH_CONDITIONAL:  Total Count: 2674916 277488 285804 566882 248823 538114 84656 7680953 
Branch_type:  BRANCH_DIRECT_CALL:  Total Count: 14119 24303 27199 78807 49360 44582 11707 1635115 
Branch_type:  BRANCH_INDIRECT_CALL:  Total Count: 32680 1989 10240 16617 4307 10277 3422 263782 
Branch_type:  BRANCH_RETURN:  Total Count: 93141 19071 39743 107027 93416 103112 26168 1747674 
Number of unique branch instructions: 10597
Upper 32 bits: 
aaaa
ffff
ffff0000
Unique upper 32 bits: 3
Unique upper 36 bits: 3
Unique upper 40 bits: 5
Unique upper 44 bits: 32
Unique upper 48 bits: 158
Variant_0 : 1391 0.3396
Variant_1 : 1321 0.32251
Variant_2 : 1346 0.328613
Variant_3 : 0 0
Offset_3 4386
Offset_4 258
Offset_5 477
Offset_6 531
Offset_7 625
Offset_8 566
Offset_9 508
Offset_10 415
Offset_11 340
Offset_12 307
Offset_13 237
Offset_14 244
Offset_15 194
Offset_16 226
Offset_17 163
Offset_18 144
Offset_19 256
Offset_20 141
Offset_21 235
Offset_22 408
Offset_23 241
Offset_24 342
Offset_25 117
Offset_47 92
Offset_64 3
decode_dispatch_called: 24231074 65.8883
Dispatch_width: 0 12959420 53.4826 35.2388
Dispatch_width: 1 817640 3.37434 2.2233
Dispatch_width: 2 769526 3.17578 2.09247
Dispatch_width: 3 449157 1.85364 1.22133
Dispatch_width: 4 4457523 18.3959 12.1207
Dispatch_width: 5 201103 0.829938 0.546832
Dispatch_width: 6 4576705 18.8878 12.4448
Empty_decode_cycles: 12544924 34.1117
ROB_full_cycles: 7266309 19.7583
Starvation_cycles_per_kilo_instr: 249.33
Starvation_cycles_per_kilo_instr_3: 202.744
Starvation_cycles_per_kilo_instr_0: 182.38
Branch_type_1  (3,1)  (4,9)  (5,39)  (6,71)  (7,122)  (8,148)  (9,133)  (10,109)  (11,76)  (12,47)  (13,11)  (14,2)  (15,3)  (16,4)  (18,1)  (19,5)  (20,2)  (21,1)  (22,3)  (23,2)  (24,10)  (25,12) 
Branch_type_2  (3,1)  (4,1)  (5,1)  (8,4)  (9,4)  (10,1)  (12,1)  (13,1)  (14,1)  (16,3)  (17,2)  (20,2)  (21,2)  (23,5)  (24,1)  (47,41) 
Branch_type_3  (3,4384)  (4,248)  (5,433)  (6,444)  (7,474)  (8,348)  (9,278)  (10,167)  (11,129)  (12,54)  (13,10)  (64,3) 
Branch_type_4  (6,3)  (7,8)  (8,25)  (9,55)  (10,66)  (11,69)  (12,114)  (13,100)  (14,110)  (15,92)  (16,99)  (17,75)  (18,61)  (19,125)  (20,72)  (21,124)  (22,214)  (23,136)  (24,197)  (25,101) 
Branch_type_5  (8,3)  (9,1)  (10,4)  (11,5)  (12,3)  (13,14)  (14,16)  (15,11)  (16,22)  (17,11)  (18,23)  (19,14)  (20,11)  (21,13)  (22,43)  (23,26)  (24,38) 
Branch_type_6  (5,4)  (6,13)  (7,21)  (8,38)  (9,37)  (10,68)  (11,61)  (12,88)  (13,101)  (14,115)  (15,88)  (16,98)  (17,75)  (18,59)  (19,112)  (20,54)  (21,95)  (22,148)  (23,72)  (24,96)  (25,4)  (47,51) 
Unique trigger count: 
Variant_0_evicts_0 : 0
Variant_0_evicts_1 : 0
Variant_0_evicts_2 : 0
Variant_0_evicts_3 : 0
Variant_1_evicts_0 : 0
Variant_1_evicts_1 : 0
Variant_1_evicts_2 : 0
Variant_1_evicts_3 : 0
Variant_2_evicts_0 : 0
Variant_2_evicts_1 : 0
Variant_2_evicts_2 : 0
Variant_2_evicts_3 : 0
Variant_3_evicts_0 : 0
Variant_3_evicts_1 : 0
Variant_3_evicts_2 : 0
Variant_3_evicts_3 : 0
BTB PER SET UNIQUE ADDR: 14 8 6 11 12 7 10 10 9 13 10 22 11 10 13 9 8 11 12 14 12 13 12 14 10 14 11 14 11 9 13 16 16 12 10 11 13 12 8 14 13 8 10 18 12 11 8 9 12 15 11 8 14 13 12 5 14 12 12 10 9 26 9 17 17 15 13 11 19 16 14 14 14 11 7 5 10 17 9 17 14 8 14 20 14 17 19 13 12 25 8 8 14 11 7 15 10 12 18 11 21 19 13 10 15 14 13 13 7 8 10 18 16 8 11 7 10 11 14 13 17 8 8 15 14 13 7 10 14 9 7 16 13 17 9 13 9 20 10 11 9 13 12 16 11 16 17 14 10 13 12 17 12 12 12 19 13 10 12 13 11 9 17 11 15 18 15 12 9 9 14 17 12 15 12 8 11 18 10 14 9 12 10 14 20 15 8 9 14 10 15 12 12 15 14 14 13 13 12 18 14 14 10 10 9 12 12 12 13 10 12 19 13 16 14 16 13 11 13 19 13 19 6 7 15 10 14 11 9 12 9 5 11 20 11 15 14 14 11 6 13 12 14 12 10 13 11 16 9 8 16 15 12 11 13 12 10 9 10 10 16 9 5 12 13 6 10 8 11 13 11 11 13 5 9 11 13 17 13 9 9 13 12 7 14 10 13 17 23 15 13 12 16 14 9 19 11 15 12 13 18 12 14 12 10 15 13 9 14 15 13 17 5 18 8 6 16 13 10 19 14 18 11 9 17 14 14 12 7 9 12 13 8 8 14 18 10 16 9 20 13 13 8 17 7 11 11 12 12 15 7 7 15 10 13 16 10 15 11 7 12 18 11 17 14 8 10 13 16 15 18 10 17 12 12 16 13 13 14 12 11 10 11 9 11 15 21 16 8 15 16 13 12 19 10 7 14 11 14 11 11 12 14 11 20 11 11 12 15 10 12 6 10 13 13 13 14 19 20 20 10 15 12 10 16 9 10 11 11 10 15 10 15 13 12 18 15 12 14 15 20 9 11 11 20 9 11 12 15 16 16 14 13 11 11 17 19 14 14 11 12 12 13 17 13 9 11 12 11 11 11 11 14 14 13 15 13 16 12 17 13 13 17 14 11 11 18 11 16 11 10 20 10 10 12 12 12 15 10 15 11 17 14 21 11 13 10 21 14 12 14 16 11 9 16 13 13 15 14 10 11 13 13 9 10 12 21 10 9 21 15 14 13 11 7 16 12 13 15 13 15 12 11 15 16 13 11 14 7 11 11 18 11 11 12 13 16 12 17 17 14 18 11 18 13 16 11 15 12 19 16 10 16 15 11 10 13 14 11 13 17 12 10 14 12 10 15 11 19 12 14 14 12 11 18 9 9 17 18 11 16 10 6 9 14 14 18 12 14 11 20 14 9 12 4 16 12 12 14 13 16 15 7 13 13 15 10 16 10 18 13 13 11 12 12 12 15 11 10 15 11 14 15 15 14 12 13 15 19 11 12 18 9 10 14 13 15 12 10 14 11 8 18 19 10 13 11 14 11 11 12 14 11 20 13 8 14 16 15 16 13 17 12 15 16 14 14 12 17 17 16 12 14 7 10 13 12 12 9 12 10 11 15 15 10 15 11 14 14 8 14 12 12 12 17 9 14 11 12 12 14 9 13 12 15 11 12 12 13 9 15 10 17 6 9 13 16 11 16 15 9 11 10 13 16 20 13 16 10 10 13 11 6 14 10 13 15 7 9 7 9 8 9 11 9 11 13 12 10 10 12 18 9 10 14 11 15 15 13 16 8 17 15 12 16 12 12 17 10 8 12 11 12 15 18 17 10 10 17 10 27 13 19 14 27 15 9 14 9 12 16 16 14 13 8 17 18 10 9 16 12 22 9 16 13 10 8 13 9 15 13 12 14 12 10 12 12 14 13 10 16 15 12 12 13 17 9 22 12 13 9 14 13 11 12 10 15 10 15 10 12 14 8 10 21 6 13 9 16 11 8 17 18 16 14 8 14 12 13 13 17 9 11 14 7 16 17 11 14 15 15 12 11 11 16 12 14 9 12 8 15 12 16 15 5 13 12 11 11 18 11 8 12 16 16 16 16 18 13 12 14 12 11 10 11 10 10 11 11 9 12 15 21 13 9 15 15 14 15 14 10 16 14 11 11 12 13 11 10 19 14 15 9 7 10 19 13 10 19 15 10 15 12 17 19 14 14 14 11 11 16 15 14 8 19 12 17 16 9 16 10 9 9 12 11 17 15 11 17 12 16 11 13 12 10 13 12 15 16 11 16 18 11 13 19 15 11 14 10 14 12 17 15 10 11 13 7 12 6 10 15 18 10 10 
BTB PER SET COUNT: 843 8 2948 27 3945 1967 375 1794 3430 1583 16 1841 3919 3035 5915 254 3772 2445 785 775 343 1040 1596 234 1686 1622 18 3206 1295 932 4670 1302 464 1157 228 1776 777 12 971 3044 3387 1719 1540 721 2481 57 28 15 1385 37 17 1406 152 722 2599 1122 839 1547 783 17 9 872 1882 2402 184 754 2069 4060 676 170 3208 4375 157 2682 2660 5 272 240 299 145 1624 3565 565 3911 644 5684 252 1867 48 2249 815 8 2635 469 1516 3576 24 754 1981 12355 173 5690 4974 2614 4709 1474 793 678 2370 4308 1443 262 5717 1891 1318 1003 3466 408 2916 1055 3888 3934 176 1441 1895 3817 2115 1998 490 4902 1982 4729 27 637 20 1242 1601 1716 39 168 11 354 680 3088 825 788 1371 711 317 2752 4171 5922 3789 230 1760 3577 413 1698 660 8477 596 4491 1129 1988 983 3215 1212 1747 4445 1802 19 389 1487 1449 785 914 1279 385 231 1320 2073 522 9777 639 1803 1383 4111 1737 1420 5076 167 2410 377 264 4282 7292 1981 3793 270 4519 2991 222 751 288 4268 463 835 388 25 709 2396 850 4294 748 2682 5015 3682 18 1801 860 3688 236 11 4246 644 432 2273 1887 4330 9211 193 65 1330 1168 23 4713 1088 4898 1491 8 2147 110 59 2232 481 2929 2788 2667 238 193 3072 2234 1931 5827 126 6406 2803 12 30 21 856 2155 838 117 1393 6 450 350 1224 2543 3481 993 883 2834 749 2682 1757 4924 1935 13 22 198 4114 194 3776 415 2899 5416 4686 1965 839 2987 1864 3191 73 1501 5098 3617 323 347 4377 1620 3521 173 72 1471 702 1068 131 2867 5379 3894 13 3678 1926 2912 1680 39 232 4104 2465 4793 1198 20 7979 334 2155 1563 519 877 1707 712 9 4480 1807 1797 12 3311 2756 1013 1563 1709 7873 405 8 995 3139 465 2782 398 334 3758 1968 11 3434 6286 96 3499 134 191 35 260 1012 785 5821 9 3812 3507 2176 4699 327 1815 407 2658 3509 2274 26 1401 2304 2886 2860 447 3296 1424 1443 50 3012 755 60 2547 1282 534 440 2099 644 3509 2265 4100 3997 974 196 68 1274 801 1337 2584 815 132 2054 820 244 8 1297 22 271 513 218 1688 3976 5687 14 999 274 276 514 3461 168 33 508 4663 2986 11 5983 2425 42 983 2362 18 31 485 1791 2647 938 587 2505 22 604 14 24 24 1631 53 735 1455 1705 2349 2734 1888 2096 5848 946 847 3357 7320 827 4366 13589 495 2229 1252 682 340 4767 254 308 1459 250 1091 956 2170 21 2820 4133 466 958 502 1785 33 4429 81 1513 2472 3209 155 2261 8110 1568 5330 18 935 1564 6043 4545 5035 2871 1370 1476 2862 3122 2561 825 3761 470 4849 5936 706 2097 2155 540 62 456 307 30 11 585 24 922 1654 13 449 576 156 4137 512 19 814 296 863 474 4872 3812 4998 3130 860 1906 2045 1039 1013 106 2537 2879 3479 5515 5904 187 463 514 4557 239 3690 2102 1103 1300 1306 17 3949 51 188 1539 479 2214 6117 1319 3027 3240 5360 271 2367 22 3068 3054 15 296 1158 1350 85 4741 395 1010 730 34 3295 1275 2305 2811 407 3295 3274 758 4277 4651 422 52 465 252 4960 1435 2659 3265 92 2751 347 1090 2141 83 1616 2775 1273 521 1768 3923 423 172 3320 4066 382 1828 1636 5949 5962 7908 756 27 2605 4054 453 4633 2424 184 582 88 2113 39 526 8061 66 3387 2893 1595 1703 2611 1990 1109 3265 1705 493 1691 3833 2795 4377 139 49 870 2408 23069 3789 21 2666 4677 27 2190 570 1688 732 2167 16 5335 7826 26 2177 347 1635 243 1473 2505 2755 573 84 1043 4440 3252 36 3632 453 1269 18 2109 513 10 303 1183 28 5716 1272 600 634 1663 2771 414 777 1173 927 406 1656 2965 650 778 795 1396 2525 531 707 5209 3069 1287 1971 849 1019 1685 11 103 4585 19 743 474 1553 3122 44 2251 5865 35 37 513 468 450 1106 824 1817 933 317 4429 249 45 3951 4063 41 283 121 11 7 282 600 1407 447 252 200 1448 3851 66 991 359 952 1185 207 39 19 1446 249 747 662 2399 2036 2118 278 5387 3067 3243 943 867 8 1633 2126 829 528 2636 3989 92 1048 626 247 995 2148 1232 1157 1843 245 1166 1006 511 858 324 765 2019 932 15 2711 5284 4428 14 3936 393 2392 231 2426 1474 1273 1497 206 571 246 500 1841 539 1511 997 3153 706 1833 1614 5100 1303 440 5243 17 830 3916 11 2157 403 443 1406 1737 8151 73 5223 66 525 559 1814 1833 3542 479 979 11 1697 600 1132 4886 6830 151 9 1658 3737 5408 2136 4399 1355 4565 3948 212 1316 2546 3123 2823 7 2158 3053 2444 1304 2333 7164 1100 519 145 366 533 1740 240 3975 30 3444 749 2506 836 5 35 3403 15 2562 3925 422 1392 70 4479 1699 3225 1706 1496 973 426 2866 1465 3312 2497 20 920 1867 16 3679 2114 49 4534 7082 1782 286 6090 6961 121 491 159 5004 7445 3122 23 3296 16 434 5331 318 2978 1924 2689 5134 764 2457 2089 849 204 1862 1393 421 185 976 907 2302 2485 40 35 496 4383 1307 849 793 806 4687 3387 48 649 15 1892 13 4507 1267 241 17 3134 1936 4126 2852 873 1110 1446 1888 479 502 1886 1096 1712 287 617 2641 2248 502 222 1550 4216 27 4753 48 5414 509 42 1910 492 15 1913 12 14 1491 1164 1150 2221 57 717 
To predecode: 1204651
Predecoding something: 759830
Predecode request dropped: 0
sizeofblock_0 0
sizeofblock_1 326787
sizeofblock_2 446077
sizeofblock_3 814382
sizeofblock_4 205377
sizeofblock_5 0
sizeofblock_6 0
sizeofblock_7 0
sizeofblock_8 0
Variant_0 Correct: 1610176 Incorrect: 0 Accuracy: 1
Variant_1 Correct: 2086530 Incorrect: 0 Accuracy: 1
Variant_2 Correct: 5062554 Incorrect: 0 Accuracy: 1
Variant_3 Correct: 0 Incorrect: 0 Accuracy: -nan
