
*** ChampSim Multicore Out-of-Order Simulator ***

Warmup Instructions: 50000000
Simulation Instructions: 50000000
Number of CPUs: 1
LLC sets: 2048
LLC ways: 16
Off-chip DRAM Size: 4096 MB Channels: 1 Width: 64-bit Data Rate: 6400 MT/s
CPU 0 runs ./micro_traces/srv170.trace.gz
.gz
ITLB has LRU replacement policy
DTLB has LRU replacement policy
STLB has LRU replacement policy
FDIP Prefetcher at L1I
L1I has LRU replacement policy
L1D has LRU replacement policy
Initialize SRRIP state for L2C
Initialize DRRIP state for LLC
Heartbeat CPU 0 instructions: 10000003 cycles: 2797184 heartbeat IPC: 3.57503 cumulative IPC: 3.57503 (Simulation time: 0 hr 1 min 51 sec) 
Heartbeat CPU 0 instructions: 20000003 cycles: 5594464 heartbeat IPC: 3.5749 cumulative IPC: 3.57496 (Simulation time: 0 hr 3 min 52 sec) 
Heartbeat CPU 0 instructions: 30000001 cycles: 8390775 heartbeat IPC: 3.57614 cumulative IPC: 3.57536 (Simulation time: 0 hr 6 min 3 sec) 
Heartbeat CPU 0 instructions: 40000002 cycles: 11187435 heartbeat IPC: 3.57569 cumulative IPC: 3.57544 (Simulation time: 0 hr 7 min 48 sec) 
Heartbeat CPU 0 instructions: 50000001 cycles: 13985012 heartbeat IPC: 3.57452 cumulative IPC: 3.57526 (Simulation time: 0 hr 9 min 37 sec) 

Warmup complete CPU 0 instructions: 50000001 cycles: 13985012 (Simulation time: 0 hr 9 min 37 sec) 

Cycle: 20000000 FTQ IN: 54501812 FTQ occupancy: 17.1293 DECODE IN: 54501793 DECODE occupancy: 43.9728 ROB IN: 54501793 ROB occupancy: 260.709 ROB OUT: 54501793
Heartbeat CPU 0 instructions: 60000001 cycles: 27348625 heartbeat IPC: 0.748301 cumulative IPC: 0.748301 (Simulation time: 0 hr 11 min 12 sec) 
Cycle: 30000000 FTQ IN: 7393127 FTQ occupancy: 3.62461 DECODE IN: 7393146 DECODE occupancy: 6.85969 ROB IN: 7393146 ROB occupancy: 57.4179 ROB OUT: 7393144
Cycle: 40000000 FTQ IN: 7504147 FTQ occupancy: 3.50464 DECODE IN: 7504138 DECODE occupancy: 6.57972 ROB IN: 7504138 ROB occupancy: 56.4941 ROB OUT: 7504131
Heartbeat CPU 0 instructions: 70000000 cycles: 40808344 heartbeat IPC: 0.742957 cumulative IPC: 0.745619 (Simulation time: 0 hr 12 min 38 sec) 
Cycle: 50000000 FTQ IN: 7528514 FTQ occupancy: 3.54783 DECODE IN: 7528454 DECODE occupancy: 6.72251 ROB IN: 7528438 ROB occupancy: 57.0837 ROB OUT: 7528402
Heartbeat CPU 0 instructions: 80000001 cycles: 54108255 heartbeat IPC: 0.751885 cumulative IPC: 0.747696 (Simulation time: 0 hr 14 min 19 sec) 
Cycle: 60000000 FTQ IN: 7392547 FTQ occupancy: 3.62373 DECODE IN: 7392599 DECODE occupancy: 6.86378 ROB IN: 7392615 ROB occupancy: 57.7085 ROB OUT: 7392635
Heartbeat CPU 0 instructions: 90000001 cycles: 67620894 heartbeat IPC: 0.740048 cumulative IPC: 0.745769 (Simulation time: 0 hr 15 min 55 sec) 
Cycle: 70000000 FTQ IN: 7472178 FTQ occupancy: 3.51107 DECODE IN: 7472179 DECODE occupancy: 6.62132 ROB IN: 7472179 ROB occupancy: 56.3013 ROB OUT: 7472194
Cycle: 80000000 FTQ IN: 7498775 FTQ occupancy: 3.50778 DECODE IN: 7498742 DECODE occupancy: 6.63189 ROB IN: 7498742 ROB occupancy: 56.4045 ROB OUT: 7498720
Heartbeat CPU 0 instructions: 100000000 cycles: 80952681 heartbeat IPC: 0.750087 cumulative IPC: 0.746629 (Simulation time: 0 hr 17 min 25 sec) 
Finished CPU 0 instructions: 50000003 cycles: 66967670 cumulative IPC: 0.746629 (Simulation time: 0 hr 17 min 25 sec) 

ChampSim completed all CPUs

Region of Interest Statistics

CPU 0 cumulative IPC: 0.746629 instructions: 50000003 cycles: 66967670
 Fetch stage stalled: 81.9833  Sim cycles: 66967670 fetch stall cycle: 54902315
 Empty decode stage: 69.6174  Sim cycles: 66967670 fetch stall cycle: 46621174
ITLB TOTAL     ACCESS:    5735286  HIT:    5243758  MISS:     491528  HIT %:    91.4298  MISS %:    8.57024   MPKI: 9.83056
ITLB LOAD TRANSLATION INSTRUCTION	ACCESS:    5654848  HIT:    5163320  MISS:     491528  HIT %:    91.3078  MISS %:    8.69215  MPKI: 9.83056
ITLB TRANSLATION FROM L1D PREFETCHER INSTRUCTION	ACCESS:      80438  HIT:      80438  MISS:          0  HIT %:        100  MISS %:          0  MPKI: 0

ITLB AVERAGE MISS LATENCY: 9.03305 cycles
ITLB RQ	ACCESS:    7207023	FORWARD:          0	MERGED:    1067888	TO_CACHE:    6139135

DTLB TOTAL     ACCESS:   10091834  HIT:    9617944  MISS:     473890  HIT %:    95.3042  MISS %:    4.69578   MPKI: 9.4778
DTLB LOAD TRANSLATION DATA	ACCESS:   10091834  HIT:    9617944  MISS:     473890  HIT %:    95.3042  MISS %:    4.69578  MPKI: 9.4778

DTLB AVERAGE MISS LATENCY: 9.27745 cycles
DTLB RQ	ACCESS:   14155394	FORWARD:          0	MERGED:    4034856	TO_CACHE:   10120538

STLB TOTAL     ACCESS:    1216059  HIT:    1214088  MISS:       1971  HIT %:    99.8379  MISS %:   0.162081   MPKI: 0.03942
STLB LOAD TRANSLATION INSTRUCTION	ACCESS:     491528  HIT:     491324  MISS:        204  HIT %:    99.9585  MISS %:  0.0415032  MPKI: 0.00408
STLB LOAD TRANSLATION DATA	ACCESS:     473833  HIT:     472091  MISS:       1742  HIT %:    99.6324  MISS %:    0.36764  MPKI: 0.03484
STLB TRANSLATION FROM L1D PREFETCHER DATA	ACCESS:     250698  HIT:     250673  MISS:         25  HIT %:      99.99  MISS %: 0.00997216  MPKI: 0.0005

STLB AVERAGE MISS LATENCY: 65.6494 cycles
STLB RQ	ACCESS:    1340341	FORWARD:          0	MERGED:     124244	TO_CACHE:    1216097

STLB Hit, L1D data hit: 0
STLB Hit, L2C data hit: 0
STLB Hit, LLC data hit: 0
STLB Hit, LLC data miss: 0
STLB STLB hints to L2: 0
L1D TOTAL     ACCESS:   13959226  HIT:   12852512  MISS:    1106714  HIT %:    92.0718  MISS %:    7.92819   MPKI: 22.1343
L1D LOAD DATA	ACCESS:    7324041  HIT:    6596548  MISS:     727493  HIT %:    90.0671  MISS %:    9.93295  MPKI: 14.5499
L1D RFO DATA	ACCESS:    6300199  HIT:    6014019  MISS:     286180  HIT %:    95.4576  MISS %:     4.5424  MPKI: 5.7236
L1D PREFETCH DATA	ACCESS:     334986  HIT:     241945  MISS:      93041  HIT %:    72.2254  MISS %:    27.7746  MPKI: 1.86082

L1D PREFETCH  REQUESTED:     750006  ISSUED:     750006  USEFUL:      32200  USELESS:      67786
L1D USEFUL LOAD PREFETCHES:      32200 PREFETCH ISSUED TO LOWER LEVEL:     100035  ACCURACY: 32.1887
 TIMELY PREFETCHES:      32200 LATE PREFETCHES: 6939 DROPPED PREFETCHES: 3
L1D AVERAGE MISS LATENCY: 296116 cycles
L1D RQ	ACCESS:   11274199	FORWARD:          0	MERGED:    3761791	TO_CACHE:    7349083
L1D WQ	ACCESS:    6936507	FORWARD:     163485	MERGED:     130196	TO_CACHE:    6806311
L1D PQ	ACCESS:     375083	FORWARD:          0	MERGED:          0	TO_CACHE:     374923

L1D UNIQUE REGIONS ACCESSED: 0
L1D REGIONS CONFLICTS: 0
L1D Cross Page Prefetch Requests: 6840
L1D Same Page Prefetch Requests: 752456
L1D ROI Sum of L1D PQ occupancy: 4750290
L1D PREFETCHES PUSHED FROM L2C: 0
L1I TOTAL     ACCESS:    7050582  HIT:    4299504  MISS:    2751078  HIT %:    60.9808  MISS %:    39.0192   MPKI: 55.0216
L1I LOAD INSTRUCTION	ACCESS:    6712434  HIT:    3961356  MISS:    2751078  HIT %:    59.0152  MISS %:    40.9848  MPKI: 55.0216
L1I PREFETCH INSTRUCTION	ACCESS:     338148  HIT:     338148  MISS:          0  HIT %:        100  MISS %:          0  MPKI: 0

L1I PREFETCH  REQUESTED:     592830  ISSUED:     592830  USEFUL:          0  USELESS:          0
L1I USEFUL LOAD PREFETCHES:          0 PREFETCH ISSUED TO LOWER LEVEL:          0  ACCURACY: -nan
 TIMELY PREFETCHES:          0 LATE PREFETCHES: 0 DROPPED PREFETCHES: 0
L1I AVERAGE MISS LATENCY: 17.1012 cycles
L1I RQ	ACCESS:    9462966	FORWARD:          0	MERGED:    2663604	TO_CACHE:    6799362
L1I PQ	ACCESS:     592830	FORWARD:          0	MERGED:     185169	TO_CACHE:     407661

L1BTB TOTAL     ACCESS:    5670012  HIT:    2054674  MISS:    3615338  HIT %:    36.2376  MISS %:    63.7624   MPKI: 72.3068
L1BTB BRANCH_DIRECT_JUMP	ACCESS:     548866  HIT:     145848  MISS:     403018	AVERAGE STALL: 27.9024
L1BTB BRANCH_INDIRECT	ACCESS:     183337  HIT:      66388  MISS:     116949	AVERAGE STALL: 66.5697
L1BTB BRANCH_CONDITIONAL	ACCESS:    2712066  HIT:    1423647  MISS:    1288419	AVERAGE STALL: 29.829
L1BTB BRANCH_DIRECT_CALL	ACCESS:     941341  HIT:     106112  MISS:     835229	AVERAGE STALL: 30.4277
L1BTB BRANCH_INDIRECT_CALL	ACCESS:     171528  HIT:      21632  MISS:     149896	AVERAGE STALL: 87.5966
L1BTB BRANCH_RETURN	ACCESS:    1112874  HIT:     291047  MISS:     821827	AVERAGE STALL: 29.7704
L1BTB BRANCH_OTHER ACCESS:          0  HIT:          0  MISS:          0	AVERAGE STALL: -nan
L1BTB TOTAL ROB OCCUPANCY AT BTB MISS: 20.1273

L2BTB TOTAL     ACCESS:    3589764  HIT:    2082728  MISS:    1507036  HIT %:    58.0185  MISS %:    41.9815   MPKI: 30.1407
L2BTB BRANCH_DIRECT_JUMP	ACCESS:     398768  HIT:     220576  MISS:     178192	AVERAGE STALL: 27.9024
L2BTB BRANCH_INDIRECT	ACCESS:     106670  HIT:      90236  MISS:      16434	AVERAGE STALL: 66.5697
L2BTB BRANCH_CONDITIONAL	ACCESS:    1288419  HIT:     752398  MISS:     536021	AVERAGE STALL: 29.829
L2BTB BRANCH_DIRECT_CALL	ACCESS:     835229  HIT:     432285  MISS:     402944	AVERAGE STALL: 30.4277
L2BTB BRANCH_INDIRECT_CALL	ACCESS:     140255  HIT:      75366  MISS:      64889	AVERAGE STALL: 87.5966
L2BTB BRANCH_RETURN	ACCESS:     820423  HIT:     511867  MISS:     308556	AVERAGE STALL: 29.7704
L2BTB BRANCH_OTHER ACCESS:          0  HIT:          0  MISS:          0	AVERAGE STALL: -nan
L2BTB TOTAL ROB OCCUPANCY AT BTB MISS: 48.2849

L2C TOTAL     ACCESS:    4465619  HIT:    3990266  MISS:     475353  HIT %:    89.3553  MISS %:    10.6447   MPKI: 9.50706
L2C LOAD INSTRUCTION	ACCESS:    2751078  HIT:    2495186  MISS:     255892  HIT %:    90.6985  MISS %:    9.30152  MPKI: 5.11784
L2C LOAD TRANSLATION INSTRUCTION	ACCESS:        225  HIT:         56  MISS:        169  HIT %:    24.8889  MISS %:    75.1111  MPKI: 0.00338
L2C LOAD DATA	ACCESS:     720513  HIT:     643701  MISS:      76812  HIT %:    89.3393  MISS %:    10.6607  MPKI: 1.53624
L2C RFO DATA	ACCESS:     286122  HIT:     235671  MISS:      50451  HIT %:    82.3673  MISS %:    17.6327  MPKI: 1.00902
L2C PREFETCH DATA	ACCESS:     188042  HIT:     111846  MISS:      76196  HIT %:    59.4793  MISS %:    40.5207  MPKI: 1.52392
L2C WRITEBACK DATA	ACCESS:     517813  HIT:     503207  MISS:      14606  HIT %:    97.1793  MISS %:    2.82071  MPKI: 0.29212
L2C LOAD TRANSLATION DATA	ACCESS:       1789  HIT:        577  MISS:       1212  HIT %:    32.2527  MISS %:    67.7473  MPKI: 0.02424
L2C TRANSLATION FROM L1D PREFETCHER DATA	ACCESS:         37  HIT:         22  MISS:         15  HIT %:    59.4595  MISS %:    40.5405  MPKI: 0.0003

L2C PREFETCH  REQUESTED:      94946  ISSUED:      94946  USEFUL:       8532  USELESS:      68327
L2C USEFUL LOAD PREFETCHES:       8532 PREFETCH ISSUED TO LOWER LEVEL:      76856  ACCURACY: 11.1013
 TIMELY PREFETCHES:       8532 LATE PREFETCHES: 660 DROPPED PREFETCHES: 0
L2C AVERAGE MISS LATENCY: 38.0475 cycles
L2C RQ	ACCESS:    3759808	FORWARD:          0	MERGED:          0	TO_CACHE:    3759765
L2C WQ	ACCESS:     517813	FORWARD:         43	MERGED:          0	TO_CACHE:     517813
L2C PQ	ACCESS:     194981	FORWARD:          0	MERGED:       3485	TO_CACHE:     191496

L2C Dense regions hint from L2: 0
PSCL5 TOTAL     ACCESS:       3952  HIT:       1976  MISS:       1976  HIT %:         50  MISS %:         50   MPKI: 0.03952
PSCL5 LOAD TRANSLATION INSTRUCTION	ACCESS:       3878  HIT:       1939  MISS:       1939  HIT %:         50  MISS %:         50  MPKI: 0.03878
PSCL5 TRANSLATION FROM L1D PREFETCHER INSTRUCTION	ACCESS:         74  HIT:         37  MISS:         37  HIT %:         50  MISS %:         50  MPKI: 0.00074


PSCL4 TOTAL     ACCESS:       3811  HIT:       1903  MISS:       1908  HIT %:    49.9344  MISS %:    50.0656   MPKI: 0.03816
PSCL4 LOAD TRANSLATION INSTRUCTION	ACCESS:       1982  HIT:       1872  MISS:        110  HIT %:    94.4501  MISS %:    5.54995  MPKI: 0.0022
PSCL4 TRANSLATION FROM L1D PREFETCHER INSTRUCTION	ACCESS:         31  HIT:         31  MISS:          0  HIT %:        100  MISS %:          0  MPKI: 0
PSCL4 LOAD TRANSLATION DATA	ACCESS:       1767  HIT:          0  MISS:       1767  HIT %:          0  MISS %:        100  MPKI: 0.03534
PSCL4 TRANSLATION FROM L1D PREFETCHER DATA	ACCESS:         31  HIT:          0  MISS:         31  HIT %:          0  MISS %:        100  MPKI: 0.00062


PSCL3 TOTAL     ACCESS:       3865  HIT:       1930  MISS:       1935  HIT %:    49.9353  MISS %:    50.0647   MPKI: 0.0387
PSCL3 LOAD TRANSLATION INSTRUCTION	ACCESS:       2009  HIT:       1899  MISS:        110  HIT %:    94.5246  MISS %:    5.47536  MPKI: 0.0022
PSCL3 TRANSLATION FROM L1D PREFETCHER INSTRUCTION	ACCESS:         31  HIT:         31  MISS:          0  HIT %:        100  MISS %:          0  MPKI: 0
PSCL3 LOAD TRANSLATION DATA	ACCESS:       1794  HIT:          0  MISS:       1794  HIT %:          0  MISS %:        100  MPKI: 0.03588
PSCL3 TRANSLATION FROM L1D PREFETCHER DATA	ACCESS:         31  HIT:          0  MISS:         31  HIT %:          0  MISS %:        100  MPKI: 0.00062


PSCL2 TOTAL     ACCESS:       3886  HIT:       1910  MISS:       1976  HIT %:    49.1508  MISS %:    50.8492   MPKI: 0.03952
PSCL2 LOAD TRANSLATION INSTRUCTION	ACCESS:       2076  HIT:       1873  MISS:        203  HIT %:    90.2216  MISS %:    9.77842  MPKI: 0.00406
PSCL2 TRANSLATION FROM L1D PREFETCHER INSTRUCTION	ACCESS:         37  HIT:         37  MISS:          0  HIT %:        100  MISS %:          0  MPKI: 0
PSCL2 LOAD TRANSLATION DATA	ACCESS:       1736  HIT:          0  MISS:       1736  HIT %:          0  MISS %:        100  MPKI: 0.03472
PSCL2 TRANSLATION FROM L1D PREFETCHER DATA	ACCESS:         37  HIT:          0  MISS:         37  HIT %:          0  MISS %:        100  MPKI: 0.00074


LLC TOTAL     ACCESS:     533610  HIT:     506030  MISS:      27580  HIT %:    94.8314  MISS %:    5.16857   MPKI: 0.5516
LLC LOAD INSTRUCTION	ACCESS:     255892  HIT:     255290  MISS:        602  HIT %:    99.7647  MISS %:   0.235255  MPKI: 0.01204
LLC LOAD TRANSLATION INSTRUCTION	ACCESS:        169  HIT:        144  MISS:         25  HIT %:    85.2071  MISS %:    14.7929  MPKI: 0.0005
LLC LOAD DATA	ACCESS:      76162  HIT:      72834  MISS:       3328  HIT %:    95.6304  MISS %:    4.36963  MPKI: 0.06656
LLC RFO DATA	ACCESS:      50441  HIT:      36725  MISS:      13716  HIT %:    72.8078  MISS %:    27.1922  MPKI: 0.27432
LLC PREFETCH DATA	ACCESS:      76856  HIT:      67300  MISS:       9556  HIT %:    87.5664  MISS %:    12.4336  MPKI: 0.19112
LLC WRITEBACK DATA	ACCESS:      72863  HIT:      72561  MISS:        302  HIT %:    99.5855  MISS %:   0.414476  MPKI: 0.00604
LLC LOAD TRANSLATION DATA	ACCESS:       1212  HIT:       1163  MISS:         49  HIT %:    95.9571  MISS %:     4.0429  MPKI: 0.00098
LLC TRANSLATION FROM L1D PREFETCHER DATA	ACCESS:         15  HIT:         13  MISS:          2  HIT %:    86.6667  MISS %:    13.3333  MPKI: 4e-05

LLC AVERAGE MISS LATENCY: 153.515 cycles
LLC RQ	ACCESS:     383891	FORWARD:          0	MERGED:          0	TO_CACHE:     383891
LLC WQ	ACCESS:      72863	FORWARD:          0	MERGED:          0	TO_CACHE:      72863
LLC PQ	ACCESS:      76856	FORWARD:          0	MERGED:          0	TO_CACHE:      76856

LLC Dense regions hint to LLC: 0

RAW hits: 1356245
Loads Generated: 12630444
Loads sent to L1D: 11274199
Stores Generated: 6936504
Stores sent to L1D: 6936507
Major fault: 0 Minor fault: 2597
Allocated PAGES: 2597

stream: 
stream:times selected: 1185173
stream:pref_filled: 120433
stream:pref_useful: 23752
stream:pref_late: 6481
stream:misses: 7894
stream:misses_by_poll: 0

CS: 
CS:times selected: 176712
CS:pref_filled: 60031
CS:pref_useful: 36652
CS:pref_late: 6552
CS:misses: 15435
CS:misses_by_poll: 12

CPLX: 
CPLX:times selected: 1007391
CPLX:pref_filled: 20584
CPLX:pref_useful: 4714
CPLX:pref_late: 3057
CPLX:misses: 92235
CPLX:misses_by_poll: 3

NL_L1: 
NL:times selected: 20676
NL:pref_filled: 730
NL:pref_useful: 334
NL:pref_late: 268
NL:misses: 1543
NL:misses_by_poll: 0

total selections: 2389952
total_filled: 93041
total_useful: 32200
total_late: 17370
total_polluted: 15
total_misses_after_warmup: 752541
conflicts: 5890405

test: 116478

DRAM Statistics
 CHANNEL 0
 RQ ROW_BUFFER_HIT:      10216  ROW_BUFFER_MISS:      17048
 DBUS_CONGESTED:          5
 WQ ROW_BUFFER_HIT:       1202  ROW_BUFFER_MISS:      12053  FULL:          0

 AVG_CONGESTED_CYCLE: 3

CPU 0 Branch Prediction Accuracy: 99.8181% MPKI: 0.33268 Average ROB Occupancy at Mispredict: 91.9476
Branch types
NOT_BRANCH: 40857205 81.7144%
BRANCH_DIRECT_JUMP: 548866 1.09773%
BRANCH_INDIRECT: 183337 0.366674%
BRANCH_CONDITIONAL: 6184410 12.3688%
BRANCH_DIRECT_CALL: 941341 1.88268%
BRANCH_INDIRECT_CALL: 171528 0.343056%
BRANCH_RETURN: 1112874 2.22575%
BRANCH_OTHER: 0 0%

DRAM PAGES: 1048576
Allocated PAGES: 2597
Average_ROB_Occupancy: 57.6002
Average_Decode_Occupancy: 6.70725
Average_FTQ_Occupancy: 3.54824
Indirect max targets: 14 Average targets: 1.17572
Branch_type:  BRANCH_DIRECT_JUMP:  Count Percentage: 3.92248 5.30898 4.66872 8.47691 1.88066 5.97487 1.21376 68.5536 
Branch_type:  BRANCH_INDIRECT:  Count Percentage: 11.7669 3.44495 2.58064 9.67281 3.34463 4.01432 1.99869 63.1771 
Branch_type:  BRANCH_CONDITIONAL:  Count Percentage: 21.6459 5.40105 2.31278 5.12787 2.094 4.35452 0.733298 58.3306 
Branch_type:  BRANCH_DIRECT_CALL:  Count Percentage: 0.748945 1.28916 1.44278 4.18033 2.61831 2.36486 0.621 86.7346 
Branch_type:  BRANCH_INDIRECT_CALL:  Count Percentage: 9.51901 0.579355 2.9827 4.84019 1.25454 2.99348 0.996758 76.834 
Branch_type:  BRANCH_RETURN:  Count Percentage: 4.17795 3.77075 1.78272 6.29893 4.27951 4.62521 1.1738 73.8911 
Branch_type:  BRANCH_DIRECT_JUMP:  Total Count: 43007 58209 51189 92943 20620 65510 13308 751639 
Branch_type:  BRANCH_INDIRECT:  Total Count: 43048 12603 9441 35387 12236 14686 7312 231127 
Branch_type:  BRANCH_CONDITIONAL:  Total Count: 2674916 667440 285804 633682 258768 538114 90618 7208256 
Branch_type:  BRANCH_DIRECT_CALL:  Total Count: 14119 24303 27199 78807 49360 44582 11707 1635107 
Branch_type:  BRANCH_INDIRECT_CALL:  Total Count: 32680 1989 10240 16617 4307 10277 3422 263781 
Branch_type:  BRANCH_RETURN:  Total Count: 93141 84063 39743 140425 95405 103112 26168 1647289 
Number of unique branch instructions: 10597
Upper 32 bits: 
aaaa
ffff
ffff0000
Unique upper 32 bits: 3
Unique upper 36 bits: 3
Unique upper 40 bits: 5
Unique upper 44 bits: 32
Unique upper 48 bits: 158
Offset_3 4386
Offset_4 258
Offset_5 477
Offset_6 531
Offset_7 625
Offset_8 566
Offset_9 508
Offset_10 415
Offset_11 340
Offset_12 307
Offset_13 237
Offset_14 244
Offset_15 194
Offset_16 226
Offset_17 163
Offset_18 144
Offset_19 256
Offset_20 141
Offset_21 235
Offset_22 408
Offset_23 241
Offset_24 342
Offset_25 117
Offset_47 92
Offset_64 3
decode_dispatch_called: 21036109 31.4123
Dispatch_width: 0 10585810 50.3221 15.8073
Dispatch_width: 1 667903 3.17503 0.997351
Dispatch_width: 2 942841 4.48201 1.4079
Dispatch_width: 3 638721 3.03631 0.953775
Dispatch_width: 4 1593751 7.57626 2.37988
Dispatch_width: 5 487569 2.31777 0.728066
Dispatch_width: 6 6119514 29.0905 9.13801
Empty_decode_cycles: 45931561 68.5877
ROB_full_cycles: 1306683 1.95121
Starvation_cycles_per_kilo_instr: 595.415
Starvation_cycles_per_kilo_instr_3: 574.602
Starvation_cycles_per_kilo_instr_0: 552.107
Branch_type_1  (3,1)  (4,9)  (5,39)  (6,71)  (7,122)  (8,148)  (9,133)  (10,109)  (11,76)  (12,47)  (13,11)  (14,2)  (15,3)  (16,4)  (18,1)  (19,5)  (20,2)  (21,1)  (22,3)  (23,2)  (24,10)  (25,12) 
Branch_type_2  (3,1)  (4,1)  (5,1)  (8,4)  (9,4)  (10,1)  (12,1)  (13,1)  (14,1)  (16,3)  (17,2)  (20,2)  (21,2)  (23,5)  (24,1)  (47,41) 
Branch_type_3  (3,4384)  (4,248)  (5,433)  (6,444)  (7,474)  (8,348)  (9,278)  (10,167)  (11,129)  (12,54)  (13,10)  (64,3) 
Branch_type_4  (6,3)  (7,8)  (8,25)  (9,55)  (10,66)  (11,69)  (12,114)  (13,100)  (14,110)  (15,92)  (16,99)  (17,75)  (18,61)  (19,125)  (20,72)  (21,124)  (22,214)  (23,136)  (24,197)  (25,101) 
Branch_type_5  (8,3)  (9,1)  (10,4)  (11,5)  (12,3)  (13,14)  (14,16)  (15,11)  (16,22)  (17,11)  (18,23)  (19,14)  (20,11)  (21,13)  (22,43)  (23,26)  (24,38) 
Branch_type_6  (5,4)  (6,13)  (7,21)  (8,38)  (9,37)  (10,68)  (11,61)  (12,88)  (13,101)  (14,115)  (15,88)  (16,98)  (17,75)  (18,59)  (19,112)  (20,54)  (21,95)  (22,148)  (23,72)  (24,96)  (25,4)  (47,51) 
aaaaab1fc620: 2ac9e77e 2aca717c 2aca8eff 2acaf6bc 2acaf9aa 2acaf9f1 2acb1abc 2acb1b7f 2acd4e22 2acdb712 2acf5f9e 2ad0ef44 2ad3f15c 2ad414e6 2ad60e42 2ad8609c 2ad99830 2ada35cc 2ada4676 2ada6612 2adf183e 2adf30e5 2adf5602 2adf785c 2ae11572 2aeb2dcf 2aee101b 2aee1ae1 2b156a8c 2b156b61 2b156bea 2b167f35 2b177656 2b17feec 2b1a3e5a 
aaaaab1fc640: 2ac9ec07 2aca656e 2aca801d 2acaea11 2acaee73 2acb13ee 2acb1470 2acd462b 2ad0ef5d 2ad3f3fe 2ad86e9b 2ada1641 2ada4115 2ada6638 2adf30d4 2ae12e57 2aee1033 2b1693ab 2b16948c 2b169491 2b17d915 2b17fa85 2b17fccd 
aaaaab1fcb00: 2acf2d72 2acf3734 2acf604c 2acfa5b7 2ad397b5 2ad3b800 2ae8af7d 2ae8aff0 2ae9aaba 2aea9fc6 2aeaa358 2aee910b 2aee91cf 2aee928e 2aee92e4 2af6fe87 2af70dfe 2b16850c 2b16c4a2 2b1765f4 2b178094 2b17d925 2b17db06 2b17ec8f 
aaaaab1fcb10: 2acf2d95 2acf3758 2acf6052 2acfa5f4 2ad397c3 2ad3b81c 2ae8af88 2ae8affe 2ae9aacf 2aeaa017 2aeaa36d 2aee9114 2aee91d8 2aee934d 2aee9353 2af6fe8c 2af70e22 2b168526 2b16c542 2b176609 2b1780a3 2b17d95d 2b17db44 2b17ecac 
aaaaac68f310: 2ac9ec8c 2ac9fb44 2ac9fbd2 2aca59ab 2acac04c 2acaf6e0 2acaf6ec 2acaf6f9 2acaf700 2acaf708 2acf2d90 2ad3cfbd 2ad3cfc4 2ad3d000 2ad3f35f 2ad4955d 2ad49571 2ad4f3f2 2ad4f400 2ad5f240 2ad5f37c 2ad5f86a 2ad5f86f 2ad5f880 2ad5fc0d 2ad5fc14 2ad5fc21 2ad5fe1b 2ad873bb 2ad873e3 2ad8a6b2 2ad9086e 2ad93096 2ad9bbb2 2ada152c 2ada1554 2ada3332 2ada5522 2adf3130 2adf313c 2adf3a3f 2adf3bd9 2adf5788 2adf7a8d 2ae07f6b 2ae0857a 2ae0857e 2ae08630 2ae08634 2ae08637 2ae08642 2ae0866f 2ae086e4 2ae086ec 2ae08717 2ae0871b 2aee0170 2aee1d38 2aee75f4 2aee7662 2aee85ca 2aee85e4 2aee8eef 2af70b84 2af74e8f 2b17d843 
aaaaac690ef0: 2aca598b 2acb111b 2acb175f 2acb1772 2acbfaf4 2acbfb00 2acf374f 2acf6d43 2acfa5c8 2ad3baf1 2ad3d4ac 2ad3d4b8 2ad3f1cf 2ad486b2 2ad5a59b 2ad5fc64 2ad5fcf9 2ad6121c 2ad906e9 2ad907bf 2ad9bada 2ada16ce 2ada1ad5 2ada43df 2ada64c0 2ada72ee 2adeb71a 2adf3bcb 2adf7a38 2adf7c6a 2adf8872 2adf8880 2adf9959 2adf9abe 2ae07f78 2ae08503 2ae08754 2ae12e80 2aea3bea 2aecb509 2aee00b0 2aee2bdd 2aee5467 2aee5601 2aee8f20 2af703fd 2af7048b 2af74e74 
Unique trigger count: 
1 10091
2 549
3 90
4 31
5 15
6 9
7 7
8 2
9 3
10 2
11 1
12 1
13 2
14 2
16 2
19 2
23 1
24 2
35 1
48 1
66 1
BTB PER SET UNIQUE ADDR: 6 8 6 5 3 4 7 9 10 2 5 2 8 5 4 4 6 4 7 9 5 8 8 8 8 11 1 7 6 6 10 10 6 4 8 4 4 7 7 3 8 5 7 9 9 9 6 12 11 6 5 3 13 2 2 7 5 5 9 8 4 11 5 8 6 9 8 9 6 7 6 2 6 5 6 7 6 14 5 5 9 6 7 6 6 8 7 8 8 10 10 9 9 6 6 5 10 8 5 6 8 7 9 9 6 8 7 8 7 5 7 7 4 8 6 11 3 7 6 2 8 9 4 3 6 4 4 7 11 6 11 3 11 5 9 6 5 3 6 8 8 8 7 6 5 11 5 8 12 8 7 14 6 10 6 9 7 9 6 11 11 8 11 5 11 7 3 4 13 7 6 4 8 7 4 3 6 7 10 5 6 7 10 8 9 11 6 6 6 8 5 8 6 7 6 10 11 4 11 5 4 6 9 4 8 4 5 8 7 2 3 6 9 9 7 6 4 9 8 6 6 4 6 7 6 8 14 7 3 11 14 9 4 5 7 9 11 5 4 5 5 3 10 8 16 11 2 7 6 7 8 10 6 7 5 13 4 7 10 6 8 5 7 4 9 15 6 5 7 5 7 7 4 8 10 8 6 3 4 8 8 5 10 5 9 9 7 7 8 4 5 7 4 10 7 4 6 10 6 6 6 6 5 4 6 5 6 4 13 9 7 4 8 4 6 5 10 14 7 6 7 10 5 8 5 6 6 10 3 3 9 2 6 7 10 5 7 7 8 1 5 6 2 10 7 7 3 7 11 6 5 12 10 6 8 6 7 2 8 5 7 10 6 8 11 8 4 4 4 4 8 4 6 5 8 4 11 7 6 10 9 7 6 12 6 4 8 5 8 4 9 5 8 4 6 3 5 5 2 9 7 5 7 6 5 5 8 5 4 3 5 3 11 7 2 6 9 4 2 7 2 6 7 7 10 9 4 2 4 8 3 4 15 5 8 10 6 6 7 3 5 6 10 3 7 9 6 6 5 3 6 3 4 3 9 3 5 6 9 6 5 4 6 11 5 5 11 3 6 6 2 6 10 7 4 3 10 5 3 3 5 2 3 4 3 7 8 3 7 2 12 4 4 8 1 11 4 7 4 4 11 3 4 3 2 5 5 3 4 6 7 4 8 11 3 4 2 10 6 9 7 5 8 6 11 9 6 10 9 8 7 6 6 8 5 7 7 1 6 4 5 8 10 4 9 5 10 12 14 11 7 8 7 7 2 6 9 3 7 4 10 5 9 5 5 6 10 8 11 7 8 3 11 12 7 7 6 12 3 10 13 5 2 6 5 3 3 14 7 5 8 8 4 7 5 5 9 5 6 5 12 5 11 11 7 5 4 9 7 5 8 8 7 5 8 5 7 5 5 7 9 6 11 3 5 10 8 8 4 6 8 7 7 7 7 7 6 7 6 4 11 8 4 6 3 3 7 7 8 7 7 4 10 3 5 2 10 5 6 8 12 3 6 11 7 8 7 6 6 12 7 8 6 8 11 9 8 6 8 6 8 12 9 6 8 8 7 8 8 6 3 8 2 5 5 7 10 7 7 9 3 11 4 5 7 12 3 4 5 5 7 7 6 5 5 7 11 6 1 8 5 3 5 4 4 3 3 9 2 11 8 10 8 2 7 7 10 3 6 4 5 8 5 10 4 5 6 4 6 7 6 3 4 7 2 5 5 10 9 4 5 6 6 7 7 6 14 6 6 3 9 6 0 5 7 5 6 10 3 3 8 6 4 6 10 9 9 7 3 9 3 9 5 7 6 13 12 5 5 4 12 4 8 4 7 6 7 9 4 6 3 4 6 5 5 6 1 5 4 10 7 4 9 4 5 5 6 3 6 6 7 3 7 4 10 5 4 5 6 5 5 5 7 6 5 8 9 6 6 5 8 8 6 9 6 11 7 5 7 6 7 7 4 4 14 7 6 8 10 9 4 6 6 10 7 2 2 6 7 4 5 7 6 7 10 5 7 5 5 7 9 3 5 8 6 3 9 12 5 4 12 9 4 6 9 7 7 10 6 9 9 7 5 4 3 9 5 6 8 6 9 7 10 6 9 9 7 5 5 12 6 4 11 10 6 8 10 11 3 9 8 9 6 4 6 8 9 7 9 6 10 4 13 7 4 6 9 13 6 9 6 6 10 5 3 9 10 9 10 5 3 5 3 9 12 5 8 5 4 7 13 6 4 5 5 7 4 5 9 7 8 7 7 11 4 11 6 11 5 6 5 5 5 4 7 6 7 6 6 7 9 4 9 6 11 4 9 5 3 8 11 6 14 5 
BTB PER SET COUNT: 10 6787 6765 6 3 4 2746 6774 8275 8 1501 2 3486 1492 4 6 2007 4 2109 6420 9 3027 1031 3482 7738 9739 1 805 3059 29 9746 6912 5286 4 3429 7 2930 2506 1070 3 2498 763 49 3739 10665 785 2478 7783 9019 3131 569 3 14152 2 2 3481 1021 7275 6284 5382 4 8851 10 3482 27 7250 2116 1999 1503 2783 3339 2 34 8 1373 2985 743 9147 1015 9 3130 5289 2740 2736 2003 4091 2005 3004 9259 4881 7614 3864 3982 4307 2010 7 6828 2988 6 1013 2518 1139 3482 5420 50 6285 1971 3915 3483 1506 2490 13 4 4956 16 10582 3 2007 1586 2 3485 5745 4 3 3130 5 4 5359 10242 1967 5002 4 10267 7 8706 1986 1474 3 32 8209 6392 7869 1503 4780 5 4137 7 6784 7646 2461 1134 10506 2985 11672 145 5744 7759 8275 2184 8366 11725 2377 9810 2376 7779 3927 3 5 13613 1966 8 4 1164 161 5 3 25 2012 6320 8 91 1480 9732 357 1505 10174 3790 18 6283 6713 33 6829 1482 2985 2981 2893 9759 4 1985 8 4 689 6345 6 5327 4 1473 4365 776 2 3 3329 2380 6276 5169 5260 4 4167 1265 7260 471 4 1911 6766 6291 6348 12319 5451 3 11206 11633 6778 4 6 30 7739 3978 6 4 9 7 3 10718 2433 13679 6941 2 3818 1012 14 8768 9306 6731 2004 16 7774 4 3101 3996 1501 3843 1014 2928 5 5656 12942 1476 9 2495 2485 3007 2485 5 7256 3983 3006 1959 3 5 3486 3116 9 3040 971 9261 8757 2984 3594 2035 5 1992 3475 501 7762 2987 10 77 7799 2490 4335 2975 1969 9 12 2253 8 1033 4 7527 5110 1272 4 3217 4 1270 6 3986 9248 2987 9 3351 5013 1026 7271 48 2454 25 3533 5 3 4841 2 1202 2222 10106 7 3973 2485 2496 1 16 1024 3 4240 1157 1086 4 1018 3334 9 6 7292 6354 4173 3004 24 9227 2 6306 2026 2481 4571 30 3250 3833 6801 5 5 5 4 3019 4 2219 783 2712 4 8115 40 1475 4227 3485 3464 2978 10764 28 4 2016 1022 775 4 4476 18 3973 6 5267 5 3260 3777 2 1979 2849 10 2812 1474 813 21 4672 9 4 2299 6 3 4447 10 967 1006 1801 4 2 1849 2 989 739 2035 5789 1032 8 2 4 2488 140 4 8798 1890 6498 9273 1514 5750 2986 5 8 1014 3165 4 1973 3245 8 3447 22 3 2943 3 5 3 9256 3 7 1566 7265 21 992 4 2235 7277 1011 24 7955 3 29 1485 2 1229 7283 856 120 3 26169 1023 4 3 29 3 3 500 3 2568 2729 394 1895 2 6550 4 5 6715 1 10361 10 2496 4 4 11566 21 5 3 2 1499 17 3 4 49 2576 4 238 6842 5 4 2 12114 26 3018 2461 1468 2489 458 4632 6800 10 5833 7744 5901 12 2654 10 546 10 3001 10 1 1032 4 10 6326 6814 8 5063 19 2163 4752 10713 10781 1478 7716 1531 6777 2 1981 4695 4 2483 4 10150 8 6273 8 3319 1005 6314 2665 7751 2993 7200 4 8278 11160 5260 2983 4608 9692 3 7010 11839 343 2 2979 1468 3 3 10745 3005 19 4596 3493 4 1953 972 1989 48 1991 10 9 6655 2484 9200 4356 5812 2998 4 8114 7738 1512 3978 1664 2488 3342 7748 7 4526 1990 26 5287 2843 2274 7805 3 1481 4476 2472 6284 11 2488 6303 10187 1997 38 8214 12 1021 11 1006 4 10717 4119 4 30 3 4 1486 2488 8269 23 5813 4 12635 3 984 6 9688 1498 8275 3980 16175 4 1997 11901 6305 4001 5422 1055 26 4486 4468 7742 2468 2978 10244 4168 3004 2487 7336 2489 8218 10626 2618 6799 20988 3730 2497 6777 3004 2497 4 3052 2 10 7 2481 8316 2481 1510 1552 3 9785 4 2485 5478 7359 3 1467 1964 2472 5784 2495 3880 985 2975 3351 9282 3630 1 7295 9 6 4353 4 4 3 3 8192 2 10223 6780 9635 8741 2 1998 4873 4235 3 1966 4 15 5777 21 12620 4 6 2504 4 1478 3478 7284 3 4 532 2 1498 8 9675 10148 969 8 7289 5815 2254 3840 2241 12638 733 2505 3 3057 789 0 2054 71 1473 4805 4448 3 3 4875 15 5 5789 5720 7246 3464 111 454 3971 3 4343 8 2008 2679 10435 7903 8 1983 4 9627 6 7378 6 3019 3810 4829 9167 5 25 3 5 1332 496 8 28 2 50 5 7278 858 5 5892 400 1475 6 1730 3 2482 2480 4139 3 7233 4 10631 2189 16 9 2987 9 2250 9 1968 5762 6 3230 6415 1480 1458 9 8773 3306 2973 5348 2483 12148 2984 8 6775 3776 1849 7321 4 5 10667 991 797 9760 10224 8186 4 5745 2983 6713 5298 2 4 1504 54 4 8 8202 76 3618 6793 1120 3476 9 10 3528 6871 3 6 2907 1636 3 3537 7022 6 4 5556 4587 158 53 2622 2390 25 5546 184 3894 3456 1523 8 4 3 3477 7 990 7760 2906 6610 2022 8261 4794 6415 3307 2487 6 1964 4072 24 503 8021 5584 1504 3972 7429 8771 4 3490 3267 3964 9 969 1393 3489 2507 2470 5223 9 6329 4 10275 3989 4 1710 8053 11265 3333 5201 1959 2009 9783 4796 5 3626 5154 2865 3490 7 3 1499 3 8139 5957 1649 7278 19 5 2502 9740 34 502 517 1963 2492 4 6 3324 2489 6282 2004 3475 9196 5 3510 2472 5945 10 1510 8 9 1324 5 2004 38 5811 14 1994 13 7793 4 10225 1796 6201 6 2869 10 3 36 4933 2242 6593 23 
