
*** ChampSim Multicore Out-of-Order Simulator ***

Warmup Instructions: 50000000
Simulation Instructions: 50000000
Number of CPUs: 1
LLC sets: 2048
LLC ways: 16
Off-chip DRAM Size: 4096 MB Channels: 1 Width: 64-bit Data Rate: 6400 MT/s
CPU 0 runs ./micro_traces/srv193.trace.gz
.gz
ITLB has LRU replacement policy
DTLB has LRU replacement policy
STLB has LRU replacement policy
FDIP Prefetcher at L1I
L1I has LRU replacement policy
L1D has LRU replacement policy
Initialize SRRIP state for L2C
Initialize DRRIP state for LLC
Heartbeat_Variant_0 : 1061 0.259033 per_variant_size: 0 1061 0 0 0 0 0 0 0 
Heartbeat_Variant_1 : 1204 0.293945 per_variant_size: 0 836 368 0 0 0 0 0 0 
Heartbeat_Variant_2 : 1557 0.380127 per_variant_size: 0 944 411 146 56 0 0 0 0 
Heartbeat_Variant_3 : 0 0 per_variant_size: 0 0 0 0 0 0 0 0 0 
Heartbeat_Variant_0_evicts 0 : 13831 1 : 9706 2 : 12261 3 : 0 
Heartbeat_Variant_1_evicts 0 : 9676 1 : 0 2 : 11517 3 : 0 
Heartbeat_Variant_2_evicts 0 : 12217 1 : 11521 2 : 0 3 : 0 
Heartbeat_Variant_3_evicts 0 : 0 1 : 0 2 : 0 3 : 0 
Heartbeat CPU 0 instructions: 10000002 cycles: 2795073 heartbeat IPC: 3.57772 cumulative IPC: 3.57772 (Simulation time: 0 hr 3 min 58 sec) 
Heartbeat_Variant_0 : 1046 0.255371 per_variant_size: 0 1046 0 0 0 0 0 0 0 
Heartbeat_Variant_1 : 1208 0.294922 per_variant_size: 0 844 364 0 0 0 0 0 0 
Heartbeat_Variant_2 : 1574 0.384277 per_variant_size: 0 933 445 143 53 0 0 0 0 
Heartbeat_Variant_3 : 0 0 per_variant_size: 0 0 0 0 0 0 0 0 0 
Heartbeat_Variant_0_evicts 0 : 13177 1 : 9570 2 : 11847 3 : 0 
Heartbeat_Variant_1_evicts 0 : 9659 1 : 0 2 : 10918 3 : 0 
Heartbeat_Variant_2_evicts 0 : 11773 1 : 11006 2 : 0 3 : 0 
Heartbeat_Variant_3_evicts 0 : 0 1 : 0 2 : 0 3 : 0 
Heartbeat CPU 0 instructions: 20000001 cycles: 5590093 heartbeat IPC: 3.57779 cumulative IPC: 3.57776 (Simulation time: 0 hr 6 min 25 sec) 
Heartbeat_Variant_0 : 1058 0.258301 per_variant_size: 0 1058 0 0 0 0 0 0 0 
Heartbeat_Variant_1 : 1256 0.306641 per_variant_size: 0 859 397 0 0 0 0 0 0 
Heartbeat_Variant_2 : 1551 0.378662 per_variant_size: 0 897 440 153 61 0 0 0 0 
Heartbeat_Variant_3 : 0 0 per_variant_size: 0 0 0 0 0 0 0 0 0 
Heartbeat_Variant_0_evicts 0 : 13314 1 : 9499 2 : 11420 3 : 0 
Heartbeat_Variant_1_evicts 0 : 9508 1 : 0 2 : 11075 3 : 0 
Heartbeat_Variant_2_evicts 0 : 11404 1 : 11051 2 : 0 3 : 0 
Heartbeat_Variant_3_evicts 0 : 0 1 : 0 2 : 0 3 : 0 
Heartbeat CPU 0 instructions: 30000001 cycles: 8384859 heartbeat IPC: 3.57812 cumulative IPC: 3.57788 (Simulation time: 0 hr 8 min 17 sec) 
Heartbeat_Variant_0 : 1075 0.262451 per_variant_size: 0 1075 0 0 0 0 0 0 0 
Heartbeat_Variant_1 : 1228 0.299805 per_variant_size: 0 838 390 0 0 0 0 0 0 
Heartbeat_Variant_2 : 1575 0.384521 per_variant_size: 0 909 444 162 60 0 0 0 0 
Heartbeat_Variant_3 : 0 0 per_variant_size: 0 0 0 0 0 0 0 0 0 
Heartbeat_Variant_0_evicts 0 : 14116 1 : 10077 2 : 12190 3 : 0 
Heartbeat_Variant_1_evicts 0 : 10007 1 : 0 2 : 11851 3 : 0 
Heartbeat_Variant_2_evicts 0 : 12249 1 : 11812 2 : 0 3 : 0 
Heartbeat_Variant_3_evicts 0 : 0 1 : 0 2 : 0 3 : 0 
Heartbeat CPU 0 instructions: 40000001 cycles: 11179120 heartbeat IPC: 3.57876 cumulative IPC: 3.5781 (Simulation time: 0 hr 10 min 19 sec) 
Heartbeat_Variant_0 : 1057 0.258057 per_variant_size: 0 1057 0 0 0 0 0 0 0 
Heartbeat_Variant_1 : 1246 0.304199 per_variant_size: 0 850 396 0 0 0 0 0 0 
Heartbeat_Variant_2 : 1577 0.38501 per_variant_size: 0 930 430 149 68 0 0 0 0 
Heartbeat_Variant_3 : 0 0 per_variant_size: 0 0 0 0 0 0 0 0 0 
Heartbeat_Variant_0_evicts 0 : 13518 1 : 9733 2 : 11639 3 : 0 
Heartbeat_Variant_1_evicts 0 : 9747 1 : 0 2 : 11186 3 : 0 
Heartbeat_Variant_2_evicts 0 : 11643 1 : 11182 2 : 0 3 : 0 
Heartbeat_Variant_3_evicts 0 : 0 1 : 0 2 : 0 3 : 0 
Heartbeat CPU 0 instructions: 50000002 cycles: 13975073 heartbeat IPC: 3.5766 cumulative IPC: 3.5778 (Simulation time: 0 hr 12 min 10 sec) 

Warmup complete CPU 0 instructions: 50000002 cycles: 13975073 (Simulation time: 0 hr 12 min 10 sec) 

Cycle: 20000000 FTQ IN: 56646142 FTQ occupancy: 17.9686 DECODE IN: 56646142 DECODE occupancy: 45.9815 ROB IN: 56646130 ROB occupancy: 278.572 ROB OUT: 56646079
*** Reached end of trace for Core: 0 Repeating trace: ./micro_traces/srv193.trace.gz
Heartbeat_Variant_0 : 1069 0.260986 per_variant_size: 0 1069 0 0 0 0 0 0 0 
Heartbeat_Variant_1 : 1212 0.295898 per_variant_size: 0 804 408 0 0 0 0 0 0 
Heartbeat_Variant_2 : 1616 0.394531 per_variant_size: 0 939 446 162 69 0 0 0 0 
Heartbeat_Variant_3 : 0 0 per_variant_size: 0 0 0 0 0 0 0 0 0 
Heartbeat_Variant_0_evicts 0 : 13397 1 : 9653 2 : 11769 3 : 0 
Heartbeat_Variant_1_evicts 0 : 9613 1 : 0 2 : 10978 3 : 0 
Heartbeat_Variant_2_evicts 0 : 11801 1 : 10979 2 : 0 3 : 0 
Heartbeat_Variant_3_evicts 0 : 0 1 : 0 2 : 0 3 : 0 
Heartbeat CPU 0 instructions: 60000001 cycles: 23174512 heartbeat IPC: 1.08702 cumulative IPC: 1.08702 (Simulation time: 0 hr 14 min 0 sec) 
Cycle: 30000000 FTQ IN: 10861010 FTQ occupancy: 6.45363 DECODE IN: 10860982 DECODE occupancy: 13.6355 ROB IN: 10860994 ROB occupancy: 115.93 ROB OUT: 10861022
Heartbeat_Variant_0 : 1086 0.265137 per_variant_size: 0 1086 0 0 0 0 0 0 0 
Heartbeat_Variant_1 : 1244 0.303711 per_variant_size: 0 844 400 0 0 0 0 0 0 
Heartbeat_Variant_2 : 1568 0.382812 per_variant_size: 0 886 455 158 69 0 0 0 0 
Heartbeat_Variant_3 : 0 0 per_variant_size: 0 0 0 0 0 0 0 0 0 
Heartbeat_Variant_0_evicts 0 : 14028 1 : 9858 2 : 11835 3 : 0 
Heartbeat_Variant_1_evicts 0 : 9893 1 : 0 2 : 11259 3 : 0 
Heartbeat_Variant_2_evicts 0 : 11783 1 : 11262 2 : 0 3 : 0 
Heartbeat_Variant_3_evicts 0 : 0 1 : 0 2 : 0 3 : 0 
Heartbeat CPU 0 instructions: 70000001 cycles: 32254379 heartbeat IPC: 1.10134 cumulative IPC: 1.09413 (Simulation time: 0 hr 15 min 44 sec) 
Cycle: 40000000 FTQ IN: 11116056 FTQ occupancy: 6.30706 DECODE IN: 11116068 DECODE occupancy: 13.3785 ROB IN: 11116068 ROB occupancy: 115.974 ROB OUT: 11116000
Heartbeat_Variant_0 : 1065 0.26001 per_variant_size: 0 1065 0 0 0 0 0 0 0 
Heartbeat_Variant_1 : 1251 0.30542 per_variant_size: 0 872 379 0 0 0 0 0 0 
Heartbeat_Variant_2 : 1582 0.38623 per_variant_size: 0 906 444 158 74 0 0 0 0 
Heartbeat_Variant_3 : 0 0 per_variant_size: 0 0 0 0 0 0 0 0 0 
Heartbeat_Variant_0_evicts 0 : 13236 1 : 9426 2 : 11330 3 : 0 
Heartbeat_Variant_1_evicts 0 : 9329 1 : 0 2 : 10974 3 : 0 
Heartbeat_Variant_2_evicts 0 : 11448 1 : 10870 2 : 0 3 : 0 
Heartbeat_Variant_3_evicts 0 : 0 1 : 0 2 : 0 3 : 0 
Heartbeat CPU 0 instructions: 80000001 cycles: 41221324 heartbeat IPC: 1.11521 cumulative IPC: 1.10107 (Simulation time: 0 hr 17 min 28 sec) 
Cycle: 50000000 FTQ IN: 10905559 FTQ occupancy: 6.37258 DECODE IN: 10905575 DECODE occupancy: 13.4552 ROB IN: 10905575 ROB occupancy: 116.059 ROB OUT: 10905664
Heartbeat_Variant_0 : 1079 0.263428 per_variant_size: 0 1079 0 0 0 0 0 0 0 
Heartbeat_Variant_1 : 1257 0.306885 per_variant_size: 0 851 406 0 0 0 0 0 0 
Heartbeat_Variant_2 : 1563 0.381592 per_variant_size: 0 899 431 159 74 0 0 0 0 
Heartbeat_Variant_3 : 0 0 per_variant_size: 0 0 0 0 0 0 0 0 0 
Heartbeat_Variant_0_evicts 0 : 13759 1 : 9807 2 : 11767 3 : 0 
Heartbeat_Variant_1_evicts 0 : 9742 1 : 0 2 : 11493 3 : 0 
Heartbeat_Variant_2_evicts 0 : 11818 1 : 11423 2 : 0 3 : 0 
Heartbeat_Variant_3_evicts 0 : 0 1 : 0 2 : 0 3 : 0 
Heartbeat CPU 0 instructions: 90000002 cycles: 50433359 heartbeat IPC: 1.08554 cumulative IPC: 1.09714 (Simulation time: 0 hr 19 min 16 sec) 
Heartbeat_Variant_0 : 1064 0.259766 per_variant_size: 0 1064 0 0 0 0 0 0 0 
Heartbeat_Variant_1 : 1252 0.305664 per_variant_size: 0 831 421 0 0 0 0 0 0 
Heartbeat_Variant_2 : 1587 0.387451 per_variant_size: 0 906 452 159 70 0 0 0 0 
Heartbeat_Variant_3 : 0 0 per_variant_size: 0 0 0 0 0 0 0 0 0 
Heartbeat_Variant_0_evicts 0 : 14022 1 : 10015 2 : 11946 3 : 0 
Heartbeat_Variant_1_evicts 0 : 9994 1 : 0 2 : 11403 3 : 0 
Heartbeat_Variant_2_evicts 0 : 11982 1 : 11391 2 : 0 3 : 0 
Heartbeat_Variant_3_evicts 0 : 0 1 : 0 2 : 0 3 : 0 
Heartbeat CPU 0 instructions: 100000001 cycles: 59523038 heartbeat IPC: 1.10015 cumulative IPC: 1.09774 (Simulation time: 0 hr 20 min 55 sec) 
Finished CPU 0 instructions: 50000003 cycles: 45547966 cumulative IPC: 1.09774 (Simulation time: 0 hr 20 min 55 sec) 

ChampSim completed all CPUs

Region of Interest Statistics

CPU 0 cumulative IPC: 1.09774 instructions: 50000003 cycles: 45547966
 Fetch stage stalled: 72.0989  Sim cycles: 45547966 fetch stall cycle: 32839601
 Empty decode stage: 63.7488  Sim cycles: 45547966 fetch stall cycle: 29036304
ITLB TOTAL     ACCESS:    5716785  HIT:    5225767  MISS:     491018  HIT %:    91.4109  MISS %:    8.58906   MPKI: 9.82036
ITLB LOAD TRANSLATION INSTRUCTION	ACCESS:    5610769  HIT:    5119751  MISS:     491018  HIT %:    91.2487  MISS %:    8.75135  MPKI: 9.82036
ITLB TRANSLATION FROM L1D PREFETCHER INSTRUCTION	ACCESS:     106016  HIT:     106016  MISS:          0  HIT %:        100  MISS %:          0  MPKI: 0

ITLB AVERAGE MISS LATENCY: 9.06172 cycles
ITLB RQ	ACCESS:    7514979	FORWARD:          0	MERGED:    1360341	TO_CACHE:    6154638

DTLB TOTAL     ACCESS:    9336989  HIT:    8859429  MISS:     477560  HIT %:    94.8853  MISS %:    5.11471   MPKI: 9.5512
DTLB LOAD TRANSLATION DATA	ACCESS:    9336989  HIT:    8859429  MISS:     477560  HIT %:    94.8853  MISS %:    5.11471  MPKI: 9.5512

DTLB AVERAGE MISS LATENCY: 9.29243 cycles
DTLB RQ	ACCESS:   13608048	FORWARD:          0	MERGED:    4236663	TO_CACHE:    9371385

STLB TOTAL     ACCESS:    1224306  HIT:    1222056  MISS:       2250  HIT %:    99.8162  MISS %:   0.183778   MPKI: 0.045
STLB LOAD TRANSLATION INSTRUCTION	ACCESS:     491018  HIT:     490705  MISS:        313  HIT %:    99.9363  MISS %:  0.0637451  MPKI: 0.00626
STLB LOAD TRANSLATION DATA	ACCESS:     477318  HIT:     475421  MISS:       1897  HIT %:    99.6026  MISS %:   0.397429  MPKI: 0.03794
STLB TRANSLATION FROM L1D PREFETCHER DATA	ACCESS:     255970  HIT:     255930  MISS:         40  HIT %:    99.9844  MISS %:  0.0156268  MPKI: 0.0008

STLB AVERAGE MISS LATENCY: 65.4116 cycles
STLB RQ	ACCESS:    1371438	FORWARD:          0	MERGED:     147100	TO_CACHE:    1224338

STLB Hit, L1D data hit: 0
STLB Hit, L2C data hit: 0
STLB Hit, LLC data hit: 0
STLB Hit, LLC data miss: 0
STLB STLB hints to L2: 0
L1D TOTAL     ACCESS:   13382140  HIT:   12213471  MISS:    1168669  HIT %:    91.2669  MISS %:    8.73305   MPKI: 23.3734
L1D LOAD DATA	ACCESS:    6839755  HIT:    6070875  MISS:     768880  HIT %:    88.7587  MISS %:    11.2413  MPKI: 15.3776
L1D RFO DATA	ACCESS:    6205013  HIT:    5911109  MISS:     293904  HIT %:    95.2634  MISS %:    4.73656  MPKI: 5.87808
L1D PREFETCH DATA	ACCESS:     337372  HIT:     231487  MISS:     105885  HIT %:    68.6148  MISS %:    31.3852  MPKI: 2.1177

L1D PREFETCH  REQUESTED:     805965  ISSUED:     805965  USEFUL:      48873  USELESS:      70913
L1D USEFUL LOAD PREFETCHES:      48873 PREFETCH ISSUED TO LOWER LEVEL:     119845  ACCURACY: 40.7802
 TIMELY PREFETCHES:      48873 LATE PREFETCHES: 13888 DROPPED PREFETCHES: 4
L1D AVERAGE MISS LATENCY: 423901 cycles
L1D RQ	ACCESS:   10888236	FORWARD:          0	MERGED:    3856372	TO_CACHE:    6871096
L1D WQ	ACCESS:    6906510	FORWARD:     161013	MERGED:     169558	TO_CACHE:    6736952
L1D PQ	ACCESS:     403105	FORWARD:          0	MERGED:          0	TO_CACHE:     402860

L1D UNIQUE REGIONS ACCESSED: 0
L1D REGIONS CONFLICTS: 0
L1D Cross Page Prefetch Requests: 7973
L1D Same Page Prefetch Requests: 812440
L1D ROI Sum of L1D PQ occupancy: 5146955
L1D PREFETCHES PUSHED FROM L2C: 0
L1I TOTAL     ACCESS:    7001325  HIT:    4248450  MISS:    2752875  HIT %:    60.6807  MISS %:    39.3193   MPKI: 55.0575
L1I LOAD INSTRUCTION	ACCESS:    6513439  HIT:    3760564  MISS:    2752875  HIT %:    57.7355  MISS %:    42.2645  MPKI: 55.0575
L1I PREFETCH INSTRUCTION	ACCESS:     487886  HIT:     487886  MISS:          0  HIT %:        100  MISS %:          0  MPKI: 0

L1I PREFETCH  REQUESTED:    1080645  ISSUED:    1080645  USEFUL:          0  USELESS:          0
L1I USEFUL LOAD PREFETCHES:          0 PREFETCH ISSUED TO LOWER LEVEL:          0  ACCURACY: -nan
 TIMELY PREFETCHES:          0 LATE PREFETCHES: 0 DROPPED PREFETCHES: 0
L1I AVERAGE MISS LATENCY: 17.0344 cycles
L1I RQ	ACCESS:    9447659	FORWARD:          0	MERGED:    2698358	TO_CACHE:    6749301
L1I PQ	ACCESS:    1080645	FORWARD:          0	MERGED:     314967	TO_CACHE:     765678

L1BTB TOTAL     ACCESS:    5683878  HIT:    2073258  MISS:    3610620  HIT %:    36.4761  MISS %:    63.5239   MPKI: 72.2124
L1BTB BRANCH_DIRECT_JUMP	ACCESS:     543933  HIT:     143534  MISS:     400399	AVERAGE STALL: 35.2459
L1BTB BRANCH_INDIRECT	ACCESS:     181518  HIT:      65562  MISS:     115956	AVERAGE STALL: 82.8838
L1BTB BRANCH_CONDITIONAL	ACCESS:    2737322  HIT:    1450797  MISS:    1286525	AVERAGE STALL: 36.1837
L1BTB BRANCH_DIRECT_CALL	ACCESS:     940045  HIT:     103439  MISS:     836606	AVERAGE STALL: 36.7526
L1BTB BRANCH_INDIRECT_CALL	ACCESS:     170504  HIT:      20995  MISS:     149509	AVERAGE STALL: 109.517
L1BTB BRANCH_RETURN	ACCESS:    1110556  HIT:     288931  MISS:     821625	AVERAGE STALL: 36.5744
L1BTB BRANCH_OTHER ACCESS:          0  HIT:          0  MISS:          0	AVERAGE STALL: -nan
L1BTB TOTAL ROB OCCUPANCY AT BTB MISS: 12.7858

L2BTB TOTAL     ACCESS:    3585653  HIT:    3104162  MISS:     481491  HIT %:    86.5717  MISS %:    13.4283   MPKI: 9.62982
L2BTB BRANCH_DIRECT_JUMP	ACCESS:     396308  HIT:     347439  MISS:      48869	AVERAGE STALL: 35.2459
L2BTB BRANCH_INDIRECT	ACCESS:     105734  HIT:      97283  MISS:       8451	AVERAGE STALL: 82.8838
L2BTB BRANCH_CONDITIONAL	ACCESS:    1286525  HIT:    1148085  MISS:     138440	AVERAGE STALL: 36.1837
L2BTB BRANCH_DIRECT_CALL	ACCESS:     836606  HIT:     679971  MISS:     156635	AVERAGE STALL: 36.7526
L2BTB BRANCH_INDIRECT_CALL	ACCESS:     140077  HIT:     106794  MISS:      33283	AVERAGE STALL: 109.517
L2BTB BRANCH_RETURN	ACCESS:     820403  HIT:     724590  MISS:      95813	AVERAGE STALL: 36.5744
L2BTB BRANCH_OTHER ACCESS:          0  HIT:          0  MISS:          0	AVERAGE STALL: -nan
L2BTB TOTAL ROB OCCUPANCY AT BTB MISS: 95.8785

L2C TOTAL     ACCESS:    4550963  HIT:    4053619  MISS:     497344  HIT %:    89.0717  MISS %:    10.9283   MPKI: 9.94688
L2C LOAD INSTRUCTION	ACCESS:    2752876  HIT:    2507142  MISS:     245734  HIT %:    91.0736  MISS %:    8.92645  MPKI: 4.91468
L2C LOAD TRANSLATION INSTRUCTION	ACCESS:        370  HIT:        109  MISS:        261  HIT %:    29.4595  MISS %:    70.5405  MPKI: 0.00522
L2C LOAD DATA	ACCESS:     754966  HIT:     669090  MISS:      85876  HIT %:    88.6252  MISS %:    11.3748  MPKI: 1.71752
L2C RFO DATA	ACCESS:     293811  HIT:     228497  MISS:      65314  HIT %:    77.7701  MISS %:    22.2299  MPKI: 1.30628
L2C PREFETCH DATA	ACCESS:     214481  HIT:     133562  MISS:      80919  HIT %:    62.2722  MISS %:    37.7278  MPKI: 1.61838
L2C WRITEBACK DATA	ACCESS:     532353  HIT:     514648  MISS:      17705  HIT %:    96.6742  MISS %:     3.3258  MPKI: 0.3541
L2C LOAD TRANSLATION DATA	ACCESS:       2051  HIT:        525  MISS:       1526  HIT %:    25.5973  MISS %:    74.4027  MPKI: 0.03052
L2C TRANSLATION FROM L1D PREFETCHER DATA	ACCESS:         55  HIT:         46  MISS:          9  HIT %:    83.6364  MISS %:    16.3636  MPKI: 0.00018

L2C PREFETCH  REQUESTED:     102650  ISSUED:     102650  USEFUL:       9287  USELESS:      72177
L2C USEFUL LOAD PREFETCHES:       9287 PREFETCH ISSUED TO LOWER LEVEL:      81325  ACCURACY: 11.4196
 TIMELY PREFETCHES:       9287 LATE PREFETCHES: 406 DROPPED PREFETCHES: 0
L2C AVERAGE MISS LATENCY: 41.2385 cycles
L2C RQ	ACCESS:    3804178	FORWARD:          0	MERGED:          0	TO_CACHE:    3804131
L2C WQ	ACCESS:     532353	FORWARD:         47	MERGED:          0	TO_CACHE:     532353
L2C PQ	ACCESS:     222495	FORWARD:          0	MERGED:       3496	TO_CACHE:     218999

L2C Dense regions hint from L2: 0
PSCL5 TOTAL     ACCESS:       4510  HIT:       2255  MISS:       2255  HIT %:         50  MISS %:         50   MPKI: 0.0451
PSCL5 LOAD TRANSLATION INSTRUCTION	ACCESS:       4400  HIT:       2200  MISS:       2200  HIT %:         50  MISS %:         50  MPKI: 0.044
PSCL5 TRANSLATION FROM L1D PREFETCHER INSTRUCTION	ACCESS:        110  HIT:         55  MISS:         55  HIT %:         50  MISS %:         50  MPKI: 0.0011


PSCL4 TOTAL     ACCESS:       4292  HIT:       2141  MISS:       2151  HIT %:    49.8835  MISS %:    50.1165   MPKI: 0.04302
PSCL4 LOAD TRANSLATION INSTRUCTION	ACCESS:       3646  HIT:       2086  MISS:       1560  HIT %:    57.2134  MISS %:    42.7866  MPKI: 0.0312
PSCL4 TRANSLATION FROM L1D PREFETCHER INSTRUCTION	ACCESS:        107  HIT:         55  MISS:         52  HIT %:    51.4019  MISS %:    48.5981  MPKI: 0.00104
PSCL4 LOAD TRANSLATION DATA	ACCESS:        536  HIT:          0  MISS:        536  HIT %:          0  MISS %:        100  MPKI: 0.01072
PSCL4 TRANSLATION FROM L1D PREFETCHER DATA	ACCESS:          3  HIT:          0  MISS:          3  HIT %:          0  MISS %:        100  MPKI: 6e-05


PSCL3 TOTAL     ACCESS:       4303  HIT:       2139  MISS:       2164  HIT %:    49.7095  MISS %:    50.2905   MPKI: 0.04328
PSCL3 LOAD TRANSLATION INSTRUCTION	ACCESS:       2769  HIT:       2100  MISS:        669  HIT %:    75.8397  MISS %:    24.1603  MPKI: 0.01338
PSCL3 TRANSLATION FROM L1D PREFETCHER INSTRUCTION	ACCESS:         54  HIT:         39  MISS:         15  HIT %:    72.2222  MISS %:    27.7778  MPKI: 0.0003
PSCL3 LOAD TRANSLATION DATA	ACCESS:       1456  HIT:          0  MISS:       1456  HIT %:          0  MISS %:        100  MPKI: 0.02912
PSCL3 TRANSLATION FROM L1D PREFETCHER DATA	ACCESS:         24  HIT:          0  MISS:         24  HIT %:          0  MISS %:        100  MPKI: 0.00048


PSCL2 TOTAL     ACCESS:       4324  HIT:       2069  MISS:       2255  HIT %:    47.8492  MISS %:    52.1508   MPKI: 0.0451
PSCL2 LOAD TRANSLATION INSTRUCTION	ACCESS:       2328  HIT:       2014  MISS:        314  HIT %:     86.512  MISS %:     13.488  MPKI: 0.00628
PSCL2 TRANSLATION FROM L1D PREFETCHER INSTRUCTION	ACCESS:         55  HIT:         55  MISS:          0  HIT %:        100  MISS %:          0  MPKI: 0
PSCL2 LOAD TRANSLATION DATA	ACCESS:       1886  HIT:          0  MISS:       1886  HIT %:          0  MISS %:        100  MPKI: 0.03772
PSCL2 TRANSLATION FROM L1D PREFETCHER DATA	ACCESS:         55  HIT:          0  MISS:         55  HIT %:          0  MISS %:        100  MPKI: 0.0011


LLC TOTAL     ACCESS:     568749  HIT:     538909  MISS:      29840  HIT %:    94.7534  MISS %:     5.2466   MPKI: 0.5968
LLC LOAD INSTRUCTION	ACCESS:     245734  HIT:     244781  MISS:        953  HIT %:    99.6122  MISS %:   0.387818  MPKI: 0.01906
LLC LOAD TRANSLATION INSTRUCTION	ACCESS:        261  HIT:        219  MISS:         42  HIT %:     83.908  MISS %:     16.092  MPKI: 0.00084
LLC LOAD DATA	ACCESS:      85481  HIT:      82025  MISS:       3456  HIT %:     95.957  MISS %:      4.043  MPKI: 0.06912
LLC RFO DATA	ACCESS:      65293  HIT:      50691  MISS:      14602  HIT %:    77.6362  MISS %:    22.3638  MPKI: 0.29204
LLC PREFETCH DATA	ACCESS:      81324  HIT:      70836  MISS:      10488  HIT %:    87.1034  MISS %:    12.8966  MPKI: 0.20976
LLC WRITEBACK DATA	ACCESS:      89121  HIT:      88909  MISS:        212  HIT %:    99.7621  MISS %:   0.237879  MPKI: 0.00424
LLC LOAD TRANSLATION DATA	ACCESS:       1526  HIT:       1441  MISS:         85  HIT %:    94.4299  MISS %:    5.57012  MPKI: 0.0017
LLC TRANSLATION FROM L1D PREFETCHER DATA	ACCESS:          9  HIT:          7  MISS:          2  HIT %:    77.7778  MISS %:    22.2222  MPKI: 4e-05

LLC AVERAGE MISS LATENCY: 204.994 cycles
LLC RQ	ACCESS:     398314	FORWARD:          0	MERGED:          0	TO_CACHE:     398304
LLC WQ	ACCESS:      89121	FORWARD:         11	MERGED:          0	TO_CACHE:      89121
LLC PQ	ACCESS:      81325	FORWARD:          0	MERGED:          0	TO_CACHE:      81324

LLC Dense regions hint to LLC: 0

RAW hits: 1712799
Loads Generated: 12601036
Loads sent to L1D: 10888236
Stores Generated: 6906488
Stores sent to L1D: 6906510
Major fault: 0 Minor fault: 2387
Allocated PAGES: 2387

stream: 
stream:times selected: 1245502
stream:pref_filled: 128317
stream:pref_useful: 28853
stream:pref_late: 9623
stream:misses: 10734
stream:misses_by_poll: 0

CS: 
CS:times selected: 195348
CS:pref_filled: 74906
CS:pref_useful: 51726
CS:pref_late: 9827
CS:misses: 24022
CS:misses_by_poll: 2

CPLX: 
CPLX:times selected: 1049039
CPLX:pref_filled: 25718
CPLX:pref_useful: 7992
CPLX:pref_late: 4191
CPLX:misses: 132666
CPLX:misses_by_poll: 0

NL_L1: 
NL:times selected: 21727
NL:pref_filled: 1143
NL:pref_useful: 501
NL:pref_late: 787
NL:misses: 3252
NL:misses_by_poll: 0

total selections: 2511616
total_filled: 105885
total_useful: 48873
total_late: 26844
total_polluted: 2
total_misses_after_warmup: 800221
conflicts: 5626830

test: 117526

DRAM Statistics
 CHANNEL 0
 RQ ROW_BUFFER_HIT:      11099  ROW_BUFFER_MISS:      18522
 DBUS_CONGESTED:          8
 WQ ROW_BUFFER_HIT:       2215  ROW_BUFFER_MISS:      14008  FULL:          0

 AVG_CONGESTED_CYCLE: 5

CPU 0 Branch Prediction Accuracy: 99.8222% MPKI: 0.32582 Average ROB Occupancy at Mispredict: 133.258
Branch types
NOT_BRANCH: 40836459 81.6729%
BRANCH_DIRECT_JUMP: 543933 1.08787%
BRANCH_INDIRECT: 181518 0.363036%
BRANCH_CONDITIONAL: 6216741 12.4335%
BRANCH_DIRECT_CALL: 940045 1.88009%
BRANCH_INDIRECT_CALL: 170504 0.341008%
BRANCH_RETURN: 1110556 2.22111%
BRANCH_OTHER: 0 0%

DRAM PAGES: 1048576
Allocated PAGES: 2387
Average_ROB_Occupancy: 116.639
Average_Decode_Occupancy: 13.4138
Average_FTQ_Occupancy: 6.33911
Indirect max targets: 14 Average targets: 1.15563
Branch_type:  BRANCH_DIRECT_JUMP:  Count Percentage: 4.13897 5.12003 3.97698 8.46497 2.40668 6.32723 1.55263 68.0125 
Branch_type:  BRANCH_INDIRECT:  Count Percentage: 6.11547 3.5335 8.13044 9.6837 3.33862 2.80497 3.87916 62.5142 
Branch_type:  BRANCH_CONDITIONAL:  Count Percentage: 22.8198 2.76049 1.65328 7.56647 2.91522 3.56898 2.10112 56.6147 
Branch_type:  BRANCH_DIRECT_CALL:  Count Percentage: 0.391088 1.2553 0.737934 4.49538 2.99523 2.60553 3.03655 84.483 
Branch_type:  BRANCH_INDIRECT_CALL:  Count Percentage: 9.5482 0 3.00302 0.0041089 0.99993 1.71136 4.98497 79.7484 
Branch_type:  BRANCH_RETURN:  Count Percentage: 4.25869 4.66015 1.24136 4.75128 5.54163 3.53596 2.69881 73.3121 
Branch_type:  BRANCH_DIRECT_JUMP:  Total Count: 44969 55628 43209 91970 26148 68744 16869 738941 
Branch_type:  BRANCH_INDIRECT:  Total Count: 22186 12819 29496 35131 12112 10176 14073 226792 
Branch_type:  BRANCH_CONDITIONAL:  Total Count: 2834992 342947 205394 940013 362169 443389 261031 7033471 
Branch_type:  BRANCH_DIRECT_CALL:  Total Count: 7346 23579 13861 84439 56261 48941 57037 1586887 
Branch_type:  BRANCH_INDIRECT_CALL:  Total Count: 32533 0 10232 14 3407 5831 16985 271722 
Branch_type:  BRANCH_RETURN:  Total Count: 94539 103451 27557 105474 123019 78495 59911 1627460 
Number of unique branch instructions: 10480
Upper 32 bits: 
aaaa
ffff
ffff0000
Unique upper 32 bits: 3
Unique upper 36 bits: 3
Unique upper 40 bits: 5
Unique upper 44 bits: 32
Unique upper 48 bits: 159
Variant_0 : 1064 0.259766
Variant_1 : 1252 0.305664
Variant_2 : 1587 0.387451
Variant_3 : 0 0
Offset_3 4329
Offset_4 269
Offset_5 477
Offset_6 537
Offset_7 614
Offset_8 534
Offset_9 506
Offset_10 415
Offset_11 342
Offset_12 277
Offset_13 218
Offset_14 228
Offset_15 203
Offset_16 234
Offset_17 165
Offset_18 135
Offset_19 254
Offset_20 145
Offset_21 267
Offset_22 403
Offset_23 241
Offset_24 348
Offset_25 88
Offset_47 84
decode_dispatch_called: 20402010 44.7924
Dispatch_width: 0 10282554 50.3997 22.5752
Dispatch_width: 1 557365 2.73191 1.22369
Dispatch_width: 2 712988 3.49469 1.56536
Dispatch_width: 3 476121 2.3337 1.04532
Dispatch_width: 4 1647828 8.07679 3.61779
Dispatch_width: 5 354125 1.73574 0.777477
Dispatch_width: 6 6371029 31.2275 13.9875
Empty_decode_cycles: 25145956 55.2076
ROB_full_cycles: 2161329 4.74517
Starvation_cycles_per_kilo_instr: 370.156
Starvation_cycles_per_kilo_instr_3: 350.137
Starvation_cycles_per_kilo_instr_0: 332.672
Branch_type_1  (3,1)  (4,8)  (5,39)  (6,77)  (7,121)  (8,130)  (9,134)  (10,108)  (11,79)  (12,43)  (13,7)  (14,2)  (15,3)  (16,4)  (18,1)  (19,4)  (20,2)  (21,1)  (22,3)  (23,2)  (24,10)  (25,12) 
Branch_type_2  (3,1)  (5,1)  (8,3)  (9,3)  (12,1)  (13,1)  (14,1)  (16,3)  (17,2)  (20,2)  (21,2)  (23,5)  (24,1)  (47,38) 
Branch_type_3  (3,4327)  (4,261)  (5,433)  (6,444)  (7,460)  (8,342)  (9,281)  (10,173)  (11,136)  (12,49)  (13,7) 
Branch_type_4  (6,4)  (7,8)  (8,26)  (9,53)  (10,62)  (11,64)  (12,100)  (13,94)  (14,101)  (15,98)  (16,106)  (17,76)  (18,62)  (19,122)  (20,74)  (21,144)  (22,217)  (23,136)  (24,199)  (25,72) 
Branch_type_5  (8,2)  (9,1)  (10,4)  (11,6)  (12,3)  (13,14)  (14,16)  (15,11)  (16,20)  (17,12)  (18,16)  (19,13)  (20,11)  (21,13)  (22,42)  (23,26)  (24,40) 
Branch_type_6  (5,4)  (6,12)  (7,25)  (8,31)  (9,34)  (10,68)  (11,57)  (12,81)  (13,95)  (14,108)  (15,91)  (16,101)  (17,75)  (18,56)  (19,115)  (20,56)  (21,107)  (22,141)  (23,72)  (24,98)  (25,4)  (47,46) 
Unique trigger count: 
Variant_0_evicts_0 : 0
Variant_0_evicts_1 : 0
Variant_0_evicts_2 : 0
Variant_0_evicts_3 : 0
Variant_1_evicts_0 : 0
Variant_1_evicts_1 : 0
Variant_1_evicts_2 : 0
Variant_1_evicts_3 : 0
Variant_2_evicts_0 : 0
Variant_2_evicts_1 : 0
Variant_2_evicts_2 : 0
Variant_2_evicts_3 : 0
Variant_3_evicts_0 : 0
Variant_3_evicts_1 : 0
Variant_3_evicts_2 : 0
Variant_3_evicts_3 : 0
BTB PER SET UNIQUE ADDR: 2 7 4 7 5 6 7 6 3 7 5 4 3 8 10 8 4 4 5 2 4 9 7 9 6 7 5 5 6 7 6 5 6 8 5 8 6 4 6 9 4 8 4 4 8 6 4 4 8 7 12 4 7 2 2 7 5 3 9 6 5 7 4 8 7 3 7 4 4 8 7 5 5 7 7 9 3 6 6 7 8 6 5 9 7 4 5 3 5 7 6 8 7 8 4 2 6 3 4 7 5 2 4 7 5 4 3 6 5 10 7 2 4 9 2 5 5 7 5 11 6 4 6 5 7 7 2 7 5 2 4 7 3 5 7 6 5 2 7 6 2 5 8 7 5 9 5 4 5 8 3 2 4 10 3 6 6 3 7 5 2 6 4 7 9 2 1 4 8 9 5 6 5 4 4 6 3 6 6 6 7 5 6 9 7 5 5 5 6 5 5 3 6 7 3 6 6 6 6 4 7 8 3 7 1 9 3 4 8 4 2 2 8 6 6 5 7 4 4 6 3 8 6 8 6 10 8 6 7 9 3 7 6 10 4 6 5 7 7 6 6 7 6 6 6 4 4 5 7 6 3 8 4 5 5 6 5 4 7 2 8 7 6 5 3 4 5 5 9 7 8 9 7 7 6 5 6 2 5 11 8 3 6 7 2 6 12 6 8 5 4 3 11 8 8 5 9 3 7 5 14 2 5 11 4 2 8 8 8 4 7 3 9 7 5 5 7 8 7 4 8 8 3 5 9 6 4 6 3 7 4 9 3 6 4 5 8 9 6 6 3 5 6 3 5 5 4 7 1 5 6 10 5 2 6 4 4 5 5 5 12 6 5 7 5 10 5 7 7 3 10 8 10 6 4 7 7 5 4 1 4 5 7 4 10 4 4 6 4 6 6 2 4 6 3 4 6 3 5 5 8 7 5 5 5 9 11 6 9 4 6 4 2 7 6 3 5 4 4 5 7 1 5 9 7 5 6 8 6 8 8 3 4 5 7 2 4 3 2 5 9 5 3 3 3 1 3 5 5 4 9 2 6 5 5 2 8 3 13 5 5 7 5 12 2 9 4 4 3 7 7 8 2 6 4 8 3 3 6 7 6 3 6 6 4 5 5 5 7 7 6 5 6 8 7 5 7 5 3 7 2 3 3 5 5 6 5 6 2 3 7 4 5 3 5 5 9 6 7 6 6 7 9 3 5 13 2 3 5 3 10 6 5 3 1 5 8 9 5 6 4 9 11 13 5 4 7 11 5 4 2 8 2 7 5 8 7 1 6 6 4 3 5 8 6 3 5 5 9 4 5 4 1 8 2 7 10 3 6 5 1 7 2 8 2 4 3 3 5 9 8 7 6 10 3 8 10 8 5 6 9 3 4 2 4 11 7 2 4 4 4 5 5 8 1 6 10 3 10 8 4 5 5 1 7 6 3 5 4 6 5 6 5 5 7 7 3 12 7 11 4 7 5 5 3 6 7 6 4 5 5 5 6 7 5 5 7 2 3 6 4 5 5 8 4 7 4 9 9 5 10 6 8 4 8 4 5 7 5 7 7 9 3 7 8 8 6 8 6 4 7 2 4 7 4 8 6 7 5 10 8 6 4 5 10 3 3 7 7 5 5 1 2 9 4 5 7 9 6 5 6 6 4 8 8 8 9 6 5 7 5 5 9 5 5 2 6 6 3 9 4 11 4 6 5 4 8 4 5 5 6 5 6 4 8 10 9 1 3 10 7 5 6 8 10 6 9 11 6 5 8 5 1 6 7 6 5 7 4 7 8 5 5 4 8 6 6 6 5 9 7 4 5 6 8 8 8 3 5 5 9 6 6 4 7 3 6 3 6 5 6 2 0 5 9 6 10 3 7 4 8 4 4 4 5 6 5 6 10 4 7 7 5 7 6 5 8 4 3 5 1 10 7 5 5 5 4 6 3 4 5 8 5 5 6 3 11 7 4 5 1 6 3 9 8 7 8 5 5 5 4 5 6 3 1 4 3 7 1 7 6 5 7 4 6 6 7 12 4 0 11 3 3 2 5 6 4 9 6 2 8 4 7 5 6 2 4 7 6 12 7 5 5 8 8 10 6 7 9 8 9 2 6 8 2 3 6 7 6 4 3 8 8 5 5 7 4 3 3 7 6 6 4 3 5 4 3 4 6 4 9 8 6 3 13 5 8 4 6 3 6 3 9 4 7 3 8 4 2 3 5 1 2 7 2 4 4 10 6 7 4 7 8 4 8 3 3 5 7 3 4 7 7 12 8 4 5 5 4 3 7 5 7 4 4 5 5 8 5 4 5 9 10 5 5 5 6 7 3 4 4 3 9 8 8 5 6 7 4 5 6 3 7 5 5 8 8 6 3 4 8 5 6 8 7 6 5 6 3 4 6 5 6 3 3 6 10 8 4 4 4 7 6 5 4 7 8 7 10 8 3 5 2 8 9 4 4 7 7 3 9 3 4 6 6 6 4 3 3 10 8 10 4 6 5 3 4 3 5 3 6 11 7 9 4 8 3 4 2 3 3 6 4 5 9 4 6 7 5 6 5 4 3 9 2 7 6 6 4 3 6 6 7 4 5 4 5 6 3 7 8 8 7 3 6 7 3 6 5 6 6 6 1 5 3 4 7 8 7 5 5 2 7 5 3 3 6 9 6 8 9 5 5 3 5 10 4 7 4 6 10 2 13 4 4 3 7 3 7 10 10 11 4 3 7 4 7 6 4 2 7 4 3 3 7 7 6 2 8 4 8 4 6 7 1 6 7 4 8 6 9 2 7 6 8 6 8 5 7 4 6 4 4 3 8 5 5 6 3 3 6 5 7 5 8 7 8 6 3 5 7 10 3 3 5 3 5 3 2 5 3 4 5 4 5 3 7 6 5 8 7 4 11 3 5 5 6 9 7 5 10 5 5 7 5 5 6 6 11 10 8 7 8 10 5 6 7 6 6 7 2 7 4 8 7 6 8 9 8 8 14 8 6 5 12 5 5 4 4 4 3 6 5 6 6 3 6 4 9 11 5 5 5 6 10 4 5 6 5 6 7 5 5 6 10 13 5 7 8 6 5 4 5 6 5 3 8 3 5 6 4 10 7 10 5 3 6 6 5 8 3 6 5 13 9 10 5 5 2 7 2 5 3 6 5 4 6 6 6 2 3 6 9 8 1 5 7 4 5 4 13 5 9 2 4 5 9 8 5 6 7 5 8 4 9 7 5 2 3 6 9 6 6 8 7 8 7 5 3 8 7 4 7 4 10 6 7 10 9 3 7 8 8 3 5 5 7 6 9 4 6 6 1 6 7 5 6 7 13 7 7 4 4 6 10 6 5 5 3 10 5 5 8 1 4 2 8 4 7 12 5 7 4 7 9 5 5 4 8 5 5 7 5 8 5 10 7 5 6 2 8 4 9 9 8 8 10 5 8 3 7 7 10 4 4 6 6 9 7 12 9 2 4 6 7 5 13 6 7 3 5 6 5 2 5 6 6 5 3 6 7 4 7 5 6 7 5 8 7 2 5 6 4 4 3 5 5 8 5 5 4 10 5 6 4 4 4 8 8 6 5 3 7 5 1 6 5 8 9 2 7 5 3 5 3 7 8 5 4 7 6 6 3 5 7 5 4 6 4 6 7 6 9 7 5 5 11 8 9 7 4 7 7 3 4 6 4 5 8 4 3 9 8 8 5 8 3 3 3 4 4 7 8 4 8 5 9 4 7 6 5 6 10 3 7 6 7 6 5 9 10 4 4 5 7 4 4 5 6 5 3 7 4 5 8 4 5 5 3 2 7 4 3 4 6 6 1 5 5 4 8 5 7 2 1 5 5 7 13 4 3 7 2 3 5 4 1 5 6 4 3 5 4 2 4 7 8 4 4 4 1 2 6 7 5 4 4 5 5 9 1 4 3 9 9 6 6 4 4 3 5 3 5 5 4 5 4 6 7 9 6 5 9 4 3 6 5 9 7 5 7 3 3 4 4 6 1 2 3 4 6 9 2 7 5 7 6 6 7 5 4 4 8 10 0 9 4 9 7 9 5 10 1 7 10 7 8 7 3 6 4 7 3 7 4 7 9 6 4 7 5 5 4 4 2 1 4 2 6 2 6 5 9 3 6 4 3 9 4 6 3 4 8 9 6 7 6 4 6 4 5 7 3 2 5 5 5 5 5 8 5 4 4 3 6 5 4 6 4 7 3 4 5 7 6 3 3 8 6 6 1 5 7 4 7 7 2 5 5 3 3 8 3 7 6 4 4 9 4 10 4 5 3 4 6 10 6 6 3 3 4 3 3 5 3 11 1 6 2 7 4 4 3 6 7 5 2 1 3 8 2 5 4 4 3 8 6 4 4 6 6 7 8 2 5 8 1 6 10 4 1 2 8 9 5 7 9 9 7 7 7 5 7 5 7 8 4 0 6 4 5 9 5 7 9 9 4 6 2 8 4 7 6 6 9 8 6 5 8 9 7 4 5 7 7 5 6 6 3 10 3 8 7 13 8 3 5 8 3 5 5 5 3 3 8 9 5 7 2 6 3 5 10 7 3 4 2 3 6 6 2 4 7 9 3 3 4 8 7 8 5 12 9 5 3 11 5 6 7 4 3 11 4 4 7 5 5 15 4 9 6 6 4 5 3 5 8 8 
BTB PER SET COUNT: 2 1876 1017 1007 956 290 441 911 4 751 964 326 16 670 1034 197 759 131 1256 3 455 1538 884 581 534 460 292 295 641 818 862 88 186 1180 663 998 729 165 406 1684 9 1571 5 7 3016 734 171 212 198 1012 1661 399 1015 2 2 808 1006 1131 761 61 1178 983 210 358 202 7 321 240 7 1265 689 311 204 755 419 1598 3 908 1172 250 814 448 190 1631 745 174 729 3 732 1587 788 1044 1032 1172 11 72 267 4 214 623 585 2 375 155 78 172 62 549 612 1001 417 2 184 1252 2 225 406 20 484 2705 443 577 1740 308 8 1133 3 472 855 3 9 525 3 316 606 570 221 161 966 995 3 653 1542 578 5 403 7 410 300 819 270 514 8 862 5 1743 232 675 622 312 2 428 5 497 679 69 1 7 307 744 166 778 286 181 355 482 134 201 60 853 174 703 330 648 517 477 24 10 18 167 54 3 962 693 3 404 173 704 945 4 365 406 145 234 1 1039 3 568 619 4 8 5 936 724 309 462 1001 300 349 208 208 988 341 1298 1938 1292 245 157 180 1622 320 151 241 5240 270 677 15 397 536 845 649 121 786 237 364 395 214 696 311 484 5 734 8 221 538 84 942 385 389 2 532 480 554 385 173 582 498 521 765 255 471 726 171 543 630 971 172 294 205 824 642 3 342 946 2 480 1869 321 553 7 5 6 1305 643 914 177 28 4 541 203 1104 209 1467 509 230 2 661 35 511 103 129 8 842 314 5 421 17 830 374 12 651 514 228 318 1366 407 453 206 4 263 4 1773 173 800 192 230 924 377 269 694 3 356 351 4 800 308 4 782 1 289 308 218 371 2 666 6 351 569 762 159 1841 629 460 1196 306 2980 864 1296 10 3 639 508 2527 13 475 381 692 628 410 1 95 1150 82 481 1054 284 7 505 104 249 386 2 629 393 96 4 1704 4 497 73 660 637 389 268 429 1277 2563 715 813 7 248 295 11 496 938 263 439 376 236 624 159 1 13 674 954 788 290 593 1241 410 1548 58 4 457 929 2 362 6 2 146 1939 411 3 8 428 1 3 45 708 429 1620 283 356 397 564 2 700 8 1516 217 1156 352 39 1044 5 1060 299 124 3 633 393 516 2 423 977 211 109 4 255 497 103 236 243 421 14 393 204 383 228 1035 390 475 87 565 833 981 989 462 78 791 2 241 3 297 5 416 187 119 2 36 999 355 1120 864 5 462 945 1394 1053 580 394 505 1528 3 525 1987 53 3 230 6 2203 687 112 39 1 139 559 655 532 200 376 514 1375 1615 501 1132 1196 1669 805 69 2 1373 960 646 353 656 1258 1 171 316 806 7649 290 844 468 3 1133 182 2036 507 244 287 1 1265 2 1100 1256 7 397 306 2 554 2 836 2 290 219 4 5 2223 814 635 725 1231 236 1772 865 842 351 321 906 3 588 93 196 924 1343 2 174 200 389 117 1168 416 1 232 1048 334 11114 773 305 370 445 2 756 305 601 180 448 404 498 935 91 825 486 858 4 1131 514 2161 7 354 459 10 4 1279 236 221 205 837 797 293 169 1066 136 350 456 281 3 58 476 758 378 142 268 816 4 1678 717 887 530 363 656 313 1003 395 345 1327 297 884 1186 599 88 1519 640 1022 421 1112 156 115 608 2 387 945 272 1328 180 1784 377 1638 647 1477 6 21 1250 96 6 421 1383 683 342 1 289 881 71 957 474 342 368 196 323 553 729 831 503 801 891 884 1049 709 371 333 833 356 13 2 6 545 178 2503 4 1842 225 366 232 15 376 188 6 648 533 244 268 329 206 810 647 1 3 880 541 295 302 202 290 264 707 1965 565 5 182 403 1 281 742 1143 301 680 349 632 692 123 198 239 704 9 742 687 310 1139 425 467 856 30 356 915 209 192 291 170 209 14 611 869 284 3 154 3 287 217 422 2 0 246 1029 518 1860 392 751 71 830 343 106 213 406 1111 416 608 1433 458 697 473 135 904 20 118 1187 156 8 506 10 1786 465 649 445 9 186 844 4 984 12 465 51 245 517 45 961 157 213 7 1 471 3 512 524 282 1296 272 897 185 888 206 448 6 1 33 1278 1028 1 990 381 957 433 150 12 661 255 1621 35 0 1770 40 110 2 9 732 541 1050 790 212 976 189 744 859 147 141 54 165 386 1028 747 236 625 723 898 1073 233 638 1364 932 1637 13 98 453 203 8 1453 357 327 384 5 850 1373 311 239 558 202 178 110 1037 953 167 12 4 1122 240 3 38 202 5 1329 1039 534 5 2474 414 1407 24 1812 258 645 106 753 398 355 30 582 543 2 247 6 1 243 1113 2 88 88 1133 371 419 386 296 884 14 497 104 3 1007 35 173 14 408 976 1007 362 11 277 1729 6 6 549 321 655 1531 308 13 298 1209 990 512 8 737 1179 347 516 102 222 1066 3 45 391 314 484 242 644 241 918 1232 7 144 800 3 894 614 627 912 585 322 1460 132 439 618 9 515 412 695 479 83 112 8 331 259 241 106 436 14 758 1780 241 4 6 591 504 487 560 600 899 782 619 608 3 396 2 1124 982 223 173 695 191 4 1078 3 204 342 634 278 12 48 48 558 1044 963 566 10 411 617 251 3 275 3 317 1953 653 1677 314 932 15 177 2 142 172 769 388 1386 747 13 7 696 7 361 399 12 503 119 2 831 420 445 4 5 136 529 611 8 496 203 161 762 4 316 973 10728 1226 290 645 10 6 623 48 384 121 434 1 210 5 946 98 1183 1369 189 47 2 647 252 335 11 204 493 187 760 1042 8 392 415 73 1262 10 124 413 640 855 71 1423 421 285 250 320 294 1118 796 1165 702 204 3 1734 225 1039 455 524 190 520 49 11 5 788 836 1194 5 958 306 810 4 334 1362 1 242 866 64 732 249 752 5 675 44 461 800 847 226 378 195 12 85 512 6 1276 243 20 425 153 3 494 487 18 430 594 284 33 82 92 396 326 529 3 247 530 6 11 111 2 7 3 281 6 6 556 14 462 171 272 636 445 190 1011 3 373 461 260 1085 721 301 1476 58 194 534 198 503 133 1403 1962 1364 55 859 253 1483 261 677 753 163 359 796 3 298 354 307 1038 522 480 1117 857 966 820 149 42 412 936 837 10 117 449 169 3 417 7 410 81 8 116 1488 336 1900 395 379 5 764 523 157 178 1081 459 313 578 674 274 408 920 1087 156 474 1116 601 2309 5 265 196 20 4 742 5 8 226 480 563 809 652 68 3 306 216 224 742 3 186 308 1767 1301 617 461 138 2 707 2 745 270 267 221 237 13 267 276 246 4 141 450 496 1 321 554 33 19 4 935 320 364 75 21 368 950 244 139 455 16 476 857 67 1292 1116 253 235 76 970 1377 473 412 603 295 886 460 21 220 2167 1479 17 500 1979 1127 1070 937 571 835 72 405 1297 86 106 326 20 802 31 494 7 16 334 1 752 372 9 7 625 1146 380 449 5 44 285 1515 364 256 15 3 1744 145 219 958 1 4 2 323 353 666 1443 186 668 458 533 885 712 6 130 23 267 487 187 327 559 478 1814 719 188 278 2 987 554 610 242 1356 870 1028 109 818 94 370 514 1854 312 12 961 88 801 901 1827 1353 3 34 1194 550 704 1213 480 1251 3 463 43 826 131 122 979 214 655 10 883 14 5 181 136 19 436 504 768 225 2 873 436 244 5 3 359 8 411 108 1017 651 886 335 302 405 221 3872 894 392 407 895 5 49 329 1 615 392 1227 143 1458 460 132 97 603 8 513 958 14 187 413 196 471 3 522 488 142 166 722 96 471 265 399 391 623 636 471 1083 191 1238 407 5 514 1136 252 209 232 4 681 825 8 206 698 607 1081 136 765 150 10 3 213 323 521 1341 134 846 636 1172 50 383 14 5 743 558 124 746 757 352 465 9 786 495 282 483 240 79 193 507 643 643 675 423 359 11 115 402 5 872 490 14 269 216 184 5 26 451 380 1 577 5 396 250 5 280 2 1 155 156 430 2863 112 367 935 2 273 342 5 1 306 596 173 44 330 82 2 17 1100 954 141 4 27 1 156 569 510 426 223 4 356 491 403 1 320 12 1825 364 460 212 382 201 341 182 89 47 250 213 678 408 6 299 498 176 34 850 25 169 738 542 1207 288 423 835 3 3 6 133 560 1 2 8 712 429 1116 2 1049 249 537 765 704 1468 376 37 4 401 1297 0 340 49 727 253 1943 443 716 1 681 2780 657 338 248 4 1021 11 875 3 359 404 495 459 104 4 563 313 287 12 4 5 1 226 2 794 4 701 455 350 4 169 4 12 353 135 1059 130 393 488 964 157 798 993 126 559 65 239 1280 4 689 192 6 304 797 540 1314 343 462 240 341 310 1220 856 567 4 1370 5 326 310 578 10 8 236 960 1805 477 1 80 828 297 440 714 2 833 11341 247 131 1317 279 1179 650 4 324 1342 639 1324 606 572 459 6 557 1372 548 578 78 252 9 3 10 893 8 917 1 413 577 183 4 293 299 165 213 381 2 1 3 1181 2 113 671 592 95 1224 499 45 152 1180 67 431 843 2 411 1218 1 693 1207 136 1 2 505 693 6 437 581 1191 33 362 600 333 718 21 1357 401 233 0 492 317 315 1059 224 615 1208 306 292 72 2 844 162 635 796 342 489 1591 579 1321 1224 1219 1155 123 163 555 3325 796 318 739 523 1492 3 706 395 1677 22 220 417 1164 190 587 487 180 56 100 1121 1416 439 521 46 506 4 309 423 494 3 307 1283 468 684 242 3 87 352 1338 178 162 4 1076 424 717 323 1743 395 891 3 1076 1497 131 478 5 4 1817 86 158 428 527 276 2855 176 1246 157 546 578 14 38 269 761 971 
To predecode: 0
Predecoding something: 0
Predecode request dropped: 0
sizeofblock_0 0
sizeofblock_1 497814
sizeofblock_2 145088
sizeofblock_3 25646
sizeofblock_4 6742
sizeofblock_5 0
sizeofblock_6 0
sizeofblock_7 0
sizeofblock_8 0
Variant_0 Correct: 1302554 Incorrect: 0 Accuracy: 1
Variant_1 Correct: 1817279 Incorrect: 0 Accuracy: 1
Variant_2 Correct: 3333029 Incorrect: 0 Accuracy: 1
Variant_3 Correct: 0 Incorrect: 0 Accuracy: -nan
