
*** ChampSim Multicore Out-of-Order Simulator ***

Warmup Instructions: 50000000
Simulation Instructions: 50000000
Number of CPUs: 1
LLC sets: 2048
LLC ways: 16
Off-chip DRAM Size: 4096 MB Channels: 1 Width: 64-bit Data Rate: 6400 MT/s
CPU 0 runs ./micro_traces/srv102.trace.gz
.gz
ITLB has LRU replacement policy
DTLB has LRU replacement policy
STLB has LRU replacement policy
FDIP Prefetcher at L1I
L1I has LRU replacement policy
L1D has LRU replacement policy
Initialize SRRIP state for L2C
Initialize DRRIP state for LLC
Heartbeat_Variant_0 : 1325 0.323486 per_variant_size: 0 1325 0 0 0 0 0 0 0 
Heartbeat_Variant_1 : 2571 0.627686 per_variant_size: 0 598 1973 0 0 0 0 0 0 
Heartbeat_Variant_2 : 0 0 per_variant_size: 0 0 0 0 0 0 0 0 0 
Heartbeat_Variant_3 : 0 0 per_variant_size: 0 0 0 0 0 0 0 0 0 
Heartbeat_Variant_0_evicts 0 : 5888 1 : 485 2 : 0 3 : 0 
Heartbeat_Variant_1_evicts 0 : 424 1 : 0 2 : 0 3 : 0 
Heartbeat_Variant_2_evicts 0 : 0 1 : 0 2 : 0 3 : 0 
Heartbeat_Variant_3_evicts 0 : 0 1 : 0 2 : 0 3 : 0 
Heartbeat CPU 0 instructions: 10000000 cycles: 2796977 heartbeat IPC: 3.57529 cumulative IPC: 3.57529 (Simulation time: 0 hr 1 min 44 sec) 
Heartbeat_Variant_0 : 1339 0.326904 per_variant_size: 0 1339 0 0 0 0 0 0 0 
Heartbeat_Variant_1 : 2611 0.637451 per_variant_size: 0 537 2074 0 0 0 0 0 0 
Heartbeat_Variant_2 : 0 0 per_variant_size: 0 0 0 0 0 0 0 0 0 
Heartbeat_Variant_3 : 0 0 per_variant_size: 0 0 0 0 0 0 0 0 0 
Heartbeat_Variant_0_evicts 0 : 5643 1 : 111 2 : 0 3 : 0 
Heartbeat_Variant_1_evicts 0 : 111 1 : 0 2 : 0 3 : 0 
Heartbeat_Variant_2_evicts 0 : 0 1 : 0 2 : 0 3 : 0 
Heartbeat_Variant_3_evicts 0 : 0 1 : 0 2 : 0 3 : 0 
Heartbeat CPU 0 instructions: 20000001 cycles: 5593086 heartbeat IPC: 3.5764 cumulative IPC: 3.57584 (Simulation time: 0 hr 3 min 22 sec) 
Heartbeat_Variant_0 : 1346 0.328613 per_variant_size: 0 1346 0 0 0 0 0 0 0 
Heartbeat_Variant_1 : 2620 0.639648 per_variant_size: 0 536 2084 0 0 0 0 0 0 
Heartbeat_Variant_2 : 0 0 per_variant_size: 0 0 0 0 0 0 0 0 0 
Heartbeat_Variant_3 : 0 0 per_variant_size: 0 0 0 0 0 0 0 0 0 
Heartbeat_Variant_0_evicts 0 : 5644 1 : 116 2 : 0 3 : 0 
Heartbeat_Variant_1_evicts 0 : 111 1 : 0 2 : 0 3 : 0 
Heartbeat_Variant_2_evicts 0 : 0 1 : 0 2 : 0 3 : 0 
Heartbeat_Variant_3_evicts 0 : 0 1 : 0 2 : 0 3 : 0 
Heartbeat CPU 0 instructions: 30000000 cycles: 8389492 heartbeat IPC: 3.57602 cumulative IPC: 3.5759 (Simulation time: 0 hr 5 min 0 sec) 
Heartbeat_Variant_0 : 1374 0.335449 per_variant_size: 0 1374 0 0 0 0 0 0 0 
Heartbeat_Variant_1 : 2641 0.644775 per_variant_size: 0 487 2154 0 0 0 0 0 0 
Heartbeat_Variant_2 : 0 0 per_variant_size: 0 0 0 0 0 0 0 0 0 
Heartbeat_Variant_3 : 0 0 per_variant_size: 0 0 0 0 0 0 0 0 0 
Heartbeat_Variant_0_evicts 0 : 5654 1 : 273 2 : 0 3 : 0 
Heartbeat_Variant_1_evicts 0 : 259 1 : 0 2 : 0 3 : 0 
Heartbeat_Variant_2_evicts 0 : 0 1 : 0 2 : 0 3 : 0 
Heartbeat_Variant_3_evicts 0 : 0 1 : 0 2 : 0 3 : 0 
Heartbeat CPU 0 instructions: 40000001 cycles: 11186864 heartbeat IPC: 3.57478 cumulative IPC: 3.57562 (Simulation time: 0 hr 6 min 38 sec) 
Heartbeat_Variant_0 : 1371 0.334717 per_variant_size: 0 1371 0 0 0 0 0 0 0 
Heartbeat_Variant_1 : 2653 0.647705 per_variant_size: 0 482 2171 0 0 0 0 0 0 
Heartbeat_Variant_2 : 0 0 per_variant_size: 0 0 0 0 0 0 0 0 0 
Heartbeat_Variant_3 : 0 0 per_variant_size: 0 0 0 0 0 0 0 0 0 
Heartbeat_Variant_0_evicts 0 : 5602 1 : 99 2 : 0 3 : 0 
Heartbeat_Variant_1_evicts 0 : 104 1 : 0 2 : 0 3 : 0 
Heartbeat_Variant_2_evicts 0 : 0 1 : 0 2 : 0 3 : 0 
Heartbeat_Variant_3_evicts 0 : 0 1 : 0 2 : 0 3 : 0 
Heartbeat CPU 0 instructions: 50000002 cycles: 13983489 heartbeat IPC: 3.57574 cumulative IPC: 3.57565 (Simulation time: 0 hr 8 min 16 sec) 

Warmup complete CPU 0 instructions: 50000002 cycles: 13983489 (Simulation time: 0 hr 8 min 16 sec) 

Cycle: 20000000 FTQ IN: 57903114 FTQ occupancy: 18.5997 DECODE IN: 57903087 DECODE occupancy: 48.0177 ROB IN: 57903069 ROB occupancy: 294.891 ROB OUT: 57902904
Heartbeat_Variant_0 : 1369 0.334229 per_variant_size: 0 1369 0 0 0 0 0 0 0 
Heartbeat_Variant_1 : 2658 0.648926 per_variant_size: 0 492 2166 0 0 0 0 0 0 
Heartbeat_Variant_2 : 0 0 per_variant_size: 0 0 0 0 0 0 0 0 0 
Heartbeat_Variant_3 : 0 0 per_variant_size: 0 0 0 0 0 0 0 0 0 
Heartbeat_Variant_0_evicts 0 : 5515 1 : 92 2 : 0 3 : 0 
Heartbeat_Variant_1_evicts 0 : 95 1 : 0 2 : 0 3 : 0 
Heartbeat_Variant_2_evicts 0 : 0 1 : 0 2 : 0 3 : 0 
Heartbeat_Variant_3_evicts 0 : 0 1 : 0 2 : 0 3 : 0 
Heartbeat CPU 0 instructions: 60000001 cycles: 21626101 heartbeat IPC: 1.30845 cumulative IPC: 1.30845 (Simulation time: 0 hr 9 min 50 sec) 
Heartbeat_Variant_0 : 1372 0.334961 per_variant_size: 0 1372 0 0 0 0 0 0 0 
Heartbeat_Variant_1 : 2658 0.648926 per_variant_size: 0 488 2170 0 0 0 0 0 0 
Heartbeat_Variant_2 : 0 0 per_variant_size: 0 0 0 0 0 0 0 0 0 
Heartbeat_Variant_3 : 0 0 per_variant_size: 0 0 0 0 0 0 0 0 0 
Heartbeat_Variant_0_evicts 0 : 5547 1 : 71 2 : 0 3 : 0 
Heartbeat_Variant_1_evicts 0 : 68 1 : 0 2 : 0 3 : 0 
Heartbeat_Variant_2_evicts 0 : 0 1 : 0 2 : 0 3 : 0 
Heartbeat_Variant_3_evicts 0 : 0 1 : 0 2 : 0 3 : 0 
Heartbeat CPU 0 instructions: 70000001 cycles: 29293415 heartbeat IPC: 1.30424 cumulative IPC: 1.30634 (Simulation time: 0 hr 11 min 23 sec) 
Cycle: 30000000 FTQ IN: 13024623 FTQ occupancy: 8.53665 DECODE IN: 13024579 DECODE occupancy: 20.1388 ROB IN: 13024590 ROB occupancy: 170.162 ROB OUT: 13024728
Heartbeat_Variant_0 : 1374 0.335449 per_variant_size: 0 1374 0 0 0 0 0 0 0 
Heartbeat_Variant_1 : 2660 0.649414 per_variant_size: 0 490 2170 0 0 0 0 0 0 
Heartbeat_Variant_2 : 0 0 per_variant_size: 0 0 0 0 0 0 0 0 0 
Heartbeat_Variant_3 : 0 0 per_variant_size: 0 0 0 0 0 0 0 0 0 
Heartbeat_Variant_0_evicts 0 : 5597 1 : 30 2 : 0 3 : 0 
Heartbeat_Variant_1_evicts 0 : 28 1 : 0 2 : 0 3 : 0 
Heartbeat_Variant_2_evicts 0 : 0 1 : 0 2 : 0 3 : 0 
Heartbeat_Variant_3_evicts 0 : 0 1 : 0 2 : 0 3 : 0 
Heartbeat CPU 0 instructions: 80000001 cycles: 36907095 heartbeat IPC: 1.31343 cumulative IPC: 1.30869 (Simulation time: 0 hr 12 min 56 sec) 
Cycle: 40000000 FTQ IN: 13115205 FTQ occupancy: 8.47549 DECODE IN: 13115228 DECODE occupancy: 20.0835 ROB IN: 13115235 ROB occupancy: 168.677 ROB OUT: 13115189
Heartbeat_Variant_0 : 1381 0.337158 per_variant_size: 0 1381 0 0 0 0 0 0 0 
Heartbeat_Variant_1 : 2656 0.648438 per_variant_size: 0 479 2177 0 0 0 0 0 0 
Heartbeat_Variant_2 : 0 0 per_variant_size: 0 0 0 0 0 0 0 0 0 
Heartbeat_Variant_3 : 0 0 per_variant_size: 0 0 0 0 0 0 0 0 0 
Heartbeat_Variant_0_evicts 0 : 5612 1 : 80 2 : 0 3 : 0 
Heartbeat_Variant_1_evicts 0 : 73 1 : 0 2 : 0 3 : 0 
Heartbeat_Variant_2_evicts 0 : 0 1 : 0 2 : 0 3 : 0 
Heartbeat_Variant_3_evicts 0 : 0 1 : 0 2 : 0 3 : 0 
Heartbeat CPU 0 instructions: 90000000 cycles: 44599329 heartbeat IPC: 1.30001 cumulative IPC: 1.30651 (Simulation time: 0 hr 14 min 32 sec) 
Cycle: 50000000 FTQ IN: 12802897 FTQ occupancy: 8.46928 DECODE IN: 12802805 DECODE occupancy: 19.839 ROB IN: 12802745 ROB occupancy: 166.303 ROB OUT: 12802470
Heartbeat_Variant_0 : 1397 0.341064 per_variant_size: 0 1397 0 0 0 0 0 0 0 
Heartbeat_Variant_1 : 2677 0.653564 per_variant_size: 0 417 2260 0 0 0 0 0 0 
Heartbeat_Variant_2 : 0 0 per_variant_size: 0 0 0 0 0 0 0 0 0 
Heartbeat_Variant_3 : 0 0 per_variant_size: 0 0 0 0 0 0 0 0 0 
Heartbeat_Variant_0_evicts 0 : 5877 1 : 734 2 : 0 3 : 0 
Heartbeat_Variant_1_evicts 0 : 725 1 : 0 2 : 0 3 : 0 
Heartbeat_Variant_2_evicts 0 : 0 1 : 0 2 : 0 3 : 0 
Heartbeat_Variant_3_evicts 0 : 0 1 : 0 2 : 0 3 : 0 
Heartbeat CPU 0 instructions: 100000003 cycles: 52389491 heartbeat IPC: 1.28367 cumulative IPC: 1.30188 (Simulation time: 0 hr 16 min 5 sec) 
Finished CPU 0 instructions: 50000001 cycles: 38406002 cumulative IPC: 1.30188 (Simulation time: 0 hr 16 min 5 sec) 

ChampSim completed all CPUs

Region of Interest Statistics

CPU 0 cumulative IPC: 1.30188 instructions: 50000001 cycles: 38406002
 Fetch stage stalled: 65.1778  Sim cycles: 38406002 fetch stall cycle: 25032174
 Empty decode stage: 63.2616  Sim cycles: 38406002 fetch stall cycle: 24296252
ITLB TOTAL     ACCESS:    5876770  HIT:    5377631  MISS:     499139  HIT %:    91.5066  MISS %:    8.49342   MPKI: 9.98278
ITLB LOAD TRANSLATION INSTRUCTION	ACCESS:    5763105  HIT:    5263966  MISS:     499139  HIT %:    91.3391  MISS %:    8.66094  MPKI: 9.98278
ITLB TRANSLATION FROM L1D PREFETCHER INSTRUCTION	ACCESS:     113665  HIT:     113665  MISS:          0  HIT %:        100  MISS %:          0  MPKI: 0

ITLB AVERAGE MISS LATENCY: 9.06461 cycles
ITLB RQ	ACCESS:    8005795	FORWARD:          0	MERGED:    1714597	TO_CACHE:    6291198

DTLB TOTAL     ACCESS:    9122300  HIT:    8648710  MISS:     473590  HIT %:    94.8084  MISS %:    5.19156   MPKI: 9.4718
DTLB LOAD TRANSLATION DATA	ACCESS:    9122300  HIT:    8648710  MISS:     473590  HIT %:    94.8084  MISS %:    5.19156  MPKI: 9.4718

DTLB AVERAGE MISS LATENCY: 9.32798 cycles
DTLB RQ	ACCESS:   13466583	FORWARD:          0	MERGED:    4307631	TO_CACHE:    9158952

STLB TOTAL     ACCESS:    1217159  HIT:    1215166  MISS:       1993  HIT %:    99.8363  MISS %:   0.163742   MPKI: 0.03986
STLB LOAD TRANSLATION INSTRUCTION	ACCESS:     499139  HIT:     498879  MISS:        260  HIT %:    99.9479  MISS %:  0.0520897  MPKI: 0.0052
STLB LOAD TRANSLATION DATA	ACCESS:     473553  HIT:     471842  MISS:       1711  HIT %:    99.6387  MISS %:   0.361311  MPKI: 0.03422
STLB TRANSLATION FROM L1D PREFETCHER DATA	ACCESS:     244467  HIT:     244445  MISS:         22  HIT %:     99.991  MISS %: 0.00899917  MPKI: 0.00044

STLB AVERAGE MISS LATENCY: 78.5208 cycles
STLB RQ	ACCESS:    1336441	FORWARD:          0	MERGED:     119236	TO_CACHE:    1217205

STLB Hit, L1D data hit: 0
STLB Hit, L2C data hit: 0
STLB Hit, LLC data hit: 0
STLB Hit, LLC data miss: 0
STLB STLB hints to L2: 0
L1D TOTAL     ACCESS:   13213290  HIT:   12085149  MISS:    1128141  HIT %:    91.4621  MISS %:    8.53793   MPKI: 22.5628
L1D LOAD DATA	ACCESS:    6661148  HIT:    5915000  MISS:     746148  HIT %:    88.7985  MISS %:    11.2015  MPKI: 14.923
L1D RFO DATA	ACCESS:    6229379  HIT:    5941988  MISS:     287391  HIT %:    95.3865  MISS %:    4.61348  MPKI: 5.74782
L1D PREFETCH DATA	ACCESS:     322763  HIT:     228161  MISS:      94602  HIT %:    70.6899  MISS %:    29.3101  MPKI: 1.89204

L1D PREFETCH  REQUESTED:     727760  ISSUED:     727760  USEFUL:      34272  USELESS:      68110
L1D USEFUL LOAD PREFETCHES:      34272 PREFETCH ISSUED TO LOWER LEVEL:     102421  ACCURACY: 33.4619
 TIMELY PREFETCHES:      34272 LATE PREFETCHES: 7770 DROPPED PREFETCHES: 9
L1D AVERAGE MISS LATENCY: 232509 cycles
L1D RQ	ACCESS:   10754190	FORWARD:          0	MERGED:    3894953	TO_CACHE:    6696908
L1D WQ	ACCESS:    6959238	FORWARD:     162665	MERGED:     189563	TO_CACHE:    6769675
L1D PQ	ACCESS:     364048	FORWARD:          0	MERGED:          0	TO_CACHE:     363712

L1D UNIQUE REGIONS ACCESSED: 0
L1D REGIONS CONFLICTS: 0
L1D Cross Page Prefetch Requests: 7140
L1D Same Page Prefetch Requests: 742422
L1D ROI Sum of L1D PQ occupancy: 4627520
L1D PREFETCHES PUSHED FROM L2C: 0
L1I TOTAL     ACCESS:    7255438  HIT:    4470488  MISS:    2784950  HIT %:    61.6157  MISS %:    38.3843   MPKI: 55.699
L1I LOAD INSTRUCTION	ACCESS:    6619022  HIT:    3834072  MISS:    2784950  HIT %:    57.9251  MISS %:    42.0749  MPKI: 55.699
L1I PREFETCH INSTRUCTION	ACCESS:     636416  HIT:     636416  MISS:          0  HIT %:        100  MISS %:          0  MPKI: 0

L1I PREFETCH  REQUESTED:    1522304  ISSUED:    1522304  USEFUL:          0  USELESS:          0
L1I USEFUL LOAD PREFETCHES:          0 PREFETCH ISSUED TO LOWER LEVEL:          0  ACCURACY: -nan
 TIMELY PREFETCHES:          0 LATE PREFETCHES: 0 DROPPED PREFETCHES: 0
L1I AVERAGE MISS LATENCY: 17.0337 cycles
L1I RQ	ACCESS:    9449693	FORWARD:          0	MERGED:    2553296	TO_CACHE:    6896397
L1I PQ	ACCESS:    1522304	FORWARD:          0	MERGED:     412906	TO_CACHE:    1109398

L1BTB TOTAL     ACCESS:    5672208  HIT:    2021918  MISS:    3650290  HIT %:     35.646  MISS %:     64.354   MPKI: 73.0058
L1BTB BRANCH_DIRECT_JUMP	ACCESS:     547904 HIT:     142987 MISS:     404917 AVERAGE STALL: 33.3356 AVERAGE FETCH STALL: 14.9682 AVERAGE FETCH QUEUE STALL: 6.39164 AVERAGE DECODE STALL: 11.0529 AVERAGE EXECUTE STALL: 2.38115e+15
L1BTB BRANCH_INDIRECT	ACCESS:     182092 HIT:      65218 MISS:     116874 AVERAGE STALL: 75.5325 AVERAGE FETCH STALL: 11.5581 AVERAGE FETCH QUEUE STALL: 6.74123 AVERAGE DECODE STALL: 7.30225 AVERAGE EXECUTE STALL: 48.9663
L1BTB BRANCH_CONDITIONAL	ACCESS:    2695880 HIT:    1397031 MISS:    1298849 AVERAGE STALL: 37.0368 AVERAGE FETCH STALL: 20.9385 AVERAGE FETCH QUEUE STALL: 7.90393 AVERAGE DECODE STALL: 7.3824 AVERAGE EXECUTE STALL: 2.66494e+15
L1BTB BRANCH_DIRECT_CALL	ACCESS:     950809 HIT:     105395 MISS:     845414 AVERAGE STALL: 42.1012 AVERAGE FETCH STALL: 24.5184 AVERAGE FETCH QUEUE STALL: 9.71733 AVERAGE DECODE STALL: 7.03451 AVERAGE EXECUTE STALL: 7.15267e+15
L1BTB BRANCH_INDIRECT_CALL	ACCESS:     172365 HIT:      21117 MISS:     151248 AVERAGE STALL: 104.188 AVERAGE FETCH STALL: 12.7443 AVERAGE FETCH QUEUE STALL: 6.20423 AVERAGE DECODE STALL: 6.87932 AVERAGE EXECUTE STALL: 77.8702
L1BTB BRANCH_RETURN	ACCESS:    1123158 HIT:     290170 MISS:     832988 AVERAGE STALL: 39.1901 AVERAGE FETCH STALL: 16.7517 AVERAGE FETCH QUEUE STALL: 3.03797 AVERAGE DECODE STALL: 4.88722 AVERAGE EXECUTE STALL: 4.29204e+14
L1BTB BRANCH_OTHER ACCESS:          0 HIT:          0 MISS:          0 AVERAGE STALL: -nan AVERAGE FETCH STALL: -nan AVERAGE FETCH QUEUE STALL: -nan AVERAGE DECODE STALL: -nan AVERAGE EXECUTE STALL: -nan
L1BTB TOTAL ROB OCCUPANCY AT BTB MISS: 1.8932

L2BTB TOTAL     ACCESS:    3625061  HIT:    3555668  MISS:      69393  HIT %:    98.0857  MISS %:    1.91426   MPKI: 1.38786
L2BTB BRANCH_DIRECT_JUMP	ACCESS:     400882 HIT:     397133 MISS:       3749 AVERAGE STALL: 33.3356 AVERAGE FETCH STALL: 14.9682 AVERAGE FETCH QUEUE STALL: 6.39164 AVERAGE DECODE STALL: 11.0529 AVERAGE EXECUTE STALL: 2.38115e+15
L2BTB BRANCH_INDIRECT	ACCESS:     106504 HIT:     103733 MISS:       2771 AVERAGE STALL: 75.5325 AVERAGE FETCH STALL: 11.5581 AVERAGE FETCH QUEUE STALL: 6.74123 AVERAGE DECODE STALL: 7.30225 AVERAGE EXECUTE STALL: 48.9663
L2BTB BRANCH_CONDITIONAL	ACCESS:    1298849 HIT:    1291811 MISS:       7038 AVERAGE STALL: 37.0368 AVERAGE FETCH STALL: 20.9385 AVERAGE FETCH QUEUE STALL: 7.90393 AVERAGE DECODE STALL: 7.3824 AVERAGE EXECUTE STALL: 2.66494e+15
L2BTB BRANCH_DIRECT_CALL	ACCESS:     845414 HIT:     842768 MISS:       2646 AVERAGE STALL: 42.1012 AVERAGE FETCH STALL: 24.5184 AVERAGE FETCH QUEUE STALL: 9.71733 AVERAGE DECODE STALL: 7.03451 AVERAGE EXECUTE STALL: 7.15267e+15
L2BTB BRANCH_INDIRECT_CALL	ACCESS:     141850 HIT:     130258 MISS:      11592 AVERAGE STALL: 104.188 AVERAGE FETCH STALL: 12.7443 AVERAGE FETCH QUEUE STALL: 6.20423 AVERAGE DECODE STALL: 6.87932 AVERAGE EXECUTE STALL: 77.8702
L2BTB BRANCH_RETURN	ACCESS:     831562 HIT:     789965 MISS:      41597 AVERAGE STALL: 39.1901 AVERAGE FETCH STALL: 16.7517 AVERAGE FETCH QUEUE STALL: 3.03797 AVERAGE DECODE STALL: 4.88722 AVERAGE EXECUTE STALL: 4.29204e+14
L2BTB BRANCH_OTHER ACCESS:          0 HIT:          0 MISS:          0 AVERAGE STALL: -nan AVERAGE FETCH STALL: -nan AVERAGE FETCH QUEUE STALL: -nan AVERAGE DECODE STALL: -nan AVERAGE EXECUTE STALL: -nan
L2BTB TOTAL ROB OCCUPANCY AT BTB MISS: 99.5883

L2C TOTAL     ACCESS:    4522057  HIT:    4071185  MISS:     450872  HIT %:    90.0295  MISS %:    9.97051   MPKI: 9.01744
L2C LOAD INSTRUCTION	ACCESS:    2784953  HIT:    2536147  MISS:     248806  HIT %:    91.0661  MISS %:    8.93394  MPKI: 4.97612
L2C LOAD TRANSLATION INSTRUCTION	ACCESS:        295  HIT:         74  MISS:        221  HIT %:    25.0847  MISS %:    74.9153  MPKI: 0.00442
L2C LOAD DATA	ACCESS:     738331  HIT:     671276  MISS:      67055  HIT %:     90.918  MISS %:    9.08197  MPKI: 1.3411
L2C RFO DATA	ACCESS:     287325  HIT:     235249  MISS:      52076  HIT %:    81.8756  MISS %:    18.1244  MPKI: 1.04152
L2C PREFETCH DATA	ACCESS:     182973  HIT:     115380  MISS:      67593  HIT %:    63.0585  MISS %:    36.9415  MPKI: 1.35186
L2C WRITEBACK DATA	ACCESS:     526363  HIT:     512528  MISS:      13835  HIT %:    97.3716  MISS %:    2.62841  MPKI: 0.2767
L2C LOAD TRANSLATION DATA	ACCESS:       1773  HIT:        500  MISS:       1273  HIT %:    28.2008  MISS %:    71.7992  MPKI: 0.02546
L2C TRANSLATION FROM L1D PREFETCHER DATA	ACCESS:         44  HIT:         31  MISS:         13  HIT %:    70.4545  MISS %:    29.5455  MPKI: 0.00026

L2C PREFETCH  REQUESTED:      87378  ISSUED:      87378  USEFUL:       7194  USELESS:      60743
L2C USEFUL LOAD PREFETCHES:       7194 PREFETCH ISSUED TO LOWER LEVEL:      67920  ACCURACY: 10.5919
 TIMELY PREFETCHES:       7194 LATE PREFETCHES: 327 DROPPED PREFETCHES: 0
L2C AVERAGE MISS LATENCY: 38.9084 cycles
L2C RQ	ACCESS:    3812786	FORWARD:          0	MERGED:          0	TO_CACHE:    3812722
L2C WQ	ACCESS:     526363	FORWARD:         64	MERGED:          0	TO_CACHE:     526363
L2C PQ	ACCESS:     189799	FORWARD:          0	MERGED:       3317	TO_CACHE:     186482

L2C Dense regions hint from L2: 0
PSCL5 TOTAL     ACCESS:       4008  HIT:       2004  MISS:       2004  HIT %:         50  MISS %:         50   MPKI: 0.04008
PSCL5 LOAD TRANSLATION INSTRUCTION	ACCESS:       3922  HIT:       1961  MISS:       1961  HIT %:         50  MISS %:         50  MPKI: 0.03922
PSCL5 TRANSLATION FROM L1D PREFETCHER INSTRUCTION	ACCESS:         86  HIT:         43  MISS:         43  HIT %:         50  MISS %:         50  MPKI: 0.00086


PSCL4 TOTAL     ACCESS:       3940  HIT:       1968  MISS:       1972  HIT %:    49.9492  MISS %:    50.0508   MPKI: 0.03944
PSCL4 LOAD TRANSLATION INSTRUCTION	ACCESS:       2094  HIT:       1925  MISS:        169  HIT %:    91.9293  MISS %:    8.07068  MPKI: 0.00338
PSCL4 TRANSLATION FROM L1D PREFETCHER INSTRUCTION	ACCESS:         43  HIT:         43  MISS:          0  HIT %:        100  MISS %:          0  MPKI: 0
PSCL4 LOAD TRANSLATION DATA	ACCESS:       1760  HIT:          0  MISS:       1760  HIT %:          0  MISS %:        100  MPKI: 0.0352
PSCL4 TRANSLATION FROM L1D PREFETCHER DATA	ACCESS:         43  HIT:          0  MISS:         43  HIT %:          0  MISS %:        100  MPKI: 0.00086


PSCL3 TOTAL     ACCESS:       3958  HIT:       1977  MISS:       1981  HIT %:    49.9495  MISS %:    50.0505   MPKI: 0.03962
PSCL3 LOAD TRANSLATION INSTRUCTION	ACCESS:       2103  HIT:       1934  MISS:        169  HIT %:    91.9639  MISS %:    8.03614  MPKI: 0.00338
PSCL3 TRANSLATION FROM L1D PREFETCHER INSTRUCTION	ACCESS:         43  HIT:         43  MISS:          0  HIT %:        100  MISS %:          0  MPKI: 0
PSCL3 LOAD TRANSLATION DATA	ACCESS:       1769  HIT:          0  MISS:       1769  HIT %:          0  MISS %:        100  MPKI: 0.03538
PSCL3 TRANSLATION FROM L1D PREFETCHER DATA	ACCESS:         43  HIT:          0  MISS:         43  HIT %:          0  MISS %:        100  MPKI: 0.00086


PSCL2 TOTAL     ACCESS:       3905  HIT:       1901  MISS:       2004  HIT %:    48.6812  MISS %:    51.3188   MPKI: 0.04008
PSCL2 LOAD TRANSLATION INSTRUCTION	ACCESS:       2141  HIT:       1859  MISS:        282  HIT %:    86.8286  MISS %:    13.1714  MPKI: 0.00564
PSCL2 TRANSLATION FROM L1D PREFETCHER INSTRUCTION	ACCESS:         42  HIT:         42  MISS:          0  HIT %:        100  MISS %:          0  MPKI: 0
PSCL2 LOAD TRANSLATION DATA	ACCESS:       1680  HIT:          0  MISS:       1680  HIT %:          0  MISS %:        100  MPKI: 0.0336
PSCL2 TRANSLATION FROM L1D PREFETCHER DATA	ACCESS:         42  HIT:          0  MISS:         42  HIT %:          0  MISS %:        100  MPKI: 0.00084


LLC TOTAL     ACCESS:     509134  HIT:     481062  MISS:      28072  HIT %:    94.4863  MISS %:    5.51368   MPKI: 0.56144
LLC LOAD INSTRUCTION	ACCESS:     248806  HIT:     247624  MISS:       1182  HIT %:    99.5249  MISS %:   0.475069  MPKI: 0.02364
LLC LOAD TRANSLATION INSTRUCTION	ACCESS:        221  HIT:        172  MISS:         49  HIT %:    77.8281  MISS %:    22.1719  MPKI: 0.00098
LLC LOAD DATA	ACCESS:      66747  HIT:      63177  MISS:       3570  HIT %:    94.6514  MISS %:    5.34855  MPKI: 0.0714
LLC RFO DATA	ACCESS:      52046  HIT:      38960  MISS:      13086  HIT %:    74.8569  MISS %:    25.1431  MPKI: 0.26172
LLC PREFETCH DATA	ACCESS:      67920  HIT:      58137  MISS:       9783  HIT %:    85.5963  MISS %:    14.4037  MPKI: 0.19566
LLC WRITEBACK DATA	ACCESS:      72108  HIT:      71800  MISS:        308  HIT %:    99.5729  MISS %:   0.427137  MPKI: 0.00616
LLC LOAD TRANSLATION DATA	ACCESS:       1273  HIT:       1179  MISS:         94  HIT %:    92.6159  MISS %:    7.38413  MPKI: 0.00188
LLC TRANSLATION FROM L1D PREFETCHER DATA	ACCESS:         13  HIT:         13  MISS:          0  HIT %:        100  MISS %:          0  MPKI: 0

LLC AVERAGE MISS LATENCY: 156.143 cycles
LLC RQ	ACCESS:     369117	FORWARD:          0	MERGED:          0	TO_CACHE:     369106
LLC WQ	ACCESS:      72108	FORWARD:         11	MERGED:          0	TO_CACHE:      72108
LLC PQ	ACCESS:      67920	FORWARD:          0	MERGED:          0	TO_CACHE:      67920

LLC Dense regions hint to LLC: 0

RAW hits: 1877719
Loads Generated: 12631909
Loads sent to L1D: 10754190
Stores Generated: 6959228
Stores sent to L1D: 6959238
Major fault: 0 Minor fault: 2635
Allocated PAGES: 2635

stream: 
stream:times selected: 1178474
stream:pref_filled: 121919
stream:pref_useful: 24621
stream:pref_late: 6763
stream:misses: 8048
stream:misses_by_poll: 0

CS: 
CS:times selected: 179047
CS:pref_filled: 61185
CS:pref_useful: 38063
CS:pref_late: 6775
CS:misses: 15942
CS:misses_by_poll: 3

CPLX: 
CPLX:times selected: 998244
CPLX:pref_filled: 19994
CPLX:pref_useful: 4799
CPLX:pref_late: 2996
CPLX:misses: 94427
CPLX:misses_by_poll: 1

NL_L1: 
NL:times selected: 20727
NL:pref_filled: 731
NL:pref_useful: 382
NL:pref_late: 268
NL:misses: 1756
NL:misses_by_poll: 0

total selections: 2376492
total_filled: 94602
total_useful: 34272
total_late: 18333
total_polluted: 4
total_misses_after_warmup: 781909
conflicts: 5578468

test: 117057

DRAM Statistics
 CHANNEL 0
 RQ ROW_BUFFER_HIT:      10165  ROW_BUFFER_MISS:      17595
 DBUS_CONGESTED:         14
 WQ ROW_BUFFER_HIT:       1428  ROW_BUFFER_MISS:      11858  FULL:          0

 AVG_CONGESTED_CYCLE: 5

CPU 0 Branch Prediction Accuracy: 99.8084% MPKI: 0.35088 Average ROB Occupancy at Mispredict: 143.252
Branch types
NOT_BRANCH: 40844469 81.6889%
BRANCH_DIRECT_JUMP: 547904 1.09581%
BRANCH_INDIRECT: 182092 0.364184%
BRANCH_CONDITIONAL: 6178926 12.3579%
BRANCH_DIRECT_CALL: 950809 1.90162%
BRANCH_INDIRECT_CALL: 172365 0.34473%
BRANCH_RETURN: 1123158 2.24632%
BRANCH_OTHER: 0 0%

DRAM PAGES: 1048576
Allocated PAGES: 2635
Average_ROB_Occupancy: 170.283
Average_Decode_Occupancy: 20.0189
Average_FTQ_Occupancy: 8.4603
Indirect max targets: 14 Average targets: 1.17891
Branch_type:  BRANCH_DIRECT_JUMP:  Count Percentage: 3.77612 4.78447 4.81563 8.46363 2.40745 6.01232 1.56598 68.1744 
Branch_type:  BRANCH_INDIRECT:  Count Percentage: 6.10758 3.37609 8.14042 9.6785 3.35386 2.81766 3.90159 62.6243 
Branch_type:  BRANCH_CONDITIONAL:  Count Percentage: 25.4249 2.35007 1.55286 4.60623 2.44852 3.59382 2.11989 57.9037 
Branch_type:  BRANCH_DIRECT_CALL:  Count Percentage: 0.916119 1.32111 0.714232 3.88468 3.20291 2.6904 3.03686 84.2337 
Branch_type:  BRANCH_INDIRECT_CALL:  Count Percentage: 9.57683 0 3.00511 0.00087324 0.922724 1.71999 4.99639 79.7781 
Branch_type:  BRANCH_RETURN:  Count Percentage: 8.33508 1.23035 1.01714 3.87704 4.217 3.48128 2.68701 75.1551 
Branch_type:  BRANCH_DIRECT_JUMP:  Total Count: 41321 52355 52696 92615 26344 65791 17136 746012 
Branch_type:  BRANCH_INDIRECT:  Total Count: 22257 12303 29665 35270 12222 10268 14218 228213 
Branch_type:  BRANCH_CONDITIONAL:  Total Count: 3139812 290218 191768 568840 302376 443813 261793 7150729 
Branch_type:  BRANCH_DIRECT_CALL:  Total Count: 17357 25030 13532 73600 60683 50973 57537 1595911 
Branch_type:  BRANCH_INDIRECT_CALL:  Total Count: 32901 0 10324 3 3170 5909 17165 274076 
Branch_type:  BRANCH_RETURN:  Total Count: 186625 27548 22774 86808 94420 77947 60163 1682745 
Number of unique branch instructions: 10759
Upper 32 bits: 
aaaa
ffff
ffff0000
Unique upper 32 bits: 3
Unique upper 36 bits: 3
Unique upper 40 bits: 5
Unique upper 44 bits: 32
Unique upper 48 bits: 158
Variant_0 : 1397 0.341064
Variant_1 : 2677 0.653564
Variant_2 : 0 0
Variant_3 : 0 0
Offset_3 4455
Offset_4 260
Offset_5 482
Offset_6 538
Offset_7 639
Offset_8 578
Offset_9 511
Offset_10 421
Offset_11 352
Offset_12 325
Offset_13 240
Offset_14 247
Offset_15 199
Offset_16 231
Offset_17 165
Offset_18 152
Offset_19 262
Offset_20 146
Offset_21 235
Offset_22 410
Offset_23 241
Offset_24 346
Offset_25 117
Offset_47 92
Offset_64 2
decode_dispatch_called: 21723742 56.5634
Dispatch_width: 0 11229376 51.6917 29.2386
Dispatch_width: 1 665671 3.06426 1.73325
Dispatch_width: 2 703487 3.23833 1.83171
Dispatch_width: 3 468407 2.1562 1.21962
Dispatch_width: 4 2566348 11.8136 6.68215
Dispatch_width: 5 286220 1.31754 0.745248
Dispatch_width: 6 5804233 26.7184 15.1128
Empty_decode_cycles: 16682260 43.4366
ROB_full_cycles: 3844424 10.01
Starvation_cycles_per_kilo_instr: 287.573
Starvation_cycles_per_kilo_instr_3: 259.048
Starvation_cycles_per_kilo_instr_0: 240.672
Branch_type_1  (3,1)  (4,9)  (5,39)  (6,72)  (7,124)  (8,149)  (9,134)  (10,110)  (11,79)  (12,55)  (13,11)  (14,2)  (15,3)  (16,4)  (18,1)  (19,5)  (20,2)  (21,1)  (22,3)  (23,2)  (24,10)  (25,12)  (64,1) 
Branch_type_2  (3,1)  (4,1)  (5,1)  (8,4)  (9,4)  (10,1)  (12,1)  (13,1)  (14,1)  (16,3)  (17,2)  (20,2)  (21,2)  (23,5)  (24,1)  (47,41) 
Branch_type_3  (3,4453)  (4,250)  (5,438)  (6,449)  (7,484)  (8,358)  (9,278)  (10,169)  (11,137)  (12,62)  (13,10)  (24,1)  (64,1) 
Branch_type_4  (6,4)  (7,8)  (8,26)  (9,57)  (10,67)  (11,70)  (12,116)  (13,102)  (14,112)  (15,95)  (16,102)  (17,76)  (18,65)  (19,127)  (20,74)  (21,124)  (22,216)  (23,136)  (24,200)  (25,101) 
Branch_type_5  (8,3)  (9,1)  (10,4)  (11,5)  (12,3)  (13,14)  (14,16)  (15,11)  (16,22)  (17,11)  (18,23)  (19,14)  (20,11)  (21,13)  (22,43)  (23,26)  (24,38) 
Branch_type_6  (5,4)  (6,13)  (7,23)  (8,38)  (9,37)  (10,70)  (11,61)  (12,88)  (13,102)  (14,116)  (15,90)  (16,100)  (17,76)  (18,63)  (19,116)  (20,57)  (21,95)  (22,148)  (23,72)  (24,96)  (25,4)  (47,51) 
Unique trigger count: 
Variant_0_evicts_0 : 0
Variant_0_evicts_1 : 0
Variant_0_evicts_2 : 0
Variant_0_evicts_3 : 0
Variant_1_evicts_0 : 0
Variant_1_evicts_1 : 0
Variant_1_evicts_2 : 0
Variant_1_evicts_3 : 0
Variant_2_evicts_0 : 0
Variant_2_evicts_1 : 0
Variant_2_evicts_2 : 0
Variant_2_evicts_3 : 0
Variant_3_evicts_0 : 0
Variant_3_evicts_1 : 0
Variant_3_evicts_2 : 0
Variant_3_evicts_3 : 0
BTB PER SET UNIQUE ADDR: 12 12 12 11 15 12 9 11 11 13 11 13 15 12 15 12 8 17 14 15 13 10 11 13 11 15 14 14 15 10 15 11 11 10 8 9 12 12 10 8 11 9 13 15 9 11 14 11 8 11 17 13 11 12 11 7 8 8 13 11 10 14 11 8 12 16 9 10 11 12 8 11 9 11 13 7 9 11 10 12 21 11 7 17 11 9 13 9 11 16 11 10 12 13 10 12 8 11 13 13 19 15 12 10 13 12 9 10 7 10 9 14 15 11 10 8 13 10 8 15 18 12 10 11 13 9 6 13 18 10 8 9 10 11 12 13 11 12 9 13 10 15 13 7 13 12 19 11 10 14 14 11 11 15 8 11 13 11 16 12 12 11 12 12 9 12 15 9 11 10 14 8 13 15 9 9 12 11 13 11 9 15 10 14 11 16 7 12 16 12 13 12 10 15 14 10 10 9 12 13 14 14 8 10 13 13 11 6 9 10 8 12 14 9 11 13 16 12 10 16 11 13 8 12 5 11 17 13 12 13 13 7 11 11 11 14 16 10 9 7 12 13 11 15 13 7 8 10 10 10 9 15 11 9 13 10 8 6 12 10 17 9 5 12 10 10 10 11 16 15 12 17 10 7 6 11 9 19 9 11 8 10 6 10 15 11 12 14 16 10 10 12 15 12 8 14 12 14 13 10 10 8 9 19 13 11 10 11 13 13 6 12 10 17 10 7 15 10 11 13 9 13 9 13 15 13 11 6 12 13 12 11 10 10 9 14 12 9 10 19 13 12 9 15 13 10 10 11 10 13 14 11 8 18 11 12 12 10 10 11 11 12 9 11 11 12 7 13 16 9 10 9 9 13 10 11 10 12 9 13 13 8 9 10 13 13 15 19 10 14 15 11 9 16 10 9 11 11 15 10 10 13 13 17 13 11 13 12 13 11 17 7 12 15 12 11 14 18 17 17 9 11 13 17 14 11 12 11 11 10 16 9 11 11 16 10 12 6 10 9 10 10 14 11 18 4 7 12 12 12 15 22 10 10 13 15 11 11 13 14 6 9 13 15 12 9 9 9 6 11 15 9 9 11 12 13 8 12 11 12 15 16 10 10 10 11 11 19 18 14 10 15 8 9 10 12 15 13 12 10 10 15 10 16 14 10 9 14 14 13 8 11 14 8 14 11 13 14 14 6 13 13 9 12 10 15 18 8 6 14 16 12 11 11 13 12 9 16 10 9 12 6 14 10 13 14 10 13 9 11 11 17 10 9 13 15 13 11 11 10 11 14 12 13 8 14 11 12 13 8 12 10 9 12 8 13 14 12 11 16 13 13 10 10 11 11 11 13 11 10 8 11 15 11 14 7 10 17 10 13 10 9 12 9 12 15 17 11 12 13 15 17 11 10 8 12 10 13 15 14 18 14 7 10 8 15 15 15 11 14 8 13 14 8 9 12 11 13 8 9 12 14 11 11 6 11 9 12 14 12 10 9 10 10 18 16 8 15 12 12 9 6 11 16 10 10 8 10 10 12 16 14 11 16 16 6 13 13 10 16 12 12 9 14 10 13 13 11 12 15 8 16 12 9 13 14 8 10 9 12 11 12 12 12 8 16 10 8 10 8 12 15 11 9 12 12 13 11 10 15 11 10 8 15 6 12 8 6 12 11 12 9 16 9 9 9 11 9 16 12 12 14 19 11 16 17 13 12 12 15 13 13 9 13 9 12 16 13 8 8 10 9 11 8 17 15 9 14 10 13 13 11 12 10 11 10 11 13 13 16 8 8 11 11 9 9 8 17 7 10 9 8 15 10 11 12 9 13 13 11 12 13 17 11 17 10 14 13 12 7 9 17 14 13 10 13 15 15 9 16 13 16 12 10 10 15 11 9 10 14 12 16 13 9 8 13 8 12 9 10 10 10 9 15 12 14 12 11 12 11 8 10 11 11 11 15 17 16 13 12 6 10 10 11 14 13 8 10 16 10 11 14 13 11 13 10 13 11 10 13 17 9 11 10 13 13 14 11 11 12 15 11 12 12 11 12 13 12 11 9 12 8 11 15 5 12 11 16 11 12 10 13 14 11 10 12 16 8 18 12 14 14 9 12 10 12 4 9 11 8 16 15 14 13 11 16 12 6 11 19 9 16 12 13 9 12 15 8 11 9 8 13 8 16 7 11 10 10 12 12 12 13 9 12 8 7 11 11 7 10 13 14 9 15 11 11 13 10 14 17 10 13 10 8 13 15 17 13 15 9 10 9 13 10 14 8 10 13 17 13 15 18 11 15 12 15 13 13 13 11 13 16 9 7 13 9 8 9 9 13 9 18 12 7 
BTB PER SET COUNT: 23 15 1887 14 17 15 911 11 1483 17 14 577 18808 24 18 15 13 28 402 29 22 15 130 15 16 18 16 144 381 12 487 18 14 11 8 979 15 14 16 10 11 18 18 30 12 19 483 16 12 49 27 16 15 27 15 351 11 8 453 24 16 18 13 9 16 376 10 19 17 16 114 487 10 13 20 10 12 12 14 15 571 16 25 22 14 31 16 10 19 18 13 663 462 17 13 15 308 13 16 13 26 17 13 12 4151 18 10 10 1852 2872 9 33 856 14 16 20 13 14 1479 848 939 28 11 15 14 190 8 192 20 11 9 14 405 16 17 20 187 20 15 20 12 116 20 9 14 99 31 14 13 119 23 262 385 24 10 19 30 12 73 18 25 177 17 17 163 179 16 11 13 1838 22 8 22 24 14 616 20 17 21 11 613 21 957 18 13 715 7 18 249 370 17 14 13 17 20 15 10 236 15 25 15 19 1006 13 18 15 14 9 10 960 11 17 22 11 12 95 28 16 520 17 13 18 383 20 7 27 20 22 17 22 15 7 15 15 754 19 34 58 11 7 19 17 12 23 23 10 8 12 10 16 14 19 11 9 19 13 13 6 14 26 857 16 5 491 10 13 15 15 255 20 18 23 15 7 593 15 10 30 14 16 23 12 7 12 18 13 16 20 22 10 14 15 16 21 8 19 15 21 17 18 12 11 9 27 14 20 98 29 21 861 18 15 14 23 49 7 23 12 16 21 12 190 14 18 19 34 264 7 14 15 15 11 23 13 9 16 18 1011 13 104 16 13 11 19 65 32 12 18 13 24 29 1479 13 23 17 12 21 10 513 15 15 15 11 15 14 69 7 16 21 10 12 100 11 518 16 11 11 12 10 1382 569 8 11 14 18 21 301 29 13 1130 67 13 10 20 16 81 13 11 310 990 13 19 181 23 17 16 15 495 18 14 49 7 16 23 13 21 18 27 27 24 10 28 25 22 26 15 254 15 14 14 63 10 14 22 287 18 18 78 13 11 10 16 50 16 1050 4 7 20 13 26 38 744 13 13 622 2150 13 16 14 22 7 12 25 29 12 23 20 14 8 13 23 13 16 19 18 17 11 31 17 22 15 20 11 10 11 572 12 30 27 20 21 24 13 32 12 158 1158 612 17 16 32 36 11 30 23 12 9 17 18 14 13 191 1344 427 19 19 19 19 25 8 18 23 11 527 12 23 3019 10 9 1500 26 19 246 12 22 15 9 971 15 10 17 6 35 13 27 16 11 17 11 408 16 28 1007 974 20 25 18 12 18 12 15 26 14 15 17 24 21 14 24 9 15 11 16 26 10 15 21 22 15 21 22 19 24 1406 12 19 20 13 14 13 12 329 20 17 29 11 1461 382 18 18 20 12 21 11 16 28 32 1396 18 20 24 369 18 10 8 18 15 13 823 28 21 15 9 880 11 17 24 20 130 422 13 17 33 8 9 13 12 966 9 10 13 24 12 15 7 167 289 13 15 15 10 13 11 15 36 171 8 23 13 672 18 8 12 19 2032 15 9 593 440 13 22 18 78 27 21 6 19 15 13 20 16 13 3480 275 22 17 20 15 20 20 9 26 19 14 2454 19 10 13 13 14 1007 20 1489 15 11 20 13 9 11 9 19 285 960 11 15 99 114 25 13 455 12 1010 12 542 6 14 10 7 14 19 16 20 23 13 15 19 18 9 52 15 486 23 30 101 253 23 1198 15 16 16 1490 18 12 891 9 16 19 120 9 9 12 9 17 10 38 22 12 32 10 53 13 15 19 14 17 12 11 754 34 36 1455 8 203 20 16 11 9 30 7 18 474 80 22 13 1209 454 9 22 18 145 353 15 27 13 55 13 17 18 22 7 9 7772 25 651 16 884 117 2320 10 50 22 1091 13 14 14 23 16 10 12 26 17 32 15 11 9 972 10 15 959 13 10 1374 10 19 1538 23 20 13 18 14734 114 942 456 17 13 22 63 18 17 16 8 12 11 13 19 23 10 13 20 48 26 41 16 14 21 13 16 16 2133 17 22 16 14 12 960 429 24 13 13 38 22 15 1099 38 11 16 17 14 14 13 15 10 14 263 5 13 17 23 15 12 13 811 15 16 15 14 615 1011 24 57 23 415 967 18 17 94 5 10 17 21 35 18 1385 19 69 33 23 7 1344 27 10 1200 15 16 10 354 28 10 15 11 8 1013 15 4091 8 15 39 10 159 1653 99 15 926 17 8 12 519 11 11 14 68 2018 14 29 17 15 14 12 207 26 14 23 15 959 17 20 56 967 17 10 14 9 17 13 987 9 17 1492 32 17 113 71 14 24 13 901 17 18 14 1013 191 678 9 8 22 9 9 286 11 13 11 28 17 9 
To predecode: 0
Predecoding something: 0
Predecode request dropped: 0
sizeofblock_0 0
sizeofblock_1 51874
sizeofblock_2 89091
sizeofblock_3 0
sizeofblock_4 0
sizeofblock_5 0
sizeofblock_6 0
sizeofblock_7 0
sizeofblock_8 0
Variant_0 Correct: 1616644 Incorrect: 0 Accuracy: 1
Variant_1 Correct: 5752960 Incorrect: 0 Accuracy: 1
Variant_2 Correct: 0 Incorrect: 0 Accuracy: -nan
Variant_3 Correct: 0 Incorrect: 0 Accuracy: -nan
