
*** ChampSim Multicore Out-of-Order Simulator ***

Warmup Instructions: 50000000
Simulation Instructions: 50000000
Number of CPUs: 1
LLC sets: 2048
LLC ways: 16
Off-chip DRAM Size: 4096 MB Channels: 1 Width: 64-bit Data Rate: 6400 MT/s
CPU 0 runs ./micro_traces/srv163.trace.gz
.gz
ITLB has LRU replacement policy
DTLB has LRU replacement policy
STLB has LRU replacement policy
FDIP Prefetcher at L1I
L1I has LRU replacement policy
L1D has LRU replacement policy
Initialize SRRIP state for L2C
Initialize DRRIP state for LLC
Heartbeat_Variant_0 : 1329 0.324463 per_variant_size: 0 1329 0 0 0 0 0 0 0 
Heartbeat_Variant_1 : 1200 0.292969 per_variant_size: 0 559 641 0 0 0 0 0 0 
Heartbeat_Variant_2 : 1327 0.323975 per_variant_size: 0 552 364 226 185 0 0 0 0 
Heartbeat_Variant_3 : 0 0 per_variant_size: 0 0 0 0 0 0 0 0 0 
Heartbeat_Variant_0_evicts 0 : 5807 1 : 276 2 : 253 3 : 0 
Heartbeat_Variant_1_evicts 0 : 282 1 : 0 2 : 407 3 : 0 
Heartbeat_Variant_2_evicts 0 : 232 1 : 436 2 : 0 3 : 0 
Heartbeat_Variant_3_evicts 0 : 0 1 : 0 2 : 0 3 : 0 
Heartbeat CPU 0 instructions: 10000001 cycles: 2798052 heartbeat IPC: 3.57392 cumulative IPC: 3.57392 (Simulation time: 0 hr 1 min 38 sec) 
Heartbeat_Variant_0 : 1356 0.331055 per_variant_size: 0 1356 0 0 0 0 0 0 0 
Heartbeat_Variant_1 : 1229 0.300049 per_variant_size: 0 565 664 0 0 0 0 0 0 
Heartbeat_Variant_2 : 1340 0.327148 per_variant_size: 0 527 377 237 199 0 0 0 0 
Heartbeat_Variant_3 : 0 0 per_variant_size: 0 0 0 0 0 0 0 0 0 
Heartbeat_Variant_0_evicts 0 : 5754 1 : 89 2 : 88 3 : 0 
Heartbeat_Variant_1_evicts 0 : 87 1 : 0 2 : 280 3 : 0 
Heartbeat_Variant_2_evicts 0 : 75 1 : 274 2 : 0 3 : 0 
Heartbeat_Variant_3_evicts 0 : 0 1 : 0 2 : 0 3 : 0 
Heartbeat CPU 0 instructions: 20000001 cycles: 5594679 heartbeat IPC: 3.57574 cumulative IPC: 3.57483 (Simulation time: 0 hr 3 min 16 sec) 
Heartbeat_Variant_0 : 1381 0.337158 per_variant_size: 0 1381 0 0 0 0 0 0 0 
Heartbeat_Variant_1 : 1284 0.313477 per_variant_size: 0 516 768 0 0 0 0 0 0 
Heartbeat_Variant_2 : 1373 0.335205 per_variant_size: 0 509 400 236 228 0 0 0 0 
Heartbeat_Variant_3 : 0 0 per_variant_size: 0 0 0 0 0 0 0 0 0 
Heartbeat_Variant_0_evicts 0 : 5906 1 : 359 2 : 367 3 : 0 
Heartbeat_Variant_1_evicts 0 : 365 1 : 0 2 : 520 3 : 0 
Heartbeat_Variant_2_evicts 0 : 362 1 : 519 2 : 0 3 : 0 
Heartbeat_Variant_3_evicts 0 : 0 1 : 0 2 : 0 3 : 0 
Heartbeat CPU 0 instructions: 30000003 cycles: 8390388 heartbeat IPC: 3.57691 cumulative IPC: 3.57552 (Simulation time: 0 hr 4 min 53 sec) 
Heartbeat_Variant_0 : 1380 0.336914 per_variant_size: 0 1380 0 0 0 0 0 0 0 
Heartbeat_Variant_1 : 1286 0.313965 per_variant_size: 0 523 763 0 0 0 0 0 0 
Heartbeat_Variant_2 : 1377 0.336182 per_variant_size: 0 517 390 242 228 0 0 0 0 
Heartbeat_Variant_3 : 0 0 per_variant_size: 0 0 0 0 0 0 0 0 0 
Heartbeat_Variant_0_evicts 0 : 5542 1 : 25 2 : 21 3 : 0 
Heartbeat_Variant_1_evicts 0 : 29 1 : 0 2 : 213 3 : 0 
Heartbeat_Variant_2_evicts 0 : 18 1 : 217 2 : 0 3 : 0 
Heartbeat_Variant_3_evicts 0 : 0 1 : 0 2 : 0 3 : 0 
Heartbeat CPU 0 instructions: 40000002 cycles: 11186533 heartbeat IPC: 3.57635 cumulative IPC: 3.57573 (Simulation time: 0 hr 6 min 32 sec) 
Heartbeat_Variant_0 : 1391 0.3396 per_variant_size: 0 1391 0 0 0 0 0 0 0 
Heartbeat_Variant_1 : 1295 0.316162 per_variant_size: 0 545 750 0 0 0 0 0 0 
Heartbeat_Variant_2 : 1376 0.335938 per_variant_size: 0 505 395 253 223 0 0 0 0 
Heartbeat_Variant_3 : 0 0 per_variant_size: 0 0 0 0 0 0 0 0 0 
Heartbeat_Variant_0_evicts 0 : 5840 1 : 177 2 : 224 3 : 0 
Heartbeat_Variant_1_evicts 0 : 191 1 : 0 2 : 367 3 : 0 
Heartbeat_Variant_2_evicts 0 : 202 1 : 380 2 : 0 3 : 0 
Heartbeat_Variant_3_evicts 0 : 0 1 : 0 2 : 0 3 : 0 
Heartbeat CPU 0 instructions: 50000001 cycles: 13982671 heartbeat IPC: 3.57636 cumulative IPC: 3.57585 (Simulation time: 0 hr 8 min 8 sec) 

Warmup complete CPU 0 instructions: 50000001 cycles: 13982671 (Simulation time: 0 hr 8 min 8 sec) 

Cycle: 20000000 FTQ IN: 58468279 FTQ occupancy: 20.52 DECODE IN: 58468163 DECODE occupancy: 53.3769 ROB IN: 58468103 ROB occupancy: 318.84 ROB OUT: 58467751
Heartbeat_Variant_0 : 1393 0.340088 per_variant_size: 0 1393 0 0 0 0 0 0 0 
Heartbeat_Variant_1 : 1299 0.317139 per_variant_size: 0 552 747 0 0 0 0 0 0 
Heartbeat_Variant_2 : 1371 0.334717 per_variant_size: 0 497 396 256 222 0 0 0 0 
Heartbeat_Variant_3 : 0 0 per_variant_size: 0 0 0 0 0 0 0 0 0 
Heartbeat_Variant_0_evicts 0 : 5561 1 : 22 2 : 5 3 : 0 
Heartbeat_Variant_1_evicts 0 : 21 1 : 0 2 : 208 3 : 0 
Heartbeat_Variant_2_evicts 0 : 4 1 : 204 2 : 0 3 : 0 
Heartbeat_Variant_3_evicts 0 : 0 1 : 0 2 : 0 3 : 0 
Heartbeat CPU 0 instructions: 60000002 cycles: 21097612 heartbeat IPC: 1.40549 cumulative IPC: 1.40549 (Simulation time: 0 hr 10 min 5 sec) 
Heartbeat_Variant_0 : 1389 0.339111 per_variant_size: 0 1389 0 0 0 0 0 0 0 
Heartbeat_Variant_1 : 1306 0.318848 per_variant_size: 0 564 742 0 0 0 0 0 0 
Heartbeat_Variant_2 : 1370 0.334473 per_variant_size: 0 494 399 253 224 0 0 0 0 
Heartbeat_Variant_3 : 0 0 per_variant_size: 0 0 0 0 0 0 0 0 0 
Heartbeat_Variant_0_evicts 0 : 5740 1 : 51 2 : 44 3 : 0 
Heartbeat_Variant_1_evicts 0 : 49 1 : 0 2 : 248 3 : 0 
Heartbeat_Variant_2_evicts 0 : 50 1 : 240 2 : 0 3 : 0 
Heartbeat_Variant_3_evicts 0 : 0 1 : 0 2 : 0 3 : 0 
Heartbeat CPU 0 instructions: 70000001 cycles: 28258007 heartbeat IPC: 1.39657 cumulative IPC: 1.40102 (Simulation time: 0 hr 12 min 4 sec) 
Cycle: 30000000 FTQ IN: 13969032 FTQ occupancy: 14.8206 DECODE IN: 13969024 DECODE occupancy: 37.7681 ROB IN: 13969024 ROB occupancy: 249.81 ROB OUT: 13969028
Heartbeat_Variant_0 : 1386 0.338379 per_variant_size: 0 1386 0 0 0 0 0 0 0 
Heartbeat_Variant_1 : 1320 0.322266 per_variant_size: 0 595 725 0 0 0 0 0 0 
Heartbeat_Variant_2 : 1363 0.332764 per_variant_size: 0 486 402 258 217 0 0 0 0 
Heartbeat_Variant_3 : 0 0 per_variant_size: 0 0 0 0 0 0 0 0 0 
Heartbeat_Variant_0_evicts 0 : 5638 1 : 88 2 : 79 3 : 0 
Heartbeat_Variant_1_evicts 0 : 97 1 : 0 2 : 309 3 : 0 
Heartbeat_Variant_2_evicts 0 : 73 1 : 306 2 : 0 3 : 0 
Heartbeat_Variant_3_evicts 0 : 0 1 : 0 2 : 0 3 : 0 
Heartbeat CPU 0 instructions: 80000003 cycles: 35367816 heartbeat IPC: 1.40651 cumulative IPC: 1.40284 (Simulation time: 0 hr 14 min 0 sec) 
Cycle: 40000000 FTQ IN: 14079658 FTQ occupancy: 14.8179 DECODE IN: 14079738 DECODE occupancy: 38.0282 ROB IN: 14079752 ROB occupancy: 251.211 ROB OUT: 14079913
Heartbeat_Variant_0 : 1384 0.337891 per_variant_size: 0 1384 0 0 0 0 0 0 0 
Heartbeat_Variant_1 : 1322 0.322754 per_variant_size: 0 606 716 0 0 0 0 0 0 
Heartbeat_Variant_2 : 1363 0.332764 per_variant_size: 0 489 394 258 222 0 0 0 0 
Heartbeat_Variant_3 : 0 0 per_variant_size: 0 0 0 0 0 0 0 0 0 
Heartbeat_Variant_0_evicts 0 : 5462 1 : 36 2 : 25 3 : 0 
Heartbeat_Variant_1_evicts 0 : 38 1 : 0 2 : 229 3 : 0 
Heartbeat_Variant_2_evicts 0 : 25 1 : 229 2 : 0 3 : 0 
Heartbeat_Variant_3_evicts 0 : 0 1 : 0 2 : 0 3 : 0 
Heartbeat CPU 0 instructions: 90000000 cycles: 42569342 heartbeat IPC: 1.38859 cumulative IPC: 1.39925 (Simulation time: 0 hr 15 min 56 sec) 
Heartbeat_Variant_0 : 1394 0.340332 per_variant_size: 0 1394 0 0 0 0 0 0 0 
Heartbeat_Variant_1 : 1318 0.321777 per_variant_size: 0 593 725 0 0 0 0 0 0 
Heartbeat_Variant_2 : 1363 0.332764 per_variant_size: 0 501 365 276 221 0 0 0 0 
Heartbeat_Variant_3 : 0 0 per_variant_size: 0 0 0 0 0 0 0 0 0 
Heartbeat_Variant_0_evicts 0 : 5690 1 : 113 2 : 115 3 : 0 
Heartbeat_Variant_1_evicts 0 : 117 1 : 0 2 : 294 3 : 0 
Heartbeat_Variant_2_evicts 0 : 101 1 : 305 2 : 0 3 : 0 
Heartbeat_Variant_3_evicts 0 : 0 1 : 0 2 : 0 3 : 0 
Heartbeat CPU 0 instructions: 100000003 cycles: 49693607 heartbeat IPC: 1.40365 cumulative IPC: 1.40013 (Simulation time: 0 hr 17 min 51 sec) 
Finished CPU 0 instructions: 50000002 cycles: 35710936 cumulative IPC: 1.40013 (Simulation time: 0 hr 17 min 51 sec) 

ChampSim completed all CPUs

Region of Interest Statistics

CPU 0 cumulative IPC: 1.40013 instructions: 50000002 cycles: 35710936
 Fetch stage stalled: 46.0393  Sim cycles: 35710936 fetch stall cycle: 16441083
 Empty decode stage: 25.9894  Sim cycles: 35710936 fetch stall cycle: 9281072
ITLB TOTAL     ACCESS:    5833522  HIT:    5337695  MISS:     495827  HIT %:    91.5004  MISS %:    8.49962   MPKI: 9.91654
ITLB LOAD TRANSLATION INSTRUCTION	ACCESS:    5700333  HIT:    5204506  MISS:     495827  HIT %:    91.3018  MISS %:    8.69821  MPKI: 9.91654
ITLB TRANSLATION FROM L1D PREFETCHER INSTRUCTION	ACCESS:     133189  HIT:     133189  MISS:          0  HIT %:        100  MISS %:          0  MPKI: 0

ITLB AVERAGE MISS LATENCY: 9.0414 cycles
ITLB RQ	ACCESS:    7943162	FORWARD:          0	MERGED:    1623961	TO_CACHE:    6319201

DTLB TOTAL     ACCESS:    8947606  HIT:    8473012  MISS:     474594  HIT %:    94.6959  MISS %:    5.30415   MPKI: 9.49188
DTLB LOAD TRANSLATION DATA	ACCESS:    8947606  HIT:    8473012  MISS:     474594  HIT %:    94.6959  MISS %:    5.30415  MPKI: 9.49188

DTLB AVERAGE MISS LATENCY: 9.30083 cycles
DTLB RQ	ACCESS:   13324187	FORWARD:          0	MERGED:    4339740	TO_CACHE:    8984447

STLB TOTAL     ACCESS:    1214574  HIT:    1212686  MISS:       1888  HIT %:    99.8446  MISS %:   0.155445   MPKI: 0.03776
STLB LOAD TRANSLATION INSTRUCTION	ACCESS:     495827  HIT:     495611  MISS:        216  HIT %:    99.9564  MISS %:  0.0435636  MPKI: 0.00432
STLB LOAD TRANSLATION DATA	ACCESS:     474594  HIT:     472940  MISS:       1654  HIT %:    99.6515  MISS %:   0.348508  MPKI: 0.03308
STLB TRANSLATION FROM L1D PREFETCHER DATA	ACCESS:     244153  HIT:     244135  MISS:         18  HIT %:    99.9926  MISS %: 0.00737243  MPKI: 0.00036

STLB AVERAGE MISS LATENCY: 71.17 cycles
STLB RQ	ACCESS:    1334429	FORWARD:          0	MERGED:     119809	TO_CACHE:    1214620

STLB Hit, L1D data hit: 0
STLB Hit, L2C data hit: 0
STLB Hit, LLC data hit: 0
STLB Hit, LLC data miss: 0
STLB STLB hints to L2: 0
L1D TOTAL     ACCESS:   13070345  HIT:   11953361  MISS:    1116984  HIT %:    91.4541  MISS %:    8.54594   MPKI: 22.3397
L1D LOAD DATA	ACCESS:    6537646  HIT:    5800137  MISS:     737509  HIT %:     88.719  MISS %:     11.281  MPKI: 14.7502
L1D RFO DATA	ACCESS:    6208935  HIT:    5924123  MISS:     284812  HIT %:    95.4129  MISS %:    4.58713  MPKI: 5.69624
L1D PREFETCH DATA	ACCESS:     323764  HIT:     229101  MISS:      94663  HIT %:    70.7617  MISS %:    29.2383  MPKI: 1.89326

L1D PREFETCH  REQUESTED:     728340  ISSUED:     728340  USEFUL:      33557  USELESS:      68573
L1D USEFUL LOAD PREFETCHES:      33557 PREFETCH ISSUED TO LOWER LEVEL:     102215  ACCURACY: 32.8298
 TIMELY PREFETCHES:      33557 LATE PREFETCHES: 7472 DROPPED PREFETCHES: 9
L1D AVERAGE MISS LATENCY: 218268 cycles
L1D RQ	ACCESS:   10672243	FORWARD:          0	MERGED:    3934833	TO_CACHE:    6571923
L1D WQ	ACCESS:    6949899	FORWARD:     165813	MERGED:     197635	TO_CACHE:    6752264
L1D PQ	ACCESS:     364333	FORWARD:          0	MERGED:          0	TO_CACHE:     364007

L1D UNIQUE REGIONS ACCESSED: 0
L1D REGIONS CONFLICTS: 0
L1D Cross Page Prefetch Requests: 6783
L1D Same Page Prefetch Requests: 741151
L1D ROI Sum of L1D PQ occupancy: 4619034
L1D PREFETCHES PUSHED FROM L2C: 0
L1I TOTAL     ACCESS:    7125505  HIT:    4354585  MISS:    2770920  HIT %:    61.1127  MISS %:    38.8873   MPKI: 55.4184
L1I LOAD INSTRUCTION	ACCESS:    6457988  HIT:    3687068  MISS:    2770920  HIT %:    57.0931  MISS %:    42.9069  MPKI: 55.4184
L1I PREFETCH INSTRUCTION	ACCESS:     667517  HIT:     667517  MISS:          0  HIT %:        100  MISS %:          0  MPKI: 0

L1I PREFETCH  REQUESTED:    1615908  ISSUED:    1615908  USEFUL:          0  USELESS:          0
L1I USEFUL LOAD PREFETCHES:          0 PREFETCH ISSUED TO LOWER LEVEL:          0  ACCURACY: -nan
 TIMELY PREFETCHES:          0 LATE PREFETCHES: 0 DROPPED PREFETCHES: 0
L1I AVERAGE MISS LATENCY: 17.0925 cycles
L1I RQ	ACCESS:    9567716	FORWARD:          0	MERGED:    2809822	TO_CACHE:    6757894
L1I PQ	ACCESS:    1615908	FORWARD:          0	MERGED:     430640	TO_CACHE:    1185268

L1BTB TOTAL     ACCESS:    5671509  HIT:    2033290  MISS:    3638219  HIT %:     35.851  MISS %:     64.149   MPKI: 72.7644
L1BTB BRANCH_DIRECT_JUMP	ACCESS:     547554  HIT:     143678  MISS:     403876	AVERAGE STALL: 59.7192
L1BTB BRANCH_INDIRECT	ACCESS:     182354  HIT:      65533  MISS:     116821	AVERAGE STALL: 110.545
L1BTB BRANCH_CONDITIONAL	ACCESS:    2697957  HIT:    1402956  MISS:    1295001	AVERAGE STALL: 78.2462
L1BTB BRANCH_DIRECT_CALL	ACCESS:     949034  HIT:     106963  MISS:     842071	AVERAGE STALL: 78.6624
L1BTB BRANCH_INDIRECT_CALL	ACCESS:     172786  HIT:      21966  MISS:     150820	AVERAGE STALL: 142.132
L1BTB BRANCH_RETURN	ACCESS:    1121824  HIT:     292194  MISS:     829630	AVERAGE STALL: 52.2298
L1BTB BRANCH_OTHER ACCESS:          0  HIT:          0  MISS:          0	AVERAGE STALL: -nan
L1BTB TOTAL ROB OCCUPANCY AT BTB MISS: 2.65481

L2BTB TOTAL     ACCESS:    3612960  HIT:    3548478  MISS:      64482  HIT %:    98.2153  MISS %:    1.78474   MPKI: 1.28964
L2BTB BRANCH_DIRECT_JUMP	ACCESS:     399775  HIT:     394787  MISS:       4988	AVERAGE STALL: 59.7192
L2BTB BRANCH_INDIRECT	ACCESS:     106550  HIT:     103837  MISS:       2713	AVERAGE STALL: 110.545
L2BTB BRANCH_CONDITIONAL	ACCESS:    1295001  HIT:    1290876  MISS:       4125	AVERAGE STALL: 78.2462
L2BTB BRANCH_DIRECT_CALL	ACCESS:     842071  HIT:     840575  MISS:       1496	AVERAGE STALL: 78.6624
L2BTB BRANCH_INDIRECT_CALL	ACCESS:     141347  HIT:     131251  MISS:      10096	AVERAGE STALL: 142.132
L2BTB BRANCH_RETURN	ACCESS:     828216  HIT:     787152  MISS:      41064	AVERAGE STALL: 52.2298
L2BTB BRANCH_OTHER ACCESS:          0  HIT:          0  MISS:          0	AVERAGE STALL: -nan
L2BTB TOTAL ROB OCCUPANCY AT BTB MISS: 149.79

L2C TOTAL     ACCESS:    4486086  HIT:    4048973  MISS:     437113  HIT %:    90.2563  MISS %:    9.74375   MPKI: 8.74226
L2C LOAD INSTRUCTION	ACCESS:    2770919  HIT:    2524427  MISS:     246492  HIT %:    91.1043  MISS %:    8.89568  MPKI: 4.92984
L2C LOAD TRANSLATION INSTRUCTION	ACCESS:        239  HIT:         57  MISS:        182  HIT %:    23.8494  MISS %:    76.1506  MPKI: 0.00364
L2C LOAD DATA	ACCESS:     730010  HIT:     667573  MISS:      62437  HIT %:    91.4471  MISS %:     8.5529  MPKI: 1.24874
L2C RFO DATA	ACCESS:     284699  HIT:     236701  MISS:      47998  HIT %:    83.1408  MISS %:    16.8592  MPKI: 0.95996
L2C PREFETCH DATA	ACCESS:     176734  HIT:     110352  MISS:      66382  HIT %:    62.4396  MISS %:    37.5604  MPKI: 1.32764
L2C WRITEBACK DATA	ACCESS:     521737  HIT:     509431  MISS:      12306  HIT %:    97.6413  MISS %:    2.35866  MPKI: 0.24612
L2C LOAD TRANSLATION DATA	ACCESS:       1704  HIT:        407  MISS:       1297  HIT %:     23.885  MISS %:     76.115  MPKI: 0.02594
L2C TRANSLATION FROM L1D PREFETCHER DATA	ACCESS:         44  HIT:         25  MISS:         19  HIT %:    56.8182  MISS %:    43.1818  MPKI: 0.00038

L2C PREFETCH  REQUESTED:      81705  ISSUED:      81705  USEFUL:       7776  USELESS:      59090
L2C USEFUL LOAD PREFETCHES:       7776 PREFETCH ISSUED TO LOWER LEVEL:      66836  ACCURACY: 11.6344
 TIMELY PREFETCHES:       7776 LATE PREFETCHES: 454 DROPPED PREFETCHES: 0
L2C AVERAGE MISS LATENCY: 38.9181 cycles
L2C RQ	ACCESS:    3787676	FORWARD:          0	MERGED:          0	TO_CACHE:    3787616
L2C WQ	ACCESS:     521737	FORWARD:         60	MERGED:          0	TO_CACHE:     521737
L2C PQ	ACCESS:     183920	FORWARD:          0	MERGED:       3644	TO_CACHE:     180276

L2C Dense regions hint from L2: 0
PSCL5 TOTAL     ACCESS:       3802  HIT:       1901  MISS:       1901  HIT %:         50  MISS %:         50   MPKI: 0.03802
PSCL5 LOAD TRANSLATION INSTRUCTION	ACCESS:       3720  HIT:       1860  MISS:       1860  HIT %:         50  MISS %:         50  MPKI: 0.0372
PSCL5 TRANSLATION FROM L1D PREFETCHER INSTRUCTION	ACCESS:         82  HIT:         41  MISS:         41  HIT %:         50  MISS %:         50  MPKI: 0.00082


PSCL4 TOTAL     ACCESS:       3715  HIT:       1855  MISS:       1860  HIT %:    49.9327  MISS %:    50.0673   MPKI: 0.0372
PSCL4 LOAD TRANSLATION INSTRUCTION	ACCESS:       1820  HIT:       1815  MISS:          5  HIT %:    99.7253  MISS %:   0.274725  MPKI: 0.0001
PSCL4 TRANSLATION FROM L1D PREFETCHER INSTRUCTION	ACCESS:         40  HIT:         40  MISS:          0  HIT %:        100  MISS %:          0  MPKI: 0
PSCL4 LOAD TRANSLATION DATA	ACCESS:       1815  HIT:          0  MISS:       1815  HIT %:          0  MISS %:        100  MPKI: 0.0363
PSCL4 TRANSLATION FROM L1D PREFETCHER DATA	ACCESS:         40  HIT:          0  MISS:         40  HIT %:          0  MISS %:        100  MPKI: 0.0008


PSCL3 TOTAL     ACCESS:       3771  HIT:       1883  MISS:       1888  HIT %:    49.9337  MISS %:    50.0663   MPKI: 0.03776
PSCL3 LOAD TRANSLATION INSTRUCTION	ACCESS:       1848  HIT:       1843  MISS:          5  HIT %:    99.7294  MISS %:   0.270563  MPKI: 0.0001
PSCL3 TRANSLATION FROM L1D PREFETCHER INSTRUCTION	ACCESS:         40  HIT:         40  MISS:          0  HIT %:        100  MISS %:          0  MPKI: 0
PSCL3 LOAD TRANSLATION DATA	ACCESS:       1843  HIT:          0  MISS:       1843  HIT %:          0  MISS %:        100  MPKI: 0.03686
PSCL3 TRANSLATION FROM L1D PREFETCHER DATA	ACCESS:         40  HIT:          0  MISS:         40  HIT %:          0  MISS %:        100  MPKI: 0.0008


PSCL2 TOTAL     ACCESS:       3726  HIT:       1825  MISS:       1901  HIT %:    48.9801  MISS %:    51.0199   MPKI: 0.03802
PSCL2 LOAD TRANSLATION INSTRUCTION	ACCESS:       2002  HIT:       1785  MISS:        217  HIT %:    89.1608  MISS %:    10.8392  MPKI: 0.00434
PSCL2 TRANSLATION FROM L1D PREFETCHER INSTRUCTION	ACCESS:         40  HIT:         40  MISS:          0  HIT %:        100  MISS %:          0  MPKI: 0
PSCL2 LOAD TRANSLATION DATA	ACCESS:       1644  HIT:          0  MISS:       1644  HIT %:          0  MISS %:        100  MPKI: 0.03288
PSCL2 TRANSLATION FROM L1D PREFETCHER DATA	ACCESS:         40  HIT:          0  MISS:         40  HIT %:          0  MISS %:        100  MPKI: 0.0008


LLC TOTAL     ACCESS:     492270  HIT:     465050  MISS:      27220  HIT %:    94.4705  MISS %:    5.52949   MPKI: 0.5444
LLC LOAD INSTRUCTION	ACCESS:     246492  HIT:     245822  MISS:        670  HIT %:    99.7282  MISS %:   0.271814  MPKI: 0.0134
LLC LOAD TRANSLATION INSTRUCTION	ACCESS:        182  HIT:        156  MISS:         26  HIT %:    85.7143  MISS %:    14.2857  MPKI: 0.00052
LLC LOAD DATA	ACCESS:      62027  HIT:      58583  MISS:       3444  HIT %:    94.4476  MISS %:    5.55242  MPKI: 0.06888
LLC RFO DATA	ACCESS:      47947  HIT:      34936  MISS:      13011  HIT %:    72.8638  MISS %:    27.1362  MPKI: 0.26022
LLC PREFETCH DATA	ACCESS:      66836  HIT:      57129  MISS:       9707  HIT %:    85.4764  MISS %:    14.5236  MPKI: 0.19414
LLC WRITEBACK DATA	ACCESS:      67470  HIT:      67172  MISS:        298  HIT %:    99.5583  MISS %:   0.441678  MPKI: 0.00596
LLC LOAD TRANSLATION DATA	ACCESS:       1297  HIT:       1235  MISS:         62  HIT %:    95.2197  MISS %:    4.78026  MPKI: 0.00124
LLC TRANSLATION FROM L1D PREFETCHER DATA	ACCESS:         19  HIT:         17  MISS:          2  HIT %:    89.4737  MISS %:    10.5263  MPKI: 4e-05

LLC AVERAGE MISS LATENCY: 155.705 cycles
LLC RQ	ACCESS:     357971	FORWARD:          0	MERGED:          0	TO_CACHE:     357964
LLC WQ	ACCESS:      67470	FORWARD:          7	MERGED:          0	TO_CACHE:      67470
LLC PQ	ACCESS:      66836	FORWARD:          0	MERGED:          0	TO_CACHE:      66836

LLC Dense regions hint to LLC: 0

RAW hits: 1958029
Loads Generated: 12630272
Loads sent to L1D: 10672243
Stores Generated: 6949891
Stores sent to L1D: 6949899
Major fault: 0 Minor fault: 2589
Allocated PAGES: 2589

stream: 
stream:times selected: 1173561
stream:pref_filled: 122872
stream:pref_useful: 24278
stream:pref_late: 6830
stream:misses: 8003
stream:misses_by_poll: 0

CS: 
CS:times selected: 175445
CS:pref_filled: 59860
CS:pref_useful: 36570
CS:pref_late: 6601
CS:misses: 15802
CS:misses_by_poll: 4

CPLX: 
CPLX:times selected: 996979
CPLX:pref_filled: 19575
CPLX:pref_useful: 4715
CPLX:pref_late: 3203
CPLX:misses: 93332
CPLX:misses_by_poll: 0

NL_L1: 
NL:times selected: 20361
NL:pref_filled: 767
NL:pref_useful: 349
NL:pref_late: 269
NL:misses: 1745
NL:misses_by_poll: 0

total selections: 2366346
total_filled: 94663
total_useful: 33557
total_late: 18146
total_polluted: 4
total_misses_after_warmup: 771784
conflicts: 5523125

test: 114956

DRAM Statistics
 CHANNEL 0
 RQ ROW_BUFFER_HIT:      10106  ROW_BUFFER_MISS:      16802
 DBUS_CONGESTED:          7
 WQ ROW_BUFFER_HIT:       1186  ROW_BUFFER_MISS:      11607  FULL:          0

 AVG_CONGESTED_CYCLE: 6

CPU 0 Branch Prediction Accuracy: 99.8272% MPKI: 0.31622 Average ROB Occupancy at Mispredict: 197.467
Branch types
NOT_BRANCH: 40848303 81.6966%
BRANCH_DIRECT_JUMP: 547554 1.09511%
BRANCH_INDIRECT: 182354 0.364708%
BRANCH_CONDITIONAL: 6178123 12.3562%
BRANCH_DIRECT_CALL: 949034 1.89807%
BRANCH_INDIRECT_CALL: 172786 0.345572%
BRANCH_RETURN: 1121824 2.24365%
BRANCH_OTHER: 0 0%

DRAM PAGES: 1048576
Allocated PAGES: 2589
Average_ROB_Occupancy: 250.929
Average_Decode_Occupancy: 37.7848
Average_FTQ_Occupancy: 14.7905
Indirect max targets: 14 Average targets: 1.17778
Branch_type:  BRANCH_DIRECT_JUMP:  Count Percentage: 4.12615 5.68839 3.6339 2.28157 8.16698 6.32441 1.45656 68.322 
Branch_type:  BRANCH_INDIRECT:  Count Percentage: 11.7649 3.39007 2.49565 13.3008 3.35469 2.81793 0.939127 61.9368 
Branch_type:  BRANCH_CONDITIONAL:  Count Percentage: 21.9162 2.25494 1.81251 2.73446 2.01931 4.6314 3.63547 60.9957 
Branch_type:  BRANCH_DIRECT_CALL:  Count Percentage: 0.386715 1.804 0.716851 1.466 4.32633 2.60504 0.408249 88.2868 
Branch_type:  BRANCH_INDIRECT_CALL:  Count Percentage: 9.53172 0 2.9876 0.000869921 1.36056 1.70997 0.99287 83.4164 
Branch_type:  BRANCH_RETURN:  Count Percentage: 3.9341 2.02347 2.23352 2.03699 3.44561 5.11455 3.6105 77.6013 
Branch_type:  BRANCH_DIRECT_JUMP:  Total Count: 45172 62275 39783 24978 89410 69238 15946 747972 
Branch_type:  BRANCH_INDIRECT:  Total Count: 42894 12360 9099 48494 12231 10274 3424 225818 
Branch_type:  BRANCH_CONDITIONAL:  Total Count: 2706780 278498 223856 337722 249397 572005 449001 7533318 
Branch_type:  BRANCH_DIRECT_CALL:  Total Count: 7327 34180 13582 27776 81970 49357 7735 1672749 
Branch_type:  BRANCH_INDIRECT_CALL:  Total Count: 32871 0 10303 3 4692 5897 3424 287669 
Branch_type:  BRANCH_RETURN:  Total Count: 88140 45334 50040 45637 77196 114587 80890 1738589 
Number of unique branch instructions: 10811
Upper 32 bits: 
aaaa
ffff
ffff0000
Unique upper 32 bits: 3
Unique upper 36 bits: 3
Unique upper 40 bits: 5
Unique upper 44 bits: 32
Unique upper 48 bits: 158
Variant_0 : 1394 0.340332
Variant_1 : 1318 0.321777
Variant_2 : 1363 0.332764
Variant_3 : 0 0
Offset_3 4470
Offset_4 255
Offset_5 484
Offset_6 541
Offset_7 643
Offset_8 577
Offset_9 523
Offset_10 426
Offset_11 360
Offset_12 327
Offset_13 240
Offset_14 247
Offset_15 194
Offset_16 233
Offset_17 169
Offset_18 149
Offset_19 257
Offset_20 143
Offset_21 235
Offset_22 413
Offset_23 241
Offset_24 351
Offset_25 117
Offset_47 94
Offset_64 2
decode_dispatch_called: 26165516 73.2703
Dispatch_width: 0 14052514 53.7062 39.3507
Dispatch_width: 1 1020270 3.89929 2.85702
Dispatch_width: 2 844579 3.22783 2.36504
Dispatch_width: 3 502628 1.92096 1.40749
Dispatch_width: 4 6288775 24.0346 17.6102
Dispatch_width: 5 112910 0.431522 0.316178
Dispatch_width: 6 3343840 12.7796 9.36363
Empty_decode_cycles: 9545420 26.7297
ROB_full_cycles: 9983645 27.9568
Starvation_cycles_per_kilo_instr: 223.835
Starvation_cycles_per_kilo_instr_3: 159.818
Starvation_cycles_per_kilo_instr_0: 136.143
Branch_type_1  (3,1)  (4,9)  (5,39)  (6,74)  (7,126)  (8,148)  (9,136)  (10,110)  (11,78)  (12,55)  (13,11)  (14,2)  (15,3)  (16,4)  (18,1)  (19,5)  (20,2)  (21,1)  (22,3)  (23,2)  (24,10)  (25,12) 
Branch_type_2  (3,1)  (4,1)  (5,1)  (8,4)  (9,4)  (10,1)  (12,1)  (13,1)  (14,1)  (16,3)  (17,2)  (20,2)  (21,2)  (23,5)  (24,1)  (47,43) 
Branch_type_3  (3,4468)  (4,245)  (5,440)  (6,451)  (7,487)  (8,360)  (9,288)  (10,172)  (11,146)  (12,62)  (13,10)  (64,2) 
Branch_type_4  (6,3)  (7,8)  (8,25)  (9,56)  (10,68)  (11,70)  (12,117)  (13,102)  (14,112)  (15,92)  (16,102)  (17,79)  (18,65)  (19,125)  (20,73)  (21,124)  (22,219)  (23,136)  (24,206)  (25,101) 
Branch_type_5  (8,3)  (9,1)  (10,4)  (11,5)  (12,3)  (13,14)  (14,16)  (15,11)  (16,22)  (17,11)  (18,23)  (19,14)  (20,11)  (21,13)  (22,43)  (23,26)  (24,38) 
Branch_type_6  (5,4)  (6,13)  (7,22)  (8,37)  (9,38)  (10,71)  (11,61)  (12,89)  (13,102)  (14,116)  (15,88)  (16,102)  (17,77)  (18,60)  (19,113)  (20,55)  (21,95)  (22,148)  (23,72)  (24,96)  (25,4)  (47,51) 
Unique trigger count: 
Variant_0_evicts_0 : 0
Variant_0_evicts_1 : 0
Variant_0_evicts_2 : 0
Variant_0_evicts_3 : 0
Variant_1_evicts_0 : 0
Variant_1_evicts_1 : 0
Variant_1_evicts_2 : 0
Variant_1_evicts_3 : 0
Variant_2_evicts_0 : 0
Variant_2_evicts_1 : 0
Variant_2_evicts_2 : 0
Variant_2_evicts_3 : 0
Variant_3_evicts_0 : 0
Variant_3_evicts_1 : 0
Variant_3_evicts_2 : 0
Variant_3_evicts_3 : 0
BTB PER SET UNIQUE ADDR: 11 11 10 17 15 13 11 15 14 16 11 20 17 13 14 11 11 10 15 12 12 12 15 11 9 11 17 15 11 14 9 16 18 9 9 16 15 14 10 11 9 7 13 15 14 11 16 10 14 11 15 11 10 9 14 6 10 13 12 8 12 14 12 15 14 16 15 10 16 10 10 14 15 9 11 10 8 15 11 18 11 6 9 16 14 15 18 12 7 19 8 7 13 9 7 16 12 13 13 20 14 15 14 12 16 13 6 16 7 7 8 16 12 13 8 8 17 13 13 16 9 12 9 14 16 11 6 11 11 15 11 14 10 21 10 14 10 12 11 17 8 12 11 13 13 12 8 10 10 13 17 20 12 10 12 18 18 10 16 11 12 14 12 14 13 10 11 11 10 10 12 13 11 14 16 7 10 11 15 9 13 15 13 15 22 16 4 16 11 10 8 11 8 15 13 13 9 13 10 15 11 15 10 12 10 8 15 16 10 14 10 14 8 8 10 17 15 17 14 25 7 21 10 11 9 13 15 11 12 12 9 7 10 14 10 16 12 15 13 11 13 14 15 13 12 16 6 11 13 12 12 12 15 13 12 14 9 12 13 13 13 12 6 12 13 11 11 12 9 14 10 12 11 9 8 11 10 20 13 9 13 14 9 12 14 14 13 19 16 11 13 10 14 13 13 15 9 13 14 12 13 12 11 18 10 16 15 7 16 13 11 18 12 21 10 10 15 15 12 14 7 17 13 6 16 18 12 13 13 8 18 12 12 10 10 11 14 11 7 21 12 14 11 18 9 15 15 11 16 9 17 11 14 14 10 11 15 12 11 9 11 18 6 18 14 14 10 10 17 13 14 10 14 13 10 15 12 13 11 14 14 10 8 9 12 12 15 18 13 11 15 14 12 20 10 8 12 6 15 8 11 14 11 17 15 14 15 18 12 11 14 11 11 15 14 11 12 19 21 18 13 13 12 17 15 8 15 16 10 14 16 12 13 11 14 12 17 9 11 8 14 13 13 15 19 8 12 13 11 17 14 17 15 10 21 21 16 18 10 18 11 14 14 17 22 10 10 11 12 14 13 14 13 16 16 20 12 18 11 13 12 15 12 17 5 17 19 10 16 16 7 14 7 7 13 8 15 16 9 12 14 15 13 15 11 12 11 15 16 10 11 16 11 11 20 15 13 17 12 9 13 11 16 9 10 16 20 8 10 19 14 15 19 10 11 12 13 13 11 16 21 13 13 15 19 20 8 15 7 9 16 16 13 11 14 17 14 10 16 18 13 15 18 12 14 16 10 14 13 12 15 12 16 11 11 13 19 14 13 10 12 9 8 16 14 17 17 12 15 18 7 12 15 11 17 13 8 11 8 9 16 11 7 6 13 12 16 7 14 11 18 17 12 11 5 18 12 15 14 14 18 14 9 14 12 17 11 20 14 16 10 14 15 12 12 17 13 19 10 20 10 14 10 21 11 13 10 17 19 15 9 15 12 13 21 16 15 16 12 9 15 7 16 14 10 12 10 12 11 12 14 13 12 10 19 13 10 19 11 15 12 11 13 9 16 14 10 14 11 18 12 10 15 9 11 11 11 13 12 14 7 14 15 19 7 12 14 6 19 11 11 19 10 12 10 11 21 12 12 12 10 9 13 16 10 8 11 13 7 11 16 9 13 8 13 17 16 14 13 12 14 8 13 12 16 14 17 15 11 14 16 12 12 15 9 12 15 11 9 12 11 12 6 15 12 20 10 12 12 17 11 15 10 10 15 12 14 9 14 15 10 14 16 10 14 12 10 12 14 9 9 9 18 11 16 16 12 12 20 10 20 13 15 16 20 14 12 11 15 11 11 19 12 18 13 15 22 12 7 17 12 15 11 12 13 14 15 16 11 14 13 19 13 13 15 16 12 16 11 14 18 11 9 12 13 13 10 12 15 12 10 13 12 12 12 17 17 15 19 16 13 12 11 11 19 8 13 9 17 12 14 10 18 9 16 8 12 10 11 12 13 9 15 14 12 9 17 12 15 17 16 13 10 13 14 12 13 10 11 10 15 14 15 14 7 13 6 12 8 11 10 13 11 19 10 16 21 13 14 11 13 15 16 9 10 8 9 16 16 7 16 21 16 10 13 20 7 12 15 15 12 19 12 14 17 10 14 18 11 11 14 17 8 14 13 14 9 13 17 16 15 17 10 19 13 10 15 14 11 13 15 14 14 14 12 13 18 13 14 21 12 15 15 18 9 21 19 13 15 17 16 13 11 16 13 9 10 11 16 11 19 17 13 12 11 22 11 16 14 20 11 13 9 10 15 15 6 12 10 12 10 20 14 10 
BTB PER SET COUNT: 239 12 1927 22 1489 18 1011 22 1123 19 17 1404 5740 22 17 14 1009 2150 20 22 18 215 751 72 10 23 24 20 16 23 10 265 31 16 11 480 20 19 11 23 13 7 16 27 708 11 20 14 758 11 22 96 15 9 202 8 12 16 20 10 17 16 21 21 22 22 23 11 21 10 1487 375 25 12 14 18 12 981 13 28 17 7 17 436 20 15 29 12 8 28 9 7 14 71 7 26 698 55 15 32 27 20 15 21 84 16 8 24 966 9 9 31 16 17 11 720 24 21 1500 21 997 12 12 22 20 113 6 20 15 975 14 5854 13 31 160 22 1006 22 11 27 10 16 17 18 22 13 8 734 19 220 23 274 1494 16 15 28 723 13 297 18 20 24 83 19 1555 14 18 13 13 375 21 17 18 17 25 12 14 26 24 9 16 218 124 22 28 25 5 23 26 10 8 11 8 21 18 13 12 494 15 602 12 18 1004 15 15 11 25 85 14 14 13 22 9 14310 17 1021 25 28 2260 41 11 31 376 14 11 34 19 14 23 15 15 10 14 17 13 5187 38 267 16 12 513 16 19 515 22 298 6 17 357 14 17 21 23 14 21 23 37 209 15 17 30 16 6 143 18 11 16 15 738 19 19 198 12 9 507 15 15 37 16 651 17 16 10 859 17 19 17 20 18 13 13 12 18 47 22 19 9 17 22 268 15 13 12 32 11 178 19 7 30 977 20 30 16 27 330 14 31 27 20 20 7 469 18 6 25 30 20 25 18 11 22 21 39 12 10 17 19 1005 7 30 12 2016 17 23 13 21 17 19 21 13 38 13 18 23 10 16 19 17 257 22 13 28 6 21 18 1199 14 12 27 18 22 11 17 14 1004 22 16 17 490 30 722 14 14 12 16 18 18 24 17 15 305 19 14 26 10 935 17 7 1330 14 13 18 13 19 24 20 29 24 19 11 17 19 16 28 21 14 15 201 373 24 28 16 15 23 22 8 984 26 17 1124 41 16 20 16 493 31 27 470 11 11 25 23 17 22 2432 8 18 15 15 20 22 659 24 13 190 740 32 38 12 30 46 18 18 21 25 284 14 18 14 25 20 22 19 23 20 35 14 33 14 21 16 20 12 19 722 24 32 11 20 19 11 19 7555 8 16 11 152 772 15 16 16 19 14 89 15 14 19 20 16 12 264 19 16 483 30 18 28 35 14 12 16 24 21 9 12 26 118 1134 15 30 17 26 39 13 14 20 1117 33 16 434 38 16 15 25 34 135 8 15 11 972 18 23 17 59 19 24 19 13 28 22 16 24 33 13 15 33 15 19 18 375 26 14 25 13 1682 15 26 678 16 12 13 13 8 2478 20 23 187 19 21 25 10 17 281 13 26 18 69 371 247 14 24 12 7 6 16 14 18 39 15 15 30 1134 27 12 5 26 484 18 26 275 23 29 11 114 12 20 13 29 807 18 16 25 26 22 15 24 17 279 13 556 14 17 12 89 12 28 857 24 245 18 11 37 14 16 2246 505 24 109 14 1001 197 8 19 20 10363 22 14 272 1489 17 20 16 345 10 95 441 12 31 18 27 13 14 21 9 90 18 18 21 369 21 23 11 18 9 616 14 241 29 21 18 12 27 383 34 8 12 22 8 55 12 71 347 277 16 13 133 235 24 13 81 14 11 24 1496 12 12 13 15 248 14 405 12 17 110 15 25 978 17 23 12 616 12 21 20 583 20 145 16 16 16 1501 15 14 1966 10 18 18 1483 10 13 16 14 6 42 1514 27 22 17 14 22 53 33 1473 22 26 15 17 10 14 26 1195 22 404 11 19 309 10 21 14 11 13 537 26 14 107 22 14 15 22 202 30 20 20 20 66 22 15 13 18 11 14 247 16 24 250 684 495 73 7 3484 19 805 17 14 16 15 19 21 13 21 16 26 15 19 255 68 21 19 11 15 30 1007 14 20 577 18 18 14 27 438 163 2003 24 17 20 23 313 23 22 26 312 12 21 14 991 10 26 10 18 19 131 14 30 11 27 8 18 10 615 14 26 10 120 22 492 266 20 17 18 47 18 22 22 19 15 18 18 13 15 13 24 21 24 628 7 18 6 16 9 270 264 500 23 32 14 605 1399 21 24 18 16 20 20 1463 14 12 14 24 23 18 63 26 377 13 16 179 9 25 18 25 15 306 17 16 26 20 25 20 11 13 18 399 12 1498 15 15 9 15 112 377 28 34 34 24 20 13 1491 22 11 15 25 18 16 20 375 18 32 22 66 30 20 51 20 283 14 1780 28 243 21 35 21 18 18 491 67 11 18 1485 28 17 44 26 18 21 14 1452 20 29 19 978 934 14 11 14 19 22 6 19 13 14 12 187 17 13 
To predecode: 0
Predecoding something: 0
Predecode request dropped: 0
sizeofblock_0 0
sizeofblock_1 41135
sizeofblock_2 38233
sizeofblock_3 39288
sizeofblock_4 20254
sizeofblock_5 0
sizeofblock_6 0
sizeofblock_7 0
sizeofblock_8 0
Variant_0 Correct: 1615476 Incorrect: 0 Accuracy: 1
Variant_1 Correct: 2091657 Incorrect: 0 Accuracy: 1
Variant_2 Correct: 3656716 Incorrect: 0 Accuracy: 1
Variant_3 Correct: 0 Incorrect: 0 Accuracy: -nan
