
*** ChampSim Multicore Out-of-Order Simulator ***

Warmup Instructions: 50000000
Simulation Instructions: 50000000
Number of CPUs: 1
LLC sets: 2048
LLC ways: 16
Off-chip DRAM Size: 4096 MB Channels: 1 Width: 64-bit Data Rate: 6400 MT/s
CPU 0 runs ./micro_traces/srv122.trace.gz
.gz
ITLB has LRU replacement policy
DTLB has LRU replacement policy
STLB has LRU replacement policy
FDIP Prefetcher at L1I
L1I has LRU replacement policy
L1D has LRU replacement policy
Initialize SRRIP state for L2C
Initialize DRRIP state for LLC
Heartbeat_Variant_0 : 1296 0.316406 per_variant_size: 0 1296 0 0 0 0 0 0 0 
Heartbeat_Variant_1 : 2464 0.601562 per_variant_size: 0 600 1864 0 0 0 0 0 0 
Heartbeat_Variant_2 : 0 0 per_variant_size: 0 0 0 0 0 0 0 0 0 
Heartbeat_Variant_3 : 0 0 per_variant_size: 0 0 0 0 0 0 0 0 0 
Heartbeat_Variant_0_evicts 0 : 5788 1 : 359 2 : 0 3 : 0 
Heartbeat_Variant_1_evicts 0 : 309 1 : 0 2 : 0 3 : 0 
Heartbeat_Variant_2_evicts 0 : 0 1 : 0 2 : 0 3 : 0 
Heartbeat_Variant_3_evicts 0 : 0 1 : 0 2 : 0 3 : 0 
Heartbeat CPU 0 instructions: 10000002 cycles: 2795260 heartbeat IPC: 3.57749 cumulative IPC: 3.57749 (Simulation time: 0 hr 1 min 38 sec) 
Heartbeat_Variant_0 : 1344 0.328125 per_variant_size: 0 1344 0 0 0 0 0 0 0 
Heartbeat_Variant_1 : 2571 0.627686 per_variant_size: 0 507 2064 0 0 0 0 0 0 
Heartbeat_Variant_2 : 0 0 per_variant_size: 0 0 0 0 0 0 0 0 0 
Heartbeat_Variant_3 : 0 0 per_variant_size: 0 0 0 0 0 0 0 0 0 
Heartbeat_Variant_0_evicts 0 : 5672 1 : 258 2 : 0 3 : 0 
Heartbeat_Variant_1_evicts 0 : 251 1 : 0 2 : 0 3 : 0 
Heartbeat_Variant_2_evicts 0 : 0 1 : 0 2 : 0 3 : 0 
Heartbeat_Variant_3_evicts 0 : 0 1 : 0 2 : 0 3 : 0 
Heartbeat CPU 0 instructions: 20000003 cycles: 5588248 heartbeat IPC: 3.5804 cumulative IPC: 3.57894 (Simulation time: 0 hr 3 min 13 sec) 
Heartbeat_Variant_0 : 1348 0.329102 per_variant_size: 0 1348 0 0 0 0 0 0 0 
Heartbeat_Variant_1 : 2575 0.628662 per_variant_size: 0 519 2056 0 0 0 0 0 0 
Heartbeat_Variant_2 : 0 0 per_variant_size: 0 0 0 0 0 0 0 0 0 
Heartbeat_Variant_3 : 0 0 per_variant_size: 0 0 0 0 0 0 0 0 0 
Heartbeat_Variant_0_evicts 0 : 5432 1 : 41 2 : 0 3 : 0 
Heartbeat_Variant_1_evicts 0 : 39 1 : 0 2 : 0 3 : 0 
Heartbeat_Variant_2_evicts 0 : 0 1 : 0 2 : 0 3 : 0 
Heartbeat_Variant_3_evicts 0 : 0 1 : 0 2 : 0 3 : 0 
Heartbeat CPU 0 instructions: 30000001 cycles: 8382373 heartbeat IPC: 3.57894 cumulative IPC: 3.57894 (Simulation time: 0 hr 4 min 50 sec) 
Heartbeat_Variant_0 : 1348 0.329102 per_variant_size: 0 1348 0 0 0 0 0 0 0 
Heartbeat_Variant_1 : 2577 0.62915 per_variant_size: 0 505 2072 0 0 0 0 0 0 
Heartbeat_Variant_2 : 0 0 per_variant_size: 0 0 0 0 0 0 0 0 0 
Heartbeat_Variant_3 : 0 0 per_variant_size: 0 0 0 0 0 0 0 0 0 
Heartbeat_Variant_0_evicts 0 : 5572 1 : 8 2 : 0 3 : 0 
Heartbeat_Variant_1_evicts 0 : 9 1 : 0 2 : 0 3 : 0 
Heartbeat_Variant_2_evicts 0 : 0 1 : 0 2 : 0 3 : 0 
Heartbeat_Variant_3_evicts 0 : 0 1 : 0 2 : 0 3 : 0 
Heartbeat CPU 0 instructions: 40000003 cycles: 11177709 heartbeat IPC: 3.57739 cumulative IPC: 3.57855 (Simulation time: 0 hr 6 min 31 sec) 
Heartbeat_Variant_0 : 1357 0.331299 per_variant_size: 0 1357 0 0 0 0 0 0 0 
Heartbeat_Variant_1 : 2609 0.636963 per_variant_size: 0 516 2093 0 0 0 0 0 0 
Heartbeat_Variant_2 : 0 0 per_variant_size: 0 0 0 0 0 0 0 0 0 
Heartbeat_Variant_3 : 0 0 per_variant_size: 0 0 0 0 0 0 0 0 0 
Heartbeat_Variant_0_evicts 0 : 5653 1 : 272 2 : 0 3 : 0 
Heartbeat_Variant_1_evicts 0 : 271 1 : 0 2 : 0 3 : 0 
Heartbeat_Variant_2_evicts 0 : 0 1 : 0 2 : 0 3 : 0 
Heartbeat_Variant_3_evicts 0 : 0 1 : 0 2 : 0 3 : 0 
Heartbeat CPU 0 instructions: 50000002 cycles: 13972340 heartbeat IPC: 3.57829 cumulative IPC: 3.5785 (Simulation time: 0 hr 8 min 12 sec) 

Warmup complete CPU 0 instructions: 50000002 cycles: 13972340 (Simulation time: 0 hr 8 min 12 sec) 

Cycle: 20000000 FTQ IN: 58529861 FTQ occupancy: 20.4824 DECODE IN: 58529852 DECODE occupancy: 53.3406 ROB IN: 58529852 ROB occupancy: 319.006 ROB OUT: 58529847
Heartbeat_Variant_0 : 1357 0.331299 per_variant_size: 0 1357 0 0 0 0 0 0 0 
Heartbeat_Variant_1 : 2609 0.636963 per_variant_size: 0 527 2082 0 0 0 0 0 0 
Heartbeat_Variant_2 : 0 0 per_variant_size: 0 0 0 0 0 0 0 0 0 
Heartbeat_Variant_3 : 0 0 per_variant_size: 0 0 0 0 0 0 0 0 0 
Heartbeat_Variant_0_evicts 0 : 5586 1 : 3 2 : 0 3 : 0 
Heartbeat_Variant_1_evicts 0 : 3 1 : 0 2 : 0 3 : 0 
Heartbeat_Variant_2_evicts 0 : 0 1 : 0 2 : 0 3 : 0 
Heartbeat_Variant_3_evicts 0 : 0 1 : 0 2 : 0 3 : 0 
Heartbeat CPU 0 instructions: 60000000 cycles: 21037050 heartbeat IPC: 1.41549 cumulative IPC: 1.41549 (Simulation time: 0 hr 10 min 4 sec) 
Heartbeat_Variant_0 : 1373 0.335205 per_variant_size: 0 1373 0 0 0 0 0 0 0 
Heartbeat_Variant_1 : 2626 0.641113 per_variant_size: 0 523 2103 0 0 0 0 0 0 
Heartbeat_Variant_2 : 0 0 per_variant_size: 0 0 0 0 0 0 0 0 0 
Heartbeat_Variant_3 : 0 0 per_variant_size: 0 0 0 0 0 0 0 0 0 
Heartbeat_Variant_0_evicts 0 : 5656 1 : 206 2 : 0 3 : 0 
Heartbeat_Variant_1_evicts 0 : 196 1 : 0 2 : 0 3 : 0 
Heartbeat_Variant_2_evicts 0 : 0 1 : 0 2 : 0 3 : 0 
Heartbeat_Variant_3_evicts 0 : 0 1 : 0 2 : 0 3 : 0 
Heartbeat CPU 0 instructions: 70000002 cycles: 28237282 heartbeat IPC: 1.38884 cumulative IPC: 1.40204 (Simulation time: 0 hr 11 min 57 sec) 
Cycle: 30000000 FTQ IN: 13956831 FTQ occupancy: 14.6881 DECODE IN: 13956815 DECODE occupancy: 37.4602 ROB IN: 13956755 ROB occupancy: 247.567 ROB OUT: 13956424
Heartbeat_Variant_0 : 1372 0.334961 per_variant_size: 0 1372 0 0 0 0 0 0 0 
Heartbeat_Variant_1 : 2627 0.641357 per_variant_size: 0 528 2099 0 0 0 0 0 0 
Heartbeat_Variant_2 : 0 0 per_variant_size: 0 0 0 0 0 0 0 0 0 
Heartbeat_Variant_3 : 0 0 per_variant_size: 0 0 0 0 0 0 0 0 0 
Heartbeat_Variant_0_evicts 0 : 5509 1 : 23 2 : 0 3 : 0 
Heartbeat_Variant_1_evicts 0 : 24 1 : 0 2 : 0 3 : 0 
Heartbeat_Variant_2_evicts 0 : 0 1 : 0 2 : 0 3 : 0 
Heartbeat_Variant_3_evicts 0 : 0 1 : 0 2 : 0 3 : 0 
Heartbeat CPU 0 instructions: 80000001 cycles: 35323576 heartbeat IPC: 1.41117 cumulative IPC: 1.40507 (Simulation time: 0 hr 13 min 51 sec) 
Cycle: 40000000 FTQ IN: 13978613 FTQ occupancy: 14.9246 DECODE IN: 13978638 DECODE occupancy: 38.212 ROB IN: 13978698 ROB occupancy: 252.183 ROB OUT: 13979024
Heartbeat_Variant_0 : 1373 0.335205 per_variant_size: 0 1373 0 0 0 0 0 0 0 
Heartbeat_Variant_1 : 2633 0.642822 per_variant_size: 0 536 2097 0 0 0 0 0 0 
Heartbeat_Variant_2 : 0 0 per_variant_size: 0 0 0 0 0 0 0 0 0 
Heartbeat_Variant_3 : 0 0 per_variant_size: 0 0 0 0 0 0 0 0 0 
Heartbeat_Variant_0_evicts 0 : 5445 1 : 60 2 : 0 3 : 0 
Heartbeat_Variant_1_evicts 0 : 59 1 : 0 2 : 0 3 : 0 
Heartbeat_Variant_2_evicts 0 : 0 1 : 0 2 : 0 3 : 0 
Heartbeat_Variant_3_evicts 0 : 0 1 : 0 2 : 0 3 : 0 
Heartbeat CPU 0 instructions: 90000002 cycles: 42499643 heartbeat IPC: 1.39352 cumulative IPC: 1.40217 (Simulation time: 0 hr 15 min 47 sec) 
Heartbeat_Variant_0 : 1379 0.33667 per_variant_size: 0 1379 0 0 0 0 0 0 0 
Heartbeat_Variant_1 : 2638 0.644043 per_variant_size: 0 492 2146 0 0 0 0 0 0 
Heartbeat_Variant_2 : 0 0 per_variant_size: 0 0 0 0 0 0 0 0 0 
Heartbeat_Variant_3 : 0 0 per_variant_size: 0 0 0 0 0 0 0 0 0 
Heartbeat_Variant_0_evicts 0 : 5643 1 : 145 2 : 0 3 : 0 
Heartbeat_Variant_1_evicts 0 : 140 1 : 0 2 : 0 3 : 0 
Heartbeat_Variant_2_evicts 0 : 0 1 : 0 2 : 0 3 : 0 
Heartbeat_Variant_3_evicts 0 : 0 1 : 0 2 : 0 3 : 0 
Heartbeat CPU 0 instructions: 100000000 cycles: 49583974 heartbeat IPC: 1.41157 cumulative IPC: 1.40404 (Simulation time: 0 hr 17 min 47 sec) 
Finished CPU 0 instructions: 50000002 cycles: 35611635 cumulative IPC: 1.40404 (Simulation time: 0 hr 17 min 47 sec) 

ChampSim completed all CPUs

Region of Interest Statistics

CPU 0 cumulative IPC: 1.40404 instructions: 50000002 cycles: 35611635
 Fetch stage stalled: 46.0953  Sim cycles: 35611635 fetch stall cycle: 16415304
 Empty decode stage: 25.9278  Sim cycles: 35611635 fetch stall cycle: 9233311
ITLB TOTAL     ACCESS:    5815794  HIT:    5317551  MISS:     498243  HIT %:    91.4329  MISS %:    8.56707   MPKI: 9.96486
ITLB LOAD TRANSLATION INSTRUCTION	ACCESS:    5676883  HIT:    5178640  MISS:     498243  HIT %:    91.2233  MISS %:     8.7767  MPKI: 9.96486
ITLB TRANSLATION FROM L1D PREFETCHER INSTRUCTION	ACCESS:     138911  HIT:     138911  MISS:          0  HIT %:        100  MISS %:          0  MPKI: 0

ITLB AVERAGE MISS LATENCY: 9.04328 cycles
ITLB RQ	ACCESS:    7925026	FORWARD:          0	MERGED:    1619188	TO_CACHE:    6305838

DTLB TOTAL     ACCESS:    8947289  HIT:    8475844  MISS:     471445  HIT %:    94.7309  MISS %:    5.26914   MPKI: 9.4289
DTLB LOAD TRANSLATION DATA	ACCESS:    8947289  HIT:    8475844  MISS:     471445  HIT %:    94.7309  MISS %:    5.26914  MPKI: 9.4289

DTLB AVERAGE MISS LATENCY: 9.30594 cycles
DTLB RQ	ACCESS:   13322375	FORWARD:          0	MERGED:    4338270	TO_CACHE:    8984105

STLB TOTAL     ACCESS:    1215094  HIT:    1213165  MISS:       1929  HIT %:    99.8412  MISS %:   0.158753   MPKI: 0.03858
STLB LOAD TRANSLATION INSTRUCTION	ACCESS:     498242  HIT:     498013  MISS:        229  HIT %:     99.954  MISS %:  0.0459616  MPKI: 0.00458
STLB LOAD TRANSLATION DATA	ACCESS:     471445  HIT:     469756  MISS:       1689  HIT %:    99.6417  MISS %:    0.35826  MPKI: 0.03378
STLB TRANSLATION FROM L1D PREFETCHER DATA	ACCESS:     245407  HIT:     245396  MISS:         11  HIT %:    99.9955  MISS %: 0.00448235  MPKI: 0.00022

STLB AVERAGE MISS LATENCY: 69.916 cycles
STLB RQ	ACCESS:    1344281	FORWARD:          0	MERGED:     129146	TO_CACHE:    1215135

STLB Hit, L1D data hit: 0
STLB Hit, L2C data hit: 0
STLB Hit, LLC data hit: 0
STLB Hit, LLC data miss: 0
STLB STLB hints to L2: 0
L1D TOTAL     ACCESS:   13131027  HIT:   12129936  MISS:    1001091  HIT %:    92.3761  MISS %:    7.62386   MPKI: 20.0218
L1D LOAD DATA	ACCESS:    6543992  HIT:    5887082  MISS:     656910  HIT %:    89.9616  MISS %:    10.0384  MPKI: 13.1382
L1D RFO DATA	ACCESS:    6258831  HIT:    6007329  MISS:     251502  HIT %:    95.9816  MISS %:    4.01835  MPKI: 5.03004
L1D PREFETCH DATA	ACCESS:     328204  HIT:     235525  MISS:      92679  HIT %:    71.7618  MISS %:    28.2382  MPKI: 1.85358

L1D PREFETCH  REQUESTED:     749538  ISSUED:     749538  USEFUL:      35773  USELESS:      66827
L1D USEFUL LOAD PREFETCHES:      35773 PREFETCH ISSUED TO LOWER LEVEL:     102624  ACCURACY: 34.8583
 TIMELY PREFETCHES:      35773 LATE PREFETCHES: 9904 DROPPED PREFETCHES: 6
L1D AVERAGE MISS LATENCY: 315262 cycles
L1D RQ	ACCESS:   10673459	FORWARD:          0	MERGED:    3930314	TO_CACHE:    6575405
L1D WQ	ACCESS:    6945468	FORWARD:     168090	MERGED:     198498	TO_CACHE:    6746970
L1D PQ	ACCESS:     374944	FORWARD:          0	MERGED:          0	TO_CACHE:     374594

L1D UNIQUE REGIONS ACCESSED: 0
L1D REGIONS CONFLICTS: 0
L1D Cross Page Prefetch Requests: 6299
L1D Same Page Prefetch Requests: 761339
L1D ROI Sum of L1D PQ occupancy: 4752346
L1D PREFETCHES PUSHED FROM L2C: 0
L1I TOTAL     ACCESS:    7108252  HIT:    4326309  MISS:    2781943  HIT %:    60.8632  MISS %:    39.1368   MPKI: 55.6389
L1I LOAD INSTRUCTION	ACCESS:    6445388  HIT:    3663445  MISS:    2781943  HIT %:    56.8382  MISS %:    43.1618  MPKI: 55.6389
L1I PREFETCH INSTRUCTION	ACCESS:     662864  HIT:     662864  MISS:          0  HIT %:        100  MISS %:          0  MPKI: 0

L1I PREFETCH  REQUESTED:    1613615  ISSUED:    1613615  USEFUL:          0  USELESS:          0
L1I USEFUL LOAD PREFETCHES:          0 PREFETCH ISSUED TO LOWER LEVEL:          0  ACCURACY: -nan
 TIMELY PREFETCHES:          0 LATE PREFETCHES: 0 DROPPED PREFETCHES: 0
L1I AVERAGE MISS LATENCY: 16.7085 cycles
L1I RQ	ACCESS:    9574119	FORWARD:          0	MERGED:    2831908	TO_CACHE:    6742211
L1I PQ	ACCESS:    1613615	FORWARD:          0	MERGED:     430800	TO_CACHE:    1182815

L1BTB TOTAL     ACCESS:    5676358  HIT:    2029584  MISS:    3646774  HIT %:     35.755  MISS %:     64.245   MPKI: 72.9355
L1BTB BRANCH_DIRECT_JUMP	ACCESS:     546511 HIT:     142151 MISS:     404360 AVERAGE STALL: 56.425 AVERAGE FETCH STALL: 13.9302 AVERAGE FETCH QUEUE STALL: 20.9266 AVERAGE DECODE STALL: 20.6728 AVERAGE EXECUTE STALL: 2.17635e+15
L1BTB BRANCH_INDIRECT	ACCESS:     181659 HIT:      65036 MISS:     116623 AVERAGE STALL: 110.59 AVERAGE FETCH STALL: 11.0281 AVERAGE FETCH QUEUE STALL: 16.2191 AVERAGE DECODE STALL: 13.7526 AVERAGE EXECUTE STALL: 68.626
L1BTB BRANCH_CONDITIONAL	ACCESS:    2705113 HIT:    1407603 MISS:    1297510 AVERAGE STALL: 50.8026 AVERAGE FETCH STALL: 22.7203 AVERAGE FETCH QUEUE STALL: 15.1627 AVERAGE DECODE STALL: 12.2804 AVERAGE EXECUTE STALL: 3.20034e+15
L1BTB BRANCH_DIRECT_CALL	ACCESS:     949345 HIT:     104588 MISS:     844757 AVERAGE STALL: 72.7593 AVERAGE FETCH STALL: 18.6437 AVERAGE FETCH QUEUE STALL: 31.19 AVERAGE DECODE STALL: 22.1645 AVERAGE EXECUTE STALL: 6.62599e+15
L1BTB BRANCH_INDIRECT_CALL	ACCESS:     172193 HIT:      21010 MISS:     151183 AVERAGE STALL: 136.711 AVERAGE FETCH STALL: 12.2555 AVERAGE FETCH QUEUE STALL: 16.7126 AVERAGE DECODE STALL: 11.0022 AVERAGE EXECUTE STALL: 96.2453
L1BTB BRANCH_RETURN	ACCESS:    1121537 HIT:     289196 MISS:     832341 AVERAGE STALL: 50.6125 AVERAGE FETCH STALL: 16.7316 AVERAGE FETCH QUEUE STALL: 5.98021 AVERAGE DECODE STALL: 6.39475 AVERAGE EXECUTE STALL: 4.20506e+14
L1BTB BRANCH_OTHER ACCESS:          0 HIT:          0 MISS:          0 AVERAGE STALL: -nan AVERAGE FETCH STALL: -nan AVERAGE FETCH QUEUE STALL: -nan AVERAGE DECODE STALL: -nan AVERAGE EXECUTE STALL: -nan
L1BTB TOTAL ROB OCCUPANCY AT BTB MISS: 2.88988

L2BTB TOTAL     ACCESS:    3621632  HIT:    3553376  MISS:      68256  HIT %:    98.1153  MISS %:    1.88468   MPKI: 1.36512
L2BTB BRANCH_DIRECT_JUMP	ACCESS:     400334 HIT:     395880 MISS:       4454 AVERAGE STALL: 56.425 AVERAGE FETCH STALL: 13.9302 AVERAGE FETCH QUEUE STALL: 20.9266 AVERAGE DECODE STALL: 20.6728 AVERAGE EXECUTE STALL: 2.17635e+15
L2BTB BRANCH_INDIRECT	ACCESS:     106314 HIT:     103574 MISS:       2740 AVERAGE STALL: 110.59 AVERAGE FETCH STALL: 11.0281 AVERAGE FETCH QUEUE STALL: 16.2191 AVERAGE DECODE STALL: 13.7526 AVERAGE EXECUTE STALL: 68.626
L2BTB BRANCH_CONDITIONAL	ACCESS:    1297510 HIT:    1291703 MISS:       5807 AVERAGE STALL: 50.8026 AVERAGE FETCH STALL: 22.7203 AVERAGE FETCH QUEUE STALL: 15.1627 AVERAGE DECODE STALL: 12.2804 AVERAGE EXECUTE STALL: 3.20034e+15
L2BTB BRANCH_DIRECT_CALL	ACCESS:     844757 HIT:     841947 MISS:       2810 AVERAGE STALL: 72.7593 AVERAGE FETCH STALL: 18.6437 AVERAGE FETCH QUEUE STALL: 31.19 AVERAGE DECODE STALL: 22.1645 AVERAGE EXECUTE STALL: 6.62599e+15
L2BTB BRANCH_INDIRECT_CALL	ACCESS:     141798 HIT:     131819 MISS:       9979 AVERAGE STALL: 136.711 AVERAGE FETCH STALL: 12.2555 AVERAGE FETCH QUEUE STALL: 16.7126 AVERAGE DECODE STALL: 11.0022 AVERAGE EXECUTE STALL: 96.2453
L2BTB BRANCH_RETURN	ACCESS:     830919 HIT:     788453 MISS:      42466 AVERAGE STALL: 50.6125 AVERAGE FETCH STALL: 16.7316 AVERAGE FETCH QUEUE STALL: 5.98021 AVERAGE DECODE STALL: 6.39475 AVERAGE EXECUTE STALL: 4.20506e+14
L2BTB BRANCH_OTHER ACCESS:          0 HIT:          0 MISS:          0 AVERAGE STALL: -nan AVERAGE FETCH STALL: -nan AVERAGE FETCH QUEUE STALL: -nan AVERAGE DECODE STALL: -nan AVERAGE EXECUTE STALL: -nan
L2BTB TOTAL ROB OCCUPANCY AT BTB MISS: 154.4

L2C TOTAL     ACCESS:    4322172  HIT:    3887414  MISS:     434758  HIT %:    89.9412  MISS %:    10.0588   MPKI: 8.69516
L2C LOAD INSTRUCTION	ACCESS:    2781943  HIT:    2570714  MISS:     211229  HIT %:    92.4071  MISS %:    7.59286  MPKI: 4.22458
L2C LOAD TRANSLATION INSTRUCTION	ACCESS:        255  HIT:         60  MISS:        195  HIT %:    23.5294  MISS %:    76.4706  MPKI: 0.0039
L2C LOAD DATA	ACCESS:     646983  HIT:     574722  MISS:      72261  HIT %:    88.8311  MISS %:    11.1689  MPKI: 1.44522
L2C RFO DATA	ACCESS:     251435  HIT:     204001  MISS:      47434  HIT %:    81.1347  MISS %:    18.8653  MPKI: 0.94868
L2C PREFETCH DATA	ACCESS:     182349  HIT:     105953  MISS:      76396  HIT %:    58.1045  MISS %:    41.8955  MPKI: 1.52792
L2C WRITEBACK DATA	ACCESS:     457444  HIT:     431557  MISS:      25887  HIT %:    94.3409  MISS %:    5.65905  MPKI: 0.51774
L2C LOAD TRANSLATION DATA	ACCESS:       1738  HIT:        389  MISS:       1349  HIT %:     22.382  MISS %:     77.618  MPKI: 0.02698
L2C TRANSLATION FROM L1D PREFETCHER DATA	ACCESS:         25  HIT:         18  MISS:          7  HIT %:         72  MISS %:         28  MPKI: 0.00014

L2C PREFETCH  REQUESTED:      87732  ISSUED:      87732  USEFUL:       7219  USELESS:      69670
L2C USEFUL LOAD PREFETCHES:       7219 PREFETCH ISSUED TO LOWER LEVEL:      76817  ACCURACY: 9.39766
 TIMELY PREFETCHES:       7219 LATE PREFETCHES: 421 DROPPED PREFETCHES: 0
L2C AVERAGE MISS LATENCY: 38.1666 cycles
L2C RQ	ACCESS:    3682431	FORWARD:          0	MERGED:          0	TO_CACHE:    3682382
L2C WQ	ACCESS:     457445	FORWARD:         50	MERGED:          0	TO_CACHE:     457445
L2C PQ	ACCESS:     190356	FORWARD:          0	MERGED:       3868	TO_CACHE:     186487

L2C Dense regions hint from L2: 0
PSCL5 TOTAL     ACCESS:       3872  HIT:       1936  MISS:       1936  HIT %:         50  MISS %:         50   MPKI: 0.03872
PSCL5 LOAD TRANSLATION INSTRUCTION	ACCESS:       3822  HIT:       1911  MISS:       1911  HIT %:         50  MISS %:         50  MPKI: 0.03822
PSCL5 TRANSLATION FROM L1D PREFETCHER INSTRUCTION	ACCESS:         50  HIT:         25  MISS:         25  HIT %:         50  MISS %:         50  MPKI: 0.0005


PSCL4 TOTAL     ACCESS:       3721  HIT:       1858  MISS:       1863  HIT %:    49.9328  MISS %:    50.0672   MPKI: 0.03726
PSCL4 LOAD TRANSLATION INSTRUCTION	ACCESS:       2389  HIT:       1835  MISS:        554  HIT %:    76.8104  MISS %:    23.1896  MPKI: 0.01108
PSCL4 TRANSLATION FROM L1D PREFETCHER INSTRUCTION	ACCESS:         28  HIT:         23  MISS:          5  HIT %:    82.1429  MISS %:    17.8571  MPKI: 0.0001
PSCL4 LOAD TRANSLATION DATA	ACCESS:       1286  HIT:          0  MISS:       1286  HIT %:          0  MISS %:        100  MPKI: 0.02572
PSCL4 TRANSLATION FROM L1D PREFETCHER DATA	ACCESS:         18  HIT:          0  MISS:         18  HIT %:          0  MISS %:        100  MPKI: 0.00036


PSCL3 TOTAL     ACCESS:       3815  HIT:       1905  MISS:       1910  HIT %:    49.9345  MISS %:    50.0655   MPKI: 0.0382
PSCL3 LOAD TRANSLATION INSTRUCTION	ACCESS:       2436  HIT:       1882  MISS:        554  HIT %:    77.2578  MISS %:    22.7422  MPKI: 0.01108
PSCL3 TRANSLATION FROM L1D PREFETCHER INSTRUCTION	ACCESS:         28  HIT:         23  MISS:          5  HIT %:    82.1429  MISS %:    17.8571  MPKI: 0.0001
PSCL3 LOAD TRANSLATION DATA	ACCESS:       1333  HIT:          0  MISS:       1333  HIT %:          0  MISS %:        100  MPKI: 0.02666
PSCL3 TRANSLATION FROM L1D PREFETCHER DATA	ACCESS:         18  HIT:          0  MISS:         18  HIT %:          0  MISS %:        100  MPKI: 0.00036


PSCL2 TOTAL     ACCESS:       3800  HIT:       1864  MISS:       1936  HIT %:    49.0526  MISS %:    50.9474   MPKI: 0.03872
PSCL2 LOAD TRANSLATION INSTRUCTION	ACCESS:       2066  HIT:       1839  MISS:        227  HIT %:    89.0126  MISS %:    10.9874  MPKI: 0.00454
PSCL2 TRANSLATION FROM L1D PREFETCHER INSTRUCTION	ACCESS:         25  HIT:         25  MISS:          0  HIT %:        100  MISS %:          0  MPKI: 0
PSCL2 LOAD TRANSLATION DATA	ACCESS:       1684  HIT:          0  MISS:       1684  HIT %:          0  MISS %:        100  MPKI: 0.03368
PSCL2 TRANSLATION FROM L1D PREFETCHER DATA	ACCESS:         25  HIT:          0  MISS:         25  HIT %:          0  MISS %:        100  MPKI: 0.0005


LLC TOTAL     ACCESS:     480380  HIT:     452818  MISS:      27562  HIT %:    94.2625  MISS %:    5.73754   MPKI: 0.55124
LLC LOAD INSTRUCTION	ACCESS:     211229  HIT:     210423  MISS:        806  HIT %:    99.6184  MISS %:   0.381576  MPKI: 0.01612
LLC LOAD TRANSLATION INSTRUCTION	ACCESS:        195  HIT:        179  MISS:         16  HIT %:    91.7949  MISS %:    8.20513  MPKI: 0.00032
LLC LOAD DATA	ACCESS:      71861  HIT:      68390  MISS:       3471  HIT %:    95.1698  MISS %:    4.83016  MPKI: 0.06942
LLC RFO DATA	ACCESS:      47401  HIT:      34617  MISS:      12784  HIT %:    73.0301  MISS %:    26.9699  MPKI: 0.25568
LLC PREFETCH DATA	ACCESS:      76817  HIT:      66815  MISS:      10002  HIT %:    86.9794  MISS %:    13.0206  MPKI: 0.20004
LLC WRITEBACK DATA	ACCESS:      71521  HIT:      71088  MISS:        433  HIT %:    99.3946  MISS %:   0.605417  MPKI: 0.00866
LLC LOAD TRANSLATION DATA	ACCESS:       1349  HIT:       1299  MISS:         50  HIT %:    96.2936  MISS %:    3.70645  MPKI: 0.001
LLC TRANSLATION FROM L1D PREFETCHER DATA	ACCESS:          7  HIT:          7  MISS:          0  HIT %:        100  MISS %:          0  MPKI: 0

LLC AVERAGE MISS LATENCY: 155.779 cycles
LLC RQ	ACCESS:     332055	FORWARD:          0	MERGED:          0	TO_CACHE:     332043
LLC WQ	ACCESS:      71522	FORWARD:         12	MERGED:          0	TO_CACHE:      71522
LLC PQ	ACCESS:      76817	FORWARD:          0	MERGED:          0	TO_CACHE:      76817

LLC Dense regions hint to LLC: 0

RAW hits: 1949304
Loads Generated: 12622763
Loads sent to L1D: 10673459
Stores Generated: 6945471
Stores sent to L1D: 6945468
Major fault: 0 Minor fault: 2477
Allocated PAGES: 2477

stream: 
stream:times selected: 1188142
stream:pref_filled: 115162
stream:pref_useful: 22627
stream:pref_late: 7158
stream:misses: 7993
stream:misses_by_poll: 0

CS: 
CS:times selected: 179463
CS:pref_filled: 59827
CS:pref_useful: 36434
CS:pref_late: 7520
CS:misses: 18013
CS:misses_by_poll: 10

CPLX: 
CPLX:times selected: 1007515
CPLX:pref_filled: 21536
CPLX:pref_useful: 5997
CPLX:pref_late: 2970
CPLX:misses: 97092
CPLX:misses_by_poll: 0

NL_L1: 
NL:times selected: 17114
NL:pref_filled: 994
NL:pref_useful: 335
NL:pref_late: 275
NL:misses: 1475
NL:misses_by_poll: 0

total selections: 2392234
total_filled: 92679
total_useful: 35773
total_late: 19557
total_polluted: 10
total_misses_after_warmup: 688326
conflicts: 5519051

test: 114291

DRAM Statistics
 CHANNEL 0
 RQ ROW_BUFFER_HIT:       9996  ROW_BUFFER_MISS:      17127
 DBUS_CONGESTED:         13
 WQ ROW_BUFFER_HIT:       1287  ROW_BUFFER_MISS:      11396  FULL:          0

 AVG_CONGESTED_CYCLE: 5

CPU 0 Branch Prediction Accuracy: 99.8244% MPKI: 0.3217 Average ROB Occupancy at Mispredict: 192.043
Branch types
NOT_BRANCH: 40838298 81.6766%
BRANCH_DIRECT_JUMP: 546511 1.09302%
BRANCH_INDIRECT: 181659 0.363318%
BRANCH_CONDITIONAL: 6190436 12.3809%
BRANCH_DIRECT_CALL: 949345 1.89869%
BRANCH_INDIRECT_CALL: 172193 0.344386%
BRANCH_RETURN: 1121537 2.24307%
BRANCH_OTHER: 0 0%

DRAM PAGES: 1048576
Allocated PAGES: 2477
Average_ROB_Occupancy: 251.222
Average_Decode_Occupancy: 37.7882
Average_FTQ_Occupancy: 14.7438
Indirect max targets: 14 Average targets: 1.14527
Branch_type:  BRANCH_DIRECT_JUMP:  Count Percentage: 3.59886 5.89908 4.35202 9.75361 2.75148 6.50234 1.64019 65.5024 
Branch_type:  BRANCH_INDIRECT:  Count Percentage: 19.726 3.35594 5.25442 3.80853 3.35594 10.8769 3.25105 50.3712 
Branch_type:  BRANCH_CONDITIONAL:  Count Percentage: 21.4842 6.55547 2.67338 4.89998 2.73745 8.57622 1.08029 51.993 
Branch_type:  BRANCH_DIRECT_CALL:  Count Percentage: 0.795755 1.301 0.982275 4.77922 2.96549 3.0043 0.775505 85.3965 
Branch_type:  BRANCH_INDIRECT_CALL:  Count Percentage: 9.56259 0 3.00024 4.30824 0 3.74726 0.991375 78.3903 
Branch_type:  BRANCH_RETURN:  Count Percentage: 5.13063 4.33377 2.69156 4.07276 5.66942 9.98441 1.4387 66.6787 
Branch_type:  BRANCH_DIRECT_JUMP:  Total Count: 39302 64422 47527 106516 30048 71010 17912 715331 
Branch_type:  BRANCH_INDIRECT:  Total Count: 71652 12190 19086 13834 12190 39509 11809 182967 
Branch_type:  BRANCH_CONDITIONAL:  Total Count: 2658193 811095 330772 606265 338699 1061118 133662 6432995 
Branch_type:  BRANCH_DIRECT_CALL:  Total Count: 15090 24671 18627 90629 56235 56971 14706 1619384 
Branch_type:  BRANCH_INDIRECT_CALL:  Total Count: 32950 0 10338 14845 0 12912 3416 270111 
Branch_type:  BRANCH_RETURN:  Total Count: 115012 97149 60336 91298 127090 223818 32251 1494720 
Number of unique branch instructions: 9804
Upper 32 bits: 
aaaa
ffff
ffff0000
Unique upper 32 bits: 3
Unique upper 36 bits: 3
Unique upper 40 bits: 5
Unique upper 44 bits: 32
Unique upper 48 bits: 154
Variant_0 : 1379 0.33667
Variant_1 : 2638 0.644043
Variant_2 : 0 0
Variant_3 : 0 0
Offset_3 4031
Offset_4 243
Offset_5 449
Offset_6 498
Offset_7 571
Offset_8 507
Offset_9 463
Offset_10 374
Offset_11 301
Offset_12 269
Offset_13 203
Offset_14 227
Offset_15 184
Offset_16 220
Offset_17 145
Offset_18 118
Offset_19 234
Offset_20 136
Offset_21 235
Offset_22 391
Offset_23 241
Offset_24 331
Offset_25 88
Offset_47 82
Offset_64 2
decode_dispatch_called: 26097412 73.2834
Dispatch_width: 0 13896851 53.2499 39.0233
Dispatch_width: 1 1041164 3.98953 2.92366
Dispatch_width: 2 874407 3.35055 2.4554
Dispatch_width: 3 510869 1.95755 1.43456
Dispatch_width: 4 6428098 24.6312 18.0506
Dispatch_width: 5 111113 0.425763 0.312013
Dispatch_width: 6 3234910 12.3955 9.08386
Empty_decode_cycles: 9514223 26.7166
ROB_full_cycles: 10017824 28.1308
Starvation_cycles_per_kilo_instr: 223.589
Starvation_cycles_per_kilo_instr_3: 158.197
Starvation_cycles_per_kilo_instr_0: 133.932
Branch_type_1  (3,1)  (4,9)  (5,37)  (6,68)  (7,112)  (8,128)  (9,122)  (10,97)  (11,67)  (12,43)  (13,5)  (14,2)  (15,3)  (16,4)  (18,1)  (19,4)  (20,2)  (21,1)  (22,3)  (23,2)  (24,10)  (25,12)  (64,1) 
Branch_type_2  (3,1)  (5,1)  (8,3)  (9,3)  (12,1)  (13,1)  (14,1)  (16,3)  (17,2)  (20,2)  (21,2)  (23,5)  (24,1)  (47,38) 
Branch_type_3  (3,4029)  (4,234)  (5,407)  (6,415)  (7,430)  (8,315)  (9,255)  (10,151)  (11,120)  (12,50)  (13,4)  (64,1) 
Branch_type_4  (6,3)  (7,8)  (8,25)  (9,51)  (10,60)  (11,58)  (12,96)  (13,88)  (14,100)  (15,86)  (16,98)  (17,64)  (18,53)  (19,115)  (20,71)  (21,124)  (22,208)  (23,136)  (24,192)  (25,72) 
Branch_type_5  (8,2)  (9,1)  (10,3)  (11,5)  (12,3)  (13,14)  (14,16)  (15,11)  (16,20)  (17,11)  (18,16)  (19,12)  (20,10)  (21,13)  (22,42)  (23,26)  (24,37) 
Branch_type_6  (5,4)  (6,12)  (7,21)  (8,34)  (9,31)  (10,63)  (11,51)  (12,76)  (13,91)  (14,108)  (15,84)  (16,95)  (17,68)  (18,48)  (19,103)  (20,51)  (21,95)  (22,138)  (23,72)  (24,91)  (25,4)  (47,44) 
Unique trigger count: 
Variant_0_evicts_0 : 0
Variant_0_evicts_1 : 0
Variant_0_evicts_2 : 0
Variant_0_evicts_3 : 0
Variant_1_evicts_0 : 0
Variant_1_evicts_1 : 0
Variant_1_evicts_2 : 0
Variant_1_evicts_3 : 0
Variant_2_evicts_0 : 0
Variant_2_evicts_1 : 0
Variant_2_evicts_2 : 0
Variant_2_evicts_3 : 0
Variant_3_evicts_0 : 0
Variant_3_evicts_1 : 0
Variant_3_evicts_2 : 0
Variant_3_evicts_3 : 0
BTB PER SET UNIQUE ADDR: 6 9 6 7 10 11 7 10 9 10 8 9 12 8 10 7 9 13 8 10 7 11 11 10 8 13 8 8 9 10 11 12 16 9 8 12 9 11 8 10 10 9 11 12 11 9 7 6 7 10 9 8 12 11 9 7 7 7 9 13 10 15 11 12 9 7 8 11 11 9 12 8 7 8 9 8 6 9 9 10 10 7 8 11 8 11 12 7 10 19 9 8 7 9 10 10 8 7 11 7 11 10 9 7 11 9 7 7 7 8 8 17 10 8 9 8 10 14 11 11 11 7 9 10 11 10 5 7 12 8 6 8 7 8 13 13 8 13 10 9 8 10 12 14 8 14 14 9 11 10 13 9 8 8 6 13 12 12 12 8 10 7 11 8 9 10 11 7 13 12 9 10 11 13 8 8 8 8 8 10 11 8 10 12 9 16 6 10 11 10 8 9 6 10 9 11 8 11 9 10 11 12 6 10 9 11 11 7 9 10 8 10 10 9 9 9 8 11 8 12 4 10 4 11 8 8 13 11 8 15 11 6 9 12 7 12 16 11 13 6 9 8 12 15 10 9 9 11 13 10 14 13 9 7 9 8 8 6 10 9 10 4 6 12 7 7 10 7 11 6 9 12 12 4 8 5 9 9 10 10 10 6 12 9 10 7 9 14 12 12 8 8 13 12 7 12 10 9 7 9 8 10 9 17 10 11 10 6 13 10 8 15 6 15 13 7 13 12 11 14 8 12 10 7 9 13 8 6 7 7 11 9 6 12 10 9 10 13 9 14 6 11 8 9 9 12 8 9 11 11 11 9 10 6 9 11 8 8 6 9 9 11 9 12 9 10 6 12 14 12 10 6 6 9 11 13 10 13 11 11 8 7 8 8 9 8 13 7 13 8 13 9 11 10 7 10 8 6 11 9 8 5 8 9 11 11 9 11 10 9 9 7 7 5 9 10 12 12 13 13 10 13 11 9 11 7 9 10 11 8 15 12 8 8 8 12 14 9 8 13 15 7 6 14 13 10 12 10 10 6 9 10 8 10 12 9 10 8 8 13 10 9 10 12 14 7 11 13 9 10 10 8 9 10 8 13 12 9 10 10 9 8 8 13 6 8 15 13 13 17 6 9 8 10 7 8 9 10 9 15 10 11 7 13 10 9 4 11 8 13 12 10 10 11 11 11 9 12 8 7 8 10 10 11 11 10 10 7 7 13 13 9 11 5 9 12 7 13 10 10 8 6 10 6 12 9 10 10 9 12 8 13 12 11 8 11 9 9 11 12 9 9 7 10 7 12 11 11 9 13 10 8 10 13 8 8 11 13 11 7 8 9 6 10 11 10 10 10 12 10 5 5 10 7 16 6 7 10 11 9 12 11 10 5 13 9 16 10 8 11 9 10 8 10 6 7 10 14 10 12 15 5 4 9 13 14 7 11 7 10 8 14 12 8 10 11 12 16 9 13 6 10 10 10 9 13 9 10 13 5 8 10 6 12 9 8 12 10 10 14 8 8 12 15 10 10 9 13 13 7 13 10 11 9 11 10 8 12 11 9 8 9 11 10 10 5 7 10 12 10 8 10 8 8 12 9 9 10 5 14 8 13 8 11 6 12 9 12 10 5 6 9 6 9 8 8 14 9 6 12 9 8 10 7 7 9 9 9 7 12 10 6 9 8 7 11 6 6 11 10 9 7 7 12 9 11 8 11 9 7 13 9 9 11 8 8 9 8 9 10 8 9 10 9 11 15 6 11 9 11 14 12 8 8 10 7 7 11 10 11 5 13 9 8 12 8 9 8 8 8 6 6 9 13 8 7 10 11 13 9 11 9 11 14 9 12 11 8 9 9 7 11 10 12 9 10 16 12 6 13 8 11 9 10 16 8 7 8 7 14 10 6 12 9 10 10 9 12 7 8 9 8 9 11 9 16 8 18 7 11 8 8 9 7 8 10 12 8 13 11 7 7 13 9 10 9 9 8 8 10 10 15 14 10 8 8 11 8 8 11 16 6 13 8 12 10 12 11 6 12 9 7 9 7 10 9 14 9 7 9 10 12 11 10 6 14 9 13 12 9 9 11 8 11 10 11 11 12 7 9 10 6 13 10 9 9 7 9 9 10 11 14 14 9 9 14 10 11 10 13 8 10 10 9 12 10 7 15 8 12 8 6 8 7 6 9 6 7 9 9 7 7 8 10 6 10 8 9 7 10 8 13 8 9 10 9 11 9 12 15 8 12 7 10 11 14 14 8 9 10 10 8 8 13 8 7 7 8 18 6 13 11 7 11 14 12 10 8 9 11 5 10 8 7 7 7 6 9 8 7 8 14 12 8 
BTB PER SET COUNT: 936 16 1484 7 10 13 7 15 1217 10 8 476 18 11 10 8 2042 23 10 10 10 12 166 15 16 17 8 9 125 10 546 19 21 9 10 619 9 16 12 1299 10 16 11 2491 293 94 8 6 8 10 13 8 17 14 9 360 10 7 322 14 14 20 579 12 9 9 8 24 20 12 1474 9 7 9 11 11 6 13 10 13 13 7 9 11 10 63 15 8 13 25 742 607 7 391 13 10 10 1021 14 8 13 11 10 7 2658 11 17 8 10 11 9 23 441 10 11 12 12 19 1494 16 22 43 11 13 11 98 5 1867 15 938 6 8 7 9 34 16 1019 14 15 10 8 11 13 23 10 361 1038 10 13 13 21 9 667 8 6 18 1024 15 129 10 11 8 231 10 70 16 14 9 13 1731 11 11 15 16 10 893 10 10 8 436 193 170 421 18 10 25 9 19 130 480 11 12 7 12 11 13 11 13 9 23 13 42 6 10 11 13 13 8 10 1868 10 19 10 9 13 1024 8 15 2961 14 4 11 7 12 14 9 13 13 8 34 20 10 9 20 7 13 80 210 24 6 12 9 872 729 20 14 1388 11 109 15 21 22 9 8 9 9 83 6 12 13 529 4 6 486 7 8 15 10 17 6 11 416 940 4 8 5 11 12 10 13 20 6 96 312 10 7 9 18 23 16 11 8 16 22 8 12 10 10 7 931 11 11 9 27 15 12 15 473 54 936 10 17 6 25 19 472 15 21 11 26 10 3429 13 9 10 286 191 6 7 13 16 9 6 12 12 12 11 846 12 20 6 170 11 15 10 13 12 18 15 37 1592 9 11 6 9 11 11 8 7 11 10 12 9 15 13 946 6 18 25 16 12 358 6 14 1021 216 11 14 12 20 8 7 10 8 11 9 16 7 15 1402 250 10 14 11 9 15 8 6 55 18 9 5 605 13 14 15 11 110 11 10 10 8 8 5 9 11 16 20650 14 17 10 15 15 9 13 8 832 10 16 9 23 20 8 16 8 19 19 97 10 17 142 7 7 15 20 11 795 13 12 7 941 956 10 11 21 12 11 8 9 14 12 9 13 24 19 7 15283 13 11 14 12 11 12 12 9 15 17 14 11 13 12 411 9 15 7 9 540 25 24 26 188 10 148 11 8 10 1486 830 13 22 12 14 8 107 13 13 4 13 9 15 20 12 13 563 13 12 9 13 11 7 10 10 10 560 13 266 421 7 7 2590 20 10 391 5 11 14 1202 973 12 13 8 7 38 6 14 10 10 13 14 942 10 18 17 27 8 12 9 10 14 29 17 97 7 14 7 13 16 15 10 15 116 10 15 17 1484 9 12 23 11 7 10 10 14 2965 18 12 10 12 21 15 1941 6 13 8 20 7 7 954 13 9 14 17 12 5 15 12 28 2283 9 14 9 11 10 10 6 8 470 17 20 14 22 5 5 51 14 15 7 12 1200 17 9 23 639 37 12 438 13 112 10 22 7 14 11 12 11 15 10 18 16 5 9 16 6 18 11 478 13 18 10 445 13 8 16 17 52 10 13 1027 1496 8 22 22 18 11 56 179 10 15 17 11 9 9 1487 10 567 6 8 11 290 13 9 13 9 9 2234 11 444 181 5 17 12 18 13 14 7 837 10 15 13 5 8 9 938 9 10 139 26 10 7 585 9 1078 17 291 7 11 9 11 9 3096 468 6 130 9 7 2033 7 8 12 12 19 9 756 15 590 16 9 12 11 7 26 32 292 610 1486 9 9 10 11 13 8 10 10 12 1860 17 6 14 10 12 15 122 8 8 14 10 7 841 13 18 1400 15 16 11 13 9 9 9 9 10 6 7 11 17 1248 243 199 13 20 360 14 10 532 18 9 21 13 9 12 66 9 7702 10 16 14 1097 260 2503 6 1570 12 1241 15 11 1329 8 9 9 8 20 14 7 20 10 10 2037 15 101 938 8 10 1032 10 15 27 18 474 26 7 16 1443 189 9 9 194 13 98 10 17 14 754 7 16 10 12 9 10 11 10 10 945 23 19 11 14 8 12 8 8 12 19 7 19 8 13 18 12 17 7 20 11 7 10 10 16 14 16 13 7 9 14 12 18 11 6 19 9 18 42 12 9 13 8 12 10 12 1317 30 9 9 14 940 18 12 10 10 7 11 11 10 19 23 603 13 11 20 11 13 13 14 9 1376 13 10 13 16 8 19 9 16 53 42 11 9 6 9 7 8 9 12 8 10 940 16 7 14 11 12 8 10 68 40 12 11 284 14 13 9 288 26 2026 517 7 1019 13 21 16 25 11 14 11 497 11 14 8 7 15 1488 47 6 17 644 7 18 15 21 12 9 10 14 7 654 12 7 9 8 7 9 8 9 8 22 20 9 
To predecode: 0
Predecoding something: 0
Predecode request dropped: 0
sizeofblock_0 0
sizeofblock_1 51718
sizeofblock_2 90214
sizeofblock_3 0
sizeofblock_4 0
sizeofblock_5 0
sizeofblock_6 0
sizeofblock_7 0
sizeofblock_8 0
Variant_0 Correct: 1617651 Incorrect: 0 Accuracy: 1
Variant_1 Correct: 5750436 Incorrect: 0 Accuracy: 1
Variant_2 Correct: 0 Incorrect: 0 Accuracy: -nan
Variant_3 Correct: 0 Incorrect: 0 Accuracy: -nan
