
*** ChampSim Multicore Out-of-Order Simulator ***

Warmup Instructions: 50000000
Simulation Instructions: 50000000
Number of CPUs: 1
LLC sets: 2048
LLC ways: 16
Off-chip DRAM Size: 4096 MB Channels: 1 Width: 64-bit Data Rate: 6400 MT/s
CPU 0 runs ./micro_traces/srv190.trace.gz
.gz
ITLB has LRU replacement policy
DTLB has LRU replacement policy
STLB has LRU replacement policy
FDIP Prefetcher at L1I
L1I has LRU replacement policy
L1D has LRU replacement policy
Initialize SRRIP state for L2C
Initialize DRRIP state for LLC
Heartbeat_Variant_0 : 1298 0.158447 per_variant_size: 0 1298 0 0 0 0 0 0 0 
Heartbeat_Variant_1 : 2796 0.341309 per_variant_size: 0 1207 1589 0 0 0 0 0 0 
Heartbeat_Variant_2 : 0 0 per_variant_size: 0 0 0 0 0 0 0 0 0 
Heartbeat_Variant_3 : 0 0 per_variant_size: 0 0 0 0 0 0 0 0 0 
Heartbeat_Variant_0_evicts 0 : 5439 1 : 0 2 : 0 3 : 0 
Heartbeat_Variant_1_evicts 0 : 0 1 : 0 2 : 0 3 : 0 
Heartbeat_Variant_2_evicts 0 : 0 1 : 0 2 : 0 3 : 0 
Heartbeat_Variant_3_evicts 0 : 0 1 : 0 2 : 0 3 : 0 
Heartbeat CPU 0 instructions: 10000000 cycles: 2797490 heartbeat IPC: 3.57463 cumulative IPC: 3.57463 (Simulation time: 0 hr 2 min 6 sec) 
Heartbeat_Variant_0 : 1392 0.169922 per_variant_size: 0 1392 0 0 0 0 0 0 0 
Heartbeat_Variant_1 : 3010 0.367432 per_variant_size: 0 1231 1779 0 0 0 0 0 0 
Heartbeat_Variant_2 : 0 0 per_variant_size: 0 0 0 0 0 0 0 0 0 
Heartbeat_Variant_3 : 0 0 per_variant_size: 0 0 0 0 0 0 0 0 0 
Heartbeat_Variant_0_evicts 0 : 5522 1 : 1 2 : 0 3 : 0 
Heartbeat_Variant_1_evicts 0 : 0 1 : 0 2 : 0 3 : 0 
Heartbeat_Variant_2_evicts 0 : 0 1 : 0 2 : 0 3 : 0 
Heartbeat_Variant_3_evicts 0 : 0 1 : 0 2 : 0 3 : 0 
Heartbeat CPU 0 instructions: 20000001 cycles: 5594179 heartbeat IPC: 3.57566 cumulative IPC: 3.57515 (Simulation time: 0 hr 4 min 7 sec) 
Heartbeat_Variant_0 : 1392 0.169922 per_variant_size: 0 1392 0 0 0 0 0 0 0 
Heartbeat_Variant_1 : 3010 0.367432 per_variant_size: 0 1236 1774 0 0 0 0 0 0 
Heartbeat_Variant_2 : 0 0 per_variant_size: 0 0 0 0 0 0 0 0 0 
Heartbeat_Variant_3 : 0 0 per_variant_size: 0 0 0 0 0 0 0 0 0 
Heartbeat_Variant_0_evicts 0 : 5596 1 : 0 2 : 0 3 : 0 
Heartbeat_Variant_1_evicts 0 : 0 1 : 0 2 : 0 3 : 0 
Heartbeat_Variant_2_evicts 0 : 0 1 : 0 2 : 0 3 : 0 
Heartbeat_Variant_3_evicts 0 : 0 1 : 0 2 : 0 3 : 0 
Heartbeat CPU 0 instructions: 30000001 cycles: 8389735 heartbeat IPC: 3.57711 cumulative IPC: 3.5758 (Simulation time: 0 hr 6 min 10 sec) 
Heartbeat_Variant_0 : 1392 0.169922 per_variant_size: 0 1392 0 0 0 0 0 0 0 
Heartbeat_Variant_1 : 3011 0.367554 per_variant_size: 0 1236 1775 0 0 0 0 0 0 
Heartbeat_Variant_2 : 0 0 per_variant_size: 0 0 0 0 0 0 0 0 0 
Heartbeat_Variant_3 : 0 0 per_variant_size: 0 0 0 0 0 0 0 0 0 
Heartbeat_Variant_0_evicts 0 : 5511 1 : 0 2 : 0 3 : 0 
Heartbeat_Variant_1_evicts 0 : 0 1 : 0 2 : 0 3 : 0 
Heartbeat_Variant_2_evicts 0 : 0 1 : 0 2 : 0 3 : 0 
Heartbeat_Variant_3_evicts 0 : 0 1 : 0 2 : 0 3 : 0 
Heartbeat CPU 0 instructions: 40000000 cycles: 11185460 heartbeat IPC: 3.57689 cumulative IPC: 3.57607 (Simulation time: 0 hr 8 min 23 sec) 
Heartbeat_Variant_0 : 1395 0.170288 per_variant_size: 0 1395 0 0 0 0 0 0 0 
Heartbeat_Variant_1 : 3023 0.369019 per_variant_size: 0 1240 1783 0 0 0 0 0 0 
Heartbeat_Variant_2 : 0 0 per_variant_size: 0 0 0 0 0 0 0 0 0 
Heartbeat_Variant_3 : 0 0 per_variant_size: 0 0 0 0 0 0 0 0 0 
Heartbeat_Variant_0_evicts 0 : 5557 1 : 0 2 : 0 3 : 0 
Heartbeat_Variant_1_evicts 0 : 0 1 : 0 2 : 0 3 : 0 
Heartbeat_Variant_2_evicts 0 : 0 1 : 0 2 : 0 3 : 0 
Heartbeat_Variant_3_evicts 0 : 0 1 : 0 2 : 0 3 : 0 
Heartbeat CPU 0 instructions: 50000003 cycles: 13981938 heartbeat IPC: 3.57593 cumulative IPC: 3.57604 (Simulation time: 0 hr 10 min 28 sec) 

Warmup complete CPU 0 instructions: 50000003 cycles: 13981938 (Simulation time: 0 hr 10 min 28 sec) 

Cycle: 20000000 FTQ IN: 58260274 FTQ occupancy: 20.0465 DECODE IN: 58260274 DECODE occupancy: 52.3405 ROB IN: 58260274 ROB occupancy: 315.716 ROB OUT: 58260176
Heartbeat_Variant_0 : 1395 0.170288 per_variant_size: 0 1395 0 0 0 0 0 0 0 
Heartbeat_Variant_1 : 3027 0.369507 per_variant_size: 0 1252 1775 0 0 0 0 0 0 
Heartbeat_Variant_2 : 0 0 per_variant_size: 0 0 0 0 0 0 0 0 0 
Heartbeat_Variant_3 : 0 0 per_variant_size: 0 0 0 0 0 0 0 0 0 
Heartbeat_Variant_0_evicts 0 : 5527 1 : 0 2 : 0 3 : 0 
Heartbeat_Variant_1_evicts 0 : 1 1 : 0 2 : 0 3 : 0 
Heartbeat_Variant_2_evicts 0 : 0 1 : 0 2 : 0 3 : 0 
Heartbeat_Variant_3_evicts 0 : 0 1 : 0 2 : 0 3 : 0 
Heartbeat CPU 0 instructions: 60000003 cycles: 21253776 heartbeat IPC: 1.37517 cumulative IPC: 1.37517 (Simulation time: 0 hr 12 min 56 sec) 
Heartbeat_Variant_0 : 1396 0.17041 per_variant_size: 0 1396 0 0 0 0 0 0 0 
Heartbeat_Variant_1 : 3031 0.369995 per_variant_size: 0 1253 1778 0 0 0 0 0 0 
Heartbeat_Variant_2 : 0 0 per_variant_size: 0 0 0 0 0 0 0 0 0 
Heartbeat_Variant_3 : 0 0 per_variant_size: 0 0 0 0 0 0 0 0 0 
Heartbeat_Variant_0_evicts 0 : 5604 1 : 0 2 : 0 3 : 0 
Heartbeat_Variant_1_evicts 0 : 0 1 : 0 2 : 0 3 : 0 
Heartbeat_Variant_2_evicts 0 : 0 1 : 0 2 : 0 3 : 0 
Heartbeat_Variant_3_evicts 0 : 0 1 : 0 2 : 0 3 : 0 
Heartbeat CPU 0 instructions: 70000002 cycles: 28425974 heartbeat IPC: 1.39427 cumulative IPC: 1.38465 (Simulation time: 0 hr 15 min 13 sec) 
Cycle: 30000000 FTQ IN: 13933424 FTQ occupancy: 13.0248 DECODE IN: 13933367 DECODE occupancy: 34.4784 ROB IN: 13933367 ROB occupancy: 240.15 ROB OUT: 13933465
Heartbeat_Variant_0 : 1396 0.17041 per_variant_size: 0 1396 0 0 0 0 0 0 0 
Heartbeat_Variant_1 : 3033 0.370239 per_variant_size: 0 1252 1781 0 0 0 0 0 0 
Heartbeat_Variant_2 : 0 0 per_variant_size: 0 0 0 0 0 0 0 0 0 
Heartbeat_Variant_3 : 0 0 per_variant_size: 0 0 0 0 0 0 0 0 0 
Heartbeat_Variant_0_evicts 0 : 5575 1 : 0 2 : 0 3 : 0 
Heartbeat_Variant_1_evicts 0 : 0 1 : 0 2 : 0 3 : 0 
Heartbeat_Variant_2_evicts 0 : 0 1 : 0 2 : 0 3 : 0 
Heartbeat_Variant_3_evicts 0 : 0 1 : 0 2 : 0 3 : 0 
Heartbeat CPU 0 instructions: 80000001 cycles: 35710757 heartbeat IPC: 1.37272 cumulative IPC: 1.38065 (Simulation time: 0 hr 17 min 39 sec) 
Cycle: 40000000 FTQ IN: 13792997 FTQ occupancy: 13.1453 DECODE IN: 13793000 DECODE occupancy: 34.4321 ROB IN: 13792940 ROB occupancy: 239.893 ROB OUT: 13792592
Heartbeat_Variant_0 : 1396 0.17041 per_variant_size: 0 1396 0 0 0 0 0 0 0 
Heartbeat_Variant_1 : 3035 0.370483 per_variant_size: 0 1252 1783 0 0 0 0 0 0 
Heartbeat_Variant_2 : 0 0 per_variant_size: 0 0 0 0 0 0 0 0 0 
Heartbeat_Variant_3 : 0 0 per_variant_size: 0 0 0 0 0 0 0 0 0 
Heartbeat_Variant_0_evicts 0 : 5503 1 : 0 2 : 0 3 : 0 
Heartbeat_Variant_1_evicts 0 : 0 1 : 0 2 : 0 3 : 0 
Heartbeat_Variant_2_evicts 0 : 0 1 : 0 2 : 0 3 : 0 
Heartbeat_Variant_3_evicts 0 : 0 1 : 0 2 : 0 3 : 0 
Heartbeat CPU 0 instructions: 90000003 cycles: 42892688 heartbeat IPC: 1.39238 cumulative IPC: 1.38357 (Simulation time: 0 hr 20 min 13 sec) 
Cycle: 50000000 FTQ IN: 13789318 FTQ occupancy: 13.1278 DECODE IN: 13789251 DECODE occupancy: 34.3011 ROB IN: 13789251 ROB occupancy: 239.476 ROB OUT: 13789247
Heartbeat_Variant_0 : 1396 0.17041 per_variant_size: 0 1396 0 0 0 0 0 0 0 
Heartbeat_Variant_1 : 3036 0.370605 per_variant_size: 0 1241 1795 0 0 0 0 0 0 
Heartbeat_Variant_2 : 0 0 per_variant_size: 0 0 0 0 0 0 0 0 0 
Heartbeat_Variant_3 : 0 0 per_variant_size: 0 0 0 0 0 0 0 0 0 
Heartbeat_Variant_0_evicts 0 : 5642 1 : 2 2 : 0 3 : 0 
Heartbeat_Variant_1_evicts 0 : 2 1 : 0 2 : 0 3 : 0 
Heartbeat_Variant_2_evicts 0 : 0 1 : 0 2 : 0 3 : 0 
Heartbeat_Variant_3_evicts 0 : 0 1 : 0 2 : 0 3 : 0 
Heartbeat CPU 0 instructions: 100000003 cycles: 50158654 heartbeat IPC: 1.37628 cumulative IPC: 1.3821 (Simulation time: 0 hr 22 min 40 sec) 
Finished CPU 0 instructions: 50000000 cycles: 36176716 cumulative IPC: 1.3821 (Simulation time: 0 hr 22 min 40 sec) 

ChampSim completed all CPUs

Region of Interest Statistics

CPU 0 cumulative IPC: 1.3821 instructions: 50000000 cycles: 36176716
 Fetch stage stalled: 53.4919  Sim cycles: 36176716 fetch stall cycle: 19351625
 Empty decode stage: 34.1794  Sim cycles: 36176716 fetch stall cycle: 12364970
ITLB TOTAL     ACCESS:    5846355  HIT:    5350735  MISS:     495620  HIT %:    91.5226  MISS %:    8.47742   MPKI: 9.9124
ITLB LOAD TRANSLATION INSTRUCTION	ACCESS:    5722346  HIT:    5226726  MISS:     495620  HIT %:    91.3389  MISS %:    8.66113  MPKI: 9.9124
ITLB TRANSLATION FROM L1D PREFETCHER INSTRUCTION	ACCESS:     124009  HIT:     124009  MISS:          0  HIT %:        100  MISS %:          0  MPKI: 0

ITLB AVERAGE MISS LATENCY: 9.06409 cycles
ITLB RQ	ACCESS:    7997018	FORWARD:          0	MERGED:    1703170	TO_CACHE:    6293848

DTLB TOTAL     ACCESS:    8973683  HIT:    8498541  MISS:     475142  HIT %:    94.7052  MISS %:    5.29484   MPKI: 9.50284
DTLB LOAD TRANSLATION DATA	ACCESS:    8973683  HIT:    8498541  MISS:     475142  HIT %:    94.7052  MISS %:    5.29484  MPKI: 9.50284

DTLB AVERAGE MISS LATENCY: 9.38325 cycles
DTLB RQ	ACCESS:   13346703	FORWARD:          0	MERGED:    4336377	TO_CACHE:    9010326

STLB TOTAL     ACCESS:    1220348  HIT:    1217902  MISS:       2446  HIT %:    99.7996  MISS %:   0.200435   MPKI: 0.04892
STLB LOAD TRANSLATION INSTRUCTION	ACCESS:     495620  HIT:     495303  MISS:        317  HIT %:     99.936  MISS %:  0.0639603  MPKI: 0.00634
STLB LOAD TRANSLATION DATA	ACCESS:     475142  HIT:     473044  MISS:       2098  HIT %:    99.5584  MISS %:   0.441552  MPKI: 0.04196
STLB TRANSLATION FROM L1D PREFETCHER DATA	ACCESS:     249586  HIT:     249555  MISS:         31  HIT %:    99.9876  MISS %:  0.0124206  MPKI: 0.00062

STLB AVERAGE MISS LATENCY: 74.3843 cycles
STLB RQ	ACCESS:    1341383	FORWARD:          0	MERGED:     120992	TO_CACHE:    1220391

STLB Hit, L1D data hit: 0
STLB Hit, L2C data hit: 0
STLB Hit, LLC data hit: 0
STLB Hit, LLC data miss: 0
STLB STLB hints to L2: 0
L1D TOTAL     ACCESS:   13092349  HIT:   11966451  MISS:    1125898  HIT %:    91.4003  MISS %:    8.59966   MPKI: 22.518
L1D LOAD DATA	ACCESS:    6555476  HIT:    5813375  MISS:     742101  HIT %:    88.6797  MISS %:    11.3203  MPKI: 14.842
L1D RFO DATA	ACCESS:    6207856  HIT:    5919907  MISS:     287949  HIT %:    95.3615  MISS %:    4.63846  MPKI: 5.75898
L1D PREFETCH DATA	ACCESS:     329017  HIT:     233169  MISS:      95848  HIT %:    70.8684  MISS %:    29.1316  MPKI: 1.91696

L1D PREFETCH  REQUESTED:     741624  ISSUED:     741624  USEFUL:      35084  USELESS:      69591
L1D USEFUL LOAD PREFETCHES:      35084 PREFETCH ISSUED TO LOWER LEVEL:     104764  ACCURACY: 33.4886
 TIMELY PREFETCHES:      35084 LATE PREFETCHES: 8846 DROPPED PREFETCHES: 8
L1D AVERAGE MISS LATENCY: 254092 cycles
L1D RQ	ACCESS:   10695268	FORWARD:          0	MERGED:    3942338	TO_CACHE:    6590172
L1D WQ	ACCESS:    6952185	FORWARD:     163140	MERGED:     195654	TO_CACHE:    6756531
L1D PQ	ACCESS:     371003	FORWARD:          0	MERGED:          0	TO_CACHE:     370621

L1D UNIQUE REGIONS ACCESSED: 0
L1D REGIONS CONFLICTS: 0
L1D Cross Page Prefetch Requests: 6935
L1D Same Page Prefetch Requests: 743851
L1D ROI Sum of L1D PQ occupancy: 4718456
L1D PREFETCHES PUSHED FROM L2C: 0
L1I TOTAL     ACCESS:    7149366  HIT:    4378671  MISS:    2770695  HIT %:    61.2456  MISS %:    38.7544   MPKI: 55.4139
L1I LOAD INSTRUCTION	ACCESS:    6487653  HIT:    3716958  MISS:    2770695  HIT %:    57.2928  MISS %:    42.7072  MPKI: 55.4139
L1I PREFETCH INSTRUCTION	ACCESS:     661713  HIT:     661713  MISS:          0  HIT %:        100  MISS %:          0  MPKI: 0

L1I PREFETCH  REQUESTED:    1614895  ISSUED:    1614895  USEFUL:          0  USELESS:          0
L1I USEFUL LOAD PREFETCHES:          0 PREFETCH ISSUED TO LOWER LEVEL:          0  ACCURACY: -nan
 TIMELY PREFETCHES:          0 LATE PREFETCHES: 0 DROPPED PREFETCHES: 0
L1I AVERAGE MISS LATENCY: 17.2586 cycles
L1I RQ	ACCESS:    9505720	FORWARD:          0	MERGED:    2691649	TO_CACHE:    6814071
L1I PQ	ACCESS:    1614895	FORWARD:          0	MERGED:     431948	TO_CACHE:    1182947

L1BTB TOTAL     ACCESS:    5670036  HIT:    2036779  MISS:    3633257  HIT %:    35.9218  MISS %:    64.0782   MPKI: 72.6651
L1BTB BRANCH_DIRECT_JUMP	ACCESS:     547831 HIT:     143960 MISS:     403871 AVERAGE STALL: 49.9825 AVERAGE FETCH STALL: 13.5434 AVERAGE FETCH QUEUE STALL: 16.9249 AVERAGE DECODE STALL: 18.5797 AVERAGE EXECUTE STALL: 2.4394e+15
L1BTB BRANCH_INDIRECT	ACCESS:     182851 HIT:      65933 MISS:     116918 AVERAGE STALL: 103.966 AVERAGE FETCH STALL: 12.1831 AVERAGE FETCH QUEUE STALL: 14.1774 AVERAGE DECODE STALL: 11.67 AVERAGE EXECUTE STALL: 64.9726
L1BTB BRANCH_CONDITIONAL	ACCESS:    2706852 HIT:    1412641 MISS:    1294211 AVERAGE STALL: 88.0207 AVERAGE FETCH STALL: 19.8882 AVERAGE FETCH QUEUE STALL: 43.0829 AVERAGE DECODE STALL: 24.3895 AVERAGE EXECUTE STALL: 4.44607e+15
L1BTB BRANCH_DIRECT_CALL	ACCESS:     944853 HIT:     104596 MISS:     840257 AVERAGE STALL: 65.4774 AVERAGE FETCH STALL: 14.6774 AVERAGE FETCH QUEUE STALL: 32.4968 AVERAGE DECODE STALL: 17.3613 AVERAGE EXECUTE STALL: 1.19011e+17
L1BTB BRANCH_INDIRECT_CALL	ACCESS:     171393 HIT:      20832 MISS:     150561 AVERAGE STALL: 132.668 AVERAGE FETCH STALL: 12.612 AVERAGE FETCH QUEUE STALL: 14.5269 AVERAGE DECODE STALL: 10.8291 AVERAGE EXECUTE STALL: 94.2115
L1BTB BRANCH_RETURN	ACCESS:    1116256 HIT:     288817 MISS:     827439 AVERAGE STALL: 47.3025 AVERAGE FETCH STALL: 16.307 AVERAGE FETCH QUEUE STALL: 4.84979 AVERAGE DECODE STALL: 5.61494 AVERAGE EXECUTE STALL: 4.40582e+14
L1BTB BRANCH_OTHER ACCESS:          0 HIT:          0 MISS:          0 AVERAGE STALL: -nan AVERAGE FETCH STALL: -nan AVERAGE FETCH QUEUE STALL: -nan AVERAGE DECODE STALL: -nan AVERAGE EXECUTE STALL: -nan
L1BTB TOTAL ROB OCCUPANCY AT BTB MISS: 2.32997

L2BTB TOTAL     ACCESS:    3607908  HIT:    3547097  MISS:      60811  HIT %:    98.3145  MISS %:    1.68549   MPKI: 1.21622
L2BTB BRANCH_DIRECT_JUMP	ACCESS:     399730 HIT:     396306 MISS:       3424 AVERAGE STALL: 49.9825 AVERAGE FETCH STALL: 13.5434 AVERAGE FETCH QUEUE STALL: 16.9249 AVERAGE DECODE STALL: 18.5797 AVERAGE EXECUTE STALL: 2.4394e+15
L2BTB BRANCH_INDIRECT	ACCESS:     106622 HIT:     103969 MISS:       2653 AVERAGE STALL: 103.966 AVERAGE FETCH STALL: 12.1831 AVERAGE FETCH QUEUE STALL: 14.1774 AVERAGE DECODE STALL: 11.67 AVERAGE EXECUTE STALL: 64.9726
L2BTB BRANCH_CONDITIONAL	ACCESS:    1294210 HIT:    1290041 MISS:       4169 AVERAGE STALL: 88.0207 AVERAGE FETCH STALL: 19.8882 AVERAGE FETCH QUEUE STALL: 43.0829 AVERAGE DECODE STALL: 24.3895 AVERAGE EXECUTE STALL: 4.44607e+15
L2BTB BRANCH_DIRECT_CALL	ACCESS:     840257 HIT:     840102 MISS:        155 AVERAGE STALL: 65.4774 AVERAGE FETCH STALL: 14.6774 AVERAGE FETCH QUEUE STALL: 32.4968 AVERAGE DECODE STALL: 17.3613 AVERAGE EXECUTE STALL: 1.19011e+17
L2BTB BRANCH_INDIRECT_CALL	ACCESS:     141063 HIT:     131116 MISS:       9947 AVERAGE STALL: 132.668 AVERAGE FETCH STALL: 12.612 AVERAGE FETCH QUEUE STALL: 14.5269 AVERAGE DECODE STALL: 10.8291 AVERAGE EXECUTE STALL: 94.2115
L2BTB BRANCH_RETURN	ACCESS:     826026 HIT:     785563 MISS:      40463 AVERAGE STALL: 47.3025 AVERAGE FETCH STALL: 16.307 AVERAGE FETCH QUEUE STALL: 4.84979 AVERAGE DECODE STALL: 5.61494 AVERAGE EXECUTE STALL: 4.40582e+14
L2BTB BRANCH_OTHER ACCESS:          0 HIT:          0 MISS:          0 AVERAGE STALL: -nan AVERAGE FETCH STALL: -nan AVERAGE FETCH QUEUE STALL: -nan AVERAGE DECODE STALL: -nan AVERAGE EXECUTE STALL: -nan
L2BTB TOTAL ROB OCCUPANCY AT BTB MISS: 139.208

L2C TOTAL     ACCESS:    4504932  HIT:    4019995  MISS:     484937  HIT %:    89.2354  MISS %:    10.7646   MPKI: 9.69874
L2C LOAD INSTRUCTION	ACCESS:    2770695  HIT:    2506333  MISS:     264362  HIT %:    90.4586  MISS %:    9.54136  MPKI: 5.28724
L2C LOAD TRANSLATION INSTRUCTION	ACCESS:        352  HIT:        103  MISS:        249  HIT %:    29.2614  MISS %:    70.7386  MPKI: 0.00498
L2C LOAD DATA	ACCESS:     733219  HIT:     661878  MISS:      71341  HIT %:    90.2702  MISS %:    9.72984  MPKI: 1.42682
L2C RFO DATA	ACCESS:     287841  HIT:     231320  MISS:      56521  HIT %:    80.3638  MISS %:    19.6362  MPKI: 1.13042
L2C PREFETCH DATA	ACCESS:     185221  HIT:     108365  MISS:      76856  HIT %:    58.5058  MISS %:    41.4942  MPKI: 1.53712
L2C WRITEBACK DATA	ACCESS:     525377  HIT:     511356  MISS:      14021  HIT %:    97.3312  MISS %:    2.66875  MPKI: 0.28042
L2C LOAD TRANSLATION DATA	ACCESS:       2166  HIT:        602  MISS:       1564  HIT %:    27.7932  MISS %:    72.2068  MPKI: 0.03128
L2C TRANSLATION FROM L1D PREFETCHER DATA	ACCESS:         61  HIT:         38  MISS:         23  HIT %:    62.2951  MISS %:    37.7049  MPKI: 0.00046

L2C PREFETCH  REQUESTED:      87717  ISSUED:      87717  USEFUL:       8274  USELESS:      69083
L2C USEFUL LOAD PREFETCHES:       8274 PREFETCH ISSUED TO LOWER LEVEL:      77187  ACCURACY: 10.7194
 TIMELY PREFETCHES:       8274 LATE PREFETCHES: 330 DROPPED PREFETCHES: 0
L2C AVERAGE MISS LATENCY: 39.1709 cycles
L2C RQ	ACCESS:    3794409	FORWARD:          0	MERGED:          0	TO_CACHE:    3794334
L2C WQ	ACCESS:     525377	FORWARD:         77	MERGED:          0	TO_CACHE:     525377
L2C PQ	ACCESS:     192481	FORWARD:          0	MERGED:       3365	TO_CACHE:     189114

L2C Dense regions hint from L2: 0
PSCL5 TOTAL     ACCESS:       4914  HIT:       2457  MISS:       2457  HIT %:         50  MISS %:         50   MPKI: 0.04914
PSCL5 LOAD TRANSLATION INSTRUCTION	ACCESS:       4794  HIT:       2397  MISS:       2397  HIT %:         50  MISS %:         50  MPKI: 0.04794
PSCL5 TRANSLATION FROM L1D PREFETCHER INSTRUCTION	ACCESS:        120  HIT:         60  MISS:         60  HIT %:         50  MISS %:         50  MPKI: 0.0012


PSCL4 TOTAL     ACCESS:       4688  HIT:       2340  MISS:       2348  HIT %:    49.9147  MISS %:    50.0853   MPKI: 0.04696
PSCL4 LOAD TRANSLATION INSTRUCTION	ACCESS:       4091  HIT:       2291  MISS:       1800  HIT %:     56.001  MISS %:     43.999  MPKI: 0.036
PSCL4 TRANSLATION FROM L1D PREFETCHER INSTRUCTION	ACCESS:         94  HIT:         49  MISS:         45  HIT %:    52.1277  MISS %:    47.8723  MPKI: 0.0009
PSCL4 LOAD TRANSLATION DATA	ACCESS:        499  HIT:          0  MISS:        499  HIT %:          0  MISS %:        100  MPKI: 0.00998
PSCL4 TRANSLATION FROM L1D PREFETCHER DATA	ACCESS:          4  HIT:          0  MISS:          4  HIT %:          0  MISS %:        100  MPKI: 8e-05


PSCL3 TOTAL     ACCESS:       4698  HIT:       2345  MISS:       2353  HIT %:    49.9149  MISS %:    50.0851   MPKI: 0.04706
PSCL3 LOAD TRANSLATION INSTRUCTION	ACCESS:       4096  HIT:       2296  MISS:       1800  HIT %:    56.0547  MISS %:    43.9453  MPKI: 0.036
PSCL3 TRANSLATION FROM L1D PREFETCHER INSTRUCTION	ACCESS:         94  HIT:         49  MISS:         45  HIT %:    52.1277  MISS %:    47.8723  MPKI: 0.0009
PSCL3 LOAD TRANSLATION DATA	ACCESS:        504  HIT:          0  MISS:        504  HIT %:          0  MISS %:        100  MPKI: 0.01008
PSCL3 TRANSLATION FROM L1D PREFETCHER DATA	ACCESS:          4  HIT:          0  MISS:          4  HIT %:          0  MISS %:        100  MPKI: 8e-05


PSCL2 TOTAL     ACCESS:       4807  HIT:       2350  MISS:       2457  HIT %:     48.887  MISS %:     51.113   MPKI: 0.04914
PSCL2 LOAD TRANSLATION INSTRUCTION	ACCESS:       2606  HIT:       2291  MISS:        315  HIT %:    87.9125  MISS %:    12.0875  MPKI: 0.0063
PSCL2 TRANSLATION FROM L1D PREFETCHER INSTRUCTION	ACCESS:         59  HIT:         59  MISS:          0  HIT %:        100  MISS %:          0  MPKI: 0
PSCL2 LOAD TRANSLATION DATA	ACCESS:       2083  HIT:          0  MISS:       2083  HIT %:          0  MISS %:        100  MPKI: 0.04166
PSCL2 TRANSLATION FROM L1D PREFETCHER DATA	ACCESS:         59  HIT:          0  MISS:         59  HIT %:          0  MISS %:        100  MPKI: 0.00118


LLC TOTAL     ACCESS:     550814  HIT:     520550  MISS:      30264  HIT %:    94.5056  MISS %:    5.49441   MPKI: 0.60528
LLC LOAD INSTRUCTION	ACCESS:     264362  HIT:     263339  MISS:       1023  HIT %:     99.613  MISS %:   0.386969  MPKI: 0.02046
LLC LOAD TRANSLATION INSTRUCTION	ACCESS:        249  HIT:        225  MISS:         24  HIT %:    90.3614  MISS %:    9.63855  MPKI: 0.00048
LLC LOAD DATA	ACCESS:      71015  HIT:      67590  MISS:       3425  HIT %:    95.1771  MISS %:    4.82292  MPKI: 0.0685
LLC RFO DATA	ACCESS:      56499  HIT:      41121  MISS:      15378  HIT %:    72.7818  MISS %:    27.2182  MPKI: 0.30756
LLC PREFETCH DATA	ACCESS:      77185  HIT:      67289  MISS:       9896  HIT %:    87.1789  MISS %:    12.8211  MPKI: 0.19792
LLC WRITEBACK DATA	ACCESS:      79917  HIT:      79521  MISS:        396  HIT %:    99.5045  MISS %:   0.495514  MPKI: 0.00792
LLC LOAD TRANSLATION DATA	ACCESS:       1564  HIT:       1443  MISS:        121  HIT %:    92.2634  MISS %:    7.73657  MPKI: 0.00242
LLC TRANSLATION FROM L1D PREFETCHER DATA	ACCESS:         23  HIT:         22  MISS:          1  HIT %:    95.6522  MISS %:    4.34783  MPKI: 2e-05

LLC AVERAGE MISS LATENCY: 159.283 cycles
LLC RQ	ACCESS:     393730	FORWARD:          0	MERGED:          0	TO_CACHE:     393712
LLC WQ	ACCESS:      79917	FORWARD:         19	MERGED:          0	TO_CACHE:      79917
LLC PQ	ACCESS:      77187	FORWARD:          0	MERGED:          0	TO_CACHE:      77186

LLC Dense regions hint to LLC: 0

RAW hits: 1944400
Loads Generated: 12639668
Loads sent to L1D: 10695268
Stores Generated: 6952157
Stores sent to L1D: 6952185
Major fault: 0 Minor fault: 2538
Allocated PAGES: 2538

stream: 
stream:times selected: 1176392
stream:pref_filled: 124257
stream:pref_useful: 24532
stream:pref_late: 7032
stream:misses: 8013
stream:misses_by_poll: 0

CS: 
CS:times selected: 177218
CS:pref_filled: 59413
CS:pref_useful: 36263
CS:pref_late: 7658
CS:misses: 17328
CS:misses_by_poll: 4

CPLX: 
CPLX:times selected: 998036
CPLX:pref_filled: 19769
CPLX:pref_useful: 4556
CPLX:pref_late: 3194
CPLX:misses: 95872
CPLX:misses_by_poll: 1

NL_L1: 
NL:times selected: 21123
NL:pref_filled: 784
NL:pref_useful: 354
NL:pref_late: 301
NL:misses: 1852
NL:misses_by_poll: 0

total selections: 2372769
total_filled: 95848
total_useful: 35084
total_late: 19667
total_polluted: 5
total_misses_after_warmup: 776798
conflicts: 5533644

test: 118152

DRAM Statistics
 CHANNEL 0
 RQ ROW_BUFFER_HIT:      11428  ROW_BUFFER_MISS:      18433
 DBUS_CONGESTED:          6
 WQ ROW_BUFFER_HIT:       1440  ROW_BUFFER_MISS:      12470  FULL:          0

 AVG_CONGESTED_CYCLE: 6

CPU 0 Branch Prediction Accuracy: 99.8212% MPKI: 0.327 Average ROB Occupancy at Mispredict: 194.076
Branch types
NOT_BRANCH: 40856083 81.7122%
BRANCH_DIRECT_JUMP: 547831 1.09566%
BRANCH_INDIRECT: 182851 0.365702%
BRANCH_CONDITIONAL: 6180765 12.3615%
BRANCH_DIRECT_CALL: 944853 1.88971%
BRANCH_INDIRECT_CALL: 171393 0.342786%
BRANCH_RETURN: 1116256 2.23251%
BRANCH_OTHER: 0 0%

DRAM PAGES: 1048576
Allocated PAGES: 2538
Average_ROB_Occupancy: 240.942
Average_Decode_Occupancy: 34.3896
Average_FTQ_Occupancy: 13.1083
Indirect max targets: 14 Average targets: 1.14576
Branch_type:  BRANCH_DIRECT_JUMP:  Count Percentage: 2.87004 7.21669 3.61616 8.3133 2.73488 5.40222 1.0276 68.8191 
Branch_type:  BRANCH_INDIRECT:  Count Percentage: 11.7585 3.44223 2.47267 0 2.52912 9.67447 19.1829 50.9401 
Branch_type:  BRANCH_CONDITIONAL:  Count Percentage: 20.9019 3.09402 1.68594 8.8032 1.34668 4.71807 1.8845 57.5657 
Branch_type:  BRANCH_DIRECT_CALL:  Count Percentage: 0.786469 1.29482 1.40505 4.53314 2.66397 2.34357 0.945272 86.0277 
Branch_type:  BRANCH_INDIRECT_CALL:  Count Percentage: 9.58462 0.551723 3.00467 4.84568 0.00029084 1.71683 1.2733 79.0229 
Branch_type:  BRANCH_RETURN:  Count Percentage: 4.04398 0.698198 1.24341 8.94753 2.74138 6.24354 3.07554 73.0064 
Branch_type:  BRANCH_DIRECT_JUMP:  Total Count: 31404 78965 39568 90964 29925 59111 11244 753018 
Branch_type:  BRANCH_INDIRECT:  Total Count: 42908 12561 9023 0 9229 35303 70000 185885 
Branch_type:  BRANCH_CONDITIONAL:  Total Count: 2582132 382221 208274 1087508 166363 582849 232803 7111405 
Branch_type:  BRANCH_DIRECT_CALL:  Total Count: 14897 24526 26614 85865 50460 44391 17905 1629505 
Branch_type:  BRANCH_INDIRECT_CALL:  Total Count: 32955 1897 10331 16661 1 5903 4378 271706 
Branch_type:  BRANCH_RETURN:  Total Count: 90535 15631 27837 200314 61373 139778 68854 1634440 
Number of unique branch instructions: 9737
Upper 32 bits: 
aaaa
ffff
ffff0000
Unique upper 32 bits: 3
Unique upper 36 bits: 3
Unique upper 40 bits: 5
Unique upper 44 bits: 32
Unique upper 48 bits: 154
Variant_0 : 1396 0.17041
Variant_1 : 3036 0.370605
Variant_2 : 0 0
Variant_3 : 0 0
Offset_3 4020
Offset_4 242
Offset_5 447
Offset_6 501
Offset_7 574
Offset_8 499
Offset_9 462
Offset_10 375
Offset_11 304
Offset_12 266
Offset_13 198
Offset_14 223
Offset_15 185
Offset_16 219
Offset_17 145
Offset_18 120
Offset_19 235
Offset_20 133
Offset_21 235
Offset_22 391
Offset_23 241
Offset_24 325
Offset_25 88
Offset_47 80
Offset_64 6
decode_dispatch_called: 25557565 70.6464
Dispatch_width: 0 13652113 53.4171 37.7373
Dispatch_width: 1 969567 3.79366 2.68009
Dispatch_width: 2 839542 3.28491 2.32067
Dispatch_width: 3 493249 1.92995 1.36344
Dispatch_width: 4 5798089 22.6864 16.0271
Dispatch_width: 5 150784 0.589978 0.416798
Dispatch_width: 6 3654221 14.298 10.101
Empty_decode_cycles: 10619151 29.3536
ROB_full_cycles: 9124457 25.2219
Starvation_cycles_per_kilo_instr: 233.98
Starvation_cycles_per_kilo_instr_3: 174.492
Starvation_cycles_per_kilo_instr_0: 151.468
Branch_type_1  (3,1)  (4,7)  (5,36)  (6,71)  (7,115)  (8,126)  (9,125)  (10,98)  (11,69)  (12,43)  (13,8)  (14,2)  (15,3)  (16,4)  (18,1)  (19,4)  (20,2)  (21,1)  (22,3)  (23,2)  (24,10)  (25,12) 
Branch_type_2  (3,1)  (5,1)  (8,3)  (9,3)  (12,1)  (13,1)  (14,1)  (16,3)  (17,2)  (20,2)  (21,2)  (23,5)  (24,1)  (47,36) 
Branch_type_3  (3,4018)  (4,235)  (5,406)  (6,415)  (7,430)  (8,311)  (9,253)  (10,153)  (11,124)  (12,51)  (13,7)  (64,5) 
Branch_type_4  (6,3)  (7,8)  (8,24)  (9,50)  (10,59)  (11,56)  (12,93)  (13,82)  (14,98)  (15,87)  (16,98)  (17,63)  (18,54)  (19,115)  (20,70)  (21,124)  (22,207)  (23,136)  (24,186)  (25,72) 
Branch_type_5  (8,2)  (9,1)  (10,3)  (11,5)  (12,3)  (13,14)  (14,16)  (15,11)  (16,20)  (17,13)  (18,16)  (19,12)  (20,10)  (21,13)  (22,42)  (23,26)  (24,36) 
Branch_type_6  (5,4)  (6,12)  (7,21)  (8,33)  (9,30)  (10,62)  (11,50)  (12,75)  (13,86)  (14,106)  (15,84)  (16,94)  (17,67)  (18,49)  (19,104)  (20,49)  (21,95)  (22,139)  (23,72)  (24,92)  (25,4)  (47,44)  (64,1) 
Unique trigger count: 
Variant_0_evicts_0 : 0
Variant_0_evicts_1 : 0
Variant_0_evicts_2 : 0
Variant_0_evicts_3 : 0
Variant_1_evicts_0 : 0
Variant_1_evicts_1 : 0
Variant_1_evicts_2 : 0
Variant_1_evicts_3 : 0
Variant_2_evicts_0 : 0
Variant_2_evicts_1 : 0
Variant_2_evicts_2 : 0
Variant_2_evicts_3 : 0
Variant_3_evicts_0 : 0
Variant_3_evicts_1 : 0
Variant_3_evicts_2 : 0
Variant_3_evicts_3 : 0
BTB PER SET UNIQUE ADDR: 1 4 2 4 3 3 3 2 2 3 4 3 4 4 2 4 2 3 2 0 1 4 3 3 3 3 2 2 3 3 4 3 2 3 2 3 2 3 3 3 3 4 3 3 2 3 3 3 5 3 2 4 4 3 2 3 2 2 2 3 4 3 2 2 5 1 3 2 3 1 4 3 3 4 4 3 3 3 3 4 3 5 5 4 3 4 1 3 3 2 2 2 3 4 3 2 6 3 3 3 3 4 4 5 2 3 2 2 4 5 5 3 2 4 0 0 4 5 2 5 3 3 3 3 5 4 4 4 2 2 3 4 3 4 3 3 4 2 4 3 2 3 2 5 2 5 3 3 4 6 3 1 3 4 3 2 3 2 5 4 2 3 2 4 2 1 0 4 4 4 6 2 4 2 4 5 2 5 3 2 3 3 4 3 2 3 2 5 5 3 3 2 3 3 1 2 3 3 3 3 5 2 3 3 0 5 2 1 3 3 3 5 4 4 3 3 3 2 3 4 2 5 2 3 6 2 3 3 3 3 2 5 4 3 3 5 4 5 2 2 2 3 4 3 4 2 3 2 5 4 2 2 1 2 4 5 3 3 3 2 5 4 4 3 2 3 4 4 4 4 3 3 4 3 6 3 4 1 4 5 4 3 1 4 3 2 5 3 4 2 3 5 3 3 3 3 2 4 3 2 4 2 3 3 4 2 3 3 4 4 4 3 4 3 3 5 2 2 4 5 4 4 3 2 4 5 2 3 1 5 2 4 2 2 2 4 4 5 3 2 2 4 3 2 2 2 2 1 2 3 3 4 3 1 4 5 4 2 1 3 4 4 2 5 2 4 2 2 2 2 3 4 3 3 2 4 2 2 1 1 4 3 3 3 3 3 1 5 4 4 4 3 1 5 2 5 3 3 3 2 5 5 3 3 3 3 3 2 5 3 3 2 1 5 5 2 3 2 3 3 2 1 3 5 3 2 1 4 3 3 4 1 4 3 1 1 3 2 2 2 3 1 4 2 3 2 2 4 4 4 3 1 2 4 3 1 4 4 3 1 3 4 2 4 3 3 4 2 4 4 4 3 4 4 4 4 1 2 2 5 3 2 4 3 2 1 2 3 3 2 3 5 3 2 4 5 3 2 1 3 3 3 3 3 2 4 3 0 2 3 3 3 2 4 1 3 4 2 4 2 4 5 3 3 4 3 0 2 1 4 4 3 4 2 3 4 1 3 3 4 3 4 3 3 4 4 5 3 2 1 1 5 2 4 4 4 4 2 2 3 1 2 4 4 4 1 4 3 4 2 3 2 1 1 3 4 3 2 4 4 0 4 4 4 4 2 2 2 4 3 3 3 2 3 1 3 3 4 3 3 4 3 2 3 3 3 4 1 4 3 4 3 3 4 1 3 3 4 3 3 4 1 4 4 3 6 3 4 3 2 2 2 5 3 2 3 3 4 4 3 3 5 1 2 2 5 3 3 4 2 2 2 3 3 3 3 3 1 3 2 1 3 3 2 3 1 3 3 4 5 3 2 3 5 4 4 2 4 4 3 3 4 2 3 5 3 2 5 6 2 4 3 2 3 2 4 4 1 4 5 4 2 2 2 4 4 1 2 3 4 4 2 2 3 3 2 4 4 3 2 4 4 2 4 3 3 5 3 2 4 2 2 4 3 2 3 4 4 2 3 2 5 6 4 3 2 5 2 4 4 4 3 2 3 3 4 2 0 2 4 5 2 5 3 3 5 3 3 2 4 4 2 1 3 5 2 4 3 1 2 3 3 4 2 3 3 3 3 4 4 4 2 4 3 3 3 5 1 2 4 3 4 4 3 2 4 2 3 4 4 3 2 0 2 3 2 4 2 3 3 5 2 5 4 3 2 4 3 3 3 4 5 3 5 4 4 4 4 4 4 0 5 3 4 3 3 4 3 3 2 3 4 3 1 5 4 3 3 2 3 3 6 2 4 5 3 3 1 4 3 4 2 3 4 4 4 3 3 3 4 5 4 2 2 2 3 4 2 3 1 5 2 2 1 2 4 3 4 5 1 3 2 4 2 2 1 4 4 4 3 5 4 1 4 4 5 2 4 4 2 3 1 3 3 3 4 5 2 3 2 1 5 4 3 3 2 3 2 2 3 4 4 6 3 3 1 2 2 5 4 4 5 4 2 4 3 4 3 3 2 3 3 4 4 3 1 5 2 2 5 3 1 2 5 3 5 3 3 4 2 3 2 3 5 5 1 3 3 4 3 2 1 2 5 4 3 2 3 2 4 4 2 3 5 4 4 3 4 2 3 4 5 4 5 4 3 4 4 3 3 2 2 3 4 4 2 4 5 3 3 2 2 3 3 3 2 5 2 0 3 3 3 3 5 6 2 1 4 3 3 3 3 4 3 2 4 5 3 2 3 3 3 4 3 2 3 2 2 5 3 2 4 2 4 4 5 3 1 3 2 4 2 2 2 3 2 3 2 1 2 4 5 2 4 4 4 3 3 3 3 4 4 5 4 3 3 2 3 3 2 2 5 5 1 3 5 6 4 3 3 3 2 3 4 3 2 3 3 3 1 5 3 6 2 3 2 3 2 4 4 4 6 3 2 2 2 2 4 3 3 4 4 1 3 1 2 5 3 3 1 4 3 5 4 4 2 5 3 4 3 5 3 5 5 1 3 3 3 1 3 3 1 3 3 3 4 4 2 2 4 4 3 2 0 4 3 4 2 3 1 3 2 2 3 3 4 3 1 5 3 3 4 3 3 0 4 4 3 4 4 5 1 3 4 3 4 2 5 5 1 4 2 4 3 4 4 2 3 3 3 3 3 5 3 4 2 5 4 0 4 3 5 3 2 2 3 3 4 3 5 3 4 3 4 4 3 5 3 3 4 4 4 6 2 3 3 2 2 3 4 4 6 3 5 4 2 5 1 4 4 3 3 3 3 2 3 5 5 4 3 2 4 5 5 4 3 3 2 4 3 4 4 5 3 4 3 3 2 3 2 4 4 2 1 3 2 3 4 6 3 2 4 5 2 3 2 4 3 4 2 4 5 2 3 4 5 4 3 5 3 3 2 3 3 2 2 4 0 4 3 4 3 2 3 2 1 1 3 3 6 4 4 1 4 4 5 2 4 2 4 2 1 3 2 4 4 3 4 2 1 2 2 1 4 1 4 3 3 1 3 3 3 4 3 4 3 3 3 3 2 2 3 4 5 4 2 1 1 2 3 4 3 3 4 4 2 2 5 3 5 2 2 3 6 2 3 4 4 5 3 5 5 3 2 3 4 3 3 4 4 4 1 2 2 3 3 2 3 4 6 3 4 3 3 4 3 2 3 2 4 1 2 4 1 5 1 3 4 5 4 4 4 4 4 5 2 3 3 5 4 2 3 2 3 3 4 2 3 3 1 3 2 4 5 4 2 2 2 4 3 5 3 2 4 3 4 4 4 2 5 4 2 2 5 4 2 3 3 4 1 2 4 4 1 4 4 4 2 1 3 5 2 4 2 2 2 2 2 2 2 2 4 2 3 2 3 4 3 3 1 2 3 4 3 2 3 3 5 3 6 4 1 4 2 3 3 4 2 5 5 2 2 3 2 4 3 2 3 3 4 5 3 3 3 5 1 2 2 3 4 5 3 2 3 4 3 3 5 2 2 3 3 4 1 3 3 2 3 3 3 5 2 1 3 2 3 1 1 2 3 2 2 4 4 3 3 3 4 2 3 3 4 2 2 4 5 3 2 4 3 4 2 3 1 5 2 3 2 5 3 4 4 2 4 2 2 2 3 1 2 5 3 3 2 3 2 3 2 3 4 3 2 3 1 1 2 5 5 4 2 3 4 2 2 2 2 2 3 3 3 2 5 4 0 3 2 3 2 1 3 3 0 6 2 1 3 4 3 3 5 1 4 2 4 3 4 5 3 3 1 4 4 3 4 3 2 4 6 5 3 6 3 4 5 1 4 4 5 3 3 3 4 4 3 2 3 1 1 2 4 3 3 2 6 3 2 5 3 2 1 4 5 4 2 2 5 4 4 4 4 2 5 3 5 4 3 5 2 2 2 3 2 3 2 3 4 3 4 2 3 5 4 1 4 1 1 4 2 3 1 3 4 3 2 5 1 3 4 1 3 1 2 2 5 3 4 4 3 2 2 3 6 5 3 4 2 2 2 3 2 4 1 2 2 3 3 1 4 2 1 4 3 6 4 5 2 3 5 3 4 3 3 5 4 2 3 2 4 2 1 2 4 3 3 3 3 2 4 3 2 1 4 3 3 4 4 4 3 2 2 2 3 2 3 4 4 1 4 2 4 3 1 0 4 0 3 2 2 3 6 2 2 3 2 2 3 4 2 3 2 2 2 3 2 3 4 3 2 4 3 1 2 2 2 0 4 3 4 2 3 4 2 2 2 3 4 4 0 5 1 4 3 2 4 3 4 5 3 2 4 2 5 3 2 4 5 3 5 3 2 3 3 4 2 3 2 4 3 2 4 2 3 2 6 5 2 3 3 1 2 4 2 3 2 4 5 2 3 1 3 1 3 3 5 4 2 1 2 4 4 1 1 3 4 3 2 4 3 4 3 3 2 4 6 3 3 5 3 4 0 2 4 5 2 3 2 4 2 5 4 4 3 1 2 2 1 3 3 
BTB PER SET COUNT: 1 4 2 4 4 3 3 2 2 3 45 3 4 4 2 4 2 3 2 0 1 4 3 3 477 3 2 2 6 533 4 3 2 6 2 3 2 3 3 3 3 1005 8 3 1478 594 479 3 6 3 2 4 478 3 2 4 2 952 2 3 1008 3 2 2 5 1 6 2 3 1 4 3 3 4 4 256 3 3 3 4 3 5 5 4 3 4 1 3 4 949 2 2 3 4 3 2 6 3 3 3 8 6 5 5 2 3 2 2 4 5 5 3 4 4 0 0 4 7 2 5 3 3 1668 3 5 5 6 4 2 2 3 4 3 6 3 4 5 2 4 951 2 934 2 5 2 5 3 5 6 16 3 1 3 4 3 1003 3 949 5 4 2 5 3 4 2 1 0 5 4 4 10 2 87 2 4 5 2 7 4 2 3 3 6 3 3 3 2 5 7 3 3 2 3 5 1 2 3 934 3 3 5 2 3 5 0 5 2 1 52 3 3 9 4 360 3 3 4 475 3 6 2 5 2 543 6 2 3 3 3 3 437 5 4 3 3 14 8 5 2 2 2 4 4 3 32 2 7755 3 5 4 2 2 1 4 6 12 1478 4 4 2 5 4 4 5 3 4 4 4 4 4 4 5 7 3 6 3 1011 1 4 7 5 3 1 4 3 2 5 3 4 2 5 7 3 5 9 4 3 5 5 2 4 2 1485 3 13 2 7 3 4 14 956 4 5 5 3 5 2 2 6 5 4 4 3 2 4 5 31 3 1 5 2 8 2 2 2 4 4 5 3 3 3 5 3 2 2 2 2 1 2 4 3 5 3 1 5 5 4 2 1 8 5 11 2 9 3 4 2 2 2 2 3 13 3 3 2 4 2 2 1 1 8 401 3 3 3 4 1 5 6 5 5 3 1 5 2 6 1361 3 3 3 5 420 3 3 3 3 4 2 8 3 3 2 1 6 5 2 4 2 5 5 2 1 4 491 3 437 1 4 737 3 4 1 8 3 1 1 4 2 2 2 3 1 6 2 567 3 3 27 5 6 4 1 4 4 3 1 4 5 3 1 3 4 2 5 12 1478 5 2840 4 4 4 3 4 4 1005 4 1 4 2 5 3 3 4 3 177 1 4 3 3 2 1005 6 11 2 4 11 3 5 1 3 3 4 3 3 2 4 3 0 2 3 3 4 4 1905 1 3 4 485 4 2 4 5 3 4 8 3 0 2 1 4 4 3 4 11 3 6 1 90 3 4 11 4 3 3 4 1489 5 3 2 1 1 1410 949 4 4 4 4 2 2 3 948 3 6 4 4 1 1866 3 5 4 4 2 1 1 3 4 3 2 4 6 0 4 4 6 9 2 2 2 4 1085 3 5 2 3 1 1478 4 6 3 4 4 3 2 4 4 3 4 1 4 3 4 4 1008 4 1 3 1478 5 3 3 20 1 4 6 3 6 3 4 3 2 2 2 5 3 2 3 5 4 4 3 3 7 1 2 2 5 3 3 7 935 3 4 3 3 3 3 3 1 3 2 1 4 4 2 3 1 6 3 4 6 5 2 3 6 4 1479 2 4 4 3 3 5 2 3 5 3 2 5 8 2 4 3 2 3 2 6 5 1 4 6 4 2 2 2 4 4 1 2 3 4 4 2 2 4 3 475 4 4 3 2 4 4 2 4 3 3 5 3 5 4 2 2 14 3 2 3 4 5 2 1491 2 5 8 4 4 2 5 2 5 4 1536 3 3 3 949 4 2 0 236 6 6 2 5 3 3 5 3 2955 2 7 6 2 1 3 5 2 7 3 1 2 3 3 5 2 3 3 3 3 230 4 5 2 4 5 3 3 5 1 2 4 4 4 4 3 2 4 2 5 4 7 3 4 0 2 4 2 4 2 3 3 15 2 5 5 3 2 4 3 3 484 4 5 4 1007 4 4 4 5 4 9 0 1018 3 4 3 3 1005 3 4 2 4 4 3 4 6 4 4 4 2 4 3 7 2 4 479 3 3 1 4 3 4 2 6 6 4 4 3 3 3 4 6 4 2 8 2 3 951 3 3 1 6 2 2 1 2 4 359 6 5 1 4 16 5 2 2 1 4 4 6 969 6 5 1 5 4 5 2 4 4 3 3 1002 3 3 3 7 1483 2 3 2 1 5 5 3 3 2 3 1003 2 9 4 4 7 3 3 1 2 5 9 4 4 5 4 3 962 5 4 3 1900 2 3 3 7 5 3 1 481 2 3 5 3 1 2 18 5 5 6 3 14 2 3 4 3 7 6 1 3 38 4 3 2 1 2 5 4 5 2 3 2 4 4 3 3 5 4 4 5 1479 4 3 4 5 8 5 6 3 4 5 4 3 2 2 3 4 6 2 4 538 6 3 7 2 3 6 3 2 6 2 0 7 3 476 4 5 6 2 1 4 3 3 3 3 4 4 2 4 5 3 1477 19 3 3 4 3 2 3 2 2 5 3 2 404 2 5 4 5 3 1 3 4 4 2 2 1003 3 2 3 2 1 2 4 6 2 4 4 4 16 3 3 3 8 6 9 2482 359 3 3 3 4 2 2 5 5 1 3 5 6 19 5 3 3 2 3 4 3 2 3 3 3 1 5 3 9 2 3 2 3 2 4 4 4 8 3 2 2 2 3 951 4 4 4 4 1 3 1 2 6 3 3 1 4 3 5 6 5 2 5 3 4 3 480 5 6 6 1 3 3 3 2 3 1480 1 3 3 3 4 8 2 2 4 4 4 4 0 2019 6 4 2 189 1 3 2 2 5 3 5 3 1 5 359 1478 4 3 1478 0 5 7 4 4 4 586 1 4 4 3 4 2 6 1979 1 6 2 4 3 5 4 2 3 4 3 3 3 5 5 4 2 5 4 0 4 3 481 3 2 2 3 6 4 3 5 3 37 4 4 1006 3 5 5 4 236 5 4 6 2 3 5 2 2 3 7 4 6 3 5 4 2 5 1 1479 4 3 3 3 5 2 3 5 5 4 3 2 4 8 7 4 3 3 4 4 3 4 4 5 3 4 3 3 2 3 3 5 4 2 1 3 2 3 1491 6 3 2 4 5 2 3 2 12 3 4 7 4 5 2 3 4 7 4 3 58 3 3 2 3 359 2 2 4 0 5 3 6 3 2 3 2 1 1 3 3 6 4 4 1 4 4 5 4 4 2 489 2 1 3 2 5 6 5 5 2 1 2 2 1 4 1 4 3 3 1 4 3 3 4 3 4 3 3 3 3 24 2 4 4 1480 24 2 1 1 2 3 4 3 3 8 6 2 5 7 3 2457 2 2 3 2206 2 3 4 5 5 5 7 6 5 2 3 6 3 476 4 4 5 1 2 2 3 3 2 3 6 6 3 4 3 3 4 4 2 6 2 4 1 2 4 1 5 1 3 4 9 478 4 4 1005 4 6 2 3 3 5 4 2 3 2 3 3 4 2 3 3 1 239 1003 4 5 4 4 2 2 5 3 8 3 2 8 3 5 7 4 2 11 4 2 2 2491 4 2 3 3 1005 1 2 5 4 1 4 4 4 2 1 3 6 2 8 4 2 2 2 2 2 2 2 4 2 3 2 3 4 3 3 1 2 3 4 3 2 3 3430 5 3 8 4 1 5 2 3 3 4 2 5 1481 2 2 74 3 6 3 2 3 3 4 5 3 3 3 5 1 2 2 3 5 5 3 2 3 8 3 3 5 2 2 3 3 5 1 3 5 2 3 3 5 5 2 1 3 2 3 1 1 2 3 2 2 137 6 3 3 4 4 2 3 3 4 2 2 4 5 3 2 6 3 4 443 3 1 9 2 3 2 5 3 5 4 2 4 2 2 2 3 1 2 6 3 3 2 3 2 5 2 3 4 4 2 3 1 1 2 6 5 4 2 3 4 3 4 3 3 2 3 3 3 2 5 4 0 4 2 156 2 3 3 3 0 7 2 1 7 4 4 3 46 1 4 2 4 3 4 545 4 4 1 6 7 3 4 3 2 4 7 5 3 8 3 5 5 1 4 4 5 6 4 3 5 4 3 359 3 1 1 2 4 3 4 2 481 3 2 6 3 2 1 6 5 5 2 2 5 4 4 4 480 2 5 3 353 4 4 164 3 2 2 3 2 6 2 4 4 4 5 2 3 7 4 1 4 1 1 6 2 3 2 3 6 24 3 8 1 3 6 2 3 1 2 3 1007 5 4 5 3 2 2 3 8 6 3 6 4 2 14 3 3 8 1 4 2 3 3 1 4 2 1 5 1004 7 4 9 2 3 8 161 4 4 3 5 4 2 3 2 4 20672 1 2 4 3 3 3 3 2 4 3 3 1 4 6 3 117 7 4 3 2 2 2 3 2 1426 10 4 1 4 2 4 14762 1 0 4 0 5 2 2 3 6 2 2 1480 2 2 3 4 2 3 2 2 2 3 2 3 4 3 2 4 4 1 2 2 517 0 4 4 4 2 5 4 2 2 2 3 4 7 0 7 1 6 3 2 27 3 4 5 3 2 4 3 5 3 2 4 5 3 5 3 949 10 27 4 2 5 2 4 140 475 4 2 3 2 8 5 4 5 3 1 2 131 2 3 2 4 1039 3 486 1 5 1 3 6 5 4 2 1359 2 4 4 1 1 3 1479 3 2 4 3 4 1478 3 9 4 1481 5 3 1428 3 4 0 4 4 1212 2 3 2 143 2 5 4 5 3 1 2 2 1 4 770 
To predecode: 0
Predecoding something: 0
Predecode request dropped: 0
sizeofblock_0 0
sizeofblock_1 66442
sizeofblock_2 61036
sizeofblock_3 0
sizeofblock_4 0
sizeofblock_5 0
sizeofblock_6 0
sizeofblock_7 0
sizeofblock_8 0
Variant_0 Correct: 1621773 Incorrect: 0 Accuracy: 1
Variant_1 Correct: 5768603 Incorrect: 0 Accuracy: 1
Variant_2 Correct: 0 Incorrect: 0 Accuracy: -nan
Variant_3 Correct: 0 Incorrect: 0 Accuracy: -nan
