
*** ChampSim Multicore Out-of-Order Simulator ***

Warmup Instructions: 50000000
Simulation Instructions: 50000000
Number of CPUs: 1
LLC sets: 2048
LLC ways: 16
Off-chip DRAM Size: 4096 MB Channels: 1 Width: 64-bit Data Rate: 6400 MT/s
CPU 0 runs ./micro_traces/srv170.trace.gz
.gz
ITLB has LRU replacement policy
DTLB has LRU replacement policy
STLB has LRU replacement policy
FDIP Prefetcher at L1I
L1I has LRU replacement policy
L1D has LRU replacement policy
Initialize SRRIP state for L2C
Initialize DRRIP state for LLC
Heartbeat_Variant_0 : 1125 0.274658 per_variant_size: 0 1125 0 0 0 0 0 0 0 
Heartbeat_Variant_1 : 2610 0.637207 per_variant_size: 0 1018 1592 0 0 0 0 0 0 
Heartbeat_Variant_2 : 0 0 per_variant_size: 0 0 0 0 0 0 0 0 0 
Heartbeat_Variant_3 : 0 0 per_variant_size: 0 0 0 0 0 0 0 0 0 
Heartbeat_Variant_0_evicts 0 : 12767 1 : 16358 2 : 0 3 : 0 
Heartbeat_Variant_1_evicts 0 : 16227 1 : 0 2 : 0 3 : 0 
Heartbeat_Variant_2_evicts 0 : 0 1 : 0 2 : 0 3 : 0 
Heartbeat_Variant_3_evicts 0 : 0 1 : 0 2 : 0 3 : 0 
Heartbeat CPU 0 instructions: 10000003 cycles: 2797263 heartbeat IPC: 3.57492 cumulative IPC: 3.57492 (Simulation time: 0 hr 1 min 39 sec) 
Heartbeat_Variant_0 : 1139 0.278076 per_variant_size: 0 1139 0 0 0 0 0 0 0 
Heartbeat_Variant_1 : 2707 0.660889 per_variant_size: 0 924 1783 0 0 0 0 0 0 
Heartbeat_Variant_2 : 0 0 per_variant_size: 0 0 0 0 0 0 0 0 0 
Heartbeat_Variant_3 : 0 0 per_variant_size: 0 0 0 0 0 0 0 0 0 
Heartbeat_Variant_0_evicts 0 : 11811 1 : 15032 2 : 0 3 : 0 
Heartbeat_Variant_1_evicts 0 : 15037 1 : 0 2 : 0 3 : 0 
Heartbeat_Variant_2_evicts 0 : 0 1 : 0 2 : 0 3 : 0 
Heartbeat_Variant_3_evicts 0 : 0 1 : 0 2 : 0 3 : 0 
Heartbeat CPU 0 instructions: 20000003 cycles: 5594536 heartbeat IPC: 3.57491 cumulative IPC: 3.57492 (Simulation time: 0 hr 3 min 18 sec) 
Heartbeat_Variant_0 : 1148 0.280273 per_variant_size: 0 1148 0 0 0 0 0 0 0 
Heartbeat_Variant_1 : 2700 0.65918 per_variant_size: 0 926 1774 0 0 0 0 0 0 
Heartbeat_Variant_2 : 0 0 per_variant_size: 0 0 0 0 0 0 0 0 0 
Heartbeat_Variant_3 : 0 0 per_variant_size: 0 0 0 0 0 0 0 0 0 
Heartbeat_Variant_0_evicts 0 : 12285 1 : 15754 2 : 0 3 : 0 
Heartbeat_Variant_1_evicts 0 : 15745 1 : 0 2 : 0 3 : 0 
Heartbeat_Variant_2_evicts 0 : 0 1 : 0 2 : 0 3 : 0 
Heartbeat_Variant_3_evicts 0 : 0 1 : 0 2 : 0 3 : 0 
Heartbeat CPU 0 instructions: 30000001 cycles: 8390791 heartbeat IPC: 3.57621 cumulative IPC: 3.57535 (Simulation time: 0 hr 4 min 58 sec) 
Heartbeat_Variant_0 : 1141 0.278564 per_variant_size: 0 1141 0 0 0 0 0 0 0 
Heartbeat_Variant_1 : 2709 0.661377 per_variant_size: 0 922 1787 0 0 0 0 0 0 
Heartbeat_Variant_2 : 0 0 per_variant_size: 0 0 0 0 0 0 0 0 0 
Heartbeat_Variant_3 : 0 0 per_variant_size: 0 0 0 0 0 0 0 0 0 
Heartbeat_Variant_0_evicts 0 : 11872 1 : 15717 2 : 0 3 : 0 
Heartbeat_Variant_1_evicts 0 : 15724 1 : 0 2 : 0 3 : 0 
Heartbeat_Variant_2_evicts 0 : 0 1 : 0 2 : 0 3 : 0 
Heartbeat_Variant_3_evicts 0 : 0 1 : 0 2 : 0 3 : 0 
Heartbeat CPU 0 instructions: 40000002 cycles: 11187416 heartbeat IPC: 3.57574 cumulative IPC: 3.57545 (Simulation time: 0 hr 6 min 39 sec) 
Heartbeat_Variant_0 : 1137 0.277588 per_variant_size: 0 1137 0 0 0 0 0 0 0 
Heartbeat_Variant_1 : 2717 0.66333 per_variant_size: 0 938 1779 0 0 0 0 0 0 
Heartbeat_Variant_2 : 0 0 per_variant_size: 0 0 0 0 0 0 0 0 0 
Heartbeat_Variant_3 : 0 0 per_variant_size: 0 0 0 0 0 0 0 0 0 
Heartbeat_Variant_0_evicts 0 : 12655 1 : 16116 2 : 0 3 : 0 
Heartbeat_Variant_1_evicts 0 : 16120 1 : 0 2 : 0 3 : 0 
Heartbeat_Variant_2_evicts 0 : 0 1 : 0 2 : 0 3 : 0 
Heartbeat_Variant_3_evicts 0 : 0 1 : 0 2 : 0 3 : 0 
Heartbeat CPU 0 instructions: 50000001 cycles: 13984897 heartbeat IPC: 3.57464 cumulative IPC: 3.57529 (Simulation time: 0 hr 8 min 18 sec) 

Warmup complete CPU 0 instructions: 50000001 cycles: 13984897 (Simulation time: 0 hr 8 min 18 sec) 

Cycle: 20000000 FTQ IN: 57411569 FTQ occupancy: 18.5749 DECODE IN: 57411494 DECODE occupancy: 47.7006 ROB IN: 57411482 ROB occupancy: 289.995 ROB OUT: 57411353
Heartbeat_Variant_0 : 1146 0.279785 per_variant_size: 0 1146 0 0 0 0 0 0 0 
Heartbeat_Variant_1 : 2708 0.661133 per_variant_size: 0 907 1801 0 0 0 0 0 0 
Heartbeat_Variant_2 : 0 0 per_variant_size: 0 0 0 0 0 0 0 0 0 
Heartbeat_Variant_3 : 0 0 per_variant_size: 0 0 0 0 0 0 0 0 0 
Heartbeat_Variant_0_evicts 0 : 12230 1 : 15746 2 : 0 3 : 0 
Heartbeat_Variant_1_evicts 0 : 15737 1 : 0 2 : 0 3 : 0 
Heartbeat_Variant_2_evicts 0 : 0 1 : 0 2 : 0 3 : 0 
Heartbeat_Variant_3_evicts 0 : 0 1 : 0 2 : 0 3 : 0 
Heartbeat CPU 0 instructions: 60000001 cycles: 22095728 heartbeat IPC: 1.23292 cumulative IPC: 1.23292 (Simulation time: 0 hr 9 min 50 sec) 
Cycle: 30000000 FTQ IN: 12109176 FTQ occupancy: 8.33234 DECODE IN: 12109251 DECODE occupancy: 18.833 ROB IN: 12109263 ROB occupancy: 151.762 ROB OUT: 12109347
Heartbeat_Variant_0 : 1137 0.277588 per_variant_size: 0 1137 0 0 0 0 0 0 0 
Heartbeat_Variant_1 : 2720 0.664062 per_variant_size: 0 948 1772 0 0 0 0 0 0 
Heartbeat_Variant_2 : 0 0 per_variant_size: 0 0 0 0 0 0 0 0 0 
Heartbeat_Variant_3 : 0 0 per_variant_size: 0 0 0 0 0 0 0 0 0 
Heartbeat_Variant_0_evicts 0 : 12678 1 : 16323 2 : 0 3 : 0 
Heartbeat_Variant_1_evicts 0 : 16332 1 : 0 2 : 0 3 : 0 
Heartbeat_Variant_2_evicts 0 : 0 1 : 0 2 : 0 3 : 0 
Heartbeat_Variant_3_evicts 0 : 0 1 : 0 2 : 0 3 : 0 
Heartbeat CPU 0 instructions: 70000002 cycles: 30395570 heartbeat IPC: 1.20484 cumulative IPC: 1.21872 (Simulation time: 0 hr 11 min 22 sec) 
Heartbeat_Variant_0 : 1154 0.281738 per_variant_size: 0 1154 0 0 0 0 0 0 0 
Heartbeat_Variant_1 : 2703 0.659912 per_variant_size: 0 919 1784 0 0 0 0 0 0 
Heartbeat_Variant_2 : 0 0 per_variant_size: 0 0 0 0 0 0 0 0 0 
Heartbeat_Variant_3 : 0 0 per_variant_size: 0 0 0 0 0 0 0 0 0 
Heartbeat_Variant_0_evicts 0 : 12621 1 : 16075 2 : 0 3 : 0 
Heartbeat_Variant_1_evicts 0 : 16058 1 : 0 2 : 0 3 : 0 
Heartbeat_Variant_2_evicts 0 : 0 1 : 0 2 : 0 3 : 0 
Heartbeat_Variant_3_evicts 0 : 0 1 : 0 2 : 0 3 : 0 
Heartbeat CPU 0 instructions: 80000002 cycles: 38549051 heartbeat IPC: 1.22647 cumulative IPC: 1.22129 (Simulation time: 0 hr 12 min 54 sec) 
Cycle: 40000000 FTQ IN: 12135228 FTQ occupancy: 8.3106 DECODE IN: 12135228 DECODE occupancy: 18.8249 ROB IN: 12135228 ROB occupancy: 151.476 ROB OUT: 12135206
Heartbeat_Variant_0 : 1128 0.275391 per_variant_size: 0 1128 0 0 0 0 0 0 0 
Heartbeat_Variant_1 : 2739 0.668701 per_variant_size: 0 931 1808 0 0 0 0 0 0 
Heartbeat_Variant_2 : 0 0 per_variant_size: 0 0 0 0 0 0 0 0 0 
Heartbeat_Variant_3 : 0 0 per_variant_size: 0 0 0 0 0 0 0 0 0 
Heartbeat_Variant_0_evicts 0 : 12728 1 : 15902 2 : 0 3 : 0 
Heartbeat_Variant_1_evicts 0 : 15930 1 : 0 2 : 0 3 : 0 
Heartbeat_Variant_2_evicts 0 : 0 1 : 0 2 : 0 3 : 0 
Heartbeat_Variant_3_evicts 0 : 0 1 : 0 2 : 0 3 : 0 
Heartbeat CPU 0 instructions: 90000000 cycles: 46855288 heartbeat IPC: 1.20391 cumulative IPC: 1.2169 (Simulation time: 0 hr 14 min 26 sec) 
Cycle: 50000000 FTQ IN: 12206207 FTQ occupancy: 8.21104 DECODE IN: 12206207 DECODE occupancy: 18.6232 ROB IN: 12206189 ROB occupancy: 150.325 ROB OUT: 12205904
Heartbeat_Variant_0 : 1141 0.278564 per_variant_size: 0 1141 0 0 0 0 0 0 0 
Heartbeat_Variant_1 : 2727 0.665771 per_variant_size: 0 926 1801 0 0 0 0 0 0 
Heartbeat_Variant_2 : 0 0 per_variant_size: 0 0 0 0 0 0 0 0 0 
Heartbeat_Variant_3 : 0 0 per_variant_size: 0 0 0 0 0 0 0 0 0 
Heartbeat_Variant_0_evicts 0 : 12983 1 : 16292 2 : 0 3 : 0 
Heartbeat_Variant_1_evicts 0 : 16280 1 : 0 2 : 0 3 : 0 
Heartbeat_Variant_2_evicts 0 : 0 1 : 0 2 : 0 3 : 0 
Heartbeat_Variant_3_evicts 0 : 0 1 : 0 2 : 0 3 : 0 
Heartbeat CPU 0 instructions: 100000002 cycles: 55028139 heartbeat IPC: 1.22356 cumulative IPC: 1.21823 (Simulation time: 0 hr 15 min 59 sec) 
Finished CPU 0 instructions: 50000001 cycles: 41043242 cumulative IPC: 1.21823 (Simulation time: 0 hr 15 min 59 sec) 

ChampSim completed all CPUs

Region of Interest Statistics

CPU 0 cumulative IPC: 1.21823 instructions: 50000001 cycles: 41043242
 Fetch stage stalled: 66.5051  Sim cycles: 41043242 fetch stall cycle: 27295840
 Empty decode stage: 53.7454  Sim cycles: 41043242 fetch stall cycle: 22058873
ITLB TOTAL     ACCESS:    5646966  HIT:    5155334  MISS:     491632  HIT %:    91.2939  MISS %:    8.70613   MPKI: 9.83264
ITLB LOAD TRANSLATION INSTRUCTION	ACCESS:    5530708  HIT:    5039076  MISS:     491632  HIT %:    91.1109  MISS %:    8.88913  MPKI: 9.83264
ITLB TRANSLATION FROM L1D PREFETCHER INSTRUCTION	ACCESS:     116258  HIT:     116258  MISS:          0  HIT %:        100  MISS %:          0  MPKI: 0

ITLB AVERAGE MISS LATENCY: 9.03147 cycles
ITLB RQ	ACCESS:    7555170	FORWARD:          0	MERGED:    1417856	TO_CACHE:    6137314

DTLB TOTAL     ACCESS:    9184514  HIT:    8713247  MISS:     471267  HIT %:    94.8689  MISS %:     5.1311   MPKI: 9.42534
DTLB LOAD TRANSLATION DATA	ACCESS:    9184514  HIT:    8713247  MISS:     471267  HIT %:    94.8689  MISS %:     5.1311  MPKI: 9.42534

DTLB AVERAGE MISS LATENCY: 9.29814 cycles
DTLB RQ	ACCESS:   13500150	FORWARD:          0	MERGED:    4281166	TO_CACHE:    9218984

STLB TOTAL     ACCESS:    1213852  HIT:    1211881  MISS:       1971  HIT %:    99.8376  MISS %:   0.162376   MPKI: 0.03942
STLB LOAD TRANSLATION INSTRUCTION	ACCESS:     491632  HIT:     491427  MISS:        205  HIT %:    99.9583  MISS %:  0.0416979  MPKI: 0.0041
STLB LOAD TRANSLATION DATA	ACCESS:     471021  HIT:     469277  MISS:       1744  HIT %:    99.6297  MISS %:    0.37026  MPKI: 0.03488
STLB TRANSLATION FROM L1D PREFETCHER DATA	ACCESS:     251199  HIT:     251177  MISS:         22  HIT %:    99.9912  MISS %:   0.008758  MPKI: 0.00044

STLB AVERAGE MISS LATENCY: 65.9787 cycles
STLB RQ	ACCESS:    1334441	FORWARD:          0	MERGED:     120549	TO_CACHE:    1213892

STLB Hit, L1D data hit: 0
STLB Hit, L2C data hit: 0
STLB Hit, LLC data hit: 0
STLB Hit, LLC data miss: 0
STLB STLB hints to L2: 0
L1D TOTAL     ACCESS:   13264595  HIT:   12157064  MISS:    1107531  HIT %:    91.6505  MISS %:    8.34953   MPKI: 22.1506
L1D LOAD DATA	ACCESS:    6711103  HIT:    5981778  MISS:     729325  HIT %:    89.1326  MISS %:    10.8674  MPKI: 14.5865
L1D RFO DATA	ACCESS:    6222726  HIT:    5937637  MISS:     285089  HIT %:    95.4186  MISS %:    4.58142  MPKI: 5.70178
L1D PREFETCH DATA	ACCESS:     330766  HIT:     237649  MISS:      93117  HIT %:    71.8481  MISS %:    28.1519  MPKI: 1.86234

L1D PREFETCH  REQUESTED:     743435  ISSUED:     743435  USEFUL:      33013  USELESS:      68076
L1D USEFUL LOAD PREFETCHES:      33013 PREFETCH ISSUED TO LOWER LEVEL:     101177  ACCURACY: 32.629
 TIMELY PREFETCHES:      33013 LATE PREFETCHES: 7955 DROPPED PREFETCHES: 6
L1D AVERAGE MISS LATENCY: 247737 cycles
L1D RQ	ACCESS:   10813804	FORWARD:          0	MERGED:    3902526	TO_CACHE:    6743443
L1D WQ	ACCESS:    6936506	FORWARD:     168188	MERGED:     179799	TO_CACHE:    6756707
L1D PQ	ACCESS:     371894	FORWARD:          0	MERGED:          0	TO_CACHE:     371541

L1D UNIQUE REGIONS ACCESSED: 0
L1D REGIONS CONFLICTS: 0
L1D Cross Page Prefetch Requests: 6844
L1D Same Page Prefetch Requests: 749295
L1D ROI Sum of L1D PQ occupancy: 4726516
L1D PREFETCHES PUSHED FROM L2C: 0
L1I TOTAL     ACCESS:    6962359  HIT:    4212337  MISS:    2750022  HIT %:    60.5016  MISS %:    39.4984   MPKI: 55.0004
L1I LOAD INSTRUCTION	ACCESS:    6427277  HIT:    3677255  MISS:    2750022  HIT %:    57.2133  MISS %:    42.7867  MPKI: 55.0004
L1I PREFETCH INSTRUCTION	ACCESS:     535082  HIT:     535082  MISS:          0  HIT %:        100  MISS %:          0  MPKI: 0

L1I PREFETCH  REQUESTED:    1235647  ISSUED:    1235647  USEFUL:          0  USELESS:          0
L1I USEFUL LOAD PREFETCHES:          0 PREFETCH ISSUED TO LOWER LEVEL:          0  ACCURACY: -nan
 TIMELY PREFETCHES:          0 LATE PREFETCHES: 0 DROPPED PREFETCHES: 0
L1I AVERAGE MISS LATENCY: 17.4312 cycles
L1I RQ	ACCESS:    9458141	FORWARD:          0	MERGED:    2788337	TO_CACHE:    6669804
L1I PQ	ACCESS:    1235647	FORWARD:          0	MERGED:     350281	TO_CACHE:     885366

L1BTB TOTAL     ACCESS:    5670383  HIT:    2055069  MISS:    3615314  HIT %:    36.2422  MISS %:    63.7578   MPKI: 72.3063
L1BTB BRANCH_DIRECT_JUMP	ACCESS:     548866 HIT:     145858 MISS:     403008 AVERAGE STALL: 40.6031 AVERAGE FETCH STALL: 18.9066 AVERAGE FETCH QUEUE STALL: 11.2795 AVERAGE DECODE STALL: 9.597 AVERAGE EXECUTE STALL: 5.4852e+14
L1BTB BRANCH_INDIRECT	ACCESS:     183337 HIT:      66386 MISS:     116951 AVERAGE STALL: 98.3267 AVERAGE FETCH STALL: 13.3191 AVERAGE FETCH QUEUE STALL: 12.3259 AVERAGE DECODE STALL: 8.53771 AVERAGE EXECUTE STALL: 63.2004
L1BTB BRANCH_CONDITIONAL	ACCESS:    2712434 HIT:    1424014 MISS:    1288420 AVERAGE STALL: 40.5776 AVERAGE FETCH STALL: 21.7334 AVERAGE FETCH QUEUE STALL: 9.83189 AVERAGE DECODE STALL: 8.27096 AVERAGE EXECUTE STALL: 2.10418e+14
L1BTB BRANCH_DIRECT_CALL	ACCESS:     941343 HIT:     106127 MISS:     835216 AVERAGE STALL: 42.6449 AVERAGE FETCH STALL: 22.4959 AVERAGE FETCH QUEUE STALL: 10.5816 AVERAGE DECODE STALL: 8.80815 AVERAGE EXECUTE STALL: 1.65247e+14
L1BTB BRANCH_INDIRECT_CALL	ACCESS:     171528 HIT:      21636 MISS:     149892 AVERAGE STALL: 124.92 AVERAGE FETCH STALL: 16.7667 AVERAGE FETCH QUEUE STALL: 8.50142 AVERAGE DECODE STALL: 7.70888 AVERAGE EXECUTE STALL: 91.4186
L1BTB BRANCH_RETURN	ACCESS:    1112875 HIT:     291048 MISS:     821827 AVERAGE STALL: 40.8408 AVERAGE FETCH STALL: 18.2567 AVERAGE FETCH QUEUE STALL: 6.89765 AVERAGE DECODE STALL: 6.75767 AVERAGE EXECUTE STALL: 2.38842e+14
L1BTB BRANCH_OTHER ACCESS:          0 HIT:          0 MISS:          0 AVERAGE STALL: -nan AVERAGE FETCH STALL: -nan AVERAGE FETCH QUEUE STALL: -nan AVERAGE DECODE STALL: -nan AVERAGE EXECUTE STALL: -nan
L1BTB TOTAL ROB OCCUPANCY AT BTB MISS: 11.8782

L2BTB TOTAL     ACCESS:    3589752  HIT:    3251297  MISS:     338455  HIT %:    90.5716  MISS %:    9.42837   MPKI: 6.7691
L2BTB BRANCH_DIRECT_JUMP	ACCESS:     398759 HIT:     369369 MISS:      29390 AVERAGE STALL: 40.6031 AVERAGE FETCH STALL: 18.9066 AVERAGE FETCH QUEUE STALL: 11.2795 AVERAGE DECODE STALL: 9.597 AVERAGE EXECUTE STALL: 5.4852e+14
L2BTB BRANCH_INDIRECT	ACCESS:     106678 HIT:     100046 MISS:       6632 AVERAGE STALL: 98.3267 AVERAGE FETCH STALL: 13.3191 AVERAGE FETCH QUEUE STALL: 12.3259 AVERAGE DECODE STALL: 8.53771 AVERAGE EXECUTE STALL: 63.2004
L2BTB BRANCH_CONDITIONAL	ACCESS:    1288420 HIT:    1200266 MISS:      88154 AVERAGE STALL: 40.5776 AVERAGE FETCH STALL: 21.7334 AVERAGE FETCH QUEUE STALL: 9.83189 AVERAGE DECODE STALL: 8.27096 AVERAGE EXECUTE STALL: 2.10418e+14
L2BTB BRANCH_DIRECT_CALL	ACCESS:     835216 HIT:     723536 MISS:     111680 AVERAGE STALL: 42.6449 AVERAGE FETCH STALL: 22.4959 AVERAGE FETCH QUEUE STALL: 10.5816 AVERAGE DECODE STALL: 8.80815 AVERAGE EXECUTE STALL: 1.65247e+14
L2BTB BRANCH_INDIRECT_CALL	ACCESS:     140256 HIT:     113524 MISS:      26732 AVERAGE STALL: 124.92 AVERAGE FETCH STALL: 16.7667 AVERAGE FETCH QUEUE STALL: 8.50142 AVERAGE DECODE STALL: 7.70888 AVERAGE EXECUTE STALL: 91.4186
L2BTB BRANCH_RETURN	ACCESS:     820423 HIT:     744556 MISS:      75867 AVERAGE STALL: 40.8408 AVERAGE FETCH STALL: 18.2567 AVERAGE FETCH QUEUE STALL: 6.89765 AVERAGE DECODE STALL: 6.75767 AVERAGE EXECUTE STALL: 2.38842e+14
L2BTB BRANCH_OTHER ACCESS:          0 HIT:          0 MISS:          0 AVERAGE STALL: -nan AVERAGE FETCH STALL: -nan AVERAGE FETCH QUEUE STALL: -nan AVERAGE DECODE STALL: -nan AVERAGE EXECUTE STALL: -nan
L2BTB TOTAL ROB OCCUPANCY AT BTB MISS: 126.88

L2C TOTAL     ACCESS:    4460163  HIT:    3948050  MISS:     512113  HIT %:    88.5181  MISS %:    11.4819   MPKI: 10.2423
L2C LOAD INSTRUCTION	ACCESS:    2750022  HIT:    2474391  MISS:     275631  HIT %:    89.9771  MISS %:    10.0229  MPKI: 5.51262
L2C LOAD TRANSLATION INSTRUCTION	ACCESS:        226  HIT:         62  MISS:        164  HIT %:    27.4336  MISS %:    72.5664  MPKI: 0.00328
L2C LOAD DATA	ACCESS:     721350  HIT:     643742  MISS:      77608  HIT %:    89.2413  MISS %:    10.7587  MPKI: 1.55216
L2C RFO DATA	ACCESS:     284956  HIT:     219588  MISS:      65368  HIT %:    77.0603  MISS %:    22.9397  MPKI: 1.30736
L2C PREFETCH DATA	ACCESS:     183763  HIT:     109449  MISS:      74314  HIT %:    59.5599  MISS %:    40.4401  MPKI: 1.48628
L2C WRITEBACK DATA	ACCESS:     518017  HIT:     500223  MISS:      17794  HIT %:     96.565  MISS %:    3.43502  MPKI: 0.35588
L2C LOAD TRANSLATION DATA	ACCESS:       1789  HIT:        571  MISS:       1218  HIT %:    31.9173  MISS %:    68.0827  MPKI: 0.02436
L2C TRANSLATION FROM L1D PREFETCHER DATA	ACCESS:         40  HIT:         24  MISS:         16  HIT %:         60  MISS %:         40  MPKI: 0.00032

L2C PREFETCH  REQUESTED:      90478  ISSUED:      90478  USEFUL:       7922  USELESS:      66833
L2C USEFUL LOAD PREFETCHES:       7922 PREFETCH ISSUED TO LOWER LEVEL:      74739  ACCURACY: 10.5996
 TIMELY PREFETCHES:       7922 LATE PREFETCHES: 425 DROPPED PREFETCHES: 0
L2C AVERAGE MISS LATENCY: 37.2533 cycles
L2C RQ	ACCESS:    3758432	FORWARD:          0	MERGED:          0	TO_CACHE:    3758385
L2C WQ	ACCESS:     518018	FORWARD:         47	MERGED:          0	TO_CACHE:     518018
L2C PQ	ACCESS:     191655	FORWARD:          0	MERGED:       4035	TO_CACHE:     187620

L2C Dense regions hint from L2: 0
PSCL5 TOTAL     ACCESS:       3960  HIT:       1980  MISS:       1980  HIT %:         50  MISS %:         50   MPKI: 0.0396
PSCL5 LOAD TRANSLATION INSTRUCTION	ACCESS:       3880  HIT:       1940  MISS:       1940  HIT %:         50  MISS %:         50  MPKI: 0.0388
PSCL5 TRANSLATION FROM L1D PREFETCHER INSTRUCTION	ACCESS:         80  HIT:         40  MISS:         40  HIT %:         50  MISS %:         50  MPKI: 0.0008


PSCL4 TOTAL     ACCESS:       3819  HIT:       1907  MISS:       1912  HIT %:    49.9345  MISS %:    50.0655   MPKI: 0.03824
PSCL4 LOAD TRANSLATION INSTRUCTION	ACCESS:       1983  HIT:       1873  MISS:        110  HIT %:    94.4528  MISS %:    5.54715  MPKI: 0.0022
PSCL4 TRANSLATION FROM L1D PREFETCHER INSTRUCTION	ACCESS:         34  HIT:         34  MISS:          0  HIT %:        100  MISS %:          0  MPKI: 0
PSCL4 LOAD TRANSLATION DATA	ACCESS:       1768  HIT:          0  MISS:       1768  HIT %:          0  MISS %:        100  MPKI: 0.03536
PSCL4 TRANSLATION FROM L1D PREFETCHER DATA	ACCESS:         34  HIT:          0  MISS:         34  HIT %:          0  MISS %:        100  MPKI: 0.00068


PSCL3 TOTAL     ACCESS:       3873  HIT:       1934  MISS:       1939  HIT %:    49.9355  MISS %:    50.0645   MPKI: 0.03878
PSCL3 LOAD TRANSLATION INSTRUCTION	ACCESS:       2010  HIT:       1900  MISS:        110  HIT %:    94.5274  MISS %:    5.47264  MPKI: 0.0022
PSCL3 TRANSLATION FROM L1D PREFETCHER INSTRUCTION	ACCESS:         34  HIT:         34  MISS:          0  HIT %:        100  MISS %:          0  MPKI: 0
PSCL3 LOAD TRANSLATION DATA	ACCESS:       1795  HIT:          0  MISS:       1795  HIT %:          0  MISS %:        100  MPKI: 0.0359
PSCL3 TRANSLATION FROM L1D PREFETCHER DATA	ACCESS:         34  HIT:          0  MISS:         34  HIT %:          0  MISS %:        100  MPKI: 0.00068


PSCL2 TOTAL     ACCESS:       3894  HIT:       1914  MISS:       1980  HIT %:    49.1525  MISS %:    50.8475   MPKI: 0.0396
PSCL2 LOAD TRANSLATION INSTRUCTION	ACCESS:       2078  HIT:       1874  MISS:        204  HIT %:    90.1829  MISS %:    9.81713  MPKI: 0.00408
PSCL2 TRANSLATION FROM L1D PREFETCHER INSTRUCTION	ACCESS:         40  HIT:         40  MISS:          0  HIT %:        100  MISS %:          0  MPKI: 0
PSCL2 LOAD TRANSLATION DATA	ACCESS:       1736  HIT:          0  MISS:       1736  HIT %:          0  MISS %:        100  MPKI: 0.03472
PSCL2 TRANSLATION FROM L1D PREFETCHER DATA	ACCESS:         40  HIT:          0  MISS:         40  HIT %:          0  MISS %:        100  MPKI: 0.0008


LLC TOTAL     ACCESS:     581792  HIT:     554221  MISS:      27571  HIT %:     95.261  MISS %:    4.73898   MPKI: 0.55142
LLC LOAD INSTRUCTION	ACCESS:     275631  HIT:     274996  MISS:        635  HIT %:    99.7696  MISS %:    0.23038  MPKI: 0.0127
LLC LOAD TRANSLATION INSTRUCTION	ACCESS:        164  HIT:        156  MISS:          8  HIT %:     95.122  MISS %:    4.87805  MPKI: 0.00016
LLC LOAD DATA	ACCESS:      77214  HIT:      73852  MISS:       3362  HIT %:    95.6459  MISS %:    4.35413  MPKI: 0.06724
LLC RFO DATA	ACCESS:      65334  HIT:      51633  MISS:      13701  HIT %:    79.0293  MISS %:    20.9707  MPKI: 0.27402
LLC PREFETCH DATA	ACCESS:      74739  HIT:      65206  MISS:       9533  HIT %:    87.2449  MISS %:    12.7551  MPKI: 0.19066
LLC WRITEBACK DATA	ACCESS:      87476  HIT:      87202  MISS:        274  HIT %:    99.6868  MISS %:   0.313229  MPKI: 0.00548
LLC LOAD TRANSLATION DATA	ACCESS:       1218  HIT:       1161  MISS:         57  HIT %:    95.3202  MISS %:     4.6798  MPKI: 0.00114
LLC TRANSLATION FROM L1D PREFETCHER DATA	ACCESS:         16  HIT:         15  MISS:          1  HIT %:      93.75  MISS %:       6.25  MPKI: 2e-05

LLC AVERAGE MISS LATENCY: 152.548 cycles
LLC RQ	ACCESS:     419580	FORWARD:          0	MERGED:          0	TO_CACHE:     419577
LLC WQ	ACCESS:      87476	FORWARD:          3	MERGED:          0	TO_CACHE:      87476
LLC PQ	ACCESS:      74739	FORWARD:          0	MERGED:          0	TO_CACHE:      74739

LLC Dense regions hint to LLC: 0

RAW hits: 1816643
Loads Generated: 12630448
Loads sent to L1D: 10813804
Stores Generated: 6936509
Stores sent to L1D: 6936506
Major fault: 0 Minor fault: 2597
Allocated PAGES: 2597

stream: 
stream:times selected: 1188892
stream:pref_filled: 121036
stream:pref_useful: 23753
stream:pref_late: 6829
stream:misses: 8096
stream:misses_by_poll: 0

CS: 
CS:times selected: 179349
CS:pref_filled: 59327
CS:pref_useful: 35795
CS:pref_late: 7268
CS:misses: 15952
CS:misses_by_poll: 2

CPLX: 
CPLX:times selected: 1008396
CPLX:pref_filled: 19545
CPLX:pref_useful: 4633
CPLX:pref_late: 3038
CPLX:misses: 93265
CPLX:misses_by_poll: 0

NL_L1: 
NL:times selected: 21178
NL:pref_filled: 790
NL:pref_useful: 369
NL:pref_late: 258
NL:misses: 1691
NL:misses_by_poll: 0

total selections: 2397815
total_filled: 93117
total_useful: 33013
total_late: 18640
total_polluted: 2
total_misses_after_warmup: 761669
conflicts: 5589592

test: 116345

DRAM Statistics
 CHANNEL 0
 RQ ROW_BUFFER_HIT:      10412  ROW_BUFFER_MISS:      16877
 DBUS_CONGESTED:         14
 WQ ROW_BUFFER_HIT:       1273  ROW_BUFFER_MISS:      11853  FULL:          0

 AVG_CONGESTED_CYCLE: 5

CPU 0 Branch Prediction Accuracy: 99.8181% MPKI: 0.33268 Average ROB Occupancy at Mispredict: 149.918
Branch types
NOT_BRANCH: 40857271 81.7145%
BRANCH_DIRECT_JUMP: 548866 1.09773%
BRANCH_INDIRECT: 183337 0.366674%
BRANCH_CONDITIONAL: 6184416 12.3688%
BRANCH_DIRECT_CALL: 941343 1.88269%
BRANCH_INDIRECT_CALL: 171528 0.343056%
BRANCH_RETURN: 1112875 2.22575%
BRANCH_OTHER: 0 0%

DRAM PAGES: 1048576
Allocated PAGES: 2597
Average_ROB_Occupancy: 152.233
Average_Decode_Occupancy: 18.7405
Average_FTQ_Occupancy: 8.26139
Indirect max targets: 14 Average targets: 1.17572
Branch_type:  BRANCH_DIRECT_JUMP:  Count Percentage: 3.92248 5.30898 4.66872 8.47691 1.88066 5.97487 1.21376 68.5536 
Branch_type:  BRANCH_INDIRECT:  Count Percentage: 11.7669 3.44495 2.58064 9.67281 3.34463 4.01432 1.99869 63.1771 
Branch_type:  BRANCH_CONDITIONAL:  Count Percentage: 21.6459 5.40105 2.31278 5.16009 2.0779 4.35452 0.733297 58.3145 
Branch_type:  BRANCH_DIRECT_CALL:  Count Percentage: 0.748945 1.28916 1.44278 4.18033 2.61831 2.36486 0.621 86.7346 
Branch_type:  BRANCH_INDIRECT_CALL:  Count Percentage: 9.51901 0.579355 2.9827 4.84019 1.25454 2.99348 0.996758 76.834 
Branch_type:  BRANCH_RETURN:  Count Percentage: 4.17795 3.77075 1.78272 6.38824 4.2795 4.62521 1.1738 73.8018 
Branch_type:  BRANCH_DIRECT_JUMP:  Total Count: 43007 58209 51189 92943 20620 65510 13308 751639 
Branch_type:  BRANCH_INDIRECT:  Total Count: 43048 12603 9441 35387 12236 14686 7312 231127 
Branch_type:  BRANCH_CONDITIONAL:  Total Count: 2674916 667440 285804 637664 256779 538114 90618 7206269 
Branch_type:  BRANCH_DIRECT_CALL:  Total Count: 14119 24303 27199 78807 49360 44582 11707 1635109 
Branch_type:  BRANCH_INDIRECT_CALL:  Total Count: 32680 1989 10240 16617 4307 10277 3422 263781 
Branch_type:  BRANCH_RETURN:  Total Count: 93141 84063 39743 142416 95405 103112 26168 1645299 
Number of unique branch instructions: 10597
Upper 32 bits: 
aaaa
ffff
ffff0000
Unique upper 32 bits: 3
Unique upper 36 bits: 3
Unique upper 40 bits: 5
Unique upper 44 bits: 32
Unique upper 48 bits: 158
Variant_0 : 1141 0.278564
Variant_1 : 2727 0.665771
Variant_2 : 0 0
Variant_3 : 0 0
Offset_3 4386
Offset_4 258
Offset_5 477
Offset_6 531
Offset_7 625
Offset_8 566
Offset_9 508
Offset_10 415
Offset_11 340
Offset_12 307
Offset_13 237
Offset_14 244
Offset_15 194
Offset_16 226
Offset_17 163
Offset_18 144
Offset_19 256
Offset_20 141
Offset_21 235
Offset_22 408
Offset_23 241
Offset_24 342
Offset_25 117
Offset_47 92
Offset_64 3
decode_dispatch_called: 20632055 50.2691
Dispatch_width: 0 10411304 50.4618 25.3667
Dispatch_width: 1 590187 2.86053 1.43796
Dispatch_width: 2 629539 3.05127 1.53384
Dispatch_width: 3 415573 2.01421 1.01252
Dispatch_width: 4 2171954 10.5271 5.29187
Dispatch_width: 5 265094 1.28486 0.64589
Dispatch_width: 6 6148404 29.8003 14.9803
Empty_decode_cycles: 20411187 49.7309
ROB_full_cycles: 3272239 7.97266
Starvation_cycles_per_kilo_instr: 316.226
Starvation_cycles_per_kilo_instr_3: 291.856
Starvation_cycles_per_kilo_instr_0: 275.503
Branch_type_1  (3,1)  (4,9)  (5,39)  (6,71)  (7,122)  (8,148)  (9,133)  (10,109)  (11,76)  (12,47)  (13,11)  (14,2)  (15,3)  (16,4)  (18,1)  (19,5)  (20,2)  (21,1)  (22,3)  (23,2)  (24,10)  (25,12) 
Branch_type_2  (3,1)  (4,1)  (5,1)  (8,4)  (9,4)  (10,1)  (12,1)  (13,1)  (14,1)  (16,3)  (17,2)  (20,2)  (21,2)  (23,5)  (24,1)  (47,41) 
Branch_type_3  (3,4384)  (4,248)  (5,433)  (6,444)  (7,474)  (8,348)  (9,278)  (10,167)  (11,129)  (12,54)  (13,10)  (64,3) 
Branch_type_4  (6,3)  (7,8)  (8,25)  (9,55)  (10,66)  (11,69)  (12,114)  (13,100)  (14,110)  (15,92)  (16,99)  (17,75)  (18,61)  (19,125)  (20,72)  (21,124)  (22,214)  (23,136)  (24,197)  (25,101) 
Branch_type_5  (8,3)  (9,1)  (10,4)  (11,5)  (12,3)  (13,14)  (14,16)  (15,11)  (16,22)  (17,11)  (18,23)  (19,14)  (20,11)  (21,13)  (22,43)  (23,26)  (24,38) 
Branch_type_6  (5,4)  (6,13)  (7,21)  (8,38)  (9,37)  (10,68)  (11,61)  (12,88)  (13,101)  (14,115)  (15,88)  (16,98)  (17,75)  (18,59)  (19,112)  (20,54)  (21,95)  (22,148)  (23,72)  (24,96)  (25,4)  (47,51) 
Unique trigger count: 
Variant_0_evicts_0 : 0
Variant_0_evicts_1 : 0
Variant_0_evicts_2 : 0
Variant_0_evicts_3 : 0
Variant_1_evicts_0 : 0
Variant_1_evicts_1 : 0
Variant_1_evicts_2 : 0
Variant_1_evicts_3 : 0
Variant_2_evicts_0 : 0
Variant_2_evicts_1 : 0
Variant_2_evicts_2 : 0
Variant_2_evicts_3 : 0
Variant_3_evicts_0 : 0
Variant_3_evicts_1 : 0
Variant_3_evicts_2 : 0
Variant_3_evicts_3 : 0
BTB PER SET UNIQUE ADDR: 2 7 3 5 5 5 7 5 1 6 5 5 3 4 10 8 3 4 3 2 4 6 7 9 4 7 5 4 6 6 5 5 4 7 5 8 7 4 6 9 5 7 4 4 7 6 5 4 7 8 8 5 5 3 2 8 5 3 6 4 5 8 3 6 5 2 4 4 4 7 7 4 5 7 6 9 4 6 6 7 8 6 6 9 7 3 6 2 6 8 7 6 7 5 3 1 5 4 4 7 4 5 4 6 4 6 4 6 6 6 5 2 4 10 2 6 5 7 5 10 5 5 5 4 8 7 4 6 6 2 3 5 3 5 7 7 4 1 6 5 3 5 9 6 3 6 5 5 5 7 3 2 3 10 2 5 7 3 7 5 2 7 4 5 9 3 1 4 6 8 7 5 8 4 5 5 4 7 6 6 4 4 4 8 4 5 4 3 5 6 4 3 6 6 1 5 7 6 6 5 5 6 3 5 1 7 4 3 6 4 2 3 7 7 4 4 7 5 4 5 4 9 7 8 5 10 7 3 7 9 3 5 6 8 3 5 5 7 4 5 5 6 5 4 5 4 4 4 3 6 4 8 4 4 5 7 4 6 7 1 8 7 6 3 4 4 5 6 8 6 6 7 8 6 7 5 7 2 6 9 8 3 4 8 3 5 11 4 8 4 4 3 10 7 8 5 4 3 7 4 12 3 5 7 3 3 8 7 8 4 7 4 6 7 5 6 5 7 7 3 7 7 4 4 10 6 3 5 3 7 3 11 3 6 7 4 7 8 6 7 2 5 6 3 5 4 4 7 3 3 6 5 4 2 8 4 4 6 5 6 10 5 3 7 6 9 5 7 5 3 8 7 11 5 6 5 7 6 4 2 5 5 4 5 8 5 3 6 4 6 4 2 4 6 5 4 6 3 5 4 7 7 6 4 5 10 11 4 8 2 4 4 1 6 6 2 6 4 5 6 7 0 4 4 6 3 6 8 5 8 10 3 3 4 9 1 4 2 2 3 9 5 4 1 4 0 3 5 5 4 7 3 6 4 5 2 7 3 10 5 3 5 4 12 1 7 4 6 4 7 5 8 2 6 3 8 4 2 4 8 7 3 6 5 3 4 3 5 7 7 7 6 5 6 6 4 7 5 2 9 3 3 4 4 5 6 5 6 2 4 6 3 5 3 4 6 9 6 7 3 6 5 9 5 5 10 2 5 5 3 9 7 4 3 3 5 7 9 4 5 3 9 9 11 6 4 8 10 5 4 4 7 2 5 5 7 8 0 4 4 4 3 5 7 5 3 4 5 12 3 4 4 1 7 2 6 7 2 5 5 1 9 3 8 4 4 3 1 6 8 8 6 5 6 4 6 11 7 4 5 8 2 4 2 6 11 9 0 4 4 4 3 4 7 1 4 9 5 8 6 4 5 6 2 6 6 2 6 6 4 5 8 5 5 7 5 3 7 7 11 3 5 4 2 3 8 6 5 4 8 5 5 6 8 3 7 5 5 3 4 4 5 6 7 6 4 4 9 6 6 8 6 7 4 7 4 4 6 4 6 7 7 4 8 7 9 3 6 10 3 7 3 4 6 5 10 3 7 5 9 7 6 4 3 9 3 3 8 7 9 4 2 3 5 5 5 7 8 3 3 6 6 3 7 6 8 10 7 4 8 3 5 7 5 6 4 6 6 2 8 4 8 6 5 5 5 6 2 4 5 7 3 7 5 9 9 10 2 3 8 7 6 6 7 12 6 7 11 6 5 7 5 1 6 8 7 5 8 4 5 7 4 3 6 11 4 4 8 6 7 5 4 5 5 8 6 6 3 6 6 6 4 7 3 6 3 6 3 5 5 6 4 1 6 6 7 10 4 8 6 9 6 5 3 5 6 5 6 11 5 6 5 2 6 5 4 7 5 2 5 1 8 4 5 4 4 5 6 4 5 3 6 5 4 6 3 8 9 4 2 0 5 5 6 6 6 7 6 5 6 3 4 6 4 2 3 5 7 1 5 6 6 6 4 6 6 8 10 1 0 9 3 3 2 4 7 4 10 7 2 7 4 5 4 4 1 6 5 6 9 7 5 5 7 10 9 6 6 8 7 8 1 7 8 4 5 4 7 6 4 2 7 8 5 6 5 4 4 2 7 5 5 4 3 5 3 3 3 7 4 8 6 3 2 10 5 9 4 4 3 5 4 7 6 5 3 5 4 4 3 5 4 5 5 2 4 3 9 7 6 4 5 7 6 8 3 3 6 6 3 3 6 6 11 7 4 4 5 3 3 8 4 7 5 5 4 6 9 5 4 4 8 8 8 5 5 5 7 3 4 6 3 6 8 5 4 7 8 4 6 5 3 6 5 5 8 7 5 2 4 5 5 5 6 6 4 4 6 3 4 5 6 6 4 4 7 9 7 6 3 4 7 3 5 4 7 9 6 8 7 2 5 3 7 10 4 4 5 5 4 8 2 4 5 7 5 4 3 3 8 8 8 7 5 6 3 4 3 4 3 5 10 5 10 4 6 3 4 3 2 6 7 4 3 9 3 7 6 4 4 5 5 3 10 3 6 6 7 4 3 6 6 8 2 5 3 5 5 3 6 9 10 5 3 5 8 2 6 5 4 4 7 1 4 4 5 6 9 7 5 4 2 7 5 3 4 6 6 5 8 7 5 5 4 4 8 4 7 3 7 8 2 10 4 3 4 6 3 7 7 10 6 4 1 6 5 9 5 5 3 6 4 4 3 7 6 5 2 7 5 5 4 7 7 1 6 8 2 7 5 8 3 6 4 4 6 7 5 5 4 4 2 5 3 8 5 4 6 4 3 5 5 4 5 6 6 8 5 2 5 4 11 4 4 4 2 3 4 2 8 2 4 5 4 5 2 6 7 4 9 6 4 11 3 5 7 6 7 7 4 7 6 6 8 5 4 5 6 10 8 7 5 5 11 5 5 7 4 5 8 2 6 5 6 7 5 8 7 9 9 12 7 3 5 10 5 1 5 6 3 4 6 6 5 5 1 5 3 7 10 5 4 3 6 7 4 6 8 5 6 5 6 6 5 9 10 4 5 8 7 5 3 6 7 5 3 7 2 5 7 4 9 7 7 5 2 4 6 5 7 3 6 3 13 8 8 5 5 4 4 3 5 3 6 4 3 6 5 3 2 1 5 7 7 2 6 6 5 5 4 7 4 8 2 2 4 10 6 4 5 2 6 10 7 10 7 3 2 2 6 8 6 4 7 6 10 6 4 4 8 7 3 5 5 8 6 7 7 6 2 6 7 6 4 4 4 9 7 7 4 3 4 3 6 4 5 5 5 10 5 7 4 5 7 8 6 5 4 5 9 5 4 7 1 5 2 9 6 5 9 7 8 5 7 8 4 5 4 5 5 5 6 4 8 3 9 6 7 6 2 6 3 9 7 7 6 10 5 7 3 6 5 11 3 3 6 8 9 8 11 9 2 5 9 8 4 12 6 6 2 4 4 5 4 5 9 4 4 2 5 4 3 6 6 6 6 5 9 3 2 5 5 6 4 3 6 4 8 6 4 3 7 7 5 3 5 5 7 6 6 8 3 9 5 3 6 5 8 6 3 5 4 5 6 4 7 7 6 4 9 6 5 4 5 5 2 3 7 4 5 5 5 5 7 4 6 7 5 8 7 4 5 9 5 4 7 5 5 8 4 4 8 8 8 4 5 4 3 3 5 5 6 7 5 6 6 9 4 7 5 4 7 11 3 6 8 8 4 4 8 10 5 3 4 4 4 5 5 7 3 4 6 4 6 6 4 4 5 2 2 6 4 3 2 6 5 1 5 4 5 6 4 6 1 1 3 6 6 13 1 4 8 2 3 4 4 2 4 4 5 2 5 4 2 4 8 7 4 4 6 2 1 7 5 5 4 4 7 4 6 2 3 3 8 7 5 9 5 4 4 2 2 5 5 3 7 4 6 7 7 4 3 7 4 3 6 5 8 6 5 7 3 3 4 5 6 1 2 4 4 6 9 3 8 5 7 7 5 7 4 4 4 7 9 0 7 5 8 5 10 5 8 3 5 10 6 6 6 3 6 3 8 4 5 5 4 7 4 4 5 5 4 3 3 1 2 4 2 6 2 7 5 6 2 6 5 4 9 1 6 3 3 7 6 7 7 5 4 5 4 5 7 4 2 4 5 6 4 6 7 5 5 2 3 6 6 6 5 4 6 5 5 5 6 5 3 5 6 5 4 2 2 6 4 6 6 2 6 4 3 3 8 4 6 4 4 4 8 6 9 2 6 3 4 5 9 5 7 3 2 3 3 3 5 3 11 1 5 2 8 3 3 3 4 3 5 3 1 3 7 1 5 4 4 3 5 5 3 4 6 6 5 8 3 5 10 2 5 11 3 1 1 7 9 1 4 7 8 6 6 6 4 10 7 8 7 5 2 5 3 5 7 5 7 9 9 4 4 3 7 3 8 6 6 6 9 6 8 7 7 7 4 4 7 6 7 5 7 3 8 3 7 5 12 8 3 5 10 3 5 5 4 3 2 8 7 5 8 4 6 3 5 8 7 6 4 2 3 7 5 2 5 8 10 2 4 5 8 7 10 4 9 7 4 3 9 6 4 8 2 3 12 5 3 6 5 4 14 4 7 4 7 3 5 4 5 6 6 
BTB PER SET COUNT: 2 1811 105 634 178 103 294 202 1 940 752 404 3 1488 1092 179 179 199 3 2 248 642 631 232 295 1075 130 212 375 468 415 174 190 1225 542 428 649 271 111 1180 16 1624 14 8 917 597 88 164 224 759 773 9 599 3 2 412 484 1158 625 85 1163 719 6 8 117 15 208 297 4 728 1235 131 251 908 16 930 5 213 806 376 775 259 184 525 291 22 676 2 663 1685 485 548 315 324 10 1 184 4 134 495 125 6 129 11 8 12 137 215 690 716 62 2 258 1255 4 185 336 12 329 1730 404 177 1532 4 489 919 5 417 1081 3 3 135 3 74 252 466 223 1 457 793 6 704 1073 270 3 350 6 8 143 395 169 490 7 788 4 1604 309 979 310 222 2 95 5 426 701 114 1 9 231 505 262 331 622 147 315 82 5 294 60 659 123 308 240 506 200 171 75 4 9 63 42 3 193 403 1 342 121 626 808 6 267 375 121 170 1 394 8 494 239 4 6 5 487 584 231 221 779 333 4 235 5 520 256 654 376 1131 302 45 319 1094 95 182 8 6204 3 371 16 213 327 573 465 267 410 189 324 184 1842 7 3 262 218 757 4 180 378 106 1773 230 358 1 378 140 276 338 15 413 11 525 683 15 329 362 38 114 671 210 131 279 268 614 674 3 358 547 3 170 1292 256 525 6 5 3 1114 333 506 183 8 3 365 5 901 210 1456 373 19 3 181 123 101 14 154 6 402 262 8 208 42 525 275 3 453 326 193 167 1087 159 330 161 4 440 4 761 180 652 376 138 953 230 239 602 2 336 219 5 722 230 297 606 3 221 329 9 57 2 465 4 395 508 369 158 1476 404 125 749 154 2400 437 1198 15 312 829 626 1370 11 191 173 1158 240 147 2 113 1048 13 832 814 16 3 295 9 19 201 2 5 130 227 4 1709 3 344 149 1034 331 276 4 340 882 2189 358 104 5 13 130 1 318 643 3 399 418 373 171 428 0 4 247 289 564 405 505 962 319 789 59 7 235 151 1 4 4 4 3 849 280 4 1 161 0 2432 30 410 150 860 920 252 206 76 2 352 12 828 291 752 8 39 1213 1 574 191 7 6 521 183 1205 2 361 958 193 153 2 4 570 83 361 327 522 142 4 165 368 628 443 642 483 147 302 267 925 474 154 67 389 3 118 5 269 108 498 134 124 2 5 1111 4 919 843 11 191 666 1054 427 246 434 167 922 12 127 936 5 13 182 3 1542 504 4 4 4 179 840 662 6 6 150 516 930 1164 336 1480 849 996 208 166 4 1785 996 10 245 266 1060 0 5 78 648 6036 514 469 128 3 1544 83 1933 283 233 285 1 977 2 550 721 2 161 5 1 532 3 536 4 87 200 1 9 1818 167 295 463 933 216 1468 805 574 12 65 424 2 300 2 113 1087 1188 0 208 176 4 3 978 503 1 201 1023 401 9498 515 199 130 122 5 316 339 239 37 227 7 644 1198 142 524 647 649 3 465 181 1662 3 136 429 2 6 439 227 213 5 466 375 12 152 1027 4 116 413 334 4 7 282 24 8 29 518 623 4 1256 150 951 566 426 283 5 681 86 118 1054 185 850 544 360 66 1110 357 464 239 981 61 13 542 3 182 560 5 1104 4 819 10 792 247 681 6 3 723 3 6 207 545 531 9 2 294 324 44 930 438 562 5 4 365 297 836 461 691 656 850 383 382 365 256 253 360 170 18 5 266 225 2 2189 214 1061 313 178 144 6 18 109 4 662 484 3 239 280 103 486 742 2 3 806 174 7 83 225 277 118 263 3130 542 6 59 322 1 139 630 396 170 736 90 203 566 5 3 204 853 293 571 521 207 850 306 405 7 268 509 473 164 218 332 95 104 4 460 216 50 3 12 3 5 151 400 42 1 269 243 215 1271 275 266 8 696 297 206 3 195 1020 193 764 1492 482 600 192 86 687 5 73 942 7 2 122 19 909 376 5 232 11 196 745 104 791 3 232 8 255 355 54 472 324 153 3 0 288 109 410 664 14 220 271 608 10 592 208 128 5 2 3 1178 753 1 113 331 834 364 5 10 653 283 1002 1 0 1590 3 133 2 4 503 377 762 662 223 239 124 531 856 85 1 11 80 262 931 230 219 314 491 772 563 15 141 893 552 1418 9 272 176 5 6 1469 261 204 213 9 352 1284 248 210 171 6 969 230 607 614 149 4 3 709 96 3 4 509 5 653 1065 3 3 2149 415 1051 4 1912 234 234 170 234 158 187 9 588 241 15 137 131 5 11 453 2 5 75 1079 253 299 378 14 504 15 433 3 3 1085 166 3 4 551 246 1084 257 6 246 1253 3 3 38 48 223 1666 10 15 376 1877 1000 455 11 516 459 335 142 36 294 1277 5 103 342 403 354 198 476 282 677 750 10 208 275 3 453 313 207 1130 308 101 1463 10 100 194 11 203 421 448 686 76 22 5 364 422 220 117 170 122 751 602 422 20 4 365 183 579 224 165 811 563 298 276 2 585 6 593 643 4 17 143 146 7 1057 2 73 404 567 357 11 85 4 327 904 840 415 95 257 567 77 4 100 3 185 964 407 1605 369 483 28 46 4 3 157 544 521 444 353 4 242 268 8 13 154 15 465 105 3 573 405 60 5 3 28 316 172 3 84 161 5 570 4 434 531 12484 392 259 273 56 2 387 50 5 4 145 1 99 216 505 9 613 1121 37 4 2 147 408 3 12 331 251 9 401 469 5 493 4 199 631 7 11 13 100 309 2 992 94 3 9 154 265 409 363 753 264 189 1 1464 490 964 371 479 111 324 89 16 4 575 455 871 3 268 370 723 4 588 1954 1 239 528 2 386 197 447 5 365 64 273 55 362 167 8 101 333 2 132 3 695 121 7 388 169 3 62 661 4 17 17 159 27 7 13 275 434 107 5 184 81 2 3 4 2 211 2 176 238 5 769 2 293 166 24 743 149 4 476 3 192 481 107 313 569 4 382 152 45 531 9 965 260 633 1934 458 133 446 6 1104 241 408 619 147 303 569 4 214 9 432 573 448 408 668 739 292 492 559 3 170 439 6 1 130 198 3 8 336 10 389 149 1 109 1482 148 1664 219 176 3 642 316 7 11 423 202 408 5 20 101 191 751 596 98 304 1352 616 622 3 155 396 162 3 639 2 9 197 363 824 851 256 8 2 138 75 10 630 3 133 193 1433 487 165 271 61 4 518 5 442 3 144 206 30 14 235 5 214 1 9 475 13 2 334 505 22 10 216 577 232 224 2 2 204 959 554 6 508 2 238 854 48 792 1145 7 2 2 567 604 212 93 228 130 465 354 4 186 2664 1387 7 241 2901 660 669 317 118 464 2 233 540 171 121 129 50 370 113 428 9 3 344 4 515 314 8 10 373 390 11 212 4 143 9 788 96 130 10 15 1116 135 401 855 1 7 2 403 286 576 1540 164 723 971 518 305 345 33 158 7 395 200 178 164 497 8 941 487 221 281 2 414 925 655 373 514 6 1195 499 225 4 329 424 1353 3 3 1220 203 366 692 1341 1139 2 52 1573 473 523 1146 313 981 2 131 8 548 188 135 450 4 27 3 710 109 4 242 14 9 352 188 741 156 2 682 135 141 19 107 34 100 657 301 586 523 853 557 294 6 180 2944 833 501 248 829 3 171 209 3 338 6 1166 85 1465 568 14 62 391 5 564 1051 22 177 648 106 213 119 422 573 3 3 623 28 305 302 322 282 592 229 539 700 34 1178 48 182 341 940 142 209 14 6 381 646 4 10 412 515 857 266 256 198 3 3 53 92 109 548 19 372 281 913 4 557 183 4 510 375 233 530 755 435 296 7 553 54 131 154 160 12 191 265 165 741 620 344 204 7 73 428 4 593 334 2 173 229 119 5 2 333 189 1 85 4 359 144 4 174 1 1 131 7 189 1729 2 6 1285 2 6 397 6 2 121 713 319 328 176 7 2 9 888 280 5 16 11 2 1 643 126 77 224 4 286 235 303 9 3 8 797 237 175 368 524 17 282 2 2 104 189 3 634 4 177 563 192 210 5 423 30 3 445 140 568 156 219 396 3 3 101 21 425 1 2 5 263 415 849 3 1245 147 393 288 344 1090 442 4 4 371 846 0 210 253 185 301 1604 309 353 4 472 1805 262 137 214 4 1171 3 698 6 126 235 11 191 7 102 351 13 335 583 3 1 2 5 2 665 4 365 386 150 3 266 6 8 263 1 359 128 362 329 705 727 453 205 16 316 4 186 666 5 3 96 7 148 775 229 661 485 457 2 305 277 1107 813 302 7 925 124 10 118 315 597 11 324 26 1050 308 2 2 510 284 196 287 2 403 8933 304 57 941 171 818 348 4 257 1012 363 934 304 363 188 4 232 170 8 198 4 2 8 3 4 1586 7 504 2 99 419 136 3 155 314 6 4 228 3 1 3 610 1 45 1065 730 3 182 198 43 95 967 23 223 904 3 361 902 2 761 586 81 1 1 340 769 1 166 338 186 76 353 394 307 537 249 700 524 6 2 51 159 213 827 135 382 1136 447 38 107 3 511 81 352 238 387 353 1197 373 657 713 689 859 999 114 544 3077 702 6 220 138 521 114 937 345 1209 82 220 313 897 405 379 449 120 4 2 917 1419 52 1173 44 230 4 140 775 432 123 204 1333 277 165 313 2 11 304 1227 2 192 235 830 677 666 190 932 352 1363 3 422 1857 12 147 2 6 1796 1350 15 334 583 158 2061 284 423 7 648 261 7 99 247 582 42 
To predecode: 0
Predecoding something: 0
Predecode request dropped: 0
sizeofblock_0 0
sizeofblock_1 216631
sizeofblock_2 230856
sizeofblock_3 0
sizeofblock_4 0
sizeofblock_5 0
sizeofblock_6 0
sizeofblock_7 0
sizeofblock_8 0
Variant_0 Correct: 1381591 Incorrect: 0 Accuracy: 1
Variant_1 Correct: 5405892 Incorrect: 0 Accuracy: 1
Variant_2 Correct: 0 Incorrect: 0 Accuracy: -nan
Variant_3 Correct: 0 Incorrect: 0 Accuracy: -nan
