
*** ChampSim Multicore Out-of-Order Simulator ***

Warmup Instructions: 50000000
Simulation Instructions: 50000000
Number of CPUs: 1
LLC sets: 2048
LLC ways: 16
Off-chip DRAM Size: 4096 MB Channels: 1 Width: 64-bit Data Rate: 6400 MT/s
CPU 0 runs ./micro_traces/srv13.trace.gz
.gz
ITLB has LRU replacement policy
DTLB has LRU replacement policy
STLB has LRU replacement policy
L1I has LRU replacement policy
L1D has LRU replacement policy
Initialize SRRIP state for L2C
Initialize DRRIP state for LLC
Heartbeat_Variant_0 : 1298 0.316895 per_variant_size: 0 1298 0 0 0 0 0 0 0 
Heartbeat_Variant_1 : 1190 0.290527 per_variant_size: 0 600 590 0 0 0 0 0 0 
Heartbeat_Variant_2 : 1264 0.308594 per_variant_size: 0 541 318 214 191 0 0 0 0 
Heartbeat_Variant_3 : 0 0 per_variant_size: 0 0 0 0 0 0 0 0 0 
Heartbeat_Variant_0_evicts 0 : 5714 1 : 172 2 : 154 3 : 0 
Heartbeat_Variant_1_evicts 0 : 149 1 : 0 2 : 362 3 : 0 
Heartbeat_Variant_2_evicts 0 : 148 1 : 342 2 : 0 3 : 0 
Heartbeat_Variant_3_evicts 0 : 0 1 : 0 2 : 0 3 : 0 
Heartbeat CPU 0 instructions: 10000000 cycles: 2797011 heartbeat IPC: 3.57525 cumulative IPC: 3.57525 (Simulation time: 0 hr 1 min 19 sec) 
Heartbeat_Variant_0 : 1326 0.32373 per_variant_size: 0 1326 0 0 0 0 0 0 0 
Heartbeat_Variant_1 : 1223 0.298584 per_variant_size: 0 598 625 0 0 0 0 0 0 
Heartbeat_Variant_2 : 1302 0.317871 per_variant_size: 0 545 331 222 204 0 0 0 0 
Heartbeat_Variant_3 : 0 0 per_variant_size: 0 0 0 0 0 0 0 0 0 
Heartbeat_Variant_0_evicts 0 : 5645 1 : 83 2 : 82 3 : 0 
Heartbeat_Variant_1_evicts 0 : 81 1 : 0 2 : 252 3 : 0 
Heartbeat_Variant_2_evicts 0 : 83 1 : 252 2 : 0 3 : 0 
Heartbeat_Variant_3_evicts 0 : 0 1 : 0 2 : 0 3 : 0 
Heartbeat CPU 0 instructions: 20000001 cycles: 5593782 heartbeat IPC: 3.57555 cumulative IPC: 3.5754 (Simulation time: 0 hr 2 min 37 sec) 
Heartbeat_Variant_0 : 1347 0.328857 per_variant_size: 0 1347 0 0 0 0 0 0 0 
Heartbeat_Variant_1 : 1239 0.30249 per_variant_size: 0 584 655 0 0 0 0 0 0 
Heartbeat_Variant_2 : 1330 0.324707 per_variant_size: 0 536 359 220 215 0 0 0 0 
Heartbeat_Variant_3 : 0 0 per_variant_size: 0 0 0 0 0 0 0 0 0 
Heartbeat_Variant_0_evicts 0 : 5626 1 : 107 2 : 93 3 : 0 
Heartbeat_Variant_1_evicts 0 : 102 1 : 0 2 : 289 3 : 0 
Heartbeat_Variant_2_evicts 0 : 95 1 : 290 2 : 0 3 : 0 
Heartbeat_Variant_3_evicts 0 : 0 1 : 0 2 : 0 3 : 0 
Heartbeat CPU 0 instructions: 30000003 cycles: 8390372 heartbeat IPC: 3.57578 cumulative IPC: 3.57553 (Simulation time: 0 hr 3 min 51 sec) 
Heartbeat_Variant_0 : 1353 0.330322 per_variant_size: 0 1353 0 0 0 0 0 0 0 
Heartbeat_Variant_1 : 1249 0.304932 per_variant_size: 0 593 656 0 0 0 0 0 0 
Heartbeat_Variant_2 : 1330 0.324707 per_variant_size: 0 535 356 227 212 0 0 0 0 
Heartbeat_Variant_3 : 0 0 per_variant_size: 0 0 0 0 0 0 0 0 0 
Heartbeat_Variant_0_evicts 0 : 5610 1 : 41 2 : 63 3 : 0 
Heartbeat_Variant_1_evicts 0 : 50 1 : 0 2 : 231 3 : 0 
Heartbeat_Variant_2_evicts 0 : 55 1 : 235 2 : 0 3 : 0 
Heartbeat_Variant_3_evicts 0 : 0 1 : 0 2 : 0 3 : 0 
Heartbeat CPU 0 instructions: 40000000 cycles: 11187568 heartbeat IPC: 3.57501 cumulative IPC: 3.5754 (Simulation time: 0 hr 5 min 8 sec) 
Heartbeat_Variant_0 : 1363 0.332764 per_variant_size: 0 1363 0 0 0 0 0 0 0 
Heartbeat_Variant_1 : 1253 0.305908 per_variant_size: 0 597 656 0 0 0 0 0 0 
Heartbeat_Variant_2 : 1347 0.328857 per_variant_size: 0 552 361 234 200 0 0 0 0 
Heartbeat_Variant_3 : 0 0 per_variant_size: 0 0 0 0 0 0 0 0 0 
Heartbeat_Variant_0_evicts 0 : 5663 1 : 76 2 : 75 3 : 0 
Heartbeat_Variant_1_evicts 0 : 74 1 : 0 2 : 268 3 : 0 
Heartbeat_Variant_2_evicts 0 : 76 1 : 271 2 : 0 3 : 0 
Heartbeat_Variant_3_evicts 0 : 0 1 : 0 2 : 0 3 : 0 
Heartbeat CPU 0 instructions: 50000001 cycles: 13984456 heartbeat IPC: 3.5754 cumulative IPC: 3.5754 (Simulation time: 0 hr 6 min 26 sec) 

Warmup complete CPU 0 instructions: 50000001 cycles: 13984456 (Simulation time: 0 hr 6 min 26 sec) 

Cycle: 20000000 FTQ IN: 55643218 FTQ occupancy: 16.0133 DECODE IN: 55643218 DECODE occupancy: 9.54448 ROB IN: 55643218 ROB occupancy: 260.59 ROB OUT: 55643204
Heartbeat_Variant_0 : 1358 0.331543 per_variant_size: 0 1358 0 0 0 0 0 0 0 
Heartbeat_Variant_1 : 1260 0.307617 per_variant_size: 0 599 661 0 0 0 0 0 0 
Heartbeat_Variant_2 : 1359 0.331787 per_variant_size: 0 545 369 247 198 0 0 0 0 
Heartbeat_Variant_3 : 0 0 per_variant_size: 0 0 0 0 0 0 0 0 0 
Heartbeat_Variant_0_evicts 0 : 5566 1 : 34 2 : 33 3 : 0 
Heartbeat_Variant_1_evicts 0 : 37 1 : 0 2 : 237 3 : 0 
Heartbeat_Variant_2_evicts 0 : 36 1 : 237 2 : 0 3 : 0 
Heartbeat_Variant_3_evicts 0 : 0 1 : 0 2 : 0 3 : 0 
Heartbeat CPU 0 instructions: 60000000 cycles: 24661274 heartbeat IPC: 0.936609 cumulative IPC: 0.936609 (Simulation time: 0 hr 7 min 35 sec) 
Cycle: 30000000 FTQ IN: 9236902 FTQ occupancy: 15.3086 DECODE IN: 9236893 DECODE occupancy: 5.03932 ROB IN: 9236890 ROB occupancy: 59.1289 ROB OUT: 9236876
Heartbeat_Variant_0 : 1371 0.334717 per_variant_size: 0 1371 0 0 0 0 0 0 0 
Heartbeat_Variant_1 : 1261 0.307861 per_variant_size: 0 599 662 0 0 0 0 0 0 
Heartbeat_Variant_2 : 1359 0.331787 per_variant_size: 0 547 368 255 189 0 0 0 0 
Heartbeat_Variant_3 : 0 0 per_variant_size: 0 0 0 0 0 0 0 0 0 
Heartbeat_Variant_0_evicts 0 : 5683 1 : 96 2 : 103 3 : 0 
Heartbeat_Variant_1_evicts 0 : 97 1 : 0 2 : 269 3 : 0 
Heartbeat_Variant_2_evicts 0 : 90 1 : 276 2 : 0 3 : 0 
Heartbeat_Variant_3_evicts 0 : 0 1 : 0 2 : 0 3 : 0 
Heartbeat CPU 0 instructions: 70000003 cycles: 35466029 heartbeat IPC: 0.925519 cumulative IPC: 0.931031 (Simulation time: 0 hr 8 min 47 sec) 
Cycle: 40000000 FTQ IN: 9351908 FTQ occupancy: 15.3429 DECODE IN: 9351899 DECODE occupancy: 5.05305 ROB IN: 9351896 ROB occupancy: 57.2115 ROB OUT: 9351869
Heartbeat_Variant_0 : 1371 0.334717 per_variant_size: 0 1371 0 0 0 0 0 0 0 
Heartbeat_Variant_1 : 1261 0.307861 per_variant_size: 0 598 663 0 0 0 0 0 0 
Heartbeat_Variant_2 : 1359 0.331787 per_variant_size: 0 547 368 257 187 0 0 0 0 
Heartbeat_Variant_3 : 0 0 per_variant_size: 0 0 0 0 0 0 0 0 0 
Heartbeat_Variant_0_evicts 0 : 5440 1 : 0 2 : 0 3 : 0 
Heartbeat_Variant_1_evicts 0 : 0 1 : 0 2 : 193 3 : 0 
Heartbeat_Variant_2_evicts 0 : 0 1 : 193 2 : 0 3 : 0 
Heartbeat_Variant_3_evicts 0 : 0 1 : 0 2 : 0 3 : 0 
Heartbeat CPU 0 instructions: 80000000 cycles: 46157002 heartbeat IPC: 0.935368 cumulative IPC: 0.932472 (Simulation time: 0 hr 9 min 59 sec) 
Cycle: 50000000 FTQ IN: 9356494 FTQ occupancy: 15.3281 DECODE IN: 9356494 DECODE occupancy: 5.04905 ROB IN: 9356488 ROB occupancy: 57.7687 ROB OUT: 9356191
Heartbeat_Variant_0 : 1384 0.337891 per_variant_size: 0 1384 0 0 0 0 0 0 0 
Heartbeat_Variant_1 : 1267 0.309326 per_variant_size: 0 603 664 0 0 0 0 0 0 
Heartbeat_Variant_2 : 1356 0.331055 per_variant_size: 0 527 385 248 196 0 0 0 0 
Heartbeat_Variant_3 : 0 0 per_variant_size: 0 0 0 0 0 0 0 0 0 
Heartbeat_Variant_0_evicts 0 : 5736 1 : 133 2 : 123 3 : 0 
Heartbeat_Variant_1_evicts 0 : 126 1 : 0 2 : 309 3 : 0 
Heartbeat_Variant_2_evicts 0 : 121 1 : 299 2 : 0 3 : 0 
Heartbeat_Variant_3_evicts 0 : 0 1 : 0 2 : 0 3 : 0 
Heartbeat CPU 0 instructions: 90000000 cycles: 56973591 heartbeat IPC: 0.924506 cumulative IPC: 0.930468 (Simulation time: 0 hr 11 min 12 sec) 
Cycle: 60000000 FTQ IN: 9249167 FTQ occupancy: 15.3545 DECODE IN: 9249177 DECODE occupancy: 5.04863 ROB IN: 9249177 ROB occupancy: 59.6516 ROB OUT: 9249401
Heartbeat_Variant_0 : 1383 0.337646 per_variant_size: 0 1383 0 0 0 0 0 0 0 
Heartbeat_Variant_1 : 1269 0.309814 per_variant_size: 0 604 665 0 0 0 0 0 0 
Heartbeat_Variant_2 : 1355 0.330811 per_variant_size: 0 525 383 249 198 0 0 0 0 
Heartbeat_Variant_3 : 0 0 per_variant_size: 0 0 0 0 0 0 0 0 0 
Heartbeat_Variant_0_evicts 0 : 5632 1 : 9 2 : 5 3 : 0 
Heartbeat_Variant_1_evicts 0 : 11 1 : 0 2 : 203 3 : 0 
Heartbeat_Variant_2_evicts 0 : 4 1 : 203 2 : 0 3 : 0 
Heartbeat_Variant_3_evicts 0 : 0 1 : 0 2 : 0 3 : 0 
Heartbeat CPU 0 instructions: 100000001 cycles: 67569443 heartbeat IPC: 0.943766 cumulative IPC: 0.933097 (Simulation time: 0 hr 12 min 18 sec) 
Finished CPU 0 instructions: 50000000 cycles: 53584987 cumulative IPC: 0.933097 (Simulation time: 0 hr 12 min 18 sec) 

ChampSim completed all CPUs

Region of Interest Statistics

CPU 0 cumulative IPC: 0.933097 instructions: 50000000 cycles: 53584987
 Fetch stage stalled: 22.3356  Sim cycles: 53584987 fetch stall cycle: 11968531
 Empty decode stage: 67.8977  Sim cycles: 53584987 fetch stall cycle: 36382958
ITLB TOTAL     ACCESS:    7286702  HIT:    6788012  MISS:     498690  HIT %:    93.1562  MISS %:    6.84384   MPKI: 9.9738
ITLB LOAD TRANSLATION INSTRUCTION	ACCESS:    7286702  HIT:    6788012  MISS:     498690  HIT %:    93.1562  MISS %:    6.84384  MPKI: 9.9738

ITLB AVERAGE MISS LATENCY: 9.04614 cycles
ITLB RQ	ACCESS:    8365724	FORWARD:          0	MERGED:     871361	TO_CACHE:    7494363

DTLB TOTAL     ACCESS:   10211353  HIT:    9728792  MISS:     482561  HIT %:    95.2743  MISS %:    4.72573   MPKI: 9.65122
DTLB LOAD TRANSLATION DATA	ACCESS:   10211353  HIT:    9728792  MISS:     482561  HIT %:    95.2743  MISS %:    4.72573  MPKI: 9.65122

DTLB AVERAGE MISS LATENCY: 9.29139 cycles
DTLB RQ	ACCESS:   14362762	FORWARD:          0	MERGED:    4119207	TO_CACHE:   10243555

STLB TOTAL     ACCESS:    1237154  HIT:    1235084  MISS:       2070  HIT %:    99.8327  MISS %:    0.16732   MPKI: 0.0414
STLB LOAD TRANSLATION INSTRUCTION	ACCESS:     498690  HIT:     498443  MISS:        247  HIT %:    99.9505  MISS %:  0.0495298  MPKI: 0.00494
STLB LOAD TRANSLATION DATA	ACCESS:     482530  HIT:     480739  MISS:       1791  HIT %:    99.6288  MISS %:   0.371169  MPKI: 0.03582
STLB TRANSLATION FROM L1D PREFETCHER DATA	ACCESS:     255934  HIT:     255902  MISS:         32  HIT %:    99.9875  MISS %:  0.0125032  MPKI: 0.00064

STLB AVERAGE MISS LATENCY: 70.1164 cycles
STLB RQ	ACCESS:    1352638	FORWARD:          0	MERGED:     115431	TO_CACHE:    1237207

STLB Hit, L1D data hit: 0
STLB Hit, L2C data hit: 0
STLB Hit, LLC data hit: 0
STLB Hit, LLC data miss: 0
STLB STLB hints to L2: 0
L1D TOTAL     ACCESS:   14150585  HIT:   13025909  MISS:    1124676  HIT %:    92.0521  MISS %:    7.94791   MPKI: 22.4935
L1D LOAD DATA	ACCESS:    7503706  HIT:    6761557  MISS:     742149  HIT %:    90.1096  MISS %:    9.89043  MPKI: 14.843
L1D RFO DATA	ACCESS:    6316448  HIT:    6029158  MISS:     287290  HIT %:    95.4517  MISS %:    4.54828  MPKI: 5.7458
L1D PREFETCH DATA	ACCESS:     330431  HIT:     235194  MISS:      95237  HIT %:    71.1779  MISS %:    28.8221  MPKI: 1.90474

L1D PREFETCH  REQUESTED:     742839  ISSUED:     742839  USEFUL:      35069  USELESS:      68399
L1D USEFUL LOAD PREFETCHES:      35069 PREFETCH ISSUED TO LOWER LEVEL:     103592  ACCURACY: 33.853
 TIMELY PREFETCHES:      35069 LATE PREFETCHES: 8238 DROPPED PREFETCHES: 15
L1D AVERAGE MISS LATENCY: 299850 cycles
L1D RQ	ACCESS:   11344051	FORWARD:          0	MERGED:    3646976	TO_CACHE:    7535020
L1D WQ	ACCESS:    6956492	FORWARD:     162120	MERGED:     128750	TO_CACHE:    6827742
L1D PQ	ACCESS:     371452	FORWARD:          0	MERGED:          0	TO_CACHE:     371387

L1D UNIQUE REGIONS ACCESSED: 0
L1D REGIONS CONFLICTS: 0
L1D Cross Page Prefetch Requests: 6760
L1D Same Page Prefetch Requests: 748098
L1D ROI Sum of L1D PQ occupancy: 4707708
L1D PREFETCHES PUSHED FROM L2C: 0
L1I TOTAL     ACCESS:    7875714  HIT:    5091562  MISS:    2784152  HIT %:    64.6489  MISS %:    35.3511   MPKI: 55.683
L1I LOAD INSTRUCTION	ACCESS:    7875714  HIT:    5091562  MISS:    2784152  HIT %:    64.6489  MISS %:    35.3511  MPKI: 55.683

L1I AVERAGE MISS LATENCY: 16.7681 cycles
L1I RQ	ACCESS:   15736224	FORWARD:          0	MERGED:    7370500	TO_CACHE:    8365724

L1BTB TOTAL     ACCESS:    5673087  HIT:    2024059  MISS:    3649028  HIT %:    35.6783  MISS %:    64.3217   MPKI: 72.9806
L1BTB BRANCH_DIRECT_JUMP	ACCESS:     548175  HIT:     142852  MISS:     405323	AVERAGE STALL: 21.7104
L1BTB BRANCH_INDIRECT	ACCESS:     182395  HIT:      65477  MISS:     116918	AVERAGE STALL: 51.4111
L1BTB BRANCH_CONDITIONAL	ACCESS:    2700110  HIT:    1400670  MISS:    1299440	AVERAGE STALL: 24.745
L1BTB BRANCH_DIRECT_CALL	ACCESS:     948928  HIT:     104670  MISS:     844258	AVERAGE STALL: 35.2917
L1BTB BRANCH_INDIRECT_CALL	ACCESS:     172271  HIT:      21010  MISS:     151261	AVERAGE STALL: 67.8564
L1BTB BRANCH_RETURN	ACCESS:    1121208  HIT:     289380  MISS:     831828	AVERAGE STALL: 33.4753
L1BTB BRANCH_OTHER ACCESS:          0  HIT:          0  MISS:          0	AVERAGE STALL: -nan
L1BTB TOTAL ROB OCCUPANCY AT BTB MISS: 0.652975

L2BTB TOTAL     ACCESS:    3623759  HIT:    3556968  MISS:      66791  HIT %:    98.1569  MISS %:    1.84314   MPKI: 1.33582
L2BTB BRANCH_DIRECT_JUMP	ACCESS:     401249  HIT:     397625  MISS:       3624	AVERAGE STALL: 21.7104
L2BTB BRANCH_INDIRECT	ACCESS:     106587  HIT:     103905  MISS:       2682	AVERAGE STALL: 51.4111
L2BTB BRANCH_CONDITIONAL	ACCESS:    1299440  HIT:    1295241  MISS:       4199	AVERAGE STALL: 24.745
L2BTB BRANCH_DIRECT_CALL	ACCESS:     844258  HIT:     843129  MISS:       1129	AVERAGE STALL: 35.2917
L2BTB BRANCH_INDIRECT_CALL	ACCESS:     141815  HIT:     130675  MISS:      11140	AVERAGE STALL: 67.8564
L2BTB BRANCH_RETURN	ACCESS:     830410  HIT:     786393  MISS:      44017	AVERAGE STALL: 33.4753
L2BTB BRANCH_OTHER ACCESS:          0  HIT:          0  MISS:          0	AVERAGE STALL: -nan
L2BTB TOTAL ROB OCCUPANCY AT BTB MISS: 35.6743

L2C TOTAL     ACCESS:    4516700  HIT:    4089128  MISS:     427572  HIT %:    90.5335  MISS %:    9.46647   MPKI: 8.55144
L2C LOAD INSTRUCTION	ACCESS:    2784152  HIT:    2544703  MISS:     239449  HIT %:    91.3996  MISS %:    8.60043  MPKI: 4.78898
L2C LOAD TRANSLATION INSTRUCTION	ACCESS:        279  HIT:         61  MISS:        218  HIT %:    21.8638  MISS %:    78.1362  MPKI: 0.00436
L2C LOAD DATA	ACCESS:     733899  HIT:     668457  MISS:      65442  HIT %:     91.083  MISS %:    8.91703  MPKI: 1.30884
L2C RFO DATA	ACCESS:     287154  HIT:     244601  MISS:      42553  HIT %:    85.1811  MISS %:    14.8189  MPKI: 0.85106
L2C PREFETCH DATA	ACCESS:     184255  HIT:     117287  MISS:      66968  HIT %:    63.6547  MISS %:    36.3453  MPKI: 1.33936
L2C WRITEBACK DATA	ACCESS:     525028  HIT:     513449  MISS:      11579  HIT %:    97.7946  MISS %:    2.20541  MPKI: 0.23158
L2C LOAD TRANSLATION DATA	ACCESS:       1869  HIT:        526  MISS:       1343  HIT %:    28.1434  MISS %:    71.8566  MPKI: 0.02686
L2C TRANSLATION FROM L1D PREFETCHER DATA	ACCESS:         64  HIT:         44  MISS:         20  HIT %:      68.75  MISS %:      31.25  MPKI: 0.0004

L2C PREFETCH  REQUESTED:      87925  ISSUED:      87925  USEFUL:       7205  USELESS:      60064
L2C USEFUL LOAD PREFETCHES:       7205 PREFETCH ISSUED TO LOWER LEVEL:      67237  ACCURACY: 10.7158
 TIMELY PREFETCHES:       7205 LATE PREFETCHES: 269 DROPPED PREFETCHES: 0
L2C AVERAGE MISS LATENCY: 39.0669 cycles
L2C RQ	ACCESS:    3807448	FORWARD:          0	MERGED:          0	TO_CACHE:    3807417
L2C WQ	ACCESS:     525028	FORWARD:         31	MERGED:          0	TO_CACHE:     525028
L2C PQ	ACCESS:     191517	FORWARD:          0	MERGED:       3916	TO_CACHE:     187601

L2C Dense regions hint from L2: 0
PSCL5 TOTAL     ACCESS:       4178  HIT:       2089  MISS:       2089  HIT %:         50  MISS %:         50   MPKI: 0.04178
PSCL5 LOAD TRANSLATION INSTRUCTION	ACCESS:       4052  HIT:       2026  MISS:       2026  HIT %:         50  MISS %:         50  MPKI: 0.04052
PSCL5 TRANSLATION FROM L1D PREFETCHER INSTRUCTION	ACCESS:        126  HIT:         63  MISS:         63  HIT %:         50  MISS %:         50  MPKI: 0.00126


PSCL4 TOTAL     ACCESS:       3453  HIT:       1720  MISS:       1733  HIT %:    49.8118  MISS %:    50.1882   MPKI: 0.03466
PSCL4 LOAD TRANSLATION INSTRUCTION	ACCESS:       2046  HIT:       1667  MISS:        379  HIT %:    81.4761  MISS %:    18.5239  MPKI: 0.00758
PSCL4 TRANSLATION FROM L1D PREFETCHER INSTRUCTION	ACCESS:         68  HIT:         53  MISS:         15  HIT %:    77.9412  MISS %:    22.0588  MPKI: 0.0003
PSCL4 LOAD TRANSLATION DATA	ACCESS:       1301  HIT:          0  MISS:       1301  HIT %:          0  MISS %:        100  MPKI: 0.02602
PSCL4 TRANSLATION FROM L1D PREFETCHER DATA	ACCESS:         38  HIT:          0  MISS:         38  HIT %:          0  MISS %:        100  MPKI: 0.00076


PSCL3 TOTAL     ACCESS:       3483  HIT:       1735  MISS:       1748  HIT %:    49.8134  MISS %:    50.1866   MPKI: 0.03496
PSCL3 LOAD TRANSLATION INSTRUCTION	ACCESS:       2061  HIT:       1682  MISS:        379  HIT %:    81.6109  MISS %:    18.3891  MPKI: 0.00758
PSCL3 TRANSLATION FROM L1D PREFETCHER INSTRUCTION	ACCESS:         68  HIT:         53  MISS:         15  HIT %:    77.9412  MISS %:    22.0588  MPKI: 0.0003
PSCL3 LOAD TRANSLATION DATA	ACCESS:       1316  HIT:          0  MISS:       1316  HIT %:          0  MISS %:        100  MPKI: 0.02632
PSCL3 TRANSLATION FROM L1D PREFETCHER DATA	ACCESS:         38  HIT:          0  MISS:         38  HIT %:          0  MISS %:        100  MPKI: 0.00076


PSCL2 TOTAL     ACCESS:       4080  HIT:       1991  MISS:       2089  HIT %:     48.799  MISS %:     51.201   MPKI: 0.04178
PSCL2 LOAD TRANSLATION INSTRUCTION	ACCESS:       2174  HIT:       1929  MISS:        245  HIT %:    88.7305  MISS %:    11.2695  MPKI: 0.0049
PSCL2 TRANSLATION FROM L1D PREFETCHER INSTRUCTION	ACCESS:         62  HIT:         62  MISS:          0  HIT %:        100  MISS %:          0  MPKI: 0
PSCL2 LOAD TRANSLATION DATA	ACCESS:       1782  HIT:          0  MISS:       1782  HIT %:          0  MISS %:        100  MPKI: 0.03564
PSCL2 TRANSLATION FROM L1D PREFETCHER DATA	ACCESS:         62  HIT:          0  MISS:         62  HIT %:          0  MISS %:        100  MPKI: 0.00124


LLC TOTAL     ACCESS:     478026  HIT:     450541  MISS:      27485  HIT %:    94.2503  MISS %:    5.74969   MPKI: 0.5497
LLC LOAD INSTRUCTION	ACCESS:     239449  HIT:     238667  MISS:        782  HIT %:    99.6734  MISS %:   0.326583  MPKI: 0.01564
LLC LOAD TRANSLATION INSTRUCTION	ACCESS:        218  HIT:        181  MISS:         37  HIT %:    83.0275  MISS %:    16.9725  MPKI: 0.00074
LLC LOAD DATA	ACCESS:      65179  HIT:      61710  MISS:       3469  HIT %:    94.6777  MISS %:    5.32227  MPKI: 0.06938
LLC RFO DATA	ACCESS:      42545  HIT:      29484  MISS:      13061  HIT %:    69.3007  MISS %:    30.6993  MPKI: 0.26122
LLC PREFETCH DATA	ACCESS:      67237  HIT:      57523  MISS:       9714  HIT %:    85.5526  MISS %:    14.4474  MPKI: 0.19428
LLC WRITEBACK DATA	ACCESS:      62035  HIT:      61685  MISS:        350  HIT %:    99.4358  MISS %:   0.564198  MPKI: 0.007
LLC LOAD TRANSLATION DATA	ACCESS:       1343  HIT:       1271  MISS:         72  HIT %:    94.6389  MISS %:    5.36113  MPKI: 0.00144
LLC TRANSLATION FROM L1D PREFETCHER DATA	ACCESS:         20  HIT:         20  MISS:          0  HIT %:        100  MISS %:          0  MPKI: 0

LLC AVERAGE MISS LATENCY: 152.461 cycles
LLC RQ	ACCESS:     348756	FORWARD:          0	MERGED:          0	TO_CACHE:     348754
LLC WQ	ACCESS:      62035	FORWARD:          2	MERGED:          0	TO_CACHE:      62035
LLC PQ	ACCESS:      67237	FORWARD:          0	MERGED:          0	TO_CACHE:      67237

LLC Dense regions hint to LLC: 0

RAW hits: 1289571
Loads Generated: 12633624
Loads sent to L1D: 11344051
Stores Generated: 6956478
Stores sent to L1D: 6956492
Major fault: 0 Minor fault: 2510
Allocated PAGES: 2510

stream: 
stream:times selected: 1176206
stream:pref_filled: 122146
stream:pref_useful: 25260
stream:pref_late: 6399
stream:misses: 7318
stream:misses_by_poll: 0

CS: 
CS:times selected: 176017
CS:pref_filled: 58236
CS:pref_useful: 35112
CS:pref_late: 7070
CS:misses: 16432
CS:misses_by_poll: 1

CPLX: 
CPLX:times selected: 999078
CPLX:pref_filled: 21652
CPLX:pref_useful: 5241
CPLX:pref_late: 2994
CPLX:misses: 94000
CPLX:misses_by_poll: 1

NL_L1: 
NL:times selected: 19560
NL:pref_filled: 648
NL:pref_useful: 316
NL:pref_late: 341
NL:misses: 1571
NL:misses_by_poll: 0

total selections: 2370861
total_filled: 95237
total_useful: 35069
total_late: 18064
total_polluted: 2
total_misses_after_warmup: 773467
conflicts: 5965254

test: 118381

DRAM Statistics
 CHANNEL 0
 RQ ROW_BUFFER_HIT:      10180  ROW_BUFFER_MISS:      16943
 DBUS_CONGESTED:          3
 WQ ROW_BUFFER_HIT:       1288  ROW_BUFFER_MISS:      11364  FULL:          0

 AVG_CONGESTED_CYCLE: 6

CPU 0 Branch Prediction Accuracy: 99.8196% MPKI: 0.33026 Average ROB Occupancy at Mispredict: 76.1283
Branch types
NOT_BRANCH: 40845601 81.6912%
BRANCH_DIRECT_JUMP: 548175 1.09635%
BRANCH_INDIRECT: 182395 0.36479%
BRANCH_CONDITIONAL: 6181156 12.3623%
BRANCH_DIRECT_CALL: 948928 1.89786%
BRANCH_INDIRECT_CALL: 172271 0.344542%
BRANCH_RETURN: 1121208 2.24242%
BRANCH_OTHER: 0 0%

DRAM PAGES: 1048576
Allocated PAGES: 2510
Average_ROB_Occupancy: 59.175
Average_Decode_Occupancy: 5.04837
Average_FTQ_Occupancy: 15.3276
Indirect max targets: 14 Average targets: 1.14527
Branch_type:  BRANCH_DIRECT_JUMP:  Count Percentage: 3.77754 4.3202 3.61667 2.75026 8.7082 6.32276 2.64304 67.8613 
Branch_type:  BRANCH_INDIRECT:  Count Percentage: 11.7832 0.782185 2.47724 13.2884 3.35175 2.81724 2.95998 62.54 
Branch_type:  BRANCH_CONDITIONAL:  Count Percentage: 24.9251 2.55689 2.211 3.57949 3.41395 4.08722 3.13397 56.0924 
Branch_type:  BRANCH_DIRECT_CALL:  Count Percentage: 0.387189 1.81758 0.715356 1.91715 4.9188 2.96273 4.97597 82.3052 
Branch_type:  BRANCH_INDIRECT_CALL:  Count Percentage: 9.5726 0 3.0019 5.24046 0 2.68895 3.85996 75.6361 
Branch_type:  BRANCH_RETURN:  Count Percentage: 7.50561 1.90532 2.89054 3.60958 3.6701 4.21983 4.21353 71.9855 
Branch_type:  BRANCH_DIRECT_JUMP:  Total Count: 41398 47345 39635 30140 95433 69291 28965 743691 
Branch_type:  BRANCH_INDIRECT:  Total Count: 43009 2855 9042 48503 12234 10283 10804 228273 
Branch_type:  BRANCH_CONDITIONAL:  Total Count: 3079953 315950 273209 442311 421855 505050 387259 6931230 
Branch_type:  BRANCH_DIRECT_CALL:  Total Count: 7334 34428 13550 36314 93170 56119 94253 1558995 
Branch_type:  BRANCH_INDIRECT_CALL:  Total Count: 32944 0 10331 18035 0 9254 13284 260301 
Branch_type:  BRANCH_RETURN:  Total Count: 168058 42662 64722 80822 82177 94486 94345 1611825 
Number of unique branch instructions: 9789
Upper 32 bits: 
aaaa
ffff
ffff0000
Unique upper 32 bits: 3
Unique upper 36 bits: 3
Unique upper 40 bits: 5
Unique upper 44 bits: 32
Unique upper 48 bits: 154
Variant_0 : 1383 0.337646
Variant_1 : 1269 0.309814
Variant_2 : 1355 0.330811
Variant_3 : 0 0
Offset_3 4026
Offset_4 246
Offset_5 447
Offset_6 498
Offset_7 579
Offset_8 501
Offset_9 463
Offset_10 378
Offset_11 304
Offset_12 270
Offset_13 198
Offset_14 225
Offset_15 179
Offset_16 220
Offset_17 143
Offset_18 118
Offset_19 234
Offset_20 135
Offset_21 235
Offset_22 392
Offset_23 241
Offset_24 333
Offset_25 88
Offset_47 82
decode_dispatch_called: 29328923 54.7335
Dispatch_width: 0 17265901 58.8699 32.2215
Dispatch_width: 1 2162402 7.37293 4.03546
Dispatch_width: 2 1201005 4.09495 2.24131
Dispatch_width: 3 1095287 3.73449 2.04402
Dispatch_width: 4 1123958 3.83225 2.09752
Dispatch_width: 5 1228591 4.18901 2.29279
Dispatch_width: 6 5251779 17.9065 9.80084
Empty_decode_cycles: 24256064 45.2665
ROB_full_cycles: 536218 1.00069
Starvation_cycles_per_kilo_instr: 477.97
Starvation_cycles_per_kilo_instr_3: 454.444
Starvation_cycles_per_kilo_instr_0: 409.857
Branch_type_1  (3,1)  (4,9)  (5,37)  (6,69)  (7,116)  (8,125)  (9,122)  (10,98)  (11,69)  (12,43)  (13,5)  (14,2)  (15,3)  (16,4)  (18,1)  (19,4)  (20,2)  (21,1)  (22,3)  (23,2)  (24,10)  (25,12) 
Branch_type_2  (3,1)  (5,1)  (8,3)  (9,3)  (12,1)  (13,1)  (14,1)  (16,3)  (17,2)  (20,2)  (21,2)  (23,5)  (24,1)  (47,38) 
Branch_type_3  (3,4024)  (4,237)  (5,405)  (6,414)  (7,434)  (8,314)  (9,255)  (10,154)  (11,125)  (12,50)  (13,4) 
Branch_type_4  (6,3)  (7,8)  (8,24)  (9,52)  (10,60)  (11,55)  (12,97)  (13,85)  (14,99)  (15,84)  (16,98)  (17,64)  (18,53)  (19,114)  (20,71)  (21,124)  (22,207)  (23,136)  (24,193)  (25,72) 
Branch_type_5  (8,2)  (9,1)  (10,3)  (11,5)  (12,3)  (13,14)  (14,16)  (15,11)  (16,20)  (17,11)  (18,16)  (19,12)  (20,10)  (21,13)  (22,42)  (23,26)  (24,37) 
Branch_type_6  (5,4)  (6,12)  (7,21)  (8,33)  (9,30)  (10,63)  (11,50)  (12,76)  (13,89)  (14,107)  (15,81)  (16,95)  (17,66)  (18,48)  (19,104)  (20,50)  (21,95)  (22,140)  (23,72)  (24,92)  (25,4)  (47,44) 
Unique trigger count: 
Variant_0_evicts_0 : 0
Variant_0_evicts_1 : 0
Variant_0_evicts_2 : 0
Variant_0_evicts_3 : 0
Variant_1_evicts_0 : 0
Variant_1_evicts_1 : 0
Variant_1_evicts_2 : 0
Variant_1_evicts_3 : 0
Variant_2_evicts_0 : 0
Variant_2_evicts_1 : 0
Variant_2_evicts_2 : 0
Variant_2_evicts_3 : 0
Variant_3_evicts_0 : 0
Variant_3_evicts_1 : 0
Variant_3_evicts_2 : 0
Variant_3_evicts_3 : 0
BTB PER SET UNIQUE ADDR: 9 10 7 14 11 12 11 10 7 10 8 12 12 8 11 9 12 10 8 11 7 11 9 12 6 10 12 12 9 7 14 14 17 8 5 13 10 9 9 12 10 11 8 11 11 13 12 6 9 10 8 11 6 10 11 5 7 8 9 11 11 14 12 10 9 13 10 7 12 9 8 10 14 7 7 5 9 11 9 11 10 7 12 13 11 15 14 9 8 25 8 8 11 7 5 12 9 12 9 17 14 14 13 5 9 10 11 5 6 6 9 18 14 7 8 7 12 13 7 12 14 9 8 7 11 15 6 10 13 10 10 10 11 9 7 12 6 16 6 14 5 13 8 8 13 13 10 9 6 12 12 13 11 8 10 12 13 8 10 13 9 7 8 12 7 10 11 8 12 8 11 10 16 9 9 10 10 10 9 12 8 10 9 13 16 15 5 6 10 14 9 11 8 12 12 11 7 14 10 14 15 12 12 6 10 8 9 9 6 9 8 13 8 9 8 6 10 10 11 12 8 11 10 3 8 9 18 10 7 14 9 6 10 14 9 13 8 14 12 7 11 6 12 12 9 10 9 7 11 13 14 12 15 9 12 9 6 13 8 5 15 6 5 8 15 6 8 8 11 9 9 9 9 4 6 9 13 11 12 10 8 12 8 8 9 8 11 17 16 14 9 7 14 17 6 14 7 12 10 15 8 6 12 15 10 13 11 6 9 9 11 9 8 15 7 11 12 16 7 15 11 11 7 10 13 14 13 7 10 7 11 7 11 8 8 16 10 12 7 12 7 11 6 13 10 7 8 13 10 8 12 5 11 8 11 13 7 8 5 7 13 11 11 16 9 11 8 11 11 11 11 10 10 11 11 9 11 11 11 11 9 8 10 10 10 8 12 10 9 9 9 9 6 10 6 7 11 7 11 7 4 10 10 12 9 11 6 12 11 10 12 8 9 17 10 9 10 13 13 15 9 10 9 10 11 8 7 11 11 7 14 10 10 11 13 17 15 8 7 11 11 10 7 9 15 9 7 10 10 11 10 12 11 8 6 9 13 10 5 15 5 8 11 10 14 5 10 10 10 14 9 8 11 10 14 8 8 13 4 17 11 10 10 12 9 12 21 9 15 10 12 13 12 8 6 8 8 14 7 10 10 12 9 18 7 6 6 12 13 9 10 12 9 7 11 10 7 13 7 9 8 11 12 7 9 13 17 9 8 15 10 12 16 8 12 10 10 13 11 13 10 8 13 15 14 11 10 9 8 11 13 15 12 11 9 13 12 12 15 13 14 12 14 12 8 9 10 11 8 13 8 12 12 15 13 10 11 10 12 12 8 11 9 10 10 11 12 11 13 8 5 11 9 12 14 6 9 8 13 9 10 7 9 4 10 14 10 12 12 7 8 8 10 9 1 16 9 10 13 13 15 9 9 7 11 11 7 18 10 15 11 6 8 6 8 7 11 10 10 20 10 11 12 15 7 8 11 9 16 11 10 12 11 12 12 11 11 12 11 11 12 6 10 15 10 12 6 13 8 9 18 7 8 15 16 7 11 15 6 15 10 13 6 14 12 13 10 11 14 9 9 14 11 6 9 9 8 17 7 14 7 10 13 8 7 16 9 12 12 6 6 11 5 8 13 10 11 11 7 7 10 8 10 10 13 7 16 11 8 12 9 7 15 4 7 14 14 12 15 10 6 7 11 9 9 10 9 11 10 7 8 8 8 14 8 8 15 9 5 6 9 5 7 13 10 14 10 9 10 8 12 17 7 7 12 10 10 12 11 6 6 12 10 10 9 11 11 12 10 8 9 7 18 11 15 11 13 11 16 9 16 11 13 7 15 9 14 9 6 11 10 18 10 14 8 15 11 8 6 16 10 17 9 15 12 9 6 10 7 10 14 9 14 13 8 12 11 9 10 9 10 10 7 9 8 19 9 11 10 7 6 11 10 14 9 9 8 8 14 12 9 10 7 6 14 5 13 10 13 9 11 9 14 11 10 5 13 15 10 10 12 10 11 10 12 11 17 13 8 12 8 11 9 10 11 10 11 10 8 6 13 9 14 10 10 15 8 13 14 14 10 9 6 16 10 12 12 11 11 7 10 11 7 9 10 11 7 11 14 7 13 16 13 7 14 12 7 15 10 10 6 14 14 10 12 11 13 12 9 8 12 13 12 8 9 12 7 8 14 13 9 7 9 13 13 13 16 11 9 10 14 13 11 7 11 10 11 10 12 13 9 11 12 7 9 15 10 11 12 16 11 7 5 16 8 10 12 7 14 8 15 13 9 8 13 12 7 12 8 12 8 16 10 7 9 6 3 10 3 9 9 12 9 7 
BTB PER SET COUNT: 963 10 1491 27 11 17 14 10 1484 10 10 1017 13 1484 11 14 1206 13 10 13 9 19 725 494 15 11 13 16 13 11 27 21 21 8 6 17 16 9 10 265 10 15 9 1491 13 191 16 6 12 14 11 13 11 13 11 354 7 8 10 20 17 17 12 14 12 727 13 11 14 10 8 963 20 8 8 5 13 621 11 13 10 10 382 17 12 1810 20 10 12 53 9 8 492 10 5 15 572 1013 11 4772 19 2047 15 5 492 12 19 5 6 8 10 27 730 9 11 42 15 18 260 20 1084 48 9 8 11 80 7 1918 13 681 10 11 18 13 9 18 1004 20 6 19 5 14 14 9 16 18 1489 14 6 21 25 182 1066 11 16 17 48 8 12 2490 12 7 8 16 16 12 13 9 12 71 14 12 18 9 9 11 13 14 214 293 654 15 3439 23 490 19 5 6 18 859 9 11 11 18 15 11 8 24 14 17 16 20 651 8 12 8 9 368 9 221 12 13 10 14 8 6 11 12 16 16 8 16 123 3 10 17 22 246 8 20 10 11 13 17 962 2822 8 77 25 8 28 10 15 16 11 11 10 9 16 24 19 19 18 10 20 420 77 165 8 5 26 11 5 14 18 7 8 17 14 12 10 11 10 4 804 12 17 16 15 24 12 20 1011 143 9 8 11 609 17 18 10 7 18 31 10 22 7 16 12 122 8 6 547 20 11 21 119 6 11 11 13 10 12 18 1482 242 15 25 13 25 14 6115 10 11 14 272 18 9 11 10 11 16 51 8 8 23 14 139 7 392 7 908 6 27 17 9 10 16 11 9 17 1480 14 8 11 13 8 8 122 10 14 13 13 21 11 34 15 12 19 11 15 710 11 13 1011 21 13 11 14 1491 273 10 644 12 16 9 4311 20 12 797 536 10 6 263 6 8 11 8 16 8 4 10 11 17 13 11 6 12 19 12 16 10 14 155 10 9 11 14 17 17 9 12 18 11 15 11 8 18 13 10 19 14 11 11 18 29 16 12 8 15 20 14 11 10 16 9 7 15 10 11 963 1120 13 9 8 9 14 11 7 31 6 11 15 10 20 7 15757 13 22 16 10 8 12 11 25 33 8 13 4 27 14 64 12 13 144 19 316 13 17 11 18 17 164 8 6 8 850 17 8 13 11 20 10 24 7 6 7 13 15 12 17 30 11 959 16 12 7 19 15 13 9 17 14 499 11 20 3015 17 14 749 13 14 21 13 18 14 11 407 14 470 10 9 19 23 22 16 13 15 12 881 23 31 962 12 9 18 17 15 28 17 17 16 20 17 11 9 156 15 8 649 10 17 16 22 2490 16 12 11 15 14 9 18 16 2355 13 13 495 12 24 10 7 15 12 12 19 8 13 361 22 15 11 10 127 4 14 20 12 1278 13 9 9 8 323 9 1 24 412 15 16 17 15 10 11 821 13 14 7 23 13 23 14 6 960 137 10 11 19 12 13 99 14 16 15 742 10 11 963 9 27 14 10 15 17 12 637 489 13 14 14 582 23 6 10 16 17867 13 7 463 1485 12 24 7 967 29 24 10 14 19 6 20 10 17 8 23 183 19 15 12 17 16 9 16 13 14 815 10 54 123 9 18 7 20 58 11 7 21 9 16 13 7 355 11 6 12 305 12 12 13 9 409 268 441 13 1488 16 7 26 12 10 25 279 12 22 5 7 24 969 16 21 17 21 8 11 11 12 13 200 13 14 7 1490 11 1442 1965 1146 10 17 18 5 6 13 6 7 69 27 18 11 1171 11 9 31 27 8 7 18 11 13 172 17 6 958 20 423 10 11 238 12 12 10 13 14 1001 20 14 1156 12 19 18 22 9 108 18 22 226 20 9 15 10 8 54 11 2787 12 63 10 722 12 1486 9 69 11 25 12 16 35 15 7 11 11 11 19 49 18 17 10 15 15 12 834 11 12 13 8 12 9 33 15 14 18 12 6 14 21 32 1484 9 13 11 24 15 962 11 971 6 18 6 24 11 18 9 12 11 18 13 14 5 15 20 10 14 16 13 149 11 185 13 18 17 9 21 8 180 13 1824 12 16 12 11 427 8 18 12 22 428 13 26 8 17 23 307 18 14 14 23 19 499 1755 12 11 15 11 965 958 9 14 14 8 15 19 11 15 19 21 9 83 1751 9 18 14 15 6 19 19 13 13 13 45 14 13 11 675 1024 1648 12 9 13 11 9 27 16 9 9 960 17 14 17 24 11 13 15 83 912 13 7 491 12 13 10 84 2460 11 12 16 1011 10 235 1206 18 14 26 18 7 6 185 9 10 22 1485 32 8 19 1495 12 11 15 13 9 16 10 18 484 318 17 8 12 6 3 15 3 9 202 593 11 10 
To predecode: 0
Predecoding something: 0
Predecode request dropped: 0
sizeofblock_0 0
sizeofblock_1 45736
sizeofblock_2 24038
sizeofblock_3 42910
sizeofblock_4 26814
sizeofblock_5 0
sizeofblock_6 0
sizeofblock_7 0
sizeofblock_8 0
Variant_0 Correct: 1619153 Incorrect: 0 Accuracy: 1
Variant_1 Correct: 2097719 Incorrect: 0 Accuracy: 1
Variant_2 Correct: 3661195 Incorrect: 0 Accuracy: 1
Variant_3 Correct: 0 Incorrect: 0 Accuracy: -nan
