
*** ChampSim Multicore Out-of-Order Simulator ***

Warmup Instructions: 50000000
Simulation Instructions: 50000000
Number of CPUs: 1
LLC sets: 2048
LLC ways: 16
Off-chip DRAM Size: 4096 MB Channels: 1 Width: 64-bit Data Rate: 6400 MT/s
CPU 0 runs ./micro_traces/srv116.trace.gz
.gz
ITLB has LRU replacement policy
DTLB has LRU replacement policy
STLB has LRU replacement policy
FDIP Prefetcher at L1I
L1I has LRU replacement policy
L1D has LRU replacement policy
Initialize SRRIP state for L2C
Initialize DRRIP state for LLC
Heartbeat CPU 0 instructions: 10000003 cycles: 2791728 heartbeat IPC: 3.58201 cumulative IPC: 3.58201 (Simulation time: 0 hr 1 min 35 sec) 
Heartbeat CPU 0 instructions: 20000000 cycles: 5581722 heartbeat IPC: 3.58424 cumulative IPC: 3.58312 (Simulation time: 0 hr 3 min 10 sec) 
Heartbeat CPU 0 instructions: 30000001 cycles: 8371037 heartbeat IPC: 3.58511 cumulative IPC: 3.58379 (Simulation time: 0 hr 4 min 45 sec) 
Heartbeat CPU 0 instructions: 40000002 cycles: 11161899 heartbeat IPC: 3.58312 cumulative IPC: 3.58362 (Simulation time: 0 hr 6 min 19 sec) 
Heartbeat CPU 0 instructions: 50000001 cycles: 13952456 heartbeat IPC: 3.58351 cumulative IPC: 3.5836 (Simulation time: 0 hr 7 min 54 sec) 

Warmup complete CPU 0 instructions: 50000001 cycles: 13952456 (Simulation time: 0 hr 7 min 54 sec) 

Cycle: 20000000 FTQ IN: 58142873 FTQ occupancy: 19.4621 DECODE IN: 58142836 DECODE occupancy: 50.4985 ROB IN: 58142836 ROB occupancy: 305.964 ROB OUT: 58142836
Heartbeat CPU 0 instructions: 60000000 cycles: 21392440 heartbeat IPC: 1.34409 cumulative IPC: 1.34409 (Simulation time: 0 hr 9 min 31 sec) 
Heartbeat CPU 0 instructions: 70000003 cycles: 28839680 heartbeat IPC: 1.34278 cumulative IPC: 1.34343 (Simulation time: 0 hr 11 min 7 sec) 
Cycle: 30000000 FTQ IN: 13413207 FTQ occupancy: 10.8537 DECODE IN: 13413244 DECODE occupancy: 27.0702 ROB IN: 13413244 ROB occupancy: 200.106 ROB OUT: 13413134
Heartbeat CPU 0 instructions: 80000002 cycles: 36333178 heartbeat IPC: 1.33449 cumulative IPC: 1.34044 (Simulation time: 0 hr 12 min 42 sec) 
Cycle: 40000000 FTQ IN: 13389890 FTQ occupancy: 11.1167 DECODE IN: 13389866 DECODE occupancy: 27.7053 ROB IN: 13389866 ROB occupancy: 203.724 ROB OUT: 13389726
Heartbeat CPU 0 instructions: 90000000 cycles: 43811196 heartbeat IPC: 1.33725 cumulative IPC: 1.33964 (Simulation time: 0 hr 14 min 19 sec) 
Cycle: 50000000 FTQ IN: 13400272 FTQ occupancy: 11.1324 DECODE IN: 13400296 DECODE occupancy: 27.6798 ROB IN: 13400296 ROB occupancy: 202.817 ROB OUT: 13400436
Heartbeat CPU 0 instructions: 100000002 cycles: 51210184 heartbeat IPC: 1.35154 cumulative IPC: 1.342 (Simulation time: 0 hr 15 min 30 sec) 
Finished CPU 0 instructions: 50000001 cycles: 37257728 cumulative IPC: 1.342 (Simulation time: 0 hr 15 min 30 sec) 

ChampSim completed all CPUs

Region of Interest Statistics

CPU 0 cumulative IPC: 1.342 instructions: 50000001 cycles: 37257728
 Fetch stage stalled: 58.0215  Sim cycles: 37257728 fetch stall cycle: 21617474
 Empty decode stage: 41.488  Sim cycles: 37257728 fetch stall cycle: 15457494
ITLB TOTAL     ACCESS:    5795834  HIT:    5347054  MISS:     448780  HIT %:    92.2569  MISS %:    7.74315   MPKI: 8.9756
ITLB LOAD TRANSLATION INSTRUCTION	ACCESS:    5660906  HIT:    5212126  MISS:     448780  HIT %:    92.0723  MISS %:    7.92771  MPKI: 8.9756
ITLB TRANSLATION FROM L1D PREFETCHER INSTRUCTION	ACCESS:     134928  HIT:     134928  MISS:          0  HIT %:        100  MISS %:          0  MPKI: 0

ITLB AVERAGE MISS LATENCY: 9.1004 cycles
ITLB RQ	ACCESS:    7768616	FORWARD:          0	MERGED:    1560215	TO_CACHE:    6208401

DTLB TOTAL     ACCESS:    8886851  HIT:    8413952  MISS:     472899  HIT %:    94.6787  MISS %:    5.32133   MPKI: 9.45798
DTLB LOAD TRANSLATION DATA	ACCESS:    8886851  HIT:    8413952  MISS:     472899  HIT %:    94.6787  MISS %:    5.32133  MPKI: 9.45798

DTLB AVERAGE MISS LATENCY: 9.43781 cycles
DTLB RQ	ACCESS:   13183997	FORWARD:          0	MERGED:    4259683	TO_CACHE:    8924314

STLB TOTAL     ACCESS:    1218850  HIT:    1215357  MISS:       3493  HIT %:    99.7134  MISS %:   0.286582   MPKI: 0.06986
STLB LOAD TRANSLATION INSTRUCTION	ACCESS:     448780  HIT:     448163  MISS:        617  HIT %:    99.8625  MISS %:   0.137484  MPKI: 0.01234
STLB LOAD TRANSLATION DATA	ACCESS:     472817  HIT:     469983  MISS:       2834  HIT %:    99.4006  MISS %:   0.599386  MPKI: 0.05668
STLB TRANSLATION FROM L1D PREFETCHER DATA	ACCESS:     297253  HIT:     297211  MISS:         42  HIT %:    99.9859  MISS %:  0.0141294  MPKI: 0.00084

STLB AVERAGE MISS LATENCY: 64.1663 cycles
STLB RQ	ACCESS:    1395945	FORWARD:          0	MERGED:     177006	TO_CACHE:    1218939

STLB Hit, L1D data hit: 0
STLB Hit, L2C data hit: 0
STLB Hit, LLC data hit: 0
STLB Hit, LLC data miss: 0
STLB STLB hints to L2: 0
L1D TOTAL     ACCESS:   13022706  HIT:   11914115  MISS:    1108591  HIT %:    91.4872  MISS %:    8.51275   MPKI: 22.1718
L1D LOAD DATA	ACCESS:    6552294  HIT:    5834394  MISS:     717900  HIT %:    89.0435  MISS %:    10.9565  MPKI: 14.358
L1D RFO DATA	ACCESS:    6076556  HIT:    5799067  MISS:     277489  HIT %:    95.4334  MISS %:    4.56655  MPKI: 5.54978
L1D PREFETCH DATA	ACCESS:     393856  HIT:     280654  MISS:     113202  HIT %:     71.258  MISS %:     28.742  MPKI: 2.26404

L1D PREFETCH  REQUESTED:     948865  ISSUED:     948865  USEFUL:      58693  USELESS:      72956
L1D USEFUL LOAD PREFETCHES:      58693 PREFETCH ISSUED TO LOWER LEVEL:     131706  ACCURACY: 44.5636
 TIMELY PREFETCHES:      58693 LATE PREFETCHES: 18460 DROPPED PREFETCHES: 31
L1D AVERAGE MISS LATENCY: 545203 cycles
L1D RQ	ACCESS:   10644410	FORWARD:          0	MERGED:    3903099	TO_CACHE:    6591508
L1D WQ	ACCESS:    6771162	FORWARD:     150136	MERGED:     178673	TO_CACHE:    6592489
L1D PQ	ACCESS:     474599	FORWARD:          0	MERGED:          0	TO_CACHE:     474266

L1D UNIQUE REGIONS ACCESSED: 0
L1D REGIONS CONFLICTS: 0
L1D Cross Page Prefetch Requests: 10536
L1D Same Page Prefetch Requests: 957254
L1D ROI Sum of L1D PQ occupancy: 6022606
L1D PREFETCHES PUSHED FROM L2C: 0
L1I TOTAL     ACCESS:    7037620  HIT:    4513260  MISS:    2524360  HIT %:    64.1305  MISS %:    35.8695   MPKI: 50.4872
L1I LOAD INSTRUCTION	ACCESS:    6373777  HIT:    3849417  MISS:    2524360  HIT %:    60.3946  MISS %:    39.6054  MPKI: 50.4872
L1I PREFETCH INSTRUCTION	ACCESS:     663843  HIT:     663843  MISS:          0  HIT %:        100  MISS %:          0  MPKI: 0

L1I PREFETCH  REQUESTED:    1527212  ISSUED:    1527212  USEFUL:          0  USELESS:          0
L1I USEFUL LOAD PREFETCHES:          0 PREFETCH ISSUED TO LOWER LEVEL:          0  ACCURACY: -nan
 TIMELY PREFETCHES:          0 LATE PREFETCHES: 0 DROPPED PREFETCHES: 0
L1I AVERAGE MISS LATENCY: 17.5348 cycles
L1I RQ	ACCESS:    9481506	FORWARD:          0	MERGED:    2808601	TO_CACHE:    6672905
L1I PQ	ACCESS:    1527212	FORWARD:          0	MERGED:     431501	TO_CACHE:    1095711

L1BTB TOTAL     ACCESS:    5845858  HIT:    2440839  MISS:    3405019  HIT %:    41.7533  MISS %:    58.2467   MPKI: 68.1004
L1BTB BRANCH_DIRECT_JUMP	ACCESS:     588495  HIT:     196285  MISS:     392210	AVERAGE STALL: 38.7862
L1BTB BRANCH_INDIRECT	ACCESS:     171563  HIT:      56223  MISS:     115340	AVERAGE STALL: 129.975
L1BTB BRANCH_CONDITIONAL	ACCESS:    2986105  HIT:    1771797  MISS:    1214308	AVERAGE STALL: 56.5368
L1BTB BRANCH_DIRECT_CALL	ACCESS:     889138  HIT:     108015  MISS:     781123	AVERAGE STALL: 51.2498
L1BTB BRANCH_INDIRECT_CALL	ACCESS:     160713  HIT:      20738  MISS:     139975	AVERAGE STALL: 132.317
L1BTB BRANCH_RETURN	ACCESS:    1049844  HIT:     287781  MISS:     762063	AVERAGE STALL: 48.4347
L1BTB BRANCH_OTHER ACCESS:          0  HIT:          0  MISS:          0	AVERAGE STALL: -nan
L1BTB TOTAL ROB OCCUPANCY AT BTB MISS: 4.57185

L2BTB1 TOTAL     ACCESS:    3379822  HIT:    3279806  MISS:     100016  HIT %:    97.0408  MISS %:    2.95921   MPKI: 2.00032
L2BTB1 BRANCH_DIRECT_JUMP	ACCESS:     387246  HIT:     380626  MISS:       6620	AVERAGE STALL: 38.7862
L2BTB1 BRANCH_INDIRECT	ACCESS:     105511  HIT:      95357  MISS:      10154	AVERAGE STALL: 129.975
L2BTB1 BRANCH_CONDITIONAL	ACCESS:    1214308  HIT:    1204143  MISS:      10165	AVERAGE STALL: 56.5368
L2BTB1 BRANCH_DIRECT_CALL	ACCESS:     781123  HIT:     761209  MISS:      19914	AVERAGE STALL: 51.2498
L2BTB1 BRANCH_INDIRECT_CALL	ACCESS:     130617  HIT:     118708  MISS:      11909	AVERAGE STALL: 132.317
L2BTB1 BRANCH_RETURN	ACCESS:     761017  HIT:     719763  MISS:      41254	AVERAGE STALL: 48.4347
L2BTB1 BRANCH_OTHER ACCESS:          0  HIT:          0  MISS:          0	AVERAGE STALL: -nan
L2BTB1 TOTAL ROB OCCUPANCY AT BTB MISS: 155.647

L2C TOTAL     ACCESS:    4209199  HIT:    3691781  MISS:     517418  HIT %:    87.7074  MISS %:    12.2926   MPKI: 10.3484
L2C LOAD INSTRUCTION	ACCESS:    2524360  HIT:    2260909  MISS:     263451  HIT %:    89.5637  MISS %:    10.4363  MPKI: 5.26902
L2C LOAD TRANSLATION INSTRUCTION	ACCESS:        688  HIT:        287  MISS:        401  HIT %:    41.7151  MISS %:    58.2849  MPKI: 0.00802
L2C LOAD DATA	ACCESS:     699357  HIT:     613071  MISS:      86286  HIT %:    87.6621  MISS %:    12.3379  MPKI: 1.72572
L2C RFO DATA	ACCESS:     277412  HIT:     218475  MISS:      58937  HIT %:    78.7547  MISS %:    21.2453  MPKI: 1.17874
L2C PREFETCH DATA	ACCESS:     217074  HIT:     126232  MISS:      90842  HIT %:    58.1516  MISS %:    41.8484  MPKI: 1.81684
L2C WRITEBACK DATA	ACCESS:     487172  HIT:     471971  MISS:      15201  HIT %:    96.8797  MISS %:    3.12025  MPKI: 0.30402
L2C LOAD TRANSLATION DATA	ACCESS:       3042  HIT:        799  MISS:       2243  HIT %:    26.2656  MISS %:    73.7344  MPKI: 0.04486
L2C TRANSLATION FROM L1D PREFETCHER DATA	ACCESS:         94  HIT:         37  MISS:         57  HIT %:    39.3617  MISS %:    60.6383  MPKI: 0.00114

L2C PREFETCH  REQUESTED:      94154  ISSUED:      94154  USEFUL:      10724  USELESS:      80733
L2C USEFUL LOAD PREFETCHES:      10724 PREFETCH ISSUED TO LOWER LEVEL:      91355  ACCURACY: 11.7388
 TIMELY PREFETCHES:      10724 LATE PREFETCHES: 513 DROPPED PREFETCHES: 0
L2C AVERAGE MISS LATENCY: 40.9196 cycles
L2C RQ	ACCESS:    3505069	FORWARD:          0	MERGED:          0	TO_CACHE:    3504954
L2C WQ	ACCESS:     487172	FORWARD:        116	MERGED:          0	TO_CACHE:     487172
L2C PQ	ACCESS:     225860	FORWARD:          0	MERGED:       3718	TO_CACHE:     222141

L2C Dense regions hint from L2: 0
PSCL5 TOTAL     ACCESS:       7054  HIT:       3527  MISS:       3527  HIT %:         50  MISS %:         50   MPKI: 0.07054
PSCL5 LOAD TRANSLATION INSTRUCTION	ACCESS:       6874  HIT:       3437  MISS:       3437  HIT %:         50  MISS %:         50  MPKI: 0.06874
PSCL5 TRANSLATION FROM L1D PREFETCHER INSTRUCTION	ACCESS:        180  HIT:         90  MISS:         90  HIT %:         50  MISS %:         50  MPKI: 0.0018


PSCL4 TOTAL     ACCESS:       6757  HIT:       3372  MISS:       3385  HIT %:    49.9038  MISS %:    50.0962   MPKI: 0.0677
PSCL4 LOAD TRANSLATION INSTRUCTION	ACCESS:       3566  HIT:       3283  MISS:        283  HIT %:    92.0639  MISS %:    7.93606  MPKI: 0.00566
PSCL4 TRANSLATION FROM L1D PREFETCHER INSTRUCTION	ACCESS:         89  HIT:         89  MISS:          0  HIT %:        100  MISS %:          0  MPKI: 0
PSCL4 LOAD TRANSLATION DATA	ACCESS:       3013  HIT:          0  MISS:       3013  HIT %:          0  MISS %:        100  MPKI: 0.06026
PSCL4 TRANSLATION FROM L1D PREFETCHER DATA	ACCESS:         89  HIT:          0  MISS:         89  HIT %:          0  MISS %:        100  MPKI: 0.00178


PSCL3 TOTAL     ACCESS:       6975  HIT:       3481  MISS:       3494  HIT %:    49.9068  MISS %:    50.0932   MPKI: 0.06988
PSCL3 LOAD TRANSLATION INSTRUCTION	ACCESS:       3674  HIT:       3391  MISS:        283  HIT %:    92.2972  MISS %:    7.70278  MPKI: 0.00566
PSCL3 TRANSLATION FROM L1D PREFETCHER INSTRUCTION	ACCESS:         90  HIT:         90  MISS:          0  HIT %:        100  MISS %:          0  MPKI: 0
PSCL3 LOAD TRANSLATION DATA	ACCESS:       3121  HIT:          0  MISS:       3121  HIT %:          0  MISS %:        100  MPKI: 0.06242
PSCL3 TRANSLATION FROM L1D PREFETCHER DATA	ACCESS:         90  HIT:          0  MISS:         90  HIT %:          0  MISS %:        100  MPKI: 0.0018


PSCL2 TOTAL     ACCESS:       6778  HIT:       3254  MISS:       3524  HIT %:    48.0083  MISS %:    51.9917   MPKI: 0.07048
PSCL2 LOAD TRANSLATION INSTRUCTION	ACCESS:       3782  HIT:       3168  MISS:        614  HIT %:    83.7652  MISS %:    16.2348  MPKI: 0.01228
PSCL2 TRANSLATION FROM L1D PREFETCHER INSTRUCTION	ACCESS:         86  HIT:         86  MISS:          0  HIT %:        100  MISS %:          0  MPKI: 0
PSCL2 LOAD TRANSLATION DATA	ACCESS:       2824  HIT:          0  MISS:       2824  HIT %:          0  MISS %:        100  MPKI: 0.05648
PSCL2 TRANSLATION FROM L1D PREFETCHER DATA	ACCESS:         86  HIT:          0  MISS:         86  HIT %:          0  MISS %:        100  MPKI: 0.00172


LLC TOTAL     ACCESS:     586643  HIT:     548653  MISS:      37990  HIT %:    93.5242  MISS %:    6.47583   MPKI: 0.7598
LLC LOAD INSTRUCTION	ACCESS:     263451  HIT:     262372  MISS:       1079  HIT %:    99.5904  MISS %:   0.409564  MPKI: 0.02158
LLC LOAD TRANSLATION INSTRUCTION	ACCESS:        401  HIT:        354  MISS:         47  HIT %:    88.2793  MISS %:    11.7207  MPKI: 0.00094
LLC LOAD DATA	ACCESS:      85800  HIT:      81155  MISS:       4645  HIT %:    94.5862  MISS %:    5.41375  MPKI: 0.0929
LLC RFO DATA	ACCESS:      58896  HIT:      40334  MISS:      18562  HIT %:    68.4834  MISS %:    31.5166  MPKI: 0.37124
LLC PREFETCH DATA	ACCESS:      91355  HIT:      78169  MISS:      13186  HIT %:    85.5662  MISS %:    14.4338  MPKI: 0.26372
LLC WRITEBACK DATA	ACCESS:      84440  HIT:      84076  MISS:        364  HIT %:    99.5689  MISS %:   0.431075  MPKI: 0.00728
LLC LOAD TRANSLATION DATA	ACCESS:       2243  HIT:       2139  MISS:        104  HIT %:    95.3634  MISS %:    4.63665  MPKI: 0.00208
LLC TRANSLATION FROM L1D PREFETCHER DATA	ACCESS:         57  HIT:         54  MISS:          3  HIT %:    94.7368  MISS %:    5.26316  MPKI: 6e-05

LLC AVERAGE MISS LATENCY: 159.883 cycles
LLC RQ	ACCESS:     410862	FORWARD:          0	MERGED:          0	TO_CACHE:     410848
LLC WQ	ACCESS:      84440	FORWARD:         14	MERGED:          0	TO_CACHE:      84440
LLC PQ	ACCESS:      91355	FORWARD:          0	MERGED:          0	TO_CACHE:      91355

LLC Dense regions hint to LLC: 0

RAW hits: 1805373
Loads Generated: 12449780
Loads sent to L1D: 10644410
Stores Generated: 6771131
Stores sent to L1D: 6771162
Major fault: 0 Minor fault: 2498
Allocated PAGES: 2498

stream: 
stream:times selected: 1491296
stream:pref_filled: 129448
stream:pref_useful: 30393
stream:pref_late: 10337
stream:misses: 13464
stream:misses_by_poll: 0

CS: 
CS:times selected: 238343
CS:pref_filled: 85978
CS:pref_useful: 61287
CS:pref_late: 10495
CS:misses: 28254
CS:misses_by_poll: 6

CPLX: 
CPLX:times selected: 1250890
CPLX:pref_filled: 29136
CPLX:pref_useful: 9364
CPLX:pref_late: 5118
CPLX:misses: 148477
CPLX:misses_by_poll: 2

NL_L1: 
NL:times selected: 29185
NL:pref_filled: 1979
NL:pref_useful: 888
NL:pref_late: 837
NL:misses: 3868
NL:misses_by_poll: 0

total selections: 3009714
total_filled: 113202
total_useful: 58693
total_late: 29950
total_polluted: 8
total_misses_after_warmup: 757114
conflicts: 5242631

test: 178560

DRAM Statistics
 CHANNEL 0
 RQ ROW_BUFFER_HIT:      13237  ROW_BUFFER_MISS:      24369
 DBUS_CONGESTED:         13
 WQ ROW_BUFFER_HIT:       2143  ROW_BUFFER_MISS:      17984  FULL:          0

 AVG_CONGESTED_CYCLE: 4

CPU 0 Branch Prediction Accuracy: 99.7658% MPKI: 0.42928 Average ROB Occupancy at Mispredict: 175.168
Branch types
NOT_BRANCH: 40833618 81.6672%
BRANCH_DIRECT_JUMP: 588495 1.17699%
BRANCH_INDIRECT: 171563 0.343126%
BRANCH_CONDITIONAL: 6306530 12.6131%
BRANCH_DIRECT_CALL: 889138 1.77828%
BRANCH_INDIRECT_CALL: 160713 0.321426%
BRANCH_RETURN: 1049844 2.09969%
BRANCH_OTHER: 0 0%

DRAM PAGES: 1048576
Allocated PAGES: 2498
Average_ROB_Occupancy: 204.424
Average_Decode_Occupancy: 27.6668
Average_FTQ_Occupancy: 11.0839
Indirect max targets: 14 Average targets: 1.14286
Branch_type:  BRANCH_DIRECT_JUMP:  Count Percentage: 12.3264 5.28008 4.70041 8.46858 3.59316 2.23903 1.14034 62.252 
Branch_type:  BRANCH_INDIRECT:  Count Percentage: 5.50811 1.17224 3.71244 0 2.94091 10.662 21.5089 54.4954 
Branch_type:  BRANCH_CONDITIONAL:  Count Percentage: 26.1906 2.75435 2.36096 8.47345 1.58755 3.0139 2.02364 53.5956 
Branch_type:  BRANCH_DIRECT_CALL:  Count Percentage: 0.711739 1.27878 1.85023 5.76355 2.23998 2.054 0.862084 85.2396 
Branch_type:  BRANCH_INDIRECT_CALL:  Count Percentage: 8.68819 0.84041 2.96409 5.07371 0 2.30152 1.47767 78.6544 
Branch_type:  BRANCH_RETURN:  Count Percentage: 3.72312 0.742109 1.63355 10.1069 2.1491 6.13464 3.60133 71.9093 
Branch_type:  BRANCH_DIRECT_JUMP:  Total Count: 145300 62240 55407 99825 42355 26393 13442 733807 
Branch_type:  BRANCH_INDIRECT:  Total Count: 18969 4037 12785 0 10128 36718 74073 187673 
Branch_type:  BRANCH_CONDITIONAL:  Total Count: 3302954 347357 297746 1068606 200210 380090 255206 6759062 
Branch_type:  BRANCH_DIRECT_CALL:  Total Count: 12602 22642 32760 102049 39661 36368 15264 1509248 
Branch_type:  BRANCH_INDIRECT_CALL:  Total Count: 27799 2689 9484 16234 0 7364 4728 251665 
Branch_type:  BRANCH_RETURN:  Total Count: 77863 15520 34163 211369 44945 128296 75316 1503866 
Number of unique branch instructions: 9748
Upper 32 bits: 
aaaa
ffff
ffff0000
Unique upper 32 bits: 3
Unique upper 36 bits: 3
Unique upper 40 bits: 5
Unique upper 44 bits: 32
Unique upper 48 bits: 153
Offset_3 4023
Offset_4 239
Offset_5 454
Offset_6 500
Offset_7 579
Offset_8 499
Offset_9 456
Offset_10 359
Offset_11 311
Offset_12 269
Offset_13 207
Offset_14 222
Offset_15 188
Offset_16 218
Offset_17 144
Offset_18 118
Offset_19 229
Offset_20 137
Offset_21 239
Offset_22 391
Offset_23 241
Offset_24 331
Offset_25 88
Offset_47 82
Offset_64 1
decode_dispatch_called: 23190577 62.2437
Dispatch_width: 0 12180980 52.5256 32.6938
Dispatch_width: 1 754951 3.25542 2.02629
Dispatch_width: 2 738074 3.18265 1.981
Dispatch_width: 3 436732 1.88323 1.17219
Dispatch_width: 4 3912425 16.8708 10.501
Dispatch_width: 5 195484 0.842946 0.52468
Dispatch_width: 6 4971931 21.4394 13.3447
Empty_decode_cycles: 14067151 37.7563
ROB_full_cycles: 6112055 16.4048
Starvation_cycles_per_kilo_instr: 261.737
Starvation_cycles_per_kilo_instr_3: 220.658
Starvation_cycles_per_kilo_instr_0: 201.361
Branch_type_1  (3,1)  (4,8)  (5,35)  (6,68)  (7,116)  (8,130)  (9,120)  (10,87)  (11,72)  (12,44)  (13,6)  (14,2)  (15,3)  (16,4)  (18,1)  (19,4)  (20,2)  (21,1)  (22,3)  (23,2)  (24,10)  (25,12) 
Branch_type_2  (3,1)  (5,1)  (8,2)  (9,3)  (12,1)  (13,1)  (14,1)  (16,3)  (17,2)  (20,2)  (21,2)  (23,5)  (24,1)  (47,38) 
Branch_type_3  (3,4021)  (4,231)  (5,414)  (6,417)  (7,434)  (8,309)  (9,252)  (10,148)  (11,126)  (12,54)  (13,5)  (64,1) 
Branch_type_4  (6,3)  (7,8)  (8,24)  (9,50)  (10,58)  (11,57)  (12,93)  (13,89)  (14,100)  (15,89)  (16,97)  (17,64)  (18,53)  (19,112)  (20,71)  (21,127)  (22,207)  (23,136)  (24,192)  (25,72) 
Branch_type_5  (8,2)  (9,1)  (10,3)  (11,5)  (12,3)  (13,14)  (14,16)  (15,11)  (16,20)  (17,11)  (18,16)  (19,12)  (20,10)  (21,13)  (22,42)  (23,26)  (24,36) 
Branch_type_6  (5,4)  (6,12)  (7,21)  (8,32)  (9,30)  (10,63)  (11,51)  (12,74)  (13,92)  (14,103)  (15,85)  (16,94)  (17,67)  (18,48)  (19,101)  (20,52)  (21,96)  (22,139)  (23,72)  (24,92)  (25,4)  (47,44) 
Unique trigger count: 
L2BTB1 1536 4
L2BTB2 1536 4
L2BTB3 1536 4
L2BTB4 224 4
