
*** ChampSim Multicore Out-of-Order Simulator ***

Warmup Instructions: 50000000
Simulation Instructions: 50000000
Number of CPUs: 1
LLC sets: 2048
LLC ways: 16
Off-chip DRAM Size: 4096 MB Channels: 1 Width: 64-bit Data Rate: 6400 MT/s
CPU 0 runs ./micro_traces/srv192.trace.gz
.gz
ITLB has LRU replacement policy
DTLB has LRU replacement policy
STLB has LRU replacement policy
FDIP Prefetcher at L1I
L1I has LRU replacement policy
L1D has LRU replacement policy
Initialize SRRIP state for L2C
Initialize DRRIP state for LLC
Heartbeat CPU 0 instructions: 10000000 cycles: 2797784 heartbeat IPC: 3.57426 cumulative IPC: 3.57426 (Simulation time: 0 hr 1 min 36 sec) 
Heartbeat CPU 0 instructions: 20000001 cycles: 5594099 heartbeat IPC: 3.57614 cumulative IPC: 3.5752 (Simulation time: 0 hr 3 min 11 sec) 
Heartbeat CPU 0 instructions: 30000002 cycles: 8390169 heartbeat IPC: 3.57645 cumulative IPC: 3.57561 (Simulation time: 0 hr 4 min 48 sec) 
Heartbeat CPU 0 instructions: 40000001 cycles: 11186586 heartbeat IPC: 3.576 cumulative IPC: 3.57571 (Simulation time: 0 hr 6 min 23 sec) 
Heartbeat CPU 0 instructions: 50000002 cycles: 13982031 heartbeat IPC: 3.57725 cumulative IPC: 3.57602 (Simulation time: 0 hr 7 min 58 sec) 

Warmup complete CPU 0 instructions: 50000002 cycles: 13982031 (Simulation time: 0 hr 7 min 58 sec) 

Cycle: 20000000 FTQ IN: 57914412 FTQ occupancy: 19.2456 DECODE IN: 57914406 DECODE occupancy: 49.7032 ROB IN: 57914406 ROB occupancy: 301.327 ROB OUT: 57914400
Heartbeat CPU 0 instructions: 60000000 cycles: 21718091 heartbeat IPC: 1.29265 cumulative IPC: 1.29265 (Simulation time: 0 hr 9 min 34 sec) 
Heartbeat CPU 0 instructions: 70000002 cycles: 29241325 heartbeat IPC: 1.32922 cumulative IPC: 1.31068 (Simulation time: 0 hr 11 min 6 sec) 
Cycle: 30000000 FTQ IN: 13096835 FTQ occupancy: 10.3386 DECODE IN: 13096738 DECODE occupancy: 25.5422 ROB IN: 13096678 ROB occupancy: 190.832 ROB OUT: 13096336
Heartbeat CPU 0 instructions: 80000001 cycles: 36747182 heartbeat IPC: 1.33229 cumulative IPC: 1.3178 (Simulation time: 0 hr 12 min 42 sec) 
Cycle: 40000000 FTQ IN: 13200617 FTQ occupancy: 10.547 DECODE IN: 13200700 DECODE occupancy: 25.8548 ROB IN: 13200760 ROB occupancy: 191.346 ROB OUT: 13200987
Heartbeat CPU 0 instructions: 90000002 cycles: 44352068 heartbeat IPC: 1.31494 cumulative IPC: 1.31709 (Simulation time: 0 hr 14 min 18 sec) 
Cycle: 50000000 FTQ IN: 13321116 FTQ occupancy: 10.4161 DECODE IN: 13321108 DECODE occupancy: 25.7473 ROB IN: 13321108 ROB occupancy: 192.418 ROB OUT: 13321229
Heartbeat CPU 0 instructions: 100000001 cycles: 51857325 heartbeat IPC: 1.3324 cumulative IPC: 1.32012 (Simulation time: 0 hr 15 min 50 sec) 
Finished CPU 0 instructions: 50000003 cycles: 37875295 cumulative IPC: 1.32012 (Simulation time: 0 hr 15 min 50 sec) 

ChampSim completed all CPUs

Region of Interest Statistics

CPU 0 cumulative IPC: 1.32012 instructions: 50000003 cycles: 37875295
 Fetch stage stalled: 61.2249  Sim cycles: 37875295 fetch stall cycle: 23189113
 Empty decode stage: 44.5338  Sim cycles: 37875295 fetch stall cycle: 16867314
ITLB TOTAL     ACCESS:    5815920  HIT:    5320880  MISS:     495040  HIT %:    91.4882  MISS %:    8.51181   MPKI: 9.9008
ITLB LOAD TRANSLATION INSTRUCTION	ACCESS:    5689263  HIT:    5194223  MISS:     495040  HIT %:    91.2987  MISS %:     8.7013  MPKI: 9.9008
ITLB TRANSLATION FROM L1D PREFETCHER INSTRUCTION	ACCESS:     126657  HIT:     126657  MISS:          0  HIT %:        100  MISS %:          0  MPKI: 0

ITLB AVERAGE MISS LATENCY: 9.06445 cycles
ITLB RQ	ACCESS:    7903924	FORWARD:          0	MERGED:    1635146	TO_CACHE:    6268778

DTLB TOTAL     ACCESS:    9048194  HIT:    8578754  MISS:     469440  HIT %:    94.8118  MISS %:    5.18822   MPKI: 9.3888
DTLB LOAD TRANSLATION DATA	ACCESS:    9048194  HIT:    8578754  MISS:     469440  HIT %:    94.8118  MISS %:    5.18822  MPKI: 9.3888

DTLB AVERAGE MISS LATENCY: 9.35694 cycles
DTLB RQ	ACCESS:   13406249	FORWARD:          0	MERGED:    4322005	TO_CACHE:    9084244

STLB TOTAL     ACCESS:    1212394  HIT:    1210321  MISS:       2073  HIT %:     99.829  MISS %:   0.170984   MPKI: 0.04146
STLB LOAD TRANSLATION INSTRUCTION	ACCESS:     495040  HIT:     494782  MISS:        258  HIT %:    99.9479  MISS %:   0.052117  MPKI: 0.00516
STLB LOAD TRANSLATION DATA	ACCESS:     469145  HIT:     467364  MISS:       1781  HIT %:    99.6204  MISS %:   0.379627  MPKI: 0.03562
STLB TRANSLATION FROM L1D PREFETCHER DATA	ACCESS:     248209  HIT:     248175  MISS:         34  HIT %:    99.9863  MISS %:  0.0136981  MPKI: 0.00068

STLB AVERAGE MISS LATENCY: 82.1312 cycles
STLB RQ	ACCESS:    1332071	FORWARD:          0	MERGED:     119631	TO_CACHE:    1212440

STLB Hit, L1D data hit: 0
STLB Hit, L2C data hit: 0
STLB Hit, LLC data hit: 0
STLB Hit, LLC data miss: 0
STLB STLB hints to L2: 0
L1D TOTAL     ACCESS:   13152851  HIT:   12031320  MISS:    1121531  HIT %:    91.4731  MISS %:     8.5269   MPKI: 22.4306
L1D LOAD DATA	ACCESS:    6616913  HIT:    5876041  MISS:     740872  HIT %:    88.8034  MISS %:    11.1966  MPKI: 14.8174
L1D RFO DATA	ACCESS:    6209840  HIT:    5923923  MISS:     285917  HIT %:    95.3957  MISS %:    4.60426  MPKI: 5.71834
L1D PREFETCH DATA	ACCESS:     326098  HIT:     231356  MISS:      94742  HIT %:    70.9468  MISS %:    29.0532  MPKI: 1.89484

L1D PREFETCH  REQUESTED:     735602  ISSUED:     735602  USEFUL:      34015  USELESS:      68896
L1D USEFUL LOAD PREFETCHES:      34015 PREFETCH ISSUED TO LOWER LEVEL:     102989  ACCURACY: 33.0278
 TIMELY PREFETCHES:      34015 LATE PREFETCHES: 8187 DROPPED PREFETCHES: 9
L1D AVERAGE MISS LATENCY: 235486 cycles
L1D RQ	ACCESS:   10729906	FORWARD:          0	MERGED:    3917814	TO_CACHE:    6650954
L1D WQ	ACCESS:    6949231	FORWARD:     161558	MERGED:     193936	TO_CACHE:    6755295
L1D PQ	ACCESS:     368011	FORWARD:          0	MERGED:          0	TO_CACHE:     367591

L1D UNIQUE REGIONS ACCESSED: 0
L1D REGIONS CONFLICTS: 0
L1D Cross Page Prefetch Requests: 6786
L1D Same Page Prefetch Requests: 745753
L1D ROI Sum of L1D PQ occupancy: 4684095
L1D PREFETCHES PUSHED FROM L2C: 0
L1I TOTAL     ACCESS:    7114946  HIT:    4347908  MISS:    2767038  HIT %:    61.1095  MISS %:    38.8905   MPKI: 55.3408
L1I LOAD INSTRUCTION	ACCESS:    6477854  HIT:    3710816  MISS:    2767038  HIT %:    57.2847  MISS %:    42.7153  MPKI: 55.3408
L1I PREFETCH INSTRUCTION	ACCESS:     637092  HIT:     637092  MISS:          0  HIT %:        100  MISS %:          0  MPKI: 0

L1I PREFETCH  REQUESTED:    1511122  ISSUED:    1511122  USEFUL:          0  USELESS:          0
L1I USEFUL LOAD PREFETCHES:          0 PREFETCH ISSUED TO LOWER LEVEL:          0  ACCURACY: -nan
 TIMELY PREFETCHES:          0 LATE PREFETCHES: 0 DROPPED PREFETCHES: 0
L1I AVERAGE MISS LATENCY: 17.5384 cycles
L1I RQ	ACCESS:    9482530	FORWARD:          0	MERGED:    2678623	TO_CACHE:    6803907
L1I PQ	ACCESS:    1511122	FORWARD:          0	MERGED:     411105	TO_CACHE:    1100017

L1BTB TOTAL     ACCESS:    5669890  HIT:    2035151  MISS:    3634739  HIT %:     35.894  MISS %:     64.106   MPKI: 72.6948
L1BTB BRANCH_DIRECT_JUMP	ACCESS:     548319  HIT:     144307  MISS:     404012	AVERAGE STALL: 41.1555
L1BTB BRANCH_INDIRECT	ACCESS:     182415  HIT:      65645  MISS:     116770	AVERAGE STALL: 126.032
L1BTB BRANCH_CONDITIONAL	ACCESS:    2700563  HIT:    1405932  MISS:    1294631	AVERAGE STALL: 51.3468
L1BTB BRANCH_DIRECT_CALL	ACCESS:     946969  HIT:     106409  MISS:     840560	AVERAGE STALL: 54.2281
L1BTB BRANCH_INDIRECT_CALL	ACCESS:     172330  HIT:      21724  MISS:     150606	AVERAGE STALL: 141.9
L1BTB BRANCH_RETURN	ACCESS:    1119294  HIT:     291134  MISS:     828160	AVERAGE STALL: 45.4742
L1BTB BRANCH_OTHER ACCESS:          0  HIT:          0  MISS:          0	AVERAGE STALL: -nan
L1BTB TOTAL ROB OCCUPANCY AT BTB MISS: 4.93607

L2BTB1 TOTAL     ACCESS:    3609418  HIT:    3485602  MISS:     123816  HIT %:    96.5696  MISS %:    3.43036   MPKI: 2.47632
L2BTB1 BRANCH_DIRECT_JUMP	ACCESS:     399910  HIT:     391640  MISS:       8270	AVERAGE STALL: 41.1555
L2BTB1 BRANCH_INDIRECT	ACCESS:     106447  HIT:      95477  MISS:      10970	AVERAGE STALL: 126.032
L2BTB1 BRANCH_CONDITIONAL	ACCESS:    1294631  HIT:    1279615  MISS:      15016	AVERAGE STALL: 51.3468
L2BTB1 BRANCH_DIRECT_CALL	ACCESS:     840560  HIT:     817714  MISS:      22846	AVERAGE STALL: 54.2281
L2BTB1 BRANCH_INDIRECT_CALL	ACCESS:     141124  HIT:     127928  MISS:      13196	AVERAGE STALL: 141.9
L2BTB1 BRANCH_RETURN	ACCESS:     826746  HIT:     773228  MISS:      53518	AVERAGE STALL: 45.4742
L2BTB1 BRANCH_OTHER ACCESS:          0  HIT:          0  MISS:          0	AVERAGE STALL: -nan
L2BTB1 TOTAL ROB OCCUPANCY AT BTB MISS: 144.903

L2C TOTAL     ACCESS:    4498159  HIT:    3978788  MISS:     519371  HIT %:    88.4537  MISS %:    11.5463   MPKI: 10.3874
L2C LOAD INSTRUCTION	ACCESS:    2767039  HIT:    2476905  MISS:     290134  HIT %:    89.5146  MISS %:    10.4854  MPKI: 5.80268
L2C LOAD TRANSLATION INSTRUCTION	ACCESS:        294  HIT:         80  MISS:        214  HIT %:    27.2109  MISS %:    72.7891  MPKI: 0.00428
L2C LOAD DATA	ACCESS:     732645  HIT:     656018  MISS:      76627  HIT %:     89.541  MISS %:     10.459  MPKI: 1.53254
L2C RFO DATA	ACCESS:     285838  HIT:     226410  MISS:      59428  HIT %:    79.2092  MISS %:    20.7908  MPKI: 1.18856
L2C PREFETCH DATA	ACCESS:     187380  HIT:     115979  MISS:      71401  HIT %:    61.8951  MISS %:    38.1049  MPKI: 1.42802
L2C WRITEBACK DATA	ACCESS:     523049  HIT:     502875  MISS:      20174  HIT %:     96.143  MISS %:      3.857  MPKI: 0.40348
L2C LOAD TRANSLATION DATA	ACCESS:       1855  HIT:        479  MISS:       1376  HIT %:    25.8221  MISS %:    74.1779  MPKI: 0.02752
L2C TRANSLATION FROM L1D PREFETCHER DATA	ACCESS:         59  HIT:         42  MISS:         17  HIT %:    71.1864  MISS %:    28.8136  MPKI: 0.00034

L2C PREFETCH  REQUESTED:      91808  ISSUED:      91808  USEFUL:       7406  USELESS:      64356
L2C USEFUL LOAD PREFETCHES:       7406 PREFETCH ISSUED TO LOWER LEVEL:      71722  ACCURACY: 10.326
 TIMELY PREFETCHES:       7406 LATE PREFETCHES: 321 DROPPED PREFETCHES: 0
L2C AVERAGE MISS LATENCY: 37.7023 cycles
L2C RQ	ACCESS:    3787796	FORWARD:          0	MERGED:          0	TO_CACHE:    3787737
L2C WQ	ACCESS:     523049	FORWARD:         59	MERGED:          0	TO_CACHE:     523049
L2C PQ	ACCESS:     194797	FORWARD:          0	MERGED:       3256	TO_CACHE:     191541

L2C Dense regions hint from L2: 0
PSCL5 TOTAL     ACCESS:       4174  HIT:       2087  MISS:       2087  HIT %:         50  MISS %:         50   MPKI: 0.04174
PSCL5 LOAD TRANSLATION INSTRUCTION	ACCESS:       4058  HIT:       2029  MISS:       2029  HIT %:         50  MISS %:         50  MPKI: 0.04058
PSCL5 TRANSLATION FROM L1D PREFETCHER INSTRUCTION	ACCESS:        116  HIT:         58  MISS:         58  HIT %:         50  MISS %:         50  MPKI: 0.00116


PSCL4 TOTAL     ACCESS:       3906  HIT:       1950  MISS:       1956  HIT %:    49.9232  MISS %:    50.0768   MPKI: 0.03912
PSCL4 LOAD TRANSLATION INSTRUCTION	ACCESS:       2874  HIT:       1897  MISS:        977  HIT %:    66.0056  MISS %:    33.9944  MPKI: 0.01954
PSCL4 TRANSLATION FROM L1D PREFETCHER INSTRUCTION	ACCESS:         81  HIT:         53  MISS:         28  HIT %:    65.4321  MISS %:    34.5679  MPKI: 0.00056
PSCL4 LOAD TRANSLATION DATA	ACCESS:        926  HIT:          0  MISS:        926  HIT %:          0  MISS %:        100  MPKI: 0.01852
PSCL4 TRANSLATION FROM L1D PREFETCHER DATA	ACCESS:         25  HIT:          0  MISS:         25  HIT %:          0  MISS %:        100  MPKI: 0.0005


PSCL3 TOTAL     ACCESS:       3952  HIT:       1973  MISS:       1979  HIT %:    49.9241  MISS %:    50.0759   MPKI: 0.03958
PSCL3 LOAD TRANSLATION INSTRUCTION	ACCESS:       2897  HIT:       1920  MISS:        977  HIT %:    66.2755  MISS %:    33.7245  MPKI: 0.01954
PSCL3 TRANSLATION FROM L1D PREFETCHER INSTRUCTION	ACCESS:         81  HIT:         53  MISS:         28  HIT %:    65.4321  MISS %:    34.5679  MPKI: 0.00056
PSCL3 LOAD TRANSLATION DATA	ACCESS:        949  HIT:          0  MISS:        949  HIT %:          0  MISS %:        100  MPKI: 0.01898
PSCL3 TRANSLATION FROM L1D PREFETCHER DATA	ACCESS:         25  HIT:          0  MISS:         25  HIT %:          0  MISS %:        100  MPKI: 0.0005


PSCL2 TOTAL     ACCESS:       4059  HIT:       1973  MISS:       2086  HIT %:     48.608  MISS %:     51.392   MPKI: 0.04172
PSCL2 LOAD TRANSLATION INSTRUCTION	ACCESS:       2179  HIT:       1916  MISS:        263  HIT %:    87.9302  MISS %:    12.0698  MPKI: 0.00526
PSCL2 TRANSLATION FROM L1D PREFETCHER INSTRUCTION	ACCESS:         57  HIT:         57  MISS:          0  HIT %:        100  MISS %:          0  MPKI: 0
PSCL2 LOAD TRANSLATION DATA	ACCESS:       1766  HIT:          0  MISS:       1766  HIT %:          0  MISS %:        100  MPKI: 0.03532
PSCL2 TRANSLATION FROM L1D PREFETCHER DATA	ACCESS:         57  HIT:          0  MISS:         57  HIT %:          0  MISS %:        100  MPKI: 0.00114


LLC TOTAL     ACCESS:     581295  HIT:     552315  MISS:      28980  HIT %:    95.0146  MISS %:    4.98542   MPKI: 0.5796
LLC LOAD INSTRUCTION	ACCESS:     290136  HIT:     288971  MISS:       1165  HIT %:    99.5985  MISS %:   0.401536  MPKI: 0.0233
LLC LOAD TRANSLATION INSTRUCTION	ACCESS:        214  HIT:        155  MISS:         59  HIT %:    72.4299  MISS %:    27.5701  MPKI: 0.00118
LLC LOAD DATA	ACCESS:      76314  HIT:      72675  MISS:       3639  HIT %:    95.2315  MISS %:    4.76846  MPKI: 0.07278
LLC RFO DATA	ACCESS:      59416  HIT:      45751  MISS:      13665  HIT %:    77.0011  MISS %:    22.9989  MPKI: 0.2733
LLC PREFETCH DATA	ACCESS:      71721  HIT:      61751  MISS:       9970  HIT %:    86.0989  MISS %:    13.9011  MPKI: 0.1994
LLC WRITEBACK DATA	ACCESS:      82101  HIT:      81734  MISS:        367  HIT %:     99.553  MISS %:    0.44701  MPKI: 0.00734
LLC LOAD TRANSLATION DATA	ACCESS:       1376  HIT:       1263  MISS:        113  HIT %:    91.7878  MISS %:    8.21221  MPKI: 0.00226
LLC TRANSLATION FROM L1D PREFETCHER DATA	ACCESS:         17  HIT:         15  MISS:          2  HIT %:    88.2353  MISS %:    11.7647  MPKI: 4e-05

LLC AVERAGE MISS LATENCY: 157.58 cycles
LLC RQ	ACCESS:     427477	FORWARD:          0	MERGED:          0	TO_CACHE:     427473
LLC WQ	ACCESS:      82102	FORWARD:          5	MERGED:          0	TO_CACHE:      82102
LLC PQ	ACCESS:      71722	FORWARD:          0	MERGED:          0	TO_CACHE:      71721

LLC Dense regions hint to LLC: 0

RAW hits: 1901777
Loads Generated: 12631682
Loads sent to L1D: 10729906
Stores Generated: 6949229
Stores sent to L1D: 6949231
Major fault: 0 Minor fault: 2596
Allocated PAGES: 2596

stream: 
stream:times selected: 1182123
stream:pref_filled: 122595
stream:pref_useful: 24391
stream:pref_late: 7226
stream:misses: 8047
stream:misses_by_poll: 0

CS: 
CS:times selected: 178241
CS:pref_filled: 59132
CS:pref_useful: 35802
CS:pref_late: 6801
CS:misses: 15759
CS:misses_by_poll: 6

CPLX: 
CPLX:times selected: 1002697
CPLX:pref_filled: 19699
CPLX:pref_useful: 4697
CPLX:pref_late: 3266
CPLX:misses: 94876
CPLX:misses_by_poll: 3

NL_L1: 
NL:times selected: 21478
NL:pref_filled: 728
NL:pref_useful: 299
NL:pref_late: 353
NL:misses: 1807
NL:misses_by_poll: 0

total selections: 2384539
total_filled: 94742
total_useful: 34015
total_late: 18909
total_polluted: 9
total_misses_after_warmup: 774916
conflicts: 5555007

test: 115348

DRAM Statistics
 CHANNEL 0
 RQ ROW_BUFFER_HIT:      10569  ROW_BUFFER_MISS:      18039
 DBUS_CONGESTED:          9
 WQ ROW_BUFFER_HIT:       1478  ROW_BUFFER_MISS:      12050  FULL:          0

 AVG_CONGESTED_CYCLE: 4

CPU 0 Branch Prediction Accuracy: 99.8107% MPKI: 0.3463 Average ROB Occupancy at Mispredict: 159.624
Branch types
NOT_BRANCH: 40851036 81.7021%
BRANCH_DIRECT_JUMP: 548319 1.09664%
BRANCH_INDIRECT: 182415 0.36483%
BRANCH_CONDITIONAL: 6179580 12.3592%
BRANCH_DIRECT_CALL: 946969 1.89394%
BRANCH_INDIRECT_CALL: 172330 0.34466%
BRANCH_RETURN: 1119294 2.23859%
BRANCH_OTHER: 0 0%

DRAM PAGES: 1048576
Allocated PAGES: 2596
Average_ROB_Occupancy: 192.712
Average_Decode_Occupancy: 25.6866
Average_FTQ_Occupancy: 10.4408
Indirect max targets: 14 Average targets: 1.17949
Branch_type:  BRANCH_DIRECT_JUMP:  Count Percentage: 3.23342 6.23304 3.41641 5.78579 4.6884 5.96084 0.926259 69.7558 
Branch_type:  BRANCH_INDIRECT:  Count Percentage: 11.7558 3.40708 2.50286 9.68463 11.3361 4.01629 2.01527 55.282 
Branch_type:  BRANCH_CONDITIONAL:  Count Percentage: 20.964 3.81135 1.17721 4.19443 3.29439 4.35091 0.695033 61.5127 
Branch_type:  BRANCH_DIRECT_CALL:  Count Percentage: 0.769623 1.27911 1.11834 3.35523 3.18151 2.3497 0.699499 87.247 
Branch_type:  BRANCH_INDIRECT_CALL:  Count Percentage: 9.55496 0.559713 2.9957 4.83883 1.09791 2.98989 0.995563 76.9674 
Branch_type:  BRANCH_RETURN:  Count Percentage: 5.64002 0.829494 1.62737 6.04178 3.84412 4.62106 1.13061 76.2656 
Branch_type:  BRANCH_DIRECT_JUMP:  Total Count: 35446 68329 37452 63426 51396 65345 10154 764690 
Branch_type:  BRANCH_INDIRECT:  Total Count: 42916 12438 9137 35355 41384 14662 7357 201814 
Branch_type:  BRANCH_CONDITIONAL:  Total Count: 2590387 470945 145461 518280 407068 537615 85881 7600748 
Branch_type:  BRANCH_DIRECT_CALL:  Total Count: 14553 24187 21147 63445 60160 44431 13227 1649776 
Branch_type:  BRANCH_INDIRECT_CALL:  Total Count: 32862 1925 10303 16642 3776 10283 3424 264711 
Branch_type:  BRANCH_RETURN:  Total Count: 126094 18545 36383 135076 85943 103313 25277 1705069 
Number of unique branch instructions: 10649
Upper 32 bits: 
aaaa
ffff
ffff0000
Unique upper 32 bits: 3
Unique upper 36 bits: 3
Unique upper 40 bits: 5
Unique upper 44 bits: 32
Unique upper 48 bits: 157
Offset_3 4410
Offset_4 251
Offset_5 474
Offset_6 534
Offset_7 629
Offset_8 564
Offset_9 513
Offset_10 418
Offset_11 353
Offset_12 322
Offset_13 232
Offset_14 245
Offset_15 194
Offset_16 227
Offset_17 164
Offset_18 149
Offset_19 251
Offset_20 140
Offset_21 235
Offset_22 410
Offset_23 241
Offset_24 341
Offset_25 117
Offset_47 92
decode_dispatch_called: 22659516 59.8266
Dispatch_width: 0 11939843 52.6924 31.5241
Dispatch_width: 1 698157 3.08108 1.8433
Dispatch_width: 2 665164 2.93547 1.75619
Dispatch_width: 3 414825 1.83069 1.09524
Dispatch_width: 4 3353293 14.7986 8.85351
Dispatch_width: 5 215533 0.951181 0.56906
Dispatch_width: 6 5372701 23.7106 14.1852
Empty_decode_cycles: 15215779 40.1734
ROB_full_cycles: 5296363 13.9837
Starvation_cycles_per_kilo_instr: 272.062
Starvation_cycles_per_kilo_instr_3: 236.374
Starvation_cycles_per_kilo_instr_0: 218.593
Branch_type_1  (3,1)  (4,7)  (5,38)  (6,73)  (7,123)  (8,147)  (9,137)  (10,111)  (11,79)  (12,55)  (13,11)  (14,2)  (15,3)  (16,4)  (18,1)  (19,5)  (20,2)  (21,1)  (22,3)  (23,2)  (24,10)  (25,12) 
Branch_type_2  (3,1)  (4,1)  (5,1)  (8,4)  (9,4)  (10,1)  (12,1)  (13,1)  (14,1)  (16,3)  (17,2)  (20,2)  (21,2)  (23,5)  (24,1)  (47,41) 
Branch_type_3  (3,4408)  (4,243)  (5,431)  (6,445)  (7,477)  (8,350)  (9,280)  (10,167)  (11,138)  (12,62)  (13,10) 
Branch_type_4  (6,3)  (7,8)  (8,25)  (9,53)  (10,66)  (11,70)  (12,113)  (13,98)  (14,111)  (15,92)  (16,99)  (17,76)  (18,65)  (19,122)  (20,71)  (21,124)  (22,216)  (23,136)  (24,197)  (25,101) 
Branch_type_5  (8,3)  (9,1)  (10,4)  (11,5)  (12,3)  (13,14)  (14,16)  (15,11)  (16,22)  (17,11)  (18,23)  (19,14)  (20,11)  (21,13)  (22,43)  (23,26)  (24,37) 
Branch_type_6  (5,4)  (6,13)  (7,21)  (8,35)  (9,38)  (10,69)  (11,61)  (12,88)  (13,98)  (14,115)  (15,88)  (16,99)  (17,75)  (18,60)  (19,110)  (20,54)  (21,95)  (22,148)  (23,72)  (24,96)  (25,4)  (47,51) 
Unique trigger count: 
L2BTB1 1536 4
L2BTB2 1536 4
L2BTB3 1536 4
L2BTB4 224 4
