
*** ChampSim Multicore Out-of-Order Simulator ***

Warmup Instructions: 50000000
Simulation Instructions: 50000000
Number of CPUs: 1
LLC sets: 2048
LLC ways: 16
Off-chip DRAM Size: 4096 MB Channels: 1 Width: 64-bit Data Rate: 6400 MT/s
CPU 0 runs ./micro_traces/srv17.trace.gz
.gz
ITLB has LRU replacement policy
DTLB has LRU replacement policy
STLB has LRU replacement policy
CPU 0 L1I next line prefetcher
L1I has LRU replacement policy
L1D has LRU replacement policy
Initialize SRRIP state for L2C
Initialize DRRIP state for LLC
Heartbeat CPU 0 instructions: 10000000 cycles: 2798819 heartbeat IPC: 3.57294 cumulative IPC: 3.57294 (Simulation time: 0 hr 1 min 40 sec) 
Heartbeat CPU 0 instructions: 20000000 cycles: 5596835 heartbeat IPC: 3.57396 cumulative IPC: 3.57345 (Simulation time: 0 hr 3 min 19 sec) 
Heartbeat CPU 0 instructions: 30000002 cycles: 8395455 heartbeat IPC: 3.57319 cumulative IPC: 3.57336 (Simulation time: 0 hr 4 min 56 sec) 
Heartbeat CPU 0 instructions: 40000003 cycles: 11194081 heartbeat IPC: 3.57318 cumulative IPC: 3.57332 (Simulation time: 0 hr 6 min 34 sec) 
Heartbeat CPU 0 instructions: 50000003 cycles: 13992574 heartbeat IPC: 3.57335 cumulative IPC: 3.57332 (Simulation time: 0 hr 8 min 10 sec) 

Warmup complete CPU 0 instructions: 50000003 cycles: 13992574 (Simulation time: 0 hr 8 min 10 sec) 

Cycle: 20000000 FTQ IN: 58123999 FTQ occupancy: 18.6705 DECODE IN: 58123999 DECODE occupancy: 49.8329 ROB IN: 58123999 ROB occupancy: 308.853 ROB OUT: 58123936
Heartbeat CPU 0 instructions: 60000002 cycles: 21394354 heartbeat IPC: 1.35103 cumulative IPC: 1.35103 (Simulation time: 0 hr 9 min 47 sec) 
Heartbeat CPU 0 instructions: 70000003 cycles: 28867242 heartbeat IPC: 1.33817 cumulative IPC: 1.34457 (Simulation time: 0 hr 11 min 24 sec) 
Cycle: 30000000 FTQ IN: 13359353 FTQ occupancy: 8.75968 DECODE IN: 13359218 DECODE occupancy: 26.0571 ROB IN: 13359218 ROB occupancy: 215.772 ROB OUT: 13359098
Heartbeat CPU 0 instructions: 80000003 cycles: 36276433 heartbeat IPC: 1.34968 cumulative IPC: 1.34627 (Simulation time: 0 hr 12 min 57 sec) 
Cycle: 40000000 FTQ IN: 13383705 FTQ occupancy: 8.69139 DECODE IN: 13383840 DECODE occupancy: 25.8171 ROB IN: 13383840 ROB occupancy: 215.46 ROB OUT: 13383820
Heartbeat CPU 0 instructions: 90000002 cycles: 43800238 heartbeat IPC: 1.32911 cumulative IPC: 1.34194 (Simulation time: 0 hr 14 min 34 sec) 
Cycle: 50000000 FTQ IN: 13541975 FTQ occupancy: 8.69982 DECODE IN: 13541968 DECODE occupancy: 26.0262 ROB IN: 13541956 ROB occupancy: 217.033 ROB OUT: 13542087
Heartbeat CPU 0 instructions: 100000001 cycles: 51178551 heartbeat IPC: 1.35532 cumulative IPC: 1.34459 (Simulation time: 0 hr 16 min 11 sec) 
Finished CPU 0 instructions: 50000002 cycles: 37185978 cumulative IPC: 1.34459 (Simulation time: 0 hr 16 min 11 sec) 

ChampSim completed all CPUs

Region of Interest Statistics

CPU 0 cumulative IPC: 1.34459 instructions: 50000002 cycles: 37185978
 Fetch stage stalled: 60.5941  Sim cycles: 37185978 fetch stall cycle: 22532495
 Empty decode stage: 41.8638  Sim cycles: 37185978 fetch stall cycle: 15567478
ITLB TOTAL     ACCESS:    7734379  HIT:    7125277  MISS:     609102  HIT %:    92.1247  MISS %:    7.87525   MPKI: 12.182
ITLB LOAD TRANSLATION INSTRUCTION	ACCESS:    5991296  HIT:    5868168  MISS:     123128  HIT %:    97.9449  MISS %:    2.05511  MPKI: 2.46256
ITLB TRANSLATION FROM L1D PREFETCHER INSTRUCTION	ACCESS:    1743083  HIT:    1257109  MISS:     485974  HIT %:    72.1199  MISS %:    27.8801  MPKI: 9.71948

ITLB AVERAGE MISS LATENCY: 119289 cycles
ITLB RQ	ACCESS:   11638472	FORWARD:          0	MERGED:    3761818	TO_CACHE:    7876654

DTLB TOTAL     ACCESS:    9012188  HIT:    8540419  MISS:     471769  HIT %:    94.7652  MISS %:    5.23479   MPKI: 9.43538
DTLB LOAD TRANSLATION DATA	ACCESS:    9012188  HIT:    8540419  MISS:     471769  HIT %:    94.7652  MISS %:    5.23479  MPKI: 9.43538

DTLB AVERAGE MISS LATENCY: 9.3677 cycles
DTLB RQ	ACCESS:   13409193	FORWARD:          0	MERGED:    4359589	TO_CACHE:    9049604

STLB TOTAL     ACCESS:    1327415  HIT:    1325116  MISS:       2299  HIT %:    99.8268  MISS %:   0.173194   MPKI: 0.04598
STLB LOAD TRANSLATION INSTRUCTION	ACCESS:     120920  HIT:     120753  MISS:        167  HIT %:    99.8619  MISS %:   0.138108  MPKI: 0.00334
STLB TRANSLATION FROM L1D PREFETCHER INSTRUCTION	ACCESS:     488182  HIT:     488031  MISS:        151  HIT %:    99.9691  MISS %:  0.0309311  MPKI: 0.00302
STLB LOAD TRANSLATION DATA	ACCESS:     471769  HIT:     469813  MISS:       1956  HIT %:    99.5854  MISS %:    0.41461  MPKI: 0.03912
STLB TRANSLATION FROM L1D PREFETCHER DATA	ACCESS:     246544  HIT:     246519  MISS:         25  HIT %:    99.9899  MISS %:  0.0101402  MPKI: 0.0005

STLB AVERAGE MISS LATENCY: 77.5007 cycles
STLB RQ	ACCESS:    1449905	FORWARD:          0	MERGED:     118709	TO_CACHE:    1331196

STLB Hit, L1D data hit: 0
STLB Hit, L2C data hit: 0
STLB Hit, LLC data hit: 0
STLB Hit, LLC data miss: 0
STLB STLB hints to L2: 0
L1D TOTAL     ACCESS:   13143062  HIT:   12026860  MISS:    1116202  HIT %:    91.5073  MISS %:    8.49271   MPKI: 22.324
L1D LOAD DATA	ACCESS:    6611264  HIT:    5872753  MISS:     738511  HIT %:    88.8295  MISS %:    11.1705  MPKI: 14.7702
L1D RFO DATA	ACCESS:    6204123  HIT:    5919407  MISS:     284716  HIT %:    95.4109  MISS %:    4.58914  MPKI: 5.69432
L1D PREFETCH DATA	ACCESS:     327675  HIT:     234700  MISS:      92975  HIT %:    71.6258  MISS %:    28.3742  MPKI: 1.8595

L1D PREFETCH  REQUESTED:     731018  ISSUED:     731018  USEFUL:      31865  USELESS:      68633
L1D USEFUL LOAD PREFETCHES:      31865 PREFETCH ISSUED TO LOWER LEVEL:     100661  ACCURACY: 31.6558
 TIMELY PREFETCHES:      31865 LATE PREFETCHES: 7567 DROPPED PREFETCHES: 14
L1D AVERAGE MISS LATENCY: 219450 cycles
L1D RQ	ACCESS:   10702830	FORWARD:          0	MERGED:    3890672	TO_CACHE:    6652653
L1D WQ	ACCESS:    6955247	FORWARD:     159909	MERGED:     198707	TO_CACHE:    6756540
L1D PQ	ACCESS:     365711	FORWARD:          0	MERGED:          0	TO_CACHE:     365307

L1D UNIQUE REGIONS ACCESSED: 0
L1D REGIONS CONFLICTS: 0
L1D Cross Page Prefetch Requests: 5774
L1D Same Page Prefetch Requests: 740928
L1D ROI Sum of L1D PQ occupancy: 4664240
L1D PREFETCHES PUSHED FROM L2C: 0
L1I TOTAL     ACCESS:   11223799  HIT:    7572193  MISS:    3651606  HIT %:    67.4655  MISS %:    32.5345   MPKI: 73.0321
L1I LOAD INSTRUCTION	ACCESS:    6713810  HIT:    6139809  MISS:     574001  HIT %:    91.4504  MISS %:    8.54956  MPKI: 11.48
L1I PREFETCH INSTRUCTION	ACCESS:    4509989  HIT:    1432384  MISS:    3077605  HIT %:    31.7603  MISS %:    68.2397  MPKI: 61.5521

L1I PREFETCH  REQUESTED:    5160000  ISSUED:    5159854  USEFUL:    2388019  USELESS:     788334
L1I USEFUL LOAD PREFETCHES:    2388019 PREFETCH ISSUED TO LOWER LEVEL:    3176343  ACCURACY: 75.1814
 TIMELY PREFETCHES:    2388019 LATE PREFETCHES: 98736 DROPPED PREFETCHES: 10327
L1I AVERAGE MISS LATENCY: 883074 cycles
L1I RQ	ACCESS:    9459716	FORWARD:          0	MERGED:    2683189	TO_CACHE:    6776527
L1I PQ	ACCESS:    5159854	FORWARD:          0	MERGED:     297909	TO_CACHE:    4861945

L1BTB TOTAL     ACCESS:    5673871  HIT:    2034630  MISS:    3639241  HIT %:    35.8596  MISS %:    64.1404   MPKI: 72.7848
L1BTB BRANCH_DIRECT_JUMP	ACCESS:     548886  HIT:     144017  MISS:     404869	AVERAGE STALL: 32.6593
L1BTB BRANCH_INDIRECT	ACCESS:     183185  HIT:      66079  MISS:     117106	AVERAGE STALL: 124.357
L1BTB BRANCH_CONDITIONAL	ACCESS:    2707253  HIT:    1410514  MISS:    1296739	AVERAGE STALL: 40.837
L1BTB BRANCH_DIRECT_CALL	ACCESS:     945682  HIT:     104012  MISS:     841670	AVERAGE STALL: 44.3039
L1BTB BRANCH_INDIRECT_CALL	ACCESS:     171595  HIT:      20823  MISS:     150772	AVERAGE STALL: 141.555
L1BTB BRANCH_RETURN	ACCESS:    1117270  HIT:     289185  MISS:     828085	AVERAGE STALL: 40.5096
L1BTB BRANCH_OTHER ACCESS:          0  HIT:          0  MISS:          0	AVERAGE STALL: -nan
L1BTB TOTAL ROB OCCUPANCY AT BTB MISS: 5.71327

L2BTB1 TOTAL     ACCESS:    3613805  HIT:    3489887  MISS:     123918  HIT %:     96.571  MISS %:    3.42902   MPKI: 2.47836
L2BTB1 BRANCH_DIRECT_JUMP	ACCESS:     400703  HIT:     392440  MISS:       8263	AVERAGE STALL: 32.6593
L2BTB1 BRANCH_INDIRECT	ACCESS:     106797  HIT:      95809  MISS:      10988	AVERAGE STALL: 124.357
L2BTB1 BRANCH_CONDITIONAL	ACCESS:    1296739  HIT:    1281762  MISS:      14977	AVERAGE STALL: 40.837
L2BTB1 BRANCH_DIRECT_CALL	ACCESS:     841670  HIT:     818776  MISS:      22894	AVERAGE STALL: 44.3039
L2BTB1 BRANCH_INDIRECT_CALL	ACCESS:     141225  HIT:     127936  MISS:      13289	AVERAGE STALL: 141.555
L2BTB1 BRANCH_RETURN	ACCESS:     826671  HIT:     773164  MISS:      53507	AVERAGE STALL: 40.5096
L2BTB1 BRANCH_OTHER ACCESS:          0  HIT:          0  MISS:          0	AVERAGE STALL: -nan
L2BTB1 TOTAL ROB OCCUPANCY AT BTB MISS: 167.788

L2C TOTAL     ACCESS:    6632607  HIT:    5662772  MISS:     969835  HIT %:    85.3778  MISS %:    14.6222   MPKI: 19.3967
L2C LOAD INSTRUCTION	ACCESS:     475265  HIT:     386069  MISS:      89196  HIT %:    81.2324  MISS %:    18.7676  MPKI: 1.78392
L2C PREFETCH INSTRUCTION	ACCESS:    3176341  HIT:    2807385  MISS:     368956  HIT %:    88.3842  MISS %:    11.6158  MPKI: 7.37912
L2C LOAD TRANSLATION INSTRUCTION	ACCESS:        194  HIT:         49  MISS:        145  HIT %:    25.2577  MISS %:    74.7423  MPKI: 0.0029
L2C TRANSLATION FROM L1D PREFETCHER INSTRUCTION	ACCESS:       4196  HIT:       3993  MISS:        203  HIT %:    95.1621  MISS %:    4.83794  MPKI: 0.00406
L2C LOAD DATA	ACCESS:     730884  HIT:     588254  MISS:     142630  HIT %:    80.4853  MISS %:    19.5147  MPKI: 2.8526
L2C RFO DATA	ACCESS:     284555  HIT:     203770  MISS:      80785  HIT %:    71.6101  MISS %:    28.3899  MPKI: 1.6157
L2C PREFETCH DATA	ACCESS:    1433632  HIT:    1182697  MISS:     250935  HIT %:    82.4966  MISS %:    17.5034  MPKI: 5.0187
L2C WRITEBACK DATA	ACCESS:     525439  HIT:     490023  MISS:      35416  HIT %:    93.2597  MISS %:    6.74027  MPKI: 0.70832
L2C LOAD TRANSLATION DATA	ACCESS:       2043  HIT:        490  MISS:       1553  HIT %:    23.9843  MISS %:    76.0157  MPKI: 0.03106
L2C TRANSLATION FROM L1D PREFETCHER DATA	ACCESS:         58  HIT:         42  MISS:         16  HIT %:    72.4138  MISS %:    27.5862  MPKI: 0.00032

L2C PREFETCH  REQUESTED:    3286739  ISSUED:    3286739  USEFUL:      31587  USELESS:     590410
L2C USEFUL LOAD PREFETCHES:      31587 PREFETCH ISSUED TO LOWER LEVEL:     621091  ACCURACY: 5.08573
 TIMELY PREFETCHES:      31587 LATE PREFETCHES: 1199 DROPPED PREFETCHES: 0
L2C AVERAGE MISS LATENCY: 33.8222 cycles
L2C RQ	ACCESS:    1497299	FORWARD:          0	MERGED:          0	TO_CACHE:    1497197
L2C WQ	ACCESS:     525439	FORWARD:        102	MERGED:          0	TO_CACHE:     525439
L2C PQ	ACCESS:    6563743	FORWARD:          0	MERGED:    1934358	TO_CACHE:    4629385

L2C Dense regions hint from L2: 0
PSCL5 TOTAL     ACCESS:      12090  HIT:       6045  MISS:       6045  HIT %:         50  MISS %:         50   MPKI: 0.1209
PSCL5 LOAD TRANSLATION INSTRUCTION	ACCESS:       4222  HIT:       2111  MISS:       2111  HIT %:         50  MISS %:         50  MPKI: 0.04222
PSCL5 TRANSLATION FROM L1D PREFETCHER INSTRUCTION	ACCESS:       7868  HIT:       3934  MISS:       3934  HIT %:         50  MISS %:         50  MPKI: 0.07868


PSCL4 TOTAL     ACCESS:      11827  HIT:       5910  MISS:       5917  HIT %:    49.9704  MISS %:    50.0296   MPKI: 0.11834
PSCL4 LOAD TRANSLATION INSTRUCTION	ACCESS:       2770  HIT:       2010  MISS:        760  HIT %:    72.5632  MISS %:    27.4368  MPKI: 0.0152
PSCL4 TRANSLATION FROM L1D PREFETCHER INSTRUCTION	ACCESS:       5259  HIT:       3900  MISS:       1359  HIT %:    74.1586  MISS %:    25.8414  MPKI: 0.02718
PSCL4 LOAD TRANSLATION DATA	ACCESS:       1257  HIT:          0  MISS:       1257  HIT %:          0  MISS %:        100  MPKI: 0.02514
PSCL4 TRANSLATION FROM L1D PREFETCHER DATA	ACCESS:       2541  HIT:          0  MISS:       2541  HIT %:          0  MISS %:        100  MPKI: 0.05082


PSCL3 TOTAL     ACCESS:      11868  HIT:       5925  MISS:       5943  HIT %:    49.9242  MISS %:    50.0758   MPKI: 0.11886
PSCL3 LOAD TRANSLATION INSTRUCTION	ACCESS:       2780  HIT:       2027  MISS:        753  HIT %:    72.9137  MISS %:    27.0863  MPKI: 0.01506
PSCL3 TRANSLATION FROM L1D PREFETCHER INSTRUCTION	ACCESS:       5250  HIT:       3898  MISS:       1352  HIT %:    74.2476  MISS %:    25.7524  MPKI: 0.02704
PSCL3 LOAD TRANSLATION DATA	ACCESS:       1292  HIT:          0  MISS:       1292  HIT %:          0  MISS %:        100  MPKI: 0.02584
PSCL3 TRANSLATION FROM L1D PREFETCHER DATA	ACCESS:       2546  HIT:          0  MISS:       2546  HIT %:          0  MISS %:        100  MPKI: 0.05092


PSCL2 TOTAL     ACCESS:      11368  HIT:       5622  MISS:       5746  HIT %:    49.4546  MISS %:    50.5454   MPKI: 0.11492
PSCL2 LOAD TRANSLATION INSTRUCTION	ACCESS:       2192  HIT:       2006  MISS:        186  HIT %:    91.5146  MISS %:     8.4854  MPKI: 0.00372
PSCL2 TRANSLATION FROM L1D PREFETCHER INSTRUCTION	ACCESS:       7177  HIT:       3616  MISS:       3561  HIT %:    50.3832  MISS %:    49.6168  MPKI: 0.07122
PSCL2 LOAD TRANSLATION DATA	ACCESS:       1944  HIT:          0  MISS:       1944  HIT %:          0  MISS %:        100  MPKI: 0.03888
PSCL2 TRANSLATION FROM L1D PREFETCHER DATA	ACCESS:         55  HIT:          0  MISS:         55  HIT %:          0  MISS %:        100  MPKI: 0.0011


LLC TOTAL     ACCESS:    1064032  HIT:    1034049  MISS:      29983  HIT %:    97.1821  MISS %:    2.81787   MPKI: 0.59966
LLC LOAD INSTRUCTION	ACCESS:      88612  HIT:      88064  MISS:        548  HIT %:    99.3816  MISS %:   0.618426  MPKI: 0.01096
LLC PREFETCH INSTRUCTION	ACCESS:     366707  HIT:     366158  MISS:        549  HIT %:    99.8503  MISS %:   0.149711  MPKI: 0.01098
LLC LOAD TRANSLATION INSTRUCTION	ACCESS:        145  HIT:        107  MISS:         38  HIT %:    73.7931  MISS %:    26.2069  MPKI: 0.00076
LLC TRANSLATION FROM L1D PREFETCHER INSTRUCTION	ACCESS:        203  HIT:        193  MISS:         10  HIT %:    95.0739  MISS %:    4.92611  MPKI: 0.0002
LLC LOAD DATA	ACCESS:     142064  HIT:     138131  MISS:       3933  HIT %:    97.2315  MISS %:    2.76847  MPKI: 0.07866
LLC RFO DATA	ACCESS:      80728  HIT:      67287  MISS:      13441  HIT %:    83.3503  MISS %:    16.6497  MPKI: 0.26882
LLC PREFETCH DATA	ACCESS:     254380  HIT:     243294  MISS:      11086  HIT %:     95.642  MISS %:    4.35805  MPKI: 0.22172
LLC WRITEBACK DATA	ACCESS:     129624  HIT:     129339  MISS:        285  HIT %:    99.7801  MISS %:   0.219867  MPKI: 0.0057
LLC LOAD TRANSLATION DATA	ACCESS:       1553  HIT:       1460  MISS:         93  HIT %:    94.0116  MISS %:    5.98841  MPKI: 0.00186
LLC TRANSLATION FROM L1D PREFETCHER DATA	ACCESS:         16  HIT:         16  MISS:          0  HIT %:        100  MISS %:          0  MPKI: 0

LLC AVERAGE MISS LATENCY: 157.971 cycles
LLC RQ	ACCESS:     313331	FORWARD:          0	MERGED:          0	TO_CACHE:     313323
LLC WQ	ACCESS:     129624	FORWARD:         11	MERGED:          0	TO_CACHE:     129624
LLC PQ	ACCESS:     621091	FORWARD:          0	MERGED:          0	TO_CACHE:     621088

LLC Dense regions hint to LLC: 0

RAW hits: 1934916
Loads Generated: 12637746
Loads sent to L1D: 10702830
Stores Generated: 6955235
Stores sent to L1D: 6955247
Major fault: 0 Minor fault: 2552
Allocated PAGES: 2552
I-Shadow cache 408 bytes
Touched + WorthPF tables 12288 bytes 
MMA filter 174 bytes 
FNL filter 272 bytes 
TOTAL PREFETCHER STORAGE SIZE: 31318 bytes
CPU 0 L1I next line prefetcher final stats

stream: 
stream:times selected: 1175962
stream:pref_filled: 116565
stream:pref_useful: 21986
stream:pref_late: 6722
stream:misses: 6853
stream:misses_by_poll: 0

CS: 
CS:times selected: 176042
CS:pref_filled: 53116
CS:pref_useful: 27811
CS:pref_late: 12562
CS:misses: 21795
CS:misses_by_poll: 6

CPLX: 
CPLX:times selected: 998512
CPLX:pref_filled: 19490
CPLX:pref_useful: 3719
CPLX:pref_late: 3149
CPLX:misses: 89365
CPLX:misses_by_poll: 2

NL_L1: 
NL:times selected: 19219
NL:pref_filled: 486
NL:pref_useful: 172
NL:pref_late: 202
NL:misses: 1022
NL:misses_by_poll: 0

total selections: 2369735
total_filled: 92975
total_useful: 31865
total_late: 24176
total_polluted: 8
total_misses_after_warmup: 779900
conflicts: 5569738

test: 112398

DRAM Statistics
 CHANNEL 0
 RQ ROW_BUFFER_HIT:      10504  ROW_BUFFER_MISS:      19189
 DBUS_CONGESTED:         15
 WQ ROW_BUFFER_HIT:       1530  ROW_BUFFER_MISS:      12525  FULL:          0

 AVG_CONGESTED_CYCLE: 6

CPU 0 Branch Prediction Accuracy: 99.8161% MPKI: 0.33636 Average ROB Occupancy at Mispredict: 184.644
Branch types
NOT_BRANCH: 40854596 81.7092%
BRANCH_DIRECT_JUMP: 548886 1.09777%
BRANCH_INDIRECT: 183185 0.36637%
BRANCH_CONDITIONAL: 6178572 12.3571%
BRANCH_DIRECT_CALL: 945682 1.89136%
BRANCH_INDIRECT_CALL: 171595 0.34319%
BRANCH_RETURN: 1117270 2.23454%
BRANCH_OTHER: 0 0%

DRAM PAGES: 1048576
Allocated PAGES: 2552
Average_ROB_Occupancy: 217.441
Average_Decode_Occupancy: 25.9875
Average_FTQ_Occupancy: 8.69727
Indirect max targets: 14 Average targets: 1.15878
Branch_type:  BRANCH_DIRECT_JUMP:  Count Percentage: 2.90445 7.06577 3.67387 9.84561 1.96611 6.3021 0.992401 67.2497 
Branch_type:  BRANCH_INDIRECT:  Count Percentage: 11.7648 3.43858 3.74614 0 1.33894 9.67141 19.2161 50.8241 
Branch_type:  BRANCH_CONDITIONAL:  Count Percentage: 21.694 6.34182 1.8039 8.48605 1.39315 5.44798 1.89693 52.9362 
Branch_type:  BRANCH_DIRECT_CALL:  Count Percentage: 0.766559 1.30145 1.42967 4.67873 2.44875 2.56093 0.886311 85.9276 
Branch_type:  BRANCH_INDIRECT_CALL:  Count Percentage: 9.57241 0.5703 3.00041 4.85527 0 2.26634 1.28514 78.4501 
Branch_type:  BRANCH_RETURN:  Count Percentage: 4.28475 4.27486 1.27147 8.89613 2.1287 7.12889 3.06906 68.9461 
Branch_type:  BRANCH_DIRECT_JUMP:  Total Count: 31860 77507 40300 108000 21567 69130 10886 737686 
Branch_type:  BRANCH_INDIRECT:  Total Count: 43072 12589 13715 0 4902 35408 70352 186072 
Branch_type:  BRANCH_CONDITIONAL:  Total Count: 2679373 783263 222795 1048092 172065 672867 234285 6538029 
Branch_type:  BRANCH_DIRECT_CALL:  Total Count: 14486 24594 27017 88416 46275 48395 16749 1623811 
Branch_type:  BRANCH_INDIRECT_CALL:  Total Count: 32848 1957 10296 16661 0 7777 4410 269204 
Branch_type:  BRANCH_RETURN:  Total Count: 95709 95488 28401 198714 47549 159239 68554 1540059 
Number of unique branch instructions: 10248
Upper 32 bits: 
aaaa
ffff
ffff0000
Unique upper 32 bits: 3
Unique upper 36 bits: 3
Unique upper 40 bits: 5
Unique upper 44 bits: 32
Unique upper 48 bits: 153
Offset_3 4259
Offset_4 250
Offset_5 460
Offset_6 516
Offset_7 611
Offset_8 533
Offset_9 479
Offset_10 397
Offset_11 337
Offset_12 299
Offset_13 221
Offset_14 240
Offset_15 195
Offset_16 224
Offset_17 155
Offset_18 134
Offset_19 243
Offset_20 141
Offset_21 235
Offset_22 405
Offset_23 241
Offset_24 336
Offset_25 92
Offset_47 84
Offset_64 1
decode_dispatch_called: 25066958 67.4097
Dispatch_width: 0 13525472 53.9574 36.3725
Dispatch_width: 1 887384 3.54005 2.38634
Dispatch_width: 2 918125 3.66269 2.46901
Dispatch_width: 3 593342 2.36703 1.59561
Dispatch_width: 4 4533329 18.0849 12.191
Dispatch_width: 5 292995 1.16885 0.787918
Dispatch_width: 6 4316311 17.2191 11.6074
Empty_decode_cycles: 12119020 32.5903
ROB_full_cycles: 7001083 18.8272
Starvation_cycles_per_kilo_instr: 258.686
Starvation_cycles_per_kilo_instr_3: 210.423
Starvation_cycles_per_kilo_instr_0: 186.434
Branch_type_1  (3,1)  (4,7)  (5,36)  (6,71)  (7,121)  (8,130)  (9,126)  (10,103)  (11,76)  (12,51)  (13,8)  (14,2)  (15,3)  (16,4)  (18,1)  (19,4)  (20,2)  (21,1)  (22,3)  (23,2)  (24,10)  (25,12) 
Branch_type_2  (3,1)  (4,1)  (5,1)  (8,3)  (9,3)  (12,1)  (13,1)  (14,1)  (16,3)  (17,2)  (20,2)  (21,2)  (23,5)  (24,1)  (47,39) 
Branch_type_3  (3,4257)  (4,242)  (5,419)  (6,429)  (7,459)  (8,339)  (9,261)  (10,160)  (11,137)  (12,58)  (13,7)  (64,1) 
Branch_type_4  (6,4)  (7,8)  (8,26)  (9,52)  (10,63)  (11,63)  (12,105)  (13,94)  (14,108)  (15,93)  (16,101)  (17,71)  (18,62)  (19,119)  (20,72)  (21,124)  (22,216)  (23,136)  (24,197)  (25,76) 
Branch_type_5  (8,2)  (9,1)  (10,4)  (11,5)  (12,3)  (13,14)  (14,16)  (15,11)  (16,20)  (17,11)  (18,16)  (19,12)  (20,11)  (21,13)  (22,42)  (23,26)  (24,36) 
Branch_type_6  (5,4)  (6,12)  (7,23)  (8,33)  (9,36)  (10,67)  (11,56)  (12,81)  (13,97)  (14,113)  (15,88)  (16,96)  (17,71)  (18,55)  (19,108)  (20,54)  (21,95)  (22,144)  (23,72)  (24,92)  (25,4)  (47,45) 
Unique trigger count: 
L2BTB1 1536 4
L2BTB2 1536 4
L2BTB3 1536 4
L2BTB4 224 4
