
*** ChampSim Multicore Out-of-Order Simulator ***

Warmup Instructions: 50000000
Simulation Instructions: 50000000
Number of CPUs: 1
LLC sets: 2048
LLC ways: 16
Off-chip DRAM Size: 4096 MB Channels: 1 Width: 64-bit Data Rate: 6400 MT/s
CPU 0 runs ./micro_traces/srv109.trace.gz
.gz
ITLB has LRU replacement policy
DTLB has LRU replacement policy
STLB has LRU replacement policy
CPU 0 L1I next line prefetcher
./conditional/srv109.cond
L1I has LRU replacement policy
L1D has LRU replacement policy
Initialize SRRIP state for L2C
Initialize DRRIP state for LLC
Heartbeat_Variant_0 : 1405 0.171509 per_variant_size: 0 1405 0 0 0 0 0 0 0 
Heartbeat_Variant_1 : 1487 0.181519 per_variant_size: 0 979 508 0 0 0 0 0 0 
Heartbeat_Variant_2 : 1757 0.214478 per_variant_size: 0 981 468 259 49 0 0 0 0 
Heartbeat_Variant_3 : 0 0 per_variant_size: 0 0 0 0 0 0 0 0 0 
Heartbeat_Variant_0_evicts 0 : 5392 1 : 8 2 : 5 3 : 0 
Heartbeat_Variant_1_evicts 0 : 6 1 : 0 2 : 253 3 : 0 
Heartbeat_Variant_2_evicts 0 : 7 1 : 253 2 : 0 3 : 0 
Heartbeat_Variant_3_evicts 0 : 0 1 : 0 2 : 0 3 : 0 
Heartbeat CPU 0 instructions: 10000001 cycles: 2797939 heartbeat IPC: 3.57406 cumulative IPC: 3.57406 (Simulation time: 0 hr 1 min 53 sec) 
Heartbeat_Variant_0 : 1405 0.171509 per_variant_size: 0 1405 0 0 0 0 0 0 0 
Heartbeat_Variant_1 : 1490 0.181885 per_variant_size: 0 979 511 0 0 0 0 0 0 
Heartbeat_Variant_2 : 1759 0.214722 per_variant_size: 0 982 468 277 32 0 0 0 0 
Heartbeat_Variant_3 : 0 0 per_variant_size: 0 0 0 0 0 0 0 0 0 
Heartbeat_Variant_0_evicts 0 : 5559 1 : 0 2 : 1 3 : 0 
Heartbeat_Variant_1_evicts 0 : 0 1 : 0 2 : 241 3 : 0 
Heartbeat_Variant_2_evicts 0 : 1 1 : 241 2 : 0 3 : 0 
Heartbeat_Variant_3_evicts 0 : 0 1 : 0 2 : 0 3 : 0 
Heartbeat CPU 0 instructions: 20000003 cycles: 5594186 heartbeat IPC: 3.57622 cumulative IPC: 3.57514 (Simulation time: 0 hr 3 min 34 sec) 
Heartbeat_Variant_0 : 1436 0.175293 per_variant_size: 0 1436 0 0 0 0 0 0 0 
Heartbeat_Variant_1 : 1539 0.187866 per_variant_size: 0 991 548 0 0 0 0 0 0 
Heartbeat_Variant_2 : 1778 0.217041 per_variant_size: 0 980 481 257 60 0 0 0 0 
Heartbeat_Variant_3 : 0 0 per_variant_size: 0 0 0 0 0 0 0 0 0 
Heartbeat_Variant_0_evicts 0 : 5504 1 : 4 2 : 1 3 : 0 
Heartbeat_Variant_1_evicts 0 : 2 1 : 0 2 : 241 3 : 0 
Heartbeat_Variant_2_evicts 0 : 2 1 : 240 2 : 0 3 : 0 
Heartbeat_Variant_3_evicts 0 : 0 1 : 0 2 : 0 3 : 0 
Heartbeat CPU 0 instructions: 30000001 cycles: 8391626 heartbeat IPC: 3.5747 cumulative IPC: 3.57499 (Simulation time: 0 hr 5 min 20 sec) 
Heartbeat_Variant_0 : 1436 0.175293 per_variant_size: 0 1436 0 0 0 0 0 0 0 
Heartbeat_Variant_1 : 1543 0.188354 per_variant_size: 0 994 549 0 0 0 0 0 0 
Heartbeat_Variant_2 : 1782 0.217529 per_variant_size: 0 984 481 269 48 0 0 0 0 
Heartbeat_Variant_3 : 0 0 per_variant_size: 0 0 0 0 0 0 0 0 0 
Heartbeat_Variant_0_evicts 0 : 5503 1 : 0 2 : 2 3 : 0 
Heartbeat_Variant_1_evicts 0 : 0 1 : 0 2 : 243 3 : 0 
Heartbeat_Variant_2_evicts 0 : 2 1 : 244 2 : 0 3 : 0 
Heartbeat_Variant_3_evicts 0 : 0 1 : 0 2 : 0 3 : 0 
Heartbeat CPU 0 instructions: 40000003 cycles: 11188827 heartbeat IPC: 3.575 cumulative IPC: 3.575 (Simulation time: 0 hr 6 min 59 sec) 
Heartbeat_Variant_0 : 1436 0.175293 per_variant_size: 0 1436 0 0 0 0 0 0 0 
Heartbeat_Variant_1 : 1543 0.188354 per_variant_size: 0 994 549 0 0 0 0 0 0 
Heartbeat_Variant_2 : 1783 0.217651 per_variant_size: 0 985 481 270 47 0 0 0 0 
Heartbeat_Variant_3 : 0 0 per_variant_size: 0 0 0 0 0 0 0 0 0 
Heartbeat_Variant_0_evicts 0 : 5511 1 : 0 2 : 0 3 : 0 
Heartbeat_Variant_1_evicts 0 : 0 1 : 0 2 : 250 3 : 0 
Heartbeat_Variant_2_evicts 0 : 0 1 : 250 2 : 0 3 : 0 
Heartbeat_Variant_3_evicts 0 : 0 1 : 0 2 : 0 3 : 0 
Heartbeat CPU 0 instructions: 50000000 cycles: 13986751 heartbeat IPC: 3.57408 cumulative IPC: 3.57481 (Simulation time: 0 hr 8 min 43 sec) 

Warmup complete CPU 0 instructions: 50000004 cycles: 13986752 (Simulation time: 0 hr 8 min 43 sec) 

Cycle: 20000000 FTQ IN: 58151742 FTQ occupancy: 19.6473 DECODE IN: 58151729 DECODE occupancy: 51.4357 ROB IN: 58151675 ROB occupancy: 313.191 ROB OUT: 58151475
Heartbeat_Variant_0 : 1448 0.176758 per_variant_size: 0 1448 0 0 0 0 0 0 0 
Heartbeat_Variant_1 : 1567 0.191284 per_variant_size: 0 1006 561 0 0 0 0 0 0 
Heartbeat_Variant_2 : 1790 0.218506 per_variant_size: 0 982 486 276 46 0 0 0 0 
Heartbeat_Variant_3 : 0 0 per_variant_size: 0 0 0 0 0 0 0 0 0 
Heartbeat_Variant_0_evicts 0 : 5566 1 : 2 2 : 2 3 : 0 
Heartbeat_Variant_1_evicts 0 : 2 1 : 0 2 : 244 3 : 0 
Heartbeat_Variant_2_evicts 0 : 2 1 : 243 2 : 0 3 : 0 
Heartbeat_Variant_3_evicts 0 : 0 1 : 0 2 : 0 3 : 0 
Heartbeat CPU 0 instructions: 60000000 cycles: 21369684 heartbeat IPC: 1.35448 cumulative IPC: 1.35447 (Simulation time: 0 hr 10 min 34 sec) 
Heartbeat_Variant_0 : 1449 0.17688 per_variant_size: 0 1449 0 0 0 0 0 0 0 
Heartbeat_Variant_1 : 1567 0.191284 per_variant_size: 0 1006 561 0 0 0 0 0 0 
Heartbeat_Variant_2 : 1790 0.218506 per_variant_size: 0 983 486 256 65 0 0 0 0 
Heartbeat_Variant_3 : 0 0 per_variant_size: 0 0 0 0 0 0 0 0 0 
Heartbeat_Variant_0_evicts 0 : 5544 1 : 0 2 : 1 3 : 0 
Heartbeat_Variant_1_evicts 0 : 0 1 : 0 2 : 247 3 : 0 
Heartbeat_Variant_2_evicts 0 : 1 1 : 247 2 : 0 3 : 0 
Heartbeat_Variant_3_evicts 0 : 0 1 : 0 2 : 0 3 : 0 
Heartbeat CPU 0 instructions: 70000001 cycles: 28757553 heartbeat IPC: 1.35357 cumulative IPC: 1.35402 (Simulation time: 0 hr 12 min 28 sec) 
Cycle: 30000000 FTQ IN: 13555493 FTQ occupancy: 12.1554 DECODE IN: 13555436 DECODE occupancy: 32.1363 ROB IN: 13555430 ROB occupancy: 235.723 ROB OUT: 13555282
Heartbeat_Variant_0 : 1449 0.17688 per_variant_size: 0 1449 0 0 0 0 0 0 0 
Heartbeat_Variant_1 : 1569 0.191528 per_variant_size: 0 1008 561 0 0 0 0 0 0 
Heartbeat_Variant_2 : 1790 0.218506 per_variant_size: 0 983 486 259 62 0 0 0 0 
Heartbeat_Variant_3 : 0 0 per_variant_size: 0 0 0 0 0 0 0 0 0 
Heartbeat_Variant_0_evicts 0 : 5699 1 : 0 2 : 0 3 : 0 
Heartbeat_Variant_1_evicts 0 : 0 1 : 0 2 : 237 3 : 0 
Heartbeat_Variant_2_evicts 0 : 0 1 : 237 2 : 0 3 : 0 
Heartbeat_Variant_3_evicts 0 : 0 1 : 0 2 : 0 3 : 0 
Heartbeat CPU 0 instructions: 80000002 cycles: 36031919 heartbeat IPC: 1.37469 cumulative IPC: 1.36084 (Simulation time: 0 hr 14 min 18 sec) 
Cycle: 40000000 FTQ IN: 13756762 FTQ occupancy: 12.1485 DECODE IN: 13756797 DECODE occupancy: 32.2441 ROB IN: 13756836 ROB occupancy: 236.606 ROB OUT: 13756832
Heartbeat_Variant_0 : 1449 0.17688 per_variant_size: 0 1449 0 0 0 0 0 0 0 
Heartbeat_Variant_1 : 1570 0.19165 per_variant_size: 0 1010 560 0 0 0 0 0 0 
Heartbeat_Variant_2 : 1789 0.218384 per_variant_size: 0 982 486 255 66 0 0 0 0 
Heartbeat_Variant_3 : 0 0 per_variant_size: 0 0 0 0 0 0 0 0 0 
Heartbeat_Variant_0_evicts 0 : 5603 1 : 0 2 : 0 3 : 0 
Heartbeat_Variant_1_evicts 0 : 0 1 : 0 2 : 243 3 : 0 
Heartbeat_Variant_2_evicts 0 : 0 1 : 242 2 : 0 3 : 0 
Heartbeat_Variant_3_evicts 0 : 0 1 : 0 2 : 0 3 : 0 
Heartbeat CPU 0 instructions: 90000002 cycles: 43397092 heartbeat IPC: 1.35774 cumulative IPC: 1.36007 (Simulation time: 0 hr 16 min 11 sec) 
Cycle: 50000000 FTQ IN: 13586102 FTQ occupancy: 12.2784 DECODE IN: 13586137 DECODE occupancy: 32.5164 ROB IN: 13586158 ROB occupancy: 237.931 ROB OUT: 13586492
Heartbeat_Variant_0 : 1459 0.178101 per_variant_size: 0 1459 0 0 0 0 0 0 0 
Heartbeat_Variant_1 : 1573 0.192017 per_variant_size: 0 1006 567 0 0 0 0 0 0 
Heartbeat_Variant_2 : 1794 0.218994 per_variant_size: 0 985 485 272 52 0 0 0 0 
Heartbeat_Variant_3 : 0 0 per_variant_size: 0 0 0 0 0 0 0 0 0 
Heartbeat_Variant_0_evicts 0 : 5624 1 : 0 2 : 1 3 : 0 
Heartbeat_Variant_1_evicts 0 : 0 1 : 0 2 : 242 3 : 0 
Heartbeat_Variant_2_evicts 0 : 0 1 : 243 2 : 0 3 : 0 
Heartbeat_Variant_3_evicts 0 : 0 1 : 0 2 : 0 3 : 0 
Heartbeat CPU 0 instructions: 100000001 cycles: 50694483 heartbeat IPC: 1.37035 cumulative IPC: 1.36211 (Simulation time: 0 hr 17 min 29 sec) 
Finished CPU 0 instructions: 50000001 cycles: 36707732 cumulative IPC: 1.36211 (Simulation time: 0 hr 17 min 29 sec) 

ChampSim completed all CPUs

Region of Interest Statistics

CPU 0 cumulative IPC: 1.36211 instructions: 50000001 cycles: 36707732
 Fetch stage stalled: 55.6151  Sim cycles: 36707732 fetch stall cycle: 20415051
 Empty decode stage: 36.7912  Sim cycles: 36707732 fetch stall cycle: 13505201
ITLB TOTAL     ACCESS:    6909332  HIT:    6403525  MISS:     505807  HIT %:    92.6794  MISS %:    7.32064   MPKI: 10.1161
ITLB LOAD TRANSLATION INSTRUCTION	ACCESS:    5677043  HIT:    5191152  MISS:     485891  HIT %:    91.4411  MISS %:    8.55887  MPKI: 9.71782
ITLB TRANSLATION FROM L1D PREFETCHER INSTRUCTION	ACCESS:    1232289  HIT:    1212373  MISS:      19916  HIT %:    98.3838  MISS %:    1.61618  MPKI: 0.39832

ITLB AVERAGE MISS LATENCY: 67541 cycles
ITLB RQ	ACCESS:   10172423	FORWARD:          0	MERGED:    2783720	TO_CACHE:    7388703

DTLB TOTAL     ACCESS:    8975116  HIT:    8502211  MISS:     472905  HIT %:    94.7309  MISS %:    5.26907   MPKI: 9.4581
DTLB LOAD TRANSLATION DATA	ACCESS:    8975116  HIT:    8502211  MISS:     472905  HIT %:    94.7309  MISS %:    5.26907  MPKI: 9.4581

DTLB AVERAGE MISS LATENCY: 9.37732 cycles
DTLB RQ	ACCESS:   13365294	FORWARD:          0	MERGED:    4351798	TO_CACHE:    9013496

STLB TOTAL     ACCESS:    1228636  HIT:    1226339  MISS:       2297  HIT %:     99.813  MISS %:   0.186955   MPKI: 0.04594
STLB LOAD TRANSLATION INSTRUCTION	ACCESS:     484833  HIT:     484576  MISS:        257  HIT %:     99.947  MISS %:  0.0530079  MPKI: 0.00514
STLB TRANSLATION FROM L1D PREFETCHER INSTRUCTION	ACCESS:      20974  HIT:      20905  MISS:         69  HIT %:     99.671  MISS %:   0.328979  MPKI: 0.00138
STLB LOAD TRANSLATION DATA	ACCESS:     472904  HIT:     470960  MISS:       1944  HIT %:    99.5889  MISS %:   0.411077  MPKI: 0.03888
STLB TRANSLATION FROM L1D PREFETCHER DATA	ACCESS:     249925  HIT:     249898  MISS:         27  HIT %:    99.9892  MISS %:  0.0108032  MPKI: 0.00054

STLB AVERAGE MISS LATENCY: 75.0157 cycles
STLB RQ	ACCESS:    1378376	FORWARD:          0	MERGED:     119817	TO_CACHE:    1258559

STLB Hit, L1D data hit: 0
STLB Hit, L2C data hit: 0
STLB Hit, LLC data hit: 0
STLB Hit, LLC data miss: 0
STLB STLB hints to L2: 0
L1D TOTAL     ACCESS:   13116067  HIT:   12001626  MISS:    1114441  HIT %:    91.5032  MISS %:    8.49676   MPKI: 22.2888
L1D LOAD DATA	ACCESS:    6576834  HIT:    5842769  MISS:     734065  HIT %:    88.8386  MISS %:    11.1614  MPKI: 14.6813
L1D RFO DATA	ACCESS:    6207741  HIT:    5921852  MISS:     285889  HIT %:    95.3946  MISS %:    4.60536  MPKI: 5.71778
L1D PREFETCH DATA	ACCESS:     331492  HIT:     237005  MISS:      94487  HIT %:    71.4964  MISS %:    28.5036  MPKI: 1.88974

L1D PREFETCH  REQUESTED:     740066  ISSUED:     740066  USEFUL:      32721  USELESS:      69726
L1D USEFUL LOAD PREFETCHES:      32721 PREFETCH ISSUED TO LOWER LEVEL:     102558  ACCURACY: 31.9049
 TIMELY PREFETCHES:      32721 LATE PREFETCHES: 7977 DROPPED PREFETCHES: 8
L1D AVERAGE MISS LATENCY: 237324 cycles
L1D RQ	ACCESS:   10690638	FORWARD:          0	MERGED:    3912427	TO_CACHE:    6615186
L1D WQ	ACCESS:    6947098	FORWARD:     163519	MERGED:     196990	TO_CACHE:    6750108
L1D PQ	ACCESS:     370280	FORWARD:          0	MERGED:          0	TO_CACHE:     369786

L1D UNIQUE REGIONS ACCESSED: 0
L1D REGIONS CONFLICTS: 0
L1D Cross Page Prefetch Requests: 5982
L1D Same Page Prefetch Requests: 746573
L1D ROI Sum of L1D PQ occupancy: 4703537
L1D PREFETCHES PUSHED FROM L2C: 0
L1I TOTAL     ACCESS:    8773511  HIT:    5452805  MISS:    3320706  HIT %:    62.1508  MISS %:    37.8492   MPKI: 66.4141
L1I LOAD INSTRUCTION	ACCESS:    6557853  HIT:    4433186  MISS:    2124667  HIT %:    67.6012  MISS %:    32.3988  MPKI: 42.4933
L1I PREFETCH INSTRUCTION	ACCESS:    2215658  HIT:    1019619  MISS:    1196039  HIT %:    46.0188  MISS %:    53.9812  MPKI: 23.9208

L1I PREFETCH  REQUESTED:    3940528  ISSUED:    3936611  USEFUL:     937563  USELESS:     494556
L1I USEFUL LOAD PREFETCHES:     937563 PREFETCH ISSUED TO LOWER LEVEL:    1432106  ACCURACY: 65.4674
 TIMELY PREFETCHES:     937563 LATE PREFETCHES: 236067 DROPPED PREFETCHES: 70933
L1I AVERAGE MISS LATENCY: 2.30303e+06 cycles
L1I RQ	ACCESS:    9492930	FORWARD:          0	MERGED:    2721123	TO_CACHE:    6771807
L1I PQ	ACCESS:    3936611	FORWARD:          0	MERGED:     535995	TO_CACHE:    3400616

L1BTB TOTAL     ACCESS:    5674919  HIT:    2046129  MISS:    3628790  HIT %:    36.0557  MISS %:    63.9443   MPKI: 72.5758
L1BTB BRANCH_DIRECT_JUMP	ACCESS:     549424  HIT:     144979  MISS:     404445	AVERAGE STALL: 44.5523
L1BTB BRANCH_INDIRECT	ACCESS:     183349  HIT:      66300  MISS:     117049	AVERAGE STALL: 103.322
L1BTB BRANCH_CONDITIONAL	ACCESS:    2714164  HIT:    1420552  MISS:    1293612	AVERAGE STALL: 60.4971
L1BTB BRANCH_DIRECT_CALL	ACCESS:     942884  HIT:     104285  MISS:     838599	AVERAGE STALL: 61.7312
L1BTB BRANCH_INDIRECT_CALL	ACCESS:     171110  HIT:      20866  MISS:     150244	AVERAGE STALL: 131.963
L1BTB BRANCH_RETURN	ACCESS:    1113988  HIT:     289147  MISS:     824841	AVERAGE STALL: 49.613
L1BTB BRANCH_OTHER ACCESS:          0  HIT:          0  MISS:          0	AVERAGE STALL: -nan
L1BTB TOTAL ROB OCCUPANCY AT BTB MISS: 3.56677

L2BTB TOTAL     ACCESS:    3603265  HIT:    3521455  MISS:      81810  HIT %:    97.7296  MISS %:    2.27044   MPKI: 1.6362
L2BTB BRANCH_DIRECT_JUMP	ACCESS:     400228  HIT:     395695  MISS:       4533	AVERAGE STALL: 44.5523
L2BTB BRANCH_INDIRECT	ACCESS:     106760  HIT:     104117  MISS:       2643	AVERAGE STALL: 103.322
L2BTB BRANCH_CONDITIONAL	ACCESS:    1293611  HIT:    1276884  MISS:      16727	AVERAGE STALL: 60.4971
L2BTB BRANCH_DIRECT_CALL	ACCESS:     838598  HIT:     837711  MISS:        887	AVERAGE STALL: 61.7312
L2BTB BRANCH_INDIRECT_CALL	ACCESS:     140666  HIT:     130667  MISS:       9999	AVERAGE STALL: 131.963
L2BTB BRANCH_RETURN	ACCESS:     823402  HIT:     776381  MISS:      47021	AVERAGE STALL: 49.613
L2BTB BRANCH_OTHER ACCESS:          0  HIT:          0  MISS:          0	AVERAGE STALL: -nan
L2BTB TOTAL ROB OCCUPANCY AT BTB MISS: 158.209

L2C TOTAL     ACCESS:    5703727  HIT:    4866100  MISS:     837627  HIT %:    85.3144  MISS %:    14.6856   MPKI: 16.7525
L2C LOAD INSTRUCTION	ACCESS:    1888600  HIT:    1643526  MISS:     245074  HIT %:    87.0235  MISS %:    12.9765  MPKI: 4.90148
L2C PREFETCH INSTRUCTION	ACCESS:    1432106  HIT:    1249314  MISS:     182792  HIT %:    87.2361  MISS %:    12.7639  MPKI: 3.65584
L2C LOAD TRANSLATION INSTRUCTION	ACCESS:        289  HIT:         87  MISS:        202  HIT %:    30.1038  MISS %:    69.8962  MPKI: 0.00404
L2C TRANSLATION FROM L1D PREFETCHER INSTRUCTION	ACCESS:      43670  HIT:      29307  MISS:      14363  HIT %:    67.1101  MISS %:    32.8899  MPKI: 0.28726
L2C LOAD DATA	ACCESS:     726077  HIT:     603168  MISS:     122909  HIT %:    83.0722  MISS %:    16.9278  MPKI: 2.45818
L2C RFO DATA	ACCESS:     285768  HIT:     223223  MISS:      62545  HIT %:    78.1134  MISS %:    21.8866  MPKI: 1.2509
L2C PREFETCH DATA	ACCESS:     801007  HIT:     617086  MISS:     183921  HIT %:    77.0388  MISS %:    22.9612  MPKI: 3.67842
L2C WRITEBACK DATA	ACCESS:     524141  HIT:     499968  MISS:      24173  HIT %:    95.3881  MISS %:    4.61193  MPKI: 0.48346
L2C LOAD TRANSLATION DATA	ACCESS:       2017  HIT:        384  MISS:       1633  HIT %:    19.0382  MISS %:    80.9618  MPKI: 0.03266
L2C TRANSLATION FROM L1D PREFETCHER DATA	ACCESS:         52  HIT:         37  MISS:         15  HIT %:    71.1538  MISS %:    28.8462  MPKI: 0.0003

L2C PREFETCH  REQUESTED:    1504663  ISSUED:    1504663  USEFUL:      31096  USELESS:     352911
L2C USEFUL LOAD PREFETCHES:      31096 PREFETCH ISSUED TO LOWER LEVEL:     368898  ACCURACY: 8.42943
 TIMELY PREFETCHES:      31096 LATE PREFETCHES: 2185 DROPPED PREFETCHES: 0
L2C AVERAGE MISS LATENCY: 35.3381 cycles
L2C RQ	ACCESS:    2946511	FORWARD:          0	MERGED:          0	TO_CACHE:    2946473
L2C WQ	ACCESS:     524141	FORWARD:         38	MERGED:          0	TO_CACHE:     524141
L2C PQ	ACCESS:    3039327	FORWARD:          0	MERGED:     788627	TO_CACHE:    2250700

L2C Dense regions hint from L2: 0
PSCL5 TOTAL     ACCESS:      64374  HIT:      32187  MISS:      32187  HIT %:         50  MISS %:         50   MPKI: 0.64374
PSCL5 LOAD TRANSLATION INSTRUCTION	ACCESS:       4376  HIT:       2188  MISS:       2188  HIT %:         50  MISS %:         50  MPKI: 0.04376
PSCL5 TRANSLATION FROM L1D PREFETCHER INSTRUCTION	ACCESS:      59998  HIT:      29999  MISS:      29999  HIT %:         50  MISS %:         50  MPKI: 0.59998


PSCL4 TOTAL     ACCESS:      62809  HIT:      31400  MISS:      31409  HIT %:    49.9928  MISS %:    50.0072   MPKI: 0.62818
PSCL4 LOAD TRANSLATION INSTRUCTION	ACCESS:       3788  HIT:       2100  MISS:       1688  HIT %:    55.4382  MISS %:    44.5618  MPKI: 0.03376
PSCL4 TRANSLATION FROM L1D PREFETCHER INSTRUCTION	ACCESS:      52164  HIT:      29300  MISS:      22864  HIT %:     56.169  MISS %:     43.831  MPKI: 0.45728
PSCL4 LOAD TRANSLATION DATA	ACCESS:        421  HIT:          0  MISS:        421  HIT %:          0  MISS %:        100  MPKI: 0.00842
PSCL4 TRANSLATION FROM L1D PREFETCHER DATA	ACCESS:       6436  HIT:          0  MISS:       6436  HIT %:          0  MISS %:        100  MPKI: 0.12872


PSCL3 TOTAL     ACCESS:      62873  HIT:      31432  MISS:      31441  HIT %:    49.9928  MISS %:    50.0072   MPKI: 0.62882
PSCL3 LOAD TRANSLATION INSTRUCTION	ACCESS:       3820  HIT:       2132  MISS:       1688  HIT %:    55.8115  MISS %:    44.1885  MPKI: 0.03376
PSCL3 TRANSLATION FROM L1D PREFETCHER INSTRUCTION	ACCESS:      52164  HIT:      29300  MISS:      22864  HIT %:     56.169  MISS %:     43.831  MPKI: 0.45728
PSCL3 LOAD TRANSLATION DATA	ACCESS:        453  HIT:          0  MISS:        453  HIT %:          0  MISS %:        100  MPKI: 0.00906
PSCL3 TRANSLATION FROM L1D PREFETCHER DATA	ACCESS:       6436  HIT:          0  MISS:       6436  HIT %:          0  MISS %:        100  MPKI: 0.12872


PSCL2 TOTAL     ACCESS:      38963  HIT:      19423  MISS:      19540  HIT %:    49.8499  MISS %:    50.1501   MPKI: 0.3908
PSCL2 LOAD TRANSLATION INSTRUCTION	ACCESS:       2355  HIT:       2083  MISS:        272  HIT %:    88.4501  MISS %:    11.5499  MPKI: 0.00544
PSCL2 TRANSLATION FROM L1D PREFETCHER INSTRUCTION	ACCESS:      33317  HIT:      17340  MISS:      15977  HIT %:    52.0455  MISS %:    47.9545  MPKI: 0.31954
PSCL2 LOAD TRANSLATION DATA	ACCESS:       1928  HIT:          0  MISS:       1928  HIT %:          0  MISS %:        100  MPKI: 0.03856
PSCL2 TRANSLATION FROM L1D PREFETCHER DATA	ACCESS:       1363  HIT:          0  MISS:       1363  HIT %:          0  MISS %:        100  MPKI: 0.02726


LLC TOTAL     ACCESS:     916927  HIT:     884846  MISS:      32081  HIT %:    96.5012  MISS %:    3.49875   MPKI: 0.64162
LLC LOAD INSTRUCTION	ACCESS:     243554  HIT:     242893  MISS:        661  HIT %:    99.7286  MISS %:   0.271398  MPKI: 0.01322
LLC PREFETCH INSTRUCTION	ACCESS:     181755  HIT:     180655  MISS:       1100  HIT %:    99.3948  MISS %:    0.60521  MPKI: 0.022
LLC LOAD TRANSLATION INSTRUCTION	ACCESS:        202  HIT:        196  MISS:          6  HIT %:    97.0297  MISS %:     2.9703  MPKI: 0.00012
LLC TRANSLATION FROM L1D PREFETCHER INSTRUCTION	ACCESS:      14363  HIT:      14278  MISS:         85  HIT %:    99.4082  MISS %:   0.591798  MPKI: 0.0017
LLC LOAD DATA	ACCESS:     122276  HIT:     118261  MISS:       4015  HIT %:    96.7164  MISS %:    3.28356  MPKI: 0.0803
LLC RFO DATA	ACCESS:      62499  HIT:      48799  MISS:      13700  HIT %:    78.0796  MISS %:    21.9204  MPKI: 0.274
LLC PREFETCH DATA	ACCESS:     187143  HIT:     175093  MISS:      12050  HIT %:    93.5611  MISS %:    6.43893  MPKI: 0.241
LLC WRITEBACK DATA	ACCESS:     103487  HIT:     103148  MISS:        339  HIT %:    99.6724  MISS %:   0.327577  MPKI: 0.00678
LLC LOAD TRANSLATION DATA	ACCESS:       1633  HIT:       1510  MISS:        123  HIT %:    92.4679  MISS %:    7.53215  MPKI: 0.00246
LLC TRANSLATION FROM L1D PREFETCHER DATA	ACCESS:         15  HIT:         13  MISS:          2  HIT %:    86.6667  MISS %:    13.3333  MPKI: 4e-05

LLC AVERAGE MISS LATENCY: 160.772 cycles
LLC RQ	ACCESS:     444556	FORWARD:          0	MERGED:          0	TO_CACHE:     444542
LLC WQ	ACCESS:     103487	FORWARD:         14	MERGED:          0	TO_CACHE:     103487
LLC PQ	ACCESS:     368898	FORWARD:          0	MERGED:          0	TO_CACHE:     368898

LLC Dense regions hint to LLC: 0

RAW hits: 1944887
Loads Generated: 12635525
Loads sent to L1D: 10690638
Stores Generated: 6947086
Stores sent to L1D: 6947098
Major fault: 0 Minor fault: 2601
Allocated PAGES: 2601
I-Shadow cache 408 bytes
Touched + WorthPF tables 12288 bytes 
MMA filter 42 bytes 
FNL filter 272 bytes 
TOTAL PREFETCHER STORAGE SIZE: 19922 bytes
CPU 0 L1I next line prefetcher final stats

stream: 
stream:times selected: 1178790
stream:pref_filled: 121543
stream:pref_useful: 23125
stream:pref_late: 7634
stream:misses: 7008
stream:misses_by_poll: 0

CS: 
CS:times selected: 176420
CS:pref_filled: 55942
CS:pref_useful: 32992
CS:pref_late: 10109
CS:misses: 19282
CS:misses_by_poll: 1

CPLX: 
CPLX:times selected: 1001110
CPLX:pref_filled: 19791
CPLX:pref_useful: 4243
CPLX:pref_late: 3463
CPLX:misses: 91604
CPLX:misses_by_poll: 1

NL_L1: 
NL:times selected: 19821
NL:pref_filled: 662
NL:pref_useful: 295
NL:pref_late: 239
NL:misses: 1084
NL:misses_by_poll: 0

total selections: 2376141
total_filled: 94487
total_useful: 32721
total_late: 22824
total_polluted: 2
total_misses_after_warmup: 772423
conflicts: 5539862

test: 115858

DRAM Statistics
 CHANNEL 0
 RQ ROW_BUFFER_HIT:      10765  ROW_BUFFER_MISS:      20965
 DBUS_CONGESTED:         10
 WQ ROW_BUFFER_HIT:       1467  ROW_BUFFER_MISS:      13222  FULL:          0

 AVG_CONGESTED_CYCLE: 6

CPU 0 Branch Prediction Accuracy: 99.8092% MPKI: 0.34892 Average ROB Occupancy at Mispredict: 187.21
Branch types
NOT_BRANCH: 40857151 81.7143%
BRANCH_DIRECT_JUMP: 549424 1.09885%
BRANCH_INDIRECT: 183349 0.366698%
BRANCH_CONDITIONAL: 6181892 12.3638%
BRANCH_DIRECT_CALL: 942884 1.88577%
BRANCH_INDIRECT_CALL: 171110 0.34222%
BRANCH_RETURN: 1113988 2.22798%
BRANCH_OTHER: 0 0%

DRAM PAGES: 1048576
Allocated PAGES: 2601
Average_ROB_Occupancy: 236.873
Average_Decode_Occupancy: 32.139
Average_FTQ_Occupancy: 12.1376
Indirect max targets: 14 Average targets: 1.1505
Branch_type:  BRANCH_DIRECT_JUMP:  Count Percentage: 3.24829 5.53099 5.12363 9.12238 1.74016 5.96783 0.891939 68.3748 
Branch_type:  BRANCH_INDIRECT:  Count Percentage: 11.7458 3.46491 2.55452 0 2.5452 9.67468 19.2228 50.7921 
Branch_type:  BRANCH_CONDITIONAL:  Count Percentage: 21.4515 2.58987 1.84246 8.41924 1.23162 5.06896 1.95747 57.4389 
Branch_type:  BRANCH_DIRECT_CALL:  Count Percentage: 0.257349 1.79076 1.44555 4.83602 2.15601 2.75191 0.751905 86.0105 
Branch_type:  BRANCH_INDIRECT_CALL:  Count Percentage: 9.53326 0.571582 2.98674 4.83994 0.000291475 2.01875 1.28307 78.7664 
Branch_type:  BRANCH_RETURN:  Count Percentage: 3.18859 1.30476 1.27108 9.31576 2.84213 6.55351 3.12936 72.3948 
Branch_type:  BRANCH_DIRECT_JUMP:  Total Count: 35588 60597 56134 99944 19065 65383 9772 749108 
Branch_type:  BRANCH_INDIRECT:  Total Count: 42886 12651 9327 0 9293 35324 70186 185451 
Branch_type:  BRANCH_CONDITIONAL:  Total Count: 2648851 319799 227508 1039615 152082 625919 241710 7092595 
Branch_type:  BRANCH_DIRECT_CALL:  Total Count: 4868 33874 27344 91478 40783 52055 14223 1626970 
Branch_type:  BRANCH_INDIRECT_CALL:  Total Count: 32707 1961 10247 16605 1 6926 4402 270234 
Branch_type:  BRANCH_RETURN:  Total Count: 71281 29168 28415 208254 63536 146504 69957 1618388 
Number of unique branch instructions: 10308
Upper 32 bits: 
aaaa
ffff
ffff0000
Unique upper 32 bits: 3
Unique upper 36 bits: 3
Unique upper 40 bits: 5
Unique upper 44 bits: 32
Unique upper 48 bits: 154
Variant_0 : 1459 0.178101
Variant_1 : 1573 0.192017
Variant_2 : 1794 0.218994
Variant_3 : 0 0
Offset_3 4268
Offset_4 260
Offset_5 469
Offset_6 531
Offset_7 612
Offset_8 540
Offset_9 491
Offset_10 399
Offset_11 338
Offset_12 297
Offset_13 225
Offset_14 232
Offset_15 201
Offset_16 230
Offset_17 162
Offset_18 128
Offset_19 252
Offset_20 144
Offset_21 236
Offset_22 404
Offset_23 245
Offset_24 346
Offset_25 88
Offset_47 84
Offset_64 21
decode_dispatch_called: 25052444 68.2484
Dispatch_width: 0 13335098 53.2287 36.3278
Dispatch_width: 1 904269 3.6095 2.46343
Dispatch_width: 2 842841 3.36431 2.29609
Dispatch_width: 3 484868 1.93541 1.32089
Dispatch_width: 4 5390345 21.5162 14.6845
Dispatch_width: 5 176286 0.703668 0.480242
Dispatch_width: 6 3918737 15.6421 10.6755
Empty_decode_cycles: 11655288 31.7516
ROB_full_cycles: 8663237 23.6006
Starvation_cycles_per_kilo_instr: 241.258
Starvation_cycles_per_kilo_instr_3: 185.591
Starvation_cycles_per_kilo_instr_0: 163.271
Branch_type_1  (3,1)  (4,9)  (5,37)  (6,73)  (7,118)  (8,138)  (9,129)  (10,102)  (11,76)  (12,51)  (13,8)  (14,2)  (15,3)  (16,4)  (18,1)  (19,4)  (20,2)  (21,1)  (22,3)  (23,2)  (24,10)  (25,12)  (64,3) 
Branch_type_2  (3,1)  (5,1)  (8,3)  (9,3)  (12,1)  (13,1)  (14,1)  (16,3)  (17,2)  (20,2)  (21,2)  (23,5)  (24,1)  (47,39) 
Branch_type_3  (3,4266)  (4,251)  (5,427)  (6,441)  (7,460)  (8,333)  (9,270)  (10,164)  (11,140)  (12,58)  (13,7)  (24,3)  (64,11) 
Branch_type_4  (6,4)  (7,8)  (8,30)  (9,54)  (10,63)  (11,63)  (12,105)  (13,96)  (14,102)  (15,96)  (16,104)  (17,73)  (18,58)  (19,124)  (20,74)  (21,124)  (22,215)  (23,138)  (24,202)  (25,72)  (64,4) 
Branch_type_5  (8,2)  (9,1)  (10,3)  (11,5)  (12,3)  (13,14)  (14,16)  (15,11)  (16,20)  (17,13)  (18,16)  (19,12)  (20,11)  (21,13)  (22,42)  (23,26)  (24,37) 
Branch_type_6  (5,4)  (6,13)  (7,26)  (8,34)  (9,34)  (10,67)  (11,54)  (12,79)  (13,99)  (14,111)  (15,91)  (16,99)  (17,74)  (18,53)  (19,112)  (20,55)  (21,96)  (22,144)  (23,74)  (24,93)  (25,4)  (47,45)  (64,3) 
Unique trigger count: 
Variant_0_evicts_0 : 0
Variant_0_evicts_1 : 0
Variant_0_evicts_2 : 0
Variant_0_evicts_3 : 0
Variant_1_evicts_0 : 0
Variant_1_evicts_1 : 0
Variant_1_evicts_2 : 0
Variant_1_evicts_3 : 0
Variant_2_evicts_0 : 0
Variant_2_evicts_1 : 0
Variant_2_evicts_2 : 0
Variant_2_evicts_3 : 0
Variant_3_evicts_0 : 0
Variant_3_evicts_1 : 0
Variant_3_evicts_2 : 0
Variant_3_evicts_3 : 0
BTB PER SET UNIQUE ADDR: 2 4 3 6 3 3 4 3 2 3 3 3 1 6 2 5 1 3 4 2 2 4 4 3 2 4 3 3 3 4 3 3 2 3 3 4 3 2 2 3 4 4 4 2 2 3 3 3 2 2 3 3 2 3 3 4 3 2 2 2 3 3 3 3 6 2 3 4 4 3 2 3 5 3 2 5 4 3 6 4 7 5 4 6 5 3 2 4 3 3 2 5 4 4 3 1 4 2 2 4 3 4 4 4 2 5 2 2 3 7 6 3 1 4 0 2 4 5 4 5 3 3 3 4 7 3 2 4 3 1 7 2 5 2 5 3 4 1 3 3 2 3 2 4 4 6 5 2 5 5 3 1 4 7 4 3 3 2 4 4 1 4 4 2 4 1 1 5 4 6 5 4 4 2 3 3 2 6 2 2 3 2 4 5 2 5 2 5 5 3 3 1 3 5 1 3 3 4 4 3 4 2 3 3 1 3 2 2 5 3 3 4 5 2 3 3 3 3 2 6 3 5 3 2 5 2 3 5 4 5 1 3 6 4 3 3 3 5 3 4 4 6 3 4 4 2 2 2 6 4 2 2 3 2 3 4 2 3 3 2 6 2 6 3 4 3 5 2 4 7 1 6 3 3 3 3 5 1 2 5 4 4 1 6 2 1 3 2 4 2 5 4 3 3 3 4 2 2 2 2 5 2 2 4 3 3 2 6 7 3 2 2 5 3 4 3 2 2 3 4 7 4 2 2 6 4 2 4 1 6 3 7 2 3 5 4 2 4 3 3 4 5 3 2 2 2 4 2 1 3 2 5 3 2 4 6 3 3 2 3 4 4 3 4 2 4 2 4 2 1 5 5 1 2 2 3 2 3 1 2 2 4 3 3 4 4 1 5 3 5 3 2 2 4 2 4 5 3 2 2 5 5 3 1 2 3 2 2 8 2 3 4 1 5 6 3 2 4 4 3 2 2 2 6 3 2 3 3 1 4 4 2 7 3 3 0 3 2 3 3 3 2 2 2 3 0 2 4 6 6 3 2 2 2 5 2 4 2 4 2 3 5 4 4 2 3 4 1 4 3 5 4 5 4 6 6 1 2 3 4 2 2 5 3 2 2 4 2 5 5 2 3 4 2 5 5 3 3 2 3 4 3 5 1 5 3 5 1 2 2 2 2 4 3 2 5 6 3 3 3 3 3 5 3 4 3 1 5 2 2 6 3 6 3 3 4 2 3 3 3 5 3 5 7 3 4 4 4 3 3 5 4 3 5 4 4 4 1 4 1 2 3 3 5 3 2 4 3 3 2 1 1 1 1 2 3 4 2 3 2 1 4 2 3 2 1 3 2 4 2 3 3 3 3 2 3 5 5 4 3 6 3 2 1 3 3 3 2 3 3 2 4 4 3 1 4 3 4 4 3 4 1 5 1 2 3 2 3 3 3 2 2 4 4 2 4 5 4 3 6 5 4 2 2 5 3 4 3 2 2 2 2 3 2 3 3 3 1 3 2 1 3 2 6 2 1 5 3 4 4 5 2 3 4 3 2 3 4 3 3 3 7 1 3 4 4 3 5 6 2 4 1 3 2 3 3 3 2 2 6 4 2 2 2 3 3 3 3 5 4 4 2 1 3 5 3 4 3 2 2 4 4 2 4 4 2 4 4 2 6 4 3 4 3 4 2 6 4 3 3 5 8 3 3 5 1 6 2 2 3 6 4 3 3 3 4 2 1 2 2 5 3 4 4 4 3 4 5 3 6 3 2 0 3 3 3 4 3 1 3 2 4 3 3 1 5 2 2 6 2 4 4 2 6 4 3 7 1 2 2 4 4 3 3 6 3 4 3 4 3 5 1 0 2 4 4 3 3 2 2 3 2 4 2 4 2 3 2 3 4 2 5 3 4 4 3 5 4 3 2 0 5 3 3 2 4 5 3 2 3 6 4 2 4 3 3 4 5 3 4 3 3 3 3 3 3 6 2 3 2 6 1 3 3 2 3 2 4 2 3 3 5 3 2 3 4 2 2 6 1 7 2 3 2 4 4 1 3 3 2 3 2 3 3 3 2 4 4 5 5 6 3 2 4 2 3 3 3 5 2 3 4 3 4 2 1 6 5 3 1 5 8 4 2 3 4 5 2 2 2 3 5 4 5 4 2 4 1 5 4 5 5 4 2 7 3 5 5 3 2 2 2 4 5 4 2 7 2 1 3 4 1 3 7 2 5 3 2 4 2 3 2 3 5 5 2 3 2 3 3 4 2 2 4 4 2 2 4 1 4 4 4 3 3 5 3 4 4 2 5 3 5 3 4 3 2 2 3 3 4 2 3 5 5 6 2 3 5 4 3 1 4 5 3 4 2 5 5 3 3 5 5 4 5 3 3 4 5 2 4 1 4 4 3 2 5 6 3 2 3 4 6 3 3 1 4 5 3 5 3 2 5 4 5 2 6 2 2 3 4 5 2 3 4 3 3 2 2 2 6 2 6 4 5 4 4 4 3 4 3 4 4 4 11 4 3 2 5 2 2 2 5 2 1 4 3 2 5 5 5 4 4 3 3 3 4 3 5 2 1 6 3 5 2 2 2 3 2 4 3 4 6 2 2 3 6 2 4 3 1 3 5 2 3 2 2 4 4 2 2 4 1 5 3 3 3 2 4 5 4 6 5 3 4 2 5 2 4 2 4 1 2 6 3 1 2 5 2 2 6 3 3 2 0 2 3 3 5 3 3 3 2 1 2 8 2 4 3 4 2 4 3 2 4 1 5 3 2 4 3 4 1 3 5 4 4 2 2 3 3 5 2 4 3 3 3 2 2 3 2 3 3 6 3 3 2 5 3 1 5 3 4 4 3 2 3 1 2 3 4 3 2 3 3 2 3 3 3 2 6 3 2 4 2 3 2 2 2 3 3 5 3 6 3 3 3 4 6 4 5 7 2 1 5 3 4 4 5 3 4 2 5 3 7 3 2 2 3 3 4 5 6 5 3 3 2 5 5 2 4 3 6 3 1 4 2 2 4 7 3 2 4 5 2 6 2 3 3 5 4 5 3 2 3 5 6 2 3 6 4 3 2 3 5 4 2 2 3 2 3 4 4 2 5 4 3 3 3 3 4 4 3 1 5 3 6 2 4 3 3 2 2 3 2 4 3 6 6 2 3 2 3 1 4 2 4 3 3 4 4 3 3 5 3 1 2 3 4 3 6 3 2 3 3 7 2 1 1 1 2 5 3 7 6 6 2 3 5 3 5 3 1 4 3 2 3 4 5 5 4 4 3 2 2 3 6 4 3 3 4 3 3 2 2 3 4 1 6 4 5 4 2 4 3 3 5 3 3 3 3 2 2 5 4 3 2 5 3 7 8 4 4 2 4 5 3 5 3 6 2 3 2 2 6 3 5 2 3 2 1 4 3 3 7 4 2 2 2 5 3 2 5 3 3 1 2 4 4 4 8 4 1 3 5 2 2 5 2 4 3 2 5 3 2 3 4 4 2 1 4 6 2 4 4 4 7 2 2 3 2 2 5 2 3 3 3 3 3 5 1 3 4 2 5 1 3 5 5 3 5 4 3 5 1 2 4 4 2 4 3 2 4 3 3 4 2 2 3 3 4 3 3 3 4 3 2 2 2 3 5 4 3 2 2 4 3 5 4 2 2 3 4 4 2 4 4 5 4 2 3 2 3 1 5 4 3 4 2 2 3 2 4 4 4 2 3 4 4 5 7 3 5 4 1 3 7 2 2 6 3 5 3 3 1 6 2 3 4 5 3 3 3 1 4 5 3 2 3 3 1 5 3 3 2 3 4 3 2 4 5 3 3 6 2 1 1 4 4 6 3 3 4 1 3 2 3 2 3 4 3 2 4 3 1 3 3 3 1 4 3 1 1 4 6 1 3 4 2 3 2 2 3 2 4 3 3 2 1 3 1 2 4 2 4 4 2 3 5 4 3 6 3 2 5 3 3 3 5 3 3 4 4 4 4 4 2 1 2 3 3 2 4 4 5 2 2 3 3 2 1 3 4 6 7 3 5 3 6 4 6 2 7 3 6 6 3 3 3 2 2 3 2 3 1 2 4 3 3 6 7 2 3 2 5 1 3 4 1 5 1 4 2 6 2 5 1 3 3 1 3 3 3 3 3 5 4 3 2 4 1 3 4 2 2 2 4 3 1 3 2 3 3 3 3 4 3 2 4 3 2 2 3 3 5 8 3 3 3 6 5 2 3 5 4 3 2 2 3 3 2 1 2 2 3 3 4 3 4 3 2 2 5 3 2 4 4 3 3 2 1 3 2 2 3 5 5 1 3 2 5 4 1 1 2 1 2 3 0 4 6 3 4 3 3 2 3 5 3 4 2 5 4 4 2 2 3 2 1 5 3 1 2 2 7 4 4 3 3 3 5 3 2 2 2 3 5 3 0 3 1 3 6 6 4 4 6 3 3 2 4 3 8 3 6 3 3 4 3 3 3 4 4 6 2 4 3 5 3 3 6 3 6 2 4 4 4 4 5 1 3 4 3 2 2 4 4 4 2 2 4 2 3 3 5 4 3 1 1 3 4 1 1 3 6 2 2 5 3 4 2 6 3 3 4 3 4 3 3 5 5 2 4 4 2 4 3 4 3 4 4 3 3 1 1 3 3 5 4 
BTB PER SET COUNT: 2 3532 2950 2996 28 676 597 5141 526 3 77 186 1 777 2 1888 1 3 1658 2 810 4 64 40 536 3409 3 10 5 1464 3 6 9 9 13 4 3 2 170 6 1802 3432 4748 2 2240 3274 761 983 1013 2 6 3 1429 3 3 37 3 984 26 2 3000 1953 3 1402 4563 2 796 183 2436 3 6 3 6 1394 311 4235 1958 2099 4289 607 3778 939 704 3132 409 3 2 4 28 982 2 426 8 495 1771 1 6 2 47 4 3 578 4 1452 18 21 2 979 3 1997 1584 391 1 1343 0 2 4 8 555 2147 25 24 3465 1927 3311 116 2424 6 224 1 4359 2 1747 491 5041 3 1742 240 3 982 13 908 2 1992 1467 17 548 692 9 25 3 1 1972 397 515 4 3 983 1888 270 1 271 1061 2 2435 1 1 1889 3524 2500 1627 1113 6 6 656 531 3 2928 492 2 4 2 4 1489 2 1975 500 6 643 393 3 9 4 990 939 460 276 1056 4 427 4 2 8 3 1 8 3 331 3579 1934 52 1257 1126 537 5 3 3 1028 2 2427 961 5076 33 2172 1441 2 1493 257 10 243 1729 2931 530 1946 2499 2274 847 445 3 2896 655 4636 1586 654 1494 2 7831 2 1913 4 2 92 9 496 1446 20 1944 3 5 467 2587 6 2704 3 195 17 729 1447 4 1473 1 10 17 3 3 3 1951 1 958 1965 953 6 1 431 2 1 3 167 573 227 1684 1956 3 329 4347 4328 1466 493 2 1467 4536 3 982 4902 4 241 492 2801 6527 1030 983 4 5 3 7023 911 2 2 493 4 5035 4 5 2 4600 11 18 27 1 2240 679 2774 492 3 2115 4 2 1856 1467 3 4 10 776 61 2921 41 2740 4 515 8 2 1654 2506 8 255 195 999 46 2 12 182 509 3 1742 3 7 367 11 27 494 6742 1696 1 2 1481 47 2 3 1 6 1687 1928 3 4 1040 962 1 6770 1472 258 3 1520 546 7 2 5 5749 42 2 4 622 408 3 922 2 18 2 2 1520 1463 13 101 1 1486 763 3 971 5 6 2184 2 2 12 4069 425 312 3 360 3182 5 4 2 1915 3 132 0 489 7 3600 503 3 2 947 732 902 0 2 79 252 2310 9 286 1458 4 1617 2 4 2 1241 27 2193 787 761 776 8 3 1504 2926 4 493 5372 2010 1423 1464 4120 1529 1 3 12 2002 2 1467 4456 1481 1884 2 1552 727 4147 480 974 1473 2866 7 1398 20 3 2348 224 493 1463 3 1444 1468 973 3 1208 1 6 221 2 2 2397 1925 1709 5 1015 2052 48 1391 3 1633 1523 1681 4 3 1 989 36 2 4045 4 633 494 20 484 2 1586 1414 494 2388 1159 13 504 194 6783 453 1282 3 3874 5 4 982 1679 185 1775 263 1 5067 2 983 31 3 419 1509 56 2440 1677 3 3 1 779 1 2 954 3631 2930 2 3 10 11 9 416 3 2 1 4 1459 498 1463 5 9 3 5 2 3809 6247 7 696 1249 1976 606 5 1 1436 1863 4 2 3 3 2 4 5 1465 1 915 3 4303 4 48 526 1 510 2 250 36 2 1463 3 1955 2 2 41 1535 2 2861 13 4 3 3559 18 1468 1031 5 2005 493 16 3852 492 3307 2 31 4 1952 3 442 2926 475 3 1262 1 2369 482 3097 241 1 5857 2407 438 660 65 2 3 5 16 2 264 967 3 3 957 554 1 3 5 2344 3 7 8 6 3658 1 1372 3 1465 489 3 2 4 6 5 2 8 2056 1581 5 3 40 5 347 1353 9 1 3 2172 527 3466 337 492 2 540 2825 2 34 2434 2 4 2442 2581 2920 4 252 1478 3 1441 3 4385 8 6 1493 1956 6244 1155 982 1532 1 2660 2 2 3 1246 585 3 3 1878 104 2 1 184 3 1969 3 242 5821 552 37 45 3869 830 4343 12 3 0 1437 1485 51 5 3 1 244 2 1080 1033 4 1 1102 1354 2 264 7 13 11 2808 450 473 3 600 1438 2 14 1940 2958 1961 1285 2296 3 4910 4 4023 625 4258 1945 0 973 4 347 17 1025 3 2 9 2 33 5 4 597 3 1858 3 1484 5826 2154 4 1176 576 6 2404 3889 406 2 0 3477 9 10 2 4 2200 12 2 3 4195 4 2 18 5 4 4 7280 1472 401 1017 27 4 3 1509 3 3820 2 3 974 553 23 1901 6 1459 147 2 1805 397 972 1205 9 3 823 417 4 74 2 276 1 5395 1202 1455 282 546 8 1 12 2893 101 3 50 3640 3 3 1955 3422 688 3471 4685 975 3333 2 5 1635 3 1474 3 2799 2 2655 2496 4 1675 2 366 7045 33 516 643 4573 2758 4 3 30 1536 5 1311 2 14 20 3201 531 13 4 2 4608 946 3597 143 20 3747 495 3 4460 4 1230 7 1964 2 2 2 336 6 1017 4 4145 2 2 3 4751 1 4 1532 5 1449 3 2 4254 427 1960 255 1204 2940 1021 2468 574 1994 2182 3 17 10 3 1710 220 13 2 3481 56 876 4 11 233 3 5086 1777 5 5 2 2277 3 9 587 490 3 409 146 3 393 4 2 3 2522 39 6 3 493 551 4 3 1 1463 494 3 10 4 984 5 3 1961 8 5 2358 6 1813 1904 1468 1107 218 270 240 4 268 690 29 2668 3398 3 2 72 23 2732 18 4 1 9 989 3 1468 1715 2 2276 4 3028 2 1466 1670 7 3 10 1160 982 4 1958 3 2380 981 2 2 6056 2 721 3247 1485 4 1570 460 470 2181 1940 11 13 18 5941 1143 141 8 1957 11 495 2 9 88 1 1026 14 1400 60 2596 82 1463 8 738 4 1180 2038 96 17 2 1 2177 4 2705 482 2 2 2072 9 6 220 479 11 2 2 3 1421 2 983 8 684 105 2813 1277 244 441 2421 6 87 634 2 3575 5 1933 31 10 443 638 243 5 4 3635 1201 9 4 2 4165 502 66 5 89 1 2 1965 1898 3 2 3811 38 982 891 2808 5 10 0 2619 3 1465 6 978 3 3 2 1478 10 360 2 4 572 3649 1058 1719 1137 2 4 1 1009 3 492 141 302 601 1 740 1464 1721 4 2 2 3 4 1956 148 1998 3 6 7 1433 720 338 1950 1461 3 1460 586 495 2 12 3 1 513 259 1989 4 1573 1143 3 6 492 984 234 15 1895 1200 3 2 1201 13 3 803 1382 3 2 4084 2 261 568 70 371 3 4 2158 87 1079 70 4 3 439 2238 2927 5 2819 2 1 457 242 6 7 1771 3 6 4 544 3 1682 1468 3 72 6 3 1460 2364 2847 5 3 3 12 1964 2574 3 5 3 208 3 1 4 1468 491 2334 3069 3 7 611 26 2 1154 2 5 5 5 3835 1471 4 2 190 493 3524 2 8 2790 495 3 325 1955 4354 856 7 2269 3 2 236 2319 1379 2 367 1438 3 3 3 12 1830 142 4 1 660 7 3424 2 333 6 2079 121 2 242 972 4 13 4403 3610 2 257 2 1462 1 4 241 459 471 777 2725 2682 3 3 992 56 1 2 3 2183 16 1413 3 13 4 8 3468 2 1 1 1 5 6 1461 1696 1743 1512 2 846 5 3 2218 3 1 4 2906 2 838 4 2102 528 4 501 1177 492 2244 3 7138 10 3 442 4 3 3 2 2 1464 4 1 2347 4 5 102 232 18 3 749 5807 493 3 4 3 6 2 1210 4 3 2 88 1768 32 4447 4 4 2 615 1033 151 2325 4 517 4 991 7 2 870 228 1134 2 1718 2 1 1501 4 2181 1796 4 496 2 2 1000 3 883 2101 3 118 950 2 1444 30 4390 4381 10 1 1562 4022 2 2 1697 941 2415 4186 2 1520 42 1412 3 4 213 173 1 17 2617 2449 7 509 6628 4055 19 2 1227 7 2 215 2 3 971 3231 1648 3 531 1 10 1736 3 3107 1 615 9941 5 1042 1698 4 1452 986 1 607 822 3346 2 4 399 53 4 1263 3298 5 2 2 976 2086 2002 272 1172 1275 4 729 3 1467 2 976 996 4 3 2 1464 7 28 1066 6 2 2 530 3002 710 2 28 1471 149 37 2 3 2 52 1 2904 508 1495 5 489 2762 490 2 7 737 2169 2 3 29 14 5 4178 3286 1543 4 1 3 4301 281 2 2351 5 4636 2378 1000 3 751 4 1008 8 4047 9 5 2189 1 2499 2717 3 2 3 5 1 456 1401 162 2 47 517 5 72 1457 5 3 1429 74 1360 147 1 4 4 5997 243 4 46 1 84 2 1455 1027 3 4216 226 5 3140 3 1116 1800 4 238 1 2477 976 1 1 8 1601 1 1469 251 479 53 3 1942 262 3 4105 244 5 3 979 701 1 2663 4 1510 313 771 2 761 3402 48 1111 13 738 2 1472 3 3 1698 2756 37 8 7 514 4 1004 2252 508 1 1448 526 719 2 2669 830 525 495 2 1457 482 728 1 16 2113 2404 2186 3 1668 3 3680 1710 3746 243 4541 134 1011 4318 5 3 1028 2423 2 922 1696 1886 1 1433 972 964 14 4236 35 1888 3 3 2481 2 4 1257 1945 403 521 993 501 8109 2 3278 1 184 5 2 7 3 972 3 3 2500 48 1473 2 1696 171 1087 2771 6 394 1201 1000 12 1 3 2 985 4 49 3 1119 493 44 4698 21 281 2 3 274 13 6468 8 67 5 123 25 1953 4 1623 6 3 2 2 714 20505 4 1 7 746 477 3 5 3 1951 115 2 493 969 601 2 597 6 12 482 2 1 3 2 2 2014 16 100 1 3 2 2244 15037 1 1 525 383 2500 138 0 2632 979 3 1466 2203 34 2 3 3156 975 4347 4 6 2572 508 2 3 6 2 283 245 453 2 2 2 3643 1582 1471 3 1449 5 142 3 2 1459 3 4 3390 1470 0 1065 491 1814 2430 6888 431 7 5552 603 487 2 5 13 4323 1413 3377 3 483 3200 982 1076 6999 14 1060 512 2 2505 30 3535 131 1042 955 6997 1690 11 6 515 552 2976 255 1 3 2573 3 2 2 514 3503 2989 2684 984 3322 4 3 831 11 980 3 1506 1 3 33 985 437 442 6289 2 5 569 3 2979 1471 36 568 5 4 8 3565 3126 24 3079 5 3 477 10 757 4 3 710 3 1152 747 19 1509 1 4 504 3 55 2726 
To predecode: 1196039
Predecoding something: 759692
Predecode request dropped: 0
sizeofblock_0 0
sizeofblock_1 552501
sizeofblock_2 538115
sizeofblock_3 551433
sizeofblock_4 111409
sizeofblock_5 0
sizeofblock_6 0
sizeofblock_7 0
sizeofblock_8 0
