
*** ChampSim Multicore Out-of-Order Simulator ***

Warmup Instructions: 50000000
Simulation Instructions: 50000000
Number of CPUs: 1
LLC sets: 2048
LLC ways: 16
Off-chip DRAM Size: 4096 MB Channels: 1 Width: 64-bit Data Rate: 6400 MT/s
CPU 0 runs ./micro_traces/srv193.trace.gz
.gz
ITLB has LRU replacement policy
DTLB has LRU replacement policy
STLB has LRU replacement policy
FDIP Prefetcher at L1I
L1I has LRU replacement policy
L1D has LRU replacement policy
Initialize SRRIP state for L2C
Initialize DRRIP state for LLC
Heartbeat_Variant_0 : 981 0.319336 per_variant_size: 0 981 0 0 0 0 0 0 0 
Heartbeat_Variant_1 : 2078 0.676432 per_variant_size: 0 363 1715 0 0 0 0 0 0 
Heartbeat_Variant_2 : 0 0 per_variant_size: 0 0 0 0 0 0 0 0 0 
Heartbeat_Variant_3 : 0 0 per_variant_size: 0 0 0 0 0 0 0 0 0 
Heartbeat_Variant_0_evicts 0 : 17469 1 : 25360 2 : 0 3 : 0 
Heartbeat_Variant_1_evicts 0 : 25309 1 : 0 2 : 0 3 : 0 
Heartbeat_Variant_2_evicts 0 : 0 1 : 0 2 : 0 3 : 0 
Heartbeat_Variant_3_evicts 0 : 0 1 : 0 2 : 0 3 : 0 
Heartbeat CPU 0 instructions: 10000002 cycles: 2795028 heartbeat IPC: 3.57778 cumulative IPC: 3.57778 (Simulation time: 0 hr 1 min 53 sec) 
Heartbeat_Variant_0 : 986 0.320964 per_variant_size: 0 986 0 0 0 0 0 0 0 
Heartbeat_Variant_1 : 2074 0.67513 per_variant_size: 0 372 1702 0 0 0 0 0 0 
Heartbeat_Variant_2 : 0 0 per_variant_size: 0 0 0 0 0 0 0 0 0 
Heartbeat_Variant_3 : 0 0 per_variant_size: 0 0 0 0 0 0 0 0 0 
Heartbeat_Variant_0_evicts 0 : 17298 1 : 24789 2 : 0 3 : 0 
Heartbeat_Variant_1_evicts 0 : 24784 1 : 0 2 : 0 3 : 0 
Heartbeat_Variant_2_evicts 0 : 0 1 : 0 2 : 0 3 : 0 
Heartbeat_Variant_3_evicts 0 : 0 1 : 0 2 : 0 3 : 0 
Heartbeat CPU 0 instructions: 20000001 cycles: 5590072 heartbeat IPC: 3.57776 cumulative IPC: 3.57777 (Simulation time: 0 hr 3 min 30 sec) 
Heartbeat_Variant_0 : 982 0.319661 per_variant_size: 0 982 0 0 0 0 0 0 0 
Heartbeat_Variant_1 : 2081 0.677409 per_variant_size: 0 359 1722 0 0 0 0 0 0 
Heartbeat_Variant_2 : 0 0 per_variant_size: 0 0 0 0 0 0 0 0 0 
Heartbeat_Variant_3 : 0 0 per_variant_size: 0 0 0 0 0 0 0 0 0 
Heartbeat_Variant_0_evicts 0 : 17165 1 : 24779 2 : 0 3 : 0 
Heartbeat_Variant_1_evicts 0 : 24783 1 : 0 2 : 0 3 : 0 
Heartbeat_Variant_2_evicts 0 : 0 1 : 0 2 : 0 3 : 0 
Heartbeat_Variant_3_evicts 0 : 0 1 : 0 2 : 0 3 : 0 
Heartbeat CPU 0 instructions: 30000001 cycles: 8384764 heartbeat IPC: 3.57821 cumulative IPC: 3.57792 (Simulation time: 0 hr 5 min 10 sec) 
Heartbeat_Variant_0 : 972 0.316406 per_variant_size: 0 972 0 0 0 0 0 0 0 
Heartbeat_Variant_1 : 2094 0.681641 per_variant_size: 0 398 1696 0 0 0 0 0 0 
Heartbeat_Variant_2 : 0 0 per_variant_size: 0 0 0 0 0 0 0 0 0 
Heartbeat_Variant_3 : 0 0 per_variant_size: 0 0 0 0 0 0 0 0 0 
Heartbeat_Variant_0_evicts 0 : 18169 1 : 26272 2 : 0 3 : 0 
Heartbeat_Variant_1_evicts 0 : 26283 1 : 0 2 : 0 3 : 0 
Heartbeat_Variant_2_evicts 0 : 0 1 : 0 2 : 0 3 : 0 
Heartbeat_Variant_3_evicts 0 : 0 1 : 0 2 : 0 3 : 0 
Heartbeat CPU 0 instructions: 40000001 cycles: 11179093 heartbeat IPC: 3.57868 cumulative IPC: 3.57811 (Simulation time: 0 hr 6 min 49 sec) 
Heartbeat_Variant_0 : 967 0.314779 per_variant_size: 0 967 0 0 0 0 0 0 0 
Heartbeat_Variant_1 : 2099 0.683268 per_variant_size: 0 367 1732 0 0 0 0 0 0 
Heartbeat_Variant_2 : 0 0 per_variant_size: 0 0 0 0 0 0 0 0 0 
Heartbeat_Variant_3 : 0 0 per_variant_size: 0 0 0 0 0 0 0 0 0 
Heartbeat_Variant_0_evicts 0 : 17614 1 : 25146 2 : 0 3 : 0 
Heartbeat_Variant_1_evicts 0 : 25151 1 : 0 2 : 0 3 : 0 
Heartbeat_Variant_2_evicts 0 : 0 1 : 0 2 : 0 3 : 0 
Heartbeat_Variant_3_evicts 0 : 0 1 : 0 2 : 0 3 : 0 
Heartbeat CPU 0 instructions: 50000002 cycles: 13975154 heartbeat IPC: 3.57646 cumulative IPC: 3.57778 (Simulation time: 0 hr 8 min 29 sec) 

Warmup complete CPU 0 instructions: 50000002 cycles: 13975154 (Simulation time: 0 hr 8 min 29 sec) 

Cycle: 20000000 FTQ IN: 56540754 FTQ occupancy: 18.1205 DECODE IN: 56540747 DECODE occupancy: 46.3555 ROB IN: 56540747 ROB occupancy: 280.353 ROB OUT: 56540602
*** Reached end of trace for Core: 0 Repeating trace: ./micro_traces/srv193.trace.gz
Heartbeat_Variant_0 : 938 0.305339 per_variant_size: 0 938 0 0 0 0 0 0 0 
Heartbeat_Variant_1 : 2128 0.692708 per_variant_size: 0 366 1762 0 0 0 0 0 0 
Heartbeat_Variant_2 : 0 0 per_variant_size: 0 0 0 0 0 0 0 0 0 
Heartbeat_Variant_3 : 0 0 per_variant_size: 0 0 0 0 0 0 0 0 0 
Heartbeat_Variant_0_evicts 0 : 17460 1 : 25426 2 : 0 3 : 0 
Heartbeat_Variant_1_evicts 0 : 25455 1 : 0 2 : 0 3 : 0 
Heartbeat_Variant_2_evicts 0 : 0 1 : 0 2 : 0 3 : 0 
Heartbeat_Variant_3_evicts 0 : 0 1 : 0 2 : 0 3 : 0 
Heartbeat CPU 0 instructions: 60000002 cycles: 23311969 heartbeat IPC: 1.07103 cumulative IPC: 1.07103 (Simulation time: 0 hr 9 min 57 sec) 
Cycle: 30000000 FTQ IN: 10690560 FTQ occupancy: 6.9467 DECODE IN: 10690534 DECODE occupancy: 14.8179 ROB IN: 10690534 ROB occupancy: 120.861 ROB OUT: 10690604
Heartbeat_Variant_0 : 1011 0.329102 per_variant_size: 0 1011 0 0 0 0 0 0 0 
Heartbeat_Variant_1 : 2055 0.668945 per_variant_size: 0 342 1713 0 0 0 0 0 0 
Heartbeat_Variant_2 : 0 0 per_variant_size: 0 0 0 0 0 0 0 0 0 
Heartbeat_Variant_3 : 0 0 per_variant_size: 0 0 0 0 0 0 0 0 0 
Heartbeat_Variant_0_evicts 0 : 17595 1 : 25861 2 : 0 3 : 0 
Heartbeat_Variant_1_evicts 0 : 25788 1 : 0 2 : 0 3 : 0 
Heartbeat_Variant_2_evicts 0 : 0 1 : 0 2 : 0 3 : 0 
Heartbeat_Variant_3_evicts 0 : 0 1 : 0 2 : 0 3 : 0 
Heartbeat CPU 0 instructions: 70000001 cycles: 32535093 heartbeat IPC: 1.08423 cumulative IPC: 1.07759 (Simulation time: 0 hr 11 min 20 sec) 
Cycle: 40000000 FTQ IN: 10959787 FTQ occupancy: 6.85455 DECODE IN: 10959785 DECODE occupancy: 14.6047 ROB IN: 10959756 ROB occupancy: 120.097 ROB OUT: 10959487
Heartbeat_Variant_0 : 986 0.320964 per_variant_size: 0 986 0 0 0 0 0 0 0 
Heartbeat_Variant_1 : 2080 0.677083 per_variant_size: 0 334 1746 0 0 0 0 0 0 
Heartbeat_Variant_2 : 0 0 per_variant_size: 0 0 0 0 0 0 0 0 0 
Heartbeat_Variant_3 : 0 0 per_variant_size: 0 0 0 0 0 0 0 0 0 
Heartbeat_Variant_0_evicts 0 : 17098 1 : 24772 2 : 0 3 : 0 
Heartbeat_Variant_1_evicts 0 : 24797 1 : 0 2 : 0 3 : 0 
Heartbeat_Variant_2_evicts 0 : 0 1 : 0 2 : 0 3 : 0 
Heartbeat_Variant_3_evicts 0 : 0 1 : 0 2 : 0 3 : 0 
Heartbeat CPU 0 instructions: 80000001 cycles: 41603297 heartbeat IPC: 1.10275 cumulative IPC: 1.08585 (Simulation time: 0 hr 12 min 46 sec) 
Cycle: 50000000 FTQ IN: 10823725 FTQ occupancy: 6.94405 DECODE IN: 10823760 DECODE occupancy: 14.8409 ROB IN: 10823789 ROB occupancy: 122.429 ROB OUT: 10823937
Heartbeat_Variant_0 : 996 0.324219 per_variant_size: 0 996 0 0 0 0 0 0 0 
Heartbeat_Variant_1 : 2070 0.673828 per_variant_size: 0 334 1736 0 0 0 0 0 0 
Heartbeat_Variant_2 : 0 0 per_variant_size: 0 0 0 0 0 0 0 0 0 
Heartbeat_Variant_3 : 0 0 per_variant_size: 0 0 0 0 0 0 0 0 0 
Heartbeat_Variant_0_evicts 0 : 17834 1 : 25660 2 : 0 3 : 0 
Heartbeat_Variant_1_evicts 0 : 25650 1 : 0 2 : 0 3 : 0 
Heartbeat_Variant_2_evicts 0 : 0 1 : 0 2 : 0 3 : 0 
Heartbeat_Variant_3_evicts 0 : 0 1 : 0 2 : 0 3 : 0 
Heartbeat CPU 0 instructions: 90000002 cycles: 50910329 heartbeat IPC: 1.07446 cumulative IPC: 1.08298 (Simulation time: 0 hr 14 min 13 sec) 
Cycle: 60000000 FTQ IN: 10863539 FTQ occupancy: 6.6897 DECODE IN: 10863453 DECODE occupancy: 14.1752 ROB IN: 10863393 ROB occupancy: 117.766 ROB OUT: 10863467
Heartbeat_Variant_0 : 999 0.325195 per_variant_size: 0 999 0 0 0 0 0 0 0 
Heartbeat_Variant_1 : 2067 0.672852 per_variant_size: 0 348 1719 0 0 0 0 0 0 
Heartbeat_Variant_2 : 0 0 per_variant_size: 0 0 0 0 0 0 0 0 0 
Heartbeat_Variant_3 : 0 0 per_variant_size: 0 0 0 0 0 0 0 0 0 
Heartbeat_Variant_0_evicts 0 : 17947 1 : 26227 2 : 0 3 : 0 
Heartbeat_Variant_1_evicts 0 : 26224 1 : 0 2 : 0 3 : 0 
Heartbeat_Variant_2_evicts 0 : 0 1 : 0 2 : 0 3 : 0 
Heartbeat_Variant_3_evicts 0 : 0 1 : 0 2 : 0 3 : 0 
Heartbeat CPU 0 instructions: 100000001 cycles: 60114177 heartbeat IPC: 1.0865 cumulative IPC: 1.08368 (Simulation time: 0 hr 15 min 40 sec) 
Finished CPU 0 instructions: 50000003 cycles: 46139024 cumulative IPC: 1.08368 (Simulation time: 0 hr 15 min 40 sec) 

ChampSim completed all CPUs

Region of Interest Statistics

CPU 0 cumulative IPC: 1.08368 instructions: 50000003 cycles: 46139024
 Fetch stage stalled: 70.6301  Sim cycles: 46139024 fetch stall cycle: 32588028
 Empty decode stage: 57.2533  Sim cycles: 46139024 fetch stall cycle: 26416098
ITLB TOTAL     ACCESS:    5530567  HIT:    5039779  MISS:     490788  HIT %:    91.1259  MISS %:     8.8741   MPKI: 9.81576
ITLB LOAD TRANSLATION INSTRUCTION	ACCESS:    5420836  HIT:    4930048  MISS:     490788  HIT %:    90.9463  MISS %:    9.05373  MPKI: 9.81576
ITLB TRANSLATION FROM L1D PREFETCHER INSTRUCTION	ACCESS:     109731  HIT:     109731  MISS:          0  HIT %:        100  MISS %:          0  MPKI: 0

ITLB AVERAGE MISS LATENCY: 9.05749 cycles
ITLB RQ	ACCESS:    7296553	FORWARD:          0	MERGED:    1244198	TO_CACHE:    6052355

DTLB TOTAL     ACCESS:    9327538  HIT:    8850793  MISS:     476745  HIT %:    94.8888  MISS %:    5.11116   MPKI: 9.5349
DTLB LOAD TRANSLATION DATA	ACCESS:    9327538  HIT:    8850793  MISS:     476745  HIT %:    94.8888  MISS %:    5.11116  MPKI: 9.5349

DTLB AVERAGE MISS LATENCY: 9.30465 cycles
DTLB RQ	ACCESS:   13592206	FORWARD:          0	MERGED:    4229949	TO_CACHE:    9362257

STLB TOTAL     ACCESS:    1224061  HIT:    1221811  MISS:       2250  HIT %:    99.8162  MISS %:   0.183814   MPKI: 0.045
STLB LOAD TRANSLATION INSTRUCTION	ACCESS:     490788  HIT:     490475  MISS:        313  HIT %:    99.9362  MISS %:   0.063775  MPKI: 0.00626
STLB LOAD TRANSLATION DATA	ACCESS:     476594  HIT:     474694  MISS:       1900  HIT %:    99.6013  MISS %:   0.398662  MPKI: 0.038
STLB TRANSLATION FROM L1D PREFETCHER DATA	ACCESS:     256679  HIT:     256642  MISS:         37  HIT %:    99.9856  MISS %:  0.0144149  MPKI: 0.00074

STLB AVERAGE MISS LATENCY: 66.6622 cycles
STLB RQ	ACCESS:    1372113	FORWARD:          0	MERGED:     148014	TO_CACHE:    1224099

STLB Hit, L1D data hit: 0
STLB Hit, L2C data hit: 0
STLB Hit, LLC data hit: 0
STLB Hit, LLC data miss: 0
STLB STLB hints to L2: 0
L1D TOTAL     ACCESS:   13368616  HIT:   12199672  MISS:    1168944  HIT %:    91.2561  MISS %:    8.74394   MPKI: 23.3789
L1D LOAD DATA	ACCESS:    6824565  HIT:    6055409  MISS:     769156  HIT %:    88.7296  MISS %:    11.2704  MPKI: 15.3831
L1D RFO DATA	ACCESS:    6205357  HIT:    5912166  MISS:     293191  HIT %:    95.2752  MISS %:     4.7248  MPKI: 5.86382
L1D PREFETCH DATA	ACCESS:     338694  HIT:     232097  MISS:     106597  HIT %:     68.527  MISS %:     31.473  MPKI: 2.13194

L1D PREFETCH  REQUESTED:     809408  ISSUED:     809408  USEFUL:      49308  USELESS:      71429
L1D USEFUL LOAD PREFETCHES:      49308 PREFETCH ISSUED TO LOWER LEVEL:     120790  ACCURACY: 40.8213
 TIMELY PREFETCHES:      49308 LATE PREFETCHES: 14134 DROPPED PREFETCHES: 4
L1D AVERAGE MISS LATENCY: 435817 cycles
L1D RQ	ACCESS:   10883814	FORWARD:          0	MERGED:    3863818	TO_CACHE:    6855430
L1D WQ	ACCESS:    6906510	FORWARD:     164814	MERGED:     169734	TO_CACHE:    6736776
L1D PQ	ACCESS:     404828	FORWARD:          0	MERGED:          0	TO_CACHE:     404580

L1D UNIQUE REGIONS ACCESSED: 0
L1D REGIONS CONFLICTS: 0
L1D Cross Page Prefetch Requests: 7981
L1D Same Page Prefetch Requests: 814055
L1D ROI Sum of L1D PQ occupancy: 5174568
L1D PREFETCHES PUSHED FROM L2C: 0
L1I TOTAL     ACCESS:    6865017  HIT:    4112457  MISS:    2752560  HIT %:    59.9045  MISS %:    40.0955   MPKI: 55.0512
L1I LOAD INSTRUCTION	ACCESS:    6410713  HIT:    3658153  MISS:    2752560  HIT %:    57.0631  MISS %:    42.9369  MPKI: 55.0512
L1I PREFETCH INSTRUCTION	ACCESS:     454304  HIT:     454304  MISS:          0  HIT %:        100  MISS %:          0  MPKI: 0

L1I PREFETCH  REQUESTED:     995402  ISSUED:     995402  USEFUL:          0  USELESS:          0
L1I USEFUL LOAD PREFETCHES:          0 PREFETCH ISSUED TO LOWER LEVEL:          0  ACCURACY: -nan
 TIMELY PREFETCHES:          0 LATE PREFETCHES: 0 DROPPED PREFETCHES: 0
L1I AVERAGE MISS LATENCY: 17.1261 cycles
L1I RQ	ACCESS:    9473864	FORWARD:          0	MERGED:    2880044	TO_CACHE:    6593820
L1I PQ	ACCESS:     995402	FORWARD:          0	MERGED:     292669	TO_CACHE:     702733

L1BTB TOTAL     ACCESS:    5683350  HIT:    2072686  MISS:    3610664  HIT %:    36.4694  MISS %:    63.5306   MPKI: 72.2133
L1BTB BRANCH_DIRECT_JUMP	ACCESS:     543933 HIT:     143533 MISS:     400400 AVERAGE STALL: 34.7783 AVERAGE FETCH STALL: 19.6738 AVERAGE FETCH QUEUE STALL: 7.21093 AVERAGE DECODE STALL: 7.04247 AVERAGE EXECUTE STALL: 2.88136e+14
L1BTB BRANCH_INDIRECT	ACCESS:     181519 HIT:      65565 MISS:     115954 AVERAGE STALL: 89.3524 AVERAGE FETCH STALL: 15.0028 AVERAGE FETCH QUEUE STALL: 9.51907 AVERAGE DECODE STALL: 7.11053 AVERAGE EXECUTE STALL: 56.7845
L1BTB BRANCH_CONDITIONAL	ACCESS:    2736781 HIT:    1450220 MISS:    1286561 AVERAGE STALL: 35.5672 AVERAGE FETCH STALL: 21.3728 AVERAGE FETCH QUEUE STALL: 6.72428 AVERAGE DECODE STALL: 6.72734 AVERAGE EXECUTE STALL: 1.01206e+14
L1BTB BRANCH_DIRECT_CALL	ACCESS:     940050 HIT:     103441 MISS:     836609 AVERAGE STALL: 36.7653 AVERAGE FETCH STALL: 21.8852 AVERAGE FETCH QUEUE STALL: 7.08993 AVERAGE DECODE STALL: 7.03505 AVERAGE EXECUTE STALL: 9.32091e+13
L1BTB BRANCH_INDIRECT_CALL	ACCESS:     170506 HIT:      20995 MISS:     149511 AVERAGE STALL: 116.174 AVERAGE FETCH STALL: 17.864 AVERAGE FETCH QUEUE STALL: 6.60113 AVERAGE DECODE STALL: 6.70649 AVERAGE EXECUTE STALL: 84.4516
L1BTB BRANCH_RETURN	ACCESS:    1110561 HIT:     288932 MISS:     821629 AVERAGE STALL: 36.5065 AVERAGE FETCH STALL: 18.8866 AVERAGE FETCH QUEUE STALL: 5.77329 AVERAGE DECODE STALL: 6.42038 AVERAGE EXECUTE STALL: 1.49441e+14
L1BTB BRANCH_OTHER ACCESS:          0 HIT:          0 MISS:          0 AVERAGE STALL: -nan AVERAGE FETCH STALL: -nan AVERAGE FETCH QUEUE STALL: -nan AVERAGE DECODE STALL: -nan AVERAGE EXECUTE STALL: -nan
L1BTB TOTAL ROB OCCUPANCY AT BTB MISS: 16.367

L2BTB TOTAL     ACCESS:    3585705  HIT:    2973450  MISS:     612255  HIT %:    82.9251  MISS %:    17.0749   MPKI: 12.2451
L2BTB BRANCH_DIRECT_JUMP	ACCESS:     396309 HIT:     336358 MISS:      59951 AVERAGE STALL: 34.7783 AVERAGE FETCH STALL: 19.6738 AVERAGE FETCH QUEUE STALL: 7.21093 AVERAGE DECODE STALL: 7.04247 AVERAGE EXECUTE STALL: 2.88136e+14
L2BTB BRANCH_INDIRECT	ACCESS:     105739 HIT:      95425 MISS:      10314 AVERAGE STALL: 89.3524 AVERAGE FETCH STALL: 15.0028 AVERAGE FETCH QUEUE STALL: 9.51907 AVERAGE DECODE STALL: 7.11053 AVERAGE EXECUTE STALL: 56.7845
L2BTB BRANCH_CONDITIONAL	ACCESS:    1286561 HIT:    1103212 MISS:     183349 AVERAGE STALL: 35.5672 AVERAGE FETCH STALL: 21.3728 AVERAGE FETCH QUEUE STALL: 6.72428 AVERAGE DECODE STALL: 6.72734 AVERAGE EXECUTE STALL: 1.01206e+14
L2BTB BRANCH_DIRECT_CALL	ACCESS:     836609 HIT:     638638 MISS:     197971 AVERAGE STALL: 36.7653 AVERAGE FETCH STALL: 21.8852 AVERAGE FETCH QUEUE STALL: 7.08993 AVERAGE DECODE STALL: 7.03505 AVERAGE EXECUTE STALL: 9.32091e+13
L2BTB BRANCH_INDIRECT_CALL	ACCESS:     140080 HIT:     101679 MISS:      38401 AVERAGE STALL: 116.174 AVERAGE FETCH STALL: 17.864 AVERAGE FETCH QUEUE STALL: 6.60113 AVERAGE DECODE STALL: 6.70649 AVERAGE EXECUTE STALL: 84.4516
L2BTB BRANCH_RETURN	ACCESS:     820407 HIT:     698138 MISS:     122269 AVERAGE STALL: 36.5065 AVERAGE FETCH STALL: 18.8866 AVERAGE FETCH QUEUE STALL: 5.77329 AVERAGE DECODE STALL: 6.42038 AVERAGE EXECUTE STALL: 1.49441e+14
L2BTB BRANCH_OTHER ACCESS:          0 HIT:          0 MISS:          0 AVERAGE STALL: -nan AVERAGE FETCH STALL: -nan AVERAGE FETCH QUEUE STALL: -nan AVERAGE DECODE STALL: -nan AVERAGE EXECUTE STALL: -nan
L2BTB TOTAL ROB OCCUPANCY AT BTB MISS: 96.5216

L2C TOTAL     ACCESS:    4550490  HIT:    4055378  MISS:     495112  HIT %:    89.1196  MISS %:    10.8804   MPKI: 9.90224
L2C LOAD INSTRUCTION	ACCESS:    2752560  HIT:    2508249  MISS:     244311  HIT %:    91.1242  MISS %:    8.87577  MPKI: 4.88622
L2C LOAD TRANSLATION INSTRUCTION	ACCESS:        370  HIT:        115  MISS:        255  HIT %:    31.0811  MISS %:    68.9189  MPKI: 0.0051
L2C LOAD DATA	ACCESS:     754989  HIT:     669731  MISS:      85258  HIT %:    88.7074  MISS %:    11.2926  MPKI: 1.70516
L2C RFO DATA	ACCESS:     293111  HIT:     227689  MISS:      65422  HIT %:    77.6801  MISS %:    22.3199  MPKI: 1.30844
L2C PREFETCH DATA	ACCESS:     214971  HIT:     134261  MISS:      80710  HIT %:    62.4554  MISS %:    37.5446  MPKI: 1.6142
L2C WRITEBACK DATA	ACCESS:     532383  HIT:     514771  MISS:      17612  HIT %:    96.6919  MISS %:    3.30814  MPKI: 0.35224
L2C LOAD TRANSLATION DATA	ACCESS:       2052  HIT:        520  MISS:       1532  HIT %:    25.3411  MISS %:    74.6589  MPKI: 0.03064
L2C TRANSLATION FROM L1D PREFETCHER DATA	ACCESS:         54  HIT:         42  MISS:         12  HIT %:    77.7778  MISS %:    22.2222  MPKI: 0.00024

L2C PREFETCH  REQUESTED:     102158  ISSUED:     102158  USEFUL:       9417  USELESS:      71882
L2C USEFUL LOAD PREFETCHES:       9417 PREFETCH ISSUED TO LOWER LEVEL:      81149  ACCURACY: 11.6046
 TIMELY PREFETCHES:       9417 LATE PREFETCHES: 439 DROPPED PREFETCHES: 0
L2C AVERAGE MISS LATENCY: 41.0685 cycles
L2C RQ	ACCESS:    3803193	FORWARD:          0	MERGED:          0	TO_CACHE:    3803139
L2C WQ	ACCESS:     532383	FORWARD:         55	MERGED:          0	TO_CACHE:     532383
L2C PQ	ACCESS:     222948	FORWARD:          0	MERGED:       3596	TO_CACHE:     219351

L2C Dense regions hint from L2: 0
PSCL5 TOTAL     ACCESS:       4510  HIT:       2255  MISS:       2255  HIT %:         50  MISS %:         50   MPKI: 0.0451
PSCL5 LOAD TRANSLATION INSTRUCTION	ACCESS:       4404  HIT:       2202  MISS:       2202  HIT %:         50  MISS %:         50  MPKI: 0.04404
PSCL5 TRANSLATION FROM L1D PREFETCHER INSTRUCTION	ACCESS:        106  HIT:         53  MISS:         53  HIT %:         50  MISS %:         50  MPKI: 0.00106


PSCL4 TOTAL     ACCESS:       4292  HIT:       2141  MISS:       2151  HIT %:    49.8835  MISS %:    50.1165   MPKI: 0.04302
PSCL4 LOAD TRANSLATION INSTRUCTION	ACCESS:       3650  HIT:       2088  MISS:       1562  HIT %:    57.2055  MISS %:    42.7945  MPKI: 0.03124
PSCL4 TRANSLATION FROM L1D PREFETCHER INSTRUCTION	ACCESS:        104  HIT:         53  MISS:         51  HIT %:    50.9615  MISS %:    49.0385  MPKI: 0.00102
PSCL4 LOAD TRANSLATION DATA	ACCESS:        536  HIT:          0  MISS:        536  HIT %:          0  MISS %:        100  MPKI: 0.01072
PSCL4 TRANSLATION FROM L1D PREFETCHER DATA	ACCESS:          2  HIT:          0  MISS:          2  HIT %:          0  MISS %:        100  MPKI: 4e-05


PSCL3 TOTAL     ACCESS:       4303  HIT:       2139  MISS:       2164  HIT %:    49.7095  MISS %:    50.2905   MPKI: 0.04328
PSCL3 LOAD TRANSLATION INSTRUCTION	ACCESS:       2772  HIT:       2103  MISS:        669  HIT %:    75.8658  MISS %:    24.1342  MPKI: 0.01338
PSCL3 TRANSLATION FROM L1D PREFETCHER INSTRUCTION	ACCESS:         52  HIT:         36  MISS:         16  HIT %:    69.2308  MISS %:    30.7692  MPKI: 0.00032
PSCL3 LOAD TRANSLATION DATA	ACCESS:       1459  HIT:          0  MISS:       1459  HIT %:          0  MISS %:        100  MPKI: 0.02918
PSCL3 TRANSLATION FROM L1D PREFETCHER DATA	ACCESS:         20  HIT:          0  MISS:         20  HIT %:          0  MISS %:        100  MPKI: 0.0004


PSCL2 TOTAL     ACCESS:       4324  HIT:       2069  MISS:       2255  HIT %:    47.8492  MISS %:    52.1508   MPKI: 0.0451
PSCL2 LOAD TRANSLATION INSTRUCTION	ACCESS:       2331  HIT:       2017  MISS:        314  HIT %:    86.5294  MISS %:    13.4706  MPKI: 0.00628
PSCL2 TRANSLATION FROM L1D PREFETCHER INSTRUCTION	ACCESS:         52  HIT:         52  MISS:          0  HIT %:        100  MISS %:          0  MPKI: 0
PSCL2 LOAD TRANSLATION DATA	ACCESS:       1889  HIT:          0  MISS:       1889  HIT %:          0  MISS %:        100  MPKI: 0.03778
PSCL2 TRANSLATION FROM L1D PREFETCHER DATA	ACCESS:         52  HIT:          0  MISS:         52  HIT %:          0  MISS %:        100  MPKI: 0.00104


LLC TOTAL     ACCESS:     566747  HIT:     537189  MISS:      29558  HIT %:    94.7846  MISS %:    5.21538   MPKI: 0.59116
LLC LOAD INSTRUCTION	ACCESS:     244311  HIT:     243438  MISS:        873  HIT %:    99.6427  MISS %:   0.357331  MPKI: 0.01746
LLC LOAD TRANSLATION INSTRUCTION	ACCESS:        255  HIT:        220  MISS:         35  HIT %:    86.2745  MISS %:    13.7255  MPKI: 0.0007
LLC LOAD DATA	ACCESS:      84832  HIT:      81365  MISS:       3467  HIT %:    95.9131  MISS %:     4.0869  MPKI: 0.06934
LLC RFO DATA	ACCESS:      65393  HIT:      51003  MISS:      14390  HIT %:    77.9946  MISS %:    22.0054  MPKI: 0.2878
LLC PREFETCH DATA	ACCESS:      81147  HIT:      70652  MISS:      10495  HIT %:    87.0667  MISS %:    12.9333  MPKI: 0.2099
LLC WRITEBACK DATA	ACCESS:      89265  HIT:      89067  MISS:        198  HIT %:    99.7782  MISS %:   0.221811  MPKI: 0.00396
LLC LOAD TRANSLATION DATA	ACCESS:       1532  HIT:       1433  MISS:         99  HIT %:    93.5379  MISS %:    6.46214  MPKI: 0.00198
LLC TRANSLATION FROM L1D PREFETCHER DATA	ACCESS:         12  HIT:         11  MISS:          1  HIT %:    91.6667  MISS %:    8.33333  MPKI: 2e-05

LLC AVERAGE MISS LATENCY: 203.239 cycles
LLC RQ	ACCESS:     396351	FORWARD:          0	MERGED:          0	TO_CACHE:     396335
LLC WQ	ACCESS:      89265	FORWARD:         18	MERGED:          0	TO_CACHE:      89265
LLC PQ	ACCESS:      81149	FORWARD:          0	MERGED:          0	TO_CACHE:      81147

LLC Dense regions hint to LLC: 0

RAW hits: 1717221
Loads Generated: 12601036
Loads sent to L1D: 10883814
Stores Generated: 6906488
Stores sent to L1D: 6906510
Major fault: 0 Minor fault: 2387
Allocated PAGES: 2387

stream: 
stream:times selected: 1246287
stream:pref_filled: 128485
stream:pref_useful: 28908
stream:pref_late: 9730
stream:misses: 10760
stream:misses_by_poll: 0

CS: 
CS:times selected: 196369
CS:pref_filled: 75516
CS:pref_useful: 51868
CS:pref_late: 9910
CS:misses: 24188
CS:misses_by_poll: 2

CPLX: 
CPLX:times selected: 1048740
CPLX:pref_filled: 25571
CPLX:pref_useful: 7961
CPLX:pref_late: 4234
CPLX:misses: 133205
CPLX:misses_by_poll: 0

NL_L1: 
NL:times selected: 21772
NL:pref_filled: 1162
NL:pref_useful: 491
NL:pref_late: 775
NL:misses: 3174
NL:misses_by_poll: 0

total selections: 2513168
total_filled: 106597
total_useful: 49308
total_late: 27134
total_polluted: 2
total_misses_after_warmup: 800021
conflicts: 5622378

test: 118392

DRAM Statistics
 CHANNEL 0
 RQ ROW_BUFFER_HIT:      11054  ROW_BUFFER_MISS:      18303
 DBUS_CONGESTED:          9
 WQ ROW_BUFFER_HIT:       2045  ROW_BUFFER_MISS:      13796  FULL:          0

 AVG_CONGESTED_CYCLE: 4

CPU 0 Branch Prediction Accuracy: 99.8222% MPKI: 0.32582 Average ROB Occupancy at Mispredict: 142.744
Branch types
NOT_BRANCH: 40836624 81.6732%
BRANCH_DIRECT_JUMP: 543933 1.08787%
BRANCH_INDIRECT: 181519 0.363038%
BRANCH_CONDITIONAL: 6216761 12.4335%
BRANCH_DIRECT_CALL: 940050 1.8801%
BRANCH_INDIRECT_CALL: 170506 0.341012%
BRANCH_RETURN: 1110561 2.22112%
BRANCH_OTHER: 0 0%

DRAM PAGES: 1048576
Allocated PAGES: 2387
Average_ROB_Occupancy: 121.593
Average_Decode_Occupancy: 14.6129
Average_FTQ_Occupancy: 6.85257
Indirect max targets: 14 Average targets: 1.15563
Branch_type:  BRANCH_DIRECT_JUMP:  Count Percentage: 4.13897 5.12003 3.97698 8.46497 2.40668 6.32723 1.55263 68.0125 
Branch_type:  BRANCH_INDIRECT:  Count Percentage: 6.11545 3.53349 8.13041 9.68367 3.33861 2.80496 1.73821 64.6552 
Branch_type:  BRANCH_CONDITIONAL:  Count Percentage: 22.8197 2.76049 1.65328 7.56646 2.91521 3.56898 1.66349 57.0524 
Branch_type:  BRANCH_DIRECT_CALL:  Count Percentage: 0.391087 1.2553 0.737933 4.49537 2.99523 2.60552 2.82928 84.6903 
Branch_type:  BRANCH_INDIRECT_CALL:  Count Percentage: 9.54814 0 3.003 0.00410887 0.999924 1.71135 2.7054 82.0281 
Branch_type:  BRANCH_RETURN:  Count Percentage: 4.25868 4.66014 1.24136 4.75127 5.54162 3.53595 1.99904 74.0119 
Branch_type:  BRANCH_DIRECT_JUMP:  Total Count: 44969 55628 43209 91970 26148 68744 16869 738941 
Branch_type:  BRANCH_INDIRECT:  Total Count: 22186 12819 29496 35131 12112 10176 6306 234560 
Branch_type:  BRANCH_CONDITIONAL:  Total Count: 2834992 342947 205394 940013 362169 443389 206662 7087860 
Branch_type:  BRANCH_DIRECT_CALL:  Total Count: 7346 23579 13861 84439 56261 48941 53144 1590785 
Branch_type:  BRANCH_INDIRECT_CALL:  Total Count: 32533 0 10232 14 3407 5831 9218 279491 
Branch_type:  BRANCH_RETURN:  Total Count: 94539 103451 27557 105474 123019 78495 44377 1642999 
Number of unique branch instructions: 10480
Upper 32 bits: 
aaaa
ffff
ffff0000
Unique upper 32 bits: 3
Unique upper 36 bits: 3
Unique upper 40 bits: 5
Unique upper 44 bits: 32
Unique upper 48 bits: 159
Variant_0 : 999 0.325195
Variant_1 : 2067 0.672852
Variant_2 : 0 0
Variant_3 : 0 0
Offset_3 4329
Offset_4 269
Offset_5 477
Offset_6 537
Offset_7 614
Offset_8 534
Offset_9 506
Offset_10 415
Offset_11 342
Offset_12 277
Offset_13 218
Offset_14 228
Offset_15 203
Offset_16 234
Offset_17 165
Offset_18 135
Offset_19 254
Offset_20 145
Offset_21 267
Offset_22 403
Offset_23 241
Offset_24 348
Offset_25 88
Offset_47 84
decode_dispatch_called: 19728335 42.7585
Dispatch_width: 0 9600390 48.663 20.8075
Dispatch_width: 1 552521 2.80065 1.19751
Dispatch_width: 2 673755 3.41516 1.46027
Dispatch_width: 3 453873 2.30061 0.983707
Dispatch_width: 4 1817707 9.21369 3.93963
Dispatch_width: 5 313097 1.58704 0.678595
Dispatch_width: 6 6316992 32.0199 13.6912
Empty_decode_cycles: 26410689 57.2415
ROB_full_cycles: 2633493 5.70773
Starvation_cycles_per_kilo_instr: 371.885
Starvation_cycles_per_kilo_instr_3: 350.577
Starvation_cycles_per_kilo_instr_0: 333.776
Branch_type_1  (3,1)  (4,8)  (5,39)  (6,77)  (7,121)  (8,130)  (9,134)  (10,108)  (11,79)  (12,43)  (13,7)  (14,2)  (15,3)  (16,4)  (18,1)  (19,4)  (20,2)  (21,1)  (22,3)  (23,2)  (24,10)  (25,12) 
Branch_type_2  (3,1)  (5,1)  (8,3)  (9,3)  (12,1)  (13,1)  (14,1)  (16,3)  (17,2)  (20,2)  (21,2)  (23,5)  (24,1)  (47,38) 
Branch_type_3  (3,4327)  (4,261)  (5,433)  (6,444)  (7,460)  (8,342)  (9,281)  (10,173)  (11,136)  (12,49)  (13,7) 
Branch_type_4  (6,4)  (7,8)  (8,26)  (9,53)  (10,62)  (11,64)  (12,100)  (13,94)  (14,101)  (15,98)  (16,106)  (17,76)  (18,62)  (19,122)  (20,74)  (21,144)  (22,217)  (23,136)  (24,199)  (25,72) 
Branch_type_5  (8,2)  (9,1)  (10,4)  (11,6)  (12,3)  (13,14)  (14,16)  (15,11)  (16,20)  (17,12)  (18,16)  (19,13)  (20,11)  (21,13)  (22,42)  (23,26)  (24,40) 
Branch_type_6  (5,4)  (6,12)  (7,25)  (8,31)  (9,34)  (10,68)  (11,57)  (12,81)  (13,95)  (14,108)  (15,91)  (16,101)  (17,75)  (18,56)  (19,115)  (20,56)  (21,107)  (22,141)  (23,72)  (24,98)  (25,4)  (47,46) 
Unique trigger count: 
Variant_0_evicts_0 : 0
Variant_0_evicts_1 : 0
Variant_0_evicts_2 : 0
Variant_0_evicts_3 : 0
Variant_1_evicts_0 : 0
Variant_1_evicts_1 : 0
Variant_1_evicts_2 : 0
Variant_1_evicts_3 : 0
Variant_2_evicts_0 : 0
Variant_2_evicts_1 : 0
Variant_2_evicts_2 : 0
Variant_2_evicts_3 : 0
Variant_3_evicts_0 : 0
Variant_3_evicts_1 : 0
Variant_3_evicts_2 : 0
Variant_3_evicts_3 : 0
BTB PER SET UNIQUE ADDR: 12 18 10 20 19 19 17 17 11 19 12 24 24 17 15 14 18 14 16 17 18 15 18 18 19 21 17 19 19 19 14 17 19 9 15 14 18 16 11 16 15 16 18 20 18 15 20 11 24 19 24 13 16 19 16 9 11 13 13 19 17 24 22 16 21 19 16 14 24 20 11 16 23 16 13 10 11 18 11 23 22 8 20 21 19 15 15 19 16 31 14 11 17 14 10 21 18 14 20 22 29 24 20 16 22 11 16 20 13 17 15 25 20 15 14 12 20 22 20 21 24 13 15 10 15 11 8 16 25 14 15 23 23 19 13 23 11 19 12 26 18 26 18 15 20 17 18 14 11 17 18 18 13 14 13 27 22 24 20 17 17 17 15 19 13 17 18 14 18 11 13 22 16 20 17 14 16 14 17 21 15 15 12 22 23 22 9 21 15 16 23 16 14 20 15 15 15 22 12 19 26 16 13 18 12 18 19 17 13 18 14 20 18 21 15 21 13 18 10 22 12 14 11 15 15 13 17 25 12 20 13 12 17 19 20 23 17 18 18 13 16 19 19 17 16 16 16 20 16 15 21 17 16 15 21 16 15 14 14 16 17 14 8 18 17 14 11 14 15 16 14 24 11 14 8 14 18 17 17 17 8 19 11 18 18 12 13 27 23 23 14 12 16 23 9 18 16 14 15 18 15 16 10 26 17 25 15 21 21 21 17 19 15 29 14 14 21 14 17 27 16 17 11 16 18 21 14 11 18 14 14 22 16 16 18 22 17 15 14 30 16 17 12 22 20 19 13 14 13 16 15 13 14 18 13 23 16 17 10 14 19 19 12 24 17 21 11 20 15 20 20 14 21 18 10 26 18 25 16 18 15 19 11 12 13 18 18 24 16 13 23 11 24 26 11 13 16 14 18 18 18 16 17 21 14 20 20 16 20 20 13 14 14 18 14 17 15 21 22 22 15 18 18 21 19 19 20 17 20 14 20 16 13 17 23 20 21 12 18 17 18 18 16 24 26 11 14 17 23 21 21 26 20 14 20 31 19 20 15 27 11 16 13 21 25 12 14 18 23 18 18 16 17 13 17 27 16 24 13 18 22 23 14 20 15 18 22 28 21 20 14 20 16 15 13 15 21 25 16 19 14 24 17 24 16 19 15 27 23 24 16 29 17 20 15 24 18 23 13 10 11 18 18 12 20 21 28 12 13 21 23 22 19 16 18 22 16 18 19 21 18 18 22 18 21 25 7 21 12 20 16 22 19 13 15 18 18 17 19 20 17 27 19 12 20 19 10 26 18 22 20 25 22 25 20 23 19 22 16 12 18 21 12 18 19 23 13 19 26 20 11 19 16 14 22 17 10 19 21 15 20 14 16 10 22 19 24 11 14 18 21 20 15 12 8 29 12 22 14 18 22 19 15 14 13 22 16 20 14 20 9 20 22 19 17 18 20 24 10 17 21 15 19 28 22 20 16 20 27 18 13 16 16 14 19 13 16 21 18 17 15 11 20 23 15 21 13 15 11 17 20 16 15 17 29 15 20 14 20 25 22 17 16 20 17 14 18 17 23 22 16 23 15 12 10 17 14 22 14 21 13 16 22 25 11 17 12 14 16 13 14 20 14 15 15 18 19 13 15 22 19 17 18 16 15 14 16 13 18 13 22 16 17 15 11 16 24 22 29 13 15 15 18 17 21 23 16 18 19 12 18 16 16 16 14 17 24 18 14 9 17 13 12 20 17 21 12 18 16 24 19 19 11 19 17 13 21 16 17 22 14 20 22 12 20 21 13 19 14 8 13 8 20 22 18 27 19 12 22 20 26 18 27 22 25 14 20 14 19 13 17 26 24 26 16 23 25 23 11 22 20 18 11 17 19 15 13 15 18 22 19 17 20 18 10 25 17 19 22 13 21 18 17 16 18 18 18 20 16 19 18 15 13 18 22 24 22 18 23 19 17 20 13 17 22 12 17 15 22 14 17 19 21 16 20 6 20 16 16 19 22 9 20 24 17 17 20 18 21 19 20 15 20 16 16 20 23 18 12 14 17 17 14 19 11 18 17 20 13 25 19 17 16 18 17 17 29 19 20 15 20 17 13 19 16 16 11 19 17 18 23 25 20 16 14 26 19 16 20 18 13 20 19 19 16 20 18 21 15 15 14 18 15 22 19 15 20 22 21 16 24 17 21 21 23 21 22 24 12 17 18 20 22 19 19 18 20 24 23 27 15 24 19 18 16 22 30 15 18 18 20 26 25 16 18 14 17 12 20 17 22 24 14 21 18 19 9 24 19 19 19 17 19 15 17 13 11 16 10 12 18 27 16 12 
BTB PER SET COUNT: 1636 1193 2054 1017 1925 1296 2206 763 1819 1278 502 1165 1787 1175 905 557 1105 3174 1390 920 1332 1390 1010 1161 845 1714 664 1452 1642 1609 474 937 1337 145 1023 1092 1028 777 619 1702 689 999 1012 1763 1946 668 993 848 1927 760 1740 741 960 1333 1253 451 472 914 843 1059 838 2040 1567 1068 1501 1895 774 2144 1954 1584 1502 1302 1790 1093 452 633 568 1851 779 1477 2120 270 1626 1295 973 681 481 1646 2051 2693 617 661 1133 1008 242 1325 829 761 1546 2504 2756 1821 1088 893 2597 332 1400 1197 2218 858 874 1921 2303 1073 1009 1009 1229 1378 1583 1899 1684 873 1477 469 543 434 407 1709 2195 1339 876 1983 1309 980 1312 1475 916 1041 511 1616 1029 1750 1452 836 1074 939 1343 744 540 1317 1009 1030 1440 869 570 2353 2244 1556 1204 1633 687 1332 1347 1043 635 1385 819 604 1393 1936 505 864 1124 1045 1408 746 558 672 1469 2115 1097 593 823 1249 1622 2099 257 1043 1212 1248 1473 678 440 1456 815 555 822 2071 694 711 1502 999 1761 931 680 1564 1028 1061 1050 1997 1219 1297 604 4059 1294 1469 970 1803 871 1590 615 1026 639 892 988 1165 921 1596 639 1801 762 396 767 1185 1429 11389 1038 1246 1340 562 920 1271 2135 1590 1027 799 713 1797 998 1255 1311 485 562 489 1566 1275 731 1007 730 698 1094 547 290 1392 923 452 590 857 945 931 548 1184 373 547 615 854 1167 814 1186 1523 147 1403 951 1254 1237 891 254 1583 1395 1360 1136 446 533 1515 467 995 1613 711 897 1454 524 931 329 1946 875 1940 859 1761 1632 1108 1407 1022 635 2037 2437 1167 1542 985 1454 2029 1190 3348 403 918 517 1728 824 489 1298 515 654 1936 1363 545 1016 1694 845 1472 855 2377 694 1801 882 1555 1531 1173 759 896 625 1241 814 1150 637 1532 570 1183 876 1324 459 700 857 1432 653 2058 766 1961 435 1145 747 1347 2037 825 1312 2017 189 1503 806 1635 764 1895 1338 1105 374 490 635 669 1579 1723 655 737 1920 335 1612 1663 443 551 929 962 1231 2435 1248 866 1539 948 957 1392 984 1340 890 1970 554 283 631 1334 699 853 956 4989 1833 1299 782 846 1568 1332 954 1211 1818 1179 1035 624 1990 736 413 1411 1959 1670 1263 660 1079 973 1558 1291 1092 1811 2461 875 1734 1231 1787 1495 1713 2893 1362 957 1719 2532 1292 874 646 2176 820 1130 498 1289 1637 574 9401 990 1625 1180 1253 942 809 712 1050 1796 950 2218 815 814 1912 1774 983 1189 1490 1200 1451 1978 2115 1132 1233 1496 4996 636 315 1245 2254 1531 1035 1059 610 1618 867 1979 1333 620 734 2196 1873 1215 1202 3071 1655 1483 669 1936 682 1734 578 336 526 1164 871 509 1436 1782 1869 1235 948 3667 2321 1469 1413 916 1318 1777 846 1974 1368 1341 947 673 1047 1114 1086 1588 131 1348 828 1497 739 1415 1316 664 992 468 1167 786 1004 1365 630 1951 713 749 1877 921 506 1980 1517 1802 1860 1646 1377 1667 1102 1538 1305 1470 730 758 749 1456 462 2715 902 1467 489 942 2362 865 756 1409 1013 604 1163 920 328 1520 1388 666 758 1101 1176 758 1257 1229 2139 1884 570 1022 1833 1966 843 505 229 2015 502 1597 1598 1176 1886 881 535 856 711 1423 800 2078 746 1737 244 1760 1987 838 735 1236 1559 1057 567 1080 1495 704 1509 1707 2147 1605 883 1579 2656 727 666 1073 499 928 2186 676 1000 1634 894 868 1269 263 1482 1668 7488 1064 1035 1444 1114 1262 1025 809 1247 1250 2107 1588 1486 733 1589 2333 1330 1360 1429 1138 2113 913 1230 1164 1704 2201 659 1914 1106 679 313 981 1028 2368 1207 1453 644 1136 2233 1616 582 1259 595 902 584 709 873 1252 1228 950 986 772 2092 850 829 1515 1457 1314 732 1026 656 920 1015 1116 1089 1599 1653 1161 1151 1001 655 2720 1551 1483 2653 514 1174 340 882 652 1761 1288 1304 808 1505 758 1645 868 1717 907 604 854 1560 1522 753 276 1096 461 293 1272 1516 1638 605 1552 436 1519 888 1645 761 1125 1230 694 1405 1467 745 1743 2448 1260 1727 721 1061 1289 814 1206 526 389 711 925 1564 1431 1229 2248 880 376 1233 1342 1934 887 2117 1928 1629 867 1520 721 1475 1008 840 3567 1758 1934 935 2189 1559 3324 685 2972 1249 1649 748 1019 2120 599 675 834 1116 2008 1126 1389 1314 1281 322 2298 1074 1032 1468 641 1477 1214 894 720 747 951 1049 1447 968 4651 1463 1071 439 896 1479 1694 1611 1504 1800 1243 1497 723 877 580 1978 347 974 674 1411 763 1284 1194 1255 1134 1088 6 1100 976 2103 1269 1662 165 1201 969 1111 1411 736 1007 1182 1770 1933 953 2674 457 685 1248 1926 881 833 827 1449 935 846 1897 781 1557 939 2008 853 1516 1396 1761 1040 1536 979 1273 3133 1747 1011 1123 1333 1326 291 1418 741 934 108 1238 861 667 1762 1634 999 773 826 2472 1230 822 1324 1358 546 2270 1414 1040 920 1368 1089 1660 861 917 656 1650 1662 2033 1113 947 1420 1372 1377 764 1469 1243 1341 1006 1944 854 1917 1786 425 914 951 1936 1011 759 1147 1184 1576 1352 1673 2471 1240 2159 1688 1379 989 1677 2790 934 1366 1518 1209 3059 1759 1644 1101 934 902 2369 1002 1100 1530 2050 1143 1486 848 1188 379 1849 1430 781 1715 1728 1095 904 703 750 828 1001 281 470 815 2678 677 756 
To predecode: 0
Predecoding something: 0
Predecode request dropped: 0
sizeofblock_0 0
sizeofblock_1 295636
sizeofblock_2 549573
sizeofblock_3 0
sizeofblock_4 0
sizeofblock_5 0
sizeofblock_6 0
sizeofblock_7 0
sizeofblock_8 0
Variant_0 Correct: 1223216 Incorrect: 0 Accuracy: 1
Variant_1 Correct: 4969492 Incorrect: 0 Accuracy: 1
Variant_2 Correct: 0 Incorrect: 0 Accuracy: -nan
Variant_3 Correct: 0 Incorrect: 0 Accuracy: -nan
