
*** ChampSim Multicore Out-of-Order Simulator ***

Warmup Instructions: 50000000
Simulation Instructions: 50000000
Number of CPUs: 1
LLC sets: 2048
LLC ways: 16
Off-chip DRAM Size: 4096 MB Channels: 1 Width: 64-bit Data Rate: 6400 MT/s
CPU 0 runs ./micro_traces/srv173.trace.gz
.gz
ITLB has LRU replacement policy
DTLB has LRU replacement policy
STLB has LRU replacement policy
FDIP Prefetcher at L1I
L1I has LRU replacement policy
L1D has LRU replacement policy
Initialize SRRIP state for L2C
Initialize DRRIP state for LLC
Heartbeat CPU 0 instructions: 10000001 cycles: 2798401 heartbeat IPC: 3.57347 cumulative IPC: 3.57347 (Simulation time: 0 hr 2 min 0 sec) 
Heartbeat CPU 0 instructions: 20000001 cycles: 5596661 heartbeat IPC: 3.57365 cumulative IPC: 3.57356 (Simulation time: 0 hr 4 min 0 sec) 
Heartbeat CPU 0 instructions: 30000002 cycles: 8393201 heartbeat IPC: 3.57585 cumulative IPC: 3.57432 (Simulation time: 0 hr 6 min 11 sec) 
Heartbeat CPU 0 instructions: 40000002 cycles: 11191142 heartbeat IPC: 3.57406 cumulative IPC: 3.57426 (Simulation time: 0 hr 8 min 16 sec) 
Heartbeat CPU 0 instructions: 50000002 cycles: 13987829 heartbeat IPC: 3.57566 cumulative IPC: 3.57454 (Simulation time: 0 hr 10 min 15 sec) 

Warmup complete CPU 0 instructions: 50000002 cycles: 13987829 (Simulation time: 0 hr 10 min 15 sec) 

Cycle: 20000000 FTQ IN: 56365994 FTQ occupancy: 17.8976 DECODE IN: 56365994 DECODE occupancy: 45.6977 ROB IN: 56365994 ROB occupancy: 275.451 ROB OUT: 56365959
Heartbeat CPU 0 instructions: 60000000 cycles: 23406644 heartbeat IPC: 1.0617 cumulative IPC: 1.0617 (Simulation time: 0 hr 12 min 3 sec) 
Cycle: 30000000 FTQ IN: 10425540 FTQ occupancy: 6.25298 DECODE IN: 10425520 DECODE occupancy: 12.7393 ROB IN: 10425520 ROB occupancy: 105.785 ROB OUT: 10425549
Heartbeat CPU 0 instructions: 70000002 cycles: 33005944 heartbeat IPC: 1.04174 cumulative IPC: 1.05163 (Simulation time: 0 hr 13 min 56 sec) 
Cycle: 40000000 FTQ IN: 10615234 FTQ occupancy: 6.1191 DECODE IN: 10615203 DECODE occupancy: 12.5821 ROB IN: 10615177 ROB occupancy: 106.15 ROB OUT: 10615183
Heartbeat CPU 0 instructions: 80000003 cycles: 42440392 heartbeat IPC: 1.05995 cumulative IPC: 1.05439 (Simulation time: 0 hr 15 min 47 sec) 
Cycle: 50000000 FTQ IN: 10486596 FTQ occupancy: 6.26999 DECODE IN: 10486647 DECODE occupancy: 12.8213 ROB IN: 10486673 ROB occupancy: 106.787 ROB OUT: 10486608
Heartbeat CPU 0 instructions: 90000000 cycles: 51989238 heartbeat IPC: 1.04725 cumulative IPC: 1.05259 (Simulation time: 0 hr 17 min 36 sec) 
Cycle: 60000000 FTQ IN: 10596954 FTQ occupancy: 6.16513 DECODE IN: 10596932 DECODE occupancy: 12.7199 ROB IN: 10596932 ROB occupancy: 105.782 ROB OUT: 10596896
Heartbeat CPU 0 instructions: 100000003 cycles: 61415370 heartbeat IPC: 1.06088 cumulative IPC: 1.05424 (Simulation time: 0 hr 20 min 0 sec) 
Finished CPU 0 instructions: 50000001 cycles: 47427541 cumulative IPC: 1.05424 (Simulation time: 0 hr 20 min 0 sec) 

ChampSim completed all CPUs

Region of Interest Statistics

CPU 0 cumulative IPC: 1.05424 instructions: 50000001 cycles: 47427541
 Fetch stage stalled: 72.9693  Sim cycles: 47427541 fetch stall cycle: 34607548
 Empty decode stage: 61.89  Sim cycles: 47427541 fetch stall cycle: 29352897
ITLB TOTAL     ACCESS:    5531388  HIT:    5035015  MISS:     496373  HIT %:    91.0262  MISS %:    8.97375   MPKI: 9.92746
ITLB LOAD TRANSLATION INSTRUCTION	ACCESS:    5426832  HIT:    4930459  MISS:     496373  HIT %:    90.8534  MISS %:    9.14664  MPKI: 9.92746
ITLB TRANSLATION FROM L1D PREFETCHER INSTRUCTION	ACCESS:     104556  HIT:     104556  MISS:          0  HIT %:        100  MISS %:          0  MPKI: 0

ITLB AVERAGE MISS LATENCY: 9.05395 cycles
ITLB RQ	ACCESS:    7216470	FORWARD:          0	MERGED:    1170329	TO_CACHE:    6046141

DTLB TOTAL     ACCESS:    9460457  HIT:    8988609  MISS:     471848  HIT %:    95.0124  MISS %:    4.98758   MPKI: 9.43696
DTLB LOAD TRANSLATION DATA	ACCESS:    9460457  HIT:    8988609  MISS:     471848  HIT %:    95.0124  MISS %:    4.98758  MPKI: 9.43696

DTLB AVERAGE MISS LATENCY: 9.33169 cycles
DTLB RQ	ACCESS:   13747657	FORWARD:          0	MERGED:    4252504	TO_CACHE:    9495153

STLB TOTAL     ACCESS:    1213045  HIT:    1210792  MISS:       2253  HIT %:    99.8143  MISS %:   0.185731   MPKI: 0.04506
STLB LOAD TRANSLATION INSTRUCTION	ACCESS:     496373  HIT:     495996  MISS:        377  HIT %:     99.924  MISS %:  0.0759509  MPKI: 0.00754
STLB LOAD TRANSLATION DATA	ACCESS:     471809  HIT:     469962  MISS:       1847  HIT %:    99.6085  MISS %:   0.391472  MPKI: 0.03694
STLB TRANSLATION FROM L1D PREFETCHER DATA	ACCESS:     244863  HIT:     244834  MISS:         29  HIT %:    99.9882  MISS %:  0.0118434  MPKI: 0.00058

STLB AVERAGE MISS LATENCY: 70.4643 cycles
STLB RQ	ACCESS:    1333126	FORWARD:          0	MERGED:     120039	TO_CACHE:    1213087

STLB Hit, L1D data hit: 0
STLB Hit, L2C data hit: 0
STLB Hit, LLC data hit: 0
STLB Hit, LLC data miss: 0
STLB STLB hints to L2: 0
L1D TOTAL     ACCESS:   13524544  HIT:   12406647  MISS:    1117897  HIT %:    91.7343  MISS %:    8.26569   MPKI: 22.3579
L1D LOAD DATA	ACCESS:    6923450  HIT:    6184233  MISS:     739217  HIT %:     89.323  MISS %:     10.677  MPKI: 14.7843
L1D RFO DATA	ACCESS:    6273272  HIT:    5987928  MISS:     285344  HIT %:    95.4514  MISS %:    4.54857  MPKI: 5.70688
L1D PREFETCH DATA	ACCESS:     327822  HIT:     234486  MISS:      93336  HIT %:    71.5285  MISS %:    28.4715  MPKI: 1.86672

L1D PREFETCH  REQUESTED:     730208  ISSUED:     730208  USEFUL:      32588  USELESS:      67923
L1D USEFUL LOAD PREFETCHES:      32588 PREFETCH ISSUED TO LOWER LEVEL:     100609  ACCURACY: 32.3907
 TIMELY PREFETCHES:      32588 LATE PREFETCHES: 7167 DROPPED PREFETCHES: 10
L1D AVERAGE MISS LATENCY: 244470 cycles
L1D RQ	ACCESS:   10946051	FORWARD:          0	MERGED:    3828371	TO_CACHE:    6955411
L1D WQ	ACCESS:    6957886	FORWARD:     162669	MERGED:     165640	TO_CACHE:    6792246
L1D PQ	ACCESS:     365304	FORWARD:          0	MERGED:          0	TO_CACHE:     364904

L1D UNIQUE REGIONS ACCESSED: 0
L1D REGIONS CONFLICTS: 0
L1D Cross Page Prefetch Requests: 6044
L1D Same Page Prefetch Requests: 739449
L1D ROI Sum of L1D PQ occupancy: 4644499
L1D PREFETCHES PUSHED FROM L2C: 0
L1I TOTAL     ACCESS:    6853062  HIT:    4077290  MISS:    2775772  HIT %:    59.4959  MISS %:    40.5041   MPKI: 55.5154
L1I LOAD INSTRUCTION	ACCESS:    6428036  HIT:    3652264  MISS:    2775772  HIT %:    56.8177  MISS %:    43.1823  MPKI: 55.5154
L1I PREFETCH INSTRUCTION	ACCESS:     425026  HIT:     425026  MISS:          0  HIT %:        100  MISS %:          0  MPKI: 0

L1I PREFETCH  REQUESTED:     863257  ISSUED:     863257  USEFUL:          0  USELESS:          0
L1I USEFUL LOAD PREFETCHES:          0 PREFETCH ISSUED TO LOWER LEVEL:          0  ACCURACY: -nan
 TIMELY PREFETCHES:          0 LATE PREFETCHES: 0 DROPPED PREFETCHES: 0
L1I AVERAGE MISS LATENCY: 17.1613 cycles
L1I RQ	ACCESS:    9459131	FORWARD:          0	MERGED:    2846467	TO_CACHE:    6612664
L1I PQ	ACCESS:     863257	FORWARD:          0	MERGED:     259451	TO_CACHE:     603806

L1BTB TOTAL     ACCESS:    5673789  HIT:    2032576  MISS:    3641213  HIT %:     35.824  MISS %:     64.176   MPKI: 72.8243
L1BTB BRANCH_DIRECT_JUMP	ACCESS:     548575 HIT:     144035 MISS:     404540 AVERAGE STALL: 33.0538 AVERAGE FETCH STALL: 19.0579 AVERAGE FETCH QUEUE STALL: 5.78742 AVERAGE DECODE STALL: 7.3625 AVERAGE EXECUTE STALL: 2.00984e+14
L1BTB BRANCH_INDIRECT	ACCESS:     183033 HIT:      65849 MISS:     117184 AVERAGE STALL: 87.2644 AVERAGE FETCH STALL: 14.61 AVERAGE FETCH QUEUE STALL: 7.45457 AVERAGE DECODE STALL: 6.8452 AVERAGE EXECUTE STALL: 57.4166
L1BTB BRANCH_CONDITIONAL	ACCESS:    2703503 HIT:    1406980 MISS:    1296523 AVERAGE STALL: 34.0496 AVERAGE FETCH STALL: 20.9011 AVERAGE FETCH QUEUE STALL: 6.10388 AVERAGE DECODE STALL: 6.29523 AVERAGE EXECUTE STALL: 7.40437e+13
L1BTB BRANCH_DIRECT_CALL	ACCESS:     947459 HIT:     105091 MISS:     842368 AVERAGE STALL: 35.8145 AVERAGE FETCH STALL: 20.6837 AVERAGE FETCH QUEUE STALL: 6.96001 AVERAGE DECODE STALL: 7.41325 AVERAGE EXECUTE STALL: 9.75084e+13
L1BTB BRANCH_INDIRECT_CALL	ACCESS:     171880 HIT:      20863 MISS:     151017 AVERAGE STALL: 106.089 AVERAGE FETCH STALL: 17.5629 AVERAGE FETCH QUEUE STALL: 7.73352 AVERAGE DECODE STALL: 6.69059 AVERAGE EXECUTE STALL: 73.5556
L1BTB BRANCH_RETURN	ACCESS:    1119339 HIT:     289758 MISS:     829581 AVERAGE STALL: 34.7273 AVERAGE FETCH STALL: 18.8529 AVERAGE FETCH QUEUE STALL: 5.61172 AVERAGE DECODE STALL: 6.17295 AVERAGE EXECUTE STALL: 1.12729e+14
L1BTB BRANCH_OTHER ACCESS:          0 HIT:          0 MISS:          0 AVERAGE STALL: -nan AVERAGE FETCH STALL: -nan AVERAGE FETCH QUEUE STALL: -nan AVERAGE DECODE STALL: -nan AVERAGE EXECUTE STALL: -nan
L1BTB TOTAL ROB OCCUPANCY AT BTB MISS: 18.3637

L2BTB TOTAL     ACCESS:    3615829  HIT:    2884079  MISS:     731750  HIT %:    79.7626  MISS %:    20.2374   MPKI: 14.635
L2BTB BRANCH_DIRECT_JUMP	ACCESS:     400420 HIT:     312725 MISS:      87695 AVERAGE STALL: 33.0538 AVERAGE FETCH STALL: 19.0579 AVERAGE FETCH QUEUE STALL: 5.78742 AVERAGE DECODE STALL: 7.3625 AVERAGE EXECUTE STALL: 2.00984e+14
L2BTB BRANCH_INDIRECT	ACCESS:     106858 HIT:      97558 MISS:       9300 AVERAGE STALL: 87.2644 AVERAGE FETCH STALL: 14.61 AVERAGE FETCH QUEUE STALL: 7.45457 AVERAGE DECODE STALL: 6.8452 AVERAGE EXECUTE STALL: 57.4166
L2BTB BRANCH_CONDITIONAL	ACCESS:    1296523 HIT:    1046244 MISS:     250279 AVERAGE STALL: 34.0496 AVERAGE FETCH STALL: 20.9011 AVERAGE FETCH QUEUE STALL: 6.10388 AVERAGE DECODE STALL: 6.29523 AVERAGE EXECUTE STALL: 7.40437e+13
L2BTB BRANCH_DIRECT_CALL	ACCESS:     842368 HIT:     653111 MISS:     189257 AVERAGE STALL: 35.8145 AVERAGE FETCH STALL: 20.6837 AVERAGE FETCH QUEUE STALL: 6.96001 AVERAGE DECODE STALL: 7.41325 AVERAGE EXECUTE STALL: 9.75084e+13
L2BTB BRANCH_INDIRECT_CALL	ACCESS:     141502 HIT:     108549 MISS:      32953 AVERAGE STALL: 106.089 AVERAGE FETCH STALL: 17.5629 AVERAGE FETCH QUEUE STALL: 7.73352 AVERAGE DECODE STALL: 6.69059 AVERAGE EXECUTE STALL: 73.5556
L2BTB BRANCH_RETURN	ACCESS:     828158 HIT:     665892 MISS:     162266 AVERAGE STALL: 34.7273 AVERAGE FETCH STALL: 18.8529 AVERAGE FETCH QUEUE STALL: 5.61172 AVERAGE DECODE STALL: 6.17295 AVERAGE EXECUTE STALL: 1.12729e+14
L2BTB BRANCH_OTHER ACCESS:          0 HIT:          0 MISS:          0 AVERAGE STALL: -nan AVERAGE FETCH STALL: -nan AVERAGE FETCH QUEUE STALL: -nan AVERAGE DECODE STALL: -nan AVERAGE EXECUTE STALL: -nan
L2BTB TOTAL ROB OCCUPANCY AT BTB MISS: 91.3782

L2C TOTAL     ACCESS:    4503551  HIT:    4037127  MISS:     466424  HIT %:    89.6432  MISS %:    10.3568   MPKI: 9.32848
L2C LOAD INSTRUCTION	ACCESS:    2775772  HIT:    2524603  MISS:     251169  HIT %:    90.9514  MISS %:    9.04862  MPKI: 5.02338
L2C LOAD TRANSLATION INSTRUCTION	ACCESS:        421  HIT:        177  MISS:        244  HIT %:    42.0428  MISS %:    57.9572  MPKI: 0.00488
L2C LOAD DATA	ACCESS:     732028  HIT:     659295  MISS:      72733  HIT %:    90.0642  MISS %:    9.93582  MPKI: 1.45466
L2C RFO DATA	ACCESS:     285215  HIT:     230403  MISS:      54812  HIT %:    80.7822  MISS %:    19.2178  MPKI: 1.09624
L2C PREFETCH DATA	ACCESS:     181764  HIT:     108935  MISS:      72829  HIT %:    59.9321  MISS %:    40.0679  MPKI: 1.45658
L2C WRITEBACK DATA	ACCESS:     526368  HIT:     513131  MISS:      13237  HIT %:    97.4852  MISS %:    2.51478  MPKI: 0.26474
L2C LOAD TRANSLATION DATA	ACCESS:       1928  HIT:        545  MISS:       1383  HIT %:    28.2676  MISS %:    71.7324  MPKI: 0.02766
L2C TRANSLATION FROM L1D PREFETCHER DATA	ACCESS:         55  HIT:         38  MISS:         17  HIT %:    69.0909  MISS %:    30.9091  MPKI: 0.00034

L2C PREFETCH  REQUESTED:      89560  ISSUED:      89560  USEFUL:       9015  USELESS:      64541
L2C USEFUL LOAD PREFETCHES:       9015 PREFETCH ISSUED TO LOWER LEVEL:      73473  ACCURACY: 12.2698
 TIMELY PREFETCHES:       9015 LATE PREFETCHES: 644 DROPPED PREFETCHES: 0
L2C AVERAGE MISS LATENCY: 38.3215 cycles
L2C RQ	ACCESS:    3795465	FORWARD:          0	MERGED:          0	TO_CACHE:    3795420
L2C WQ	ACCESS:     526368	FORWARD:         45	MERGED:          0	TO_CACHE:     526368
L2C PQ	ACCESS:     190169	FORWARD:          0	MERGED:       4024	TO_CACHE:     186145

L2C Dense regions hint from L2: 0
PSCL5 TOTAL     ACCESS:       4530  HIT:       2265  MISS:       2265  HIT %:         50  MISS %:         50   MPKI: 0.0453
PSCL5 LOAD TRANSLATION INSTRUCTION	ACCESS:       4420  HIT:       2210  MISS:       2210  HIT %:         50  MISS %:         50  MPKI: 0.0442
PSCL5 TRANSLATION FROM L1D PREFETCHER INSTRUCTION	ACCESS:        110  HIT:         55  MISS:         55  HIT %:         50  MISS %:         50  MPKI: 0.0011


PSCL4 TOTAL     ACCESS:       3550  HIT:       1771  MISS:       1779  HIT %:    49.8873  MISS %:    50.1127   MPKI: 0.03558
PSCL4 LOAD TRANSLATION INSTRUCTION	ACCESS:       2056  HIT:       1733  MISS:        323  HIT %:    84.2899  MISS %:    15.7101  MPKI: 0.00646
PSCL4 TRANSLATION FROM L1D PREFETCHER INSTRUCTION	ACCESS:         38  HIT:         38  MISS:          0  HIT %:        100  MISS %:          0  MPKI: 0
PSCL4 LOAD TRANSLATION DATA	ACCESS:       1418  HIT:          0  MISS:       1418  HIT %:          0  MISS %:        100  MPKI: 0.02836
PSCL4 TRANSLATION FROM L1D PREFETCHER DATA	ACCESS:         38  HIT:          0  MISS:         38  HIT %:          0  MISS %:        100  MPKI: 0.00076


PSCL3 TOTAL     ACCESS:       4217  HIT:       2100  MISS:       2117  HIT %:    49.7984  MISS %:    50.2016   MPKI: 0.04234
PSCL3 LOAD TRANSLATION INSTRUCTION	ACCESS:       2985  HIT:       2057  MISS:        928  HIT %:    68.9112  MISS %:    31.0888  MPKI: 0.01856
PSCL3 TRANSLATION FROM L1D PREFETCHER INSTRUCTION	ACCESS:         58  HIT:         43  MISS:         15  HIT %:    74.1379  MISS %:    25.8621  MPKI: 0.0003
PSCL3 LOAD TRANSLATION DATA	ACCESS:       1146  HIT:          0  MISS:       1146  HIT %:          0  MISS %:        100  MPKI: 0.02292
PSCL3 TRANSLATION FROM L1D PREFETCHER DATA	ACCESS:         28  HIT:          0  MISS:         28  HIT %:          0  MISS %:        100  MPKI: 0.00056


PSCL2 TOTAL     ACCESS:       4412  HIT:       2147  MISS:       2265  HIT %:    48.6627  MISS %:    51.3373   MPKI: 0.0453
PSCL2 LOAD TRANSLATION INSTRUCTION	ACCESS:       2469  HIT:       2092  MISS:        377  HIT %:    84.7307  MISS %:    15.2693  MPKI: 0.00754
PSCL2 TRANSLATION FROM L1D PREFETCHER INSTRUCTION	ACCESS:         55  HIT:         55  MISS:          0  HIT %:        100  MISS %:          0  MPKI: 0
PSCL2 LOAD TRANSLATION DATA	ACCESS:       1833  HIT:          0  MISS:       1833  HIT %:          0  MISS %:        100  MPKI: 0.03666
PSCL2 TRANSLATION FROM L1D PREFETCHER DATA	ACCESS:         55  HIT:          0  MISS:         55  HIT %:          0  MISS %:        100  MPKI: 0.0011


LLC TOTAL     ACCESS:     531172  HIT:     503411  MISS:      27761  HIT %:    94.7736  MISS %:    5.22637   MPKI: 0.55522
LLC LOAD INSTRUCTION	ACCESS:     251169  HIT:     250193  MISS:        976  HIT %:    99.6114  MISS %:   0.388583  MPKI: 0.01952
LLC LOAD TRANSLATION INSTRUCTION	ACCESS:        244  HIT:        215  MISS:         29  HIT %:    88.1148  MISS %:    11.8852  MPKI: 0.00058
LLC LOAD DATA	ACCESS:      72158  HIT:      68775  MISS:       3383  HIT %:    95.3117  MISS %:    4.68832  MPKI: 0.06766
LLC RFO DATA	ACCESS:      54743  HIT:      41572  MISS:      13171  HIT %:    75.9403  MISS %:    24.0597  MPKI: 0.26342
LLC PREFETCH DATA	ACCESS:      73472  HIT:      63717  MISS:       9755  HIT %:    86.7228  MISS %:    13.2772  MPKI: 0.1951
LLC WRITEBACK DATA	ACCESS:      77986  HIT:      77639  MISS:        347  HIT %:     99.555  MISS %:   0.444952  MPKI: 0.00694
LLC LOAD TRANSLATION DATA	ACCESS:       1383  HIT:       1284  MISS:         99  HIT %:    92.8416  MISS %:    7.15835  MPKI: 0.00198
LLC TRANSLATION FROM L1D PREFETCHER DATA	ACCESS:         17  HIT:         16  MISS:          1  HIT %:    94.1176  MISS %:    5.88235  MPKI: 2e-05

LLC AVERAGE MISS LATENCY: 152.864 cycles
LLC RQ	ACCESS:     379714	FORWARD:          0	MERGED:          0	TO_CACHE:     379714
LLC WQ	ACCESS:      77986	FORWARD:          1	MERGED:          0	TO_CACHE:      77986
LLC PQ	ACCESS:      73473	FORWARD:          0	MERGED:          0	TO_CACHE:      73472

LLC Dense regions hint to LLC: 0

RAW hits: 1693113
Loads Generated: 12639164
Loads sent to L1D: 10946051
Stores Generated: 6957855
Stores sent to L1D: 6957886
Major fault: 0 Minor fault: 2551
Allocated PAGES: 2551

stream: 
stream:times selected: 1164865
stream:pref_filled: 120253
stream:pref_useful: 23790
stream:pref_late: 6452
stream:misses: 6537
stream:misses_by_poll: 0

CS: 
CS:times selected: 176300
CS:pref_filled: 59778
CS:pref_useful: 34493
CS:pref_late: 6652
CS:misses: 15278
CS:misses_by_poll: 3

CPLX: 
CPLX:times selected: 987208
CPLX:pref_filled: 19151
CPLX:pref_useful: 4213
CPLX:pref_late: 3040
CPLX:misses: 87896
CPLX:misses_by_poll: 0

NL_L1: 
NL:times selected: 19094
NL:pref_filled: 521
NL:pref_useful: 242
NL:pref_late: 191
NL:misses: 998
NL:misses_by_poll: 0

total selections: 2347467
total_filled: 93336
total_useful: 32588
total_late: 17530
total_polluted: 3
total_misses_after_warmup: 771181
conflicts: 5725372

test: 111193

DRAM Statistics
 CHANNEL 0
 RQ ROW_BUFFER_HIT:      10224  ROW_BUFFER_MISS:      17178
 DBUS_CONGESTED:         11
 WQ ROW_BUFFER_HIT:       1289  ROW_BUFFER_MISS:      11641  FULL:          0

 AVG_CONGESTED_CYCLE: 4

CPU 0 Branch Prediction Accuracy: 99.8156% MPKI: 0.33736 Average ROB Occupancy at Mispredict: 98.8132
Branch types
NOT_BRANCH: 40852065 81.7041%
BRANCH_DIRECT_JUMP: 548575 1.09715%
BRANCH_INDIRECT: 183033 0.366066%
BRANCH_CONDITIONAL: 6177342 12.3547%
BRANCH_DIRECT_CALL: 947459 1.89492%
BRANCH_INDIRECT_CALL: 171880 0.34376%
BRANCH_RETURN: 1119339 2.23868%
BRANCH_OTHER: 0 0%

DRAM PAGES: 1048576
Allocated PAGES: 2551
Average_ROB_Occupancy: 107.035
Average_Decode_Occupancy: 12.6561
Average_FTQ_Occupancy: 6.17625
Indirect max targets: 14 Average targets: 1.16722
Branch_type:  BRANCH_DIRECT_JUMP:  Count Percentage: 3.77654 5.38057 4.32716 7.55674 3.1034 6.02625 1.21563 68.6137 
Branch_type:  BRANCH_INDIRECT:  Count Percentage: 6.07027 3.42292 8.1471 9.67635 3.35129 2.81849 0.937947 65.5756 
Branch_type:  BRANCH_CONDITIONAL:  Count Percentage: 21.5961 3.13403 1.63861 6.79325 3.09942 3.63091 1.3509 58.7568 
Branch_type:  BRANCH_DIRECT_CALL:  Count Percentage: 0.387647 1.80701 0.723545 3.57638 3.37181 2.80784 2.1756 85.1502 
Branch_type:  BRANCH_INDIRECT_CALL:  Count Percentage: 9.5875 0 3.00873 0.00378091 0 2.24731 0.997868 84.1548 
Branch_type:  BRANCH_RETURN:  Count Percentage: 3.94705 5.42806 1.0226 4.37494 3.68365 3.79993 2.17476 75.569 
Branch_type:  BRANCH_DIRECT_JUMP:  Total Count: 41393 58974 47428 82826 34015 66051 13324 752044 
Branch_type:  BRANCH_INDIRECT:  Total Count: 22205 12521 29802 35396 12259 10310 3431 239875 
Branch_type:  BRANCH_CONDITIONAL:  Total Count: 2666596 386977 202329 838803 382704 448330 166804 7255043 
Branch_type:  BRANCH_DIRECT_CALL:  Total Count: 7341 34220 13702 67727 63853 53173 41200 1612516 
Branch_type:  BRANCH_INDIRECT_CALL:  Total Count: 32965 0 10345 13 0 7727 3431 289352 
Branch_type:  BRANCH_RETURN:  Total Count: 88351 121502 22890 97929 82455 85058 48680 1691542 
Number of unique branch instructions: 10428
Upper 32 bits: 
aaaa
ffff
ffff0000
Unique upper 32 bits: 3
Unique upper 36 bits: 3
Unique upper 40 bits: 5
Unique upper 44 bits: 32
Unique upper 48 bits: 155
Offset_3 4320
Offset_4 261
Offset_5 479
Offset_6 528
Offset_7 627
Offset_8 530
Offset_9 493
Offset_10 406
Offset_11 338
Offset_12 307
Offset_13 224
Offset_14 246
Offset_15 190
Offset_16 231
Offset_17 158
Offset_18 129
Offset_19 249
Offset_20 143
Offset_21 249
Offset_22 413
Offset_23 242
Offset_24 345
Offset_25 100
Offset_47 87
Offset_64 1
decode_dispatch_called: 19305212 40.7046
Dispatch_width: 0 9238222 47.8535 19.4786
Dispatch_width: 1 537510 2.78427 1.13333
Dispatch_width: 2 702237 3.63755 1.48065
Dispatch_width: 3 453798 2.35065 0.956824
Dispatch_width: 4 1601568 8.29604 3.37687
Dispatch_width: 5 341075 1.76675 0.71915
Dispatch_width: 6 6430802 33.3112 13.5592
Empty_decode_cycles: 28122329 59.2954
ROB_full_cycles: 2022176 4.26372
Starvation_cycles_per_kilo_instr: 389.746
Starvation_cycles_per_kilo_instr_3: 370.319
Starvation_cycles_per_kilo_instr_0: 353.384
Branch_type_1  (3,1)  (4,9)  (5,38)  (6,73)  (7,124)  (8,133)  (9,128)  (10,104)  (11,74)  (12,51)  (13,9)  (14,2)  (15,3)  (16,4)  (18,1)  (19,4)  (20,2)  (21,1)  (22,3)  (23,2)  (24,10)  (25,13) 
Branch_type_2  (3,1)  (4,1)  (5,1)  (8,3)  (9,3)  (12,1)  (13,1)  (14,1)  (16,3)  (17,2)  (20,2)  (21,2)  (23,5)  (24,1)  (47,40) 
Branch_type_3  (3,4318)  (4,251)  (5,436)  (6,439)  (7,474)  (8,331)  (9,270)  (10,164)  (11,138)  (12,58)  (13,8)  (64,1) 
Branch_type_4  (6,3)  (7,8)  (8,24)  (9,54)  (10,65)  (11,63)  (12,109)  (13,96)  (14,111)  (15,90)  (16,103)  (17,74)  (18,60)  (19,123)  (20,74)  (21,135)  (22,221)  (23,137)  (24,200)  (25,83) 
Branch_type_5  (8,2)  (9,1)  (10,4)  (11,6)  (12,3)  (13,14)  (14,16)  (15,11)  (16,20)  (17,11)  (18,16)  (19,12)  (20,11)  (21,13)  (22,42)  (23,26)  (24,37) 
Branch_type_6  (5,4)  (6,13)  (7,21)  (8,37)  (9,37)  (10,69)  (11,57)  (12,85)  (13,96)  (14,116)  (15,86)  (16,101)  (17,71)  (18,52)  (19,110)  (20,54)  (21,98)  (22,147)  (23,72)  (24,97)  (25,4)  (47,47) 
aaaaab1fc620: 2ac9e77e 2aca25ac 2aca717c 2aca8eff 2acaf6bc 2acaf9aa 2acaf9f1 2acb1abc 2acb1b7f 2acd4e22 2acdb712 2acf2c20 2acf5f9e 2ad0ef44 2ad3f15c 2ad414e6 2ad60e42 2ad8609c 2ad99830 2ada35cc 2ada4676 2ada6612 2adf183e 2adf30e5 2adf5602 2adf785c 2ae11572 2aeb2dcf 2aee101b 2aee1ae1 2b156a8c 2b156b61 2b156bea 2b167f35 2b177656 2b17feec 2b1a3e5a 
aaaaab1fcb00: 2acf2d72 2acf3277 2acf32fe 2acf3734 2acf604c 2acfa5b7 2ad397b5 2ad3b800 2ae8af7d 2ae8aff0 2ae9aaba 2aea9fc6 2aeaa358 2aee910b 2aee91cf 2af6fe87 2af70dfe 2b16850c 2b178094 2b17ec8f 
aaaaab1fcb10: 2acf2d95 2acf32a8 2acf331b 2acf3758 2acf6052 2acfa5f4 2ad397c3 2ad3b81c 2ae8af88 2ae8affe 2ae9aacf 2aeaa017 2aeaa36d 2aee9114 2aee91d8 2af6fe8c 2af70e22 2b168526 2b1780a3 2b17ecac 
aaaaac68f310: 2ac9ec8c 2ac9fb44 2ac9fbd2 2aca29c5 2aca59ab 2acac04c 2acaf6e0 2acaf6ec 2acaf6f9 2acaf700 2acaf708 2acf2d90 2acf3361 2acf338f 2acf3396 2ad3cfbd 2ad3cfc4 2ad3d000 2ad3f35f 2ad3f39d 2ad3f3da 2ad41585 2ad4955d 2ad49571 2ad4f3f2 2ad4f400 2ad5f240 2ad5f37c 2ad5f86a 2ad5f86f 2ad5f880 2ad5fc0d 2ad5fc14 2ad5fc21 2ad5fe1b 2ad873bb 2ad873e3 2ad8a6b2 2ad9086e 2ad93096 2ad9bbb2 2ada152c 2ada1554 2ada3332 2ada5522 2adf3130 2adf313c 2adf3a3f 2adf3bd9 2adf5788 2adf7a8d 2ae07f6b 2ae0857a 2ae0857e 2ae08630 2ae08634 2ae08637 2ae08642 2ae0866f 2ae086e4 2ae086ec 2ae08717 2ae0871b 2aee0170 2aee1d38 2aee75f4 2aee7662 2aee85ca 2aee85e4 2aee8eef 2af70b84 2af74e8f 2b17d843 
aaaaac690ef0: 2aca298e 2aca598b 2acb111b 2acb175f 2acb1772 2acbfaf4 2acbfb00 2acf374f 2acf6d43 2acfa5c8 2ad3baf1 2ad3d4ac 2ad3d4b8 2ad3f1cf 2ad486b2 2ad5a59b 2ad5fc64 2ad5fcf9 2ad6121c 2ad906e9 2ad907bf 2ad9bada 2ada16ce 2ada1ad5 2ada43df 2ada64c0 2ada72ee 2adeb71a 2adf3bcb 2adf7a38 2adf7c6a 2adf8872 2adf8880 2adf9959 2adf9abe 2ae07f78 2ae08503 2ae08754 2ae12e80 2aea3bea 2aecb509 2aee00b0 2aee2bdd 2aee5467 2aee5601 2aee8f20 2af703fd 2af7048b 2af74e74 2dfba627 
Unique trigger count: 
1 9927
2 558
3 92
4 32
5 12
6 7
7 9
8 1
9 2
10 2
11 2
12 1
13 3
14 1
16 2
19 3
20 2
37 1
50 1
73 1
BTB PER SET UNIQUE ADDR: 1 2 2 2 0 0 1 1 3 0 2 0 1 1 0 1 2 1 1 2 0 1 1 2 1 2 1 2 1 1 2 2 2 1 3 0 0 3 4 0 1 2 2 3 1 1 2 1 4 1 1 1 2 0 0 2 3 3 1 1 1 2 2 2 0 4 5 0 2 2 5 1 1 2 1 1 2 6 2 1 1 1 1 4 3 1 1 4 3 2 3 4 2 3 3 0 1 3 0 1 3 2 2 3 3 2 1 1 3 0 1 2 3 2 1 3 1 2 1 0 3 2 2 0 1 1 1 1 2 3 3 0 1 1 2 1 0 0 1 2 2 2 2 0 2 0 1 3 3 2 1 6 1 2 1 1 0 3 1 1 0 0 0 1 3 3 0 1 5 1 2 2 2 1 1 0 1 1 3 1 1 3 5 2 3 2 3 0 1 1 5 1 1 2 2 1 1 1 0 1 2 1 1 0 0 0 1 1 1 0 0 2 2 1 2 1 0 2 1 0 0 1 1 3 2 0 2 2 0 3 5 3 1 2 1 2 2 0 1 2 1 0 2 2 6 3 1 1 3 1 1 1 1 1 0 5 2 2 2 2 3 3 2 2 2 4 3 0 2 1 2 2 1 2 2 2 1 0 3 2 2 2 1 1 2 3 2 1 1 1 0 0 1 2 0 1 3 2 0 1 2 2 1 1 2 2 3 2 3 3 2 1 2 2 3 0 2 2 1 1 1 2 2 2 0 2 1 3 0 0 3 0 2 2 3 1 2 3 4 0 3 0 0 1 1 3 1 2 1 2 1 4 3 2 2 2 1 0 3 0 0 2 1 2 4 2 1 0 0 0 3 1 2 0 1 2 2 1 2 3 0 0 1 3 0 0 2 1 2 1 1 2 2 2 2 0 3 0 0 2 3 1 2 1 1 0 1 2 0 1 0 0 0 2 1 0 4 1 1 2 1 1 2 2 2 4 0 0 1 3 0 0 4 3 3 3 3 1 0 0 1 4 3 2 3 1 1 2 1 1 3 0 1 0 3 0 1 3 2 2 3 0 4 2 0 0 3 0 0 3 0 1 1 1 2 1 0 1 2 0 0 1 1 2 0 2 2 0 3 1 3 1 1 2 0 2 2 1 3 0 3 0 0 1 0 2 2 0 1 2 3 2 3 3 2 1 1 4 1 4 1 0 3 1 3 3 0 3 3 1 5 1 2 2 1 4 0 0 3 0 0 4 3 1 5 1 6 3 4 4 2 3 3 3 0 1 1 0 1 2 6 0 1 2 1 0 0 2 3 4 3 0 1 4 1 0 0 1 0 0 1 1 1 0 1 0 0 4 1 1 2 2 0 1 1 2 2 0 1 1 0 0 1 3 0 1 1 1 2 0 2 1 2 1 2 1 2 0 2 1 3 1 4 0 2 1 1 2 1 0 3 1 0 2 2 2 0 0 1 2 6 1 3 3 0 0 2 1 2 1 1 1 3 1 1 0 4 0 1 3 3 3 3 3 2 1 1 2 0 0 4 2 2 0 4 2 0 2 4 2 1 0 3 2 2 1 1 2 3 1 0 4 1 1 1 3 3 3 2 3 0 2 0 2 1 1 0 1 0 0 1 2 0 1 2 0 1 1 0 2 1 0 1 1 0 1 1 1 0 3 3 2 1 0 1 1 5 1 1 0 1 3 1 2 1 1 3 2 2 3 0 0 1 3 0 1 2 3 2 0 2 1 0 2 1 1 4 1 0 1 2 2 0 0 1 2 3 1 1 1 2 1 0 0 3 3 3 4 0 0 1 3 0 0 2 3 3 1 1 0 2 2 1 2 1 1 1 4 0 2 0 2 1 0 2 1 1 0 0 3 3 0 1 0 2 1 1 1 1 4 1 1 2 1 3 0 1 0 3 2 0 1 0 1 0 1 3 2 3 0 2 0 3 1 2 2 0 0 1 0 0 0 0 1 4 1 1 0 2 0 1 1 1 2 1 0 2 2 3 1 2 1 1 0 0 0 1 2 0 0 2 0 1 2 1 1 4 0 1 1 1 0 0 1 1 3 0 1 0 4 3 3 0 0 1 2 0 1 1 2 4 1 3 1 2 0 3 0 2 1 3 1 4 2 2 1 1 1 0 1 1 1 0 3 2 2 1 2 1 1 1 0 4 1 1 1 4 2 2 1 2 1 2 2 2 4 8 2 2 2 1 1 0 2 3 1 3 4 1 2 3 2 1 3 1 1 1 2 2 1 3 1 1 2 2 1 2 2 1 4 0 1 2 1 2 3 3 2 0 2 2 0 3 0 1 2 3 3 1 3 3 1 7 4 0 2 2 1 1 1 3 4 2 1 3 0 0 1 1 0 2 0 1 3 0 2 4 1 3 3 0 1 3 2 1 3 2 1 1 1 0 1 1 0 2 0 1 2 3 3 1 4 3 2 0 1 7 0 1 1 1 1 2 2 1 5 3 3 3 3 1 4 2 2 1 0 4 0 1 2 1 5 1 0 4 1 1 1 2 1 1 2 3 3 2 2 2 1 1 3 4 2 1 2 1 1 3 2 1 4 1 2 2 2 3 3 0 1 4 1 0 2 1 0 1 2 1 1 1 2 1 3 2 0 1 1 3 2 1 0 2 0 0 3 2 1 2 2 1 4 0 1 4 0 3 1 1 2 2 4 2 4 0 6 4 0 2 1 2 0 0 1 3 0 1 1 2 4 1 0 0 2 3 1 1 2 0 0 1 4 1 4 2 2 0 2 0 0 2 4 6 0 4 1 0 1 3 1 4 0 2 3 2 1 1 1 0 4 1 3 0 1 2 5 4 1 2 2 0 3 4 3 1 3 3 2 0 0 3 3 4 1 2 2 1 1 3 2 3 1 0 1 1 2 5 3 4 0 0 1 1 1 2 1 3 0 0 1 2 3 2 0 3 1 1 0 1 1 5 0 1 2 0 4 2 0 2 1 3 2 1 1 2 1 2 2 0 3 2 1 0 3 1 1 2 2 1 1 0 2 1 1 1 2 1 2 3 1 1 2 0 1 3 0 2 2 1 1 1 1 2 2 1 0 2 0 1 1 2 2 1 1 1 1 1 4 1 3 2 1 2 0 1 1 1 3 2 2 1 2 1 2 0 1 3 2 3 1 4 2 1 0 1 2 3 1 1 1 3 0 5 2 1 3 1 0 3 3 1 1 1 3 0 2 2 1 1 1 2 2 0 1 1 4 2 1 2 2 0 2 1 0 1 2 1 1 1 0 0 2 1 0 1 1 0 2 1 3 4 1 1 0 1 1 1 0 1 0 0 3 1 0 1 1 0 1 1 0 0 0 0 0 0 1 0 0 2 0 2 0 2 1 2 0 1 0 0 4 1 0 2 1 3 2 1 0 1 2 1 0 2 0 1 1 1 1 1 0 2 0 3 1 0 1 4 1 0 1 0 3 1 2 2 1 2 2 3 2 0 1 1 0 1 0 4 0 1 1 0 0 0 1 0 1 1 0 1 2 2 1 1 1 2 2 2 1 1 0 1 2 2 0 0 1 2 1 2 1 0 1 1 4 3 0 0 1 2 1 0 0 3 1 3 0 2 1 2 2 1 2 3 3 5 0 1 1 2 2 1 5 3 3 2 3 4 0 0 2 2 1 1 2 1 1 2 0 2 1 0 1 3 0 1 1 3 1 2 3 3 1 0 1 4 0 2 3 2 2 2 1 3 3 1 1 1 2 2 2 1 5 2 1 1 1 1 3 3 1 1 1 1 0 2 1 2 3 0 0 1 1 0 3 3 2 0 2 3 0 1 2 2 1 1 2 1 0 0 3 2 1 0 0 0 2 1 0 2 1 3 3 2 1 4 1 2 7 3 2 3 2 1 3 3 1 1 1 1 0 0 2 3 1 2 0 0 4 4 1 2 3 0 0 1 2 2 2 2 1 2 2 1 1 0 2 0 1 2 1 0 0 0 1 0 1 2 0 3 0 3 1 1 0 2 1 1 3 0 3 0 1 0 1 2 1 4 0 1 1 0 1 2 2 0 1 1 0 1 1 1 1 2 2 3 0 3 0 0 1 2 1 1 6 1 0 2 2 3 2 1 2 5 1 3 3 0 2 0 3 2 4 5 0 3 1 5 0 4 0 3 2 3 2 1 1 1 1 1 2 0 2 0 1 3 3 2 1 4 3 2 2 4 0 2 0 3 1 3 2 2 2 2 1 0 2 3 2 1 0 1 2 0 0 0 1 0 1 1 2 0 2 2 1 3 1 2 1 2 2 3 0 1 2 2 1 0 2 2 2 2 0 0 1 0 0 1 0 0 1 1 1 2 1 1 2 0 0 0 2 1 1 1 1 2 1 2 2 2 0 2 1 0 2 1 2 1 2 1 0 1 0 3 1 0 1 2 1 3 2 2 2 0 2 0 1 0 0 2 2 0 4 2 4 0 2 2 5 1 0 0 1 4 2 2 0 1 0 3 1 0 0 2 3 1 6 2 0 3 0 1 1 2 1 2 1 0 2 0 1 2 3 1 0 0 4 4 1 0 0 2 3 1 0 3 3 1 0 3 3 0 1 1 4 0 0 0 2 1 0 3 0 1 0 2 2 2 0 2 1 2 1 2 1 0 2 4 2 3 0 3 2 1 1 1 0 2 1 1 0 0 0 4 3 1 2 1 1 4 3 3 3 2 1 3 3 0 2 2 1 4 4 2 3 2 2 1 3 1 3 3 2 1 4 5 2 2 2 2 2 2 1 2 2 0 2 1 0 2 2 0 2 0 1 1 0 1 2 1 3 0 0 0 2 1 2 1 1 0 2 1 1 0 0 0 2 1 1 0 2 3 1 2 3 0 0 2 2 2 2 2 1 1 0 1 0 0 1 1 2 1 1 0 5 1 3 1 3 3 1 2 2 0 0 0 1 2 0 4 3 2 2 3 2 3 2 2 1 3 1 3 1 1 2 1 4 1 2 1 2 2 3 3 3 2 0 3 1 2 1 5 5 4 3 3 1 2 1 4 0 2 0 2 1 0 2 2 5 2 1 2 1 1 1 2 4 1 1 1 2 1 2 2 2 3 3 2 2 3 5 1 1 3 1 3 3 1 4 2 1 4 2 3 3 1 1 3 3 3 0 1 1 1 1 1 2 1 1 0 1 3 1 2 1 2 1 1 2 0 1 0 0 5 2 4 5 0 0 1 2 2 1 0 3 3 2 1 3 2 1 1 1 2 0 1 3 0 1 2 1 1 0 2 1 1 0 0 1 0 1 2 0 4 1 3 2 1 2 0 0 0 3 0 3 1 0 1 1 2 1 1 1 0 1 1 0 1 0 3 2 1 0 1 0 2 2 4 4 1 0 2 5 1 3 2 0 0 3 1 0 1 1 0 3 2 0 1 1 1 0 1 0 1 3 3 0 0 1 3 1 2 3 2 1 3 1 1 0 1 1 2 3 1 2 3 3 0 1 2 1 0 1 0 4 3 2 1 2 1 1 5 3 0 2 3 2 3 1 3 1 4 2 2 0 1 1 2 0 1 1 2 1 1 1 2 4 2 0 1 0 1 2 4 2 1 3 3 2 0 1 0 0 1 2 2 1 2 0 1 1 1 2 4 1 2 2 1 2 3 0 2 0 2 1 2 5 1 1 2 1 2 3 1 3 2 1 0 1 5 1 0 3 1 4 1 3 3 2 2 0 0 3 4 1 0 0 4 4 1 1 2 0 1 0 0 3 1 0 3 0 2 1 2 2 0 3 2 2 0 1 2 1 1 0 1 0 2 2 2 1 0 0 1 4 0 1 1 2 3 1 2 4 1 2 3 4 0 3 3 2 1 2 1 4 2 0 1 2 1 1 2 1 4 2 0 1 2 0 2 5 2 3 1 3 1 2 2 1 2 2 1 3 4 0 1 1 4 1 0 4 0 3 3 3 1 2 3 2 1 5 4 1 1 0 0 0 0 5 3 1 3 4 2 0 1 1 3 2 2 0 5 2 3 4 2 3 3 3 0 2 3 1 0 2 0 2 0 0 1 0 2 3 3 2 0 2 1 3 1 3 2 3 3 1 3 1 2 3 1 1 3 0 1 1 0 0 2 3 1 4 2 1 2 1 2 1 1 3 1 0 3 0 2 1 4 3 4 2 1 4 1 2 3 4 1 5 3 2 0 1 3 2 3 0 3 2 4 2 2 2 1 2 1 1 1 0 3 1 3 2 0 4 0 1 2 1 3 0 3 1 2 2 3 0 0 1 6 1 0 1 1 0 0 0 1 0 0 3 2 1 3 3 1 1 1 4 0 2 1 2 0 1 1 2 1 1 1 1 2 0 0 2 0 1 2 1 0 3 3 1 2 2 1 3 4 3 5 1 2 2 1 1 0 3 2 1 2 1 1 2 3 3 0 3 5 3 0 1 0 3 1 1 2 1 2 3 4 1 2 2 4 1 4 1 3 3 2 1 2 1 1 1 3 0 2 2 0 2 0 1 1 2 3 2 0 1 1 2 3 0 2 0 1 1 2 2 1 2 2 0 2 0 3 2 1 3 4 2 3 2 4 2 2 3 2 3 3 2 4 4 3 6 2 0 5 2 2 4 3 4 0 3 2 4 3 0 0 1 2 3 1 5 3 5 6 3 1 0 3 4 2 2 2 2 2 0 2 3 0 0 4 2 1 2 3 2 4 4 3 1 2 1 0 3 0 4 0 1 5 0 2 4 2 2 2 1 0 2 3 8 1 3 5 5 4 3 5 3 1 4 3 1 0 1 2 3 4 3 2 2 5 0 1 3 2 3 2 4 2 1 1 2 2 3 0 2 1 2 4 2 2 2 0 3 3 0 4 1 0 1 4 3 3 1 1 1 1 2 2 2 2 3 1 5 2 4 2 3 2 1 1 2 2 1 0 2 1 1 4 1 3 3 1 3 4 0 2 0 1 1 2 1 3 1 3 1 1 1 1 2 1 3 4 1 0 2 3 1 2 1 1 2 3 1 2 2 1 4 1 3 0 2 0 2 3 1 0 0 1 1 3 0 0 1 2 1 2 1 0 2 1 4 2 1 2 0 3 1 1 3 0 1 4 3 2 3 0 2 2 2 1 1 0 0 0 1 1 0 3 2 2 2 3 1 3 3 5 1 1 3 4 1 2 4 2 2 4 0 4 1 3 2 2 1 3 2 3 4 2 2 4 4 2 2 2 0 1 1 0 4 1 1 1 1 2 2 1 1 4 0 1 2 2 2 4 0 4 1 2 2 1 1 3 2 1 3 1 2 1 2 2 2 2 3 1 2 2 4 0 4 2 1 3 2 2 1 4 0 3 2 1 1 1 4 2 0 1 0 1 1 2 0 1 2 2 1 3 4 1 1 1 1 2 3 0 3 3 2 0 2 3 0 3 0 1 3 3 1 1 1 1 0 2 0 0 1 4 1 2 1 1 3 2 1 2 0 3 2 3 4 6 1 1 3 3 3 1 1 0 2 2 2 0 0 3 2 1 2 2 2 0 3 1 1 1 5 1 3 3 4 0 2 4 1 1 1 3 1 4 6 2 3 0 2 3 4 1 4 1 6 4 1 1 1 2 2 2 2 1 2 3 3 5 2 3 2 4 2 3 2 1 4 3 3 1 1 2 1 3 0 1 1 4 2 2 0 2 0 0 1 3 7 2 2 1 2 2 3 2 2 2 1 1 0 1 2 2 1 2 1 3 3 1 0 1 2 1 1 0 4 0 4 4 0 0 1 3 1 2 2 4 0 3 3 1 3 1 3 0 1 2 2 1 1 2 2 3 0 0 0 3 2 2 3 3 4 2 4 2 1 2 0 2 0 2 0 3 1 2 1 0 4 0 1 0 1 1 2 3 0 3 2 2 0 2 0 4 2 0 1 4 1 0 2 2 2 1 0 3 2 0 2 2 2 1 2 6 2 3 3 2 3 2 3 2 1 2 0 2 2 2 3 2 1 2 0 2 0 2 2 2 3 1 3 1 2 2 0 3 2 5 0 0 3 1 2 3 3 1 2 3 0 0 2 2 0 0 2 1 3 2 2 1 0 3 2 1 3 1 4 0 2 1 2 4 0 0 0 1 2 2 1 1 3 1 2 2 2 1 2 0 4 1 2 2 0 2 0 3 2 3 2 1 2 0 2 1 2 1 1 2 0 2 2 0 2 1 0 3 2 1 7 3 2 2 2 2 1 1 3 2 1 0 0 1 1 1 0 2 2 2 3 2 0 3 1 4 2 3 0 0 5 0 2 4 3 0 4 1 2 2 3 2 2 0 1 0 3 3 1 0 4 1 3 2 2 3 3 3 1 1 4 2 3 1 1 3 2 4 1 2 2 1 5 2 1 2 0 2 2 3 2 1 2 3 0 0 3 1 3 2 2 1 0 1 4 0 2 2 2 4 1 2 2 4 2 3 1 2 1 4 1 3 3 5 1 1 4 0 3 2 3 4 4 1 3 0 2 4 0 3 2 1 2 2 3 1 2 0 3 1 2 1 2 1 2 0 2 2 1 1 2 2 3 3 2 2 2 2 7 0 3 1 2 2 2 1 3 1 4 1 3 1 3 2 2 2 2 3 1 2 4 0 6 0 5 2 1 1 2 1 0 2 1 2 2 3 3 2 3 2 0 2 3 2 1 2 2 0 2 0 3 6 2 1 3 4 1 2 1 4 1 1 1 2 3 0 1 2 0 0 2 1 0 2 0 1 1 1 1 1 2 0 3 1 3 3 2 0 1 0 2 1 1 2 1 0 0 0 1 2 2 2 2 1 1 1 1 0 1 0 2 2 3 0 1 1 0 1 1 0 1 1 2 1 1 1 0 3 1 0 2 1 0 0 1 2 2 2 2 2 1 1 1 2 4 0 2 1 3 2 1 0 0 2 0 0 1 2 2 2 2 2 4 3 1 1 3 2 2 1 2 3 0 1 2 2 1 3 2 3 1 2 1 4 2 2 2 2 1 2 7 1 1 5 4 1 2 2 0 2 4 2 2 3 0 3 1 0 2 2 2 2 3 1 1 2 2 3 6 4 0 0 3 1 0 0 1 0 0 2 2 1 1 2 1 3 0 3 1 0 0 3 1 2 2 5 2 1 2 1 3 1 1 1 4 3 0 0 2 0 3 0 0 0 0 3 3 3 2 0 0 3 1 1 0 1 1 1 2 1 1 2 1 2 3 2 1 0 5 1 2 2 1 2 0 0 2 1 1 2 1 1 0 1 1 3 1 3 1 2 1 1 1 1 2 1 0 
BTB PER SET COUNT: 1 2 2 2 0 0 1 1 2512 0 2 0 1 1 0 1 2 1 1 2 0 1 1 2 1 2 1 2 1477 1 2 2 2 1 5 0 0 1550 3268 0 1 2 2 491 1 1 2 1 3947 1 1 1 2 0 0 2 1554 4431 1 1 1 2 2 3 0 1919 1925 0 2 2 5422 1 1 2 1 1 483 2743 2 1 1 1 1 1684 727 1 1 29 4427 3 672 527 2 2989 5 0 1 12 0 1 13 2 4 962 3 3 1 1 1442 0 1 2 961 2 1 733 1 2 1 0 4 3 2 0 1 1 1 2 2 5 1442 0 1 1 2 1 0 0 1 2 2 2 2 0 2 0 1 2987 1441 2 1 5337 1 2 1 1 0 4 1 1 0 0 0 1 6 4 0 1 4945 1 2 2 2 1 1 0 1 1 1008 1 1 4 7382 2 5 2 5 0 1 1 4440 1 1 2 2 6 1 1 0 1 2 1 1 0 0 0 1 1 1 0 0 2 2 1 2 1 0 3 1 0 0 1 1 5 2 0 2 24 0 5 2349 4 1 3 1 2 2 0 1 2 1 0 2 2 5426 5 1 1 5 1 1 1 1 1 0 3470 3 2 2 2 1095 1440 2 2 3 3950 963 0 2 1 2 2 1 2 2 2 1 0 2989 2 2 2 1 1 2 1921 2 1 1 1 0 0 1 2 0 1 14 2 0 1 2 2 1 1 2 2 19 2 1441 962 2 1 2 2 961 0 2 2 1 1 1 2 2 2 0 2 1 12 0 0 1443 0 2 3 2922 1 962 5 972 0 4 0 0 961 961 5 1 2 1 4 1 8 4 2 2 2 1 0 2952 0 0 2 1 2 1297 2 1 0 0 0 8 1 2 0 1 2 2 1 2 17 0 0 1 1551 0 0 3 1 2 1 1 3 2 2 2 0 2988 0 0 2 1441 1 2 1 1 0 1477 2 0 997 0 0 0 2 1 0 11 1 1 88 1 1 2 2 2 16 0 0 1 1441 0 0 1923 11 731 1440 4 1 0 0 1 972 1442 2 5 1 1 2 1 1 1440 0 2 0 1440 0 1 4 2 2 10 0 1442 2 0 0 4 0 0 32 0 1 1 480 2 1 0 1 2 0 0 1 1 481 0 2 2 0 4 1 3 1 3 2 0 2 2 1 4 0 962 0 0 1 0 2 2 0 1 2 1440 3 4 5 3 1 1 4428 1 1448 1 0 962 1 5 4 0 5 2991 1 4349 1 3 4 1 5423 0 0 14 0 0 1922 2952 1 3441 1 1011 14 2994 4906 2 1441 6 1444 0 1 1 0 1 2 7859 0 1 2 1 0 0 2 5 1476 4427 0 1 3947 1 0 0 1 0 0 1 1 2 0 2 0 0 971 2 1 2 2 0 1 997 2 2 0 1 1 0 0 1 1550 0 1 1 1 3 0 2 1 2 1 2 1 1039 0 2 1 14 1 1442 0 2 1 1 2 1 0 3466 1 0 7 2 2 0 0 1 2 1925 1 2986 5 0 0 3 1 2 1 2 1 1442 1 1 0 2994 0 1 1440 7791 4 12 962 2 2 1 962 0 0 1686 2 2 0 1921 962 0 2 10 2 1 0 3 962 2 1 1 1478 5 1 0 966 1 1 1 1441 1440 1441 2 5 0 2 0 2 1 961 0 1 0 0 1 2 0 1 962 0 1477 1 0 2 1 0 1 1 0 1 1 1 0 19 4 2 997 0 1 1 4908 1 1 0 1 4 1 2 1 1 5 2 2 964 0 0 1 4 0 1 2 1440 2 0 2 1 0 2 1 1 1444 1 0 1 2 2 0 0 1 2 2507 2 1 1 2 1 0 0 1110 2988 17 17 0 0 1 1117 0 0 4 17 1110 1 1 0 2 2 1 3 1 1 2 974 0 4 0 2 1 0 2 1 2 0 0 352 14 0 1 0 2 1 1 1 1 1920 1 1 2 1 1442 0 1 0 1442 2 0 1 0 1 0 1 962 2 6 0 2 0 1442 1 2 2 0 0 1 0 0 0 0 2 2266 1 1 0 2 0 1 1 1 4 1 0 3 3 4428 1 2 1 2 0 0 0 1 2 0 0 4 0 1 2 1 1 1126 0 1 2 1 0 0 1 1 2991 0 1 0 3752 33 961 0 0 1 2 0 2 1 2 37 2 1992 1 2 0 966 0 2 1 16 1 1686 517 2 1 49 1 0 2 1 1 0 1957 4 2 1 2 1 1 1 0 3076 1 1 1 2309 4 2 1 2 482 2 2 4 704 5784 2 3 3 1 1 0 371 5 1 2987 2956 1 2 1442 2 2 495 1 4 1 3 2 1 962 1 1 2 2 1 2 2 1 1449 0 1 2 1 2 14 1441 4 0 2 1925 0 3506 0 1 3 16 6 1 14 1039 1 6431 22 0 2 2 1 2 1 16 1921 2 1 1441 0 0 1 1 0 3 0 1 961 0 2 15 1 2510 16 0 1 741 2 1 380 2 1 1 3 0 1 1 0 4 0 1 3 1442 8 1 1920 961 2 0 1 8385 0 1 1 1 1 2 2 1 4946 8 17 5 4429 1 23 3 2 2 0 22 0 1 2 1 4431 1 0 250 1 1 1 483 1 1 2 1442 11 2 2 2 1 2 14 2746 3 1 2 1 1 14 2 1 5427 1 2 2 2 7 9 0 1 14 1 0 2 1 0 1 4 4 1 1 3 1 14 2 0 1 1 1034 2 1 0 2 0 0 4430 2 1 2 2 1 18 0 1 3950 0 1442 1 1 2 2 3466 2 4430 0 5906 4949 0 2 1 2 0 0 1 3468 0 1 1 2 1220 1 0 0 483 2992 1 1 2 0 0 1 4427 1 2994 2 2 0 3 0 0 2 1454 5440 0 1452 1 0 1 3 3 22 0 2 971 2 1 1 1 0 2999 1 962 0 1 2 6386 20 1 3 2 0 4 1446 3443 2 4428 3 2 0 0 13 2989 1922 1 2 3 1 1 2990 2 12 1 0 1 1 2 7900 962 4946 0 0 1 1 1 2 1 961 0 0 1 2 1488 2 0 17 1 2 0 1 1 1927 0 1 2 0 1445 2 0 3 1 4427 2 1 1 2 1 2 2 0 2987 2 1 0 1442 1 1 2 2 1 2 0 2 1 1 1 2 1 2 1250 1 1 2 0 1 9 0 2 2 1 1 1 1 3 2 1 0 2 0 1 1 2 2 4 1 1 1 1 2501 1 281 2 1 2 0 1 1 1 4427 2 2 1 2 1 2 0 1 1443 2 13 1 18 2 1 0 1 2 961 1 1 1 17 0 3512 2 1 1440 1 0 1440 1080 1 1 3 1441 0 2 2 1 1 3 3 5 0 2 1 16 3 1 3 2 0 2 1477 0 1 1368 1 1 2 0 0 2 1 0 2 1368 0 3 1 1440 1445 1 1 0 1 1 1 0 1 0 0 961 2 0 1 2 0 1 1 0 0 0 0 0 0 1 0 0 2 0 2 0 2 1 2 0 1 0 0 4433 29 0 2 1 3468 2 1 0 2 2 113 0 5 0 1 1 1 1 1 0 3 0 1281 380 0 1 2509 1 0 1 0 8 1 2 3 1 13 3 5 2 0 1 1 0 1 0 17 0 1 1 0 0 0 1 0 1 1 0 1 453 2 1 1 1 2 2 2 5 1 0 1 2 2 0 0 1 2 1 13 1 0 1 1 13 1441 0 0 1 2 1 0 0 734 1 1440 0 2 1 2 2 1 2 1441 5 4464 0 1 1 2 2 1 1931 1442 2986 2 1309 6426 0 0 2 1478 1 1 2 1 1 2 0 2 997 0 1 4 0 1 1 2986 1 2 3 2987 2880 0 1 4428 0 2 19 2 2 2 1 1441 2990 1 1 1 276 2 2 1 2967 2 1 2 1 1 4427 8 1 1 1 3 0 2 1 2 962 0 0 1 1 0 6 14 3 0 2 7 0 1 3 3 1 960 2 1 0 0 1306 2 961 0 0 0 3 482 0 2 1 961 7 2 1 5582 1 2 7385 225 2 16762 961 1 2507 7 3 1 1 1 0 0 2 2986 1 2 0 0 10 735 1 172 5 0 0 1 1478 155 3 2 1 4 2 2 737 0 2 0 1 2 1 0 0 0 698 0 1 2 0 1442 0 961 1 1 0 2 1 2 1151 0 1442 0 2 0 1 3 1 4907 0 1 535 0 1 2 3 0 1 2 0 997 1 1 1 3 2 4429 0 17 0 0 1 2 1477 1 2831 1 0 2 4 1146 2 3 2 2349 1 1619 1440 0 2 0 1442 245 3948 1504 0 4 1 4612 0 4928 0 697 1479 5 2 1 1 1 1 1 2 0 2 0 1 6 1559 2 1 2481 396 2 5 1487 0 2 0 496 1 1442 2 2 2 2 1 0 2 4443 2 1 0 1 2 0 0 0 1 0 1 1 2 0 2 2 1 1442 6 2 1 2 2 7 0 1 2 2 1 0 2 2 2 2 0 0 1 0 0 1 0 0 1 1 1 2 1 1 2 0 0 0 2 1 1 1 1 3 1 2 2 101 0 3 1 0 2 1 2 1 2 1 0 1 0 5 1 0 1 2 1 6 3 2 2 0 3 0 1 0 0 2 2 0 1922 1478 1456 0 2 2 2379 1 0 0 1 31 3 2 0 5 0 1441 1 0 0 2 12 5 4907 2 0 2987 0 1 1 2 1 2 1 0 2 0 1 2 5 2 0 0 1441 4428 1 0 0 2 1441 1 0 1441 1441 1 0 1441 13 0 1 1 1447 0 0 0 2 1 0 1440 0 1 0 2 2 3 0 2 2 225 1 2 1 0 2 1558 2 9 0 3 2 1 1 1 0 2 1 1 0 0 0 1921 5 1 2 1 1 7 1481 4429 14 2 1 11 12 0 2 2 1 1922 18 2 5 4 2 2958 5 1 4 6 2 1 1443 6910 2 2 2 2 2 2 1 2 2 0 2 1 0 3 2 0 2 0 1 1 0 1 2 1 978 0 0 0 2 1 2 1 1 0 2 1 1 0 0 0 3 1 1 0 2 1441 1 2 5 0 0 2 2 2 2 3 1 1 0 1 0 0 1 1 2 1 1 0 4429 1 1440 1 4 252 1 2 2 0 0 0 1 2 0 4448 6 2 2 4 2 962 2 2 1 5 1 68 1 1 2 1 492 1 3 1 2 2 1331 4 1441 2 0 1442 1 2 1 1563 3266 1653 1551 6 1994 2 1 2991 0 2 0 2 1 0 2 2 1442 2 1 2 1 1 1 2 8 1 1 1 2 2 2 4 2 1441 11 2 3 6 2512 2 1 5 1 2989 1039 1 3543 2 1 7 3 11 4 1 1 3 26 5 0 1 1 1 1 1 2 1 1 0 1 2953 1 2 1 2 1 1 2 0 1 0 0 1924 2 2746 1696 0 0 1 2 2 1 0 5 4 2 2 4 2 1 2 1 2 0 1477 4 0 1 2 1 1 0 3 1 1 0 0 1 0 1 3 0 1921 1 1550 2 1 2 0 0 0 962 0 2986 1 0 1 1 3 1 1 1 0 1 1 0 1 0 5 2 1 0 1 0 2 4 1443 746 1 0 2 2981 1 4 2 0 0 125 1 0 1 1 0 490 2 0 1 1 1 0 1 0 1 1440 7 0 0 1 1038 1 2 491 3 1 1440 1 1 0 2 1 2 8 1 2 736 1322 0 1 2 1 0 1 0 1205 1398 2 1 2 1 1 1452 1440 0 2 16 2 16 1 6 1 745 2 2 0 1 1 1478 0 1 1 2 1 1 1 2 1317 2 0 1 0 1 2 1921 4 997 4 133 2 0 1 0 0 1 3 2 1 4 0 2 1 138 4 26 1 2 2 1 2 1442 0 2 0 2 1 2 1694 1 1 2 1 2 962 1 4 3 1 0 1 1454 1 0 962 1 1923 1 17 275 2 2 0 0 13 2989 1 0 0 743 3505 1 1 2 0 1 0 0 4 1 0 17 0 2 1 2 2 0 15 2 2 0 2 2 12 1 0 1 0 2 2 2 1 0 0 1 22 0 1 1 2 12 1 2 1490 1 2 12 1443 0 1441 12 2 1 2 1 20 2 0 2 2 1 1 2 1 14 5 0 1 2 0 2 2877 3 16 1 956 1 2 5 1 2 3 1 4 1923 0 2 1 1447 1 0 1442 0 3 6 16 1 2 1550 2 1 3990 1921 41 1 0 0 0 0 2399 1550 1 1442 1924 3 0 1 1 4 2 2 0 22 2 1550 735 2 17 4 962 0 2 1442 1 0 2 0 3 0 0 1 0 2 485 1442 2 0 2 1 10 1 2988 2 4429 1441 1 961 1 2 1442 1 1 20 0 1 1 0 0 2 12 2 14 2 1 2 1 2 1 1 962 1 0 13 0 2 1 1444 6 3931 3 1 965 1 2 14 1440 1 1594 1440 2 0 1 5 2 10 0 962 3 4434 2 2 2 2 5 1 1 1 0 12 1 11 40 0 1452 0 1 2 1 12 0 962 1 2 3 14 0 0 1 3450 1 0 1 1 0 0 0 1 0 0 10 3 1 2989 5 1 1 1 1408 0 2 2 2 0 1 1 2 1 1 482 1 2 0 0 2 0 1 2 1 0 2990 2989 1 2 2 1 18 1447 962 3006 1 5 2 1 1 0 1109 3 3 2 1 1 2 4 12 0 2990 4918 17 0 1 0 5 1 1 2 1 2 2987 2005 1 3 2 16 1 22 2 1933 4 2 1 2 1 1 1 8 0 2 3 0 2 0 1 1 2 962 2 0 1 1 2 1441 0 2 0 1 1 2 4 1 2 2 0 2 0 2987 1482 1 495 981 2 5 4 2880 2 2 7 2 8 14 2 1440 5904 4 6904 2 0 3517 998 5 4909 962 1426 0 6 2 3992 2983 0 0 1 2 1994 1 5426 7 3481 2320 1442 1 0 5 2170 2 2 2 2 2 0 2 1442 0 0 1922 3 1 40 481 2 17 2266 1550 1 2 1 0 2987 0 1444 0 1 4429 0 2 1443 2 2 4 1 0 2 1442 1936 1 1444 3950 2981 1442 1440 2652 734 1 1923 1035 1 0 1 2 1440 1453 1440 2 2 4943 0 1 1199 2 969 2 1442 2 1 1 2 2 2991 0 2 1 2 4908 2 2 2 0 4 1442 0 2992 1 0 1 20 961 483 1 1 1 1 3 2 3 2 14 1 2401 2 8 2 1441 2 1 1 2 2 1 0 2 1 1 11 1 961 8 1 1109 3225 0 2 0 2 2 2 1 5 1 5 1 1 1 1 2 1 14 971 1 0 2 14 1 2 3 1 2 12 1 2 2 1 1921 1 2508 0 2 0 2 1480 1 0 0 1 1 962 0 0 1 2 1 2 1 0 2 1 1920 2 1 2 0 962 1 1 1440 0 1 1441 116 4 5 0 2 2 2 1 1 0 0 0 1 1 0 963 2 2 2 1440 1 1440 962 1925 1 1 2989 992 1 2 1922 2 3 1444 0 1442 1 961 2 2 1 961 2 962 2140 3 2 4426 1921 2 2 2 0 1 2 0 4909 1 2 1 1 3 2 1 1 5058 0 1 2 2 2 50 0 4329 1 2 2 1 1 14 3 2 1886 2 2 1 2 2 2 4 962 1 2 2 1442 0 1545 2 1 377 3 2 1 3468 0 18 2 1 1 1 1921 2 0 1 0 2 1 2 0 1 2 2 1 8 15 1 1 1 1 2 10 0 1441 17 2 0 2 6 0 6 0 1 17 17 1 1 1 1 0 4 0 0 1 389 1 2 1 1 1440 3 1 2 0 4 2 4417 3947 6867 2 1 3469 2960 1440 1 1 0 2 5 3 0 0 1442 2 1 2 2 2 0 2987 1 1 1 5546 1 17 12 1572 0 2 1441 1 1 1 1441 1 1922 4913 998 2991 0 2 1442 2168 1 1922 1 2403 964 1 1 1 2 2 4 2 1 2 8 961 1473 2 1440 2 558 2 1440 5 1 1503 1440 961 1 1 2 2 1440 0 1 1 970 2 2 0 2 0 0 1 1441 6865 2 2 1 2 2 5 2 2 4 1 1 0 2 2 2 1 2 1 1440 962 1 0 1 3 5 1 0 74 0 735 1920 0 0 1 1441 997 2 2 4910 0 962 997 1 962 2 962 0 1 3 2 1 1 3 2 1440 0 0 0 784 3 2 1441 1441 3467 2 3998 2 1 3 0 2 0 3 0 1440 1 2 1 0 3987 0 1 0 1 1 3 563 0 1441 2 2 0 2 0 3470 3 0 1 18 1 0 2 2 3 1 0 7 3 0 2 2 3 1 2 3952 3 4429 7 2 4429 2 735 2 1 2 0 5 2 3 1958 2 1 2 0 3 0 2 2 2 737 1 1441 961 2 10 0 962 2 3436 0 0 5 1 2 20 18 1 2 21645 0 0 2 2 0 0 2 1 122 260 2 1 0 5 2 1 2510 1 1442 0 2 1 2 1921 0 0 0 1 2 2 1 1 38 1 2 2 3 1 2 0 4465 1 2 3 0 2 0 1441 2 1440 2 2 2 0 2 1 2 1 1 2 0 2 2 0 2 1 0 1550 2 1 3463 1441 2 3 2 2 1 1 1426 998 1 0 0 1 1 1 0 2 2 2 17 2 0 1034 1 1685 2 2987 0 0 1924 0 2 2589 962 0 1921 1 2 3 1441 2 2 0 1 0 1441 6 1 0 964 2 5 3 4 961 3 17 1 1 1810 2 1531 1 1 5 2 4428 1 2 2 1 3996 2 1 372 0 1478 2 9 130 1 2 4 0 0 17 1 5 2 2 1 0 1 1080 0 2 2 2 966 1 482 2 3913 2 2953 1 2 1 3949 1 3915 961 2881 1 1 4429 0 961 2 962 1921 1922 1 4426 0 2 1445 0 485 2 1 2 2 4 1 3 0 1440 1 373 1477 2 1 2 0 2 2 1 1 2 2 1441 1839 2 2 2 2 4434 0 2437 1 2 2 2 1 962 1 1811 1 1440 1 1441 2 2 2 2 1441 1 2 1922 0 6425 0 2904 2 1 1 2 1 0 2 1 2 2 1440 2510 2 4 3 0 2 1441 2 1 2 3 0 2 0 490 4467 998 1 1442 2953 1 2 1 1684 1 1 1 2 1306 0 1 2 0 0 2 1 0 2 0 1 1 1 1 1 2 0 2507 1 1440 1442 3 0 1 0 2 1 1 3 3 0 0 0 1 2 2 2 3 1 3 1 518 0 1 0 2 2 961 0 1 2 0 1 1 0 1 1 2 1 1 1 0 108 1 0 2 1 0 0 1 2 2 2 2 2 1 1 1 2 1710 0 2 1 2987 2 1 0 0 2 0 0 1 2 2 2 963 2 3469 1441 1 1 5 5 2 1 2 6 0 1 4 2 1 2989 10 1440 1 2 1 2402 2 2 2 2 1 2 4505 1 1 2165 1446 1 2 3 0 2 2820 2 2 1283 0 2825 3 0 2 2 962 2 855 1 1 2 3 4 1978 964 0 0 2987 2 0 0 1 0 0 2 2 1 1 2 1 961 0 5 1 0 0 5 1 2 2 2841 3 1 3 1 1923 1 1 1 964 968 0 0 2 0 963 0 0 0 0 962 4430 13 2 0 0 739 1 1 0 1 1 1 2 1 1 3 1 2 13 2 1 0 1927 1 2 2 1 2 0 0 2 1 1 2 1 1 0 1 1 4429 1 7 1 3 1 2 1 6 2 1 0 
