
*** ChampSim Multicore Out-of-Order Simulator ***

Warmup Instructions: 50000000
Simulation Instructions: 50000000
Number of CPUs: 1
LLC sets: 2048
LLC ways: 16
Off-chip DRAM Size: 4096 MB Channels: 1 Width: 64-bit Data Rate: 6400 MT/s
CPU 0 runs ./micro_traces/srv13.trace.gz
.gz
ITLB has LRU replacement policy
DTLB has LRU replacement policy
STLB has LRU replacement policy
CPU 0 L1I next line prefetcher
L1I has LRU replacement policy
L1D has LRU replacement policy
Initialize SRRIP state for L2C
Initialize DRRIP state for LLC
Heartbeat CPU 0 instructions: 10000000 cycles: 2796666 heartbeat IPC: 3.57569 cumulative IPC: 3.57569 (Simulation time: 0 hr 1 min 46 sec) 
Heartbeat CPU 0 instructions: 20000001 cycles: 5593653 heartbeat IPC: 3.57528 cumulative IPC: 3.57548 (Simulation time: 0 hr 3 min 26 sec) 
Heartbeat CPU 0 instructions: 30000003 cycles: 8390581 heartbeat IPC: 3.57535 cumulative IPC: 3.57544 (Simulation time: 0 hr 5 min 8 sec) 
Heartbeat CPU 0 instructions: 40000000 cycles: 11188343 heartbeat IPC: 3.57428 cumulative IPC: 3.57515 (Simulation time: 0 hr 6 min 49 sec) 
Heartbeat CPU 0 instructions: 50000001 cycles: 13985690 heartbeat IPC: 3.57482 cumulative IPC: 3.57508 (Simulation time: 0 hr 8 min 27 sec) 

Warmup complete CPU 0 instructions: 50000001 cycles: 13985690 (Simulation time: 0 hr 8 min 27 sec) 

Cycle: 20000000 FTQ IN: 58402296 FTQ occupancy: 19.755 DECODE IN: 58402261 DECODE occupancy: 52.8587 ROB IN: 58402201 ROB occupancy: 319.159 ROB OUT: 58401849
Heartbeat CPU 0 instructions: 60000000 cycles: 21159818 heartbeat IPC: 1.3939 cumulative IPC: 1.3939 (Simulation time: 0 hr 10 min 13 sec) 
Heartbeat CPU 0 instructions: 70000003 cycles: 28406364 heartbeat IPC: 1.37997 cumulative IPC: 1.3869 (Simulation time: 0 hr 12 min 2 sec) 
Cycle: 30000000 FTQ IN: 13816492 FTQ occupancy: 12.3192 DECODE IN: 13816488 DECODE occupancy: 36.2936 ROB IN: 13816548 ROB occupancy: 253.799 ROB OUT: 13816591
Heartbeat CPU 0 instructions: 80000002 cycles: 35583764 heartbeat IPC: 1.39326 cumulative IPC: 1.38901 (Simulation time: 0 hr 13 min 49 sec) 
Cycle: 40000000 FTQ IN: 13939234 FTQ occupancy: 12.228 DECODE IN: 13939210 DECODE occupancy: 36.2024 ROB IN: 13939150 ROB occupancy: 254.213 ROB OUT: 13939111
Heartbeat CPU 0 instructions: 90000000 cycles: 42822932 heartbeat IPC: 1.38137 cumulative IPC: 1.3871 (Simulation time: 0 hr 15 min 17 sec) 
Heartbeat CPU 0 instructions: 100000001 cycles: 49935808 heartbeat IPC: 1.4059 cumulative IPC: 1.39082 (Simulation time: 0 hr 16 min 17 sec) 
Finished CPU 0 instructions: 50000000 cycles: 35950118 cumulative IPC: 1.39082 (Simulation time: 0 hr 16 min 17 sec) 

ChampSim completed all CPUs

Region of Interest Statistics

CPU 0 cumulative IPC: 1.39082 instructions: 50000000 cycles: 35950118
 Fetch stage stalled: 51.8345  Sim cycles: 35950118 fetch stall cycle: 18634551
 Empty decode stage: 28.8946  Sim cycles: 35950118 fetch stall cycle: 10387642
ITLB TOTAL     ACCESS:    7830299  HIT:    7217087  MISS:     613212  HIT %:    92.1687  MISS %:    7.83127   MPKI: 12.2642
ITLB LOAD TRANSLATION INSTRUCTION	ACCESS:    6083049  HIT:    5957742  MISS:     125307  HIT %:    97.9401  MISS %:    2.05994  MPKI: 2.50614
ITLB TRANSLATION FROM L1D PREFETCHER INSTRUCTION	ACCESS:    1747250  HIT:    1259345  MISS:     487905  HIT %:    72.0758  MISS %:    27.9242  MPKI: 9.7581

ITLB AVERAGE MISS LATENCY: 126278 cycles
ITLB RQ	ACCESS:   11728897	FORWARD:          0	MERGED:    3759415	TO_CACHE:    7969482

DTLB TOTAL     ACCESS:    8955332  HIT:    8475236  MISS:     480096  HIT %:     94.639  MISS %:    5.36101   MPKI: 9.60192
DTLB LOAD TRANSLATION DATA	ACCESS:    8955332  HIT:    8475236  MISS:     480096  HIT %:     94.639  MISS %:    5.36101  MPKI: 9.60192

DTLB AVERAGE MISS LATENCY: 9.3472 cycles
DTLB RQ	ACCESS:   13334082	FORWARD:          0	MERGED:    4342621	TO_CACHE:    8991461

STLB TOTAL     ACCESS:    1339267  HIT:    1337215  MISS:       2052  HIT %:    99.8468  MISS %:   0.153218   MPKI: 0.04104
STLB LOAD TRANSLATION INSTRUCTION	ACCESS:     122822  HIT:     122696  MISS:        126  HIT %:    99.8974  MISS %:   0.102587  MPKI: 0.00252
STLB TRANSLATION FROM L1D PREFETCHER INSTRUCTION	ACCESS:     490391  HIT:     490287  MISS:        104  HIT %:    99.9788  MISS %:  0.0212076  MPKI: 0.00208
STLB LOAD TRANSLATION DATA	ACCESS:     480096  HIT:     478299  MISS:       1797  HIT %:    99.6257  MISS %:     0.3743  MPKI: 0.03594
STLB TRANSLATION FROM L1D PREFETCHER DATA	ACCESS:     245958  HIT:     245933  MISS:         25  HIT %:    99.9898  MISS %:  0.0101643  MPKI: 0.0005

STLB AVERAGE MISS LATENCY: 81.1252 cycles
STLB RQ	ACCESS:    1463223	FORWARD:          0	MERGED:     120327	TO_CACHE:    1342896

STLB Hit, L1D data hit: 0
STLB Hit, L2C data hit: 0
STLB Hit, LLC data hit: 0
STLB Hit, LLC data miss: 0
STLB STLB hints to L2: 0
L1D TOTAL     ACCESS:   13059315  HIT:   11931306  MISS:    1128009  HIT %:    91.3624  MISS %:    8.63758   MPKI: 22.5602
L1D LOAD DATA	ACCESS:    6536379  HIT:    5789851  MISS:     746528  HIT %:    88.5789  MISS %:    11.4211  MPKI: 14.9306
L1D RFO DATA	ACCESS:    6199743  HIT:    5913558  MISS:     286185  HIT %:    95.3839  MISS %:    4.61608  MPKI: 5.7237
L1D PREFETCH DATA	ACCESS:     323193  HIT:     227897  MISS:      95296  HIT %:    70.5142  MISS %:    29.4858  MPKI: 1.90592

L1D PREFETCH  REQUESTED:     733146  ISSUED:     733146  USEFUL:      33747  USELESS:      70712
L1D USEFUL LOAD PREFETCHES:      33747 PREFETCH ISSUED TO LOWER LEVEL:     104580  ACCURACY: 32.2691
 TIMELY PREFETCHES:      33747 LATE PREFETCHES: 9174 DROPPED PREFETCHES: 12
L1D AVERAGE MISS LATENCY: 261620 cycles
L1D RQ	ACCESS:   10669554	FORWARD:          0	MERGED:    3930237	TO_CACHE:    6577331
L1D WQ	ACCESS:    6956492	FORWARD:     162466	MERGED:     199741	TO_CACHE:    6756751
L1D PQ	ACCESS:     366813	FORWARD:          0	MERGED:          0	TO_CACHE:     366333

L1D UNIQUE REGIONS ACCESSED: 0
L1D REGIONS CONFLICTS: 0
L1D Cross Page Prefetch Requests: 6235
L1D Same Page Prefetch Requests: 746438
L1D ROI Sum of L1D PQ occupancy: 4677190
L1D PREFETCHES PUSHED FROM L2C: 0
L1I TOTAL     ACCESS:   11309137  HIT:    7639444  MISS:    3669693  HIT %:    67.5511  MISS %:    32.4489   MPKI: 73.3939
L1I LOAD INSTRUCTION	ACCESS:    6776239  HIT:    6201749  MISS:     574490  HIT %:     91.522  MISS %:    8.47801  MPKI: 11.4898
L1I PREFETCH INSTRUCTION	ACCESS:    4532898  HIT:    1437695  MISS:    3095203  HIT %:    31.7169  MISS %:    68.2831  MPKI: 61.9041

L1I PREFETCH  REQUESTED:    5181790  ISSUED:    5181457  USEFUL:    2408680  USELESS:     795714
L1I USEFUL LOAD PREFETCHES:    2408680 PREFETCH ISSUED TO LOWER LEVEL:    3204372  ACCURACY: 75.1686
 TIMELY PREFETCHES:    2408680 LATE PREFETCHES: 109167 DROPPED PREFETCHES: 9351
L1I AVERAGE MISS LATENCY: 939308 cycles
L1I RQ	ACCESS:    9510453	FORWARD:          0	MERGED:    2670450	TO_CACHE:    6840003
L1I PQ	ACCESS:    5181457	FORWARD:          0	MERGED:     292563	TO_CACHE:    4888894

L1BTB TOTAL     ACCESS:    5673109  HIT:    2024021  MISS:    3649088  HIT %:    35.6775  MISS %:    64.3225   MPKI: 72.9818
L1BTB BRANCH_DIRECT_JUMP	ACCESS:     548175  HIT:     142850  MISS:     405325	AVERAGE STALL: 48.3519
L1BTB BRANCH_INDIRECT	ACCESS:     182396  HIT:      65431  MISS:     116965	AVERAGE STALL: 99.627
L1BTB BRANCH_CONDITIONAL	ACCESS:    2700126  HIT:    1400677  MISS:    1299449	AVERAGE STALL: 83.2754
L1BTB BRANCH_DIRECT_CALL	ACCESS:     948930  HIT:     104672  MISS:     844258	AVERAGE STALL: 126.851
L1BTB BRANCH_INDIRECT_CALL	ACCESS:     172271  HIT:      21012  MISS:     151259	AVERAGE STALL: 132.555
L1BTB BRANCH_RETURN	ACCESS:    1121211  HIT:     289379  MISS:     831832	AVERAGE STALL: 40.6161
L1BTB BRANCH_OTHER ACCESS:          0  HIT:          0  MISS:          0	AVERAGE STALL: -nan
L1BTB TOTAL ROB OCCUPANCY AT BTB MISS: 2.123

L2BTB TOTAL     ACCESS:    3623841  HIT:    3568809  MISS:      55032  HIT %:    98.4814  MISS %:    1.51861   MPKI: 1.10064
L2BTB BRANCH_DIRECT_JUMP	ACCESS:     401251  HIT:     398606  MISS:       2645	AVERAGE STALL: 48.3519
L2BTB BRANCH_INDIRECT	ACCESS:     106651  HIT:     103969  MISS:       2682	AVERAGE STALL: 99.627
L2BTB BRANCH_CONDITIONAL	ACCESS:    1299449  HIT:    1299349  MISS:        100	AVERAGE STALL: 83.2754
L2BTB BRANCH_DIRECT_CALL	ACCESS:     844258  HIT:     844196  MISS:         62	AVERAGE STALL: 126.851
L2BTB BRANCH_INDIRECT_CALL	ACCESS:     141818  HIT:     131885  MISS:       9933	AVERAGE STALL: 132.555
L2BTB BRANCH_RETURN	ACCESS:     830414  HIT:     790804  MISS:      39610	AVERAGE STALL: 40.6161
L2BTB BRANCH_OTHER ACCESS:          0  HIT:          0  MISS:          0	AVERAGE STALL: -nan
L2BTB TOTAL ROB OCCUPANCY AT BTB MISS: 140.773

L2C TOTAL     ACCESS:    6659740  HIT:    5687817  MISS:     971923  HIT %:     85.406  MISS %:     14.594   MPKI: 19.4385
L2C LOAD INSTRUCTION	ACCESS:     465324  HIT:     375863  MISS:      89461  HIT %:    80.7745  MISS %:    19.2255  MPKI: 1.78922
L2C PREFETCH INSTRUCTION	ACCESS:    3204369  HIT:    2840575  MISS:     363794  HIT %:    88.6469  MISS %:    11.3531  MPKI: 7.27588
L2C LOAD TRANSLATION INSTRUCTION	ACCESS:        144  HIT:         49  MISS:         95  HIT %:    34.0278  MISS %:    65.9722  MPKI: 0.0019
L2C TRANSLATION FROM L1D PREFETCHER INSTRUCTION	ACCESS:       5273  HIT:       5167  MISS:        106  HIT %:    97.9898  MISS %:    2.01024  MPKI: 0.00212
L2C LOAD DATA	ACCESS:     737333  HIT:     597078  MISS:     140255  HIT %:    80.9781  MISS %:    19.0219  MPKI: 2.8051
L2C RFO DATA	ACCESS:     286056  HIT:     197066  MISS:      88990  HIT %:    68.8907  MISS %:    31.1093  MPKI: 1.7798
L2C PREFETCH DATA	ACCESS:    1433565  HIT:    1185145  MISS:     248420  HIT %:    82.6712  MISS %:    17.3288  MPKI: 4.9684
L2C WRITEBACK DATA	ACCESS:     525750  HIT:     486410  MISS:      39340  HIT %:    92.5174  MISS %:    7.48264  MPKI: 0.7868
L2C LOAD TRANSLATION DATA	ACCESS:       1877  HIT:        429  MISS:       1448  HIT %:    22.8556  MISS %:    77.1444  MPKI: 0.02896
L2C TRANSLATION FROM L1D PREFETCHER DATA	ACCESS:         49  HIT:         35  MISS:         14  HIT %:    71.4286  MISS %:    28.5714  MPKI: 0.00028

L2C PREFETCH  REQUESTED:    3305099  ISSUED:    3305099  USEFUL:      33531  USELESS:     581863
L2C USEFUL LOAD PREFETCHES:      33531 PREFETCH ISSUED TO LOWER LEVEL:     614521  ACCURACY: 5.45644
 TIMELY PREFETCHES:      33531 LATE PREFETCHES: 2307 DROPPED PREFETCHES: 0
L2C AVERAGE MISS LATENCY: 33.5877 cycles
L2C RQ	ACCESS:    1496095	FORWARD:          0	MERGED:          0	TO_CACHE:    1496056
L2C WQ	ACCESS:     525750	FORWARD:         41	MERGED:          0	TO_CACHE:     525750
L2C PQ	ACCESS:    6614051	FORWARD:          0	MERGED:    1954393	TO_CACHE:    4659656

L2C Dense regions hint from L2: 0
PSCL5 TOTAL     ACCESS:      11294  HIT:       5647  MISS:       5647  HIT %:         50  MISS %:         50   MPKI: 0.11294
PSCL5 LOAD TRANSLATION INSTRUCTION	ACCESS:       3826  HIT:       1913  MISS:       1913  HIT %:         50  MISS %:         50  MPKI: 0.03826
PSCL5 TRANSLATION FROM L1D PREFETCHER INSTRUCTION	ACCESS:       7468  HIT:       3734  MISS:       3734  HIT %:         50  MISS %:         50  MPKI: 0.07468


PSCL4 TOTAL     ACCESS:       9343  HIT:       4665  MISS:       4678  HIT %:    49.9304  MISS %:    50.0696   MPKI: 0.09356
PSCL4 LOAD TRANSLATION INSTRUCTION	ACCESS:       1917  HIT:       1579  MISS:        338  HIT %:    82.3683  MISS %:    17.6317  MPKI: 0.00676
PSCL4 TRANSLATION FROM L1D PREFETCHER INSTRUCTION	ACCESS:       3820  HIT:       3086  MISS:        734  HIT %:    80.7853  MISS %:    19.2147  MPKI: 0.01468
PSCL4 LOAD TRANSLATION DATA	ACCESS:       1254  HIT:          0  MISS:       1254  HIT %:          0  MISS %:        100  MPKI: 0.02508
PSCL4 TRANSLATION FROM L1D PREFETCHER DATA	ACCESS:       2352  HIT:          0  MISS:       2352  HIT %:          0  MISS %:        100  MPKI: 0.04704


PSCL3 TOTAL     ACCESS:       9373  HIT:       4680  MISS:       4693  HIT %:    49.9307  MISS %:    50.0693   MPKI: 0.09386
PSCL3 LOAD TRANSLATION INSTRUCTION	ACCESS:       1932  HIT:       1594  MISS:        338  HIT %:    82.5052  MISS %:    17.4948  MPKI: 0.00676
PSCL3 TRANSLATION FROM L1D PREFETCHER INSTRUCTION	ACCESS:       3820  HIT:       3086  MISS:        734  HIT %:    80.7853  MISS %:    19.2147  MPKI: 0.01468
PSCL3 LOAD TRANSLATION DATA	ACCESS:       1269  HIT:          0  MISS:       1269  HIT %:          0  MISS %:        100  MPKI: 0.02538
PSCL3 TRANSLATION FROM L1D PREFETCHER DATA	ACCESS:       2352  HIT:          0  MISS:       2352  HIT %:          0  MISS %:        100  MPKI: 0.04704


PSCL2 TOTAL     ACCESS:       8816  HIT:       4360  MISS:       4456  HIT %:    49.4555  MISS %:    50.5445   MPKI: 0.08912
PSCL2 LOAD TRANSLATION INSTRUCTION	ACCESS:       1963  HIT:       1828  MISS:        135  HIT %:    93.1228  MISS %:    6.87723  MPKI: 0.0027
PSCL2 TRANSLATION FROM L1D PREFETCHER INSTRUCTION	ACCESS:       5015  HIT:       2532  MISS:       2483  HIT %:    50.4885  MISS %:    49.5115  MPKI: 0.04966
PSCL2 LOAD TRANSLATION DATA	ACCESS:       1789  HIT:          0  MISS:       1789  HIT %:          0  MISS %:        100  MPKI: 0.03578
PSCL2 TRANSLATION FROM L1D PREFETCHER DATA	ACCESS:         49  HIT:          0  MISS:         49  HIT %:          0  MISS %:        100  MPKI: 0.00098


LLC TOTAL     ACCESS:    1065674  HIT:    1036819  MISS:      28855  HIT %:    97.2923  MISS %:    2.70768   MPKI: 0.5771
LLC LOAD INSTRUCTION	ACCESS:      88254  HIT:      87895  MISS:        359  HIT %:    99.5932  MISS %:    0.40678  MPKI: 0.00718
LLC PREFETCH INSTRUCTION	ACCESS:     360971  HIT:     360442  MISS:        529  HIT %:    99.8535  MISS %:   0.146549  MPKI: 0.01058
LLC LOAD TRANSLATION INSTRUCTION	ACCESS:         95  HIT:         61  MISS:         34  HIT %:    64.2105  MISS %:    35.7895  MPKI: 0.00068
LLC TRANSLATION FROM L1D PREFETCHER INSTRUCTION	ACCESS:        106  HIT:         95  MISS:         11  HIT %:    89.6226  MISS %:    10.3774  MPKI: 0.00022
LLC LOAD DATA	ACCESS:     139304  HIT:     135557  MISS:       3747  HIT %:    97.3102  MISS %:     2.6898  MPKI: 0.07494
LLC RFO DATA	ACCESS:      88818  HIT:      75629  MISS:      13189  HIT %:    85.1505  MISS %:    14.8495  MPKI: 0.26378
LLC PREFETCH DATA	ACCESS:     253544  HIT:     242953  MISS:      10591  HIT %:    95.8228  MISS %:    4.17718  MPKI: 0.21182
LLC WRITEBACK DATA	ACCESS:     133120  HIT:     132825  MISS:        295  HIT %:    99.7784  MISS %:   0.221605  MPKI: 0.0059
LLC LOAD TRANSLATION DATA	ACCESS:       1448  HIT:       1351  MISS:         97  HIT %:    93.3011  MISS %:     6.6989  MPKI: 0.00194
LLC TRANSLATION FROM L1D PREFETCHER DATA	ACCESS:         14  HIT:         11  MISS:          3  HIT %:    78.5714  MISS %:    21.4286  MPKI: 6e-05

LLC AVERAGE MISS LATENCY: 160.779 cycles
LLC RQ	ACCESS:     318062	FORWARD:          0	MERGED:          0	TO_CACHE:     318039
LLC WQ	ACCESS:     133120	FORWARD:         29	MERGED:          0	TO_CACHE:     133120
LLC PQ	ACCESS:     614521	FORWARD:          0	MERGED:          0	TO_CACHE:     614515

LLC Dense regions hint to LLC: 0

RAW hits: 1964069
Loads Generated: 12633624
Loads sent to L1D: 10669554
Stores Generated: 6956478
Stores sent to L1D: 6956492
Major fault: 0 Minor fault: 2510
Allocated PAGES: 2510
I-Shadow cache 408 bytes
Touched + WorthPF tables 12288 bytes 
MMA filter 174 bytes 
FNL filter 272 bytes 
TOTAL PREFETCHER STORAGE SIZE: 31318 bytes
CPU 0 L1I next line prefetcher final stats

stream: 
stream:times selected: 1174757
stream:pref_filled: 120726
stream:pref_useful: 22493
stream:pref_late: 8084
stream:misses: 8167
stream:misses_by_poll: 0

CS: 
CS:times selected: 174935
CS:pref_filled: 53314
CS:pref_useful: 28848
CS:pref_late: 13405
CS:misses: 22498
CS:misses_by_poll: 2

CPLX: 
CPLX:times selected: 998656
CPLX:pref_filled: 19750
CPLX:pref_useful: 4371
CPLX:pref_late: 3341
CPLX:misses: 97115
CPLX:misses_by_poll: 1

NL_L1: 
NL:times selected: 17514
NL:pref_filled: 578
NL:pref_useful: 226
NL:pref_late: 388
NL:misses: 1679
NL:misses_by_poll: 0

total selections: 2365862
total_filled: 95296
total_useful: 33747
total_late: 26616
total_polluted: 3
total_misses_after_warmup: 787484
conflicts: 5525992

test: 117196

DRAM Statistics
 CHANNEL 0
 RQ ROW_BUFFER_HIT:      10162  ROW_BUFFER_MISS:      18390
 DBUS_CONGESTED:          9
 WQ ROW_BUFFER_HIT:       1434  ROW_BUFFER_MISS:      12184  FULL:          0

 AVG_CONGESTED_CYCLE: 5

CPU 0 Branch Prediction Accuracy: 99.8196% MPKI: 0.33026 Average ROB Occupancy at Mispredict: 197.16
Branch types
NOT_BRANCH: 40845596 81.6912%
BRANCH_DIRECT_JUMP: 548175 1.09635%
BRANCH_INDIRECT: 182396 0.364792%
BRANCH_CONDITIONAL: 6181134 12.3623%
BRANCH_DIRECT_CALL: 948930 1.89786%
BRANCH_INDIRECT_CALL: 172271 0.344542%
BRANCH_RETURN: 1121211 2.24242%
BRANCH_OTHER: 0 0%

DRAM PAGES: 1048576
Allocated PAGES: 2510
Average_ROB_Occupancy: 255.111
Average_Decode_Occupancy: 36.3668
Average_FTQ_Occupancy: 12.3326
Indirect max targets: 14 Average targets: 1.14527
Branch_type:  BRANCH_DIRECT_JUMP:  Count Percentage: 3.77754 4.3202 3.61667 2.75025 8.70819 6.32275 2.64304 67.8614 
Branch_type:  BRANCH_INDIRECT:  Count Percentage: 11.7832 0.782183 2.47723 13.2883 3.35174 2.81723 2.95997 62.5401 
Branch_type:  BRANCH_CONDITIONAL:  Count Percentage: 24.9251 2.55689 2.211 3.57949 3.41394 4.08721 3.13397 56.0924 
Branch_type:  BRANCH_DIRECT_CALL:  Count Percentage: 0.387189 1.81758 0.715355 1.91715 4.91879 2.96273 4.97597 82.3052 
Branch_type:  BRANCH_INDIRECT_CALL:  Count Percentage: 9.5726 0 3.0019 5.24046 0 2.68895 3.85996 75.6361 
Branch_type:  BRANCH_RETURN:  Count Percentage: 7.5056 1.90532 2.89054 3.60958 3.67009 4.21982 4.21352 71.9855 
Branch_type:  BRANCH_DIRECT_JUMP:  Total Count: 41398 47345 39635 30140 95433 69291 28965 743692 
Branch_type:  BRANCH_INDIRECT:  Total Count: 43009 2855 9042 48503 12234 10283 10804 228274 
Branch_type:  BRANCH_CONDITIONAL:  Total Count: 3079953 315950 273209 442311 421855 505050 387259 6931238 
Branch_type:  BRANCH_DIRECT_CALL:  Total Count: 7334 34428 13550 36314 93170 56119 94253 1558997 
Branch_type:  BRANCH_INDIRECT_CALL:  Total Count: 32944 0 10331 18035 0 9254 13284 260301 
Branch_type:  BRANCH_RETURN:  Total Count: 168058 42662 64722 80822 82177 94486 94345 1611828 
Number of unique branch instructions: 9789
Upper 32 bits: 
aaaa
ffff
ffff0000
Unique upper 32 bits: 3
Unique upper 36 bits: 3
Unique upper 40 bits: 5
Unique upper 44 bits: 32
Unique upper 48 bits: 154
Offset_3 4026
Offset_4 246
Offset_5 447
Offset_6 498
Offset_7 579
Offset_8 501
Offset_9 463
Offset_10 378
Offset_11 304
Offset_12 270
Offset_13 198
Offset_14 225
Offset_15 179
Offset_16 220
Offset_17 143
Offset_18 118
Offset_19 234
Offset_20 135
Offset_21 235
Offset_22 392
Offset_23 241
Offset_24 333
Offset_25 88
Offset_47 82
decode_dispatch_called: 27547025 76.6257
Dispatch_width: 0 15077353 54.7331 41.9396
Dispatch_width: 1 1109280 4.02686 3.08561
Dispatch_width: 2 974092 3.53611 2.70957
Dispatch_width: 3 614507 2.23076 1.70933
Dispatch_width: 4 6675111 24.2317 18.5677
Dispatch_width: 5 181702 0.659607 0.505428
Dispatch_width: 6 2914980 10.5818 8.1084
Empty_decode_cycles: 8403093 23.3743
ROB_full_cycles: 10591459 29.4615
Starvation_cycles_per_kilo_instr: 224.437
Starvation_cycles_per_kilo_instr_3: 155.869
Starvation_cycles_per_kilo_instr_0: 128.89
Branch_type_1  (3,1)  (4,9)  (5,37)  (6,69)  (7,116)  (8,125)  (9,122)  (10,98)  (11,69)  (12,43)  (13,5)  (14,2)  (15,3)  (16,4)  (18,1)  (19,4)  (20,2)  (21,1)  (22,3)  (23,2)  (24,10)  (25,12) 
Branch_type_2  (3,1)  (5,1)  (8,3)  (9,3)  (12,1)  (13,1)  (14,1)  (16,3)  (17,2)  (20,2)  (21,2)  (23,5)  (24,1)  (47,38) 
Branch_type_3  (3,4024)  (4,237)  (5,405)  (6,414)  (7,434)  (8,314)  (9,255)  (10,154)  (11,125)  (12,50)  (13,4) 
Branch_type_4  (6,3)  (7,8)  (8,24)  (9,52)  (10,60)  (11,55)  (12,97)  (13,85)  (14,99)  (15,84)  (16,98)  (17,64)  (18,53)  (19,114)  (20,71)  (21,124)  (22,207)  (23,136)  (24,193)  (25,72) 
Branch_type_5  (8,2)  (9,1)  (10,3)  (11,5)  (12,3)  (13,14)  (14,16)  (15,11)  (16,20)  (17,11)  (18,16)  (19,12)  (20,10)  (21,13)  (22,42)  (23,26)  (24,37) 
Branch_type_6  (5,4)  (6,12)  (7,21)  (8,33)  (9,30)  (10,63)  (11,50)  (12,76)  (13,89)  (14,107)  (15,81)  (16,95)  (17,66)  (18,48)  (19,104)  (20,50)  (21,95)  (22,140)  (23,72)  (24,92)  (25,4)  (47,44) 
Unique trigger count: 
BTB PER SET UNIQUE ADDR: 3 3 3 4 3 2 2 2 2 4 3 3 3 4 4 3 2 3 3 4 2 3 5 4 3 4 2 2 2 3 3 2 2 3 3 3 3 2 6 3 3 3 3 4 3 3 4 3 5 2 3 4 3 3 2 3 4 3 4 4 4 2 3 5 4 0 3 4 3 4 2 4 5 4 6 2 4 2 4 4 5 5 5 4 3 3 4 3 5 2 4 3 3 2 3 1 5 4 4 4 3 3 3 4 5 4 3 4 3 3 3 3 2 4 3 2 3 3 3 3 2 5 3 3 4 3 4 3 6 4 3 3 3 2 3 4 2 2 5 4 4 3 3 5 4 3 2 3 3 6 4 3 4 4 3 4 4 3 6 5 3 2 2 3 2 1 1 3 4 3 4 5 6 3 3 4 3 4 2 1 3 3 5 3 3 2 3 4 4 3 4 4 3 4 3 2 4 3 2 4 3 3 4 3 1 4 2 4 2 4 4 3 3 3 2 5 4 2 4 4 4 3 3 3 3 4 3 2 5 4 2 5 4 5 3 4 3 4 4 3 3 5 5 4 3 3 3 2 3 4 2 4 4 3 3 5 3 4 2 3 5 4 3 3 4 4 3 5 2 3 4 2 4 4 6 4 6 2 3 4 3 3 2 5 3 4 3 7 3 4 3 6 2 4 3 4 5 4 3 4 5 3 4 4 4 4 4 6 3 3 5 2 5 2 4 3 4 3 3 3 5 4 3 3 4 4 3 3 4 4 1 3 3 3 2 3 4 3 5 3 3 3 5 2 4 5 3 4 4 4 3 4 3 2 3 4 4 3 4 4 3 5 3 4 4 4 5 4 3 1 4 3 4 4 4 3 4 6 3 2 3 4 2 4 5 4 4 3 3 3 3 2 4 4 4 3 4 2 4 4 4 4 4 2 2 4 3 4 5 4 4 3 1 3 3 4 3 3 4 2 3 4 2 6 4 3 3 4 1 2 4 3 3 3 2 3 3 2 3 3 2 3 2 3 2 1 4 3 3 5 4 1 3 5 2 3 3 3 4 2 3 4 5 3 5 4 2 2 3 4 2 3 4 5 4 4 3 2 5 2 3 2 3 3 2 3 3 4 5 5 5 4 4 3 4 5 4 3 3 5 3 4 4 4 4 3 2 4 3 4 3 3 3 3 4 3 3 4 2 3 3 3 4 3 5 2 1 4 3 4 3 2 4 4 3 4 3 2 3 3 3 5 4 4 4 3 3 4 2 2 4 6 2 4 3 3 4 3 4 2 3 4 3 5 2 2 3 4 2 3 3 3 1 3 3 5 4 4 2 2 1 3 3 5 3 3 3 2 3 4 3 3 2 3 3 4 3 3 4 3 2 3 1 2 2 2 4 3 2 3 3 3 4 3 2 4 3 3 5 4 3 2 4 3 4 4 2 5 1 6 2 4 3 4 4 1 3 4 5 4 3 4 1 4 4 4 3 4 2 4 2 5 2 4 2 6 4 4 3 2 2 3 3 4 4 4 3 2 3 4 3 3 3 3 3 2 4 4 4 4 3 3 2 4 3 5 2 3 3 4 3 3 3 3 3 3 2 3 2 4 3 3 4 2 3 3 3 3 4 4 3 3 3 4 3 4 3 2 3 3 4 4 4 3 4 4 4 3 2 4 4 4 3 3 3 5 4 3 2 5 3 2 4 4 3 2 4 2 3 3 5 4 4 4 3 3 2 3 3 2 4 3 4 3 3 4 4 5 3 3 3 3 3 4 3 4 3 6 2 4 2 4 3 5 4 3 4 4 5 4 4 3 3 4 2 3 4 2 4 3 4 2 5 3 3 3 3 3 3 4 3 2 2 6 2 5 3 3 3 5 5 4 4 4 3 3 4 2 4 3 4 4 3 3 3 4 6 4 3 3 2 3 2 4 5 3 3 4 2 4 3 3 3 4 4 2 2 2 3 3 2 5 3 3 5 2 3 2 4 5 3 2 6 3 3 3 3 3 3 5 4 5 4 6 3 3 4 5 3 1 3 2 2 2 2 4 3 4 4 3 3 2 3 3 4 4 5 4 4 4 3 2 4 5 4 4 2 3 4 2 2 1 3 3 3 4 4 2 4 4 3 3 4 4 2 3 6 2 2 3 3 3 4 5 4 2 2 3 4 5 5 3 3 2 4 3 2 3 3 2 4 4 4 3 3 2 3 4 2 5 2 3 1 3 4 4 3 2 5 2 4 3 4 3 2 3 4 3 4 4 3 3 4 4 2 4 3 3 3 3 3 2 2 2 2 4 4 3 3 5 5 3 4 3 3 4 3 3 3 3 3 4 3 3 4 4 3 4 3 4 5 5 3 3 4 3 4 4 2 4 5 3 2 4 4 2 3 3 2 3 3 3 5 4 2 2 3 3 3 3 4 3 4 2 3 2 3 3 4 3 5 4 3 3 4 4 3 3 3 2 3 2 4 3 3 2 4 3 2 4 2 4 3 5 4 3 4 3 4 2 4 3 4 4 3 2 3 3 3 3 6 4 3 2 4 4 5 3 5 4 2 3 3 2 5 3 4 4 3 3 2 4 4 2 2 3 4 3 3 1 4 3 4 3 3 3 3 4 5 3 3 2 3 4 3 2 3 5 4 4 3 3 2 2 2 2 3 4 4 4 3 3 3 3 1 2 4 2 4 5 2 2 6 2 3 4 5 3 4 3 5 2 3 2 3 4 5 3 5 3 3 3 1 4 3 4 5 2 3 2 3 3 5 4 3 4 5 3 2 5 4 1 3 4 3 3 3 4 3 2 4 2 2 3 3 4 3 3 3 4 3 4 3 3 2 4 5 3 2 4 3 4 3 3 4 2 3 5 2 4 3 4 4 3 3 3 3 4 3 3 5 3 2 3 4 3 4 4 4 3 5 2 5 2 3 4 3 4 2 4 3 4 3 4 4 4 5 4 3 3 4 2 3 3 4 4 4 4 4 3 3 4 3 2 2 5 4 4 3 4 3 3 2 6 4 2 3 3 2 2 3 3 4 4 2 3 2 4 5 4 3 2 3 4 5 6 2 3 4 3 3 4 4 4 4 3 4 3 5 2 3 3 5 2 3 3 2 3 3 6 2 4 2 3 2 3 3 3 4 3 4 3 3 1 3 4 3 3 3 3 3 4 3 2 2 3 4 2 4 3 4 3 4 2 2 3 4 3 2 3 3 3 3 4 3 3 3 4 3 4 2 2 4 3 3 5 3 4 4 4 4 4 2 3 4 4 3 4 3 3 4 4 2 2 4 4 4 4 5 2 3 3 2 3 3 3 3 2 5 4 4 3 3 4 3 4 3 3 3 3 4 1 3 2 3 4 3 2 4 5 4 3 4 3 4 3 4 3 4 4 2 3 3 2 5 3 4 4 3 5 2 4 2 3 3 3 4 4 3 2 3 4 3 4 2 4 4 4 3 5 3 1 3 4 3 2 2 3 4 4 3 3 4 2 4 2 4 2 2 4 4 3 3 4 2 3 2 4 2 2 3 4 4 4 3 2 3 4 4 1 4 3 2 4 2 2 1 6 5 4 4 5 3 4 3 3 3 3 3 5 3 2 3 3 2 4 4 4 3 2 3 3 4 3 4 4 3 4 2 4 5 3 4 2 4 2 3 3 3 2 4 4 5 3 4 3 3 3 4 5 4 4 3 2 3 3 3 3 2 3 3 4 3 4 3 3 2 2 4 4 2 2 3 2 5 2 5 3 4 5 4 4 4 2 3 2 5 4 2 3 4 2 4 5 4 3 2 4 2 2 3 3 2 5 4 5 2 3 2 3 5 2 3 3 2 3 5 4 4 3 2 3 3 2 2 4 3 3 4 4 3 5 4 2 2 3 2 3 4 3 3 3 2 3 3 4 3 2 2 4 4 2 4 3 3 5 5 1 4 1 3 4 3 2 3 4 4 5 3 4 5 5 4 4 1 4 3 4 4 5 5 2 2 2 4 4 2 2 4 4 3 2 3 4 3 3 4 3 2 2 3 2 4 4 1 4 4 5 3 3 3 3 4 4 2 4 5 3 3 3 2 4 2 3 3 3 3 2 2 4 2 2 4 4 4 3 4 2 4 3 3 5 4 4 5 2 3 4 0 3 3 4 4 3 3 3 4 4 3 3 3 2 4 1 4 3 4 4 3 4 3 3 3 3 4 3 2 2 3 4 3 5 4 4 4 4 4 3 3 3 3 3 5 3 2 3 3 5 4 0 2 2 4 4 3 3 3 4 3 4 2 4 3 2 3 3 2 3 3 2 2 4 3 4 3 4 3 4 3 3 3 3 3 3 3 4 2 0 4 3 4 3 3 3 3 3 4 3 3 4 5 4 2 3 2 5 2 4 3 3 2 2 3 3 5 4 5 4 3 3 4 3 4 3 4 2 5 1 5 2 4 4 3 3 5 3 5 4 3 4 5 3 4 4 3 4 3 3 4 2 2 4 4 3 4 5 5 2 1 5 2 3 3 3 5 4 3 5 3 3 4 4 5 5 3 4 3 3 2 3 4 3 3 4 2 4 2 2 4 3 1 4 4 4 3 3 4 3 3 3 4 4 3 3 5 2 4 5 3 4 4 4 3 4 3 3 4 4 4 4 3 2 2 3 2 2 2 4 
BTB PER SET COUNT: 4 2776 1478 4 3 2 3 2 2 4 62 4 3 4 5 4 2 3 3 4 2 3 5 4 3 4 2 2 2 3 3 2 2 1002 421 3 3 2 9 3 3 955 5 4 3 118 4 3 6 2 3 4 3 4 2 3 482 955 4 4 1004 2 4 1908 5 0 3 4 3 5 2 4 5 4 9 159 4 2 1006 4 7 5 11 4 3 3 4 3 397 2 4 14 705 2 4 1 5 5 4 4 5 3 3 4 5 4 3 5 3 3 3 4 2 4 8 2 3 4 3 1956 4 6 1512 3 4 3 4 3 454 4 3 3 4 2 3 4 2 2 5 4 4 3 3 5 4 4 2 3 3 8 4 531 6 4 3 1003 4 3 7 5 3 2 3 3 2 1 1 3 4 3 4 6 35 3 4 4 3 4 2 1 3 3 5 3 4 2 3 4 4 3 4 4 3 4 3 528 5 3 1479 4 3 1479 8 4 1 4 2 4 36 5 227 4 3 3 2 6 4 2 4 4 4 3 4 3 3 4 3 2 7 4 324 6 4 24 4 4 4 4 4 3 3 5 7 9 3 3 4 98 3 4 2 353 5 4 3 10 1478 4 2 3 5 4 3 3 6 4 4 7 2 3 4 2 4 4 8 6 7 2 3 5 3 3 2 6 3 5 3 11 3 4 3 7 2 4 481 5 5 5 3 1479 6 3 188 5 4 4 4 6 3 10 202 2 6 2 6 3 4 3 3 3 5 4 3 3 4 4 30 3 5 4 1 3 3 3 4 3 4 3 5 3 3 4 8 2 4 5 3 5 4 4 3 4 3 2 3 353 4 3 6 9 3 9 3 8 4 4 7 4 3 1 4 3 1003 4 4 3 4 6 3 2 5 215 2 4 5 4 4 3 3 3 3 2 4 4 4 3 1353 2 4 5 4 9 4 2 4 4 4 19 5 4 4 3 1 3 3 4 3 3 4 2 3 4 2 8 4 245 3 5 1 2 5 10 3 3 2 4 3 3 3 3 2 3 4 5 403 1 1480 29 3 5 4 243 3 5 2 3 3 3 957 2 955 5 957 4 8 4 2 2 3 4 2 4 4 8 1084 4 3 2 6 2 3 2 3 3 2 3 4 4 7 6 1005 5 5 3 4 6 4 3 3 5 3 4 5 4 4 3 2 4 3 4 3 3 3 5 5 3 3 482 2 3 4 3 6 4 6 2 1 4 3 4 3 2 5 7 3 5 3 2 3 3 5 5 4 4 4 5 3 6 2 2 5 7 954 4 3 3 6 3 4 2 955 5 4 6 2 2 3 5 954 4 3 3 1 3 3 5 4 4 2 2 1 3 3 5 7 3 5 2 3 4 3 3 2 955 6 4 3 4 4 3 2 4 953 2 3 2 953 3 2 3 3 3 1003 3 2 4 3 3 6 4 3 2 366 4 5 5 2 5 1 6 951 5 3 5 6 1 3 4 5 4 3 5 1 5 4 4 3 5 4 479 2 5 2 4 2 7 4 4 3 2 2 3 4 4 4 479 3 2 3 4 3 5 3 4 3 2 6 5 4 481 1002 3 2 4 3 5 2 4 3 6 3 3 3 4 3 3 2 3 2 5 3 3 4 2 3 4 3 3 4 4 3 5 3 4 3 956 3 2 3 4 4 4 4 3 4 4 4 3 2 8 4 4 3 3 3 7 4 6 2 5 3 2 6 4 3 3 4 2 3 5 5 4 4 4 3 3 3 4 3 1001 4 227 4 31 4 5 4 3054 3 4 3 3 4 4 3 4 6 6 2 4 2 4 3 8 5 3 4 4 122 4 5 3 3 6 2 6 4 2 4 3 4 2 5 3 3 3 3 3 2479 7 3 2 3 6 2 5 3 3 4 6 7 4 5 4 3 3 5 2 4 479 4 6 3 3 3 4 8 6 3 3 2 3 2 4 7 3 5 4 3 4 3 4 3 482 1906 2 2 2 3 3 2 6 3 3 6 3 3 2 4 5 3 2 6 3 3 3 3 3 6 5 4 5 4 8 4 4 4 5 3 1 1478 2 2 2853 2 6 352 8 4 3 3 3 3 952 4 4 5 4 5 5 3 2 4 5 4 532 4 3 4 2 1427 1 3 4 4 6 303 2 4 6 5 4 1003 4 2 4 7 2 2 4 3 4 4 5 4 2 2 3 4 6 5 3 3 4 4 3 2 3 4 2 4 5 6 4 5 2 479 4 2 6 2 3 1 6 4 5 3 2 5 2 4 4 4 3 3 6 4 1002 4 4 4 3 4 4 2 4 3 3 4 3 3 2 2 2 2 4 5 3 1478 5 6 4 4 3 3 6 5 3 4 3 3 6 4 3 4 4 3 530 3 4 7 5 3 4 6 3 5 4 2 4 5 479 2 4 4 2 481 3 2 3 3 3 8 4 2 2 3 3 1478 5 4 3 5 2 3 2 3 3 5 4 6 5 3 3 138 4 3 3 3 2 3 2 7 1002 3 2 9 3 2 6 2 4 382 10 4 3 9 3 4 2 6 4 6 5 3 2 20 3 3 3 355 4 3 2 4 4 5 141 5 4 2 3 3 2 6 3 4 4 3 4 2 4 4 2 2 3 4 3 4 1 4 20690 4 3 481 8 4 5 8 3 3 2 3 4 3 2 3 8 4 4 3 3 2 3 2 2 3 4 4 4 480 4 3 3 1 2 4 2 5 8 1477 2 6 2 257 4 7 3 4 3 5 2 3 2 2014 5 5 3 5 3 4 4 1 6 3 5 6 2 3 352 3 3 5 1479 3 5 5 3 2 5 4 1 5 4 3 3 3 4 3 2 4 2 2 3 3 5 1178 3 3 4 3 12 3 3 2 4 1480 3 2 4 3 62 3 3 4 2 4 5 2 7 3 43 4 3 1002 3 3 4 3 3 5 4 2 5 4 3 4 4 5 3 5 2 5 2 3 4 3 5 2 4 3 4 3 4 4 4 6 4 3 3 5 2 3 3 89 88 7 4 4 3 3 4 3 46 2 7 6 6 3 4 3 4 2 6 5 2 3 1480 2 1477 3 3 4 4 3 4 1477 5 6 5 4 2 4 4 6 8 3 3 4 4 3 4 4 4 1061 4 6 3 6 2 3 4 6 2 4 3 2 3 3 6 2 5 2 4 12 3 3 3 4 3 6 4 3 1 3 4 3 3 3 760 3 4 3 2 2 3 4 2 4 3 4 4 4 2 2 3 4 3 2 3 3 3 3 4 3 3 3 4 3 4 3 2 4 4 3 5 5 5 5 1999 55 4 2 2002 5 240 3 4 3 3 4 4 3 2 4 5 6 4 7 2 3 3 2 3 3 3 3 2 5 4 4 3 3 4 3 5 3 3 3 3 5 1 3 2 3 4 3 2 10 6 4 3 1003 3 4 3 4 3 4 4 2 3 5 2 5 3 5 4 3 10 2 4 2 3 3 1002 4 5 3 2 6 4 3 4 2 5 5 4 3 5 4 1 3 4 3 2 2 3 1003 6 3 3 5 2 4 2 4 2 5 4 8 3 4 4 2 3 3 4 2 2 3 4 4 5 4 2 3 4 4 1 4 3 5 4 2 2 2952 7 6 4 4 5 5 4 3 3 4 3 3 1480 3 2 39 3 2 4 4 5 3 2 3 4 4 3 4 5 3 4 2 4 6 3 4 203 4 2 3 3 3 2 4 4 5 3 4 4 4 3 953 6 4 4 3 2 3 3 3 3 2 3 3 4 3 4 5 3 3 2 4 4 2 2 3 2 5 2 6 3 4 5 5 4 5 2 3 2 5 4 2 5 4 2 4 5 5 3 1001 4 2 2 3 4 3 6 4 5 2 3 2 3 6 2 3 3 2 3 6 4 4 3 2 3 4 2 3 5 3 3 4 4 3 5 5 2 2 954 132 3 5 3 3 3 2 3 3 4 3 2 2 4 6 2 6 3 4 6 5 1 4 953 3 4 3 2 3 4 4 6 3 5 5 7 4 4 1 4 3 4 14 8 5 2 2 2 130 4 2 2 4 5 3 2 3 5 3 3 4 3 2 2 7 2 4 5 1 4 4 6 4 480 3 3 4 194 2 4 136 3 4 3 2 4 4 3 4 5 3 2 2 4 2 2 1005 4 4 3 4 2 4 3 3 5 4 5 5 2 3 5 0 3 3 5 4 3 3 3 5 4 3 4 479 4 5 620 4 3 4 4 3 4 7 3 4 3 6 1478 2 3 3 4 4 6 4 4 6 4 4 3 1480 3 3 3 7 3 2 3 3 5 12 0 2 2 8 4 3 3 3 1003 3 5 2 4 3 2 108 3 5 3 3 2 2 4 3 5 8 102 3 4 1479 3 14742 3 3 3 3 5 2 0 4 3 4 3 4 3 3 3 5 3 5 4 5 4 2 3 2 5 2 4 3 3 4 2 3 3 5 4 7 4 3 5 4 3 4 3 4 2 7 1 5 2 5 4 3 31 5 4 5 4 3 4 459 3 4 4 3 5 3 955 7 2 5 4 4 3 5 5 5 2 1 7 4 3 3 7762 5 4 4 5 3 3 124 4 5 5 3 4 3 483 2 4 4 3 4 4 2 4 1352 2 4 3 1 5 4 4 3 4 4 3 3 1478 5 8 3 1954 5 2 4 6 3 4 4 4 5 4 3 3 4 4 4 4 3 2 2 3 2 2 2 785 
