
*** ChampSim Multicore Out-of-Order Simulator ***

Warmup Instructions: 50000000
Simulation Instructions: 50000000
Number of CPUs: 1
LLC sets: 2048
LLC ways: 16
Off-chip DRAM Size: 4096 MB Channels: 1 Width: 64-bit Data Rate: 6400 MT/s
CPU 0 runs ./micro_traces/srv109.trace.gz
.gz
ITLB has LRU replacement policy
DTLB has LRU replacement policy
STLB has LRU replacement policy
FDIP Prefetcher at L1I
L1I has LRU replacement policy
L1D has LRU replacement policy
Initialize SRRIP state for L2C
Initialize DRRIP state for LLC
Heartbeat CPU 0 instructions: 10000001 cycles: 2797499 heartbeat IPC: 3.57462 cumulative IPC: 3.57462 (Simulation time: 0 hr 1 min 33 sec) 
Heartbeat CPU 0 instructions: 20000003 cycles: 5593406 heartbeat IPC: 3.57666 cumulative IPC: 3.57564 (Simulation time: 0 hr 3 min 7 sec) 
Heartbeat CPU 0 instructions: 30000001 cycles: 8390564 heartbeat IPC: 3.57506 cumulative IPC: 3.57545 (Simulation time: 0 hr 4 min 43 sec) 
Heartbeat CPU 0 instructions: 40000003 cycles: 11187300 heartbeat IPC: 3.5756 cumulative IPC: 3.57548 (Simulation time: 0 hr 6 min 20 sec) 
Heartbeat CPU 0 instructions: 50000000 cycles: 13984962 heartbeat IPC: 3.57441 cumulative IPC: 3.57527 (Simulation time: 0 hr 7 min 53 sec) 

Warmup complete CPU 0 instructions: 50000004 cycles: 13984963 (Simulation time: 0 hr 7 min 53 sec) 

Cycle: 20000000 FTQ IN: 57060229 FTQ occupancy: 18.4561 DECODE IN: 57060181 DECODE occupancy: 47.345 ROB IN: 57060181 ROB occupancy: 285.784 ROB OUT: 57060169
Heartbeat CPU 0 instructions: 60000000 cycles: 22484061 heartbeat IPC: 1.1766 cumulative IPC: 1.17659 (Simulation time: 0 hr 9 min 23 sec) 
Cycle: 30000000 FTQ IN: 11693103 FTQ occupancy: 7.94683 DECODE IN: 11693148 DECODE occupancy: 17.8193 ROB IN: 11693148 ROB occupancy: 141.293 ROB OUT: 11693106
Heartbeat CPU 0 instructions: 70000001 cycles: 31054673 heartbeat IPC: 1.16678 cumulative IPC: 1.17167 (Simulation time: 0 hr 10 min 49 sec) 
Heartbeat CPU 0 instructions: 80000002 cycles: 39555840 heartbeat IPC: 1.17631 cumulative IPC: 1.17321 (Simulation time: 0 hr 12 min 17 sec) 
Cycle: 40000000 FTQ IN: 11769968 FTQ occupancy: 7.69634 DECODE IN: 11769936 DECODE occupancy: 17.1958 ROB IN: 11769936 ROB occupancy: 136.095 ROB OUT: 11769985
Heartbeat CPU 0 instructions: 90000003 cycles: 48144496 heartbeat IPC: 1.16433 cumulative IPC: 1.17098 (Simulation time: 0 hr 13 min 45 sec) 
Cycle: 50000000 FTQ IN: 11676610 FTQ occupancy: 7.89014 DECODE IN: 11676645 DECODE occupancy: 17.6763 ROB IN: 11676642 ROB occupancy: 139.143 ROB OUT: 11676640
Heartbeat CPU 0 instructions: 100000001 cycles: 56657595 heartbeat IPC: 1.17466 cumulative IPC: 1.17171 (Simulation time: 0 hr 15 min 28 sec) 
Finished CPU 0 instructions: 50000001 cycles: 42672633 cumulative IPC: 1.17171 (Simulation time: 0 hr 15 min 28 sec) 

ChampSim completed all CPUs

Region of Interest Statistics

CPU 0 cumulative IPC: 1.17171 instructions: 50000001 cycles: 42672633
 Fetch stage stalled: 68.2026  Sim cycles: 42672633 fetch stall cycle: 29103857
 Empty decode stage: 56.994  Sim cycles: 42672633 fetch stall cycle: 24320848
ITLB TOTAL     ACCESS:    5662578  HIT:    5168792  MISS:     493786  HIT %:    91.2798  MISS %:    8.72016   MPKI: 9.87572
ITLB LOAD TRANSLATION INSTRUCTION	ACCESS:    5551966  HIT:    5058180  MISS:     493786  HIT %:    91.1061  MISS %:    8.89389  MPKI: 9.87572
ITLB TRANSLATION FROM L1D PREFETCHER INSTRUCTION	ACCESS:     110612  HIT:     110612  MISS:          0  HIT %:        100  MISS %:          0  MPKI: 0

ITLB AVERAGE MISS LATENCY: 9.0588 cycles
ITLB RQ	ACCESS:    7514146	FORWARD:          0	MERGED:    1368521	TO_CACHE:    6145625

DTLB TOTAL     ACCESS:    9253333  HIT:    8779930  MISS:     473403  HIT %:     94.884  MISS %:    5.11603   MPKI: 9.46806
DTLB LOAD TRANSLATION DATA	ACCESS:    9253333  HIT:    8779930  MISS:     473403  HIT %:     94.884  MISS %:    5.11603  MPKI: 9.46806

DTLB AVERAGE MISS LATENCY: 9.33938 cycles
DTLB RQ	ACCESS:   13582744	FORWARD:          0	MERGED:    4291612	TO_CACHE:    9291132

STLB TOTAL     ACCESS:    1216344  HIT:    1214155  MISS:       2189  HIT %:      99.82  MISS %:   0.179966   MPKI: 0.04378
STLB LOAD TRANSLATION INSTRUCTION	ACCESS:     493786  HIT:     493514  MISS:        272  HIT %:    99.9449  MISS %:  0.0550846  MPKI: 0.00544
STLB LOAD TRANSLATION DATA	ACCESS:     473214  HIT:     471324  MISS:       1890  HIT %:    99.6006  MISS %:   0.399396  MPKI: 0.0378
STLB TRANSLATION FROM L1D PREFETCHER DATA	ACCESS:     249344  HIT:     249317  MISS:         27  HIT %:    99.9892  MISS %:  0.0108284  MPKI: 0.00054

STLB AVERAGE MISS LATENCY: 73.873 cycles
STLB RQ	ACCESS:    1333705	FORWARD:          0	MERGED:     117315	TO_CACHE:    1216390

STLB Hit, L1D data hit: 0
STLB Hit, L2C data hit: 0
STLB Hit, LLC data hit: 0
STLB Hit, LLC data miss: 0
STLB STLB hints to L2: 0
L1D TOTAL     ACCESS:   13349732  HIT:   12236852  MISS:    1112880  HIT %:    91.6637  MISS %:    8.33635   MPKI: 22.2576
L1D LOAD DATA	ACCESS:    6778162  HIT:    6045337  MISS:     732825  HIT %:    89.1884  MISS %:    10.8116  MPKI: 14.6565
L1D RFO DATA	ACCESS:    6242187  HIT:    5955760  MISS:     286427  HIT %:    95.4114  MISS %:    4.58857  MPKI: 5.72854
L1D PREFETCH DATA	ACCESS:     329383  HIT:     235755  MISS:      93628  HIT %:    71.5747  MISS %:    28.4253  MPKI: 1.87256

L1D PREFETCH  REQUESTED:     733344  ISSUED:     733344  USEFUL:      32373  USELESS:      68497
L1D USEFUL LOAD PREFETCHES:      32373 PREFETCH ISSUED TO LOWER LEVEL:     100954  ACCURACY: 32.0671
 TIMELY PREFETCHES:      32373 LATE PREFETCHES: 7256 DROPPED PREFETCHES: 10
L1D AVERAGE MISS LATENCY: 232972 cycles
L1D RQ	ACCESS:   10844500	FORWARD:          0	MERGED:    3866295	TO_CACHE:    6811084
L1D WQ	ACCESS:    6947098	FORWARD:     167431	MERGED:     175438	TO_CACHE:    6771660
L1D PQ	ACCESS:     366827	FORWARD:          0	MERGED:          0	TO_CACHE:     366517

L1D UNIQUE REGIONS ACCESSED: 0
L1D REGIONS CONFLICTS: 0
L1D Cross Page Prefetch Requests: 6082
L1D Same Page Prefetch Requests: 742788
L1D ROI Sum of L1D PQ occupancy: 4656980
L1D PREFETCHES PUSHED FROM L2C: 0
L1I TOTAL     ACCESS:    6979210  HIT:    4215056  MISS:    2764154  HIT %:    60.3945  MISS %:    39.6055   MPKI: 55.2831
L1I LOAD INSTRUCTION	ACCESS:    6459050  HIT:    3694896  MISS:    2764154  HIT %:    57.2049  MISS %:    42.7951  MPKI: 55.2831
L1I PREFETCH INSTRUCTION	ACCESS:     520160  HIT:     520160  MISS:          0  HIT %:        100  MISS %:          0  MPKI: 0

L1I PREFETCH  REQUESTED:    1143471  ISSUED:    1143471  USEFUL:          0  USELESS:          0
L1I USEFUL LOAD PREFETCHES:          0 PREFETCH ISSUED TO LOWER LEVEL:          0  ACCURACY: -nan
 TIMELY PREFETCHES:          0 LATE PREFETCHES: 0 DROPPED PREFETCHES: 0
L1I AVERAGE MISS LATENCY: 17.5362 cycles
L1I RQ	ACCESS:    9470660	FORWARD:          0	MERGED:    2778970	TO_CACHE:    6691690
L1I PQ	ACCESS:    1143471	FORWARD:          0	MERGED:     321015	TO_CACHE:     822456

L1BTB TOTAL     ACCESS:    5674819  HIT:    2045976  MISS:    3628843  HIT %:    36.0536  MISS %:    63.9464   MPKI: 72.5769
L1BTB BRANCH_DIRECT_JUMP	ACCESS:     549424 HIT:     144979 MISS:     404445 AVERAGE STALL: 37.1755 AVERAGE FETCH STALL: 18.0826 AVERAGE FETCH QUEUE STALL: 8.64138 AVERAGE DECODE STALL: 9.5897 AVERAGE EXECUTE STALL: 3.50465e+14
L1BTB BRANCH_INDIRECT	ACCESS:     183349 HIT:      66299 MISS:     117050 AVERAGE STALL: 87.5143 AVERAGE FETCH STALL: 13.9317 AVERAGE FETCH QUEUE STALL: 8.49108 AVERAGE DECODE STALL: 6.58489 AVERAGE EXECUTE STALL: 57.555
L1BTB BRANCH_CONDITIONAL	ACCESS:    2714064 HIT:    1420413 MISS:    1293651 AVERAGE STALL: 38.3545 AVERAGE FETCH STALL: 21.6933 AVERAGE FETCH QUEUE STALL: 8.22214 AVERAGE DECODE STALL: 7.67433 AVERAGE EXECUTE STALL: 1.29727e+14
L1BTB BRANCH_DIRECT_CALL	ACCESS:     942884 HIT:     104285 MISS:     838599 AVERAGE STALL: 41.8302 AVERAGE FETCH STALL: 22.2551 AVERAGE FETCH QUEUE STALL: 9.80502 AVERAGE DECODE STALL: 8.99383 AVERAGE EXECUTE STALL: 1.61372e+14
L1BTB BRANCH_INDIRECT_CALL	ACCESS:     171110 HIT:      20860 MISS:     150250 AVERAGE STALL: 112.954 AVERAGE FETCH STALL: 15.9933 AVERAGE FETCH QUEUE STALL: 8.67832 AVERAGE DECODE STALL: 7.60501 AVERAGE EXECUTE STALL: 80.1337
L1BTB BRANCH_RETURN	ACCESS:    1113988 HIT:     289140 MISS:     824848 AVERAGE STALL: 38.2829 AVERAGE FETCH STALL: 18.3337 AVERAGE FETCH QUEUE STALL: 6.49886 AVERAGE DECODE STALL: 6.36182 AVERAGE EXECUTE STALL: 1.80415e+14
L1BTB BRANCH_OTHER ACCESS:          0 HIT:          0 MISS:          0 AVERAGE STALL: -nan AVERAGE FETCH STALL: -nan AVERAGE FETCH QUEUE STALL: -nan AVERAGE DECODE STALL: -nan AVERAGE EXECUTE STALL: -nan
L1BTB TOTAL ROB OCCUPANCY AT BTB MISS: 13.4119

L2BTB TOTAL     ACCESS:    3603322  HIT:    3170114  MISS:     433208  HIT %:    87.9775  MISS %:    12.0225   MPKI: 8.66416
L2BTB BRANCH_DIRECT_JUMP	ACCESS:     400243 HIT:     351797 MISS:      48446 AVERAGE STALL: 37.1755 AVERAGE FETCH STALL: 18.0826 AVERAGE FETCH QUEUE STALL: 8.64138 AVERAGE DECODE STALL: 9.5897 AVERAGE EXECUTE STALL: 3.50465e+14
L2BTB BRANCH_INDIRECT	ACCESS:     106760 HIT:     101517 MISS:       5243 AVERAGE STALL: 87.5143 AVERAGE FETCH STALL: 13.9317 AVERAGE FETCH QUEUE STALL: 8.49108 AVERAGE DECODE STALL: 6.58489 AVERAGE EXECUTE STALL: 57.555
L2BTB BRANCH_CONDITIONAL	ACCESS:    1293650 HIT:    1150566 MISS:     143084 AVERAGE STALL: 38.3545 AVERAGE FETCH STALL: 21.6933 AVERAGE FETCH QUEUE STALL: 8.22214 AVERAGE DECODE STALL: 7.67433 AVERAGE EXECUTE STALL: 1.29727e+14
L2BTB BRANCH_DIRECT_CALL	ACCESS:     838598 HIT:     724245 MISS:     114353 AVERAGE STALL: 41.8302 AVERAGE FETCH STALL: 22.2551 AVERAGE FETCH QUEUE STALL: 9.80502 AVERAGE DECODE STALL: 8.99383 AVERAGE EXECUTE STALL: 1.61372e+14
L2BTB BRANCH_INDIRECT_CALL	ACCESS:     140662 HIT:     119446 MISS:      21216 AVERAGE STALL: 112.954 AVERAGE FETCH STALL: 15.9933 AVERAGE FETCH QUEUE STALL: 8.67832 AVERAGE DECODE STALL: 7.60501 AVERAGE EXECUTE STALL: 80.1337
L2BTB BRANCH_RETURN	ACCESS:     823409 HIT:     722543 MISS:     100866 AVERAGE STALL: 38.2829 AVERAGE FETCH STALL: 18.3337 AVERAGE FETCH QUEUE STALL: 6.49886 AVERAGE DECODE STALL: 6.36182 AVERAGE EXECUTE STALL: 1.80415e+14
L2BTB BRANCH_OTHER ACCESS:          0 HIT:          0 MISS:          0 AVERAGE STALL: -nan AVERAGE FETCH STALL: -nan AVERAGE FETCH QUEUE STALL: -nan AVERAGE DECODE STALL: -nan AVERAGE EXECUTE STALL: -nan
L2BTB TOTAL ROB OCCUPANCY AT BTB MISS: 112.347

L2C TOTAL     ACCESS:    4494159  HIT:    3984222  MISS:     509937  HIT %:    88.6533  MISS %:    11.3467   MPKI: 10.1987
L2C LOAD INSTRUCTION	ACCESS:    2764154  HIT:    2477808  MISS:     286346  HIT %:    89.6407  MISS %:    10.3593  MPKI: 5.72692
L2C LOAD TRANSLATION INSTRUCTION	ACCESS:        306  HIT:         67  MISS:        239  HIT %:    21.8954  MISS %:    78.1046  MPKI: 0.00478
L2C LOAD DATA	ACCESS:     725558  HIT:     643059  MISS:      82499  HIT %:    88.6296  MISS %:    11.3704  MPKI: 1.64998
L2C RFO DATA	ACCESS:     286332  HIT:     239292  MISS:      47040  HIT %:    83.5715  MISS %:    16.4285  MPKI: 0.9408
L2C PREFETCH DATA	ACCESS:     191839  HIT:     112913  MISS:      78926  HIT %:    58.8582  MISS %:    41.1418  MPKI: 1.57852
L2C WRITEBACK DATA	ACCESS:     523941  HIT:     510597  MISS:      13344  HIT %:    97.4531  MISS %:    2.54685  MPKI: 0.26688
L2C LOAD TRANSLATION DATA	ACCESS:       1977  HIT:        451  MISS:       1526  HIT %:    22.8123  MISS %:    77.1877  MPKI: 0.03052
L2C TRANSLATION FROM L1D PREFETCHER DATA	ACCESS:         52  HIT:         35  MISS:         17  HIT %:    67.3077  MISS %:    32.6923  MPKI: 0.00034

L2C PREFETCH  REQUESTED:      99171  ISSUED:      99171  USEFUL:       9720  USELESS:      69808
L2C USEFUL LOAD PREFETCHES:       9720 PREFETCH ISSUED TO LOWER LEVEL:      79412  ACCURACY: 12.24
 TIMELY PREFETCHES:       9720 LATE PREFETCHES: 486 DROPPED PREFETCHES: 0
L2C AVERAGE MISS LATENCY: 38.0317 cycles
L2C RQ	ACCESS:    3778415	FORWARD:          0	MERGED:          0	TO_CACHE:    3778379
L2C WQ	ACCESS:     523941	FORWARD:         40	MERGED:          0	TO_CACHE:     523941
L2C PQ	ACCESS:     200125	FORWARD:          0	MERGED:       3757	TO_CACHE:     196364

L2C Dense regions hint from L2: 0
PSCL5 TOTAL     ACCESS:       4404  HIT:       2202  MISS:       2202  HIT %:         50  MISS %:         50   MPKI: 0.04404
PSCL5 LOAD TRANSLATION INSTRUCTION	ACCESS:       4300  HIT:       2150  MISS:       2150  HIT %:         50  MISS %:         50  MPKI: 0.043
PSCL5 TRANSLATION FROM L1D PREFETCHER INSTRUCTION	ACCESS:        104  HIT:         52  MISS:         52  HIT %:         50  MISS %:         50  MPKI: 0.00104


PSCL4 TOTAL     ACCESS:       4232  HIT:       2110  MISS:       2122  HIT %:    49.8582  MISS %:    50.1418   MPKI: 0.04244
PSCL4 LOAD TRANSLATION INSTRUCTION	ACCESS:       2152  HIT:       2058  MISS:         94  HIT %:     95.632  MISS %:    4.36803  MPKI: 0.00188
PSCL4 TRANSLATION FROM L1D PREFETCHER INSTRUCTION	ACCESS:         52  HIT:         52  MISS:          0  HIT %:        100  MISS %:          0  MPKI: 0
PSCL4 LOAD TRANSLATION DATA	ACCESS:       1976  HIT:          0  MISS:       1976  HIT %:          0  MISS %:        100  MPKI: 0.03952
PSCL4 TRANSLATION FROM L1D PREFETCHER DATA	ACCESS:         52  HIT:          0  MISS:         52  HIT %:          0  MISS %:        100  MPKI: 0.00104


PSCL3 TOTAL     ACCESS:       4300  HIT:       2144  MISS:       2156  HIT %:    49.8605  MISS %:    50.1395   MPKI: 0.04312
PSCL3 LOAD TRANSLATION INSTRUCTION	ACCESS:       2186  HIT:       2092  MISS:         94  HIT %:    95.6999  MISS %:    4.30009  MPKI: 0.00188
PSCL3 TRANSLATION FROM L1D PREFETCHER INSTRUCTION	ACCESS:         52  HIT:         52  MISS:          0  HIT %:        100  MISS %:          0  MPKI: 0
PSCL3 LOAD TRANSLATION DATA	ACCESS:       2010  HIT:          0  MISS:       2010  HIT %:          0  MISS %:        100  MPKI: 0.0402
PSCL3 TRANSLATION FROM L1D PREFETCHER DATA	ACCESS:         52  HIT:          0  MISS:         52  HIT %:          0  MISS %:        100  MPKI: 0.00104


PSCL2 TOTAL     ACCESS:       4294  HIT:       2092  MISS:       2202  HIT %:    48.7191  MISS %:    51.2809   MPKI: 0.04404
PSCL2 LOAD TRANSLATION INSTRUCTION	ACCESS:       2310  HIT:       2040  MISS:        270  HIT %:    88.3117  MISS %:    11.6883  MPKI: 0.0054
PSCL2 TRANSLATION FROM L1D PREFETCHER INSTRUCTION	ACCESS:         52  HIT:         52  MISS:          0  HIT %:        100  MISS %:          0  MPKI: 0
PSCL2 LOAD TRANSLATION DATA	ACCESS:       1880  HIT:          0  MISS:       1880  HIT %:          0  MISS %:        100  MPKI: 0.0376
PSCL2 TRANSLATION FROM L1D PREFETCHER DATA	ACCESS:         52  HIT:          0  MISS:         52  HIT %:          0  MISS %:        100  MPKI: 0.00104


LLC TOTAL     ACCESS:     570479  HIT:     541870  MISS:      28609  HIT %:    94.9851  MISS %:    5.01491   MPKI: 0.57218
LLC LOAD INSTRUCTION	ACCESS:     286346  HIT:     285456  MISS:        890  HIT %:    99.6892  MISS %:   0.310813  MPKI: 0.0178
LLC LOAD TRANSLATION INSTRUCTION	ACCESS:        239  HIT:        198  MISS:         41  HIT %:    82.8452  MISS %:    17.1548  MPKI: 0.00082
LLC LOAD DATA	ACCESS:      82040  HIT:      78538  MISS:       3502  HIT %:    95.7314  MISS %:    4.26865  MPKI: 0.07004
LLC RFO DATA	ACCESS:      47013  HIT:      33461  MISS:      13552  HIT %:    71.1739  MISS %:    28.8261  MPKI: 0.27104
LLC PREFETCH DATA	ACCESS:      79412  HIT:      69177  MISS:      10235  HIT %:    87.1115  MISS %:    12.8885  MPKI: 0.2047
LLC WRITEBACK DATA	ACCESS:      73886  HIT:      73576  MISS:        310  HIT %:    99.5804  MISS %:   0.419565  MPKI: 0.0062
LLC LOAD TRANSLATION DATA	ACCESS:       1526  HIT:       1447  MISS:         79  HIT %:    94.8231  MISS %:    5.17693  MPKI: 0.00158
LLC TRANSLATION FROM L1D PREFETCHER DATA	ACCESS:         17  HIT:         17  MISS:          0  HIT %:        100  MISS %:          0  MPKI: 0

LLC AVERAGE MISS LATENCY: 155.916 cycles
LLC RQ	ACCESS:     417181	FORWARD:          0	MERGED:          0	TO_CACHE:     417181
LLC WQ	ACCESS:      73886	FORWARD:          0	MERGED:          0	TO_CACHE:      73886
LLC PQ	ACCESS:      79412	FORWARD:          0	MERGED:          0	TO_CACHE:      79412

LLC Dense regions hint to LLC: 0

RAW hits: 1791025
Loads Generated: 12635525
Loads sent to L1D: 10844500
Stores Generated: 6947086
Stores sent to L1D: 6947098
Major fault: 0 Minor fault: 2601
Allocated PAGES: 2601

stream: 
stream:times selected: 1176866
stream:pref_filled: 121879
stream:pref_useful: 24150
stream:pref_late: 6588
stream:misses: 6853
stream:misses_by_poll: 0

CS: 
CS:times selected: 177760
CS:pref_filled: 59619
CS:pref_useful: 36764
CS:pref_late: 6148
CS:misses: 15118
CS:misses_by_poll: 3

CPLX: 
CPLX:times selected: 997845
CPLX:pref_filled: 20320
CPLX:pref_useful: 4941
CPLX:pref_late: 2862
CPLX:misses: 89929
CPLX:misses_by_poll: 1

NL_L1: 
NL:times selected: 19954
NL:pref_filled: 706
NL:pref_useful: 322
NL:pref_late: 210
NL:misses: 1094
NL:misses_by_poll: 0

total selections: 2372425
total_filled: 93628
total_useful: 32373
total_late: 17007
total_polluted: 4
total_misses_after_warmup: 765753
conflicts: 5635180

test: 114596

DRAM Statistics
 CHANNEL 0
 RQ ROW_BUFFER_HIT:      10410  ROW_BUFFER_MISS:      17886
 DBUS_CONGESTED:         13
 WQ ROW_BUFFER_HIT:       1435  ROW_BUFFER_MISS:      12698  FULL:          0

 AVG_CONGESTED_CYCLE: 6

CPU 0 Branch Prediction Accuracy: 99.8092% MPKI: 0.34894 Average ROB Occupancy at Mispredict: 139.246
Branch types
NOT_BRANCH: 40857279 81.7146%
BRANCH_DIRECT_JUMP: 549424 1.09885%
BRANCH_INDIRECT: 183349 0.366698%
BRANCH_CONDITIONAL: 6181908 12.3638%
BRANCH_DIRECT_CALL: 942884 1.88577%
BRANCH_INDIRECT_CALL: 171110 0.34222%
BRANCH_RETURN: 1113988 2.22798%
BRANCH_OTHER: 0 0%

DRAM PAGES: 1048576
Allocated PAGES: 2601
Average_ROB_Occupancy: 139.559
Average_Decode_Occupancy: 17.5188
Average_FTQ_Occupancy: 7.81923
Indirect max targets: 14 Average targets: 1.1505
Branch_type:  BRANCH_DIRECT_JUMP:  Count Percentage: 3.24829 5.53099 5.12363 9.12238 1.74016 5.96783 0.891939 68.3748 
Branch_type:  BRANCH_INDIRECT:  Count Percentage: 11.7458 3.46491 2.55452 0 2.5452 9.67468 19.2228 50.7921 
Branch_type:  BRANCH_CONDITIONAL:  Count Percentage: 21.4516 2.58987 1.84245 8.41923 1.23162 5.06895 1.95747 57.4388 
Branch_type:  BRANCH_DIRECT_CALL:  Count Percentage: 0.257349 1.79076 1.44555 4.83602 2.15601 2.75191 0.751905 86.0105 
Branch_type:  BRANCH_INDIRECT_CALL:  Count Percentage: 9.53326 0.571582 2.98674 4.83994 0.000291475 2.01875 1.28307 78.7664 
Branch_type:  BRANCH_RETURN:  Count Percentage: 3.18859 1.30476 1.27108 9.31576 2.84213 6.55351 3.12936 72.3948 
Branch_type:  BRANCH_DIRECT_JUMP:  Total Count: 35588 60597 56134 99944 19065 65383 9772 749108 
Branch_type:  BRANCH_INDIRECT:  Total Count: 42886 12651 9327 0 9293 35324 70186 185451 
Branch_type:  BRANCH_CONDITIONAL:  Total Count: 2648867 319799 227508 1039615 152082 625919 241710 7092595 
Branch_type:  BRANCH_DIRECT_CALL:  Total Count: 4868 33874 27344 91478 40783 52055 14223 1626970 
Branch_type:  BRANCH_INDIRECT_CALL:  Total Count: 32707 1961 10247 16605 1 6926 4402 270234 
Branch_type:  BRANCH_RETURN:  Total Count: 71281 29168 28415 208254 63536 146504 69957 1618388 
Number of unique branch instructions: 10308
Upper 32 bits: 
aaaa
ffff
ffff0000
Unique upper 32 bits: 3
Unique upper 36 bits: 3
Unique upper 40 bits: 5
Unique upper 44 bits: 32
Unique upper 48 bits: 154
Offset_3 4268
Offset_4 260
Offset_5 469
Offset_6 531
Offset_7 612
Offset_8 540
Offset_9 491
Offset_10 399
Offset_11 338
Offset_12 297
Offset_13 225
Offset_14 232
Offset_15 201
Offset_16 230
Offset_17 162
Offset_18 128
Offset_19 252
Offset_20 144
Offset_21 236
Offset_22 404
Offset_23 245
Offset_24 346
Offset_25 88
Offset_47 84
Offset_64 21
decode_dispatch_called: 20789011 48.7174
Dispatch_width: 0 10596751 50.9728 24.8327
Dispatch_width: 1 579625 2.78813 1.35831
Dispatch_width: 2 646344 3.10907 1.51466
Dispatch_width: 3 424868 2.04371 0.995645
Dispatch_width: 4 2056051 9.89009 4.8182
Dispatch_width: 5 283352 1.36299 0.664013
Dispatch_width: 6 6202020 29.8332 14.534
Empty_decode_cycles: 21883622 51.2826
ROB_full_cycles: 3064194 7.1807
Starvation_cycles_per_kilo_instr: 334.064
Starvation_cycles_per_kilo_instr_3: 310.67
Starvation_cycles_per_kilo_instr_0: 294.162
Branch_type_1  (3,1)  (4,9)  (5,37)  (6,73)  (7,118)  (8,138)  (9,129)  (10,102)  (11,76)  (12,51)  (13,8)  (14,2)  (15,3)  (16,4)  (18,1)  (19,4)  (20,2)  (21,1)  (22,3)  (23,2)  (24,10)  (25,12)  (64,3) 
Branch_type_2  (3,1)  (5,1)  (8,3)  (9,3)  (12,1)  (13,1)  (14,1)  (16,3)  (17,2)  (20,2)  (21,2)  (23,5)  (24,1)  (47,39) 
Branch_type_3  (3,4266)  (4,251)  (5,427)  (6,441)  (7,460)  (8,333)  (9,270)  (10,164)  (11,140)  (12,58)  (13,7)  (24,3)  (64,11) 
Branch_type_4  (6,4)  (7,8)  (8,30)  (9,54)  (10,63)  (11,63)  (12,105)  (13,96)  (14,102)  (15,96)  (16,104)  (17,73)  (18,58)  (19,124)  (20,74)  (21,124)  (22,215)  (23,138)  (24,202)  (25,72)  (64,4) 
Branch_type_5  (8,2)  (9,1)  (10,3)  (11,5)  (12,3)  (13,14)  (14,16)  (15,11)  (16,20)  (17,13)  (18,16)  (19,12)  (20,11)  (21,13)  (22,42)  (23,26)  (24,37) 
Branch_type_6  (5,4)  (6,13)  (7,26)  (8,34)  (9,34)  (10,67)  (11,54)  (12,79)  (13,99)  (14,111)  (15,91)  (16,99)  (17,74)  (18,53)  (19,112)  (20,55)  (21,96)  (22,144)  (23,74)  (24,93)  (25,4)  (47,45)  (64,3) 
aaaaab1fc620: 2ac9e77e 2aca717c 2aca8eff 2acaf6bc 2acaf9aa 2acaf9f1 2acb1abc 2acb1b7f 2acd4e22 2acdb712 2acf5f9e 2ad0ef44 2ad3f15c 2ad414e6 2ad60e42 2ad8609c 2ad99830 2ada35cc 2ada4676 2ada6612 2adf183e 2adf30e5 2adf5602 2adf785c 2ae11572 2aeb2dcf 2aee101b 2aee1ae1 2aee9456 2b156a8c 2b156b61 2b156bea 2b167f35 2b177656 2b17feec 2b1a3e5a 
aaaaab1fc740: 2aca1fb0 2aca45b3 2aca5aa1 2aca5c69 2aca66f9 2aca9426 2acaeecb 2acf3d2d 2acf3d64 2acf6089 2ad017ea 2ad5e7ef 2ad61064 2ad87373 2ad9bf84 2ad9c093 2ae9b606 2aea9ffa 2aee99f5 2aee9a2c 2aeece4b 
aaaaac68f310: 2ac9ec8c 2ac9fb44 2ac9fbd2 2aca59ab 2acac04c 2acaf6e0 2acaf6ec 2acaf6f9 2acaf700 2acaf708 2acf2d90 2ad3cfbd 2ad3cfc4 2ad3d000 2ad3f35f 2ad4955d 2ad49571 2ad4f3f2 2ad4f400 2ad5f240 2ad5f37c 2ad5f86a 2ad5f86f 2ad5f880 2ad5fc0d 2ad5fc14 2ad5fc21 2ad5fe1b 2ad873bb 2ad873e3 2ad8a6b2 2ad9086e 2ad93096 2ad9bbb2 2ada152c 2ada1554 2ada3332 2ada5522 2adf3130 2adf313c 2adf3a3f 2adf3bd9 2adf5788 2adf7a8d 2ae07f6b 2ae0857a 2ae0857e 2ae08630 2ae08634 2ae08637 2ae08642 2ae0866f 2ae086e4 2ae086ec 2ae08717 2ae0871b 2aee0170 2aee1d38 2aee75f4 2aee7662 2aee85ca 2aee85e4 2aee8eef 2aee9a0a 2af70b84 2af74e8f 2b17d843 
aaaaac690ef0: 2aca598b 2acb111b 2acb175f 2acb1772 2acbfaf4 2acbfb00 2acf374f 2acf6d43 2acfa5c8 2ad3baf1 2ad3d4ac 2ad3d4b8 2ad3f1cf 2ad486b2 2ad5a59b 2ad5fc64 2ad5fcf9 2ad6121c 2ad906e9 2ad907bf 2ad9bada 2ada16ce 2ada1ad5 2ada43df 2ada64c0 2ada72ee 2adeb71a 2adf3bcb 2adf7a38 2adf7c6a 2adf8872 2adf8880 2adf9959 2adf9abe 2ae07f78 2ae08503 2ae08754 2ae12e80 2aea3bea 2aecb509 2aee00b0 2aee2bdd 2aee5467 2aee5601 2aee8f20 2af703fd 2af7048b 2af74e74 2dfba627 
ffff000008082480: 2acbfb00 2acf7baa 2ad3f42c 2ad49548 2ad60e59 2ad7f5c7 2adf55e6 2adf7a36 2adf7a6b 2adf7d26 2ae8592f 2aea30cd 2aeb1bf5 2aeb1c92 2aee10a4 2aee8686 2af74ef4 2b168aa4 2b18d41a 2b1a3cd1 2dee8cf7 
Unique trigger count: 
1 9793
2 555
3 105
4 30
5 9
6 9
7 8
9 3
10 2
11 1
12 1
13 3
14 1
16 2
18 2
19 2
21 2
36 1
49 1
67 1
BTB PER SET UNIQUE ADDR: 2 4 3 2 1 0 3 2 4 0 2 0 5 3 1 3 3 2 4 4 3 4 2 3 4 5 2 4 4 3 6 6 4 3 4 2 1 5 6 2 4 4 3 7 6 2 4 3 6 3 4 3 3 1 0 3 4 3 4 3 1 5 2 3 1 4 6 2 3 5 5 1 1 4 2 3 3 7 2 3 2 2 1 4 4 3 2 5 3 3 6 4 3 5 3 0 4 3 1 3 4 2 3 4 3 2 1 2 3 2 2 1 3 6 2 6 2 5 4 1 4 4 2 0 1 2 2 1 6 6 5 2 4 3 5 3 2 1 3 3 5 3 3 3 2 4 2 5 4 3 3 8 3 5 2 0 3 3 4 2 3 5 4 4 6 3 2 2 8 1 3 2 4 2 1 1 3 5 5 1 3 3 6 3 4 6 3 1 2 3 5 3 3 4 4 5 4 3 3 7 3 2 4 1 3 3 2 4 2 1 2 4 5 4 3 2 4 5 4 0 1 1 2 3 3 2 3 3 0 3 8 3 3 1 3 3 5 3 1 2 1 0 5 3 9 8 1 1 3 3 3 2 1 3 2 6 3 5 4 3 4 4 4 2 3 7 3 1 4 2 3 2 2 4 5 2 2 2 3 3 4 2 6 2 6 5 3 3 1 1 0 3 1 7 1 1 5 3 2 2 3 3 1 2 4 2 4 2 6 5 3 1 3 2 5 1 6 6 2 2 3 7 3 5 2 2 1 6 1 1 4 0 2 5 5 2 3 5 5 0 4 0 1 4 5 2 1 5 4 3 3 6 4 3 5 3 2 0 4 1 2 6 2 4 6 5 1 1 2 2 3 2 3 4 4 4 3 4 4 4 6 3 2 6 3 3 6 2 4 2 5 5 4 2 2 1 5 0 1 4 4 2 4 2 2 3 4 3 1 1 1 4 5 3 2 2 6 3 1 3 1 1 3 4 5 3 3 0 2 5 2 2 9 3 5 5 3 3 3 0 2 4 5 4 4 6 2 4 3 2 4 3 1 2 5 1 1 4 8 2 3 3 4 6 2 3 5 3 3 4 0 4 5 3 3 1 4 5 1 1 2 1 2 2 0 4 3 0 7 1 5 2 4 5 1 6 3 3 3 2 5 2 1 2 2 2 2 2 2 3 4 2 3 7 1 1 2 5 4 5 3 5 4 3 5 6 0 7 6 3 4 3 3 6 4 4 1 2 4 1 2 5 6 3 5 2 8 3 6 9 3 6 3 6 1 3 3 1 3 4 7 2 5 2 2 1 4 2 2 7 4 2 3 8 3 2 3 3 1 6 4 2 1 0 1 0 0 9 5 3 5 7 2 1 2 3 5 3 4 2 4 3 4 8 3 3 4 4 3 2 5 2 3 2 2 2 2 0 3 1 5 4 7 2 2 4 2 5 2 3 5 4 4 2 5 3 2 3 2 3 7 1 4 4 0 0 3 3 3 4 4 3 4 2 3 0 4 3 2 3 6 2 6 4 6 4 5 3 1 4 6 3 4 3 6 6 3 3 3 3 4 2 4 2 6 4 5 3 4 3 1 5 2 2 2 3 6 4 5 5 0 6 0 3 3 2 4 1 3 1 3 3 3 2 2 1 7 2 0 3 2 0 1 1 1 1 1 4 2 4 5 5 2 2 2 4 5 3 2 2 1 3 2 4 2 2 4 2 3 2 0 2 1 3 2 2 2 6 4 1 3 3 1 5 4 4 8 3 2 3 5 4 0 3 3 4 5 2 1 3 3 4 0 3 8 6 3 4 0 3 2 4 2 1 5 7 7 2 2 4 5 3 6 3 5 3 3 5 2 3 1 4 4 1 4 4 1 2 0 4 4 2 5 2 2 1 3 2 4 4 3 1 3 2 5 2 2 1 5 2 2 1 3 3 1 5 7 4 5 2 6 2 5 4 4 5 3 2 5 5 3 6 2 1 9 3 3 4 5 3 2 3 3 6 4 0 2 3 5 4 3 5 5 4 6 4 2 2 3 5 4 3 4 4 3 2 6 3 2 2 5 2 2 3 4 5 4 5 3 4 5 4 0 3 1 5 0 1 5 2 6 5 5 3 4 2 3 2 5 7 4 4 9 7 5 4 6 6 1 6 4 2 0 4 4 5 5 5 3 2 7 1 5 5 2 3 6 5 4 2 3 3 4 5 2 6 9 4 6 3 3 4 0 5 6 1 7 5 1 3 7 5 3 6 2 1 2 3 4 2 5 4 2 7 5 5 4 5 3 5 1 3 5 3 3 5 4 3 4 3 5 3 4 4 6 2 5 2 2 4 5 2 9 5 2 4 3 3 2 3 4 7 6 2 3 2 3 3 4 1 3 2 4 4 3 4 5 5 4 6 0 3 3 3 3 4 2 1 3 2 3 1 2 1 4 1 3 3 3 5 2 8 5 3 2 1 10 1 2 4 1 2 6 5 3 6 3 5 5 6 2 5 2 2 1 1 5 0 4 4 3 7 5 1 7 4 6 2 4 4 5 3 5 8 4 4 6 1 4 4 7 4 3 3 4 3 6 6 3 6 6 6 4 3 5 3 1 2 4 5 1 3 2 1 3 4 2 2 5 2 2 5 4 1 5 1 7 3 3 2 3 1 3 5 3 4 3 4 2 6 2 3 6 3 4 3 4 5 2 8 3 5 3 8 6 1 7 1 5 2 1 2 4 4 3 1 3 5 2 1 2 2 4 3 3 3 3 4 2 5 2 5 4 5 0 5 3 2 2 6 8 0 7 0 1 4 5 2 5 1 3 3 4 1 1 2 4 5 3 4 1 4 4 6 5 1 4 3 3 6 10 4 2 6 6 5 1 1 3 5 6 3 2 2 4 3 4 4 5 3 1 4 2 2 6 8 5 3 3 6 1 2 5 2 4 1 3 2 6 8 3 3 3 3 4 4 2 5 6 6 4 2 1 5 3 2 4 3 4 4 4 4 7 3 5 4 3 5 5 3 1 7 4 4 3 3 3 2 4 3 2 2 5 4 3 2 5 1 1 3 3 8 5 2 3 4 2 3 3 3 4 3 2 1 3 2 4 2 5 3 4 4 2 1 2 6 1 5 2 4 2 4 6 2 1 4 5 4 3 4 5 2 3 4 4 5 4 4 4 3 3 2 2 3 5 2 4 1 3 0 8 3 2 6 4 4 5 7 3 2 3 3 1 2 4 1 4 2 4 3 0 6 1 5 2 2 3 4 3 2 4 2 4 2 3 1 5 2 0 3 4 1 1 3 1 4 2 3 6 3 1 2 2 3 2 2 6 2 3 6 3 3 3 4 2 2 3 0 2 2 2 3 2 2 2 0 4 0 4 2 4 4 3 3 2 1 2 5 4 2 7 1 3 4 2 2 4 5 2 2 5 0 1 2 3 1 1 2 3 3 5 3 1 1 7 3 1 4 1 7 1 4 3 3 6 2 3 2 1 3 3 1 1 3 5 2 3 3 1 2 0 5 1 3 3 0 3 2 5 3 4 3 3 4 1 3 2 2 1 3 3 0 2 3 2 3 3 1 3 3 2 10 6 2 2 2 4 1 1 3 6 2 3 0 3 2 3 2 3 4 5 6 7 0 4 2 6 4 4 5 4 8 2 4 8 3 0 6 3 3 3 4 3 3 2 1 2 4 2 2 3 3 2 3 5 3 5 4 6 1 1 5 6 3 3 4 5 4 6 2 5 5 2 6 3 3 3 2 3 7 5 3 2 3 3 3 3 4 2 3 3 2 3 1 3 8 0 2 2 3 3 4 5 3 4 2 6 1 2 2 6 2 4 5 8 1 1 7 3 4 3 3 4 7 2 3 2 4 8 3 5 3 5 3 5 10 4 4 4 5 2 5 4 3 2 3 1 2 2 3 4 3 2 3 3 5 4 3 4 9 0 3 2 4 4 4 3 4 3 6 3 5 1 5 2 3 4 3 3 0 3 5 0 7 2 5 5 1 4 3 3 0 5 3 3 6 3 6 2 2 2 1 3 4 8 1 4 3 0 3 3 4 6 3 1 4 5 2 3 2 6 3 4 1 5 3 0 2 4 1 1 8 2 0 5 1 4 3 3 3 6 3 3 6 1 5 3 5 2 5 4 2 3 2 7 1 4 0 3 3 4 4 4 3 2 1 2 3 0 3 0 3 5 6 2 2 5 2 3 3 4 1 3 2 4 2 4 2 5 3 2 3 1 2 3 3 3 3 3 4 2 1 1 4 2 5 1 4 1 5 4 2 3 1 4 1 2 3 6 2 3 4 5 5 3 3 3 4 4 2 0 3 3 0 2 1 2 2 4 2 5 2 2 3 4 1 3 4 4 2 4 8 3 2 7 7 4 2 4 1 2 6 3 4 5 2 4 0 1 2 6 3 2 4 4 2 5 3 4 7 4 3 1 4 1 0 2 3 0 5 4 6 1 3 4 6 4 0 2 2 4 2 4 1 3 2 8 3 1 3 3 7 2 7 3 4 7 0 1 3 1 4 2 1 0 2 3 4 5 5 1 0 3 4 5 1 2 1 3 6 2 1 5 4 3 3 5 4 1 6 3 6 2 1 2 2 2 2 5 1 3 1 3 2 3 1 5 2 5 3 4 2 1 3 5 4 4 0 
BTB PER SET COUNT: 2 4 3 2 1 0 4 2 8 0 2 0 2356 3 1 3 3 4 4 1598 4 5 2 3 4 20 2 4 1467 3 2785 28 5 3 6 2 2930 793 829 2 4 9 4 2142 5105 2 6 5 1406 3 5 3 3 1 0 3 7 3 5 3 1 6 2 5 1 540 362 2 3 1062 775 1 1 4 3 4 498 793 2 3 2 3 1 4 5 4 2 12 3 3 2317 474 5 3645 4 0 4 5 1 3 8 2 4 4 3 2 1 2 3 23 3 1 3 1986 2 1782 3 8 4 1 4 7 2 0 5 2 2 2 2571 11 1956 2 4 4 938 3 2 1 4 3 976 3 3 4 2 7 2 3795 4 3 3 6591 3 2309 2 0 3 3 4 3 3 1034 5 5 10 1942 3 2 7907 1 3 2 10 2 1 1 3 8 985 1 4 3 6475 3 4 10 4 1 2 4 46 3 4 4 4 12 4 3 4 10 4 2 4 1 8 5 2 1598 2 1 2 5 16 9 5 3 4 462 4 0 1 1 2 3 3 2 3 30 0 3 5788 8 3 5 3 3 8 3 1 2 2 0 2318 4 8717 1908 1 1 4 3 3 2 1 3 2 1943 4 16 4 3 7 4 4 2 1466 1463 3 1 4 2 3 2 2 4 6 4 2 2 5 3 28 2 1811 2 773 2406 3 3 1 1 0 4 1 23 1 1 16 3 2 2 3 3 1 3 4 2 4 2 1802 1037 3 1 4 2 1030 3 2342 1314 2 3 3 2205 3 6 2 3 1 366 1 1 1094 0 2 19 1514 2 985 6 22 0 4 0 1 983 985 2 1 6 4 5 3 157 4 3 58 4 2 0 5 1 2 291 2 8 2613 1085 1 2 2 2 22 2 3 5 5 5 3 6 4 4 27 3 2 1079 3 3 15 2 4 2 20 7 4 2 2 1 3357 0 1 6 4 2 6 2 2 3 1467 3 1 974 1 4 10 4 975 2 144 3 1 92 1 1 3 4 8 3 10 0 2 6 132 2 2609 3 1065 2155 4 4 4 0 4 5 1277 4 6 1078 2 4 3 2 4 4 1 2 1742 1 1 4 1407 4 3 5 4 1788 2 3 5 3 5 4 0 6 28 492 3 1 6 1065 1 1 2 1 2 496 0 4 3 0 34 1 7 2 6 9 1 25 52 5 3 2 1729 11 1 2 3 3 2 2 2 4 4 2 3 38 4 1 2 2306 5 509 3 1472 4 3 15 1413 0 1747 4613 6 4 3 4 24 4 626 1 2 71 1 3 1476 190 9 16 3 67 27 893 8884 3 1340 7 2796 1 3 8 2 3 4 6363 2 1794 2 2 1 4 2 2 2685 4 4 3 5148 3 2 3 4 24 41 4 46 1 0 4 0 0 3762 6 6 1799 2934 2 4 975 4 7 3 4 2 4 3 6 1544 3 4 4 4 3 2 2287 2 3 6 2 2 1209 0 4 1 21 499 3298 2 5 4 2 16 2 3 1882 1467 4 7 964 3 2 3 2 3 2906 1 4 4 0 0 3 6 3 6 4 3 5 2 5 0 4 3 2 3 7836 3 29 5 1878 6 2959 985 1 7 1012 4 7 5 1402 2835 3 4 7 3 4 3 9 981 1475 4 15 1466 5 3 4 987 6 21 2 3 1762 4 20 47 0 2310 0 3 4 983 5 1 3 1 3 4 6 2 981 1 2469 2 0 5 2 0 1 1 1 1 1 7 2 5 1364 9 969 2 3 5 12 5 2 2 1 3 4 4 2 3 624 3 4 907 0 2 1 4 2 2 2 2747 5 2 3 3 1 17 5 4 5308 3 4 4 9 4 0 119 3 4 2777 6 1 3 3 9 0 3 3196 4450 6 5 0 3 4 29 26 1 7 3378 1862 2 2 4 12 6 12 3 1968 4 4 41 2 8 1 5 4 1 6 5 1 2 0 4 6 2 13 2 3 1 4 2 5 107 3 1 3 2 1904 3 74 1 1417 3 4 1 3 1472 1 11 2036 4 8 2 2415 2 1750 4 4 21 3 2 7 9 3 4393 2 19 6314 978 5 4 1496 12 2 3 3 2306 5 0 3 3 28 4 7 4320 11 4 80 4 2 2 3 7 6 3 4 4 3 4 775 3 2 2 1646 2 3 78 5 2358 4 1039 3 6 49 6 0 3 1 1309 0 1 933 2 53 387 1303 3 14 3 3 2 1753 644 4 501 5476 3600 1439 4 2103 27 2 142 5 2 0 971 4 2369 47 1440 4 2 828 1 351 10 2 3 1257 1866 4 2 3 623 4 4634 2 329 1122 5 1995 5 3 4 0 541 22 1 7134 19 1 3 2037 19 496 10 2 3 2 3 5 2 1459 4 2 3360 6 7 5 1776 3 33 1 6 7 3 3 21 4 52 4 3 1935 3 2430 537 1662 3 22 4 2 5 1670 2 4955 24 2 4 3 3 2 3 4 2708 1741 6 3 2 3 3 4 1 3 2 4 4 3 5 21 1905 4 1320 0 3 3 3 1466 545 2 1 3 2 3 1 3 1 6 1 5 3 3 14 2 3743 1475 5 2 1 11018 1 2 5 1 2 1826 117 4 5103 4 24 11 2341 2 24 2 2 24 1 27 0 5 5 3 2004 8 1 1851 4 2237 2 499 4 13 3 2178 1633 5 4 2276 1 5 5 4612 4 4 4 5 3 1428 1822 5 2297 1350 1593 4 3 21 8 1 2 4 1954 1 3 2 1 14 5 2 3 636 2 2 321 4 1 13 1 5421 3 3 2 3 1 3 230 3 5 3 4 3 27 2 3 1570 3 5 7 5 1854 2 5301 3 1412 3 2639 6951 1 4933 1 21 2 1 14 624 5 3 1 3 95 2 1 2 494 4 3 3 4 3 5 2 1447 2 14 5 19 0 1823 3 3 2 42 7140 0 349 0 1 4 11 5 21 1 3 908 5 1 1 2 5 17 6 6 1 4 4 6812 16 1 4 3 3 3104 10084 1969 2 7188 25 1803 1 1 6 1743 2296 4 2 2 6 3 4 4 20 3 1 4 2 2 3153 7586 3716 3 5 317 1 3 22 2 4 1 3 2 2838 6482 976 5 3 3 68 5 2 1708 1877 2385 6 2 1 22 3 2 8 3 4 5 5 4 1736 3 1827 5 500 1752 2352 12 1 2993 4 4 4 4 3 66 8 4 2 2 20 4 6 2 1023 1 1 3 5 2997 16 2 3 4 3 3 32 3 4 3 2 2 3 2 4 2 12 4 7 4 2 1 2 1048 2 12 3 4 2 4 354 2 1 4 7 971 3 4 2406 2 3 51 15 8 4 6 4 4 4 2 2 3 1966 4 23 1 3 0 5342 3 2 2620 4 4 2172 6922 3 2 3 3 1 2 7 1 4 5 69 6 0 3750 3 22 2 2 3 4 4 2 1468 2 4 1505 3 1 628 2 0 3 4 1 1 1506 1 4 3 3 1738 4 1 2 2 3 2 2 2575 5 3 67 5 3 3 5 2 2 3 0 4 2 2 971 2 2 2 0 8 0 4 2 4 4 3 3 907 1 15 6 32 2 2394 1 3 4 2 2 7 11 130 2 21438 0 1 2 3 1 1 2 4 4 1883 401 1 1 1376 3 1 5 1 2295 1 4 3 3 1988 2 4 2 1 3 3 1 1 3 6 2 3 3 1 2 0 3626 1 3 4 0 4 431 1876 3 4 3 3 4 1 5 2 2 5 3 3 0 2 3 2 4 11 1 4 3 2 3637 2902 2 2 2 4 1 1 3 1765 3 3 0 4 3 3 2 3 4 2166 21 5410 0 4 2 2008 5 5 21 4 3301 2 7 8623 3 0 2825 1466 3 5 5 4 4 2 1 2 977 2 2 4 3 2 3 1802 23 1783 7 1019 2936 1 1243 6273 3 4 8 14 4 3428 3 1626 1799 2 1813 3 252 536 2 1466 1437 15 145 7 3 3 4 3 4 2 3 3 2 3 1 4 2370 0 2 2 7 4 4 521 3 4 2 3550 1 2 19 1302 3 1481 1551 2911 1 1 5923 3 986 3 5 4 1872 625 5 21 4 2727 4 502 3 4242 3 30 8361 5 5 14645 2841 3 1905 1467 133 2 3 1 4 2 3 5 3 2 4 3 409 4 3 157 3476 0 1466 2 1467 239 5 3 4 3 2191 3 741 1 2305 2 5 4 3 4 0 3 3003 0 5037 3 1202 2435 1 5 3 5 0 7 3 67 2361 3 4499 2 2 2 1 3 4 7020 1 4 526 0 3 3 4 1735 970 1 4 1903 2 4 2 2069 3 5 1 28 3 0 2 4 1464 2 3891 2 0 7 1 7 6 3 3 2399 3 419 2247 1 2243 3 1825 221 1761 73 2 3 2 3832 4 188 0 5 1597 4 6 4 4 2 4 2 604 0 3 0 3 7 3041 2 2 803 405 4 4 977 1 3 2 5 2 4 2 101 3 2 3 1 2 185 4 3 3 3 4 2 1 2 4 2 1441 1 4 1 3607 4 2 9 6 5 1 2 3 27 2 26 913 8 948 3 3 3 5 4 2 0 3 4 0 2 1 2 2 4 4 2302 2 2 3 4 1 4 4 4 2 4 2998 3 2 3096 2166 151 2 4 1 2 25 3 5 140 2 10 0 1 2 11 924 2 4 4 2 7 26 5 2467 4 3 1 5 1 0 2 3 0 26 1468 1138 1 3 4 2334 4 0 66 2 19 2 4 1 4 2 3545 4 1 4 3 2486 3 3309 3 4 5255 0 1 3 1 5 2 1 0 2 3 4 19 7 2 0 4 5 1458 1 2 1 3 2338 2 1 19 4 3 5 1748 5 1 2340 3 1740 2 1 2 2 2 2 5 3 3 1 3 2 3 1 22 2 230 3 5 2 1 3 1486 4 5 0 
