
*** ChampSim Multicore Out-of-Order Simulator ***

Warmup Instructions: 50000000
Simulation Instructions: 50000000
Number of CPUs: 1
LLC sets: 2048
LLC ways: 16
Off-chip DRAM Size: 4096 MB Channels: 1 Width: 64-bit Data Rate: 6400 MT/s
CPU 0 runs ./micro_traces/srv122.trace.gz
.gz
ITLB has LRU replacement policy
DTLB has LRU replacement policy
STLB has LRU replacement policy
FDIP Prefetcher at L1I
L1I has LRU replacement policy
L1D has LRU replacement policy
Initialize SRRIP state for L2C
Initialize DRRIP state for LLC
Heartbeat CPU 0 instructions: 10000002 cycles: 2796600 heartbeat IPC: 3.57577 cumulative IPC: 3.57577 (Simulation time: 0 hr 2 min 19 sec) 
Heartbeat CPU 0 instructions: 20000003 cycles: 5590721 heartbeat IPC: 3.57894 cumulative IPC: 3.57736 (Simulation time: 0 hr 4 min 26 sec) 
Heartbeat CPU 0 instructions: 30000001 cycles: 8386040 heartbeat IPC: 3.57741 cumulative IPC: 3.57737 (Simulation time: 0 hr 6 min 35 sec) 
Heartbeat CPU 0 instructions: 40000003 cycles: 11182642 heartbeat IPC: 3.57577 cumulative IPC: 3.57697 (Simulation time: 0 hr 8 min 48 sec) 
Heartbeat CPU 0 instructions: 50000002 cycles: 13978358 heartbeat IPC: 3.5769 cumulative IPC: 3.57696 (Simulation time: 0 hr 10 min 53 sec) 

Warmup complete CPU 0 instructions: 50000002 cycles: 13978358 (Simulation time: 0 hr 10 min 53 sec) 

Cycle: 20000000 FTQ IN: 56357794 FTQ occupancy: 17.902 DECODE IN: 56357743 DECODE occupancy: 45.7602 ROB IN: 56357688 ROB occupancy: 275.229 ROB OUT: 56357612
Heartbeat CPU 0 instructions: 60000000 cycles: 23431519 heartbeat IPC: 1.05785 cumulative IPC: 1.05785 (Simulation time: 0 hr 12 min 35 sec) 
Cycle: 30000000 FTQ IN: 10435110 FTQ occupancy: 6.24619 DECODE IN: 10435161 DECODE occupancy: 12.8878 ROB IN: 10435189 ROB occupancy: 106.739 ROB OUT: 10435182
Heartbeat CPU 0 instructions: 70000001 cycles: 33054284 heartbeat IPC: 1.0392 cumulative IPC: 1.04844 (Simulation time: 0 hr 14 min 22 sec) 
Cycle: 40000000 FTQ IN: 10537782 FTQ occupancy: 6.1806 DECODE IN: 10537782 DECODE occupancy: 12.9083 ROB IN: 10537809 ROB occupancy: 105.486 ROB OUT: 10537630
Heartbeat CPU 0 instructions: 80000001 cycles: 42482409 heartbeat IPC: 1.06066 cumulative IPC: 1.05248 (Simulation time: 0 hr 15 min 58 sec) 
Cycle: 50000000 FTQ IN: 10568844 FTQ occupancy: 6.21049 DECODE IN: 10568802 DECODE occupancy: 12.8036 ROB IN: 10568797 ROB occupancy: 108.431 ROB OUT: 10569044
Heartbeat CPU 0 instructions: 90000002 cycles: 51977336 heartbeat IPC: 1.05319 cumulative IPC: 1.05266 (Simulation time: 0 hr 17 min 49 sec) 
Cycle: 60000000 FTQ IN: 10564022 FTQ occupancy: 6.14285 DECODE IN: 10564040 DECODE occupancy: 12.7423 ROB IN: 10564045 ROB occupancy: 105.872 ROB OUT: 10563958
Heartbeat CPU 0 instructions: 100000001 cycles: 61442701 heartbeat IPC: 1.05648 cumulative IPC: 1.05342 (Simulation time: 0 hr 20 min 7 sec) 
Finished CPU 0 instructions: 50000003 cycles: 47464344 cumulative IPC: 1.05342 (Simulation time: 0 hr 20 min 7 sec) 

ChampSim completed all CPUs

Region of Interest Statistics

CPU 0 cumulative IPC: 1.05342 instructions: 50000003 cycles: 47464344
 Fetch stage stalled: 72.9723  Sim cycles: 47464344 fetch stall cycle: 34635820
 Empty decode stage: 61.3483  Sim cycles: 47464344 fetch stall cycle: 29118553
ITLB TOTAL     ACCESS:    5533633  HIT:    5035691  MISS:     497942  HIT %:    91.0015  MISS %:    8.99846   MPKI: 9.95884
ITLB LOAD TRANSLATION INSTRUCTION	ACCESS:    5429280  HIT:    4931338  MISS:     497942  HIT %:    90.8286  MISS %:    9.17142  MPKI: 9.95884
ITLB TRANSLATION FROM L1D PREFETCHER INSTRUCTION	ACCESS:     104353  HIT:     104353  MISS:          0  HIT %:        100  MISS %:          0  MPKI: 0

ITLB AVERAGE MISS LATENCY: 9.03818 cycles
ITLB RQ	ACCESS:    7217299	FORWARD:          0	MERGED:    1170370	TO_CACHE:    6046929

DTLB TOTAL     ACCESS:    9434390  HIT:    8961817  MISS:     472573  HIT %:     94.991  MISS %:    5.00905   MPKI: 9.45146
DTLB LOAD TRANSLATION DATA	ACCESS:    9434390  HIT:    8961817  MISS:     472573  HIT %:     94.991  MISS %:    5.00905  MPKI: 9.45146

DTLB AVERAGE MISS LATENCY: 9.3083 cycles
DTLB RQ	ACCESS:   13699022	FORWARD:          0	MERGED:    4232417	TO_CACHE:    9466605

STLB TOTAL     ACCESS:    1217204  HIT:    1215275  MISS:       1929  HIT %:    99.8415  MISS %:   0.158478   MPKI: 0.03858
STLB LOAD TRANSLATION INSTRUCTION	ACCESS:     497941  HIT:     497712  MISS:        229  HIT %:     99.954  MISS %:  0.0459894  MPKI: 0.00458
STLB LOAD TRANSLATION DATA	ACCESS:     472547  HIT:     470856  MISS:       1691  HIT %:    99.6422  MISS %:   0.357848  MPKI: 0.03382
STLB TRANSLATION FROM L1D PREFETCHER DATA	ACCESS:     246716  HIT:     246707  MISS:          9  HIT %:    99.9964  MISS %: 0.00364792  MPKI: 0.00018

STLB AVERAGE MISS LATENCY: 72.1586 cycles
STLB RQ	ACCESS:    1347907	FORWARD:          0	MERGED:     130669	TO_CACHE:    1217238

STLB Hit, L1D data hit: 0
STLB Hit, L2C data hit: 0
STLB Hit, LLC data hit: 0
STLB Hit, LLC data miss: 0
STLB STLB hints to L2: 0
L1D TOTAL     ACCESS:   13469185  HIT:   12326947  MISS:    1142238  HIT %:    91.5196  MISS %:    8.48038   MPKI: 22.8448
L1D LOAD DATA	ACCESS:    6889715  HIT:    6134388  MISS:     755327  HIT %:    89.0369  MISS %:    10.9631  MPKI: 15.1065
L1D RFO DATA	ACCESS:    6250993  HIT:    5964346  MISS:     286647  HIT %:    95.4144  MISS %:    4.58562  MPKI: 5.73294
L1D PREFETCH DATA	ACCESS:     328477  HIT:     228213  MISS:     100264  HIT %:    69.4761  MISS %:    30.5239  MPKI: 2.00528

L1D PREFETCH  REQUESTED:     755089  ISSUED:     755089  USEFUL:      39019  USELESS:      70831
L1D USEFUL LOAD PREFETCHES:      39019 PREFETCH ISSUED TO LOWER LEVEL:     109902  ACCURACY: 35.5034
 TIMELY PREFETCHES:      39019 LATE PREFETCHES: 9568 DROPPED PREFETCHES: 4
L1D AVERAGE MISS LATENCY: 317266 cycles
L1D RQ	ACCESS:   10931951	FORWARD:          0	MERGED:    3850494	TO_CACHE:    6920299
L1D WQ	ACCESS:    6945468	FORWARD:     161461	MERGED:     166745	TO_CACHE:    6778723
L1D PQ	ACCESS:     377696	FORWARD:          0	MERGED:          0	TO_CACHE:     377393

L1D UNIQUE REGIONS ACCESSED: 0
L1D REGIONS CONFLICTS: 0
L1D Cross Page Prefetch Requests: 5716
L1D Same Page Prefetch Requests: 765277
L1D ROI Sum of L1D PQ occupancy: 4796131
L1D PREFETCHES PUSHED FROM L2C: 0
L1I TOTAL     ACCESS:    6857580  HIT:    4074751  MISS:    2782829  HIT %:    59.4197  MISS %:    40.5803   MPKI: 55.6566
L1I LOAD INSTRUCTION	ACCESS:    6433111  HIT:    3650282  MISS:    2782829  HIT %:    56.7421  MISS %:    43.2579  MPKI: 55.6566
L1I PREFETCH INSTRUCTION	ACCESS:     424469  HIT:     424469  MISS:          0  HIT %:        100  MISS %:          0  MPKI: 0

L1I PREFETCH  REQUESTED:     863680  ISSUED:     863680  USEFUL:          0  USELESS:          0
L1I USEFUL LOAD PREFETCHES:          0 PREFETCH ISSUED TO LOWER LEVEL:          0  ACCURACY: -nan
 TIMELY PREFETCHES:          0 LATE PREFETCHES: 0 DROPPED PREFETCHES: 0
L1I AVERAGE MISS LATENCY: 17.0275 cycles
L1I RQ	ACCESS:    9470100	FORWARD:          0	MERGED:    2855454	TO_CACHE:    6614646
L1I PQ	ACCESS:     863680	FORWARD:          0	MERGED:     261027	TO_CACHE:     602653

L1BTB TOTAL     ACCESS:    5676318  HIT:    2029539  MISS:    3646779  HIT %:    35.7545  MISS %:    64.2455   MPKI: 72.9356
L1BTB BRANCH_DIRECT_JUMP	ACCESS:     546510 HIT:     142158 MISS:     404352 AVERAGE STALL: 33.311 AVERAGE FETCH STALL: 18.8248 AVERAGE FETCH QUEUE STALL: 6.18923 AVERAGE DECODE STALL: 7.45185 AVERAGE EXECUTE STALL: 2.00717e+14
L1BTB BRANCH_INDIRECT	ACCESS:     181659 HIT:      65038 MISS:     116621 AVERAGE STALL: 88.1791 AVERAGE FETCH STALL: 14.8625 AVERAGE FETCH QUEUE STALL: 6.48714 AVERAGE DECODE STALL: 6.50266 AVERAGE EXECUTE STALL: 59.387
L1BTB BRANCH_CONDITIONAL	ACCESS:    2705084 HIT:    1407558 MISS:    1297526 AVERAGE STALL: 33.9942 AVERAGE FETCH STALL: 20.6539 AVERAGE FETCH QUEUE STALL: 6.2613 AVERAGE DECODE STALL: 6.33244 AVERAGE EXECUTE STALL: 7.39597e+13
L1BTB BRANCH_DIRECT_CALL	ACCESS:     949341 HIT:     104587 MISS:     844754 AVERAGE STALL: 35.6709 AVERAGE FETCH STALL: 20.8838 AVERAGE FETCH QUEUE STALL: 6.60781 AVERAGE DECODE STALL: 7.4211 AVERAGE EXECUTE STALL: 9.78716e+13
L1BTB BRANCH_INDIRECT_CALL	ACCESS:     172193 HIT:      21010 MISS:     151183 AVERAGE STALL: 108.015 AVERAGE FETCH STALL: 16.8545 AVERAGE FETCH QUEUE STALL: 6.96024 AVERAGE DECODE STALL: 6.78241 AVERAGE EXECUTE STALL: 76.8678
L1BTB BRANCH_RETURN	ACCESS:    1121531 HIT:     289188 MISS:     832343 AVERAGE STALL: 34.8581 AVERAGE FETCH STALL: 18.5004 AVERAGE FETCH QUEUE STALL: 6.08099 AVERAGE DECODE STALL: 6.20091 AVERAGE EXECUTE STALL: 1.12336e+14
L1BTB BRANCH_OTHER ACCESS:          0 HIT:          0 MISS:          0 AVERAGE STALL: -nan AVERAGE FETCH STALL: -nan AVERAGE FETCH QUEUE STALL: -nan AVERAGE DECODE STALL: -nan AVERAGE EXECUTE STALL: -nan
L1BTB TOTAL ROB OCCUPANCY AT BTB MISS: 18.4427

L2BTB TOTAL     ACCESS:    3621622  HIT:    2889665  MISS:     731957  HIT %:    79.7892  MISS %:    20.2108   MPKI: 14.6391
L2BTB BRANCH_DIRECT_JUMP	ACCESS:     400334 HIT:     312436 MISS:      87898 AVERAGE STALL: 33.311 AVERAGE FETCH STALL: 18.8248 AVERAGE FETCH QUEUE STALL: 6.18923 AVERAGE DECODE STALL: 7.45185 AVERAGE EXECUTE STALL: 2.00717e+14
L2BTB BRANCH_INDIRECT	ACCESS:     106289 HIT:      96717 MISS:       9572 AVERAGE STALL: 88.1791 AVERAGE FETCH STALL: 14.8625 AVERAGE FETCH QUEUE STALL: 6.48714 AVERAGE DECODE STALL: 6.50266 AVERAGE EXECUTE STALL: 59.387
L2BTB BRANCH_CONDITIONAL	ACCESS:    1297526 HIT:    1047032 MISS:     250494 AVERAGE STALL: 33.9942 AVERAGE FETCH STALL: 20.6539 AVERAGE FETCH QUEUE STALL: 6.2613 AVERAGE DECODE STALL: 6.33244 AVERAGE EXECUTE STALL: 7.39597e+13
L2BTB BRANCH_DIRECT_CALL	ACCESS:     844754 HIT:     656230 MISS:     188524 AVERAGE STALL: 35.6709 AVERAGE FETCH STALL: 20.8838 AVERAGE FETCH QUEUE STALL: 6.60781 AVERAGE DECODE STALL: 7.4211 AVERAGE EXECUTE STALL: 9.78716e+13
L2BTB BRANCH_INDIRECT_CALL	ACCESS:     141798 HIT:     109152 MISS:      32646 AVERAGE STALL: 108.015 AVERAGE FETCH STALL: 16.8545 AVERAGE FETCH QUEUE STALL: 6.96024 AVERAGE DECODE STALL: 6.78241 AVERAGE EXECUTE STALL: 76.8678
L2BTB BRANCH_RETURN	ACCESS:     830921 HIT:     668098 MISS:     162823 AVERAGE STALL: 34.8581 AVERAGE FETCH STALL: 18.5004 AVERAGE FETCH QUEUE STALL: 6.08099 AVERAGE DECODE STALL: 6.20091 AVERAGE EXECUTE STALL: 1.12336e+14
L2BTB BRANCH_OTHER ACCESS:          0 HIT:          0 MISS:          0 AVERAGE STALL: -nan AVERAGE FETCH STALL: -nan AVERAGE FETCH QUEUE STALL: -nan AVERAGE DECODE STALL: -nan AVERAGE EXECUTE STALL: -nan
L2BTB TOTAL ROB OCCUPANCY AT BTB MISS: 91.8859

L2C TOTAL     ACCESS:    4535798  HIT:    4083035  MISS:     452763  HIT %:     90.018  MISS %:    9.98199   MPKI: 9.05526
L2C LOAD INSTRUCTION	ACCESS:    2782829  HIT:    2542292  MISS:     240537  HIT %:    91.3564  MISS %:    8.64361  MPKI: 4.81074
L2C LOAD TRANSLATION INSTRUCTION	ACCESS:        255  HIT:         47  MISS:        208  HIT %:    18.4314  MISS %:    81.5686  MPKI: 0.00416
L2C LOAD DATA	ACCESS:     745730  HIT:     673752  MISS:      71978  HIT %:     90.348  MISS %:    9.65202  MPKI: 1.43956
L2C RFO DATA	ACCESS:     286560  HIT:     237082  MISS:      49478  HIT %:    82.7338  MISS %:    17.2662  MPKI: 0.98956
L2C PREFETCH DATA	ACCESS:     191894  HIT:     116394  MISS:      75500  HIT %:    60.6554  MISS %:    39.3446  MPKI: 1.51
L2C WRITEBACK DATA	ACCESS:     526770  HIT:     513079  MISS:      13691  HIT %:     97.401  MISS %:    2.59905  MPKI: 0.27382
L2C LOAD TRANSLATION DATA	ACCESS:       1738  HIT:        375  MISS:       1363  HIT %:    21.5765  MISS %:    78.4235  MPKI: 0.02726
L2C TRANSLATION FROM L1D PREFETCHER DATA	ACCESS:         22  HIT:         14  MISS:          8  HIT %:    63.6364  MISS %:    36.3636  MPKI: 0.00016

L2C PREFETCH  REQUESTED:      90029  ISSUED:      90029  USEFUL:       7798  USELESS:      68245
L2C USEFUL LOAD PREFETCHES:       7798 PREFETCH ISSUED TO LOWER LEVEL:      75979  ACCURACY: 10.2634
 TIMELY PREFETCHES:       7798 LATE PREFETCHES: 479 DROPPED PREFETCHES: 0
L2C AVERAGE MISS LATENCY: 38.5485 cycles
L2C RQ	ACCESS:    3817181	FORWARD:          0	MERGED:          0	TO_CACHE:    3817135
L2C WQ	ACCESS:     526770	FORWARD:         46	MERGED:          0	TO_CACHE:     526770
L2C PQ	ACCESS:     199931	FORWARD:          0	MERGED:       3695	TO_CACHE:     196236

L2C Dense regions hint from L2: 0
PSCL5 TOTAL     ACCESS:       3866  HIT:       1933  MISS:       1933  HIT %:         50  MISS %:         50   MPKI: 0.03866
PSCL5 LOAD TRANSLATION INSTRUCTION	ACCESS:       3822  HIT:       1911  MISS:       1911  HIT %:         50  MISS %:         50  MPKI: 0.03822
PSCL5 TRANSLATION FROM L1D PREFETCHER INSTRUCTION	ACCESS:         44  HIT:         22  MISS:         22  HIT %:         50  MISS %:         50  MPKI: 0.00044


PSCL4 TOTAL     ACCESS:       3715  HIT:       1855  MISS:       1860  HIT %:    49.9327  MISS %:    50.0673   MPKI: 0.0372
PSCL4 LOAD TRANSLATION INSTRUCTION	ACCESS:       2391  HIT:       1837  MISS:        554  HIT %:    76.8298  MISS %:    23.1702  MPKI: 0.01108
PSCL4 TRANSLATION FROM L1D PREFETCHER INSTRUCTION	ACCESS:         23  HIT:         18  MISS:          5  HIT %:    78.2609  MISS %:    21.7391  MPKI: 0.0001
PSCL4 LOAD TRANSLATION DATA	ACCESS:       1288  HIT:          0  MISS:       1288  HIT %:          0  MISS %:        100  MPKI: 0.02576
PSCL4 TRANSLATION FROM L1D PREFETCHER DATA	ACCESS:         13  HIT:          0  MISS:         13  HIT %:          0  MISS %:        100  MPKI: 0.00026


PSCL3 TOTAL     ACCESS:       3809  HIT:       1902  MISS:       1907  HIT %:    49.9344  MISS %:    50.0656   MPKI: 0.03814
PSCL3 LOAD TRANSLATION INSTRUCTION	ACCESS:       2438  HIT:       1884  MISS:        554  HIT %:    77.2765  MISS %:    22.7235  MPKI: 0.01108
PSCL3 TRANSLATION FROM L1D PREFETCHER INSTRUCTION	ACCESS:         23  HIT:         18  MISS:          5  HIT %:    78.2609  MISS %:    21.7391  MPKI: 0.0001
PSCL3 LOAD TRANSLATION DATA	ACCESS:       1335  HIT:          0  MISS:       1335  HIT %:          0  MISS %:        100  MPKI: 0.0267
PSCL3 TRANSLATION FROM L1D PREFETCHER DATA	ACCESS:         13  HIT:          0  MISS:         13  HIT %:          0  MISS %:        100  MPKI: 0.00026


PSCL2 TOTAL     ACCESS:       3794  HIT:       1861  MISS:       1933  HIT %:    49.0511  MISS %:    50.9489   MPKI: 0.03866
PSCL2 LOAD TRANSLATION INSTRUCTION	ACCESS:       2066  HIT:       1839  MISS:        227  HIT %:    89.0126  MISS %:    10.9874  MPKI: 0.00454
PSCL2 TRANSLATION FROM L1D PREFETCHER INSTRUCTION	ACCESS:         22  HIT:         22  MISS:          0  HIT %:        100  MISS %:          0  MPKI: 0
PSCL2 LOAD TRANSLATION DATA	ACCESS:       1684  HIT:          0  MISS:       1684  HIT %:          0  MISS %:        100  MPKI: 0.03368
PSCL2 TRANSLATION FROM L1D PREFETCHER DATA	ACCESS:         22  HIT:          0  MISS:         22  HIT %:          0  MISS %:        100  MPKI: 0.00044


LLC TOTAL     ACCESS:     508368  HIT:     480934  MISS:      27434  HIT %:    94.6035  MISS %:    5.39648   MPKI: 0.54868
LLC LOAD INSTRUCTION	ACCESS:     240537  HIT:     239752  MISS:        785  HIT %:    99.6736  MISS %:   0.326353  MPKI: 0.0157
LLC LOAD TRANSLATION INSTRUCTION	ACCESS:        208  HIT:        186  MISS:         22  HIT %:    89.4231  MISS %:    10.5769  MPKI: 0.00044
LLC LOAD DATA	ACCESS:      71523  HIT:      68137  MISS:       3386  HIT %:    95.2659  MISS %:    4.73414  MPKI: 0.06772
LLC RFO DATA	ACCESS:      49451  HIT:      36653  MISS:      12798  HIT %:    74.1198  MISS %:    25.8802  MPKI: 0.25596
LLC PREFETCH DATA	ACCESS:      75979  HIT:      65934  MISS:      10045  HIT %:    86.7792  MISS %:    13.2208  MPKI: 0.2009
LLC WRITEBACK DATA	ACCESS:      69299  HIT:      68977  MISS:        322  HIT %:    99.5353  MISS %:   0.464653  MPKI: 0.00644
LLC LOAD TRANSLATION DATA	ACCESS:       1363  HIT:       1287  MISS:         76  HIT %:    94.4241  MISS %:    5.57594  MPKI: 0.00152
LLC TRANSLATION FROM L1D PREFETCHER DATA	ACCESS:          8  HIT:          8  MISS:          0  HIT %:        100  MISS %:          0  MPKI: 0

LLC AVERAGE MISS LATENCY: 154.842 cycles
LLC RQ	ACCESS:     363094	FORWARD:          0	MERGED:          0	TO_CACHE:     363091
LLC WQ	ACCESS:      69299	FORWARD:          3	MERGED:          0	TO_CACHE:      69299
LLC PQ	ACCESS:      75979	FORWARD:          0	MERGED:          0	TO_CACHE:      75979

LLC Dense regions hint to LLC: 0

RAW hits: 1690812
Loads Generated: 12622763
Loads sent to L1D: 10931951
Stores Generated: 6945471
Stores sent to L1D: 6945468
Major fault: 0 Minor fault: 2477
Allocated PAGES: 2477

stream: 
stream:times selected: 1188595
stream:pref_filled: 125624
stream:pref_useful: 26269
stream:pref_late: 7398
stream:misses: 9244
stream:misses_by_poll: 0

CS: 
CS:times selected: 182833
CS:pref_filled: 65357
CS:pref_useful: 40639
CS:pref_late: 7296
CS:misses: 18803
CS:misses_by_poll: 10

CPLX: 
CPLX:times selected: 1004531
CPLX:pref_filled: 22946
CPLX:pref_useful: 6510
CPLX:pref_late: 3174
CPLX:misses: 107065
CPLX:misses_by_poll: 8

NL_L1: 
NL:times selected: 14680
NL:pref_filled: 860
NL:pref_useful: 304
NL:pref_late: 246
NL:misses: 1307
NL:misses_by_poll: 0

total selections: 2390639
total_filled: 100264
total_useful: 39019
total_late: 19832
total_polluted: 18
total_misses_after_warmup: 785916
conflicts: 5688947

test: 114662

DRAM Statistics
 CHANNEL 0
 RQ ROW_BUFFER_HIT:      10079  ROW_BUFFER_MISS:      17032
 DBUS_CONGESTED:         16
 WQ ROW_BUFFER_HIT:       1223  ROW_BUFFER_MISS:      11148  FULL:          0

 AVG_CONGESTED_CYCLE: 4

CPU 0 Branch Prediction Accuracy: 99.8244% MPKI: 0.3217 Average ROB Occupancy at Mispredict: 100.539
Branch types
NOT_BRANCH: 40838137 81.6763%
BRANCH_DIRECT_JUMP: 546510 1.09302%
BRANCH_INDIRECT: 181659 0.363318%
BRANCH_CONDITIONAL: 6190420 12.3808%
BRANCH_DIRECT_CALL: 949341 1.89868%
BRANCH_INDIRECT_CALL: 172193 0.344386%
BRANCH_RETURN: 1121531 2.24306%
BRANCH_OTHER: 0 0%

DRAM PAGES: 1048576
Allocated PAGES: 2477
Average_ROB_Occupancy: 107.461
Average_Decode_Occupancy: 12.8001
Average_FTQ_Occupancy: 6.17687
Indirect max targets: 14 Average targets: 1.14527
Branch_type:  BRANCH_DIRECT_JUMP:  Count Percentage: 3.59886 5.89909 4.35202 9.75361 2.58107 6.50235 1.64019 65.6728 
Branch_type:  BRANCH_INDIRECT:  Count Percentage: 19.726 3.35594 5.25442 3.80853 3.35594 10.8769 3.25105 50.3712 
Branch_type:  BRANCH_CONDITIONAL:  Count Percentage: 21.4842 6.55548 2.67338 4.89999 2.60207 8.57623 1.08029 52.1284 
Branch_type:  BRANCH_DIRECT_CALL:  Count Percentage: 0.795756 1.301 0.982277 4.77923 2.86731 3.00431 0.775507 85.4946 
Branch_type:  BRANCH_INDIRECT_CALL:  Count Percentage: 9.56259 0 3.00024 4.30824 0 3.74726 0.991375 78.3903 
Branch_type:  BRANCH_RETURN:  Count Percentage: 5.13064 4.33378 2.69157 4.07277 5.42034 9.98444 1.43871 66.9278 
Branch_type:  BRANCH_DIRECT_JUMP:  Total Count: 39302 64422 47527 106516 28187 71010 17912 717191 
Branch_type:  BRANCH_INDIRECT:  Total Count: 71652 12190 19086 13834 12190 39509 11809 182967 
Branch_type:  BRANCH_CONDITIONAL:  Total Count: 2658193 811095 330772 606265 321948 1061118 133662 6449730 
Branch_type:  BRANCH_DIRECT_CALL:  Total Count: 15090 24671 18627 90629 54373 56971 14706 1621242 
Branch_type:  BRANCH_INDIRECT_CALL:  Total Count: 32950 0 10338 14845 0 12912 3416 270111 
Branch_type:  BRANCH_RETURN:  Total Count: 115012 97149 60336 91298 121506 223818 32251 1500298 
Number of unique branch instructions: 9804
Upper 32 bits: 
aaaa
ffff
ffff0000
Unique upper 32 bits: 3
Unique upper 36 bits: 3
Unique upper 40 bits: 5
Unique upper 44 bits: 32
Unique upper 48 bits: 154
Offset_3 4031
Offset_4 243
Offset_5 449
Offset_6 498
Offset_7 571
Offset_8 507
Offset_9 463
Offset_10 374
Offset_11 301
Offset_12 269
Offset_13 203
Offset_14 227
Offset_15 184
Offset_16 220
Offset_17 145
Offset_18 118
Offset_19 234
Offset_20 136
Offset_21 235
Offset_22 391
Offset_23 241
Offset_24 331
Offset_25 88
Offset_47 82
Offset_64 2
decode_dispatch_called: 19410913 40.8958
Dispatch_width: 0 9339701 48.1157 19.6773
Dispatch_width: 1 537992 2.7716 1.13347
Dispatch_width: 2 701530 3.6141 1.47801
Dispatch_width: 3 465499 2.39813 0.980734
Dispatch_width: 4 1598181 8.23341 3.36712
Dispatch_width: 5 338566 1.7442 0.713306
Dispatch_width: 6 6429444 33.1228 13.5458
Empty_decode_cycles: 28053431 59.1042
ROB_full_cycles: 2049305 4.31757
Starvation_cycles_per_kilo_instr: 389.856
Starvation_cycles_per_kilo_instr_3: 370.488
Starvation_cycles_per_kilo_instr_0: 353.438
Branch_type_1  (3,1)  (4,9)  (5,37)  (6,68)  (7,112)  (8,128)  (9,122)  (10,97)  (11,67)  (12,43)  (13,5)  (14,2)  (15,3)  (16,4)  (18,1)  (19,4)  (20,2)  (21,1)  (22,3)  (23,2)  (24,10)  (25,12)  (64,1) 
Branch_type_2  (3,1)  (5,1)  (8,3)  (9,3)  (12,1)  (13,1)  (14,1)  (16,3)  (17,2)  (20,2)  (21,2)  (23,5)  (24,1)  (47,38) 
Branch_type_3  (3,4029)  (4,234)  (5,407)  (6,415)  (7,430)  (8,315)  (9,255)  (10,151)  (11,120)  (12,50)  (13,4)  (64,1) 
Branch_type_4  (6,3)  (7,8)  (8,25)  (9,51)  (10,60)  (11,58)  (12,96)  (13,88)  (14,100)  (15,86)  (16,98)  (17,64)  (18,53)  (19,115)  (20,71)  (21,124)  (22,208)  (23,136)  (24,192)  (25,72) 
Branch_type_5  (8,2)  (9,1)  (10,3)  (11,5)  (12,3)  (13,14)  (14,16)  (15,11)  (16,20)  (17,11)  (18,16)  (19,12)  (20,10)  (21,13)  (22,42)  (23,26)  (24,37) 
Branch_type_6  (5,4)  (6,12)  (7,21)  (8,34)  (9,31)  (10,63)  (11,51)  (12,76)  (13,91)  (14,108)  (15,84)  (16,95)  (17,68)  (18,48)  (19,103)  (20,51)  (21,95)  (22,138)  (23,72)  (24,91)  (25,4)  (47,44) 
aaaaab1fc620: 2ac9e77e 2aca717c 2aca8eff 2acaf6bc 2acaf9aa 2acaf9f1 2acb1abc 2acb1b7f 2acd4e22 2acdb712 2acf5f9e 2ad0ef44 2ad3f15c 2ad414e6 2ad60e42 2ad8609c 2ad99830 2ada35cc 2ada4676 2ada6612 2adf183e 2adf30e5 2adf5602 2adf785c 2ae11572 2aeb2dcf 2aee101b 2aee1ae1 2aee9456 2b156a8c 2b156b61 2b156bea 2b167f35 2b177656 2b17feec 2b1a3e5a 
aaaaab1fc740: 2aca1fb0 2aca45b3 2aca5aa1 2aca5c69 2aca66f9 2aca9426 2acaeecb 2acf3d2d 2acf3d64 2acf6089 2ad017ea 2ad5e7ef 2ad61064 2ad87373 2ad9bf84 2ad9c093 2ae9b606 2aea9ffa 2aee99f5 2aee9a2c 2aeece4b 
aaaaac68f310: 2ac9ec8c 2ac9fb44 2ac9fbd2 2aca59ab 2acac04c 2acaf6e0 2acaf6ec 2acaf6f9 2acaf700 2acaf708 2acf2d90 2ad3cfbd 2ad3cfc4 2ad3d000 2ad3f35f 2ad4955d 2ad49571 2ad4f3f2 2ad4f400 2ad5f240 2ad5f37c 2ad5f86a 2ad5f86f 2ad5f880 2ad5fc0d 2ad5fc14 2ad5fc21 2ad5fe1b 2ad873bb 2ad873e3 2ad8a6b2 2ad9086e 2ad93096 2ad9bbb2 2ada152c 2ada1554 2ada3332 2ada5522 2adf3130 2adf313c 2adf3a3f 2adf3bd9 2adf5788 2adf7a8d 2ae07f6b 2ae0857a 2ae0857e 2ae08630 2ae08634 2ae08637 2ae08642 2ae0866f 2ae086e4 2ae086ec 2ae08717 2ae0871b 2aee0170 2aee1d38 2aee75f4 2aee7662 2aee85ca 2aee85e4 2aee8eef 2aee9a0a 2af70b84 2af74e8f 2b17d843 
aaaaac690ef0: 2aca598b 2acb111b 2acb175f 2acb1772 2acbfaf4 2acbfb00 2acf374f 2acf6d43 2acfa5c8 2ad3baf1 2ad3d4ac 2ad3d4b8 2ad3f1cf 2ad486b2 2ad5a59b 2ad5fc64 2ad5fcf9 2ad6121c 2ad906e9 2ad907bf 2ad9bada 2ada16ce 2ada1ad5 2ada43df 2ada64c0 2ada72ee 2adeb71a 2adf3bcb 2adf7a38 2adf7c6a 2adf8872 2adf8880 2adf9959 2adf9abe 2ae07f78 2ae08503 2ae08754 2ae12e80 2aea3bea 2aecb509 2aee00b0 2aee2bdd 2aee5467 2aee5601 2aee8f20 2af703fd 2af7048b 2af74e74 2dfba627 
Unique trigger count: 
1 9361
2 477
3 85
4 31
5 7
6 8
7 6
8 1
9 3
10 1
11 2
12 1
13 3
16 2
18 2
19 2
21 1
36 1
49 1
67 1
BTB PER SET UNIQUE ADDR: 1 2 2 2 0 0 1 1 3 0 2 0 1 1 0 1 2 1 1 2 0 1 1 2 1 2 1 2 1 1 2 2 2 0 2 0 0 3 4 0 1 2 2 3 1 0 2 1 4 1 1 1 2 0 0 2 3 3 1 1 1 2 2 2 0 4 4 0 2 2 5 1 1 2 1 1 2 6 1 1 1 1 1 4 3 1 1 4 3 2 3 3 2 3 2 0 1 3 0 1 3 2 2 3 1 2 1 1 3 0 1 1 3 2 1 3 1 2 1 0 2 2 2 0 1 1 1 1 2 2 3 0 1 0 2 1 0 0 1 2 2 2 2 0 0 0 1 3 3 2 1 5 1 2 1 0 0 2 1 1 0 0 0 1 2 2 0 1 5 1 1 2 2 1 1 0 1 1 3 1 1 2 5 2 2 2 2 0 1 1 4 1 1 2 1 1 1 1 0 1 2 1 1 0 0 0 1 0 0 0 0 2 2 1 2 1 0 2 1 0 0 0 1 2 2 0 2 2 0 2 5 2 1 1 1 2 2 0 1 1 1 0 1 1 5 2 1 1 2 1 1 1 1 1 0 4 2 2 2 2 3 3 2 2 2 4 3 0 2 1 2 2 1 2 2 2 1 0 3 2 2 2 1 1 2 3 2 1 1 1 0 0 1 2 0 1 3 2 0 1 2 2 1 1 2 2 3 2 3 3 2 1 2 2 3 0 2 2 1 1 1 1 2 2 0 2 1 3 0 0 3 0 2 2 3 1 1 2 4 0 2 0 0 1 1 2 1 1 0 2 1 2 2 2 2 2 1 0 3 0 0 2 1 2 3 2 1 0 0 0 2 1 2 0 1 2 2 1 2 3 0 0 1 3 0 0 2 1 2 1 1 2 2 2 2 0 3 0 0 2 3 1 3 1 1 0 2 3 0 1 0 1 1 1 1 0 3 1 1 2 1 1 2 2 1 3 0 0 1 3 1 0 5 2 3 3 2 1 0 0 0 4 3 3 2 1 1 3 1 1 3 0 0 0 3 0 1 3 2 1 3 0 3 2 0 0 1 0 1 3 0 1 1 1 2 1 0 1 0 0 0 1 1 2 0 2 2 0 2 1 2 1 1 2 0 3 1 1 3 0 3 0 0 1 0 2 1 0 0 2 3 2 2 2 2 0 1 3 1 4 1 1 3 1 3 2 0 3 3 1 4 1 2 2 1 4 0 0 3 0 0 4 3 0 5 1 5 3 4 4 1 3 2 3 0 1 1 0 0 1 7 0 1 2 1 0 0 1 2 4 4 0 1 5 2 0 0 1 0 0 0 1 0 0 1 0 0 4 2 2 2 3 0 1 1 2 2 0 0 1 0 0 1 3 1 1 1 1 3 0 2 1 3 1 2 0 2 0 2 1 3 1 3 0 2 1 1 2 1 0 3 1 0 1 2 1 0 0 1 1 4 1 3 2 0 0 1 0 2 0 1 1 3 1 1 0 3 0 1 3 2 2 3 3 2 1 1 1 0 0 4 1 1 0 4 2 0 1 3 2 1 0 1 2 2 1 1 2 2 1 0 2 1 1 1 3 3 3 2 1 0 2 0 2 1 1 0 1 0 0 1 2 0 1 2 0 1 1 0 2 1 0 1 1 0 1 1 1 0 3 2 2 1 0 1 1 4 1 1 0 1 2 1 2 1 0 2 1 1 2 0 0 1 2 0 1 2 3 1 0 1 1 0 2 0 1 3 1 0 1 2 2 0 0 1 2 3 1 1 1 2 1 0 0 3 3 3 3 0 0 1 3 0 0 2 3 3 1 1 0 2 2 1 2 1 1 1 4 0 2 0 2 1 0 2 1 1 0 0 3 3 0 1 0 2 1 1 1 1 4 1 1 2 1 3 0 1 0 3 2 0 1 0 1 0 1 3 2 2 0 2 0 3 1 2 2 0 0 1 0 0 0 0 1 4 1 1 0 2 0 1 1 1 2 1 0 2 1 3 1 2 1 1 0 0 0 1 2 0 0 2 0 1 2 1 1 4 0 1 1 1 0 0 1 1 3 0 1 0 4 3 3 0 0 1 2 0 0 1 2 3 1 3 1 2 0 3 0 2 1 3 1 4 2 2 1 1 1 0 1 1 1 0 3 2 2 1 2 1 1 1 0 4 1 1 0 4 2 2 1 2 1 2 2 2 4 8 2 2 2 1 1 0 2 2 1 3 4 1 2 3 2 1 3 1 1 1 1 2 1 3 1 1 2 2 1 2 2 1 4 0 1 2 1 2 3 3 2 0 1 2 0 3 0 1 2 3 2 1 3 3 1 7 4 0 2 2 1 1 1 3 4 2 1 3 0 0 1 1 0 2 0 1 3 0 2 4 1 3 3 0 1 3 2 1 3 2 1 2 1 0 1 2 0 2 0 1 2 3 3 1 4 3 2 0 1 7 0 1 1 1 1 2 2 1 4 3 3 3 3 1 4 2 2 1 0 4 0 1 2 1 5 1 0 4 1 1 1 2 1 1 2 3 3 2 2 2 1 1 3 4 2 1 2 1 1 3 2 1 4 1 2 2 1 3 3 0 1 4 1 0 2 1 0 1 2 1 1 1 2 1 3 2 0 1 1 3 2 1 0 2 0 0 3 2 1 2 2 1 4 0 1 4 0 3 1 1 2 2 4 2 4 0 6 4 0 2 1 2 0 0 1 3 0 1 1 2 4 1 0 0 1 3 1 1 2 0 0 1 4 1 4 2 2 0 2 0 0 2 4 6 0 4 0 0 1 2 1 4 0 2 3 2 1 1 1 0 4 1 3 0 1 2 5 3 1 2 2 0 2 4 3 1 3 3 2 0 0 3 3 4 1 2 2 1 1 3 2 3 1 1 1 1 1 5 3 4 0 0 2 1 1 2 1 3 0 0 1 2 3 2 0 3 1 1 0 1 1 5 0 1 1 0 4 2 0 2 1 3 2 1 1 2 1 2 2 0 3 2 1 0 3 1 1 2 2 1 1 0 2 1 1 1 2 1 2 3 1 1 2 0 1 3 0 2 2 0 1 1 1 2 2 1 0 2 0 1 1 2 2 1 1 1 1 1 4 1 3 2 1 2 0 1 1 1 3 1 2 1 1 1 2 0 1 3 2 3 1 4 2 1 0 1 2 3 1 1 1 3 0 5 2 1 3 1 0 3 3 1 1 1 3 0 2 2 1 1 1 2 1 0 1 1 4 2 1 2 1 0 2 1 0 1 2 1 1 1 0 0 2 0 0 1 1 0 2 1 3 4 1 1 0 1 1 1 0 1 0 0 3 1 0 1 0 0 1 1 0 0 0 0 0 0 0 0 0 1 0 2 0 1 0 1 0 1 0 0 4 1 0 1 1 3 1 1 0 1 2 1 0 2 0 1 1 1 1 1 0 2 0 3 1 0 1 3 0 0 1 0 2 1 2 1 1 2 2 2 2 0 1 1 0 0 0 3 0 1 1 0 0 0 1 0 1 1 0 1 2 2 1 1 1 2 2 1 1 1 0 0 2 1 0 0 1 2 1 2 1 0 1 1 3 3 0 0 1 2 1 0 0 3 1 3 0 2 1 2 2 1 2 3 2 5 0 1 0 2 2 1 5 3 3 2 3 4 0 0 2 2 1 1 1 1 1 2 0 2 1 0 1 2 0 1 1 3 1 2 2 3 1 0 1 3 0 2 3 2 1 2 1 3 3 1 1 1 2 2 1 1 4 2 1 1 1 1 3 3 1 1 0 1 0 2 1 2 3 0 0 1 1 0 2 3 1 0 2 2 0 1 2 1 1 1 2 1 0 0 3 2 1 0 0 0 2 1 0 2 1 3 3 1 1 4 1 2 7 3 2 3 2 1 3 3 1 1 1 0 0 0 2 3 1 2 0 0 2 3 1 1 1 0 0 1 2 2 2 2 1 2 2 1 1 0 2 0 1 2 1 0 0 0 1 0 1 2 0 3 0 3 1 1 0 2 1 1 3 0 3 0 0 0 1 1 1 4 0 1 1 0 1 2 1 0 1 0 0 1 1 1 1 2 2 3 0 3 0 0 1 2 1 1 6 1 0 2 1 3 2 1 2 5 1 3 3 0 2 0 3 2 4 4 0 2 1 5 0 4 0 3 2 2 2 1 1 1 0 1 2 0 2 0 1 2 3 2 1 4 2 2 2 3 0 1 0 3 1 3 2 2 2 2 1 0 2 3 2 1 0 1 2 0 0 0 1 0 1 1 2 0 2 2 1 3 1 2 1 2 2 3 0 1 2 2 1 0 2 2 2 2 0 0 1 0 0 1 0 0 1 1 1 2 1 1 2 0 0 0 2 1 1 1 0 2 1 2 2 2 0 1 1 0 1 1 2 1 2 1 0 1 0 2 1 0 1 2 1 3 2 2 2 0 2 0 1 0 0 2 2 0 4 2 4 0 2 2 5 1 0 0 1 4 1 2 0 1 0 3 1 0 0 2 3 1 6 2 0 3 0 1 1 1 1 2 1 0 2 0 1 2 2 1 0 0 3 4 1 0 0 2 3 1 0 3 3 1 0 3 3 0 1 1 4 0 0 0 2 1 0 3 0 1 0 2 2 2 0 2 1 2 1 2 1 0 2 4 2 3 0 1 2 1 0 1 0 2 1 1 0 0 0 4 2 1 2 1 1 2 2 3 3 1 1 3 3 0 2 2 1 4 4 2 2 2 2 1 2 1 2 2 2 1 3 5 2 2 2 2 2 2 1 1 1 0 1 1 0 2 2 0 2 0 1 1 0 1 2 1 3 0 0 0 2 1 2 1 0 0 2 1 1 0 0 0 2 1 1 0 1 3 1 1 2 0 0 2 0 1 2 1 0 1 0 1 0 0 1 0 2 1 0 0 4 1 3 1 2 3 1 2 2 0 0 0 1 1 0 4 2 2 2 3 1 3 2 2 1 2 1 3 1 1 2 1 4 1 2 1 1 2 3 2 3 1 0 3 1 2 1 3 5 4 3 2 1 2 1 3 0 1 0 2 1 0 1 2 3 2 0 2 1 1 1 2 3 1 1 1 2 1 2 2 2 3 3 1 2 3 4 1 1 3 1 3 3 1 4 2 1 2 2 3 3 1 1 3 3 3 0 1 1 1 1 1 2 1 1 0 1 3 1 2 0 2 1 1 2 0 1 0 0 4 2 4 5 0 0 1 2 1 1 0 2 2 2 1 2 2 1 1 1 2 0 1 2 0 1 2 1 1 0 1 1 2 0 0 1 0 1 2 0 5 1 3 2 1 2 0 0 0 3 0 3 1 0 2 1 1 1 1 1 0 1 1 0 1 0 3 2 1 0 1 0 2 1 4 4 1 1 2 5 1 2 2 0 0 3 1 1 1 0 0 3 2 1 1 0 1 0 1 0 1 3 3 0 0 1 3 1 2 3 2 1 3 1 1 0 1 1 2 2 1 2 3 3 0 1 2 1 0 1 0 4 3 2 1 2 1 1 5 3 0 2 3 2 3 1 2 0 4 2 2 0 1 1 2 0 1 1 1 1 1 1 1 4 2 0 1 0 1 2 4 2 1 2 2 2 0 1 0 0 1 2 2 0 2 0 1 1 1 2 4 1 2 2 1 2 3 0 2 0 2 1 2 5 1 1 2 1 1 3 1 1 2 1 0 1 5 1 0 3 1 4 1 3 3 2 2 0 0 3 3 1 0 0 4 4 1 1 2 0 1 0 0 2 1 0 3 0 2 1 2 2 0 3 2 2 0 1 2 1 1 0 1 0 1 2 2 1 0 0 0 4 0 1 1 2 3 1 2 4 1 1 3 3 0 3 3 2 0 2 1 4 2 0 1 1 1 1 2 1 3 2 0 1 2 0 2 5 2 3 1 3 1 2 2 1 2 2 1 2 4 0 1 1 4 1 0 3 0 2 2 3 1 2 3 2 1 5 4 1 1 0 0 0 0 5 3 1 3 4 1 0 1 1 2 2 2 0 3 2 3 3 1 3 2 3 0 2 3 1 0 1 0 2 0 0 1 0 2 2 3 2 0 2 1 3 1 3 2 3 3 1 3 1 2 3 1 1 3 0 1 1 0 0 2 3 1 3 2 1 2 1 2 0 1 3 1 0 3 0 2 1 4 3 4 1 1 4 1 2 3 4 1 4 3 2 0 1 2 2 3 0 3 2 4 1 2 2 1 2 1 1 1 0 3 1 3 2 0 4 0 1 2 1 3 0 3 1 2 1 3 0 0 1 6 1 0 1 1 0 0 0 1 0 0 3 2 1 3 2 1 1 1 3 0 2 1 2 0 1 1 2 1 1 1 1 1 0 0 2 0 1 2 1 0 3 3 1 2 2 1 3 4 3 5 1 2 2 2 1 0 3 2 2 2 1 0 2 1 3 0 3 5 3 0 0 0 2 1 1 1 1 2 4 4 1 1 2 3 1 3 1 3 2 2 1 1 0 1 1 3 0 2 2 0 2 0 1 1 2 3 2 0 0 1 1 3 0 2 0 1 1 2 2 1 1 2 0 2 0 3 2 1 3 3 2 2 2 4 2 2 3 2 3 3 2 3 4 2 6 2 0 5 2 1 4 3 3 0 2 2 4 3 0 0 1 2 3 1 4 2 4 5 3 1 0 2 4 2 2 2 1 2 0 2 3 0 0 4 2 1 2 3 2 3 4 3 0 2 1 0 3 0 3 0 0 4 0 2 3 2 2 2 1 0 2 3 5 1 3 4 5 3 3 5 3 1 4 3 1 0 1 2 3 4 3 2 1 5 0 1 3 1 3 2 3 2 1 0 1 2 3 0 1 1 2 4 1 1 2 0 2 3 0 3 1 0 1 3 3 2 1 1 0 1 1 1 1 2 3 1 5 2 2 2 3 2 1 1 1 2 1 0 2 1 1 2 1 3 2 1 3 4 0 2 0 1 0 2 1 2 1 2 1 1 1 1 2 1 3 4 1 0 2 3 1 2 1 1 2 3 1 1 2 1 4 1 3 0 2 0 1 2 1 0 0 1 1 3 0 0 1 2 1 2 1 0 2 1 4 2 1 2 0 3 1 1 3 0 1 3 3 2 2 0 2 2 2 1 1 0 0 0 1 1 0 3 2 2 2 3 1 3 3 5 1 1 3 4 1 2 4 2 2 4 0 3 1 3 2 2 1 3 2 3 4 1 2 4 4 2 2 2 0 1 1 0 4 1 1 1 1 2 2 1 1 4 0 1 2 2 1 4 0 4 1 2 2 1 1 3 1 1 3 1 2 1 2 1 2 2 3 1 2 2 3 0 4 1 1 3 2 2 1 4 0 3 2 1 1 1 4 1 0 1 0 1 1 2 0 1 2 2 1 2 3 1 1 1 0 2 3 0 3 3 2 0 2 2 0 2 0 1 3 3 1 1 1 1 0 2 0 0 1 4 1 2 1 1 3 2 1 2 0 2 1 3 4 6 1 1 3 3 3 1 1 0 2 2 2 0 0 3 2 1 2 2 2 0 3 1 1 1 5 1 3 3 4 0 1 3 1 1 1 3 1 4 5 1 3 0 2 3 4 1 4 1 5 3 1 1 1 1 2 2 2 1 2 3 3 5 2 3 2 3 2 3 2 1 4 3 3 1 1 2 1 3 1 1 1 4 2 2 0 2 0 0 1 3 7 2 1 1 2 2 2 2 2 2 1 1 1 1 2 3 1 3 1 3 3 1 0 1 2 0 1 0 3 0 4 4 0 0 1 3 1 2 2 4 0 3 3 1 3 1 3 0 1 2 2 1 1 2 1 3 0 0 0 3 1 1 3 3 4 2 4 2 1 2 0 1 0 2 0 3 1 2 1 0 4 0 1 0 1 1 2 3 0 3 2 3 0 2 0 4 1 0 1 3 1 0 2 1 2 1 0 2 2 0 2 1 2 1 2 5 2 3 2 2 3 2 3 2 1 2 0 2 2 2 3 2 1 2 0 2 0 2 2 2 3 1 3 1 1 2 0 3 2 5 0 0 2 1 2 3 3 1 2 3 0 0 1 2 0 0 2 1 3 2 2 1 0 2 2 1 3 1 3 0 2 1 2 4 0 0 0 1 2 2 1 0 3 1 1 2 2 1 2 0 4 1 2 2 0 2 0 3 2 3 2 1 2 0 2 0 2 1 1 2 0 2 2 0 2 1 0 3 2 1 6 3 2 2 1 2 0 1 3 2 1 0 0 1 1 1 0 2 2 2 3 2 0 3 1 4 2 3 0 0 4 0 1 4 3 0 4 1 2 2 3 2 2 0 1 0 3 2 1 0 3 1 2 2 2 3 1 3 0 1 4 2 3 1 1 2 2 4 1 2 2 1 5 2 1 1 0 2 2 3 2 1 2 2 0 0 3 1 2 2 1 1 0 1 4 0 2 1 2 3 1 2 2 4 0 3 1 1 0 4 1 3 3 5 1 1 4 0 3 2 3 4 4 1 3 0 2 3 0 2 2 1 2 2 2 1 2 0 3 1 2 1 2 1 2 0 2 2 1 1 2 0 3 3 2 1 1 2 6 0 3 1 2 2 2 1 3 1 4 1 3 1 3 2 2 2 1 3 0 2 4 0 6 0 5 2 1 1 2 1 0 2 1 2 2 3 3 2 2 2 0 2 3 2 1 2 2 0 2 0 3 5 2 1 3 4 1 2 1 4 1 1 1 2 3 0 1 2 0 0 2 1 0 2 0 1 1 1 1 1 2 0 3 1 3 3 2 0 1 0 2 1 1 2 1 0 0 0 1 2 2 2 2 1 1 1 1 0 1 0 2 2 3 0 1 1 0 1 1 0 1 1 2 1 1 1 0 3 1 0 2 1 0 0 1 2 2 2 2 2 1 1 1 2 4 0 2 1 3 2 1 0 0 2 0 0 1 2 2 2 2 2 4 3 1 1 2 1 2 0 2 2 0 1 1 2 1 3 1 3 1 1 1 4 1 2 2 2 1 2 7 1 1 5 4 2 2 2 0 2 4 2 2 4 0 3 0 0 2 2 2 2 3 1 1 2 1 2 5 4 0 0 3 1 0 0 1 0 0 2 2 1 1 2 1 3 0 2 1 0 0 2 1 2 2 5 2 1 2 1 3 1 1 1 4 4 0 0 2 0 3 0 0 0 0 3 3 3 2 0 0 3 1 1 0 1 1 1 2 1 1 2 1 2 3 2 1 1 5 1 2 2 1 2 0 1 2 2 1 2 1 1 0 1 1 3 1 3 2 2 1 1 1 1 2 1 0 
BTB PER SET COUNT: 1 2 2 2 0 0 2 1 2570 0 2 0 1 1 0 1 2 1 1 2 0 1 1 2 1 2 1 2 1477 1 2 2 2 0 2 0 0 1641 3367 0 1 3 2 503 1 0 2 1 3965 1 1 1 2 0 0 2 1642 4431 1 1 1 2 2 2 0 1993 1862 0 2 2 5443 1 1 2 1 1 468 2737 1 1 1 2 1 1646 744 1 1 26 4431 2 649 553 2 3034 2 0 1 14 0 1 13 2 3 932 1 2 1 1 1396 0 1 1 932 2 1 752 1 2 1 0 2 2 2 0 1 1 1 1 2 2 1397 0 1 0 2 1 0 0 1 2 2 2 2 0 0 0 1 3036 1397 2 1 5310 1 2 1 0 0 2 1 1 0 0 0 1 2 2 0 1 4978 1 1 2 2 1 1 0 1 1 1021 1 1 2 7384 2 2 2 2 0 1 1 4443 1 1 2 1 2 1 1 0 1 2 1 1 0 0 0 1 0 0 0 0 2 2 1 2 1 0 3 1 0 0 0 1 2 2 0 2 41 0 2 2274 3 1 1 1 2 2 0 1 1 2 0 1 1 5441 3 1 1 2 1 1 1 1 1 0 3500 2 2 2 2 1047 1395 2 2 2 3966 932 0 2 1 2 2 1 2 2 3 1 0 3035 2 2 2 1 1 2 1861 2 1 1 1 0 0 1 2 0 1 14 2 0 1 2 2 1 1 2 2 21 2 1396 932 2 1 2 2 932 0 2 2 1 1 1 1 2 2 0 2 1 15 0 0 1397 0 2 2 2926 1 931 2 941 0 2 0 0 931 931 2 1 1 0 2 1 2 2 2 2 2 1 0 2955 0 0 2 1 2 1379 2 1 0 0 0 2 1 2 0 1 2 2 1 2 14 0 0 1 1640 0 0 2 1 2 1 1 2 2 2 2 0 3035 0 0 2 1396 1 4 1 1 0 1478 6 0 1012 0 1 1 2 1 0 14 1 1 85 1 1 2 2 1 12 0 0 1 1396 1 0 1863 2 749 1398 2 1 0 0 0 943 1397 4 2 1 1 5 1 1 1396 0 0 0 1397 0 1 5 2 1 12 0 1396 2 0 0 1 0 1 26 0 1 1 465 2 1 0 1 0 0 0 1 1 466 0 2 2 0 2 1 2 1 1 2 0 4 1 1 5 0 932 0 0 1 0 2 1 0 0 2 1395 2 2 2 3 0 1 4430 1 1401 1 1 932 1 5 2 0 6 3039 1 4310 1 3 2 1 5442 0 0 10 0 0 1862 2954 0 3425 1 971 14 3043 4895 1 1397 4 1398 0 1 2 0 0 1 7849 0 1 2 1 0 0 1 2 1425 4431 0 1 3965 2 0 0 1 0 0 0 1 0 0 1 0 0 940 2 2 2 7 0 1 1012 2 2 0 0 1 0 0 1 1640 1 1 1 1 3 0 2 1 4 1 2 0 1095 0 2 2 14 1 1398 0 2 1 1 2 1 0 3500 1 0 3 3 1 0 0 1 2 1862 1 3035 2 0 0 2 0 2 0 1 1 1397 1 1 0 3036 0 1 1395 7684 2 10 932 2 1 1 931 0 0 1647 1 1 0 1861 932 0 1 17 2 1 0 1 932 2 1 1 1478 2 1 0 932 1 1 1 1396 1396 1396 3 1 0 2 0 2 1 931 0 1 0 0 1 2 0 1 932 0 1477 1 0 2 1 0 1 1 0 1 1 1 0 21 2 2 1012 0 1 1 4896 1 1 0 1 2 1 2 1 0 2 1 1 932 0 0 1 3 0 1 2 1396 1 0 1 1 0 2 0 1 1397 1 0 1 2 2 0 0 1 2 2572 2 1 1 2 2 0 0 1056 3036 11 11 0 0 1 1061 0 0 2 14 1056 1 1 0 2 2 1 2 1 1 1 946 0 4 0 2 1 0 3 1 3 0 0 334 14 0 1 0 3 1 1 2 1 1861 1 1 2 1 1397 0 1 0 1397 2 0 1 0 1 0 1 932 2 2 0 2 0 1398 1 2 2 0 0 1 0 0 0 0 1 2321 1 1 0 2 0 1 1 1 5 1 0 3 1 4431 1 2 1 1 0 0 0 1 2 0 0 3 0 1 3 1 1 1403 0 1 1 1 0 0 1 1 3035 0 1 0 3833 33 932 0 0 1 2 0 0 1 2 32 1 2025 1 2 0 936 0 2 1 12 1 1647 548 2 1 53 3 0 1 1 1 0 1943 2 2 1 2 1 1 1 0 3129 1 1 0 2339 5 2 1 2 466 2 2 4 674 5794 2 2 2 1 1 0 354 2 1 3035 2947 1 2 1397 3 2 506 1 3 1 1 2 1 932 2 1 2 2 1 2 2 1 1401 0 1 2 1 2 14 1397 2 0 1 1863 0 3582 0 1 3 13 3 1 13 998 1 6460 18 0 2 2 1 1 1 11 1863 2 1 1396 0 0 1 1 0 2 0 1 934 0 2 13 1 2568 14 0 1 705 2 1 363 2 3 5 3 0 1 5 0 4 0 1 2 1397 9 1 1861 932 2 0 1 8398 0 1 1 1 1 2 2 1 4975 5 14 4 4430 1 18 2 2 1 0 18 0 1 2 1 4433 1 0 251 1 1 1 469 1 1 2 1397 11 2 2 2 1 2 14 2785 3 1 2 1 1 14 2 1 5443 1 2 2 1 5 9 0 1 13 1 0 2 1 0 1 3 2 1 1 2 1 14 2 0 1 1 1094 2 1 0 2 0 0 4431 2 1 2 2 1 18 0 1 3965 0 1397 1 1 2 2 3500 2 4430 0 5906 4977 0 2 1 2 0 0 1 3501 0 1 1 2 1190 1 0 0 466 3040 1 1 2 0 0 1 4430 1 3045 2 2 0 2 0 0 2 1403 5456 0 1405 0 0 1 2 4 18 0 2 939 2 1 1 2 0 3045 1 932 0 1 2 6373 14 1 2 2 0 2 1400 3424 1 4431 5 2 0 0 13 3035 1862 1 2 2 1 1 3034 2 12 1 1 1 1 1 7932 932 4976 0 0 2 1 1 2 1 932 0 0 1 2 1486 2 0 14 1 1 0 1 1 1869 0 1 1 0 1400 2 0 2 1 4430 4 1 1 2 1 2 2 0 3036 2 1 0 1397 1 1 2 4 1 1 0 2 1 1 1 2 1 2 1304 1 1 3 0 1 8 0 2 2 0 1 1 1 2 2 3 0 2 0 1 1 2 2 3 1 1 1 1 2536 1 278 2 1 2 0 1 1 1 4431 1 2 1 1 1 2 0 1 1397 2 12 1 17 2 1 0 1 2 931 1 1 1 14 0 3590 2 1 1395 1 0 1395 1050 2 1 1 1396 0 2 2 3 1 2 2 3 0 2 1 15 2 1 3 1 0 2 1477 0 1 1365 2 1 1 0 0 2 0 0 1 1364 0 2 1 1397 1400 1 1 0 1 1 1 0 1 0 0 932 3 0 1 0 0 1 1 0 0 0 0 0 0 0 0 0 1 0 2 0 1 0 1 0 1 0 0 4435 26 0 1 1 3501 1 1 0 1 3 118 0 5 0 1 1 1 1 1 0 2 0 1255 356 0 1 2570 0 0 1 0 2 1 2 1 1 33 2 2 2 0 1 1 0 0 0 10 0 1 1 0 0 0 1 0 1 1 0 1 450 2 1 1 1 2 2 1 3 1 0 0 2 1 0 0 1 2 1 12 1 0 1 1 23 1396 0 0 1 2 1 0 0 752 1 1396 0 2 1 2 2 1 2 1397 2 4512 0 1 0 2 2 1 1867 1397 3034 2 1396 6455 0 0 2 1478 1 1 1 1 1 2 0 2 1012 0 1 3 0 1 1 3034 1 2 2 3035 2791 0 1 4431 0 2 13 2 1 2 1 1396 3034 1 1 1 293 2 1 1 2963 2 1 6 1 1 4430 14 1 1 0 2 0 2 1 2 932 0 0 1 1 0 2 14 1 0 2 2 0 1 3 1 1 930 2 1 0 0 1390 2 931 0 0 0 4 466 0 2 1 932 4 2 1 5573 1 2 7389 217 2 16794 931 1 2570 5 1 1 1 0 0 0 2 3035 1 2 0 0 2 752 1 175 1 0 0 1 1478 180 2 2 1 2 2 2 830 0 2 0 1 2 1 0 0 0 648 0 1 2 0 1397 0 932 1 1 0 2 1 1 1641 0 1397 0 0 0 1 1 1 4896 0 1 546 0 1 2 1 0 1 0 0 1012 1 1 1 3 2 4431 0 14 0 0 1 2 1477 1 2740 1 0 2 1 1087 2 1 2 2274 1 1522 1395 0 2 0 1397 212 3966 1448 0 2 1 4843 0 4936 0 399 1478 2 2 1 1 1 0 1 2 0 2 0 1 3 1651 2 1 2497 383 2 4 1513 0 1 0 508 1 1397 2 2 2 2 1 0 2 4471 2 1 0 1 2 0 0 0 1 0 1 1 2 0 2 2 1 1397 2 2 1 2 2 4 0 1 3 2 1 0 2 2 2 2 0 0 1 0 0 1 0 0 1 1 1 2 1 1 2 0 0 0 2 1 1 1 0 4 1 2 2 122 0 1 3 0 1 1 2 1 2 1 0 1 0 2 1 0 1 2 1 8 2 2 2 0 2 0 1 0 0 2 2 0 1862 1479 1401 0 2 2 2312 1 0 0 1 25 1 2 0 1 0 1396 1 0 0 2 12 6 4895 2 0 3033 0 1 1 1 1 2 1 0 2 0 1 2 2 1 0 0 1396 4431 1 0 0 2 1396 1 0 1396 1396 1 0 1396 13 0 1 1 1402 0 0 0 2 1 0 1395 0 1 0 2 2 2 0 2 1 224 1 2 1 0 2 1538 3 9 0 1 2 1 0 1 0 2 1 1 0 0 0 1861 2 2 2 1 1 2 1478 4430 14 1 1 12 12 0 2 2 1 1864 19 2 2 3 2 2952 2 1 2 2 2 1 1396 6922 2 2 2 3 2 2 1 1 1 0 1 1 0 2 2 0 2 0 1 1 0 1 2 1 963 0 0 0 2 1 2 1 0 0 2 1 1 0 0 0 2 1 1 0 1 1396 1 1 2 0 0 2 0 1 2 1 0 2 0 1 0 0 1 0 2 1 0 0 4430 1 1398 1 2 206 1 2 2 0 0 0 1 1 0 4747 3 2 2 4 1 932 2 2 1 2 1 948 1 1 2 1 503 1 2 1 1 2 1283 2 1398 1 0 1397 1 2 1 1397 3334 2059 1641 2 2024 2 1 3036 0 1 0 2 1 0 1 2 1397 2 0 2 1 1 1 2 5 1 1 1 2 1 2 2 2 1397 14 1 2 3 2573 2 1 5 1 3037 998 1 3665 2 1 2 2 13 5 1 1 3 430 5 0 1 1 1 1 1 2 1 1 0 1 2955 1 2 0 2 1 1 2 0 1 0 0 1863 2 2785 2203 0 0 1 2 1 1 0 2 2 2 1 2 2 1 1 1 2 0 1477 2 0 1 2 1 1 0 1 1 2 0 0 1 0 1 2 0 1865 1 1641 2 1 2 0 0 0 932 0 3034 1 0 5 1 1 1 1 1 0 1 1 0 1 0 8 2 1 0 1 0 2 2 1400 757 1 4 2 3000 2 2 2 0 0 429 1 1 1 0 0 503 2 1 1 0 1 0 1 0 1 1396 13 0 0 1 1095 1 2 504 2 1 1397 2 1 0 1 1 2 2 1 2 752 949 0 1 2 1 0 1 0 1182 1372 2 1 2 1 1 1405 1396 0 2 15 2 15 1 4 0 757 2 2 0 1 1 1479 0 1 1 1 1 1 1 1 1300 2 0 1 0 1 2 1862 2 1012 2 135 2 0 1 0 0 1 2 2 0 4 0 1 2 133 2 20 1 2 2 1 2 1397 0 2 0 2 1 3 1651 1 1 2 1 1 932 1 1 2 1 0 1 1407 2 0 932 1 1863 1 14 633 2 2 0 0 11 2979 1 0 0 1306 3583 1 1 2 0 1 0 0 2 1 0 13 0 2 1 2 2 0 15 2 3 0 1 2 14 1 0 1 0 1 2 2 2 0 0 0 18 0 1 1 2 10 1 2 1490 1 1 10 1397 0 1397 10 2 0 3 1 18 2 0 1 1 1 1 2 1 10 5 0 1 2 0 2 2788 3 14 1 927 1 2 2 1 2 2 1 2 1863 0 1 1 1401 1 0 1397 0 2 2 14 1 2 1640 2 1 4052 1861 36 1 0 0 0 0 2328 1640 1 1397 1862 1 0 1 1 2 2 2 0 12 4 1640 751 1 15 2 932 0 2 1397 1 0 1 0 3 0 0 1 0 2 467 1397 2 0 2 1 6 1 3036 2 4430 1396 1 932 1 2 1397 1 1 14 0 2 1 0 0 2 13 1 9 2 1 2 1 2 0 1 932 1 0 10 0 2 1 1398 4 3896 1 1 934 1 2 14 1401 1 1524 1396 2 0 1 2 2 6 0 933 2 4433 1 2 2 1 4 1 1 1 0 14 2 8 25 0 1405 0 1 2 1 12 0 932 1 2 1 14 0 0 1 3434 1 0 1 1 0 0 0 1 0 0 8 2 1 3035 2 1 1 1 1373 0 2 1 2 0 1 1 2 1 1 466 1 1 0 0 2 0 1 2 1 0 3036 3034 2 2 2 1 14 1403 932 3049 1 3 2 3 1 0 1070 2 2 2 1 0 2 1 10 0 3035 4903 14 0 0 0 2 1 1 1 1 2 3257 2035 1 1 2 10 3 14 3 1870 2 2 1 1 0 1 1 12 0 2 4 0 2 0 1 1 2 932 2 0 0 1 1 1396 0 2 0 2 1 5 3 1 1 2 0 2 0 3036 1482 1 503 946 2 2 2 2793 2 2 10 2 4 14 2 1397 5905 2 6919 2 0 3592 1013 1 4896 932 1368 0 2 2 4056 3035 0 0 1 2 2024 1 5442 2 3578 2362 1397 1 0 2 2112 2 2 4 1 2 0 2 1397 0 0 1862 2 1 62 500 2 24 2320 1641 0 2 1 0 3036 0 1397 0 0 4429 0 2 1396 3 2 3 1 0 2 1397 1869 1 1399 3965 3000 1396 1395 2577 752 2 1862 1094 1 0 1 2 1397 1405 1396 2 1 4978 0 1 1149 1 932 2 1396 2 2 0 1 2 3036 0 1 2 2 4893 1 1 2 0 2 1397 0 3034 1 0 1 11 931 467 1 1 0 1 1 1 1 2 11 1 2327 2 2 2 1395 2 1 1 1 2 1 0 2 1 1 2 1 933 2 1 1058 3250 0 2 0 1 0 2 1 2 1 2 1 1 1 1 2 1 13 940 1 0 2 14 1 2 3 1 2 11 1 1 2 1 1861 1 2571 0 2 0 1 1478 1 0 0 1 1 932 0 0 1 2 1 2 1 0 2 1 1862 2 1 2 0 932 1 1 1396 0 1 1396 116 2 2 0 2 2 2 1 1 0 0 0 1 1 0 934 2 2 2 1396 1 1396 932 1866 1 1 3034 942 1 2 1862 2 2 1400 0 1397 1 933 2 2 1 933 2 932 2102 1 2 4430 1862 2 2 2 0 1 1 0 4896 1 1 1 1 2 2 1 2 5091 0 1 2 2 1 23 0 4420 1 2 2 1 1 11 1 1 1979 3 2 1 3 1 2 2 932 1 2 2 1397 0 1489 1 1 308 2 2 1 3501 0 14 2 1 1 1 1863 1 0 1 0 1 1 2 0 1 2 2 1 2 11 1 1 1 0 2 8 0 1397 14 2 0 2 2 0 2 0 1 14 14 1 1 1 1 0 2 0 0 1 316 2 2 1 1 1396 2 1 2 0 2 1 4406 3930 6837 1 1 3501 3014 1397 1 1 0 2 2 2 0 0 1398 2 1 2 2 2 0 3035 1 1 1 5529 1 14 12 1499 0 1 1395 1 1 1 1396 1 1862 4895 1012 3037 0 2 1398 2112 1 1862 1 2326 932 1 1 1 1 2 5 2 1 2 5 931 1421 2 1396 2 533 2 1396 8 1 1471 1396 933 1 1 2 1 1396 2 1 1 941 2 2 0 2 0 0 1 1396 6839 2 1 1 2 2 2 2 2 2 1 1 1 1 2 8 1 8 1 1395 932 1 0 1 2 0 1 0 102 0 755 1861 0 0 1 1397 1012 2 2 4895 0 932 968 1 932 1 932 0 1 2 2 1 2 2 2 1396 0 0 0 1105 1 1 1398 1396 3502 2 4054 2 1 2 0 1 0 2 0 1396 1 2 1 0 4047 0 1 0 1 1 3 584 0 1396 2 3 0 2 0 3500 1 0 1 14 1 0 2 1 2 1 0 2 2 0 2 1 2 1 2 3966 2 4430 5 2 4430 2 751 2 1 2 0 3 2 2 1942 2 1 2 0 3 0 2 2 2 755 1 1396 931 1 8 0 933 2 3420 0 0 2 1 2 14 14 1 2 21609 0 0 1 2 0 0 2 1 105 255 2 1 0 2 2 1 2570 1 1397 0 3 1 2 1862 0 0 0 1 2 2 1 0 29 1 1 2 2 1 2 0 4509 1 2 2 0 2 0 1396 2 1396 2 1 2 0 2 0 2 1 1 2 0 2 2 0 2 1 0 1640 2 1 3465 1396 2 2 1 2 0 1 1384 1013 1 0 0 1 1 1 0 2 2 2 14 2 0 1095 1 1647 2 3033 0 0 1861 0 1 2627 932 0 1861 1 2 3 1396 2 2 0 1 0 1396 3 1 0 932 1 2 3 4 931 1 11 0 1 1748 2 1615 1 1 2 2 4430 1 2 2 1 4053 2 1 353 0 1478 2 11 231 1 2 4 0 0 14 1 2 2 1 1 0 1 1102 0 2 1 3 932 1 467 2 3885 0 2955 2 1 0 3965 1 3885 931 2793 1 1 4431 0 933 2 933 1862 1862 1 4429 0 2 1397 0 467 2 1 2 2 2 1 2 0 1397 1 354 1477 2 1 2 0 2 2 1 1 2 0 1395 1944 2 1 1 2 4431 0 2409 1 2 2 2 1 932 1 1748 1 1396 1 1396 2 2 2 1 1397 0 2 1862 0 6453 0 2816 2 1 1 2 1 0 2 1 2 2 1397 2571 2 2 2 0 2 1398 2 1 2 2 0 2 0 502 4510 1013 1 1397 2953 1 3 1 1647 1 1 1 2 1390 0 1 2 0 0 2 1 0 2 0 1 1 1 1 1 4 0 2570 1 1396 1397 2 0 1 0 2 1 1 3 1 0 0 0 1 2 2 2 2 1 2 1 547 0 1 0 2 2 932 0 1 1 0 1 1 0 1 1 2 1 1 1 0 108 1 0 2 1 0 0 1 2 2 2 2 2 1 2 1 2 1644 0 2 1 3036 2 1 0 0 2 0 0 1 2 2 2 932 2 3499 1396 1 1 2 1 2 0 2 3 0 1 1 2 1 3036 7 1395 1 1 1 2327 1 2 2 2 1 2 4594 2 1 2112 1398 2 2 2 0 2 2870 2 2 1239 0 2747 0 0 2 2 932 3 825 1 1 2 1 2 1915 933 0 0 3035 1 0 0 1 0 0 2 2 1 1 2 1 931 0 2 1 0 0 2 1 2 2 2774 2 1 2 1 1862 1 1 1 934 935 0 0 2 0 931 0 0 0 0 932 4430 10 2 0 0 752 1 1 0 1 1 1 2 1 1 3 1 2 10 2 1 1 1866 1 2 2 1 2 0 1 2 2 1 2 1 1 0 1 1 4430 1 9 2 2 1 1 1 6 2 1 0 
