
*** ChampSim Multicore Out-of-Order Simulator ***

Warmup Instructions: 50000000
Simulation Instructions: 50000000
Number of CPUs: 1
LLC sets: 2048
LLC ways: 16
Off-chip DRAM Size: 4096 MB Channels: 1 Width: 64-bit Data Rate: 6400 MT/s
CPU 0 runs ./micro_traces/srv109.trace.gz
.gz
ITLB has LRU replacement policy
DTLB has LRU replacement policy
STLB has LRU replacement policy
FDIP Prefetcher at L1I
L1I has LRU replacement policy
L1D has LRU replacement policy
Initialize SRRIP state for L2C
Initialize DRRIP state for LLC
Heartbeat_Variant_0 : 1269 0.309814 per_variant_size: 0 1269 0 0 0 0 0 0 0 
Heartbeat_Variant_1 : 1169 0.2854 per_variant_size: 0 561 608 0 0 0 0 0 0 
Heartbeat_Variant_2 : 931 0.227295 per_variant_size: 0 478 294 114 45 0 0 0 0 
Heartbeat_Variant_3 : 710 0.17334 per_variant_size: 0 465 184 42 15 4 0 0 0 
Heartbeat_Variant_0_evicts 0 : 7490 1 : 2006 2 : 1588 3 : 1218 
Heartbeat_Variant_1_evicts 0 : 2014 1 : 0 2 : 1487 3 : 1370 
Heartbeat_Variant_2_evicts 0 : 1552 1 : 1517 2 : 0 3 : 922 
Heartbeat_Variant_3_evicts 0 : 1200 1 : 1343 2 : 946 3 : 0 
Heartbeat CPU 0 instructions: 10000001 cycles: 2797514 heartbeat IPC: 3.5746 cumulative IPC: 3.5746 (Simulation time: 0 hr 2 min 0 sec) 
Heartbeat_Variant_0 : 1269 0.309814 per_variant_size: 0 1269 0 0 0 0 0 0 0 
Heartbeat_Variant_1 : 1163 0.283936 per_variant_size: 0 578 585 0 0 0 0 0 0 
Heartbeat_Variant_2 : 943 0.230225 per_variant_size: 0 523 271 104 45 0 0 0 0 
Heartbeat_Variant_3 : 710 0.17334 per_variant_size: 0 471 187 40 8 4 0 0 0 
Heartbeat_Variant_0_evicts 0 : 7104 1 : 1477 2 : 1077 3 : 864 
Heartbeat_Variant_1_evicts 0 : 1445 1 : 0 2 : 1104 3 : 975 
Heartbeat_Variant_2_evicts 0 : 1115 1 : 1065 2 : 0 3 : 634 
Heartbeat_Variant_3_evicts 0 : 858 1 : 988 2 : 622 3 : 0 
Heartbeat CPU 0 instructions: 20000003 cycles: 5593554 heartbeat IPC: 3.57649 cumulative IPC: 3.57554 (Simulation time: 0 hr 3 min 41 sec) 
Heartbeat_Variant_0 : 1259 0.307373 per_variant_size: 0 1259 0 0 0 0 0 0 0 
Heartbeat_Variant_1 : 1198 0.29248 per_variant_size: 0 579 619 0 0 0 0 0 0 
Heartbeat_Variant_2 : 928 0.226562 per_variant_size: 0 484 284 114 46 0 0 0 0 
Heartbeat_Variant_3 : 704 0.171875 per_variant_size: 0 455 192 45 10 2 0 0 0 
Heartbeat_Variant_0_evicts 0 : 7210 1 : 1642 2 : 1248 3 : 989 
Heartbeat_Variant_1_evicts 0 : 1627 1 : 0 2 : 1106 3 : 1083 
Heartbeat_Variant_2_evicts 0 : 1287 1 : 1073 2 : 0 3 : 698 
Heartbeat_Variant_3_evicts 0 : 975 1 : 1069 2 : 720 3 : 0 
Heartbeat CPU 0 instructions: 30000001 cycles: 8390771 heartbeat IPC: 3.57498 cumulative IPC: 3.57536 (Simulation time: 0 hr 5 min 20 sec) 
Heartbeat_Variant_0 : 1277 0.311768 per_variant_size: 0 1277 0 0 0 0 0 0 0 
Heartbeat_Variant_1 : 1166 0.284668 per_variant_size: 0 552 614 0 0 0 0 0 0 
Heartbeat_Variant_2 : 939 0.229248 per_variant_size: 0 497 275 121 46 0 0 0 0 
Heartbeat_Variant_3 : 707 0.172607 per_variant_size: 0 465 178 47 15 2 0 0 0 
Heartbeat_Variant_0_evicts 0 : 7126 1 : 1610 2 : 1234 3 : 926 
Heartbeat_Variant_1_evicts 0 : 1584 1 : 0 2 : 1127 3 : 1147 
Heartbeat_Variant_2_evicts 0 : 1220 1 : 1143 2 : 0 3 : 748 
Heartbeat_Variant_3_evicts 0 : 948 1 : 1137 2 : 739 3 : 0 
Heartbeat CPU 0 instructions: 40000001 cycles: 11187436 heartbeat IPC: 3.57569 cumulative IPC: 3.57544 (Simulation time: 0 hr 6 min 57 sec) 
Heartbeat_Variant_0 : 1267 0.309326 per_variant_size: 0 1267 0 0 0 0 0 0 0 
Heartbeat_Variant_1 : 1174 0.286621 per_variant_size: 0 580 594 0 0 0 0 0 0 
Heartbeat_Variant_2 : 929 0.226807 per_variant_size: 0 496 277 108 48 0 0 0 0 
Heartbeat_Variant_3 : 719 0.175537 per_variant_size: 0 485 171 52 10 1 0 0 0 
Heartbeat_Variant_0_evicts 0 : 7002 1 : 1443 2 : 1068 3 : 822 
Heartbeat_Variant_1_evicts 0 : 1449 1 : 0 2 : 1080 3 : 985 
Heartbeat_Variant_2_evicts 0 : 1067 1 : 1086 2 : 0 3 : 658 
Heartbeat_Variant_3_evicts 0 : 827 1 : 977 2 : 673 3 : 0 
Heartbeat CPU 0 instructions: 50000000 cycles: 13985053 heartbeat IPC: 3.57447 cumulative IPC: 3.57525 (Simulation time: 0 hr 8 min 37 sec) 

Warmup complete CPU 0 instructions: 50000004 cycles: 13985054 (Simulation time: 0 hr 8 min 37 sec) 

Cycle: 20000000 FTQ IN: 57845025 FTQ occupancy: 19.1523 DECODE IN: 57845025 DECODE occupancy: 49.4206 ROB IN: 57845025 ROB occupancy: 300.09 ROB OUT: 57845005
Heartbeat_Variant_0 : 1271 0.310303 per_variant_size: 0 1271 0 0 0 0 0 0 0 
Heartbeat_Variant_1 : 1179 0.287842 per_variant_size: 0 577 602 0 0 0 0 0 0 
Heartbeat_Variant_2 : 935 0.228271 per_variant_size: 0 496 281 112 46 0 0 0 0 
Heartbeat_Variant_3 : 705 0.172119 per_variant_size: 0 453 192 47 12 1 0 0 0 
Heartbeat_Variant_0_evicts 0 : 7271 1 : 1623 2 : 1211 3 : 959 
Heartbeat_Variant_1_evicts 0 : 1622 1 : 0 2 : 1144 3 : 1140 
Heartbeat_Variant_2_evicts 0 : 1226 1 : 1160 2 : 0 3 : 746 
Heartbeat_Variant_3_evicts 0 : 941 1 : 1118 2 : 772 3 : 0 
Heartbeat CPU 0 instructions: 60000000 cycles: 21646751 heartbeat IPC: 1.30519 cumulative IPC: 1.30519 (Simulation time: 0 hr 10 min 17 sec) 
Heartbeat_Variant_0 : 1245 0.303955 per_variant_size: 0 1245 0 0 0 0 0 0 0 
Heartbeat_Variant_1 : 1186 0.289551 per_variant_size: 0 590 596 0 0 0 0 0 0 
Heartbeat_Variant_2 : 954 0.23291 per_variant_size: 0 524 277 110 43 0 0 0 0 
Heartbeat_Variant_3 : 705 0.172119 per_variant_size: 0 448 187 59 10 1 0 0 0 
Heartbeat_Variant_0_evicts 0 : 7052 1 : 1417 2 : 1103 3 : 821 
Heartbeat_Variant_1_evicts 0 : 1428 1 : 0 2 : 1021 3 : 993 
Heartbeat_Variant_2_evicts 0 : 1129 1 : 1017 2 : 0 3 : 652 
Heartbeat_Variant_3_evicts 0 : 810 1 : 1001 2 : 655 3 : 0 
Heartbeat CPU 0 instructions: 70000001 cycles: 29264962 heartbeat IPC: 1.31264 cumulative IPC: 1.30891 (Simulation time: 0 hr 11 min 58 sec) 
Cycle: 30000000 FTQ IN: 13118393 FTQ occupancy: 10.7249 DECODE IN: 13118325 DECODE occupancy: 26.1431 ROB IN: 13118321 ROB occupancy: 194.44 ROB OUT: 13118215
Heartbeat_Variant_0 : 1251 0.30542 per_variant_size: 0 1251 0 0 0 0 0 0 0 
Heartbeat_Variant_1 : 1173 0.286377 per_variant_size: 0 575 598 0 0 0 0 0 0 
Heartbeat_Variant_2 : 959 0.234131 per_variant_size: 0 549 270 92 48 0 0 0 0 
Heartbeat_Variant_3 : 707 0.172607 per_variant_size: 0 456 195 47 9 0 0 0 0 
Heartbeat_Variant_0_evicts 0 : 7416 1 : 1641 2 : 1284 3 : 995 
Heartbeat_Variant_1_evicts 0 : 1635 1 : 0 2 : 1253 3 : 1126 
Heartbeat_Variant_2_evicts 0 : 1265 1 : 1242 2 : 0 3 : 743 
Heartbeat_Variant_3_evicts 0 : 1014 1 : 1144 2 : 708 3 : 0 
Heartbeat CPU 0 instructions: 80000002 cycles: 36822333 heartbeat IPC: 1.32321 cumulative IPC: 1.31364 (Simulation time: 0 hr 13 min 30 sec) 
Cycle: 40000000 FTQ IN: 13293002 FTQ occupancy: 10.5672 DECODE IN: 13293070 DECODE occupancy: 25.7864 ROB IN: 13293074 ROB occupancy: 192.752 ROB OUT: 13293103
Heartbeat_Variant_0 : 1253 0.305908 per_variant_size: 0 1253 0 0 0 0 0 0 0 
Heartbeat_Variant_1 : 1177 0.287354 per_variant_size: 0 574 603 0 0 0 0 0 0 
Heartbeat_Variant_2 : 936 0.228516 per_variant_size: 0 508 268 115 45 0 0 0 0 
Heartbeat_Variant_3 : 724 0.176758 per_variant_size: 0 480 178 51 13 2 0 0 0 
Heartbeat_Variant_0_evicts 0 : 7000 1 : 1303 2 : 1094 3 : 809 
Heartbeat_Variant_1_evicts 0 : 1279 1 : 0 2 : 960 3 : 899 
Heartbeat_Variant_2_evicts 0 : 1086 1 : 938 2 : 0 3 : 564 
Heartbeat_Variant_3_evicts 0 : 839 1 : 893 2 : 557 3 : 0 
Heartbeat CPU 0 instructions: 90000003 cycles: 44393811 heartbeat IPC: 1.32075 cumulative IPC: 1.31541 (Simulation time: 0 hr 15 min 13 sec) 
Cycle: 50000000 FTQ IN: 13209478 FTQ occupancy: 10.9547 DECODE IN: 13209366 DECODE occupancy: 26.856 ROB IN: 13209306 ROB occupancy: 200.153 ROB OUT: 13209055
Heartbeat_Variant_0 : 1256 0.306641 per_variant_size: 0 1256 0 0 0 0 0 0 0 
Heartbeat_Variant_1 : 1179 0.287842 per_variant_size: 0 566 613 0 0 0 0 0 0 
Heartbeat_Variant_2 : 938 0.229004 per_variant_size: 0 500 282 110 46 0 0 0 0 
Heartbeat_Variant_3 : 717 0.175049 per_variant_size: 0 457 200 50 9 1 0 0 0 
Heartbeat_Variant_0_evicts 0 : 7214 1 : 1419 2 : 1100 3 : 831 
Heartbeat_Variant_1_evicts 0 : 1416 1 : 0 2 : 992 3 : 965 
Heartbeat_Variant_2_evicts 0 : 1111 1 : 971 2 : 0 3 : 591 
Heartbeat_Variant_3_evicts 0 : 820 1 : 981 2 : 579 3 : 0 
Heartbeat CPU 0 instructions: 100000001 cycles: 51920465 heartbeat IPC: 1.32861 cumulative IPC: 1.31803 (Simulation time: 0 hr 16 min 58 sec) 
Finished CPU 0 instructions: 50000001 cycles: 37935412 cumulative IPC: 1.31803 (Simulation time: 0 hr 16 min 58 sec) 

ChampSim completed all CPUs

Region of Interest Statistics

CPU 0 cumulative IPC: 1.31803 instructions: 50000001 cycles: 37935412
 Fetch stage stalled: 60.5711  Sim cycles: 37935412 fetch stall cycle: 22977887
 Empty decode stage: 46.557  Sim cycles: 37935412 fetch stall cycle: 17661607
ITLB TOTAL     ACCESS:    5816750  HIT:    5322840  MISS:     493910  HIT %:    91.5088  MISS %:    8.49117   MPKI: 9.8782
ITLB LOAD TRANSLATION INSTRUCTION	ACCESS:    5698307  HIT:    5204397  MISS:     493910  HIT %:    91.3323  MISS %:    8.66766  MPKI: 9.8782
ITLB TRANSLATION FROM L1D PREFETCHER INSTRUCTION	ACCESS:     118443  HIT:     118443  MISS:          0  HIT %:        100  MISS %:          0  MPKI: 0

ITLB AVERAGE MISS LATENCY: 9.05276 cycles
ITLB RQ	ACCESS:    7893200	FORWARD:          0	MERGED:    1628351	TO_CACHE:    6264849

DTLB TOTAL     ACCESS:    9052975  HIT:    8579792  MISS:     473183  HIT %:    94.7732  MISS %:    5.22682   MPKI: 9.46366
DTLB LOAD TRANSLATION DATA	ACCESS:    9052975  HIT:    8579792  MISS:     473183  HIT %:    94.7732  MISS %:    5.22682  MPKI: 9.46366

DTLB AVERAGE MISS LATENCY: 9.34646 cycles
DTLB RQ	ACCESS:   13428223	FORWARD:          0	MERGED:    4337242	TO_CACHE:    9090981

STLB TOTAL     ACCESS:    1216211  HIT:    1214022  MISS:       2189  HIT %:      99.82  MISS %:   0.179985   MPKI: 0.04378
STLB LOAD TRANSLATION INSTRUCTION	ACCESS:     493910  HIT:     493638  MISS:        272  HIT %:    99.9449  MISS %:  0.0550708  MPKI: 0.00544
STLB LOAD TRANSLATION DATA	ACCESS:     473128  HIT:     471237  MISS:       1891  HIT %:    99.6003  MISS %:    0.39968  MPKI: 0.03782
STLB TRANSLATION FROM L1D PREFETCHER DATA	ACCESS:     249173  HIT:     249147  MISS:         26  HIT %:    99.9896  MISS %:  0.0104345  MPKI: 0.00052

STLB AVERAGE MISS LATENCY: 72.5336 cycles
STLB RQ	ACCESS:    1334545	FORWARD:          0	MERGED:     118290	TO_CACHE:    1216255

STLB Hit, L1D data hit: 0
STLB Hit, L2C data hit: 0
STLB Hit, LLC data hit: 0
STLB Hit, LLC data miss: 0
STLB STLB hints to L2: 0
L1D TOTAL     ACCESS:   13185601  HIT:   12072510  MISS:    1113091  HIT %:    91.5583  MISS %:    8.44172   MPKI: 22.2618
L1D LOAD DATA	ACCESS:    6640336  HIT:    5906505  MISS:     733831  HIT %:    88.9489  MISS %:    11.0511  MPKI: 14.6766
L1D RFO DATA	ACCESS:    6216108  HIT:    5930348  MISS:     285760  HIT %:    95.4029  MISS %:    4.59709  MPKI: 5.7152
L1D PREFETCH DATA	ACCESS:     329157  HIT:     235657  MISS:      93500  HIT %:    71.5941  MISS %:    28.4059  MPKI: 1.87

L1D PREFETCH  REQUESTED:     735244  ISSUED:     735244  USEFUL:      32769  USELESS:      68789
L1D USEFUL LOAD PREFETCHES:      32769 PREFETCH ISSUED TO LOWER LEVEL:     101645  ACCURACY: 32.2387
 TIMELY PREFETCHES:      32769 LATE PREFETCHES: 8062 DROPPED PREFETCHES: 11
L1D AVERAGE MISS LATENCY: 243331 cycles
L1D RQ	ACCESS:   10730707	FORWARD:          0	MERGED:    3893845	TO_CACHE:    6673773
L1D WQ	ACCESS:    6947098	FORWARD:     163427	MERGED:     192648	TO_CACHE:    6754450
L1D PQ	ACCESS:     367791	FORWARD:          0	MERGED:          0	TO_CACHE:     367453

L1D UNIQUE REGIONS ACCESSED: 0
L1D REGIONS CONFLICTS: 0
L1D Cross Page Prefetch Requests: 6022
L1D Same Page Prefetch Requests: 744190
L1D ROI Sum of L1D PQ occupancy: 4672202
L1D PREFETCHES PUSHED FROM L2C: 0
L1I TOTAL     ACCESS:    7117080  HIT:    4352959  MISS:    2764121  HIT %:    61.1621  MISS %:    38.8379   MPKI: 55.2824
L1I LOAD INSTRUCTION	ACCESS:    6493779  HIT:    3729658  MISS:    2764121  HIT %:    57.4343  MISS %:    42.5657  MPKI: 55.2824
L1I PREFETCH INSTRUCTION	ACCESS:     623301  HIT:     623301  MISS:          0  HIT %:        100  MISS %:          0  MPKI: 0

L1I PREFETCH  REQUESTED:    1490517  ISSUED:    1490517  USEFUL:          0  USELESS:          0
L1I USEFUL LOAD PREFETCHES:          0 PREFETCH ISSUED TO LOWER LEVEL:          0  ACCURACY: -nan
 TIMELY PREFETCHES:          0 LATE PREFETCHES: 0 DROPPED PREFETCHES: 0
L1I AVERAGE MISS LATENCY: 17.8073 cycles
L1I RQ	ACCESS:    9477686	FORWARD:          0	MERGED:    2665715	TO_CACHE:    6811971
L1I PQ	ACCESS:    1490517	FORWARD:          0	MERGED:     409288	TO_CACHE:    1081229

L1BTB TOTAL     ACCESS:    5674911  HIT:    2046120  MISS:    3628791  HIT %:    36.0555  MISS %:    63.9445   MPKI: 72.5758
L1BTB BRANCH_DIRECT_JUMP	ACCESS:     549424 HIT:     144995 MISS:     404429 AVERAGE STALL: 44.8377 AVERAGE FETCH STALL: 18.1571 AVERAGE FETCH QUEUE STALL: 13.7339 AVERAGE DECODE STALL: 12.0697 AVERAGE EXECUTE STALL: 1.08383e+15
L1BTB BRANCH_INDIRECT	ACCESS:     183349 HIT:      66300 MISS:     117049 AVERAGE STALL: 98.0134 AVERAGE FETCH STALL: 12.1454 AVERAGE FETCH QUEUE STALL: 13.0847 AVERAGE DECODE STALL: 9.53035 AVERAGE EXECUTE STALL: 62.2956
L1BTB BRANCH_CONDITIONAL	ACCESS:    2714156 HIT:    1420524 MISS:    1293632 AVERAGE STALL: 48.9907 AVERAGE FETCH STALL: 23.2414 AVERAGE FETCH QUEUE STALL: 13.5407 AVERAGE DECODE STALL: 11.4709 AVERAGE EXECUTE STALL: 6.17568e+14
L1BTB BRANCH_DIRECT_CALL	ACCESS:     942884 HIT:     104288 MISS:     838596 AVERAGE STALL: 50.7418 AVERAGE FETCH STALL: 24.0679 AVERAGE FETCH QUEUE STALL: 14.0173 AVERAGE DECODE STALL: 11.8972 AVERAGE EXECUTE STALL: 6.56795e+14
L1BTB BRANCH_INDIRECT_CALL	ACCESS:     171110 HIT:      20866 MISS:     150244 AVERAGE STALL: 127.804 AVERAGE FETCH STALL: 14.8001 AVERAGE FETCH QUEUE STALL: 10.4044 AVERAGE DECODE STALL: 8.49962 AVERAGE EXECUTE STALL: 93.595
L1BTB BRANCH_RETURN	ACCESS:    1113988 HIT:     289147 MISS:     824841 AVERAGE STALL: 45.0152 AVERAGE FETCH STALL: 18.0065 AVERAGE FETCH QUEUE STALL: 6.53251 AVERAGE DECODE STALL: 6.89679 AVERAGE EXECUTE STALL: 3.25236e+14
L1BTB BRANCH_OTHER ACCESS:          0 HIT:          0 MISS:          0 AVERAGE STALL: -nan AVERAGE FETCH STALL: -nan AVERAGE FETCH QUEUE STALL: -nan AVERAGE DECODE STALL: -nan AVERAGE EXECUTE STALL: -nan
L1BTB TOTAL ROB OCCUPANCY AT BTB MISS: 5.82542

L2BTB TOTAL     ACCESS:    3603288  HIT:    3459046  MISS:     144242  HIT %:    95.9969  MISS %:    4.00307   MPKI: 2.88484
L2BTB BRANCH_DIRECT_JUMP	ACCESS:     400229 HIT:     387393 MISS:      12836 AVERAGE STALL: 44.8377 AVERAGE FETCH STALL: 18.1571 AVERAGE FETCH QUEUE STALL: 13.7339 AVERAGE DECODE STALL: 12.0697 AVERAGE EXECUTE STALL: 1.08383e+15
L2BTB BRANCH_INDIRECT	ACCESS:     106764 HIT:     103124 MISS:       3640 AVERAGE STALL: 98.0134 AVERAGE FETCH STALL: 12.1454 AVERAGE FETCH QUEUE STALL: 13.0847 AVERAGE DECODE STALL: 9.53035 AVERAGE EXECUTE STALL: 62.2956
L2BTB BRANCH_CONDITIONAL	ACCESS:    1293631 HIT:    1263424 MISS:      30207 AVERAGE STALL: 48.9907 AVERAGE FETCH STALL: 23.2414 AVERAGE FETCH QUEUE STALL: 13.5407 AVERAGE DECODE STALL: 11.4709 AVERAGE EXECUTE STALL: 6.17568e+14
L2BTB BRANCH_DIRECT_CALL	ACCESS:     838595 HIT:     810448 MISS:      28147 AVERAGE STALL: 50.7418 AVERAGE FETCH STALL: 24.0679 AVERAGE FETCH QUEUE STALL: 14.0173 AVERAGE DECODE STALL: 11.8972 AVERAGE EXECUTE STALL: 6.56795e+14
L2BTB BRANCH_INDIRECT_CALL	ACCESS:     140667 HIT:     126610 MISS:      14057 AVERAGE STALL: 127.804 AVERAGE FETCH STALL: 14.8001 AVERAGE FETCH QUEUE STALL: 10.4044 AVERAGE DECODE STALL: 8.49962 AVERAGE EXECUTE STALL: 93.595
L2BTB BRANCH_RETURN	ACCESS:     823402 HIT:     768047 MISS:      55355 AVERAGE STALL: 45.0152 AVERAGE FETCH STALL: 18.0065 AVERAGE FETCH QUEUE STALL: 6.53251 AVERAGE DECODE STALL: 6.89679 AVERAGE EXECUTE STALL: 3.25236e+14
L2BTB BRANCH_OTHER ACCESS:          0 HIT:          0 MISS:          0 AVERAGE STALL: -nan AVERAGE FETCH STALL: -nan AVERAGE FETCH QUEUE STALL: -nan AVERAGE DECODE STALL: -nan AVERAGE EXECUTE STALL: -nan
L2BTB TOTAL ROB OCCUPANCY AT BTB MISS: 146.554

L2C TOTAL     ACCESS:    4494572  HIT:    3936143  MISS:     558429  HIT %:    87.5755  MISS %:    12.4245   MPKI: 11.1686
L2C LOAD INSTRUCTION	ACCESS:    2764121  HIT:    2449112  MISS:     315009  HIT %:    88.6036  MISS %:    11.3964  MPKI: 6.30018
L2C LOAD TRANSLATION INSTRUCTION	ACCESS:        306  HIT:         72  MISS:        234  HIT %:    23.5294  MISS %:    76.4706  MPKI: 0.00468
L2C LOAD DATA	ACCESS:     725753  HIT:     638905  MISS:      86848  HIT %:    88.0334  MISS %:    11.9666  MPKI: 1.73696
L2C RFO DATA	ACCESS:     285654  HIT:     229990  MISS:      55664  HIT %:    80.5135  MISS %:    19.4865  MPKI: 1.11328
L2C PREFETCH DATA	ACCESS:     192859  HIT:     110639  MISS:      82220  HIT %:    57.3678  MISS %:    42.6322  MPKI: 1.6444
L2C WRITEBACK DATA	ACCESS:     523849  HIT:     506932  MISS:      16917  HIT %:    96.7706  MISS %:    3.22937  MPKI: 0.33834
L2C LOAD TRANSLATION DATA	ACCESS:       1976  HIT:        456  MISS:       1520  HIT %:    23.0769  MISS %:    76.9231  MPKI: 0.0304
L2C TRANSLATION FROM L1D PREFETCHER DATA	ACCESS:         54  HIT:         37  MISS:         17  HIT %:    68.5185  MISS %:    31.4815  MPKI: 0.00034

L2C PREFETCH  REQUESTED:     100506  ISSUED:     100506  USEFUL:       9811  USELESS:      73029
L2C USEFUL LOAD PREFETCHES:       9811 PREFETCH ISSUED TO LOWER LEVEL:      82750  ACCURACY: 11.8562
 TIMELY PREFETCHES:       9811 LATE PREFETCHES: 530 DROPPED PREFETCHES: 0
L2C AVERAGE MISS LATENCY: 37.2651 cycles
L2C RQ	ACCESS:    3777903	FORWARD:          0	MERGED:          0	TO_CACHE:    3777864
L2C WQ	ACCESS:     523849	FORWARD:         40	MERGED:          0	TO_CACHE:     523849
L2C PQ	ACCESS:     202151	FORWARD:          0	MERGED:       3821	TO_CACHE:     198329

L2C Dense regions hint from L2: 0
PSCL5 TOTAL     ACCESS:       4406  HIT:       2203  MISS:       2203  HIT %:         50  MISS %:         50   MPKI: 0.04406
PSCL5 LOAD TRANSLATION INSTRUCTION	ACCESS:       4298  HIT:       2149  MISS:       2149  HIT %:         50  MISS %:         50  MPKI: 0.04298
PSCL5 TRANSLATION FROM L1D PREFETCHER INSTRUCTION	ACCESS:        108  HIT:         54  MISS:         54  HIT %:         50  MISS %:         50  MPKI: 0.00108


PSCL4 TOTAL     ACCESS:       4238  HIT:       2113  MISS:       2125  HIT %:    49.8584  MISS %:    50.1416   MPKI: 0.0425
PSCL4 LOAD TRANSLATION INSTRUCTION	ACCESS:       2153  HIT:       2059  MISS:         94  HIT %:     95.634  MISS %:      4.366  MPKI: 0.00188
PSCL4 TRANSLATION FROM L1D PREFETCHER INSTRUCTION	ACCESS:         54  HIT:         54  MISS:          0  HIT %:        100  MISS %:          0  MPKI: 0
PSCL4 LOAD TRANSLATION DATA	ACCESS:       1977  HIT:          0  MISS:       1977  HIT %:          0  MISS %:        100  MPKI: 0.03954
PSCL4 TRANSLATION FROM L1D PREFETCHER DATA	ACCESS:         54  HIT:          0  MISS:         54  HIT %:          0  MISS %:        100  MPKI: 0.00108


PSCL3 TOTAL     ACCESS:       4306  HIT:       2147  MISS:       2159  HIT %:    49.8607  MISS %:    50.1393   MPKI: 0.04318
PSCL3 LOAD TRANSLATION INSTRUCTION	ACCESS:       2187  HIT:       2093  MISS:         94  HIT %:    95.7019  MISS %:    4.29813  MPKI: 0.00188
PSCL3 TRANSLATION FROM L1D PREFETCHER INSTRUCTION	ACCESS:         54  HIT:         54  MISS:          0  HIT %:        100  MISS %:          0  MPKI: 0
PSCL3 LOAD TRANSLATION DATA	ACCESS:       2011  HIT:          0  MISS:       2011  HIT %:          0  MISS %:        100  MPKI: 0.04022
PSCL3 TRANSLATION FROM L1D PREFETCHER DATA	ACCESS:         54  HIT:          0  MISS:         54  HIT %:          0  MISS %:        100  MPKI: 0.00108


PSCL2 TOTAL     ACCESS:       4296  HIT:       2093  MISS:       2203  HIT %:    48.7197  MISS %:    51.2803   MPKI: 0.04406
PSCL2 LOAD TRANSLATION INSTRUCTION	ACCESS:       2309  HIT:       2039  MISS:        270  HIT %:    88.3066  MISS %:    11.6934  MPKI: 0.0054
PSCL2 TRANSLATION FROM L1D PREFETCHER INSTRUCTION	ACCESS:         54  HIT:         54  MISS:          0  HIT %:        100  MISS %:          0  MPKI: 0
PSCL2 LOAD TRANSLATION DATA	ACCESS:       1879  HIT:          0  MISS:       1879  HIT %:          0  MISS %:        100  MPKI: 0.03758
PSCL2 TRANSLATION FROM L1D PREFETCHER DATA	ACCESS:         54  HIT:          0  MISS:         54  HIT %:          0  MISS %:        100  MPKI: 0.00108


LLC TOTAL     ACCESS:     621765  HIT:     592737  MISS:      29028  HIT %:    95.3314  MISS %:    4.66864   MPKI: 0.58056
LLC LOAD INSTRUCTION	ACCESS:     315009  HIT:     314065  MISS:        944  HIT %:    99.7003  MISS %:   0.299674  MPKI: 0.01888
LLC LOAD TRANSLATION INSTRUCTION	ACCESS:        234  HIT:        194  MISS:         40  HIT %:     82.906  MISS %:     17.094  MPKI: 0.0008
LLC LOAD DATA	ACCESS:      86323  HIT:      82717  MISS:       3606  HIT %:    95.8227  MISS %:    4.17733  MPKI: 0.07212
LLC RFO DATA	ACCESS:      55647  HIT:      42087  MISS:      13560  HIT %:    75.6321  MISS %:    24.3679  MPKI: 0.2712
LLC PREFETCH DATA	ACCESS:      82750  HIT:      72321  MISS:      10429  HIT %:     87.397  MISS %:     12.603  MPKI: 0.20858
LLC WRITEBACK DATA	ACCESS:      80265  HIT:      79925  MISS:        340  HIT %:    99.5764  MISS %:   0.423597  MPKI: 0.0068
LLC LOAD TRANSLATION DATA	ACCESS:       1520  HIT:       1411  MISS:        109  HIT %:    92.8289  MISS %:    7.17105  MPKI: 0.00218
LLC TRANSLATION FROM L1D PREFETCHER DATA	ACCESS:         17  HIT:         17  MISS:          0  HIT %:        100  MISS %:          0  MPKI: 0

LLC AVERAGE MISS LATENCY: 156.036 cycles
LLC RQ	ACCESS:     458762	FORWARD:          0	MERGED:          0	TO_CACHE:     458750
LLC WQ	ACCESS:      80265	FORWARD:         12	MERGED:          0	TO_CACHE:      80265
LLC PQ	ACCESS:      82750	FORWARD:          0	MERGED:          0	TO_CACHE:      82750

LLC Dense regions hint to LLC: 0

RAW hits: 1904818
Loads Generated: 12635525
Loads sent to L1D: 10730707
Stores Generated: 6947086
Stores sent to L1D: 6947098
Major fault: 0 Minor fault: 2601
Allocated PAGES: 2601

stream: 
stream:times selected: 1177217
stream:pref_filled: 122196
stream:pref_useful: 24055
stream:pref_late: 6796
stream:misses: 6740
stream:misses_by_poll: 0

CS: 
CS:times selected: 176481
CS:pref_filled: 59104
CS:pref_useful: 36142
CS:pref_late: 6735
CS:misses: 15608
CS:misses_by_poll: 3

CPLX: 
CPLX:times selected: 999501
CPLX:pref_filled: 20032
CPLX:pref_useful: 4835
CPLX:pref_late: 2965
CPLX:misses: 90331
CPLX:misses_by_poll: 2

NL_L1: 
NL:times selected: 19925
NL:pref_filled: 710
NL:pref_useful: 321
NL:pref_late: 205
NL:misses: 1055
NL:misses_by_poll: 0

total selections: 2373124
total_filled: 93500
total_useful: 32769
total_late: 17972
total_polluted: 5
total_misses_after_warmup: 767274
conflicts: 5567449

test: 115178

DRAM Statistics
 CHANNEL 0
 RQ ROW_BUFFER_HIT:      10450  ROW_BUFFER_MISS:      18226
 DBUS_CONGESTED:          9
 WQ ROW_BUFFER_HIT:       1409  ROW_BUFFER_MISS:      12327  FULL:          0

 AVG_CONGESTED_CYCLE: 5

CPU 0 Branch Prediction Accuracy: 99.8092% MPKI: 0.34892 Average ROB Occupancy at Mispredict: 163.801
Branch types
NOT_BRANCH: 40857159 81.7143%
BRANCH_DIRECT_JUMP: 549424 1.09885%
BRANCH_INDIRECT: 183349 0.366698%
BRANCH_CONDITIONAL: 6181892 12.3638%
BRANCH_DIRECT_CALL: 942884 1.88577%
BRANCH_INDIRECT_CALL: 171110 0.34222%
BRANCH_RETURN: 1113988 2.22798%
BRANCH_OTHER: 0 0%

DRAM PAGES: 1048576
Allocated PAGES: 2601
Average_ROB_Occupancy: 195.411
Average_Decode_Occupancy: 25.976
Average_FTQ_Occupancy: 10.6516
Indirect max targets: 14 Average targets: 1.1505
Branch_type:  BRANCH_DIRECT_JUMP:  Count Percentage: 3.24829 5.53099 5.12363 9.12238 1.74016 5.96783 0.891939 68.3748 
Branch_type:  BRANCH_INDIRECT:  Count Percentage: 11.7458 3.46491 2.55452 0 2.5452 9.67468 19.2228 50.7921 
Branch_type:  BRANCH_CONDITIONAL:  Count Percentage: 21.4515 2.58987 1.84246 8.41924 1.23162 5.06896 1.95747 57.4389 
Branch_type:  BRANCH_DIRECT_CALL:  Count Percentage: 0.257349 1.79076 1.44555 4.83602 2.15601 2.75191 0.751905 86.0105 
Branch_type:  BRANCH_INDIRECT_CALL:  Count Percentage: 9.53326 0.571582 2.98674 4.83994 0.000291475 2.01875 1.28307 78.7664 
Branch_type:  BRANCH_RETURN:  Count Percentage: 3.18859 1.30476 1.27108 9.31576 2.84213 6.55351 3.12936 72.3948 
Branch_type:  BRANCH_DIRECT_JUMP:  Total Count: 35588 60597 56134 99944 19065 65383 9772 749108 
Branch_type:  BRANCH_INDIRECT:  Total Count: 42886 12651 9327 0 9293 35324 70186 185451 
Branch_type:  BRANCH_CONDITIONAL:  Total Count: 2648851 319799 227508 1039615 152082 625919 241710 7092595 
Branch_type:  BRANCH_DIRECT_CALL:  Total Count: 4868 33874 27344 91478 40783 52055 14223 1626970 
Branch_type:  BRANCH_INDIRECT_CALL:  Total Count: 32707 1961 10247 16605 1 6926 4402 270234 
Branch_type:  BRANCH_RETURN:  Total Count: 71281 29168 28415 208254 63536 146504 69957 1618388 
Number of unique branch instructions: 10308
Upper 32 bits: 
aaaa
ffff
ffff0000
Unique upper 32 bits: 3
Unique upper 36 bits: 3
Unique upper 40 bits: 5
Unique upper 44 bits: 32
Unique upper 48 bits: 154
Variant_0 : 1256 0.306641
Variant_1 : 1179 0.287842
Variant_2 : 938 0.229004
Variant_3 : 717 0.175049
Offset_3 4268
Offset_4 260
Offset_5 469
Offset_6 531
Offset_7 612
Offset_8 540
Offset_9 491
Offset_10 399
Offset_11 338
Offset_12 297
Offset_13 225
Offset_14 232
Offset_15 201
Offset_16 230
Offset_17 162
Offset_18 128
Offset_19 252
Offset_20 144
Offset_21 236
Offset_22 404
Offset_23 245
Offset_24 346
Offset_25 88
Offset_47 84
Offset_64 21
decode_dispatch_called: 23034271 60.7197
Dispatch_width: 0 12221710 53.0588 32.2172
Dispatch_width: 1 726288 3.15308 1.91454
Dispatch_width: 2 688999 2.99119 1.81624
Dispatch_width: 3 430073 1.8671 1.1337
Dispatch_width: 4 3493021 15.1645 9.20781
Dispatch_width: 5 211873 0.919816 0.55851
Dispatch_width: 6 5262307 22.8456 13.8718
Empty_decode_cycles: 14901141 39.2803
ROB_full_cycles: 5599991 14.7619
Starvation_cycles_per_kilo_instr: 270.731
Starvation_cycles_per_kilo_instr_3: 233.682
Starvation_cycles_per_kilo_instr_0: 215.229
Branch_type_1  (3,1)  (4,9)  (5,37)  (6,73)  (7,118)  (8,138)  (9,129)  (10,102)  (11,76)  (12,51)  (13,8)  (14,2)  (15,3)  (16,4)  (18,1)  (19,4)  (20,2)  (21,1)  (22,3)  (23,2)  (24,10)  (25,12)  (64,3) 
Branch_type_2  (3,1)  (5,1)  (8,3)  (9,3)  (12,1)  (13,1)  (14,1)  (16,3)  (17,2)  (20,2)  (21,2)  (23,5)  (24,1)  (47,39) 
Branch_type_3  (3,4266)  (4,251)  (5,427)  (6,441)  (7,460)  (8,333)  (9,270)  (10,164)  (11,140)  (12,58)  (13,7)  (24,3)  (64,11) 
Branch_type_4  (6,4)  (7,8)  (8,30)  (9,54)  (10,63)  (11,63)  (12,105)  (13,96)  (14,102)  (15,96)  (16,104)  (17,73)  (18,58)  (19,124)  (20,74)  (21,124)  (22,215)  (23,138)  (24,202)  (25,72)  (64,4) 
Branch_type_5  (8,2)  (9,1)  (10,3)  (11,5)  (12,3)  (13,14)  (14,16)  (15,11)  (16,20)  (17,13)  (18,16)  (19,12)  (20,11)  (21,13)  (22,42)  (23,26)  (24,37) 
Branch_type_6  (5,4)  (6,13)  (7,26)  (8,34)  (9,34)  (10,67)  (11,54)  (12,79)  (13,99)  (14,111)  (15,91)  (16,99)  (17,74)  (18,53)  (19,112)  (20,55)  (21,96)  (22,144)  (23,74)  (24,93)  (25,4)  (47,45)  (64,3) 
Unique trigger count: 
Variant_0_evicts_0 : 0
Variant_0_evicts_1 : 0
Variant_0_evicts_2 : 0
Variant_0_evicts_3 : 0
Variant_1_evicts_0 : 0
Variant_1_evicts_1 : 0
Variant_1_evicts_2 : 0
Variant_1_evicts_3 : 0
Variant_2_evicts_0 : 0
Variant_2_evicts_1 : 0
Variant_2_evicts_2 : 0
Variant_2_evicts_3 : 0
Variant_3_evicts_0 : 0
Variant_3_evicts_1 : 0
Variant_3_evicts_2 : 0
Variant_3_evicts_3 : 0
BTB PER SET UNIQUE ADDR: 23 27 22 26 27 25 16 23 13 25 22 30 25 20 23 17 20 22 21 24 22 20 24 24 18 25 25 26 25 22 22 25 28 16 18 21 24 25 15 19 20 23 24 26 19 11 26 16 24 20 29 22 25 28 20 10 21 20 18 24 19 32 23 23 23 26 26 16 29 25 22 21 27 20 19 14 15 28 19 31 24 15 20 27 25 22 27 22 16 41 20 12 25 22 12 30 19 21 26 27 34 31 24 21 23 18 20 24 14 19 19 31 25 18 20 13 23 25 23 23 23 17 19 17 24 19 12 23 32 16 19 27 21 27 17 27 16 25 21 32 19 26 23 21 24 23 26 18 15 21 22 27 17 22 16 28 27 27 26 27 24 21 28 30 20 24 25 18 28 19 21 25 23 23 24 19 21 21 19 26 19 21 20 29 35 30 16 24 27 18 22 14 15 29 22 16 17 22 21 24 28 27 19 19 17 21 22 24 21 22 20 27 18 23 24 24 21 22 20 38 14 23 15 23 17 25 30 25 16 30 20 13 22 29 21 30 28 18 21 15 24 25 29 27 19 20 19 21 25 24 26 26 24 19 27 24 17 19 19 20 23 17 8 21 23 14 19 17 21 20 21 24 20 13 15 16 23 28 20 22 15 23 19 18 25 18 16 35 30 26 24 17 23 25 18 29 23 24 25 23 21 19 20 34 21 31 26 22 30 26 23 29 22 37 26 14 28 19 21 29 20 26 18 22 24 29 23 18 23 16 22 30 19 19 22 25 17 18 17 38 24 24 15 27 28 25 19 22 24 23 24 22 26 22 21 26 23 28 17 18 17 27 17 30 24 25 13 25 25 25 23 19 24 22 16 30 24 28 20 24 24 21 17 14 19 22 30 28 24 25 31 16 29 31 17 18 20 18 31 23 20 22 21 23 27 25 22 25 21 23 24 17 17 26 21 23 19 30 38 30 19 27 26 25 30 21 25 17 24 20 28 23 21 23 28 25 23 20 20 26 27 19 17 29 33 20 16 25 28 25 26 35 24 18 29 35 26 24 19 29 18 22 17 26 33 20 21 23 27 26 24 24 27 24 25 36 26 29 17 26 35 26 21 26 15 29 34 27 29 25 20 26 19 18 15 19 28 28 22 26 18 28 18 34 20 18 17 29 28 25 22 31 23 22 18 26 23 29 18 18 16 22 24 17 21 34 37 14 16 33 27 24 27 23 24 32 19 24 25 21 26 20 26 25 28 30 17 25 18 25 23 31 24 23 19 23 21 24 31 26 21 33 22 23 21 30 23 25 22 28 28 27 28 35 24 28 28 31 21 24 24 25 17 23 24 25 20 23 33 28 20 22 21 17 27 20 16 21 22 21 23 22 21 14 24 24 29 22 19 23 34 27 21 17 9 30 15 28 20 25 29 26 16 18 21 30 22 28 16 24 18 28 30 24 22 21 22 28 21 26 20 27 25 31 24 27 19 25 35 19 17 22 19 18 29 22 23 24 26 21 23 12 24 28 22 27 16 22 18 20 25 23 20 28 32 21 24 28 27 33 21 29 19 30 25 22 21 24 26 27 21 24 22 14 15 21 17 27 19 27 14 26 26 31 15 28 21 17 16 16 22 24 17 22 19 20 31 27 21 28 26 22 20 20 21 20 24 22 19 19 27 21 23 18 21 28 24 31 36 20 19 19 21 24 30 30 23 22 21 19 24 19 25 22 18 23 32 24 18 19 23 14 16 22 22 25 17 24 22 26 23 27 20 19 22 21 29 22 23 30 15 24 23 20 23 21 20 28 21 16 14 14 26 28 19 30 18 20 28 23 35 25 34 28 32 20 20 23 21 20 21 39 28 30 20 25 35 32 13 27 24 32 16 28 27 22 19 25 23 26 21 29 24 23 18 28 21 22 23 22 25 23 22 23 21 28 20 36 22 27 23 20 18 22 29 31 28 28 26 28 24 24 19 22 28 16 24 18 30 19 17 30 26 23 23 12 20 23 17 23 28 13 21 30 27 24 29 21 25 22 27 21 21 21 22 27 29 24 20 19 26 21 25 26 12 25 24 28 22 33 20 24 22 26 25 23 36 21 24 24 26 26 19 27 20 19 13 32 18 18 27 33 29 23 23 30 22 20 24 27 16 29 24 23 22 22 20 25 22 27 22 23 15 25 20 24 24 21 24 24 25 22 24 31 29 21 26 25 20 26 25 27 27 23 28 20 32 30 28 30 20 29 26 21 23 31 34 20 27 21 28 26 25 23 23 21 20 26 30 25 29 28 19 22 28 27 20 31 20 26 28 25 24 16 18 21 12 20 12 14 17 30 21 13 
BTB PER SET COUNT: 563 216 1957 281 323 207 871 375 1432 161 152 1073 6891 1648 135 127 767 1156 235 173 168 242 274 180 99 179 206 296 477 487 317 300 230 98 142 899 193 555 85 1531 85 101 233 319 1241 95 230 129 445 405 307 120 224 267 235 365 220 136 182 198 131 318 248 169 218 215 149 559 220 167 257 389 232 142 130 98 82 484 154 232 397 123 266 474 178 509 160 172 472 396 378 495 449 535 76 205 214 167 247 2273 339 558 171 292 2107 111 164 248 543 2337 149 284 499 134 198 395 162 213 1050 370 357 109 130 144 191 199 55 984 380 690 182 491 160 234 189 263 1094 226 154 276 136 646 175 151 165 229 516 138 111 261 193 240 1444 138 96 260 471 179 349 334 183 250 344 153 1515 346 169 134 240 962 185 248 180 164 253 470 166 158 467 585 182 350 1089 262 462 400 83 159 402 891 173 98 118 228 163 156 121 321 187 169 296 168 1096 108 94 183 201 383 774 595 127 300 131 6535 159 343 144 218 590 395 140 170 254 145 169 195 283 244 464 238 137 58 139 290 240 5325 297 160 492 101 863 204 308 523 196 369 96 178 254 145 230 196 155 109 211 325 163 156 122 159 294 135 18 280 143 94 130 153 571 189 136 371 393 85 232 88 157 224 116 533 76 218 778 447 179 145 127 426 267 232 206 109 185 675 94 262 515 174 202 527 107 132 215 327 133 294 262 199 345 656 448 256 129 306 1206 785 261 219 197 294 135 1612 114 180 726 225 274 143 134 103 209 295 120 112 139 246 112 139 109 525 152 1069 80 303 275 180 119 232 200 168 244 179 262 174 110 185 204 305 191 183 109 294 103 232 184 677 67 166 189 211 239 201 217 321 470 346 196 234 333 945 482 144 359 94 88 155 1108 261 263 515 331 83 218 654 123 617 145 164 429 623 138 141 354 172 247 246 199 502 160 216 175 81 134 676 149 173 132 3850 474 226 154 188 220 174 274 165 762 165 198 521 269 203 131 148 317 200 254 459 136 228 409 134 138 224 1075 235 423 177 266 208 339 1167 206 89 240 374 228 226 105 266 135 132 150 426 276 241 5504 185 223 245 232 213 153 199 176 310 196 306 89 211 279 412 203 190 224 495 298 224 362 232 576 307 1694 142 104 223 731 987 196 215 159 282 142 369 124 106 81 348 246 239 341 699 416 405 145 247 106 295 110 163 70 141 196 333 149 363 686 899 128 737 324 190 264 176 224 274 387 843 178 187 259 126 192 199 293 559 76 190 98 710 160 267 696 330 161 188 172 170 282 233 124 279 174 208 293 230 198 226 164 369 443 156 241 288 427 273 278 271 156 185 158 218 112 1013 176 262 432 190 341 219 659 189 161 96 245 135 1258 369 248 102 139 189 187 99 245 173 288 609 157 173 296 841 193 84 45 221 80 169 388 579 281 213 75 427 142 255 170 343 97 303 138 288 768 301 168 415 231 408 140 295 189 239 273 394 571 214 522 231 411 136 100 226 125 152 414 474 160 241 440 370 214 94 180 238 5570 180 113 1006 1641 216 157 179 344 252 671 442 186 294 210 281 199 242 554 360 410 188 125 204 301 265 133 214 238 70 1400 199 439 820 145 228 665 211 613 225 73 269 206 144 91 96 337 500 594 171 360 178 439 467 114 559 284 507 195 583 311 152 165 218 843 370 236 2181 151 125 131 178 564 297 326 153 413 122 415 264 302 255 813 170 138 161 1372 132 632 559 289 194 281 845 158 95 184 98 48 411 729 276 128 289 175 350 162 331 474 86 197 149 212 424 158 659 831 254 707 150 195 278 135 215 103 91 219 775 194 196 1078 343 151 134 224 702 356 239 286 405 457 141 182 203 194 171 172 3115 242 260 188 1008 552 303 58 581 208 413 107 254 760 160 149 228 240 551 185 268 245 188 357 463 185 294 222 321 193 228 196 205 872 192 205 271 171 1184 346 416 85 144 252 277 526 181 273 266 591 278 443 128 480 108 172 125 318 124 221 245 190 126 177 110 138 166 1104 180 239 59 242 287 192 254 206 182 154 272 232 512 1065 2052 116 179 384 177 177 142 198 188 187 532 78 191 148 249 251 388 194 272 205 214 227 465 1102 680 217 191 192 480 130 681 119 116 68 242 148 136 258 259 674 174 163 802 160 222 701 206 87 606 226 106 188 318 187 238 211 266 221 1215 1441 2953 233 245 350 210 198 588 204 282 382 274 243 167 783 183 164 174 236 335 239 153 354 182 289 184 375 477 327 259 369 522 126 636 606 354 224 135 268 1200 238 168 1076 176 157 1674 217 824 288 528 131 156 181 372 161 273 96 536 546 307 293 144 164 150 103 456 46 101 144 679 161 100 
To predecode: 0
Predecoding something: 0
Predecode request dropped: 0
sizeofblock_0 0
sizeofblock_1 151597
sizeofblock_2 77999
sizeofblock_3 17581
sizeofblock_4 4498
sizeofblock_5 147
sizeofblock_6 0
sizeofblock_7 0
sizeofblock_8 0
Variant_0 Correct: 1562028 Incorrect: 0 Accuracy: 1
Variant_1 Correct: 2043006 Incorrect: 0 Accuracy: 1
Variant_2 Correct: 1885703 Incorrect: 0 Accuracy: 1
Variant_3 Correct: 1701371 Incorrect: 8251 Accuracy: 0.995174
