
*** ChampSim Multicore Out-of-Order Simulator ***

Warmup Instructions: 50000000
Simulation Instructions: 50000000
Number of CPUs: 1
LLC sets: 2048
LLC ways: 16
Off-chip DRAM Size: 4096 MB Channels: 1 Width: 64-bit Data Rate: 6400 MT/s
CPU 0 runs ./micro_traces/srv170.trace.gz
.gz
ITLB has LRU replacement policy
DTLB has LRU replacement policy
STLB has LRU replacement policy
FDIP Prefetcher at L1I
L1I has LRU replacement policy
L1D has LRU replacement policy
Initialize SRRIP state for L2C
Initialize DRRIP state for LLC
Heartbeat CPU 0 instructions: 10000003 cycles: 2797184 heartbeat IPC: 3.57503 cumulative IPC: 3.57503 (Simulation time: 0 hr 1 min 59 sec) 
Heartbeat CPU 0 instructions: 20000003 cycles: 5594464 heartbeat IPC: 3.5749 cumulative IPC: 3.57496 (Simulation time: 0 hr 4 min 16 sec) 
Heartbeat CPU 0 instructions: 30000001 cycles: 8390775 heartbeat IPC: 3.57614 cumulative IPC: 3.57536 (Simulation time: 0 hr 6 min 23 sec) 
Heartbeat CPU 0 instructions: 40000002 cycles: 11187435 heartbeat IPC: 3.57569 cumulative IPC: 3.57544 (Simulation time: 0 hr 8 min 31 sec) 
Heartbeat CPU 0 instructions: 50000001 cycles: 13985012 heartbeat IPC: 3.57452 cumulative IPC: 3.57526 (Simulation time: 0 hr 10 min 44 sec) 

Warmup complete CPU 0 instructions: 50000001 cycles: 13985012 (Simulation time: 0 hr 10 min 44 sec) 

Cycle: 20000000 FTQ IN: 56373038 FTQ occupancy: 17.9036 DECODE IN: 56372930 DECODE occupancy: 45.7591 ROB IN: 56372930 ROB occupancy: 275.571 ROB OUT: 56372813
Heartbeat CPU 0 instructions: 60000001 cycles: 23437265 heartbeat IPC: 1.05795 cumulative IPC: 1.05795 (Simulation time: 0 hr 12 min 30 sec) 
Cycle: 30000000 FTQ IN: 10454077 FTQ occupancy: 6.27177 DECODE IN: 10454163 DECODE occupancy: 12.9448 ROB IN: 10454163 ROB occupancy: 106.908 ROB OUT: 10454272
Heartbeat CPU 0 instructions: 70000002 cycles: 32991809 heartbeat IPC: 1.04662 cumulative IPC: 1.05226 (Simulation time: 0 hr 14 min 22 sec) 
Cycle: 40000000 FTQ IN: 10609208 FTQ occupancy: 6.22886 DECODE IN: 10609190 DECODE occupancy: 12.9554 ROB IN: 10609190 ROB occupancy: 107.573 ROB OUT: 10609198
Heartbeat CPU 0 instructions: 80000002 cycles: 42418798 heartbeat IPC: 1.06078 cumulative IPC: 1.05508 (Simulation time: 0 hr 16 min 15 sec) 
Cycle: 50000000 FTQ IN: 10451949 FTQ occupancy: 6.25173 DECODE IN: 10451985 DECODE occupancy: 12.8853 ROB IN: 10451985 ROB occupancy: 107.437 ROB OUT: 10451790
Heartbeat CPU 0 instructions: 90000002 cycles: 51996127 heartbeat IPC: 1.04413 cumulative IPC: 1.05232 (Simulation time: 0 hr 18 min 1 sec) 
Cycle: 60000000 FTQ IN: 10597207 FTQ occupancy: 6.14292 DECODE IN: 10597196 DECODE occupancy: 12.7521 ROB IN: 10597196 ROB occupancy: 106.487 ROB OUT: 10597115
Heartbeat CPU 0 instructions: 100000000 cycles: 61436945 heartbeat IPC: 1.05923 cumulative IPC: 1.0537 (Simulation time: 0 hr 20 min 28 sec) 
Finished CPU 0 instructions: 50000003 cycles: 47451934 cumulative IPC: 1.0537 (Simulation time: 0 hr 20 min 28 sec) 

ChampSim completed all CPUs

Region of Interest Statistics

CPU 0 cumulative IPC: 1.0537 instructions: 50000003 cycles: 47451934
 Fetch stage stalled: 72.8661  Sim cycles: 47451934 fetch stall cycle: 34576371
 Empty decode stage: 61.4655  Sim cycles: 47451934 fetch stall cycle: 29166567
ITLB TOTAL     ACCESS:    5533391  HIT:    5042342  MISS:     491049  HIT %:    91.1257  MISS %:    8.87429   MPKI: 9.82098
ITLB LOAD TRANSLATION INSTRUCTION	ACCESS:    5426985  HIT:    4935936  MISS:     491049  HIT %:    90.9517  MISS %:    9.04828  MPKI: 9.82098
ITLB TRANSLATION FROM L1D PREFETCHER INSTRUCTION	ACCESS:     106406  HIT:     106406  MISS:          0  HIT %:        100  MISS %:          0  MPKI: 0

ITLB AVERAGE MISS LATENCY: 9.03476 cycles
ITLB RQ	ACCESS:    7205025	FORWARD:          0	MERGED:    1166367	TO_CACHE:    6038658

DTLB TOTAL     ACCESS:    9445835  HIT:    8974291  MISS:     471544  HIT %:    95.0079  MISS %:    4.99208   MPKI: 9.43088
DTLB LOAD TRANSLATION DATA	ACCESS:    9445835  HIT:    8974291  MISS:     471544  HIT %:    95.0079  MISS %:    4.99208  MPKI: 9.43088

DTLB AVERAGE MISS LATENCY: 9.29334 cycles
DTLB RQ	ACCESS:   13701601	FORWARD:          0	MERGED:    4223616	TO_CACHE:    9477985

STLB TOTAL     ACCESS:    1213460  HIT:    1211489  MISS:       1971  HIT %:    99.8376  MISS %:   0.162428   MPKI: 0.03942
STLB LOAD TRANSLATION INSTRUCTION	ACCESS:     491049  HIT:     490845  MISS:        204  HIT %:    99.9585  MISS %:  0.0415437  MPKI: 0.00408
STLB LOAD TRANSLATION DATA	ACCESS:     471528  HIT:     469782  MISS:       1746  HIT %:    99.6297  MISS %:   0.370286  MPKI: 0.03492
STLB TRANSLATION FROM L1D PREFETCHER DATA	ACCESS:     250883  HIT:     250862  MISS:         21  HIT %:    99.9916  MISS %: 0.00837044  MPKI: 0.00042

STLB AVERAGE MISS LATENCY: 66.1847 cycles
STLB RQ	ACCESS:    1337326	FORWARD:          0	MERGED:     123823	TO_CACHE:    1213503

STLB Hit, L1D data hit: 0
STLB Hit, L2C data hit: 0
STLB Hit, LLC data hit: 0
STLB Hit, LLC data miss: 0
STLB STLB hints to L2: 0
L1D TOTAL     ACCESS:   13483633  HIT:   12376391  MISS:    1107242  HIT %:    91.7883  MISS %:    8.21175   MPKI: 22.1448
L1D LOAD DATA	ACCESS:    6901202  HIT:    6171824  MISS:     729378  HIT %:    89.4311  MISS %:    10.5689  MPKI: 14.5876
L1D RFO DATA	ACCESS:    6247154  HIT:    5963000  MISS:     284154  HIT %:    95.4515  MISS %:    4.54854  MPKI: 5.68308
L1D PREFETCH DATA	ACCESS:     335277  HIT:     241567  MISS:      93710  HIT %:      72.05  MISS %:      27.95  MPKI: 1.8742

L1D PREFETCH  REQUESTED:     749795  ISSUED:     749795  USEFUL:      33411  USELESS:      68202
L1D USEFUL LOAD PREFETCHES:      33411 PREFETCH ISSUED TO LOWER LEVEL:     101701  ACCURACY: 32.8522
 TIMELY PREFETCHES:      33411 LATE PREFETCHES: 7899 DROPPED PREFETCHES: 7
L1D AVERAGE MISS LATENCY: 270965 cycles
L1D RQ	ACCESS:   10954219	FORWARD:          0	MERGED:    3862130	TO_CACHE:    6931296
L1D WQ	ACCESS:    6936507	FORWARD:     161122	MERGED:     166202	TO_CACHE:    6770305
L1D PQ	ACCESS:     375062	FORWARD:          0	MERGED:          0	TO_CACHE:     374733

L1D UNIQUE REGIONS ACCESSED: 0
L1D REGIONS CONFLICTS: 0
L1D Cross Page Prefetch Requests: 6909
L1D Same Page Prefetch Requests: 752366
L1D ROI Sum of L1D PQ occupancy: 4764620
L1D PREFETCHES PUSHED FROM L2C: 0
L1I TOTAL     ACCESS:    6851620  HIT:    4100589  MISS:    2751031  HIT %:    59.8485  MISS %:    40.1515   MPKI: 55.0206
L1I LOAD INSTRUCTION	ACCESS:    6421612  HIT:    3670581  MISS:    2751031  HIT %:    57.1598  MISS %:    42.8402  MPKI: 55.0206
L1I PREFETCH INSTRUCTION	ACCESS:     430008  HIT:     430008  MISS:          0  HIT %:        100  MISS %:          0  MPKI: 0

L1I PREFETCH  REQUESTED:     868531  ISSUED:     868531  USEFUL:          0  USELESS:          0
L1I USEFUL LOAD PREFETCHES:          0 PREFETCH ISSUED TO LOWER LEVEL:          0  ACCURACY: -nan
 TIMELY PREFETCHES:          0 LATE PREFETCHES: 0 DROPPED PREFETCHES: 0
L1I AVERAGE MISS LATENCY: 17.2049 cycles
L1I RQ	ACCESS:    9457291	FORWARD:          0	MERGED:    2857896	TO_CACHE:    6599395
L1I PQ	ACCESS:     868531	FORWARD:          0	MERGED:     262901	TO_CACHE:     605630

L1BTB TOTAL     ACCESS:    5670343  HIT:    2054996  MISS:    3615347  HIT %:    36.2411  MISS %:    63.7589   MPKI: 72.3069
L1BTB BRANCH_DIRECT_JUMP	ACCESS:     548866 HIT:     145857 MISS:     403009 AVERAGE STALL: 33.2441 AVERAGE FETCH STALL: 18.6136 AVERAGE FETCH QUEUE STALL: 6.49087 AVERAGE DECODE STALL: 7.29389 AVERAGE EXECUTE STALL: 2.00873e+14
L1BTB BRANCH_INDIRECT	ACCESS:     183337 HIT:      66388 MISS:     116949 AVERAGE STALL: 88.863 AVERAGE FETCH STALL: 14.6609 AVERAGE FETCH QUEUE STALL: 7.32149 AVERAGE DECODE STALL: 6.95315 AVERAGE EXECUTE STALL: 58.9903
L1BTB BRANCH_CONDITIONAL	ACCESS:    2712396 HIT:    1423966 MISS:    1288430 AVERAGE STALL: 33.9227 AVERAGE FETCH STALL: 20.72 AVERAGE FETCH QUEUE STALL: 6.13361 AVERAGE DECODE STALL: 6.31959 AVERAGE EXECUTE STALL: 7.44811e+13
L1BTB BRANCH_DIRECT_CALL	ACCESS:     941342 HIT:     106110 MISS:     835232 AVERAGE STALL: 35.8436 AVERAGE FETCH STALL: 20.4715 AVERAGE FETCH QUEUE STALL: 7.32208 AVERAGE DECODE STALL: 7.29437 AVERAGE EXECUTE STALL: 9.78477e+13
L1BTB BRANCH_INDIRECT_CALL	ACCESS:     171528 HIT:      21635 MISS:     149893 AVERAGE STALL: 106.257 AVERAGE FETCH STALL: 17.6341 AVERAGE FETCH QUEUE STALL: 7.28606 AVERAGE DECODE STALL: 7.01886 AVERAGE EXECUTE STALL: 73.7763
L1BTB BRANCH_RETURN	ACCESS:    1112874 HIT:     291040 MISS:     821834 AVERAGE STALL: 35.0966 AVERAGE FETCH STALL: 19.0219 AVERAGE FETCH QUEUE STALL: 5.90061 AVERAGE DECODE STALL: 6.0931 AVERAGE EXECUTE STALL: 1.13659e+14
L1BTB BRANCH_OTHER ACCESS:          0 HIT:          0 MISS:          0 AVERAGE STALL: -nan AVERAGE FETCH STALL: -nan AVERAGE FETCH QUEUE STALL: -nan AVERAGE DECODE STALL: -nan AVERAGE EXECUTE STALL: -nan
L1BTB TOTAL ROB OCCUPANCY AT BTB MISS: 18.4154

L2BTB TOTAL     ACCESS:    3589772  HIT:    2861566  MISS:     728206  HIT %:    79.7144  MISS %:    20.2856   MPKI: 14.5641
L2BTB BRANCH_DIRECT_JUMP	ACCESS:     398757 HIT:     311159 MISS:      87598 AVERAGE STALL: 33.2441 AVERAGE FETCH STALL: 18.6136 AVERAGE FETCH QUEUE STALL: 6.49087 AVERAGE DECODE STALL: 7.29389 AVERAGE EXECUTE STALL: 2.00873e+14
L2BTB BRANCH_INDIRECT	ACCESS:     106666 HIT:      97502 MISS:       9164 AVERAGE STALL: 88.863 AVERAGE FETCH STALL: 14.6609 AVERAGE FETCH QUEUE STALL: 7.32149 AVERAGE DECODE STALL: 6.95315 AVERAGE EXECUTE STALL: 58.9903
L2BTB BRANCH_CONDITIONAL	ACCESS:    1288430 HIT:    1039572 MISS:     248858 AVERAGE STALL: 33.9227 AVERAGE FETCH STALL: 20.72 AVERAGE FETCH QUEUE STALL: 6.13361 AVERAGE DECODE STALL: 6.31959 AVERAGE EXECUTE STALL: 7.44811e+13
L2BTB BRANCH_DIRECT_CALL	ACCESS:     835232 HIT:     646665 MISS:     188567 AVERAGE STALL: 35.8436 AVERAGE FETCH STALL: 20.4715 AVERAGE FETCH QUEUE STALL: 7.32208 AVERAGE DECODE STALL: 7.29437 AVERAGE EXECUTE STALL: 9.78477e+13
L2BTB BRANCH_INDIRECT_CALL	ACCESS:     140257 HIT:     107166 MISS:      33091 AVERAGE STALL: 106.257 AVERAGE FETCH STALL: 17.6341 AVERAGE FETCH QUEUE STALL: 7.28606 AVERAGE DECODE STALL: 7.01886 AVERAGE EXECUTE STALL: 73.7763
L2BTB BRANCH_RETURN	ACCESS:     820430 HIT:     659502 MISS:     160928 AVERAGE STALL: 35.0966 AVERAGE FETCH STALL: 19.0219 AVERAGE FETCH QUEUE STALL: 5.90061 AVERAGE DECODE STALL: 6.0931 AVERAGE EXECUTE STALL: 1.13659e+14
L2BTB BRANCH_OTHER ACCESS:          0 HIT:          0 MISS:          0 AVERAGE STALL: -nan AVERAGE FETCH STALL: -nan AVERAGE FETCH QUEUE STALL: -nan AVERAGE DECODE STALL: -nan AVERAGE EXECUTE STALL: -nan
L2BTB TOTAL ROB OCCUPANCY AT BTB MISS: 91.4277

L2C TOTAL     ACCESS:    4465842  HIT:    3991476  MISS:     474366  HIT %:    89.3779  MISS %:    10.6221   MPKI: 9.48732
L2C LOAD INSTRUCTION	ACCESS:    2751031  HIT:    2495809  MISS:     255222  HIT %:    90.7227  MISS %:    9.27732  MPKI: 5.10444
L2C LOAD TRANSLATION INSTRUCTION	ACCESS:        225  HIT:         54  MISS:        171  HIT %:         24  MISS %:         76  MPKI: 0.00342
L2C LOAD DATA	ACCESS:     721462  HIT:     644200  MISS:      77262  HIT %:    89.2909  MISS %:    10.7091  MPKI: 1.54524
L2C RFO DATA	ACCESS:     284046  HIT:     233687  MISS:      50359  HIT %:    82.2708  MISS %:    17.7292  MPKI: 1.00718
L2C PREFETCH DATA	ACCESS:     189346  HIT:     114052  MISS:      75294  HIT %:    60.2347  MISS %:    39.7653  MPKI: 1.50588
L2C WRITEBACK DATA	ACCESS:     517902  HIT:     503080  MISS:      14822  HIT %:    97.1381  MISS %:    2.86193  MPKI: 0.29644
L2C LOAD TRANSLATION DATA	ACCESS:       1790  HIT:        570  MISS:       1220  HIT %:    31.8436  MISS %:    68.1564  MPKI: 0.0244
L2C TRANSLATION FROM L1D PREFETCHER DATA	ACCESS:         40  HIT:         24  MISS:         16  HIT %:         60  MISS %:         40  MPKI: 0.00032

L2C PREFETCH  REQUESTED:      95283  ISSUED:      95283  USEFUL:       8234  USELESS:      67612
L2C USEFUL LOAD PREFETCHES:       8234 PREFETCH ISSUED TO LOWER LEVEL:      75845  ACCURACY: 10.8564
 TIMELY PREFETCHES:       8234 LATE PREFETCHES: 551 DROPPED PREFETCHES: 0
L2C AVERAGE MISS LATENCY: 38.0982 cycles
L2C RQ	ACCESS:    3758626	FORWARD:          0	MERGED:          0	TO_CACHE:    3758594
L2C WQ	ACCESS:     517903	FORWARD:         32	MERGED:          0	TO_CACHE:     517903
L2C PQ	ACCESS:     196984	FORWARD:          0	MERGED:       3597	TO_CACHE:     193387

L2C Dense regions hint from L2: 0
PSCL5 TOTAL     ACCESS:       3960  HIT:       1980  MISS:       1980  HIT %:         50  MISS %:         50   MPKI: 0.0396
PSCL5 LOAD TRANSLATION INSTRUCTION	ACCESS:       3880  HIT:       1940  MISS:       1940  HIT %:         50  MISS %:         50  MPKI: 0.0388
PSCL5 TRANSLATION FROM L1D PREFETCHER INSTRUCTION	ACCESS:         80  HIT:         40  MISS:         40  HIT %:         50  MISS %:         50  MPKI: 0.0008


PSCL4 TOTAL     ACCESS:       3819  HIT:       1907  MISS:       1912  HIT %:    49.9345  MISS %:    50.0655   MPKI: 0.03824
PSCL4 LOAD TRANSLATION INSTRUCTION	ACCESS:       1983  HIT:       1873  MISS:        110  HIT %:    94.4528  MISS %:    5.54715  MPKI: 0.0022
PSCL4 TRANSLATION FROM L1D PREFETCHER INSTRUCTION	ACCESS:         34  HIT:         34  MISS:          0  HIT %:        100  MISS %:          0  MPKI: 0
PSCL4 LOAD TRANSLATION DATA	ACCESS:       1768  HIT:          0  MISS:       1768  HIT %:          0  MISS %:        100  MPKI: 0.03536
PSCL4 TRANSLATION FROM L1D PREFETCHER DATA	ACCESS:         34  HIT:          0  MISS:         34  HIT %:          0  MISS %:        100  MPKI: 0.00068


PSCL3 TOTAL     ACCESS:       3873  HIT:       1934  MISS:       1939  HIT %:    49.9355  MISS %:    50.0645   MPKI: 0.03878
PSCL3 LOAD TRANSLATION INSTRUCTION	ACCESS:       2010  HIT:       1900  MISS:        110  HIT %:    94.5274  MISS %:    5.47264  MPKI: 0.0022
PSCL3 TRANSLATION FROM L1D PREFETCHER INSTRUCTION	ACCESS:         34  HIT:         34  MISS:          0  HIT %:        100  MISS %:          0  MPKI: 0
PSCL3 LOAD TRANSLATION DATA	ACCESS:       1795  HIT:          0  MISS:       1795  HIT %:          0  MISS %:        100  MPKI: 0.0359
PSCL3 TRANSLATION FROM L1D PREFETCHER DATA	ACCESS:         34  HIT:          0  MISS:         34  HIT %:          0  MISS %:        100  MPKI: 0.00068


PSCL2 TOTAL     ACCESS:       3894  HIT:       1914  MISS:       1980  HIT %:    49.1525  MISS %:    50.8475   MPKI: 0.0396
PSCL2 LOAD TRANSLATION INSTRUCTION	ACCESS:       2077  HIT:       1874  MISS:        203  HIT %:    90.2263  MISS %:    9.77371  MPKI: 0.00406
PSCL2 TRANSLATION FROM L1D PREFETCHER INSTRUCTION	ACCESS:         40  HIT:         40  MISS:          0  HIT %:        100  MISS %:          0  MPKI: 0
PSCL2 LOAD TRANSLATION DATA	ACCESS:       1737  HIT:          0  MISS:       1737  HIT %:          0  MISS %:        100  MPKI: 0.03474
PSCL2 TRANSLATION FROM L1D PREFETCHER DATA	ACCESS:         40  HIT:          0  MISS:         40  HIT %:          0  MISS %:        100  MPKI: 0.0008


LLC TOTAL     ACCESS:     532415  HIT:     504877  MISS:      27538  HIT %:    94.8277  MISS %:    5.17228   MPKI: 0.55076
LLC LOAD INSTRUCTION	ACCESS:     255222  HIT:     254610  MISS:        612  HIT %:    99.7602  MISS %:   0.239791  MPKI: 0.01224
LLC LOAD TRANSLATION INSTRUCTION	ACCESS:        171  HIT:        148  MISS:         23  HIT %:    86.5497  MISS %:    13.4503  MPKI: 0.00046
LLC LOAD DATA	ACCESS:      76754  HIT:      73498  MISS:       3256  HIT %:    95.7579  MISS %:    4.24212  MPKI: 0.06512
LLC RFO DATA	ACCESS:      50313  HIT:      36602  MISS:      13711  HIT %:    72.7486  MISS %:    27.2514  MPKI: 0.27422
LLC PREFETCH DATA	ACCESS:      75845  HIT:      66260  MISS:       9585  HIT %:    87.3624  MISS %:    12.6376  MPKI: 0.1917
LLC WRITEBACK DATA	ACCESS:      72874  HIT:      72575  MISS:        299  HIT %:    99.5897  MISS %:   0.410297  MPKI: 0.00598
LLC LOAD TRANSLATION DATA	ACCESS:       1220  HIT:       1170  MISS:         50  HIT %:    95.9016  MISS %:    4.09836  MPKI: 0.001
LLC TRANSLATION FROM L1D PREFETCHER DATA	ACCESS:         16  HIT:         14  MISS:          2  HIT %:       87.5  MISS %:       12.5  MPKI: 4e-05

LLC AVERAGE MISS LATENCY: 154.421 cycles
LLC RQ	ACCESS:     383699	FORWARD:          0	MERGED:          0	TO_CACHE:     383696
LLC WQ	ACCESS:      72874	FORWARD:          3	MERGED:          0	TO_CACHE:      72874
LLC PQ	ACCESS:      75845	FORWARD:          0	MERGED:          0	TO_CACHE:      75845

LLC Dense regions hint to LLC: 0

RAW hits: 1676228
Loads Generated: 12630450
Loads sent to L1D: 10954219
Stores Generated: 6936509
Stores sent to L1D: 6936507
Major fault: 0 Minor fault: 2597
Allocated PAGES: 2597

stream: 
stream:times selected: 1186888
stream:pref_filled: 120900
stream:pref_useful: 24078
stream:pref_late: 6874
stream:misses: 8179
stream:misses_by_poll: 0

CS: 
CS:times selected: 180734
CS:pref_filled: 60602
CS:pref_useful: 36508
CS:pref_late: 6877
CS:misses: 15652
CS:misses_by_poll: 4

CPLX: 
CPLX:times selected: 1004947
CPLX:pref_filled: 19959
CPLX:pref_useful: 4697
CPLX:pref_late: 3088
CPLX:misses: 92081
CPLX:misses_by_poll: 0

NL_L1: 
NL:times selected: 21047
NL:pref_filled: 826
NL:pref_useful: 401
NL:pref_late: 278
NL:misses: 1747
NL:misses_by_poll: 0

total selections: 2393616
total_filled: 93710
total_useful: 33411
total_late: 18330
total_polluted: 4
total_misses_after_warmup: 759478
conflicts: 5685633

test: 116752

DRAM Statistics
 CHANNEL 0
 RQ ROW_BUFFER_HIT:      10160  ROW_BUFFER_MISS:      17060
 DBUS_CONGESTED:          5
 WQ ROW_BUFFER_HIT:       1175  ROW_BUFFER_MISS:      12091  FULL:          0

 AVG_CONGESTED_CYCLE: 5

CPU 0 Branch Prediction Accuracy: 99.8181% MPKI: 0.33268 Average ROB Occupancy at Mispredict: 104.743
Branch types
NOT_BRANCH: 40857226 81.7144%
BRANCH_DIRECT_JUMP: 548866 1.09773%
BRANCH_INDIRECT: 183337 0.366674%
BRANCH_CONDITIONAL: 6184412 12.3688%
BRANCH_DIRECT_CALL: 941342 1.88268%
BRANCH_INDIRECT_CALL: 171528 0.343056%
BRANCH_RETURN: 1112874 2.22575%
BRANCH_OTHER: 0 0%

DRAM PAGES: 1048576
Allocated PAGES: 2597
Average_ROB_Occupancy: 107.891
Average_Decode_Occupancy: 12.841
Average_FTQ_Occupancy: 6.20217
Indirect max targets: 14 Average targets: 1.17572
Branch_type:  BRANCH_DIRECT_JUMP:  Count Percentage: 3.92248 5.30898 4.66872 8.47691 1.88066 5.97487 1.21376 68.5536 
Branch_type:  BRANCH_INDIRECT:  Count Percentage: 11.7669 3.44495 2.58064 9.67281 3.34463 4.01432 1.99869 63.1771 
Branch_type:  BRANCH_CONDITIONAL:  Count Percentage: 21.6459 5.40105 2.31278 5.12787 2.094 4.35452 0.733298 58.3306 
Branch_type:  BRANCH_DIRECT_CALL:  Count Percentage: 0.748945 1.28916 1.44278 4.18033 2.61831 2.36486 0.621 86.7346 
Branch_type:  BRANCH_INDIRECT_CALL:  Count Percentage: 9.51901 0.579355 2.9827 4.84019 1.25454 2.99348 0.996758 76.834 
Branch_type:  BRANCH_RETURN:  Count Percentage: 4.17795 3.77075 1.78272 6.29893 4.27951 4.62521 1.1738 73.8911 
Branch_type:  BRANCH_DIRECT_JUMP:  Total Count: 43007 58209 51189 92943 20620 65510 13308 751639 
Branch_type:  BRANCH_INDIRECT:  Total Count: 43048 12603 9441 35387 12236 14686 7312 231127 
Branch_type:  BRANCH_CONDITIONAL:  Total Count: 2674916 667440 285804 633682 258768 538114 90618 7208258 
Branch_type:  BRANCH_DIRECT_CALL:  Total Count: 14119 24303 27199 78807 49360 44582 11707 1635108 
Branch_type:  BRANCH_INDIRECT_CALL:  Total Count: 32680 1989 10240 16617 4307 10277 3422 263781 
Branch_type:  BRANCH_RETURN:  Total Count: 93141 84063 39743 140425 95405 103112 26168 1647289 
Number of unique branch instructions: 10597
Upper 32 bits: 
aaaa
ffff
ffff0000
Unique upper 32 bits: 3
Unique upper 36 bits: 3
Unique upper 40 bits: 5
Unique upper 44 bits: 32
Unique upper 48 bits: 158
Offset_3 4386
Offset_4 258
Offset_5 477
Offset_6 531
Offset_7 625
Offset_8 566
Offset_9 508
Offset_10 415
Offset_11 340
Offset_12 307
Offset_13 237
Offset_14 244
Offset_15 194
Offset_16 226
Offset_17 163
Offset_18 144
Offset_19 256
Offset_20 141
Offset_21 235
Offset_22 408
Offset_23 241
Offset_24 342
Offset_25 117
Offset_47 92
Offset_64 3
decode_dispatch_called: 19349322 40.7767
Dispatch_width: 0 9259755 47.8557 19.514
Dispatch_width: 1 534374 2.76172 1.12614
Dispatch_width: 2 703529 3.63594 1.48261
Dispatch_width: 3 462070 2.38804 0.973764
Dispatch_width: 4 1661835 8.5886 3.50214
Dispatch_width: 5 341790 1.76642 0.720287
Dispatch_width: 6 6385969 33.0036 13.4578
Empty_decode_cycles: 28102612 59.2233
ROB_full_cycles: 2057585 4.33615
Starvation_cycles_per_kilo_instr: 390.084
Starvation_cycles_per_kilo_instr_3: 370.048
Starvation_cycles_per_kilo_instr_0: 353.048
Branch_type_1  (3,1)  (4,9)  (5,39)  (6,71)  (7,122)  (8,148)  (9,133)  (10,109)  (11,76)  (12,47)  (13,11)  (14,2)  (15,3)  (16,4)  (18,1)  (19,5)  (20,2)  (21,1)  (22,3)  (23,2)  (24,10)  (25,12) 
Branch_type_2  (3,1)  (4,1)  (5,1)  (8,4)  (9,4)  (10,1)  (12,1)  (13,1)  (14,1)  (16,3)  (17,2)  (20,2)  (21,2)  (23,5)  (24,1)  (47,41) 
Branch_type_3  (3,4384)  (4,248)  (5,433)  (6,444)  (7,474)  (8,348)  (9,278)  (10,167)  (11,129)  (12,54)  (13,10)  (64,3) 
Branch_type_4  (6,3)  (7,8)  (8,25)  (9,55)  (10,66)  (11,69)  (12,114)  (13,100)  (14,110)  (15,92)  (16,99)  (17,75)  (18,61)  (19,125)  (20,72)  (21,124)  (22,214)  (23,136)  (24,197)  (25,101) 
Branch_type_5  (8,3)  (9,1)  (10,4)  (11,5)  (12,3)  (13,14)  (14,16)  (15,11)  (16,22)  (17,11)  (18,23)  (19,14)  (20,11)  (21,13)  (22,43)  (23,26)  (24,38) 
Branch_type_6  (5,4)  (6,13)  (7,21)  (8,38)  (9,37)  (10,68)  (11,61)  (12,88)  (13,101)  (14,115)  (15,88)  (16,98)  (17,75)  (18,59)  (19,112)  (20,54)  (21,95)  (22,148)  (23,72)  (24,96)  (25,4)  (47,51) 
aaaaab1fc620: 2ac9e77e 2aca717c 2aca8eff 2acaf6bc 2acaf9aa 2acaf9f1 2acb1abc 2acb1b7f 2acd4e22 2acdb712 2acf5f9e 2ad0ef44 2ad3f15c 2ad414e6 2ad60e42 2ad8609c 2ad99830 2ada35cc 2ada4676 2ada6612 2adf183e 2adf30e5 2adf5602 2adf785c 2ae11572 2aeb2dcf 2aee101b 2aee1ae1 2b156a8c 2b156b61 2b156bea 2b167f35 2b177656 2b17feec 2b1a3e5a 
aaaaab1fc640: 2ac9ec07 2aca656e 2aca801d 2acaea11 2acaee73 2acb13ee 2acb1470 2acd462b 2ad0ef5d 2ad3f3fe 2ad86e9b 2ada1641 2ada4115 2ada6638 2adf30d4 2ae12e57 2aee1033 2b1693ab 2b16948c 2b169491 2b17d915 2b17fa85 2b17fccd 
aaaaab1fcb00: 2acf2d72 2acf3734 2acf604c 2acfa5b7 2ad397b5 2ad3b800 2ae8af7d 2ae8aff0 2ae9aaba 2aea9fc6 2aeaa358 2aee910b 2aee91cf 2aee928e 2aee92e4 2af6fe87 2af70dfe 2b16850c 2b16c4a2 2b1765f4 2b178094 2b17d925 2b17db06 2b17ec8f 
aaaaab1fcb10: 2acf2d95 2acf3758 2acf6052 2acfa5f4 2ad397c3 2ad3b81c 2ae8af88 2ae8affe 2ae9aacf 2aeaa017 2aeaa36d 2aee9114 2aee91d8 2aee934d 2aee9353 2af6fe8c 2af70e22 2b168526 2b16c542 2b176609 2b1780a3 2b17d95d 2b17db44 2b17ecac 
aaaaac68f310: 2ac9ec8c 2ac9fb44 2ac9fbd2 2aca59ab 2acac04c 2acaf6e0 2acaf6ec 2acaf6f9 2acaf700 2acaf708 2acf2d90 2ad3cfbd 2ad3cfc4 2ad3d000 2ad3f35f 2ad4955d 2ad49571 2ad4f3f2 2ad4f400 2ad5f240 2ad5f37c 2ad5f86a 2ad5f86f 2ad5f880 2ad5fc0d 2ad5fc14 2ad5fc21 2ad5fe1b 2ad873bb 2ad873e3 2ad8a6b2 2ad9086e 2ad93096 2ad9bbb2 2ada152c 2ada1554 2ada3332 2ada5522 2adf3130 2adf313c 2adf3a3f 2adf3bd9 2adf5788 2adf7a8d 2ae07f6b 2ae0857a 2ae0857e 2ae08630 2ae08634 2ae08637 2ae08642 2ae0866f 2ae086e4 2ae086ec 2ae08717 2ae0871b 2aee0170 2aee1d38 2aee75f4 2aee7662 2aee85ca 2aee85e4 2aee8eef 2af70b84 2af74e8f 2b17d843 
aaaaac690ef0: 2aca598b 2acb111b 2acb175f 2acb1772 2acbfaf4 2acbfb00 2acf374f 2acf6d43 2acfa5c8 2ad3baf1 2ad3d4ac 2ad3d4b8 2ad3f1cf 2ad486b2 2ad5a59b 2ad5fc64 2ad5fcf9 2ad6121c 2ad906e9 2ad907bf 2ad9bada 2ada16ce 2ada1ad5 2ada43df 2ada64c0 2ada72ee 2adeb71a 2adf3bcb 2adf7a38 2adf7c6a 2adf8872 2adf8880 2adf9959 2adf9abe 2ae07f78 2ae08503 2ae08754 2ae12e80 2aea3bea 2aecb509 2aee00b0 2aee2bdd 2aee5467 2aee5601 2aee8f20 2af703fd 2af7048b 2af74e74 
Unique trigger count: 
1 10091
2 549
3 90
4 31
5 15
6 9
7 7
8 2
9 3
10 2
11 1
12 1
13 2
14 2
16 2
19 2
23 1
24 2
35 1
48 1
66 1
BTB PER SET UNIQUE ADDR: 1 2 2 2 0 0 1 1 3 0 2 0 1 1 0 1 2 1 1 2 0 1 1 2 1 2 1 2 1 1 2 2 2 0 3 0 0 3 4 0 1 2 3 3 1 1 2 1 4 1 1 1 2 0 0 2 3 3 1 1 1 2 2 2 0 4 4 0 2 2 5 1 1 2 1 1 2 6 1 1 1 1 1 4 3 2 1 4 3 2 3 4 2 3 2 0 1 3 0 1 3 2 2 3 2 2 1 1 3 0 1 2 3 2 1 3 1 2 1 0 3 2 2 0 1 1 1 1 3 2 3 0 1 1 2 1 0 0 1 2 2 3 3 0 2 1 2 3 3 2 1 6 1 2 2 1 0 3 1 1 0 0 0 1 4 3 0 1 5 2 2 2 2 1 1 0 1 1 3 1 1 3 6 2 3 2 3 0 1 1 4 1 1 2 1 1 1 1 0 1 2 1 1 0 0 0 1 1 1 0 0 2 2 1 2 1 0 2 1 0 0 1 1 3 2 0 2 2 0 3 5 3 1 2 1 3 3 0 1 2 1 0 2 2 6 3 1 1 3 1 1 1 1 1 0 5 2 2 2 2 3 3 2 2 2 4 3 0 2 1 2 2 1 2 2 2 1 0 3 2 2 2 1 1 2 3 2 1 1 1 0 0 1 2 0 1 3 2 0 1 2 2 1 1 2 2 3 2 3 3 2 1 2 2 3 0 2 2 1 2 1 1 2 2 0 3 1 4 0 0 3 0 2 2 3 1 2 2 4 0 2 0 0 1 2 3 1 1 1 3 1 3 3 2 2 2 1 0 3 0 0 2 1 2 4 2 1 0 0 0 3 1 2 0 1 2 2 2 2 3 0 0 1 3 0 0 2 1 2 1 1 2 2 2 2 0 3 0 0 2 3 1 3 1 1 0 1 2 0 1 0 0 1 2 1 0 4 1 1 2 1 1 3 2 2 4 0 0 1 3 0 0 4 2 3 3 2 1 1 0 0 4 3 2 2 1 1 2 1 1 3 0 0 1 3 0 1 2 2 2 3 0 3 2 0 0 2 0 1 3 0 1 1 1 2 1 0 1 1 0 0 1 1 2 0 2 2 0 3 1 3 1 1 2 0 2 1 1 2 0 3 0 0 1 0 2 1 0 0 2 3 2 4 4 2 0 1 3 1 5 1 1 3 1 3 3 1 4 3 2 5 1 2 2 1 4 0 0 3 0 0 4 3 1 5 1 6 3 4 4 2 3 2 3 0 1 1 0 2 2 6 0 1 2 1 0 0 1 3 4 4 0 1 5 2 0 0 2 0 0 1 1 1 0 1 0 0 4 1 1 3 2 0 2 1 2 3 0 2 2 1 0 1 3 0 1 1 1 2 0 2 2 2 1 2 1 2 0 2 1 3 1 5 0 2 2 2 2 1 0 3 1 0 2 2 4 0 1 1 2 5 1 3 3 0 0 2 1 2 1 1 1 3 1 1 0 4 0 1 3 3 2 3 3 2 1 1 1 0 0 4 2 1 0 4 2 0 1 3 2 1 0 2 2 2 1 1 2 2 1 0 3 1 1 1 3 3 3 2 3 0 2 0 2 1 1 0 1 0 0 1 2 0 1 2 0 1 1 0 2 1 0 1 1 0 1 1 1 0 3 3 2 1 0 1 1 6 1 1 0 1 2 1 2 1 0 3 1 2 2 0 0 1 2 0 1 2 3 1 0 1 1 0 2 0 1 3 1 0 0 2 2 0 0 1 2 3 1 1 1 2 1 0 0 3 3 3 4 0 0 1 3 0 0 2 3 3 1 1 0 2 2 1 2 1 1 1 4 0 2 0 2 1 0 2 1 1 0 0 3 3 0 1 0 2 1 1 1 1 4 1 1 2 1 3 0 1 0 3 2 0 1 0 2 0 1 3 2 3 0 2 1 3 1 3 2 0 0 1 0 0 0 0 1 4 1 1 0 2 0 1 1 1 2 1 0 2 2 3 1 2 1 1 0 0 0 1 2 0 0 2 0 1 2 1 1 4 0 1 1 1 0 0 1 1 3 0 1 0 4 3 3 0 0 1 2 0 1 1 2 4 1 3 1 2 0 3 0 2 1 3 1 4 2 2 1 1 1 0 1 1 1 0 3 2 2 1 2 1 1 1 0 4 1 1 1 4 2 2 1 2 1 2 2 2 4 8 2 2 2 1 1 0 2 3 1 3 4 1 2 3 2 1 3 1 1 1 3 2 1 3 1 1 2 2 1 2 2 1 4 0 1 2 1 2 3 3 2 0 2 2 0 3 0 1 2 3 3 1 3 3 1 7 4 0 2 2 1 1 1 3 4 2 1 3 0 0 1 1 0 2 0 1 3 0 2 5 1 3 3 0 1 3 2 1 3 2 1 2 1 0 1 2 0 2 0 1 2 3 3 1 4 3 2 0 1 7 0 1 1 1 1 2 2 1 5 3 3 3 3 2 4 2 2 1 0 4 1 1 2 1 6 1 0 4 1 1 1 2 1 1 2 3 3 2 2 2 1 1 4 4 2 1 2 1 1 3 2 1 4 2 2 2 1 3 4 0 1 4 1 0 2 1 0 1 3 1 2 1 2 1 3 2 0 1 1 3 2 1 0 2 0 0 3 2 1 2 2 1 4 0 1 5 0 3 3 1 2 2 4 2 4 0 6 4 0 2 1 2 0 0 1 3 0 1 1 2 4 1 0 0 3 3 2 1 2 0 0 1 4 1 4 2 2 0 2 0 1 2 4 6 1 5 0 0 1 2 1 4 0 2 3 2 1 1 1 0 4 1 3 0 1 2 5 3 1 2 2 0 2 4 3 2 4 3 2 0 0 3 3 4 1 2 2 1 1 3 2 3 1 1 1 1 2 5 3 4 0 0 2 1 1 3 2 3 0 0 1 2 3 2 0 3 1 1 1 1 1 5 0 1 1 0 4 3 0 2 1 3 2 1 1 2 1 2 2 0 3 2 1 0 3 1 1 2 2 1 1 0 2 1 1 1 2 1 3 3 2 1 2 0 1 3 0 2 2 0 2 1 1 2 2 1 0 3 0 1 1 2 2 1 1 1 1 1 4 1 3 2 1 2 0 1 1 1 4 1 2 1 1 1 2 0 1 4 2 3 1 4 2 1 1 1 2 3 1 1 1 4 0 5 2 2 3 1 0 3 3 1 1 1 3 0 2 2 1 1 1 2 1 0 1 1 5 2 1 2 1 0 2 2 0 1 2 1 1 1 0 0 2 0 0 1 1 0 2 1 3 4 1 1 0 1 1 1 0 1 0 0 3 1 0 1 0 0 1 1 0 0 0 1 0 0 0 0 0 1 0 2 0 2 0 1 0 1 0 0 4 1 0 1 1 3 1 1 0 2 2 1 0 3 0 1 1 1 1 1 0 2 0 3 1 0 1 3 0 0 1 0 2 1 2 1 1 2 2 2 2 0 1 1 0 0 0 3 0 1 1 0 0 0 1 0 1 1 0 1 3 2 1 2 1 2 2 2 1 1 0 1 2 2 0 0 1 2 1 3 1 0 1 1 3 3 0 0 1 2 1 0 0 3 1 3 0 2 1 3 2 1 3 4 2 5 0 1 0 3 2 1 5 3 3 2 3 4 0 0 2 2 1 1 1 1 1 2 0 2 1 0 1 3 0 1 1 3 1 2 3 3 1 0 1 3 0 2 3 2 1 2 1 3 3 1 1 1 2 2 1 1 4 2 1 1 1 1 3 3 1 1 0 1 0 2 1 2 3 0 0 1 1 0 2 3 1 0 2 2 0 1 2 1 1 1 2 1 0 0 3 2 1 0 0 0 3 1 0 2 1 3 3 2 1 4 1 2 7 3 2 3 2 1 3 3 1 1 1 0 0 0 2 3 1 2 0 0 3 3 1 2 2 0 0 1 2 2 2 2 1 2 2 1 1 0 2 0 1 2 1 0 0 0 1 0 1 2 0 3 0 3 1 1 0 2 1 1 3 0 3 0 1 0 1 1 1 4 0 1 1 0 1 2 1 0 1 0 0 1 1 1 1 2 2 3 0 3 0 0 1 2 1 1 6 1 0 2 2 3 2 1 2 5 1 3 3 0 2 1 3 2 5 4 0 2 1 5 0 4 0 3 2 2 2 1 1 1 0 1 2 0 2 0 1 2 3 2 1 4 2 2 2 3 0 1 0 3 1 3 2 2 2 2 1 0 2 3 2 1 0 1 2 0 0 0 2 0 1 1 3 0 2 2 2 3 2 2 1 2 2 3 1 1 2 2 1 0 2 2 2 2 0 0 1 0 0 1 0 0 1 1 1 2 1 1 2 0 0 0 2 1 1 1 0 2 1 2 2 2 0 2 1 1 1 1 2 1 2 1 0 1 0 2 1 0 1 2 1 3 2 2 2 0 2 0 1 0 0 2 2 0 4 2 4 0 2 2 6 1 0 0 1 4 2 3 1 1 1 3 1 0 0 2 4 1 6 2 0 3 0 1 1 1 1 2 1 0 2 0 1 2 2 1 0 0 3 4 1 0 0 2 3 1 0 3 3 1 0 3 3 0 1 1 4 0 0 0 2 1 0 4 0 1 0 2 2 3 0 2 1 2 1 2 1 0 2 4 2 3 0 2 2 1 1 1 1 2 1 1 0 0 0 4 2 1 2 1 1 2 3 3 3 1 1 3 3 0 2 2 1 4 4 2 3 2 2 1 3 1 2 3 2 1 3 5 3 2 3 2 2 2 1 1 1 0 1 1 0 2 2 0 2 0 1 1 0 1 4 1 3 0 0 0 2 1 2 1 0 0 3 1 1 0 0 0 2 1 1 0 1 3 1 1 2 0 0 2 1 2 2 1 2 1 0 1 0 0 1 0 2 1 0 0 4 1 3 1 2 3 1 2 2 0 0 0 1 1 1 4 2 3 2 3 1 4 3 2 2 2 1 3 1 1 2 1 4 1 2 2 3 2 3 2 3 2 0 4 1 2 2 5 6 5 3 2 2 2 1 4 1 1 1 3 2 0 2 3 3 3 0 2 1 1 2 4 4 1 1 1 2 1 2 2 2 3 3 2 2 3 4 1 1 3 2 3 3 1 4 2 1 2 2 3 3 2 1 3 3 3 0 1 2 1 1 1 2 2 1 0 1 3 1 2 2 3 1 2 2 1 1 0 0 4 2 5 5 0 2 1 3 1 1 0 3 2 2 1 3 2 1 1 1 2 0 1 3 0 2 2 1 1 0 1 1 2 0 0 1 0 1 2 1 5 1 3 2 1 2 0 0 0 3 0 3 2 0 2 1 2 1 1 1 1 1 1 0 1 0 5 2 2 0 1 0 2 2 5 4 1 2 3 5 1 2 2 0 1 3 1 2 2 0 0 3 2 1 1 1 2 0 1 0 1 4 3 0 0 2 3 2 3 4 3 1 3 1 1 0 2 1 2 3 1 2 3 3 0 1 2 1 0 1 0 4 3 2 1 2 1 1 5 3 0 2 3 2 3 1 4 0 4 2 2 0 0 1 2 0 1 1 1 1 1 1 1 3 2 0 1 0 1 2 4 2 1 3 2 2 0 1 0 0 1 2 2 2 2 0 1 2 1 2 4 1 2 2 1 2 3 0 3 0 2 1 3 5 1 1 2 1 1 3 1 2 2 1 0 1 5 1 0 3 1 4 1 3 3 2 2 0 0 3 4 1 0 0 4 4 1 1 2 0 1 0 0 2 1 0 3 0 2 1 2 2 0 3 2 2 0 1 2 1 1 0 1 0 1 2 2 1 0 0 1 4 0 1 1 2 3 1 3 4 1 2 3 3 0 3 3 2 0 2 2 4 2 0 2 1 1 1 2 1 3 2 1 1 2 0 3 5 2 3 1 3 1 2 2 1 2 2 1 3 4 1 1 1 4 2 0 3 0 2 2 3 1 2 3 2 1 6 4 1 1 0 0 0 0 5 3 1 3 5 2 0 2 1 3 2 2 0 5 2 5 4 1 3 2 3 0 2 3 1 0 1 0 2 0 0 1 0 2 2 3 2 0 2 1 3 1 3 2 3 3 1 3 1 3 4 2 1 3 0 1 1 1 0 2 3 1 3 2 1 2 1 2 0 1 3 1 0 3 0 2 1 3 3 4 2 2 4 1 3 3 4 1 4 3 2 0 1 2 2 3 0 3 2 4 1 2 2 1 2 1 2 2 0 3 1 3 2 0 4 0 1 2 2 3 0 3 1 2 1 3 0 0 1 7 1 0 1 1 0 0 0 1 2 0 3 2 1 3 2 1 1 2 3 2 2 1 2 1 1 1 2 1 2 1 1 1 0 0 2 0 2 2 1 1 3 3 1 2 2 1 3 4 3 5 1 2 2 2 1 0 3 2 2 2 1 0 2 2 3 0 3 5 3 0 0 0 3 1 1 1 1 2 4 4 1 1 2 3 1 3 1 3 2 2 1 1 0 1 1 3 0 3 2 0 2 0 1 2 2 3 2 0 1 2 1 3 0 2 0 1 1 2 2 1 2 2 1 2 1 3 2 2 3 4 3 2 2 4 2 2 3 2 3 3 2 3 4 2 6 2 0 5 2 2 4 3 3 0 2 2 4 3 0 0 1 2 3 1 5 3 5 6 3 1 1 3 4 3 2 2 2 2 0 2 4 1 1 4 2 1 3 4 2 4 4 3 1 2 1 1 3 0 3 0 1 5 0 2 4 2 2 2 2 0 2 3 7 2 3 5 5 4 3 5 4 2 5 3 1 1 1 2 4 4 3 3 3 6 1 1 3 1 3 2 4 2 1 1 1 2 3 0 2 1 3 4 1 2 2 0 3 3 0 4 1 0 1 4 3 2 1 1 0 1 1 2 1 2 3 1 5 2 4 2 3 2 1 3 2 2 1 0 2 1 1 3 2 3 3 1 3 5 0 2 0 1 2 2 1 3 1 3 2 1 1 1 2 1 3 4 1 0 2 3 1 2 1 1 2 3 1 2 2 1 4 1 3 0 2 0 2 3 1 0 0 1 1 3 0 0 1 2 1 2 1 0 2 1 4 2 1 2 0 3 1 1 3 0 1 4 3 2 2 0 2 2 2 1 1 1 0 0 1 1 0 3 2 2 2 3 1 3 3 5 1 1 3 4 1 2 4 2 2 4 0 3 1 3 2 2 1 3 2 3 4 2 2 4 4 2 2 2 1 1 1 0 4 1 1 1 1 2 2 1 1 4 0 1 2 2 2 4 0 4 1 2 2 1 1 3 2 1 3 1 2 1 2 2 2 2 3 1 2 2 3 0 4 1 1 3 2 2 2 4 0 3 2 1 1 1 4 2 0 1 0 2 1 2 0 1 2 2 1 3 4 1 1 1 1 2 3 0 3 3 2 0 2 2 0 3 0 1 3 3 1 1 1 1 0 2 0 0 1 4 1 2 1 1 3 2 1 2 0 2 1 3 4 6 1 1 3 3 3 1 1 0 2 2 2 0 0 3 2 1 2 2 2 0 3 1 1 1 5 1 3 3 4 0 1 3 1 1 1 3 1 4 5 1 3 0 2 3 4 1 4 1 6 4 1 1 1 1 2 2 2 1 2 3 3 5 2 3 2 3 2 3 2 1 4 3 3 1 1 2 1 3 1 1 1 4 2 2 0 2 0 0 1 3 7 2 2 1 2 2 2 2 2 2 1 1 1 1 2 3 1 3 1 3 3 1 0 1 2 0 2 0 3 0 4 6 0 0 1 3 1 2 2 4 0 3 3 1 3 1 3 0 1 2 2 1 1 2 1 3 0 0 0 3 1 1 3 3 4 2 4 2 1 2 0 2 1 2 0 3 1 2 1 0 4 0 1 1 2 1 3 3 0 3 3 2 0 3 0 5 3 0 1 3 1 0 3 1 3 2 0 2 2 1 2 1 2 1 2 6 2 3 2 2 3 2 3 2 1 4 0 2 3 3 3 2 1 2 0 2 0 2 2 2 3 1 3 1 1 2 1 3 2 5 0 0 2 1 2 3 3 1 2 3 0 0 1 2 0 0 2 1 3 2 2 1 0 4 2 1 3 1 4 0 2 1 2 4 0 1 0 1 2 2 1 2 3 1 2 2 2 1 3 0 4 2 2 2 0 3 0 3 2 3 2 1 2 0 2 1 2 1 1 3 0 2 2 1 2 1 0 3 2 1 6 4 2 3 1 2 0 1 3 3 1 0 0 1 1 1 0 2 2 2 3 3 0 3 1 5 2 3 0 0 5 0 1 4 3 0 4 2 2 2 4 2 2 0 1 0 4 2 1 0 3 1 2 3 2 3 1 3 0 1 4 2 3 1 2 3 2 4 1 2 2 1 5 3 1 1 0 2 2 3 2 1 2 2 0 1 3 1 2 2 2 1 0 1 4 0 2 1 2 3 1 2 2 4 0 3 1 1 0 4 1 3 3 5 1 1 4 0 3 2 3 4 5 1 3 0 3 3 0 3 2 1 2 3 3 1 2 0 3 1 2 1 2 1 2 0 2 2 2 1 2 0 4 3 2 1 1 2 7 0 3 1 2 2 2 1 3 1 4 2 3 1 3 3 2 2 2 3 0 2 4 0 6 0 6 3 1 1 2 1 0 2 1 2 2 3 3 2 2 2 1 2 4 2 1 2 2 0 2 0 3 5 2 2 3 4 1 2 1 4 2 1 1 2 3 0 1 2 0 0 2 1 0 2 0 1 1 1 1 1 2 0 3 1 3 3 3 0 1 1 3 1 1 2 1 0 1 0 1 2 2 2 3 1 1 1 3 0 1 0 2 2 3 0 1 1 0 1 1 0 1 1 2 1 1 1 0 3 1 0 2 1 0 0 1 3 2 2 2 2 1 1 1 2 4 0 2 1 4 2 1 0 0 3 0 0 1 2 3 2 2 3 5 3 1 1 2 1 2 0 2 2 0 1 1 2 1 3 1 3 1 1 1 4 1 2 2 2 1 2 8 1 1 5 5 1 2 2 1 2 4 2 2 3 1 3 1 1 4 3 3 2 3 1 1 2 1 3 5 4 1 0 3 1 0 0 1 0 0 2 2 1 1 2 1 4 0 2 1 0 0 2 1 2 2 5 2 2 2 1 3 1 1 1 4 3 0 0 2 0 3 2 1 0 0 3 3 4 2 0 0 3 1 2 0 1 1 1 3 1 1 2 2 2 3 2 1 0 5 1 2 2 1 2 0 0 2 1 1 2 3 1 1 1 1 3 2 3 1 2 1 1 1 2 2 1 0 
BTB PER SET COUNT: 1 2 2 2 0 0 1 1 2413 0 3 0 1 1 0 1 2 1 1 2 0 1 1 2 1 2 1 3 1463 1 2 2 2 0 5 0 0 1426 3124 0 1 2 8 510 1 1 2 1 3882 2 1 1 2 0 0 2 1433 4389 1 1 1 2 3 3 0 1791 1991 0 2 2 5323 1 1 2 1 1 499 2684 1 1 1 1 1 1745 753 2 1 29 4347 2 676 484 2 2878 2 0 1 13 0 1 12 2 3 994 2 3 1 1 1494 0 1 2 995 2 1 760 1 2 1 0 4 2 2 0 2 1 1 1 5 2 1496 0 1 1 2 1 0 0 1 2 2 7 5 0 2 1 2 2863 1490 2 1 5200 1 2 2 1 0 4 1 1 0 0 0 1 6 4 0 1 4851 2 2 2 2 1 1 0 1 1 977 1 1 4 7306 2 5 2 4 0 1 1 4360 1 1 2 1 6 1 1 0 1 2 1 1 0 0 0 1 1 1 0 0 5 2 1 2 1 0 2 1 0 0 1 1 5 2 0 2 40 0 5 2442 4 1 2 1 5 5 0 1 2 1 0 2 2 5328 5 1 1 4 1 1 1 1 1 0 3387 2 2 2 2 1089 1491 2 3 2 3876 997 0 2 2 2 2 1 2 2 2 1 0 2874 2 2 2 1 1 2 1989 2 1 1 1 0 0 1 2 0 1 49 2 0 1 2 2 1 1 2 2 30 2 1492 997 2 1 2 2 994 0 2 2 1 2 1 1 2 2 0 5 1 15 0 0 1495 0 2 2 2780 1 996 2 996 0 2 0 0 995 996 5 1 1 1 4 1 6 4 2 2 2 1 0 2930 0 0 2 1 2 1163 2 1 0 0 0 44 1 2 0 1 2 2 2 2 17 0 0 1 1426 0 0 2 1 2 1 1 2 2 2 2 0 2894 0 0 2 1492 1 4 1 1 0 1463 3 0 966 0 0 1 2 1 0 18 1 1 92 1 1 5 2 3 17 0 0 1 1490 0 0 1992 2 759 1492 2 1 1 0 0 1004 1493 3 2 1 1 2 1 1 1489 0 0 1 1490 0 1 2 2 2 12 0 1492 2 0 0 2 0 1 22 0 1 1 497 2 1 0 1 1 0 0 2 1 498 0 2 2 0 4 1 4 1 2 2 0 2 1 2 2 0 996 0 0 1 0 2 1 0 0 2 1491 2 6 6 4 0 1 4368 1 1517 1 1 982 1 8 4 1 7 2887 2 4359 1 2 3 1 5326 0 0 20 0 0 1990 2899 1 3437 1 1035 14 2867 4849 2 1490 4 1492 0 1 2 0 2 2 7780 0 1 2 1 0 0 1 5 1509 4348 0 1 3864 2 0 0 2 0 0 1 1 1 0 1 0 0 991 1 1 6 2 0 3 966 2 5 0 2 2 1 0 1 1425 0 1 1 1 2 0 2 2 2 1 2 1 982 0 2 1 14 1 1489 0 2 2 2 2 1 0 3368 1 0 5 3 5 0 1 1 2 1990 1 2873 5 0 0 2 1 2 1 1 1 1493 1 1 0 2866 0 1 1491 7875 3 12 996 2 1 1 995 0 0 1757 2 1 0 1990 996 0 1 4 2 1 0 2 996 2 1 1 1464 2 1 0 998 1 1 1 1472 1471 1489 2 7 0 2 0 2 1 995 0 1 0 0 1 2 0 1 996 0 1463 1 0 2 1 0 1 1 0 1 1 1 0 30 5 2 966 0 1 1 4849 1 1 0 1 2 1 2 1 0 5 1 2 982 0 0 1 3 0 1 2 1489 1 0 1 1 0 2 0 1 1490 1 0 0 2 2 0 0 1 2 2377 2 1 1 2 1 0 0 1099 2862 15 14 0 0 1 1105 0 0 2 17 1099 1 1 0 2 2 1 2 1 1 2 993 0 5 0 2 1 0 4 1 2 0 0 418 14 0 1 0 3 1 2 1 1 1989 1 1 2 1 1493 0 13 0 1489 3 0 1 0 2 0 1 982 2 4 0 2 1 1493 1 5 2 0 0 1 0 0 0 0 2 2184 1 1 0 2 0 1 1 1 4 1 0 4 2 4371 1 3 1 1 0 0 0 1 2 0 0 2 0 1 2 1 1 1113 0 1 1 1 0 0 1 1 2880 0 1 0 3661 31 1001 0 0 1 2 0 1 1 2 36 1 1933 1 5 0 987 0 3 1 17 1 1747 476 2 1 41 3 0 1 1 1 0 1947 2 2 1 2 1 1 1 0 2973 1 1 1 2177 8 2 1 2 512 2 2 4 678 5680 2 2 2 1 1 0 368 5 1 2882 2927 1 2 1492 3 2 513 1 3 1 3 2 1 1012 1 1 2 3 1 2 3 1 1505 0 1 2 1 2 15 1495 8 0 3 1992 0 3417 0 2 4 16 6 1 14 991 1 6334 22 0 2 3 1 1 1 14 1981 2 1 1491 0 0 1 1 0 2 0 1 998 0 2 18 1 2381 17 0 1 735 2 1 377 2 1 5 4 0 1 8 0 2 0 1 2 1489 9 1 1989 1001 3 0 1 8293 0 1 1 1 1 2 2 1 4835 6 17 4 4353 2 22 2 2 1 0 23 1 1 2 2 4377 1 0 238 1 1 1 502 1 1 2 1472 13 2 2 2 1 4 17 2659 2 1 2 1 1 14 2 1 5354 2 2 2 1 5 11 0 1 12 1 0 2 1 0 1 6 1 2 1 3 1 50 3 0 1 1 950 2 1 0 2 0 0 4351 2 1 3 2 1 18 0 1 3887 0 1494 4 1 2 2 3381 2 4358 0 5845 4855 0 2 1 2 0 0 2 3371 0 1 1 3 1243 1 0 0 502 2900 2 1 2 0 0 1 4354 1 2905 2 2 0 9 0 1 3 1499 5360 1 1483 0 0 1 2 2 22 0 2 990 2 1 1 1 0 2889 1 983 0 1 2 6301 17 1 2 2 0 2 1497 3432 2 4384 5 2 0 0 13 2862 1983 1 2 2 1 1 2880 2 12 1 1 1 1 2 7772 982 4832 0 0 2 1 1 4 2 1001 0 0 1 2 1474 2 0 17 1 8 1 2 1 1993 0 1 1 0 1496 4 0 2 1 4347 2 1 1 2 2 2 2 0 2862 2 1 0 1493 1 1 2 4 1 8 0 2 1 1 1 2 1 5 1105 2 1 2 0 1 9 0 2 2 0 2 1 1 2 2 3 0 5 0 1 1 2 2 3 1 1 1 1 2406 1 277 2 1 3 0 1 1 1 4348 1 2 1 1 1 2 0 1 1491 2 12 1 20 3 1 1 2 2 997 1 1 1 18 0 3346 2 2 1492 1 0 1492 1121 3 1 2 1471 0 2 2 2 1 3 9 3 0 2 1 18 2 1 3 1 0 2 1464 0 1 1333 1 1 2 0 0 2 0 0 1 1332 0 3 1 1490 1494 1 1 0 1 1 1 0 1 0 0 994 2 0 1 0 0 1 1 0 0 0 1 0 0 0 0 0 1 0 2 0 2 0 1 0 1 0 0 4352 27 0 1 1 3379 1 1 0 2 2 117 0 5 0 1 1 1 1 1 0 2 0 1352 392 0 1 2384 0 0 1 0 2 1 2 1 1 27 2 3 2 0 1 1 0 0 0 12 0 1 1 0 0 0 1 0 1 1 0 1 453 2 1 2 1 2 2 2 3 1 0 1 2 2 0 0 1 3 1 10 1 0 1 1 17 1492 0 0 1 2 1 0 0 761 1 1489 0 2 1 5 2 1 4 1473 2 4337 0 1 0 5 2 1 1997 1494 2878 2 1177 6343 0 0 2 1464 1 1 1 1 1 2 0 2 966 0 1 4 0 1 1 2873 1 3 4 2878 2984 0 1 4372 0 5 15 2 2 2 1 1472 2878 1 1 1 274 2 1 1 2930 2 1 8 1 1 4347 14 1 1 0 2 0 2 1 2 986 0 0 1 1 0 2 14 1 0 2 3 0 1 6 1 1 994 2 1 0 0 1171 2 995 0 0 0 5 513 0 5 1 998 5 5 1 5424 1 2 7315 199 2 16562 995 1 2370 5 16 1 1 0 0 0 2 2921 1 2 0 0 46 761 1 142 2 0 0 1 1464 202 2 2 1 2 2 1 706 0 2 0 1 2 1 0 0 0 641 0 1 4 0 1493 0 994 1 1 0 2 1 8 1341 0 1489 0 1 0 1 1 1 4855 0 1 494 0 1 2 1 0 1 0 0 966 1 1 1 2 2 4358 0 17 0 0 1 2 1463 1 2946 1 0 2 2 1242 2 3 2 2449 1 1656 1488 0 3 1 1493 240 3896 1574 0 2 1 4546 0 4936 0 130 1478 2 2 1 1 1 0 1 2 0 2 0 1 3 1435 2 1 2449 398 2 3 1473 0 1 0 512 1 1493 2 2 2 2 1 0 2 4399 2 1 0 1 2 0 0 0 2 0 1 1 5 0 3 2 2 1493 3 2 1 2 2 4 1 1 2 2 1 0 2 2 2 2 0 0 1 0 0 1 0 0 1 1 1 2 1 1 2 0 0 0 2 1 1 1 0 3 1 2 2 156 0 2 2 1 1 1 2 1 2 1 0 1 0 2 1 0 1 2 1 6 2 2 2 0 2 0 1 0 0 2 2 0 1980 1465 1504 0 2 2 2472 1 0 0 1 32 2 5 1 3 1 1471 1 0 0 2 15 6 4860 2 0 2869 0 1 1 1 1 3 1 0 2 0 1 3 2 1 0 0 1489 4367 1 0 0 2 1492 1 0 1489 1492 1 0 1471 12 0 1 1 1479 0 0 0 2 1 0 1492 0 1 0 2 2 4 0 2 1 210 1 2 1 0 2 1528 2 9 0 2 2 1 1 1 1 2 1 1 0 0 0 1989 2 1 3 1 1 2 1480 4352 12 2 1 10 11 0 3 2 1 1986 18 2 5 3 2 2926 5 1 2 4 2 1 1492 6801 5 2 5 2 2 2 1 1 1 0 1 1 0 2 3 0 2 0 2 1 0 1 6 1 1034 0 0 0 2 1 2 1 0 0 5 1 1 0 0 0 3 1 1 0 1 1489 1 1 2 0 0 2 1 2 2 2 2 1 0 1 0 0 1 0 9 1 0 0 4383 1 1496 1 2 228 1 2 3 0 0 0 1 1 1 4407 3 5 3 4 1 985 4 2 2 2 1 176 1 1 2 1 512 1 2 2 4 2 1349 2 1495 2 0 1494 1 2 2 1538 3141 1661 1426 2 1933 2 1 2863 1 1 1 7 2 0 2 5 1490 5 0 2 1 1 2 6 8 1 1 1 2 1 3 2 2 1493 11 2 2 3 2410 1 2 5 2 2897 988 1 3377 2 1 2 2 11 4 2 1 3 102 5 0 1 2 1 2 1 2 2 1 0 1 2932 1 2 2 5 1 3 2 1 1 0 0 1990 2 2662 1706 0 2 1 3 1 1 0 5 2 2 1 4 3 1 5 1 2 0 1463 5 0 2 2 1 1 0 1 1 2 0 0 1 0 1 2 1 1990 1 1425 2 1 2 0 0 0 982 0 2880 2 0 4 1 3 1 1 1 1 2 2 0 1 0 9 2 2 0 1 0 2 2 1497 773 1 3 4 2902 2 2 2 0 1 133 1 2 2 0 0 516 2 1 1 1 2 0 1 0 2 1494 9 0 0 2 953 2 4 519 4 1 1490 1 1 0 2 1 2 40 1 3 761 179 0 2 2 1 0 1 0 1264 1431 2 1 3 1 1 1496 1492 0 2 14 2 15 1 7 0 742 2 2 0 0 1 1464 0 1 1 1 1 1 1 1 1379 2 0 1 0 1 2 1990 2 966 5 131 2 0 1 0 0 1 3 2 2 6 0 1 3 138 2 22 1 2 2 2 2 1493 0 4 0 2 1 5 1755 1 1 3 1 1 997 1 2 3 1 0 1 1494 1 0 982 1 1984 1 17 202 2 2 0 0 13 2963 1 0 0 722 3367 2 1 2 0 1 0 0 3 1 0 15 0 2 1 2 2 0 16 8 3 0 1 2 19 1 0 1 0 1 2 2 1 0 0 1 22 0 1 1 2 12 1 5 1480 1 2 12 1486 0 1473 12 2 0 2 2 20 2 0 3 1 1 1 2 1 12 6 1 1 2 0 5 2975 2 17 1 976 1 2 2 1 2 2 1 4 1986 1 1 1 1497 2 0 1474 0 3 2 18 1 2 1425 2 1 3861 1982 41 1 0 0 0 0 2477 1425 1 1493 2002 2 0 2 2 5 2 2 0 44 4 1429 763 1 17 2 983 0 2 1491 1 0 1 0 2 0 0 1 0 2 500 1493 2 0 2 1 8 1 2883 2 4373 1492 1 995 1 5 1491 2 1 17 0 1 1 1 0 2 13 1 10 3 1 2 1 2 0 1 994 1 0 12 0 2 1 1491 7 3923 4 2 996 1 5 14 1491 1 1610 1492 2 0 1 2 2 9 0 998 2 4376 2 2 2 2 4 1 3 2 0 13 1 10 44 0 1499 0 1 3 2 12 0 982 1 2 1 14 0 0 1 3447 1 0 1 1 0 0 0 1 2 0 9 2 1 2875 2 1 1 3 1434 2 2 1 2 1 1 1 2 1 2 512 1 1 0 0 2 0 3 2 1 1 2892 2877 1 2 2 1 15 1497 995 2875 1 4 2 2 1 0 1144 2 5 2 1 0 2 2 10 0 2913 4885 17 0 0 0 5 1 1 1 1 2 3198 1932 1 1 2 12 3 17 3 2002 3 2 1 2 0 1 2 13 0 4 2 0 2 0 1 2 3 996 2 0 1 2 1 1492 0 2 0 1 1 8 4 1 3 2 1 2 1 2862 1466 2 511 1011 5 2 3 2986 3 2 13 2 4 14 2 1465 5829 2 6841 2 0 3387 967 2 4851 997 1435 0 2 2 3885 2893 0 0 1 2 1909 1 5335 32 3369 2200 1493 1 1 5 2251 4 2 2 2 2 0 2 1495 1 1 1990 3 1 40 503 2 19 2152 1426 1 2 1 1 2863 0 1489 0 1 4372 0 2 1505 2 2 4 2 0 2 1472 2016 2 1498 3900 2896 1489 1492 2767 765 3 2000 952 1 1 1 2 1499 1482 1488 4 4 4850 1 1 1237 1 1025 2 1493 2 1 1 1 2 2878 0 3 1 4 4886 1 2 2 0 5 1493 0 2922 1 0 1 51 995 499 1 1 0 1 1 2 1 3 14 1 2486 2 41 2 1471 2 1 4 2 2 1 0 2 1 1 5 2 995 5 1 1100 3161 0 2 0 1 2 2 1 5 1 5 2 1 1 1 2 1 12 992 7 0 2 14 1 2 2 2 2 14 1 3 2 1 1990 1 2408 0 2 0 2 1465 1 0 0 1 1 997 0 0 1 2 1 2 1 0 2 1 1986 2 1 2 0 998 1 1 1492 0 1 1490 111 2 2 0 2 2 2 1 1 1 0 0 1 1 0 1000 2 2 2 1489 1 1490 996 1994 1 1 2878 1021 1 2 1983 2 3 1493 0 1472 1 995 2 2 1 996 2 996 2201 2 2 4351 1989 2 2 2 1 1 1 0 4886 1 2 1 1 3 2 1 1 4977 0 1 3 3 2 43 0 4233 1 2 2 1 1 14 2 1 1801 2 2 1 3 2 2 3 982 1 2 2 1469 0 1554 1 1 341 2 2 2 3364 0 17 2 1 1 1 1976 2 0 1 0 3 1 2 0 1 2 2 1 5 16 1 1 1 1 2 10 0 1472 18 2 0 2 2 0 5 0 1 17 17 2 1 1 1 0 2 0 0 1 352 1 2 1 1 1490 2 1 3 0 2 1 4363 3885 6824 4 1 3395 2840 1489 1 1 0 2 3 2 0 0 1494 2 1 2 3 2 0 2861 1 1 1 5450 1 17 14 1580 0 1 1493 1 1 1 1494 1 1990 4884 966 2897 0 2 1495 2232 1 1963 1 2493 987 1 1 1 1 2 3 2 1 2 5 996 1496 2 1490 2 581 2 1493 8 1 1578 1493 995 1 1 2 1 1492 1 1 1 1005 2 2 0 2 0 0 1 1492 6823 2 2 1 2 2 3 3 2 2 1 1 1 1 2 5 1 5 1 1493 997 1 0 1 2 0 3 0 92 0 763 1993 0 0 1 1493 966 2 2 4866 0 983 1035 1 996 1 1005 0 1 3 2 1 1 2 1 1471 0 0 0 907 1 1 1473 1491 3362 2 3896 2 1 2 0 2 1 2 0 1490 1 2 1 0 3849 0 1 1 3 1 5 628 0 1492 5 2 0 5 0 3372 4 0 1 16 1 0 5 1 4 2 0 2 3 1 2 1 3 1 2 3873 2 4353 5 2 4353 2 782 2 1 7 0 3 5 4 1946 2 1 2 0 3 0 2 2 2 784 1 1493 981 1 12 1 982 2 3426 0 0 3 1 2 17 14 1 2 21479 0 0 1 2 0 0 2 1 128 262 2 1 0 35 2 1 2371 1 1495 0 2 1 2 1992 0 1 0 1 2 2 1 2 30 1 2 2 3 1 5 0 4343 2 2 3 0 5 0 1493 2 1489 2 1 2 0 2 1 2 3 1 4 0 2 2 1 2 1 0 1425 2 1 3404 1493 2 5 1 2 0 1 1477 968 2 0 0 1 1 1 0 2 2 2 17 5 0 951 1 1747 2 2861 0 0 1990 0 1 2507 995 0 1989 2 2 2 1495 2 2 0 1 0 1494 2 1 0 996 1 2 4 4 1003 1 15 0 1 1855 2 1422 1 2 5 2 4371 1 2 2 1 3857 5 1 367 0 1464 2 12 225 1 2 2 0 1 17 1 2 2 2 1 0 1 1155 0 2 1 3 983 1 499 2 3904 0 2914 1 1 0 3891 1 3883 997 2987 1 1 4354 0 995 2 998 1991 1991 1 4378 0 6 1474 0 502 2 1 2 5 4 1 2 0 1490 1 368 1463 2 1 2 0 2 2 2 1 2 0 1471 1770 2 1 1 2 4417 0 2464 1 2 2 2 1 982 1 1855 2 1490 1 1493 5 5 2 2 1472 0 2 1990 0 6304 0 2968 4 1 1 2 1 0 2 1 2 2 1493 2371 2 2 2 1 2 1494 2 1 2 2 0 2 0 508 4328 967 2 1493 2914 1 2 1 1743 2 1 1 2 1171 0 1 2 0 0 2 1 0 2 0 2 1 1 1 1 4 0 2371 1 1489 1472 5 0 1 1 5 1 1 3 1 0 1 0 1 2 2 2 4 1 1 1 492 0 1 0 2 2 1000 0 1 1 0 1 1 0 1 1 2 1 1 1 0 78 1 0 2 1 0 0 1 5 2 2 2 2 1 1 1 2 1789 0 2 1 2863 2 1 0 0 5 0 0 1 2 5 2 984 5 3379 1493 1 1 2 1 2 0 2 3 0 1 1 2 1 2873 1 1493 1 2 1 2482 1 2 2 2 1 2 4339 1 1 2242 1474 1 2 2 1 2 2737 2 2 1382 1 2697 1 1 6 5 986 2 919 1 1 2 1 4 2029 996 1 0 2864 1 0 0 1 0 0 3 2 1 1 2 1 1000 0 9 1 0 0 2 1 2 2 2923 3 2 2 1 2004 1 3 1 999 1028 0 0 2 0 997 2 1 0 0 1002 4353 14 2 0 0 764 1 2 0 1 1 1 5 1 1 2 2 2 12 2 2 0 1997 1 2 6 1 2 0 0 3 6 1 2 4 1 1 1 1 4368 2 9 1 3 1 1 1 7 2 1 0 
