
*** ChampSim Multicore Out-of-Order Simulator ***

Warmup Instructions: 50000000
Simulation Instructions: 50000000
Number of CPUs: 1
LLC sets: 2048
LLC ways: 16
Off-chip DRAM Size: 4096 MB Channels: 1 Width: 64-bit Data Rate: 6400 MT/s
CPU 0 runs ./micro_traces/srv178.trace.gz
.gz
ITLB has LRU replacement policy
DTLB has LRU replacement policy
STLB has LRU replacement policy
FDIP Prefetcher at L1I
L1I has LRU replacement policy
L1D has LRU replacement policy
Initialize SRRIP state for L2C
Initialize DRRIP state for LLC
Heartbeat_Variant_0 : 1103 0.269287 per_variant_size: 0 1103 0 0 0 0 0 0 0 
Heartbeat_Variant_1 : 2344 0.572266 per_variant_size: 0 414 1930 0 0 0 0 0 0 
Heartbeat_Variant_2 : 0 0 per_variant_size: 0 0 0 0 0 0 0 0 0 
Heartbeat_Variant_3 : 0 0 per_variant_size: 0 0 0 0 0 0 0 0 0 
Heartbeat_Variant_0_evicts 0 : 21919 1 : 18481 2 : 0 3 : 0 
Heartbeat_Variant_1_evicts 0 : 18534 1 : 0 2 : 0 3 : 0 
Heartbeat_Variant_2_evicts 0 : 0 1 : 0 2 : 0 3 : 0 
Heartbeat_Variant_3_evicts 0 : 0 1 : 0 2 : 0 3 : 0 
Heartbeat CPU 0 instructions: 10000003 cycles: 2797715 heartbeat IPC: 3.57435 cumulative IPC: 3.57435 (Simulation time: 0 hr 3 min 42 sec) 
Heartbeat_Variant_0 : 1090 0.266113 per_variant_size: 0 1090 0 0 0 0 0 0 0 
Heartbeat_Variant_1 : 2401 0.586182 per_variant_size: 0 406 1995 0 0 0 0 0 0 
Heartbeat_Variant_2 : 0 0 per_variant_size: 0 0 0 0 0 0 0 0 0 
Heartbeat_Variant_3 : 0 0 per_variant_size: 0 0 0 0 0 0 0 0 0 
Heartbeat_Variant_0_evicts 0 : 21950 1 : 18503 2 : 0 3 : 0 
Heartbeat_Variant_1_evicts 0 : 18527 1 : 0 2 : 0 3 : 0 
Heartbeat_Variant_2_evicts 0 : 0 1 : 0 2 : 0 3 : 0 
Heartbeat_Variant_3_evicts 0 : 0 1 : 0 2 : 0 3 : 0 
Heartbeat CPU 0 instructions: 20000001 cycles: 5593451 heartbeat IPC: 3.57687 cumulative IPC: 3.57561 (Simulation time: 0 hr 5 min 46 sec) 
Heartbeat_Variant_0 : 1119 0.273193 per_variant_size: 0 1119 0 0 0 0 0 0 0 
Heartbeat_Variant_1 : 2375 0.579834 per_variant_size: 0 403 1972 0 0 0 0 0 0 
Heartbeat_Variant_2 : 0 0 per_variant_size: 0 0 0 0 0 0 0 0 0 
Heartbeat_Variant_3 : 0 0 per_variant_size: 0 0 0 0 0 0 0 0 0 
Heartbeat_Variant_0_evicts 0 : 22146 1 : 18478 2 : 0 3 : 0 
Heartbeat_Variant_1_evicts 0 : 18449 1 : 0 2 : 0 3 : 0 
Heartbeat_Variant_2_evicts 0 : 0 1 : 0 2 : 0 3 : 0 
Heartbeat_Variant_3_evicts 0 : 0 1 : 0 2 : 0 3 : 0 
Heartbeat CPU 0 instructions: 30000000 cycles: 8389892 heartbeat IPC: 3.57597 cumulative IPC: 3.57573 (Simulation time: 0 hr 8 min 4 sec) 
Heartbeat_Variant_0 : 1110 0.270996 per_variant_size: 0 1110 0 0 0 0 0 0 0 
Heartbeat_Variant_1 : 2384 0.582031 per_variant_size: 0 395 1989 0 0 0 0 0 0 
Heartbeat_Variant_2 : 0 0 per_variant_size: 0 0 0 0 0 0 0 0 0 
Heartbeat_Variant_3 : 0 0 per_variant_size: 0 0 0 0 0 0 0 0 0 
Heartbeat_Variant_0_evicts 0 : 22029 1 : 18203 2 : 0 3 : 0 
Heartbeat_Variant_1_evicts 0 : 18212 1 : 0 2 : 0 3 : 0 
Heartbeat_Variant_2_evicts 0 : 0 1 : 0 2 : 0 3 : 0 
Heartbeat_Variant_3_evicts 0 : 0 1 : 0 2 : 0 3 : 0 
Heartbeat CPU 0 instructions: 40000003 cycles: 11187724 heartbeat IPC: 3.5742 cumulative IPC: 3.57535 (Simulation time: 0 hr 10 min 1 sec) 
Heartbeat_Variant_0 : 1092 0.266602 per_variant_size: 0 1092 0 0 0 0 0 0 0 
Heartbeat_Variant_1 : 2404 0.586914 per_variant_size: 0 421 1983 0 0 0 0 0 0 
Heartbeat_Variant_2 : 0 0 per_variant_size: 0 0 0 0 0 0 0 0 0 
Heartbeat_Variant_3 : 0 0 per_variant_size: 0 0 0 0 0 0 0 0 0 
Heartbeat_Variant_0_evicts 0 : 22637 1 : 18988 2 : 0 3 : 0 
Heartbeat_Variant_1_evicts 0 : 19006 1 : 0 2 : 0 3 : 0 
Heartbeat_Variant_2_evicts 0 : 0 1 : 0 2 : 0 3 : 0 
Heartbeat_Variant_3_evicts 0 : 0 1 : 0 2 : 0 3 : 0 
Heartbeat CPU 0 instructions: 50000000 cycles: 13984232 heartbeat IPC: 3.57589 cumulative IPC: 3.57546 (Simulation time: 0 hr 12 min 8 sec) 

Warmup complete CPU 0 instructions: 50000004 cycles: 13984233 (Simulation time: 0 hr 12 min 8 sec) 

Cycle: 20000000 FTQ IN: 56670583 FTQ occupancy: 18.1489 DECODE IN: 56670488 DECODE occupancy: 46.5242 ROB IN: 56670428 ROB occupancy: 281.986 ROB OUT: 56670343
Heartbeat_Variant_0 : 1127 0.275146 per_variant_size: 0 1127 0 0 0 0 0 0 0 
Heartbeat_Variant_1 : 2471 0.603271 per_variant_size: 0 433 2038 0 0 0 0 0 0 
Heartbeat_Variant_2 : 0 0 per_variant_size: 0 0 0 0 0 0 0 0 0 
Heartbeat_Variant_3 : 0 0 per_variant_size: 0 0 0 0 0 0 0 0 0 
Heartbeat_Variant_0_evicts 0 : 22243 1 : 18819 2 : 0 3 : 0 
Heartbeat_Variant_1_evicts 0 : 18809 1 : 0 2 : 0 3 : 0 
Heartbeat_Variant_2_evicts 0 : 0 1 : 0 2 : 0 3 : 0 
Heartbeat_Variant_3_evicts 0 : 0 1 : 0 2 : 0 3 : 0 
Heartbeat CPU 0 instructions: 60000000 cycles: 22893044 heartbeat IPC: 1.12248 cumulative IPC: 1.12248 (Simulation time: 0 hr 14 min 4 sec) 
Cycle: 30000000 FTQ IN: 11530583 FTQ occupancy: 6.7586 DECODE IN: 11530678 DECODE occupancy: 14.9792 ROB IN: 11530734 ROB occupancy: 128.255 ROB OUT: 11530819
Heartbeat_Variant_0 : 1119 0.273193 per_variant_size: 0 1119 0 0 0 0 0 0 0 
Heartbeat_Variant_1 : 2479 0.605225 per_variant_size: 0 448 2031 0 0 0 0 0 0 
Heartbeat_Variant_2 : 0 0 per_variant_size: 0 0 0 0 0 0 0 0 0 
Heartbeat_Variant_3 : 0 0 per_variant_size: 0 0 0 0 0 0 0 0 0 
Heartbeat_Variant_0_evicts 0 : 22500 1 : 18953 2 : 0 3 : 0 
Heartbeat_Variant_1_evicts 0 : 18961 1 : 0 2 : 0 3 : 0 
Heartbeat_Variant_2_evicts 0 : 0 1 : 0 2 : 0 3 : 0 
Heartbeat_Variant_3_evicts 0 : 0 1 : 0 2 : 0 3 : 0 
Heartbeat CPU 0 instructions: 70000003 cycles: 31573063 heartbeat IPC: 1.15207 cumulative IPC: 1.13709 (Simulation time: 0 hr 15 min 48 sec) 
Cycle: 40000000 FTQ IN: 11401816 FTQ occupancy: 6.96004 DECODE IN: 11401779 DECODE occupancy: 15.4133 ROB IN: 11401783 ROB occupancy: 129.452 ROB OUT: 11401637
Heartbeat_Variant_0 : 1123 0.27417 per_variant_size: 0 1123 0 0 0 0 0 0 0 
Heartbeat_Variant_1 : 2483 0.606201 per_variant_size: 0 431 2052 0 0 0 0 0 0 
Heartbeat_Variant_2 : 0 0 per_variant_size: 0 0 0 0 0 0 0 0 0 
Heartbeat_Variant_3 : 0 0 per_variant_size: 0 0 0 0 0 0 0 0 0 
Heartbeat_Variant_0_evicts 0 : 21966 1 : 18360 2 : 0 3 : 0 
Heartbeat_Variant_1_evicts 0 : 18358 1 : 0 2 : 0 3 : 0 
Heartbeat_Variant_2_evicts 0 : 0 1 : 0 2 : 0 3 : 0 
Heartbeat_Variant_3_evicts 0 : 0 1 : 0 2 : 0 3 : 0 
Heartbeat CPU 0 instructions: 80000001 cycles: 40340403 heartbeat IPC: 1.1406 cumulative IPC: 1.13825 (Simulation time: 0 hr 17 min 41 sec) 
Heartbeat_Variant_0 : 1142 0.278809 per_variant_size: 0 1142 0 0 0 0 0 0 0 
Heartbeat_Variant_1 : 2464 0.601562 per_variant_size: 0 420 2044 0 0 0 0 0 0 
Heartbeat_Variant_2 : 0 0 per_variant_size: 0 0 0 0 0 0 0 0 0 
Heartbeat_Variant_3 : 0 0 per_variant_size: 0 0 0 0 0 0 0 0 0 
Heartbeat_Variant_0_evicts 0 : 22152 1 : 18524 2 : 0 3 : 0 
Heartbeat_Variant_1_evicts 0 : 18505 1 : 0 2 : 0 3 : 0 
Heartbeat_Variant_2_evicts 0 : 0 1 : 0 2 : 0 3 : 0 
Heartbeat_Variant_3_evicts 0 : 0 1 : 0 2 : 0 3 : 0 
Heartbeat CPU 0 instructions: 90000000 cycles: 48956626 heartbeat IPC: 1.1606 cumulative IPC: 1.14376 (Simulation time: 0 hr 19 min 28 sec) 
Cycle: 50000000 FTQ IN: 11626571 FTQ occupancy: 6.89008 DECODE IN: 11626579 DECODE occupancy: 15.3654 ROB IN: 11626579 ROB occupancy: 130.411 ROB OUT: 11626677
Heartbeat_Variant_0 : 1141 0.278564 per_variant_size: 0 1141 0 0 0 0 0 0 0 
Heartbeat_Variant_1 : 2478 0.60498 per_variant_size: 0 428 2050 0 0 0 0 0 0 
Heartbeat_Variant_2 : 0 0 per_variant_size: 0 0 0 0 0 0 0 0 0 
Heartbeat_Variant_3 : 0 0 per_variant_size: 0 0 0 0 0 0 0 0 0 
Heartbeat_Variant_0_evicts 0 : 21893 1 : 18278 2 : 0 3 : 0 
Heartbeat_Variant_1_evicts 0 : 18283 1 : 0 2 : 0 3 : 0 
Heartbeat_Variant_2_evicts 0 : 0 1 : 0 2 : 0 3 : 0 
Heartbeat_Variant_3_evicts 0 : 0 1 : 0 2 : 0 3 : 0 
Heartbeat CPU 0 instructions: 100000002 cycles: 57718188 heartbeat IPC: 1.14135 cumulative IPC: 1.14328 (Simulation time: 0 hr 21 min 27 sec) 
Finished CPU 0 instructions: 50000001 cycles: 43733956 cumulative IPC: 1.14328 (Simulation time: 0 hr 21 min 27 sec) 

ChampSim completed all CPUs

Region of Interest Statistics

CPU 0 cumulative IPC: 1.14328 instructions: 50000001 cycles: 43733956
 Fetch stage stalled: 70.1382  Sim cycles: 43733956 fetch stall cycle: 30674225
 Empty decode stage: 58.3274  Sim cycles: 43733956 fetch stall cycle: 25508881
ITLB TOTAL     ACCESS:    5616899  HIT:    5121331  MISS:     495568  HIT %:    91.1772  MISS %:     8.8228   MPKI: 9.91136
ITLB LOAD TRANSLATION INSTRUCTION	ACCESS:    5511954  HIT:    5016386  MISS:     495568  HIT %:    91.0092  MISS %:    8.99079  MPKI: 9.91136
ITLB TRANSLATION FROM L1D PREFETCHER INSTRUCTION	ACCESS:     104945  HIT:     104945  MISS:          0  HIT %:        100  MISS %:          0  MPKI: 0

ITLB AVERAGE MISS LATENCY: 9.0733 cycles
ITLB RQ	ACCESS:    7455967	FORWARD:          0	MERGED:    1344034	TO_CACHE:    6111933

DTLB TOTAL     ACCESS:    9285570  HIT:    8809572  MISS:     475998  HIT %:    94.8738  MISS %:    5.12621   MPKI: 9.51996
DTLB LOAD TRANSLATION DATA	ACCESS:    9285570  HIT:    8809572  MISS:     475998  HIT %:    94.8738  MISS %:    5.12621  MPKI: 9.51996

DTLB AVERAGE MISS LATENCY: 9.34964 cycles
DTLB RQ	ACCESS:   13579245	FORWARD:          0	MERGED:    4258988	TO_CACHE:    9320257

STLB TOTAL     ACCESS:    1218190  HIT:    1215579  MISS:       2611  HIT %:    99.7857  MISS %:   0.214334   MPKI: 0.05222
STLB LOAD TRANSLATION INSTRUCTION	ACCESS:     495568  HIT:     495016  MISS:        552  HIT %:    99.8886  MISS %:   0.111387  MPKI: 0.01104
STLB LOAD TRANSLATION DATA	ACCESS:     475863  HIT:     473839  MISS:       2024  HIT %:    99.5747  MISS %:   0.425333  MPKI: 0.04048
STLB TRANSLATION FROM L1D PREFETCHER DATA	ACCESS:     246759  HIT:     246724  MISS:         35  HIT %:    99.9858  MISS %:  0.0141839  MPKI: 0.0007

STLB AVERAGE MISS LATENCY: 67.707 cycles
STLB RQ	ACCESS:    1336825	FORWARD:          0	MERGED:     118593	TO_CACHE:    1218232

STLB Hit, L1D data hit: 0
STLB Hit, L2C data hit: 0
STLB Hit, LLC data hit: 0
STLB Hit, LLC data miss: 0
STLB STLB hints to L2: 0
L1D TOTAL     ACCESS:   13337633  HIT:   12220204  MISS:    1117429  HIT %:     91.622  MISS %:    8.37802   MPKI: 22.3486
L1D LOAD DATA	ACCESS:    6763921  HIT:    6028516  MISS:     735405  HIT %:    89.1275  MISS %:    10.8725  MPKI: 14.7081
L1D RFO DATA	ACCESS:    6246874  HIT:    5958652  MISS:     288222  HIT %:    95.3861  MISS %:    4.61386  MPKI: 5.76444
L1D PREFETCH DATA	ACCESS:     326838  HIT:     233036  MISS:      93802  HIT %:    71.3002  MISS %:    28.6998  MPKI: 1.87604

L1D PREFETCH  REQUESTED:     730844  ISSUED:     730844  USEFUL:      33725  USELESS:      67601
L1D USEFUL LOAD PREFETCHES:      33725 PREFETCH ISSUED TO LOWER LEVEL:     101396  ACCURACY: 33.2607
 TIMELY PREFETCHES:      33725 LATE PREFETCHES: 7529 DROPPED PREFETCHES: 13
L1D AVERAGE MISS LATENCY: 241190 cycles
L1D RQ	ACCESS:   10872704	FORWARD:          0	MERGED:    3909884	TO_CACHE:    6796484
L1D WQ	ACCESS:    6958357	FORWARD:     166662	MERGED:     175596	TO_CACHE:    6782761
L1D PQ	ACCESS:     365585	FORWARD:          0	MERGED:          0	TO_CACHE:     365259

L1D UNIQUE REGIONS ACCESSED: 0
L1D REGIONS CONFLICTS: 0
L1D Cross Page Prefetch Requests: 6143
L1D Same Page Prefetch Requests: 743376
L1D ROI Sum of L1D PQ occupancy: 4655674
L1D PREFETCHES PUSHED FROM L2C: 0
L1I TOTAL     ACCESS:    6950297  HIT:    4179707  MISS:    2770590  HIT %:    60.1371  MISS %:    39.8629   MPKI: 55.4118
L1I LOAD INSTRUCTION	ACCESS:    6457615  HIT:    3687025  MISS:    2770590  HIT %:    57.0958  MISS %:    42.9042  MPKI: 55.4118
L1I PREFETCH INSTRUCTION	ACCESS:     492682  HIT:     492682  MISS:          0  HIT %:        100  MISS %:          0  MPKI: 0

L1I PREFETCH  REQUESTED:    1098480  ISSUED:    1098480  USEFUL:          0  USELESS:          0
L1I USEFUL LOAD PREFETCHES:          0 PREFETCH ISSUED TO LOWER LEVEL:          0  ACCURACY: -nan
 TIMELY PREFETCHES:          0 LATE PREFETCHES: 0 DROPPED PREFETCHES: 0
L1I AVERAGE MISS LATENCY: 16.7388 cycles
L1I RQ	ACCESS:    9451819	FORWARD:          0	MERGED:    2781832	TO_CACHE:    6669987
L1I PQ	ACCESS:    1098480	FORWARD:          0	MERGED:     312500	TO_CACHE:     785980

L1BTB TOTAL     ACCESS:    5667637  HIT:    2031285  MISS:    3636352  HIT %:    35.8401  MISS %:    64.1599   MPKI: 72.727
L1BTB BRANCH_DIRECT_JUMP	ACCESS:     548633 HIT:     144530 MISS:     404103 AVERAGE STALL: 35.3677 AVERAGE FETCH STALL: 18.621 AVERAGE FETCH QUEUE STALL: 8.34193 AVERAGE DECODE STALL: 7.60723 AVERAGE EXECUTE STALL: 3.76926e+14
L1BTB BRANCH_INDIRECT	ACCESS:     182860 HIT:      65755 MISS:     117105 AVERAGE STALL: 93.2093 AVERAGE FETCH STALL: 14.8033 AVERAGE FETCH QUEUE STALL: 8.04284 AVERAGE DECODE STALL: 7.20912 AVERAGE EXECUTE STALL: 62.2137
L1BTB BRANCH_CONDITIONAL	ACCESS:    2702146 HIT:    1407401 MISS:    1294745 AVERAGE STALL: 35.4514 AVERAGE FETCH STALL: 21.5788 AVERAGE FETCH QUEUE STALL: 6.002 AVERAGE DECODE STALL: 7.12445 AVERAGE EXECUTE STALL: 1.64168e+14
L1BTB BRANCH_DIRECT_CALL	ACCESS:     945272 HIT:     104024 MISS:     841248 AVERAGE STALL: 37.9515 AVERAGE FETCH STALL: 21.358 AVERAGE FETCH QUEUE STALL: 7.90299 AVERAGE DECODE STALL: 7.93374 AVERAGE EXECUTE STALL: 1.0656e+14
L1BTB BRANCH_INDIRECT_CALL	ACCESS:     171743 HIT:      20900 MISS:     150843 AVERAGE STALL: 114.622 AVERAGE FETCH STALL: 18.345 AVERAGE FETCH QUEUE STALL: 5.48127 AVERAGE DECODE STALL: 6.8158 AVERAGE EXECUTE STALL: 83.4506
L1BTB BRANCH_RETURN	ACCESS:    1116983 HIT:     288675 MISS:     828308 AVERAGE STALL: 37.286 AVERAGE FETCH STALL: 18.2715 AVERAGE FETCH QUEUE STALL: 5.92785 AVERAGE DECODE STALL: 6.3554 AVERAGE EXECUTE STALL: 1.87488e+14
L1BTB BRANCH_OTHER ACCESS:          0 HIT:          0 MISS:          0 AVERAGE STALL: -nan AVERAGE FETCH STALL: -nan AVERAGE FETCH QUEUE STALL: -nan AVERAGE DECODE STALL: -nan AVERAGE EXECUTE STALL: -nan
L1BTB TOTAL ROB OCCUPANCY AT BTB MISS: 14.1959

L2BTB TOTAL     ACCESS:    3610925  HIT:    3140460  MISS:     470465  HIT %:    86.9711  MISS %:    13.0289   MPKI: 9.4093
L2BTB BRANCH_DIRECT_JUMP	ACCESS:     399953 HIT:     355123 MISS:      44830 AVERAGE STALL: 35.3677 AVERAGE FETCH STALL: 18.621 AVERAGE FETCH QUEUE STALL: 8.34193 AVERAGE DECODE STALL: 7.60723 AVERAGE EXECUTE STALL: 3.76926e+14
L2BTB BRANCH_INDIRECT	ACCESS:     106776 HIT:      97610 MISS:       9166 AVERAGE STALL: 93.2093 AVERAGE FETCH STALL: 14.8033 AVERAGE FETCH QUEUE STALL: 8.04284 AVERAGE DECODE STALL: 7.20912 AVERAGE EXECUTE STALL: 62.2137
L2BTB BRANCH_CONDITIONAL	ACCESS:    1294745 HIT:    1181683 MISS:     113062 AVERAGE STALL: 35.4514 AVERAGE FETCH STALL: 21.5788 AVERAGE FETCH QUEUE STALL: 6.002 AVERAGE DECODE STALL: 7.12445 AVERAGE EXECUTE STALL: 1.64168e+14
L2BTB BRANCH_DIRECT_CALL	ACCESS:     841248 HIT:     668040 MISS:     173208 AVERAGE STALL: 37.9515 AVERAGE FETCH STALL: 21.358 AVERAGE FETCH QUEUE STALL: 7.90299 AVERAGE DECODE STALL: 7.93374 AVERAGE EXECUTE STALL: 1.0656e+14
L2BTB BRANCH_INDIRECT_CALL	ACCESS:     141302 HIT:     108150 MISS:      33152 AVERAGE STALL: 114.622 AVERAGE FETCH STALL: 18.345 AVERAGE FETCH QUEUE STALL: 5.48127 AVERAGE DECODE STALL: 6.8158 AVERAGE EXECUTE STALL: 83.4506
L2BTB BRANCH_RETURN	ACCESS:     826901 HIT:     729854 MISS:      97047 AVERAGE STALL: 37.286 AVERAGE FETCH STALL: 18.2715 AVERAGE FETCH QUEUE STALL: 5.92785 AVERAGE DECODE STALL: 6.3554 AVERAGE EXECUTE STALL: 1.87488e+14
L2BTB BRANCH_OTHER ACCESS:          0 HIT:          0 MISS:          0 AVERAGE STALL: -nan AVERAGE FETCH STALL: -nan AVERAGE FETCH QUEUE STALL: -nan AVERAGE DECODE STALL: -nan AVERAGE EXECUTE STALL: -nan
L2BTB TOTAL ROB OCCUPANCY AT BTB MISS: 109.724

L2C TOTAL     ACCESS:    4494889  HIT:    4078579  MISS:     416310  HIT %:    90.7381  MISS %:    9.26185   MPKI: 8.3262
L2C LOAD INSTRUCTION	ACCESS:    2770590  HIT:    2559646  MISS:     210944  HIT %:    92.3863  MISS %:    7.61369  MPKI: 4.21888
L2C LOAD TRANSLATION INSTRUCTION	ACCESS:        604  HIT:        232  MISS:        372  HIT %:    38.4106  MISS %:    61.5894  MPKI: 0.00744
L2C LOAD DATA	ACCESS:     727855  HIT:     656325  MISS:      71530  HIT %:    90.1725  MISS %:    9.82751  MPKI: 1.4306
L2C RFO DATA	ACCESS:     288140  HIT:     238749  MISS:      49391  HIT %:    82.8587  MISS %:    17.1413  MPKI: 0.98782
L2C PREFETCH DATA	ACCESS:     180512  HIT:     111037  MISS:      69475  HIT %:    61.5123  MISS %:    38.4877  MPKI: 1.3895
L2C WRITEBACK DATA	ACCESS:     524989  HIT:     511927  MISS:      13062  HIT %:    97.5119  MISS %:    2.48805  MPKI: 0.26124
L2C LOAD TRANSLATION DATA	ACCESS:       2135  HIT:        615  MISS:       1520  HIT %:    28.8056  MISS %:    71.1944  MPKI: 0.0304
L2C TRANSLATION FROM L1D PREFETCHER DATA	ACCESS:         64  HIT:         48  MISS:         16  HIT %:         75  MISS %:         25  MPKI: 0.00032

L2C PREFETCH  REQUESTED:      86832  ISSUED:      86832  USEFUL:       7682  USELESS:      62162
L2C USEFUL LOAD PREFETCHES:       7682 PREFETCH ISSUED TO LOWER LEVEL:      69816  ACCURACY: 11.0032
 TIMELY PREFETCHES:       7682 LATE PREFETCHES: 341 DROPPED PREFETCHES: 0
L2C AVERAGE MISS LATENCY: 40.9567 cycles
L2C RQ	ACCESS:    3789427	FORWARD:          0	MERGED:          0	TO_CACHE:    3789390
L2C WQ	ACCESS:     524989	FORWARD:         37	MERGED:          0	TO_CACHE:     524989
L2C PQ	ACCESS:     188228	FORWARD:          0	MERGED:       3755	TO_CACHE:     184473

L2C Dense regions hint from L2: 0
PSCL5 TOTAL     ACCESS:       5256  HIT:       2628  MISS:       2628  HIT %:         50  MISS %:         50   MPKI: 0.05256
PSCL5 LOAD TRANSLATION INSTRUCTION	ACCESS:       5128  HIT:       2564  MISS:       2564  HIT %:         50  MISS %:         50  MPKI: 0.05128
PSCL5 TRANSLATION FROM L1D PREFETCHER INSTRUCTION	ACCESS:        128  HIT:         64  MISS:         64  HIT %:         50  MISS %:         50  MPKI: 0.00128


PSCL4 TOTAL     ACCESS:       3372  HIT:       1680  MISS:       1692  HIT %:    49.8221  MISS %:    50.1779   MPKI: 0.03384
PSCL4 LOAD TRANSLATION INSTRUCTION	ACCESS:       2383  HIT:       1639  MISS:        744  HIT %:    68.7789  MISS %:    31.2211  MPKI: 0.01488
PSCL4 TRANSLATION FROM L1D PREFETCHER INSTRUCTION	ACCESS:         63  HIT:         41  MISS:         22  HIT %:    65.0794  MISS %:    34.9206  MPKI: 0.00044
PSCL4 LOAD TRANSLATION DATA	ACCESS:        907  HIT:          0  MISS:        907  HIT %:          0  MISS %:        100  MPKI: 0.01814
PSCL4 TRANSLATION FROM L1D PREFETCHER DATA	ACCESS:         19  HIT:          0  MISS:         19  HIT %:          0  MISS %:        100  MPKI: 0.00038


PSCL3 TOTAL     ACCESS:       5021  HIT:       2500  MISS:       2521  HIT %:    49.7909  MISS %:    50.2091   MPKI: 0.05042
PSCL3 LOAD TRANSLATION INSTRUCTION	ACCESS:       3439  HIT:       2452  MISS:        987  HIT %:    71.2998  MISS %:    28.7002  MPKI: 0.01974
PSCL3 TRANSLATION FROM L1D PREFETCHER INSTRUCTION	ACCESS:         65  HIT:         48  MISS:         17  HIT %:    73.8462  MISS %:    26.1538  MPKI: 0.00034
PSCL3 LOAD TRANSLATION DATA	ACCESS:       1486  HIT:          0  MISS:       1486  HIT %:          0  MISS %:        100  MPKI: 0.02972
PSCL3 TRANSLATION FROM L1D PREFETCHER DATA	ACCESS:         31  HIT:          0  MISS:         31  HIT %:          0  MISS %:        100  MPKI: 0.00062


PSCL2 TOTAL     ACCESS:       5110  HIT:       2482  MISS:       2628  HIT %:    48.5714  MISS %:    51.4286   MPKI: 0.05256
PSCL2 LOAD TRANSLATION INSTRUCTION	ACCESS:       2975  HIT:       2418  MISS:        557  HIT %:    81.2773  MISS %:    18.7227  MPKI: 0.01114
PSCL2 TRANSLATION FROM L1D PREFETCHER INSTRUCTION	ACCESS:         64  HIT:         64  MISS:          0  HIT %:        100  MISS %:          0  MPKI: 0
PSCL2 LOAD TRANSLATION DATA	ACCESS:       2007  HIT:          0  MISS:       2007  HIT %:          0  MISS %:        100  MPKI: 0.04014
PSCL2 TRANSLATION FROM L1D PREFETCHER DATA	ACCESS:         64  HIT:          0  MISS:         64  HIT %:          0  MISS %:        100  MPKI: 0.00128


LLC TOTAL     ACCESS:     474504  HIT:     443053  MISS:      31451  HIT %:    93.3718  MISS %:    6.62818   MPKI: 0.62902
LLC LOAD INSTRUCTION	ACCESS:     210944  HIT:     209614  MISS:       1330  HIT %:    99.3695  MISS %:   0.630499  MPKI: 0.0266
LLC LOAD TRANSLATION INSTRUCTION	ACCESS:        372  HIT:        329  MISS:         43  HIT %:    88.4409  MISS %:    11.5591  MPKI: 0.00086
LLC LOAD DATA	ACCESS:      71203  HIT:      67417  MISS:       3786  HIT %:    94.6828  MISS %:    5.31719  MPKI: 0.07572
LLC RFO DATA	ACCESS:      49372  HIT:      33892  MISS:      15480  HIT %:    68.6462  MISS %:    31.3538  MPKI: 0.3096
LLC PREFETCH DATA	ACCESS:      69816  HIT:      59507  MISS:      10309  HIT %:     85.234  MISS %:     14.766  MPKI: 0.20618
LLC WRITEBACK DATA	ACCESS:      71261  HIT:      70838  MISS:        423  HIT %:    99.4064  MISS %:   0.593593  MPKI: 0.00846
LLC LOAD TRANSLATION DATA	ACCESS:       1520  HIT:       1440  MISS:         80  HIT %:    94.7368  MISS %:    5.26316  MPKI: 0.0016
LLC TRANSLATION FROM L1D PREFETCHER DATA	ACCESS:         16  HIT:         16  MISS:          0  HIT %:        100  MISS %:          0  MPKI: 0

LLC AVERAGE MISS LATENCY: 155.806 cycles
LLC RQ	ACCESS:     333432	FORWARD:          0	MERGED:          0	TO_CACHE:     333427
LLC WQ	ACCESS:      71262	FORWARD:          5	MERGED:          0	TO_CACHE:      71262
LLC PQ	ACCESS:      69816	FORWARD:          0	MERGED:          0	TO_CACHE:      69816

LLC Dense regions hint to LLC: 0

RAW hits: 1772156
Loads Generated: 12644860
Loads sent to L1D: 10872704
Stores Generated: 6958351
Stores sent to L1D: 6958357
Major fault: 0 Minor fault: 2646
Allocated PAGES: 2646

stream: 
stream:times selected: 1179094
stream:pref_filled: 121367
stream:pref_useful: 23728
stream:pref_late: 6567
stream:misses: 6863
stream:misses_by_poll: 0

CS: 
CS:times selected: 175762
CS:pref_filled: 59810
CS:pref_useful: 36359
CS:pref_late: 6406
CS:misses: 15835
CS:misses_by_poll: 4

CPLX: 
CPLX:times selected: 1002345
CPLX:pref_filled: 18938
CPLX:pref_useful: 4226
CPLX:pref_late: 2958
CPLX:misses: 90032
CPLX:misses_by_poll: 0

NL_L1: 
NL:times selected: 20056
NL:pref_filled: 585
NL:pref_useful: 233
NL:pref_late: 193
NL:misses: 1074
NL:misses_by_poll: 0

total selections: 2377257
total_filled: 93802
total_useful: 33725
total_late: 17414
total_polluted: 4
total_misses_after_warmup: 767969
conflicts: 5627474

test: 115283

DRAM Statistics
 CHANNEL 0
 RQ ROW_BUFFER_HIT:      11845  ROW_BUFFER_MISS:      19175
 DBUS_CONGESTED:         11
 WQ ROW_BUFFER_HIT:       1593  ROW_BUFFER_MISS:      13164  FULL:          0

 AVG_CONGESTED_CYCLE: 5

CPU 0 Branch Prediction Accuracy: 99.8088% MPKI: 0.3495 Average ROB Occupancy at Mispredict: 133.553
Branch types
NOT_BRANCH: 40858069 81.7161%
BRANCH_DIRECT_JUMP: 548633 1.09727%
BRANCH_INDIRECT: 182860 0.36572%
BRANCH_CONDITIONAL: 6175962 12.3519%
BRANCH_DIRECT_CALL: 945272 1.89054%
BRANCH_INDIRECT_CALL: 171743 0.343486%
BRANCH_RETURN: 1116983 2.23397%
BRANCH_OTHER: 0 0%

DRAM PAGES: 1048576
Allocated PAGES: 2646
Average_ROB_Occupancy: 130.374
Average_Decode_Occupancy: 15.2818
Average_FTQ_Occupancy: 6.8974
Indirect max targets: 14 Average targets: 1.17778
Branch_type:  BRANCH_DIRECT_JUMP:  Count Percentage: 3.30499 5.44852 4.87371 7.1683 3.47564 6.01704 1.74866 67.9631 
Branch_type:  BRANCH_INDIRECT:  Count Percentage: 6.13629 3.39484 8.16914 9.6806 3.34783 2.81086 3.88344 62.577 
Branch_type:  BRANCH_CONDITIONAL:  Count Percentage: 25.0858 2.46298 2.26188 4.07741 2.33052 4.14494 2.74646 56.89 
Branch_type:  BRANCH_DIRECT_CALL:  Count Percentage: 0.388846 1.27446 0.734298 3.50994 3.15204 2.93523 3.32609 84.6791 
Branch_type:  BRANCH_INDIRECT_CALL:  Count Percentage: 9.574 0 3.0021 0.000874738 0 2.57727 5.00058 79.8452 
Branch_type:  BRANCH_RETURN:  Count Percentage: 7.90705 1.82136 1.14603 3.49522 3.99379 4.57765 3.58495 73.4739 
Branch_type:  BRANCH_DIRECT_JUMP:  Total Count: 36275 59802 53493 78678 38148 66042 19193 745951 
Branch_type:  BRANCH_INDIRECT:  Total Count: 22455 12423 29894 35425 12251 10286 14211 228993 
Branch_type:  BRANCH_CONDITIONAL:  Total Count: 3098226 304191 279354 503581 287831 511922 339202 7026213 
Branch_type:  BRANCH_DIRECT_CALL:  Total Count: 7339 24054 13859 66246 59491 55399 62776 1598218 
Branch_type:  BRANCH_INDIRECT_CALL:  Total Count: 32835 0 10296 3 0 8839 17150 273837 
Branch_type:  BRANCH_RETURN:  Total Count: 176421 40638 25570 77985 89109 102136 79987 1639341 
Number of unique branch instructions: 10788
Upper 32 bits: 
aaaa
ffff
ffff0000
Unique upper 32 bits: 3
Unique upper 36 bits: 3
Unique upper 40 bits: 5
Unique upper 44 bits: 32
Unique upper 48 bits: 158
Variant_0 : 1141 0.278564
Variant_1 : 2478 0.60498
Variant_2 : 0 0
Variant_3 : 0 0
Offset_3 4463
Offset_4 257
Offset_5 482
Offset_6 538
Offset_7 641
Offset_8 578
Offset_9 520
Offset_10 422
Offset_11 350
Offset_12 326
Offset_13 237
Offset_14 248
Offset_15 187
Offset_16 232
Offset_17 168
Offset_18 153
Offset_19 261
Offset_20 140
Offset_21 235
Offset_22 416
Offset_23 241
Offset_24 351
Offset_25 117
Offset_47 94
Offset_64 1
decode_dispatch_called: 20070730 45.8928
Dispatch_width: 0 9963794 49.6434 22.7827
Dispatch_width: 1 559448 2.78738 1.27921
Dispatch_width: 2 664692 3.31175 1.51985
Dispatch_width: 3 427069 2.12782 0.976516
Dispatch_width: 4 1795145 8.94409 4.10469
Dispatch_width: 5 314423 1.56657 0.718945
Dispatch_width: 6 6346159 31.619 14.5108
Empty_decode_cycles: 23663226 54.1072
ROB_full_cycles: 2697916 6.16893
Starvation_cycles_per_kilo_instr: 346.899
Starvation_cycles_per_kilo_instr_3: 325.803
Starvation_cycles_per_kilo_instr_0: 309.291
Branch_type_1  (3,1)  (4,9)  (5,39)  (6,73)  (7,126)  (8,149)  (9,136)  (10,111)  (11,79)  (12,55)  (13,11)  (14,2)  (15,3)  (16,4)  (18,1)  (19,5)  (20,2)  (21,1)  (22,3)  (23,2)  (24,10)  (25,12) 
Branch_type_2  (3,1)  (4,1)  (5,1)  (8,4)  (9,4)  (10,1)  (12,1)  (13,1)  (14,1)  (16,3)  (17,2)  (20,2)  (21,2)  (23,5)  (24,1)  (47,43) 
Branch_type_3  (3,4461)  (4,247)  (5,438)  (6,449)  (7,486)  (8,359)  (9,285)  (10,170)  (11,138)  (12,62)  (13,10)  (64,1) 
Branch_type_4  (6,3)  (7,8)  (8,25)  (9,56)  (10,67)  (11,68)  (12,116)  (13,100)  (14,112)  (15,88)  (16,102)  (17,78)  (18,67)  (19,128)  (20,71)  (21,124)  (22,221)  (23,136)  (24,206)  (25,101) 
Branch_type_5  (8,3)  (9,1)  (10,4)  (11,5)  (12,3)  (13,14)  (14,16)  (15,11)  (16,22)  (17,11)  (18,23)  (19,14)  (20,11)  (21,13)  (22,43)  (23,26)  (24,38) 
Branch_type_6  (5,4)  (6,13)  (7,21)  (8,38)  (9,38)  (10,69)  (11,60)  (12,89)  (13,101)  (14,117)  (15,85)  (16,101)  (17,77)  (18,62)  (19,114)  (20,54)  (21,95)  (22,149)  (23,72)  (24,96)  (25,4)  (47,51) 
Unique trigger count: 
Variant_0_evicts_0 : 0
Variant_0_evicts_1 : 0
Variant_0_evicts_2 : 0
Variant_0_evicts_3 : 0
Variant_1_evicts_0 : 0
Variant_1_evicts_1 : 0
Variant_1_evicts_2 : 0
Variant_1_evicts_3 : 0
Variant_2_evicts_0 : 0
Variant_2_evicts_1 : 0
Variant_2_evicts_2 : 0
Variant_2_evicts_3 : 0
Variant_3_evicts_0 : 0
Variant_3_evicts_1 : 0
Variant_3_evicts_2 : 0
Variant_3_evicts_3 : 0
BTB PER SET UNIQUE ADDR: 6 7 6 5 3 5 7 9 10 2 5 2 8 5 4 4 6 4 8 9 5 8 8 8 8 11 1 6 6 6 11 10 6 5 8 4 4 7 7 3 8 5 7 10 9 9 6 12 11 6 5 3 13 2 2 7 5 5 9 8 4 12 5 8 6 9 9 9 6 7 6 2 6 5 6 7 6 15 6 5 9 6 7 6 6 8 7 8 8 10 10 9 9 6 8 5 10 8 5 6 8 7 9 9 7 8 7 8 7 5 7 7 4 8 6 11 3 8 6 2 8 9 4 3 6 4 4 7 11 8 11 3 11 6 9 6 5 3 6 8 8 8 7 6 4 10 5 8 12 8 7 14 6 10 6 9 8 9 6 11 11 8 11 5 12 8 3 4 13 7 5 4 8 7 4 3 6 8 10 5 6 8 10 8 9 11 6 6 6 8 6 8 6 7 6 10 12 4 10 5 4 6 8 4 8 4 5 8 7 2 3 6 9 8 7 6 3 9 7 6 6 4 6 7 6 8 14 7 3 11 14 9 3 5 7 9 11 4 4 5 5 3 10 8 17 10 2 7 6 6 9 9 6 7 5 13 4 8 11 6 8 5 7 4 9 16 7 5 7 5 7 7 4 8 10 8 7 3 4 8 9 5 10 5 9 9 7 7 8 4 5 7 4 10 7 4 6 10 6 6 6 6 5 4 6 5 6 4 13 9 7 4 8 4 6 5 10 14 7 6 7 11 5 8 5 6 6 10 3 3 9 2 6 7 10 5 7 8 8 1 6 6 2 9 7 7 3 8 10 6 5 13 11 6 8 7 7 2 8 5 7 10 6 8 11 8 4 4 4 4 8 4 6 5 8 4 11 7 6 10 9 7 6 12 6 4 8 5 8 4 9 5 8 4 7 4 5 5 2 9 7 5 8 7 5 6 9 6 5 3 5 4 12 7 2 6 8 4 2 7 2 6 7 7 10 9 4 2 4 8 4 4 16 6 8 10 6 6 7 4 6 6 10 4 7 9 6 7 5 4 6 3 5 3 9 3 5 8 9 6 5 4 7 11 5 5 12 3 5 7 2 6 10 7 4 3 10 5 4 3 5 2 3 4 3 7 8 3 7 2 13 4 4 8 1 12 5 7 6 4 11 3 5 3 2 5 6 3 5 6 8 4 8 11 3 5 2 11 6 9 7 5 8 6 11 9 6 10 9 8 8 6 6 8 5 7 7 1 6 4 5 8 11 4 9 5 10 14 14 11 7 9 7 8 2 6 9 3 7 4 10 5 9 5 5 6 10 10 11 7 8 4 11 12 7 7 6 12 3 10 13 5 2 6 5 3 3 15 8 6 8 9 4 7 6 5 9 5 6 5 13 5 11 12 9 6 4 9 8 5 8 8 8 7 8 5 7 5 5 7 9 6 11 4 5 10 8 8 4 6 8 7 7 7 7 9 6 7 6 4 11 8 4 6 3 3 7 8 8 8 7 5 10 3 5 4 11 5 6 8 12 3 6 11 8 8 7 6 6 11 7 8 6 7 11 10 8 6 8 6 9 12 9 6 8 8 7 9 8 6 3 8 3 5 5 7 10 7 7 9 3 12 6 5 7 12 3 4 5 5 7 8 6 5 5 7 11 6 1 8 5 3 5 4 4 3 3 9 2 11 8 11 8 2 7 8 10 3 6 4 5 8 5 10 4 5 6 4 7 7 6 3 4 7 2 5 5 10 9 4 5 6 6 7 7 6 14 6 6 4 9 6 0 5 7 5 6 10 4 3 9 6 4 6 10 9 9 8 3 9 3 9 6 7 6 13 12 5 6 4 13 4 8 4 7 7 7 9 5 7 3 4 6 5 5 6 1 5 5 10 7 4 9 4 5 6 6 4 7 6 7 3 7 4 10 6 4 5 6 5 5 5 7 6 5 8 9 6 6 4 8 8 6 9 6 11 8 5 7 6 7 7 4 4 14 7 6 8 10 10 4 7 6 10 7 2 2 6 7 4 5 7 6 7 10 5 7 5 5 7 9 3 5 8 6 3 9 13 5 3 12 9 5 6 10 7 7 11 6 9 10 7 5 4 3 10 6 7 8 6 9 7 10 6 9 8 7 5 5 13 6 4 11 10 6 8 10 10 3 9 8 9 6 4 6 8 9 7 9 6 9 4 13 7 5 6 9 13 6 9 6 5 11 5 3 9 10 9 10 5 3 5 3 9 12 6 8 5 4 7 13 6 4 5 5 7 4 5 9 8 8 7 7 11 5 11 6 11 4 6 5 5 6 4 7 6 7 6 7 7 9 4 9 6 10 5 9 5 3 8 11 6 14 5 
BTB PER SET COUNT: 9 7 6 5 3 5 8 1978 5415 2 5 2 1487 5 4 6 7 4 38 3440 5 9 9 85 4918 2634 1 7 1475 6 3926 1414 1473 5 13 6 2943 7 10 3 35 5 10 2729 2487 15 6 4578 4503 6 5 3 10307 2 2 1473 7 5 1000 1554 5 2944 5 42 7 1243 379 33 6 743 743 2 6 5 8 7 495 6877 13 5 931 6 743 6 985 13 7 112 8087 2125 1735 519 2947 8 15 8 2701 19 5 6 23 13 21 3180 9 27 10 1966 1963 5 1964 9 4 1751 6 4621 3 8 6 2 8 38 4 5 497 5 5 21 7326 12 2005 3 8829 9 2957 6 5 3 6 1971 18 18 8 6 6 838 7 8 2857 2456 10 6858 6 10064 12 929 11 1968 7 1367 4794 43 4371 5 1994 2953 3 4 10521 9 5 4 26 162 5 3 6 500 2055 5 6 8 5434 9 27 6876 13 8 2946 18 6 3108 6 11 6 57 1023 5 40 5 5 6 8 5 11 4 5 2741 13 2 4 7 140 9 10 7 4 829 10 6 6 4 6 474 6 1979 5563 3270 5 4788 8257 979 3 5 22 2455 2431 5 4 5 5 4 6377 13 8617 4916 2 7 12 8 892 4027 6 8 5 2914 5 8 2461 9 2159 5 7 4 2210 6966 1965 5 1974 7 1845 9 5 1960 1005 747 8 3 6 2460 33 5 1291 5 2699 2945 7 499 26 4 5 7 497 2468 2940 14 9 3924 6 6 6 7 5 4 6 5 6 4 4284 1609 14 4 2140 4 6 6 993 3869 1479 8 11 1353 5 12 9 6 6 1272 4 3 2226 2 8 8 5414 6 1479 11 227 1 6 6 2 2409 987 852 5 10 279 10 5 590 901 985 8 12 12 3 2208 41 10 494 7 1855 1016 903 4 6 5 6 9 12 12 6 28 4 6094 7 6 2119 2459 2450 6 7074 11 4 53 5 11 5 1473 7 2453 6 7 5 1475 7 2 12 11 7 1477 10 752 6 3069 6 5 2814 15 4 1510 10 1469 6 156 4 3 1434 2 6 7 27 1022 58 12 2 4 526 152 4 6645 8 1725 2179 8 6 16 4 6 6 1453 4 16 37 7 1968 5 4 6 3 6 6 1456 3 5 16 765 7 985 4 25 524 31 5 3534 3 5 7 2 20 1902 502 284 3 25870 5 5 3 5 2 3 493 3 536 1728 395 7 2 1176 4 6 1251 1 5584 10 30 6 4 3387 13 12 3 2 5 11 3 9 6 22 5 11 43 5 5 2 11273 8 1478 11 1474 18 427 310 1965 9 993 1011 40 8 6 6 25 6 987 9 1 10 4 6 1963 85 8 43 5 90 2275 3345 7830 9 3969 9 19 2 6 1845 3 7 5 5402 5 1979 7 5 6 1978 19 2479 59 2216 5 2555 5450 1473 1475 8 5407 9 4656 10139 36 3 1472 1475 3 3 6473 19 7 14 2463 4 988 987 8 13 5 8 5 1873 14 4776 1069 11 2934 4 2935 9 7 2946 13 14 7 8 9 2589 5 5 8 24 1401 4423 4 1480 996 39 1976 12 1472 1475 1476 14 10 7 17 7 11 473 4 7371 865 6 7 3 3 13 8 645 10 8 7 8341 3 5 4 1878 5 1475 2941 12708 5 6 5886 9 1487 2975 988 28 1970 990 12 9 10 6726 3080 510 6 2508 6 17 6706 28 985 17654 1500 44 4417 1492 8 3 1250 3 12 5 12 6865 8 8 80 3 2677 6 5 179 4174 3 1475 5 1475 468 8 9 5 984 7 2387 1028 1 1962 11 4 5 4 4 5 3 949 2 6386 1711 3990 992 2 7 509 24 5 6 4 6 559 5 8343 4 6 984 5 7 1454 6 3 4 538 2 5 5 4375 6381 984 5 7 986 53 2948 6 9418 6 13 4 53 6 0 173 7 1474 6 2547 4 3 2449 11 5 6 1992 1833 1004 26 651 991 3 1791 6 14 204 6461 3097 5 7 4 4512 5 1643 6 1988 1477 8 24 5 10 3 4 8 495 7 6 2 5 9 2494 9 4 512 646 7 6 986 4 1475 127 504 3 498 4 8159 7 4 5 6 5 397 5 9 1480 5 29 1011 6 9 4 3430 1534 7 17 9 9798 42 5 1475 16 13 8 4 4 8933 997 13 1982 2457 620 5 8 6 1575 9 2 3 8 8 4 5 10 7 9 3079 9 1480 7 5 8 476 3 5 18 6 4 32 4038 6 3 5104 1890 152 77 805 12 11 3435 6 19 1912 9 5 4 4 489 6 989 4895 1749 48 16 1969 13 795 1574 9 7 5 1140 6 495 3917 1976 9 997 4893 2910 4 3431 775 496 8 983 7 1478 28 496 17 9 3832 4 7130 7 6 6 2024 8345 16 3433 6 495 7375 5 3 924 50 1287 51 5 4 5 3 414 2510 7 998 5 4 8 2643 7 494 5 5 15 4 7 357 8 2919 10 2451 3006 5 2328 6 5402 4 7 6 8 9 4 10 6 984 12 7 9 2960 4 7364 366 3173 8 987 5 3 12 1902 10 3492 5 
To predecode: 0
Predecoding something: 0
Predecode request dropped: 0
sizeofblock_0 0
sizeofblock_1 220526
sizeofblock_2 364781
sizeofblock_3 0
sizeofblock_4 0
sizeofblock_5 0
sizeofblock_6 0
sizeofblock_7 0
sizeofblock_8 0
Variant_0 Correct: 0 Incorrect: 0 Accuracy: -nan
Variant_1 Correct: 0 Incorrect: 0 Accuracy: -nan
Variant_2 Correct: 0 Incorrect: 0 Accuracy: -nan
Variant_3 Correct: 0 Incorrect: 0 Accuracy: -nan
