
*** ChampSim Multicore Out-of-Order Simulator ***

Warmup Instructions: 50000000
Simulation Instructions: 50000000
Number of CPUs: 1
LLC sets: 2048
LLC ways: 16
Off-chip DRAM Size: 4096 MB Channels: 1 Width: 64-bit Data Rate: 6400 MT/s
CPU 0 runs ./micro_traces/srv13.trace.gz
.gz
ITLB has LRU replacement policy
DTLB has LRU replacement policy
STLB has LRU replacement policy
FDIP Prefetcher at L1I
L1I has LRU replacement policy
L1D has LRU replacement policy
Initialize SRRIP state for L2C
Initialize DRRIP state for LLC
Heartbeat_Variant_0 : 626 0.305664 per_variant_size: 0 626 0 0 0 0 0 0 0 
Heartbeat_Variant_1 : 1422 0.694336 per_variant_size: 0 142 1280 0 0 0 0 0 0 
Heartbeat_Variant_2 : 0 0 per_variant_size: 0 0 0 0 0 0 0 0 0 
Heartbeat_Variant_3 : 0 0 per_variant_size: 0 0 0 0 0 0 0 0 0 
Heartbeat_Variant_0_evicts 0 : 30838 1 : 58953 2 : 0 3 : 0 
Heartbeat_Variant_1_evicts 0 : 58941 1 : 0 2 : 0 3 : 0 
Heartbeat_Variant_2_evicts 0 : 0 1 : 0 2 : 0 3 : 0 
Heartbeat_Variant_3_evicts 0 : 0 1 : 0 2 : 0 3 : 0 
Heartbeat CPU 0 instructions: 10000000 cycles: 2796889 heartbeat IPC: 3.5754 cumulative IPC: 3.5754 (Simulation time: 0 hr 2 min 11 sec) 
Heartbeat_Variant_0 : 620 0.302734 per_variant_size: 0 620 0 0 0 0 0 0 0 
Heartbeat_Variant_1 : 1428 0.697266 per_variant_size: 0 175 1253 0 0 0 0 0 0 
Heartbeat_Variant_2 : 0 0 per_variant_size: 0 0 0 0 0 0 0 0 0 
Heartbeat_Variant_3 : 0 0 per_variant_size: 0 0 0 0 0 0 0 0 0 
Heartbeat_Variant_0_evicts 0 : 30935 1 : 59145 2 : 0 3 : 0 
Heartbeat_Variant_1_evicts 0 : 59151 1 : 0 2 : 0 3 : 0 
Heartbeat_Variant_2_evicts 0 : 0 1 : 0 2 : 0 3 : 0 
Heartbeat_Variant_3_evicts 0 : 0 1 : 0 2 : 0 3 : 0 
Heartbeat CPU 0 instructions: 20000001 cycles: 5593610 heartbeat IPC: 3.57562 cumulative IPC: 3.57551 (Simulation time: 0 hr 4 min 23 sec) 
Heartbeat_Variant_0 : 638 0.311523 per_variant_size: 0 638 0 0 0 0 0 0 0 
Heartbeat_Variant_1 : 1410 0.688477 per_variant_size: 0 129 1281 0 0 0 0 0 0 
Heartbeat_Variant_2 : 0 0 per_variant_size: 0 0 0 0 0 0 0 0 0 
Heartbeat_Variant_3 : 0 0 per_variant_size: 0 0 0 0 0 0 0 0 0 
Heartbeat_Variant_0_evicts 0 : 30720 1 : 59690 2 : 0 3 : 0 
Heartbeat_Variant_1_evicts 0 : 59672 1 : 0 2 : 0 3 : 0 
Heartbeat_Variant_2_evicts 0 : 0 1 : 0 2 : 0 3 : 0 
Heartbeat_Variant_3_evicts 0 : 0 1 : 0 2 : 0 3 : 0 
Heartbeat CPU 0 instructions: 30000003 cycles: 8390167 heartbeat IPC: 3.57583 cumulative IPC: 3.57561 (Simulation time: 0 hr 6 min 22 sec) 
Heartbeat_Variant_0 : 611 0.29834 per_variant_size: 0 611 0 0 0 0 0 0 0 
Heartbeat_Variant_1 : 1437 0.70166 per_variant_size: 0 150 1287 0 0 0 0 0 0 
Heartbeat_Variant_2 : 0 0 per_variant_size: 0 0 0 0 0 0 0 0 0 
Heartbeat_Variant_3 : 0 0 per_variant_size: 0 0 0 0 0 0 0 0 0 
Heartbeat_Variant_0_evicts 0 : 30914 1 : 59566 2 : 0 3 : 0 
Heartbeat_Variant_1_evicts 0 : 59593 1 : 0 2 : 0 3 : 0 
Heartbeat_Variant_2_evicts 0 : 0 1 : 0 2 : 0 3 : 0 
Heartbeat_Variant_3_evicts 0 : 0 1 : 0 2 : 0 3 : 0 
Heartbeat CPU 0 instructions: 40000000 cycles: 11187447 heartbeat IPC: 3.5749 cumulative IPC: 3.57544 (Simulation time: 0 hr 8 min 37 sec) 
Heartbeat_Variant_0 : 632 0.308594 per_variant_size: 0 632 0 0 0 0 0 0 0 
Heartbeat_Variant_1 : 1416 0.691406 per_variant_size: 0 126 1290 0 0 0 0 0 0 
Heartbeat_Variant_2 : 0 0 per_variant_size: 0 0 0 0 0 0 0 0 0 
Heartbeat_Variant_3 : 0 0 per_variant_size: 0 0 0 0 0 0 0 0 0 
Heartbeat_Variant_0_evicts 0 : 31118 1 : 59769 2 : 0 3 : 0 
Heartbeat_Variant_1_evicts 0 : 59748 1 : 0 2 : 0 3 : 0 
Heartbeat_Variant_2_evicts 0 : 0 1 : 0 2 : 0 3 : 0 
Heartbeat_Variant_3_evicts 0 : 0 1 : 0 2 : 0 3 : 0 
Heartbeat CPU 0 instructions: 50000001 cycles: 13984329 heartbeat IPC: 3.57541 cumulative IPC: 3.57543 (Simulation time: 0 hr 10 min 42 sec) 

Warmup complete CPU 0 instructions: 50000001 cycles: 13984329 (Simulation time: 0 hr 10 min 42 sec) 

Cycle: 20000000 FTQ IN: 54537981 FTQ occupancy: 17.1185 DECODE IN: 54537973 DECODE occupancy: 43.9088 ROB IN: 54537965 ROB occupancy: 260.714 ROB OUT: 54537965
Heartbeat_Variant_0 : 646 0.31543 per_variant_size: 0 646 0 0 0 0 0 0 0 
Heartbeat_Variant_1 : 1402 0.68457 per_variant_size: 0 145 1257 0 0 0 0 0 0 
Heartbeat_Variant_2 : 0 0 per_variant_size: 0 0 0 0 0 0 0 0 0 
Heartbeat_Variant_3 : 0 0 per_variant_size: 0 0 0 0 0 0 0 0 0 
Heartbeat_Variant_0_evicts 0 : 30642 1 : 59618 2 : 0 3 : 0 
Heartbeat_Variant_1_evicts 0 : 59604 1 : 0 2 : 0 3 : 0 
Heartbeat_Variant_2_evicts 0 : 0 1 : 0 2 : 0 3 : 0 
Heartbeat_Variant_3_evicts 0 : 0 1 : 0 2 : 0 3 : 0 
Heartbeat CPU 0 instructions: 60000000 cycles: 27276606 heartbeat IPC: 0.752316 cumulative IPC: 0.752316 (Simulation time: 0 hr 12 min 12 sec) 
Cycle: 30000000 FTQ IN: 7486818 FTQ occupancy: 3.46048 DECODE IN: 7486684 DECODE occupancy: 6.40136 ROB IN: 7486632 ROB occupancy: 56.2806 ROB OUT: 7486280
Cycle: 40000000 FTQ IN: 7396378 FTQ occupancy: 3.6194 DECODE IN: 7396520 DECODE occupancy: 6.71271 ROB IN: 7396574 ROB occupancy: 57.667 ROB OUT: 7396823
Heartbeat_Variant_0 : 590 0.288086 per_variant_size: 0 590 0 0 0 0 0 0 0 
Heartbeat_Variant_1 : 1458 0.711914 per_variant_size: 0 162 1296 0 0 0 0 0 0 
Heartbeat_Variant_2 : 0 0 per_variant_size: 0 0 0 0 0 0 0 0 0 
Heartbeat_Variant_3 : 0 0 per_variant_size: 0 0 0 0 0 0 0 0 0 
Heartbeat_Variant_0_evicts 0 : 30510 1 : 59385 2 : 0 3 : 0 
Heartbeat_Variant_1_evicts 0 : 59441 1 : 0 2 : 0 3 : 0 
Heartbeat_Variant_2_evicts 0 : 0 1 : 0 2 : 0 3 : 0 
Heartbeat_Variant_3_evicts 0 : 0 1 : 0 2 : 0 3 : 0 
Heartbeat CPU 0 instructions: 70000003 cycles: 40741224 heartbeat IPC: 0.742687 cumulative IPC: 0.747471 (Simulation time: 0 hr 13 min 52 sec) 
Cycle: 50000000 FTQ IN: 7689098 FTQ occupancy: 3.5655 DECODE IN: 7689089 DECODE occupancy: 6.58928 ROB IN: 7689035 ROB occupancy: 58.3139 ROB OUT: 7689063
Heartbeat_Variant_0 : 606 0.295898 per_variant_size: 0 606 0 0 0 0 0 0 0 
Heartbeat_Variant_1 : 1442 0.704102 per_variant_size: 0 166 1276 0 0 0 0 0 0 
Heartbeat_Variant_2 : 0 0 per_variant_size: 0 0 0 0 0 0 0 0 0 
Heartbeat_Variant_3 : 0 0 per_variant_size: 0 0 0 0 0 0 0 0 0 
Heartbeat_Variant_0_evicts 0 : 30354 1 : 58573 2 : 0 3 : 0 
Heartbeat_Variant_1_evicts 0 : 58557 1 : 0 2 : 0 3 : 0 
Heartbeat_Variant_2_evicts 0 : 0 1 : 0 2 : 0 3 : 0 
Heartbeat_Variant_3_evicts 0 : 0 1 : 0 2 : 0 3 : 0 
Heartbeat CPU 0 instructions: 80000002 cycles: 53887794 heartbeat IPC: 0.760655 cumulative IPC: 0.751814 (Simulation time: 0 hr 15 min 32 sec) 
Cycle: 60000000 FTQ IN: 7472840 FTQ occupancy: 3.46022 DECODE IN: 7472849 DECODE occupancy: 6.42606 ROB IN: 7472909 ROB occupancy: 56.2148 ROB OUT: 7472923
Heartbeat_Variant_0 : 602 0.293945 per_variant_size: 0 602 0 0 0 0 0 0 0 
Heartbeat_Variant_1 : 1446 0.706055 per_variant_size: 0 143 1303 0 0 0 0 0 0 
Heartbeat_Variant_2 : 0 0 per_variant_size: 0 0 0 0 0 0 0 0 0 
Heartbeat_Variant_3 : 0 0 per_variant_size: 0 0 0 0 0 0 0 0 0 
Heartbeat_Variant_0_evicts 0 : 30687 1 : 59286 2 : 0 3 : 0 
Heartbeat_Variant_1_evicts 0 : 59290 1 : 0 2 : 0 3 : 0 
Heartbeat_Variant_2_evicts 0 : 0 1 : 0 2 : 0 3 : 0 
Heartbeat_Variant_3_evicts 0 : 0 1 : 0 2 : 0 3 : 0 
Heartbeat CPU 0 instructions: 90000000 cycles: 67362984 heartbeat IPC: 0.742104 cumulative IPC: 0.749363 (Simulation time: 0 hr 17 min 8 sec) 
Cycle: 70000000 FTQ IN: 7405802 FTQ occupancy: 3.66491 DECODE IN: 7405774 DECODE occupancy: 6.88236 ROB IN: 7405774 ROB occupancy: 58.477 ROB OUT: 7405812
Cycle: 80000000 FTQ IN: 7541113 FTQ occupancy: 3.50295 DECODE IN: 7541141 DECODE occupancy: 6.5599 ROB IN: 7541138 ROB occupancy: 57.3174 ROB OUT: 7541161
Heartbeat_Variant_0 : 662 0.323242 per_variant_size: 0 662 0 0 0 0 0 0 0 
Heartbeat_Variant_1 : 1386 0.676758 per_variant_size: 0 135 1251 0 0 0 0 0 0 
Heartbeat_Variant_2 : 0 0 per_variant_size: 0 0 0 0 0 0 0 0 0 
Heartbeat_Variant_3 : 0 0 per_variant_size: 0 0 0 0 0 0 0 0 0 
Heartbeat_Variant_0_evicts 0 : 30712 1 : 59588 2 : 0 3 : 0 
Heartbeat_Variant_1_evicts 0 : 59528 1 : 0 2 : 0 3 : 0 
Heartbeat_Variant_2_evicts 0 : 0 1 : 0 2 : 0 3 : 0 
Heartbeat_Variant_3_evicts 0 : 0 1 : 0 2 : 0 3 : 0 
Heartbeat CPU 0 instructions: 100000001 cycles: 80630617 heartbeat IPC: 0.753714 cumulative IPC: 0.750229 (Simulation time: 0 hr 18 min 40 sec) 
Finished CPU 0 instructions: 50000000 cycles: 66646288 cumulative IPC: 0.750229 (Simulation time: 0 hr 18 min 40 sec) 

ChampSim completed all CPUs

Region of Interest Statistics

CPU 0 cumulative IPC: 0.750229 instructions: 50000000 cycles: 66646288
 Fetch stage stalled: 81.9778  Sim cycles: 66646288 fetch stall cycle: 54635139
 Empty decode stage: 67.3301  Sim cycles: 66646288 fetch stall cycle: 44873000
ITLB TOTAL     ACCESS:    5660751  HIT:    5162598  MISS:     498153  HIT %:    91.1999  MISS %:    8.80012   MPKI: 9.96306
ITLB LOAD TRANSLATION INSTRUCTION	ACCESS:    5586213  HIT:    5088060  MISS:     498153  HIT %:    91.0825  MISS %:    8.91754  MPKI: 9.96306
ITLB TRANSLATION FROM L1D PREFETCHER INSTRUCTION	ACCESS:      74538  HIT:      74538  MISS:          0  HIT %:        100  MISS %:          0  MPKI: 0

ITLB AVERAGE MISS LATENCY: 9.0379 cycles
ITLB RQ	ACCESS:    7142612	FORWARD:          0	MERGED:    1042027	TO_CACHE:    6100585

DTLB TOTAL     ACCESS:   10065993  HIT:    9583520  MISS:     482473  HIT %:    95.2069  MISS %:     4.7931   MPKI: 9.64946
DTLB LOAD TRANSLATION DATA	ACCESS:   10065993  HIT:    9583520  MISS:     482473  HIT %:    95.2069  MISS %:     4.7931  MPKI: 9.64946

DTLB AVERAGE MISS LATENCY: 9.3032 cycles
DTLB RQ	ACCESS:   14145112	FORWARD:          0	MERGED:    4050881	TO_CACHE:   10094231

STLB TOTAL     ACCESS:    1226931  HIT:    1224862  MISS:       2069  HIT %:    99.8314  MISS %:   0.168632   MPKI: 0.04138
STLB LOAD TRANSLATION INSTRUCTION	ACCESS:     498153  HIT:     497906  MISS:        247  HIT %:    99.9504  MISS %:  0.0495832  MPKI: 0.00494
STLB LOAD TRANSLATION DATA	ACCESS:     482131  HIT:     480337  MISS:       1794  HIT %:    99.6279  MISS %:   0.372098  MPKI: 0.03588
STLB TRANSLATION FROM L1D PREFETCHER DATA	ACCESS:     246647  HIT:     246619  MISS:         28  HIT %:    99.9886  MISS %:  0.0113523  MPKI: 0.00056

STLB AVERAGE MISS LATENCY: 71.2325 cycles
STLB RQ	ACCESS:    1350029	FORWARD:          0	MERGED:     123042	TO_CACHE:    1226987

STLB Hit, L1D data hit: 0
STLB Hit, L2C data hit: 0
STLB Hit, LLC data hit: 0
STLB Hit, LLC data miss: 0
STLB STLB hints to L2: 0
L1D TOTAL     ACCESS:   13937857  HIT:   12813005  MISS:    1124852  HIT %:    91.9295  MISS %:    8.07048   MPKI: 22.497
L1D LOAD DATA	ACCESS:    7297341  HIT:    6554304  MISS:     743037  HIT %:    89.8177  MISS %:    10.1823  MPKI: 14.8607
L1D RFO DATA	ACCESS:    6312370  HIT:    6025188  MISS:     287182  HIT %:    95.4505  MISS %:    4.54951  MPKI: 5.74364
L1D PREFETCH DATA	ACCESS:     328146  HIT:     233513  MISS:      94633  HIT %:    71.1613  MISS %:    28.8387  MPKI: 1.89266

L1D PREFETCH  REQUESTED:     738950  ISSUED:     738950  USEFUL:      33604  USELESS:      68900
L1D USEFUL LOAD PREFETCHES:      33604 PREFETCH ISSUED TO LOWER LEVEL:     102531  ACCURACY: 32.7745
 TIMELY PREFETCHES:      33604 LATE PREFETCHES: 7873 DROPPED PREFETCHES: 11
L1D AVERAGE MISS LATENCY: 329398 cycles
L1D RQ	ACCESS:   11264804	FORWARD:          0	MERGED:    3775663	TO_CACHE:    7324964
L1D WQ	ACCESS:    6956492	FORWARD:     164321	MERGED:     136344	TO_CACHE:    6820148
L1D PQ	ACCESS:     369547	FORWARD:          0	MERGED:          0	TO_CACHE:     369403

L1D UNIQUE REGIONS ACCESSED: 0
L1D REGIONS CONFLICTS: 0
L1D Cross Page Prefetch Requests: 6786
L1D Same Page Prefetch Requests: 747086
L1D ROI Sum of L1D PQ occupancy: 4685422
L1D PREFETCHES PUSHED FROM L2C: 0
L1I TOTAL     ACCESS:    6998937  HIT:    4215322  MISS:    2783615  HIT %:     60.228  MISS %:     39.772   MPKI: 55.6723
L1I LOAD INSTRUCTION	ACCESS:    6687164  HIT:    3903549  MISS:    2783615  HIT %:    58.3738  MISS %:    41.6262  MPKI: 55.6723
L1I PREFETCH INSTRUCTION	ACCESS:     311773  HIT:     311773  MISS:          0  HIT %:        100  MISS %:          0  MPKI: 0

L1I PREFETCH  REQUESTED:     548942  ISSUED:     548942  USEFUL:          0  USELESS:          0
L1I USEFUL LOAD PREFETCHES:          0 PREFETCH ISSUED TO LOWER LEVEL:          0  ACCURACY: -nan
 TIMELY PREFETCHES:          0 LATE PREFETCHES: 0 DROPPED PREFETCHES: 0
L1I AVERAGE MISS LATENCY: 16.8557 cycles
L1I RQ	ACCESS:    9454710	FORWARD:          0	MERGED:    2687848	TO_CACHE:    6766862
L1I PQ	ACCESS:     548942	FORWARD:          0	MERGED:     173192	TO_CACHE:     375750

L1BTB TOTAL     ACCESS:    5673008  HIT:    2023894  MISS:    3649114  HIT %:    35.6759  MISS %:    64.3241   MPKI: 72.9823
L1BTB BRANCH_DIRECT_JUMP	ACCESS:     548174 HIT:     142856 MISS:     405318 AVERAGE STALL: 27.6025 AVERAGE FETCH STALL: 18.6582 AVERAGE FETCH QUEUE STALL: 2.93294 AVERAGE DECODE STALL: 5.16428 AVERAGE EXECUTE STALL: 1.11038e+14
L1BTB BRANCH_INDIRECT	ACCESS:     182395 HIT:      65434 MISS:     116961 AVERAGE STALL: 69.3041 AVERAGE FETCH STALL: 16.4155 AVERAGE FETCH QUEUE STALL: 3.34222 AVERAGE DECODE STALL: 5.12849 AVERAGE EXECUTE STALL: 43.4721
L1BTB BRANCH_CONDITIONAL	ACCESS:    2700030 HIT:    1400549 MISS:    1299481 AVERAGE STALL: 28.5067 AVERAGE FETCH STALL: 20.1056 AVERAGE FETCH QUEUE STALL: 2.54601 AVERAGE DECODE STALL: 5.10949 AVERAGE EXECUTE STALL: 3.63986e+13
L1BTB BRANCH_DIRECT_CALL	ACCESS:     948928 HIT:     104672 MISS:     844256 AVERAGE STALL: 29.0278 AVERAGE FETCH STALL: 20.3839 AVERAGE FETCH QUEUE STALL: 2.63884 AVERAGE DECODE STALL: 5.24918 AVERAGE EXECUTE STALL: 4.02853e+13
L1BTB BRANCH_INDIRECT_CALL	ACCESS:     172271 HIT:      21006 MISS:     151265 AVERAGE STALL: 89.0467 AVERAGE FETCH STALL: 18.9461 AVERAGE FETCH QUEUE STALL: 2.56417 AVERAGE DECODE STALL: 5.284 AVERAGE EXECUTE STALL: 61.6899
L1BTB BRANCH_RETURN	ACCESS:    1121210 HIT:     289377 MISS:     831833 AVERAGE STALL: 28.8035 AVERAGE FETCH STALL: 18.4508 AVERAGE FETCH QUEUE STALL: 2.72554 AVERAGE DECODE STALL: 5.26948 AVERAGE EXECUTE STALL: 6.2586e+13
L1BTB BRANCH_OTHER ACCESS:          0 HIT:          0 MISS:          0 AVERAGE STALL: -nan AVERAGE FETCH STALL: -nan AVERAGE FETCH QUEUE STALL: -nan AVERAGE DECODE STALL: -nan AVERAGE EXECUTE STALL: -nan
L1BTB TOTAL ROB OCCUPANCY AT BTB MISS: 20.1918

L2BTB TOTAL     ACCESS:    3623851  HIT:    2099453  MISS:    1524398  HIT %:    57.9343  MISS %:    42.0657   MPKI: 30.488
L2BTB BRANCH_DIRECT_JUMP	ACCESS:     401252 HIT:     239167 MISS:     162085 AVERAGE STALL: 27.6025 AVERAGE FETCH STALL: 18.6582 AVERAGE FETCH QUEUE STALL: 2.93294 AVERAGE DECODE STALL: 5.16428 AVERAGE EXECUTE STALL: 1.11038e+14
L2BTB BRANCH_INDIRECT	ACCESS:     106632 HIT:      82767 MISS:      23865 AVERAGE STALL: 69.3041 AVERAGE FETCH STALL: 16.4155 AVERAGE FETCH QUEUE STALL: 3.34222 AVERAGE DECODE STALL: 5.12849 AVERAGE EXECUTE STALL: 43.4721
L2BTB BRANCH_CONDITIONAL	ACCESS:    1299481 HIT:     790474 MISS:     509007 AVERAGE STALL: 28.5067 AVERAGE FETCH STALL: 20.1056 AVERAGE FETCH QUEUE STALL: 2.54601 AVERAGE DECODE STALL: 5.10949 AVERAGE EXECUTE STALL: 3.63986e+13
L2BTB BRANCH_DIRECT_CALL	ACCESS:     844256 HIT:     386268 MISS:     457988 AVERAGE STALL: 29.0278 AVERAGE FETCH STALL: 20.3839 AVERAGE FETCH QUEUE STALL: 2.63884 AVERAGE DECODE STALL: 5.24918 AVERAGE EXECUTE STALL: 4.02853e+13
L2BTB BRANCH_INDIRECT_CALL	ACCESS:     141815 HIT:      63744 MISS:      78071 AVERAGE STALL: 89.0467 AVERAGE FETCH STALL: 18.9461 AVERAGE FETCH QUEUE STALL: 2.56417 AVERAGE DECODE STALL: 5.284 AVERAGE EXECUTE STALL: 61.6899
L2BTB BRANCH_RETURN	ACCESS:     830415 HIT:     537033 MISS:     293382 AVERAGE STALL: 28.8035 AVERAGE FETCH STALL: 18.4508 AVERAGE FETCH QUEUE STALL: 2.72554 AVERAGE DECODE STALL: 5.26948 AVERAGE EXECUTE STALL: 6.2586e+13
L2BTB BRANCH_OTHER ACCESS:          0 HIT:          0 MISS:          0 AVERAGE STALL: -nan AVERAGE FETCH STALL: -nan AVERAGE FETCH QUEUE STALL: -nan AVERAGE DECODE STALL: -nan AVERAGE EXECUTE STALL: -nan
L2BTB TOTAL ROB OCCUPANCY AT BTB MISS: 48.3352

L2C TOTAL     ACCESS:    4524031  HIT:    4059007  MISS:     465024  HIT %:     89.721  MISS %:     10.279   MPKI: 9.30048
L2C LOAD INSTRUCTION	ACCESS:    2783615  HIT:    2552546  MISS:     231069  HIT %:     91.699  MISS %:    8.30104  MPKI: 4.62138
L2C LOAD TRANSLATION INSTRUCTION	ACCESS:        279  HIT:         67  MISS:        212  HIT %:    24.0143  MISS %:    75.9857  MPKI: 0.00424
L2C LOAD DATA	ACCESS:     735151  HIT:     654347  MISS:      80804  HIT %:    89.0085  MISS %:    10.9915  MPKI: 1.61608
L2C RFO DATA	ACCESS:     287151  HIT:     229238  MISS:      57913  HIT %:    79.8319  MISS %:    20.1681  MPKI: 1.15826
L2C PREFETCH DATA	ACCESS:     190851  HIT:     116138  MISS:      74713  HIT %:    60.8527  MISS %:    39.1473  MPKI: 1.49426
L2C WRITEBACK DATA	ACCESS:     525057  HIT:     506155  MISS:      18902  HIT %:       96.4  MISS %:    3.59999  MPKI: 0.37804
L2C LOAD TRANSLATION DATA	ACCESS:       1875  HIT:        481  MISS:       1394  HIT %:    25.6533  MISS %:    74.3467  MPKI: 0.02788
L2C TRANSLATION FROM L1D PREFETCHER DATA	ACCESS:         52  HIT:         35  MISS:         17  HIT %:    67.3077  MISS %:    32.6923  MPKI: 0.00034

L2C PREFETCH  REQUESTED:      96418  ISSUED:      96418  USEFUL:       9382  USELESS:      65940
L2C USEFUL LOAD PREFETCHES:       9382 PREFETCH ISSUED TO LOWER LEVEL:      75283  ACCURACY: 12.4623
 TIMELY PREFETCHES:       9382 LATE PREFETCHES: 570 DROPPED PREFETCHES: 0
L2C AVERAGE MISS LATENCY: 38.1345 cycles
L2C RQ	ACCESS:    3808144	FORWARD:          0	MERGED:          0	TO_CACHE:    3808126
L2C WQ	ACCESS:     525057	FORWARD:         18	MERGED:          0	TO_CACHE:     525057
L2C PQ	ACCESS:     198949	FORWARD:          0	MERGED:       3550	TO_CACHE:     195399

L2C Dense regions hint from L2: 0
PSCL5 TOTAL     ACCESS:       4166  HIT:       2083  MISS:       2083  HIT %:         50  MISS %:         50   MPKI: 0.04166
PSCL5 LOAD TRANSLATION INSTRUCTION	ACCESS:       4064  HIT:       2032  MISS:       2032  HIT %:         50  MISS %:         50  MPKI: 0.04064
PSCL5 TRANSLATION FROM L1D PREFETCHER INSTRUCTION	ACCESS:        102  HIT:         51  MISS:         51  HIT %:         50  MISS %:         50  MPKI: 0.00102


PSCL4 TOTAL     ACCESS:       3439  HIT:       1713  MISS:       1726  HIT %:     49.811  MISS %:     50.189   MPKI: 0.03452
PSCL4 LOAD TRANSLATION INSTRUCTION	ACCESS:       2053  HIT:       1673  MISS:        380  HIT %:    81.4905  MISS %:    18.5095  MPKI: 0.0076
PSCL4 TRANSLATION FROM L1D PREFETCHER INSTRUCTION	ACCESS:         51  HIT:         40  MISS:         11  HIT %:    78.4314  MISS %:    21.5686  MPKI: 0.00022
PSCL4 LOAD TRANSLATION DATA	ACCESS:       1306  HIT:          0  MISS:       1306  HIT %:          0  MISS %:        100  MPKI: 0.02612
PSCL4 TRANSLATION FROM L1D PREFETCHER DATA	ACCESS:         29  HIT:          0  MISS:         29  HIT %:          0  MISS %:        100  MPKI: 0.00058


PSCL3 TOTAL     ACCESS:       3469  HIT:       1728  MISS:       1741  HIT %:    49.8126  MISS %:    50.1874   MPKI: 0.03482
PSCL3 LOAD TRANSLATION INSTRUCTION	ACCESS:       2068  HIT:       1688  MISS:        380  HIT %:    81.6248  MISS %:    18.3752  MPKI: 0.0076
PSCL3 TRANSLATION FROM L1D PREFETCHER INSTRUCTION	ACCESS:         51  HIT:         40  MISS:         11  HIT %:    78.4314  MISS %:    21.5686  MPKI: 0.00022
PSCL3 LOAD TRANSLATION DATA	ACCESS:       1321  HIT:          0  MISS:       1321  HIT %:          0  MISS %:        100  MPKI: 0.02642
PSCL3 TRANSLATION FROM L1D PREFETCHER DATA	ACCESS:         29  HIT:          0  MISS:         29  HIT %:          0  MISS %:        100  MPKI: 0.00058


PSCL2 TOTAL     ACCESS:       4068  HIT:       1985  MISS:       2083  HIT %:    48.7955  MISS %:    51.2045   MPKI: 0.04166
PSCL2 LOAD TRANSLATION INSTRUCTION	ACCESS:       2180  HIT:       1935  MISS:        245  HIT %:    88.7615  MISS %:    11.2385  MPKI: 0.0049
PSCL2 TRANSLATION FROM L1D PREFETCHER INSTRUCTION	ACCESS:         50  HIT:         50  MISS:          0  HIT %:        100  MISS %:          0  MPKI: 0
PSCL2 LOAD TRANSLATION DATA	ACCESS:       1788  HIT:          0  MISS:       1788  HIT %:          0  MISS %:        100  MPKI: 0.03576
PSCL2 TRANSLATION FROM L1D PREFETCHER DATA	ACCESS:         50  HIT:          0  MISS:         50  HIT %:          0  MISS %:        100  MPKI: 0.001


LLC TOTAL     ACCESS:     528547  HIT:     500655  MISS:      27892  HIT %:    94.7229  MISS %:    5.27711   MPKI: 0.55784
LLC LOAD INSTRUCTION	ACCESS:     231069  HIT:     230189  MISS:        880  HIT %:    99.6192  MISS %:   0.380839  MPKI: 0.0176
LLC LOAD TRANSLATION INSTRUCTION	ACCESS:        212  HIT:        180  MISS:         32  HIT %:    84.9057  MISS %:    15.0943  MPKI: 0.00064
LLC LOAD DATA	ACCESS:      80243  HIT:      76793  MISS:       3450  HIT %:    95.7006  MISS %:    4.29944  MPKI: 0.069
LLC RFO DATA	ACCESS:      57901  HIT:      44765  MISS:      13136  HIT %:     77.313  MISS %:     22.687  MPKI: 0.26272
LLC PREFETCH DATA	ACCESS:      75283  HIT:      65321  MISS:       9962  HIT %:    86.7673  MISS %:    13.2327  MPKI: 0.19924
LLC WRITEBACK DATA	ACCESS:      82428  HIT:      82081  MISS:        347  HIT %:     99.579  MISS %:   0.420973  MPKI: 0.00694
LLC LOAD TRANSLATION DATA	ACCESS:       1394  HIT:       1310  MISS:         84  HIT %:    93.9742  MISS %:    6.02582  MPKI: 0.00168
LLC TRANSLATION FROM L1D PREFETCHER DATA	ACCESS:         17  HIT:         16  MISS:          1  HIT %:    94.1176  MISS %:    5.88235  MPKI: 2e-05

LLC AVERAGE MISS LATENCY: 154.57 cycles
LLC RQ	ACCESS:     370839	FORWARD:          0	MERGED:          0	TO_CACHE:     370836
LLC WQ	ACCESS:      82428	FORWARD:          3	MERGED:          0	TO_CACHE:      82428
LLC PQ	ACCESS:      75283	FORWARD:          0	MERGED:          0	TO_CACHE:      75283

LLC Dense regions hint to LLC: 0

RAW hits: 1368819
Loads Generated: 12633624
Loads sent to L1D: 11264804
Stores Generated: 6956478
Stores sent to L1D: 6956492
Major fault: 0 Minor fault: 2510
Allocated PAGES: 2510

stream: 
stream:times selected: 1172506
stream:pref_filled: 121651
stream:pref_useful: 23957
stream:pref_late: 6791
stream:misses: 8019
stream:misses_by_poll: 0

CS: 
CS:times selected: 174369
CS:pref_filled: 59250
CS:pref_useful: 35156
CS:pref_late: 7105
CS:misses: 16438
CS:misses_by_poll: 5

CPLX: 
CPLX:times selected: 997007
CPLX:pref_filled: 20225
CPLX:pref_useful: 4740
CPLX:pref_late: 3116
CPLX:misses: 94638
CPLX:misses_by_poll: 0

NL_L1: 
NL:times selected: 20159
NL:pref_filled: 725
NL:pref_useful: 369
NL:pref_late: 285
NL:misses: 1866
NL:misses_by_poll: 0

total selections: 2364041
total_filled: 94633
total_useful: 33604
total_late: 18571
total_polluted: 5
total_misses_after_warmup: 770664
conflicts: 5891173

test: 116176

DRAM Statistics
 CHANNEL 0
 RQ ROW_BUFFER_HIT:      10169  ROW_BUFFER_MISS:      17367
 DBUS_CONGESTED:          8
 WQ ROW_BUFFER_HIT:       1213  ROW_BUFFER_MISS:      11700  FULL:          0

 AVG_CONGESTED_CYCLE: 6

CPU 0 Branch Prediction Accuracy: 99.8196% MPKI: 0.33026 Average ROB Occupancy at Mispredict: 95.6663
Branch types
NOT_BRANCH: 40845551 81.6911%
BRANCH_DIRECT_JUMP: 548174 1.09635%
BRANCH_INDIRECT: 182395 0.36479%
BRANCH_CONDITIONAL: 6181128 12.3623%
BRANCH_DIRECT_CALL: 948928 1.89786%
BRANCH_INDIRECT_CALL: 172271 0.344542%
BRANCH_RETURN: 1121210 2.24242%
BRANCH_OTHER: 0 0%

DRAM PAGES: 1048576
Allocated PAGES: 2510
Average_ROB_Occupancy: 58.0253
Average_Decode_Occupancy: 6.58153
Average_FTQ_Occupancy: 3.53911
Indirect max targets: 14 Average targets: 1.14527
Branch_type:  BRANCH_DIRECT_JUMP:  Count Percentage: 3.77754 4.3202 3.61667 2.75026 8.7082 6.32276 2.64304 67.8613 
Branch_type:  BRANCH_INDIRECT:  Count Percentage: 11.7832 0.782185 2.47724 13.2884 3.35175 2.81724 2.95998 62.54 
Branch_type:  BRANCH_CONDITIONAL:  Count Percentage: 24.9251 2.55689 2.211 3.57949 3.41394 4.08722 3.13397 56.0924 
Branch_type:  BRANCH_DIRECT_CALL:  Count Percentage: 0.387189 1.81758 0.715356 1.91715 4.9188 2.96273 4.97597 82.3052 
Branch_type:  BRANCH_INDIRECT_CALL:  Count Percentage: 9.5726 0 3.0019 5.24046 0 2.68895 3.85996 75.6361 
Branch_type:  BRANCH_RETURN:  Count Percentage: 7.50561 1.90532 2.89054 3.60958 3.67009 4.21982 4.21353 71.9855 
Branch_type:  BRANCH_DIRECT_JUMP:  Total Count: 41398 47345 39635 30140 95433 69291 28965 743691 
Branch_type:  BRANCH_INDIRECT:  Total Count: 43009 2855 9042 48503 12234 10283 10804 228273 
Branch_type:  BRANCH_CONDITIONAL:  Total Count: 3079953 315950 273209 442311 421855 505050 387259 6931232 
Branch_type:  BRANCH_DIRECT_CALL:  Total Count: 7334 34428 13550 36314 93170 56119 94253 1558995 
Branch_type:  BRANCH_INDIRECT_CALL:  Total Count: 32944 0 10331 18035 0 9254 13284 260301 
Branch_type:  BRANCH_RETURN:  Total Count: 168058 42662 64722 80822 82177 94486 94345 1611827 
Number of unique branch instructions: 9789
Upper 32 bits: 
aaaa
ffff
ffff0000
Unique upper 32 bits: 3
Unique upper 36 bits: 3
Unique upper 40 bits: 5
Unique upper 44 bits: 32
Unique upper 48 bits: 154
Variant_0 : 662 0.323242
Variant_1 : 1386 0.676758
Variant_2 : 0 0
Variant_3 : 0 0
Offset_3 4026
Offset_4 246
Offset_5 447
Offset_6 498
Offset_7 579
Offset_8 501
Offset_9 463
Offset_10 378
Offset_11 304
Offset_12 270
Offset_13 198
Offset_14 225
Offset_15 179
Offset_16 220
Offset_17 143
Offset_18 118
Offset_19 234
Offset_20 135
Offset_21 235
Offset_22 392
Offset_23 241
Offset_24 333
Offset_25 88
Offset_47 82
decode_dispatch_called: 20186705 30.2893
Dispatch_width: 0 9815175 48.622 14.7273
Dispatch_width: 1 642335 3.18197 0.963797
Dispatch_width: 2 924096 4.57775 1.38657
Dispatch_width: 3 630768 3.12467 0.946441
Dispatch_width: 4 1479394 7.32856 2.21977
Dispatch_width: 5 470267 2.32959 0.705616
Dispatch_width: 6 6224670 30.8355 9.33986
Empty_decode_cycles: 46459583 69.7107
ROB_full_cycles: 1220084 1.83069
Starvation_cycles_per_kilo_instr: 592.015
Starvation_cycles_per_kilo_instr_3: 572.519
Starvation_cycles_per_kilo_instr_0: 550.547
Branch_type_1  (3,1)  (4,9)  (5,37)  (6,69)  (7,116)  (8,125)  (9,122)  (10,98)  (11,69)  (12,43)  (13,5)  (14,2)  (15,3)  (16,4)  (18,1)  (19,4)  (20,2)  (21,1)  (22,3)  (23,2)  (24,10)  (25,12) 
Branch_type_2  (3,1)  (5,1)  (8,3)  (9,3)  (12,1)  (13,1)  (14,1)  (16,3)  (17,2)  (20,2)  (21,2)  (23,5)  (24,1)  (47,38) 
Branch_type_3  (3,4024)  (4,237)  (5,405)  (6,414)  (7,434)  (8,314)  (9,255)  (10,154)  (11,125)  (12,50)  (13,4) 
Branch_type_4  (6,3)  (7,8)  (8,24)  (9,52)  (10,60)  (11,55)  (12,97)  (13,85)  (14,99)  (15,84)  (16,98)  (17,64)  (18,53)  (19,114)  (20,71)  (21,124)  (22,207)  (23,136)  (24,193)  (25,72) 
Branch_type_5  (8,2)  (9,1)  (10,3)  (11,5)  (12,3)  (13,14)  (14,16)  (15,11)  (16,20)  (17,11)  (18,16)  (19,12)  (20,10)  (21,13)  (22,42)  (23,26)  (24,37) 
Branch_type_6  (5,4)  (6,12)  (7,21)  (8,33)  (9,30)  (10,63)  (11,50)  (12,76)  (13,89)  (14,107)  (15,81)  (16,95)  (17,66)  (18,48)  (19,104)  (20,50)  (21,95)  (22,140)  (23,72)  (24,92)  (25,4)  (47,44) 
Unique trigger count: 
Variant_0_evicts_0 : 0
Variant_0_evicts_1 : 0
Variant_0_evicts_2 : 0
Variant_0_evicts_3 : 0
Variant_1_evicts_0 : 0
Variant_1_evicts_1 : 0
Variant_1_evicts_2 : 0
Variant_1_evicts_3 : 0
Variant_2_evicts_0 : 0
Variant_2_evicts_1 : 0
Variant_2_evicts_2 : 0
Variant_2_evicts_3 : 0
Variant_3_evicts_0 : 0
Variant_3_evicts_1 : 0
Variant_3_evicts_2 : 0
Variant_3_evicts_3 : 0
BTB PER SET UNIQUE ADDR: 45 46 47 49 48 40 48 41 41 42 56 45 42 47 44 35 38 41 43 45 52 51 33 39 47 36 57 47 47 39 48 43 44 35 44 43 44 37 42 48 47 42 39 51 39 48 45 37 39 38 57 50 48 44 48 53 44 50 45 38 48 44 44 57 46 53 47 48 50 35 43 57 50 47 56 45 43 40 49 49 51 34 49 31 39 54 53 54 60 53 50 39 58 44 47 55 38 52 55 56 58 52 44 46 42 45 47 41 48 39 47 45 51 57 39 56 54 34 46 53 58 48 47 59 45 50 60 47 54 50 59 41 51 43 44 43 47 53 43 56 46 40 44 48 47 52 47 46 40 38 52 42 50 49 50 41 42 33 50 51 50 40 42 45 44 54 52 49 40 35 43 36 44 39 52 54 56 46 47 56 38 50 42 40 42 46 47 48 45 47 47 40 39 41 47 47 56 45 47 44 54 39 54 44 40 39 55 44 41 45 48 44 48 47 34 60 47 36 45 35 40 43 48 40 44 41 48 45 56 45 30 43 59 56 42 42 40 39 47 41 40 56 57 49 42 60 40 42 48 36 48 38 54 37 51 28 51 50 49 45 53 43 54 49 44 41 49 49 52 55 41 40 50 44 57 48 49 43 41 46 52 37 47 56 43 37 26 51 43 51 61 43 35 43 39 51 45 49 48 43 54 42 53 49 50 48 47 41 37 47 43 45 31 48 42 49 41 44 40 45 36 45 46 50 50 63 55 65 43 62 48 35 53 41 57 39 41 57 53 51 51 41 48 43 50 44 52 53 41 46 48 47 42 59 55 48 45 59 48 44 44 34 41 41 49 52 35 45 43 47 58 46 47 50 55 40 47 42 41 39 49 52 57 44 42 45 51 50 36 52 49 53 51 45 51 39 39 43 60 53 35 45 46 42 51 53 48 44 41 41 45 38 52 38 55 50 54 42 54 54 50 58 55 54 58 39 44 51 56 47 49 58 47 44 46 49 52 54 54 56 48 44 50 43 39 51 42 46 48 48 54 37 49 53 44 59 60 37 42 38 36 42 59 45 68 30 54 45 60 59 51 50 33 47 50 41 35 38 47 52 46 49 50 67 45 41 54 48 54 38 42 39 42 41 44 51 38 42 37 29 46 48 51 37 41 52 58 39 53 56 45 43 
BTB PER SET COUNT: 5235 5190 5610 7217 5861 5161 6955 4978 3883 5883 8821 5268 4937 5702 5815 3676 4049 5769 5960 5132 5491 6409 3516 4235 6550 5636 7727 7064 6431 4576 6073 5607 5793 8398 5608 5587 5409 3420 5323 6404 6040 5165 5356 6857 4795 6951 6170 4167 4968 5025 7525 6055 5315 4844 5865 7011 4097 6921 6506 3597 7106 5561 5214 7429 6090 6842 6138 6463 7791 3361 4968 6952 5569 4707 6296 6511 5395 4860 7021 7071 6805 3697 5371 3831 4680 6832 6982 7425 7843 6795 6033 4684 7975 5240 5520 7453 4107 6344 7572 7813 7248 8022 6227 6770 5068 5239 6901 4838 5525 5657 6525 6151 6482 7485 4892 6951 7266 4329 5965 7404 6442 5317 7194 11436 6616 7527 7382 5589 6611 7065 8807 9413 7055 4710 5787 7152 5799 6511 4809 7929 6470 5459 5710 6191 6309 7575 6748 6716 5169 4055 7706 5009 5892 5270 7069 4639 6076 3493 5990 7583 5698 3761 4897 10516 5026 8357 8168 6517 3657 4192 4926 3616 6124 4397 8032 7343 7146 6583 6698 6684 5010 6688 5406 4647 5547 5502 6364 6446 6227 6439 7320 4817 4901 4821 6983 6299 8145 5347 6070 4681 7403 4242 8915 5266 4221 4493 7544 6279 4740 5991 6444 4420 7282 5365 4628 8008 5253 5547 4393 4129 5299 5897 6730 4811 6654 4972 6290 5636 8536 6277 4354 5624 8298 6455 5606 5619 4464 5097 6903 5245 4578 7995 5981 6799 5145 9243 4249 6028 7516 5365 5697 4022 7135 4141 6421 3039 7979 6421 5879 5971 7285 5977 6225 6638 5657 5350 6213 5911 7574 7984 5302 4392 7439 5545 7304 5718 5808 5183 5846 6583 5639 4043 5705 8695 5470 4491 2399 6876 5734 5909 7160 6257 3882 5568 4468 7111 6176 6559 6812 6126 6871 4952 6095 5682 5567 6141 12778 3815 5322 5528 5840 7126 4396 6662 5108 7051 4818 5005 5458 5835 4408 5829 5586 12065 4744 9852 9166 10021 4276 7598 6347 4642 6234 5866 8736 5545 5130 7520 8159 5902 7560 5158 5809 5471 6999 6087 6915 6906 5242 6698 6975 5847 5060 9558 8420 5609 5810 8423 6911 5889 4985 3859 4985 4566 8113 6387 5359 6081 5487 6971 9250 6462 5718 5923 7327 4509 7525 5258 4940 4301 6975 7160 7023 6067 5053 5207 6420 7590 4022 6468 6366 6387 5538 5261 6343 5295 5319 4933 7671 7101 4030 5509 5305 4323 6251 6867 6122 6020 4805 5684 5703 3923 6038 3572 7304 5494 5461 6103 7562 7512 6240 7386 6961 11060 7262 3996 5020 6451 7882 5578 10590 7739 6336 5936 6641 5908 6392 6652 7346 7487 5500 6273 5597 5518 5942 6886 5231 5676 6358 7061 6619 4912 7249 6513 4843 7614 8433 5009 4775 4359 4284 5597 7065 5924 13172 3081 7566 6662 7028 8266 6530 6531 3755 5870 6316 7943 5887 4402 5847 6464 7379 6575 6725 9604 4650 5376 6790 5276 7296 4897 5141 4024 5217 5137 5137 6131 4732 4894 4021 3246 5442 5402 5757 3900 5670 6435 7634 4603 7100 6358 6175 6489 
To predecode: 0
Predecoding something: 0
Predecode request dropped: 0
sizeofblock_0 0
sizeofblock_1 625334
sizeofblock_2 1585606
sizeofblock_3 0
sizeofblock_4 0
sizeofblock_5 0
sizeofblock_6 0
sizeofblock_7 0
sizeofblock_8 0
Variant_0 Correct: 759063 Incorrect: 0 Accuracy: 1
Variant_1 Correct: 3605907 Incorrect: 0 Accuracy: 1
Variant_2 Correct: 0 Incorrect: 0 Accuracy: -nan
Variant_3 Correct: 0 Incorrect: 0 Accuracy: -nan
