
*** ChampSim Multicore Out-of-Order Simulator ***

Warmup Instructions: 50000000
Simulation Instructions: 50000000
Number of CPUs: 1
LLC sets: 2048
LLC ways: 16
Off-chip DRAM Size: 4096 MB Channels: 1 Width: 64-bit Data Rate: 6400 MT/s
CPU 0 runs ./micro_traces/srv102.trace.gz
.gz
ITLB has LRU replacement policy
DTLB has LRU replacement policy
STLB has LRU replacement policy
FDIP Prefetcher at L1I
L1I has LRU replacement policy
L1D has LRU replacement policy
Initialize SRRIP state for L2C
Initialize DRRIP state for LLC
Heartbeat_Variant_0 : 1072 0.261719 per_variant_size: 0 1072 0 0 0 0 0 0 0 
Heartbeat_Variant_1 : 2289 0.558838 per_variant_size: 0 443 1846 0 0 0 0 0 0 
Heartbeat_Variant_2 : 0 0 per_variant_size: 0 0 0 0 0 0 0 0 0 
Heartbeat_Variant_3 : 0 0 per_variant_size: 0 0 0 0 0 0 0 0 0 
Heartbeat_Variant_0_evicts 0 : 21252 1 : 18178 2 : 0 3 : 0 
Heartbeat_Variant_1_evicts 0 : 18240 1 : 0 2 : 0 3 : 0 
Heartbeat_Variant_2_evicts 0 : 0 1 : 0 2 : 0 3 : 0 
Heartbeat_Variant_3_evicts 0 : 0 1 : 0 2 : 0 3 : 0 
Heartbeat CPU 0 instructions: 10000000 cycles: 2796959 heartbeat IPC: 3.57531 cumulative IPC: 3.57531 (Simulation time: 0 hr 2 min 5 sec) 
Heartbeat_Variant_0 : 1089 0.265869 per_variant_size: 0 1089 0 0 0 0 0 0 0 
Heartbeat_Variant_1 : 2322 0.566895 per_variant_size: 0 425 1897 0 0 0 0 0 0 
Heartbeat_Variant_2 : 0 0 per_variant_size: 0 0 0 0 0 0 0 0 0 
Heartbeat_Variant_3 : 0 0 per_variant_size: 0 0 0 0 0 0 0 0 0 
Heartbeat_Variant_0_evicts 0 : 21701 1 : 18516 2 : 0 3 : 0 
Heartbeat_Variant_1_evicts 0 : 18508 1 : 0 2 : 0 3 : 0 
Heartbeat_Variant_2_evicts 0 : 0 1 : 0 2 : 0 3 : 0 
Heartbeat_Variant_3_evicts 0 : 0 1 : 0 2 : 0 3 : 0 
Heartbeat CPU 0 instructions: 20000001 cycles: 5593036 heartbeat IPC: 3.57644 cumulative IPC: 3.57588 (Simulation time: 0 hr 4 min 16 sec) 
Heartbeat_Variant_0 : 1095 0.267334 per_variant_size: 0 1095 0 0 0 0 0 0 0 
Heartbeat_Variant_1 : 2318 0.565918 per_variant_size: 0 438 1880 0 0 0 0 0 0 
Heartbeat_Variant_2 : 0 0 per_variant_size: 0 0 0 0 0 0 0 0 0 
Heartbeat_Variant_3 : 0 0 per_variant_size: 0 0 0 0 0 0 0 0 0 
Heartbeat_Variant_0_evicts 0 : 21928 1 : 18896 2 : 0 3 : 0 
Heartbeat_Variant_1_evicts 0 : 18890 1 : 0 2 : 0 3 : 0 
Heartbeat_Variant_2_evicts 0 : 0 1 : 0 2 : 0 3 : 0 
Heartbeat_Variant_3_evicts 0 : 0 1 : 0 2 : 0 3 : 0 
Heartbeat CPU 0 instructions: 30000000 cycles: 8389467 heartbeat IPC: 3.57599 cumulative IPC: 3.57591 (Simulation time: 0 hr 6 min 26 sec) 
Heartbeat_Variant_0 : 1087 0.265381 per_variant_size: 0 1087 0 0 0 0 0 0 0 
Heartbeat_Variant_1 : 2392 0.583984 per_variant_size: 0 434 1958 0 0 0 0 0 0 
Heartbeat_Variant_2 : 0 0 per_variant_size: 0 0 0 0 0 0 0 0 0 
Heartbeat_Variant_3 : 0 0 per_variant_size: 0 0 0 0 0 0 0 0 0 
Heartbeat_Variant_0_evicts 0 : 21717 1 : 18603 2 : 0 3 : 0 
Heartbeat_Variant_1_evicts 0 : 18628 1 : 0 2 : 0 3 : 0 
Heartbeat_Variant_2_evicts 0 : 0 1 : 0 2 : 0 3 : 0 
Heartbeat_Variant_3_evicts 0 : 0 1 : 0 2 : 0 3 : 0 
Heartbeat CPU 0 instructions: 40000001 cycles: 11186982 heartbeat IPC: 3.5746 cumulative IPC: 3.57558 (Simulation time: 0 hr 8 min 44 sec) 
Heartbeat_Variant_0 : 1109 0.270752 per_variant_size: 0 1109 0 0 0 0 0 0 0 
Heartbeat_Variant_1 : 2370 0.578613 per_variant_size: 0 414 1956 0 0 0 0 0 0 
Heartbeat_Variant_2 : 0 0 per_variant_size: 0 0 0 0 0 0 0 0 0 
Heartbeat_Variant_3 : 0 0 per_variant_size: 0 0 0 0 0 0 0 0 0 
Heartbeat_Variant_0_evicts 0 : 21782 1 : 18660 2 : 0 3 : 0 
Heartbeat_Variant_1_evicts 0 : 18638 1 : 0 2 : 0 3 : 0 
Heartbeat_Variant_2_evicts 0 : 0 1 : 0 2 : 0 3 : 0 
Heartbeat_Variant_3_evicts 0 : 0 1 : 0 2 : 0 3 : 0 
Heartbeat CPU 0 instructions: 50000002 cycles: 13983512 heartbeat IPC: 3.57586 cumulative IPC: 3.57564 (Simulation time: 0 hr 11 min 3 sec) 

Warmup complete CPU 0 instructions: 50000002 cycles: 13983512 (Simulation time: 0 hr 11 min 3 sec) 

Cycle: 20000000 FTQ IN: 56930933 FTQ occupancy: 18.1801 DECODE IN: 56930789 DECODE occupancy: 46.66 ROB IN: 56930729 ROB occupancy: 282.449 ROB OUT: 56930377
Heartbeat_Variant_0 : 1120 0.273438 per_variant_size: 0 1120 0 0 0 0 0 0 0 
Heartbeat_Variant_1 : 2359 0.575928 per_variant_size: 0 425 1934 0 0 0 0 0 0 
Heartbeat_Variant_2 : 0 0 per_variant_size: 0 0 0 0 0 0 0 0 0 
Heartbeat_Variant_3 : 0 0 per_variant_size: 0 0 0 0 0 0 0 0 0 
Heartbeat_Variant_0_evicts 0 : 21495 1 : 18253 2 : 0 3 : 0 
Heartbeat_Variant_1_evicts 0 : 18242 1 : 0 2 : 0 3 : 0 
Heartbeat_Variant_2_evicts 0 : 0 1 : 0 2 : 0 3 : 0 
Heartbeat_Variant_3_evicts 0 : 0 1 : 0 2 : 0 3 : 0 
Heartbeat CPU 0 instructions: 60000001 cycles: 22647453 heartbeat IPC: 1.15421 cumulative IPC: 1.15421 (Simulation time: 0 hr 13 min 2 sec) 
Cycle: 30000000 FTQ IN: 11460344 FTQ occupancy: 7.1363 DECODE IN: 11460488 DECODE occupancy: 15.8461 ROB IN: 11460548 ROB occupancy: 132.252 ROB OUT: 11460784
Heartbeat_Variant_0 : 1100 0.268555 per_variant_size: 0 1100 0 0 0 0 0 0 0 
Heartbeat_Variant_1 : 2379 0.580811 per_variant_size: 0 425 1954 0 0 0 0 0 0 
Heartbeat_Variant_2 : 0 0 per_variant_size: 0 0 0 0 0 0 0 0 0 
Heartbeat_Variant_3 : 0 0 per_variant_size: 0 0 0 0 0 0 0 0 0 
Heartbeat_Variant_0_evicts 0 : 21681 1 : 18585 2 : 0 3 : 0 
Heartbeat_Variant_1_evicts 0 : 18605 1 : 0 2 : 0 3 : 0 
Heartbeat_Variant_2_evicts 0 : 0 1 : 0 2 : 0 3 : 0 
Heartbeat_Variant_3_evicts 0 : 0 1 : 0 2 : 0 3 : 0 
Heartbeat CPU 0 instructions: 70000003 cycles: 31421634 heartbeat IPC: 1.13971 cumulative IPC: 1.14691 (Simulation time: 0 hr 14 min 55 sec) 
Cycle: 40000000 FTQ IN: 11393778 FTQ occupancy: 6.94461 DECODE IN: 11393698 DECODE occupancy: 15.2916 ROB IN: 11393693 ROB occupancy: 127.139 ROB OUT: 11393481
Heartbeat_Variant_0 : 1099 0.268311 per_variant_size: 0 1099 0 0 0 0 0 0 0 
Heartbeat_Variant_1 : 2380 0.581055 per_variant_size: 0 424 1956 0 0 0 0 0 0 
Heartbeat_Variant_2 : 0 0 per_variant_size: 0 0 0 0 0 0 0 0 0 
Heartbeat_Variant_3 : 0 0 per_variant_size: 0 0 0 0 0 0 0 0 0 
Heartbeat_Variant_0_evicts 0 : 22178 1 : 19107 2 : 0 3 : 0 
Heartbeat_Variant_1_evicts 0 : 19108 1 : 0 2 : 0 3 : 0 
Heartbeat_Variant_2_evicts 0 : 0 1 : 0 2 : 0 3 : 0 
Heartbeat_Variant_3_evicts 0 : 0 1 : 0 2 : 0 3 : 0 
Heartbeat CPU 0 instructions: 80000001 cycles: 40183653 heartbeat IPC: 1.14129 cumulative IPC: 1.14503 (Simulation time: 0 hr 16 min 46 sec) 
Heartbeat_Variant_0 : 1100 0.268555 per_variant_size: 0 1100 0 0 0 0 0 0 0 
Heartbeat_Variant_1 : 2379 0.580811 per_variant_size: 0 435 1944 0 0 0 0 0 0 
Heartbeat_Variant_2 : 0 0 per_variant_size: 0 0 0 0 0 0 0 0 0 
Heartbeat_Variant_3 : 0 0 per_variant_size: 0 0 0 0 0 0 0 0 0 
Heartbeat_Variant_0_evicts 0 : 21985 1 : 18641 2 : 0 3 : 0 
Heartbeat_Variant_1_evicts 0 : 18640 1 : 0 2 : 0 3 : 0 
Heartbeat_Variant_2_evicts 0 : 0 1 : 0 2 : 0 3 : 0 
Heartbeat_Variant_3_evicts 0 : 0 1 : 0 2 : 0 3 : 0 
Heartbeat CPU 0 instructions: 90000000 cycles: 48981766 heartbeat IPC: 1.13661 cumulative IPC: 1.14291 (Simulation time: 0 hr 18 min 48 sec) 
Cycle: 50000000 FTQ IN: 11356917 FTQ occupancy: 7.10058 DECODE IN: 11356997 DECODE occupancy: 15.6517 ROB IN: 11357002 ROB occupancy: 129.845 ROB OUT: 11357265
Heartbeat_Variant_0 : 1145 0.279541 per_variant_size: 0 1145 0 0 0 0 0 0 0 
Heartbeat_Variant_1 : 2467 0.602295 per_variant_size: 0 425 2042 0 0 0 0 0 0 
Heartbeat_Variant_2 : 0 0 per_variant_size: 0 0 0 0 0 0 0 0 0 
Heartbeat_Variant_3 : 0 0 per_variant_size: 0 0 0 0 0 0 0 0 0 
Heartbeat_Variant_0_evicts 0 : 22064 1 : 18522 2 : 0 3 : 0 
Heartbeat_Variant_1_evicts 0 : 18515 1 : 0 2 : 0 3 : 0 
Heartbeat_Variant_2_evicts 0 : 0 1 : 0 2 : 0 3 : 0 
Heartbeat_Variant_3_evicts 0 : 0 1 : 0 2 : 0 3 : 0 
Heartbeat CPU 0 instructions: 100000003 cycles: 57853473 heartbeat IPC: 1.12718 cumulative IPC: 1.13973 (Simulation time: 0 hr 20 min 42 sec) 
Finished CPU 0 instructions: 50000001 cycles: 43869961 cumulative IPC: 1.13973 (Simulation time: 0 hr 20 min 42 sec) 

ChampSim completed all CPUs

Region of Interest Statistics

CPU 0 cumulative IPC: 1.13973 instructions: 50000001 cycles: 43869961
 Fetch stage stalled: 70.2728  Sim cycles: 43869961 fetch stall cycle: 30828668
 Empty decode stage: 58.0848  Sim cycles: 43869961 fetch stall cycle: 25481778
ITLB TOTAL     ACCESS:    5611287  HIT:    5112888  MISS:     498399  HIT %:    91.1179  MISS %:    8.88208   MPKI: 9.96798
ITLB LOAD TRANSLATION INSTRUCTION	ACCESS:    5509572  HIT:    5011173  MISS:     498399  HIT %:    90.9539  MISS %:    9.04606  MPKI: 9.96798
ITLB TRANSLATION FROM L1D PREFETCHER INSTRUCTION	ACCESS:     101715  HIT:     101715  MISS:          0  HIT %:        100  MISS %:          0  MPKI: 0

ITLB AVERAGE MISS LATENCY: 9.05554 cycles
ITLB RQ	ACCESS:    7466997	FORWARD:          0	MERGED:    1355680	TO_CACHE:    6111317

DTLB TOTAL     ACCESS:    9295084  HIT:    8822209  MISS:     472875  HIT %:    94.9126  MISS %:    5.08737   MPKI: 9.4575
DTLB LOAD TRANSLATION DATA	ACCESS:    9295084  HIT:    8822209  MISS:     472875  HIT %:    94.9126  MISS %:    5.08737  MPKI: 9.4575

DTLB AVERAGE MISS LATENCY: 9.3289 cycles
DTLB RQ	ACCESS:   13581138	FORWARD:          0	MERGED:    4251783	TO_CACHE:    9329355

STLB TOTAL     ACCESS:    1214171  HIT:    1212178  MISS:       1993  HIT %:    99.8359  MISS %:   0.164145   MPKI: 0.03986
STLB LOAD TRANSLATION INSTRUCTION	ACCESS:     498399  HIT:     498139  MISS:        260  HIT %:    99.9478  MISS %:   0.052167  MPKI: 0.0052
STLB LOAD TRANSLATION DATA	ACCESS:     472767  HIT:     471063  MISS:       1704  HIT %:    99.6396  MISS %:   0.360431  MPKI: 0.03408
STLB TRANSLATION FROM L1D PREFETCHER DATA	ACCESS:     243005  HIT:     242976  MISS:         29  HIT %:    99.9881  MISS %:  0.0119339  MPKI: 0.00058

STLB AVERAGE MISS LATENCY: 78.4541 cycles
STLB RQ	ACCESS:    1333703	FORWARD:          0	MERGED:     119488	TO_CACHE:    1214215

STLB Hit, L1D data hit: 0
STLB Hit, L2C data hit: 0
STLB Hit, LLC data hit: 0
STLB Hit, LLC data miss: 0
STLB STLB hints to L2: 0
L1D TOTAL     ACCESS:   13335762  HIT:   12208894  MISS:    1126868  HIT %:      91.55  MISS %:    8.44997   MPKI: 22.5374
L1D LOAD DATA	ACCESS:    6765971  HIT:    6019601  MISS:     746370  HIT %:    88.9688  MISS %:    11.0312  MPKI: 14.9274
L1D RFO DATA	ACCESS:    6248272  HIT:    5961341  MISS:     286931  HIT %:    95.4078  MISS %:    4.59217  MPKI: 5.73862
L1D PREFETCH DATA	ACCESS:     321519  HIT:     227952  MISS:      93567  HIT %:    70.8985  MISS %:    29.1015  MPKI: 1.87134

L1D PREFETCH  REQUESTED:     725127  ISSUED:     725127  USEFUL:      33726  USELESS:      67432
L1D USEFUL LOAD PREFETCHES:      33726 PREFETCH ISSUED TO LOWER LEVEL:     101182  ACCURACY: 33.332
 TIMELY PREFETCHES:      33726 LATE PREFETCHES: 7581 DROPPED PREFETCHES: 8
L1D AVERAGE MISS LATENCY: 245397 cycles
L1D RQ	ACCESS:   10858233	FORWARD:          0	MERGED:    3891992	TO_CACHE:    6799603
L1D WQ	ACCESS:    6959238	FORWARD:     166907	MERGED:     177703	TO_CACHE:    6781535
L1D PQ	ACCESS:     362698	FORWARD:          0	MERGED:          0	TO_CACHE:     362429

L1D UNIQUE REGIONS ACCESSED: 0
L1D REGIONS CONFLICTS: 0
L1D Cross Page Prefetch Requests: 7256
L1D Same Page Prefetch Requests: 741477
L1D ROI Sum of L1D PQ occupancy: 4610152
L1D PREFETCHES PUSHED FROM L2C: 0
L1I TOTAL     ACCESS:    6947766  HIT:    4162968  MISS:    2784798  HIT %:    59.9181  MISS %:    40.0819   MPKI: 55.696
L1I LOAD INSTRUCTION	ACCESS:    6456111  HIT:    3671313  MISS:    2784798  HIT %:    56.8657  MISS %:    43.1343  MPKI: 55.696
L1I PREFETCH INSTRUCTION	ACCESS:     491655  HIT:     491655  MISS:          0  HIT %:        100  MISS %:          0  MPKI: 0

L1I PREFETCH  REQUESTED:    1110061  ISSUED:    1110061  USEFUL:          0  USELESS:          0
L1I USEFUL LOAD PREFETCHES:          0 PREFETCH ISSUED TO LOWER LEVEL:          0  ACCURACY: -nan
 TIMELY PREFETCHES:          0 LATE PREFETCHES: 0 DROPPED PREFETCHES: 0
L1I AVERAGE MISS LATENCY: 17.1307 cycles
L1I RQ	ACCESS:    9461738	FORWARD:          0	MERGED:    2788153	TO_CACHE:    6673585
L1I PQ	ACCESS:    1110061	FORWARD:          0	MERGED:     316649	TO_CACHE:     793412

L1BTB TOTAL     ACCESS:    5672172  HIT:    2021864  MISS:    3650308  HIT %:    35.6453  MISS %:    64.3547   MPKI: 73.0062
L1BTB BRANCH_DIRECT_JUMP	ACCESS:     547904 HIT:     142989 MISS:     404915 AVERAGE STALL: 37.1577 AVERAGE FETCH STALL: 19.0901 AVERAGE FETCH QUEUE STALL: 9.04108 AVERAGE DECODE STALL: 8.22577 AVERAGE EXECUTE STALL: 3.8527e+14
L1BTB BRANCH_INDIRECT	ACCESS:     182092 HIT:      65219 MISS:     116873 AVERAGE STALL: 92.3903 AVERAGE FETCH STALL: 15.3776 AVERAGE FETCH QUEUE STALL: 7.77582 AVERAGE DECODE STALL: 7.44289 AVERAGE EXECUTE STALL: 60.8517
L1BTB BRANCH_CONDITIONAL	ACCESS:    2695844 HIT:    1396977 MISS:    1298867 AVERAGE STALL: 36.9135 AVERAGE FETCH STALL: 22.0999 AVERAGE FETCH QUEUE STALL: 6.78583 AVERAGE DECODE STALL: 7.28652 AVERAGE EXECUTE STALL: 1.67371e+14
L1BTB BRANCH_DIRECT_CALL	ACCESS:     950809 HIT:     105393 MISS:     845416 AVERAGE STALL: 38.9076 AVERAGE FETCH STALL: 22.0086 AVERAGE FETCH QUEUE STALL: 8.12509 AVERAGE DECODE STALL: 8.01047 AVERAGE EXECUTE STALL: 1.0807e+14
L1BTB BRANCH_INDIRECT_CALL	ACCESS:     172365 HIT:      21117 MISS:     151248 AVERAGE STALL: 117.003 AVERAGE FETCH STALL: 18.2944 AVERAGE FETCH QUEUE STALL: 7.5005 AVERAGE DECODE STALL: 7.14853 AVERAGE EXECUTE STALL: 83.5273
L1BTB BRANCH_RETURN	ACCESS:    1123158 HIT:     290169 MISS:     832989 AVERAGE STALL: 37.2742 AVERAGE FETCH STALL: 18.8344 AVERAGE FETCH QUEUE STALL: 5.48216 AVERAGE DECODE STALL: 5.77866 AVERAGE EXECUTE STALL: 1.95807e+14
L1BTB BRANCH_OTHER ACCESS:          0 HIT:          0 MISS:          0 AVERAGE STALL: -nan AVERAGE FETCH STALL: -nan AVERAGE FETCH QUEUE STALL: -nan AVERAGE DECODE STALL: -nan AVERAGE EXECUTE STALL: -nan
L1BTB TOTAL ROB OCCUPANCY AT BTB MISS: 13.687

L2BTB TOTAL     ACCESS:    3625086  HIT:    3164342  MISS:     460744  HIT %:    87.2901  MISS %:    12.7099   MPKI: 9.21488
L2BTB BRANCH_DIRECT_JUMP	ACCESS:     400880 HIT:     356988 MISS:      43892 AVERAGE STALL: 37.1577 AVERAGE FETCH STALL: 19.0901 AVERAGE FETCH QUEUE STALL: 9.04108 AVERAGE DECODE STALL: 8.22577 AVERAGE EXECUTE STALL: 3.8527e+14
L2BTB BRANCH_INDIRECT	ACCESS:     106510 HIT:      97106 MISS:       9404 AVERAGE STALL: 92.3903 AVERAGE FETCH STALL: 15.3776 AVERAGE FETCH QUEUE STALL: 7.77582 AVERAGE DECODE STALL: 7.44289 AVERAGE EXECUTE STALL: 60.8517
L2BTB BRANCH_CONDITIONAL	ACCESS:    1298867 HIT:    1187970 MISS:     110897 AVERAGE STALL: 36.9135 AVERAGE FETCH STALL: 22.0999 AVERAGE FETCH QUEUE STALL: 6.78583 AVERAGE DECODE STALL: 7.28652 AVERAGE EXECUTE STALL: 1.67371e+14
L2BTB BRANCH_DIRECT_CALL	ACCESS:     845416 HIT:     674618 MISS:     170798 AVERAGE STALL: 38.9076 AVERAGE FETCH STALL: 22.0086 AVERAGE FETCH QUEUE STALL: 8.12509 AVERAGE DECODE STALL: 8.01047 AVERAGE EXECUTE STALL: 1.0807e+14
L2BTB BRANCH_INDIRECT_CALL	ACCESS:     141850 HIT:     108936 MISS:      32914 AVERAGE STALL: 117.003 AVERAGE FETCH STALL: 18.2944 AVERAGE FETCH QUEUE STALL: 7.5005 AVERAGE DECODE STALL: 7.14853 AVERAGE EXECUTE STALL: 83.5273
L2BTB BRANCH_RETURN	ACCESS:     831563 HIT:     738724 MISS:      92839 AVERAGE STALL: 37.2742 AVERAGE FETCH STALL: 18.8344 AVERAGE FETCH QUEUE STALL: 5.48216 AVERAGE DECODE STALL: 5.77866 AVERAGE EXECUTE STALL: 1.95807e+14
L2BTB BRANCH_OTHER ACCESS:          0 HIT:          0 MISS:          0 AVERAGE STALL: -nan AVERAGE FETCH STALL: -nan AVERAGE FETCH QUEUE STALL: -nan AVERAGE DECODE STALL: -nan AVERAGE EXECUTE STALL: -nan
L2BTB TOTAL ROB OCCUPANCY AT BTB MISS: 108.437

L2C TOTAL     ACCESS:    4520537  HIT:    4069491  MISS:     451046  HIT %:    90.0223  MISS %:    9.97771   MPKI: 9.02092
L2C LOAD INSTRUCTION	ACCESS:    2784799  HIT:    2535617  MISS:     249182  HIT %:    91.0521  MISS %:    8.94793  MPKI: 4.98364
L2C LOAD TRANSLATION INSTRUCTION	ACCESS:        295  HIT:         73  MISS:        222  HIT %:    24.7458  MISS %:    75.2542  MPKI: 0.00444
L2C LOAD DATA	ACCESS:     738760  HIT:     671512  MISS:      67248  HIT %:    90.8972  MISS %:    9.10282  MPKI: 1.34496
L2C RFO DATA	ACCESS:     286883  HIT:     234671  MISS:      52212  HIT %:    81.8002  MISS %:    18.1998  MPKI: 1.04424
L2C PREFETCH DATA	ACCESS:     181808  HIT:     114934  MISS:      66874  HIT %:    63.2172  MISS %:    36.7828  MPKI: 1.33748
L2C WRITEBACK DATA	ACCESS:     526175  HIT:     512158  MISS:      14017  HIT %:    97.3361  MISS %:    2.66394  MPKI: 0.28034
L2C LOAD TRANSLATION DATA	ACCESS:       1764  HIT:        491  MISS:       1273  HIT %:    27.8345  MISS %:    72.1655  MPKI: 0.02546
L2C TRANSLATION FROM L1D PREFETCHER DATA	ACCESS:         53  HIT:         35  MISS:         18  HIT %:    66.0377  MISS %:    33.9623  MPKI: 0.00036

L2C PREFETCH  REQUESTED:      87259  ISSUED:      87259  USEFUL:       7261  USELESS:      59913
L2C USEFUL LOAD PREFETCHES:       7261 PREFETCH ISSUED TO LOWER LEVEL:      67191  ACCURACY: 10.8065
 TIMELY PREFETCHES:       7261 LATE PREFETCHES: 317 DROPPED PREFETCHES: 0
L2C AVERAGE MISS LATENCY: 38.8677 cycles
L2C RQ	ACCESS:    3812600	FORWARD:          0	MERGED:          0	TO_CACHE:    3812557
L2C WQ	ACCESS:     526175	FORWARD:         43	MERGED:          0	TO_CACHE:     526175
L2C PQ	ACCESS:     188441	FORWARD:          0	MERGED:       3285	TO_CACHE:     185156

L2C Dense regions hint from L2: 0
PSCL5 TOTAL     ACCESS:       4008  HIT:       2004  MISS:       2004  HIT %:         50  MISS %:         50   MPKI: 0.04008
PSCL5 LOAD TRANSLATION INSTRUCTION	ACCESS:       3904  HIT:       1952  MISS:       1952  HIT %:         50  MISS %:         50  MPKI: 0.03904
PSCL5 TRANSLATION FROM L1D PREFETCHER INSTRUCTION	ACCESS:        104  HIT:         52  MISS:         52  HIT %:         50  MISS %:         50  MPKI: 0.00104


PSCL4 TOTAL     ACCESS:       3940  HIT:       1968  MISS:       1972  HIT %:    49.9492  MISS %:    50.0508   MPKI: 0.03944
PSCL4 LOAD TRANSLATION INSTRUCTION	ACCESS:       2085  HIT:       1916  MISS:        169  HIT %:    91.8945  MISS %:    8.10552  MPKI: 0.00338
PSCL4 TRANSLATION FROM L1D PREFETCHER INSTRUCTION	ACCESS:         52  HIT:         52  MISS:          0  HIT %:        100  MISS %:          0  MPKI: 0
PSCL4 LOAD TRANSLATION DATA	ACCESS:       1751  HIT:          0  MISS:       1751  HIT %:          0  MISS %:        100  MPKI: 0.03502
PSCL4 TRANSLATION FROM L1D PREFETCHER DATA	ACCESS:         52  HIT:          0  MISS:         52  HIT %:          0  MISS %:        100  MPKI: 0.00104


PSCL3 TOTAL     ACCESS:       3958  HIT:       1977  MISS:       1981  HIT %:    49.9495  MISS %:    50.0505   MPKI: 0.03962
PSCL3 LOAD TRANSLATION INSTRUCTION	ACCESS:       2094  HIT:       1925  MISS:        169  HIT %:    91.9293  MISS %:    8.07068  MPKI: 0.00338
PSCL3 TRANSLATION FROM L1D PREFETCHER INSTRUCTION	ACCESS:         52  HIT:         52  MISS:          0  HIT %:        100  MISS %:          0  MPKI: 0
PSCL3 LOAD TRANSLATION DATA	ACCESS:       1760  HIT:          0  MISS:       1760  HIT %:          0  MISS %:        100  MPKI: 0.0352
PSCL3 TRANSLATION FROM L1D PREFETCHER DATA	ACCESS:         52  HIT:          0  MISS:         52  HIT %:          0  MISS %:        100  MPKI: 0.00104


PSCL2 TOTAL     ACCESS:       3905  HIT:       1901  MISS:       2004  HIT %:    48.6812  MISS %:    51.3188   MPKI: 0.04008
PSCL2 LOAD TRANSLATION INSTRUCTION	ACCESS:       2132  HIT:       1850  MISS:        282  HIT %:     86.773  MISS %:     13.227  MPKI: 0.00564
PSCL2 TRANSLATION FROM L1D PREFETCHER INSTRUCTION	ACCESS:         51  HIT:         51  MISS:          0  HIT %:        100  MISS %:          0  MPKI: 0
PSCL2 LOAD TRANSLATION DATA	ACCESS:       1671  HIT:          0  MISS:       1671  HIT %:          0  MISS %:        100  MPKI: 0.03342
PSCL2 TRANSLATION FROM L1D PREFETCHER DATA	ACCESS:         51  HIT:          0  MISS:         51  HIT %:          0  MISS %:        100  MPKI: 0.00102


LLC TOTAL     ACCESS:     509518  HIT:     481449  MISS:      28069  HIT %:    94.4911  MISS %:    5.50893   MPKI: 0.56138
LLC LOAD INSTRUCTION	ACCESS:     249182  HIT:     248056  MISS:       1126  HIT %:    99.5481  MISS %:   0.451879  MPKI: 0.02252
LLC LOAD TRANSLATION INSTRUCTION	ACCESS:        222  HIT:        178  MISS:         44  HIT %:    80.1802  MISS %:    19.8198  MPKI: 0.00088
LLC LOAD DATA	ACCESS:      66947  HIT:      63338  MISS:       3609  HIT %:    94.6092  MISS %:    5.39083  MPKI: 0.07218
LLC RFO DATA	ACCESS:      52195  HIT:      39167  MISS:      13028  HIT %:    75.0398  MISS %:    24.9602  MPKI: 0.26056
LLC PREFETCH DATA	ACCESS:      67191  HIT:      57351  MISS:       9840  HIT %:    85.3552  MISS %:    14.6448  MPKI: 0.1968
LLC WRITEBACK DATA	ACCESS:      72490  HIT:      72175  MISS:        315  HIT %:    99.5655  MISS %:   0.434543  MPKI: 0.0063
LLC LOAD TRANSLATION DATA	ACCESS:       1273  HIT:       1167  MISS:        106  HIT %:    91.6732  MISS %:    8.32679  MPKI: 0.00212
LLC TRANSLATION FROM L1D PREFETCHER DATA	ACCESS:         18  HIT:         17  MISS:          1  HIT %:    94.4444  MISS %:    5.55556  MPKI: 2e-05

LLC AVERAGE MISS LATENCY: 155.977 cycles
LLC RQ	ACCESS:     369838	FORWARD:          0	MERGED:          0	TO_CACHE:     369837
LLC WQ	ACCESS:      72490	FORWARD:          1	MERGED:          0	TO_CACHE:      72490
LLC PQ	ACCESS:      67191	FORWARD:          0	MERGED:          0	TO_CACHE:      67191

LLC Dense regions hint to LLC: 0

RAW hits: 1773676
Loads Generated: 12631909
Loads sent to L1D: 10858233
Stores Generated: 6959228
Stores sent to L1D: 6959238
Major fault: 0 Minor fault: 2635
Allocated PAGES: 2635

stream: 
stream:times selected: 1174487
stream:pref_filled: 121452
stream:pref_useful: 24335
stream:pref_late: 6683
stream:misses: 7984
stream:misses_by_poll: 0

CS: 
CS:times selected: 175147
CS:pref_filled: 61081
CS:pref_useful: 37987
CS:pref_late: 6721
CS:misses: 15784
CS:misses_by_poll: 1

CPLX: 
CPLX:times selected: 998192
CPLX:pref_filled: 19458
CPLX:pref_useful: 4729
CPLX:pref_late: 3044
CPLX:misses: 94419
CPLX:misses_by_poll: 1

NL_L1: 
NL:times selected: 20881
NL:pref_filled: 833
NL:pref_useful: 395
NL:pref_late: 264
NL:misses: 1782
NL:misses_by_poll: 0

total selections: 2368707
total_filled: 93567
total_useful: 33726
total_late: 18111
total_polluted: 2
total_misses_after_warmup: 780003
conflicts: 5632193

test: 116663

DRAM Statistics
 CHANNEL 0
 RQ ROW_BUFFER_HIT:      10156  ROW_BUFFER_MISS:      17584
 DBUS_CONGESTED:          4
 WQ ROW_BUFFER_HIT:       1427  ROW_BUFFER_MISS:      11800  FULL:          0

 AVG_CONGESTED_CYCLE: 7

CPU 0 Branch Prediction Accuracy: 99.8084% MPKI: 0.35088 Average ROB Occupancy at Mispredict: 132.656
Branch types
NOT_BRANCH: 40844470 81.6889%
BRANCH_DIRECT_JUMP: 547904 1.09581%
BRANCH_INDIRECT: 182092 0.364184%
BRANCH_CONDITIONAL: 6178927 12.3579%
BRANCH_DIRECT_CALL: 950809 1.90162%
BRANCH_INDIRECT_CALL: 172365 0.34473%
BRANCH_RETURN: 1123158 2.24632%
BRANCH_OTHER: 0 0%

DRAM PAGES: 1048576
Allocated PAGES: 2635
Average_ROB_Occupancy: 130.237
Average_Decode_Occupancy: 15.5159
Average_FTQ_Occupancy: 7.01796
Indirect max targets: 14 Average targets: 1.17891
Branch_type:  BRANCH_DIRECT_JUMP:  Count Percentage: 3.77612 4.78447 4.81563 8.46363 2.40745 6.01232 1.56598 68.1744 
Branch_type:  BRANCH_INDIRECT:  Count Percentage: 6.10758 3.37609 8.14042 9.6785 3.35386 2.81766 3.90159 62.6243 
Branch_type:  BRANCH_CONDITIONAL:  Count Percentage: 25.4249 2.35007 1.55286 4.60623 2.44852 3.59382 2.11989 57.9037 
Branch_type:  BRANCH_DIRECT_CALL:  Count Percentage: 0.916119 1.32111 0.714232 3.88468 3.20291 2.6904 3.03686 84.2337 
Branch_type:  BRANCH_INDIRECT_CALL:  Count Percentage: 9.57683 0 3.00511 0.00087324 0.922724 1.71999 4.99639 79.7781 
Branch_type:  BRANCH_RETURN:  Count Percentage: 8.33508 1.23035 1.01714 3.87704 4.217 3.48128 2.68701 75.1551 
Branch_type:  BRANCH_DIRECT_JUMP:  Total Count: 41321 52355 52696 92615 26344 65791 17136 746012 
Branch_type:  BRANCH_INDIRECT:  Total Count: 22257 12303 29665 35270 12222 10268 14218 228213 
Branch_type:  BRANCH_CONDITIONAL:  Total Count: 3139812 290218 191768 568840 302376 443813 261793 7150730 
Branch_type:  BRANCH_DIRECT_CALL:  Total Count: 17357 25030 13532 73600 60683 50973 57537 1595911 
Branch_type:  BRANCH_INDIRECT_CALL:  Total Count: 32901 0 10324 3 3170 5909 17165 274076 
Branch_type:  BRANCH_RETURN:  Total Count: 186625 27548 22774 86808 94420 77947 60163 1682745 
Number of unique branch instructions: 10759
Upper 32 bits: 
aaaa
ffff
ffff0000
Unique upper 32 bits: 3
Unique upper 36 bits: 3
Unique upper 40 bits: 5
Unique upper 44 bits: 32
Unique upper 48 bits: 158
Variant_0 : 1145 0.279541
Variant_1 : 2467 0.602295
Variant_2 : 0 0
Variant_3 : 0 0
Offset_3 4455
Offset_4 260
Offset_5 482
Offset_6 538
Offset_7 639
Offset_8 578
Offset_9 511
Offset_10 421
Offset_11 352
Offset_12 325
Offset_13 240
Offset_14 247
Offset_15 199
Offset_16 231
Offset_17 165
Offset_18 152
Offset_19 262
Offset_20 146
Offset_21 235
Offset_22 410
Offset_23 241
Offset_24 346
Offset_25 117
Offset_47 92
Offset_64 2
decode_dispatch_called: 20103085 45.8243
Dispatch_width: 0 9979822 49.6432 22.7486
Dispatch_width: 1 568867 2.82975 1.29671
Dispatch_width: 2 665638 3.31112 1.5173
Dispatch_width: 3 423147 2.10489 0.964548
Dispatch_width: 4 1831596 9.11102 4.17506
Dispatch_width: 5 300326 1.49393 0.684582
Dispatch_width: 6 6333689 31.5061 14.4374
Empty_decode_cycles: 23766876 54.1757
ROB_full_cycles: 2697838 6.14962
Starvation_cycles_per_kilo_instr: 348.384
Starvation_cycles_per_kilo_instr_3: 327.065
Starvation_cycles_per_kilo_instr_0: 310.489
Branch_type_1  (3,1)  (4,9)  (5,39)  (6,72)  (7,124)  (8,149)  (9,134)  (10,110)  (11,79)  (12,55)  (13,11)  (14,2)  (15,3)  (16,4)  (18,1)  (19,5)  (20,2)  (21,1)  (22,3)  (23,2)  (24,10)  (25,12)  (64,1) 
Branch_type_2  (3,1)  (4,1)  (5,1)  (8,4)  (9,4)  (10,1)  (12,1)  (13,1)  (14,1)  (16,3)  (17,2)  (20,2)  (21,2)  (23,5)  (24,1)  (47,41) 
Branch_type_3  (3,4453)  (4,250)  (5,438)  (6,449)  (7,484)  (8,358)  (9,278)  (10,169)  (11,137)  (12,62)  (13,10)  (24,1)  (64,1) 
Branch_type_4  (6,4)  (7,8)  (8,26)  (9,57)  (10,67)  (11,70)  (12,116)  (13,102)  (14,112)  (15,95)  (16,102)  (17,76)  (18,65)  (19,127)  (20,74)  (21,124)  (22,216)  (23,136)  (24,200)  (25,101) 
Branch_type_5  (8,3)  (9,1)  (10,4)  (11,5)  (12,3)  (13,14)  (14,16)  (15,11)  (16,22)  (17,11)  (18,23)  (19,14)  (20,11)  (21,13)  (22,43)  (23,26)  (24,38) 
Branch_type_6  (5,4)  (6,13)  (7,23)  (8,38)  (9,37)  (10,70)  (11,61)  (12,88)  (13,102)  (14,116)  (15,90)  (16,100)  (17,76)  (18,63)  (19,116)  (20,57)  (21,95)  (22,148)  (23,72)  (24,96)  (25,4)  (47,51) 
Unique trigger count: 
Variant_0_evicts_0 : 0
Variant_0_evicts_1 : 0
Variant_0_evicts_2 : 0
Variant_0_evicts_3 : 0
Variant_1_evicts_0 : 0
Variant_1_evicts_1 : 0
Variant_1_evicts_2 : 0
Variant_1_evicts_3 : 0
Variant_2_evicts_0 : 0
Variant_2_evicts_1 : 0
Variant_2_evicts_2 : 0
Variant_2_evicts_3 : 0
Variant_3_evicts_0 : 0
Variant_3_evicts_1 : 0
Variant_3_evicts_2 : 0
Variant_3_evicts_3 : 0
BTB PER SET UNIQUE ADDR: 6 7 6 5 3 4 7 9 10 2 5 2 8 5 3 4 6 4 8 9 6 8 8 8 8 11 1 7 6 6 10 10 6 5 8 4 4 7 7 3 8 5 7 10 9 9 6 12 11 6 5 3 13 2 2 7 5 5 9 8 4 11 5 8 6 10 8 9 6 7 6 2 6 5 6 7 6 15 6 5 9 7 7 6 6 8 7 8 8 11 10 9 9 6 7 5 11 8 5 6 8 7 9 9 7 8 7 8 7 5 7 7 4 8 6 11 3 8 6 2 8 9 4 3 6 4 4 7 11 8 11 3 11 6 9 6 5 3 6 8 8 8 7 7 5 11 5 8 12 8 7 14 6 10 6 9 7 9 7 11 11 8 11 5 12 7 3 4 13 7 6 4 8 7 4 3 6 8 11 5 6 7 10 8 9 12 6 6 6 8 5 8 6 7 6 10 12 4 11 6 4 6 9 4 8 4 5 8 7 2 3 6 9 9 7 6 4 9 8 6 6 4 6 7 6 8 14 7 3 11 14 9 4 5 6 9 11 6 4 5 5 3 10 8 16 11 2 7 6 7 9 10 6 7 5 13 4 7 10 6 8 5 7 4 9 15 6 5 7 5 7 7 4 8 11 8 7 3 4 8 8 5 10 5 9 9 7 7 8 4 5 7 4 11 7 4 6 10 6 6 6 6 5 4 7 5 6 4 13 9 7 4 8 4 6 5 10 14 7 6 7 11 5 9 5 6 6 10 3 3 9 2 6 7 10 5 8 9 8 1 6 6 2 10 7 7 3 10 12 6 5 13 11 6 8 7 7 2 8 5 7 11 6 8 11 8 4 4 4 5 8 4 7 5 8 4 11 7 6 10 10 7 7 13 6 4 8 5 8 4 9 6 8 4 6 4 5 5 2 9 7 5 7 7 5 5 8 5 4 3 5 4 11 7 2 6 9 4 2 7 2 6 7 7 11 9 5 2 4 9 3 4 15 5 8 10 6 6 7 4 5 6 10 3 7 9 6 6 5 4 6 3 4 3 9 3 5 7 9 6 5 4 6 12 6 5 12 4 6 7 2 6 10 8 5 3 10 5 3 3 5 2 3 4 3 7 8 3 7 2 13 4 4 8 1 11 4 7 5 4 11 3 5 4 2 5 5 3 4 6 8 4 8 11 3 4 2 10 6 9 7 5 8 6 11 9 6 10 9 8 7 6 6 8 5 8 7 1 6 4 5 8 10 4 9 5 10 13 14 11 7 8 7 7 2 6 9 3 7 4 10 5 9 5 5 6 10 9 11 7 8 4 11 12 7 7 7 12 3 9 13 5 2 6 5 3 3 14 7 5 8 8 4 7 5 5 9 5 6 5 12 5 11 11 7 5 4 9 8 5 8 8 7 6 8 5 7 5 5 7 9 6 11 4 5 10 8 8 4 6 8 7 7 7 7 8 6 7 6 4 11 8 4 6 3 3 7 8 8 7 7 4 10 3 5 2 11 5 6 8 12 3 6 11 7 8 7 6 6 12 7 8 6 7 11 9 8 6 8 6 8 12 9 6 8 8 7 8 8 6 3 8 3 5 5 7 10 7 7 9 3 11 4 5 7 12 4 4 5 5 7 7 6 6 5 7 12 6 1 8 5 3 5 4 4 3 4 9 2 11 8 11 8 3 7 7 10 3 6 4 5 8 5 10 4 5 6 4 6 7 6 3 5 7 2 5 5 10 9 4 5 6 6 7 7 6 14 7 6 3 10 7 0 5 7 5 6 10 3 3 8 6 4 6 10 9 9 7 3 9 3 9 5 7 6 13 12 5 5 5 12 4 8 4 8 6 7 9 4 6 3 5 6 5 5 7 1 5 5 10 7 4 9 4 5 5 6 3 7 6 7 3 7 4 10 5 4 5 6 5 5 5 7 6 5 8 9 6 6 5 8 8 6 9 6 11 7 5 7 6 7 7 4 4 14 7 6 8 10 9 4 6 6 10 7 2 2 6 7 4 5 7 6 7 10 5 7 5 5 8 9 4 5 8 6 3 9 13 5 4 12 9 4 6 10 7 7 11 6 9 9 7 5 4 3 9 6 6 8 6 9 7 10 6 9 8 7 5 5 12 6 4 11 10 6 8 10 11 3 10 8 9 6 4 6 8 9 8 9 6 10 4 13 8 4 7 9 13 6 9 6 7 10 5 3 9 10 9 10 5 3 6 3 10 13 6 8 5 4 7 13 6 4 6 5 7 4 5 9 7 8 7 7 11 5 11 7 11 5 6 5 5 6 4 7 6 7 6 6 6 9 4 9 7 11 4 9 5 3 8 11 6 14 5 
BTB PER SET COUNT: 7 7 7 5 3 5 7 1909 5382 2 5 2 1439 5 3 9 7 6 49 3391 6 11 11 86 4915 2597 1 7 1479 6 4290 995 1463 5 8 6 2951 7 10 3 31 5 12 2687 2607 13 7 4789 3836 6 5 3 10332 2 2 1431 5 5 957 1532 6 2862 5 42 6 1256 320 27 6 791 791 2 8 5 6 7 481 6837 13 5 992 8 1056 6 956 22 7 47 7987 2066 1722 568 2861 7 9 7 2176 14 5 6 19 13 20 3056 9 15 10 1910 1910 7 1906 8 4 1110 6 4615 3 8 6 2 8 34 6 4 975 5 4 8 7477 16 1951 3 8917 11 2916 6 5 3 6 1968 20 13 8 7 6 926 7 8 1169 2354 10 6156 6 10074 12 916 7 1892 8 1259 4796 46 4899 7 1067 3003 3 4 10547 7 6 4 18 108 4 6 6 502 2512 5 6 7 5386 9 13 6876 10 8 2970 28 5 3994 6 10 6 37 1026 4 25 6 5 7 11 7 11 4 5 3907 10 2 6 12 112 21 9 6 4 630 9 6 6 4 6 9 6 1870 5385 3242 5 4023 8087 1111 4 7 14 2405 2816 6 4 5 5 3 6301 9 6624 3760 2 9 6 9 98 3914 6 11 6 2861 5 7 2537 8 2123 5 7 4 2224 7054 1004 5 1916 5 1766 15 5 1879 989 819 10 3 4 2388 12 5 1165 5 2763 3331 7 531 29 4 5 7 479 2388 2855 16 11 3658 7 6 6 7 5 10 10 5 8 4 4343 1595 15 4 2078 4 6 6 965 3846 1904 7 10 1235 5 19 5 6 9 1458 4 3 2245 3 6 8 5460 5 1434 11 11 1 7 6 2 2336 958 730 3 12 259 10 5 1084 163 1005 8 9 13 4 2269 36 9 523 6 2332 1140 1445 5 6 4 5 10 4 9 5 28 4 6297 7 8 2069 2382 2349 7 7957 6 4 47 5 11 4 1556 7 2363 6 12 6 1481 5 2 18 9 7 1413 8 843 5 3002 7 4 2884 14 4 1531 10 1467 6 163 5 3 1446 2 8 7 16 1045 14 10 2 4 622 143 4 6582 5 1854 2139 7 6 16 4 7 6 1439 3 12 38 7 1943 5 4 6 3 5 6 1435 3 5 11 529 6 944 4 24 666 27 6 4042 4 8 9 2 21 1932 486 305 3 26275 5 3 3 5 2 3 479 3 185 1786 377 7 2 1112 4 5 1275 1 5505 10 31 5 6 3388 14 13 4 2 5 5 4 4 6 21 6 10 36 6 4 2 11210 6 1098 10 1478 14 415 180 1882 8 971 2081 25 8 8 6 19 6 974 10 1 23 4 8 1906 48 7 21 5 58 2891 2957 7638 12 3986 9 7 2 6 1540 3 7 4 5465 5 1890 7 5 6 994 17 1558 43 3123 6 2539 5788 1414 1415 482 5322 3 4820 10157 38 2 1436 1479 3 4 6261 14 5 15 2391 7 1004 1005 6 11 5 6 5 2080 6 4793 1170 8 2855 4 2906 10 6 2859 14 14 6 8 9 2609 5 5 7 16 1379 4348 4 1874 1019 28 1911 16 1436 1437 1480 14 13 7 11 8 8 83 4 7345 757 4 6 3 3 14 8 532 9 9 4 8340 3 5 5 1988 5 1431 2856 12600 3 6 6289 7 1435 2971 959 28 1915 988 9 6 12 6510 2983 487 6 2403 6 13 6649 22 958 17704 1413 32 4325 1494 21 3 1216 3 7 5 12 6839 7 10 83 3 2893 4 5 216 4197 4 1477 5 1479 202 9 8 7 956 7 2132 1209 1 1885 13 4 5 4 4 5 4 1078 2 6284 1436 3915 1006 3 12 8 16 4 6 4 18 671 5 8327 4 6 983 5 6 952 18 3 6 544 2 5 5 2661 6417 1004 5 8 1004 16 3006 6 9268 7 14 3 497 7 0 179 7 2194 10 2953 3 3 2380 10 6 8 1882 1689 970 15 444 966 3 1754 5 12 211 7633 3030 5 7 5 4680 5 485 6 1932 2496 13 22 5 9 3 8 6 547 6 9 1 5 7 2380 11 4 541 412 6 7 1531 3 1412 91 795 3 529 4 7880 7 18 5 6 5 460 5 7 1483 5 20 990 6 6 7 3327 1477 7 12 9 9031 37 6 1414 12 11 8 4 4 8964 1006 7 1911 2382 102 4 6 7 1446 7 2 4 7 11 6 5 13 8 7 2970 6 1436 5 5 10 87 4 5 67 6 4 24 4064 5 4 5025 2287 137 108 830 10 9 3565 6 18 1994 8 7 6 4 86 7 947 4728 1723 39 1431 1903 6 1016 1521 12 6 5 1289 8 480 3909 2078 6 958 4840 2906 4 3346 536 96 10 1001 14 1438 29 471 16 7 3858 4 7132 12 7 8 1952 8263 14 3312 6 497 7369 5 3 1034 61 761 865 5 3 6 3 372 2439 8 1010 5 4 9 2747 6 480 8 5 12 4 6 27 7 2914 10 2374 2940 5 1540 9 5245 5 6 5 8 10 6 9 7 945 18 6 7 2873 4 7489 366 3187 4 950 8 3 13 1656 9 3653 5 
To predecode: 0
Predecoding something: 0
Predecode request dropped: 0
sizeofblock_0 0
sizeofblock_1 225041
sizeofblock_2 351680
sizeofblock_3 0
sizeofblock_4 0
sizeofblock_5 0
sizeofblock_6 0
sizeofblock_7 0
sizeofblock_8 0
Variant_0 Correct: 0 Incorrect: 0 Accuracy: -nan
Variant_1 Correct: 0 Incorrect: 0 Accuracy: -nan
Variant_2 Correct: 0 Incorrect: 0 Accuracy: -nan
Variant_3 Correct: 0 Incorrect: 0 Accuracy: -nan
