
*** ChampSim Multicore Out-of-Order Simulator ***

Warmup Instructions: 50000000
Simulation Instructions: 50000000
Number of CPUs: 1
LLC sets: 2048
LLC ways: 16
Off-chip DRAM Size: 4096 MB Channels: 1 Width: 64-bit Data Rate: 6400 MT/s
CPU 0 runs ./micro_traces/srv13.trace.gz
.gz
ITLB has LRU replacement policy
DTLB has LRU replacement policy
STLB has LRU replacement policy
FDIP Prefetcher at L1I
L1I has LRU replacement policy
L1D has LRU replacement policy
Initialize SRRIP state for L2C
Initialize DRRIP state for LLC
Heartbeat CPU 0 instructions: 10000000 cycles: 2796873 heartbeat IPC: 3.57542 cumulative IPC: 3.57542 (Simulation time: 0 hr 2 min 32 sec) 
Heartbeat CPU 0 instructions: 20000001 cycles: 5593725 heartbeat IPC: 3.57545 cumulative IPC: 3.57544 (Simulation time: 0 hr 4 min 5 sec) 
Heartbeat CPU 0 instructions: 30000003 cycles: 8390230 heartbeat IPC: 3.57589 cumulative IPC: 3.57559 (Simulation time: 0 hr 5 min 38 sec) 
Heartbeat CPU 0 instructions: 40000000 cycles: 11187632 heartbeat IPC: 3.57474 cumulative IPC: 3.57538 (Simulation time: 0 hr 7 min 11 sec) 
Heartbeat CPU 0 instructions: 50000001 cycles: 13984454 heartbeat IPC: 3.57549 cumulative IPC: 3.5754 (Simulation time: 0 hr 8 min 44 sec) 

Warmup complete CPU 0 instructions: 50000001 cycles: 13984454 (Simulation time: 0 hr 8 min 44 sec) 

Cycle: 20000000 FTQ IN: 57076448 FTQ occupancy: 18.2855 DECODE IN: 57076448 DECODE occupancy: 46.8464 ROB IN: 57076448 ROB occupancy: 283.627 ROB OUT: 57076111
Heartbeat CPU 0 instructions: 60000000 cycles: 22510164 heartbeat IPC: 1.17292 cumulative IPC: 1.17292 (Simulation time: 0 hr 10 min 7 sec) 
Cycle: 30000000 FTQ IN: 11551726 FTQ occupancy: 7.45902 DECODE IN: 11551654 DECODE occupancy: 16.2718 ROB IN: 11551654 ROB occupancy: 131.858 ROB OUT: 11551931
Heartbeat CPU 0 instructions: 70000003 cycles: 31160127 heartbeat IPC: 1.15607 cumulative IPC: 1.16444 (Simulation time: 0 hr 11 min 31 sec) 
Heartbeat CPU 0 instructions: 80000001 cycles: 39652969 heartbeat IPC: 1.17746 cumulative IPC: 1.16875 (Simulation time: 0 hr 12 min 53 sec) 
Cycle: 40000000 FTQ IN: 11789066 FTQ occupancy: 7.37707 DECODE IN: 11789119 DECODE occupancy: 16.3018 ROB IN: 11789119 ROB occupancy: 135.176 ROB OUT: 11789177
Heartbeat CPU 0 instructions: 90000000 cycles: 48319244 heartbeat IPC: 1.1539 cumulative IPC: 1.165 (Simulation time: 0 hr 14 min 16 sec) 
Cycle: 50000000 FTQ IN: 11554487 FTQ occupancy: 7.45697 DECODE IN: 11554460 DECODE occupancy: 16.2961 ROB IN: 11554460 ROB occupancy: 132.469 ROB OUT: 11554335
Heartbeat CPU 0 instructions: 100000001 cycles: 56845726 heartbeat IPC: 1.17282 cumulative IPC: 1.16655 (Simulation time: 0 hr 15 min 39 sec) 
Finished CPU 0 instructions: 50000000 cycles: 42861272 cumulative IPC: 1.16655 (Simulation time: 0 hr 15 min 39 sec) 

ChampSim completed all CPUs

Region of Interest Statistics

CPU 0 cumulative IPC: 1.16655 instructions: 50000000 cycles: 42861272
 Fetch stage stalled: 68.961  Sim cycles: 42861272 fetch stall cycle: 29557573
 Empty decode stage: 56.0029  Sim cycles: 42861272 fetch stall cycle: 24003545
ITLB TOTAL     ACCESS:    5600737  HIT:    5102526  MISS:     498211  HIT %:    91.1045  MISS %:    8.89545   MPKI: 9.96422
ITLB LOAD TRANSLATION INSTRUCTION	ACCESS:    5490524  HIT:    4992313  MISS:     498211  HIT %:     90.926  MISS %:    9.07402  MPKI: 9.96422
ITLB TRANSLATION FROM L1D PREFETCHER INSTRUCTION	ACCESS:     110213  HIT:     110213  MISS:          0  HIT %:        100  MISS %:          0  MPKI: 0

ITLB AVERAGE MISS LATENCY: 9.0469 cycles
ITLB RQ	ACCESS:    7492068	FORWARD:          0	MERGED:    1397656	TO_CACHE:    6094412

DTLB TOTAL     ACCESS:    9255759  HIT:    8775409  MISS:     480350  HIT %:    94.8103  MISS %:    5.18974   MPKI: 9.607
DTLB LOAD TRANSLATION DATA	ACCESS:    9255759  HIT:    8775409  MISS:     480350  HIT %:    94.8103  MISS %:    5.18974  MPKI: 9.607

DTLB AVERAGE MISS LATENCY: 9.30534 cycles
DTLB RQ	ACCESS:   13556555	FORWARD:          0	MERGED:    4266092	TO_CACHE:    9290463

STLB TOTAL     ACCESS:    1226587  HIT:    1224518  MISS:       2069  HIT %:    99.8313  MISS %:   0.168679   MPKI: 0.04138
STLB LOAD TRANSLATION INSTRUCTION	ACCESS:     498212  HIT:     497965  MISS:        247  HIT %:    99.9504  MISS %:  0.0495773  MPKI: 0.00494
STLB LOAD TRANSLATION DATA	ACCESS:     480293  HIT:     478507  MISS:       1786  HIT %:    99.6281  MISS %:   0.371856  MPKI: 0.03572
STLB TRANSLATION FROM L1D PREFETCHER DATA	ACCESS:     248082  HIT:     248046  MISS:         36  HIT %:    99.9855  MISS %:  0.0145113  MPKI: 0.00072

STLB AVERAGE MISS LATENCY: 70.9449 cycles
STLB RQ	ACCESS:    1344940	FORWARD:          0	MERGED:     118307	TO_CACHE:    1226633

STLB Hit, L1D data hit: 0
STLB Hit, L2C data hit: 0
STLB Hit, LLC data hit: 0
STLB Hit, LLC data miss: 0
STLB STLB hints to L2: 0
L1D TOTAL     ACCESS:   13313803  HIT:   12187805  MISS:    1125998  HIT %:    91.5426  MISS %:    8.45737   MPKI: 22.52
L1D LOAD DATA	ACCESS:    6744891  HIT:    6000762  MISS:     744129  HIT %:    88.9675  MISS %:    11.0325  MPKI: 14.8826
L1D RFO DATA	ACCESS:    6244376  HIT:    5957040  MISS:     287336  HIT %:    95.3985  MISS %:    4.60152  MPKI: 5.74672
L1D PREFETCH DATA	ACCESS:     324536  HIT:     230003  MISS:      94533  HIT %:    70.8713  MISS %:    29.1287  MPKI: 1.89066

L1D PREFETCH  REQUESTED:     733040  ISSUED:     733040  USEFUL:      33593  USELESS:      69244
L1D USEFUL LOAD PREFETCHES:      33593 PREFETCH ISSUED TO LOWER LEVEL:     102898  ACCURACY: 32.6469
 TIMELY PREFETCHES:      33593 LATE PREFETCHES: 8310 DROPPED PREFETCHES: 14
L1D AVERAGE MISS LATENCY: 262932 cycles
L1D RQ	ACCESS:   10839609	FORWARD:          0	MERGED:    3894098	TO_CACHE:    6779477
L1D WQ	ACCESS:    6956492	FORWARD:     166318	MERGED:     179414	TO_CACHE:    6777078
L1D PQ	ACCESS:     366662	FORWARD:          0	MERGED:          0	TO_CACHE:     366378

L1D UNIQUE REGIONS ACCESSED: 0
L1D REGIONS CONFLICTS: 0
L1D Cross Page Prefetch Requests: 6797
L1D Same Page Prefetch Requests: 744106
L1D ROI Sum of L1D PQ occupancy: 4649824
L1D PREFETCHES PUSHED FROM L2C: 0
L1I TOTAL     ACCESS:    6912880  HIT:    4129935  MISS:    2782945  HIT %:    59.7426  MISS %:    40.2574   MPKI: 55.6589
L1I LOAD INSTRUCTION	ACCESS:    6404185  HIT:    3621240  MISS:    2782945  HIT %:    56.5449  MISS %:    43.4551  MPKI: 55.6589
L1I PREFETCH INSTRUCTION	ACCESS:     508695  HIT:     508695  MISS:          0  HIT %:        100  MISS %:          0  MPKI: 0

L1I PREFETCH  REQUESTED:    1178775  ISSUED:    1178775  USEFUL:          0  USELESS:          0
L1I USEFUL LOAD PREFETCHES:          0 PREFETCH ISSUED TO LOWER LEVEL:          0  ACCURACY: -nan
 TIMELY PREFETCHES:          0 LATE PREFETCHES: 0 DROPPED PREFETCHES: 0
L1I AVERAGE MISS LATENCY: 17.1116 cycles
L1I RQ	ACCESS:    9459421	FORWARD:          0	MERGED:    2814428	TO_CACHE:    6644993
L1I PQ	ACCESS:    1178775	FORWARD:          0	MERGED:     331700	TO_CACHE:     847075

L1BTB TOTAL     ACCESS:    5673032  HIT:    2024018  MISS:    3649014  HIT %:    35.6779  MISS %:    64.3221   MPKI: 72.9803
L1BTB BRANCH_DIRECT_JUMP	ACCESS:     548174  HIT:     142853  MISS:     405321	AVERAGE STALL: 36.5753
L1BTB BRANCH_INDIRECT	ACCESS:     182396  HIT:      65510  MISS:     116886	AVERAGE STALL: 105.462
L1BTB BRANCH_CONDITIONAL	ACCESS:    2700052  HIT:    1400609  MISS:    1299443	AVERAGE STALL: 39.9293
L1BTB BRANCH_DIRECT_CALL	ACCESS:     948929  HIT:     104671  MISS:     844258	AVERAGE STALL: 40.4923
L1BTB BRANCH_INDIRECT_CALL	ACCESS:     172271  HIT:      21008  MISS:     151263	AVERAGE STALL: 116.014
L1BTB BRANCH_RETURN	ACCESS:    1121210  HIT:     289367  MISS:     831843	AVERAGE STALL: 38.3139
L1BTB BRANCH_OTHER ACCESS:          0  HIT:          0  MISS:          0	AVERAGE STALL: -nan
L1BTB TOTAL ROB OCCUPANCY AT BTB MISS: 11.9693

L2BTB1 TOTAL     ACCESS:    3623748  HIT:    3217463  MISS:     406285  HIT %:    88.7883  MISS %:    11.2117   MPKI: 8.1257
L2BTB1 BRANCH_DIRECT_JUMP	ACCESS:     401248  HIT:     365048  MISS:      36200	AVERAGE STALL: 36.5753
L2BTB1 BRANCH_INDIRECT	ACCESS:     106555  HIT:      84028  MISS:      22527	AVERAGE STALL: 105.462
L2BTB1 BRANCH_CONDITIONAL	ACCESS:    1299443  HIT:    1191394  MISS:     108049	AVERAGE STALL: 39.9293
L2BTB1 BRANCH_DIRECT_CALL	ACCESS:     844258  HIT:     729296  MISS:     114962	AVERAGE STALL: 40.4923
L2BTB1 BRANCH_INDIRECT_CALL	ACCESS:     141819  HIT:     117695  MISS:      24124	AVERAGE STALL: 116.014
L2BTB1 BRANCH_RETURN	ACCESS:     830425  HIT:     730002  MISS:     100423	AVERAGE STALL: 38.3139
L2BTB1 BRANCH_OTHER ACCESS:          0  HIT:          0  MISS:          0	AVERAGE STALL: -nan
L2BTB1 TOTAL ROB OCCUPANCY AT BTB MISS: 107.501

L2C TOTAL     ACCESS:    4519765  HIT:    4051895  MISS:     467870  HIT %:    89.6484  MISS %:    10.3516   MPKI: 9.3574
L2C LOAD INSTRUCTION	ACCESS:    2782946  HIT:    2534356  MISS:     248590  HIT %:    91.0674  MISS %:    8.93262  MPKI: 4.9718
L2C LOAD TRANSLATION INSTRUCTION	ACCESS:        279  HIT:         89  MISS:        190  HIT %:    31.8996  MISS %:    68.1004  MPKI: 0.0038
L2C LOAD DATA	ACCESS:     735810  HIT:     660906  MISS:      74904  HIT %:    89.8202  MISS %:    10.1798  MPKI: 1.49808
L2C RFO DATA	ACCESS:     287266  HIT:     233210  MISS:      54056  HIT %:    81.1826  MISS %:    18.8174  MPKI: 1.08112
L2C PREFETCH DATA	ACCESS:     186150  HIT:     112426  MISS:      73724  HIT %:    60.3954  MISS %:    39.6046  MPKI: 1.47448
L2C WRITEBACK DATA	ACCESS:     525383  HIT:     510336  MISS:      15047  HIT %:     97.136  MISS %:    2.86401  MPKI: 0.30094
L2C LOAD TRANSLATION DATA	ACCESS:       1865  HIT:        529  MISS:       1336  HIT %:    28.3646  MISS %:    71.6354  MPKI: 0.02672
L2C TRANSLATION FROM L1D PREFETCHER DATA	ACCESS:         66  HIT:         43  MISS:         23  HIT %:    65.1515  MISS %:    34.8485  MPKI: 0.00046

L2C PREFETCH  REQUESTED:      91239  ISSUED:      91239  USEFUL:       7970  USELESS:      66112
L2C USEFUL LOAD PREFETCHES:       7970 PREFETCH ISSUED TO LOWER LEVEL:      74018  ACCURACY: 10.7677
 TIMELY PREFETCHES:       7970 LATE PREFETCHES: 294 DROPPED PREFETCHES: 0
L2C AVERAGE MISS LATENCY: 38.3746 cycles
L2C RQ	ACCESS:    3808256	FORWARD:          0	MERGED:          0	TO_CACHE:    3808232
L2C WQ	ACCESS:     525383	FORWARD:         26	MERGED:          0	TO_CACHE:     525383
L2C PQ	ACCESS:     194137	FORWARD:          0	MERGED:       3636	TO_CACHE:     190499

L2C Dense regions hint from L2: 0
PSCL5 TOTAL     ACCESS:       4174  HIT:       2087  MISS:       2087  HIT %:         50  MISS %:         50   MPKI: 0.04174
PSCL5 LOAD TRANSLATION INSTRUCTION	ACCESS:       4044  HIT:       2022  MISS:       2022  HIT %:         50  MISS %:         50  MPKI: 0.04044
PSCL5 TRANSLATION FROM L1D PREFETCHER INSTRUCTION	ACCESS:        130  HIT:         65  MISS:         65  HIT %:         50  MISS %:         50  MPKI: 0.0013


PSCL4 TOTAL     ACCESS:       3455  HIT:       1721  MISS:       1734  HIT %:    49.8119  MISS %:    50.1881   MPKI: 0.03468
PSCL4 LOAD TRANSLATION INSTRUCTION	ACCESS:       2044  HIT:       1664  MISS:        380  HIT %:     81.409  MISS %:     18.591  MPKI: 0.0076
PSCL4 TRANSLATION FROM L1D PREFETCHER INSTRUCTION	ACCESS:         71  HIT:         57  MISS:         14  HIT %:    80.2817  MISS %:    19.7183  MPKI: 0.00028
PSCL4 LOAD TRANSLATION DATA	ACCESS:       1297  HIT:          0  MISS:       1297  HIT %:          0  MISS %:        100  MPKI: 0.02594
PSCL4 TRANSLATION FROM L1D PREFETCHER DATA	ACCESS:         43  HIT:          0  MISS:         43  HIT %:          0  MISS %:        100  MPKI: 0.00086


PSCL3 TOTAL     ACCESS:       3485  HIT:       1736  MISS:       1749  HIT %:    49.8135  MISS %:    50.1865   MPKI: 0.03498
PSCL3 LOAD TRANSLATION INSTRUCTION	ACCESS:       2059  HIT:       1679  MISS:        380  HIT %:    81.5444  MISS %:    18.4556  MPKI: 0.0076
PSCL3 TRANSLATION FROM L1D PREFETCHER INSTRUCTION	ACCESS:         71  HIT:         57  MISS:         14  HIT %:    80.2817  MISS %:    19.7183  MPKI: 0.00028
PSCL3 LOAD TRANSLATION DATA	ACCESS:       1312  HIT:          0  MISS:       1312  HIT %:          0  MISS %:        100  MPKI: 0.02624
PSCL3 TRANSLATION FROM L1D PREFETCHER DATA	ACCESS:         43  HIT:          0  MISS:         43  HIT %:          0  MISS %:        100  MPKI: 0.00086


PSCL2 TOTAL     ACCESS:       4076  HIT:       1989  MISS:       2087  HIT %:    48.7978  MISS %:    51.2022   MPKI: 0.04174
PSCL2 LOAD TRANSLATION INSTRUCTION	ACCESS:       2170  HIT:       1925  MISS:        245  HIT %:    88.7097  MISS %:    11.2903  MPKI: 0.0049
PSCL2 TRANSLATION FROM L1D PREFETCHER INSTRUCTION	ACCESS:         64  HIT:         64  MISS:          0  HIT %:        100  MISS %:          0  MPKI: 0
PSCL2 LOAD TRANSLATION DATA	ACCESS:       1778  HIT:          0  MISS:       1778  HIT %:          0  MISS %:        100  MPKI: 0.03556
PSCL2 TRANSLATION FROM L1D PREFETCHER DATA	ACCESS:         64  HIT:          0  MISS:         64  HIT %:          0  MISS %:        100  MPKI: 0.00128


LLC TOTAL     ACCESS:     528547  HIT:     500733  MISS:      27814  HIT %:    94.7376  MISS %:    5.26235   MPKI: 0.55628
LLC LOAD INSTRUCTION	ACCESS:     248590  HIT:     247715  MISS:        875  HIT %:     99.648  MISS %:   0.351985  MPKI: 0.0175
LLC LOAD TRANSLATION INSTRUCTION	ACCESS:        190  HIT:        158  MISS:         32  HIT %:    83.1579  MISS %:    16.8421  MPKI: 0.00064
LLC LOAD DATA	ACCESS:      74615  HIT:      71102  MISS:       3513  HIT %:    95.2918  MISS %:    4.70817  MPKI: 0.07026
LLC RFO DATA	ACCESS:      54031  HIT:      40944  MISS:      13087  HIT %:    75.7787  MISS %:    24.2213  MPKI: 0.26174
LLC PREFETCH DATA	ACCESS:      74015  HIT:      64092  MISS:       9923  HIT %:    86.5933  MISS %:    13.4067  MPKI: 0.19846
LLC WRITEBACK DATA	ACCESS:      75747  HIT:      75439  MISS:        308  HIT %:    99.5934  MISS %:   0.406617  MPKI: 0.00616
LLC LOAD TRANSLATION DATA	ACCESS:       1336  HIT:       1260  MISS:         76  HIT %:    94.3114  MISS %:    5.68862  MPKI: 0.00152
LLC TRANSLATION FROM L1D PREFETCHER DATA	ACCESS:         23  HIT:         23  MISS:          0  HIT %:        100  MISS %:          0  MPKI: 0

LLC AVERAGE MISS LATENCY: 156.031 cycles
LLC RQ	ACCESS:     378805	FORWARD:          0	MERGED:          0	TO_CACHE:     378785
LLC WQ	ACCESS:      75747	FORWARD:         23	MERGED:          0	TO_CACHE:      75747
LLC PQ	ACCESS:      74018	FORWARD:          0	MERGED:          0	TO_CACHE:      74015

LLC Dense regions hint to LLC: 0

RAW hits: 1794014
Loads Generated: 12633624
Loads sent to L1D: 10839609
Stores Generated: 6956478
Stores sent to L1D: 6956492
Major fault: 0 Minor fault: 2510
Allocated PAGES: 2510

stream: 
stream:times selected: 1177468
stream:pref_filled: 122722
stream:pref_useful: 23657
stream:pref_late: 7036
stream:misses: 8059
stream:misses_by_poll: 0

CS: 
CS:times selected: 176316
CS:pref_filled: 58404
CS:pref_useful: 34897
CS:pref_late: 7285
CS:misses: 16287
CS:misses_by_poll: 6

CPLX: 
CPLX:times selected: 1000027
CPLX:pref_filled: 19447
CPLX:pref_useful: 4744
CPLX:pref_late: 3162
CPLX:misses: 95097
CPLX:misses_by_poll: 1

NL_L1: 
NL:times selected: 20158
NL:pref_filled: 748
NL:pref_useful: 343
NL:pref_late: 270
NL:misses: 1919
NL:misses_by_poll: 0

total selections: 2373969
total_filled: 94533
total_useful: 33593
total_late: 19038
total_polluted: 7
total_misses_after_warmup: 778719
conflicts: 5621304

test: 117321

DRAM Statistics
 CHANNEL 0
 RQ ROW_BUFFER_HIT:      10120  ROW_BUFFER_MISS:      17360
 DBUS_CONGESTED:          6
 WQ ROW_BUFFER_HIT:       1296  ROW_BUFFER_MISS:      11588  FULL:          0

 AVG_CONGESTED_CYCLE: 5

CPU 0 Branch Prediction Accuracy: 99.8196% MPKI: 0.33026 Average ROB Occupancy at Mispredict: 147.845
Branch types
NOT_BRANCH: 40845572 81.6911%
BRANCH_DIRECT_JUMP: 548174 1.09635%
BRANCH_INDIRECT: 182396 0.364792%
BRANCH_CONDITIONAL: 6181133 12.3623%
BRANCH_DIRECT_CALL: 948929 1.89786%
BRANCH_INDIRECT_CALL: 172271 0.344542%
BRANCH_RETURN: 1121210 2.24242%
BRANCH_OTHER: 0 0%

DRAM PAGES: 1048576
Allocated PAGES: 2510
Average_ROB_Occupancy: 133.931
Average_Decode_Occupancy: 16.24
Average_FTQ_Occupancy: 7.39735
Indirect max targets: 14 Average targets: 1.14527
Branch_type:  BRANCH_DIRECT_JUMP:  Count Percentage: 3.77754 4.3202 3.61667 2.75026 8.7082 6.32276 2.64304 67.8613 
Branch_type:  BRANCH_INDIRECT:  Count Percentage: 11.7832 0.782183 2.47723 13.2883 3.35174 2.81723 2.95997 62.5401 
Branch_type:  BRANCH_CONDITIONAL:  Count Percentage: 24.9251 2.55689 2.211 3.57949 3.41394 4.08722 3.13397 56.0924 
Branch_type:  BRANCH_DIRECT_CALL:  Count Percentage: 0.387189 1.81758 0.715355 1.91715 4.91879 2.96273 4.97597 82.3052 
Branch_type:  BRANCH_INDIRECT_CALL:  Count Percentage: 9.5726 0 3.0019 5.24046 0 2.68895 3.85996 75.6361 
Branch_type:  BRANCH_RETURN:  Count Percentage: 7.50561 1.90532 2.89054 3.60958 3.67009 4.21982 4.21353 71.9855 
Branch_type:  BRANCH_DIRECT_JUMP:  Total Count: 41398 47345 39635 30140 95433 69291 28965 743691 
Branch_type:  BRANCH_INDIRECT:  Total Count: 43009 2855 9042 48503 12234 10283 10804 228274 
Branch_type:  BRANCH_CONDITIONAL:  Total Count: 3079953 315950 273209 442311 421855 505050 387259 6931237 
Branch_type:  BRANCH_DIRECT_CALL:  Total Count: 7334 34428 13550 36314 93170 56119 94253 1558996 
Branch_type:  BRANCH_INDIRECT_CALL:  Total Count: 32944 0 10331 18035 0 9254 13284 260301 
Branch_type:  BRANCH_RETURN:  Total Count: 168058 42662 64722 80822 82177 94486 94345 1611827 
Number of unique branch instructions: 9789
Upper 32 bits: 
aaaa
ffff
ffff0000
Unique upper 32 bits: 3
Unique upper 36 bits: 3
Unique upper 40 bits: 5
Unique upper 44 bits: 32
Unique upper 48 bits: 154
Offset_3 4026
Offset_4 246
Offset_5 447
Offset_6 498
Offset_7 579
Offset_8 501
Offset_9 463
Offset_10 378
Offset_11 304
Offset_12 270
Offset_13 198
Offset_14 225
Offset_15 179
Offset_16 220
Offset_17 143
Offset_18 118
Offset_19 234
Offset_20 135
Offset_21 235
Offset_22 392
Offset_23 241
Offset_24 333
Offset_25 88
Offset_47 82
decode_dispatch_called: 20195185 47.1176
Dispatch_width: 0 10029109 49.6609 23.399
Dispatch_width: 1 547440 2.71075 1.27724
Dispatch_width: 2 677421 3.35437 1.5805
Dispatch_width: 3 429118 2.12485 1.00118
Dispatch_width: 4 1985614 9.83212 4.63265
Dispatch_width: 5 291216 1.44201 0.679439
Dispatch_width: 6 6235267 30.875 14.5476
Empty_decode_cycles: 22666087 52.8824
ROB_full_cycles: 2789992 6.50935
Starvation_cycles_per_kilo_instr: 338.36
Starvation_cycles_per_kilo_instr_3: 315.592
Starvation_cycles_per_kilo_instr_0: 299.052
Branch_type_1  (3,1)  (4,9)  (5,37)  (6,69)  (7,116)  (8,125)  (9,122)  (10,98)  (11,69)  (12,43)  (13,5)  (14,2)  (15,3)  (16,4)  (18,1)  (19,4)  (20,2)  (21,1)  (22,3)  (23,2)  (24,10)  (25,12) 
Branch_type_2  (3,1)  (5,1)  (8,3)  (9,3)  (12,1)  (13,1)  (14,1)  (16,3)  (17,2)  (20,2)  (21,2)  (23,5)  (24,1)  (47,38) 
Branch_type_3  (3,4024)  (4,237)  (5,405)  (6,414)  (7,434)  (8,314)  (9,255)  (10,154)  (11,125)  (12,50)  (13,4) 
Branch_type_4  (6,3)  (7,8)  (8,24)  (9,52)  (10,60)  (11,55)  (12,97)  (13,85)  (14,99)  (15,84)  (16,98)  (17,64)  (18,53)  (19,114)  (20,71)  (21,124)  (22,207)  (23,136)  (24,193)  (25,72) 
Branch_type_5  (8,2)  (9,1)  (10,3)  (11,5)  (12,3)  (13,14)  (14,16)  (15,11)  (16,20)  (17,11)  (18,16)  (19,12)  (20,10)  (21,13)  (22,42)  (23,26)  (24,37) 
Branch_type_6  (5,4)  (6,12)  (7,21)  (8,33)  (9,30)  (10,63)  (11,50)  (12,76)  (13,89)  (14,107)  (15,81)  (16,95)  (17,66)  (18,48)  (19,104)  (20,50)  (21,95)  (22,140)  (23,72)  (24,92)  (25,4)  (47,44) 
Unique trigger count: 
L2BTB1 768 4
L2BTB2 768 4
L2BTB3 768 4
L2BTB4 112 4
