
*** ChampSim Multicore Out-of-Order Simulator ***

Warmup Instructions: 50000000
Simulation Instructions: 50000000
Number of CPUs: 1
LLC sets: 2048
LLC ways: 16
Off-chip DRAM Size: 4096 MB Channels: 1 Width: 64-bit Data Rate: 6400 MT/s
CPU 0 runs ./micro_traces/srv17.trace.gz
.gz
ITLB has LRU replacement policy
DTLB has LRU replacement policy
STLB has LRU replacement policy
L1I has LRU replacement policy
L1D has LRU replacement policy
Initialize SRRIP state for L2C
Initialize DRRIP state for LLC
Heartbeat_Variant_0 : 1296 0.316406 per_variant_size: 0 1296 0 0 0 0 0 0 0 
Heartbeat_Variant_1 : 1208 0.294922 per_variant_size: 0 648 560 0 0 0 0 0 0 
Heartbeat_Variant_2 : 1285 0.313721 per_variant_size: 0 549 350 222 164 0 0 0 0 
Heartbeat_Variant_3 : 0 0 per_variant_size: 0 0 0 0 0 0 0 0 0 
Heartbeat_Variant_0_evicts 0 : 5885 1 : 235 2 : 238 3 : 0 
Heartbeat_Variant_1_evicts 0 : 217 1 : 0 2 : 410 3 : 0 
Heartbeat_Variant_2_evicts 0 : 218 1 : 401 2 : 0 3 : 0 
Heartbeat_Variant_3_evicts 0 : 0 1 : 0 2 : 0 3 : 0 
Heartbeat CPU 0 instructions: 10000000 cycles: 2798834 heartbeat IPC: 3.57292 cumulative IPC: 3.57292 (Simulation time: 0 hr 1 min 28 sec) 
Heartbeat_Variant_0 : 1323 0.322998 per_variant_size: 0 1323 0 0 0 0 0 0 0 
Heartbeat_Variant_1 : 1226 0.299316 per_variant_size: 0 625 601 0 0 0 0 0 0 
Heartbeat_Variant_2 : 1314 0.320801 per_variant_size: 0 535 371 235 173 0 0 0 0 
Heartbeat_Variant_3 : 0 0 per_variant_size: 0 0 0 0 0 0 0 0 0 
Heartbeat_Variant_0_evicts 0 : 5626 1 : 60 2 : 81 3 : 0 
Heartbeat_Variant_1_evicts 0 : 67 1 : 0 2 : 278 3 : 0 
Heartbeat_Variant_2_evicts 0 : 74 1 : 290 2 : 0 3 : 0 
Heartbeat_Variant_3_evicts 0 : 0 1 : 0 2 : 0 3 : 0 
Heartbeat CPU 0 instructions: 20000000 cycles: 5596990 heartbeat IPC: 3.57378 cumulative IPC: 3.57335 (Simulation time: 0 hr 2 min 45 sec) 
Heartbeat_Variant_0 : 1355 0.330811 per_variant_size: 0 1355 0 0 0 0 0 0 0 
Heartbeat_Variant_1 : 1255 0.306396 per_variant_size: 0 616 639 0 0 0 0 0 0 
Heartbeat_Variant_2 : 1326 0.32373 per_variant_size: 0 515 380 234 197 0 0 0 0 
Heartbeat_Variant_3 : 0 0 per_variant_size: 0 0 0 0 0 0 0 0 0 
Heartbeat_Variant_0_evicts 0 : 5687 1 : 114 2 : 142 3 : 0 
Heartbeat_Variant_1_evicts 0 : 115 1 : 0 2 : 304 3 : 0 
Heartbeat_Variant_2_evicts 0 : 134 1 : 300 2 : 0 3 : 0 
Heartbeat_Variant_3_evicts 0 : 0 1 : 0 2 : 0 3 : 0 
Heartbeat CPU 0 instructions: 30000002 cycles: 8395717 heartbeat IPC: 3.57305 cumulative IPC: 3.57325 (Simulation time: 0 hr 4 min 3 sec) 
Heartbeat_Variant_0 : 1351 0.329834 per_variant_size: 0 1351 0 0 0 0 0 0 0 
Heartbeat_Variant_1 : 1268 0.30957 per_variant_size: 0 625 643 0 0 0 0 0 0 
Heartbeat_Variant_2 : 1332 0.325195 per_variant_size: 0 510 386 248 188 0 0 0 0 
Heartbeat_Variant_3 : 0 0 per_variant_size: 0 0 0 0 0 0 0 0 0 
Heartbeat_Variant_0_evicts 0 : 5695 1 : 59 2 : 41 3 : 0 
Heartbeat_Variant_1_evicts 0 : 56 1 : 0 2 : 241 3 : 0 
Heartbeat_Variant_2_evicts 0 : 50 1 : 233 2 : 0 3 : 0 
Heartbeat_Variant_3_evicts 0 : 0 1 : 0 2 : 0 3 : 0 
Heartbeat CPU 0 instructions: 40000003 cycles: 11194208 heartbeat IPC: 3.57335 cumulative IPC: 3.57328 (Simulation time: 0 hr 5 min 19 sec) 
Heartbeat_Variant_0 : 1357 0.331299 per_variant_size: 0 1357 0 0 0 0 0 0 0 
Heartbeat_Variant_1 : 1300 0.317383 per_variant_size: 0 644 656 0 0 0 0 0 0 
Heartbeat_Variant_2 : 1336 0.326172 per_variant_size: 0 507 389 240 200 0 0 0 0 
Heartbeat_Variant_3 : 0 0 per_variant_size: 0 0 0 0 0 0 0 0 0 
Heartbeat_Variant_0_evicts 0 : 5655 1 : 107 2 : 104 3 : 0 
Heartbeat_Variant_1_evicts 0 : 112 1 : 0 2 : 307 3 : 0 
Heartbeat_Variant_2_evicts 0 : 101 1 : 297 2 : 0 3 : 0 
Heartbeat_Variant_3_evicts 0 : 0 1 : 0 2 : 0 3 : 0 
Heartbeat CPU 0 instructions: 50000003 cycles: 13992514 heartbeat IPC: 3.57359 cumulative IPC: 3.57334 (Simulation time: 0 hr 6 min 37 sec) 

Warmup complete CPU 0 instructions: 50000003 cycles: 13992514 (Simulation time: 0 hr 6 min 37 sec) 

Cycle: 20000000 FTQ IN: 55338017 FTQ occupancy: 15.724 DECODE IN: 55338004 DECODE occupancy: 9.5151 ROB IN: 55337996 ROB occupancy: 258.854 ROB OUT: 55337913
Heartbeat_Variant_0 : 1357 0.331299 per_variant_size: 0 1357 0 0 0 0 0 0 0 
Heartbeat_Variant_1 : 1300 0.317383 per_variant_size: 0 643 657 0 0 0 0 0 0 
Heartbeat_Variant_2 : 1336 0.326172 per_variant_size: 0 504 391 247 194 0 0 0 0 
Heartbeat_Variant_3 : 0 0 per_variant_size: 0 0 0 0 0 0 0 0 0 
Heartbeat_Variant_0_evicts 0 : 5518 1 : 4 2 : 7 3 : 0 
Heartbeat_Variant_1_evicts 0 : 4 1 : 0 2 : 200 3 : 0 
Heartbeat_Variant_2_evicts 0 : 7 1 : 200 2 : 0 3 : 0 
Heartbeat_Variant_3_evicts 0 : 0 1 : 0 2 : 0 3 : 0 
Heartbeat CPU 0 instructions: 60000002 cycles: 25237541 heartbeat IPC: 0.889282 cumulative IPC: 0.889282 (Simulation time: 0 hr 7 min 51 sec) 
Cycle: 30000000 FTQ IN: 8763664 FTQ occupancy: 14.3655 DECODE IN: 8763659 DECODE occupancy: 4.89283 ROB IN: 8763665 ROB occupancy: 53.0891 ROB OUT: 8763730
Heartbeat_Variant_0 : 1364 0.333008 per_variant_size: 0 1364 0 0 0 0 0 0 0 
Heartbeat_Variant_1 : 1298 0.316895 per_variant_size: 0 641 657 0 0 0 0 0 0 
Heartbeat_Variant_2 : 1345 0.328369 per_variant_size: 0 510 393 244 198 0 0 0 0 
Heartbeat_Variant_3 : 0 0 per_variant_size: 0 0 0 0 0 0 0 0 0 
Heartbeat_Variant_0_evicts 0 : 5639 1 : 64 2 : 68 3 : 0 
Heartbeat_Variant_1_evicts 0 : 63 1 : 0 2 : 255 3 : 0 
Heartbeat_Variant_2_evicts 0 : 66 1 : 261 2 : 0 3 : 0 
Heartbeat_Variant_3_evicts 0 : 0 1 : 0 2 : 0 3 : 0 
Heartbeat CPU 0 instructions: 70000003 cycles: 36627206 heartbeat IPC: 0.877989 cumulative IPC: 0.883599 (Simulation time: 0 hr 9 min 0 sec) 
Cycle: 40000000 FTQ IN: 8823615 FTQ occupancy: 14.2864 DECODE IN: 8823615 DECODE occupancy: 4.85242 ROB IN: 8823617 ROB occupancy: 50.5616 ROB OUT: 8823605
Heartbeat_Variant_0 : 1370 0.334473 per_variant_size: 0 1370 0 0 0 0 0 0 0 
Heartbeat_Variant_1 : 1306 0.318848 per_variant_size: 0 639 667 0 0 0 0 0 0 
Heartbeat_Variant_2 : 1352 0.330078 per_variant_size: 0 518 388 252 194 0 0 0 0 
Heartbeat_Variant_3 : 0 0 per_variant_size: 0 0 0 0 0 0 0 0 0 
Heartbeat_Variant_0_evicts 0 : 5851 1 : 170 2 : 163 3 : 0 
Heartbeat_Variant_1_evicts 0 : 170 1 : 0 2 : 344 3 : 0 
Heartbeat_Variant_2_evicts 0 : 159 1 : 341 2 : 0 3 : 0 
Heartbeat_Variant_3_evicts 0 : 0 1 : 0 2 : 0 3 : 0 
Heartbeat CPU 0 instructions: 80000003 cycles: 47942897 heartbeat IPC: 0.883729 cumulative IPC: 0.883642 (Simulation time: 0 hr 10 min 9 sec) 
Cycle: 50000000 FTQ IN: 8917708 FTQ occupancy: 14.3278 DECODE IN: 8917708 DECODE occupancy: 4.89074 ROB IN: 8917708 ROB occupancy: 51.5375 ROB OUT: 8917710
Heartbeat_Variant_0 : 1381 0.337158 per_variant_size: 0 1381 0 0 0 0 0 0 0 
Heartbeat_Variant_1 : 1311 0.320068 per_variant_size: 0 618 693 0 0 0 0 0 0 
Heartbeat_Variant_2 : 1356 0.331055 per_variant_size: 0 495 407 252 202 0 0 0 0 
Heartbeat_Variant_3 : 0 0 per_variant_size: 0 0 0 0 0 0 0 0 0 
Heartbeat_Variant_0_evicts 0 : 5785 1 : 146 2 : 171 3 : 0 
Heartbeat_Variant_1_evicts 0 : 153 1 : 0 2 : 337 3 : 0 
Heartbeat_Variant_2_evicts 0 : 157 1 : 344 2 : 0 3 : 0 
Heartbeat_Variant_3_evicts 0 : 0 1 : 0 2 : 0 3 : 0 
Heartbeat CPU 0 instructions: 90000002 cycles: 59417801 heartbeat IPC: 0.871467 cumulative IPC: 0.880567 (Simulation time: 0 hr 11 min 22 sec) 
Cycle: 60000000 FTQ IN: 8683418 FTQ occupancy: 14.3265 DECODE IN: 8683420 DECODE occupancy: 4.85772 ROB IN: 8683418 ROB occupancy: 53.2688 ROB OUT: 8683400
Cycle: 70000000 FTQ IN: 8907731 FTQ occupancy: 14.3325 DECODE IN: 8907729 DECODE occupancy: 4.88654 ROB IN: 8907731 ROB occupancy: 51.8322 ROB OUT: 8907751
Heartbeat_Variant_0 : 1390 0.339355 per_variant_size: 0 1390 0 0 0 0 0 0 0 
Heartbeat_Variant_1 : 1303 0.318115 per_variant_size: 0 599 704 0 0 0 0 0 0 
Heartbeat_Variant_2 : 1360 0.332031 per_variant_size: 0 501 403 249 207 0 0 0 0 
Heartbeat_Variant_3 : 0 0 per_variant_size: 0 0 0 0 0 0 0 0 0 
Heartbeat_Variant_0_evicts 0 : 5750 1 : 78 2 : 65 3 : 0 
Heartbeat_Variant_1_evicts 0 : 75 1 : 0 2 : 252 3 : 0 
Heartbeat_Variant_2_evicts 0 : 60 1 : 257 2 : 0 3 : 0 
Heartbeat_Variant_3_evicts 0 : 0 1 : 0 2 : 0 3 : 0 
Heartbeat CPU 0 instructions: 100000002 cycles: 70646079 heartbeat IPC: 0.890608 cumulative IPC: 0.882557 (Simulation time: 0 hr 12 min 34 sec) 
Finished CPU 0 instructions: 50000003 cycles: 56653566 cumulative IPC: 0.882557 (Simulation time: 0 hr 12 min 34 sec) 

ChampSim completed all CPUs

Region of Interest Statistics

CPU 0 cumulative IPC: 0.882557 instructions: 50000003 cycles: 56653566
 Fetch stage stalled: 33.2939  Sim cycles: 56653566 fetch stall cycle: 18862179
 Empty decode stage: 69.1756  Sim cycles: 56653566 fetch stall cycle: 39190435
ITLB TOTAL     ACCESS:    7298673  HIT:    6802555  MISS:     496118  HIT %:    93.2026  MISS %:    6.79737   MPKI: 9.92236
ITLB LOAD TRANSLATION INSTRUCTION	ACCESS:    7298673  HIT:    6802555  MISS:     496118  HIT %:    93.2026  MISS %:    6.79737  MPKI: 9.92236

ITLB AVERAGE MISS LATENCY: 9.05968 cycles
ITLB RQ	ACCESS:    8431253	FORWARD:          0	MERGED:     928585	TO_CACHE:    7502668

DTLB TOTAL     ACCESS:   10391241  HIT:    9917317  MISS:     473924  HIT %:    95.4392  MISS %:     4.5608   MPKI: 9.47848
DTLB LOAD TRANSLATION DATA	ACCESS:   10391241  HIT:    9917317  MISS:     473924  HIT %:    95.4392  MISS %:     4.5608  MPKI: 9.47848

DTLB AVERAGE MISS LATENCY: 9.33154 cycles
DTLB RQ	ACCESS:   14516730	FORWARD:          0	MERGED:    4096731	TO_CACHE:   10419999

STLB TOTAL     ACCESS:    1225779  HIT:    1223422  MISS:       2357  HIT %:    99.8077  MISS %:   0.192286   MPKI: 0.04714
STLB LOAD TRANSLATION INSTRUCTION	ACCESS:     496118  HIT:     495739  MISS:        379  HIT %:    99.9236  MISS %:  0.0763931  MPKI: 0.00758
STLB LOAD TRANSLATION DATA	ACCESS:     473924  HIT:     471971  MISS:       1953  HIT %:    99.5879  MISS %:   0.412091  MPKI: 0.03906
STLB TRANSLATION FROM L1D PREFETCHER DATA	ACCESS:     255737  HIT:     255712  MISS:         25  HIT %:    99.9902  MISS %: 0.00977567  MPKI: 0.0005

STLB AVERAGE MISS LATENCY: 69.1701 cycles
STLB RQ	ACCESS:    1343885	FORWARD:          0	MERGED:     118050	TO_CACHE:    1225835

STLB Hit, L1D data hit: 0
STLB Hit, L2C data hit: 0
STLB Hit, LLC data hit: 0
STLB Hit, LLC data miss: 0
STLB STLB hints to L2: 0
L1D TOTAL     ACCESS:   14318949  HIT:   13201310  MISS:    1117639  HIT %:    92.1947  MISS %:    7.80531   MPKI: 22.3528
L1D LOAD DATA	ACCESS:    7649211  HIT:    6914345  MISS:     734866  HIT %:    90.3929  MISS %:    9.60708  MPKI: 14.6973
L1D RFO DATA	ACCESS:    6333164  HIT:    6046001  MISS:     287163  HIT %:    95.4657  MISS %:    4.53427  MPKI: 5.74326
L1D PREFETCH DATA	ACCESS:     336574  HIT:     240964  MISS:      95610  HIT %:    71.5932  MISS %:    28.4068  MPKI: 1.9122

L1D PREFETCH  REQUESTED:     747842  ISSUED:     747842  USEFUL:      33623  USELESS:      69724
L1D USEFUL LOAD PREFETCHES:      33623 PREFETCH ISSUED TO LOWER LEVEL:     103464  ACCURACY: 32.4973
 TIMELY PREFETCHES:      33623 LATE PREFETCHES: 7766 DROPPED PREFETCHES: 11
L1D AVERAGE MISS LATENCY: 291867 cycles
L1D RQ	ACCESS:   11438589	FORWARD:          0	MERGED:    3604686	TO_CACHE:    7680375
L1D WQ	ACCESS:    6955247	FORWARD:     153684	MERGED:     118892	TO_CACHE:    6836355
L1D PQ	ACCESS:     373999	FORWARD:          0	MERGED:          0	TO_CACHE:     373843

L1D UNIQUE REGIONS ACCESSED: 0
L1D REGIONS CONFLICTS: 0
L1D Cross Page Prefetch Requests: 5627
L1D Same Page Prefetch Requests: 749029
L1D ROI Sum of L1D PQ occupancy: 4743598
L1D PREFETCHES PUSHED FROM L2C: 0
L1I TOTAL     ACCESS:    7890857  HIT:    5117587  MISS:    2773270  HIT %:    64.8546  MISS %:    35.1454   MPKI: 55.4654
L1I LOAD INSTRUCTION	ACCESS:    7890857  HIT:    5117587  MISS:    2773270  HIT %:    64.8546  MISS %:    35.1454  MPKI: 55.4654

L1I AVERAGE MISS LATENCY: 16.4055 cycles
L1I RQ	ACCESS:   15405554	FORWARD:          0	MERGED:    6974301	TO_CACHE:    8431253

L1BTB TOTAL     ACCESS:    5673819  HIT:    2034648  MISS:    3639171  HIT %:    35.8603  MISS %:    64.1397   MPKI: 72.7834
L1BTB BRANCH_DIRECT_JUMP	ACCESS:     548881  HIT:     144015  MISS:     404866	AVERAGE STALL: 20.4885
L1BTB BRANCH_INDIRECT	ACCESS:     183183  HIT:      66119  MISS:     117064	AVERAGE STALL: 50.1647
L1BTB BRANCH_CONDITIONAL	ACCESS:    2707209  HIT:    1410496  MISS:    1296713	AVERAGE STALL: 28.3848
L1BTB BRANCH_DIRECT_CALL	ACCESS:     945681  HIT:     104010  MISS:     841671	AVERAGE STALL: 35.2134
L1BTB BRANCH_INDIRECT_CALL	ACCESS:     171596  HIT:      20825  MISS:     150771	AVERAGE STALL: 65.1731
L1BTB BRANCH_RETURN	ACCESS:    1117269  HIT:     289183  MISS:     828086	AVERAGE STALL: 31.8011
L1BTB BRANCH_OTHER ACCESS:          0  HIT:          0  MISS:          0	AVERAGE STALL: -nan
L1BTB TOTAL ROB OCCUPANCY AT BTB MISS: 0.599891

L2BTB TOTAL     ACCESS:    3613722  HIT:    3547352  MISS:      66370  HIT %:    98.1634  MISS %:    1.83661   MPKI: 1.3274
L2BTB BRANCH_DIRECT_JUMP	ACCESS:     400700  HIT:     396432  MISS:       4268	AVERAGE STALL: 20.4885
L2BTB BRANCH_INDIRECT	ACCESS:     106741  HIT:     104061  MISS:       2680	AVERAGE STALL: 50.1647
L2BTB BRANCH_CONDITIONAL	ACCESS:    1296713  HIT:    1292606  MISS:       4107	AVERAGE STALL: 28.3848
L2BTB BRANCH_DIRECT_CALL	ACCESS:     841671  HIT:     839859  MISS:       1812	AVERAGE STALL: 35.2134
L2BTB BRANCH_INDIRECT_CALL	ACCESS:     141225  HIT:     130987  MISS:      10238	AVERAGE STALL: 65.1731
L2BTB BRANCH_RETURN	ACCESS:     826672  HIT:     783407  MISS:      43265	AVERAGE STALL: 31.8011
L2BTB BRANCH_OTHER ACCESS:          0  HIT:          0  MISS:          0	AVERAGE STALL: -nan
L2BTB TOTAL ROB OCCUPANCY AT BTB MISS: 32.893

L2C TOTAL     ACCESS:    4500717  HIT:    4085904  MISS:     414813  HIT %:    90.7834  MISS %:     9.2166   MPKI: 8.29626
L2C LOAD INSTRUCTION	ACCESS:    2773270  HIT:    2568029  MISS:     205241  HIT %:    92.5993  MISS %:    7.40069  MPKI: 4.10482
L2C LOAD TRANSLATION INSTRUCTION	ACCESS:        423  HIT:        130  MISS:        293  HIT %:    30.7329  MISS %:    69.2671  MPKI: 0.00586
L2C LOAD DATA	ACCESS:     727078  HIT:     654600  MISS:      72478  HIT %:    90.0316  MISS %:    9.96839  MPKI: 1.44956
L2C RFO DATA	ACCESS:     287055  HIT:     236016  MISS:      51039  HIT %:    82.2198  MISS %:    17.7802  MPKI: 1.02078
L2C PREFETCH DATA	ACCESS:     185307  HIT:     114292  MISS:      71015  HIT %:    61.6771  MISS %:    38.3229  MPKI: 1.4203
L2C WRITEBACK DATA	ACCESS:     525501  HIT:     512249  MISS:      13252  HIT %:    97.4782  MISS %:    2.52178  MPKI: 0.26504
L2C LOAD TRANSLATION DATA	ACCESS:       2033  HIT:        553  MISS:       1480  HIT %:    27.2012  MISS %:    72.7988  MPKI: 0.0296
L2C TRANSLATION FROM L1D PREFETCHER DATA	ACCESS:         50  HIT:         35  MISS:         15  HIT %:         70  MISS %:         30  MPKI: 0.0003

L2C PREFETCH  REQUESTED:      90197  ISSUED:      90197  USEFUL:       8323  USELESS:      63377
L2C USEFUL LOAD PREFETCHES:       8323 PREFETCH ISSUED TO LOWER LEVEL:      71582  ACCURACY: 11.6272
 TIMELY PREFETCHES:       8323 LATE PREFETCHES: 567 DROPPED PREFETCHES: 0
L2C AVERAGE MISS LATENCY: 39.7057 cycles
L2C RQ	ACCESS:    3789951	FORWARD:          0	MERGED:          0	TO_CACHE:    3789909
L2C WQ	ACCESS:     525501	FORWARD:         42	MERGED:          0	TO_CACHE:     525501
L2C PQ	ACCESS:     193661	FORWARD:          0	MERGED:       4087	TO_CACHE:     189574

L2C Dense regions hint from L2: 0
PSCL5 TOTAL     ACCESS:       4746  HIT:       2373  MISS:       2373  HIT %:         50  MISS %:         50   MPKI: 0.04746
PSCL5 LOAD TRANSLATION INSTRUCTION	ACCESS:       4646  HIT:       2323  MISS:       2323  HIT %:         50  MISS %:         50  MPKI: 0.04646
PSCL5 TRANSLATION FROM L1D PREFETCHER INSTRUCTION	ACCESS:        100  HIT:         50  MISS:         50  HIT %:         50  MISS %:         50  MPKI: 0.001


PSCL4 TOTAL     ACCESS:       3848  HIT:       1922  MISS:       1926  HIT %:     49.948  MISS %:     50.052   MPKI: 0.03852
PSCL4 LOAD TRANSLATION INSTRUCTION	ACCESS:       3471  HIT:       1883  MISS:       1588  HIT %:    54.2495  MISS %:    45.7505  MPKI: 0.03176
PSCL4 TRANSLATION FROM L1D PREFETCHER INSTRUCTION	ACCESS:         78  HIT:         39  MISS:         39  HIT %:         50  MISS %:         50  MPKI: 0.00078
PSCL4 LOAD TRANSLATION DATA	ACCESS:        299  HIT:          0  MISS:        299  HIT %:          0  MISS %:        100  MPKI: 0.00598


PSCL3 TOTAL     ACCESS:       4525  HIT:       2257  MISS:       2268  HIT %:    49.8785  MISS %:    50.1215   MPKI: 0.04536
PSCL3 LOAD TRANSLATION INSTRUCTION	ACCESS:       4257  HIT:       2216  MISS:       2041  HIT %:    52.0554  MISS %:    47.9446  MPKI: 0.04082
PSCL3 TRANSLATION FROM L1D PREFETCHER INSTRUCTION	ACCESS:         82  HIT:         41  MISS:         41  HIT %:         50  MISS %:         50  MPKI: 0.00082
PSCL3 LOAD TRANSLATION DATA	ACCESS:        186  HIT:          0  MISS:        186  HIT %:          0  MISS %:        100  MPKI: 0.00372


PSCL2 TOTAL     ACCESS:       4626  HIT:       2253  MISS:       2373  HIT %:     48.703  MISS %:     51.297   MPKI: 0.04746
PSCL2 LOAD TRANSLATION INSTRUCTION	ACCESS:       2584  HIT:       2203  MISS:        381  HIT %:    85.2554  MISS %:    14.7446  MPKI: 0.00762
PSCL2 TRANSLATION FROM L1D PREFETCHER INSTRUCTION	ACCESS:         50  HIT:         50  MISS:          0  HIT %:        100  MISS %:          0  MPKI: 0
PSCL2 LOAD TRANSLATION DATA	ACCESS:       1942  HIT:          0  MISS:       1942  HIT %:          0  MISS %:        100  MPKI: 0.03884
PSCL2 TRANSLATION FROM L1D PREFETCHER DATA	ACCESS:         50  HIT:          0  MISS:         50  HIT %:          0  MISS %:        100  MPKI: 0.001


LLC TOTAL     ACCESS:     476390  HIT:     447706  MISS:      28684  HIT %:    93.9789  MISS %:    6.02112   MPKI: 0.57368
LLC LOAD INSTRUCTION	ACCESS:     205241  HIT:     204159  MISS:       1082  HIT %:    99.4728  MISS %:   0.527185  MPKI: 0.02164
LLC LOAD TRANSLATION INSTRUCTION	ACCESS:        293  HIT:        258  MISS:         35  HIT %:    88.0546  MISS %:    11.9454  MPKI: 0.0007
LLC LOAD DATA	ACCESS:      71926  HIT:      68203  MISS:       3723  HIT %:    94.8238  MISS %:    5.17615  MPKI: 0.07446
LLC RFO DATA	ACCESS:      51023  HIT:      37707  MISS:      13316  HIT %:     73.902  MISS %:     26.098  MPKI: 0.26632
LLC PREFETCH DATA	ACCESS:      71582  HIT:      61432  MISS:      10150  HIT %:    85.8205  MISS %:    14.1795  MPKI: 0.203
LLC WRITEBACK DATA	ACCESS:      74830  HIT:      74525  MISS:        305  HIT %:    99.5924  MISS %:   0.407591  MPKI: 0.0061
LLC LOAD TRANSLATION DATA	ACCESS:       1480  HIT:       1407  MISS:         73  HIT %:    95.0676  MISS %:    4.93243  MPKI: 0.00146
LLC TRANSLATION FROM L1D PREFETCHER DATA	ACCESS:         15  HIT:         15  MISS:          0  HIT %:        100  MISS %:          0  MPKI: 0

LLC AVERAGE MISS LATENCY: 153.111 cycles
LLC RQ	ACCESS:     329979	FORWARD:          0	MERGED:          0	TO_CACHE:     329978
LLC WQ	ACCESS:      74830	FORWARD:          1	MERGED:          0	TO_CACHE:      74830
LLC PQ	ACCESS:      71582	FORWARD:          0	MERGED:          0	TO_CACHE:      71582

LLC Dense regions hint to LLC: 0

RAW hits: 1199155
Loads Generated: 12637746
Loads sent to L1D: 11438589
Stores Generated: 6955235
Stores sent to L1D: 6955247
Major fault: 0 Minor fault: 2552
Allocated PAGES: 2552

stream: 
stream:times selected: 1175467
stream:pref_filled: 118676
stream:pref_useful: 24241
stream:pref_late: 6418
stream:misses: 5894
stream:misses_by_poll: 0

CS: 
CS:times selected: 176447
CS:pref_filled: 60528
CS:pref_useful: 33369
CS:pref_late: 7310
CS:misses: 16926
CS:misses_by_poll: 2

CPLX: 
CPLX:times selected: 997780
CPLX:pref_filled: 20941
CPLX:pref_useful: 4198
CPLX:pref_late: 3277
CPLX:misses: 86881
CPLX:misses_by_poll: 2

NL_L1: 
NL:times selected: 18319
NL:pref_filled: 499
NL:pref_useful: 215
NL:pref_late: 208
NL:misses: 662
NL:misses_by_poll: 0

total selections: 2368013
total_filled: 95610
total_useful: 33623
total_late: 18479
total_polluted: 4
total_misses_after_warmup: 766029
conflicts: 6033072

test: 114133

DRAM Statistics
 CHANNEL 0
 RQ ROW_BUFFER_HIT:      10320  ROW_BUFFER_MISS:      18038
 DBUS_CONGESTED:          6
 WQ ROW_BUFFER_HIT:       1401  ROW_BUFFER_MISS:      11898  FULL:          0

 AVG_CONGESTED_CYCLE: 3

CPU 0 Branch Prediction Accuracy: 99.8161% MPKI: 0.33636 Average ROB Occupancy at Mispredict: 69.5052
Branch types
NOT_BRANCH: 40854509 81.709%
BRANCH_DIRECT_JUMP: 548881 1.09776%
BRANCH_INDIRECT: 183183 0.366366%
BRANCH_CONDITIONAL: 6178563 12.3571%
BRANCH_DIRECT_CALL: 945681 1.89136%
BRANCH_INDIRECT_CALL: 171596 0.343192%
BRANCH_RETURN: 1117269 2.23454%
BRANCH_OTHER: 0 0%

DRAM PAGES: 1048576
Allocated PAGES: 2552
Average_ROB_Occupancy: 52.7693
Average_Decode_Occupancy: 4.87394
Average_FTQ_Occupancy: 14.3161
Indirect max targets: 14 Average targets: 1.15878
Branch_type:  BRANCH_DIRECT_JUMP:  Count Percentage: 2.9042 7.06582 3.67389 9.84567 1.96613 6.30214 0.992407 67.2497 
Branch_type:  BRANCH_INDIRECT:  Count Percentage: 11.7648 3.4386 3.74616 0 1.33895 9.67146 19.2156 50.8243 
Branch_type:  BRANCH_CONDITIONAL:  Count Percentage: 22.0834 6.34183 1.8039 8.48607 1.39316 5.11028 2.2346 52.5467 
Branch_type:  BRANCH_DIRECT_CALL:  Count Percentage: 0.766561 1.30145 1.42967 4.67874 2.44875 2.56094 0.886313 85.9276 
Branch_type:  BRANCH_INDIRECT_CALL:  Count Percentage: 9.57243 0.570301 3.00042 4.85528 0 2.26634 1.28514 78.4501 
Branch_type:  BRANCH_RETURN:  Count Percentage: 4.28476 4.27487 1.27147 9.61693 2.1287 6.44861 3.74928 68.2254 
Branch_type:  BRANCH_DIRECT_JUMP:  Total Count: 31857 77507 40300 108000 21567 69130 10886 737682 
Branch_type:  BRANCH_INDIRECT:  Total Count: 43072 12589 13715 0 4902 35408 70350 186072 
Branch_type:  BRANCH_CONDITIONAL:  Total Count: 2727465 783263 222795 1048092 172065 631157 275989 6489907 
Branch_type:  BRANCH_DIRECT_CALL:  Total Count: 14486 24594 27017 88416 46275 48395 16749 1623807 
Branch_type:  BRANCH_INDIRECT_CALL:  Total Count: 32848 1957 10296 16661 0 7777 4410 269203 
Branch_type:  BRANCH_RETURN:  Total Count: 95709 95488 28401 214814 47549 144043 83748 1523955 
Number of unique branch instructions: 10248
Upper 32 bits: 
aaaa
ffff
ffff0000
Unique upper 32 bits: 3
Unique upper 36 bits: 3
Unique upper 40 bits: 5
Unique upper 44 bits: 32
Unique upper 48 bits: 153
Variant_0 : 1390 0.339355
Variant_1 : 1303 0.318115
Variant_2 : 1360 0.332031
Variant_3 : 0 0
Offset_3 4259
Offset_4 250
Offset_5 460
Offset_6 516
Offset_7 611
Offset_8 533
Offset_9 479
Offset_10 397
Offset_11 337
Offset_12 299
Offset_13 221
Offset_14 240
Offset_15 195
Offset_16 224
Offset_17 155
Offset_18 134
Offset_19 243
Offset_20 141
Offset_21 235
Offset_22 405
Offset_23 241
Offset_24 336
Offset_25 92
Offset_47 84
Offset_64 1
decode_dispatch_called: 30542480 53.911
Dispatch_width: 0 18440280 60.3758 32.5492
Dispatch_width: 1 2325789 7.61493 4.10528
Dispatch_width: 2 1118112 3.66084 1.9736
Dispatch_width: 3 1082219 3.54332 1.91024
Dispatch_width: 4 999968 3.27402 1.76506
Dispatch_width: 5 1265512 4.14345 2.23377
Dispatch_width: 6 5310600 17.3876 9.37381
Empty_decode_cycles: 26111086 46.089
ROB_full_cycles: 491889 0.86824
Starvation_cycles_per_kilo_instr: 508.511
Starvation_cycles_per_kilo_instr_3: 485.856
Starvation_cycles_per_kilo_instr_0: 440.595
Branch_type_1  (3,1)  (4,7)  (5,36)  (6,71)  (7,121)  (8,130)  (9,126)  (10,103)  (11,76)  (12,51)  (13,8)  (14,2)  (15,3)  (16,4)  (18,1)  (19,4)  (20,2)  (21,1)  (22,3)  (23,2)  (24,10)  (25,12) 
Branch_type_2  (3,1)  (4,1)  (5,1)  (8,3)  (9,3)  (12,1)  (13,1)  (14,1)  (16,3)  (17,2)  (20,2)  (21,2)  (23,5)  (24,1)  (47,39) 
Branch_type_3  (3,4257)  (4,242)  (5,419)  (6,429)  (7,459)  (8,339)  (9,261)  (10,160)  (11,137)  (12,58)  (13,7)  (64,1) 
Branch_type_4  (6,4)  (7,8)  (8,26)  (9,52)  (10,63)  (11,63)  (12,105)  (13,94)  (14,108)  (15,93)  (16,101)  (17,71)  (18,62)  (19,119)  (20,72)  (21,124)  (22,216)  (23,136)  (24,197)  (25,76) 
Branch_type_5  (8,2)  (9,1)  (10,4)  (11,5)  (12,3)  (13,14)  (14,16)  (15,11)  (16,20)  (17,11)  (18,16)  (19,12)  (20,11)  (21,13)  (22,42)  (23,26)  (24,36) 
Branch_type_6  (5,4)  (6,12)  (7,23)  (8,33)  (9,36)  (10,67)  (11,56)  (12,81)  (13,97)  (14,113)  (15,88)  (16,96)  (17,71)  (18,55)  (19,108)  (20,54)  (21,95)  (22,144)  (23,72)  (24,92)  (25,4)  (47,45) 
Unique trigger count: 
Variant_0_evicts_0 : 0
Variant_0_evicts_1 : 0
Variant_0_evicts_2 : 0
Variant_0_evicts_3 : 0
Variant_1_evicts_0 : 0
Variant_1_evicts_1 : 0
Variant_1_evicts_2 : 0
Variant_1_evicts_3 : 0
Variant_2_evicts_0 : 0
Variant_2_evicts_1 : 0
Variant_2_evicts_2 : 0
Variant_2_evicts_3 : 0
Variant_3_evicts_0 : 0
Variant_3_evicts_1 : 0
Variant_3_evicts_2 : 0
Variant_3_evicts_3 : 0
BTB PER SET UNIQUE ADDR: 13 11 9 12 12 13 10 12 9 11 13 18 10 11 12 11 12 11 7 13 9 12 15 16 13 13 9 12 12 9 19 14 14 10 8 11 15 10 4 15 11 11 12 15 6 9 14 6 13 9 13 12 10 16 14 5 13 10 11 13 11 15 12 15 18 7 9 13 18 11 10 13 15 12 10 7 10 16 8 12 13 5 8 14 11 17 13 7 9 15 5 8 13 9 5 15 8 8 15 16 17 14 14 9 12 12 9 6 8 7 10 14 11 11 16 6 10 11 11 16 13 9 10 10 13 13 6 12 16 12 14 10 9 13 8 20 10 11 10 17 8 17 13 10 12 14 14 7 7 15 9 13 12 14 9 13 15 8 12 13 13 10 15 12 13 14 12 10 15 11 10 13 12 13 10 13 7 14 13 10 8 13 11 15 15 20 6 10 11 15 9 12 9 10 14 12 10 9 13 13 15 10 8 7 11 10 8 14 9 13 11 11 14 12 11 18 12 11 14 17 11 19 11 10 4 11 19 8 12 15 6 6 10 17 10 15 15 15 13 7 11 10 14 17 7 16 11 10 11 12 19 12 10 9 13 12 8 11 12 11 10 6 5 12 15 4 13 12 11 11 8 12 7 6 9 10 11 14 12 11 12 12 10 9 15 10 9 18 21 13 11 10 12 19 8 17 11 15 9 9 11 10 10 13 12 13 16 11 10 9 12 17 8 21 8 8 18 14 7 18 14 13 7 13 12 12 13 12 12 10 11 12 8 8 14 13 12 13 12 19 11 15 7 10 12 9 12 10 13 10 9 7 11 13 15 11 9 12 11 11 7 13 9 8 11 12 8 12 16 16 7 6 13 16 10 15 13 17 14 16 19 12 7 9 10 10 10 14 13 11 15 9 10 20 12 7 12 11 15 10 5 9 9 15 15 13 13 11 14 15 10 7 9 20 11 11 10 15 17 16 8 13 14 11 14 10 14 11 9 15 17 16 13 9 10 15 17 14 14 13 11 12 12 12 17 10 6 14 17 13 13 12 16 11 14 17 14 11 12 16 7 14 15 14 19 11 12 13 11 12 9 14 12 12 16 19 12 19 5 17 15 13 8 15 9 11 13 12 12 13 12 12 11 10 10 9 14 16 11 10 11 18 13 19 11 11 5 17 12 12 16 13 13 12 15 16 12 13 8 9 8 10 11 8 7 20 17 9 9 17 13 14 11 8 8 14 9 13 12 10 16 10 16 19 16 16 12 15 9 13 12 14 14 16 9 13 17 8 13 15 9 20 17 14 14 11 8 10 15 13 15 13 10 12 11 12 13 11 11 10 13 11 6 11 16 9 14 13 16 13 10 14 13 9 13 8 10 12 6 9 11 9 8 6 11 13 14 11 5 11 18 4 10 8 8 21 12 17 12 13 16 14 7 5 13 17 10 17 9 14 11 15 17 16 9 11 10 14 10 15 12 15 9 10 9 14 11 14 17 12 11 12 10 11 16 15 14 13 10 13 15 6 15 14 11 11 9 10 7 11 9 11 8 16 17 6 14 13 8 12 11 16 14 13 10 15 11 9 14 10 9 13 12 10 11 12 8 12 12 12 10 10 13 13 9 12 8 10 13 5 9 10 7 7 12 11 16 12 12 12 13 12 12 9 11 6 13 11 9 8 21 14 14 12 7 11 12 12 13 14 12 10 15 12 10 16 11 12 11 12 12 8 9 12 12 11 17 13 9 8 9 8 5 14 15 12 12 14 10 12 11 18 10 10 11 6 13 12 14 14 7 18 13 10 13 13 11 12 13 8 10 7 15 14 16 19 12 11 16 8 15 13 13 11 20 8 10 13 12 10 9 17 6 13 9 13 23 19 6 16 13 15 11 13 11 13 6 12 11 12 11 14 8 13 13 12 10 11 7 11 14 11 10 8 12 13 15 13 15 9 10 11 9 14 13 19 13 12 14 11 10 10 7 12 21 11 9 9 17 10 13 12 15 14 10 5 16 12 12 12 12 10 13 14 16 11 14 7 12 15 12 12 12 11 15 9 15 12 15 6 12 9 13 14 7 16 15 10 14 12 10 11 8 11 13 7 17 12 13 13 12 14 10 8 12 9 10 16 12 9 12 16 15 11 13 15 14 12 8 16 11 21 15 13 10 12 11 12 11 14 14 16 14 15 9 17 12 14 13 15 8 12 11 18 18 15 18 11 10 18 11 14 13 13 9 12 15 15 14 13 9 10 11 10 12 19 14 12 11 6 19 15 10 14 13 9 11 11 12 9 18 19 7 8 13 13 14 17 12 15 15 14 12 9 9 15 7 12 6 6 12 16 8 10 
BTB PER SET COUNT: 19 14 1875 20 12 17 15 13 1484 12 17 1547 93 1486 13 13 714 23 15 19 12 125 22 19 25 18 10 17 14 12 311 1523 17 14 10 13 30 12 4 169 19 15 18 284 11 9 26 6 18 11 17 15 17 30 36 5 25 14 15 17 15 22 12 25 33 13 12 1490 24 22 25 1270 18 16 13 9 16 964 9 15 953 5 12 231 17 634 17 9 1157 24 6 935 420 464 6 18 500 989 19 22 24 19 24 10 872 19 10 7 14 11 10 21 129 19 27 8 10 12 1514 18 455 9 11 13 13 28 7 15 23 769 24 14 18 16 11 35 992 16 12 28 10 24 15 11 33 218 1071 9 8 25 14 170 640 21 14 18 1222 8 19 15 13 149 29 12 273 20 20 12 20 929 13 17 14 18 12 22 7 15 234 412 16 111 1680 23 417 604 7 23 17 999 12 13 13 11 18 13 11 225 18 15 21 111 810 7 16 13 10 21 16 40 14 14 17 45 26 245 15 15 2471 32 14 43 14 11 4 20 25 252 17 24 8 6 18 26 12 19 25 45 24 8 590 15 16 28 11 456 13 11 16 22 32 16 12 9 16 17 8 15 21 15 393 7 5 14 23 6 21 17 11 12 12 17 9 7 9 12 14 22 18 11 15 19 768 9 19 14 12 20 46 17 14 14 14 24 13 17 12 20 17 974 13 13 10 21 13 25 157 13 12 591 14 23 9 24 1478 988 28 22 16 32 25 3368 9 20 13 18 20 14 17 16 16 19 10 8 22 22 14 24 15 29 13 978 7 48 515 9 13 19 18 12 13 130 16 14 19 15 11 20 513 15 9 17 14 10 11 18 9 15 26 24 11 7 24 20 709 18 18 22 22 370 262 16 9 10 12 11 12 20 16 16 22 10 16 403 14 8 16 18 1404 1484 7 9 12 22 22 25 19 502 19 22 11 7 10 29 17 12 11 39 24 28 12 18 21 12 27 10 29 13 16 351 21 25 13 17 150 26 22 46 30 17 17 17 60 18 30 13 6 25 24 17 1614 1576 26 12 507 19 26 12 13 27 15 22 20 14 26 14 1239 22 20 17 15 18 21 23 17 27 23 28 9 25 23 1000 8 24 10 35 15 21 372 260 23 16 186 14 10 15 1062 21 21 17 17 32 13 29 22 17 7 37 15 24 129 503 19 124 21 22 15 19 12 10 8 12 13 8 9 42 470 10 15 23 20 41 12 8 10 18 12 1013 18 12 23 14 48 25 31 20 17 19 10 1001 14 17 1089 398 9 18 32 9 20 29 12 28 21 21 19 12 135 22 19 18 195 17 14 25 2468 14 21 16 23 13 23 17 7 4169 26 14 647 15 25 14 20 22 22 10 27 10 954 392 7 11 14 10 9 8 14 19 19 1487 8 13 31 425 16 11 9 35 253 25 16 1384 20 18 14 976 15 22 14 27 437 26 21 21 21 74 9 504 14 999 12 21 24 16 14 11 12 154 13 24 50 14 14 16 11 13 19 519 20 15 166 992 35 7 22 29 20608 16 13 999 1478 21 11 15 12 27 43 7 20 16 8 19 16 26 274 24 1973 23 13 10 15 17 10 22 15 11 902 17 10 25 15 15 286 13 565 17 12 364 11 14 19 5 383 14 989 10 19 127 19 17 28 482 15 17 15 12 929 9 17 15 11 1514 36 1508 17 18 10 21 265 19 16 23 996 13 73 14 11 19 12 14 15 12 351 10 1096 1975 1166 13 29 278 9 10 11 11 5 68 731 22 15 20 11 296 57 24 13 12 14 6 27 15 16 16 493 28 111 11 20 18 12 13 18 8 16 287 20 21 484 198 14 17 20 9 26 16 23 18 26 8 19 21 13 67 9 9208 7 16 61 45 357 1323 6 1620 14 19 18 20 12 16 9 13 14 13 13 19 10 18 15 15 14 981 988 24 18 995 13 10 412 16 263 17 20 12862 21 525 15 18 1482 30 679 18 18 14 611 13 7 12 138 18 12 10 28 16 18 17 21 17 14 5 24 18 695 23 20 12 137 18 476 22 20 7 16 20 15 22 20 13 19 12 34 15 375 7 19 10 18 404 7 26 23 17 151 21 18 503 14 13 18 7 81 305 17 22 16 729 1000 8 14 12 15 20 22 24 16 23 159 16 16 23 18 17 1219 26 12 2181 15 16 19 22 17 21 20 22 23 1048 1486 2277 11 24 84 20 96 26 207 19 729 32 25 21 28 11 12 56 42 17 17 19 15 16 26 22 188 16 10 22 11 981 24 1319 1207 505 12 8 26 41 10 22 20 9 14 1490 23 13 28 1435 10 10 14 17 22 25 17 20 372 402 14 10 10 21 8 376 7 8 812 483 10 19 
To predecode: 0
Predecoding something: 0
Predecode request dropped: 0
sizeofblock_0 0
sizeofblock_1 38677
sizeofblock_2 33686
sizeofblock_3 47556
sizeofblock_4 17681
sizeofblock_5 0
sizeofblock_6 0
sizeofblock_7 0
sizeofblock_8 0
Variant_0 Correct: 1615971 Incorrect: 0 Accuracy: 1
Variant_1 Correct: 2095164 Incorrect: 0 Accuracy: 1
Variant_2 Correct: 3652960 Incorrect: 0 Accuracy: 1
Variant_3 Correct: 0 Incorrect: 0 Accuracy: -nan
