
*** ChampSim Multicore Out-of-Order Simulator ***

Warmup Instructions: 50000000
Simulation Instructions: 50000000
Number of CPUs: 1
LLC sets: 2048
LLC ways: 16
Off-chip DRAM Size: 4096 MB Channels: 1 Width: 64-bit Data Rate: 6400 MT/s
CPU 0 runs ./micro_traces/srv163.trace.gz
.gz
ITLB has LRU replacement policy
DTLB has LRU replacement policy
STLB has LRU replacement policy
FDIP Prefetcher at L1I
L1I has LRU replacement policy
L1D has LRU replacement policy
Initialize SRRIP state for L2C
Initialize DRRIP state for LLC
Heartbeat CPU 0 instructions: 10000001 cycles: 2798038 heartbeat IPC: 3.57393 cumulative IPC: 3.57393 (Simulation time: 0 hr 1 min 58 sec) 
Heartbeat CPU 0 instructions: 20000001 cycles: 5594693 heartbeat IPC: 3.5757 cumulative IPC: 3.57482 (Simulation time: 0 hr 4 min 7 sec) 
Heartbeat CPU 0 instructions: 30000003 cycles: 8390415 heartbeat IPC: 3.57689 cumulative IPC: 3.57551 (Simulation time: 0 hr 6 min 7 sec) 
Heartbeat CPU 0 instructions: 40000002 cycles: 11186651 heartbeat IPC: 3.57624 cumulative IPC: 3.57569 (Simulation time: 0 hr 8 min 20 sec) 
Heartbeat CPU 0 instructions: 50000001 cycles: 13982814 heartbeat IPC: 3.57633 cumulative IPC: 3.57582 (Simulation time: 0 hr 10 min 31 sec) 

Warmup complete CPU 0 instructions: 50000001 cycles: 13982814 (Simulation time: 0 hr 10 min 31 sec) 

Cycle: 20000000 FTQ IN: 58332947 FTQ occupancy: 19.8975 DECODE IN: 58332850 DECODE occupancy: 51.6915 ROB IN: 58332790 ROB occupancy: 312.208 ROB OUT: 58332442
Heartbeat CPU 0 instructions: 60000002 cycles: 21211217 heartbeat IPC: 1.38343 cumulative IPC: 1.38343 (Simulation time: 0 hr 12 min 45 sec) 
Heartbeat CPU 0 instructions: 70000001 cycles: 28477374 heartbeat IPC: 1.37624 cumulative IPC: 1.37983 (Simulation time: 0 hr 15 min 4 sec) 
Cycle: 30000000 FTQ IN: 13770455 FTQ occupancy: 12.913 DECODE IN: 13770527 DECODE occupancy: 32.5198 ROB IN: 13770583 ROB occupancy: 227.37 ROB OUT: 13770696
Heartbeat CPU 0 instructions: 80000002 cycles: 35687452 heartbeat IPC: 1.38695 cumulative IPC: 1.38219 (Simulation time: 0 hr 17 min 25 sec) 
Cycle: 40000000 FTQ IN: 13879284 FTQ occupancy: 12.8187 DECODE IN: 13879216 DECODE occupancy: 32.6767 ROB IN: 13879160 ROB occupancy: 229.349 ROB OUT: 13879368
Heartbeat CPU 0 instructions: 90000000 cycles: 42989277 heartbeat IPC: 1.36952 cumulative IPC: 1.379 (Simulation time: 0 hr 19 min 42 sec) 
Cycle: 50000000 FTQ IN: 13732749 FTQ occupancy: 12.9133 DECODE IN: 13732731 DECODE occupancy: 32.4994 ROB IN: 13732731 ROB occupancy: 228.627 ROB OUT: 13732406
Heartbeat CPU 0 instructions: 100000003 cycles: 50203398 heartbeat IPC: 1.38617 cumulative IPC: 1.38043 (Simulation time: 0 hr 21 min 24 sec) 
Finished CPU 0 instructions: 50000002 cycles: 36220584 cumulative IPC: 1.38043 (Simulation time: 0 hr 21 min 24 sec) 

ChampSim completed all CPUs

Region of Interest Statistics

CPU 0 cumulative IPC: 1.38043 instructions: 50000002 cycles: 36220584
 Fetch stage stalled: 52.5908  Sim cycles: 36220584 fetch stall cycle: 19048709
 Empty decode stage: 33.821  Sim cycles: 36220584 fetch stall cycle: 12250172
ITLB TOTAL     ACCESS:    5746111  HIT:    5250295  MISS:     495816  HIT %:    91.3713  MISS %:    8.62872   MPKI: 9.91632
ITLB LOAD TRANSLATION INSTRUCTION	ACCESS:    5609639  HIT:    5113823  MISS:     495816  HIT %:    91.1614  MISS %:    8.83864  MPKI: 9.91632
ITLB TRANSLATION FROM L1D PREFETCHER INSTRUCTION	ACCESS:     136472  HIT:     136472  MISS:          0  HIT %:        100  MISS %:          0  MPKI: 0

ITLB AVERAGE MISS LATENCY: 9.05007 cycles
ITLB RQ	ACCESS:    7821754	FORWARD:          0	MERGED:    1584527	TO_CACHE:    6237227

DTLB TOTAL     ACCESS:    8978083  HIT:    8503507  MISS:     474576  HIT %:    94.7141  MISS %:    5.28594   MPKI: 9.49152
DTLB LOAD TRANSLATION DATA	ACCESS:    8978083  HIT:    8503507  MISS:     474576  HIT %:    94.7141  MISS %:    5.28594  MPKI: 9.49152

DTLB AVERAGE MISS LATENCY: 9.30936 cycles
DTLB RQ	ACCESS:   13346743	FORWARD:          0	MERGED:    4331816	TO_CACHE:    9014927

STLB TOTAL     ACCESS:    1215335  HIT:    1213447  MISS:       1888  HIT %:    99.8447  MISS %:   0.155348   MPKI: 0.03776
STLB LOAD TRANSLATION INSTRUCTION	ACCESS:     495816  HIT:     495600  MISS:        216  HIT %:    99.9564  MISS %:  0.0435645  MPKI: 0.00432
STLB LOAD TRANSLATION DATA	ACCESS:     474576  HIT:     472923  MISS:       1653  HIT %:    99.6517  MISS %:   0.348311  MPKI: 0.03306
STLB TRANSLATION FROM L1D PREFETCHER DATA	ACCESS:     244943  HIT:     244924  MISS:         19  HIT %:    99.9922  MISS %: 0.00775691  MPKI: 0.00038

STLB AVERAGE MISS LATENCY: 75.4852 cycles
STLB RQ	ACCESS:    1334960	FORWARD:          0	MERGED:     119581	TO_CACHE:    1215379

STLB Hit, L1D data hit: 0
STLB Hit, L2C data hit: 0
STLB Hit, LLC data hit: 0
STLB Hit, LLC data miss: 0
STLB STLB hints to L2: 0
L1D TOTAL     ACCESS:   13091928  HIT:   11974273  MISS:    1117655  HIT %:     91.463  MISS %:    8.53698   MPKI: 22.3531
L1D LOAD DATA	ACCESS:    6558840  HIT:    5821321  MISS:     737519  HIT %:    88.7553  MISS %:    11.2447  MPKI: 14.7504
L1D RFO DATA	ACCESS:    6208674  HIT:    5923809  MISS:     284865  HIT %:    95.4118  MISS %:    4.58818  MPKI: 5.6973
L1D PREFETCH DATA	ACCESS:     324414  HIT:     229143  MISS:      95271  HIT %:    70.6329  MISS %:    29.3671  MPKI: 1.90542

L1D PREFETCH  REQUESTED:     729455  ISSUED:     729455  USEFUL:      33461  USELESS:      69096
L1D USEFUL LOAD PREFETCHES:      33461 PREFETCH ISSUED TO LOWER LEVEL:     102609  ACCURACY: 32.6102
 TIMELY PREFETCHES:      33461 LATE PREFETCHES: 7287 DROPPED PREFETCHES: 8
L1D AVERAGE MISS LATENCY: 213303 cycles
L1D RQ	ACCESS:   10686216	FORWARD:          0	MERGED:    3927874	TO_CACHE:    6592470
L1D WQ	ACCESS:    6949899	FORWARD:     166193	MERGED:     195626	TO_CACHE:    6754273
L1D PQ	ACCESS:     364888	FORWARD:          0	MERGED:          0	TO_CACHE:     364567

L1D UNIQUE REGIONS ACCESSED: 0
L1D REGIONS CONFLICTS: 0
L1D Cross Page Prefetch Requests: 6802
L1D Same Page Prefetch Requests: 741599
L1D ROI Sum of L1D PQ occupancy: 4624262
L1D PREFETCHES PUSHED FROM L2C: 0
L1I TOTAL     ACCESS:    7043784  HIT:    4273075  MISS:    2770709  HIT %:    60.6645  MISS %:    39.3355   MPKI: 55.4142
L1I LOAD INSTRUCTION	ACCESS:    6405530  HIT:    3634821  MISS:    2770709  HIT %:     56.745  MISS %:     43.255  MPKI: 55.4142
L1I PREFETCH INSTRUCTION	ACCESS:     638254  HIT:     638254  MISS:          0  HIT %:        100  MISS %:          0  MPKI: 0

L1I PREFETCH  REQUESTED:    1539097  ISSUED:    1539097  USEFUL:          0  USELESS:          0
L1I USEFUL LOAD PREFETCHES:          0 PREFETCH ISSUED TO LOWER LEVEL:          0  ACCURACY: -nan
 TIMELY PREFETCHES:          0 LATE PREFETCHES: 0 DROPPED PREFETCHES: 0
L1I AVERAGE MISS LATENCY: 16.9792 cycles
L1I RQ	ACCESS:    9534661	FORWARD:          0	MERGED:    2837380	TO_CACHE:    6697281
L1I PQ	ACCESS:    1539097	FORWARD:          0	MERGED:     414624	TO_CACHE:    1124473

L1BTB TOTAL     ACCESS:    5671503  HIT:    2033298  MISS:    3638205  HIT %:    35.8511  MISS %:    64.1489   MPKI: 72.7641
L1BTB BRANCH_DIRECT_JUMP	ACCESS:     547552  HIT:     143676  MISS:     403876	AVERAGE STALL: 54.9109
L1BTB BRANCH_INDIRECT	ACCESS:     182353  HIT:      65533  MISS:     116820	AVERAGE STALL: 108.54
L1BTB BRANCH_CONDITIONAL	ACCESS:    2697959  HIT:    1402967  MISS:    1294992	AVERAGE STALL: 61.5929
L1BTB BRANCH_DIRECT_CALL	ACCESS:     949031  HIT:     106963  MISS:     842068	AVERAGE STALL: 72.0307
L1BTB BRANCH_INDIRECT_CALL	ACCESS:     172786  HIT:      21966  MISS:     150820	AVERAGE STALL: 136.864
L1BTB BRANCH_RETURN	ACCESS:    1121822  HIT:     292193  MISS:     829629	AVERAGE STALL: 50.0245
L1BTB BRANCH_OTHER ACCESS:          0  HIT:          0  MISS:          0	AVERAGE STALL: -nan
L1BTB TOTAL ROB OCCUPANCY AT BTB MISS: 5.37737

L2BTB TOTAL     ACCESS:    3612942  HIT:    3500284  MISS:     112658  HIT %:    96.8818  MISS %:    3.11818   MPKI: 2.25316
L2BTB BRANCH_DIRECT_JUMP	ACCESS:     399773  HIT:     389796  MISS:       9977	AVERAGE STALL: 54.9109
L2BTB BRANCH_INDIRECT	ACCESS:     106547  HIT:     103137  MISS:       3410	AVERAGE STALL: 108.54
L2BTB BRANCH_CONDITIONAL	ACCESS:    1294992  HIT:    1272210  MISS:      22782	AVERAGE STALL: 61.5929
L2BTB BRANCH_DIRECT_CALL	ACCESS:     842068  HIT:     825120  MISS:      16948	AVERAGE STALL: 72.0307
L2BTB BRANCH_INDIRECT_CALL	ACCESS:     141347  HIT:     129666  MISS:      11681	AVERAGE STALL: 136.864
L2BTB BRANCH_RETURN	ACCESS:     828215  HIT:     780355  MISS:      47860	AVERAGE STALL: 50.0245
L2BTB BRANCH_OTHER ACCESS:          0  HIT:          0  MISS:          0	AVERAGE STALL: -nan
L2BTB TOTAL ROB OCCUPANCY AT BTB MISS: 173.658

L2C TOTAL     ACCESS:    4489029  HIT:    4054135  MISS:     434894  HIT %:    90.3121  MISS %:    9.68793   MPKI: 8.69788
L2C LOAD INSTRUCTION	ACCESS:    2770708  HIT:    2535254  MISS:     235454  HIT %:     91.502  MISS %:    8.49797  MPKI: 4.70908
L2C LOAD TRANSLATION INSTRUCTION	ACCESS:        239  HIT:         61  MISS:        178  HIT %:     25.523  MISS %:     74.477  MPKI: 0.00356
L2C LOAD DATA	ACCESS:     730214  HIT:     665254  MISS:      64960  HIT %:     91.104  MISS %:    8.89602  MPKI: 1.2992
L2C RFO DATA	ACCESS:     284780  HIT:     232290  MISS:      52490  HIT %:    81.5682  MISS %:    18.4318  MPKI: 1.0498
L2C PREFETCH DATA	ACCESS:     179525  HIT:     111901  MISS:      67624  HIT %:    62.3317  MISS %:    37.6683  MPKI: 1.35248
L2C WRITEBACK DATA	ACCESS:     521816  HIT:     508950  MISS:      12866  HIT %:    97.5344  MISS %:    2.46562  MPKI: 0.25732
L2C LOAD TRANSLATION DATA	ACCESS:       1701  HIT:        397  MISS:       1304  HIT %:    23.3392  MISS %:    76.6608  MPKI: 0.02608
L2C TRANSLATION FROM L1D PREFETCHER DATA	ACCESS:         46  HIT:         28  MISS:         18  HIT %:    60.8696  MISS %:    39.1304  MPKI: 0.00036

L2C PREFETCH  REQUESTED:      84128  ISSUED:      84128  USEFUL:       7178  USELESS:      60728
L2C USEFUL LOAD PREFETCHES:       7178 PREFETCH ISSUED TO LOWER LEVEL:      67929  ACCURACY: 10.5669
 TIMELY PREFETCHES:       7178 LATE PREFETCHES: 305 DROPPED PREFETCHES: 0
L2C AVERAGE MISS LATENCY: 38.8859 cycles
L2C RQ	ACCESS:    3787741	FORWARD:          0	MERGED:          0	TO_CACHE:    3787689
L2C WQ	ACCESS:     521816	FORWARD:         52	MERGED:          0	TO_CACHE:     521816
L2C PQ	ACCESS:     186737	FORWARD:          0	MERGED:       3809	TO_CACHE:     182928

L2C Dense regions hint from L2: 0
PSCL5 TOTAL     ACCESS:       3800  HIT:       1900  MISS:       1900  HIT %:         50  MISS %:         50   MPKI: 0.038
PSCL5 LOAD TRANSLATION INSTRUCTION	ACCESS:       3714  HIT:       1857  MISS:       1857  HIT %:         50  MISS %:         50  MPKI: 0.03714
PSCL5 TRANSLATION FROM L1D PREFETCHER INSTRUCTION	ACCESS:         86  HIT:         43  MISS:         43  HIT %:         50  MISS %:         50  MPKI: 0.00086


PSCL4 TOTAL     ACCESS:       3713  HIT:       1854  MISS:       1859  HIT %:    49.9327  MISS %:    50.0673   MPKI: 0.03718
PSCL4 LOAD TRANSLATION INSTRUCTION	ACCESS:       1817  HIT:       1812  MISS:          5  HIT %:    99.7248  MISS %:   0.275179  MPKI: 0.0001
PSCL4 TRANSLATION FROM L1D PREFETCHER INSTRUCTION	ACCESS:         42  HIT:         42  MISS:          0  HIT %:        100  MISS %:          0  MPKI: 0
PSCL4 LOAD TRANSLATION DATA	ACCESS:       1812  HIT:          0  MISS:       1812  HIT %:          0  MISS %:        100  MPKI: 0.03624
PSCL4 TRANSLATION FROM L1D PREFETCHER DATA	ACCESS:         42  HIT:          0  MISS:         42  HIT %:          0  MISS %:        100  MPKI: 0.00084


PSCL3 TOTAL     ACCESS:       3769  HIT:       1882  MISS:       1887  HIT %:    49.9337  MISS %:    50.0663   MPKI: 0.03774
PSCL3 LOAD TRANSLATION INSTRUCTION	ACCESS:       1845  HIT:       1840  MISS:          5  HIT %:     99.729  MISS %:   0.271003  MPKI: 0.0001
PSCL3 TRANSLATION FROM L1D PREFETCHER INSTRUCTION	ACCESS:         42  HIT:         42  MISS:          0  HIT %:        100  MISS %:          0  MPKI: 0
PSCL3 LOAD TRANSLATION DATA	ACCESS:       1840  HIT:          0  MISS:       1840  HIT %:          0  MISS %:        100  MPKI: 0.0368
PSCL3 TRANSLATION FROM L1D PREFETCHER DATA	ACCESS:         42  HIT:          0  MISS:         42  HIT %:          0  MISS %:        100  MPKI: 0.00084


PSCL2 TOTAL     ACCESS:       3724  HIT:       1824  MISS:       1900  HIT %:    48.9796  MISS %:    51.0204   MPKI: 0.038
PSCL2 LOAD TRANSLATION INSTRUCTION	ACCESS:       1999  HIT:       1782  MISS:        217  HIT %:    89.1446  MISS %:    10.8554  MPKI: 0.00434
PSCL2 TRANSLATION FROM L1D PREFETCHER INSTRUCTION	ACCESS:         42  HIT:         42  MISS:          0  HIT %:        100  MISS %:          0  MPKI: 0
PSCL2 LOAD TRANSLATION DATA	ACCESS:       1641  HIT:          0  MISS:       1641  HIT %:          0  MISS %:        100  MPKI: 0.03282
PSCL2 TRANSLATION FROM L1D PREFETCHER DATA	ACCESS:         42  HIT:          0  MISS:         42  HIT %:          0  MISS %:        100  MPKI: 0.00084


LLC TOTAL     ACCESS:     494637  HIT:     467239  MISS:      27398  HIT %:     94.461  MISS %:    5.53901   MPKI: 0.54796
LLC LOAD INSTRUCTION	ACCESS:     235454  HIT:     234797  MISS:        657  HIT %:     99.721  MISS %:   0.279035  MPKI: 0.01314
LLC LOAD TRANSLATION INSTRUCTION	ACCESS:        178  HIT:        149  MISS:         29  HIT %:    83.7079  MISS %:    16.2921  MPKI: 0.00058
LLC LOAD DATA	ACCESS:      64651  HIT:      61272  MISS:       3379  HIT %:    94.7735  MISS %:    5.22652  MPKI: 0.06758
LLC RFO DATA	ACCESS:      52480  HIT:      39478  MISS:      13002  HIT %:    75.2248  MISS %:    24.7752  MPKI: 0.26004
LLC PREFETCH DATA	ACCESS:      67929  HIT:      57966  MISS:       9963  HIT %:    85.3332  MISS %:    14.6668  MPKI: 0.19926
LLC WRITEBACK DATA	ACCESS:      72623  HIT:      72322  MISS:        301  HIT %:    99.5855  MISS %:   0.414469  MPKI: 0.00602
LLC LOAD TRANSLATION DATA	ACCESS:       1304  HIT:       1239  MISS:         65  HIT %:    95.0153  MISS %:    4.98466  MPKI: 0.0013
LLC TRANSLATION FROM L1D PREFETCHER DATA	ACCESS:         18  HIT:         16  MISS:          2  HIT %:    88.8889  MISS %:    11.1111  MPKI: 4e-05

LLC AVERAGE MISS LATENCY: 153.776 cycles
LLC RQ	ACCESS:     354099	FORWARD:          0	MERGED:          0	TO_CACHE:     354085
LLC WQ	ACCESS:      72623	FORWARD:         14	MERGED:          0	TO_CACHE:      72623
LLC PQ	ACCESS:      67929	FORWARD:          0	MERGED:          0	TO_CACHE:      67929

LLC Dense regions hint to LLC: 0

RAW hits: 1944056
Loads Generated: 12630272
Loads sent to L1D: 10686216
Stores Generated: 6949891
Stores sent to L1D: 6949899
Major fault: 0 Minor fault: 2589
Allocated PAGES: 2589

stream: 
stream:times selected: 1175096
stream:pref_filled: 122846
stream:pref_useful: 24264
stream:pref_late: 6724
stream:misses: 7978
stream:misses_by_poll: 0

CS: 
CS:times selected: 177862
CS:pref_filled: 59921
CS:pref_useful: 36602
CS:pref_late: 6556
CS:misses: 15671
CS:misses_by_poll: 8

CPLX: 
CPLX:times selected: 996106
CPLX:pref_filled: 19715
CPLX:pref_useful: 4671
CPLX:pref_late: 3112
CPLX:misses: 93503
CPLX:misses_by_poll: 1

NL_L1: 
NL:times selected: 20483
NL:pref_filled: 740
NL:pref_useful: 322
NL:pref_late: 288
NL:misses: 1748
NL:misses_by_poll: 0

total selections: 2369547
total_filled: 95271
total_useful: 33461
total_late: 17864
total_polluted: 9
total_misses_after_warmup: 771147
conflicts: 5531271

test: 114868

DRAM Statistics
 CHANNEL 0
 RQ ROW_BUFFER_HIT:      10295  ROW_BUFFER_MISS:      16793
 DBUS_CONGESTED:         10
 WQ ROW_BUFFER_HIT:       1292  ROW_BUFFER_MISS:      11540  FULL:          0

 AVG_CONGESTED_CYCLE: 5

CPU 0 Branch Prediction Accuracy: 99.8272% MPKI: 0.31622 Average ROB Occupancy at Mispredict: 191.837
Branch types
NOT_BRANCH: 40848211 81.6964%
BRANCH_DIRECT_JUMP: 547552 1.0951%
BRANCH_INDIRECT: 182353 0.364706%
BRANCH_CONDITIONAL: 6178107 12.3562%
BRANCH_DIRECT_CALL: 949031 1.89806%
BRANCH_INDIRECT_CALL: 172786 0.345572%
BRANCH_RETURN: 1121822 2.24364%
BRANCH_OTHER: 0 0%

DRAM PAGES: 1048576
Allocated PAGES: 2589
Average_ROB_Occupancy: 229.534
Average_Decode_Occupancy: 32.5021
Average_FTQ_Occupancy: 12.8461
Indirect max targets: 14 Average targets: 1.17778
Branch_type:  BRANCH_DIRECT_JUMP:  Count Percentage: 4.12616 5.6884 3.63391 2.28157 8.167 6.32442 1.45656 68.322 
Branch_type:  BRANCH_INDIRECT:  Count Percentage: 11.7649 3.39008 2.49566 13.3009 3.3547 2.81794 0.939129 61.9367 
Branch_type:  BRANCH_CONDITIONAL:  Count Percentage: 21.9163 2.25494 2.06736 2.73447 3.25031 4.63141 3.63547 59.5098 
Branch_type:  BRANCH_DIRECT_CALL:  Count Percentage: 0.386716 1.80401 0.716852 1.466 5.23188 2.60504 0.40825 87.3813 
Branch_type:  BRANCH_INDIRECT_CALL:  Count Percentage: 9.53172 0 2.9876 0.000869921 1.36056 1.70997 0.99287 83.4164 
Branch_type:  BRANCH_RETURN:  Count Percentage: 3.9341 2.02347 2.23352 2.03699 3.44562 5.11455 3.6105 77.6013 
Branch_type:  BRANCH_DIRECT_JUMP:  Total Count: 45172 62275 39783 24978 89410 69238 15946 747970 
Branch_type:  BRANCH_INDIRECT:  Total Count: 42894 12360 9099 48494 12231 10274 3424 225817 
Branch_type:  BRANCH_CONDITIONAL:  Total Count: 2706780 278498 255331 337722 401432 572005 449001 7349792 
Branch_type:  BRANCH_DIRECT_CALL:  Total Count: 7327 34180 13582 27776 99127 49357 7735 1655589 
Branch_type:  BRANCH_INDIRECT_CALL:  Total Count: 32871 0 10303 3 4692 5897 3424 287669 
Branch_type:  BRANCH_RETURN:  Total Count: 88140 45334 50040 45637 77196 114587 80890 1738587 
Number of unique branch instructions: 10811
Upper 32 bits: 
aaaa
ffff
ffff0000
Unique upper 32 bits: 3
Unique upper 36 bits: 3
Unique upper 40 bits: 5
Unique upper 44 bits: 32
Unique upper 48 bits: 158
Offset_3 4470
Offset_4 255
Offset_5 484
Offset_6 541
Offset_7 643
Offset_8 577
Offset_9 523
Offset_10 426
Offset_11 360
Offset_12 327
Offset_13 240
Offset_14 247
Offset_15 194
Offset_16 233
Offset_17 169
Offset_18 149
Offset_19 257
Offset_20 143
Offset_21 235
Offset_22 413
Offset_23 241
Offset_24 351
Offset_25 117
Offset_47 94
Offset_64 2
decode_dispatch_called: 24441739 67.4802
Dispatch_width: 0 13063469 53.4474 36.0664
Dispatch_width: 1 841734 3.44384 2.32391
Dispatch_width: 2 757905 3.10086 2.09247
Dispatch_width: 3 442634 1.81098 1.22205
Dispatch_width: 4 4772504 19.526 13.1762
Dispatch_width: 5 156447 0.640081 0.431928
Dispatch_width: 6 4407046 18.0308 12.1672
Empty_decode_cycles: 11778845 32.5198
ROB_full_cycles: 7748149 21.3916
Starvation_cycles_per_kilo_instr: 240.654
Starvation_cycles_per_kilo_instr_3: 191.364
Starvation_cycles_per_kilo_instr_0: 170.942
Branch_type_1  (3,1)  (4,9)  (5,39)  (6,74)  (7,126)  (8,148)  (9,136)  (10,110)  (11,78)  (12,55)  (13,11)  (14,2)  (15,3)  (16,4)  (18,1)  (19,5)  (20,2)  (21,1)  (22,3)  (23,2)  (24,10)  (25,12) 
Branch_type_2  (3,1)  (4,1)  (5,1)  (8,4)  (9,4)  (10,1)  (12,1)  (13,1)  (14,1)  (16,3)  (17,2)  (20,2)  (21,2)  (23,5)  (24,1)  (47,43) 
Branch_type_3  (3,4468)  (4,245)  (5,440)  (6,451)  (7,487)  (8,360)  (9,288)  (10,172)  (11,146)  (12,62)  (13,10)  (64,2) 
Branch_type_4  (6,3)  (7,8)  (8,25)  (9,56)  (10,68)  (11,70)  (12,117)  (13,102)  (14,112)  (15,92)  (16,102)  (17,79)  (18,65)  (19,125)  (20,73)  (21,124)  (22,219)  (23,136)  (24,206)  (25,101) 
Branch_type_5  (8,3)  (9,1)  (10,4)  (11,5)  (12,3)  (13,14)  (14,16)  (15,11)  (16,22)  (17,11)  (18,23)  (19,14)  (20,11)  (21,13)  (22,43)  (23,26)  (24,38) 
Branch_type_6  (5,4)  (6,13)  (7,22)  (8,37)  (9,38)  (10,71)  (11,61)  (12,89)  (13,102)  (14,116)  (15,88)  (16,102)  (17,77)  (18,60)  (19,113)  (20,55)  (21,95)  (22,148)  (23,72)  (24,96)  (25,4)  (47,51) 
aaaaab1fc620: 2ac9e77e 2aca717c 2aca8eff 2acaf6bc 2acaf9aa 2acaf9f1 2acb1abc 2acb1b7f 2acd4e22 2acdb712 2acf5f9e 2ad0ef44 2ad3f15c 2ad414e6 2ad60e42 2ad8609c 2ad99830 2ada35cc 2ada4676 2ada6612 2adf183e 2adf30e5 2adf5602 2adf785c 2ae11572 2aeb2dcf 2aee101b 2aee1ae1 2aee9456 2b156a8c 2b156b61 2b156bea 2b167f35 2b177656 2b17feec 2b1a3e5a 
aaaaab1fc640: 2ac9ec07 2aca656e 2aca801d 2acaea11 2acaee73 2acb13ee 2acb1470 2acd462b 2ad0ef5d 2ad3f3fe 2ad86e9b 2ada1641 2ada4115 2ada6638 2adf30d4 2ae12e57 2aee1033 2b1693ab 2b16948c 2b169491 2b17d915 2b17fa85 2b17fccd 
aaaaab1fc740: 2aca1fb0 2aca45b3 2aca5aa1 2aca5c69 2aca66f9 2aca9426 2acaeecb 2acf3d2d 2acf3d64 2acf6089 2ad017ea 2ad5e7ef 2ad61064 2ad87373 2ad9bf84 2ad9c093 2ae9b606 2aea9ffa 2aee99f5 2aee9a2c 2aeece4b 
aaaaab1fcb00: 2acf2d72 2acf3734 2acf604c 2acfa5b7 2ad397b5 2ad3b800 2ae8af7d 2ae8aff0 2ae9aaba 2aea9fc6 2aeaa358 2aee910b 2aee91cf 2aee928e 2aee92e4 2aee99de 2af6fe87 2af70dfe 2b16850c 2b16c4a2 2b1765f4 2b178094 2b17d925 2b17db06 2b17ec8f 
aaaaab1fcb10: 2acf2d95 2acf3758 2acf6052 2acfa5f4 2ad397c3 2ad3b81c 2ae8af88 2ae8affe 2ae9aacf 2aeaa017 2aeaa36d 2aee9114 2aee91d8 2aee934d 2aee9353 2aee9a14 2af6fe8c 2af70e22 2b168526 2b16c542 2b176609 2b1780a3 2b17d95d 2b17db44 2b17ecac 
aaaaac68f310: 2ac9ec8c 2ac9fb44 2ac9fbd2 2aca59ab 2acac04c 2acaf6e0 2acaf6ec 2acaf6f9 2acaf700 2acaf708 2acf2d90 2ad3cfbd 2ad3cfc4 2ad3d000 2ad3f35f 2ad4955d 2ad49571 2ad4f3f2 2ad4f400 2ad5f240 2ad5f37c 2ad5f86a 2ad5f86f 2ad5f880 2ad5fc0d 2ad5fc14 2ad5fc21 2ad5fe1b 2ad873bb 2ad873e3 2ad8a6b2 2ad9086e 2ad93096 2ad9bbb2 2ada152c 2ada1554 2ada3332 2ada5522 2adf3130 2adf313c 2adf3a3f 2adf3bd9 2adf5788 2adf7a8d 2ae07f6b 2ae0857a 2ae0857e 2ae08630 2ae08634 2ae08637 2ae08642 2ae0866f 2ae086e4 2ae086ec 2ae08717 2ae0871b 2aee0170 2aee1d38 2aee75f4 2aee7662 2aee85ca 2aee85e4 2aee8eef 2aee9a0a 2af70b84 2af74e8f 2b17d843 
aaaaac690ef0: 2aca598b 2acb111b 2acb175f 2acb1772 2acbfaf4 2acbfb00 2acf374f 2acf6d43 2acfa5c8 2ad3baf1 2ad3d4ac 2ad3d4b8 2ad3f1cf 2ad486b2 2ad5a59b 2ad5fc64 2ad5fcf9 2ad6121c 2ad906e9 2ad907bf 2ad9bada 2ada16ce 2ada1ad5 2ada43df 2ada64c0 2ada72ee 2adeb71a 2adf3bcb 2adf7a38 2adf7c6a 2adf8872 2adf8880 2adf9959 2adf9abe 2ae07f78 2ae08503 2ae08754 2ae12e80 2aea3bea 2aecb509 2aee00b0 2aee2bdd 2aee5467 2aee5601 2aee8f20 2af703fd 2af7048b 2af74e74 2dfba627 
Unique trigger count: 
1 10298
2 556
3 94
4 32
5 16
6 9
7 8
8 1
9 3
10 3
11 1
12 1
13 2
14 2
16 2
19 1
21 1
23 1
25 2
36 1
49 1
67 1
BTB PER SET UNIQUE ADDR: 1 2 2 2 0 0 1 1 3 0 2 0 1 1 0 1 2 1 1 2 0 1 1 2 1 2 1 2 1 1 2 2 2 1 3 0 0 3 4 0 1 2 3 3 1 1 2 1 4 1 1 1 2 0 0 2 3 3 1 1 1 2 2 2 0 4 5 0 2 2 5 1 1 2 1 1 2 6 2 1 1 1 1 4 3 2 1 4 3 2 3 4 2 3 3 0 1 3 0 1 3 2 2 3 3 2 1 1 3 0 1 2 3 2 1 3 1 2 1 0 3 2 2 0 1 1 1 1 3 3 3 0 1 1 2 1 0 0 1 2 2 3 3 0 2 1 2 3 3 2 1 6 1 2 2 1 0 3 1 1 0 0 0 1 4 4 0 1 5 2 2 2 2 1 1 0 1 1 3 1 1 4 6 2 3 2 3 0 1 1 5 1 1 2 1 1 1 1 0 1 2 1 1 0 0 0 1 1 1 0 0 2 2 1 2 1 0 2 1 0 0 1 1 3 2 0 2 2 0 3 5 3 1 2 1 3 3 0 1 2 1 0 2 2 7 3 1 1 3 1 1 1 1 1 0 5 2 2 2 2 3 3 2 2 2 4 3 0 2 1 2 2 1 2 2 2 1 0 3 2 2 2 1 1 2 3 2 1 1 1 0 0 1 2 0 1 3 2 0 1 2 2 1 1 2 2 3 2 3 3 2 1 2 2 3 0 2 2 1 2 1 2 2 2 0 3 1 4 0 0 3 0 2 2 3 1 2 3 4 0 3 0 0 1 2 3 1 2 1 3 1 4 3 2 2 2 1 0 3 0 0 2 1 2 4 2 1 0 0 0 3 1 2 0 1 2 2 2 2 3 0 0 1 3 0 0 2 1 2 1 1 2 2 2 2 0 3 0 0 2 3 1 4 1 1 0 2 3 0 1 0 1 2 2 1 0 4 1 1 2 1 1 3 2 2 4 0 0 1 3 1 0 5 2 3 3 2 1 1 0 0 4 3 3 2 1 1 3 1 1 3 0 0 1 3 0 1 3 2 2 3 0 4 2 0 0 2 0 1 3 0 1 1 1 2 1 0 1 1 0 0 1 1 2 0 2 2 0 3 1 3 1 1 2 0 3 1 1 3 0 3 0 0 1 0 2 1 0 0 2 3 2 4 4 2 0 1 3 1 5 1 1 3 1 3 3 1 4 3 2 5 1 2 2 1 4 0 0 3 0 0 4 3 1 5 1 6 3 4 4 2 3 2 3 0 1 1 0 2 2 7 0 1 2 1 0 0 1 3 4 4 0 1 5 2 0 0 2 0 0 1 1 1 0 1 0 0 4 2 2 3 3 0 2 1 2 3 0 2 2 1 0 1 3 1 1 1 1 3 0 2 2 3 1 2 1 2 0 2 1 3 1 5 0 2 2 2 2 1 0 3 1 0 2 2 4 0 1 1 2 5 1 3 3 0 0 2 1 2 1 1 1 3 1 1 0 4 0 1 3 3 2 3 3 2 1 1 1 0 0 4 2 1 0 4 2 0 1 3 2 1 0 2 2 2 1 1 2 2 1 0 3 1 1 1 3 3 3 2 3 0 2 0 2 1 1 0 1 0 0 1 2 0 1 2 0 1 1 0 2 1 0 1 1 0 1 1 1 0 3 3 2 1 0 1 1 6 1 1 0 1 2 1 2 1 0 3 1 2 2 0 0 1 2 0 1 2 3 1 0 1 1 0 2 0 1 3 1 0 0 2 2 0 0 1 2 3 1 1 1 2 1 0 0 3 3 3 4 0 0 1 3 0 0 2 3 3 1 1 0 2 2 1 2 1 1 1 4 0 2 0 2 1 0 2 1 1 0 0 3 3 0 1 0 2 1 1 1 1 4 1 1 2 1 3 0 1 0 3 2 0 1 0 2 0 1 3 2 3 0 2 1 3 1 3 2 0 0 1 0 0 0 0 1 4 1 1 0 2 0 1 1 1 2 1 0 2 2 3 1 2 1 1 0 0 0 1 2 0 0 2 0 1 2 1 1 4 0 1 1 1 0 0 1 1 3 0 1 0 4 3 3 0 0 1 2 0 1 1 2 4 1 3 1 2 0 3 0 2 1 3 1 4 2 2 1 1 1 0 1 1 1 0 3 2 2 1 2 1 1 1 0 4 1 1 1 4 2 2 1 2 1 2 2 2 4 8 2 2 2 1 1 0 2 3 1 3 4 1 2 3 2 1 3 1 1 1 3 2 1 3 1 1 2 2 1 2 2 1 4 0 1 2 1 2 3 3 2 0 1 2 0 3 0 1 2 3 3 1 3 3 1 7 4 0 2 2 1 1 1 3 4 2 1 3 0 0 1 1 0 2 0 1 3 0 2 5 1 3 3 0 1 3 2 1 3 2 1 2 1 0 1 2 0 2 0 1 2 3 3 1 4 3 2 0 1 7 0 1 1 1 1 2 2 1 5 3 3 3 3 2 4 2 2 1 0 4 1 1 2 1 6 1 0 4 1 1 1 2 1 1 2 3 3 2 2 2 1 1 4 4 2 1 2 1 1 3 2 1 4 2 2 2 1 3 4 0 1 4 1 0 2 1 0 1 3 1 2 1 2 1 3 2 0 1 1 3 2 1 0 2 0 0 3 2 1 2 2 1 4 0 1 5 0 3 3 1 2 2 4 2 4 0 6 4 0 2 1 2 0 0 1 3 0 1 1 2 4 1 0 0 3 3 2 1 2 0 0 1 4 1 4 2 2 0 2 0 1 2 4 6 1 5 0 0 1 2 1 4 0 2 3 2 1 1 1 0 4 1 3 0 1 2 5 3 1 2 2 0 2 4 3 2 4 3 2 0 0 3 3 4 1 2 2 1 1 3 2 3 1 1 1 1 2 5 3 4 0 0 2 1 1 3 2 3 0 0 1 2 3 2 0 3 1 1 1 1 1 5 0 1 1 0 4 3 0 2 1 3 2 1 1 2 1 2 2 0 3 2 1 0 3 1 1 2 2 1 1 0 2 1 1 1 2 1 3 3 2 1 2 0 1 3 0 2 2 0 2 1 1 2 2 1 0 3 0 1 1 2 2 1 1 1 1 1 4 1 3 2 1 2 0 1 1 1 4 2 2 1 2 1 2 0 1 4 2 3 1 4 2 1 1 1 2 3 1 1 1 4 0 5 2 2 3 1 0 3 3 1 1 1 3 0 2 2 1 1 1 2 2 0 1 1 5 2 1 2 2 0 2 2 0 1 2 1 1 1 0 0 2 1 0 1 1 0 2 1 3 4 1 1 0 1 1 1 0 1 0 0 3 1 0 1 1 0 1 1 0 0 0 1 0 0 1 0 0 2 0 2 0 3 1 2 0 1 0 0 5 1 0 2 1 3 2 1 0 2 2 1 0 3 0 1 1 1 1 1 0 2 0 3 1 0 1 4 1 0 1 0 3 1 2 2 1 2 2 3 2 0 1 1 0 1 0 4 0 1 1 0 0 0 1 0 1 1 0 1 3 2 1 2 1 2 2 2 1 1 0 1 3 2 0 0 1 2 1 3 1 0 1 1 4 3 0 0 1 2 1 0 0 3 1 3 0 2 1 3 2 1 3 4 3 5 0 1 1 3 2 1 5 4 3 2 3 4 0 0 2 2 1 1 1 1 1 2 0 2 1 0 1 3 0 1 1 3 1 2 3 3 1 0 1 4 0 2 3 2 2 2 1 3 3 1 1 1 2 2 2 1 5 2 1 1 1 1 3 3 1 1 1 1 0 2 1 2 3 0 0 1 1 0 3 3 1 0 2 3 0 1 2 2 1 1 2 1 0 0 3 2 1 0 0 0 2 1 0 2 1 3 3 2 1 4 1 2 7 3 2 3 2 1 3 3 1 1 1 1 0 0 2 3 1 2 0 0 4 4 1 2 2 0 0 1 2 2 2 2 1 2 2 2 1 0 2 0 1 2 1 0 0 0 1 0 1 2 0 3 0 3 1 1 0 2 1 1 3 0 3 0 1 0 1 1 1 4 0 1 1 0 1 2 1 0 1 0 0 1 1 1 1 2 2 3 0 3 0 0 1 2 1 1 6 1 0 2 2 3 2 2 2 5 1 3 3 0 2 1 3 2 5 4 0 2 1 5 0 4 0 3 2 2 2 1 1 1 0 1 2 0 2 0 1 3 3 2 1 4 2 2 2 3 0 2 0 3 1 3 2 2 2 2 1 0 2 3 2 1 0 1 2 0 0 0 1 0 1 1 3 0 2 2 2 3 2 2 1 2 2 3 1 1 2 2 1 0 2 2 2 2 0 0 1 0 0 1 0 0 1 1 1 2 1 1 2 0 0 0 2 1 1 1 1 2 1 2 2 2 0 3 1 1 2 1 2 1 2 1 0 1 0 3 1 0 1 2 1 3 2 2 2 0 2 0 1 0 0 2 2 0 4 2 4 0 2 2 6 2 0 0 1 4 2 3 1 1 2 3 1 0 0 2 4 1 7 2 0 3 0 1 1 1 1 2 1 0 2 0 1 2 3 1 0 0 3 4 1 0 0 2 3 1 0 3 3 1 0 3 3 0 1 1 4 0 0 0 2 1 0 4 0 1 0 2 2 3 0 2 1 2 1 2 1 0 2 4 2 4 0 2 2 1 1 1 1 2 1 1 0 0 0 4 2 1 2 1 1 3 3 3 3 1 1 3 3 0 2 2 1 4 4 2 3 2 2 1 3 1 2 3 2 1 4 5 3 2 3 2 2 2 1 1 1 0 1 1 0 2 2 0 2 0 1 1 0 1 4 1 3 0 0 0 2 1 2 1 1 0 3 1 1 0 0 0 2 1 1 0 1 3 1 1 2 0 0 2 1 2 2 1 2 1 0 1 0 0 1 0 2 1 0 0 4 1 3 1 3 3 1 2 2 0 0 0 1 1 1 4 3 3 2 3 2 4 3 2 2 2 1 3 1 1 2 1 4 1 2 2 2 2 3 2 3 1 0 4 1 2 2 4 6 5 3 3 2 2 1 4 1 1 1 2 2 0 2 3 4 3 0 2 1 1 2 4 5 1 1 1 2 1 2 2 2 3 3 3 2 3 5 1 1 3 2 3 3 1 4 2 1 2 2 3 3 2 1 3 3 3 0 1 2 1 1 1 2 2 1 0 1 3 1 2 1 3 1 2 2 1 1 0 0 4 2 5 5 0 2 1 3 2 1 0 3 2 2 1 3 2 1 1 1 2 0 1 3 0 2 2 1 1 0 1 1 2 0 0 1 0 1 2 1 5 1 3 2 1 2 0 0 0 3 0 3 2 0 2 1 2 1 1 1 1 1 1 0 1 0 5 2 2 1 1 0 2 2 5 4 1 2 3 5 1 2 2 0 1 3 1 2 2 0 0 3 2 1 1 1 2 0 1 0 1 4 3 0 0 2 3 2 3 4 3 1 3 1 1 0 2 1 2 3 1 2 3 3 0 1 2 1 0 1 0 4 3 2 1 2 1 1 5 3 0 2 3 2 3 1 4 0 4 2 2 0 1 1 2 0 1 1 1 1 1 1 1 4 2 0 1 0 1 2 4 2 1 3 2 2 0 1 0 0 1 2 2 2 2 0 1 2 1 2 4 1 2 2 1 2 3 0 3 0 2 1 3 5 1 1 2 1 1 3 1 2 2 1 0 1 5 1 0 3 1 4 1 3 3 2 2 0 0 3 4 1 0 0 4 4 1 1 2 0 1 0 0 2 1 0 3 0 2 1 3 2 0 3 2 2 0 1 2 1 1 0 1 0 1 2 2 1 0 0 1 4 0 1 1 2 3 1 3 4 1 2 3 3 0 3 3 2 1 2 2 4 2 0 2 1 1 1 2 1 4 2 1 1 2 0 3 5 2 3 1 3 1 2 2 1 2 2 1 3 4 1 1 1 4 2 0 3 0 2 2 3 1 2 3 2 1 5 4 1 1 0 0 0 0 5 3 1 3 5 2 0 2 1 4 2 2 0 6 2 4 4 2 3 3 3 0 2 3 1 0 2 0 2 0 0 1 0 2 3 3 2 0 2 1 3 1 3 2 3 3 1 3 1 3 4 2 1 3 0 1 1 1 0 2 3 1 4 2 1 2 1 2 1 1 3 1 0 3 0 2 1 4 3 4 2 2 4 1 3 3 3 1 5 3 2 0 1 3 2 3 0 3 2 4 2 2 2 1 2 1 2 2 0 3 1 3 2 0 4 0 1 2 2 3 0 3 1 2 2 3 0 0 1 7 1 0 1 1 0 0 0 1 2 0 3 2 1 3 3 1 1 2 4 2 2 1 2 1 1 1 2 1 2 1 1 2 0 0 2 0 2 2 1 1 3 3 1 2 2 1 3 4 3 5 1 2 2 2 1 0 3 2 2 2 1 1 2 2 3 0 3 5 3 0 1 0 3 1 1 2 1 2 4 4 1 2 2 4 1 4 1 3 3 2 1 2 1 1 1 3 0 3 2 0 2 0 1 2 2 3 2 0 2 2 2 3 0 2 0 1 1 2 2 1 2 2 1 2 1 3 2 2 3 4 3 3 2 4 2 2 3 2 3 3 2 4 4 3 6 2 0 5 2 2 4 3 4 0 3 2 4 3 0 0 1 2 3 1 5 3 5 6 3 1 1 3 4 3 2 2 2 2 0 2 4 1 0 4 2 1 3 4 2 4 4 3 1 2 1 1 3 0 4 0 2 5 0 2 4 2 2 2 1 0 2 3 7 2 3 5 5 4 3 5 3 2 5 3 1 1 1 2 4 4 3 3 3 5 1 1 3 2 3 2 4 2 1 1 1 2 3 0 2 1 3 4 1 2 2 0 3 3 0 4 1 0 1 4 3 2 1 1 0 1 1 2 2 2 3 1 5 2 4 2 3 2 1 3 2 2 1 0 2 1 1 4 2 3 3 1 3 5 0 2 0 1 2 2 1 3 1 3 1 1 1 1 2 1 3 4 1 0 2 3 1 2 1 1 2 3 1 2 2 1 4 1 3 0 2 0 2 3 1 0 0 1 1 3 0 0 1 2 1 2 1 0 2 1 4 2 1 2 0 3 1 1 3 0 1 4 3 2 3 0 2 2 2 1 1 1 0 0 1 1 0 3 2 2 2 3 1 3 3 5 1 2 3 4 1 2 4 2 2 4 0 4 1 3 2 2 1 3 2 3 4 2 2 4 4 2 2 2 1 1 1 0 4 1 1 1 1 2 2 1 1 4 0 1 2 2 3 4 0 4 1 2 2 1 1 3 2 1 3 1 2 1 2 2 2 2 3 1 2 2 3 0 4 2 1 3 2 2 2 4 0 3 2 1 1 1 4 2 0 1 0 2 1 2 0 1 2 2 1 3 4 1 1 1 1 2 3 0 3 3 2 0 2 2 0 3 0 1 3 3 1 1 1 1 0 2 0 0 1 4 1 2 1 1 3 2 1 2 0 2 1 3 4 6 1 1 3 3 3 1 1 0 2 2 2 0 0 3 2 1 2 2 2 0 3 1 1 1 5 1 3 3 4 0 2 4 1 1 1 3 1 4 6 2 3 0 2 3 4 1 4 1 6 5 1 1 1 2 2 2 2 1 2 3 3 5 2 3 2 3 2 3 2 1 4 3 3 1 1 2 1 3 1 1 1 4 2 2 0 2 0 0 1 3 7 2 2 1 2 2 2 2 2 2 1 1 1 1 2 3 1 3 1 3 3 1 0 1 2 0 1 0 3 0 4 5 0 0 1 3 1 2 2 4 0 3 3 1 3 1 3 0 1 2 2 1 1 2 1 3 0 0 0 3 1 1 3 3 4 2 4 2 1 2 0 2 1 2 0 3 1 2 1 0 5 0 1 1 2 1 3 3 0 3 3 3 0 3 0 5 3 0 1 3 1 0 3 1 3 2 0 2 2 1 2 1 2 1 2 6 2 3 2 2 3 2 3 2 1 4 0 2 3 3 3 2 1 2 0 2 0 2 2 2 3 1 3 1 1 2 1 3 2 5 0 0 2 1 2 3 3 1 2 3 0 0 1 2 0 0 2 1 3 2 2 1 0 4 2 1 3 1 4 0 2 1 2 4 0 1 0 1 2 2 1 2 3 1 2 2 2 1 3 0 4 2 2 2 0 3 0 3 2 3 2 1 2 0 2 1 2 1 1 3 0 2 2 1 2 1 0 3 2 1 7 4 2 3 2 2 1 1 3 3 1 0 0 1 1 1 0 2 2 2 3 3 0 3 1 5 2 3 0 0 5 0 1 4 3 0 4 2 2 2 4 2 2 0 1 0 4 2 1 0 3 1 2 3 2 3 1 3 0 1 4 2 3 1 2 3 2 4 1 2 2 1 5 3 1 1 0 2 2 3 2 1 2 2 0 1 3 1 2 2 2 1 0 1 4 0 2 1 2 3 1 2 2 4 1 3 1 1 1 4 1 3 3 5 1 1 4 0 3 2 3 4 5 1 3 0 3 3 0 3 2 1 2 3 3 1 2 0 3 1 2 1 2 1 2 0 2 2 2 1 2 0 4 3 2 2 1 2 7 0 3 1 2 2 2 1 3 1 4 2 3 1 3 3 2 2 2 3 0 2 4 0 6 0 6 3 1 1 2 1 0 2 1 2 2 3 3 2 2 2 1 2 4 2 1 2 2 0 2 0 3 5 2 2 3 4 1 2 1 4 2 1 1 2 3 0 1 2 0 0 2 1 0 2 0 1 1 1 1 1 2 0 3 1 3 3 3 0 1 1 3 1 1 2 1 0 1 0 1 2 2 2 3 1 1 1 3 0 1 0 2 2 3 0 1 1 0 1 1 0 1 1 2 1 1 1 0 3 1 0 2 1 0 0 1 3 2 2 2 2 1 1 1 2 4 0 2 1 4 2 1 0 0 3 0 0 1 2 3 2 2 3 5 3 1 1 2 1 2 0 2 2 0 1 1 2 1 3 1 3 1 1 1 4 1 2 2 2 1 2 8 1 1 5 5 2 2 2 1 2 4 2 2 4 1 3 1 1 4 3 3 2 3 1 1 2 1 3 5 4 1 0 3 1 0 0 1 0 0 2 2 1 1 2 1 4 0 2 1 0 0 2 1 2 2 5 2 2 2 1 3 1 1 1 4 4 0 0 2 0 3 2 1 0 0 3 3 4 2 0 0 3 1 2 0 1 1 1 3 1 1 2 2 2 3 2 1 1 5 1 2 2 1 2 0 1 2 2 1 2 3 1 1 1 1 3 2 3 2 2 1 1 1 2 2 1 0 
BTB PER SET COUNT: 1 2 2 2 0 0 1 1 3 0 2 0 1 1 0 1 2 1 1 2 0 1 1 2 1 2 1 2 1472 1 2 3 4 1 3 0 0 3 5 0 1 2 6 3 1 1 2 1 4 1 1 1 2 0 0 2 4 3 1 1 1 2 2 2 0 366 8 0 2 2 755 1 1 2 1 1 481 763 2 1 1 1 1 4 3 2 1 4 3 2 8 519 2 3 3 0 1 4 0 1 3 2 2 3 3 2 1 1 3 0 2 2 3 2 1 3 1 2 1 0 3 2 2 0 1 1 1 1 3 3 486 0 1 1 3 1 0 0 1 2 2 5 3 0 2 1 2 3 3 2 1 1497 1 2 2 1 0 3 1 1 0 0 0 1 4 4 0 1 2490 2 2 2 2 1 1 0 1 1 995 1 1 4 6368 2 3 2 3 0 1 1 6 1 1 2 1 1 1 1 0 1 2 1 1 0 0 0 1 1 1 0 0 2 2 1 2 1 0 2 1 0 0 1 1 3 2 0 2 33 0 3 2200 3 1 2 1 3 3 0 1 2 1 0 2 2 1443 3 1 1 3 1 1 1 1 1 0 7 2 2 2 2 3 3 2 2 2 4 3 0 2 2 2 2 1 2 2 2 1 0 3 2 2 2 1 1 2 960 2 1 1 1 0 0 1 2 0 1 3 2 0 1 2 2 1 1 2 2 3 2 3 3 2 1 2 2 3 0 2 2 1 2 1 2 2 2 0 3 1 4 0 0 961 0 2 3 995 1 960 3 4 0 3 0 0 958 959 3 1 2 1 4 1 4 3 2 2 2 1 0 3 0 0 2 1 2 4 2 1 0 0 0 3 1 2 0 1 2 2 2 2 3 0 0 1 4 0 0 2 1 2 1 1 2 2 2 2 0 3 0 0 2 3 1 4 1 1 0 1473 5 0 993 0 1 2 2 1 0 5 1 1 87 1 1 3 2 2 5 0 0 1 3 1 0 9 2 3 3 2 1 1 0 0 4 3 3 2 1 1 3 1 1 3 0 0 1 3 0 1 3 2 2 3 0 4 2 0 0 2 0 1 3 0 1 1 479 2 1 0 1 1 0 0 1 1 480 0 2 2 0 3 1 3 1 1 2 0 3 1 1 3 0 3 0 0 1 0 2 1 0 0 2 3 2 4 4 3 0 1 3 1 487 1 1 3 1 3 3 1 4 3 2 6 1 2 2 1 484 0 0 6 0 0 4 3 1 18 1 14 3 4 5 2 3 4 4 0 1 2 0 2 2 6401 0 1 2 1 0 0 1 3 4 4 0 1 8 2 0 0 2 0 0 1 1 1 0 1 0 0 4 2 2 4 3 0 2 993 2 3 0 2 2 1 0 1 3 1 2 1 1 3 0 2 2 3 2 2 1 1039 0 2 2 3 1 6 0 2 2 2 2 1 0 481 1 0 5 3 4 0 1 1 2 9 1 3 3 0 0 4 1 2 1 1 1 3 1 1 0 4 0 1 3 7775 2 3 3 2 1 1 958 0 0 4 2 1 0 4 959 0 1 3 2 1 0 2 959 2 1 1 1473 2 1 0 960 1 1 1 3 3 3 2 3 0 2 0 2 1 958 0 1 0 0 1 2 0 1 959 0 1472 1 0 2 1 0 1 1 0 1 1 1 0 3 3 2 993 0 1 1 11 1 1 0 1 2 1 2 1 0 3 1 2 959 0 0 1 2 0 1 2 3 1 0 1 1 0 2 0 1 3 1 0 0 2 2 0 0 1 2 4 1 1 1 2 2 0 0 4 3 3 5 0 0 1 37 0 0 2 3 3 1 1 0 2 2 1 2 1 1 1 5 0 5 0 2 1 0 4 1 2 0 0 3 3 0 1 0 3 1 1 1 1 70 1 1 2 1 3 0 2 0 3 2 0 1 0 2 0 1 3 2 3 0 2 1 5 1 3 2 0 0 1 0 0 0 0 1 4 1 1 0 2 0 1 1 1 3 1 0 2 2 3 1 2 1 2 0 0 0 1 2 0 0 4 0 1 4 1 1 4 0 1 1 1 0 0 1 1 3 0 1 0 4 3 3 0 0 1 2 0 1 1 2 4 1 3 1 2 0 3 0 2 1 3 1 5 517 2 1 46 4 0 1 1 1 0 995 2 2 1 2 1 1 1 0 4 1 1 1 5 3 2 1 2 481 2 2 3 4 1113 2 2 2 1 1 0 364 3 1 3 4 1 2 3 2 1 4 1 2 1 3 2 1 3 1 1 2 2 1 3 2 1 5 0 1 2 1 2 3 3 2 0 1 1918 0 2468 0 1 3 3 4 1 3 3 1 3263 4 0 2 2 1 1 1 3 4 2 1 3 0 0 1 1 0 2 0 1 3 0 2 7 2 3 3 0 1 3 2 1 365 2 1 6 1 0 1 7 0 4 0 1 2 3 8 1 4 3 2 0 1 7879 0 1 1 1 1 2 3 2 7 4 3 3 3 2 4 2 2 2 0 4 1 1 2 1 22 1 0 4 1 1 1 482 1 1 2 3 3 2 2 2 1 1 5 4 3 1 2 1 1 3 2 1 4 2 2 2 1 3 6 0 1 4 1 0 2 1 0 1 3 2 2 1 2 1 3 2 0 1 1 3 2 1 0 2 0 0 3 2 1 2 2 1 4 0 1 7 0 3 3 1 2 2 4 2 4 0 2399 4 0 2 1 2 0 0 1 483 0 1 1 3 124 1 0 0 481 3 2 1 3 0 0 1 4 1 5 2 2 0 3 0 1 2 6 1025 1 8 0 0 1 2 2 4 0 2 960 2 1 1 1 0 4 1 3 0 1 2 2396 3 1 2 2 0 2 4 2003 2 4 3 2 0 0 3 3 4 2 2 2 2 1 3 2 3 1 2 1 1 2 3457 3 4 0 0 3 1 1 3 2 3 0 0 1 2 1474 2 0 3 1 2 1 1 1 23 0 1 1 0 4 3 0 2 1 3 2 1 1 2 1 2 2 0 3 2 2 0 3 1 1 2 4 1 2 0 2 1 1 1 2 2 3 3 2 1 2 0 1 3 0 2 2 0 2 1 1 2 2 1 0 3 0 1 1 2 2 3 1 1 1 1 4 2 3 2 1 2 0 1 1 1 4 2 2 1 2 1 2 0 1 4 2 3 1 4 2 1 1 1 2 3 1 1 1 4 0 18 2 2 3 1 0 3 108 1 1 1 3 0 3 2 2 1 3 3 3 0 1 2 6 2 1 3 2 0 2 1473 0 1 1355 1 1 1 0 0 2 1 0 1 1355 0 2 1 3 4 1 1 0 1 1 1 0 1 0 0 3 2 0 1 1 0 1 1 0 0 0 1 0 0 1 0 0 2 0 2 0 3 1 2 0 2 0 0 9 24 0 2 1 3 2 1 0 2 2 138 0 3 0 1 1 1 1 1 0 4 0 3 363 0 1 5 1 0 1 0 3 1 2 2 1 29 2 3 2 0 1 1 0 1 0 4 0 1 1 0 0 0 1 0 1 1 0 1 429 2 1 2 1 2 2 2 2 1 0 1 3 2 0 0 1 2 1 10 1 0 1 1 4 3 0 0 1 2 1 0 0 3 1 3 0 2 1 3 2 1 3 4 3 1916 0 1 1 3 2 1 29 4 3 2 4 1477 0 0 2 1473 1 1 1 1 1 2 0 2 993 0 1 4 0 1 1 3 1 2 3 3 2874 0 1 4 0 2 5 2 2 2 1 3 3 1 1 1 261 2 2 1 8 2 1 4 1 1 3 4 1 1 1 2 0 2 1 2 3 0 0 1 1 0 3 3 1 0 2 4 0 1 2 2 1 958 2 1 0 0 3 2 959 0 0 0 3 481 0 2 1 3 4 2 1 599 1 2 5454 3 2 14723 959 1 3 3 3 1 1 1 0 0 2 3 1 2 0 0 4 4 1 181 2 0 0 1 1473 151 2 2 1 2 2 3 786 0 2 0 1 2 1 0 0 0 658 0 1 2 0 3 0 4 1 1 0 2 1 2 3 0 3 0 1 0 1 1 1 5 0 1 487 0 1 2 3 0 1 0 0 994 1 1 1 2 2 3 0 4 0 0 1 2 1472 1 2836 1 0 2 2 3 2 6 2 1760 1 411 4 0 2 1 3 222 8 135 0 3 1 2333 0 202 0 3 1475 2 2 1 1 1 0 1 2 0 2 0 1 4 3 2 1 4 390 2 5 995 0 2 0 3 1 3 2 2 2 2 1 0 2 200 2 1 0 1 2 0 0 0 1 0 1 1 3 0 2 2 2 3 8 2 1 2 2 3 1 1 2 2 1 0 2 2 3 2 0 0 1 0 0 1 0 0 1 1 1 2 1 1 2 0 0 0 2 1 1 1 1 5 1 2 2 96 0 3 3 1 2 1 2 1 2 1 0 1 0 3 1 0 1 2 1 3 2 2 2 0 2 0 1 0 0 2 2 0 4 1474 4 0 2 2 1858 2 0 0 1 5 2 3 1 3 2 3 1 0 0 2 4 5 2876 2 0 3 0 1 1 1 1 3 1 0 2 0 1 2 3 2 0 0 3 4 1 0 0 2 3 1 0 3 3 1 0 3 3 0 1 1 6 0 0 0 2 1 0 4 0 1 0 2 2 3 0 2 1 236 1 3 1 0 2 1489 3 5 0 2 2 1 1 2 1 2 1 1 0 0 0 4 2 1 2 1 1 3 1476 3 4 1 1 3 3 0 2 2 1 4 4 2 3 2 2 2946 3 1 2 3 2 1 4 4987 3 2 3 2 2 2 1 1 1 0 1 1 0 3 2 0 2 0 1 1 0 1 4 1 3 0 0 0 2 1 2 1 1 0 3 1 1 0 0 0 3 1 2 0 1 3 1 1 2 0 0 2 1 2 2 1 2 1 0 1 0 0 1 0 2 1 0 0 4 1 3 2 3 3 1 2 2 0 0 0 1 1 1 4 5 3 2 3 2 4 3 2 2 2 1 3 1 1 2 1 7 1 2 2 2 2 3 2 3 1 0 5 1 2 2 4 1001 5 3 3 1988 2 1 4 1 1 1 2 2 0 2 3 5 3 0 2 1 1 2 4 5 1 1 1 2 1 2 2 2 3 3 3 2 3 5 2 1 3 2 6 3 1 1477 2 1 2 2 4 3 2 1 3 3 3 0 1 2 1 1 1 2 2 1 0 1 3 1 2 1 3 1 2 2 1 1 0 0 4 2 6 5 0 2 1 3 2 1 0 3 2 2 1 3 2 1 1 1 2 0 1472 3 0 2 2 1 1 0 1 1 2 0 0 1 0 1 2 1 12 1 3 2 1 2 0 0 0 3 0 3 2 0 4 1 2 1 1 1 1 1 1 0 1 0 5 2 2 1 1 0 2 2 5 4 1 4 3 1001 2 2 2 0 1 3 1 2 2 0 0 3 2 1 1 1 2 0 1 0 1 4 3 0 0 2 3 2 3 5 3 1 3 2 1 0 2 1 2 3 2 2 3 3 0 1 2 1 0 1 0 4 3 2 1 2 1 1 24 3 0 2 6 2 3 1 4 0 5 2 2 0 1 1 1473 0 2 1 1 1 1 1 1 4 2 0 1 0 1 2 5 2 993 3 128 2 0 1 0 0 1 2 2 2 4 0 1 4 148 2 8 1 3 2 1 2 3 0 3 0 2 1 3 21 2 1 2 1 1 3 1 2 2 1 0 1 492 1 0 3 1 4 1 3 3 2 2 0 0 3 28 1 0 0 4 4 1 1 2 0 1 0 0 2 1 0 3 0 2 1 3 2 0 5 2 2 0 1 2 14 1 0 1 0 1 2 2 1 0 0 1 4 0 1 1 2 3 1 4 1475 1 2 3 3 0 3 4 2 1 2 2 6 2 0 2 1 1 1 2 1 4 2 1 2 2 0 4 1900 2 4 1 3 1 2 3 1 2 3 1 3 4 1 1 1 4 2 0 3 0 2 2 4 1 2 3 2 1 23 4 44 1 0 0 0 0 2376 3 1 3 10 2 0 2 1 5 2 2 0 10 4 4 4 2 3 3 3 0 2 3 1 0 2 0 2 0 0 1 0 3 481 3 2 0 2 1 3 1 3 2 1474 3 1 3 1 3 4 2 1 3 0 1 1 1 0 2 4 1 4 2 1 2 1 2 1 1 3 1 0 5 0 2 1 4 3 2948 3 2 5 1 3 4 3 1 7 3 2 0 1 3 2 3 0 3 2 4 2 2 2 1 4 1 2 2 0 3 1 4 31 0 4 0 1 2 2 3 0 4 1 2 2 5 0 0 1 32 1 0 1 1 0 0 0 2 2 0 3 2 1 3 3 1 1 3 4 2 2 2 2 1 1 1 2 1 2 481 1 2 0 0 2 0 3 2 1 1 3 3 1 2 2 1 3 4 3 25 1 3 2 3 1 0 102 2 3 2 1 1 2 2 3 0 3 22 3 0 1 0 3 1 1 3 1 2 4 4 1 2 2 4 1 4 2 1918 3 2 1 2 2 1 1 3 0 3 2 0 2 0 1 2 2 3 2 0 2 2 2 3 0 2 0 1 1 2 3 1 2 2 1 2 1 3 1474 2 7 7 3 4 2 4 2 2 4 2 3 3 2 4 4 3 4931 2 0 10 994 2 5 3 4 0 3 2 4 3 0 0 1 2 4 1 8 3 6 78 3 1 1 3 5 3 2 3 2 2 0 2 4 1 0 4 2 1 61 6 2 4 4 3 1 2 1 1 3 0 4 0 2 7 0 2 4 2 2 3 1 0 2 3 49 2 485 9 1251 4 3 1911 3 2 9 3 1 1 1 2 4 5 242 3 3 752 1 1 3 2 3 3 4 2 1 1 1 2 3 0 2 1 3 4 1 2 2 0 3 3 0 996 1 0 1 4 3 481 1 1 0 1 1 2 2 2 4 1 1916 2 4 2 3 2 1 3 2 2 1 0 2 1 1 4 2 3 3 1 363 963 0 2 0 1 2 2 1 3 1 3 1 1 1 1 2 1 3 5 2 0 2 3 1 2 3 1 2 3 1 2 2 1 4 1 3 0 2 0 2 1474 1 0 0 1 1 3 0 0 1 2 1 4 1 0 2 1 4 2 1 2 0 3 1 1 3 0 1 5 103 2 3 0 2 2 2 1 1 1 0 0 1 1 0 3 2 2 2 3 1 3 3 28 1 2 3 5 1 2 4 2 2 4 0 4 1 3 2 3 1 3 2 3 4 2 2 4 4 2 2 2 1 1 1 0 4 1 1 1 1 2 2 1 1 485 0 1 2 3 3 4 0 5 1 2 3 1 1 4 3 1 3 2 2 1 2 2 2 4 3 1 2 2 3 0 4 2 1 4 2 2 2 996 0 4 2 1 1 1 5 3 0 1 0 2 1 2 0 1 2 2 1 3 5 1 1 1 1 2 3 0 3 3 2 0 2 2 0 4 0 1 3 3 1 1 1 1 0 4 0 0 1 4 1 2 1 1 3 2 1 2 0 2 1 3 4 4557 1 1 1474 3 3 1 1 0 2 2 2 0 0 3 3 1 2 2 2 0 3 1 1 1 451 1 3 3 4 0 2 4 1 1 1 3 1 4 1191 994 3 0 2 3 4 1 4 1 2396 7 1 1 1 2 2 2 2 1 2 4 3 15 2 3 2 481 2 3 2 1 88 3 3 1 1 2 1 3 2 1 1 4 2 2 0 2 0 0 1 3 2876 2 2 1 2 2 2 2 2 2 2 1 1 1 2 3 1 3 2 5 3 1 0 1 2 0 1 0 3 0 5 10 0 0 1 3 993 2 3 7 0 3 42 1 3 1 3 0 1 2 2 1 1 2 3 4 0 0 0 3 1 1 3 3 4 2 8 2 1 2 0 2 1 2 0 3 1 2 1 0 8 0 1 1 2 1 4 3 0 3 3 3 0 3 0 525 3 0 1 3 1 0 3 1 3 2 0 2 2 1 2 1 2 1 2 2397 2 3 5 2 3 2 3 2 1 4 0 3 3 3 995 2 1 2 0 2 0 2 2 2 3 1 3 958 1 6 1 3 2 1439 0 0 2 1 2 4 5 1 2 20617 0 0 1 2 0 0 2 1 3 252 2 1 0 33 2 1 3 1 4 0 2 1 2 4 0 1 0 1 2 2 1 2 3 1 2 2 2 1 3 0 4 2 2 3 0 3 0 3 2 3 2 1 2 0 2 1 2 1 1 3 0 2 2 1 2 1 0 3 2 1 2168 4 2 3 2 2 1 1 3 995 1 0 0 1 1 1 0 2 2 2 5 3 0 3 1 6 2 3 0 0 13 0 1 15 3 0 4 2 2 2 4 2 2 0 1 0 5 2 1 0 3 1 2 3 4 3 1 3 0 1 4 2 4 1 2 3 2 4 1 2 2 1 23 3 1 361 0 1473 2 3 237 1 2 2 0 1 3 1 2 2 2 1 0 1 5 0 2 1 2 3 1 481 2 4 1 3 1 1 1 4 1 482 3 1918 1 1 4 0 3 2 4 4 7 1 3 0 4 3 0 482 2 1 2 3 3 1 2 0 5 1 362 1472 2 1 2 0 2 2 2 1 2 0 6 3 2 2 1 2 2875 0 1475 1 2 2 2 1 3 1 4 2 3 1 3 3 2 2 2 3 0 2 4 0 4487 0 1194 3 1 1 2 1 0 2 1 2 2 3 3 2 2 2 1 2 4 2 1 2 2 0 2 0 3 1917 994 2 3 4 1 2 1 4 2 1 1 2 3 0 1 2 0 0 2 1 0 2 0 1 1 1 1 1 2 0 3 1 3 3 3 0 1 1 3 1 1 2 1 0 1 0 1 2 2 2 3 1 2 1 520 0 1 0 2 2 3 0 1 1 0 1 1 0 1 1 2 1 1 1 0 20 1 0 2 1 0 0 1 3 2 2 2 2 1 1 1 2 4 0 2 1 4 2 1 0 0 3 0 0 1 2 3 2 959 3 7 3 1 1 2 1 2 0 2 3 0 1 1 2 1 3 5 3 1 1 1 4 1 2 2 2 1 2 3234 1 1 1250 6 2 2 2 1 2 4 2 3 5 1 4 1 1 4 3 960 2 3 1 1 3 1 3 159 4 1 0 3 2 0 0 1 0 0 2 2 1 1 2 1 4 0 3 1 0 0 2 1 2 2 1298 2 2 2 1 483 1 1 1 4 5 0 0 2 0 3 2 1 0 0 3 4 4 2 0 0 3 1 2 0 1 1 1 3 1 1 3 2 2 5 2 1 1 29 1 2 2 1 2 0 1 2 2 1 2 3 1 1 1 1 3 2 8 2 2 1 2 1 7 2 1 0 
