
*** ChampSim Multicore Out-of-Order Simulator ***

Warmup Instructions: 50000000
Simulation Instructions: 50000000
Number of CPUs: 1
LLC sets: 2048
LLC ways: 16
Off-chip DRAM Size: 4096 MB Channels: 1 Width: 64-bit Data Rate: 6400 MT/s
CPU 0 runs ./micro_traces/srv189.trace.gz
.gz
ITLB has LRU replacement policy
DTLB has LRU replacement policy
STLB has LRU replacement policy
FDIP Prefetcher at L1I
L1I has LRU replacement policy
L1D has LRU replacement policy
Initialize SRRIP state for L2C
Initialize DRRIP state for LLC
Heartbeat_Variant_0 : 1148 0.280273 per_variant_size: 0 1148 0 0 0 0 0 0 0 
Heartbeat_Variant_1 : 1114 0.271973 per_variant_size: 0 496 618 0 0 0 0 0 0 
Heartbeat_Variant_2 : 989 0.241455 per_variant_size: 0 281 296 242 170 0 0 0 0 
Heartbeat_Variant_3 : 0 0 per_variant_size: 0 0 0 0 0 0 0 0 0 
Heartbeat_Variant_0_evicts 0 : 18607 1 : 7554 2 : 7058 3 : 0 
Heartbeat_Variant_1_evicts 0 : 7319 1 : 0 2 : 4568 3 : 0 
Heartbeat_Variant_2_evicts 0 : 7221 1 : 4216 2 : 0 3 : 0 
Heartbeat_Variant_3_evicts 0 : 0 1 : 0 2 : 0 3 : 0 
Heartbeat CPU 0 instructions: 10000001 cycles: 2798474 heartbeat IPC: 3.57338 cumulative IPC: 3.57338 (Simulation time: 0 hr 2 min 3 sec) 
Heartbeat_Variant_0 : 1156 0.282227 per_variant_size: 0 1156 0 0 0 0 0 0 0 
Heartbeat_Variant_1 : 1112 0.271484 per_variant_size: 0 497 615 0 0 0 0 0 0 
Heartbeat_Variant_2 : 996 0.243164 per_variant_size: 0 283 295 248 170 0 0 0 0 
Heartbeat_Variant_3 : 0 0 per_variant_size: 0 0 0 0 0 0 0 0 0 
Heartbeat_Variant_0_evicts 0 : 18626 1 : 7498 2 : 7017 3 : 0 
Heartbeat_Variant_1_evicts 0 : 7298 1 : 0 2 : 4299 3 : 0 
Heartbeat_Variant_2_evicts 0 : 7210 1 : 4111 2 : 0 3 : 0 
Heartbeat_Variant_3_evicts 0 : 0 1 : 0 2 : 0 3 : 0 
Heartbeat CPU 0 instructions: 20000001 cycles: 5595291 heartbeat IPC: 3.57549 cumulative IPC: 3.57443 (Simulation time: 0 hr 3 min 58 sec) 
Heartbeat_Variant_0 : 1168 0.285156 per_variant_size: 0 1168 0 0 0 0 0 0 0 
Heartbeat_Variant_1 : 1135 0.2771 per_variant_size: 0 496 639 0 0 0 0 0 0 
Heartbeat_Variant_2 : 1006 0.245605 per_variant_size: 0 268 300 247 191 0 0 0 0 
Heartbeat_Variant_3 : 0 0 per_variant_size: 0 0 0 0 0 0 0 0 0 
Heartbeat_Variant_0_evicts 0 : 18575 1 : 7572 2 : 7032 3 : 0 
Heartbeat_Variant_1_evicts 0 : 7352 1 : 0 2 : 4450 3 : 0 
Heartbeat_Variant_2_evicts 0 : 7250 1 : 4224 2 : 0 3 : 0 
Heartbeat_Variant_3_evicts 0 : 0 1 : 0 2 : 0 3 : 0 
Heartbeat CPU 0 instructions: 30000002 cycles: 8392793 heartbeat IPC: 3.57462 cumulative IPC: 3.5745 (Simulation time: 0 hr 5 min 52 sec) 
Heartbeat_Variant_0 : 1172 0.286133 per_variant_size: 0 1172 0 0 0 0 0 0 0 
Heartbeat_Variant_1 : 1135 0.2771 per_variant_size: 0 487 648 0 0 0 0 0 0 
Heartbeat_Variant_2 : 1002 0.244629 per_variant_size: 0 264 298 242 198 0 0 0 0 
Heartbeat_Variant_3 : 0 0 per_variant_size: 0 0 0 0 0 0 0 0 0 
Heartbeat_Variant_0_evicts 0 : 18271 1 : 7441 2 : 6856 3 : 0 
Heartbeat_Variant_1_evicts 0 : 7199 1 : 0 2 : 4358 3 : 0 
Heartbeat_Variant_2_evicts 0 : 7094 1 : 4116 2 : 0 3 : 0 
Heartbeat_Variant_3_evicts 0 : 0 1 : 0 2 : 0 3 : 0 
Heartbeat CPU 0 instructions: 40000001 cycles: 11188846 heartbeat IPC: 3.57647 cumulative IPC: 3.57499 (Simulation time: 0 hr 8 min 4 sec) 
Heartbeat_Variant_0 : 1162 0.283691 per_variant_size: 0 1162 0 0 0 0 0 0 0 
Heartbeat_Variant_1 : 1148 0.280273 per_variant_size: 0 502 646 0 0 0 0 0 0 
Heartbeat_Variant_2 : 999 0.243896 per_variant_size: 0 266 294 251 188 0 0 0 0 
Heartbeat_Variant_3 : 0 0 per_variant_size: 0 0 0 0 0 0 0 0 0 
Heartbeat_Variant_0_evicts 0 : 18293 1 : 7395 2 : 6914 3 : 0 
Heartbeat_Variant_1_evicts 0 : 7188 1 : 0 2 : 4401 3 : 0 
Heartbeat_Variant_2_evicts 0 : 7131 1 : 4181 2 : 0 3 : 0 
Heartbeat_Variant_3_evicts 0 : 0 1 : 0 2 : 0 3 : 0 
Heartbeat CPU 0 instructions: 50000002 cycles: 13985403 heartbeat IPC: 3.57583 cumulative IPC: 3.57516 (Simulation time: 0 hr 10 min 4 sec) 

Warmup complete CPU 0 instructions: 50000002 cycles: 13985403 (Simulation time: 0 hr 10 min 4 sec) 

Cycle: 20000000 FTQ IN: 56781555 FTQ occupancy: 18.0726 DECODE IN: 56781499 DECODE occupancy: 46.1315 ROB IN: 56781499 ROB occupancy: 278.421 ROB OUT: 56781481
Heartbeat_Variant_0 : 1171 0.285889 per_variant_size: 0 1171 0 0 0 0 0 0 0 
Heartbeat_Variant_1 : 1141 0.278564 per_variant_size: 0 500 641 0 0 0 0 0 0 
Heartbeat_Variant_2 : 997 0.243408 per_variant_size: 0 261 299 252 185 0 0 0 0 
Heartbeat_Variant_3 : 0 0 per_variant_size: 0 0 0 0 0 0 0 0 0 
Heartbeat_Variant_0_evicts 0 : 18291 1 : 7406 2 : 6868 3 : 0 
Heartbeat_Variant_1_evicts 0 : 7167 1 : 0 2 : 4298 3 : 0 
Heartbeat_Variant_2_evicts 0 : 7098 1 : 4066 2 : 0 3 : 0 
Heartbeat_Variant_3_evicts 0 : 0 1 : 0 2 : 0 3 : 0 
Heartbeat CPU 0 instructions: 60000000 cycles: 22857838 heartbeat IPC: 1.12709 cumulative IPC: 1.12709 (Simulation time: 0 hr 11 min 51 sec) 
Cycle: 30000000 FTQ IN: 11081804 FTQ occupancy: 6.76479 DECODE IN: 11081739 DECODE occupancy: 14.0373 ROB IN: 11081679 ROB occupancy: 114.459 ROB OUT: 11081655
Heartbeat_Variant_0 : 1172 0.286133 per_variant_size: 0 1172 0 0 0 0 0 0 0 
Heartbeat_Variant_1 : 1161 0.283447 per_variant_size: 0 495 666 0 0 0 0 0 0 
Heartbeat_Variant_2 : 1005 0.245361 per_variant_size: 0 255 301 247 202 0 0 0 0 
Heartbeat_Variant_3 : 0 0 per_variant_size: 0 0 0 0 0 0 0 0 0 
Heartbeat_Variant_0_evicts 0 : 18493 1 : 7497 2 : 6971 3 : 0 
Heartbeat_Variant_1_evicts 0 : 7245 1 : 0 2 : 4454 3 : 0 
Heartbeat_Variant_2_evicts 0 : 7229 1 : 4197 2 : 0 3 : 0 
Heartbeat_Variant_3_evicts 0 : 0 1 : 0 2 : 0 3 : 0 
Heartbeat CPU 0 instructions: 70000002 cycles: 31924689 heartbeat IPC: 1.10292 cumulative IPC: 1.11487 (Simulation time: 0 hr 13 min 40 sec) 
Cycle: 40000000 FTQ IN: 11182783 FTQ occupancy: 6.61785 DECODE IN: 11182882 DECODE occupancy: 13.734 ROB IN: 11182882 ROB occupancy: 113.861 ROB OUT: 11182634
Heartbeat_Variant_0 : 1164 0.28418 per_variant_size: 0 1164 0 0 0 0 0 0 0 
Heartbeat_Variant_1 : 1170 0.285645 per_variant_size: 0 501 669 0 0 0 0 0 0 
Heartbeat_Variant_2 : 1004 0.245117 per_variant_size: 0 258 297 256 193 0 0 0 0 
Heartbeat_Variant_3 : 0 0 per_variant_size: 0 0 0 0 0 0 0 0 0 
Heartbeat_Variant_0_evicts 0 : 18583 1 : 7498 2 : 7031 3 : 0 
Heartbeat_Variant_1_evicts 0 : 7285 1 : 0 2 : 4466 3 : 0 
Heartbeat_Variant_2_evicts 0 : 7252 1 : 4244 2 : 0 3 : 0 
Heartbeat_Variant_3_evicts 0 : 0 1 : 0 2 : 0 3 : 0 
Heartbeat CPU 0 instructions: 80000001 cycles: 40846947 heartbeat IPC: 1.12079 cumulative IPC: 1.11684 (Simulation time: 0 hr 15 min 33 sec) 
Heartbeat_Variant_0 : 1163 0.283936 per_variant_size: 0 1163 0 0 0 0 0 0 0 
Heartbeat_Variant_1 : 1172 0.286133 per_variant_size: 0 504 668 0 0 0 0 0 0 
Heartbeat_Variant_2 : 1003 0.244873 per_variant_size: 0 252 296 261 194 0 0 0 0 
Heartbeat_Variant_3 : 0 0 per_variant_size: 0 0 0 0 0 0 0 0 0 
Heartbeat_Variant_0_evicts 0 : 18491 1 : 7445 2 : 6968 3 : 0 
Heartbeat_Variant_1_evicts 0 : 7228 1 : 0 2 : 4454 3 : 0 
Heartbeat_Variant_2_evicts 0 : 7186 1 : 4235 2 : 0 3 : 0 
Heartbeat_Variant_3_evicts 0 : 0 1 : 0 2 : 0 3 : 0 
Heartbeat CPU 0 instructions: 90000003 cycles: 49877929 heartbeat IPC: 1.1073 cumulative IPC: 1.11444 (Simulation time: 0 hr 17 min 30 sec) 
Cycle: 50000000 FTQ IN: 11090844 FTQ occupancy: 6.76603 DECODE IN: 11090857 DECODE occupancy: 13.975 ROB IN: 11090917 ROB occupancy: 115.297 ROB OUT: 11090909
Heartbeat_Variant_0 : 1188 0.290039 per_variant_size: 0 1188 0 0 0 0 0 0 0 
Heartbeat_Variant_1 : 1148 0.280273 per_variant_size: 0 483 665 0 0 0 0 0 0 
Heartbeat_Variant_2 : 1003 0.244873 per_variant_size: 0 256 295 257 195 0 0 0 0 
Heartbeat_Variant_3 : 0 0 per_variant_size: 0 0 0 0 0 0 0 0 0 
Heartbeat_Variant_0_evicts 0 : 18712 1 : 7544 2 : 7138 3 : 0 
Heartbeat_Variant_1_evicts 0 : 7333 1 : 0 2 : 4505 3 : 0 
Heartbeat_Variant_2_evicts 0 : 7324 1 : 4318 2 : 0 3 : 0 
Heartbeat_Variant_3_evicts 0 : 0 1 : 0 2 : 0 3 : 0 
Heartbeat CPU 0 instructions: 100000003 cycles: 58845615 heartbeat IPC: 1.11511 cumulative IPC: 1.11457 (Simulation time: 0 hr 19 min 14 sec) 
Finished CPU 0 instructions: 50000001 cycles: 44860212 cumulative IPC: 1.11457 (Simulation time: 0 hr 19 min 14 sec) 

ChampSim completed all CPUs

Region of Interest Statistics

CPU 0 cumulative IPC: 1.11457 instructions: 50000001 cycles: 44860212
 Fetch stage stalled: 71.2783  Sim cycles: 44860212 fetch stall cycle: 31975591
 Empty decode stage: 64.102  Sim cycles: 44860212 fetch stall cycle: 28756305
ITLB TOTAL     ACCESS:    5774549  HIT:    5281440  MISS:     493109  HIT %:    91.4606  MISS %:    8.53935   MPKI: 9.86218
ITLB LOAD TRANSLATION INSTRUCTION	ACCESS:    5674518  HIT:    5181409  MISS:     493109  HIT %:    91.3101  MISS %:    8.68988  MPKI: 9.86218
ITLB TRANSLATION FROM L1D PREFETCHER INSTRUCTION	ACCESS:     100031  HIT:     100031  MISS:          0  HIT %:        100  MISS %:          0  MPKI: 0

ITLB AVERAGE MISS LATENCY: 9.03793 cycles
ITLB RQ	ACCESS:    7589028	FORWARD:          0	MERGED:    1382902	TO_CACHE:    6206126

DTLB TOTAL     ACCESS:    9358623  HIT:    8886676  MISS:     471947  HIT %:    94.9571  MISS %:    5.04291   MPKI: 9.43894
DTLB LOAD TRANSLATION DATA	ACCESS:    9358623  HIT:    8886676  MISS:     471947  HIT %:    94.9571  MISS %:    5.04291  MPKI: 9.43894

DTLB AVERAGE MISS LATENCY: 9.31384 cycles
DTLB RQ	ACCESS:   13638168	FORWARD:          0	MERGED:    4245927	TO_CACHE:    9392241

STLB TOTAL     ACCESS:    1214008  HIT:    1212022  MISS:       1986  HIT %:    99.8364  MISS %:    0.16359   MPKI: 0.03972
STLB LOAD TRANSLATION INSTRUCTION	ACCESS:     493109  HIT:     492893  MISS:        216  HIT %:    99.9562  MISS %:  0.0438037  MPKI: 0.00432
STLB LOAD TRANSLATION DATA	ACCESS:     471678  HIT:     469946  MISS:       1732  HIT %:    99.6328  MISS %:     0.3672  MPKI: 0.03464
STLB TRANSLATION FROM L1D PREFETCHER DATA	ACCESS:     249221  HIT:     249183  MISS:         38  HIT %:    99.9848  MISS %:  0.0152475  MPKI: 0.00076

STLB AVERAGE MISS LATENCY: 71.9089 cycles
STLB RQ	ACCESS:    1334425	FORWARD:          0	MERGED:     120378	TO_CACHE:    1214047

STLB Hit, L1D data hit: 0
STLB Hit, L2C data hit: 0
STLB Hit, LLC data hit: 0
STLB Hit, LLC data miss: 0
STLB STLB hints to L2: 0
L1D TOTAL     ACCESS:   13407834  HIT:   12295437  MISS:    1112397  HIT %:    91.7034  MISS %:    8.29662   MPKI: 22.2479
L1D LOAD DATA	ACCESS:    6831362  HIT:    6097413  MISS:     733949  HIT %:    89.2562  MISS %:    10.7438  MPKI: 14.679
L1D RFO DATA	ACCESS:    6247599  HIT:    5961814  MISS:     285785  HIT %:    95.4257  MISS %:    4.57432  MPKI: 5.7157
L1D PREFETCH DATA	ACCESS:     328873  HIT:     236210  MISS:      92663  HIT %:    71.8241  MISS %:    28.1759  MPKI: 1.85326

L1D PREFETCH  REQUESTED:     739025  ISSUED:     739025  USEFUL:      33700  USELESS:      67146
L1D USEFUL LOAD PREFETCHES:      33700 PREFETCH ISSUED TO LOWER LEVEL:     100925  ACCURACY: 33.3911
 TIMELY PREFETCHES:      33700 LATE PREFETCHES: 8184 DROPPED PREFETCHES: 13
L1D AVERAGE MISS LATENCY: 270139 cycles
L1D RQ	ACCESS:   10899221	FORWARD:          0	MERGED:    3872928	TO_CACHE:    6864583
L1D WQ	ACCESS:    6945323	FORWARD:     161997	MERGED:     171738	TO_CACHE:    6773585
L1D PQ	ACCESS:     369656	FORWARD:          0	MERGED:          0	TO_CACHE:     369369

L1D UNIQUE REGIONS ACCESSED: 0
L1D REGIONS CONFLICTS: 0
L1D Cross Page Prefetch Requests: 7090
L1D Same Page Prefetch Requests: 752286
L1D ROI Sum of L1D PQ occupancy: 4686612
L1D PREFETCHES PUSHED FROM L2C: 0
L1I TOTAL     ACCESS:    7073505  HIT:    4312375  MISS:    2761130  HIT %:    60.9652  MISS %:    39.0348   MPKI: 55.2226
L1I LOAD INSTRUCTION	ACCESS:    6570048  HIT:    3808918  MISS:    2761130  HIT %:     57.974  MISS %:     42.026  MPKI: 55.2226
L1I PREFETCH INSTRUCTION	ACCESS:     503457  HIT:     503457  MISS:          0  HIT %:        100  MISS %:          0  MPKI: 0

L1I PREFETCH  REQUESTED:    1076769  ISSUED:    1076769  USEFUL:          0  USELESS:          0
L1I USEFUL LOAD PREFETCHES:          0 PREFETCH ISSUED TO LOWER LEVEL:          0  ACCURACY: -nan
 TIMELY PREFETCHES:          0 LATE PREFETCHES: 0 DROPPED PREFETCHES: 0
L1I AVERAGE MISS LATENCY: 17.4538 cycles
L1I RQ	ACCESS:    9450770	FORWARD:          0	MERGED:    2633954	TO_CACHE:    6816816
L1I PQ	ACCESS:    1076769	FORWARD:          0	MERGED:     304557	TO_CACHE:     772212

L1BTB TOTAL     ACCESS:    5672464  HIT:    2046583  MISS:    3625881  HIT %:    36.0793  MISS %:    63.9207   MPKI: 72.5176
L1BTB BRANCH_DIRECT_JUMP	ACCESS:     548976  HIT:     145259  MISS:     403717	AVERAGE STALL: 37.0449
L1BTB BRANCH_INDIRECT	ACCESS:     183386  HIT:      66226  MISS:     117160	AVERAGE STALL: 79.6487
L1BTB BRANCH_CONDITIONAL	ACCESS:    2711880  HIT:    1419767  MISS:    1292113	AVERAGE STALL: 36.6826
L1BTB BRANCH_DIRECT_CALL	ACCESS:     943067  HIT:     104845  MISS:     838222	AVERAGE STALL: 36.6357
L1BTB BRANCH_INDIRECT_CALL	ACCESS:     171046  HIT:      20768  MISS:     150278	AVERAGE STALL: 106.075
L1BTB BRANCH_RETURN	ACCESS:    1114109  HIT:     289718  MISS:     824391	AVERAGE STALL: 36.3294
L1BTB BRANCH_OTHER ACCESS:          0  HIT:          0  MISS:          0	AVERAGE STALL: -nan
L1BTB TOTAL ROB OCCUPANCY AT BTB MISS: 12.6668

L2BTB TOTAL     ACCESS:    3600410  HIT:    3134621  MISS:     465789  HIT %:    87.0629  MISS %:    12.9371   MPKI: 9.31578
L2BTB BRANCH_DIRECT_JUMP	ACCESS:     399525  HIT:     353383  MISS:      46142	AVERAGE STALL: 37.0449
L2BTB BRANCH_INDIRECT	ACCESS:     106857  HIT:      99375  MISS:       7482	AVERAGE STALL: 79.6487
L2BTB BRANCH_CONDITIONAL	ACCESS:    1292113  HIT:    1142008  MISS:     150105	AVERAGE STALL: 36.6826
L2BTB BRANCH_DIRECT_CALL	ACCESS:     838222  HIT:     699684  MISS:     138538	AVERAGE STALL: 36.6357
L2BTB BRANCH_INDIRECT_CALL	ACCESS:     140702  HIT:     111591  MISS:      29111	AVERAGE STALL: 106.075
L2BTB BRANCH_RETURN	ACCESS:     822991  HIT:     728580  MISS:      94411	AVERAGE STALL: 36.3294
L2BTB BRANCH_OTHER ACCESS:          0  HIT:          0  MISS:          0	AVERAGE STALL: -nan
L2BTB TOTAL ROB OCCUPANCY AT BTB MISS: 98.6032

L2C TOTAL     ACCESS:    4480093  HIT:    3980467  MISS:     499626  HIT %:    88.8479  MISS %:    11.1521   MPKI: 9.99252
L2C LOAD INSTRUCTION	ACCESS:    2761131  HIT:    2475593  MISS:     285538  HIT %:    89.6587  MISS %:    10.3413  MPKI: 5.71076
L2C LOAD TRANSLATION INSTRUCTION	ACCESS:        245  HIT:         65  MISS:        180  HIT %:    26.5306  MISS %:    73.4694  MPKI: 0.0036
L2C LOAD DATA	ACCESS:     725740  HIT:     652339  MISS:      73401  HIT %:     89.886  MISS %:     10.114  MPKI: 1.46802
L2C RFO DATA	ACCESS:     285667  HIT:     231549  MISS:      54118  HIT %:    81.0556  MISS %:    18.9444  MPKI: 1.08236
L2C PREFETCH DATA	ACCESS:     185220  HIT:     114928  MISS:      70292  HIT %:    62.0495  MISS %:    37.9505  MPKI: 1.40584
L2C WRITEBACK DATA	ACCESS:     520226  HIT:     505478  MISS:      14748  HIT %:    97.1651  MISS %:    2.83492  MPKI: 0.29496
L2C LOAD TRANSLATION DATA	ACCESS:       1799  HIT:        468  MISS:       1331  HIT %:    26.0145  MISS %:    73.9855  MPKI: 0.02662
L2C TRANSLATION FROM L1D PREFETCHER DATA	ACCESS:         65  HIT:         47  MISS:         18  HIT %:    72.3077  MISS %:    27.6923  MPKI: 0.00036

L2C PREFETCH  REQUESTED:      92277  ISSUED:      92277  USEFUL:       8111  USELESS:      62745
L2C USEFUL LOAD PREFETCHES:       8111 PREFETCH ISSUED TO LOWER LEVEL:      70820  ACCURACY: 11.453
 TIMELY PREFETCHES:       8111 LATE PREFETCHES: 528 DROPPED PREFETCHES: 0
L2C AVERAGE MISS LATENCY: 37.6159 cycles
L2C RQ	ACCESS:    3774716	FORWARD:          0	MERGED:          0	TO_CACHE:    3774651
L2C WQ	ACCESS:     520226	FORWARD:         65	MERGED:          0	TO_CACHE:     520226
L2C PQ	ACCESS:     193202	FORWARD:          0	MERGED:       3562	TO_CACHE:     189640

L2C Dense regions hint from L2: 0
PSCL5 TOTAL     ACCESS:       4006  HIT:       2003  MISS:       2003  HIT %:         50  MISS %:         50   MPKI: 0.04006
PSCL5 LOAD TRANSLATION INSTRUCTION	ACCESS:       3876  HIT:       1938  MISS:       1938  HIT %:         50  MISS %:         50  MPKI: 0.03876
PSCL5 TRANSLATION FROM L1D PREFETCHER INSTRUCTION	ACCESS:        130  HIT:         65  MISS:         65  HIT %:         50  MISS %:         50  MPKI: 0.0013


PSCL4 TOTAL     ACCESS:       3909  HIT:       1951  MISS:       1958  HIT %:    49.9105  MISS %:    50.0895   MPKI: 0.03916
PSCL4 LOAD TRANSLATION INSTRUCTION	ACCESS:       3464  HIT:       1887  MISS:       1577  HIT %:    54.4746  MISS %:    45.5254  MPKI: 0.03154
PSCL4 TRANSLATION FROM L1D PREFETCHER INSTRUCTION	ACCESS:        128  HIT:         64  MISS:         64  HIT %:         50  MISS %:         50  MPKI: 0.00128
PSCL4 LOAD TRANSLATION DATA	ACCESS:        317  HIT:          0  MISS:        317  HIT %:          0  MISS %:        100  MPKI: 0.00634


PSCL3 TOTAL     ACCESS:       3965  HIT:       1979  MISS:       1986  HIT %:    49.9117  MISS %:    50.0883   MPKI: 0.03972
PSCL3 LOAD TRANSLATION INSTRUCTION	ACCESS:       3492  HIT:       1915  MISS:       1577  HIT %:    54.8396  MISS %:    45.1604  MPKI: 0.03154
PSCL3 TRANSLATION FROM L1D PREFETCHER INSTRUCTION	ACCESS:        128  HIT:         64  MISS:         64  HIT %:         50  MISS %:         50  MPKI: 0.00128
PSCL3 LOAD TRANSLATION DATA	ACCESS:        345  HIT:          0  MISS:        345  HIT %:          0  MISS %:        100  MPKI: 0.0069


PSCL2 TOTAL     ACCESS:       3913  HIT:       1910  MISS:       2003  HIT %:    48.8117  MISS %:    51.1883   MPKI: 0.04006
PSCL2 LOAD TRANSLATION INSTRUCTION	ACCESS:       2062  HIT:       1845  MISS:        217  HIT %:    89.4762  MISS %:    10.5238  MPKI: 0.00434
PSCL2 TRANSLATION FROM L1D PREFETCHER INSTRUCTION	ACCESS:         65  HIT:         65  MISS:          0  HIT %:        100  MISS %:          0  MPKI: 0
PSCL2 LOAD TRANSLATION DATA	ACCESS:       1721  HIT:          0  MISS:       1721  HIT %:          0  MISS %:        100  MPKI: 0.03442
PSCL2 TRANSLATION FROM L1D PREFETCHER DATA	ACCESS:         65  HIT:          0  MISS:         65  HIT %:          0  MISS %:        100  MPKI: 0.0013


LLC TOTAL     ACCESS:     561668  HIT:     534304  MISS:      27364  HIT %:    95.1281  MISS %:    4.87192   MPKI: 0.54728
LLC LOAD INSTRUCTION	ACCESS:     285538  HIT:     284774  MISS:        764  HIT %:    99.7324  MISS %:   0.267565  MPKI: 0.01528
LLC LOAD TRANSLATION INSTRUCTION	ACCESS:        180  HIT:        158  MISS:         22  HIT %:    87.7778  MISS %:    12.2222  MPKI: 0.00044
LLC LOAD DATA	ACCESS:      72880  HIT:      69658  MISS:       3222  HIT %:     95.579  MISS %:    4.42097  MPKI: 0.06444
LLC RFO DATA	ACCESS:      54102  HIT:      40662  MISS:      13440  HIT %:     75.158  MISS %:     24.842  MPKI: 0.2688
LLC PREFETCH DATA	ACCESS:      70817  HIT:      61275  MISS:       9542  HIT %:    86.5258  MISS %:    13.4742  MPKI: 0.19084
LLC WRITEBACK DATA	ACCESS:      76802  HIT:      76517  MISS:        285  HIT %:    99.6289  MISS %:   0.371084  MPKI: 0.0057
LLC LOAD TRANSLATION DATA	ACCESS:       1331  HIT:       1243  MISS:         88  HIT %:    93.3884  MISS %:    6.61157  MPKI: 0.00176
LLC TRANSLATION FROM L1D PREFETCHER DATA	ACCESS:         18  HIT:         17  MISS:          1  HIT %:    94.4444  MISS %:    5.55556  MPKI: 2e-05

LLC AVERAGE MISS LATENCY: 154.068 cycles
LLC RQ	ACCESS:     414059	FORWARD:          0	MERGED:          0	TO_CACHE:     414050
LLC WQ	ACCESS:      76802	FORWARD:         12	MERGED:          0	TO_CACHE:      76802
LLC PQ	ACCESS:      70820	FORWARD:          0	MERGED:          0	TO_CACHE:      70817

LLC Dense regions hint to LLC: 0

RAW hits: 1735344
Loads Generated: 12634564
Loads sent to L1D: 10899221
Stores Generated: 6945327
Stores sent to L1D: 6945323
Major fault: 0 Minor fault: 2570
Allocated PAGES: 2570

stream: 
stream:times selected: 1191779
stream:pref_filled: 121148
stream:pref_useful: 23978
stream:pref_late: 6793
stream:misses: 8198
stream:misses_by_poll: 0

CS: 
CS:times selected: 178731
CS:pref_filled: 60028
CS:pref_useful: 36743
CS:pref_late: 7200
CS:misses: 15909
CS:misses_by_poll: 4

CPLX: 
CPLX:times selected: 1011977
CPLX:pref_filled: 19091
CPLX:pref_useful: 4549
CPLX:pref_late: 3024
CPLX:misses: 92864
CPLX:misses_by_poll: 2

NL_L1: 
NL:times selected: 20839
NL:pref_filled: 784
NL:pref_useful: 395
NL:pref_late: 256
NL:misses: 1797
NL:misses_by_poll: 0

total selections: 2403326
total_filled: 92663
total_useful: 33700
total_late: 18598
total_polluted: 6
total_misses_after_warmup: 767173
conflicts: 5647535

test: 117376

DRAM Statistics
 CHANNEL 0
 RQ ROW_BUFFER_HIT:      10037  ROW_BUFFER_MISS:      17037
 DBUS_CONGESTED:         12
 WQ ROW_BUFFER_HIT:       1321  ROW_BUFFER_MISS:      11871  FULL:          0

 AVG_CONGESTED_CYCLE: 5

CPU 0 Branch Prediction Accuracy: 99.821% MPKI: 0.32738 Average ROB Occupancy at Mispredict: 130.416
Branch types
NOT_BRANCH: 40853330 81.7067%
BRANCH_DIRECT_JUMP: 548976 1.09795%
BRANCH_INDIRECT: 183386 0.366772%
BRANCH_CONDITIONAL: 6185673 12.3713%
BRANCH_DIRECT_CALL: 943067 1.88613%
BRANCH_INDIRECT_CALL: 171046 0.342092%
BRANCH_RETURN: 1114109 2.22822%
BRANCH_OTHER: 0 0%

DRAM PAGES: 1048576
Allocated PAGES: 2570
Average_ROB_Occupancy: 115.246
Average_Decode_Occupancy: 13.8423
Average_FTQ_Occupancy: 6.67745
Indirect max targets: 14 Average targets: 1.15017
Branch_type:  BRANCH_DIRECT_JUMP:  Count Percentage: 3.32081 5.83787 4.10525 8.79818 2.41135 6.33571 2.15008 67.0407 
Branch_type:  BRANCH_INDIRECT:  Count Percentage: 6.15279 3.45228 8.1678 9.69318 3.33717 2.80252 3.86527 62.529 
Branch_type:  BRANCH_CONDITIONAL:  Count Percentage: 25.0011 3.37071 1.52679 4.33431 2.09338 3.67673 2.5112 57.4858 
Branch_type:  BRANCH_DIRECT_CALL:  Count Percentage: 0.390424 1.7551 0.756095 4.1871 2.53675 2.74158 3.39738 84.2356 
Branch_type:  BRANCH_INDIRECT_CALL:  Count Percentage: 9.56474 0 2.9992 0 0 2.03047 5.00949 80.3961 
Branch_type:  BRANCH_RETURN:  Count Percentage: 7.54089 1.80349 1.03903 3.70719 3.80556 3.55907 3.34849 75.1963 
Branch_type:  BRANCH_DIRECT_JUMP:  Total Count: 36441 64062 45049 96547 26461 69525 23594 735673 
Branch_type:  BRANCH_INDIRECT:  Total Count: 22556 12656 29943 35535 12234 10274 14170 229230 
Branch_type:  BRANCH_CONDITIONAL:  Total Count: 3091156 416758 188774 535898 258827 454594 310487 7107599 
Branch_type:  BRANCH_DIRECT_CALL:  Total Count: 7350 33041 14234 78825 47756 51612 63958 1585791 
Branch_type:  BRANCH_INDIRECT_CALL:  Total Count: 32701 0 10254 0 0 6942 17127 274867 
Branch_type:  BRANCH_RETURN:  Total Count: 167803 40132 23121 82494 84683 79198 74512 1673299 
Number of unique branch instructions: 9834
Upper 32 bits: 
aaaa
ffff
ffff0000
Unique upper 32 bits: 3
Unique upper 36 bits: 3
Unique upper 40 bits: 5
Unique upper 44 bits: 32
Unique upper 48 bits: 153
Variant_0 : 1188 0.290039
Variant_1 : 1148 0.280273
Variant_2 : 1003 0.244873
Variant_3 : 0 0
Offset_3 4049
Offset_4 243
Offset_5 448
Offset_6 501
Offset_7 579
Offset_8 510
Offset_9 465
Offset_10 375
Offset_11 313
Offset_12 284
Offset_13 199
Offset_14 228
Offset_15 189
Offset_16 219
Offset_17 142
Offset_18 126
Offset_19 235
Offset_20 139
Offset_21 235
Offset_22 390
Offset_23 241
Offset_24 324
Offset_25 88
Offset_47 80
decode_dispatch_called: 20331133 45.3211
Dispatch_width: 0 10340491 50.8604 23.0505
Dispatch_width: 1 547056 2.69073 1.21947
Dispatch_width: 2 644400 3.16952 1.43646
Dispatch_width: 3 445514 2.19129 0.993116
Dispatch_width: 4 1469851 7.22956 3.27651
Dispatch_width: 5 355005 1.74612 0.791358
Dispatch_width: 6 6528816 32.1124 14.5537
Empty_decode_cycles: 24529079 54.6789
ROB_full_cycles: 1973607 4.39946
Starvation_cycles_per_kilo_instr: 363.578
Starvation_cycles_per_kilo_instr_3: 345.329
Starvation_cycles_per_kilo_instr_0: 328.96
Branch_type_1  (3,1)  (4,7)  (5,36)  (6,70)  (7,114)  (8,127)  (9,124)  (10,98)  (11,70)  (12,51)  (13,5)  (14,2)  (15,3)  (16,4)  (18,1)  (19,4)  (20,2)  (21,1)  (22,3)  (23,2)  (24,10)  (25,12) 
Branch_type_2  (3,1)  (5,1)  (8,3)  (9,3)  (12,1)  (13,1)  (14,1)  (16,3)  (17,2)  (20,2)  (21,2)  (23,5)  (24,1)  (47,36) 
Branch_type_3  (3,4047)  (4,236)  (5,407)  (6,415)  (7,434)  (8,319)  (9,255)  (10,150)  (11,128)  (12,59)  (13,4) 
Branch_type_4  (6,4)  (7,8)  (8,26)  (9,51)  (10,60)  (11,59)  (12,95)  (13,86)  (14,101)  (15,89)  (16,98)  (17,63)  (18,57)  (19,114)  (20,72)  (21,124)  (22,207)  (23,136)  (24,186)  (25,72) 
Branch_type_5  (8,2)  (9,1)  (10,3)  (11,5)  (12,3)  (13,14)  (14,16)  (15,11)  (16,20)  (17,11)  (18,16)  (19,12)  (20,10)  (21,13)  (22,42)  (23,26)  (24,36) 
Branch_type_6  (5,4)  (6,12)  (7,23)  (8,33)  (9,31)  (10,64)  (11,51)  (12,75)  (13,89)  (14,108)  (15,86)  (16,94)  (17,66)  (18,52)  (19,105)  (20,53)  (21,95)  (22,138)  (23,72)  (24,91)  (25,4)  (47,44) 
Unique trigger count: 
Variant_0_evicts_0 : 0
Variant_0_evicts_1 : 0
Variant_0_evicts_2 : 0
Variant_0_evicts_3 : 0
Variant_1_evicts_0 : 0
Variant_1_evicts_1 : 0
Variant_1_evicts_2 : 0
Variant_1_evicts_3 : 0
Variant_2_evicts_0 : 0
Variant_2_evicts_1 : 0
Variant_2_evicts_2 : 0
Variant_2_evicts_3 : 0
Variant_3_evicts_0 : 0
Variant_3_evicts_1 : 0
Variant_3_evicts_2 : 0
Variant_3_evicts_3 : 0
BTB PER SET UNIQUE ADDR: 4 7 6 4 3 3 6 9 10 2 5 2 8 5 3 4 6 4 8 8 5 8 6 8 8 11 1 7 6 5 9 9 6 4 7 4 4 6 6 3 7 5 5 10 9 6 5 11 11 6 5 3 12 2 2 7 5 5 8 8 4 10 4 8 5 10 7 7 5 6 6 2 6 4 6 7 6 14 6 4 8 7 7 6 7 8 7 8 8 11 10 8 9 6 7 4 11 7 4 5 7 5 9 9 5 8 6 8 7 5 6 4 4 8 5 11 3 8 6 2 7 8 4 2 6 4 4 6 10 7 10 3 11 5 8 5 5 2 6 7 7 7 6 7 3 10 3 8 10 6 6 11 6 10 5 8 6 8 7 9 10 6 9 5 10 5 3 4 12 4 4 3 7 6 3 2 5 5 9 4 6 5 8 6 6 11 5 5 6 8 5 7 6 6 6 10 10 3 9 6 4 6 8 3 8 4 6 7 6 2 3 6 9 9 6 6 4 9 7 6 6 2 6 6 6 8 12 7 2 9 12 8 4 3 6 8 9 6 3 4 4 3 9 7 14 10 1 5 5 5 9 10 6 6 5 11 4 6 9 5 8 5 7 4 9 14 5 4 7 5 7 6 4 8 9 7 6 3 3 8 7 4 9 5 9 8 6 7 7 4 5 7 4 11 6 3 5 10 5 6 6 6 4 4 7 4 6 4 10 9 5 3 8 3 6 4 9 13 6 2 6 11 5 8 5 5 5 9 3 0 7 2 5 7 9 5 6 8 7 1 6 6 2 8 6 6 3 7 9 4 4 10 9 6 8 7 7 2 7 5 6 10 6 8 10 8 4 3 4 5 7 4 7 5 7 4 11 6 5 10 10 7 7 13 6 4 8 5 5 3 9 6 8 4 7 4 5 7 2 7 6 4 6 6 5 6 7 4 4 3 4 4 9 4 2 5 8 4 2 6 2 5 5 7 10 6 4 2 4 8 3 4 14 5 8 10 6 6 6 4 4 6 8 3 6 8 4 6 5 4 6 3 4 1 9 3 3 7 9 5 5 4 6 11 6 5 11 4 5 7 2 6 8 8 5 3 9 5 2 3 5 2 3 4 3 7 8 3 6 2 10 4 5 8 1 10 4 7 5 4 11 3 4 4 2 5 5 3 2 6 8 3 5 9 3 3 2 10 5 8 6 4 7 4 11 8 4 8 9 7 4 6 4 7 4 7 4 1 6 4 4 8 9 3 8 5 9 13 12 11 5 8 7 6 2 6 8 3 5 3 10 4 8 4 5 5 9 8 9 7 7 4 9 11 6 7 7 11 3 9 12 5 1 6 4 3 3 13 6 5 7 7 2 5 4 5 6 5 4 4 8 5 9 9 7 5 5 9 6 5 8 6 6 6 7 4 7 5 5 7 7 7 9 4 5 9 7 8 4 6 8 7 6 6 6 5 5 4 5 3 10 8 4 5 2 3 6 7 8 6 7 4 10 3 5 2 9 5 6 8 11 3 6 11 7 7 7 5 5 9 7 6 6 6 11 8 6 6 8 5 7 10 7 5 8 8 6 8 7 6 3 7 3 4 5 6 10 7 7 6 3 10 4 5 6 9 4 4 5 5 7 6 6 6 5 7 10 6 1 8 4 3 5 3 4 1 4 9 2 11 7 10 6 3 6 7 6 3 6 4 4 8 5 10 4 3 5 3 5 6 6 3 5 6 2 5 4 10 9 4 4 6 6 7 7 6 14 6 5 4 9 7 0 5 7 5 5 10 3 3 7 5 4 6 10 9 9 6 2 8 3 9 4 6 6 12 11 4 5 5 12 4 8 3 8 6 7 8 4 5 3 5 6 3 4 7 1 5 5 10 6 4 9 4 5 4 5 3 7 6 7 3 7 4 10 5 4 4 6 3 5 3 5 5 4 7 8 5 5 4 8 7 6 8 5 9 7 4 7 5 6 7 4 4 12 5 4 8 9 8 4 6 6 9 7 2 2 5 7 4 3 6 5 5 9 5 7 4 4 8 8 4 4 6 5 3 8 10 4 3 12 7 4 5 9 6 5 11 6 7 9 6 4 3 2 7 5 3 7 6 8 5 9 6 8 8 5 4 5 10 5 4 10 10 5 8 10 10 2 9 7 8 4 4 6 7 9 7 7 3 9 1 13 8 3 6 9 11 6 9 5 7 10 5 3 8 10 8 8 4 2 6 3 9 11 6 7 5 4 7 11 6 4 6 5 6 4 3 8 6 8 7 6 11 5 9 7 11 5 6 3 4 6 4 6 6 7 4 5 5 8 3 8 6 10 4 9 4 3 6 10 6 12 5 
BTB PER SET COUNT: 4 1498 6 5 3 3 6 1999 7297 5 7 1935 1501 9 4 4 1251 4 39 2466 5 10 7 1518 5863 1504 1 9 1469 5 3930 386 2927 5 10 6 2932 6 17 3 26 5 8 2274 5368 11 5 5015 2992 6 5 3 12330 2 2 1498 8 5 15 126 4 3116 4 9 5 640 2116 31 5 6 1273 2 10 4 998 11 503 7175 1012 4 1111 1000 1484 761 875 12 10 16 3980 1959 1511 491 1997 6 9 4 766 9 4 5 7 5 10 1705 5 9 1495 3657 2487 5 1989 7 4 10 9 7177 4 10 6 2 7 26 6 2 1703 5 5 19 7672 1992 1523 3 3384 7 3491 6 6 2 6 8 7 15 7 7 3 1963 3 8 10 2489 8 5505 9 9284 5 11 8 1997 1159 1007 4967 24 1971 944 33 2907 3 4 5370 999 4 3 11 112 3 2 5 502 1972 4 6 5 1003 6 6 8765 5 7 2905 8 6 14 7 1991 1494 26 1945 4 16 6 4 13 11 6 12 4 6 2964 7 2 3 7 271 4896 6 6 5 13 7 6 7 2 8 6 6 12 6379 1983 2 2939 8128 9 4 5 15 3867 3487 6 3 4 5 3 5889 7 2674 11 1 5 5 5 11 3170 8 6 6 4616 5 6 1500 5 2425 6 7 7 2628 8598 973 6 2493 5 1992 8 4 8 15 765 6 3 3 2493 11 996 11 5 3689 1497 6 967 8 4 5 3402 997 3987 2983 1001 11 4162 5 6 6 6 4 4 7 4 11 4 4773 9 5 3 1015 3 6 7 15 2264 1521 2 12 20 5 9 36 9 5 1523 4 0 3464 2 5 10 1944 8 2488 14 16 1 8 6 2 2862 1000 1027 3 7 554 5 4 1034 9 1939 1495 17 9 3 5089 34 6 961 10 2999 2357 10 5 3 6 9 10 6 9 8 10 4 7390 7 5 904 3487 2984 7 8360 7 4 37 5 5 3 2494 10 3979 5 1497 6 1469 17 2 10 9 4 1494 8 777 9 2934 4 4 2303 4 4 3458 8 968 5 219 4 2 1510 3 998 5 22 56 6 5 2 4 11 151 6 5763 5 11 19 9 6 1993 6 5 10 9 4 9 1010 4 972 5 4 10 3 5 1 245 4 3 9 671 6 999 5 10 26 28 5 3740 4 6 13 2 20 4772 1499 261 3 25552 6 2 3 7 2 3 500 5 9 1526 379 6 2 20 4 5 12 1 7470 4 8 6 4 29 12 4 4 2 5 5 3 2 11 18 4 5 24 4 3 2 9698 5 1002 6 1468 17 463 39 3925 4 8 23 10 4 6 4 10 4 1001 5 1 8 4 7 1496 26 6 1943 5 20 55 3004 8367 10 1043 10 6 3 10 1690 4 5 3 7960 1939 2504 4 5 5 43 12 12 1021 946 4 1501 4990 1496 2484 14 3983 3 4847 9220 352 1 999 1467 3 5 7352 11 7 9 11 2 1940 970 5 6 5 5 6 20 8 7051 774 2932 2987 5 1498 6 5 3979 11 11 6 12 4 1939 8 5 8 7 1788 1878 5 1470 19 7 2507 9 2769 505 1470 7 13 6 14 7 4 5 3 7825 29 4 6 2 4 7 9 1262 8 13 4 10257 3 7 2 15 5 1499 3978 7893 7 15 7548 9 1501 2952 1000 24 55 1939 6 6 998 6464 3548 506 9 2439 5 2986 7420 7 999 20997 1009 23 4944 1472 6 3 2272 3 4 5 6 8452 11 12 40 3 2990 6 5 142 3983 5 2434 6 1468 242 6 15 1000 999 9 1490 793 1 16 4 3 5 3 1937 1 997 1638 2 9566 1940 1973 1940 3 7 7 6 3 18 4 6 9 5 9981 4 3 503 3 8 1000 9 3 5 796 2 5 4 14 6358 1936 4 6 974 763 3878 6 6106 7 5 4 16 22 0 161 17 1468 10 3394 3 3 2487 20 4 3405 1502 114 9 12 450 1006 3 1864 4 6 216 4604 1440 4 5 5 2730 7 387 996 2018 2931 8 11 4 8 3 6 8 473 6 12 3 5 7 5028 9 4 3408 382 1493 6 1934 3 2489 116 1536 3 510 4 8093 997 997 4 6 3 402 3 5 1470 4 10 3898 5 6 5 3481 1771 7 13 7 11673 7 4 7 10 20 10 5 4 7189 971 4 2491 1995 13 4 9 6 37 12 2 3 5 9 4 4 6 5 7 15 6 1498 4 4 1830 12 4 5 1585 5 4 27 3245 6 3 5322 2671 145 57 2591 7 5 3426 6 11 1157 9 6 3 2 7 5 996 3426 2281 15 8 3903 6 40 317 6 5 5 2946 8 504 3568 1427 5 8 3479 1932 3 3488 7 946 4 971 8 7 13 259 7 3 3524 1 8315 13 4 9 1520 11271 13 2986 5 506 8290 7 4 1045 40 14 8 4 2 6 3 3306 5956 8 973 5 9 7 1518 11 502 6 5 8 4 3 10 8 1498 1003 8 2668 6 1512 7 5733 8 7 3 4 9 4 7 7 1495 4 5 5 6825 3 7115 373 3048 5 2232 4 3 6 3726 8 4334 9 
To predecode: 0
Predecoding something: 0
Predecode request dropped: 0
sizeofblock_0 0
sizeofblock_1 263393
sizeofblock_2 192732
sizeofblock_3 133918
sizeofblock_4 72496
sizeofblock_5 0
sizeofblock_6 0
sizeofblock_7 0
sizeofblock_8 0
Variant_0 Correct: 0 Incorrect: 0 Accuracy: -nan
Variant_1 Correct: 0 Incorrect: 0 Accuracy: -nan
Variant_2 Correct: 0 Incorrect: 0 Accuracy: -nan
Variant_3 Correct: 0 Incorrect: 0 Accuracy: -nan
