
*** ChampSim Multicore Out-of-Order Simulator ***

Warmup Instructions: 50000000
Simulation Instructions: 50000000
Number of CPUs: 1
LLC sets: 2048
LLC ways: 16
Off-chip DRAM Size: 4096 MB Channels: 1 Width: 64-bit Data Rate: 6400 MT/s
CPU 0 runs ./micro_traces/srv178.trace.gz
.gz
ITLB has LRU replacement policy
DTLB has LRU replacement policy
STLB has LRU replacement policy
FDIP Prefetcher at L1I
L1I has LRU replacement policy
L1D has LRU replacement policy
Initialize SRRIP state for L2C
Initialize DRRIP state for LLC
Heartbeat_Variant_0 : 1358 0.331543 per_variant_size: 0 1358 0 0 0 0 0 0 0 
Heartbeat_Variant_1 : 2608 0.636719 per_variant_size: 0 492 2116 0 0 0 0 0 0 
Heartbeat_Variant_2 : 0 0 per_variant_size: 0 0 0 0 0 0 0 0 0 
Heartbeat_Variant_3 : 0 0 per_variant_size: 0 0 0 0 0 0 0 0 0 
Heartbeat_Variant_0_evicts 0 : 5921 1 : 739 2 : 0 3 : 0 
Heartbeat_Variant_1_evicts 0 : 698 1 : 0 2 : 0 3 : 0 
Heartbeat_Variant_2_evicts 0 : 0 1 : 0 2 : 0 3 : 0 
Heartbeat_Variant_3_evicts 0 : 0 1 : 0 2 : 0 3 : 0 
Heartbeat CPU 0 instructions: 10000003 cycles: 2797689 heartbeat IPC: 3.57438 cumulative IPC: 3.57438 (Simulation time: 0 hr 1 min 40 sec) 
Heartbeat_Variant_0 : 1372 0.334961 per_variant_size: 0 1372 0 0 0 0 0 0 0 
Heartbeat_Variant_1 : 2646 0.645996 per_variant_size: 0 467 2179 0 0 0 0 0 0 
Heartbeat_Variant_2 : 0 0 per_variant_size: 0 0 0 0 0 0 0 0 0 
Heartbeat_Variant_3 : 0 0 per_variant_size: 0 0 0 0 0 0 0 0 0 
Heartbeat_Variant_0_evicts 0 : 5728 1 : 384 2 : 0 3 : 0 
Heartbeat_Variant_1_evicts 0 : 384 1 : 0 2 : 0 3 : 0 
Heartbeat_Variant_2_evicts 0 : 0 1 : 0 2 : 0 3 : 0 
Heartbeat_Variant_3_evicts 0 : 0 1 : 0 2 : 0 3 : 0 
Heartbeat CPU 0 instructions: 20000001 cycles: 5593422 heartbeat IPC: 3.57688 cumulative IPC: 3.57563 (Simulation time: 0 hr 3 min 20 sec) 
Heartbeat_Variant_0 : 1373 0.335205 per_variant_size: 0 1373 0 0 0 0 0 0 0 
Heartbeat_Variant_1 : 2655 0.648193 per_variant_size: 0 476 2179 0 0 0 0 0 0 
Heartbeat_Variant_2 : 0 0 per_variant_size: 0 0 0 0 0 0 0 0 0 
Heartbeat_Variant_3 : 0 0 per_variant_size: 0 0 0 0 0 0 0 0 0 
Heartbeat_Variant_0_evicts 0 : 5675 1 : 180 2 : 0 3 : 0 
Heartbeat_Variant_1_evicts 0 : 181 1 : 0 2 : 0 3 : 0 
Heartbeat_Variant_2_evicts 0 : 0 1 : 0 2 : 0 3 : 0 
Heartbeat_Variant_3_evicts 0 : 0 1 : 0 2 : 0 3 : 0 
Heartbeat CPU 0 instructions: 30000000 cycles: 8389792 heartbeat IPC: 3.57606 cumulative IPC: 3.57577 (Simulation time: 0 hr 5 min 0 sec) 
Heartbeat_Variant_0 : 1383 0.337646 per_variant_size: 0 1383 0 0 0 0 0 0 0 
Heartbeat_Variant_1 : 2655 0.648193 per_variant_size: 0 460 2195 0 0 0 0 0 0 
Heartbeat_Variant_2 : 0 0 per_variant_size: 0 0 0 0 0 0 0 0 0 
Heartbeat_Variant_3 : 0 0 per_variant_size: 0 0 0 0 0 0 0 0 0 
Heartbeat_Variant_0_evicts 0 : 5645 1 : 125 2 : 0 3 : 0 
Heartbeat_Variant_1_evicts 0 : 118 1 : 0 2 : 0 3 : 0 
Heartbeat_Variant_2_evicts 0 : 0 1 : 0 2 : 0 3 : 0 
Heartbeat_Variant_3_evicts 0 : 0 1 : 0 2 : 0 3 : 0 
Heartbeat CPU 0 instructions: 40000003 cycles: 11187626 heartbeat IPC: 3.57419 cumulative IPC: 3.57538 (Simulation time: 0 hr 6 min 41 sec) 
Heartbeat_Variant_0 : 1381 0.337158 per_variant_size: 0 1381 0 0 0 0 0 0 0 
Heartbeat_Variant_1 : 2663 0.650146 per_variant_size: 0 481 2182 0 0 0 0 0 0 
Heartbeat_Variant_2 : 0 0 per_variant_size: 0 0 0 0 0 0 0 0 0 
Heartbeat_Variant_3 : 0 0 per_variant_size: 0 0 0 0 0 0 0 0 0 
Heartbeat_Variant_0_evicts 0 : 5751 1 : 90 2 : 0 3 : 0 
Heartbeat_Variant_1_evicts 0 : 92 1 : 0 2 : 0 3 : 0 
Heartbeat_Variant_2_evicts 0 : 0 1 : 0 2 : 0 3 : 0 
Heartbeat_Variant_3_evicts 0 : 0 1 : 0 2 : 0 3 : 0 
Heartbeat CPU 0 instructions: 50000000 cycles: 13984121 heartbeat IPC: 3.5759 cumulative IPC: 3.57548 (Simulation time: 0 hr 8 min 17 sec) 

Warmup complete CPU 0 instructions: 50000004 cycles: 13984122 (Simulation time: 0 hr 8 min 17 sec) 

Cycle: 20000000 FTQ IN: 58137552 FTQ occupancy: 20.287 DECODE IN: 58137552 DECODE occupancy: 52.6654 ROB IN: 58137552 ROB occupancy: 315.557 ROB OUT: 58137532
Heartbeat_Variant_0 : 1393 0.340088 per_variant_size: 0 1393 0 0 0 0 0 0 0 
Heartbeat_Variant_1 : 2675 0.653076 per_variant_size: 0 427 2248 0 0 0 0 0 0 
Heartbeat_Variant_2 : 0 0 per_variant_size: 0 0 0 0 0 0 0 0 0 
Heartbeat_Variant_3 : 0 0 per_variant_size: 0 0 0 0 0 0 0 0 0 
Heartbeat_Variant_0_evicts 0 : 5868 1 : 688 2 : 0 3 : 0 
Heartbeat_Variant_1_evicts 0 : 682 1 : 0 2 : 0 3 : 0 
Heartbeat_Variant_2_evicts 0 : 0 1 : 0 2 : 0 3 : 0 
Heartbeat_Variant_3_evicts 0 : 0 1 : 0 2 : 0 3 : 0 
Heartbeat CPU 0 instructions: 60000000 cycles: 21327290 heartbeat IPC: 1.36181 cumulative IPC: 1.36181 (Simulation time: 0 hr 10 min 11 sec) 
Heartbeat_Variant_0 : 1393 0.340088 per_variant_size: 0 1393 0 0 0 0 0 0 0 
Heartbeat_Variant_1 : 2675 0.653076 per_variant_size: 0 431 2244 0 0 0 0 0 0 
Heartbeat_Variant_2 : 0 0 per_variant_size: 0 0 0 0 0 0 0 0 0 
Heartbeat_Variant_3 : 0 0 per_variant_size: 0 0 0 0 0 0 0 0 0 
Heartbeat_Variant_0_evicts 0 : 5646 1 : 3 2 : 0 3 : 0 
Heartbeat_Variant_1_evicts 0 : 3 1 : 0 2 : 0 3 : 0 
Heartbeat_Variant_2_evicts 0 : 0 1 : 0 2 : 0 3 : 0 
Heartbeat_Variant_3_evicts 0 : 0 1 : 0 2 : 0 3 : 0 
Heartbeat CPU 0 instructions: 70000003 cycles: 28421040 heartbeat IPC: 1.40969 cumulative IPC: 1.38534 (Simulation time: 0 hr 12 min 6 sec) 
Cycle: 30000000 FTQ IN: 14075432 FTQ occupancy: 14.6852 DECODE IN: 14075323 DECODE occupancy: 37.9492 ROB IN: 14075263 ROB occupancy: 252.15 ROB OUT: 14074935
Heartbeat_Variant_0 : 1390 0.339355 per_variant_size: 0 1390 0 0 0 0 0 0 0 
Heartbeat_Variant_1 : 2684 0.655273 per_variant_size: 0 432 2252 0 0 0 0 0 0 
Heartbeat_Variant_2 : 0 0 per_variant_size: 0 0 0 0 0 0 0 0 0 
Heartbeat_Variant_3 : 0 0 per_variant_size: 0 0 0 0 0 0 0 0 0 
Heartbeat_Variant_0_evicts 0 : 5814 1 : 456 2 : 0 3 : 0 
Heartbeat_Variant_1_evicts 0 : 460 1 : 0 2 : 0 3 : 0 
Heartbeat_Variant_2_evicts 0 : 0 1 : 0 2 : 0 3 : 0 
Heartbeat_Variant_3_evicts 0 : 0 1 : 0 2 : 0 3 : 0 
Heartbeat CPU 0 instructions: 80000001 cycles: 35652767 heartbeat IPC: 1.3828 cumulative IPC: 1.38449 (Simulation time: 0 hr 14 min 3 sec) 
Cycle: 40000000 FTQ IN: 13907272 FTQ occupancy: 14.5816 DECODE IN: 13907381 DECODE occupancy: 37.3895 ROB IN: 13907441 ROB occupancy: 247.376 ROB OUT: 13907675
Heartbeat_Variant_0 : 1388 0.338867 per_variant_size: 0 1388 0 0 0 0 0 0 0 
Heartbeat_Variant_1 : 2686 0.655762 per_variant_size: 0 437 2249 0 0 0 0 0 0 
Heartbeat_Variant_2 : 0 0 per_variant_size: 0 0 0 0 0 0 0 0 0 
Heartbeat_Variant_3 : 0 0 per_variant_size: 0 0 0 0 0 0 0 0 0 
Heartbeat_Variant_0_evicts 0 : 5670 1 : 49 2 : 0 3 : 0 
Heartbeat_Variant_1_evicts 0 : 51 1 : 0 2 : 0 3 : 0 
Heartbeat_Variant_2_evicts 0 : 0 1 : 0 2 : 0 3 : 0 
Heartbeat_Variant_3_evicts 0 : 0 1 : 0 2 : 0 3 : 0 
Heartbeat CPU 0 instructions: 90000000 cycles: 42748465 heartbeat IPC: 1.4093 cumulative IPC: 1.39061 (Simulation time: 0 hr 15 min 57 sec) 
Heartbeat_Variant_0 : 1389 0.339111 per_variant_size: 0 1389 0 0 0 0 0 0 0 
Heartbeat_Variant_1 : 2690 0.656738 per_variant_size: 0 435 2255 0 0 0 0 0 0 
Heartbeat_Variant_2 : 0 0 per_variant_size: 0 0 0 0 0 0 0 0 0 
Heartbeat_Variant_3 : 0 0 per_variant_size: 0 0 0 0 0 0 0 0 0 
Heartbeat_Variant_0_evicts 0 : 5749 1 : 372 2 : 0 3 : 0 
Heartbeat_Variant_1_evicts 0 : 373 1 : 0 2 : 0 3 : 0 
Heartbeat_Variant_2_evicts 0 : 0 1 : 0 2 : 0 3 : 0 
Heartbeat_Variant_3_evicts 0 : 0 1 : 0 2 : 0 3 : 0 
Heartbeat CPU 0 instructions: 100000000 cycles: 49986019 heartbeat IPC: 1.38168 cumulative IPC: 1.38882 (Simulation time: 0 hr 17 min 50 sec) 
Finished CPU 0 instructions: 50000000 cycles: 36001898 cumulative IPC: 1.38882 (Simulation time: 0 hr 17 min 50 sec) 

ChampSim completed all CPUs

Region of Interest Statistics

CPU 0 cumulative IPC: 1.38882 instructions: 50000000 cycles: 36001898
 Fetch stage stalled: 46.7304  Sim cycles: 36001898 fetch stall cycle: 16823828
 Empty decode stage: 26.3875  Sim cycles: 36001898 fetch stall cycle: 9499993
ITLB TOTAL     ACCESS:    5832874  HIT:    5337206  MISS:     495668  HIT %:    91.5022  MISS %:    8.49783   MPKI: 9.91336
ITLB LOAD TRANSLATION INSTRUCTION	ACCESS:    5694226  HIT:    5198558  MISS:     495668  HIT %:    91.2953  MISS %:    8.70475  MPKI: 9.91336
ITLB TRANSLATION FROM L1D PREFETCHER INSTRUCTION	ACCESS:     138648  HIT:     138648  MISS:          0  HIT %:        100  MISS %:          0  MPKI: 0

ITLB AVERAGE MISS LATENCY: 9.08469 cycles
ITLB RQ	ACCESS:    7929761	FORWARD:          0	MERGED:    1609837	TO_CACHE:    6319924

DTLB TOTAL     ACCESS:    8962715  HIT:    8487620  MISS:     475095  HIT %:    94.6992  MISS %:    5.30079   MPKI: 9.5019
DTLB LOAD TRANSLATION DATA	ACCESS:    8962715  HIT:    8487620  MISS:     475095  HIT %:    94.6992  MISS %:    5.30079  MPKI: 9.5019

DTLB AVERAGE MISS LATENCY: 9.36918 cycles
DTLB RQ	ACCESS:   13339876	FORWARD:          0	MERGED:    4340476	TO_CACHE:    8999400

STLB TOTAL     ACCESS:    1217269  HIT:    1214661  MISS:       2608  HIT %:    99.7857  MISS %:    0.21425   MPKI: 0.05216
STLB LOAD TRANSLATION INSTRUCTION	ACCESS:     495668  HIT:     495117  MISS:        551  HIT %:    99.8888  MISS %:   0.111163  MPKI: 0.01102
STLB LOAD TRANSLATION DATA	ACCESS:     475094  HIT:     473065  MISS:       2029  HIT %:    99.5729  MISS %:   0.427073  MPKI: 0.04058
STLB TRANSLATION FROM L1D PREFETCHER DATA	ACCESS:     246507  HIT:     246479  MISS:         28  HIT %:    99.9886  MISS %:  0.0113587  MPKI: 0.00056

STLB AVERAGE MISS LATENCY: 71.5736 cycles
STLB RQ	ACCESS:    1335052	FORWARD:          0	MERGED:     117742	TO_CACHE:    1217310

STLB Hit, L1D data hit: 0
STLB Hit, L2C data hit: 0
STLB Hit, LLC data hit: 0
STLB Hit, LLC data miss: 0
STLB STLB hints to L2: 0
L1D TOTAL     ACCESS:   13081819  HIT:   11963830  MISS:    1117989  HIT %:    91.4539  MISS %:    8.54613   MPKI: 22.3598
L1D LOAD DATA	ACCESS:    6543190  HIT:    5807435  MISS:     735755  HIT %:    88.7554  MISS %:    11.2446  MPKI: 14.7151
L1D RFO DATA	ACCESS:    6213011  HIT:    5924996  MISS:     288015  HIT %:    95.3643  MISS %:    4.63568  MPKI: 5.7603
L1D PREFETCH DATA	ACCESS:     325618  HIT:     231399  MISS:      94219  HIT %:    71.0646  MISS %:    28.9354  MPKI: 1.88438

L1D PREFETCH  REQUESTED:     728939  ISSUED:     728939  USEFUL:      33789  USELESS:      68043
L1D USEFUL LOAD PREFETCHES:      33789 PREFETCH ISSUED TO LOWER LEVEL:     101901  ACCURACY: 33.1587
 TIMELY PREFETCHES:      33789 LATE PREFETCHES: 7618 DROPPED PREFETCHES: 8
L1D AVERAGE MISS LATENCY: 218629 cycles
L1D RQ	ACCESS:   10697156	FORWARD:          0	MERGED:    3951103	TO_CACHE:    6579020
L1D WQ	ACCESS:    6958357	FORWARD:     167394	MERGED:     197501	TO_CACHE:    6760856
L1D PQ	ACCESS:     364650	FORWARD:          0	MERGED:          0	TO_CACHE:     364289

L1D UNIQUE REGIONS ACCESSED: 0
L1D REGIONS CONFLICTS: 0
L1D Cross Page Prefetch Requests: 5655
L1D Same Page Prefetch Requests: 743032
L1D ROI Sum of L1D PQ occupancy: 4642019
L1D PREFETCHES PUSHED FROM L2C: 0
L1I TOTAL     ACCESS:    7123744  HIT:    4353651  MISS:    2770093  HIT %:    61.1146  MISS %:    38.8854   MPKI: 55.4019
L1I LOAD INSTRUCTION	ACCESS:    6461195  HIT:    3691102  MISS:    2770093  HIT %:    57.1272  MISS %:    42.8728  MPKI: 55.4019
L1I PREFETCH INSTRUCTION	ACCESS:     662549  HIT:     662549  MISS:          0  HIT %:        100  MISS %:          0  MPKI: 0

L1I PREFETCH  REQUESTED:    1608378  ISSUED:    1608378  USEFUL:          0  USELESS:          0
L1I USEFUL LOAD PREFETCHES:          0 PREFETCH ISSUED TO LOWER LEVEL:          0  ACCURACY: -nan
 TIMELY PREFETCHES:          0 LATE PREFETCHES: 0 DROPPED PREFETCHES: 0
L1I AVERAGE MISS LATENCY: 16.7272 cycles
L1I RQ	ACCESS:    9560032	FORWARD:          0	MERGED:    2806855	TO_CACHE:    6753177
L1I PQ	ACCESS:    1608378	FORWARD:          0	MERGED:     431794	TO_CACHE:    1176584

L1BTB TOTAL     ACCESS:    5667639  HIT:    2031283  MISS:    3636356  HIT %:      35.84  MISS %:      64.16   MPKI: 72.7271
L1BTB BRANCH_DIRECT_JUMP	ACCESS:     548633 HIT:     144522 MISS:     404111 AVERAGE STALL: 52.6987 AVERAGE FETCH STALL: 15.2086 AVERAGE FETCH QUEUE STALL: 17.6331 AVERAGE DECODE STALL: 18.9307 AVERAGE EXECUTE STALL: 2.20391e+15
L1BTB BRANCH_INDIRECT	ACCESS:     182860 HIT:      65732 MISS:     117128 AVERAGE STALL: 112.053 AVERAGE FETCH STALL: 11.0188 AVERAGE FETCH QUEUE STALL: 18.0252 AVERAGE DECODE STALL: 13.4458 AVERAGE EXECUTE STALL: 68.6011
L1BTB BRANCH_CONDITIONAL	ACCESS:    2702148 HIT:    1407434 MISS:    1294714 AVERAGE STALL: 59.2735 AVERAGE FETCH STALL: 25.5735 AVERAGE FETCH QUEUE STALL: 19.2111 AVERAGE DECODE STALL: 13.9076 AVERAGE EXECUTE STALL: 2.35681e+15
L1BTB BRANCH_DIRECT_CALL	ACCESS:     945272 HIT:     104017 MISS:     841255 AVERAGE STALL: 68.3493 AVERAGE FETCH STALL: 24.0055 AVERAGE FETCH QUEUE STALL: 25.6767 AVERAGE DECODE STALL: 17.8282 AVERAGE EXECUTE STALL: 4.45036e+15
L1BTB BRANCH_INDIRECT_CALL	ACCESS:     171743 HIT:      20902 MISS:     150841 AVERAGE STALL: 142.217 AVERAGE FETCH STALL: 12.7557 AVERAGE FETCH QUEUE STALL: 17.8937 AVERAGE DECODE STALL: 12.1791 AVERAGE EXECUTE STALL: 98.8974
L1BTB BRANCH_RETURN	ACCESS:    1116983 HIT:     288676 MISS:     828307 AVERAGE STALL: 49.6946 AVERAGE FETCH STALL: 16.765 AVERAGE FETCH QUEUE STALL: 5.43744 AVERAGE DECODE STALL: 6.29657 AVERAGE EXECUTE STALL: 4.26998e+14
L1BTB BRANCH_OTHER ACCESS:          0 HIT:          0 MISS:          0 AVERAGE STALL: -nan AVERAGE FETCH STALL: -nan AVERAGE FETCH QUEUE STALL: -nan AVERAGE DECODE STALL: -nan AVERAGE EXECUTE STALL: -nan
L1BTB TOTAL ROB OCCUPANCY AT BTB MISS: 2.95217

L2BTB TOTAL     ACCESS:    3610939  HIT:    3539559  MISS:      71380  HIT %:    98.0232  MISS %:    1.97677   MPKI: 1.4276
L2BTB BRANCH_DIRECT_JUMP	ACCESS:     399954 HIT:     395707 MISS:       4247 AVERAGE STALL: 52.6987 AVERAGE FETCH STALL: 15.2086 AVERAGE FETCH QUEUE STALL: 17.6331 AVERAGE DECODE STALL: 18.9307 AVERAGE EXECUTE STALL: 2.20391e+15
L2BTB BRANCH_INDIRECT	ACCESS:     106813 HIT:     104068 MISS:       2745 AVERAGE STALL: 112.053 AVERAGE FETCH STALL: 11.0188 AVERAGE FETCH QUEUE STALL: 18.0252 AVERAGE DECODE STALL: 13.4458 AVERAGE EXECUTE STALL: 68.6011
L2BTB BRANCH_CONDITIONAL	ACCESS:    1294714 HIT:    1286759 MISS:       7955 AVERAGE STALL: 59.2735 AVERAGE FETCH STALL: 25.5735 AVERAGE FETCH QUEUE STALL: 19.2111 AVERAGE DECODE STALL: 13.9076 AVERAGE EXECUTE STALL: 2.35681e+15
L2BTB BRANCH_DIRECT_CALL	ACCESS:     841255 HIT:     837035 MISS:       4220 AVERAGE STALL: 68.3493 AVERAGE FETCH STALL: 24.0055 AVERAGE FETCH QUEUE STALL: 25.6767 AVERAGE DECODE STALL: 17.8282 AVERAGE EXECUTE STALL: 4.45036e+15
L2BTB BRANCH_INDIRECT_CALL	ACCESS:     141303 HIT:     130935 MISS:      10368 AVERAGE STALL: 142.217 AVERAGE FETCH STALL: 12.7557 AVERAGE FETCH QUEUE STALL: 17.8937 AVERAGE DECODE STALL: 12.1791 AVERAGE EXECUTE STALL: 98.8974
L2BTB BRANCH_RETURN	ACCESS:     826900 HIT:     785055 MISS:      41845 AVERAGE STALL: 49.6946 AVERAGE FETCH STALL: 16.765 AVERAGE FETCH QUEUE STALL: 5.43744 AVERAGE DECODE STALL: 6.29657 AVERAGE EXECUTE STALL: 4.26998e+14
L2BTB BRANCH_OTHER ACCESS:          0 HIT:          0 MISS:          0 AVERAGE STALL: -nan AVERAGE FETCH STALL: -nan AVERAGE FETCH QUEUE STALL: -nan AVERAGE DECODE STALL: -nan AVERAGE EXECUTE STALL: -nan
L2BTB TOTAL ROB OCCUPANCY AT BTB MISS: 150.394

L2C TOTAL     ACCESS:    4494075  HIT:    4077343  MISS:     416732  HIT %:    90.7271  MISS %:    9.27292   MPKI: 8.33464
L2C LOAD INSTRUCTION	ACCESS:    2770093  HIT:    2560582  MISS:     209511  HIT %:    92.4367  MISS %:    7.56332  MPKI: 4.19022
L2C LOAD TRANSLATION INSTRUCTION	ACCESS:        603  HIT:        244  MISS:        359  HIT %:    40.4643  MISS %:    59.5357  MPKI: 0.00718
L2C LOAD DATA	ACCESS:     728109  HIT:     656995  MISS:      71114  HIT %:    90.2331  MISS %:    9.76694  MPKI: 1.42228
L2C RFO DATA	ACCESS:     287928  HIT:     236733  MISS:      51195  HIT %:    82.2195  MISS %:    17.7805  MPKI: 1.0239
L2C PREFETCH DATA	ACCESS:     179981  HIT:     110720  MISS:      69261  HIT %:    61.5176  MISS %:    38.4824  MPKI: 1.38522
L2C WRITEBACK DATA	ACCESS:     525170  HIT:     511441  MISS:      13729  HIT %:    97.3858  MISS %:     2.6142  MPKI: 0.27458
L2C LOAD TRANSLATION DATA	ACCESS:       2143  HIT:        594  MISS:       1549  HIT %:    27.7182  MISS %:    72.2818  MPKI: 0.03098
L2C TRANSLATION FROM L1D PREFETCHER DATA	ACCESS:         48  HIT:         34  MISS:         14  HIT %:    70.8333  MISS %:    29.1667  MPKI: 0.00028

L2C PREFETCH  REQUESTED:      86246  ISSUED:      86246  USEFUL:       7805  USELESS:      61865
L2C USEFUL LOAD PREFETCHES:       7805 PREFETCH ISSUED TO LOWER LEVEL:      69638  ACCURACY: 11.208
 TIMELY PREFETCHES:       7805 LATE PREFETCHES: 377 DROPPED PREFETCHES: 0
L2C AVERAGE MISS LATENCY: 41.0786 cycles
L2C RQ	ACCESS:    3788977	FORWARD:          0	MERGED:          0	TO_CACHE:    3788926
L2C WQ	ACCESS:     525171	FORWARD:         51	MERGED:          0	TO_CACHE:     525171
L2C PQ	ACCESS:     188147	FORWARD:          0	MERGED:       3916	TO_CACHE:     184231

L2C Dense regions hint from L2: 0
PSCL5 TOTAL     ACCESS:       5238  HIT:       2619  MISS:       2619  HIT %:         50  MISS %:         50   MPKI: 0.05238
PSCL5 LOAD TRANSLATION INSTRUCTION	ACCESS:       5142  HIT:       2571  MISS:       2571  HIT %:         50  MISS %:         50  MPKI: 0.05142
PSCL5 TRANSLATION FROM L1D PREFETCHER INSTRUCTION	ACCESS:         96  HIT:         48  MISS:         48  HIT %:         50  MISS %:         50  MPKI: 0.00096


PSCL4 TOTAL     ACCESS:       3360  HIT:       1674  MISS:       1686  HIT %:    49.8214  MISS %:    50.1786   MPKI: 0.03372
PSCL4 LOAD TRANSLATION INSTRUCTION	ACCESS:       2395  HIT:       1645  MISS:        750  HIT %:    68.6848  MISS %:    31.3152  MPKI: 0.015
PSCL4 TRANSLATION FROM L1D PREFETCHER INSTRUCTION	ACCESS:         39  HIT:         29  MISS:         10  HIT %:     74.359  MISS %:     25.641  MPKI: 0.0002
PSCL4 LOAD TRANSLATION DATA	ACCESS:        907  HIT:          0  MISS:        907  HIT %:          0  MISS %:        100  MPKI: 0.01814
PSCL4 TRANSLATION FROM L1D PREFETCHER DATA	ACCESS:         19  HIT:          0  MISS:         19  HIT %:          0  MISS %:        100  MPKI: 0.00038


PSCL3 TOTAL     ACCESS:       5003  HIT:       2491  MISS:       2512  HIT %:    49.7901  MISS %:    50.2099   MPKI: 0.05024
PSCL3 LOAD TRANSLATION INSTRUCTION	ACCESS:       3447  HIT:       2456  MISS:        991  HIT %:    71.2504  MISS %:    28.7496  MPKI: 0.01982
PSCL3 TRANSLATION FROM L1D PREFETCHER INSTRUCTION	ACCESS:         41  HIT:         35  MISS:          6  HIT %:    85.3659  MISS %:    14.6341  MPKI: 0.00012
PSCL3 LOAD TRANSLATION DATA	ACCESS:       1486  HIT:          0  MISS:       1486  HIT %:          0  MISS %:        100  MPKI: 0.02972
PSCL3 TRANSLATION FROM L1D PREFETCHER DATA	ACCESS:         29  HIT:          0  MISS:         29  HIT %:          0  MISS %:        100  MPKI: 0.00058


PSCL2 TOTAL     ACCESS:       5092  HIT:       2473  MISS:       2619  HIT %:    48.5664  MISS %:    51.4336   MPKI: 0.05238
PSCL2 LOAD TRANSLATION INSTRUCTION	ACCESS:       2981  HIT:       2425  MISS:        556  HIT %:    81.3485  MISS %:    18.6515  MPKI: 0.01112
PSCL2 TRANSLATION FROM L1D PREFETCHER INSTRUCTION	ACCESS:         48  HIT:         48  MISS:          0  HIT %:        100  MISS %:          0  MPKI: 0
PSCL2 LOAD TRANSLATION DATA	ACCESS:       2015  HIT:          0  MISS:       2015  HIT %:          0  MISS %:        100  MPKI: 0.0403
PSCL2 TRANSLATION FROM L1D PREFETCHER DATA	ACCESS:         48  HIT:          0  MISS:         48  HIT %:          0  MISS %:        100  MPKI: 0.00096


LLC TOTAL     ACCESS:     476688  HIT:     445119  MISS:      31569  HIT %:    93.3774  MISS %:    6.62257   MPKI: 0.63138
LLC LOAD INSTRUCTION	ACCESS:     209511  HIT:     208303  MISS:       1208  HIT %:    99.4234  MISS %:   0.576581  MPKI: 0.02416
LLC LOAD TRANSLATION INSTRUCTION	ACCESS:        359  HIT:        307  MISS:         52  HIT %:    85.5153  MISS %:    14.4847  MPKI: 0.00104
LLC LOAD DATA	ACCESS:      70762  HIT:      67000  MISS:       3762  HIT %:    94.6836  MISS %:    5.31641  MPKI: 0.07524
LLC RFO DATA	ACCESS:      51159  HIT:      35645  MISS:      15514  HIT %:    69.6749  MISS %:    30.3251  MPKI: 0.31028
LLC PREFETCH DATA	ACCESS:      69638  HIT:      59139  MISS:      10499  HIT %:    84.9235  MISS %:    15.0765  MPKI: 0.20998
LLC WRITEBACK DATA	ACCESS:      73696  HIT:      73259  MISS:        437  HIT %:     99.407  MISS %:   0.592977  MPKI: 0.00874
LLC LOAD TRANSLATION DATA	ACCESS:       1549  HIT:       1452  MISS:         97  HIT %:    93.7379  MISS %:     6.2621  MPKI: 0.00194
LLC TRANSLATION FROM L1D PREFETCHER DATA	ACCESS:         14  HIT:         14  MISS:          0  HIT %:        100  MISS %:          0  MPKI: 0

LLC AVERAGE MISS LATENCY: 157.789 cycles
LLC RQ	ACCESS:     333366	FORWARD:          0	MERGED:          0	TO_CACHE:     333355
LLC WQ	ACCESS:      73696	FORWARD:         11	MERGED:          0	TO_CACHE:      73696
LLC PQ	ACCESS:      69638	FORWARD:          0	MERGED:          0	TO_CACHE:      69638

LLC Dense regions hint to LLC: 0

RAW hits: 1947704
Loads Generated: 12644860
Loads sent to L1D: 10697156
Stores Generated: 6958351
Stores sent to L1D: 6958357
Major fault: 0 Minor fault: 2646
Allocated PAGES: 2646

stream: 
stream:times selected: 1179128
stream:pref_filled: 121582
stream:pref_useful: 23607
stream:pref_late: 6573
stream:misses: 6679
stream:misses_by_poll: 0

CS: 
CS:times selected: 176989
CS:pref_filled: 59665
CS:pref_useful: 36054
CS:pref_late: 6555
CS:misses: 15904
CS:misses_by_poll: 6

CPLX: 
CPLX:times selected: 1001081
CPLX:pref_filled: 19138
CPLX:pref_useful: 4355
CPLX:pref_late: 2985
CPLX:misses: 90311
CPLX:misses_by_poll: 0

NL_L1: 
NL:times selected: 17998
NL:pref_filled: 571
NL:pref_useful: 218
NL:pref_late: 169
NL:misses: 914
NL:misses_by_poll: 0

total selections: 2375196
total_filled: 94219
total_useful: 33789
total_late: 17550
total_polluted: 6
total_misses_after_warmup: 771587
conflicts: 5522629

test: 115519

DRAM Statistics
 CHANNEL 0
 RQ ROW_BUFFER_HIT:      11783  ROW_BUFFER_MISS:      19346
 DBUS_CONGESTED:         12
 WQ ROW_BUFFER_HIT:       1603  ROW_BUFFER_MISS:      13183  FULL:          0

 AVG_CONGESTED_CYCLE: 5

CPU 0 Branch Prediction Accuracy: 99.8088% MPKI: 0.3495 Average ROB Occupancy at Mispredict: 188.807
Branch types
NOT_BRANCH: 40858069 81.7161%
BRANCH_DIRECT_JUMP: 548633 1.09727%
BRANCH_INDIRECT: 182860 0.36572%
BRANCH_CONDITIONAL: 6175962 12.3519%
BRANCH_DIRECT_CALL: 945272 1.89054%
BRANCH_INDIRECT_CALL: 171743 0.343486%
BRANCH_RETURN: 1116983 2.23397%
BRANCH_OTHER: 0 0%

DRAM PAGES: 1048576
Allocated PAGES: 2646
Average_ROB_Occupancy: 248.84
Average_Decode_Occupancy: 37.3017
Average_FTQ_Occupancy: 14.5375
Indirect max targets: 14 Average targets: 1.17778
Branch_type:  BRANCH_DIRECT_JUMP:  Count Percentage: 3.30499 5.44852 4.87371 7.1683 3.47564 6.01704 1.74866 67.9631 
Branch_type:  BRANCH_INDIRECT:  Count Percentage: 6.13629 3.39484 8.16914 9.6806 3.34783 2.81086 3.88344 62.577 
Branch_type:  BRANCH_CONDITIONAL:  Count Percentage: 25.0858 2.46298 2.26188 4.07741 2.33052 4.14494 2.74646 56.89 
Branch_type:  BRANCH_DIRECT_CALL:  Count Percentage: 0.388846 1.27446 0.734298 3.50994 3.15204 2.93523 3.32609 84.6791 
Branch_type:  BRANCH_INDIRECT_CALL:  Count Percentage: 9.574 0 3.0021 0.000874738 0 2.57727 5.00058 79.8452 
Branch_type:  BRANCH_RETURN:  Count Percentage: 7.90705 1.82136 1.14603 3.49522 3.99379 4.57765 3.58495 73.4739 
Branch_type:  BRANCH_DIRECT_JUMP:  Total Count: 36275 59802 53493 78678 38148 66042 19193 745951 
Branch_type:  BRANCH_INDIRECT:  Total Count: 22455 12423 29894 35425 12251 10286 14211 228993 
Branch_type:  BRANCH_CONDITIONAL:  Total Count: 3098226 304191 279354 503581 287831 511922 339202 7026213 
Branch_type:  BRANCH_DIRECT_CALL:  Total Count: 7339 24054 13859 66246 59491 55399 62776 1598218 
Branch_type:  BRANCH_INDIRECT_CALL:  Total Count: 32835 0 10296 3 0 8839 17150 273837 
Branch_type:  BRANCH_RETURN:  Total Count: 176421 40638 25570 77985 89109 102136 79987 1639341 
Number of unique branch instructions: 10788
Upper 32 bits: 
aaaa
ffff
ffff0000
Unique upper 32 bits: 3
Unique upper 36 bits: 3
Unique upper 40 bits: 5
Unique upper 44 bits: 32
Unique upper 48 bits: 158
Variant_0 : 1389 0.339111
Variant_1 : 2690 0.656738
Variant_2 : 0 0
Variant_3 : 0 0
Offset_3 4463
Offset_4 257
Offset_5 482
Offset_6 538
Offset_7 641
Offset_8 578
Offset_9 520
Offset_10 422
Offset_11 350
Offset_12 326
Offset_13 237
Offset_14 248
Offset_15 187
Offset_16 232
Offset_17 168
Offset_18 153
Offset_19 261
Offset_20 140
Offset_21 235
Offset_22 416
Offset_23 241
Offset_24 351
Offset_25 117
Offset_47 94
Offset_64 1
decode_dispatch_called: 26172932 72.6988
Dispatch_width: 0 14028567 53.5995 38.9662
Dispatch_width: 1 1031087 3.93952 2.86398
Dispatch_width: 2 855600 3.26903 2.37654
Dispatch_width: 3 503846 1.92507 1.3995
Dispatch_width: 4 6329429 24.1831 17.5808
Dispatch_width: 5 118271 0.451883 0.328513
Dispatch_width: 6 3306132 12.6319 9.18322
Empty_decode_cycles: 9828966 27.3012
ROB_full_cycles: 10014466 27.8165
Starvation_cycles_per_kilo_instr: 226.813
Starvation_cycles_per_kilo_instr_3: 162.336
Starvation_cycles_per_kilo_instr_0: 138.431
Branch_type_1  (3,1)  (4,9)  (5,39)  (6,73)  (7,126)  (8,149)  (9,136)  (10,111)  (11,79)  (12,55)  (13,11)  (14,2)  (15,3)  (16,4)  (18,1)  (19,5)  (20,2)  (21,1)  (22,3)  (23,2)  (24,10)  (25,12) 
Branch_type_2  (3,1)  (4,1)  (5,1)  (8,4)  (9,4)  (10,1)  (12,1)  (13,1)  (14,1)  (16,3)  (17,2)  (20,2)  (21,2)  (23,5)  (24,1)  (47,43) 
Branch_type_3  (3,4461)  (4,247)  (5,438)  (6,449)  (7,486)  (8,359)  (9,285)  (10,170)  (11,138)  (12,62)  (13,10)  (64,1) 
Branch_type_4  (6,3)  (7,8)  (8,25)  (9,56)  (10,67)  (11,68)  (12,116)  (13,100)  (14,112)  (15,88)  (16,102)  (17,78)  (18,67)  (19,128)  (20,71)  (21,124)  (22,221)  (23,136)  (24,206)  (25,101) 
Branch_type_5  (8,3)  (9,1)  (10,4)  (11,5)  (12,3)  (13,14)  (14,16)  (15,11)  (16,22)  (17,11)  (18,23)  (19,14)  (20,11)  (21,13)  (22,43)  (23,26)  (24,38) 
Branch_type_6  (5,4)  (6,13)  (7,21)  (8,38)  (9,38)  (10,69)  (11,60)  (12,89)  (13,101)  (14,117)  (15,85)  (16,101)  (17,77)  (18,62)  (19,114)  (20,54)  (21,95)  (22,149)  (23,72)  (24,96)  (25,4)  (47,51) 
Unique trigger count: 
Variant_0_evicts_0 : 0
Variant_0_evicts_1 : 0
Variant_0_evicts_2 : 0
Variant_0_evicts_3 : 0
Variant_1_evicts_0 : 0
Variant_1_evicts_1 : 0
Variant_1_evicts_2 : 0
Variant_1_evicts_3 : 0
Variant_2_evicts_0 : 0
Variant_2_evicts_1 : 0
Variant_2_evicts_2 : 0
Variant_2_evicts_3 : 0
Variant_3_evicts_0 : 0
Variant_3_evicts_1 : 0
Variant_3_evicts_2 : 0
Variant_3_evicts_3 : 0
BTB PER SET UNIQUE ADDR: 15 18 12 11 14 15 10 17 10 14 14 16 11 12 14 11 12 16 14 17 11 17 12 13 13 16 14 15 14 14 12 14 17 9 13 15 15 19 10 8 11 12 19 12 11 8 17 8 12 17 21 9 15 12 13 8 14 10 10 8 12 17 14 10 16 15 17 12 16 12 11 14 19 15 13 7 6 17 8 20 16 10 17 17 14 12 12 16 9 18 7 11 10 12 11 11 12 14 17 13 19 19 14 12 10 12 13 14 8 12 15 17 18 13 12 9 14 11 15 13 13 10 8 12 10 14 11 15 18 10 12 11 12 14 10 16 6 13 9 17 11 19 9 13 10 13 13 10 12 13 12 16 11 9 12 18 17 19 13 14 15 9 13 14 12 14 15 10 18 14 13 11 16 14 13 11 13 15 15 12 15 10 13 17 18 18 10 13 11 13 13 13 9 15 20 11 11 12 10 14 17 14 11 14 12 12 15 12 14 17 13 14 13 13 13 16 13 14 12 25 12 11 11 12 11 11 14 10 9 14 13 7 11 15 13 13 15 12 10 10 11 7 19 13 9 8 13 9 14 11 12 14 12 9 15 15 12 9 15 10 11 13 6 16 9 9 8 9 12 13 11 12 15 8 10 9 12 18 10 15 9 14 8 12 16 11 15 15 22 10 12 11 11 14 8 18 13 13 14 15 10 8 12 21 12 17 12 15 17 17 12 17 12 17 14 9 16 17 13 20 9 11 14 14 14 12 12 10 10 8 12 20 10 14 11 16 10 12 7 20 8 13 7 15 16 14 11 14 17 11 13 12 13 13 12 15 13 15 14 11 13 16 11 16 13 14 9 13 17 13 11 12 13 11 12 15 13 14 16 16 12 11 9 10 14 13 16 12 15 20 18 12 17 19 11 12 10 11 24 16 14 14 8 19 21 17 14 11 16 15 15 12 10 15 10 12 16 20 25 10 8 17 12 11 17 10 14 10 12 16 14 10 16 12 16 17 14 7 11 17 19 11 10 16 12 10 11 16 17 12 13 22 13 16 14 15 11 14 10 14 12 14 12 14 15 6 13 14 14 13 14 18 14 13 14 16 12 16 10 11 19 21 11 11 7 15 17 16 15 15 13 15 10 14 12 14 18 17 12 16 16 17 14 15 10 13 13 19 11 15 13 15 18 12 10 17 12 18 12 11 12 13 14 11 9 13 20 11 12 16 14 14 17 9 13 16 12 15 13 13 15 12 16 13 17 17 8 13 9 12 12 19 15 11 5 17 11 13 13 12 17 17 11 11 12 15 13 8 10 15 12 13 18 11 10 15 14 17 13 13 14 14 12 16 18 10 11 13 15 11 12 16 16 10 15 9 11 12 14 10 12 14 13 8 14 12 21 12 10 13 20 17 12 12 8 19 10 10 13 10 21 13 7 9 12 16 9 16 14 13 11 16 13 14 13 15 15 21 12 15 12 11 14 20 13 14 17 16 13 11 10 12 16 12 16 9 14 13 15 14 14 10 14 16 10 14 15 10 12 11 13 15 9 18 17 11 15 18 13 12 7 18 15 11 14 14 9 17 14 16 11 16 11 5 11 11 13 10 10 14 7 15 15 15 9 15 12 11 13 9 16 14 10 18 11 12 21 12 11 16 17 16 14 13 11 11 17 8 11 8 14 14 14 11 9 12 13 12 15 13 12 14 15 15 16 16 12 14 13 12 14 12 16 14 9 13 19 13 15 12 16 11 14 17 13 16 6 12 14 15 14 19 11 7 14 10 12 16 16 15 9 16 11 9 11 17 13 13 13 14 8 9 16 15 15 14 11 9 17 11 21 13 16 15 18 10 14 15 11 12 12 20 15 14 9 16 17 15 8 16 11 18 12 14 14 11 9 15 13 18 18 18 18 14 12 17 11 11 10 10 13 11 14 15 13 14 11 20 9 14 11 13 12 15 14 16 15 8 13 15 10 15 10 14 15 7 10 11 14 13 12 16 16 11 9 9 10 10 14 12 16 9 13 12 15 13 14 9 19 12 15 11 13 9 14 13 12 12 10 10 14 16 14 15 10 17 10 13 12 17 8 13 13 15 13 11 22 11 18 10 12 11 8 12 13 9 10 18 9 13 17 10 16 13 11 19 11 13 15 17 8 18 16 18 11 14 14 15 8 13 13 14 12 14 10 13 15 13 16 12 11 15 12 16 18 11 13 15 15 12 12 19 13 14 14 14 26 14 17 17 16 15 15 14 16 17 25 14 16 14 19 15 16 10 13 12 10 16 19 11 19 18 13 14 18 12 7 12 13 14 16 10 10 11 15 12 12 16 11 10 12 21 13 9 
BTB PER SET COUNT: 26 24 1875 15 25 22 1450 29 1395 26 23 514 19339 17 19 18 21 2233 865 24 23 166 505 70 21 26 29 19 19 20 479 23 28 11 24 235 36 37 10 13 16 18 34 121 1074 13 27 9 53 255 32 14 17 21 15 322 25 14 385 13 15 326 21 15 19 26 27 108 26 22 411 510 41 24 13 7 6 24 8 31 1001 14 218 39 21 35 17 22 28 46 8 966 15 15 18 13 969 26 37 14 28 716 27 326 1550 21 27 19 977 13 23 30 1235 21 22 123 18 22 1411 360 252 13 11 15 13 18 17 31 29 974 15 12 46 17 130 24 985 21 12 25 13 114 10 20 20 23 385 15 14 16 14 288 1043 10 13 47 30 25 25 20 23 21 995 18 15 431 26 16 22 1053 17 14 22 33 25 20 18 24 37 271 86 11 18 23 203 27 20 15 12 1008 21 18 11 26 26 18 12 18 15 189 23 22 997 20 19 21 18 33 1002 2724 20 19 19 3349 16 606 19 23 2921 47 13 19 42 13 17 24 25 17 12 20 22 9 21 21 732 1434 31 165 12 11 530 9 730 21 11 990 21 12 505 14 15 19 22 10 23 901 14 14 26 16 15 19 6 25 12 9 9 10 410 19 16 14 213 9 92 12 20 20 12 25 19 28 10 15 25 15 23 18 31 11 22 20 14 495 9 26 18 18 22 932 11 11 498 33 27 178 168 276 25 486 22 22 13 19 1041 130 21 42 17 31 13 18 23 21 780 14 19 15 11 9 15 32 49 29 13 19 11 788 7 29 11 2372 7 470 21 18 13 22 24 193 23 422 22 16 13 17 20 23 92 16 19 26 14 25 22 17 10 14 20 19 13 280 20 20 670 19 15 26 26 22 19 19 473 14 17 18 23 19 19 33 143 16 36 50 14 15 10 16 478 2041 26 22 1479 22 37 27 24 643 27 22 26 16 16 31 13 19 19 32 71 11 9 29 16 20 28 13 33 14 16 718 17 12 23 16 23 30 19 10 15 27 350 17 13 23 1798 13 13 29 22 16 48 32 19 25 495 280 12 19 14 15 20 18 13 672 22 8 11396 19 23 18 27 23 20 19 17 39 14 20 15 14 29 333 13 16 987 22 23 23 41 46 1017 21 179 19 15 54 724 25 17 29 27 17 20 33 16 19 25 28 16 24 517 59 25 242 10 27 13 28 19 17 24 16 21 735 14 17 1212 376 20 1758 18 110 23 15 14 506 17 49 15 667 20 20 40 20 30 21 11 16 13 977 15 24 1002 20 8 22 17 18 19 37 31 30 15 12 27 28 164 8 12 26 710 21 33 29 12 25 22 62 25 21 26 30 33 2315 27 15 13 21 19 11 1709 28 21 16 17 11 820 380 399 10 25 20 184 12 29 14 36 1126 12 20 39 22 28 18 10 28 11 14 14 11 37 15 14 992 15 30 13 17 15 994 16 27 32 21 15 25 23 35 14 20 19 24 16 89 1018 43 182 23 24 15 10 26 24 14 826 13 16 109 22 233 50 14 345 23 14 33 25 979 1496 14 23 26 483 25 980 17 18 33 22 20 8 33 2573 11 632 22 10 25 220 22 12 37 16 5 14 12 16 13 18 17 923 20 560 34 13 19 21 17 21 13 203 148 41 24 15 15 320 22 16 29 25 626 21 16 1484 17 28 8 12 15 21 21 23 17 16 1975 17 17 28 18 12 25 970 62 23 21 758 14 24 28 19 28 30 21 12 18 26 18 26 16 31 14 17 222 219 30 6 17 28 23 18 23 33 9 18 12 18 21 20 23 1480 24 19 9 15 59 19 23 40 36 12 989 30 24 28 22 16 17 25 370 31 26 27 168 31 12 20 23 14 15 14 7880 18 47 431 80 32 2424 8 2277 19 972 18 23 35 14 11 22 20 39 29 31 32 24 22 1506 17 996 15 14 16 48 22 23 135 15 19 29 12 29 1113 717 31 25 22 25 23 9 26 24 19 378 10 20 26 10 13 22 16 45 129 29 19 14 11 10 13 12 2604 16 19 12 164 14 85 1131 23 21 40 143 29 22 528 37 20 18 18 22 17 12 18 26 26 25 14 27 12 18 152 20 8 17 18 23 23 15 949 344 34 54 23 993 500 21 22 12 15 33 10 36 24 11 629 26 64 171 16 27 26 32 11 1242 24 34 15 596 21 22 12 21 23 17 182 3603 13 20 134 27 105 18 39 18 16 18 26 16 1393 18 52 13 15 1903 17 20 17 17 38 21 60 98 964 23 467 57 26 1041 61 1003 30 19 42 486 148 594 1484 15 14 1503 23 13 28 123 15 22 32 13 8 20 21 24 25 12 16 14 18 23 17 89 14 11 32 253 14 11 
To predecode: 0
Predecoding something: 0
Predecode request dropped: 0
sizeofblock_0 0
sizeofblock_1 50157
sizeofblock_2 93350
sizeofblock_3 0
sizeofblock_4 0
sizeofblock_5 0
sizeofblock_6 0
sizeofblock_7 0
sizeofblock_8 0
Variant_0 Correct: 1613833 Incorrect: 0 Accuracy: 1
Variant_1 Correct: 5739353 Incorrect: 0 Accuracy: 1
Variant_2 Correct: 0 Incorrect: 0 Accuracy: -nan
Variant_3 Correct: 0 Incorrect: 0 Accuracy: -nan
