
*** ChampSim Multicore Out-of-Order Simulator ***

Warmup Instructions: 50000000
Simulation Instructions: 50000000
Number of CPUs: 1
LLC sets: 2048
LLC ways: 16
Off-chip DRAM Size: 4096 MB Channels: 1 Width: 64-bit Data Rate: 6400 MT/s
CPU 0 runs ./micro_traces/srv102.trace.gz
.gz
ITLB has LRU replacement policy
DTLB has LRU replacement policy
STLB has LRU replacement policy
FDIP Prefetcher at L1I
L1I has LRU replacement policy
L1D has LRU replacement policy
Initialize SRRIP state for L2C
Initialize DRRIP state for LLC
Heartbeat_Variant_0 : 1048 0.341146 per_variant_size: 0 1048 0 0 0 0 0 0 0 
Heartbeat_Variant_1 : 989 0.32194 per_variant_size: 0 436 553 0 0 0 0 0 0 
Heartbeat_Variant_2 : 1029 0.334961 per_variant_size: 0 347 289 203 190 0 0 0 0 
Heartbeat_Variant_3 : 0 0 per_variant_size: 0 0 0 0 0 0 0 0 0 
Heartbeat_Variant_0_evicts 0 : 15670 1 : 9173 2 : 9285 3 : 0 
Heartbeat_Variant_1_evicts 0 : 9234 1 : 0 2 : 8380 3 : 0 
Heartbeat_Variant_2_evicts 0 : 9189 1 : 8413 2 : 0 3 : 0 
Heartbeat_Variant_3_evicts 0 : 0 1 : 0 2 : 0 3 : 0 
Heartbeat CPU 0 instructions: 10000000 cycles: 2797147 heartbeat IPC: 3.57507 cumulative IPC: 3.57507 (Simulation time: 0 hr 2 min 3 sec) 
Heartbeat_Variant_0 : 1066 0.347005 per_variant_size: 0 1066 0 0 0 0 0 0 0 
Heartbeat_Variant_1 : 957 0.311523 per_variant_size: 0 421 536 0 0 0 0 0 0 
Heartbeat_Variant_2 : 1043 0.339518 per_variant_size: 0 356 302 199 186 0 0 0 0 
Heartbeat_Variant_3 : 0 0 per_variant_size: 0 0 0 0 0 0 0 0 0 
Heartbeat_Variant_0_evicts 0 : 15434 1 : 9504 2 : 9358 3 : 0 
Heartbeat_Variant_1_evicts 0 : 9520 1 : 0 2 : 8687 3 : 0 
Heartbeat_Variant_2_evicts 0 : 9324 1 : 8735 2 : 0 3 : 0 
Heartbeat_Variant_3_evicts 0 : 0 1 : 0 2 : 0 3 : 0 
Heartbeat CPU 0 instructions: 20000001 cycles: 5593340 heartbeat IPC: 3.57629 cumulative IPC: 3.57568 (Simulation time: 0 hr 4 min 1 sec) 
Heartbeat_Variant_0 : 1073 0.349284 per_variant_size: 0 1073 0 0 0 0 0 0 0 
Heartbeat_Variant_1 : 957 0.311523 per_variant_size: 0 421 536 0 0 0 0 0 0 
Heartbeat_Variant_2 : 1036 0.33724 per_variant_size: 0 355 291 215 175 0 0 0 0 
Heartbeat_Variant_3 : 0 0 per_variant_size: 0 0 0 0 0 0 0 0 0 
Heartbeat_Variant_0_evicts 0 : 15511 1 : 9338 2 : 9472 3 : 0 
Heartbeat_Variant_1_evicts 0 : 9396 1 : 0 2 : 8510 3 : 0 
Heartbeat_Variant_2_evicts 0 : 9407 1 : 8568 2 : 0 3 : 0 
Heartbeat_Variant_3_evicts 0 : 0 1 : 0 2 : 0 3 : 0 
Heartbeat CPU 0 instructions: 30000000 cycles: 8390010 heartbeat IPC: 3.57568 cumulative IPC: 3.57568 (Simulation time: 0 hr 6 min 2 sec) 
Heartbeat_Variant_0 : 1055 0.343424 per_variant_size: 0 1055 0 0 0 0 0 0 0 
Heartbeat_Variant_1 : 979 0.318685 per_variant_size: 0 426 553 0 0 0 0 0 0 
Heartbeat_Variant_2 : 1033 0.336263 per_variant_size: 0 334 306 203 190 0 0 0 0 
Heartbeat_Variant_3 : 0 0 per_variant_size: 0 0 0 0 0 0 0 0 0 
Heartbeat_Variant_0_evicts 0 : 15207 1 : 8997 2 : 9138 3 : 0 
Heartbeat_Variant_1_evicts 0 : 8982 1 : 0 2 : 8194 3 : 0 
Heartbeat_Variant_2_evicts 0 : 9171 1 : 8157 2 : 0 3 : 0 
Heartbeat_Variant_3_evicts 0 : 0 1 : 0 2 : 0 3 : 0 
Heartbeat CPU 0 instructions: 40000001 cycles: 11187604 heartbeat IPC: 3.5745 cumulative IPC: 3.57539 (Simulation time: 0 hr 8 min 1 sec) 
Heartbeat_Variant_0 : 1055 0.343424 per_variant_size: 0 1055 0 0 0 0 0 0 0 
Heartbeat_Variant_1 : 967 0.314779 per_variant_size: 0 423 544 0 0 0 0 0 0 
Heartbeat_Variant_2 : 1046 0.340495 per_variant_size: 0 356 287 199 204 0 0 0 0 
Heartbeat_Variant_3 : 0 0 per_variant_size: 0 0 0 0 0 0 0 0 0 
Heartbeat_Variant_0_evicts 0 : 15244 1 : 9258 2 : 9375 3 : 0 
Heartbeat_Variant_1_evicts 0 : 9256 1 : 0 2 : 8338 3 : 0 
Heartbeat_Variant_2_evicts 0 : 9377 1 : 8348 2 : 0 3 : 0 
Heartbeat_Variant_3_evicts 0 : 0 1 : 0 2 : 0 3 : 0 
Heartbeat CPU 0 instructions: 50000002 cycles: 13984311 heartbeat IPC: 3.57563 cumulative IPC: 3.57544 (Simulation time: 0 hr 10 min 12 sec) 

Warmup complete CPU 0 instructions: 50000002 cycles: 13984311 (Simulation time: 0 hr 10 min 12 sec) 

Cycle: 20000000 FTQ IN: 56601660 FTQ occupancy: 17.9428 DECODE IN: 56601660 DECODE occupancy: 45.9291 ROB IN: 56601660 ROB occupancy: 277.409 ROB OUT: 56601616
Heartbeat_Variant_0 : 1078 0.350911 per_variant_size: 0 1078 0 0 0 0 0 0 0 
Heartbeat_Variant_1 : 956 0.311198 per_variant_size: 0 385 571 0 0 0 0 0 0 
Heartbeat_Variant_2 : 1035 0.336914 per_variant_size: 0 357 269 219 190 0 0 0 0 
Heartbeat_Variant_3 : 0 0 per_variant_size: 0 0 0 0 0 0 0 0 0 
Heartbeat_Variant_0_evicts 0 : 14996 1 : 8976 2 : 8834 3 : 0 
Heartbeat_Variant_1_evicts 0 : 8940 1 : 0 2 : 8036 3 : 0 
Heartbeat_Variant_2_evicts 0 : 8847 1 : 8012 2 : 0 3 : 0 
Heartbeat_Variant_3_evicts 0 : 0 1 : 0 2 : 0 3 : 0 
Heartbeat CPU 0 instructions: 60000001 cycles: 23109046 heartbeat IPC: 1.09592 cumulative IPC: 1.09592 (Simulation time: 0 hr 12 min 2 sec) 
Cycle: 30000000 FTQ IN: 10971641 FTQ occupancy: 6.1924 DECODE IN: 10971500 DECODE occupancy: 13.1433 ROB IN: 10971440 ROB occupancy: 112.524 ROB OUT: 10971132
Heartbeat_Variant_0 : 1071 0.348633 per_variant_size: 0 1071 0 0 0 0 0 0 0 
Heartbeat_Variant_1 : 977 0.318034 per_variant_size: 0 414 563 0 0 0 0 0 0 
Heartbeat_Variant_2 : 1021 0.332357 per_variant_size: 0 323 277 222 199 0 0 0 0 
Heartbeat_Variant_3 : 0 0 per_variant_size: 0 0 0 0 0 0 0 0 0 
Heartbeat_Variant_0_evicts 0 : 15147 1 : 8882 2 : 9021 3 : 0 
Heartbeat_Variant_1_evicts 0 : 8914 1 : 0 2 : 8159 3 : 0 
Heartbeat_Variant_2_evicts 0 : 8996 1 : 8170 2 : 0 3 : 0 
Heartbeat_Variant_3_evicts 0 : 0 1 : 0 2 : 0 3 : 0 
Heartbeat CPU 0 instructions: 70000003 cycles: 32360145 heartbeat IPC: 1.08095 cumulative IPC: 1.08839 (Simulation time: 0 hr 13 min 47 sec) 
Cycle: 40000000 FTQ IN: 10647010 FTQ occupancy: 6.19162 DECODE IN: 10647151 DECODE occupancy: 12.9313 ROB IN: 10647211 ROB occupancy: 108.422 ROB OUT: 10647526
Heartbeat_Variant_0 : 1061 0.345378 per_variant_size: 0 1061 0 0 0 0 0 0 0 
Heartbeat_Variant_1 : 984 0.320312 per_variant_size: 0 417 567 0 0 0 0 0 0 
Heartbeat_Variant_2 : 1024 0.333333 per_variant_size: 0 337 280 213 194 0 0 0 0 
Heartbeat_Variant_3 : 0 0 per_variant_size: 0 0 0 0 0 0 0 0 0 
Heartbeat_Variant_0_evicts 0 : 15577 1 : 9416 2 : 9516 3 : 0 
Heartbeat_Variant_1_evicts 0 : 9429 1 : 0 2 : 8738 3 : 0 
Heartbeat_Variant_2_evicts 0 : 9513 1 : 8744 2 : 0 3 : 0 
Heartbeat_Variant_3_evicts 0 : 0 1 : 0 2 : 0 3 : 0 
Heartbeat CPU 0 instructions: 80000001 cycles: 41625851 heartbeat IPC: 1.07925 cumulative IPC: 1.08532 (Simulation time: 0 hr 15 min 33 sec) 
Cycle: 50000000 FTQ IN: 10866350 FTQ occupancy: 6.13773 DECODE IN: 10866340 DECODE occupancy: 12.9111 ROB IN: 10866326 ROB occupancy: 109.782 ROB OUT: 10866196
Heartbeat_Variant_0 : 1063 0.346029 per_variant_size: 0 1063 0 0 0 0 0 0 0 
Heartbeat_Variant_1 : 961 0.312826 per_variant_size: 0 388 573 0 0 0 0 0 0 
Heartbeat_Variant_2 : 1045 0.340169 per_variant_size: 0 358 271 220 196 0 0 0 0 
Heartbeat_Variant_3 : 0 0 per_variant_size: 0 0 0 0 0 0 0 0 0 
Heartbeat_Variant_0_evicts 0 : 15645 1 : 9289 2 : 9202 3 : 0 
Heartbeat_Variant_1_evicts 0 : 9288 1 : 0 2 : 8371 3 : 0 
Heartbeat_Variant_2_evicts 0 : 9201 1 : 8393 2 : 0 3 : 0 
Heartbeat_Variant_3_evicts 0 : 0 1 : 0 2 : 0 3 : 0 
Heartbeat CPU 0 instructions: 90000000 cycles: 50940550 heartbeat IPC: 1.07357 cumulative IPC: 1.08236 (Simulation time: 0 hr 17 min 10 sec) 
Cycle: 60000000 FTQ IN: 10469814 FTQ occupancy: 6.1193 DECODE IN: 10469797 DECODE occupancy: 12.6829 ROB IN: 10469804 ROB occupancy: 106.98 ROB OUT: 10469878
Heartbeat_Variant_0 : 1061 0.345378 per_variant_size: 0 1061 0 0 0 0 0 0 0 
Heartbeat_Variant_1 : 955 0.310872 per_variant_size: 0 379 576 0 0 0 0 0 0 
Heartbeat_Variant_2 : 1054 0.343099 per_variant_size: 0 359 296 195 204 0 0 0 0 
Heartbeat_Variant_3 : 0 0 per_variant_size: 0 0 0 0 0 0 0 0 0 
Heartbeat_Variant_0_evicts 0 : 15908 1 : 9463 2 : 9635 3 : 0 
Heartbeat_Variant_1_evicts 0 : 9438 1 : 0 2 : 8515 3 : 0 
Heartbeat_Variant_2_evicts 0 : 9662 1 : 8497 2 : 0 3 : 0 
Heartbeat_Variant_3_evicts 0 : 0 1 : 0 2 : 0 3 : 0 
Heartbeat CPU 0 instructions: 100000003 cycles: 60381230 heartbeat IPC: 1.05925 cumulative IPC: 1.07766 (Simulation time: 0 hr 18 min 55 sec) 
Finished CPU 0 instructions: 50000001 cycles: 46396919 cumulative IPC: 1.07766 (Simulation time: 0 hr 18 min 55 sec) 

ChampSim completed all CPUs

Region of Interest Statistics

CPU 0 cumulative IPC: 1.07766 instructions: 50000001 cycles: 46396919
 Fetch stage stalled: 72.8602  Sim cycles: 46396919 fetch stall cycle: 33804900
 Empty decode stage: 64.5971  Sim cycles: 46396919 fetch stall cycle: 29971046
ITLB TOTAL     ACCESS:    5740958  HIT:    5242369  MISS:     498589  HIT %:    91.3152  MISS %:    8.68477   MPKI: 9.97178
ITLB LOAD TRANSLATION INSTRUCTION	ACCESS:    5639420  HIT:    5140831  MISS:     498589  HIT %:    91.1589  MISS %:    8.84114  MPKI: 9.97178
ITLB TRANSLATION FROM L1D PREFETCHER INSTRUCTION	ACCESS:     101538  HIT:     101538  MISS:          0  HIT %:        100  MISS %:          0  MPKI: 0

ITLB AVERAGE MISS LATENCY: 9.05361 cycles
ITLB RQ	ACCESS:    7543203	FORWARD:          0	MERGED:    1361207	TO_CACHE:    6181996

DTLB TOTAL     ACCESS:    9410433  HIT:    8936468  MISS:     473965  HIT %:    94.9634  MISS %:    5.03659   MPKI: 9.4793
DTLB LOAD TRANSLATION DATA	ACCESS:    9410433  HIT:    8936468  MISS:     473965  HIT %:    94.9634  MISS %:    5.03659  MPKI: 9.4793

DTLB AVERAGE MISS LATENCY: 9.32259 cycles
DTLB RQ	ACCESS:   13685538	FORWARD:          0	MERGED:    4242102	TO_CACHE:    9443436

STLB TOTAL     ACCESS:    1217770  HIT:    1215777  MISS:       1993  HIT %:    99.8363  MISS %:    0.16366   MPKI: 0.03986
STLB LOAD TRANSLATION INSTRUCTION	ACCESS:     498589  HIT:     498329  MISS:        260  HIT %:    99.9479  MISS %:  0.0521472  MPKI: 0.0052
STLB LOAD TRANSLATION DATA	ACCESS:     473694  HIT:     471988  MISS:       1706  HIT %:    99.6399  MISS %:   0.360148  MPKI: 0.03412
STLB TRANSLATION FROM L1D PREFETCHER DATA	ACCESS:     245487  HIT:     245460  MISS:         27  HIT %:     99.989  MISS %:  0.0109985  MPKI: 0.00054

STLB AVERAGE MISS LATENCY: 78.0602 cycles
STLB RQ	ACCESS:    1336343	FORWARD:          0	MERGED:     118526	TO_CACHE:    1217817

STLB Hit, L1D data hit: 0
STLB Hit, L2C data hit: 0
STLB Hit, LLC data hit: 0
STLB Hit, LLC data miss: 0
STLB STLB hints to L2: 0
L1D TOTAL     ACCESS:   13446333  HIT:   12318721  MISS:    1127612  HIT %:     91.614  MISS %:    8.38602   MPKI: 22.5522
L1D LOAD DATA	ACCESS:    6866477  HIT:    6120887  MISS:     745590  HIT %:    89.1416  MISS %:    10.8584  MPKI: 14.9118
L1D RFO DATA	ACCESS:    6256557  HIT:    5969153  MISS:     287404  HIT %:    95.4064  MISS %:    4.59364  MPKI: 5.74808
L1D PREFETCH DATA	ACCESS:     323299  HIT:     228681  MISS:      94618  HIT %:    70.7336  MISS %:    29.2664  MPKI: 1.89236

L1D PREFETCH  REQUESTED:     727807  ISSUED:     727807  USEFUL:      34047  USELESS:      67969
L1D USEFUL LOAD PREFETCHES:      34047 PREFETCH ISSUED TO LOWER LEVEL:     102061  ACCURACY: 33.3595
 TIMELY PREFETCHES:      34047 LATE PREFETCHES: 7386 DROPPED PREFETCHES: 9
L1D AVERAGE MISS LATENCY: 247887 cycles
L1D RQ	ACCESS:   10920667	FORWARD:          0	MERGED:    3859820	TO_CACHE:    6896566
L1D WQ	ACCESS:    6959238	FORWARD:     164510	MERGED:     170266	TO_CACHE:    6788972
L1D PQ	ACCESS:     364018	FORWARD:          0	MERGED:          0	TO_CACHE:     363789

L1D UNIQUE REGIONS ACCESSED: 0
L1D REGIONS CONFLICTS: 0
L1D Cross Page Prefetch Requests: 7014
L1D Same Page Prefetch Requests: 743646
L1D ROI Sum of L1D PQ occupancy: 4621394
L1D PREFETCHES PUSHED FROM L2C: 0
L1I TOTAL     ACCESS:    7037169  HIT:    4252883  MISS:    2784286  HIT %:    60.4346  MISS %:    39.5654   MPKI: 55.6857
L1I LOAD INSTRUCTION	ACCESS:    6556334  HIT:    3772048  MISS:    2784286  HIT %:    57.5329  MISS %:    42.4671  MPKI: 55.6857
L1I PREFETCH INSTRUCTION	ACCESS:     480835  HIT:     480835  MISS:          0  HIT %:        100  MISS %:          0  MPKI: 0

L1I PREFETCH  REQUESTED:    1060342  ISSUED:    1060342  USEFUL:          0  USELESS:          0
L1I USEFUL LOAD PREFETCHES:          0 PREFETCH ISSUED TO LOWER LEVEL:          0  ACCURACY: -nan
 TIMELY PREFETCHES:          0 LATE PREFETCHES: 0 DROPPED PREFETCHES: 0
L1I AVERAGE MISS LATENCY: 17.141 cycles
L1I RQ	ACCESS:    9446470	FORWARD:          0	MERGED:    2656820	TO_CACHE:    6789650
L1I PQ	ACCESS:    1060342	FORWARD:          0	MERGED:     306789	TO_CACHE:     753553

L1BTB TOTAL     ACCESS:    5672263  HIT:    2021954  MISS:    3650309  HIT %:    35.6463  MISS %:    64.3537   MPKI: 73.0062
L1BTB BRANCH_DIRECT_JUMP	ACCESS:     547903  HIT:     142990  MISS:     404913	AVERAGE STALL: 34.0761
L1BTB BRANCH_INDIRECT	ACCESS:     182092  HIT:      65218  MISS:     116874	AVERAGE STALL: 79.3502
L1BTB BRANCH_CONDITIONAL	ACCESS:    2695937  HIT:    1397068  MISS:    1298869	AVERAGE STALL: 34.8952
L1BTB BRANCH_DIRECT_CALL	ACCESS:     950808  HIT:     105394  MISS:     845414	AVERAGE STALL: 36.5746
L1BTB BRANCH_INDIRECT_CALL	ACCESS:     172365  HIT:      21117  MISS:     151248	AVERAGE STALL: 107.243
L1BTB BRANCH_RETURN	ACCESS:    1123158  HIT:     290167  MISS:     832991	AVERAGE STALL: 36.8155
L1BTB BRANCH_OTHER ACCESS:          0  HIT:          0  MISS:          0	AVERAGE STALL: -nan
L1BTB TOTAL ROB OCCUPANCY AT BTB MISS: 12.7967

L2BTB TOTAL     ACCESS:    3625083  HIT:    3105251  MISS:     519832  HIT %:    85.6601  MISS %:    14.3399   MPKI: 10.3966
L2BTB BRANCH_DIRECT_JUMP	ACCESS:     400881  HIT:     345101  MISS:      55780	AVERAGE STALL: 34.0761
L2BTB BRANCH_INDIRECT	ACCESS:     106504  HIT:      98027  MISS:       8477	AVERAGE STALL: 79.3502
L2BTB BRANCH_CONDITIONAL	ACCESS:    1298869  HIT:    1139611  MISS:     159258	AVERAGE STALL: 34.8952
L2BTB BRANCH_DIRECT_CALL	ACCESS:     845414  HIT:     690898  MISS:     154516	AVERAGE STALL: 36.5746
L2BTB BRANCH_INDIRECT_CALL	ACCESS:     141850  HIT:     109160  MISS:      32690	AVERAGE STALL: 107.243
L2BTB BRANCH_RETURN	ACCESS:     831565  HIT:     722454  MISS:     109111	AVERAGE STALL: 36.8155
L2BTB BRANCH_OTHER ACCESS:          0  HIT:          0  MISS:          0	AVERAGE STALL: -nan
L2BTB TOTAL ROB OCCUPANCY AT BTB MISS: 89.8598

L2C TOTAL     ACCESS:    4524884  HIT:    4042608  MISS:     482276  HIT %:    89.3417  MISS %:    10.6583   MPKI: 9.64552
L2C LOAD INSTRUCTION	ACCESS:    2784286  HIT:    2527260  MISS:     257026  HIT %:    90.7687  MISS %:    9.23131  MPKI: 5.14052
L2C LOAD TRANSLATION INSTRUCTION	ACCESS:        295  HIT:         61  MISS:        234  HIT %:     20.678  MISS %:     79.322  MPKI: 0.00468
L2C LOAD DATA	ACCESS:     738156  HIT:     663644  MISS:      74512  HIT %:    89.9057  MISS %:    10.0943  MPKI: 1.49024
L2C RFO DATA	ACCESS:     287334  HIT:     227916  MISS:      59418  HIT %:    79.3209  MISS %:    20.6791  MPKI: 1.18836
L2C PREFETCH DATA	ACCESS:     186883  HIT:     115314  MISS:      71569  HIT %:    61.7038  MISS %:    38.2962  MPKI: 1.43138
L2C WRITEBACK DATA	ACCESS:     526114  HIT:     507933  MISS:      18181  HIT %:    96.5443  MISS %:    3.45571  MPKI: 0.36362
L2C LOAD TRANSLATION DATA	ACCESS:       1768  HIT:        446  MISS:       1322  HIT %:    25.2262  MISS %:    74.7738  MPKI: 0.02644
L2C TRANSLATION FROM L1D PREFETCHER DATA	ACCESS:         48  HIT:         34  MISS:         14  HIT %:    70.8333  MISS %:    29.1667  MPKI: 0.00028

L2C PREFETCH  REQUESTED:      92030  ISSUED:      92030  USEFUL:       7772  USELESS:      64225
L2C USEFUL LOAD PREFETCHES:       7772 PREFETCH ISSUED TO LOWER LEVEL:      72008  ACCURACY: 10.7932
 TIMELY PREFETCHES:       7772 LATE PREFETCHES: 439 DROPPED PREFETCHES: 0
L2C AVERAGE MISS LATENCY: 38.0198 cycles
L2C RQ	ACCESS:    3811948	FORWARD:          0	MERGED:          0	TO_CACHE:    3811889
L2C WQ	ACCESS:     526114	FORWARD:         59	MERGED:          0	TO_CACHE:     526114
L2C PQ	ACCESS:     194091	FORWARD:          0	MERGED:       3622	TO_CACHE:     190469

L2C Dense regions hint from L2: 0
PSCL5 TOTAL     ACCESS:       4006  HIT:       2003  MISS:       2003  HIT %:         50  MISS %:         50   MPKI: 0.04006
PSCL5 LOAD TRANSLATION INSTRUCTION	ACCESS:       3910  HIT:       1955  MISS:       1955  HIT %:         50  MISS %:         50  MPKI: 0.0391
PSCL5 TRANSLATION FROM L1D PREFETCHER INSTRUCTION	ACCESS:         96  HIT:         48  MISS:         48  HIT %:         50  MISS %:         50  MPKI: 0.00096


PSCL4 TOTAL     ACCESS:       3938  HIT:       1967  MISS:       1971  HIT %:    49.9492  MISS %:    50.0508   MPKI: 0.03942
PSCL4 LOAD TRANSLATION INSTRUCTION	ACCESS:       2088  HIT:       1919  MISS:        169  HIT %:    91.9061  MISS %:    8.09387  MPKI: 0.00338
PSCL4 TRANSLATION FROM L1D PREFETCHER INSTRUCTION	ACCESS:         48  HIT:         48  MISS:          0  HIT %:        100  MISS %:          0  MPKI: 0
PSCL4 LOAD TRANSLATION DATA	ACCESS:       1754  HIT:          0  MISS:       1754  HIT %:          0  MISS %:        100  MPKI: 0.03508
PSCL4 TRANSLATION FROM L1D PREFETCHER DATA	ACCESS:         48  HIT:          0  MISS:         48  HIT %:          0  MISS %:        100  MPKI: 0.00096


PSCL3 TOTAL     ACCESS:       3956  HIT:       1976  MISS:       1980  HIT %:    49.9494  MISS %:    50.0506   MPKI: 0.0396
PSCL3 LOAD TRANSLATION INSTRUCTION	ACCESS:       2097  HIT:       1928  MISS:        169  HIT %:    91.9409  MISS %:    8.05913  MPKI: 0.00338
PSCL3 TRANSLATION FROM L1D PREFETCHER INSTRUCTION	ACCESS:         48  HIT:         48  MISS:          0  HIT %:        100  MISS %:          0  MPKI: 0
PSCL3 LOAD TRANSLATION DATA	ACCESS:       1763  HIT:          0  MISS:       1763  HIT %:          0  MISS %:        100  MPKI: 0.03526
PSCL3 TRANSLATION FROM L1D PREFETCHER DATA	ACCESS:         48  HIT:          0  MISS:         48  HIT %:          0  MISS %:        100  MPKI: 0.00096


PSCL2 TOTAL     ACCESS:       3903  HIT:       1900  MISS:       2003  HIT %:    48.6805  MISS %:    51.3195   MPKI: 0.04006
PSCL2 LOAD TRANSLATION INSTRUCTION	ACCESS:       2134  HIT:       1852  MISS:        282  HIT %:    86.7854  MISS %:    13.2146  MPKI: 0.00564
PSCL2 TRANSLATION FROM L1D PREFETCHER INSTRUCTION	ACCESS:         48  HIT:         48  MISS:          0  HIT %:        100  MISS %:          0  MPKI: 0
PSCL2 LOAD TRANSLATION DATA	ACCESS:       1673  HIT:          0  MISS:       1673  HIT %:          0  MISS %:        100  MPKI: 0.03346
PSCL2 TRANSLATION FROM L1D PREFETCHER DATA	ACCESS:         48  HIT:          0  MISS:         48  HIT %:          0  MISS %:        100  MPKI: 0.00096


LLC TOTAL     ACCESS:     545741  HIT:     517444  MISS:      28297  HIT %:    94.8149  MISS %:    5.18506   MPKI: 0.56594
LLC LOAD INSTRUCTION	ACCESS:     257026  HIT:     255871  MISS:       1155  HIT %:    99.5506  MISS %:   0.449371  MPKI: 0.0231
LLC LOAD TRANSLATION INSTRUCTION	ACCESS:        234  HIT:        188  MISS:         46  HIT %:    80.3419  MISS %:    19.6581  MPKI: 0.00092
LLC LOAD DATA	ACCESS:      74083  HIT:      70535  MISS:       3548  HIT %:    95.2108  MISS %:    4.78922  MPKI: 0.07096
LLC RFO DATA	ACCESS:      59404  HIT:      46305  MISS:      13099  HIT %:    77.9493  MISS %:    22.0507  MPKI: 0.26198
LLC PREFETCH DATA	ACCESS:      72008  HIT:      61990  MISS:      10018  HIT %:    86.0877  MISS %:    13.9123  MPKI: 0.20036
LLC WRITEBACK DATA	ACCESS:      81650  HIT:      81317  MISS:        333  HIT %:    99.5922  MISS %:   0.407838  MPKI: 0.00666
LLC LOAD TRANSLATION DATA	ACCESS:       1322  HIT:       1224  MISS:         98  HIT %:     92.587  MISS %:    7.41301  MPKI: 0.00196
LLC TRANSLATION FROM L1D PREFETCHER DATA	ACCESS:         14  HIT:         14  MISS:          0  HIT %:        100  MISS %:          0  MPKI: 0

LLC AVERAGE MISS LATENCY: 154.776 cycles
LLC RQ	ACCESS:     392087	FORWARD:          0	MERGED:          0	TO_CACHE:     392083
LLC WQ	ACCESS:      81650	FORWARD:          4	MERGED:          0	TO_CACHE:      81650
LLC PQ	ACCESS:      72008	FORWARD:          0	MERGED:          0	TO_CACHE:      72008

LLC Dense regions hint to LLC: 0

RAW hits: 1711242
Loads Generated: 12631909
Loads sent to L1D: 10920667
Stores Generated: 6959228
Stores sent to L1D: 6959238
Major fault: 0 Minor fault: 2635
Allocated PAGES: 2635

stream: 
stream:times selected: 1176421
stream:pref_filled: 121057
stream:pref_useful: 24280
stream:pref_late: 6844
stream:misses: 7970
stream:misses_by_poll: 0

CS: 
CS:times selected: 176989
CS:pref_filled: 61524
CS:pref_useful: 38266
CS:pref_late: 6605
CS:misses: 15492
CS:misses_by_poll: 1

CPLX: 
CPLX:times selected: 998256
CPLX:pref_filled: 20025
CPLX:pref_useful: 4812
CPLX:pref_late: 3109
CPLX:misses: 94175
CPLX:misses_by_poll: 0

NL_L1: 
NL:times selected: 20632
NL:pref_filled: 764
NL:pref_useful: 360
NL:pref_late: 284
NL:misses: 1744
NL:misses_by_poll: 0

total selections: 2372298
total_filled: 94618
total_useful: 34047
total_late: 18146
total_polluted: 1
total_misses_after_warmup: 775680
conflicts: 5675418

test: 116679

DRAM Statistics
 CHANNEL 0
 RQ ROW_BUFFER_HIT:      10264  ROW_BUFFER_MISS:      17686
 DBUS_CONGESTED:         12
 WQ ROW_BUFFER_HIT:       1412  ROW_BUFFER_MISS:      11770  FULL:          0

 AVG_CONGESTED_CYCLE: 5

CPU 0 Branch Prediction Accuracy: 99.8084% MPKI: 0.35088 Average ROB Occupancy at Mispredict: 118.48
Branch types
NOT_BRANCH: 40844393 81.6888%
BRANCH_DIRECT_JUMP: 547903 1.09581%
BRANCH_INDIRECT: 182092 0.364184%
BRANCH_CONDITIONAL: 6178915 12.3578%
BRANCH_DIRECT_CALL: 950808 1.90162%
BRANCH_INDIRECT_CALL: 172365 0.34473%
BRANCH_RETURN: 1123158 2.24632%
BRANCH_OTHER: 0 0%

DRAM PAGES: 1048576
Allocated PAGES: 2635
Average_ROB_Occupancy: 111.038
Average_Decode_Occupancy: 12.9734
Average_FTQ_Occupancy: 6.17219
Indirect max targets: 14 Average targets: 1.17891
Branch_type:  BRANCH_DIRECT_JUMP:  Count Percentage: 3.77613 4.78447 4.81563 8.46364 2.40745 6.01232 1.56598 68.1744 
Branch_type:  BRANCH_INDIRECT:  Count Percentage: 6.10758 3.37609 8.14042 9.6785 3.35386 2.81766 3.90159 62.6243 
Branch_type:  BRANCH_CONDITIONAL:  Count Percentage: 25.4249 2.35007 1.55286 4.60624 2.44852 3.59382 2.1199 57.9037 
Branch_type:  BRANCH_DIRECT_CALL:  Count Percentage: 0.916119 1.32111 0.714232 3.88468 3.20291 2.6904 3.03686 84.2337 
Branch_type:  BRANCH_INDIRECT_CALL:  Count Percentage: 9.57683 0 3.00511 0.00087324 0.922724 1.71999 4.99639 79.7781 
Branch_type:  BRANCH_RETURN:  Count Percentage: 8.33508 1.23035 1.01714 3.87704 4.217 3.48128 2.68701 75.1551 
Branch_type:  BRANCH_DIRECT_JUMP:  Total Count: 41321 52355 52696 92615 26344 65791 17136 746011 
Branch_type:  BRANCH_INDIRECT:  Total Count: 22257 12303 29665 35270 12222 10268 14218 228213 
Branch_type:  BRANCH_CONDITIONAL:  Total Count: 3139812 290218 191768 568840 302376 443813 261793 7150718 
Branch_type:  BRANCH_DIRECT_CALL:  Total Count: 17357 25030 13532 73600 60683 50973 57537 1595910 
Branch_type:  BRANCH_INDIRECT_CALL:  Total Count: 32901 0 10324 3 3170 5909 17165 274076 
Branch_type:  BRANCH_RETURN:  Total Count: 186625 27548 22774 86808 94420 77947 60163 1682745 
Number of unique branch instructions: 10759
Upper 32 bits: 
aaaa
ffff
ffff0000
Unique upper 32 bits: 3
Unique upper 36 bits: 3
Unique upper 40 bits: 5
Unique upper 44 bits: 32
Unique upper 48 bits: 158
Variant_0 : 1061 0.345378
Variant_1 : 955 0.310872
Variant_2 : 1054 0.343099
Variant_3 : 0 0
Offset_3 4455
Offset_4 260
Offset_5 482
Offset_6 538
Offset_7 639
Offset_8 578
Offset_9 511
Offset_10 421
Offset_11 352
Offset_12 325
Offset_13 240
Offset_14 247
Offset_15 199
Offset_16 231
Offset_17 165
Offset_18 152
Offset_19 262
Offset_20 146
Offset_21 235
Offset_22 410
Offset_23 241
Offset_24 346
Offset_25 117
Offset_47 92
Offset_64 2
decode_dispatch_called: 20410805 43.9917
Dispatch_width: 0 10337055 50.645 22.2796
Dispatch_width: 1 549836 2.69385 1.18507
Dispatch_width: 2 702136 3.44002 1.51332
Dispatch_width: 3 481126 2.35721 1.03698
Dispatch_width: 4 1540027 7.54516 3.31924
Dispatch_width: 5 361573 1.77148 0.779304
Dispatch_width: 6 6439052 31.5473 13.8782
Empty_decode_cycles: 25986114 56.0083
ROB_full_cycles: 1972820 4.25205
Starvation_cycles_per_kilo_instr: 379.85
Starvation_cycles_per_kilo_instr_3: 360.834
Starvation_cycles_per_kilo_instr_0: 343.503
Branch_type_1  (3,1)  (4,9)  (5,39)  (6,72)  (7,124)  (8,149)  (9,134)  (10,110)  (11,79)  (12,55)  (13,11)  (14,2)  (15,3)  (16,4)  (18,1)  (19,5)  (20,2)  (21,1)  (22,3)  (23,2)  (24,10)  (25,12)  (64,1) 
Branch_type_2  (3,1)  (4,1)  (5,1)  (8,4)  (9,4)  (10,1)  (12,1)  (13,1)  (14,1)  (16,3)  (17,2)  (20,2)  (21,2)  (23,5)  (24,1)  (47,41) 
Branch_type_3  (3,4453)  (4,250)  (5,438)  (6,449)  (7,484)  (8,358)  (9,278)  (10,169)  (11,137)  (12,62)  (13,10)  (24,1)  (64,1) 
Branch_type_4  (6,4)  (7,8)  (8,26)  (9,57)  (10,67)  (11,70)  (12,116)  (13,102)  (14,112)  (15,95)  (16,102)  (17,76)  (18,65)  (19,127)  (20,74)  (21,124)  (22,216)  (23,136)  (24,200)  (25,101) 
Branch_type_5  (8,3)  (9,1)  (10,4)  (11,5)  (12,3)  (13,14)  (14,16)  (15,11)  (16,22)  (17,11)  (18,23)  (19,14)  (20,11)  (21,13)  (22,43)  (23,26)  (24,38) 
Branch_type_6  (5,4)  (6,13)  (7,23)  (8,38)  (9,37)  (10,70)  (11,61)  (12,88)  (13,102)  (14,116)  (15,90)  (16,100)  (17,76)  (18,63)  (19,116)  (20,57)  (21,95)  (22,148)  (23,72)  (24,96)  (25,4)  (47,51) 
Unique trigger count: 
Variant_0_evicts_0 : 0
Variant_0_evicts_1 : 0
Variant_0_evicts_2 : 0
Variant_0_evicts_3 : 0
Variant_1_evicts_0 : 0
Variant_1_evicts_1 : 0
Variant_1_evicts_2 : 0
Variant_1_evicts_3 : 0
Variant_2_evicts_0 : 0
Variant_2_evicts_1 : 0
Variant_2_evicts_2 : 0
Variant_2_evicts_3 : 0
Variant_3_evicts_0 : 0
Variant_3_evicts_1 : 0
Variant_3_evicts_2 : 0
Variant_3_evicts_3 : 0
BTB PER SET UNIQUE ADDR: 41 53 44 54 48 42 40 41 43 47 44 58 41 46 46 38 43 44 43 49 43 33 37 40 46 53 49 55 45 40 48 47 62 40 47 50 55 42 39 41 45 42 47 59 46 43 47 42 59 52 41 43 48 58 39 36 47 38 38 49 47 58 47 49 49 47 42 44 53 46 46 42 53 39 38 37 36 52 41 65 47 42 43 49 41 42 57 52 46 68 47 41 49 45 33 56 47 38 47 46 67 49 43 48 49 41 46 36 33 38 39 56 54 36 44 42 52 48 50 45 49 39 44 36 44 43 30 51 62 43 39 47 44 51 41 53 30 54 43 59 42 59 38 43 44 45 51 46 50 43 46 50 41 44 32 54 48 44 39 53 46 39 56 58 51 44 43 49 46 39 50 52 40 51 47 43 45 45 44 53 42 46 44 52 48 55 34 51 53 41 50 39 44 54 45 46 50 45 53 50 46 50 44 45 47 41 51 45 56 51 49 61 43 49 50 48 40 53 50 56 45 49 43 48 42 47 54 44 39 53 49 36 52 59 41 50 56 48 38 49 42 48 58 51 44 38 37 45 35 37 36 40 47 49 49 42 20 17 20 22 25 18 8 22 21 15 19 20 18 22 21 23 17 14 15 16 23 26 21 22 18 23 14 18 26 17 18 31 34 26 23 18 25 27 17 28 24 27 26 24 21 23 19 37 23 29 27 20 31 24 23 29 19 35 24 16 28 21 21 31 18 28 19 23 28 28 24 17 22 14 23 29 18 21 19 26 17 19 18 37 23 26 16 28 28 27 17 24 20 23 25 24 27 26 22 27 24 27 20 17 21 31 20 31 22 25 13 24 26 23 25 19 23 27 18 30 25 29 20 25 23 24 17 17 17 22 28 29 24 23 29 16 27 29 16 19 20 20 31 24 21 23 23 24 28 26 26 25 22 23 26 18 18 28 24 23 20 31 40 30 18 27 22 24 24 19 26 19 24 22 28 19 21 22 29 27 27 19 21 24 28 19 19 30 35 20 16 25 29 22 29 39 25 18 27 32 26 29 18 32 17 22 19 29 33 19 24 25 27 26 24 27 28 24 23 35 25 36 18 24 35 28 22 24 16 27 34 28 27 24 20 27 20 18 19 19 23 28 22 26 22 28 19 34 22 19 20 30 28 24 23 31 23 24 26 28 24 31 18 18 19 22 23 18 23 33 36 16 16 32 28 26 24 23 28 29 20 24 29 22 26 21 27 24 26 31 17 25 16 23 24 36 21 23 19 25 22 23 30 27 19 32 22 20 26 28 22 28 24 30 28 28 28 34 23 28 30 30 23 25 24 24 15 25 28 26 22 23 33 28 20 21 23 17 28 17 16 24 22 20 25 20 24 13 26 24 32 23 22 24 35 25 22 17 11 31 16 28 22 26 30 23 18 19 20 33 21 31 19 25 18 28 30 23 25 23 24 29 21 27 22 25 26 32 26 26 22 25 33 20 15 23 21 20 29 23 22 24 28 22 23 14 30 31 21 25 20 21 23 20 24 22 19 26 32 21 26 27 29 31 22 30 18 26 27 23 20 21 28 30 21 26 21 15 15 23 19 26 19 27 15 25 26 31 15 29 23 20 21 14 23 22 19 21 18 18 33 24 21 27 26 22 22 23 19 23 23 22 18 20 26 21 22 20 23 22 23 32 36 21 19 18 22 26 32 31 21 22 23 18 22 22 23 22 17 23 32 22 19 16 25 12 14 24 24 29 17 23 
BTB PER SET COUNT: 1991 2231 3623 2462 2476 1747 1709 1621 1776 2091 1568 3137 15536 3203 2097 1515 2195 2308 1889 2274 2093 1260 1995 2069 1997 2510 2305 2797 2103 2000 2344 3053 2794 1651 2240 2678 2587 1874 1415 2630 1628 1756 1769 3892 2123 1876 2364 2636 3347 2966 2224 2750 2052 2918 1509 1691 2185 1816 1653 2023 2179 3343 2287 2280 2398 2310 1510 2948 2432 2083 2487 2347 2586 1955 1527 1794 1829 2597 1634 2679 2335 3199 2484 2293 1495 2722 2534 2301 2725 3444 2220 1984 2713 2331 1252 2174 2305 1473 1964 3812 3561 2311 1738 2343 3734 1493 1986 1397 1568 1785 2635 3073 2999 1386 2116 2058 2332 2672 3318 2469 2435 1613 2152 1765 2451 2566 1254 2542 3561 1978 1939 3529 2150 2129 2020 2771 1716 2222 1607 2903 1896 2857 1770 1659 1967 2137 2706 2203 2732 2507 1729 2174 1959 2106 1044 2553 2082 2397 1444 2863 1783 1742 2597 2821 2703 2257 1604 2914 2127 1767 2703 2543 1595 3083 2394 1690 1755 1738 2275 2936 1661 2425 2462 3179 2374 4057 1155 2313 2673 1776 2366 1771 2057 2879 2097 2006 2132 1748 2542 2211 2147 2298 2046 2747 1820 2070 3564 1997 2702 2231 2713 3236 1787 3975 2145 3577 1802 3143 3350 2746 1722 2190 2153 2836 2058 2060 2199 2244 1794 2703 1832 1671 2395 3556 1791 3762 2180 2315 2087 2177 2178 2690 3322 2832 1974 2014 1720 2175 1555 1552 1479 1644 1552 2483 2210 2288 608 714 615 794 970 598 142 1026 641 366 744 630 1067 756 614 765 479 326 671 312 914 972 667 1028 267 1016 875 672 734 623 290 1618 1161 904 691 443 587 1372 481 1097 1611 1116 711 1292 539 615 382 1496 551 1314 979 676 1464 1336 1024 1052 508 1239 2499 663 1063 889 787 1254 492 1898 375 709 1092 1556 1138 508 601 392 914 1077 474 528 593 918 411 1557 405 1587 809 1662 503 1066 1196 681 485 894 541 879 918 426 907 663 551 774 654 1137 448 597 606 1149 511 1124 648 1718 201 912 910 759 818 610 864 1287 853 1163 811 972 694 1197 907 670 655 403 494 601 3093 1081 632 1343 1161 311 808 1648 435 496 553 751 1235 1126 608 736 950 615 1168 878 1001 692 739 1001 962 337 509 1432 658 839 703 2976 1651 1048 672 947 825 859 777 579 1612 618 777 1018 1174 744 567 727 1382 1142 850 984 511 765 1627 713 518 1094 1996 811 911 976 1188 1043 1580 2328 906 442 1092 1993 964 974 605 1245 594 572 645 1406 1439 850 5187 685 860 1060 973 1069 781 818 802 1429 766 1665 565 1132 1654 1242 570 826 620 1114 1538 1158 2074 782 1013 754 4777 477 380 738 1186 2123 880 588 673 1185 701 1422 738 436 546 1472 980 756 963 2224 1363 1379 670 1335 577 1154 556 709 360 837 735 775 814 1474 1933 867 672 2042 1526 1048 835 740 1290 1181 853 1621 1002 948 1062 704 869 1001 873 1408 225 747 555 1122 863 1333 1306 961 593 555 887 650 1210 1072 458 1331 748 810 1284 1093 914 1176 974 1261 1542 951 904 1277 2175 990 1158 1294 924 833 928 1089 415 2640 859 1209 1048 839 1741 986 936 560 813 434 1121 501 1383 1381 758 432 388 939 840 326 1018 753 1196 3215 497 762 1363 1682 1353 382 261 1042 314 988 1082 1069 1298 765 450 770 537 1105 675 1300 1936 634 375 1534 1232 828 802 857 938 1497 557 1572 836 969 1023 889 1480 940 1090 1220 1666 393 380 874 438 627 2190 932 700 688 1055 1377 665 300 1462 1130 5298 894 575 1350 1918 821 701 673 723 870 1644 857 789 868 1088 1239 824 956 980 639 1695 727 628 688 1159 1016 535 792 689 372 2766 635 853 2069 709 742 1335 1081 1285 1117 235 981 688 722 397 381 811 1041 786 612 677 580 1451 886 701 1384 941 962 599 1286 2122 661 650 819 1330 921 1009 7727 775 564 630 1040 1259 1191 1368 520 999 389 775 856 1161 927 1611 486 935 620 1873 565 1157 2574 1490 778 1184 1069 514 563 980 474 301 875 1851 1342 354 1408 
To predecode: 0
Predecoding something: 0
Predecode request dropped: 0
sizeofblock_0 0
sizeofblock_1 378233
sizeofblock_2 245792
sizeofblock_3 90055
sizeofblock_4 49684
sizeofblock_5 0
sizeofblock_6 0
sizeofblock_7 0
sizeofblock_8 0
Variant_0 Correct: 1332017 Incorrect: 0 Accuracy: 1
Variant_1 Correct: 1802840 Incorrect: 0 Accuracy: 1
Variant_2 Correct: 3305472 Incorrect: 0 Accuracy: 1
Variant_3 Correct: 0 Incorrect: 0 Accuracy: -nan
