
*** ChampSim Multicore Out-of-Order Simulator ***

Warmup Instructions: 50000000
Simulation Instructions: 50000000
Number of CPUs: 1
LLC sets: 2048
LLC ways: 16
Off-chip DRAM Size: 4096 MB Channels: 1 Width: 64-bit Data Rate: 6400 MT/s
CPU 0 runs ./micro_traces/srv109.trace.gz
.gz
ITLB has LRU replacement policy
DTLB has LRU replacement policy
STLB has LRU replacement policy
FDIP Prefetcher at L1I
L1I has LRU replacement policy
L1D has LRU replacement policy
Initialize SRRIP state for L2C
Initialize DRRIP state for LLC
Heartbeat_Variant_0 : 1353 0.330322 per_variant_size: 0 1353 0 0 0 0 0 0 0 
Heartbeat_Variant_1 : 2633 0.642822 per_variant_size: 0 503 2130 0 0 0 0 0 0 
Heartbeat_Variant_2 : 0 0 per_variant_size: 0 0 0 0 0 0 0 0 0 
Heartbeat_Variant_3 : 0 0 per_variant_size: 0 0 0 0 0 0 0 0 0 
Heartbeat_Variant_0_evicts 0 : 5835 1 : 778 2 : 0 3 : 0 
Heartbeat_Variant_1_evicts 0 : 741 1 : 0 2 : 0 3 : 0 
Heartbeat_Variant_2_evicts 0 : 0 1 : 0 2 : 0 3 : 0 
Heartbeat_Variant_3_evicts 0 : 0 1 : 0 2 : 0 3 : 0 
Heartbeat CPU 0 instructions: 10000001 cycles: 2796398 heartbeat IPC: 3.57603 cumulative IPC: 3.57603 (Simulation time: 0 hr 1 min 36 sec) 
Heartbeat_Variant_0 : 1348 0.329102 per_variant_size: 0 1348 0 0 0 0 0 0 0 
Heartbeat_Variant_1 : 2644 0.645508 per_variant_size: 0 524 2120 0 0 0 0 0 0 
Heartbeat_Variant_2 : 0 0 per_variant_size: 0 0 0 0 0 0 0 0 0 
Heartbeat_Variant_3 : 0 0 per_variant_size: 0 0 0 0 0 0 0 0 0 
Heartbeat_Variant_0_evicts 0 : 5614 1 : 104 2 : 0 3 : 0 
Heartbeat_Variant_1_evicts 0 : 111 1 : 0 2 : 0 3 : 0 
Heartbeat_Variant_2_evicts 0 : 0 1 : 0 2 : 0 3 : 0 
Heartbeat_Variant_3_evicts 0 : 0 1 : 0 2 : 0 3 : 0 
Heartbeat CPU 0 instructions: 20000003 cycles: 5591066 heartbeat IPC: 3.57824 cumulative IPC: 3.57714 (Simulation time: 0 hr 3 min 12 sec) 
Heartbeat_Variant_0 : 1338 0.32666 per_variant_size: 0 1338 0 0 0 0 0 0 0 
Heartbeat_Variant_1 : 2685 0.655518 per_variant_size: 0 506 2179 0 0 0 0 0 0 
Heartbeat_Variant_2 : 0 0 per_variant_size: 0 0 0 0 0 0 0 0 0 
Heartbeat_Variant_3 : 0 0 per_variant_size: 0 0 0 0 0 0 0 0 0 
Heartbeat_Variant_0_evicts 0 : 5720 1 : 348 2 : 0 3 : 0 
Heartbeat_Variant_1_evicts 0 : 366 1 : 0 2 : 0 3 : 0 
Heartbeat_Variant_2_evicts 0 : 0 1 : 0 2 : 0 3 : 0 
Heartbeat_Variant_3_evicts 0 : 0 1 : 0 2 : 0 3 : 0 
Heartbeat CPU 0 instructions: 30000001 cycles: 8387036 heartbeat IPC: 3.57658 cumulative IPC: 3.57695 (Simulation time: 0 hr 4 min 49 sec) 
Heartbeat_Variant_0 : 1362 0.33252 per_variant_size: 0 1362 0 0 0 0 0 0 0 
Heartbeat_Variant_1 : 2676 0.65332 per_variant_size: 0 492 2184 0 0 0 0 0 0 
Heartbeat_Variant_2 : 0 0 per_variant_size: 0 0 0 0 0 0 0 0 0 
Heartbeat_Variant_3 : 0 0 per_variant_size: 0 0 0 0 0 0 0 0 0 
Heartbeat_Variant_0_evicts 0 : 5646 1 : 283 2 : 0 3 : 0 
Heartbeat_Variant_1_evicts 0 : 264 1 : 0 2 : 0 3 : 0 
Heartbeat_Variant_2_evicts 0 : 0 1 : 0 2 : 0 3 : 0 
Heartbeat_Variant_3_evicts 0 : 0 1 : 0 2 : 0 3 : 0 
Heartbeat CPU 0 instructions: 40000001 cycles: 11182372 heartbeat IPC: 3.57739 cumulative IPC: 3.57706 (Simulation time: 0 hr 6 min 27 sec) 
Heartbeat_Variant_0 : 1369 0.334229 per_variant_size: 0 1369 0 0 0 0 0 0 0 
Heartbeat_Variant_1 : 2677 0.653564 per_variant_size: 0 495 2182 0 0 0 0 0 0 
Heartbeat_Variant_2 : 0 0 per_variant_size: 0 0 0 0 0 0 0 0 0 
Heartbeat_Variant_3 : 0 0 per_variant_size: 0 0 0 0 0 0 0 0 0 
Heartbeat_Variant_0_evicts 0 : 5596 1 : 134 2 : 0 3 : 0 
Heartbeat_Variant_1_evicts 0 : 129 1 : 0 2 : 0 3 : 0 
Heartbeat_Variant_2_evicts 0 : 0 1 : 0 2 : 0 3 : 0 
Heartbeat_Variant_3_evicts 0 : 0 1 : 0 2 : 0 3 : 0 
Heartbeat CPU 0 instructions: 50000000 cycles: 13978591 heartbeat IPC: 3.57626 cumulative IPC: 3.5769 (Simulation time: 0 hr 8 min 7 sec) 

Warmup complete CPU 0 instructions: 50000004 cycles: 13978592 (Simulation time: 0 hr 8 min 7 sec) 

Cycle: 20000000 FTQ IN: 58319800 FTQ occupancy: 20.3125 DECODE IN: 58319704 DECODE occupancy: 52.6455 ROB IN: 58319644 ROB occupancy: 314.11 ROB OUT: 58319296
Heartbeat_Variant_0 : 1379 0.33667 per_variant_size: 0 1379 0 0 0 0 0 0 0 
Heartbeat_Variant_1 : 2681 0.654541 per_variant_size: 0 499 2182 0 0 0 0 0 0 
Heartbeat_Variant_2 : 0 0 per_variant_size: 0 0 0 0 0 0 0 0 0 
Heartbeat_Variant_3 : 0 0 per_variant_size: 0 0 0 0 0 0 0 0 0 
Heartbeat_Variant_0_evicts 0 : 5808 1 : 497 2 : 0 3 : 0 
Heartbeat_Variant_1_evicts 0 : 493 1 : 0 2 : 0 3 : 0 
Heartbeat_Variant_2_evicts 0 : 0 1 : 0 2 : 0 3 : 0 
Heartbeat_Variant_3_evicts 0 : 0 1 : 0 2 : 0 3 : 0 
Heartbeat CPU 0 instructions: 60000000 cycles: 21214664 heartbeat IPC: 1.38197 cumulative IPC: 1.38196 (Simulation time: 0 hr 9 min 56 sec) 
Heartbeat_Variant_0 : 1384 0.337891 per_variant_size: 0 1384 0 0 0 0 0 0 0 
Heartbeat_Variant_1 : 2679 0.654053 per_variant_size: 0 485 2194 0 0 0 0 0 0 
Heartbeat_Variant_2 : 0 0 per_variant_size: 0 0 0 0 0 0 0 0 0 
Heartbeat_Variant_3 : 0 0 per_variant_size: 0 0 0 0 0 0 0 0 0 
Heartbeat_Variant_0_evicts 0 : 5620 1 : 146 2 : 0 3 : 0 
Heartbeat_Variant_1_evicts 0 : 141 1 : 0 2 : 0 3 : 0 
Heartbeat_Variant_2_evicts 0 : 0 1 : 0 2 : 0 3 : 0 
Heartbeat_Variant_3_evicts 0 : 0 1 : 0 2 : 0 3 : 0 
Heartbeat CPU 0 instructions: 70000001 cycles: 28439890 heartbeat IPC: 1.38404 cumulative IPC: 1.383 (Simulation time: 0 hr 11 min 51 sec) 
Cycle: 30000000 FTQ IN: 13880620 FTQ occupancy: 14.7882 DECODE IN: 13880636 DECODE occupancy: 37.3407 ROB IN: 13880636 ROB occupancy: 242.57 ROB OUT: 13880632
Heartbeat_Variant_0 : 1381 0.337158 per_variant_size: 0 1381 0 0 0 0 0 0 0 
Heartbeat_Variant_1 : 2685 0.655518 per_variant_size: 0 486 2199 0 0 0 0 0 0 
Heartbeat_Variant_2 : 0 0 per_variant_size: 0 0 0 0 0 0 0 0 0 
Heartbeat_Variant_3 : 0 0 per_variant_size: 0 0 0 0 0 0 0 0 0 
Heartbeat_Variant_0_evicts 0 : 5788 1 : 198 2 : 0 3 : 0 
Heartbeat_Variant_1_evicts 0 : 201 1 : 0 2 : 0 3 : 0 
Heartbeat_Variant_2_evicts 0 : 0 1 : 0 2 : 0 3 : 0 
Heartbeat_Variant_3_evicts 0 : 0 1 : 0 2 : 0 3 : 0 
Heartbeat CPU 0 instructions: 80000002 cycles: 35567057 heartbeat IPC: 1.40308 cumulative IPC: 1.38963 (Simulation time: 0 hr 13 min 47 sec) 
Cycle: 40000000 FTQ IN: 14027693 FTQ occupancy: 14.8416 DECODE IN: 14027771 DECODE occupancy: 37.6696 ROB IN: 14027831 ROB occupancy: 242.77 ROB OUT: 14028140
Heartbeat_Variant_0 : 1381 0.337158 per_variant_size: 0 1381 0 0 0 0 0 0 0 
Heartbeat_Variant_1 : 2688 0.65625 per_variant_size: 0 487 2201 0 0 0 0 0 0 
Heartbeat_Variant_2 : 0 0 per_variant_size: 0 0 0 0 0 0 0 0 0 
Heartbeat_Variant_3 : 0 0 per_variant_size: 0 0 0 0 0 0 0 0 0 
Heartbeat_Variant_0_evicts 0 : 5678 1 : 112 2 : 0 3 : 0 
Heartbeat_Variant_1_evicts 0 : 112 1 : 0 2 : 0 3 : 0 
Heartbeat_Variant_2_evicts 0 : 0 1 : 0 2 : 0 3 : 0 
Heartbeat_Variant_3_evicts 0 : 0 1 : 0 2 : 0 3 : 0 
Heartbeat CPU 0 instructions: 90000002 cycles: 42784250 heartbeat IPC: 1.38558 cumulative IPC: 1.38862 (Simulation time: 0 hr 15 min 46 sec) 
Heartbeat_Variant_0 : 1379 0.33667 per_variant_size: 0 1379 0 0 0 0 0 0 0 
Heartbeat_Variant_1 : 2691 0.656982 per_variant_size: 0 508 2183 0 0 0 0 0 0 
Heartbeat_Variant_2 : 0 0 per_variant_size: 0 0 0 0 0 0 0 0 0 
Heartbeat_Variant_3 : 0 0 per_variant_size: 0 0 0 0 0 0 0 0 0 
Heartbeat_Variant_0_evicts 0 : 5756 1 : 217 2 : 0 3 : 0 
Heartbeat_Variant_1_evicts 0 : 219 1 : 0 2 : 0 3 : 0 
Heartbeat_Variant_2_evicts 0 : 0 1 : 0 2 : 0 3 : 0 
Heartbeat_Variant_3_evicts 0 : 0 1 : 0 2 : 0 3 : 0 
Heartbeat CPU 0 instructions: 100000001 cycles: 49945129 heartbeat IPC: 1.39648 cumulative IPC: 1.39018 (Simulation time: 0 hr 17 min 43 sec) 
Finished CPU 0 instructions: 50000001 cycles: 35966538 cumulative IPC: 1.39018 (Simulation time: 0 hr 17 min 43 sec) 

ChampSim completed all CPUs

Region of Interest Statistics

CPU 0 cumulative IPC: 1.39018 instructions: 50000001 cycles: 35966538
 Fetch stage stalled: 46.8862  Sim cycles: 35966538 fetch stall cycle: 16863352
 Empty decode stage: 26.9278  Sim cycles: 35966538 fetch stall cycle: 9685009
ITLB TOTAL     ACCESS:    5841528  HIT:    5347604  MISS:     493924  HIT %:    91.5446  MISS %:    8.45539   MPKI: 9.87848
ITLB LOAD TRANSLATION INSTRUCTION	ACCESS:    5702002  HIT:    5208078  MISS:     493924  HIT %:    91.3377  MISS %:    8.66229  MPKI: 9.87848
ITLB TRANSLATION FROM L1D PREFETCHER INSTRUCTION	ACCESS:     139526  HIT:     139526  MISS:          0  HIT %:        100  MISS %:          0  MPKI: 0

ITLB AVERAGE MISS LATENCY: 9.06107 cycles
ITLB RQ	ACCESS:    7930662	FORWARD:          0	MERGED:    1606004	TO_CACHE:    6324658

DTLB TOTAL     ACCESS:    8968018  HIT:    8495404  MISS:     472614  HIT %:      94.73  MISS %:    5.26999   MPKI: 9.45228
DTLB LOAD TRANSLATION DATA	ACCESS:    8968018  HIT:    8495404  MISS:     472614  HIT %:      94.73  MISS %:    5.26999  MPKI: 9.45228

DTLB AVERAGE MISS LATENCY: 9.3453 cycles
DTLB RQ	ACCESS:   13356842	FORWARD:          0	MERGED:    4350743	TO_CACHE:    9006099

STLB TOTAL     ACCESS:    1214827  HIT:    1212637  MISS:       2190  HIT %:    99.8197  MISS %:   0.180273   MPKI: 0.0438
STLB LOAD TRANSLATION INSTRUCTION	ACCESS:     493924  HIT:     493652  MISS:        272  HIT %:    99.9449  MISS %:  0.0550692  MPKI: 0.00544
STLB LOAD TRANSLATION DATA	ACCESS:     472608  HIT:     470715  MISS:       1893  HIT %:    99.5995  MISS %:   0.400543  MPKI: 0.03786
STLB TRANSLATION FROM L1D PREFETCHER DATA	ACCESS:     248295  HIT:     248270  MISS:         25  HIT %:    99.9899  MISS %:  0.0100687  MPKI: 0.0005

STLB AVERAGE MISS LATENCY: 74.3763 cycles
STLB RQ	ACCESS:    1334512	FORWARD:          0	MERGED:     119641	TO_CACHE:    1214871

STLB Hit, L1D data hit: 0
STLB Hit, L2C data hit: 0
STLB Hit, LLC data hit: 0
STLB Hit, LLC data miss: 0
STLB STLB hints to L2: 0
L1D TOTAL     ACCESS:   13178096  HIT:   12216795  MISS:     961301  HIT %:    92.7053  MISS %:    7.29469   MPKI: 19.226
L1D LOAD DATA	ACCESS:    6577671  HIT:    5951196  MISS:     626475  HIT %:    90.4757  MISS %:    9.52427  MPKI: 12.5295
L1D RFO DATA	ACCESS:    6266809  HIT:    6017366  MISS:     249443  HIT %:    96.0196  MISS %:    3.98038  MPKI: 4.98886
L1D PREFETCH DATA	ACCESS:     333616  HIT:     248233  MISS:      85383  HIT %:    74.4068  MISS %:    25.5932  MPKI: 1.70766

L1D PREFETCH  REQUESTED:     736329  ISSUED:     736329  USEFUL:      29299  USELESS:      63640
L1D USEFUL LOAD PREFETCHES:      29299 PREFETCH ISSUED TO LOWER LEVEL:      93034  ACCURACY: 31.4928
 TIMELY PREFETCHES:      29299 LATE PREFETCHES: 7570 DROPPED PREFETCHES: 10
L1D AVERAGE MISS LATENCY: 256361 cycles
L1D RQ	ACCESS:   10691472	FORWARD:          0	MERGED:    3915183	TO_CACHE:    6607971
L1D WQ	ACCESS:    6947098	FORWARD:     168697	MERGED:     198227	TO_CACHE:    6748871
L1D PQ	ACCESS:     368354	FORWARD:          0	MERGED:          0	TO_CACHE:     367975

L1D UNIQUE REGIONS ACCESSED: 0
L1D REGIONS CONFLICTS: 0
L1D Cross Page Prefetch Requests: 6007
L1D Same Page Prefetch Requests: 745502
L1D ROI Sum of L1D PQ occupancy: 4680280
L1D PREFETCHES PUSHED FROM L2C: 0
L1I TOTAL     ACCESS:    7110612  HIT:    4346708  MISS:    2763904  HIT %:    61.1299  MISS %:    38.8701   MPKI: 55.2781
L1I LOAD INSTRUCTION	ACCESS:    6448712  HIT:    3684808  MISS:    2763904  HIT %:    57.1402  MISS %:    42.8598  MPKI: 55.2781
L1I PREFETCH INSTRUCTION	ACCESS:     661900  HIT:     661900  MISS:          0  HIT %:        100  MISS %:          0  MPKI: 0

L1I PREFETCH  REQUESTED:    1597845  ISSUED:    1597845  USEFUL:          0  USELESS:          0
L1I USEFUL LOAD PREFETCHES:          0 PREFETCH ISSUED TO LOWER LEVEL:          0  ACCURACY: -nan
 TIMELY PREFETCHES:          0 LATE PREFETCHES: 0 DROPPED PREFETCHES: 0
L1I AVERAGE MISS LATENCY: 17.6647 cycles
L1I RQ	ACCESS:    9567727	FORWARD:          0	MERGED:    2812604	TO_CACHE:    6755123
L1I PQ	ACCESS:    1597845	FORWARD:          0	MERGED:     422306	TO_CACHE:    1175539

L1BTB TOTAL     ACCESS:    5674916  HIT:    2046131  MISS:    3628785  HIT %:    36.0557  MISS %:    63.9443   MPKI: 72.5757
L1BTB BRANCH_DIRECT_JUMP	ACCESS:     549424 HIT:     144993 MISS:     404431 AVERAGE STALL: 53.8658 AVERAGE FETCH STALL: 14.3744 AVERAGE FETCH QUEUE STALL: 19.3962 AVERAGE DECODE STALL: 19.1937 AVERAGE EXECUTE STALL: 2.14772e+15
L1BTB BRANCH_INDIRECT	ACCESS:     183349 HIT:      66300 MISS:     117049 AVERAGE STALL: 111.611 AVERAGE FETCH STALL: 11.4098 AVERAGE FETCH QUEUE STALL: 18.7054 AVERAGE DECODE STALL: 12.5942 AVERAGE EXECUTE STALL: 67.9417
L1BTB BRANCH_CONDITIONAL	ACCESS:    2714161 HIT:    1420541 MISS:    1293620 AVERAGE STALL: 76.1201 AVERAGE FETCH STALL: 21.9548 AVERAGE FETCH QUEUE STALL: 34.4279 AVERAGE DECODE STALL: 19.0334 AVERAGE EXECUTE STALL: 2.47441e+15
L1BTB BRANCH_DIRECT_CALL	ACCESS:     942884 HIT:     104284 MISS:     838600 AVERAGE STALL: 66.949 AVERAGE FETCH STALL: 29.0736 AVERAGE FETCH QUEUE STALL: 22.1849 AVERAGE DECODE STALL: 14.9812 AVERAGE EXECUTE STALL: 5.88038e+15
L1BTB BRANCH_INDIRECT_CALL	ACCESS:     171110 HIT:      20865 MISS:     150245 AVERAGE STALL: 134.901 AVERAGE FETCH STALL: 12.5921 AVERAGE FETCH QUEUE STALL: 16.7411 AVERAGE DECODE STALL: 10.6153 AVERAGE EXECUTE STALL: 94.4656
L1BTB BRANCH_RETURN	ACCESS:    1113988 HIT:     289148 MISS:     824840 AVERAGE STALL: 50.6527 AVERAGE FETCH STALL: 17.4626 AVERAGE FETCH QUEUE STALL: 6.28538 AVERAGE DECODE STALL: 6.48145 AVERAGE EXECUTE STALL: 4.08629e+14
L1BTB BRANCH_OTHER ACCESS:          0 HIT:          0 MISS:          0 AVERAGE STALL: -nan AVERAGE FETCH STALL: -nan AVERAGE FETCH QUEUE STALL: -nan AVERAGE DECODE STALL: -nan AVERAGE EXECUTE STALL: -nan
L1BTB TOTAL ROB OCCUPANCY AT BTB MISS: 2.92904

L2BTB TOTAL     ACCESS:    3603282  HIT:    3531433  MISS:      71849  HIT %:     98.006  MISS %:    1.99399   MPKI: 1.43698
L2BTB BRANCH_DIRECT_JUMP	ACCESS:     400228 HIT:     395830 MISS:       4398 AVERAGE STALL: 53.8658 AVERAGE FETCH STALL: 14.3744 AVERAGE FETCH QUEUE STALL: 19.3962 AVERAGE DECODE STALL: 19.1937 AVERAGE EXECUTE STALL: 2.14772e+15
L2BTB BRANCH_INDIRECT	ACCESS:     106768 HIT:     104052 MISS:       2716 AVERAGE STALL: 111.611 AVERAGE FETCH STALL: 11.4098 AVERAGE FETCH QUEUE STALL: 18.7054 AVERAGE DECODE STALL: 12.5942 AVERAGE EXECUTE STALL: 67.9417
L2BTB BRANCH_CONDITIONAL	ACCESS:    1293619 HIT:    1286083 MISS:       7536 AVERAGE STALL: 76.1201 AVERAGE FETCH STALL: 21.9548 AVERAGE FETCH QUEUE STALL: 34.4279 AVERAGE DECODE STALL: 19.0334 AVERAGE EXECUTE STALL: 2.47441e+15
L2BTB BRANCH_DIRECT_CALL	ACCESS:     838599 HIT:     835426 MISS:       3173 AVERAGE STALL: 66.949 AVERAGE FETCH STALL: 29.0736 AVERAGE FETCH QUEUE STALL: 22.1849 AVERAGE DECODE STALL: 14.9812 AVERAGE EXECUTE STALL: 5.88038e+15
L2BTB BRANCH_INDIRECT_CALL	ACCESS:     140667 HIT:     130400 MISS:      10267 AVERAGE STALL: 134.901 AVERAGE FETCH STALL: 12.5921 AVERAGE FETCH QUEUE STALL: 16.7411 AVERAGE DECODE STALL: 10.6153 AVERAGE EXECUTE STALL: 94.4656
L2BTB BRANCH_RETURN	ACCESS:     823401 HIT:     779642 MISS:      43759 AVERAGE STALL: 50.6527 AVERAGE FETCH STALL: 17.4626 AVERAGE FETCH QUEUE STALL: 6.28538 AVERAGE DECODE STALL: 6.48145 AVERAGE EXECUTE STALL: 4.08629e+14
L2BTB BRANCH_OTHER ACCESS:          0 HIT:          0 MISS:          0 AVERAGE STALL: -nan AVERAGE FETCH STALL: -nan AVERAGE FETCH QUEUE STALL: -nan AVERAGE DECODE STALL: -nan AVERAGE EXECUTE STALL: -nan
L2BTB TOTAL ROB OCCUPANCY AT BTB MISS: 147.933

L2C TOTAL     ACCESS:    4267407  HIT:    3713700  MISS:     553707  HIT %:    87.0247  MISS %:    12.9753   MPKI: 11.0741
L2C LOAD INSTRUCTION	ACCESS:    2763904  HIT:    2466733  MISS:     297171  HIT %:    89.2481  MISS %:    10.7519  MPKI: 5.94342
L2C LOAD TRANSLATION INSTRUCTION	ACCESS:        306  HIT:         73  MISS:        233  HIT %:    23.8562  MISS %:    76.1438  MPKI: 0.00466
L2C LOAD DATA	ACCESS:     618841  HIT:     530911  MISS:      87930  HIT %:    85.7912  MISS %:    14.2088  MPKI: 1.7586
L2C RFO DATA	ACCESS:     249330  HIT:     194120  MISS:      55210  HIT %:    77.8567  MISS %:    22.1433  MPKI: 1.1042
L2C PREFETCH DATA	ACCESS:     180644  HIT:      98536  MISS:      82108  HIT %:    54.5471  MISS %:    45.4529  MPKI: 1.64216
L2C WRITEBACK DATA	ACCESS:     452351  HIT:     422840  MISS:      29511  HIT %:    93.4761  MISS %:    6.52392  MPKI: 0.59022
L2C LOAD TRANSLATION DATA	ACCESS:       1982  HIT:        452  MISS:       1530  HIT %:    22.8052  MISS %:    77.1948  MPKI: 0.0306
L2C TRANSLATION FROM L1D PREFETCHER DATA	ACCESS:         49  HIT:         35  MISS:         14  HIT %:    71.4286  MISS %:    28.5714  MPKI: 0.00028

L2C PREFETCH  REQUESTED:      97225  ISSUED:      97225  USEFUL:       9373  USELESS:      73391
L2C USEFUL LOAD PREFETCHES:       9373 PREFETCH ISSUED TO LOWER LEVEL:      82607  ACCURACY: 11.3465
 TIMELY PREFETCHES:       9373 LATE PREFETCHES: 499 DROPPED PREFETCHES: 0
L2C AVERAGE MISS LATENCY: 36.6739 cycles
L2C RQ	ACCESS:    3634508	FORWARD:          0	MERGED:          0	TO_CACHE:    3634412
L2C WQ	ACCESS:     452351	FORWARD:         96	MERGED:          0	TO_CACHE:     452351
L2C PQ	ACCESS:     190259	FORWARD:          0	MERGED:       3942	TO_CACHE:     186317

L2C Dense regions hint from L2: 0
PSCL5 TOTAL     ACCESS:       4408  HIT:       2204  MISS:       2204  HIT %:         50  MISS %:         50   MPKI: 0.04408
PSCL5 LOAD TRANSLATION INSTRUCTION	ACCESS:       4310  HIT:       2155  MISS:       2155  HIT %:         50  MISS %:         50  MPKI: 0.0431
PSCL5 TRANSLATION FROM L1D PREFETCHER INSTRUCTION	ACCESS:         98  HIT:         49  MISS:         49  HIT %:         50  MISS %:         50  MPKI: 0.00098


PSCL4 TOTAL     ACCESS:       4236  HIT:       2112  MISS:       2124  HIT %:    49.8584  MISS %:    50.1416   MPKI: 0.04248
PSCL4 LOAD TRANSLATION INSTRUCTION	ACCESS:       2157  HIT:       2063  MISS:         94  HIT %:    95.6421  MISS %:     4.3579  MPKI: 0.00188
PSCL4 TRANSLATION FROM L1D PREFETCHER INSTRUCTION	ACCESS:         49  HIT:         49  MISS:          0  HIT %:        100  MISS %:          0  MPKI: 0
PSCL4 LOAD TRANSLATION DATA	ACCESS:       1981  HIT:          0  MISS:       1981  HIT %:          0  MISS %:        100  MPKI: 0.03962
PSCL4 TRANSLATION FROM L1D PREFETCHER DATA	ACCESS:         49  HIT:          0  MISS:         49  HIT %:          0  MISS %:        100  MPKI: 0.00098


PSCL3 TOTAL     ACCESS:       4304  HIT:       2146  MISS:       2158  HIT %:    49.8606  MISS %:    50.1394   MPKI: 0.04316
PSCL3 LOAD TRANSLATION INSTRUCTION	ACCESS:       2191  HIT:       2097  MISS:         94  HIT %:    95.7097  MISS %:    4.29028  MPKI: 0.00188
PSCL3 TRANSLATION FROM L1D PREFETCHER INSTRUCTION	ACCESS:         49  HIT:         49  MISS:          0  HIT %:        100  MISS %:          0  MPKI: 0
PSCL3 LOAD TRANSLATION DATA	ACCESS:       2015  HIT:          0  MISS:       2015  HIT %:          0  MISS %:        100  MPKI: 0.0403
PSCL3 TRANSLATION FROM L1D PREFETCHER DATA	ACCESS:         49  HIT:          0  MISS:         49  HIT %:          0  MISS %:        100  MPKI: 0.00098


PSCL2 TOTAL     ACCESS:       4298  HIT:       2094  MISS:       2204  HIT %:    48.7203  MISS %:    51.2797   MPKI: 0.04408
PSCL2 LOAD TRANSLATION INSTRUCTION	ACCESS:       2315  HIT:       2045  MISS:        270  HIT %:    88.3369  MISS %:    11.6631  MPKI: 0.0054
PSCL2 TRANSLATION FROM L1D PREFETCHER INSTRUCTION	ACCESS:         49  HIT:         49  MISS:          0  HIT %:        100  MISS %:          0  MPKI: 0
PSCL2 LOAD TRANSLATION DATA	ACCESS:       1885  HIT:          0  MISS:       1885  HIT %:          0  MISS %:        100  MPKI: 0.0377
PSCL2 TRANSLATION FROM L1D PREFETCHER DATA	ACCESS:         49  HIT:          0  MISS:         49  HIT %:          0  MISS %:        100  MPKI: 0.00098


LLC TOTAL     ACCESS:     606301  HIT:     577445  MISS:      28856  HIT %:    95.2406  MISS %:    4.75935   MPKI: 0.57712
LLC LOAD INSTRUCTION	ACCESS:     297171  HIT:     296242  MISS:        929  HIT %:    99.6874  MISS %:   0.312615  MPKI: 0.01858
LLC LOAD TRANSLATION INSTRUCTION	ACCESS:        233  HIT:        184  MISS:         49  HIT %:      78.97  MISS %:      21.03  MPKI: 0.00098
LLC LOAD DATA	ACCESS:      87444  HIT:      83898  MISS:       3546  HIT %:    95.9448  MISS %:    4.05517  MPKI: 0.07092
LLC RFO DATA	ACCESS:      55191  HIT:      41615  MISS:      13576  HIT %:    75.4018  MISS %:    24.5982  MPKI: 0.27152
LLC PREFETCH DATA	ACCESS:      82607  HIT:      72337  MISS:      10270  HIT %:    87.5676  MISS %:    12.4324  MPKI: 0.2054
LLC WRITEBACK DATA	ACCESS:      82111  HIT:      81717  MISS:        394  HIT %:    99.5202  MISS %:   0.479838  MPKI: 0.00788
LLC LOAD TRANSLATION DATA	ACCESS:       1530  HIT:       1439  MISS:         91  HIT %:    94.0523  MISS %:    5.94771  MPKI: 0.00182
LLC TRANSLATION FROM L1D PREFETCHER DATA	ACCESS:         14  HIT:         13  MISS:          1  HIT %:    92.8571  MISS %:    7.14286  MPKI: 2e-05

LLC AVERAGE MISS LATENCY: 157.306 cycles
LLC RQ	ACCESS:     441589	FORWARD:          0	MERGED:          0	TO_CACHE:     441583
LLC WQ	ACCESS:      82111	FORWARD:          6	MERGED:          0	TO_CACHE:      82111
LLC PQ	ACCESS:      82607	FORWARD:          0	MERGED:          0	TO_CACHE:      82607

LLC Dense regions hint to LLC: 0

RAW hits: 1944053
Loads Generated: 12635525
Loads sent to L1D: 10691472
Stores Generated: 6947086
Stores sent to L1D: 6947098
Major fault: 0 Minor fault: 2601
Allocated PAGES: 2601

stream: 
stream:times selected: 1176225
stream:pref_filled: 109895
stream:pref_useful: 20104
stream:pref_late: 6103
stream:misses: 5535
stream:misses_by_poll: 0

CS: 
CS:times selected: 174802
CS:pref_filled: 54002
CS:pref_useful: 32589
CS:pref_late: 6085
CS:misses: 13849
CS:misses_by_poll: 1

CPLX: 
CPLX:times selected: 1000187
CPLX:pref_filled: 19188
CPLX:pref_useful: 4371
CPLX:pref_late: 2729
CPLX:misses: 78941
CPLX:misses_by_poll: 1

NL_L1: 
NL:times selected: 19843
NL:pref_filled: 704
NL:pref_useful: 320
NL:pref_late: 198
NL:misses: 856
NL:misses_by_poll: 0

total selections: 2371057
total_filled: 85383
total_useful: 29299
total_late: 16301
total_polluted: 2
total_misses_after_warmup: 656781
conflicts: 5537031

test: 115297

DRAM Statistics
 CHANNEL 0
 RQ ROW_BUFFER_HIT:      10384  ROW_BUFFER_MISS:      18067
 DBUS_CONGESTED:         15
 WQ ROW_BUFFER_HIT:       1377  ROW_BUFFER_MISS:      12604  FULL:          0

 AVG_CONGESTED_CYCLE: 5

CPU 0 Branch Prediction Accuracy: 99.8092% MPKI: 0.34892 Average ROB Occupancy at Mispredict: 189.362
Branch types
NOT_BRANCH: 40857157 81.7143%
BRANCH_DIRECT_JUMP: 549424 1.09885%
BRANCH_INDIRECT: 183349 0.366698%
BRANCH_CONDITIONAL: 6181892 12.3638%
BRANCH_DIRECT_CALL: 942884 1.88577%
BRANCH_INDIRECT_CALL: 171110 0.34222%
BRANCH_RETURN: 1113988 2.22798%
BRANCH_OTHER: 0 0%

DRAM PAGES: 1048576
Allocated PAGES: 2601
Average_ROB_Occupancy: 242.083
Average_Decode_Occupancy: 37.1093
Average_FTQ_Occupancy: 14.6907
Indirect max targets: 14 Average targets: 1.1505
Branch_type:  BRANCH_DIRECT_JUMP:  Count Percentage: 3.24829 5.53099 5.12363 9.12238 1.74016 5.96783 0.891939 68.3748 
Branch_type:  BRANCH_INDIRECT:  Count Percentage: 11.7458 3.46491 2.55452 0 2.5452 9.67468 19.2228 50.7921 
Branch_type:  BRANCH_CONDITIONAL:  Count Percentage: 21.4515 2.58987 1.84246 8.41924 1.23162 5.06896 1.95747 57.4389 
Branch_type:  BRANCH_DIRECT_CALL:  Count Percentage: 0.257349 1.79076 1.44555 4.83602 2.15601 2.75191 0.751905 86.0105 
Branch_type:  BRANCH_INDIRECT_CALL:  Count Percentage: 9.53326 0.571582 2.98674 4.83994 0.000291475 2.01875 1.28307 78.7664 
Branch_type:  BRANCH_RETURN:  Count Percentage: 3.18859 1.30476 1.27108 9.31576 2.84213 6.55351 3.12936 72.3948 
Branch_type:  BRANCH_DIRECT_JUMP:  Total Count: 35588 60597 56134 99944 19065 65383 9772 749108 
Branch_type:  BRANCH_INDIRECT:  Total Count: 42886 12651 9327 0 9293 35324 70186 185451 
Branch_type:  BRANCH_CONDITIONAL:  Total Count: 2648851 319799 227508 1039615 152082 625919 241710 7092595 
Branch_type:  BRANCH_DIRECT_CALL:  Total Count: 4868 33874 27344 91478 40783 52055 14223 1626970 
Branch_type:  BRANCH_INDIRECT_CALL:  Total Count: 32707 1961 10247 16605 1 6926 4402 270234 
Branch_type:  BRANCH_RETURN:  Total Count: 71281 29168 28415 208254 63536 146504 69957 1618388 
Number of unique branch instructions: 10308
Upper 32 bits: 
aaaa
ffff
ffff0000
Unique upper 32 bits: 3
Unique upper 36 bits: 3
Unique upper 40 bits: 5
Unique upper 44 bits: 32
Unique upper 48 bits: 154
Variant_0 : 1379 0.33667
Variant_1 : 2691 0.656982
Variant_2 : 0 0
Variant_3 : 0 0
Offset_3 4268
Offset_4 260
Offset_5 469
Offset_6 531
Offset_7 612
Offset_8 540
Offset_9 491
Offset_10 399
Offset_11 338
Offset_12 297
Offset_13 225
Offset_14 232
Offset_15 201
Offset_16 230
Offset_17 162
Offset_18 128
Offset_19 252
Offset_20 144
Offset_21 236
Offset_22 404
Offset_23 245
Offset_24 346
Offset_25 88
Offset_47 84
Offset_64 21
decode_dispatch_called: 25933102 72.1034
Dispatch_width: 0 13986452 53.9328 38.8874
Dispatch_width: 1 975427 3.76132 2.71204
Dispatch_width: 2 825873 3.18463 2.29623
Dispatch_width: 3 475133 1.83215 1.32104
Dispatch_width: 4 5980920 23.0629 16.6291
Dispatch_width: 5 112244 0.432821 0.312079
Dispatch_width: 6 3577053 13.7934 9.9455
Empty_decode_cycles: 10033436 27.8966
ROB_full_cycles: 9432232 26.225
Starvation_cycles_per_kilo_instr: 229.573
Starvation_cycles_per_kilo_instr_3: 168.641
Starvation_cycles_per_kilo_instr_0: 145.877
Branch_type_1  (3,1)  (4,9)  (5,37)  (6,73)  (7,118)  (8,138)  (9,129)  (10,102)  (11,76)  (12,51)  (13,8)  (14,2)  (15,3)  (16,4)  (18,1)  (19,4)  (20,2)  (21,1)  (22,3)  (23,2)  (24,10)  (25,12)  (64,3) 
Branch_type_2  (3,1)  (5,1)  (8,3)  (9,3)  (12,1)  (13,1)  (14,1)  (16,3)  (17,2)  (20,2)  (21,2)  (23,5)  (24,1)  (47,39) 
Branch_type_3  (3,4266)  (4,251)  (5,427)  (6,441)  (7,460)  (8,333)  (9,270)  (10,164)  (11,140)  (12,58)  (13,7)  (24,3)  (64,11) 
Branch_type_4  (6,4)  (7,8)  (8,30)  (9,54)  (10,63)  (11,63)  (12,105)  (13,96)  (14,102)  (15,96)  (16,104)  (17,73)  (18,58)  (19,124)  (20,74)  (21,124)  (22,215)  (23,138)  (24,202)  (25,72)  (64,4) 
Branch_type_5  (8,2)  (9,1)  (10,3)  (11,5)  (12,3)  (13,14)  (14,16)  (15,11)  (16,20)  (17,13)  (18,16)  (19,12)  (20,11)  (21,13)  (22,42)  (23,26)  (24,37) 
Branch_type_6  (5,4)  (6,13)  (7,26)  (8,34)  (9,34)  (10,67)  (11,54)  (12,79)  (13,99)  (14,111)  (15,91)  (16,99)  (17,74)  (18,53)  (19,112)  (20,55)  (21,96)  (22,144)  (23,74)  (24,93)  (25,4)  (47,45)  (64,3) 
Unique trigger count: 
Variant_0_evicts_0 : 0
Variant_0_evicts_1 : 0
Variant_0_evicts_2 : 0
Variant_0_evicts_3 : 0
Variant_1_evicts_0 : 0
Variant_1_evicts_1 : 0
Variant_1_evicts_2 : 0
Variant_1_evicts_3 : 0
Variant_2_evicts_0 : 0
Variant_2_evicts_1 : 0
Variant_2_evicts_2 : 0
Variant_2_evicts_3 : 0
Variant_3_evicts_0 : 0
Variant_3_evicts_1 : 0
Variant_3_evicts_2 : 0
Variant_3_evicts_3 : 0
BTB PER SET UNIQUE ADDR: 13 12 10 11 10 15 10 13 9 13 10 17 14 12 12 9 13 15 14 13 15 14 11 15 8 13 11 18 11 12 13 11 15 12 9 12 12 11 7 9 11 9 13 13 9 8 12 9 17 12 10 10 11 12 11 5 11 13 7 14 11 16 11 15 14 21 13 10 18 11 11 12 19 11 13 6 8 20 12 16 13 8 13 17 10 11 13 11 10 18 10 9 15 10 10 17 16 12 17 16 15 21 13 8 13 11 12 13 6 14 10 14 12 14 6 9 16 8 10 14 15 11 15 8 13 15 8 16 16 10 9 21 11 14 12 9 7 12 8 16 10 15 11 8 13 13 8 12 8 13 12 15 10 16 10 17 18 14 11 14 11 11 14 11 12 16 12 11 17 14 13 13 10 13 10 10 11 11 15 12 9 12 10 17 17 15 8 15 12 8 8 13 8 19 15 10 8 15 12 11 12 16 15 9 10 11 10 14 12 15 12 15 14 10 13 10 11 13 11 22 9 15 10 11 10 15 16 13 11 13 13 11 10 16 13 16 17 11 9 9 11 12 12 14 10 10 11 10 16 14 13 15 13 11 15 12 9 9 10 15 12 8 8 19 16 10 10 8 14 13 12 17 8 12 9 9 10 12 12 13 10 16 10 11 14 7 12 15 16 16 9 10 17 12 9 14 10 12 13 11 8 11 10 16 12 19 13 16 16 13 9 15 14 16 13 12 14 19 14 16 13 13 11 11 17 13 13 12 11 11 12 17 13 9 11 16 8 9 8 22 14 14 11 11 12 11 12 12 11 14 17 13 14 15 14 13 10 10 9 11 10 14 10 16 12 16 7 12 10 13 12 11 15 15 12 13 11 20 18 14 12 13 8 11 10 12 10 21 8 18 16 9 14 21 10 12 9 13 12 14 13 15 11 16 17 15 15 14 11 13 18 10 13 18 10 15 12 15 18 11 13 12 13 13 16 7 14 14 16 11 18 15 8 12 17 14 15 12 12 14 10 11 12 15 20 10 11 13 14 18 11 25 14 9 19 20 12 11 7 13 11 13 12 16 15 10 12 12 11 13 13 12 15 13 16 14 11 17 7 17 17 18 13 15 9 18 17 17 14 15 10 10 10 10 12 13 15 13 11 13 12 18 10 18 10 14 9 12 14 14 18 14 12 12 14 15 11 16 9 7 10 11 13 9 11 13 21 11 7 15 15 16 13 12 15 17 14 19 11 11 10 14 11 13 15 11 10 11 11 7 13 17 12 11 7 15 14 11 17 11 11 17 8 13 14 15 12 12 14 15 13 16 18 15 11 13 11 19 8 13 12 12 9 10 12 13 11 14 17 14 10 13 17 12 12 13 12 16 10 12 16 11 8 9 13 12 14 13 15 14 15 14 11 11 6 18 8 12 17 16 15 14 9 11 14 13 10 14 13 11 11 16 7 11 10 14 13 12 9 12 11 12 14 17 11 14 12 17 15 7 8 16 9 7 19 15 11 14 11 12 12 9 13 16 12 14 10 13 11 14 15 13 13 15 17 11 15 16 11 15 10 10 15 14 10 13 12 10 11 12 11 11 13 11 11 10 11 21 10 15 11 9 15 18 9 17 17 9 12 14 13 14 12 14 13 11 15 13 14 17 15 14 13 11 10 11 13 11 11 10 16 12 16 12 11 16 15 19 14 11 9 8 10 16 14 10 11 13 11 9 14 13 14 14 8 14 17 16 11 12 13 9 10 13 15 15 9 13 13 14 11 10 13 13 13 10 12 11 15 17 11 11 13 11 9 9 12 14 8 10 9 8 14 10 15 13 12 9 15 10 17 14 19 19 15 13 10 16 16 10 14 16 15 13 17 13 11 16 9 13 11 15 7 14 15 14 10 11 15 13 14 22 12 12 12 16 18 10 14 14 14 17 10 10 14 13 14 12 11 14 10 9 12 15 9 12 12 18 12 13 13 10 13 9 18 7 17 11 15 11 11 14 14 7 18 9 16 12 8 13 15 12 16 14 14 14 12 17 13 11 11 12 14 12 10 15 19 16 12 9 12 10 12 13 10 14 12 11 15 18 10 10 12 14 14 11 18 11 11 11 10 14 12 10 13 9 7 14 15 10 15 19 11 15 12 11 14 14 17 14 11 15 7 11 10 13 15 16 10 16 13 13 9 12 9 12 12 14 11 14 16 8 14 13 13 11 17 10 7 17 15 13 14 10 10 9 16 12 14 11 11 14 12 19 10 15 11 12 15 18 13 11 9 14 12 13 10 13 17 11 15 16 8 11 11 17 10 15 12 15 14 18 12 9 13 10 6 11 6 9 14 13 9 8 
BTB PER SET COUNT: 356 14 1944 16 11 36 1309 27 52 20 18 712 14528 375 16 9 383 24 93 111 73 19 512 89 14 21 18 33 11 18 423 15 20 23 11 508 15 12 8 13 14 14 16 18 10 12 37 16 1084 17 13 297 17 131 16 392 67 21 255 18 19 67 20 31 26 173 30 1432 39 25 683 247 36 16 17 6 10 774 17 23 15 18 532 131 15 53 20 118 1372 50 14 10 21 57 35 41 324 501 24 6296 23 1272 16 8 785 15 19 15 1350 15 17 31 552 25 9 736 24 15 1489 705 225 92 24 8 14 65 14 71 29 1124 14 275 18 19 13 10 150 23 13 27 15 23 14 10 20 24 10 17 14 75 15 274 1326 28 16 27 97 22 18 25 21 16 22 13 1475 24 22 16 24 368 14 16 28 26 19 694 18 19 40 16 14 258 189 25 34 67 12 27 26 145 10 15 12 44 24 17 11 1189 14 493 19 90 999 10 14 15 11 19 66 63 23 59 17 1303 19 69 17 37 570 36 32 25 473 24 18 24 28 19 16 22 19 18 22 23 20 623 29 22 15 11 19 19 17 786 25 556 14 10 18 22 20 23 16 20 18 27 12 57 13 37 14 12 10 137 21 28 18 14 437 21 19 25 12 15 571 9 12 15 14 219 24 24 499 838 23 10 15 25 20 21 15 16 27 529 13 21 13 21 17 386 11 17 22 22 16 90 16 367 342 460 434 24 16 29 1976 89 21 40 38 25 16 2645 13 14 1491 469 20 17 17 21 17 24 17 14 16 21 13 241 9 32 20 1928 17 42 124 12 24 18 15 38 184 33 20 24 28 16 15 13 10 32 13 21 15 26 16 1043 7 14 19 18 19 546 21 230 533 16 12 33 318 386 203 18 11 14 11 15 449 28 8 34 43 13 20 28 14 68 10 22 27 2020 17 21 14 19 32 24 22 510 21 19 30 11 35 220 14 27 20 5576 31 12 16 20 22 18 29 9 31 76 29 1433 32 22 11 13 50 30 17 25 14 24 15 17 24 24 121 17 1070 20 30 28 18 69 24 11 31 832 20 16 7 16 14 16 17 20 28 143 12 14 14 39 15 21 15 26 32 19 17 32 9 25 28 21 94 24 13 35 21 33 24 57 169 10 784 13 21 24 577 981 15 50 15 27 11 164 12 14 11 19 19 19 536 59 713 714 26 23 24 21 18 13 12 16 86 34 12 21 357 1618 12 1524 20 26 19 15 28 459 31 759 16 587 13 20 53 20 20 12 12 12 19 923 18 28 267 46 7 28 28 15 29 19 16 120 8 17 22 24 26 18 21 21 15 19 29 30 143 21 23 508 10 24 17 19 12 2952 15 29 736 17 25 16 13 18 627 17 22 23 2390 360 263 48 29 19 10 13 16 32 22 865 66 22 30 21 17 17 10 32 9 18 373 557 23 19 10 17 19 22 16 22 1475 16 19 21 10 14 10 16 18 791 10 22 21 16 19 21 608 22 255 29 233 9 11 28 12 11 36 171 12 352 490 12 21 11 17 31 21 36 22 1536 1748 25 22 17 542 68 55 945 25 41 17 25 13 16 342 31 1975 20 18 11 14 25 12 15 31 18 103 18 122 3071 12 24 996 17 410 23 13 262 25 36 12 24 61 589 202 19 502 100 977 44 39 33 24 300 13 446 12 15 25 12 918 10 208 13369 27 132 51 26 575 36 16 22 16 12 511 35 544 14 246 16 18 11 34 17 664 766 12 16 22 1479 17 23 17 16 12 385 2724 23 12 22 26 143 13 11 21 21 25 10 15 914 59 624 796 14 22 19 15 13 17 14 10 13 11 9 18 12 564 19 25 13 46 649 31 66 29 236 272 65 12 29 39 12 22 5199 20 15 349 42 1212 30 85 38 12 1048 11 26 734 26 13 13 30 18 15 46 12 20 147 232 81 11 146 77 24 615 12 18 439 19 18 12 15 27 1102 32 14 23 26 20 18 29 20 15 999 342 20 9 45 8 24 14 20 20 32 18 16 14 24 9 32 67 11 26 19 18 174 22 381 1791 79 24 27 602 12 1445 203 20 10 89 28 26 16 12 12 14 18 20 14 21 12 15 126 37 277 12 15 19 25 52 953 17 22 20 18 511 18 20 31 12 9 26 23 19 57 26 410 18 15 222 18 59 88 24 18 734 17 17 11 14 26 32 15 16 188 1045 783 4112 9 21 16 43 17 24 24 11 27 17 21 13 1438 15 10 18 25 129 24 10 14 13 19 22 68 16 118 23 19 279 16 26 1982 109 21 156 50 1356 16 1268 1490 18 12 1484 35 15 27 51 15 14 13 26 11 23 15 452 1082 164 20 13 16 18 6 34 6 13 26 551 13 8 
To predecode: 0
Predecoding something: 0
Predecode request dropped: 0
sizeofblock_0 0
sizeofblock_1 61804
sizeofblock_2 87606
sizeofblock_3 0
sizeofblock_4 0
sizeofblock_5 0
sizeofblock_6 0
sizeofblock_7 0
sizeofblock_8 0
Variant_0 Correct: 1611570 Incorrect: 0 Accuracy: 1
Variant_1 Correct: 5741281 Incorrect: 0 Accuracy: 1
Variant_2 Correct: 0 Incorrect: 0 Accuracy: -nan
Variant_3 Correct: 0 Incorrect: 0 Accuracy: -nan
