
*** ChampSim Multicore Out-of-Order Simulator ***

Warmup Instructions: 50000000
Simulation Instructions: 50000000
Number of CPUs: 1
LLC sets: 2048
LLC ways: 16
Off-chip DRAM Size: 4096 MB Channels: 1 Width: 64-bit Data Rate: 6400 MT/s
CPU 0 runs ./micro_traces/srv197.trace.gz
.gz
ITLB has LRU replacement policy
DTLB has LRU replacement policy
STLB has LRU replacement policy
FDIP Prefetcher at L1I
L1I has LRU replacement policy
L1D has LRU replacement policy
Initialize SRRIP state for L2C
Initialize DRRIP state for LLC
Heartbeat_Variant_0 : 1342 0.327637 per_variant_size: 0 1342 0 0 0 0 0 0 0 
Heartbeat_Variant_1 : 2566 0.626465 per_variant_size: 0 548 2018 0 0 0 0 0 0 
Heartbeat_Variant_2 : 0 0 per_variant_size: 0 0 0 0 0 0 0 0 0 
Heartbeat_Variant_3 : 0 0 per_variant_size: 0 0 0 0 0 0 0 0 0 
Heartbeat_Variant_0_evicts 0 : 5784 1 : 518 2 : 0 3 : 0 
Heartbeat_Variant_1_evicts 0 : 480 1 : 0 2 : 0 3 : 0 
Heartbeat_Variant_2_evicts 0 : 0 1 : 0 2 : 0 3 : 0 
Heartbeat_Variant_3_evicts 0 : 0 1 : 0 2 : 0 3 : 0 
Heartbeat CPU 0 instructions: 10000001 cycles: 2847310 heartbeat IPC: 3.51209 cumulative IPC: 3.51209 (Simulation time: 0 hr 1 min 44 sec) 
Heartbeat_Variant_0 : 1342 0.327637 per_variant_size: 0 1342 0 0 0 0 0 0 0 
Heartbeat_Variant_1 : 2574 0.628418 per_variant_size: 0 546 2028 0 0 0 0 0 0 
Heartbeat_Variant_2 : 0 0 per_variant_size: 0 0 0 0 0 0 0 0 0 
Heartbeat_Variant_3 : 0 0 per_variant_size: 0 0 0 0 0 0 0 0 0 
Heartbeat_Variant_0_evicts 0 : 5595 1 : 17 2 : 0 3 : 0 
Heartbeat_Variant_1_evicts 0 : 18 1 : 0 2 : 0 3 : 0 
Heartbeat_Variant_2_evicts 0 : 0 1 : 0 2 : 0 3 : 0 
Heartbeat_Variant_3_evicts 0 : 0 1 : 0 2 : 0 3 : 0 
Heartbeat CPU 0 instructions: 20000001 cycles: 5694376 heartbeat IPC: 3.51239 cumulative IPC: 3.51224 (Simulation time: 0 hr 3 min 28 sec) 
Heartbeat_Variant_0 : 1343 0.327881 per_variant_size: 0 1343 0 0 0 0 0 0 0 
Heartbeat_Variant_1 : 2599 0.634521 per_variant_size: 0 540 2059 0 0 0 0 0 0 
Heartbeat_Variant_2 : 0 0 per_variant_size: 0 0 0 0 0 0 0 0 0 
Heartbeat_Variant_3 : 0 0 per_variant_size: 0 0 0 0 0 0 0 0 0 
Heartbeat_Variant_0_evicts 0 : 5680 1 : 95 2 : 0 3 : 0 
Heartbeat_Variant_1_evicts 0 : 96 1 : 0 2 : 0 3 : 0 
Heartbeat_Variant_2_evicts 0 : 0 1 : 0 2 : 0 3 : 0 
Heartbeat_Variant_3_evicts 0 : 0 1 : 0 2 : 0 3 : 0 
Heartbeat CPU 0 instructions: 30000003 cycles: 8539803 heartbeat IPC: 3.51441 cumulative IPC: 3.51296 (Simulation time: 0 hr 5 min 12 sec) 
Heartbeat_Variant_0 : 1368 0.333984 per_variant_size: 0 1368 0 0 0 0 0 0 0 
Heartbeat_Variant_1 : 2644 0.645508 per_variant_size: 0 487 2157 0 0 0 0 0 0 
Heartbeat_Variant_2 : 0 0 per_variant_size: 0 0 0 0 0 0 0 0 0 
Heartbeat_Variant_3 : 0 0 per_variant_size: 0 0 0 0 0 0 0 0 0 
Heartbeat_Variant_0_evicts 0 : 5791 1 : 402 2 : 0 3 : 0 
Heartbeat_Variant_1_evicts 0 : 396 1 : 0 2 : 0 3 : 0 
Heartbeat_Variant_2_evicts 0 : 0 1 : 0 2 : 0 3 : 0 
Heartbeat_Variant_3_evicts 0 : 0 1 : 0 2 : 0 3 : 0 
Heartbeat CPU 0 instructions: 40000001 cycles: 11383395 heartbeat IPC: 3.51668 cumulative IPC: 3.51389 (Simulation time: 0 hr 6 min 57 sec) 
Heartbeat_Variant_0 : 1378 0.336426 per_variant_size: 0 1378 0 0 0 0 0 0 0 
Heartbeat_Variant_1 : 2640 0.644531 per_variant_size: 0 480 2160 0 0 0 0 0 0 
Heartbeat_Variant_2 : 0 0 per_variant_size: 0 0 0 0 0 0 0 0 0 
Heartbeat_Variant_3 : 0 0 per_variant_size: 0 0 0 0 0 0 0 0 0 
Heartbeat_Variant_0_evicts 0 : 5629 1 : 99 2 : 0 3 : 0 
Heartbeat_Variant_1_evicts 0 : 90 1 : 0 2 : 0 3 : 0 
Heartbeat_Variant_2_evicts 0 : 0 1 : 0 2 : 0 3 : 0 
Heartbeat_Variant_3_evicts 0 : 0 1 : 0 2 : 0 3 : 0 
Heartbeat CPU 0 instructions: 50000003 cycles: 14228662 heartbeat IPC: 3.51461 cumulative IPC: 3.51403 (Simulation time: 0 hr 8 min 41 sec) 

Warmup complete CPU 0 instructions: 50000003 cycles: 14228662 (Simulation time: 0 hr 8 min 41 sec) 

Cycle: 20000000 FTQ IN: 56772557 FTQ occupancy: 20.7925 DECODE IN: 56772557 DECODE occupancy: 54.1857 ROB IN: 56772557 ROB occupancy: 324.257 ROB OUT: 56772482
Heartbeat_Variant_0 : 1379 0.33667 per_variant_size: 0 1379 0 0 0 0 0 0 0 
Heartbeat_Variant_1 : 2654 0.647949 per_variant_size: 0 509 2145 0 0 0 0 0 0 
Heartbeat_Variant_2 : 0 0 per_variant_size: 0 0 0 0 0 0 0 0 0 
Heartbeat_Variant_3 : 0 0 per_variant_size: 0 0 0 0 0 0 0 0 0 
Heartbeat_Variant_0_evicts 0 : 5639 1 : 262 2 : 0 3 : 0 
Heartbeat_Variant_1_evicts 0 : 264 1 : 0 2 : 0 3 : 0 
Heartbeat_Variant_2_evicts 0 : 0 1 : 0 2 : 0 3 : 0 
Heartbeat_Variant_3_evicts 0 : 0 1 : 0 2 : 0 3 : 0 
Heartbeat CPU 0 instructions: 60000002 cycles: 22754711 heartbeat IPC: 1.17288 cumulative IPC: 1.17288 (Simulation time: 0 hr 10 min 54 sec) 
Cycle: 30000000 FTQ IN: 11749985 FTQ occupancy: 15.5304 DECODE IN: 11749877 DECODE occupancy: 40.2579 ROB IN: 11749817 ROB occupancy: 266.788 ROB OUT: 11749540
Heartbeat_Variant_0 : 1386 0.338379 per_variant_size: 0 1386 0 0 0 0 0 0 0 
Heartbeat_Variant_1 : 2651 0.647217 per_variant_size: 0 482 2169 0 0 0 0 0 0 
Heartbeat_Variant_2 : 0 0 per_variant_size: 0 0 0 0 0 0 0 0 0 
Heartbeat_Variant_3 : 0 0 per_variant_size: 0 0 0 0 0 0 0 0 0 
Heartbeat_Variant_0_evicts 0 : 5626 1 : 87 2 : 0 3 : 0 
Heartbeat_Variant_1_evicts 0 : 80 1 : 0 2 : 0 3 : 0 
Heartbeat_Variant_2_evicts 0 : 0 1 : 0 2 : 0 3 : 0 
Heartbeat_Variant_3_evicts 0 : 0 1 : 0 2 : 0 3 : 0 
Heartbeat CPU 0 instructions: 70000001 cycles: 31257775 heartbeat IPC: 1.17605 cumulative IPC: 1.17446 (Simulation time: 0 hr 13 min 8 sec) 
Heartbeat_Variant_0 : 1385 0.338135 per_variant_size: 0 1385 0 0 0 0 0 0 0 
Heartbeat_Variant_1 : 2658 0.648926 per_variant_size: 0 479 2179 0 0 0 0 0 0 
Heartbeat_Variant_2 : 0 0 per_variant_size: 0 0 0 0 0 0 0 0 0 
Heartbeat_Variant_3 : 0 0 per_variant_size: 0 0 0 0 0 0 0 0 0 
Heartbeat_Variant_0_evicts 0 : 5610 1 : 117 2 : 0 3 : 0 
Heartbeat_Variant_1_evicts 0 : 119 1 : 0 2 : 0 3 : 0 
Heartbeat_Variant_2_evicts 0 : 0 1 : 0 2 : 0 3 : 0 
Heartbeat_Variant_3_evicts 0 : 0 1 : 0 2 : 0 3 : 0 
Heartbeat CPU 0 instructions: 80000003 cycles: 39763141 heartbeat IPC: 1.17573 cumulative IPC: 1.17488 (Simulation time: 0 hr 15 min 22 sec) 
Cycle: 40000000 FTQ IN: 11757311 FTQ occupancy: 15.5281 DECODE IN: 11757419 DECODE occupancy: 40.3373 ROB IN: 11757479 ROB occupancy: 267.267 ROB OUT: 11757567
Heartbeat_Variant_0 : 1394 0.340332 per_variant_size: 0 1394 0 0 0 0 0 0 0 
Heartbeat_Variant_1 : 2653 0.647705 per_variant_size: 0 481 2172 0 0 0 0 0 0 
Heartbeat_Variant_2 : 0 0 per_variant_size: 0 0 0 0 0 0 0 0 0 
Heartbeat_Variant_3 : 0 0 per_variant_size: 0 0 0 0 0 0 0 0 0 
Heartbeat_Variant_0_evicts 0 : 5746 1 : 100 2 : 0 3 : 0 
Heartbeat_Variant_1_evicts 0 : 92 1 : 0 2 : 0 3 : 0 
Heartbeat_Variant_2_evicts 0 : 0 1 : 0 2 : 0 3 : 0 
Heartbeat_Variant_3_evicts 0 : 0 1 : 0 2 : 0 3 : 0 
Heartbeat CPU 0 instructions: 90000002 cycles: 48313670 heartbeat IPC: 1.16952 cumulative IPC: 1.17354 (Simulation time: 0 hr 17 min 39 sec) 
Cycle: 50000000 FTQ IN: 11719914 FTQ occupancy: 15.6563 DECODE IN: 11719914 DECODE occupancy: 40.4308 ROB IN: 11719914 ROB occupancy: 267.056 ROB OUT: 11720062
Heartbeat_Variant_0 : 1395 0.340576 per_variant_size: 0 1395 0 0 0 0 0 0 0 
Heartbeat_Variant_1 : 2654 0.647949 per_variant_size: 0 473 2181 0 0 0 0 0 0 
Heartbeat_Variant_2 : 0 0 per_variant_size: 0 0 0 0 0 0 0 0 0 
Heartbeat_Variant_3 : 0 0 per_variant_size: 0 0 0 0 0 0 0 0 0 
Heartbeat_Variant_0_evicts 0 : 5612 1 : 21 2 : 0 3 : 0 
Heartbeat_Variant_1_evicts 0 : 20 1 : 0 2 : 0 3 : 0 
Heartbeat_Variant_2_evicts 0 : 0 1 : 0 2 : 0 3 : 0 
Heartbeat_Variant_3_evicts 0 : 0 1 : 0 2 : 0 3 : 0 
Heartbeat CPU 0 instructions: 100000001 cycles: 56783312 heartbeat IPC: 1.18069 cumulative IPC: 1.17496 (Simulation time: 0 hr 19 min 52 sec) 
Finished CPU 0 instructions: 50000002 cycles: 42554651 cumulative IPC: 1.17496 (Simulation time: 0 hr 19 min 52 sec) 

ChampSim completed all CPUs

Region of Interest Statistics

CPU 0 cumulative IPC: 1.17496 instructions: 50000002 cycles: 42554651
 Fetch stage stalled: 43.3145  Sim cycles: 42554651 fetch stall cycle: 18432340
 Empty decode stage: 19.3437  Sim cycles: 42554651 fetch stall cycle: 8231635
ITLB TOTAL     ACCESS:    5910182  HIT:    5416419  MISS:     493763  HIT %:    91.6456  MISS %:    8.35445   MPKI: 9.87526
ITLB LOAD TRANSLATION INSTRUCTION	ACCESS:    5778349  HIT:    5284586  MISS:     493763  HIT %:    91.4549  MISS %:    8.54505  MPKI: 9.87526
ITLB TRANSLATION FROM L1D PREFETCHER INSTRUCTION	ACCESS:     131833  HIT:     131833  MISS:          0  HIT %:        100  MISS %:          0  MPKI: 0

ITLB AVERAGE MISS LATENCY: 9.04332 cycles
ITLB RQ	ACCESS:    7996440	FORWARD:          0	MERGED:    1612489	TO_CACHE:    6383951

DTLB TOTAL     ACCESS:    8976227  HIT:    8505630  MISS:     470597  HIT %:    94.7573  MISS %:     5.2427   MPKI: 9.41194
DTLB LOAD TRANSLATION DATA	ACCESS:    8976227  HIT:    8505630  MISS:     470597  HIT %:    94.7573  MISS %:     5.2427  MPKI: 9.41194

DTLB AVERAGE MISS LATENCY: 9.30944 cycles
DTLB RQ	ACCESS:   13347632	FORWARD:          0	MERGED:    4336414	TO_CACHE:    9011218

STLB TOTAL     ACCESS:    1200665  HIT:    1198685  MISS:       1980  HIT %:    99.8351  MISS %:   0.164909   MPKI: 0.0396
STLB LOAD TRANSLATION INSTRUCTION	ACCESS:     493763  HIT:     493537  MISS:        226  HIT %:    99.9542  MISS %:  0.0457709  MPKI: 0.00452
STLB LOAD TRANSLATION DATA	ACCESS:     470596  HIT:     468842  MISS:       1754  HIT %:    99.6273  MISS %:   0.372719  MPKI: 0.03508
STLB TRANSLATION FROM L1D PREFETCHER DATA	ACCESS:     236306  HIT:     236306  MISS:          0  HIT %:        100  MISS %:          0  MPKI: 0

STLB AVERAGE MISS LATENCY: 70.0121 cycles
STLB RQ	ACCESS:    1308237	FORWARD:          0	MERGED:     107572	TO_CACHE:    1200665

STLB Hit, L1D data hit: 0
STLB Hit, L2C data hit: 0
STLB Hit, LLC data hit: 0
STLB Hit, LLC data miss: 0
STLB STLB hints to L2: 0
L1D TOTAL     ACCESS:   11627796  HIT:    7103651  MISS:    4524145  HIT %:     61.092  MISS %:     38.908   MPKI: 90.4829
L1D LOAD DATA	ACCESS:    6345353  HIT:    3364026  MISS:    2981327  HIT %:    53.0156  MISS %:    46.9844  MPKI: 59.6265
L1D RFO DATA	ACCESS:    4993148  HIT:    3560323  MISS:    1432825  HIT %:    71.3042  MISS %:    28.6958  MPKI: 28.6565
L1D PREFETCH DATA	ACCESS:     289295  HIT:     179302  MISS:     109993  HIT %:    61.9789  MISS %:    38.0211  MPKI: 2.19986

L1D PREFETCH  REQUESTED:     688052  ISSUED:     688052  USEFUL:      25652  USELESS:      97847
L1D USEFUL LOAD PREFETCHES:      25652 PREFETCH ISSUED TO LOWER LEVEL:     123722  ACCURACY: 20.7336
 TIMELY PREFETCHES:      25652 LATE PREFETCHES: 13569 DROPPED PREFETCHES: 0
L1D AVERAGE MISS LATENCY: 107716 cycles
L1D RQ	ACCESS:   10656231	FORWARD:          0	MERGED:    3906812	TO_CACHE:    6592151
L1D WQ	ACCESS:    6946339	FORWARD:     157564	MERGED:     190858	TO_CACHE:    6755481
L1D PQ	ACCESS:     344174	FORWARD:          0	MERGED:          0	TO_CACHE:     343878

L1D UNIQUE REGIONS ACCESSED: 0
L1D REGIONS CONFLICTS: 0
L1D Cross Page Prefetch Requests: 2552
L1D Same Page Prefetch Requests: 707937
L1D ROI Sum of L1D PQ occupancy: 4330214
L1D PREFETCHES PUSHED FROM L2C: 0
L1I TOTAL     ACCESS:    7190017  HIT:    4428255  MISS:    2761762  HIT %:    61.5889  MISS %:    38.4111   MPKI: 55.2352
L1I LOAD INSTRUCTION	ACCESS:    6512522  HIT:    3750760  MISS:    2761762  HIT %:     57.593  MISS %:     42.407  MPKI: 55.2352
L1I PREFETCH INSTRUCTION	ACCESS:     677495  HIT:     677495  MISS:          0  HIT %:        100  MISS %:          0  MPKI: 0

L1I PREFETCH  REQUESTED:    1615320  ISSUED:    1615320  USEFUL:          0  USELESS:          0
L1I USEFUL LOAD PREFETCHES:          0 PREFETCH ISSUED TO LOWER LEVEL:          0  ACCURACY: -nan
 TIMELY PREFETCHES:          0 LATE PREFETCHES: 0 DROPPED PREFETCHES: 0
L1I AVERAGE MISS LATENCY: 17.5069 cycles
L1I RQ	ACCESS:    9583119	FORWARD:          0	MERGED:    2778285	TO_CACHE:    6804834
L1I PQ	ACCESS:    1615320	FORWARD:          0	MERGED:     423714	TO_CACHE:    1191606

L1BTB TOTAL     ACCESS:    5671366  HIT:    2042266  MISS:    3629100  HIT %:    36.0101  MISS %:    63.9899   MPKI: 72.582
L1BTB BRANCH_DIRECT_JUMP	ACCESS:     548144 HIT:     144789 MISS:     403355 AVERAGE STALL: 69.1658 AVERAGE FETCH STALL: 13.5886 AVERAGE FETCH QUEUE STALL: 27.7532 AVERAGE DECODE STALL: 26.909 AVERAGE EXECUTE STALL: 2.12276e+15
L1BTB BRANCH_INDIRECT	ACCESS:     182904 HIT:      65955 MISS:     116949 AVERAGE STALL: 132.975 AVERAGE FETCH STALL: 10.9122 AVERAGE FETCH QUEUE STALL: 21.0726 AVERAGE DECODE STALL: 15.986 AVERAGE EXECUTE STALL: 84.042
L1BTB BRANCH_CONDITIONAL	ACCESS:    2705112 HIT:    1412350 MISS:    1292762 AVERAGE STALL: 74.2816 AVERAGE FETCH STALL: 19.8296 AVERAGE FETCH QUEUE STALL: 31.2346 AVERAGE DECODE STALL: 22.4402 AVERAGE EXECUTE STALL: 4.16876e+15
L1BTB BRANCH_DIRECT_CALL	ACCESS:     945712 HIT:     106159 MISS:     839553 AVERAGE STALL: 86.9852 AVERAGE FETCH STALL: 28.7159 AVERAGE FETCH QUEUE STALL: 35.3609 AVERAGE DECODE STALL: 22.1931 AVERAGE EXECUTE STALL: 1.08959e+16
L1BTB BRANCH_INDIRECT_CALL	ACCESS:     171889 HIT:      21465 MISS:     150424 AVERAGE STALL: 183.957 AVERAGE FETCH STALL: 13.095 AVERAGE FETCH QUEUE STALL: 22.035 AVERAGE DECODE STALL: 15.8238 AVERAGE EXECUTE STALL: 132.502
L1BTB BRANCH_RETURN	ACCESS:    1117605 HIT:     291548 MISS:     826057 AVERAGE STALL: 56.4701 AVERAGE FETCH STALL: 17.8115 AVERAGE FETCH QUEUE STALL: 6.65041 AVERAGE DECODE STALL: 6.37503 AVERAGE EXECUTE STALL: 4.28974e+14
L1BTB BRANCH_OTHER ACCESS:          0 HIT:          0 MISS:          0 AVERAGE STALL: -nan AVERAGE FETCH STALL: -nan AVERAGE FETCH QUEUE STALL: -nan AVERAGE DECODE STALL: -nan AVERAGE EXECUTE STALL: -nan
L1BTB TOTAL ROB OCCUPANCY AT BTB MISS: 2.95329

L2BTB TOTAL     ACCESS:    3603714  HIT:    3538053  MISS:      65661  HIT %:     98.178  MISS %:    1.82204   MPKI: 1.31322
L2BTB BRANCH_DIRECT_JUMP	ACCESS:     399189 HIT:     394661 MISS:       4528 AVERAGE STALL: 69.1658 AVERAGE FETCH STALL: 13.5886 AVERAGE FETCH QUEUE STALL: 27.7532 AVERAGE DECODE STALL: 26.909 AVERAGE EXECUTE STALL: 2.12276e+15
L2BTB BRANCH_INDIRECT	ACCESS:     106686 HIT:     104010 MISS:       2676 AVERAGE STALL: 132.975 AVERAGE FETCH STALL: 10.9122 AVERAGE FETCH QUEUE STALL: 21.0726 AVERAGE DECODE STALL: 15.986 AVERAGE EXECUTE STALL: 84.042
L2BTB BRANCH_CONDITIONAL	ACCESS:    1292762 HIT:    1288292 MISS:       4470 AVERAGE STALL: 74.2816 AVERAGE FETCH STALL: 19.8296 AVERAGE FETCH QUEUE STALL: 31.2346 AVERAGE DECODE STALL: 22.4402 AVERAGE EXECUTE STALL: 4.16876e+15
L2BTB BRANCH_DIRECT_CALL	ACCESS:     839553 HIT:     837840 MISS:       1713 AVERAGE STALL: 86.9852 AVERAGE FETCH STALL: 28.7159 AVERAGE FETCH QUEUE STALL: 35.3609 AVERAGE DECODE STALL: 22.1931 AVERAGE EXECUTE STALL: 1.08959e+16
L2BTB BRANCH_INDIRECT_CALL	ACCESS:     140880 HIT:     130204 MISS:      10676 AVERAGE STALL: 183.957 AVERAGE FETCH STALL: 13.095 AVERAGE FETCH QUEUE STALL: 22.035 AVERAGE DECODE STALL: 15.8238 AVERAGE EXECUTE STALL: 132.502
L2BTB BRANCH_RETURN	ACCESS:     824644 HIT:     783046 MISS:      41598 AVERAGE STALL: 56.4701 AVERAGE FETCH STALL: 17.8115 AVERAGE FETCH QUEUE STALL: 6.65041 AVERAGE DECODE STALL: 6.37503 AVERAGE EXECUTE STALL: 4.28974e+14
L2BTB BRANCH_OTHER ACCESS:          0 HIT:          0 MISS:          0 AVERAGE STALL: -nan AVERAGE FETCH STALL: -nan AVERAGE FETCH QUEUE STALL: -nan AVERAGE DECODE STALL: -nan AVERAGE EXECUTE STALL: -nan
L2BTB TOTAL ROB OCCUPANCY AT BTB MISS: 163.229

L2C TOTAL     ACCESS:    8829892  HIT:    8337916  MISS:     491976  HIT %:    94.4283  MISS %:    5.57171   MPKI: 9.83952
L2C LOAD INSTRUCTION	ACCESS:    2761762  HIT:    2479118  MISS:     282644  HIT %:    89.7658  MISS %:    10.2342  MPKI: 5.65288
L2C LOAD TRANSLATION INSTRUCTION	ACCESS:        255  HIT:         70  MISS:        185  HIT %:     27.451  MISS %:     72.549  MPKI: 0.0037
L2C LOAD DATA	ACCESS:    2934052  HIT:    2858138  MISS:      75914  HIT %:    97.4127  MISS %:    2.58734  MPKI: 1.51828
L2C RFO DATA	ACCESS:    1376718  HIT:    1325167  MISS:      51551  HIT %:    96.2555  MISS %:    3.74449  MPKI: 1.03102
L2C PREFETCH DATA	ACCESS:     214524  HIT:     146885  MISS:      67639  HIT %:    68.4702  MISS %:    31.5298  MPKI: 1.35278
L2C WRITEBACK DATA	ACCESS:    1540760  HIT:    1527957  MISS:      12803  HIT %:     99.169  MISS %:   0.830954  MPKI: 0.25606
L2C LOAD TRANSLATION DATA	ACCESS:       1821  HIT:        581  MISS:       1240  HIT %:    31.9055  MISS %:    68.0945  MPKI: 0.0248

L2C PREFETCH  REQUESTED:      98500  ISSUED:      98500  USEFUL:      13441  USELESS:      54712
L2C USEFUL LOAD PREFETCHES:      13441 PREFETCH ISSUED TO LOWER LEVEL:      68166  ACCURACY: 19.718
 TIMELY PREFETCHES:      13441 LATE PREFETCHES: 527 DROPPED PREFETCHES: 0
L2C AVERAGE MISS LATENCY: 37.2998 cycles
L2C RQ	ACCESS:    7164265	FORWARD:          0	MERGED:          0	TO_CACHE:    7074614
L2C WQ	ACCESS:    1574345	FORWARD:      90351	MERGED:      33585	TO_CACHE:    1540760
L2C PQ	ACCESS:     222222	FORWARD:          0	MERGED:       2772	TO_CACHE:     218750

L2C Dense regions hint from L2: 0
PSCL5 TOTAL     ACCESS:       3960  HIT:       1980  MISS:       1980  HIT %:         50  MISS %:         50   MPKI: 0.0396
PSCL5 LOAD TRANSLATION INSTRUCTION	ACCESS:       3960  HIT:       1980  MISS:       1980  HIT %:         50  MISS %:         50  MPKI: 0.0396


PSCL4 TOTAL     ACCESS:       2966  HIT:       1482  MISS:       1484  HIT %:    49.9663  MISS %:    50.0337   MPKI: 0.02968
PSCL4 LOAD TRANSLATION INSTRUCTION	ACCESS:       2832  HIT:       1482  MISS:       1350  HIT %:    52.3305  MISS %:    47.6695  MPKI: 0.027
PSCL4 LOAD TRANSLATION DATA	ACCESS:        134  HIT:          0  MISS:        134  HIT %:          0  MISS %:        100  MPKI: 0.00268


PSCL3 TOTAL     ACCESS:       3896  HIT:       1945  MISS:       1951  HIT %:     49.923  MISS %:     50.077   MPKI: 0.03902
PSCL3 LOAD TRANSLATION INSTRUCTION	ACCESS:       3640  HIT:       1945  MISS:       1695  HIT %:    53.4341  MISS %:    46.5659  MPKI: 0.0339
PSCL3 LOAD TRANSLATION DATA	ACCESS:        256  HIT:          0  MISS:        256  HIT %:          0  MISS %:        100  MPKI: 0.00512


PSCL2 TOTAL     ACCESS:       3872  HIT:       1892  MISS:       1980  HIT %:    48.8636  MISS %:    51.1364   MPKI: 0.0396
PSCL2 LOAD TRANSLATION INSTRUCTION	ACCESS:       2117  HIT:       1892  MISS:        225  HIT %:    89.3718  MISS %:    10.6282  MPKI: 0.0045
PSCL2 LOAD TRANSLATION DATA	ACCESS:       1755  HIT:          0  MISS:       1755  HIT %:          0  MISS %:        100  MPKI: 0.0351


LLC TOTAL     ACCESS:     553351  HIT:     526999  MISS:      26352  HIT %:    95.2377  MISS %:    4.76226   MPKI: 0.52704
LLC LOAD INSTRUCTION	ACCESS:     282644  HIT:     282102  MISS:        542  HIT %:    99.8082  MISS %:   0.191761  MPKI: 0.01084
LLC LOAD TRANSLATION INSTRUCTION	ACCESS:        185  HIT:        159  MISS:         26  HIT %:    85.9459  MISS %:    14.0541  MPKI: 0.00052
LLC LOAD DATA	ACCESS:      75411  HIT:      71458  MISS:       3953  HIT %:    94.7581  MISS %:    5.24194  MPKI: 0.07906
LLC RFO DATA	ACCESS:      51508  HIT:      38232  MISS:      13276  HIT %:    74.2254  MISS %:    25.7746  MPKI: 0.26552
LLC PREFETCH DATA	ACCESS:      68164  HIT:      59960  MISS:       8204  HIT %:    87.9643  MISS %:    12.0357  MPKI: 0.16408
LLC WRITEBACK DATA	ACCESS:      74199  HIT:      73923  MISS:        276  HIT %:     99.628  MISS %:   0.371973  MPKI: 0.00552
LLC LOAD TRANSLATION DATA	ACCESS:       1240  HIT:       1165  MISS:         75  HIT %:    93.9516  MISS %:    6.04839  MPKI: 0.0015

LLC AVERAGE MISS LATENCY: 149.952 cycles
LLC RQ	ACCESS:     411009	FORWARD:          0	MERGED:          0	TO_CACHE:     410990
LLC WQ	ACCESS:      74200	FORWARD:         21	MERGED:          0	TO_CACHE:      74200
LLC PQ	ACCESS:      68166	FORWARD:          0	MERGED:          0	TO_CACHE:      68164

LLC Dense regions hint to LLC: 0

RAW hits: 1976230
Loads Generated: 12632461
Loads sent to L1D: 10656231
Stores Generated: 6946342
Stores sent to L1D: 6946339
Major fault: 0 Minor fault: 2580
Allocated PAGES: 2580

stream: 
stream:times selected: 1184722
stream:pref_filled: 203126
stream:pref_useful: 27910
stream:pref_late: 25957
stream:misses: 37053
stream:misses_by_poll: 0

CS: 
CS:times selected: 176489
CS:pref_filled: 4956
CS:pref_useful: 2102
CS:pref_late: 4230
CS:misses: 5253
CS:misses_by_poll: 0

CPLX: 
CPLX:times selected: 1182895
CPLX:pref_filled: 24322
CPLX:pref_useful: 3881
CPLX:pref_late: 5458
CPLX:misses: 431374
CPLX:misses_by_poll: 0

NL_L1: 
NL:times selected: 6470
NL:pref_filled: 605
NL:pref_useful: 158
NL:pref_late: 171
NL:misses: 2880
NL:misses_by_poll: 0

total selections: 2550576
total_filled: 109993
total_useful: 25652
total_late: 38462
total_polluted: 0
total_misses_after_warmup: 3228126
conflicts: 5562670

test: 116263

DRAM Statistics
 CHANNEL 0
 RQ ROW_BUFFER_HIT:       9523  ROW_BUFFER_MISS:      16547
 DBUS_CONGESTED:          7
 WQ ROW_BUFFER_HIT:       1180  ROW_BUFFER_MISS:      12107  FULL:          0

 AVG_CONGESTED_CYCLE: 5

CPU 0 Branch Prediction Accuracy: 99.8226% MPKI: 0.32462 Average ROB Occupancy at Mispredict: 205.085
Branch types
NOT_BRANCH: 40851619 81.7032%
BRANCH_DIRECT_JUMP: 548144 1.09629%
BRANCH_INDIRECT: 182904 0.365808%
BRANCH_CONDITIONAL: 6181957 12.3639%
BRANCH_DIRECT_CALL: 945712 1.89142%
BRANCH_INDIRECT_CALL: 171889 0.343778%
BRANCH_RETURN: 1117605 2.23521%
BRANCH_OTHER: 0 0%

DRAM PAGES: 1048576
Allocated PAGES: 2580
Average_ROB_Occupancy: 267.801
Average_Decode_Occupancy: 40.2843
Average_FTQ_Occupancy: 15.5281
Indirect max targets: 14 Average targets: 1.14765
Branch_type:  BRANCH_DIRECT_JUMP:  Count Percentage: 2.9132 6.78799 2.96082 4.81234 1.69935 6.83158 1.25434 72.7404 
Branch_type:  BRANCH_INDIRECT:  Count Percentage: 11.7687 3.42617 2.55218 13.3424 3.34572 4.81924 2.00491 58.7407 
Branch_type:  BRANCH_CONDITIONAL:  Count Percentage: 21.1775 2.89347 1.67272 3.20137 1.14122 5.4399 0.739576 63.7342 
Branch_type:  BRANCH_DIRECT_CALL:  Count Percentage: 0.754182 1.26362 1.13011 2.91895 1.99552 3.18921 0.769905 87.9785 
Branch_type:  BRANCH_INDIRECT_CALL:  Count Percentage: 9.52312 0.571736 2.9835 4.83546 0.00029096 3.77666 0.995665 77.3136 
Branch_type:  BRANCH_RETURN:  Count Percentage: 4.18933 0.696273 2.26756 3.59729 2.05752 5.61868 1.15793 80.4154 
Branch_type:  BRANCH_DIRECT_JUMP:  Total Count: 31874 74269 32395 52653 18593 74746 13724 795870 
Branch_type:  BRANCH_INDIRECT:  Total Count: 43009 12521 9327 48760 12227 17612 7327 214669 
Branch_type:  BRANCH_CONDITIONAL:  Total Count: 2616062 357431 206632 395466 140975 671992 91360 7873100 
Branch_type:  BRANCH_DIRECT_CALL:  Total Count: 14246 23869 21347 55137 37694 60242 14543 1661856 
Branch_type:  BRANCH_INDIRECT_CALL:  Total Count: 32730 1965 10254 16619 1 12980 3422 265719 
Branch_type:  BRANCH_RETURN:  Total Count: 93567 15551 50645 80344 45954 125491 25862 1796048 
Number of unique branch instructions: 10072
Upper 32 bits: 
aaaa
ffff
ffff0000
Unique upper 32 bits: 3
Unique upper 36 bits: 3
Unique upper 40 bits: 5
Unique upper 44 bits: 32
Unique upper 48 bits: 154
Variant_0 : 1395 0.340576
Variant_1 : 2654 0.647949
Variant_2 : 0 0
Variant_3 : 0 0
Offset_3 4161
Offset_4 250
Offset_5 458
Offset_6 516
Offset_7 596
Offset_8 524
Offset_9 477
Offset_10 388
Offset_11 321
Offset_12 273
Offset_13 213
Offset_14 227
Offset_15 197
Offset_16 230
Offset_17 151
Offset_18 128
Offset_19 246
Offset_20 142
Offset_21 235
Offset_22 398
Offset_23 241
Offset_24 338
Offset_25 88
Offset_47 82
decode_dispatch_called: 31893935 74.9482
Dispatch_width: 0 19183214 60.1469 45.079
Dispatch_width: 1 1211557 3.79871 2.84706
Dispatch_width: 2 961543 3.01481 2.25955
Dispatch_width: 3 558204 1.75019 1.31173
Dispatch_width: 4 7295524 22.8743 17.1439
Dispatch_width: 5 94794 0.297216 0.222758
Dispatch_width: 6 2589099 8.11784 6.08417
Empty_decode_cycles: 10660716 25.0518
ROB_full_cycles: 16128794 37.9014
Starvation_cycles_per_kilo_instr: 238.368
Starvation_cycles_per_kilo_instr_3: 164.464
Starvation_cycles_per_kilo_instr_0: 137.151
Branch_type_1  (3,1)  (4,9)  (5,37)  (6,72)  (7,118)  (8,130)  (9,125)  (10,99)  (11,72)  (12,44)  (13,8)  (14,2)  (15,3)  (16,4)  (18,1)  (19,4)  (20,2)  (21,1)  (22,3)  (23,2)  (24,10)  (25,12) 
Branch_type_2  (3,1)  (5,1)  (8,3)  (9,3)  (12,1)  (13,1)  (14,1)  (16,3)  (17,2)  (20,2)  (21,2)  (23,5)  (24,1)  (47,38) 
Branch_type_3  (3,4159)  (4,241)  (5,416)  (6,428)  (7,446)  (8,328)  (9,263)  (10,158)  (11,133)  (12,51)  (13,7) 
Branch_type_4  (6,4)  (7,8)  (8,26)  (9,54)  (10,62)  (11,60)  (12,98)  (13,90)  (14,100)  (15,94)  (16,104)  (17,66)  (18,58)  (19,120)  (20,74)  (21,124)  (22,212)  (23,136)  (24,198)  (25,72) 
Branch_type_5  (8,2)  (9,1)  (10,3)  (11,5)  (12,3)  (13,14)  (14,16)  (15,11)  (16,20)  (17,13)  (18,16)  (19,12)  (20,10)  (21,13)  (22,42)  (23,26)  (24,37) 
Branch_type_6  (5,4)  (6,12)  (7,24)  (8,35)  (9,31)  (10,66)  (11,51)  (12,76)  (13,93)  (14,108)  (15,89)  (16,99)  (17,70)  (18,53)  (19,110)  (20,54)  (21,95)  (22,141)  (23,72)  (24,92)  (25,4)  (47,44) 
Unique trigger count: 
Variant_0_evicts_0 : 0
Variant_0_evicts_1 : 0
Variant_0_evicts_2 : 0
Variant_0_evicts_3 : 0
Variant_1_evicts_0 : 0
Variant_1_evicts_1 : 0
Variant_1_evicts_2 : 0
Variant_1_evicts_3 : 0
Variant_2_evicts_0 : 0
Variant_2_evicts_1 : 0
Variant_2_evicts_2 : 0
Variant_2_evicts_3 : 0
Variant_3_evicts_0 : 0
Variant_3_evicts_1 : 0
Variant_3_evicts_2 : 0
Variant_3_evicts_3 : 0
BTB PER SET UNIQUE ADDR: 11 14 7 11 8 13 8 11 7 12 10 11 10 11 11 6 10 12 11 11 9 10 14 10 8 12 7 8 10 12 13 10 13 11 10 10 13 14 11 14 13 9 11 10 9 12 11 8 9 11 12 12 10 15 8 7 9 8 10 15 6 14 13 12 14 9 13 8 15 12 16 14 12 9 8 12 5 11 10 16 9 11 9 12 13 11 11 7 7 10 9 9 9 12 7 13 7 12 12 9 14 11 12 8 10 10 8 14 7 8 10 10 9 12 8 5 14 8 8 11 12 9 7 9 10 11 5 13 12 8 6 13 11 11 14 13 10 12 11 14 9 10 10 10 9 13 14 9 10 11 13 11 8 12 7 11 10 11 11 10 13 10 16 13 9 11 14 12 11 9 7 13 11 11 11 5 10 9 8 9 12 9 9 13 15 15 7 9 10 9 7 9 7 17 10 8 12 9 10 10 13 11 7 9 9 10 10 9 8 11 8 15 12 13 11 15 8 12 12 15 8 15 8 11 6 12 12 10 5 12 8 7 12 12 13 11 16 8 12 9 10 11 10 15 9 8 10 6 10 9 9 11 12 8 13 12 9 7 7 10 10 8 5 13 12 7 10 6 9 9 11 15 8 5 7 11 10 12 11 13 10 7 11 9 11 10 10 14 13 14 9 9 12 10 11 11 12 11 11 9 10 12 7 15 7 11 12 8 13 13 9 13 6 16 13 9 9 10 11 14 10 12 10 8 10 13 8 6 9 7 8 10 7 11 10 11 8 9 10 15 8 12 6 13 13 11 10 7 9 8 10 10 6 12 14 7 6 8 7 10 12 14 7 9 7 14 8 13 9 7 8 4 10 9 11 11 11 12 11 12 7 8 8 10 9 11 12 12 14 11 13 6 14 15 12 9 11 12 10 11 8 14 10 12 12 13 10 11 14 9 9 9 7 13 12 6 8 14 15 14 8 12 9 15 12 5 9 9 11 10 14 16 9 13 14 11 14 9 8 8 11 8 11 17 15 8 10 12 14 11 14 13 11 10 12 12 15 11 8 13 12 9 12 13 11 9 13 8 7 11 16 13 11 6 8 10 9 11 9 11 10 11 9 6 7 15 16 13 12 12 9 9 9 9 10 10 13 13 9 10 11 12 9 12 11 12 10 11 13 11 11 14 14 11 15 12 9 12 7 8 9 10 9 8 10 10 11 10 7 12 9 8 11 10 10 15 8 11 10 9 11 10 11 13 10 12 9 13 11 13 11 15 12 10 11 12 9 10 14 10 9 14 7 10 11 15 8 6 10 13 14 10 9 10 9 13 13 16 10 10 10 12 7 10 12 10 7 13 11 14 7 9 12 10 9 13 12 8 6 6 12 8 8 8 11 11 15 11 8 8 10 13 10 9 8 14 9 13 14 11 14 10 8 11 9 10 8 12 9 8 8 12 11 11 9 9 14 13 11 11 8 13 10 10 12 10 11 10 16 7 8 9 8 11 12 13 10 9 11 9 13 7 13 16 10 11 10 13 11 8 11 11 11 10 10 10 15 10 9 15 5 12 12 13 15 11 9 11 14 12 12 14 12 6 9 14 9 17 9 17 10 13 11 12 6 11 10 6 8 7 9 8 13 13 10 6 15 9 10 8 11 10 12 11 12 8 12 8 9 11 8 13 14 8 9 7 11 16 11 10 6 10 10 12 11 9 10 14 13 9 12 8 11 11 7 10 16 10 11 8 16 11 8 10 14 12 9 14 7 10 7 11 10 10 15 9 11 14 14 12 10 11 10 10 12 12 8 9 8 6 7 6 12 11 12 12 8 12 17 7 13 14 13 16 15 8 12 9 12 13 8 8 12 15 9 7 14 12 7 13 11 13 12 8 11 11 10 11 13 12 11 9 13 11 8 14 9 8 11 8 11 13 9 10 8 9 8 18 11 10 9 6 10 13 11 17 13 13 8 11 13 9 8 7 13 7 7 9 13 10 7 11 13 11 13 8 10 14 8 9 13 6 10 13 12 11 12 16 8 10 9 10 10 11 11 9 14 8 8 9 13 12 13 10 7 11 11 14 12 11 8 12 15 11 12 11 11 10 8 12 10 10 9 12 10 8 8 14 9 7 10 9 10 11 8 9 11 7 12 15 8 19 10 10 7 12 9 16 9 14 9 10 9 10 7 14 11 10 11 12 10 10 8 12 10 12 9 10 9 13 9 9 11 10 13 10 14 14 11 11 8 12 12 10 10 17 14 9 13 7 12 14 8 14 8 6 12 13 16 12 13 11 9 13 13 10 9 18 10 14 7 12 11 7 11 11 5 10 8 9 9 16 10 7 
BTB PER SET COUNT: 11 15 1976 14 9 13 1472 12 1473 13 15 1470 20624 1479 15 8 1473 14 673 14 10 729 880 125 11 13 7 9 395 965 340 11 16 12 13 14 25 18 18 1936 16 11 12 532 11 15 14 8 12 149 17 465 14 27 8 381 13 9 315 16 6 139 418 14 23 12 21 11 19 15 25 935 18 13 8 19 5 13 14 16 993 14 451 15 14 41 18 8 8 11 13 858 40 510 9 14 989 985 13 15 18 508 15 8 1987 15 10 15 992 8 11 19 955 20 10 7 15 8 8 858 33 12 8 10 11 109 5 20 14 990 6 80 18 12 20 18 158 23 12 26 10 15 11 13 11 267 467 10 11 28 17 296 961 16 7 14 983 12 12 13 18 237 323 13 9 594 20 15 12 382 9 17 11 14 14 5 13 11 9 515 78 234 620 18 23 694 8 9 12 10 9 12 7 24 11 139 16 993 14 12 13 13 9 10 11 12 13 505 8 13 10 34 16 14660 21 110 12 15 321 21 12 26 9 13 6 18 12 256 5 12 10 8 14 16 972 13 55 8 21 9 12 16 12 22 14 1302 1483 6 12 11 12 21 12 10 16 27 9 9 7 10 12 8 5 86 18 7 12 7 9 10 11 512 9 6 7 17 11 19 15 20 18 9 15 11 13 17 10 17 13 17 10 9 15 12 14 15 56 15 12 14 13 16 7 18 8 17 53 8 17 34 10 17 6 21 1339 11 10 20 14 16 12 5032 14 11 30 611 9 6 13 9 8 15 42 15 14 13 9 18 10 24 11 50 8 15 17 14 12 7 15 90 10 10 6 14 19 7 7 8 7 12 17 16 7 14 8 1799 9 14 9 7 10 385 12 9 988 14 13 16 16 18 989 8 9 12 9 13 1373 16 18 1160 141 6 19 386 14 12 14 18 16 497 8 15 10 13 15 17 11 12 18 12 10 9 7 824 17 6 11 79 28 15 9 13 13 18 18 5 1031 13 14 1385 26 21 10 16 343 16 22 12 8 8 13 9 13 19 74 10 773 16 16 11 19 23 19 12 16 934 17 13 8 17 35 12 14 13 12 10 21 10 8 12 23 14 12 6 9 10 10 19 12 11 14 11 9 6 8 20 19 15 15 17 12 9 974 9 11 12 449 988 19 13 13 13 12 59 18 14 12 15 17 13 15 353 226 480 18 15 11 19 15 10 15 17 11 8 13 11 50 12 8 21 13 8 14 12 10 30 8 1000 16 9 15 10 13 19 17 14 9 16 14 862 14 22 980 11 12 12 9 14 19 11 12 22 8 11 14 20 9 6 14 1038 18 13 10 13 1476 15 16 19 13 11 11 17 7 2945 12 11 9 16 17 17 7 12 17 13 29 17 491 1375 6 7 19 12 8 13 15 13 19 1515 9 9 11 15 17 15 9 17 11 19 807 637 21 11 9 13 15 12 10 432 1472 8 10 18 702 20 11 10 19 15 14 15 8 14 12 14 1451 118 505 14 32 7 8 11 9 14 15 283 10 10 449 13 17 7 17 22 11 15 11 951 2426 11 15 14 988 11 24 310 19 15 21 20 5 19 301 25 1989 16 10 13 14 17 15 22 15 6 2449 15 9 63 13 22 13 16 14 18 6 16 14 10 9 7 10 9 1052 18 21 6 950 11 20 14 283 82 14 1076 17 8 14 11 83 2337 11 18 120 10 17 12 14 18 14 12 988 18 428 19 14 9 997 18 15 11 1481 10 40 1478 7 13 25 12 15 8 24 14 8 56 2685 15 10 447 8 20 7 20 13 17 17 10 16 602 19 360 1481 12 783 11 13 290 8 12 8 6 9 977 20 14 456 18 208 20 27 1643 18 17 16 22 505 13 14 9 15 39 9 7852 14 73 419 7 18 2452 9 14 17 1197 20 10 13 13 13 14 18 16 15 10 19 19 58 15 10 9 232 8 15 567 11 13 8 10 9 23 12 12 1436 442 18 24 11 20 22 15 16 11 18 9 12 10 20 18 7 13 16 10 8 16 19 13 19 8 13 20 8 13 14 7 31 138 14 1966 13 23 12 13 9 14 11 30 12 15 17 9 11 16 15 16 24 343 7 18 15 19 122 13 9 22 21 15 16 11 56 74 9 17 13 556 9 1019 14 715 11 17 10 17 33 11 1992 11 11 300 15 8 15 24 8 667 18 12 8 378 22 18 10 17 11 986 10 15 8 19 160 15 143 869 566 19 991 13 13 18 13 13 11 19 15 11 11 11 19 10 19 19 508 459 787 18 20 309 11 29 1374 782 18 7 18 16 18 100 11 6 13 1486 29 17 19 102 10 20 14 14 17 33 10 14 43 14 14 9 11 16 5 13 9 13 9 363 11 7 
To predecode: 0
Predecoding something: 0
Predecode request dropped: 0
sizeofblock_0 0
sizeofblock_1 49553
sizeofblock_2 87972
sizeofblock_3 0
sizeofblock_4 0
sizeofblock_5 0
sizeofblock_6 0
sizeofblock_7 0
sizeofblock_8 0
Variant_0 Correct: 1612056 Incorrect: 0 Accuracy: 1
Variant_1 Correct: 5729496 Incorrect: 0 Accuracy: 1
Variant_2 Correct: 0 Incorrect: 0 Accuracy: -nan
Variant_3 Correct: 0 Incorrect: 0 Accuracy: -nan
